drugbank_target|O43283 Mitogen-activated protein kinase kinase kinase 13 (DB12010)
 OpenBabel12092121163D

  0  0  0     0  0            999 V3000
M  V30 BEGIN CTAB
M  V30 COUNTS 14970 15142 0 0 0
M  V30 BEGIN ATOM
M  V30 1 H -0.908 1.98254 -0.117106 0
M  V30 2 N 0 1.576 0 0
M  V30 3 C 0.933 2.03868 1.02534 0
M  V30 4 C 1.911 0.928543 1.3348 0
M  V30 5 O 3.095 1.19667 1.45644 0
M  V30 6 C 0.222 2.43627 2.35294 0
M  V30 7 C -0.732 3.65373 2.2001 0
M  V30 8 S 0.101 5.13292 1.52614 0
M  V30 9 C 1.257 5.56322 2.86805 0
M  V30 10 H 1.49 2.90518 0.631377 0
M  V30 11 H -0.977 1.52953 0.210867 0
M  V30 12 H 0.981 2.67203 3.11629 0
M  V30 13 H -0.358 1.57376 2.7183 0
M  V30 14 H -1.165 3.90944 3.18086 0
M  V30 15 H -1.563 3.418 1.51819 0
M  V30 16 H 0.729 5.58782 3.83104 0
M  V30 17 H 1.672 6.56266 2.65933 0
M  V30 18 H 2.08 4.83886 2.90714 0
M  V30 19 N 1.4781 -0.272755 1.55222 0
M  V30 20 C 2.4411 -1.32041 1.87344 0
M  V30 21 C 3.4411 -1.42342 0.74803 0
M  V30 22 O 4.6311 -1.41488 1.0162 0
M  V30 23 C 1.7631 -2.70173 2.07893 0
M  V30 24 H 2.9561 -1.04789 2.80997 0
M  V30 25 H 0.5091 -0.51083 1.47717 0
M  V30 26 H 1.2441 -3.02605 1.16622 0
M  V30 27 H 1.0291 -2.64082 2.89833 0
M  V30 28 H 2.5191 -3.45869 2.34017 0
M  V30 29 N 2.9562 -1.48159 -0.537278 0
M  V30 30 C 3.9042 -1.62573 -1.66352 0
M  V30 31 C 4.8982 -0.492366 -1.62087 0
M  V30 32 O 6.1042 -0.670847 -1.67032 0
M  V30 33 H 2.4792 -0.511992 -0.550789 0
M  V30 34 H 4.4502 -2.57176 -1.51337 0
M  V30 35 C 3.1992 -1.67583 -3.04649 0
M  V30 36 H 2.5222 -2.54151 -3.08622 0
M  V30 37 H 3.9622 -1.81713 -3.83088 0
M  V30 38 C 2.4212 -0.413039 -3.34358 0
M  V30 39 O 2.9512 0.477259 -3.98855 0
M  V30 40 N 1.1572 -0.286961 -2.8918 0
M  V30 41 H 0.7042 -1.01241 -2.36871 0
M  V30 42 H 0.6622 0.556963 -3.09427 0
M  V30 43 N 4.4343 0.785586 -1.36625 0
M  V30 44 C 5.6813 1.54362 -1.31067 0
M  V30 45 C 6.0093 1.94195 0.10893 0
M  V30 46 O 5.2643 1.63262 1.07908 0
M  V30 47 C 5.5633 2.83007 -2.1827 0
M  V30 48 C 5.2293 2.62294 -3.6676 0
M  V30 49 C 3.8913 2.56353 -4.0723 0
M  V30 50 C 6.2433 2.43371 -4.6089 0
M  V30 51 C 3.5713 2.29461 -5.39967 0
M  V30 52 C 5.9233 2.18005 -5.93849 0
M  V30 53 C 4.5873 2.105 -6.3344 0
M  V30 54 H 3.8573 0.564851 -0.479609 0
M  V30 55 H 6.5043 0.906028 -1.68711 0
M  V30 56 H 4.8093 3.51253 -1.73576 0
M  V30 57 H 6.5063 3.40817 -2.11292 0
M  V30 58 H 3.0963 2.67774 -3.34656 0
M  V30 59 H 7.2803 2.46959 -4.30494 0
M  V30 60 H 2.5363 2.22135 -5.69619 0
M  V30 61 H 6.7103 2.02359 -6.66351 0
M  V30 62 H 4.3373 1.89425 -7.36222 0
M  V30 63 N 5.9124 1.20967 1.01018 0
M  V30 64 C 6.8444 0.922059 2.09835 0
M  V30 65 C 7.8574 -0.0927106 1.62536 0
M  V30 66 O 9.0464 0.139127 1.77957 0
M  V30 67 C 6.1464 0.362004 3.36961 0
M  V30 68 C 5.3194 1.42986 4.13369 0
M  V30 69 C 4.3784 0.879976 5.1879 0
M  V30 70 O 3.4044 1.56219 5.47343 0
M  V30 71 N 4.6064 -0.307396 5.79686 0
M  V30 72 H 7.3714 1.8588 2.35093 0
M  V30 73 H 4.9324 1.11422 1.1746 0
M  V30 74 H 6.9244 -0.0201474 4.04695 0
M  V30 75 H 5.4944 -0.479437 3.08902 0
M  V30 76 H 4.7144 1.98608 3.40512 0
M  V30 77 H 6.0024 2.14885 4.61196 0
M  V30 78 H 5.4004 -0.878796 5.58832 0
M  V30 79 H 3.9574 -0.631115 6.48737 0
M  V30 80 N 7.3905 -1.2043 1.01659 0
M  V30 81 C 8.3005 -2.2689 0.596484 0
M  V30 82 C 9.3165 -1.70107 -0.36599 0
M  V30 83 O 10.4925 -2.00117 -0.226942 0
M  V30 84 C 7.5575 -3.4665 -0.0586659 0
M  V30 85 C 6.6185 -4.18662 0.949751 0
M  V30 86 C 5.8515 -5.32705 0.32577 0
M  V30 87 O 6.0745 -5.63656 -0.874509 0
M  V30 88 O 5.0085 -5.92803 1.04249 0
M  V30 89 H 8.8345 -2.65041 1.4828 0
M  V30 90 H 6.4195 -1.27048 0.786082 0
M  V30 91 H 8.3015 -4.19256 -0.424564 0
M  V30 92 H 6.9765 -3.10375 -0.91918 0
M  V30 93 H 5.8835 -3.48229 1.36702 0
M  V30 94 H 7.2165 -4.58878 1.78023 0
M  V30 95 N 8.8686 -0.792821 -1.36206 0
M  V30 96 C 9.8186 -0.166598 -2.27391 0
M  V30 97 C 10.8026 0.651479 -1.47121 0
M  V30 98 O 11.9946 0.510994 -1.69463 0
M  V30 99 C 9.1236 0.695033 -3.36191 0
M  V30 100 C 8.2096 -0.132019 -4.23894 0
M  V30 101 N 8.6006 -1.18822 -4.91645 0
M  V30 102 C 6.8986 0.0885952 -4.45912 0
M  V30 103 C 7.5996 -1.69198 -5.56549 0
M  V30 104 N 6.5756 -1.00065 -5.34311 0
M  V30 105 H 10.3776 -0.974947 -2.77258 0
M  V30 106 H 7.8916 -0.632616 -1.49572 0
M  V30 107 H 9.8886 1.1596 -4.00448 0
M  V30 108 H 8.5486 1.50189 -2.87877 0
M  V30 109 H 9.5596 -1.57069 -4.93507 0
M  V30 110 H 6.2366 0.865688 -4.08426 0
M  V30 111 H 7.6266 -2.57395 -6.20643 0
M  V30 112 N 10.3467 1.47872 -0.545128 0
M  V30 113 C 11.2767 2.32661 0.197793 0
M  V30 114 C 12.2577 1.43041 0.920504 0
M  V30 115 O 13.4427 1.71912 0.90333 0
M  V30 116 C 10.5727 3.24569 1.23582 0
M  V30 117 C 9.5267 4.23333 0.630323 0
M  V30 118 C 8.8527 5.0448 1.77211 0
M  V30 119 C 10.1527 5.20704 -0.407974 0
M  V30 120 H 11.8467 2.95024 -0.510045 0
M  V30 121 H 9.3927 1.4187 -0.246731 0
M  V30 122 H 11.3457 3.8272 1.76362 0
M  V30 123 H 10.0697 2.60236 1.97344 0
M  V30 124 H 8.7287 3.6639 0.123922 0
M  V30 125 H 8.3767 4.36561 2.49847 0
M  V30 126 H 8.0767 5.71339 1.37281 0
M  V30 127 H 9.6007 5.65487 2.3034 0
M  V30 128 H 11.0147 5.7329 0.033305 0
M  V30 129 H 9.4117 5.95699 -0.725486 0
M  V30 130 H 10.4817 4.66917 -1.30828 0
M  V30 131 N 11.8248 0.280983 1.55075 0
M  V30 132 C 13.0498 -0.340154 2.04592 0
M  V30 133 C 13.4748 -1.48246 1.15779 0
M  V30 134 O 12.8328 -1.80614 0.15761 0
M  V30 135 C 12.8808 -0.793104 3.5177 0
M  V30 136 O 11.9848 -1.89981 3.66034 0
M  V30 137 H 11.3258 -0.0694289 0.66036 0
M  V30 138 H 13.8558 0.416993 2.00306 0
M  V30 139 H 13.8658 -1.08729 3.93245 0
M  V30 140 H 12.5408 0.0426163 4.15878 0
M  V30 141 H 11.1178 -1.60771 3.36463 0
M  V30 142 N 13.3029 -1.57598 0.00835791 0
M  V30 143 C 14.5429 -1.92788 -0.679136 0
M  V30 144 C 14.9069 -0.883378 -1.70471 0
M  V30 145 O 16.1079 -1.12079 -2.44319 0
M  V30 146 C 14.3789 -3.32994 -1.29807 0
M  V30 147 S 15.9379 -3.90082 -2.00952 0
M  V30 148 H 12.7559 -0.67475 -0.224127 0
M  V30 149 H 15.3579 -1.95385 0.0670497 0
M  V30 150 H 14.0619 -4.06846 -0.538922 0
M  V30 151 H 13.5929 -3.33791 -2.082 0
M  V30 152 H 15.6079 -3.71834 -3.28563 0
M  V30 153 N 14.781 0.264519 -1.55364 0
M  V30 154 C 16.006 1.01726 -1.80739 0
M  V30 155 C 16.431 1.78836 -0.583044 0
M  V30 156 O 15.789 1.75167 0.467566 0
M  V30 157 C 15.837 1.94482 -3.03659 0
M  V30 158 O 14.941 3.03386 -2.7934 0
M  V30 159 H 14.282 0.290395 -0.597132 0
M  V30 160 H 16.812 0.290854 -2.02522 0
M  V30 161 H 16.822 2.36278 -3.32621 0
M  V30 162 H 15.497 1.37772 -3.92418 0
M  V30 163 H 14.074 2.65844 -2.61498 0
M  V30 164 N 16.2591 1.48442 0.529413 0
M  V30 165 C 17.4841 1.60406 1.31471 0
M  V30 166 C 17.9091 0.264738 1.86228 0
M  V30 167 O 17.2671 -0.763668 1.64432 0
M  V30 168 C 17.3151 2.65419 2.44101 0
M  V30 169 O 16.4191 2.22618 3.47153 0
M  V30 170 H 15.7601 0.537863 0.389357 0
M  V30 171 H 18.2901 1.94432 0.636965 0
M  V30 172 H 18.3001 2.86709 2.90279 0
M  V30 173 H 16.9751 3.62652 2.03608 0
M  V30 174 H 15.5521 2.11543 3.0709 0
M  V30 175 N 17.7372 -0.778329 1.37039 0
M  V30 176 C 18.9622 -1.57248 1.35233 0
M  V30 177 C 19.3872 -1.87999 -0.0615568 0
M  V30 178 O 18.7452 -1.48734 -1.03672 0
M  V30 179 C 18.7932 -2.86353 2.19167 0
M  V30 180 O 17.8972 -3.80442 1.59178 0
M  V30 181 H 17.2382 -0.476569 0.462362 0
M  V30 182 H 19.7682 -0.963853 1.80474 0
M  V30 183 H 19.7782 -3.35519 2.32145 0
M  V30 184 H 18.4532 -2.63299 3.21942 0
M  V30 185 H 17.0302 -3.39067 1.55203 0
M  V30 186 N 19.2153 -1.21501 -1.00376 0
M  V30 187 C 20.6263 -1.03146 -1.55621 0
M  V30 188 C 20.9773 0.408375 -1.91903 0
M  V30 189 O 20.1023 1.29177 -1.73616 0
M  V30 190 C 20.6973 -1.86612 -2.82775 0
M  V30 191 C 19.2563 -1.72586 -3.34501 0
M  V30 192 C 18.4033 -1.83747 -2.07683 0
M  V30 193 H 21.3543 -1.35505 -0.826081 0
M  V30 194 H 21.3753 -1.3771 -3.54706 0
M  V30 195 H 20.8873 -2.91399 -2.56336 0
M  V30 196 H 18.9883 -0.704877 -3.65872 0
M  V30 197 H 19.1013 -2.54623 -4.05837 0
M  V30 198 H 17.4653 -1.27069 -2.20739 0
M  V30 199 H 18.2483 -2.90044 -1.83655 0
M  V30 200 N 20.6934 1.19889 -1.02296 0
M  V30 201 C 21.6434 2.20777 -0.56934 0
M  V30 202 C 22.6274 1.56379 0.378741 0
M  V30 203 O 23.8194 1.75859 0.200673 0
M  V30 204 C 20.9484 3.43196 0.0845077 0
M  V30 205 C 20.0344 4.14749 -0.88566 0
M  V30 206 N 20.4254 4.62584 -2.04573 0
M  V30 207 C 18.7234 4.40347 -0.707835 0
M  V30 208 C 19.4244 5.17466 -2.65714 0
M  V30 209 N 18.4004 5.0791 -1.93723 0
M  V30 210 H 22.2024 2.55434 -1.45365 0
M  V30 211 H 19.7164 1.35897 -0.88915 0
M  V30 212 H 21.7134 4.14707 0.427067 0
M  V30 213 H 20.3734 3.10042 0.964574 0
M  V30 214 H 21.3844 4.57597 -2.4254 0
M  V30 215 H 18.0614 4.17317 0.12364 0
M  V30 216 H 19.4514 5.64808 -3.63925 0
M  V30 217 N 22.1715 0.800033 1.35784 0
M  V30 218 C 23.1015 0.220184 2.3246 0
M  V30 219 C 24.0825 -0.65073 1.57161 0
M  V30 220 O 25.2675 -0.582359 1.85263 0
M  V30 221 C 22.3975 -0.637353 3.41402 0
M  V30 222 C 21.3515 0.134531 4.27789 0
M  V30 223 C 20.6775 -0.844285 5.27992 0
M  V30 224 C 21.9775 1.32979 5.05088 0
M  V30 225 H 23.6715 1.02787 2.81203 0
M  V30 226 H 21.2175 0.495717 1.35199 0
M  V30 227 H 23.1705 -1.05302 4.08031 0
M  V30 228 H 21.8945 -1.47785 2.91251 0
M  V30 229 H 20.5535 0.531296 3.6273 0
M  V30 230 H 20.2015 -1.68011 4.74111 0
M  V30 231 H 19.9015 -0.332184 5.8666 0
M  V30 232 H 21.4255 -1.2583 5.97494 0
M  V30 233 H 22.8395 0.98934 5.64699 0
M  V30 234 H 21.2365 1.77593 5.7322 0
M  V30 235 H 22.3065 2.11978 4.36111 0
M  V30 236 N 23.6496 -1.47581 0.552962 0
M  V30 237 C 25.0606 -1.86324 0.118463 0
M  V30 238 C 25.4116 -1.46006 -1.3106 0
M  V30 239 O 24.5366 -0.861182 -1.98526 0
M  V30 240 C 25.1316 -3.3816 0.20821 0
M  V30 241 C 23.6906 -3.7601 -0.171226 0
M  V30 242 C 22.8376 -2.71634 0.557686 0
M  V30 243 H 25.7886 -1.39159 0.762928 0
M  V30 244 H 25.8096 -3.76141 -0.574278 0
M  V30 245 H 25.3216 -3.67473 1.24841 0
M  V30 246 H 23.4226 -3.52313 -1.21269 0
M  V30 247 H 23.5356 -4.78745 0.184379 0
M  V30 248 H 21.8996 -2.547 0.00125792 0
M  V30 249 H 22.6826 -3.0379 1.59896 0
M  V30 250 N 25.1277 -0.289203 -1.54924 0
M  V30 251 C 26.3747 0.323519 -1.99899 0
M  V30 252 C 26.7027 1.54797 -1.17762 0
M  V30 253 O 25.9577 1.94237 -0.238835 0
M  V30 254 C 26.2567 0.736119 -3.49737 0
M  V30 255 C 25.9227 -0.385276 -4.49251 0
M  V30 256 C 24.5847 -0.693156 -4.76181 0
M  V30 257 C 26.9367 -1.14021 -5.08575 0
M  V30 258 C 24.2647 -1.7593 -5.59701 0
M  V30 259 C 26.6167 -2.19619 -5.93254 0
M  V30 260 C 25.2807 -2.51026 -6.185 0
M  V30 261 H 24.5507 0.118384 -0.731482 0
M  V30 262 H 27.1977 -0.405847 -1.8715 0
M  V30 263 H 25.5027 1.54539 -3.60035 0
M  V30 264 H 27.1997 1.22118 -3.81953 0
M  V30 265 H 23.7897 -0.135202 -4.28387 0
M  V30 266 H 27.9737 -0.915611 -4.87781 0
M  V30 267 H 23.2297 -2.0075 -5.77503 0
M  V30 268 H 27.4037 -2.78581 -6.38252 0
M  V30 269 H 25.0307 -3.33772 -6.83008 0
M  V30 270 N 26.6058 1.57591 -0.0167156 0
M  V30 271 C 27.8308 1.9598 0.67872 0
M  V30 272 C 28.2558 0.892546 1.65575 0
M  V30 273 O 27.6138 -0.147772 1.80697 0
M  V30 274 C 27.6618 3.33468 1.37227 0
M  V30 275 O 26.7658 3.28954 2.48722 0
M  V30 276 H 26.1068 0.639339 0.17928 0
M  V30 277 H 28.6368 2.04463 -0.0748802 0
M  V30 278 H 28.6468 3.69417 1.7319 0
M  V30 279 H 27.3218 4.10694 0.656007 0
M  V30 280 H 25.8988 3.04705 2.14963 0
M  V30 281 N 28.0839 -0.256276 1.55502 0
M  V30 282 C 28.9939 -1.33882 1.92647 0
M  V30 283 C 30.0099 -1.53159 0.825727 0
M  V30 284 O 31.1859 -1.66963 1.12629 0
M  V30 285 C 28.2509 -2.6751 2.20543 0
M  V30 286 C 27.3119 -2.56836 3.43997 0
M  V30 287 C 26.5449 -3.84092 3.70553 0
M  V30 288 O 26.7679 -4.85545 2.99336 0
M  V30 289 O 25.7019 -3.83288 4.64084 0
M  V30 290 H 29.5279 -1.05374 2.84833 0
M  V30 291 H 27.1129 -0.456237 1.42263 0
M  V30 292 H 28.9949 -3.46492 2.39835 0
M  V30 293 H 27.6699 -2.9577 1.31536 0
M  V30 294 H 26.5769 -1.76172 3.30021 0
M  V30 295 H 27.9099 -2.33523 4.33275 0
M  V30 296 N 29.562 -1.4872 -0.521534 0
M  V30 297 C 30.787 -1.61101 -1.30618 0
M  V30 298 C 31.212 -0.274611 -1.86085 0
M  V30 299 O 30.57 0.754937 -1.64834 0
M  V30 300 C 30.618 -2.66709 -2.4269 0
M  V30 301 O 29.722 -2.24456 -3.45967 0
M  V30 302 H 29.063 -0.539921 -0.386499 0
M  V30 303 H 31.593 -1.94767 -0.626645 0
M  V30 304 H 31.603 -2.88245 -2.88754 0
M  V30 305 H 30.278 -3.63727 -2.01682 0
M  V30 306 H 28.855 -2.13168 -3.05964 0
M  V30 307 N 31.0401 0.771051 -1.3745 0
M  V30 308 C 31.9871 1.88435 -1.3327 0
M  V30 309 C 32.9571 1.64914 -0.198136 0
M  V30 310 O 34.1421 1.86821 -0.387606 0
M  V30 311 C 31.2821 3.25509 -1.14622 0
M  V30 312 C 30.3951 3.60979 -2.37314 0
M  V30 313 C 29.5301 4.87265 -2.11533 0
M  V30 314 C 28.5691 5.15469 -3.30088 0
M  V30 315 N 27.7061 6.32944 -3.03853 0
M  V30 316 H 32.5461 1.91344 -2.28455 0
M  V30 317 H 30.0831 0.935466 -1.13523 0
M  V30 318 H 32.0411 4.04582 -1.01831 0
M  V30 319 H 30.6711 3.21974 -0.230837 0
M  V30 320 H 29.7231 2.76885 -2.60842 0
M  V30 321 H 31.0351 3.77759 -3.25729 0
M  V30 322 H 30.1891 5.74244 -1.95777 0
M  V30 323 H 28.9281 4.7259 -1.20457 0
M  V30 324 H 27.9331 4.26966 -3.46382 0
M  V30 325 H 29.1581 5.32052 -4.22016 0
M  V30 326 H 27.1041 6.19625 -2.15407 0
M  V30 327 H 27.0211 6.50143 -3.85812 0
M  V30 328 H 28.2891 7.22857 -2.91716 0
M  V30 329 N 32.5182 1.22032 0.997298 0
M  V30 330 C 33.7462 1.06841 1.7718 0
M  V30 331 C 34.1612 -0.381325 1.84909 0
M  V30 332 O 33.5182 -1.26437 1.31605 0
M  V30 333 C 33.5692 1.66814 3.20711 0
M  V30 334 O 33.2902 3.06116 3.13408 0
M  V30 335 C 34.7912 1.56838 4.14628 0
M  V30 336 H 32.0112 0.374782 0.556578 0
M  V30 337 H 34.5552 1.61532 1.2541 0
M  V30 338 H 32.7102 1.16196 3.69564 0
M  V30 339 H 33.1242 3.34926 4.0364 0
M  V30 340 H 34.5982 2.03532 5.13107 0
M  V30 341 H 35.0752 0.524155 4.36061 0
M  V30 342 H 35.6812 2.06741 3.7167 0
M  V30 343 N 33.9963 -1.19345 1.0293 0
M  V30 344 C 35.2433 -1.89038 0.726008 0
M  V30 345 C 35.5713 -1.79649 -0.745427 0
M  V30 346 O 34.8263 -1.18354 -1.55855 0
M  V30 347 C 35.1253 -3.39292 1.12319 0
M  V30 348 C 34.7913 -3.68885 2.59297 0
M  V30 349 C 33.4533 -3.76671 2.99453 0
M  V30 350 C 35.8053 -3.82178 3.54386 0
M  V30 351 C 33.1333 -3.9522 4.33611 0
M  V30 352 C 35.4853 -4.0224 4.88248 0
M  V30 353 C 34.1493 -4.08259 5.28092 0
M  V30 354 H 33.4193 -0.691739 0.265665 0
M  V30 355 H 36.0663 -1.41328 1.29223 0
M  V30 356 H 34.3713 -3.88903 0.475584 0
M  V30 357 H 36.0683 -3.91536 0.866037 0
M  V30 358 H 32.6583 -3.63433 2.27189 0
M  V30 359 H 36.8423 -3.75505 3.24514 0
M  V30 360 H 32.0983 -3.98119 4.64016 0
M  V30 361 H 36.2723 -4.11468 5.61843 0
M  V30 362 H 33.8993 -4.22384 6.32057 0
M  V30 363 N 35.4744 -0.807222 -1.35358 0
M  V30 364 C 36.4224 -0.20614 -2.31685 0
M  V30 365 C 37.4164 0.644445 -1.56663 0
M  V30 366 O 38.6224 0.537538 -1.71786 0
M  V30 367 H 34.9974 -0.0479006 -0.750473 0
M  V30 368 H 36.9684 -1.03369 -2.79924 0
M  V30 369 C 35.7174 0.630212 -3.41941 0
M  V30 370 H 35.0404 -0.0149558 -3.99797 0
M  V30 371 H 36.4804 1.01716 -4.11619 0
M  V30 372 C 34.9394 1.79601 -2.85035 0
M  V30 373 O 35.4694 2.89351 -2.78637 0
M  V30 374 N 33.6754 1.60774 -2.42074 0
M  V30 375 H 33.2224 0.715009 -2.47478 0
M  V30 376 H 33.1804 2.38933 -2.04349 0
M  V30 377 N 36.9525 1.47285 -0.560781 0
M  V30 378 C 38.2005 2.02064 -0.0379868 0
M  V30 379 C 38.5215 1.43711 1.31803 0
M  V30 380 O 37.7915 0.61362 1.86042 0
M  V30 381 H 36.3715 0.746918 -0.0110531 0
M  V30 382 H 39.0335 1.80648 -0.731598 0
M  V30 383 H 38.1295 3.12064 0.0474463 0
M  V30 384 N 38.4306 0.297415 1.54768 0
M  V30 385 C 39.3606 -0.573494 2.26348 0
M  V30 386 C 40.3416 -1.14085 1.26169 0
M  V30 387 O 41.5266 -1.17086 1.54934 0
M  V30 388 C 38.6566 -1.74716 3.00153 0
M  V30 389 C 37.6106 -1.31032 4.07449 0
M  V30 390 C 36.9366 -2.56887 4.68949 0
M  V30 391 C 38.2366 -0.444183 5.20408 0
M  V30 392 H 39.9306 0.0235131 2.99391 0
M  V30 393 H 37.4766 0.0127488 1.43994 0
M  V30 394 H 39.4296 -2.3625 3.48947 0
M  V30 395 H 38.1536 -2.37035 2.24682 0
M  V30 396 H 36.8126 -0.718066 3.59499 0
M  V30 397 H 36.4606 -3.17512 3.90122 0
M  V30 398 H 36.1606 -2.2836 5.41411 0
M  V30 399 H 37.6846 -3.19229 5.20505 0
M  V30 400 H 39.0986 -0.9651 5.65118 0
M  V30 401 H 37.4956 -0.252846 5.99567 0
M  V30 402 H 38.5656 0.531609 4.81977 0
M  V30 403 N 39.9087 -1.5758 0.0250728 0
M  V30 404 C 40.8407 -2.06869 -0.986796 0
M  V30 405 C 41.8537 -0.991332 -1.29137 0
M  V30 406 O 43.0427 -1.26761 -1.25674 0
M  V30 407 C 40.1427 -2.47486 -2.31525 0
M  V30 408 C 39.3157 -3.78253 -2.19643 0
M  V30 409 C 38.3747 -4.05464 -3.35388 0
M  V30 410 O 37.4007 -4.75774 -3.12454 0
M  V30 411 N 38.6027 -3.55321 -4.59051 0
M  V30 412 H 41.3677 -2.94302 -0.566276 0
M  V30 413 H 38.9287 -1.6109 -0.161776 0
M  V30 414 H 40.9207 -2.62785 -3.07776 0
M  V30 415 H 39.4907 -1.65441 -2.65232 0
M  V30 416 H 38.7107 -3.7279 -1.28144 0
M  V30 417 H 39.9987 -4.63936 -2.08903 0
M  V30 418 H 39.3967 -2.98431 -4.80578 0
M  V30 419 H 37.9537 -3.75905 -5.32483 0
M  V30 420 N 41.3868 0.248026 -1.55636 0
M  V30 421 C 42.6638 0.998988 -1.68165 0
M  V30 422 C 43.0438 2.03409 -0.564621 0
M  V30 423 O 42.3918 2.24378 0.432076 0
M  V30 424 C 42.6018 1.63334 -3.0842 0
M  V30 425 C 43.9498 2.13562 -3.66983 0
M  V30 426 O 44.9738 1.73277 -3.11213 0
M  V30 427 O 43.8328 2.87526 -4.64749 0
M  V30 428 H 40.9268 0.464933 -0.683935 0
M  V30 429 H 43.4728 0.241902 -1.67967 0
M  V30 430 H 42.2448 0.884583 -3.8117 0
M  V30 431 H 41.8678 2.45666 -3.12624 0
M  V30 432 N 42.8649 1.48995 0.513639 0
M  V30 433 C 43.7749 1.67443 1.64317 0
M  V30 434 C 44.7909 0.556947 1.64846 0
M  V30 435 O 45.9669 0.830082 1.83498 0
M  V30 436 C 43.0319 1.72515 3.00732 0
M  V30 437 C 42.0929 2.96009 3.1093 0
M  V30 438 C 41.3259 3.00829 4.40837 0
M  V30 439 O 41.5489 2.13594 5.28898 0
M  V30 440 O 40.4829 3.93168 4.55744 0
M  V30 441 H 44.3089 2.63106 1.51687 0
M  V30 442 H 41.8939 1.32588 0.688543 0
M  V30 443 H 43.7759 1.78277 3.81831 0
M  V30 444 H 42.4509 0.800278 3.13651 0
M  V30 445 H 41.3579 2.9577 2.29065 0
M  V30 446 H 42.6909 3.87934 3.02933 0
M  V30 447 N 44.343 -0.763751 1.37857 0
M  V30 448 C 45.273 -1.89103 1.36975 0
M  V30 449 C 46.254 -1.68439 0.237152 0
M  V30 450 O 47.439 -1.8918 0.438713 0
M  V30 451 C 44.569 -3.26496 1.18395 0
M  V30 452 C 43.523 -3.61741 2.28751 0
M  V30 453 C 42.849 -4.97762 1.95286 0
M  V30 454 C 44.149 -3.67665 3.70972 0
M  V30 455 H 45.843 -1.90099 2.31307 0
M  V30 456 H 43.389 -0.91319 1.11341 0
M  V30 457 H 45.342 -4.05003 1.16406 0
M  V30 458 H 44.066 -3.25955 0.205215 0
M  V30 459 H 42.725 -2.85547 2.29909 0
M  V30 460 H 42.373 -4.93769 0.959221 0
M  V30 461 H 42.073 -5.22313 2.69189 0
M  V30 462 H 43.597 -5.7866 1.94898 0
M  V30 463 H 45.011 -4.36307 3.719 0
M  V30 464 H 43.408 -4.03718 4.43995 0
M  V30 465 H 44.478 -2.68134 4.0402 0
M  V30 466 N 45.8211 -1.22559 -0.990812 0
M  V30 467 C 47.0491 -1.07779 -1.76611 0
M  V30 468 C 47.4641 0.371513 -1.85109 0
M  V30 469 O 46.8211 1.25737 -1.32274 0
M  V30 470 C 46.8721 -1.68512 -3.19822 0
M  V30 471 O 46.5931 -3.07774 -3.1178 0
M  V30 472 C 48.0941 -1.59035 -4.13791 0
M  V30 473 H 45.3141 -0.377729 -0.554583 0
M  V30 474 H 47.8581 -1.62195 -1.24551 0
M  V30 475 H 46.0131 -1.18154 -3.68942 0
M  V30 476 H 46.4271 -3.37062 -4.01858 0
M  V30 477 H 47.9011 -2.0625 -5.1202 0
M  V30 478 H 48.3781 -0.547273 -4.35777 0
M  V30 479 H 48.9841 -2.08709 -3.70568 0
M  V30 480 N 47.2992 1.18797 -1.03562 0
M  V30 481 C 48.2622 2.20464 -0.626769 0
M  V30 482 C 49.2622 1.57721 0.313173 0
M  V30 483 O 50.4522 1.73917 0.0992615 0
M  V30 484 C 47.5842 3.40802 0.0818498 0
M  V30 485 H 48.7772 2.58149 -1.5264 0
M  V30 486 H 46.3302 1.32593 -0.827578 0
M  V30 487 H 47.0652 3.08642 0.995518 0
M  V30 488 H 46.8502 3.8758 -0.593652 0
M  V30 489 H 48.3402 4.16092 0.354584 0
M  V30 490 N 48.7773 0.814389 1.34928 0
M  V30 491 C 49.7103 0.175641 2.27523 0
M  V30 492 C 50.6883 -0.662953 1.48471 0
M  V30 493 O 51.8723 -0.628545 1.77712 0
M  V30 494 C 48.9993 -0.755516 3.30166 0
M  V30 495 C 48.0453 0.00445305 4.265 0
M  V30 496 S 48.8783 1.34582 5.18313 0
M  V30 497 C 50.0343 0.419315 6.24494 0
M  V30 498 H 50.2673 0.960691 2.8135 0
M  V30 499 H 47.8003 0.609846 1.41846 0
M  V30 500 H 49.7583 -1.28723 3.89796 0
M  V30 501 H 48.4193 -1.51402 2.75202 0
M  V30 502 H 47.6123 -0.703077 4.99072 0
M  V30 503 H 47.2143 0.466447 3.7108 0
M  V30 504 H 49.5063 -0.392432 6.76362 0
M  V30 505 H 50.4493 1.11446 6.99275 0
M  V30 506 H 50.8573 0.0115389 5.64499 0
M  V30 507 N 50.2554 -1.46986 0.568584 0
M  V30 508 C 51.5034 -2.02041 0.0487022 0
M  V30 509 C 51.8244 -1.44408 -1.31039 0
M  V30 510 O 51.0944 -0.623477 -1.85714 0
M  V30 511 H 49.6744 -0.746849 0.015014 0
M  V30 512 H 52.3364 -1.80257 0.741168 0
M  V30 513 H 51.4324 -3.12085 -0.0308961 0
M  V30 514 N 51.7335 -0.305618 -1.54608 0
M  V30 515 C 52.6815 0.584119 -2.25146 0
M  V30 516 C 53.6755 1.13326 -1.25911 0
M  V30 517 O 54.8815 1.08337 -1.43747 0
M  V30 518 H 51.2565 0.206983 -0.722954 0
M  V30 519 H 53.2275 -0.033291 -2.98381 0
M  V30 520 C 51.9765 1.74225 -3.009 0
M  V30 521 H 51.2995 1.32892 -3.77067 0
M  V30 522 H 52.7395 2.34077 -3.53531 0
M  V30 523 C 51.1985 2.64914 -2.0814 0
M  V30 524 O 51.7285 3.66137 -1.65246 0
M  V30 525 N 49.9345 2.3275 -1.74 0
M  V30 526 H 49.4815 1.50479 -2.09078 0
M  V30 527 H 49.4395 2.93694 -1.12211 0
M  V30 528 N 53.2116 1.57565 -0.0334293 0
M  V30 529 C 54.1616 2.06978 0.956237 0
M  V30 530 C 55.1456 0.971193 1.28283 0
M  V30 531 O 56.3376 1.23471 1.26822 0
M  V30 532 C 53.4666 2.60393 2.23719 0
M  V30 533 C 52.5526 3.7719 1.93877 0
M  V30 534 N 52.9436 4.87639 1.34321 0
M  V30 535 C 51.2416 3.85758 2.23845 0
M  V30 536 C 51.9426 5.68825 1.21709 0
M  V30 537 N 50.9186 5.1587 1.71404 0
M  V30 538 H 54.7206 2.89773 0.490815 0
M  V30 539 H 52.2346 1.61492 0.171478 0
M  V30 540 H 54.2316 2.94088 2.95496 0
M  V30 541 H 52.8916 1.79031 2.70884 0
M  V30 542 H 53.9026 5.07803 1.01767 0
M  V30 543 H 50.5796 3.1531 2.73653 0
M  V30 544 H 51.9696 6.67631 0.75621 0
M  V30 545 N 54.6897 -0.239769 1.55765 0
M  V30 546 C 56.1007 -0.808263 1.68297 0
M  V30 547 C 56.4517 -1.85736 0.632181 0
M  V30 548 O 55.5767 -2.15277 -0.220204 0
M  V30 549 C 56.1717 -1.47284 3.05111 0
M  V30 550 C 54.7307 -1.98895 3.19559 0
M  V30 551 C 53.8777 -0.842575 2.64189 0
M  V30 552 H 56.8287 -0.0154422 1.58692 0
M  V30 553 H 56.8497 -2.34111 2.99954 0
M  V30 554 H 56.3617 -0.709053 3.81568 0
M  V30 555 H 54.4627 -2.78132 2.47938 0
M  V30 556 H 54.5757 -2.18143 4.26556 0
M  V30 557 H 52.9397 -1.24501 2.22197 0
M  V30 558 H 53.7227 -0.0917552 3.43177 0
M  V30 559 N 56.1678 -1.49265 -0.50573 0
M  V30 560 C 57.3928 -1.62478 -1.28902 0
M  V30 561 C 57.8178 -0.294332 -1.85783 0
M  V30 562 O 57.1758 0.737412 -1.65626 0
M  V30 563 C 57.2238 -2.69268 -2.39848 0
M  V30 564 O 56.3278 -2.28113 -3.43567 0
M  V30 565 H 55.6688 -0.54399 -0.380751 0
M  V30 566 H 58.1988 -1.95421 -0.605952 0
M  V30 567 H 58.2088 -2.91291 -2.85681 0
M  V30 568 H 56.8838 -3.65846 -1.97812 0
M  V30 569 H 55.4608 -2.16401 -3.03685 0
M  V30 570 N 57.6459 0.756429 -1.3826 0
M  V30 571 C 59.0569 1.33359 -1.30661 0
M  V30 572 C 59.4079 1.96161 0.0388875 0
M  V30 573 O 58.5329 1.94874 0.940918 0
M  V30 574 C 59.1279 2.42477 -2.36622 0
M  V30 575 C 57.6869 2.95922 -2.3261 0
M  V30 576 C 56.8339 1.69275 -2.19639 0
M  V30 577 H 59.7849 0.55552 -1.4866 0
M  V30 578 H 59.8059 3.22345 -2.02174 0
M  V30 579 H 59.3179 1.96739 -3.34538 0
M  V30 580 H 57.4189 3.45996 -1.38267 0
M  V30 581 H 57.5319 3.50494 -3.26636 0
M  V30 582 H 55.8959 1.92793 -1.66442 0
M  V30 583 H 56.6789 1.25619 -3.19491 0
M  V30 584 N 59.124 1.23083 0.984299 0
M  V30 585 C 60.071 1.00854 2.07598 0
M  V30 586 C 61.041 -0.0726709 1.65941 0
M  V30 587 O 62.226 0.0786535 1.90638 0
M  V30 588 C 59.366 0.601645 3.39815 0
M  V30 589 C 58.479 1.75456 3.94765 0
M  V30 590 C 57.614 1.29482 5.15177 0
M  V30 591 C 56.653 2.41873 5.62284 0
M  V30 592 N 55.79 1.96885 6.73929 0
M  V30 593 H 60.63 1.943 2.25946 0
M  V30 594 H 58.167 0.968001 1.10762 0
M  V30 595 H 60.125 0.346854 4.15756 0
M  V30 596 H 58.755 -0.295803 3.21442 0
M  V30 597 H 57.807 2.12346 3.15616 0
M  V30 598 H 59.119 2.59965 4.25699 0
M  V30 599 H 58.273 0.997923 5.98437 0
M  V30 600 H 57.012 0.420046 4.85888 0
M  V30 601 H 56.017 2.72342 4.77608 0
M  V30 602 H 57.242 3.29881 5.93595 0
M  V30 603 H 55.188 1.11782 6.46406 0
M  V30 604 H 55.105 2.74956 7.04227 0
M  V30 605 H 56.373 1.70289 7.60672 0
M  V30 606 N 60.6021 -1.18246 1.0419 0
M  V30 607 C 61.5321 -2.24127 0.654914 0
M  V30 608 C 62.5131 -1.66617 -0.342451 0
M  V30 609 O 63.6981 -1.92924 -0.222277 0
M  V30 610 C 60.8281 -3.47295 0.0183757 0
M  V30 611 C 59.7821 -4.17563 0.939414 0
M  V30 612 C 59.1081 -5.34438 0.167286 0
M  V30 613 C 60.4081 -4.70917 2.25908 0
M  V30 614 H 62.1021 -2.56753 1.54007 0
M  V30 615 H 59.6481 -1.23414 0.74195 0
M  V30 616 H 61.6011 -4.20572 -0.264082 0
M  V30 617 H 60.3251 -3.13907 -0.901664 0
M  V30 618 H 58.9841 -3.46186 1.20628 0
M  V30 619 H 58.6321 -4.97298 -0.7552 0
M  V30 620 H 58.3321 -5.82388 0.780901 0
M  V30 621 H 59.8561 -6.10504 -0.108125 0
M  V30 622 H 61.2701 -5.35882 2.03724 0
M  V30 623 H 59.6671 -5.29406 2.82577 0
M  V30 624 H 60.7371 -3.88272 2.9047 0
M  V30 625 N 62.0802 -0.821533 -1.34494 0
M  V30 626 C 63.0102 -0.257138 -2.3208 0
M  V30 627 C 63.9912 0.625645 -1.58176 0
M  V30 628 O 65.1762 0.552811 -1.86166 0
M  V30 629 C 62.3062 0.582958 -3.42372 0
M  V30 630 C 61.2602 -0.202571 -4.2752 0
M  V30 631 C 60.5862 0.760179 -5.29269 0
M  V30 632 C 61.8862 -1.40998 -5.02908 0
M  V30 633 H 63.5802 -1.07247 -2.79532 0
M  V30 634 H 61.1262 -0.517163 -1.34393 0
M  V30 635 H 63.0792 0.987972 -4.09655 0
M  V30 636 H 61.8032 1.43133 -2.93565 0
M  V30 637 H 60.4622 -0.588936 -3.61838 0
M  V30 638 H 60.1102 1.60447 -4.76724 0
M  V30 639 H 59.8102 0.238809 -5.87115 0
M  V30 640 H 61.3342 1.16308 -5.9942 0
M  V30 641 H 62.7482 -1.07905 -5.63054 0
M  V30 642 H 61.1452 -1.86689 -5.70322 0
M  V30 643 H 62.2152 -2.1889 -4.32684 0
M  V30 644 N 63.5583 1.46682 -0.576371 0
M  V30 645 C 64.4683 2.34032 0.163141 0
M  V30 646 C 65.4843 1.49367 0.892501 0
M  V30 647 O 66.6603 1.82252 0.857106 0
M  V30 648 C 63.7253 3.26435 1.16795 0
M  V30 649 C 62.7863 4.26998 0.443944 0
M  V30 650 C 62.0193 5.14986 1.40088 0
M  V30 651 O 62.2423 5.05785 2.637 0
M  V30 652 O 61.1763 5.94906 0.914917 0
M  V30 653 H 65.0023 2.98607 -0.55388 0
M  V30 654 H 62.5873 1.45554 -0.336821 0
M  V30 655 H 64.4693 3.83459 1.74748 0
M  V30 656 H 63.1443 2.64465 1.86655 0
M  V30 657 H 62.0513 3.7368 -0.177271 0
M  V30 658 H 63.3843 4.91736 -0.213566 0
M  V30 659 N 65.0364 0.313813 1.54444 0
M  V30 660 C 66.3134 -0.345447 1.92525 0
M  V30 661 C 66.6934 -1.70667 1.24242 0
M  V30 662 O 66.0414 -2.25273 0.382654 0
M  V30 663 C 66.2514 -0.44737 3.46121 0
M  V30 664 C 67.5994 -0.712238 4.18584 0
M  V30 665 O 68.6234 -0.530678 3.52225 0
M  V30 666 O 67.4824 -1.06183 5.36085 0
M  V30 667 H 64.5764 -0.195407 0.803583 0
M  V30 668 H 67.1224 0.362813 1.65776 0
M  V30 669 H 65.8944 0.509043 3.87975 0
M  V30 670 H 65.5174 -1.20359 3.78945 0
M  V30 671 N 66.5145 -1.57545 0.0417849 0
M  V30 672 C 67.4465 -2.07904 -0.964799 0
M  V30 673 C 68.4595 -1.00497 -1.28079 0
M  V30 674 O 69.6485 -1.28087 -1.24322 0
M  V30 675 C 66.7485 -2.49928 -2.28887 0
M  V30 676 C 65.9215 -3.80562 -2.15619 0
M  V30 677 C 64.9805 -4.08999 -3.31069 0
M  V30 678 O 64.0065 -4.79061 -3.0739 0
M  V30 679 N 65.2085 -3.6017 -4.55256 0
M  V30 680 H 67.9735 -2.94886 -0.535029 0
M  V30 681 H 65.5345 -1.61252 -0.144681 0
M  V30 682 H 67.5265 -2.66034 -3.04972 0
M  V30 683 H 66.0965 -1.68245 -2.63463 0
M  V30 684 H 65.3165 -3.74129 -1.24183 0
M  V30 685 H 66.6045 -4.66126 -2.03971 0
M  V30 686 H 66.0025 -3.03512 -4.77386 0
M  V30 687 H 64.5595 -3.81532 -5.28466 0
M  V30 688 N 67.9926 0.231505 -1.5589 0
M  V30 689 C 68.9246 1.31006 -1.8807 0
M  V30 690 C 69.9376 1.43539 -0.768145 0
M  V30 691 O 71.1266 1.44614 -1.04638 0
M  V30 692 C 68.2266 2.68688 -2.06543 0
M  V30 693 C 67.3996 2.78228 -3.37502 0
M  V30 694 C 66.4586 3.96857 -3.4553 0
M  V30 695 O 65.4846 3.85662 -4.18633 0
M  V30 696 N 66.6866 5.1072 -2.75944 0
M  V30 697 H 69.4516 1.03731 -2.81176 0
M  V30 698 H 67.0126 0.421573 -1.56315 0
M  V30 699 H 69.0046 3.46412 -2.09239 0
M  V30 700 H 67.5746 2.88605 -1.20109 0
M  V30 701 H 66.7946 1.87059 -3.46991 0
M  V30 702 H 68.0826 2.81564 -4.23791 0
M  V30 703 H 67.4806 5.2271 -2.16311 0
M  V30 704 H 66.0376 5.86523 -2.84314 0
M  V30 705 N 69.4707 1.49531 0.497807 0
M  V30 706 C 70.3807 1.69176 1.62532 0
M  V30 707 C 71.3967 0.5744 1.64246 0
M  V30 708 O 72.5727 0.849497 1.82608 0
M  V30 709 C 69.6377 1.75695 2.98885 0
M  V30 710 C 68.6987 2.9929 3.07773 0
M  V30 711 C 67.9317 3.05488 4.37622 0
M  V30 712 O 68.1547 2.19192 5.26603 0
M  V30 713 O 67.0887 3.9798 4.51548 0
M  V30 714 H 70.9147 2.647 1.48887 0
M  V30 715 H 68.4997 1.3331 0.674441 0
M  V30 716 H 70.3817 1.82317 3.79919 0
M  V30 717 H 69.0567 0.8335 3.12785 0
M  V30 718 H 67.9637 2.98183 2.25915 0
M  V30 719 H 69.2967 3.91125 2.98801 0
M  V30 720 N 70.9488 -0.749086 1.3866 0
M  V30 721 C 71.8958 -1.86291 1.36251 0
M  V30 722 C 72.8658 -1.64578 0.224347 0
M  V30 723 O 74.0508 -1.86181 0.417279 0
M  V30 724 C 71.1908 -3.23644 1.19786 0
M  V30 725 C 70.3038 -3.57158 2.43027 0
M  V30 726 C 69.4388 -4.83838 2.19258 0
M  V30 727 C 68.4778 -5.10152 3.38247 0
M  V30 728 N 67.6148 -6.28029 3.13884 0
M  V30 729 H 72.4548 -1.87685 2.3147 0
M  V30 730 H 69.9918 -0.917287 1.14997 0
M  V30 731 H 71.9498 -4.0291 1.08254 0
M  V30 732 H 70.5798 -3.21566 0.282031 0
M  V30 733 H 69.6318 -2.72701 2.65214 0
M  V30 734 H 70.9438 -3.7253 3.31697 0
M  V30 735 H 70.0978 -5.71057 2.04888 0
M  V30 736 H 68.8368 -4.70614 1.2796 0
M  V30 737 H 67.8418 -4.21401 3.53131 0
M  V30 738 H 69.0668 -5.25271 4.30427 0
M  V30 739 H 67.0128 -6.1612 2.25238 0
M  V30 740 H 66.9298 -6.43922 3.96106 0
M  V30 741 H 68.1978 -7.18124 3.03179 0
M  V30 742 N 72.4269 -1.23603 -0.977757 0
M  V30 743 C 73.6749 -1.06759 -1.71601 0
M  V30 744 C 73.9959 0.395929 -1.90938 0
M  V30 745 O 73.2659 1.28356 -1.47992 0
M  V30 746 H 71.8459 -0.392062 -0.635843 0
M  V30 747 H 74.5079 -1.55362 -1.1768 0
M  V30 748 H 73.6039 -1.55763 -2.70452 0
M  V30 749 N 73.905 1.17692 -1.04816 0
M  V30 750 C 74.838 2.20436 -0.590173 0
M  V30 751 C 75.816 1.58115 0.379244 0
M  V30 752 O 77 1.86228 0.291762 0
M  V30 753 C 74.127 3.38424 0.136817 0
M  V30 754 C 73.173 4.19176 -0.787023 0
M  V30 755 S 74.006 4.84815 -2.27409 0
M  V30 756 C 75.162 6.06195 -1.55817 0
M  V30 757 H 75.395 2.58944 -1.46067 0
M  V30 758 H 72.928 1.28246 -0.859784 0
M  V30 759 H 74.886 4.06798 0.550076 0
M  V30 760 H 73.547 2.98312 0.983299 0
M  V30 761 H 72.74 5.03499 -0.224681 0
M  V30 762 H 72.342 3.56219 -1.13947 0
M  V30 763 H 74.634 6.72078 -0.855387 0
M  V30 764 H 75.577 6.6695 -2.37873 0
M  V30 765 H 75.985 5.54701 -1.04722 0
M  V30 766 N 75.3831 0.828654 1.34056 0
M  V30 767 C 76.6291 0.42008 1.98402 0
M  V30 768 C 76.9621 -1.01564 1.65525 0
M  V30 769 O 76.2371 -1.70834 0.929831 0
M  V30 770 C 76.5201 0.62927 3.54559 0
M  V30 771 C 76.3731 2.11152 3.97159 0
M  V30 772 C 77.6921 0.0688756 4.40046 0
M  V30 773 H 74.8111 0.154104 0.720709 0
M  V30 774 H 77.4531 1.04228 1.5886 0
M  V30 775 H 75.6031 0.0996418 3.88372 0
M  V30 776 H 77.2751 2.70522 3.73651 0
M  V30 777 H 75.5181 2.59985 3.47261 0
M  V30 778 H 76.1891 2.20868 5.05887 0
M  V30 779 H 78.6651 0.521458 4.1282 0
M  V30 780 H 77.5411 0.245006 5.48353 0
M  V30 781 H 77.8021 -1.0266 4.30015 0
M  V30 782 N 76.8612 -1.46375 0.584142 0
M  V30 783 C 78.2772 -1.57694 0.245929 0
M  V30 784 C 78.4772 -1.57903 -1.25175 0
M  V30 785 O 77.5332 -1.49676 -2.03355 0
M  V30 786 C 78.8462 -2.87028 0.896402 0
M  V30 787 C 80.3942 -3.00662 0.870127 0
M  V30 788 C 80.8692 -4.32734 1.50017 0
M  V30 789 N 82.3602 -4.39436 1.46458 0
M  V30 790 C 83.0952 -5.40248 1.92144 0
M  V30 791 N 82.5912 -6.47726 2.4581 0
M  V30 792 N 84.3842 -5.31459 1.83052 0
M  V30 793 H 76.5352 -1.44483 1.55687 0
M  V30 794 H 78.7982 -0.689291 0.650831 0
M  V30 795 H 78.5042 -2.9269 1.95002 0
M  V30 796 H 78.3782 -3.75014 0.405486 0
M  V30 797 H 80.7652 -2.94581 -0.174871 0
M  V30 798 H 80.8462 -2.14148 1.39908 0
M  V30 799 H 80.4902 -4.39573 2.54437 0
M  V30 800 H 80.4202 -5.18025 0.946432 0
M  V30 801 H 82.9112 -3.62367 1.07231 0
M  V30 802 H 83.2242 -7.20863 2.78525 0
M  V30 803 H 81.5692 -6.48542 2.49836 0
M  V30 804 H 84.7602 -4.46396 1.40883 0
M  V30 805 H 84.9332 -6.09881 2.18973 0
M  V30 806 N 78.3393 -0.321999 -1.54275 0
M  V30 807 C 79.5673 0.283052 -2.04955 0
M  V30 808 C 79.9823 1.45904 -1.19823 0
M  V30 809 O 79.3393 1.81063 -0.228545 0
M  V30 810 C 79.3903 0.719028 -3.54277 0
M  V30 811 O 79.1113 -0.410175 -4.36176 0
M  V30 812 C 80.6123 1.38705 -4.21041 0
M  V30 813 H 77.8323 0.0584616 -0.668448 0
M  V30 814 H 80.3763 -0.467734 -1.99079 0
M  V30 815 H 78.5313 1.41979 -3.60445 0
M  V30 816 H 78.9453 -0.0669416 -5.24457 0
M  V30 817 H 80.4193 1.64306 -5.2698 0
M  V30 818 H 80.8963 2.33385 -3.72059 0
M  V30 819 H 81.5023 0.728906 -4.19007 0
M  V30 820 N 79.8174 1.5752 -0.0501392 0
M  V30 821 C 80.7274 2.14952 0.939827 0
M  V30 822 C 81.7434 1.10706 1.34239 0
M  V30 823 O 82.9194 1.42869 1.41952 0
M  V30 824 C 79.9844 2.68232 2.19665 0
M  V30 825 C 79.0454 3.87272 1.85253 0
M  V30 826 C 78.2784 4.38002 3.04943 0
M  V30 827 O 78.5014 3.87811 4.18281 0
M  V30 828 O 77.4354 5.29602 2.86017 0
M  V30 829 H 81.2614 2.9986 0.481392 0
M  V30 830 H 78.8464 1.4841 0.171699 0
M  V30 831 H 80.7284 3.02475 2.93406 0
M  V30 832 H 79.4034 1.86395 2.64648 0
M  V30 833 H 78.3104 3.5792 1.0883 0
M  V30 834 H 79.6434 4.70336 1.4507 0
M  V30 835 N 81.2955 -0.223234 1.56011 0
M  V30 836 C 82.2255 -1.27988 1.95298 0
M  V30 837 C 83.2065 -1.48976 0.820979 0
M  V30 838 O 84.3915 -1.61188 1.08315 0
M  V30 839 C 81.5215 -2.63 2.26822 0
M  V30 840 C 80.4755 -2.56671 3.42497 0
M  V30 841 C 79.8015 -3.95697 3.59622 0
M  V30 842 C 81.1015 -2.11601 4.77517 0
M  V30 843 H 82.7955 -0.953525 2.8381 0
M  V30 844 H 80.3415 -0.457244 1.36548 0
M  V30 845 H 82.2945 -3.37077 2.52898 0
M  V30 846 H 81.0185 -2.9732 1.35161 0
M  V30 847 H 79.6775 -1.85051 3.16467 0
M  V30 848 H 79.3255 -4.27322 2.6534 0
M  V30 849 H 79.0255 -3.92345 4.37424 0
M  V30 850 H 80.5495 -4.71438 3.88044 0
M  V30 851 H 81.9635 -2.7542 5.02809 0
M  V30 852 H 80.3605 -2.19311 5.5859 0
M  V30 853 H 81.4305 -1.06824 4.72987 0
M  V30 854 N 82.7736 -1.49793 -0.48987 0
M  V30 855 C 84.0226 -1.59085 -1.23995 0
M  V30 856 C 84.3356 -0.287907 -1.9347 0
M  V30 857 O 85.5416 -0.259506 -2.70257 0
M  V30 858 C 83.9976 -2.80736 -2.252 0
M  V30 859 C 83.6056 -4.17833 -1.61614 0
M  V30 860 C 85.3496 -2.99364 -3.00967 0
M  V30 861 C 83.2566 -5.30693 -2.60996 0
M  V30 862 H 82.1866 -0.592372 -0.466488 0
M  V30 863 H 84.8376 -1.76197 -0.51252 0
M  V30 864 H 83.2196 -2.57142 -3.01154 0
M  V30 865 H 84.3936 -4.51608 -0.915774 0
M  V30 866 H 82.7086 -4.04656 -0.981977 0
M  V30 867 H 85.3056 -3.80851 -3.75308 0
M  V30 868 H 85.6486 -2.10356 -3.59244 0
M  V30 869 H 86.1816 -3.2305 -2.32128 0
M  V30 870 H 82.9206 -6.21796 -2.07485 0
M  V30 871 H 82.4406 -5.01359 -3.2924 0
M  V30 872 H 84.1196 -5.6049 -3.23202 0
M  V30 873 N 84.2517 0.741722 -1.39055 0
M  V30 874 C 85.1617 1.88621 -1.39496 0
M  V30 875 C 86.1777 1.71557 -0.290578 0
M  V30 876 O 87.3537 1.94275 -0.530954 0
M  V30 877 C 84.4187 3.24134 -1.23037 0
M  V30 878 C 83.4797 3.5364 -2.43387 0
M  V30 879 C 82.7127 4.82687 -2.27703 0
M  V30 880 O 82.9357 5.55922 -1.27696 0
M  V30 881 O 81.8697 5.1194 -3.16545 0
M  V30 882 H 85.6957 1.91203 -2.35956 0
M  V30 883 H 83.2807 0.888625 -1.20099 0
M  V30 884 H 85.1627 4.0513 -1.15964 0
M  V30 885 H 83.8377 3.22337 -0.296691 0
M  V30 886 H 82.7447 2.72758 -2.56035 0
M  V30 887 H 84.0777 3.60209 -3.35425 0
M  V30 888 N 85.7298 1.2412 0.971189 0
M  V30 889 C 86.9548 1.10667 1.75407 0
M  V30 890 C 87.3798 -0.337048 1.85056 0
M  V30 891 O 86.7378 -1.24396 1.31892 0
M  V30 892 C 86.7858 1.74726 3.15441 0
M  V30 893 O 85.8898 1.01566 3.99697 0
M  V30 894 H 85.2308 0.387341 0.539317 0
M  V30 895 H 87.7608 1.64358 1.2185 0
M  V30 896 H 87.7708 1.80341 3.6598 0
M  V30 897 H 86.4458 2.79773 3.07734 0
M  V30 898 H 85.0228 1.03713 3.58187 0
M  V30 899 N 87.2079 -1.17134 1.05439 0
M  V30 900 C 88.4539 -1.87733 0.767077 0
M  V30 901 C 88.7869 -1.8098 -0.704253 0
M  V30 902 O 88.0619 -1.21951 -1.5152 0
M  V30 903 C 88.3449 -3.37659 1.25133 0
M  V30 904 C 88.1979 -3.53149 2.78578 0
M  V30 905 C 89.5169 -4.31768 0.852324 0
M  V30 906 H 86.6359 -0.681687 0.280129 0
M  V30 907 H 89.2779 -1.37732 1.30881 0
M  V30 908 H 87.4279 -3.80373 0.790469 0
M  V30 909 H 89.0999 -3.19434 3.32806 0
M  V30 910 H 87.3429 -2.95345 3.17732 0
M  V30 911 H 88.0139 -4.58403 3.07523 0
M  V30 912 H 90.4899 -3.96909 1.24911 0
M  V30 913 H 89.3659 -5.35199 1.21873 0
M  V30 914 H 89.6269 -4.41429 -0.243485 0
M  V30 915 N 88.686 -0.835752 -1.33615 0
M  V30 916 C 89.636 -0.238856 -2.26745 0
M  V30 917 C 90.62 0.604343 -1.49119 0
M  V30 918 O 91.812 0.456822 -1.71003 0
M  V30 919 C 88.941 0.587725 -3.38232 0
M  V30 920 C 88.027 -0.266811 -4.2326 0
M  V30 921 N 88.418 -1.34403 -4.87616 0
M  V30 922 C 86.716 -0.0533131 -4.45968 0
M  V30 923 C 87.417 -1.86819 -5.50884 0
M  V30 924 N 86.393 -1.17013 -5.30857 0
M  V30 925 H 90.195 -1.06266 -2.74016 0
M  V30 926 H 87.709 -0.679881 -1.47483 0
M  V30 927 H 89.706 1.03161 -4.03935 0
M  V30 928 H 88.366 1.40954 -2.9251 0
M  V30 929 H 89.377 -1.7269 -4.88261 0
M  V30 930 H 86.054 0.735312 -4.10974 0
M  V30 931 H 87.444 -2.7701 -6.1214 0
M  V30 932 N 90.1641 1.46063 -0.591896 0
M  V30 933 C 91.3891 2.07226 -0.0850314 0
M  V30 934 C 91.8141 1.43625 1.21463 0
M  V30 935 O 91.1721 0.523305 1.73583 0
M  V30 936 C 91.2201 3.60554 0.0576567 0
M  V30 937 O 90.3241 3.97128 1.11188 0
M  V30 938 H 89.6651 0.660615 -0.0669568 0
M  V30 939 H 92.1951 1.8756 -0.81745 0
M  V30 940 H 92.2051 4.07165 0.2609 0
M  V30 941 H 90.8801 4.06235 -0.891416 0
M  V30 942 H 89.4571 3.62213 0.886356 0
M  V30 943 N 91.6422 0.330177 1.54103 0
M  V30 944 C 93.0532 -0.15652 1.86043 0
M  V30 945 C 93.4042 -1.51086 1.2517 0
M  V30 946 O 92.5292 -2.09023 0.560217 0
M  V30 947 C 93.1242 -0.290784 3.3755 0
M  V30 948 C 91.6832 -0.721705 3.69416 0
M  V30 949 C 90.8302 0.152622 2.7688 0
M  V30 950 H 93.7812 0.550237 1.48856 0
M  V30 951 H 93.8022 -1.12058 3.63625 0
M  V30 952 H 93.3142 0.695068 3.81825 0
M  V30 953 H 91.4152 -1.71706 3.30678 0
M  V30 954 H 91.5282 -0.520869 4.7626 0
M  V30 955 H 89.8922 -0.372894 2.51956 0
M  V30 956 H 90.6752 1.13536 3.23982 0
M  V30 957 N 93.1203 -1.57491 0.0584922 0
M  V30 958 C 94.3663 -1.93264 -0.614558 0
M  V30 959 C 94.6993 -0.937717 -1.7006 0
M  V30 960 O 93.9743 0.0351652 -1.94468 0
M  V30 961 C 94.2573 -3.3938 -1.20386 0
M  V30 962 C 94.1103 -4.49625 -0.125375 0
M  V30 963 C 95.4293 -3.86039 -2.11334 0
M  V30 964 H 92.5483 -0.702791 -0.221933 0
M  V30 965 H 95.1903 -1.8961 0.12175 0
M  V30 966 H 93.3403 -3.42626 -1.83139 0
M  V30 967 H 95.0123 -4.58506 0.506971 0
M  V30 968 H 93.2553 -4.30354 0.545672 0
M  V30 969 H 93.9263 -5.48967 -0.577861 0
M  V30 970 H 96.4023 -3.84716 -1.58534 0
M  V30 971 H 95.2783 -4.88914 -2.49507 0
M  V30 972 H 95.5393 -3.23215 -3.01636 0
M  V30 973 N 94.5984 0.214957 -1.56127 0
M  V30 974 C 95.8264 0.955092 -1.83536 0
M  V30 975 C 96.2414 1.77677 -0.638472 0
M  V30 976 O 95.5984 1.78219 0.392968 0
M  V30 977 C 95.6494 1.86734 -3.09536 0
M  V30 978 O 95.3704 1.07887 -4.24608 0
M  V30 979 C 96.8714 2.72082 -3.4998 0
M  V30 980 H 94.0914 0.279611 -0.609966 0
M  V30 981 H 96.6354 0.228197 -2.03223 0
M  V30 982 H 94.7904 2.5481 -2.91806 0
M  V30 983 H 95.2044 1.69872 -4.9623 0
M  V30 984 H 96.6784 3.31782 -4.41163 0
M  V30 985 H 97.1554 3.44806 -2.7204 0
M  V30 986 H 97.7614 2.09409 -3.70173 0
M  V30 987 N 96.0765 1.50051 0.48192 0
M  V30 988 C 97.3045 1.64237 1.25832 0
M  V30 989 C 97.7195 0.321336 1.86045 0
M  V30 990 O 97.0765 -0.695478 1.68729 0
M  V30 991 C 97.1275 2.72548 2.37487 0
M  V30 992 O 96.8485 3.99529 1.79745 0
M  V30 993 C 98.3495 2.9761 3.28547 0
M  V30 994 H 95.5695 0.55237 0.380957 0
M  V30 995 H 98.1135 1.96207 0.576467 0
M  V30 996 H 96.2685 2.43303 3.01467 0
M  V30 997 H 96.6825 4.59342 2.5319 0
M  V30 998 H 98.1565 3.77084 4.03127 0
M  V30 999 H 98.6335 2.0826 3.86684 0
M  V30 1000 H 99.2395 3.28345 2.70314 0
M  V30 1001 N 97.5546 -0.734337 1.39446 0
M  V30 1002 C 98.7826 -1.52358 1.39981 0
M  V30 1003 C 99.1976 -1.88799 -0.0054975 0
M  V30 1004 O 98.5546 -1.54146 -0.976998 0
M  V30 1005 C 98.6056 -2.81072 2.27333 0
M  V30 1006 O 98.3266 -2.46178 3.62392 0
M  V30 1007 C 99.8276 -3.75096 2.36259 0
M  V30 1008 H 97.0476 -0.470806 0.478103 0
M  V30 1009 H 99.5916 -0.907339 1.83269 0
M  V30 1010 H 97.7466 -3.39026 1.87457 0
M  V30 1011 H 98.1606 -3.28866 4.08592 0
M  V30 1012 H 99.6346 -4.62305 3.01626 0
M  V30 1013 H 100.112 -4.16892 1.38194 0
M  V30 1014 H 100.718 -3.23061 2.76608 0
M  V30 1015 N 99.0327 -1.24633 -0.964593 0
M  V30 1016 C 100.279 -1.08949 -1.71049 0
M  V30 1017 C 100.612 0.370302 -1.90637 0
M  V30 1018 O 99.8867 1.27349 -1.47011 0
M  V30 1019 C 100.17 -1.83329 -3.0994 0
M  V30 1020 C 100.023 -3.37077 -2.97824 0
M  V30 1021 C 101.342 -1.60846 -4.09654 0
M  V30 1022 H 98.4607 -0.397178 -0.620821 0
M  V30 1023 H 101.103 -1.5334 -1.12191 0
M  V30 1024 H 99.2527 -1.45597 -3.60186 0
M  V30 1025 H 100.925 -3.84425 -2.5498 0
M  V30 1026 H 99.1677 -3.65298 -2.33965 0
M  V30 1027 H 99.8387 -3.84324 -3.96231 0
M  V30 1028 H 102.315 -1.93674 -3.68279 0
M  V30 1029 H 101.191 -2.1534 -5.04896 0
M  V30 1030 H 101.452 -0.547434 -4.38698 0
M  V30 1031 N 100.511 1.16574 -1.06058 0
M  V30 1032 C 101.441 2.23057 -0.690488 0
M  V30 1033 C 102.422 1.67141 0.315901 0
M  V30 1034 O 103.607 1.93253 0.191556 0
M  V30 1035 C 100.737 3.47222 -0.073625 0
M  V30 1036 C 99.6908 4.16016 -1.00573 0
M  V30 1037 C 99.0168 5.34104 -0.252289 0
M  V30 1038 C 100.317 4.67264 -2.33371 0
M  V30 1039 H 102.011 2.54271 -1.58072 0
M  V30 1040 H 99.5568 1.22218 -0.76149 0
M  V30 1041 H 101.51 4.20939 0.19714 0
M  V30 1042 H 100.234 3.15302 0.85161 0
M  V30 1043 H 98.8928 3.44223 -1.2612 0
M  V30 1044 H 98.5408 4.98437 0.675988 0
M  V30 1045 H 98.2408 5.81072 -0.873455 0
M  V30 1046 H 99.7648 6.10599 0.0109857 0
M  V30 1047 H 101.179 5.32573 -2.12223 0
M  V30 1048 H 99.5758 5.24843 -2.90963 0
M  V30 1049 H 100.646 3.83602 -2.96611 0
M  V30 1050 N 101.989 0.842826 1.3317 0
M  V30 1051 C 103.217 0.454055 2.01856 0
M  V30 1052 C 103.632 -0.94587 1.63397 0
M  V30 1053 O 102.989 -1.61534 0.849302 0
M  V30 1054 C 103.04 0.569715 3.56982 0
M  V30 1055 O 102.761 1.91448 3.94055 0
M  V30 1056 C 104.262 0.178412 4.42941 0
M  V30 1057 H 101.482 0.17979 0.646465 0
M  V30 1058 H 104.026 1.1365 1.70012 0
M  V30 1059 H 102.181 -0.0648587 3.87346 0
M  V30 1060 H 102.595 1.90282 4.88767 0
M  V30 1061 H 104.069 0.310376 5.51127 0
M  V30 1062 H 104.546 -0.880056 4.30293 0
M  V30 1063 H 105.152 0.787579 4.17944 0
M  V30 1064 N 103.467 -1.45747 0.599634 0
M  V30 1065 C 104.692 -2.07178 0.0960198 0
M  V30 1066 C 105.117 -1.44268 -1.207 0
M  V30 1067 O 104.475 -0.532503 -1.73303 0
M  V30 1068 C 104.523 -3.60579 -0.0385348 0
M  V30 1069 O 103.627 -3.97713 -1.0908 0
M  V30 1070 H 102.968 -0.660251 0.0704593 0
M  V30 1071 H 105.498 -1.87124 0.827385 0
M  V30 1072 H 105.508 -4.07298 -0.239304 0
M  V30 1073 H 104.183 -4.05756 0.912947 0
M  V30 1074 H 102.76 -3.62678 -0.867135 0
M  V30 1075 N 104.945 -0.338344 -1.53925 0
M  V30 1076 C 106.191 0.260143 -2.01125 0
M  V30 1077 C 106.524 1.50617 -1.22589 0
M  V30 1078 O 105.799 1.91979 -0.312113 0
M  V30 1079 C 106.082 0.579499 -3.55407 0
M  V30 1080 C 105.935 -0.678264 -4.44657 0
M  V30 1081 C 107.254 1.39122 -4.17532 0
M  V30 1082 H 104.373 0.0930772 -0.731099 0
M  V30 1083 H 107.015 -0.457852 -1.84401 0
M  V30 1084 H 105.165 1.19118 -3.69788 0
M  V30 1085 H 106.837 -1.31631 -4.42121 0
M  V30 1086 H 105.08 -1.3042 -4.13731 0
M  V30 1087 H 105.751 -0.410143 -5.50474 0
M  V30 1088 H 108.227 0.874035 -4.06817 0
M  V30 1089 H 107.103 1.58342 -5.25565 0
M  V30 1090 H 107.364 2.39178 -3.71815 0
M  V30 1091 N 106.423 1.57458 -0.0668435 0
M  V30 1092 C 107.648 1.9804 0.616027 0
M  V30 1093 C 108.073 0.944771 1.62652 0
M  V30 1094 O 107.431 -0.0902094 1.81075 0
M  V30 1095 C 107.479 3.37665 1.26549 0
M  V30 1096 O 106.583 3.36701 2.38131 0
M  V30 1097 H 105.924 0.644719 0.158849 0
M  V30 1098 H 108.454 2.04121 -0.139891 0
M  V30 1099 H 108.464 3.7474 1.6135 0
M  V30 1100 H 107.139 4.12573 0.525016 0
M  V30 1101 H 105.716 3.1139 2.0516 0
M  V30 1102 N 107.901 -0.206675 1.56239 0
M  V30 1103 C 108.811 -1.27686 1.96808 0
M  V30 1104 C 109.827 -1.50455 0.874035 0
M  V30 1105 O 111.003 -1.63295 1.17884 0
M  V30 1106 C 108.068 -2.60358 2.28942 0
M  V30 1107 C 107.129 -2.45762 3.51994 0
M  V30 1108 C 106.362 -3.72108 3.82585 0
M  V30 1109 O 106.585 -4.75776 3.14631 0
M  V30 1110 O 105.519 -3.6833 4.76043 0
M  V30 1111 H 109.345 -0.962593 2.88041 0
M  V30 1112 H 106.93 -0.410746 1.43643 0
M  V30 1113 H 108.812 -3.38687 2.50737 0
M  V30 1114 H 107.487 -2.91435 1.4088 0
M  V30 1115 H 106.394 -1.65584 3.35459 0
M  V30 1116 H 107.727 -2.19621 4.40486 0
M  V30 1117 N 109.379 -1.50304 -0.473955 0
M  V30 1118 C 110.656 -1.51667 -1.23518 0
M  V30 1119 C 111.036 -0.259701 -2.09496 0
M  V30 1120 O 110.384 0.756986 -2.15597 0
M  V30 1121 C 110.594 -2.81082 -2.06868 0
M  V30 1122 C 111.942 -3.31631 -2.65153 0
M  V30 1123 O 112.966 -2.82384 -2.17113 0
M  V30 1124 O 111.825 -4.17471 -3.52675 0
M  V30 1125 H 108.919 -0.60822 -0.560355 0
M  V30 1126 H 111.465 -1.62592 -0.486011 0
M  V30 1127 H 110.237 -3.64041 -1.4349 0
M  V30 1128 H 109.86 -2.73146 -2.88924 0
M  V30 1129 N 110.857 0.726932 -1.39834 0
M  V30 1130 C 112.082 1.52121 -1.40976 0
M  V30 1131 C 112.507 1.88098 -0.00826029 0
M  V30 1132 O 111.865 1.52479 0.980807 0
M  V30 1133 C 111.913 2.78021 -2.29644 0
M  V30 1134 O 111.017 3.74272 -1.73188 0
M  V30 1135 H 110.358 0.45908 -0.479731 0
M  V30 1136 H 112.888 0.896207 -1.83927 0
M  V30 1137 H 112.898 3.26671 -2.44438 0
M  V30 1138 H 111.573 2.51169 -3.31492 0
M  V30 1139 H 110.15 3.33073 -1.6768 0
M  V30 1140 N 112.336 1.25143 0.95797 0
M  V30 1141 C 113.752 1.01892 1.22842 0
M  V30 1142 C 113.952 -0.266311 1.99732 0
M  V30 1143 O 113.008 -0.979913 2.3271 0
M  V30 1144 C 114.321 2.24004 2.00606 0
M  V30 1145 C 115.869 2.28731 2.13662 0
M  V30 1146 C 116.344 3.5049 2.94823 0
M  V30 1147 N 117.835 3.50866 3.02403 0
M  V30 1148 C 118.57 4.4174 3.65586 0
M  V30 1149 N 118.066 5.42882 4.30408 0
M  V30 1150 N 119.859 4.29429 3.62694 0
M  V30 1151 H 112.01 2.07718 0.443493 0
M  V30 1152 H 114.273 0.912031 0.258657 0
M  V30 1153 H 113.979 3.17395 1.51503 0
M  V30 1154 H 113.853 2.26907 3.01319 0
M  V30 1155 H 116.24 1.35865 2.61963 0
M  V30 1156 H 116.321 2.29848 1.12265 0
M  V30 1157 H 115.965 4.43676 2.47213 0
M  V30 1158 H 115.895 3.46617 3.96439 0
M  V30 1159 H 118.386 2.777 2.56302 0
M  V30 1160 H 118.699 6.0844 4.76467 0
M  V30 1161 H 117.044 5.46758 4.29047 0
M  V30 1162 H 120.235 3.49643 3.11236 0
M  V30 1163 H 120.408 5.00448 4.1165 0
M  V30 1164 N 113.814 -1.1601 1.06675 0
M  V30 1165 C 115.091 -1.82679 0.699114 0
M  V30 1166 C 115.471 -1.94559 -0.819137 0
M  V30 1167 O 114.819 -1.49169 -1.73092 0
M  V30 1168 C 115.029 -3.19445 1.40555 0
M  V30 1169 C 116.377 -3.95171 1.55323 0
M  V30 1170 O 117.401 -3.28976 1.36577 0
M  V30 1171 O 116.26 -5.13833 1.86112 0
M  V30 1172 H 113.354 -0.788954 0.247951 0
M  V30 1173 H 115.9 -1.23179 1.16726 0
M  V30 1174 H 114.672 -3.05856 2.44065 0
M  V30 1175 H 114.295 -3.86625 0.927733 0
M  V30 1176 N 115.292 -0.849877 -1.32721 0
M  V30 1177 C 116.224 -0.248332 -2.27851 0
M  V30 1178 C 117.237 0.577218 -1.52224 0
M  V30 1179 O 118.426 0.402489 -1.73903 0
M  V30 1180 C 115.526 0.668107 -3.32249 0
M  V30 1181 C 114.699 -0.120534 -4.37234 0
M  V30 1182 C 113.758 0.720932 -5.21238 0
M  V30 1183 O 112.784 0.156166 -5.68986 0
M  V30 1184 N 113.986 2.03647 -5.43607 0
M  V30 1185 H 116.751 -1.06575 -2.80111 0
M  V30 1186 H 114.312 -0.709395 -1.45531 0
M  V30 1187 H 116.304 1.23627 -3.85355 0
M  V30 1188 H 114.874 1.38621 -2.80184 0
M  V30 1189 H 114.094 -0.870108 -3.84477 0
M  V30 1190 H 115.382 -0.662406 -5.0447 0
M  V30 1191 H 114.78 2.51871 -5.06535 0
M  V30 1192 H 113.337 2.55287 -5.99727 0
M  V30 1193 N 116.77 1.45427 -0.607355 0
M  V30 1194 C 118.017 2.02241 -0.102455 0
M  V30 1195 C 118.345 1.4758 1.26691 0
M  V30 1196 O 117.6 0.640468 1.84923 0
M  V30 1197 C 117.899 3.57398 -0.0129263 0
M  V30 1198 C 117.565 4.3121 -1.31792 0
M  V30 1199 C 116.227 4.51092 -1.67539 0
M  V30 1200 C 118.579 4.73401 -2.18039 0
M  V30 1201 C 115.907 5.10422 -2.89285 0
M  V30 1202 C 118.259 5.34078 -3.39034 0
M  V30 1203 C 116.923 5.52184 -3.75033 0
M  V30 1204 H 116.193 0.740051 -0.037491 0
M  V30 1205 H 118.84 1.74494 -0.788926 0
M  V30 1206 H 117.145 3.84421 0.756806 0
M  V30 1207 H 118.842 3.99061 0.393881 0
M  V30 1208 H 115.432 4.16047 -1.02968 0
M  V30 1209 H 119.616 4.57774 -1.91721 0
M  V30 1210 H 114.872 5.22629 -3.17283 0
M  V30 1211 H 119.046 5.65724 -4.06115 0
M  V30 1212 H 116.673 5.97925 -4.69457 0
M  V30 1213 N 118.248 0.346503 1.53744 0
M  V30 1214 C 119.158 -0.517293 2.28826 0
M  V30 1215 C 120.174 -1.10935 1.3405 0
M  V30 1216 O 121.35 -1.1244 1.6709 0
M  V30 1217 C 118.415 -1.65098 3.04866 0
M  V30 1218 C 117.476 -1.0884 4.15274 0
M  V30 1219 C 116.709 -2.16806 4.87679 0
M  V30 1220 O 116.932 -3.3758 4.59778 0
M  V30 1221 O 115.866 -1.80934 5.74061 0
M  V30 1222 H 119.692 0.0931396 3.03557 0
M  V30 1223 H 117.277 0.111458 1.48984 0
M  V30 1224 H 119.159 -2.31053 3.5241 0
M  V30 1225 H 117.834 -2.24717 2.32989 0
M  V30 1226 H 116.741 -0.3933 3.72027 0
M  V30 1227 H 118.074 -0.537036 4.89261 0
M  V30 1228 N 119.726 -1.57421 0.075193 0
M  V30 1229 C 120.674 -2.14124 -0.908508 0
M  V30 1230 C 121.668 -1.07898 -1.30592 0
M  V30 1231 O 122.874 -1.26273 -1.28277 0
M  V30 1232 H 119.249 -0.684707 -0.310935 0
M  V30 1233 H 121.22 -2.95634 -0.405374 0
M  V30 1234 C 119.969 -2.72044 -2.16535 0
M  V30 1235 H 119.292 -3.53456 -1.86839 0
M  V30 1236 H 120.732 -3.15311 -2.83469 0
M  V30 1237 C 119.191 -1.66968 -2.92615 0
M  V30 1238 O 119.721 -1.0967 -3.86439 0
M  V30 1239 N 117.927 -1.37923 -2.55784 0
M  V30 1240 H 117.474 -1.84706 -1.79559 0
M  V30 1241 H 117.432 -0.67852 -3.06991 0
M  V30 1242 N 121.204 0.198386 -1.56346 0
M  V30 1243 C 122.429 0.939682 -1.84891 0
M  V30 1244 C 122.854 1.76202 -0.658369 0
M  V30 1245 O 122.212 1.76993 0.392851 0
M  V30 1246 C 122.26 1.81428 -3.11635 0
M  V30 1247 O 121.364 2.91265 -2.91956 0
M  V30 1248 H 120.705 0.264807 -0.608912 0
M  V30 1249 H 123.235 0.204695 -2.03573 0
M  V30 1250 H 123.245 2.21958 -3.42343 0
M  V30 1251 H 121.92 1.21004 -3.97908 0
M  V30 1252 H 120.497 2.54514 -2.72538 0
M  V30 1253 N 122.682 1.50554 0.465978 0
M  V30 1254 C 123.928 1.62038 1.21949 0
M  V30 1255 C 124.261 0.322116 1.9151 0
M  V30 1256 O 123.536 -0.676723 1.82348 0
M  V30 1257 C 123.819 2.80421 2.25912 0
M  V30 1258 C 123.672 4.20144 1.60622 0
M  V30 1259 C 124.991 2.94354 3.27176 0
M  V30 1260 H 122.11 0.589752 0.441998 0
M  V30 1261 H 124.752 1.82956 0.51257 0
M  V30 1262 H 122.902 2.62717 2.86203 0
M  V30 1263 H 124.574 4.49449 1.03889 0
M  V30 1264 H 122.817 4.24165 0.909211 0
M  V30 1265 H 123.488 4.98914 2.36196 0
M  V30 1266 H 125.964 3.10578 2.76913 0
M  V30 1267 H 124.84 3.788 3.97242 0
M  V30 1268 H 125.101 2.05186 3.916 0
M  V30 1269 N 124.16 -0.719506 1.40217 0
M  V30 1270 C 125.09 -1.8465 1.42922 0
M  V30 1271 C 126.071 -1.67599 0.29062 0
M  V30 1272 O 127.256 -1.87688 0.498677 0
M  V30 1273 C 124.386 -3.22565 1.28722 0
M  V30 1274 C 123.34 -3.54281 2.40144 0
M  V30 1275 C 122.666 -4.91298 2.11023 0
M  V30 1276 C 123.966 -3.55676 3.82481 0
M  V30 1277 H 125.66 -1.82644 2.37237 0
M  V30 1278 H 123.206 -0.877305 1.1419 0
M  V30 1279 H 125.159 -4.01095 1.29232 0
M  V30 1280 H 123.883 -3.25137 0.308811 0
M  V30 1281 H 122.542 -2.78088 2.38877 0
M  V30 1282 H 122.19 -4.90468 1.11582 0
M  V30 1283 H 121.89 -5.13485 2.8567 0
M  V30 1284 H 123.414 -5.72166 2.13209 0
M  V30 1285 H 124.828 -4.24254 3.85592 0
M  V30 1286 H 123.225 -3.89388 4.56614 0
M  V30 1287 H 124.295 -2.55144 4.12346 0
M  V30 1288 N 125.638 -1.25649 -0.95132 0
M  V30 1289 C 126.57 -1.02112 -2.05197 0
M  V30 1290 C 127.583 0.0150571 -1.62793 0
M  V30 1291 O 128.772 -0.223874 -1.77091 0
M  V30 1292 C 125.872 -0.522361 -3.3485 0
M  V30 1293 C 125.045 -1.62546 -4.06076 0
M  V30 1294 C 124.104 -1.12649 -5.14001 0
M  V30 1295 O 123.13 -1.82156 -5.39266 0
M  V30 1296 N 124.332 0.03047 -5.80492 0
M  V30 1297 H 127.097 -1.96885 -2.25957 0
M  V30 1298 H 124.658 -1.16899 -1.1201 0
M  V30 1299 H 126.65 -0.172961 -4.0433 0
M  V30 1300 H 125.22 0.33151 -3.10837 0
M  V30 1301 H 124.44 -2.14628 -3.30649 0
M  V30 1302 H 125.728 -2.36644 -4.50419 0
M  V30 1303 H 125.126 0.611169 -5.62389 0
M  V30 1304 H 123.683 0.320875 -6.5101 0
M  V30 1305 N 127.117 1.15442 -1.07289 0
M  V30 1306 C 128.047 2.22312 -0.714107 0
M  V30 1307 C 129.028 1.67467 0.298155 0
M  V30 1308 O 130.213 1.93445 0.171048 0
M  V30 1309 C 127.343 3.47124 -0.110448 0
M  V30 1310 C 126.297 4.14926 -1.04979 0
M  V30 1311 C 125.623 5.33807 -0.308924 0
M  V30 1312 C 126.923 4.64762 -2.38314 0
M  V30 1313 H 128.617 2.5258 -1.6076 0
M  V30 1314 H 126.163 1.21404 -0.77441 0
M  V30 1315 H 128.116 4.21124 0.152482 0
M  V30 1316 H 126.84 3.16187 0.81812 0
M  V30 1317 H 125.499 3.42866 -1.29764 0
M  V30 1318 H 125.147 4.99126 0.623084 0
M  V30 1319 H 124.847 5.80113 -0.935036 0
M  V30 1320 H 126.371 6.10576 -0.0537771 0
M  V30 1321 H 127.785 5.30292 -2.1786 0
M  V30 1322 H 126.182 5.21728 -2.96514 0
M  V30 1323 H 127.252 3.80434 -3.00663 0
M  V30 1324 N 128.595 0.856903 1.32268 0
M  V30 1325 C 130.011 0.547061 1.49931 0
M  V30 1326 C 130.211 -0.921781 1.7918 0
M  V30 1327 O 129.267 -1.70469 1.8627 0
M  V30 1328 C 130.58 1.43599 2.64196 0
M  V30 1329 C 132.128 1.43665 2.78081 0
M  V30 1330 C 132.603 2.31085 3.95428 0
M  V30 1331 N 134.094 2.28893 4.02694 0
M  V30 1332 C 134.829 2.93262 4.92732 0
M  V30 1333 N 134.325 3.66751 5.87763 0
M  V30 1334 N 136.118 2.82638 4.85873 0
M  V30 1335 H 128.269 1.8075 1.11549 0
M  V30 1336 H 130.532 0.772144 0.549997 0
M  V30 1337 H 130.238 2.48058 2.49319 0
M  V30 1338 H 130.112 1.12502 3.60032 0
M  V30 1339 H 132.499 0.399701 2.92381 0
M  V30 1340 H 132.58 1.7878 1.82952 0
M  V30 1341 H 132.224 3.34849 3.81888 0
M  V30 1342 H 132.154 1.93302 4.89839 0
M  V30 1343 H 134.645 1.75466 3.34694 0
M  V30 1344 H 134.958 4.13027 6.53168 0
M  V30 1345 H 133.303 3.70859 5.87783 0
M  V30 1346 H 136.494 2.24774 4.10602 0
M  V30 1347 H 136.667 3.33084 5.55841 0
M  V30 1348 N 130.073 -1.45103 0.615059 0
M  V30 1349 C 130.983 -2.34382 -0.101034 0
M  V30 1350 C 131.999 -1.51681 -0.852585 0
M  V30 1351 O 133.175 -1.8446 -0.808484 0
M  V30 1352 C 130.24 -3.29417 -1.08099 0
M  V30 1353 C 129.301 -4.28025 -0.330577 0
M  V30 1354 C 128.534 -5.1852 -1.26385 0
M  V30 1355 O 128.757 -5.12598 -2.50198 0
M  V30 1356 O 127.691 -5.97122 -0.756866 0
M  V30 1357 H 131.517 -2.97033 0.632855 0
M  V30 1358 H 129.102 -1.4461 0.375293 0
M  V30 1359 H 130.984 -3.87958 -1.6452 0
M  V30 1360 H 129.659 -2.69321 -1.79577 0
M  V30 1361 H 128.566 -3.73078 0.276283 0
M  V30 1362 H 129.899 -4.90997 0.343866 0
M  V30 1363 N 131.551 -0.354651 -1.53558 0
M  V30 1364 C 132.501 0.513179 -2.2215 0
M  V30 1365 C 133.485 1.05734 -1.21281 0
M  V30 1366 O 134.677 0.989202 -1.46778 0
M  V30 1367 C 131.806 1.65798 -3.00609 0
M  V30 1368 C 130.892 1.12722 -4.08845 0
M  V30 1369 N 131.283 0.318563 -5.04796 0
M  V30 1370 C 129.581 1.40307 -4.23356 0
M  V30 1371 C 130.282 0.0292224 -5.81693 0
M  V30 1372 N 129.258 0.623891 -5.40008 0
M  V30 1373 H 133.06 -0.111586 -2.93688 0
M  V30 1374 H 130.574 -0.162091 -1.61589 0
M  V30 1375 H 132.571 2.29176 -3.48258 0
M  V30 1376 H 131.231 2.28591 -2.306 0
M  V30 1377 H 132.242 -0.0413091 -5.17884 0
M  V30 1378 H 128.919 2.03458 -3.6457 0
M  V30 1379 H 130.309 -0.623808 -6.68998 0
M  V30 1380 N 133.029 1.57378 -0.0835403 0
M  V30 1381 C 134.306 1.85363 0.624507 0
M  V30 1382 C 134.686 0.978239 1.87066 0
M  V30 1383 O 134.034 0.0475908 2.2845 0
M  V30 1384 C 134.244 3.35795 0.950947 0
M  V30 1385 C 135.592 4.03581 1.31939 0
M  V30 1386 O 136.616 3.40609 1.04232 0
M  V30 1387 O 135.475 5.14672 1.83779 0
M  V30 1388 H 132.569 0.766162 0.311329 0
M  V30 1389 H 135.115 1.69307 -0.115362 0
M  V30 1390 H 133.887 3.91244 0.0663899 0
M  V30 1391 H 133.51 3.57154 1.74719 0
M  V30 1392 N 134.507 -0.190092 1.56449 0
M  V30 1393 C 135.417 -1.25591 1.98152 0
M  V30 1394 C 136.433 -1.49519 0.889944 0
M  V30 1395 O 137.609 -1.62036 1.19609 0
M  V30 1396 C 134.674 -2.57916 2.3169 0
M  V30 1397 C 133.735 -2.42015 3.5458 0
M  V30 1398 C 132.968 -3.6803 3.8651 0
M  V30 1399 O 133.191 -4.72413 3.1966 0
M  V30 1400 O 132.125 -3.6326 4.79923 0
M  V30 1401 H 135.951 -0.931988 2.89046 0
M  V30 1402 H 133.536 -0.395488 1.4407 0
M  V30 1403 H 135.418 -3.36008 2.54316 0
M  V30 1404 H 134.093 -2.89925 1.43963 0
M  V30 1405 H 133 -1.62017 3.37196 0
M  V30 1406 H 134.333 -2.14937 4.4279 0
M  V30 1407 N 135.985 -1.50799 -0.457987 0
M  V30 1408 C 137.21 -1.66496 -1.23668 0
M  V30 1409 C 137.635 -0.353288 -1.84752 0
M  V30 1410 O 136.993 0.684346 -1.67888 0
M  V30 1411 C 137.041 -2.76763 -2.3116 0
M  V30 1412 O 136.145 -2.38928 -3.36136 0
M  V30 1413 H 135.486 -0.555828 -0.363252 0
M  V30 1414 H 138.016 -1.9725 -0.543474 0
M  V30 1415 H 138.026 -3.00232 -2.76269 0
M  V30 1416 H 136.701 -3.71954 -1.86073 0
M  V30 1417 H 135.278 -2.25953 -2.96647 0
M  V30 1418 N 137.463 0.71206 -1.40597 0
M  V30 1419 C 138.373 1.8562 -1.43466 0
M  V30 1420 C 139.389 1.70902 -0.326902 0
M  V30 1421 O 140.565 1.93105 -0.572043 0
M  V30 1422 C 137.63 3.21451 -1.29884 0
M  V30 1423 C 136.691 3.48398 -2.50833 0
M  V30 1424 C 135.924 4.77749 -2.3789 0
M  V30 1425 O 136.147 5.53089 -1.39459 0
M  V30 1426 O 135.081 5.05111 -3.27333 0
M  V30 1427 H 138.907 1.86155 -2.39958 0
M  V30 1428 H 136.492 0.86295 -1.21957 0
M  V30 1429 H 138.374 4.02579 -1.24531 0
M  V30 1430 H 137.049 3.21636 -0.364997 0
M  V30 1431 H 135.956 2.67265 -2.61763 0
M  V30 1432 H 137.289 3.53014 -3.4299 0
M  V30 1433 N 138.941 1.26152 0.944643 0
M  V30 1434 C 140.169 1.14259 1.72489 0
M  V30 1435 C 140.584 -0.302555 1.8636 0
M  V30 1436 O 139.941 -1.20741 1.36849 0
M  V30 1437 C 139.992 1.80266 3.13347 0
M  V30 1438 O 139.713 3.19133 3.00143 0
M  V30 1439 C 141.214 1.74283 4.07603 0
M  V30 1440 H 138.434 0.398051 0.540181 0
M  V30 1441 H 140.978 1.66706 1.18446 0
M  V30 1442 H 139.133 1.31766 3.64303 0
M  V30 1443 H 139.547 3.51744 3.89071 0
M  V30 1444 H 141.021 2.25111 5.04013 0
M  V30 1445 H 141.498 0.708631 4.33446 0
M  V30 1446 H 142.104 2.22319 3.62567 0
M  V30 1447 N 140.419 -1.14872 1.07899 0
M  V30 1448 C 141.382 -2.17986 0.708161 0
M  V30 1449 C 142.382 -1.58775 -0.25442 0
M  V30 1450 O 143.572 -1.74166 -0.034645 0
M  V30 1451 C 140.704 -3.40871 0.0446929 0
M  V30 1452 H 141.897 -2.52306 1.62116 0
M  V30 1453 H 139.45 -1.2943 0.876218 0
M  V30 1454 H 140.185 -3.12124 -0.880281 0
M  V30 1455 H 139.97 -3.8511 0.737091 0
M  V30 1456 H 141.46 -4.17121 -0.19991 0
M  V30 1457 N 141.898 -0.863906 -1.31812 0
M  V30 1458 C 143.144 -0.472535 -1.97218 0
M  V30 1459 C 143.477 0.971394 -1.68159 0
M  V30 1460 O 142.752 1.68309 -0.974798 0
M  V30 1461 C 143.035 -0.723054 -3.52766 0
M  V30 1462 C 142.888 -2.21608 -3.91421 0
M  V30 1463 C 144.207 -0.185522 -4.39709 0
M  V30 1464 H 141.326 -0.173158 -0.71637 0
M  V30 1465 H 143.968 -1.08403 -1.56041 0
M  V30 1466 H 142.118 -0.202577 -3.87971 0
M  V30 1467 H 143.79 -2.80334 -3.66347 0
M  V30 1468 H 142.033 -2.691 -3.40246 0
M  V30 1469 H 142.704 -2.34203 -4.99853 0
M  V30 1470 H 145.18 -0.630726 -4.11292 0
M  V30 1471 H 144.056 -0.390306 -5.47511 0
M  V30 1472 H 144.317 0.912229 -4.32586 0
M  V30 1473 N 143.376 1.44774 -0.622745 0
M  V30 1474 C 144.601 2.06999 -0.128968 0
M  V30 1475 C 145.026 1.4617 1.1839 0
M  V30 1476 O 144.384 0.560007 1.72434 0
M  V30 1477 C 144.432 3.60595 -0.0188351 0
M  V30 1478 O 143.536 3.99398 1.02739 0
M  V30 1479 H 142.877 0.659047 -0.0809544 0
M  V30 1480 H 145.407 1.85784 -0.85705 0
M  V30 1481 H 145.417 4.07627 0.174476 0
M  V30 1482 H 144.092 4.04252 -0.977384 0
M  V30 1483 H 142.669 3.64011 0.809326 0
M  V30 1484 N 144.854 0.36279 1.53368 0
M  V30 1485 C 145.786 -0.519668 2.23231 0
M  V30 1486 C 146.799 -1.04844 1.24546 0
M  V30 1487 O 147.988 -0.955296 1.50786 0
M  V30 1488 C 145.088 -1.72995 2.9142 0
M  V30 1489 C 144.261 -1.33316 4.16588 0
M  V30 1490 C 143.32 -2.40521 4.68013 0
M  V30 1491 O 142.346 -2.03027 5.3176 0
M  V30 1492 N 143.548 -3.72065 4.45587 0
M  V30 1493 H 146.313 0.078751 2.99597 0
M  V30 1494 H 143.874 0.187833 1.60807 0
M  V30 1495 H 145.866 -2.44184 3.22733 0
M  V30 1496 H 144.436 -2.2353 2.18525 0
M  V30 1497 H 143.656 -0.451236 3.91609 0
M  V30 1498 H 144.944 -1.04432 4.97967 0
M  V30 1499 H 144.342 -4.05304 3.94646 0
M  V30 1500 H 142.899 -4.39366 4.81457 0
M  V30 1501 N 146.332 -1.57332 0.0918853 0
M  V30 1502 C 147.58 -1.93853 -0.571446 0
M  V30 1503 C 147.901 -0.974212 -1.6892 0
M  V30 1504 O 147.171 -0.0257254 -1.95883 0
M  V30 1505 H 145.751 -0.715666 -0.214082 0
M  V30 1506 H 148.413 -1.94287 0.154464 0
M  V30 1507 H 147.509 -2.96191 -0.983729 0
M  V30 1508 N 147.81 0.181792 -1.56548 0
M  V30 1509 C 148.758 1.24461 -1.965 0
M  V30 1510 C 149.752 1.464 -0.852261 0
M  V30 1511 O 150.958 1.47103 -1.03733 0
M  V30 1512 H 147.333 0.418138 -0.625031 0
M  V30 1513 H 149.304 0.880714 -2.85107 0
M  V30 1514 C 148.053 2.57891 -2.33212 0
M  V30 1515 H 147.376 2.41829 -3.18369 0
M  V30 1516 H 148.816 3.3097 -2.65019 0
M  V30 1517 C 147.275 3.15871 -1.17163 0
M  V30 1518 O 147.805 3.9913 -0.453708 0
M  V30 1519 N 146.011 2.74808 -0.944936 0
M  V30 1520 H 145.558 2.07205 -1.53049 0
M  V30 1521 H 145.516 3.13939 -0.170286 0
M  V30 1522 N 149.288 1.51039 0.449983 0
M  V30 1523 C 150.513 1.6715 1.22783 0
M  V30 1524 C 150.938 0.363081 1.84563 0
M  V30 1525 O 150.296 -0.675433 1.68249 0
M  V30 1526 C 150.344 2.77985 2.29689 0
M  V30 1527 O 149.448 2.40707 3.34864 0
M  V30 1528 H 148.789 0.557746 0.360299 0
M  V30 1529 H 151.319 1.97535 0.533005 0
M  V30 1530 H 151.329 3.01693 2.74673 0
M  V30 1531 H 150.004 3.72935 1.84098 0
M  V30 1532 H 148.581 2.27523 2.95445 0
M  V30 1533 N 150.766 -0.704594 1.40972 0
M  V30 1534 C 151.714 -1.83994 1.42299 0
M  V30 1535 C 152.708 -1.66684 0.302111 0
M  V30 1536 O 153.914 -1.73655 0.473697 0
M  V30 1537 H 150.289 -0.606171 0.44504 0
M  V30 1538 H 152.26 -1.79992 2.38003 0
M  V30 1539 C 151.009 -3.21946 1.31323 0
M  V30 1540 H 150.332 -3.35878 2.16855 0
M  V30 1541 H 151.772 -4.01491 1.36311 0
M  V30 1542 C 150.231 -3.36891 0.0245977 0
M  V30 1543 O 150.761 -3.90687 -0.934153 0
M  V30 1544 N 148.967 -2.90559 -0.0485243 0
M  V30 1545 H 148.514 -2.46968 0.732419 0
M  V30 1546 H 148.472 -3.00937 -0.910171 0
M  V30 1547 N 152.244 -1.26651 -0.937939 0
M  V30 1548 C 153.472 -1.15173 -1.7188 0
M  V30 1549 C 153.887 0.292668 -1.86518 0
M  V30 1550 O 153.244 1.20014 -1.37488 0
M  V30 1551 C 153.295 -1.81925 -3.12387 0
M  V30 1552 O 153.016 -3.2072 -2.98446 0
M  V30 1553 C 154.517 -1.76442 -4.06673 0
M  V30 1554 H 151.737 -0.400911 -0.538063 0
M  V30 1555 H 154.281 -1.67332 -1.1756 0
M  V30 1556 H 152.436 -1.33696 -3.63599 0
M  V30 1557 H 152.85 -3.53802 -3.872 0
M  V30 1558 H 154.324 -2.27781 -5.02812 0
M  V30 1559 H 154.801 -0.731608 -4.33064 0
M  V30 1560 H 155.407 -2.24238 -3.61382 0
M  V30 1561 N 153.722 1.14298 -1.08507 0
M  V30 1562 C 154.968 1.85633 -0.816581 0
M  V30 1563 C 155.301 1.82784 0.656021 0
M  V30 1564 O 154.576 1.25926 1.48233 0
M  V30 1565 C 154.859 3.34223 -1.34041 0
M  V30 1566 C 154.712 3.45639 -2.87843 0
M  V30 1567 C 156.031 4.29356 -0.9665 0
M  V30 1568 H 153.15 0.67402 -0.298104 0
M  V30 1569 H 155.792 1.34214 -1.34487 0
M  V30 1570 H 153.942 3.78144 -0.89104 0
M  V30 1571 H 155.614 3.10498 -3.41158 0
M  V30 1572 H 153.857 2.86817 -3.25451 0
M  V30 1573 H 154.528 4.50089 -3.19569 0
M  V30 1574 H 157.004 3.93457 -1.35391 0
M  V30 1575 H 155.88 5.3178 -1.3602 0
M  V30 1576 H 156.141 4.41919 0.126362 0
M  V30 1577 N 155.201 0.870884 1.31352 0
M  V30 1578 C 156.478 0.402907 1.91405 0
M  V30 1579 C 156.858 -1.11512 1.79244 0
M  V30 1580 O 156.206 -1.94411 1.2007 0
M  V30 1581 C 156.416 0.885301 3.37585 0
M  V30 1582 C 157.764 0.911971 4.14691 0
M  V30 1583 O 158.788 0.831016 3.46371 0
M  V30 1584 O 157.647 1.02927 5.3672 0
M  V30 1585 H 154.741 0.120698 0.818145 0
M  V30 1586 H 157.287 0.958857 1.40014 0
M  V30 1587 H 156.059 1.92889 3.40455 0
M  V30 1588 H 155.682 0.307714 3.96407 0
M  V30 1589 N 156.679 -1.44442 0.630414 0
M  V30 1590 C 157.927 -2.01653 0.134351 0
M  V30 1591 C 158.248 -1.49836 -1.24796 0
M  V30 1592 O 157.518 -0.701684 -1.82902 0
M  V30 1593 H 156.098 -0.74554 0.0466769 0
M  V30 1594 H 158.76 -1.76952 0.816955 0
M  V30 1595 H 157.856 -3.11935 0.101498 0
M  V30 1596 N 158.157 -0.370918 -1.53173 0
M  V30 1597 C 159.067 0.480823 -2.2962 0
M  V30 1598 C 160.083 1.08789 -1.35798 0
M  V30 1599 O 161.259 1.09768 -1.68858 0
M  V30 1600 C 158.324 1.60227 -3.07454 0
M  V30 1601 C 157.385 1.0222 -4.16953 0
M  V30 1602 C 156.618 2.0902 -4.91066 0
M  V30 1603 O 156.841 3.30222 -4.65091 0
M  V30 1604 O 155.775 1.71778 -5.76867 0
M  V30 1605 H 159.601 -0.141421 -3.03371 0
M  V30 1606 H 157.186 -0.135146 -1.48787 0
M  V30 1607 H 159.068 2.25417 -3.56041 0
M  V30 1608 H 157.743 2.20982 -2.36535 0
M  V30 1609 H 156.65 0.334064 -3.72605 0
M  V30 1610 H 157.983 0.459131 -4.90054 0
M  V30 1611 N 159.635 1.57281 -0.100228 0
M  V30 1612 C 160.86 1.99302 0.573881 0
M  V30 1613 C 161.285 0.979059 1.60611 0
M  V30 1614 O 160.643 -0.0517803 1.81226 0
M  V30 1615 C 160.691 3.40274 1.19358 0
M  V30 1616 O 159.795 3.41676 2.30935 0
M  V30 1617 H 159.136 0.647944 0.145138 0
M  V30 1618 H 161.666 2.03779 -0.183156 0
M  V30 1619 H 161.676 3.78078 1.53365 0
M  V30 1620 H 160.351 4.13594 0.437385 0
M  V30 1621 H 158.928 3.15672 1.98509 0
M  V30 1622 N 161.113 -0.173488 1.56642 0
M  V30 1623 C 162.341 -0.906095 1.86004 0
M  V30 1624 C 162.756 -1.75921 0.685355 0
M  V30 1625 O 162.113 -1.79198 -0.345578 0
M  V30 1626 C 162.164 -1.78462 3.14378 0
M  V30 1627 O 161.885 -0.965914 4.27319 0
M  V30 1628 C 163.386 -2.62707 3.57071 0
M  V30 1629 H 160.606 -0.263341 0.617165 0
M  V30 1630 H 163.15 -0.174236 2.03756 0
M  V30 1631 H 161.305 -2.46984 2.98459 0
M  V30 1632 H 161.719 -1.56655 5.00559 0
M  V30 1633 H 163.193 -3.19969 4.49804 0
M  V30 1634 H 163.67 -3.37472 2.81086 0
M  V30 1635 H 164.276 -1.99521 3.75595 0
M  V30 1636 N 162.591 -1.51276 -0.441967 0
M  V30 1637 C 163.816 -1.67799 -1.21895 0
M  V30 1638 C 164.241 -0.372864 -1.84367 0
M  V30 1639 O 163.599 0.666501 -1.68604 0
M  V30 1640 C 163.647 -2.79199 -2.28211 0
M  V30 1641 O 162.751 -2.42479 -3.33583 0
M  V30 1642 H 162.092 -0.559649 -0.357336 0
M  V30 1643 H 164.622 -1.97815 -0.522522 0
M  V30 1644 H 164.632 -3.03146 -2.73069 0
M  V30 1645 H 163.307 -3.73906 -1.82118 0
M  V30 1646 H 161.884 -2.29087 -2.94234 0
M  V30 1647 N 164.069 0.697108 -1.41344 0
M  V30 1648 C 165.317 1.45426 -1.40341 0
M  V30 1649 C 165.638 1.94996 -0.0128787 0
M  V30 1650 O 164.908 1.71599 0.945027 0
M  V30 1651 H 163.488 0.539594 -0.516573 0
M  V30 1652 H 166.15 0.825201 -1.76569 0
M  V30 1653 H 165.246 2.31817 -2.08967 0
M  V30 1654 N 165.547 1.27147 0.931209 0
M  V30 1655 C 166.775 1.16082 1.71267 0
M  V30 1656 C 167.19 -0.282772 1.8667 0
M  V30 1657 O 166.547 -1.19283 1.38122 0
M  V30 1658 C 166.598 1.8358 3.11417 0
M  V30 1659 O 166.319 3.22299 2.96741 0
M  V30 1660 C 167.82 1.78597 4.05732 0
M  V30 1661 H 165.04 0.403758 0.535929 0
M  V30 1662 H 167.584 1.67953 1.16671 0
M  V30 1663 H 165.739 1.35623 3.62885 0
M  V30 1664 H 166.153 3.55851 3.85319 0
M  V30 1665 H 167.627 2.30444 5.01597 0
M  V30 1666 H 168.104 0.754564 4.3267 0
M  V30 1667 H 168.71 2.26152 3.60188 0
M  V30 1668 N 167.025 -1.13721 1.09112 0
M  V30 1669 C 167.935 -2.22638 0.73957 0
M  V30 1670 C 168.951 -1.72091 -0.257068 0
M  V30 1671 O 170.127 -2.01155 -0.0992154 0
M  V30 1672 C 167.192 -3.46322 0.16191 0
M  V30 1673 C 166.253 -4.11775 1.21408 0
M  V30 1674 C 165.486 -5.29555 0.663891 0
M  V30 1675 O 165.709 -5.68077 -0.514274 0
M  V30 1676 O 164.643 -5.84973 1.41738 0
M  V30 1677 H 168.469 -2.55074 1.64836 0
M  V30 1678 H 166.054 -1.21791 0.865289 0
M  V30 1679 H 167.936 -4.21107 -0.157073 0
M  V30 1680 H 166.611 -3.15593 -0.719932 0
M  V30 1681 H 165.518 -3.3883 1.58571 0
M  V30 1682 H 166.851 -4.46627 2.06845 0
M  V30 1683 N 168.503 -0.877838 -1.30888 0
M  V30 1684 C 169.78 -0.413052 -1.91189 0
M  V30 1685 C 170.16 1.1056 -1.79832 0
M  V30 1686 O 169.508 1.93771 -1.21099 0
M  V30 1687 C 169.718 -0.903191 -3.3711 0
M  V30 1688 C 171.066 -0.93395 -4.14201 0
M  V30 1689 O 172.09 -0.849373 -3.45925 0
M  V30 1690 O 170.949 -1.05772 -5.36167 0
M  V30 1691 H 168.043 -0.125035 -0.817493 0
M  V30 1692 H 170.589 -0.966269 -1.39504 0
M  V30 1693 H 169.361 -1.94692 -3.39427 0
M  V30 1694 H 168.984 -0.328732 -3.96239 0
M  V30 1695 N 169.982 1.44106 -0.638065 0
M  V30 1696 C 171.231 2.01194 -0.142744 0
M  V30 1697 C 171.544 1.50835 1.24532 0
M  V30 1698 O 172.75 2.00096 1.83504 0
M  V30 1699 C 171.206 3.59319 -0.20442 0
M  V30 1700 C 170.814 4.18674 -1.59423 0
M  V30 1701 C 172.558 4.23854 0.234079 0
M  V30 1702 C 170.465 5.69045 -1.61065 0
M  V30 1703 H 169.395 0.752367 -0.0495998 0
M  V30 1704 H 172.046 1.65246 -0.797881 0
M  V30 1705 H 170.428 3.92598 0.517946 0
M  V30 1706 H 171.602 3.96921 -2.34074 0
M  V30 1707 H 169.917 3.66453 -1.97741 0
M  V30 1708 H 172.514 5.34155 0.241443 0
M  V30 1709 H 172.857 3.96688 1.2627 0
M  V30 1710 H 173.39 3.95403 -0.436025 0
M  V30 1711 H 170.129 6.00956 -2.61787 0
M  V30 1712 H 169.649 5.929 -0.90718 0
M  V30 1713 H 171.328 6.32809 -1.34766 0
M  V30 1714 N 171.46 0.379036 1.52974 0
M  V30 1715 C 172.407 -0.461048 2.26148 0
M  V30 1716 C 173.377 -1.06637 1.27349 0
M  V30 1717 O 174.562 -1.09633 1.56157 0
M  V30 1718 C 171.702 -1.58782 3.06402 0
M  V30 1719 C 170.815 -1.00636 4.20115 0
M  V30 1720 C 169.95 -2.10334 4.87784 0
M  V30 1721 C 168.989 -1.49724 5.93506 0
M  V30 1722 N 168.126 -2.5331 6.54812 0
M  V30 1723 H 172.966 0.169429 2.97518 0
M  V30 1724 H 170.503 0.0953806 1.4679 0
M  V30 1725 H 172.461 -2.25174 3.51215 0
M  V30 1726 H 171.091 -2.18876 2.37261 0
M  V30 1727 H 170.143 -0.232332 3.7969 0
M  V30 1728 H 171.455 -0.523343 4.96047 0
M  V30 1729 H 170.609 -2.84519 5.35849 0
M  V30 1730 H 169.348 -2.61992 4.11353 0
M  V30 1731 H 168.353 -0.740598 5.44789 0
M  V30 1732 H 169.578 -0.988732 6.71864 0
M  V30 1733 H 167.524 -3.04156 5.81227 0
M  V30 1734 H 167.441 -2.09734 7.26325 0
M  V30 1735 H 168.709 -3.27155 7.07524 0
M  V30 1736 N 172.938 -1.57226 0.108567 0
M  V30 1737 C 174.187 -1.94008 -0.551703 0
M  V30 1738 C 174.5 -0.993442 -1.68494 0
M  V30 1739 O 175.706 -1.25551 -2.40726 0
M  V30 1740 C 174.162 -3.44763 -1.03279 0
M  V30 1741 C 173.77 -4.47943 0.0714193 0
M  V30 1742 C 175.514 -3.90483 -1.66503 0
M  V30 1743 C 173.421 -5.89865 -0.425779 0
M  V30 1744 H 172.351 -0.724206 -0.209863 0
M  V30 1745 H 175.002 -1.82547 0.186741 0
M  V30 1746 H 173.384 -3.51422 -1.82533 0
M  V30 1747 H 174.558 -4.52942 0.847365 0
M  V30 1748 H 172.873 -4.11913 0.609669 0
M  V30 1749 H 175.47 -4.93925 -2.04798 0
M  V30 1750 H 175.813 -3.29877 -2.53942 0
M  V30 1751 H 176.346 -3.86581 -0.938074 0
M  V30 1752 H 173.085 -6.54202 0.412316 0
M  V30 1753 H 172.605 -5.88309 -1.16843 0
M  V30 1754 H 174.284 -6.40844 -0.890397 0
M  V30 1755 N 174.416 0.165178 -1.56732 0
M  V30 1756 C 175.348 1.22911 -1.93457 0
M  V30 1757 C 176.361 1.40152 -0.828333 0
M  V30 1758 O 177.55 1.40046 -1.10677 0
M  V30 1759 C 174.65 2.59686 -2.17753 0
M  V30 1760 C 173.823 2.63663 -3.48999 0
M  V30 1761 C 172.882 3.81845 -3.62051 0
M  V30 1762 O 171.908 3.67559 -4.34613 0
M  V30 1763 N 173.11 4.98557 -2.97357 0
M  V30 1764 H 175.875 0.917118 -2.85323 0
M  V30 1765 H 173.436 0.354895 -1.57962 0
M  V30 1766 H 175.428 3.37225 -2.23743 0
M  V30 1767 H 173.998 2.83251 -1.32242 0
M  V30 1768 H 173.218 1.72173 -3.54612 0
M  V30 1769 H 174.506 2.63336 -4.35352 0
M  V30 1770 H 173.904 5.13065 -2.38287 0
M  V30 1771 H 172.461 5.73936 -3.08934 0
M  V30 1772 N 175.894 1.51508 0.433938 0
M  V30 1773 C 177.141 1.64345 1.18309 0
M  V30 1774 C 177.469 0.361315 1.91115 0
M  V30 1775 O 176.724 -0.654753 1.84422 0
M  V30 1776 C 177.023 2.79928 2.22205 0
M  V30 1777 C 176.689 4.19078 1.66387 0
M  V30 1778 C 175.351 4.56932 1.50887 0
M  V30 1779 C 177.703 5.05894 1.25381 0
M  V30 1780 C 175.031 5.79305 0.928608 0
M  V30 1781 C 177.383 6.2885 0.687823 0
M  V30 1782 C 176.047 6.65473 0.519755 0
M  V30 1783 H 175.317 0.601381 0.432923 0
M  V30 1784 H 177.964 1.85549 0.473676 0
M  V30 1785 H 176.269 2.52959 2.99197 0
M  V30 1786 H 177.966 2.87059 2.79997 0
M  V30 1787 H 174.556 3.89234 1.79428 0
M  V30 1788 H 178.74 4.77253 1.36175 0
M  V30 1789 H 173.996 6.06324 0.786186 0
M  V30 1790 H 178.17 6.95461 0.361581 0
M  V30 1791 H 175.797 7.6017 0.0679979 0
M  V30 1792 N 177.372 -0.689602 1.41712 0
M  V30 1793 C 178.597 -1.48329 1.44959 0
M  V30 1794 C 179.022 -1.8801 0.0581283 0
M  V30 1795 O 178.38 -1.55026 -0.940035 0
M  V30 1796 C 178.428 -2.71835 2.36935 0
M  V30 1797 O 177.532 -3.69549 1.8305 0
M  V30 1798 H 176.873 -0.446199 0.491734 0
M  V30 1799 H 179.403 -0.847127 1.86239 0
M  V30 1800 H 179.413 -3.20076 2.53013 0
M  V30 1801 H 178.088 -2.42291 3.38035 0
M  V30 1802 H 176.665 -3.2851 1.76452 0
M  V30 1803 N 178.85 -1.27639 -0.924453 0
M  V30 1804 C 180.266 -1.05113 -1.20097 0
M  V30 1805 C 180.466 0.213262 -2.00368 0
M  V30 1806 O 179.522 0.91787 -2.35226 0
M  V30 1807 C 180.835 -2.29244 -1.94596 0
M  V30 1808 C 182.383 -2.34315 -2.07522 0
M  V30 1809 C 182.858 -3.58183 -2.85427 0
M  V30 1810 N 184.349 -3.5876 -2.92994 0
M  V30 1811 C 185.084 -4.51277 -3.53746 0
M  V30 1812 N 184.58 -5.54102 -4.15863 0
M  V30 1813 N 186.373 -4.38894 -3.51181 0
M  V30 1814 H 178.524 -2.08821 -0.388264 0
M  V30 1815 H 180.787 -0.918568 -0.234385 0
M  V30 1816 H 180.493 -3.21301 -1.43034 0
M  V30 1817 H 180.367 -2.34816 -2.95197 0
M  V30 1818 H 182.754 -1.42762 -2.58269 0
M  V30 1819 H 182.835 -2.32744 -1.06131 0
M  V30 1820 H 182.479 -4.50074 -2.35363 0
M  V30 1821 H 182.409 -3.57006 -3.8711 0
M  V30 1822 H 184.9 -2.84398 -2.4885 0
M  V30 1823 H 185.213 -6.20859 -4.60168 0
M  V30 1824 H 183.558 -5.57941 -4.144 0
M  V30 1825 H 186.749 -3.57772 -3.01856 0
M  V30 1826 H 186.922 -5.11186 -3.98237 0
M  V30 1827 N 180.328 1.1314 -1.09713 0
M  V30 1828 C 181.553 1.88862 -0.857081 0
M  V30 1829 C 181.978 1.78729 0.586304 0
M  V30 1830 O 181.336 1.13692 1.41222 0
M  V30 1831 C 181.384 3.36325 -1.30069 0
M  V30 1832 O 180.488 4.09815 -0.461007 0
M  V30 1833 H 179.829 0.587108 -0.310162 0
M  V30 1834 H 182.359 1.43129 -1.46203 0
M  V30 1835 H 182.369 3.87157 -1.28738 0
M  V30 1836 H 181.044 3.43017 -2.35185 0
M  V30 1837 H 179.621 3.68986 -0.538888 0
M  V30 1838 N 181.806 0.884767 1.30421 0
M  V30 1839 C 183.054 0.502112 1.95763 0
M  V30 1840 C 183.375 -0.951815 1.70192 0
M  V30 1841 O 182.645 -1.6692 1.0254 0
M  V30 1842 H 181.225 0.182694 0.724315 0
M  V30 1843 H 183.887 1.1278 1.58955 0
M  V30 1844 H 182.983 0.672188 3.04775 0
M  V30 1845 N 183.284 -1.43765 0.645699 0
M  V30 1846 C 184.509 -2.06767 0.161883 0
M  V30 1847 C 184.934 -1.48034 -1.16049 0
M  V30 1848 O 184.292 -0.587369 -1.71522 0
M  V30 1849 C 184.34 -3.60519 0.0762003 0
M  V30 1850 O 183.444 -4.00982 -0.963721 0
M  V30 1851 H 182.785 -0.657675 0.091429 0
M  V30 1852 H 185.315 -1.84397 0.886499 0
M  V30 1853 H 185.325 -4.07853 -0.109604 0
M  V30 1854 H 184 -4.02646 1.04157 0
M  V30 1855 H 182.577 -3.65253 -0.751312 0
M  V30 1856 N 184.763 -0.387143 -1.52771 0
M  V30 1857 C 186.011 0.195349 -2.01154 0
M  V30 1858 C 186.332 1.475 -1.27549 0
M  V30 1859 O 185.602 1.91878 -0.394924 0
M  V30 1860 H 184.182 0.075178 -0.743207 0
M  V30 1861 H 186.844 -0.518337 -1.87881 0
M  V30 1862 H 185.94 0.407096 -3.09434 0
M  V30 1863 N 186.241 1.57166 -0.116904 0
M  V30 1864 C 187.466 1.999 0.55271 0
M  V30 1865 C 187.891 0.996039 1.59564 0
M  V30 1866 O 187.249 -0.032556 1.81271 0
M  V30 1867 C 187.297 3.4152 1.15742 0
M  V30 1868 O 186.401 3.44106 2.27299 0
M  V30 1869 H 185.742 0.649447 0.138258 0
M  V30 1870 H 188.272 2.03573 -0.204759 0
M  V30 1871 H 188.282 3.79684 1.49346 0
M  V30 1872 H 186.957 4.14034 0.393493 0
M  V30 1873 H 185.534 3.17759 1.9515 0
M  V30 1874 N 187.719 -0.156864 1.56817 0
M  V30 1875 C 188.967 -0.869404 1.82444 0
M  V30 1876 C 189.288 -1.82147 0.69623 0
M  V30 1877 O 188.558 -1.93847 -0.28287 0
M  V30 1878 H 187.138 -0.324043 0.673056 0
M  V30 1879 H 189.8 -0.153224 1.94297 0
M  V30 1880 H 188.896 -1.43761 2.77019 0
M  V30 1881 N 189.197 -1.51736 -0.425897 0
M  V30 1882 C 190.445 -1.64644 -1.17204 0
M  V30 1883 C 190.766 -0.370486 -1.91448 0
M  V30 1884 O 190.036 0.614088 -1.86026 0
M  V30 1885 H 188.616 -0.606819 -0.435638 0
M  V30 1886 H 191.278 -1.88713 -0.487177 0
M  V30 1887 H 190.374 -2.47958 -1.89534 0
M  V30 1888 N 190.675 0.682077 -1.42076 0
M  V30 1889 C 191.922 1.44215 -1.42156 0
M  V30 1890 C 192.25 1.94468 -0.0354186 0
M  V30 1891 O 191.505 1.70816 0.955002 0
M  V30 1892 C 191.804 2.66036 -2.38662 0
M  V30 1893 C 191.47 2.34366 -3.85206 0
M  V30 1894 C 190.132 2.25439 -4.25124 0
M  V30 1895 C 192.484 2.08513 -4.77673 0
M  V30 1896 C 189.812 1.88775 -5.55501 0
M  V30 1897 C 192.164 1.73354 -6.08384 0
M  V30 1898 C 190.828 1.62933 -6.47309 0
M  V30 1899 H 190.098 0.527718 -0.520187 0
M  V30 1900 H 192.745 0.778387 -1.74967 0
M  V30 1901 H 191.05 3.3741 -1.99152 0
M  V30 1902 H 192.747 3.24205 -2.35991 0
M  V30 1903 H 189.337 2.42213 -3.53597 0
M  V30 1904 H 193.521 2.14346 -4.47626 0
M  V30 1905 H 188.777 1.7927 -5.84527 0
M  V30 1906 H 192.951 1.52373 -6.79526 0
M  V30 1907 H 190.578 1.34292 -7.48244 0
M  V30 1908 N 192.153 1.28127 0.917671 0
M  V30 1909 C 193.083 1.14248 2.03641 0
M  V30 1910 C 194.064 0.0412748 1.7005 0
M  V30 1911 O 195.249 0.217566 1.92977 0
M  V30 1912 C 192.379 0.799431 3.37974 0
M  V30 1913 C 191.333 1.85497 3.85713 0
M  V30 1914 C 190.659 1.36565 5.16966 0
M  V30 1915 C 191.959 3.26085 4.08002 0
M  V30 1916 H 193.653 2.07835 2.15511 0
M  V30 1917 H 191.199 1.00064 1.03553 0
M  V30 1918 H 193.152 0.689114 4.15727 0
M  V30 1919 H 191.876 -0.172145 3.26146 0
M  V30 1920 H 190.535 1.95437 3.10161 0
M  V30 1921 H 190.183 0.383253 5.01538 0
M  V30 1922 H 189.883 2.07143 5.49878 0
M  V30 1923 H 191.407 1.26848 5.97279 0
M  V30 1924 H 192.821 3.19089 4.76293 0
M  V30 1925 H 191.218 3.94462 4.52238 0
M  V30 1926 H 192.288 3.70394 3.12948 0
M  V30 1927 N 193.631 -1.12557 1.10312 0
M  V30 1928 C 194.541 -2.21841 0.763142 0
M  V30 1929 C 195.557 -1.72354 -0.238801 0
M  V30 1930 O 196.733 -2.01249 -0.0778746 0
M  V30 1931 C 193.798 -3.46131 0.198632 0
M  V30 1932 C 192.859 -4.10464 1.25769 0
M  V30 1933 C 192.092 -5.28821 0.72002 0
M  V30 1934 O 192.315 -5.6859 -0.453993 0
M  V30 1935 O 191.249 -5.83437 1.47935 0
M  V30 1936 H 195.075 -2.53312 1.67532 0
M  V30 1937 H 192.66 -1.20867 0.878157 0
M  V30 1938 H 194.542 -4.2125 -0.112401 0
M  V30 1939 H 193.217 -3.16338 -0.686419 0
M  V30 1940 H 192.124 -3.3713 1.62156 0
M  V30 1941 H 193.457 -4.44408 2.11571 0
M  V30 1942 N 195.109 -0.891671 -1.2995 0
M  V30 1943 C 196.357 -0.512486 -1.95494 0
M  V30 1944 C 196.678 0.942776 -1.70695 0
M  V30 1945 O 195.948 1.66374 -1.03424 0
M  V30 1946 H 194.528 -0.186533 -0.723336 0
M  V30 1947 H 197.19 -1.13621 -1.58355 0
M  V30 1948 H 196.286 -0.688342 -3.04415 0
M  V30 1949 N 196.587 1.43421 -0.653314 0
M  V30 1950 C 197.517 2.33487 0.0246656 0
M  V30 1951 C 198.498 1.49475 0.811863 0
M  V30 1952 O 199.683 1.78139 0.773322 0
M  V30 1953 C 196.813 3.32841 0.99166 0
M  V30 1954 C 195.767 4.26842 0.314568 0
M  V30 1955 C 195.093 5.16236 1.39302 0
M  V30 1956 C 196.393 5.16243 -0.793095 0
M  V30 1957 H 198.087 2.90427 -0.727481 0
M  V30 1958 H 195.633 1.39649 -0.351287 0
M  V30 1959 H 197.586 3.94747 1.47487 0
M  V30 1960 H 196.31 2.74158 1.77497 0
M  V30 1961 H 194.969 3.663 -0.148199 0
M  V30 1962 H 194.617 4.53891 2.16776 0
M  V30 1963 H 194.317 5.79948 0.945223 0
M  V30 1964 H 195.841 5.81015 1.87759 0
M  V30 1965 H 197.255 5.71958 -0.392039 0
M  V30 1966 H 195.652 5.88676 -1.16536 0
M  V30 1967 H 196.722 4.55927 -1.65103 0
M  V30 1968 N 198.065 0.39524 1.52563 0
M  V30 1969 C 199.312 -0.185044 2.01653 0
M  V30 1970 C 199.64 -1.46317 1.28146 0
M  V30 1971 O 198.895 -1.9213 0.372074 0
M  V30 1972 C 199.194 -0.493444 3.53977 0
M  V30 1973 C 198.86 0.69384 4.4553 0
M  V30 1974 C 197.522 1.01954 4.70275 0
M  V30 1975 C 199.874 1.48785 4.99512 0
M  V30 1976 C 197.202 2.14069 5.46252 0
M  V30 1977 C 199.554 2.59965 5.76716 0
M  V30 1978 C 198.218 2.93037 5.99738 0
M  V30 1979 H 197.488 -0.0677123 0.7379 0
M  V30 1980 H 200.135 0.533807 1.8391 0
M  V30 1981 H 198.44 -1.29369 3.69825 0
M  V30 1982 H 200.137 -0.955163 3.89458 0
M  V30 1983 H 196.727 0.429987 4.26438 0
M  V30 1984 H 200.911 1.24946 4.80315 0
M  V30 1985 H 196.167 2.40056 5.62302 0
M  V30 1986 H 200.341 3.21887 6.17545 0
M  V30 1987 H 197.968 3.8003 6.58393 0
M  V30 1988 N 199.544 -1.57102 0.125237 0
M  V30 1989 C 200.792 -1.95021 -0.530198 0
M  V30 1990 C 201.113 -1.00982 -1.66816 0
M  V30 1991 O 200.383 -0.0672693 -1.95784 0
M  V30 1992 H 198.963 -0.720046 -0.198853 0
M  V30 1993 H 201.625 -1.93916 0.19564 0
M  V30 1994 H 200.721 -2.98211 -0.920681 0
M  V30 1995 N 201.022 0.148545 -1.56898 0
M  V30 1996 C 202.262 0.86765 -1.85071 0
M  V30 1997 C 202.626 1.78417 -0.709317 0
M  V30 1998 O 203.827 2.54261 -0.872049 0
M  V30 1999 C 202.098 1.62306 -3.1842 0
M  V30 2000 S 203.657 2.3878 -3.68143 0
M  V30 2001 H 200.475 0.290174 -0.649092 0
M  V30 2002 H 203.077 0.127755 -1.95082 0
M  V30 2003 H 201.781 0.941192 -3.99462 0
M  V30 2004 H 201.312 2.4039 -3.1141 0
M  V30 2005 H 203.327 3.63942 -3.37285 0
M  V30 2006 N 202.5 1.5196 0.417844 0
M  V30 2007 C 203.43 1.77634 1.51554 0
M  V30 2008 C 204.411 0.626918 1.58126 0
M  V30 2009 O 205.596 0.871632 1.7354 0
M  V30 2010 C 202.726 1.91911 2.8946 0
M  V30 2011 C 201.68 3.07463 2.97743 0
M  V30 2012 C 201.006 3.06951 4.37819 0
M  V30 2013 C 202.306 4.47082 2.70027 0
M  V30 2014 H 204 2.6955 1.3032 0
M  V30 2015 H 201.546 1.29706 0.625492 0
M  V30 2016 H 203.499 2.08455 3.6623 0
M  V30 2017 H 202.223 0.966598 3.11969 0
M  V30 2018 H 200.882 2.90656 2.23416 0
M  V30 2019 H 200.53 2.09438 4.57323 0
M  V30 2020 H 200.23 3.84556 4.44286 0
M  V30 2021 H 201.754 3.25613 5.16535 0
M  V30 2022 H 203.168 4.6414 3.36522 0
M  V30 2023 H 201.565 5.2654 2.87881 0
M  V30 2024 H 202.635 4.55777 1.65514 0
M  V30 2025 N 203.978 -0.674533 1.42435 0
M  V30 2026 C 205.394 -0.98769 1.25367 0
M  V30 2027 C 205.594 -2.00879 0.158044 0
M  V30 2028 O 204.65 -2.48075 -0.470633 0
M  V30 2029 C 205.963 -1.49224 2.6106 0
M  V30 2030 C 207.511 -1.61 2.68417 0
M  V30 2031 C 207.986 -2.14852 4.04478 0
M  V30 2032 N 209.477 -2.22185 4.06434 0
M  V30 2033 C 210.212 -2.64928 5.08528 0
M  V30 2034 N 209.708 -3.07121 6.21006 0
M  V30 2035 N 211.501 -2.64679 4.95885 0
M  V30 2036 H 203.652 0.00152503 2.124 0
M  V30 2037 H 205.915 -0.0618434 0.945981 0
M  V30 2038 H 205.621 -0.816453 3.42092 0
M  V30 2039 H 205.495 -2.47094 2.84999 0
M  V30 2040 H 207.882 -2.27686 1.87732 0
M  V30 2041 H 207.963 -0.616195 2.48267 0
M  V30 2042 H 207.607 -1.48775 4.85622 0
M  V30 2043 H 207.537 -3.15024 4.2198 0
M  V30 2044 H 210.028 -1.92435 3.25234 0
M  V30 2045 H 210.341 -3.38423 6.94759 0
M  V30 2046 H 208.686 -3.04978 6.24511 0
M  V30 2047 H 211.877 -2.31078 4.07088 0
M  V30 2048 H 212.05 -2.9767 5.75584 0
M  V30 2049 N 205.456 -1.28612 -0.910864 0
M  V30 2050 C 206.867 -1.14406 -1.47541 0
M  V30 2051 C 207.218 0.264901 -1.94403 0
M  V30 2052 O 206.343 1.15942 -1.82719 0
M  V30 2053 C 206.938 -2.07073 -2.68153 0
M  V30 2054 C 205.497 -1.96923 -3.20778 0
M  V30 2055 C 204.644 -1.98646 -1.93481 0
M  V30 2056 H 207.595 -1.41259 -0.723291 0
M  V30 2057 H 207.616 -1.63642 -3.43514 0
M  V30 2058 H 207.128 -3.09611 -2.34015 0
M  V30 2059 H 205.229 -0.97433 -3.59635 0
M  V30 2060 H 205.342 -2.84026 -3.85832 0
M  V30 2061 H 203.706 -1.43093 -2.10705 0
M  V30 2062 H 204.489 -3.02868 -1.61634 0
M  V30 2063 N 206.934 1.1197 -1.10907 0
M  V30 2064 C 208.18 1.8386 -0.855773 0
M  V30 2065 C 208.513 1.84134 0.617103 0
M  V30 2066 O 207.788 1.29041 1.45529 0
M  V30 2067 C 208.071 3.31305 -1.411 0
M  V30 2068 C 207.924 3.39456 -2.9511 0
M  V30 2069 C 209.243 4.2721 -1.05736 0
M  V30 2070 H 206.362 0.667545 -0.312334 0
M  V30 2071 H 209.004 1.31331 -1.37303 0
M  V30 2072 H 207.154 3.76169 -0.97105 0
M  V30 2073 H 208.826 3.03191 -3.47668 0
M  V30 2074 H 207.069 2.79849 -3.31462 0
M  V30 2075 H 207.74 4.43209 -3.29044 0
M  V30 2076 H 210.216 3.90497 -1.43706 0
M  V30 2077 H 209.092 5.28775 -1.47269 0
M  V30 2078 H 209.353 4.42088 0.0325958 0
M  V30 2079 N 208.412 0.89855 1.29475 0
M  V30 2080 C 209.658 0.534065 1.96263 0
M  V30 2081 C 210.013 -0.909415 1.69551 0
M  V30 2082 O 209.306 -1.63596 0.997349 0
M  V30 2083 C 209.5 0.761398 3.49195 0
M  V30 2084 C 209.329 2.22542 3.90775 0
M  V30 2085 C 208.099 2.87264 4.15701 0
M  V30 2086 C 210.297 3.20051 4.02581 0
M  V30 2087 N 208.279 4.24121 4.4384 0
M  V30 2088 C 209.65 4.42023 4.34759 0
M  V30 2089 C 211.705 3.15657 3.85052 0
M  V30 2090 C 210.408 5.60161 4.51235 0
M  V30 2091 C 212.434 4.33078 4.02737 0
M  V30 2092 C 211.796 5.5382 4.35273 0
M  V30 2093 H 207.895 0.245013 0.742625 0
M  V30 2094 H 210.479 1.15912 1.56437 0
M  V30 2095 H 208.65 0.165732 3.88046 0
M  V30 2096 H 210.382 0.362462 4.03074 0
M  V30 2097 H 207.137 2.38064 4.09417 0
M  V30 2098 H 207.561 4.94839 4.6202 0
M  V30 2099 H 212.203 2.23396 3.58962 0
M  V30 2100 H 209.921 6.52913 4.76162 0
M  V30 2101 H 213.507 4.31163 3.90628 0
M  V30 2102 H 212.387 6.43166 4.48672 0
M  V30 2103 N 209.89 -1.43072 0.660911 0
M  V30 2104 C 210.838 -2.32569 -0.0378199 0
M  V30 2105 C 211.832 -1.49046 -0.805092 0
M  V30 2106 O 213.038 -1.65206 -0.714624 0
M  V30 2107 H 209.413 -0.75136 -0.031019 0
M  V30 2108 H 211.384 -2.89216 0.734609 0
M  V30 2109 C 210.133 -3.33453 -0.985124 0
M  V30 2110 H 209.456 -3.97752 -0.404147 0
M  V30 2111 H 210.896 -3.98691 -1.44297 0
M  V30 2112 C 209.355 -2.64642 -2.08486 0
M  V30 2113 O 209.885 -2.46776 -3.16961 0
M  V30 2114 N 208.091 -2.23891 -1.8526 0
M  V30 2115 H 207.638 -2.38621 -0.970449 0
M  V30 2116 H 207.596 -1.78181 -2.59034 0
M  V30 2117 N 211.368 -0.403325 -1.52352 0
M  V30 2118 C 212.617 0.175668 -2.00934 0
M  V30 2119 C 212.93 1.46718 -1.29356 0
M  V30 2120 O 214.136 2.12708 -1.68724 0
M  V30 2121 C 212.592 0.363612 -3.58058 0
M  V30 2122 C 212.2 -0.915472 -4.38547 0
M  V30 2123 C 213.944 0.89821 -4.14888 0
M  V30 2124 C 211.851 -0.695035 -5.87302 0
M  V30 2125 H 210.781 0.0694234 -0.750797 0
M  V30 2126 H 213.432 -0.527879 -1.75743 0
M  V30 2127 H 211.814 1.12935 -3.79555 0
M  V30 2128 H 212.988 -1.68691 -4.28812 0
M  V30 2129 H 211.303 -1.37606 -3.93006 0
M  V30 2130 H 213.9 1.07907 -5.23699 0
M  V30 2131 H 214.243 1.87126 -3.71873 0
M  V30 2132 H 214.776 0.191681 -3.97338 0
M  V30 2133 H 211.515 -1.63948 -6.34666 0
M  V30 2134 H 211.035 0.0372116 -5.99788 0
M  V30 2135 H 212.714 -0.33497 -6.46132 0
M  V30 2136 N 212.846 1.57033 -0.133567 0
M  V30 2137 C 214.095 1.94861 0.520768 0
M  V30 2138 C 214.408 1.02012 1.66892 0
M  V30 2139 O 215.614 1.29365 2.38699 0
M  V30 2140 C 214.07 3.46362 0.977809 0
M  V30 2141 C 213.678 4.47773 -0.142674 0
M  V30 2142 C 215.422 3.93083 1.60269 0
M  V30 2143 C 213.329 5.90468 0.331883 0
M  V30 2144 H 212.259 0.727453 0.198315 0
M  V30 2145 H 214.91 1.82227 -0.215759 0
M  V30 2146 H 213.292 3.54282 1.7692 0
M  V30 2147 H 214.466 4.51536 -0.919317 0
M  V30 2148 H 212.781 4.10891 -0.675124 0
M  V30 2149 H 215.378 4.97121 1.96914 0
M  V30 2150 H 215.721 3.33876 2.48662 0
M  V30 2151 H 216.254 3.88025 0.876453 0
M  V30 2152 H 212.993 6.53463 -0.516341 0
M  V30 2153 H 212.513 5.90094 1.07469 0
M  V30 2154 H 214.192 6.42179 0.788332 0
M  V30 2155 N 214.325 -0.140222 1.56975 0
M  V30 2156 C 215.573 -0.850005 1.83356 0
M  V30 2157 C 215.894 -1.81399 0.71551 0
M  V30 2158 O 215.164 -1.94136 -0.262294 0
M  V30 2159 H 213.744 -0.316886 0.676456 0
M  V30 2160 H 216.406 -0.132608 1.94448 0
M  V30 2161 H 215.502 -1.40814 2.78528 0
M  V30 2162 N 215.803 -1.52179 -0.40978 0
M  V30 2163 C 216.75 -1.75475 -1.49924 0
M  V30 2164 C 217.72 -0.597175 -1.54994 0
M  V30 2165 O 218.905 -0.834655 -1.71575 0
M  V30 2166 C 216.045 -1.9107 -2.87378 0
M  V30 2167 C 215.158 -3.18717 -2.91622 0
M  V30 2168 C 214.293 -3.24747 -4.20372 0
M  V30 2169 C 213.332 -4.46598 -4.18588 0
M  V30 2170 N 212.469 -4.50025 -5.38908 0
M  V30 2171 H 217.309 -2.68458 -1.29361 0
M  V30 2172 H 214.846 -1.33024 -0.627934 0
M  V30 2173 H 216.804 -1.98096 -3.6717 0
M  V30 2174 H 215.434 -1.01469 -3.06437 0
M  V30 2175 H 214.486 -3.20866 -2.04326 0
M  V30 2176 H 215.798 -4.08544 -2.86169 0
M  V30 2177 H 214.952 -3.30841 -5.08556 0
M  V30 2178 H 213.691 -2.32857 -4.28519 0
M  V30 2179 H 212.696 -4.40652 -3.28794 0
M  V30 2180 H 213.921 -5.39783 -4.12081 0
M  V30 2181 H 211.867 -3.61017 -5.47725 0
M  V30 2182 H 211.784 -5.33697 -5.35447 0
M  V30 2183 H 213.052 -4.60347 -6.29048 0
M  V30 2184 N 217.281 0.66697 -1.42791 0
M  V30 2185 C 218.244 1.76211 -1.46568 0
M  V30 2186 C 219.244 1.56896 -0.352196 0
M  V30 2187 O 220.434 1.63044 -0.613364 0
M  V30 2188 C 217.566 3.14935 -1.30494 0
M  V30 2189 H 218.759 1.74247 -2.44086 0
M  V30 2190 H 216.312 0.877342 -1.29354 0
M  V30 2191 H 217.047 3.2252 -0.339301 0
M  V30 2192 H 216.832 3.30359 -2.11199 0
M  V30 2193 H 218.322 3.94821 -1.36038 0
M  V30 2194 N 218.759 1.29093 0.90403 0
M  V30 2195 C 219.989 1.19516 1.68522 0
M  V30 2196 C 220.397 -0.24738 1.87576 0
M  V30 2197 O 219.74 -1.17798 1.40959 0
M  V30 2198 C 219.802 1.83249 3.0929 0
M  V30 2199 C 219.466 3.32531 3.13484 0
M  V30 2200 C 220.463 4.28821 2.93953 0
M  V30 2201 C 218.148 3.73656 3.35688 0
M  V30 2202 C 220.142 5.64212 2.96553 0
M  V30 2203 C 217.829 5.0917 3.37919 0
M  V30 2204 C 218.827 6.04258 3.18373 0
M  V30 2205 O 218.515 7.37298 3.20385 0
M  V30 2206 H 218.247 0.415467 0.533257 0
M  V30 2207 H 220.801 1.70912 1.13922 0
M  V30 2208 H 219.031 1.26358 3.65473 0
M  V30 2209 H 220.72 1.68054 3.69476 0
M  V30 2210 H 221.486 3.98382 2.76616 0
M  V30 2211 H 217.365 3.00101 3.49943 0
M  V30 2212 H 220.909 6.38407 2.81216 0
M  V30 2213 H 216.806 5.39256 3.54787 0
M  V30 2214 H 217.574 7.46048 3.36681 0
M  V30 2215 N 220.237 -1.11381 1.11499 0
M  V30 2216 C 221.462 -1.87475 0.887019 0
M  V30 2217 C 221.887 -1.79639 -0.557796 0
M  V30 2218 O 221.245 -1.15924 -1.39396 0
M  V30 2219 C 221.293 -3.34213 1.35403 0
M  V30 2220 O 220.397 -4.0903 0.526146 0
M  V30 2221 H 219.738 -0.582099 0.319463 0
M  V30 2222 H 222.268 -1.40785 1.48461 0
M  V30 2223 H 222.278 -3.8506 1.34881 0
M  V30 2224 H 220.953 -3.39232 2.40612 0
M  V30 2225 H 219.53 -3.68082 0.597522 0
M  V30 2226 N 221.715 -0.905404 -1.28997 0
M  V30 2227 C 222.943 -0.549846 -1.9946 0
M  V30 2228 C 223.358 0.866834 -1.67724 0
M  V30 2229 O 222.715 1.57298 -0.925404 0
M  V30 2230 C 222.766 -0.739387 -3.53858 0
M  V30 2231 O 222.487 -2.10031 -3.84472 0
M  V30 2232 C 223.988 -0.389541 -4.41585 0
M  V30 2233 H 221.208 -0.210429 -0.637151 0
M  V30 2234 H 223.752 -1.21632 -1.64396 0
M  V30 2235 H 221.907 -0.120023 -3.87214 0
M  V30 2236 H 222.321 -2.13385 -4.79132 0
M  V30 2237 H 223.795 -0.572972 -5.49018 0
M  V30 2238 H 224.272 0.673756 -4.34001 0
M  V30 2239 H 224.878 -0.986089 -4.1371 0
M  V30 2240 N 223.193 1.4272 -0.668489 0
M  V30 2241 C 224.47 1.95248 -0.117373 0
M  V30 2242 C 224.85 1.60919 1.36632 0
M  V30 2243 O 224.198 0.902095 2.09939 0
M  V30 2244 C 224.408 3.46927 -0.379806 0
M  V30 2245 C 225.756 4.23588 -0.292923 0
M  V30 2246 O 226.78 3.5482 -0.313204 0
M  V30 2247 O 225.639 5.46017 -0.229697 0
M  V30 2248 H 222.733 0.827 0.00079152 0
M  V30 2249 H 225.279 1.52581 -0.742783 0
M  V30 2250 H 224.051 3.65096 -1.40786 0
M  V30 2251 H 223.674 3.96627 0.277923 0
M  V30 2252 N 224.671 0.411399 1.52136 0
M  V30 2253 C 225.901 -0.16284 2.05957 0
M  V30 2254 C 226.309 -1.3922 1.28119 0
M  V30 2255 O 225.652 -1.80768 0.326881 0
M  V30 2256 C 225.714 -0.575946 3.54856 0
M  V30 2257 C 225.378 0.542998 4.53763 0
M  V30 2258 C 226.375 1.40726 5.00492 0
M  V30 2259 C 224.06 0.716337 4.97166 0
M  V30 2260 C 226.054 2.4298 5.8927 0
M  V30 2261 C 223.741 1.74218 5.8574 0
M  V30 2262 C 224.739 2.59731 6.31687 0
M  V30 2263 O 224.427 3.60558 7.18507 0
M  V30 2264 H 224.159 -0.0229125 0.675612 0
M  V30 2265 H 226.713 0.581634 1.96993 0
M  V30 2266 H 224.943 -1.37274 3.61515 0
M  V30 2267 H 226.632 -1.07836 3.91313 0
M  V30 2268 H 227.398 1.28476 4.67674 0
M  V30 2269 H 223.277 0.0603857 4.6096 0
M  V30 2270 H 226.821 3.0976 6.25055 0
M  V30 2271 H 222.718 1.86498 6.17971 0
M  V30 2272 H 223.486 3.56829 7.36624 0
M  V30 2273 N 226.149 -1.5696 0.141893 0
M  V30 2274 C 227.096 -2.16501 -0.799737 0
M  V30 2275 C 228.066 -1.09643 -1.24771 0
M  V30 2276 O 229.251 -1.3766 -1.32115 0
M  V30 2277 C 226.391 -2.78679 -2.03549 0
M  V30 2278 C 225.504 -3.99914 -1.6338 0
M  V30 2279 C 224.639 -4.50106 -2.82096 0
M  V30 2280 C 223.678 -5.63819 -2.38275 0
M  V30 2281 N 222.815 -6.08651 -3.49983 0
M  V30 2282 H 227.655 -2.96632 -0.285179 0
M  V30 2283 H 225.192 -1.46533 -0.129053 0
M  V30 2284 H 227.15 -3.1287 -2.75986 0
M  V30 2285 H 225.78 -2.012 -2.52425 0
M  V30 2286 H 224.832 -3.71735 -0.807279 0
M  V30 2287 H 226.144 -4.82311 -1.27192 0
M  V30 2288 H 225.298 -4.86325 -3.62729 0
M  V30 2289 H 224.037 -3.66706 -3.21525 0
M  V30 2290 H 223.042 -5.2718 -1.56081 0
M  V30 2291 H 224.267 -6.49 -1.99938 0
M  V30 2292 H 222.213 -5.28188 -3.89042 0
M  V30 2293 H 222.13 -6.85961 -3.17794 0
M  V30 2294 H 223.398 -6.49515 -4.30988 0
M  V30 2295 N 227.627 0.131896 -1.57047 0
M  V30 2296 C 228.557 1.16384 -2.02428 0
M  V30 2297 C 229.538 1.43936 -0.90644 0
M  V30 2298 O 230.723 1.54599 -1.17528 0
M  V30 2299 C 227.853 2.49328 -2.4177 0
M  V30 2300 C 226.807 2.36266 -3.56879 0
M  V30 2301 C 226.133 3.74057 -3.8208 0
M  V30 2302 C 227.433 1.834 -4.89042 0
M  V30 2303 H 229.127 0.786433 -2.88887 0
M  V30 2304 H 226.673 0.376855 -1.38981 0
M  V30 2305 H 228.626 3.21759 -2.7212 0
M  V30 2306 H 227.35 2.88934 -1.52266 0
M  V30 2307 H 226.009 1.66286 -3.26718 0
M  V30 2308 H 225.657 4.11125 -2.89803 0
M  V30 2309 H 225.357 3.66174 -4.59554 0
M  V30 2310 H 226.881 4.48012 -4.1487 0
M  V30 2311 H 228.295 2.45636 -5.18011 0
M  V30 2312 H 226.692 1.8637 -5.70426 0
M  V30 2313 H 227.762 0.790662 -4.7841 0
M  V30 2314 N 229.106 1.52395 0.401703 0
M  V30 2315 C 230.038 1.72505 1.50912 0
M  V30 2316 C 231.051 0.605468 1.51122 0
M  V30 2317 O 232.24 0.880828 1.55254 0
M  V30 2318 C 229.34 1.75711 2.89791 0
M  V30 2319 C 228.513 3.04824 3.1369 0
M  V30 2320 C 227.572 2.99743 4.32482 0
M  V30 2321 O 226.598 3.73635 4.29402 0
M  V30 2322 N 227.8 2.18047 5.37992 0
M  V30 2323 H 230.565 2.68049 1.34052 0
M  V30 2324 H 228.126 1.50724 0.591084 0
M  V30 2325 H 230.118 1.69834 3.6734 0
M  V30 2326 H 228.688 0.876092 3.00072 0
M  V30 2327 H 227.908 3.2429 2.24119 0
M  V30 2328 H 229.196 3.90221 3.26504 0
M  V30 2329 H 228.594 1.57456 5.43345 0
M  V30 2330 H 227.151 2.18021 6.14256 0
M  V30 2331 N 230.584 -0.659388 1.43143 0
M  V30 2332 C 231.516 -1.7849 1.43784 0
M  V30 2333 C 232.529 -1.5932 0.334787 0
M  V30 2334 O 233.718 -1.68155 0.598842 0
M  V30 2335 C 230.818 -3.15828 1.22906 0
M  V30 2336 C 229.991 -3.61711 2.45934 0
M  V30 2337 C 229.05 -4.77831 2.20371 0
M  V30 2338 O 228.076 -4.87586 2.93681 0
M  V30 2339 N 229.278 -5.67611 1.21647 0
M  V30 2340 H 232.043 -1.7842 2.40803 0
M  V30 2341 H 229.604 -0.84302 1.3822 0
M  V30 2342 H 231.596 -3.91189 1.03697 0
M  V30 2343 H 230.166 -3.10707 0.343542 0
M  V30 2344 H 229.386 -2.76861 2.80609 0
M  V30 2345 H 230.674 -3.89112 3.27825 0
M  V30 2346 H 230.072 -5.62397 0.610449 0
M  V30 2347 H 228.629 -6.42719 1.08423 0
M  V30 2348 N 232.062 -1.29571 -0.897171 0
M  V30 2349 C 232.994 -1.10724 -2.00681 0
M  V30 2350 C 234.007 -0.0540026 -1.6271 0
M  V30 2351 O 235.196 -0.298783 -1.75982 0
M  V30 2352 C 232.296 -0.663912 -3.32333 0
M  V30 2353 C 231.469 -1.79622 -3.98816 0
M  V30 2354 C 230.528 -1.34349 -5.0876 0
M  V30 2355 O 229.554 -2.04864 -5.31055 0
M  V30 2356 N 230.756 -0.215764 -5.80099 0
M  V30 2357 H 233.521 -2.06291 -2.17403 0
M  V30 2358 H 231.082 -1.21544 -1.06951 0
M  V30 2359 H 233.074 -0.344295 -4.03233 0
M  V30 2360 H 231.644 0.199375 -3.11964 0
M  V30 2361 H 230.864 -2.28459 -3.21248 0
M  V30 2362 H 232.152 -2.55535 -4.39976 0
M  V30 2363 H 231.55 0.372091 -5.64475 0
M  V30 2364 H 230.107 0.0444707 -6.51785 0
M  V30 2365 N 233.54 1.10788 -1.12088 0
M  V30 2366 C 234.817 1.79136 -0.785476 0
M  V30 2367 C 235.197 1.98246 0.725377 0
M  V30 2368 O 234.545 1.57258 1.65778 0
M  V30 2369 C 234.755 3.12375 -1.55636 0
M  V30 2370 C 236.103 3.8731 -1.74001 0
M  V30 2371 O 237.127 3.22085 -1.52117 0
M  V30 2372 O 235.986 5.04369 -2.10415 0
M  V30 2373 H 233.08 0.776226 -0.285311 0
M  V30 2374 H 235.626 1.1747 -1.2247 0
M  V30 2375 H 234.398 2.93863 -2.5838 0
M  V30 2376 H 234.021 3.81758 -1.11114 0
M  V30 2377 N 235.018 0.912232 1.28515 0
M  V30 2378 C 236.246 0.560416 1.99166 0
M  V30 2379 C 236.661 -0.857927 1.68182 0
M  V30 2380 O 236.018 -1.56805 0.933733 0
M  V30 2381 C 236.069 0.758142 3.53461 0
M  V30 2382 O 235.79 2.12067 3.83352 0
M  V30 2383 C 237.291 0.412954 4.41372 0
M  V30 2384 H 234.511 0.213805 0.636026 0
M  V30 2385 H 237.055 1.22502 1.63749 0
M  V30 2386 H 235.21 0.140556 3.87145 0
M  V30 2387 H 235.624 2.15923 4.77993 0
M  V30 2388 H 237.098 0.60208 5.48707 0
M  V30 2389 H 237.575 -0.65073 4.34353 0
M  V30 2390 H 238.181 1.00802 4.13182 0
M  V30 2391 N 236.496 -1.42363 0.676048 0
M  V30 2392 C 237.742 -2.02336 0.207809 0
M  V30 2393 C 238.097 -1.52506 -1.17302 0
M  V30 2394 O 237.39 -0.718048 -1.77636 0
M  V30 2395 C 237.584 -3.56929 0.183431 0
M  V30 2396 C 237.413 -4.21762 1.56036 0
M  V30 2397 C 236.183 -4.56881 2.15842 0
M  V30 2398 C 238.381 -4.49267 2.50327 0
M  V30 2399 N 236.363 -5.069 3.46303 0
M  V30 2400 C 237.734 -5.00851 3.65443 0
M  V30 2401 C 239.789 -4.31257 2.48841 0
M  V30 2402 C 238.492 -5.36317 4.79329 0
M  V30 2403 C 240.518 -4.678 3.61824 0
M  V30 2404 C 239.88 -5.19537 4.75668 0
M  V30 2405 H 235.979 -0.772583 0.120993 0
M  V30 2406 H 238.563 -1.73203 0.889306 0
M  V30 2407 H 236.734 -3.85576 -0.467483 0
M  V30 2408 H 238.466 -4.03603 -0.297808 0
M  V30 2409 H 235.221 -4.4268 1.68319 0
M  V30 2410 H 235.645 -5.36338 4.13123 0
M  V30 2411 H 240.287 -3.90511 1.62051 0
M  V30 2412 H 238.005 -5.75995 5.66794 0
M  V30 2413 H 241.591 -4.55541 3.61903 0
M  V30 2414 H 240.471 -5.47287 5.61646 0
M  V30 2415 N 237.974 -0.419461 -1.51915 0
M  V30 2416 C 238.884 0.407528 -2.31033 0
M  V30 2417 C 239.9 1.04413 -1.3919 0
M  V30 2418 O 241.076 1.0434 -1.72265 0
M  V30 2419 C 238.141 1.50365 -3.12396 0
M  V30 2420 C 237.202 0.889029 -4.19994 0
M  V30 2421 C 236.435 1.93291 -4.97468 0
M  V30 2422 O 236.658 3.15259 -4.75361 0
M  V30 2423 O 235.592 1.53339 -5.8204 0
M  V30 2424 H 239.418 -0.237865 -3.02767 0
M  V30 2425 H 237.003 -0.182413 -1.48282 0
M  V30 2426 H 238.885 2.13975 -3.63032 0
M  V30 2427 H 237.56 2.13345 -2.43445 0
M  V30 2428 H 236.467 0.215353 -3.7348 0
M  V30 2429 H 237.8 0.302991 -4.91267 0
M  V30 2430 N 239.452 1.56882 -0.150215 0
M  V30 2431 C 240.698 1.96518 0.500834 0
M  V30 2432 C 241.031 1.03527 1.64304 0
M  V30 2433 O 240.306 0.0782751 1.94342 0
M  V30 2434 C 240.589 3.45822 1.00395 0
M  V30 2435 C 240.442 4.49591 -0.136983 0
M  V30 2436 C 241.761 3.97704 1.88467 0
M  V30 2437 H 238.88 0.714535 0.18058 0
M  V30 2438 H 241.522 1.88577 -0.232091 0
M  V30 2439 H 239.672 3.5272 1.62851 0
M  V30 2440 H 241.344 4.5477 -0.77343 0
M  V30 2441 H 239.587 4.26441 -0.795652 0
M  V30 2442 H 240.258 5.51402 0.256815 0
M  V30 2443 H 242.734 3.93304 1.35834 0
M  V30 2444 H 241.61 5.0263 2.20578 0
M  V30 2445 H 241.871 3.40252 2.82279 0
M  V30 2446 N 240.93 -0.123565 1.57115 0
M  V30 2447 C 242.341 -0.681198 1.73829 0
M  V30 2448 C 242.692 -1.80535 0.768214 0
M  V30 2449 O 241.817 -2.16317 -0.0599103 0
M  V30 2450 C 242.412 -1.24246 3.15196 0
M  V30 2451 C 240.971 -1.74643 3.33432 0
M  V30 2452 C 240.118 -0.644284 2.69711 0
M  V30 2453 H 243.069 0.102315 1.5837 0
M  V30 2454 H 243.09 -2.11216 3.16493 0
M  V30 2455 H 242.602 -0.424062 3.85776 0
M  V30 2456 H 240.703 -2.58974 2.67886 0
M  V30 2457 H 240.816 -1.85902 4.41562 0
M  V30 2458 H 239.18 -1.07676 2.3082 0
M  V30 2459 H 239.963 0.163058 3.42913 0
M  V30 2460 N 242.408 -1.52605 -0.393616 0
M  V30 2461 C 243.655 -1.67424 -1.1391 0
M  V30 2462 C 243.983 -0.411859 -1.90089 0
M  V30 2463 O 243.238 0.605626 -1.86093 0
M  V30 2464 C 243.537 -2.85721 -2.14705 0
M  V30 2465 C 243.203 -4.23342 -1.55218 0
M  V30 2466 C 241.865 -4.60771 -1.3872 0
M  V30 2467 C 244.217 -5.09041 -1.11924 0
M  V30 2468 C 241.545 -5.81563 -0.774689 0
M  V30 2469 C 243.897 -6.30452 -0.520853 0
M  V30 2470 C 242.561 -6.66617 -0.343134 0
M  V30 2471 H 241.831 -0.612648 -0.416826 0
M  V30 2472 H 244.478 -1.8674 -0.424315 0
M  V30 2473 H 242.783 -2.60803 -2.92385 0
M  V30 2474 H 244.48 -2.94382 -2.72288 0
M  V30 2475 H 241.07 -3.93855 -1.69045 0
M  V30 2476 H 245.254 -4.80695 -1.23473 0
M  V30 2477 H 240.51 -6.08196 -0.625154 0
M  V30 2478 H 244.684 -6.96175 -0.177065 0
M  V30 2479 H 242.311 -7.60083 0.133571 0
M  V30 2480 N 243.887 0.651787 -1.4349 0
M  V30 2481 C 244.797 1.79368 -1.5121 0
M  V30 2482 C 245.813 1.69361 -0.399093 0
M  V30 2483 O 246.989 1.90505 -0.653431 0
M  V30 2484 C 244.054 3.15653 -1.43401 0
M  V30 2485 C 243.115 3.37446 -2.65384 0
M  V30 2486 C 242.348 4.67229 -2.57939 0
M  V30 2487 O 242.571 5.46676 -1.62792 0
M  V30 2488 O 241.505 4.90773 -3.48462 0
M  V30 2489 H 245.331 1.7581 -2.47638 0
M  V30 2490 H 242.916 0.810447 -1.25507 0
M  V30 2491 H 244.798 3.96935 -1.41494 0
M  V30 2492 H 243.473 3.19798 -0.501085 0
M  V30 2493 H 242.38 2.55923 -2.72863 0
M  V30 2494 H 243.713 3.38148 -3.57654 0
M  V30 2495 N 245.365 1.30045 0.890287 0
M  V30 2496 C 246.275 1.17885 2.02831 0
M  V30 2497 C 247.291 0.0999609 1.73713 0
M  V30 2498 O 248.467 0.313867 1.98939 0
M  V30 2499 C 245.532 0.866079 3.35708 0
M  V30 2500 C 244.593 2.02979 3.78283 0
M  V30 2501 C 243.826 1.73184 5.0482 0
M  V30 2502 O 244.049 0.657237 5.66601 0
M  V30 2503 O 242.983 2.58267 5.43674 0
M  V30 2504 H 246.809 2.13474 2.16015 0
M  V30 2505 H 244.394 1.09587 1.01543 0
M  V30 2506 H 246.276 0.706623 4.15433 0
M  V30 2507 H 244.951 -0.0599443 3.23644 0
M  V30 2508 H 243.858 2.24454 2.99285 0
M  V30 2509 H 245.191 2.93734 3.94944 0
M  V30 2510 N 246.843 -1.10192 1.12674 0
M  V30 2511 C 248.092 -1.81573 0.8783 0
M  V30 2512 C 248.405 -1.86249 -0.597557 0
M  V30 2513 O 249.611 -2.5386 -0.962681 0
M  V30 2514 C 248.067 -3.26149 1.52167 0
M  V30 2515 C 247.675 -3.29763 3.03249 0
M  V30 2516 C 249.419 -4.0234 1.3536 0
M  V30 2517 C 247.326 -4.68815 3.60508 0
M  V30 2518 H 246.256 -0.680394 0.324931 0
M  V30 2519 H 248.907 -1.23902 1.35353 0
M  V30 2520 H 247.289 -3.83832 0.974104 0
M  V30 2521 H 248.463 -2.8189 3.6452 0
M  V30 2522 H 246.778 -2.67059 3.19481 0
M  V30 2523 H 249.375 -5.05058 1.75559 0
M  V30 2524 H 249.718 -4.15235 0.297554 0
M  V30 2525 H 250.251 -3.51079 1.87052 0
M  V30 2526 H 246.99 -4.61121 4.65884 0
M  V30 2527 H 246.51 -5.17045 3.04014 0
M  V30 2528 H 248.189 -5.37785 3.59717 0
M  V30 2529 N 248.321 -0.919034 -1.28029 0
M  V30 2530 C 249.546 -0.570357 -1.99403 0
M  V30 2531 C 249.971 0.842486 -1.68178 0
M  V30 2532 O 249.329 1.56391 -0.917141 0
M  V30 2533 C 249.377 -0.792541 -3.51783 0
M  V30 2534 O 248.481 0.145988 -4.12142 0
M  V30 2535 H 247.822 -0.220555 -0.6263 0
M  V30 2536 H 250.352 -1.23592 -1.63053 0
M  V30 2537 H 250.362 -0.704708 -4.01868 0
M  V30 2538 H 249.037 -1.82247 -3.73844 0
M  V30 2539 H 247.614 0.00897528 -3.72899 0
M  V30 2540 N 249.799 1.42003 -0.683588 0
M  V30 2541 C 250.709 2.34597 -0.0109075 0
M  V30 2542 C 251.725 1.55576 0.779245 0
M  V30 2543 O 252.901 1.88107 0.719555 0
M  V30 2544 C 249.966 3.34199 0.922588 0
M  V30 2545 C 249.027 4.29115 0.125984 0
M  V30 2546 C 248.26 5.23959 1.01502 0
M  V30 2547 O 248.483 5.23952 2.25456 0
M  V30 2548 O 247.417 6.00053 0.47111 0
M  V30 2549 H 251.243 2.93675 -0.773853 0
M  V30 2550 H 248.828 1.42654 -0.443861 0
M  V30 2551 H 250.71 3.95365 1.45823 0
M  V30 2552 H 249.385 2.77582 1.66523 0
M  V30 2553 H 248.292 3.71335 -0.453969 0
M  V30 2554 H 249.625 4.88798 -0.577736 0
M  V30 2555 N 251.277 0.427512 1.51691 0
M  V30 2556 C 252.207 -0.3796 2.30394 0
M  V30 2557 C 253.188 -1.02982 1.35384 0
M  V30 2558 O 254.373 -1.03534 1.643 0
M  V30 2559 C 251.503 -1.48649 3.1388 0
M  V30 2560 C 250.457 -0.960294 4.17088 0
M  V30 2561 C 249.783 -2.16219 4.89033 0
M  V30 2562 C 251.083 -0.00153679 5.223 0
M  V30 2563 H 252.777 0.277164 2.98114 0
M  V30 2564 H 250.323 0.134739 1.43368 0
M  V30 2565 H 252.276 -2.05826 3.67714 0
M  V30 2566 H 251 -2.1714 2.43962 0
M  V30 2567 H 249.659 -0.410806 3.64291 0
M  V30 2568 H 249.307 -2.83307 4.15628 0
M  V30 2569 H 249.007 -1.81654 5.58816 0
M  V30 2570 H 250.531 -2.73968 5.45687 0
M  V30 2571 H 251.945 -0.482687 5.71264 0
M  V30 2572 H 250.342 0.256199 5.99553 0
M  V30 2573 H 251.412 0.938174 4.75738 0
M  V30 2574 N 252.755 -1.56801 0.158532 0
M  V30 2575 C 253.687 -2.14488 -0.807923 0
M  V30 2576 C 254.7 -1.09721 -1.20271 0
M  V30 2577 O 255.889 -1.36956 -1.14478 0
M  V30 2578 C 252.989 -2.66217 -2.09718 0
M  V30 2579 C 252.162 -3.95507 -1.86796 0
M  V30 2580 C 251.221 -4.3243 -2.99818 0
M  V30 2581 O 250.247 -5.00543 -2.71008 0
M  V30 2582 N 251.449 -3.92947 -4.27285 0
M  V30 2583 H 254.214 -2.98042 -0.314816 0
M  V30 2584 H 251.775 -1.61881 -0.0246692 0
M  V30 2585 H 253.767 -2.87924 -2.84398 0
M  V30 2586 H 252.337 -1.87324 -2.50257 0
M  V30 2587 H 251.557 -3.82309 -0.96089 0
M  V30 2588 H 252.845 -4.79972 -1.68833 0
M  V30 2589 H 252.243 -3.38087 -4.53557 0
M  V30 2590 H 250.8 -4.19681 -4.9871 0
M  V30 2591 N 254.233 0.115231 -1.57178 0
M  V30 2592 C 255.479 0.818565 -1.86202 0
M  V30 2593 C 255.834 1.77316 -0.746785 0
M  V30 2594 O 255.127 1.89923 0.25291 0
M  V30 2595 C 255.321 1.60324 -3.19423 0
M  V30 2596 C 255.15 0.726138 -4.43799 0
M  V30 2597 C 253.92 0.379535 -5.03873 0
M  V30 2598 C 256.118 0.0420774 -5.14283 0
M  V30 2599 N 254.1 -0.507841 -6.11796 0
M  V30 2600 C 255.471 -0.704152 -6.15988 0
M  V30 2601 C 257.526 -0.0339486 -4.97888 0
M  V30 2602 C 256.229 -1.51927 -7.03072 0
M  V30 2603 C 258.255 -0.835906 -5.85463 0
M  V30 2604 C 257.617 -1.57031 -6.86673 0
M  V30 2605 H 253.716 0.276343 -0.731545 0
M  V30 2606 H 256.3 0.0821032 -1.94527 0
M  V30 2607 H 254.471 2.31072 -3.12186 0
M  V30 2608 H 256.203 2.2522 -3.36241 0
M  V30 2609 H 252.958 0.722634 -4.68054 0
M  V30 2610 H 253.382 -0.94349 -6.70393 0
M  V30 2611 H 258.024 0.519496 -4.19596 0
M  V30 2612 H 255.742 -2.08386 -7.80769 0
M  V30 2613 H 259.328 -0.89714 -5.74841 0
M  V30 2614 H 258.208 -2.18088 -7.53264 0
M  V30 2615 N 255.711 1.52812 0.385517 0
M  V30 2616 C 256.641 1.80808 1.47752 0
M  V30 2617 C 257.622 0.660318 1.5676 0
M  V30 2618 O 258.807 0.908246 1.71652 0
M  V30 2619 C 255.937 1.98008 2.85324 0
M  V30 2620 C 254.891 3.13709 2.91154 0
M  V30 2621 C 254.217 3.16169 4.31209 0
M  V30 2622 C 255.517 4.52709 2.60483 0
M  V30 2623 H 257.211 2.72253 1.24573 0
M  V30 2624 H 254.757 1.31003 0.597839 0
M  V30 2625 H 256.71 2.16176 3.61726 0
M  V30 2626 H 255.434 1.03255 3.09848 0
M  V30 2627 H 254.093 2.95329 2.17201 0
M  V30 2628 H 253.741 2.19092 4.52778 0
M  V30 2629 H 253.441 3.93894 4.36029 0
M  V30 2630 H 254.965 3.36496 5.09512 0
M  V30 2631 H 256.379 4.71173 3.26602 0
M  V30 2632 H 254.776 5.32528 2.76648 0
M  V30 2633 H 255.846 4.59186 1.55809 0
M  V30 2634 N 257.189 -0.644168 1.43834 0
M  V30 2635 C 258.437 -1.40117 1.45642 0
M  V30 2636 C 258.758 -1.94814 0.0852413 0
M  V30 2637 O 258.028 -1.74988 -0.880688 0
M  V30 2638 H 256.608 -0.52005 0.536243 0
M  V30 2639 H 259.27 -0.7591 1.7951 0
M  V30 2640 H 258.366 -2.23902 2.17427 0
M  V30 2641 N 258.668 -1.30515 -0.883378 0
M  V30 2642 C 259.893 -1.22487 -1.67367 0
M  V30 2643 C 260.318 0.208767 -1.86938 0
M  V30 2644 O 259.676 1.15015 -1.40148 0
M  V30 2645 C 259.724 -1.96041 -3.02655 0
M  V30 2646 O 258.828 -1.28859 -3.91751 0
M  V30 2647 H 258.169 -0.423573 -0.511353 0
M  V30 2648 H 260.699 -1.72362 -1.10239 0
M  V30 2649 H 260.709 -2.05124 -3.52687 0
M  V30 2650 H 259.384 -3.00307 -2.8773 0
M  V30 2651 H 257.961 -1.28141 -3.50192 0
M  V30 2652 N 260.146 1.09593 -1.13257 0
M  V30 2653 C 261.394 1.81375 -0.891492 0
M  V30 2654 C 261.715 1.86049 0.584009 0
M  V30 2655 O 260.985 1.34481 1.42449 0
M  V30 2656 H 259.565 0.671708 -0.326828 0
M  V30 2657 H 262.227 1.3256 -1.42877 0
M  V30 2658 H 261.323 2.84612 -1.28071 0
M  V30 2659 N 261.624 0.925811 1.2754 0
M  V30 2660 C 262.587 0.428129 2.25166 0
M  V30 2661 C 263.587 -0.452261 1.54309 0
M  V30 2662 O 264.777 -0.253608 1.72344 0
M  V30 2663 C 261.909 -0.384749 3.38722 0
M  V30 2664 H 263.102 1.29066 2.70706 0
M  V30 2665 H 260.655 0.706323 1.3943 0
M  V30 2666 H 261.39 -1.26618 2.98561 0
M  V30 2667 H 261.175 0.246454 3.91325 0
M  V30 2668 H 262.665 -0.723389 4.11287 0
M  V30 2669 N 263.102 -1.41638 0.69111 0
M  V30 2670 C 264.034 -2.29194 -0.0161523 0
M  V30 2671 C 265.047 -1.44549 -0.748955 0
M  V30 2672 O 266.236 -1.681 -0.6004 0
M  V30 2673 C 263.336 -3.22325 -1.0469 0
M  V30 2674 C 262.509 -4.35706 -0.384621 0
M  V30 2675 C 261.568 -5.09443 -1.31737 0
M  V30 2676 O 260.594 -5.63386 -0.811451 0
M  V30 2677 N 261.796 -5.16487 -2.64993 0
M  V30 2678 H 264.561 -2.90534 0.735523 0
M  V30 2679 H 262.122 -1.52742 0.53679 0
M  V30 2680 H 264.114 -3.68522 -1.67252 0
M  V30 2681 H 262.684 -2.62323 -1.70015 0
M  V30 2682 H 261.904 -3.91948 0.420804 0
M  V30 2683 H 263.192 -5.08743 0.0760765 0
M  V30 2684 H 262.59 -4.741 -3.08619 0
M  V30 2685 H 261.147 -5.66276 -3.22761 0
M  V30 2686 N 264.58 -0.43555 -1.51462 0
M  V30 2687 C 265.828 0.131254 -2.01673 0
M  V30 2688 C 266.149 1.43368 -1.32177 0
M  V30 2689 O 265.419 1.90524 -0.455769 0
M  V30 2690 H 263.999 0.0514954 -0.745223 0
M  V30 2691 H 266.661 -0.577847 -1.86137 0
M  V30 2692 H 265.757 0.308446 -3.10572 0
M  V30 2693 N 266.058 1.56714 -0.166846 0
M  V30 2694 C 267.021 2.16539 0.751232 0
M  V30 2695 C 268.021 1.11228 1.16125 0
M  V30 2696 O 269.211 1.36765 1.07894 0
M  V30 2697 C 266.343 2.74462 2.02196 0
M  V30 2698 H 267.536 2.99013 0.230499 0
M  V30 2699 H 265.089 1.56081 0.0826982 0
M  V30 2700 H 265.824 1.95709 2.58589 0
M  V30 2701 H 265.609 3.51527 1.73698 0
M  V30 2702 H 267.099 3.20489 2.67725 0
M  V30 2703 N 267.536 -0.106894 1.57237 0
M  V30 2704 C 268.782 -0.81373 1.85759 0
M  V30 2705 C 269.115 -1.78952 0.754315 0
M  V30 2706 O 268.39 -1.93029 -0.23879 0
M  V30 2707 C 268.673 -1.55293 3.24894 0
M  V30 2708 C 268.526 -0.595929 4.45835 0
M  V30 2709 C 269.845 -2.5063 3.61763 0
M  V30 2710 H 266.964 -0.294369 0.67566 0
M  V30 2711 H 269.606 -0.0776472 1.89841 0
M  V30 2712 H 267.756 -2.1804 3.21544 0
M  V30 2713 H 269.428 0.0236262 4.61294 0
M  V30 2714 H 267.671 0.0916191 4.33703 0
M  V30 2715 H 268.342 -1.15004 5.39887 0
M  V30 2716 H 270.818 -1.97982 3.65981 0
M  V30 2717 H 269.694 -2.99376 4.60071 0
M  V30 2718 H 269.955 -3.3385 2.89821 0
M  V30 2719 N 269.014 -1.53014 -0.377408 0
M  V30 2720 C 270.261 -1.68623 -1.12128 0
M  V30 2721 C 270.589 -0.431997 -1.89642 0
M  V30 2722 O 269.844 0.585855 -1.86725 0
M  V30 2723 C 270.143 -2.87982 -2.11663 0
M  V30 2724 C 269.809 -4.24964 -1.50719 0
M  V30 2725 C 268.471 -4.62217 -1.33825 0
M  V30 2726 C 270.823 -5.10199 -1.06519 0
M  V30 2727 C 268.151 -5.82352 -0.712963 0
M  V30 2728 C 270.503 -6.30969 -0.453955 0
M  V30 2729 C 269.167 -6.66944 -0.272411 0
M  V30 2730 H 268.437 -0.617034 -0.410305 0
M  V30 2731 H 271.084 -1.8718 -0.404484 0
M  V30 2732 H 269.389 -2.63889 -2.89603 0
M  V30 2733 H 271.086 -2.97253 -2.6915 0
M  V30 2734 H 267.676 -3.95626 -1.64858 0
M  V30 2735 H 271.86 -4.81978 -1.18368 0
M  V30 2736 H 267.116 -6.08824 -0.560611 0
M  V30 2737 H 271.29 -6.96324 -0.103217 0
M  V30 2738 H 268.917 -7.59898 0.214181 0
M  V30 2739 N 270.492 0.636531 -1.44174 0
M  V30 2740 C 271.422 1.76003 -1.53444 0
M  V30 2741 C 272.403 1.65619 -0.387841 0
M  V30 2742 O 273.588 1.84461 -0.607257 0
M  V30 2743 C 270.718 3.14511 -1.4731 0
M  V30 2744 C 269.672 3.39677 -2.60391 0
M  V30 2745 C 268.998 4.78159 -2.39308 0
M  V30 2746 C 270.298 3.32772 -4.02567 0
M  V30 2747 H 271.992 1.68501 -2.47483 0
M  V30 2748 H 269.538 0.809237 -1.19111 0
M  V30 2749 H 271.491 3.92878 -1.52397 0
M  V30 2750 H 270.215 3.22783 -0.49785 0
M  V30 2751 H 268.874 2.63688 -2.54684 0
M  V30 2752 H 268.522 4.83128 -1.39988 0
M  V30 2753 H 268.222 4.95956 -3.15122 0
M  V30 2754 H 269.746 5.58762 -2.46205 0
M  V30 2755 H 271.16 4.01051 -4.09672 0
M  V30 2756 H 269.557 3.62104 -4.7854 0
M  V30 2757 H 270.627 2.30669 -4.2652 0
M  V30 2758 N 271.97 1.30982 0.876444 0
M  V30 2759 C 273.218 1.20058 1.62575 0
M  V30 2760 C 273.539 -0.242947 1.93481 0
M  V30 2761 O 272.809 -1.1619 1.57724 0
M  V30 2762 H 271.389 0.44135 0.602677 0
M  V30 2763 H 274.051 1.64222 1.04962 0
M  V30 2764 H 273.147 1.76762 2.57219 0
M  V30 2765 N 273.449 -1.08991 1.13837 0
M  V30 2766 C 274.396 -2.15748 0.819835 0
M  V30 2767 C 275.366 -1.64636 -0.220026 0
M  V30 2768 O 276.551 -1.90582 -0.0912757 0
M  V30 2769 C 273.691 -3.4382 0.296913 0
M  V30 2770 C 272.804 -4.0881 1.39636 0
M  V30 2771 C 271.939 -5.24655 0.831314 0
M  V30 2772 C 270.978 -5.81575 1.90886 0
M  V30 2773 N 270.115 -6.88774 1.36142 0
M  V30 2774 H 274.955 -2.42338 1.73426 0
M  V30 2775 H 272.492 -1.18935 0.865613 0
M  V30 2776 H 274.45 -4.17193 -0.0244339 0
M  V30 2777 H 273.08 -3.17535 -0.580628 0
M  V30 2778 H 272.132 -3.33258 1.83422 0
M  V30 2779 H 273.444 -4.47141 2.21058 0
M  V30 2780 H 272.598 -6.04942 0.461515 0
M  V30 2781 H 271.337 -4.87698 -0.013932 0
M  V30 2782 H 270.342 -4.99946 2.28767 0
M  V30 2783 H 271.567 -6.20592 2.75758 0
M  V30 2784 H 269.513 -6.53788 0.538254 0
M  V30 2785 H 269.43 -7.25898 2.11208 0
M  V30 2786 H 270.698 -7.72806 1.01933 0
M  V30 2787 N 274.927 -0.932562 -1.27047 0
M  V30 2788 C 276.174 -0.575559 -1.94148 0
M  V30 2789 C 276.502 0.883984 -1.73251 0
M  V30 2790 O 275.757 1.64655 -1.0577 0
M  V30 2791 C 276.056 -0.853713 -3.47054 0
M  V30 2792 C 275.722 -2.29577 -3.88079 0
M  V30 2793 C 274.384 -2.68999 -3.9899 0
M  V30 2794 C 276.736 -3.23331 -4.08787 0
M  V30 2795 C 274.064 -4.01289 -4.28 0
M  V30 2796 C 276.416 -4.55207 -4.39282 0
M  V30 2797 C 275.08 -4.94457 -4.48407 0
M  V30 2798 H 274.35 -0.210612 -0.710439 0
M  V30 2799 H 276.997 -1.17744 -1.51025 0
M  V30 2800 H 275.302 -0.169204 -3.91434 0
M  V30 2801 H 276.999 -0.55639 -3.97121 0
M  V30 2802 H 273.589 -1.97994 -3.80127 0
M  V30 2803 H 277.773 -2.94074 -3.99793 0
M  V30 2804 H 273.029 -4.31374 -4.33275 0
M  V30 2805 H 277.203 -5.27852 -4.54252 0
M  V30 2806 H 274.83 -5.96994 -4.7064 0
M  V30 2807 N 276.405 1.4127 -0.698611 0
M  V30 2808 C 277.821 1.55241 -0.370462 0
M  V30 2809 C 278.021 1.67351 1.12231 0
M  V30 2810 O 277.077 1.65363 1.90818 0
M  V30 2811 C 278.39 2.78997 -1.12165 0
M  V30 2812 C 279.938 2.92797 -1.1063 0
M  V30 2813 C 280.413 4.19445 -1.8393 0
M  V30 2814 N 281.904 4.26409 -1.80914 0
M  V30 2815 C 282.639 5.23271 -2.34467 0
M  V30 2816 N 282.135 6.26145 -2.96504 0
M  V30 2817 N 283.928 5.15232 -2.24706 0
M  V30 2818 H 276.079 1.31654 -1.66676 0
M  V30 2819 H 278.342 0.635393 -0.703548 0
M  V30 2820 H 278.048 2.76268 -2.17644 0
M  V30 2821 H 277.922 3.70606 -0.702209 0
M  V30 2822 H 280.309 2.95039 -0.0597713 0
M  V30 2823 H 280.39 2.02353 -1.56483 0
M  V30 2824 H 280.034 4.17964 -2.88563 0
M  V30 2825 H 279.964 5.08866 -1.35509 0
M  V30 2826 H 282.455 3.527 -1.35687 0
M  V30 2827 H 282.768 6.96451 -3.34927 0
M  V30 2828 H 281.113 6.26638 -3.00583 0
M  V30 2829 H 284.304 4.33789 -1.7591 0
M  V30 2830 H 284.477 5.90552 -2.66745 0
M  V30 2831 N 277.883 0.443576 1.51229 0
M  V30 2832 C 278.846 -0.353132 2.26463 0
M  V30 2833 C 279.846 -0.944338 1.3015 0
M  V30 2834 O 281.036 -0.817813 1.5381 0
M  V30 2835 C 278.168 -1.50023 3.06114 0
M  V30 2836 H 279.361 0.3063 2.98332 0
M  V30 2837 H 276.914 0.196902 1.55055 0
M  V30 2838 H 277.649 -2.19553 2.38677 0
M  V30 2839 H 277.434 -1.08241 3.76864 0
M  V30 2840 H 278.924 -2.06296 3.63087 0
M  V30 2841 N 279.361 -1.56624 0.175154 0
M  V30 2842 C 280.271 -2.21741 -0.766042 0
M  V30 2843 C 281.287 -1.21023 -1.25018 0
M  V30 2844 O 282.463 -1.53697 -1.3015 0
M  V30 2845 C 279.528 -2.84839 -1.97655 0
M  V30 2846 C 278.589 -4.00769 -1.53892 0
M  V30 2847 C 277.822 -4.60849 -2.69173 0
M  V30 2848 O 278.045 -4.19823 -3.86141 0
M  V30 2849 O 276.979 -5.50655 -2.43028 0
M  V30 2850 H 280.805 -3.02738 -0.241585 0
M  V30 2851 H 278.39 -1.49305 -0.053222 0
M  V30 2852 H 280.272 -3.24834 -2.68442 0
M  V30 2853 H 278.947 -2.06836 -2.48999 0
M  V30 2854 H 277.854 -3.65436 -0.80044 0
M  V30 2855 H 279.187 -4.80376 -1.07236 0
M  V30 2856 N 280.839 0.0985539 -1.57292 0
M  V30 2857 C 281.749 1.13824 -2.05137 0
M  V30 2858 C 282.765 1.44076 -0.975604 0
M  V30 2859 O 283.941 1.54786 -1.28853 0
M  V30 2860 C 281.006 2.43969 -2.46333 0
M  V30 2861 C 280.067 2.2093 -3.68087 0
M  V30 2862 C 279.3 3.44869 -4.0731 0
M  V30 2863 O 279.523 4.52972 -3.46659 0
M  V30 2864 O 278.457 3.34661 -5.00285 0
M  V30 2865 H 282.283 0.761881 -2.93988 0
M  V30 2866 H 279.868 0.310818 -1.46131 0
M  V30 2867 H 281.75 3.20609 -2.73473 0
M  V30 2868 H 280.425 2.81038 -1.60621 0
M  V30 2869 H 279.332 1.42081 -3.46069 0
M  V30 2870 H 280.665 1.88755 -4.54568 0
M  V30 2871 N 282.317 1.53212 0.369288 0
M  V30 2872 C 283.563 1.69466 1.11397 0
M  V30 2873 C 283.896 0.443257 1.89074 0
M  V30 2874 O 283.171 -0.559386 1.86282 0
M  V30 2875 C 283.454 2.9422 2.07621 0
M  V30 2876 C 283.307 4.29508 1.33577 0
M  V30 2877 C 284.626 3.14565 3.07794 0
M  V30 2878 H 281.745 0.616667 0.403597 0
M  V30 2879 H 284.387 1.85845 0.395179 0
M  V30 2880 H 282.537 2.80387 2.68916 0
M  V30 2881 H 284.209 4.55147 0.750955 0
M  V30 2882 H 282.452 4.29088 0.637618 0
M  V30 2883 H 283.123 5.12926 2.03989 0
M  V30 2884 H 285.599 3.2756 2.56601 0
M  V30 2885 H 284.475 4.03297 3.72348 0
M  V30 2886 H 284.736 2.29675 3.77759 0
M  V30 2887 N 283.795 -0.628877 1.44509 0
M  V30 2888 C 284.758 -1.72263 1.51188 0
M  V30 2889 C 285.758 -1.55907 0.39367 0
M  V30 2890 O 286.948 -1.61361 0.656377 0
M  V30 2891 C 284.08 -3.11365 1.38798 0
M  V30 2892 H 285.273 -1.67714 2.4862 0
M  V30 2893 H 282.826 -0.842737 1.31634 0
M  V30 2894 H 283.561 -3.21507 0.424693 0
M  V30 2895 H 283.346 -3.24644 2.19884 0
M  V30 2896 H 284.836 -3.91075 1.46458 0
M  V30 2897 N 285.273 -1.31445 -0.869486 0
M  V30 2898 C 286.522 -1.20517 -1.61736 0
M  V30 2899 C 286.835 0.235341 -1.94179 0
M  V30 2900 O 288.041 0.466312 -2.67465 0
M  V30 2901 C 286.497 -2.10982 -2.91573 0
M  V30 2902 C 286.105 -3.60032 -2.66611 0
M  V30 2903 C 287.849 -2.08856 -3.69567 0
M  V30 2904 C 285.756 -4.42503 -3.92358 0
M  V30 2905 H 284.686 -0.447493 -0.606849 0
M  V30 2906 H 287.337 -1.56303 -0.96133 0
M  V30 2907 H 285.719 -1.68095 -3.58553 0
M  V30 2908 H 286.893 -4.11167 -2.08035 0
M  V30 2909 H 285.208 -3.64139 -2.0197 0
M  V30 2910 H 287.805 -2.67716 -4.62852 0
M  V30 2911 H 288.148 -1.07582 -4.02159 0
M  V30 2912 H 288.681 -2.49945 -3.09471 0
M  V30 2913 H 285.42 -5.44533 -3.64916 0
M  V30 2914 H 284.94 -3.96125 -4.50383 0
M  V30 2915 H 286.619 -4.54741 -4.60238 0
M  V30 2916 N 286.751 1.08385 -1.14413 0
M  V30 2917 C 287.698 2.15311 -0.831265 0
M  V30 2918 C 288.668 1.64751 0.211292 0
M  V30 2919 O 289.853 1.90627 0.0811674 0
M  V30 2920 C 286.993 3.43658 -0.315143 0
M  V30 2921 C 286.106 4.08064 -1.41802 0
M  V30 2922 C 285.241 5.24207 -0.859126 0
M  V30 2923 C 284.28 5.80554 -1.93967 0
M  V30 2924 N 283.417 6.88042 -1.39793 0
M  V30 2925 H 288.257 2.41415 -1.74708 0
M  V30 2926 H 285.794 1.18474 -0.871909 0
M  V30 2927 H 287.752 4.172 0.00230884 0
M  V30 2928 H 286.382 3.17839 0.56378 0
M  V30 2929 H 285.434 3.3228 -1.85187 0
M  V30 2930 H 286.746 4.45962 -2.23427 0
M  V30 2931 H 285.9 6.04689 -0.49359 0
M  V30 2932 H 284.639 4.87699 -0.011932 0
M  V30 2933 H 283.644 4.98725 -2.31415 0
M  V30 2934 H 284.869 6.19121 -2.79046 0
M  V30 2935 H 282.815 6.53493 -0.572919 0
M  V30 2936 H 282.732 7.24767 -2.15054 0
M  V30 2937 H 284 7.72255 -1.0603 0
M  V30 2938 N 288.23 0.939286 1.26551 0
M  V30 2939 C 289.177 0.446088 2.26448 0
M  V30 2940 C 290.147 -0.493234 1.58608 0
M  V30 2941 O 291.332 -0.409857 1.86346 0
M  V30 2942 C 288.472 -0.284375 3.43926 0
M  V30 2943 C 287.585 0.690399 4.26448 0
M  V30 2944 C 286.72 -0.0610712 5.31165 0
M  V30 2945 C 285.759 0.905649 6.05363 0
M  V30 2946 N 284.896 0.186055 7.01853 0
M  V30 2947 H 289.736 1.30291 2.68008 0
M  V30 2948 H 287.273 0.65371 1.31776 0
M  V30 2949 H 289.231 -0.724313 4.10864 0
M  V30 2950 H 287.861 -1.10535 3.03285 0
M  V30 2951 H 286.913 1.24885 3.59316 0
M  V30 2952 H 288.225 1.42873 4.779 0
M  V30 2953 H 287.379 -0.56038 6.04106 0
M  V30 2954 H 286.118 -0.832297 4.80546 0
M  V30 2955 H 285.123 1.4161 5.3125 0
M  V30 2956 H 286.348 1.67685 6.58072 0
M  V30 2957 H 284.294 -0.566714 6.53548 0
M  V30 2958 H 284.211 0.863752 7.51049 0
M  V30 2959 H 285.479 -0.292221 7.78952 0
M  V30 2960 N 289.708 -1.40897 0.706093 0
M  V30 2961 C 290.954 -2.01352 0.241889 0
M  V30 2962 C 291.287 -1.55832 -1.15888 0
M  V30 2963 O 290.562 -0.774145 -1.7843 0
M  V30 2964 C 290.845 -3.58752 0.311311 0
M  V30 2965 C 290.698 -4.1437 1.74978 0
M  V30 2966 C 292.017 -4.38914 -0.322922 0
M  V30 2967 H 289.136 -0.731562 0.0893687 0
M  V30 2968 H 291.778 -1.67504 0.896802 0
M  V30 2969 H 289.928 -3.87718 -0.246302 0
M  V30 2970 H 291.6 -3.96239 2.36205 0
M  V30 2971 H 289.843 -3.69016 2.28057 0
M  V30 2972 H 290.514 -5.23532 1.74981 0
M  V30 2973 H 292.99 -4.15822 0.152089 0
M  V30 2974 H 291.866 -5.48358 -0.243855 0
M  V30 2975 H 292.127 -4.19176 -1.40513 0
M  V30 2976 N 291.186 -0.45159 -1.50991 0
M  V30 2977 C 292.602 -0.104647 -1.59257 0
M  V30 2978 C 292.802 1.38728 -1.4614 0
M  V30 2979 O 291.858 2.15866 -1.30989 0
M  V30 2980 C 293.171 -0.637468 -2.93865 0
M  V30 2981 C 294.719 -0.599166 -3.07212 0
M  V30 2982 C 295.194 -1.1092 -4.44366 0
M  V30 2983 N 296.685 -1.06778 -4.50725 0
M  V30 2984 C 297.42 -1.43314 -5.55201 0
M  V30 2985 N 296.916 -1.87204 -6.67028 0
M  V30 2986 N 298.709 -1.3504 -5.45638 0
M  V30 2987 H 290.86 -1.42214 -1.57762 0
M  V30 2988 H 293.123 -0.586921 -0.744465 0
M  V30 2989 H 292.829 -1.68187 -3.08879 0
M  V30 2990 H 292.703 -0.0702139 -3.77135 0
M  V30 2991 H 295.09 0.436277 -2.91857 0
M  V30 2992 H 295.171 -1.20299 -2.25747 0
M  V30 2993 H 294.815 -2.14318 -4.60467 0
M  V30 2994 H 294.745 -0.481773 -5.24392 0
M  V30 2995 H 297.236 -0.745643 -3.70471 0
M  V30 2996 H 297.549 -2.13282 -7.42786 0
M  V30 2997 H 295.894 -1.91142 -6.68199 0
M  V30 2998 H 299.085 -1.00607 -4.57161 0
M  V30 2999 H 299.258 -1.63841 -6.26945 0
M  V30 3000 N 292.664 1.56529 -0.183458 0
M  V30 3001 C 293.574 2.22144 0.754272 0
M  V30 3002 C 294.59 1.21684 1.24374 0
M  V30 3003 O 295.766 1.54385 1.29333 0
M  V30 3004 C 292.831 2.85884 1.96141 0
M  V30 3005 C 291.892 4.01579 1.51765 0
M  V30 3006 C 291.125 4.6227 2.66725 0
M  V30 3007 O 291.348 4.21865 3.83909 0
M  V30 3008 O 290.282 5.51936 2.40104 0
M  V30 3009 H 294.108 3.02861 0.225527 0
M  V30 3010 H 291.693 1.49331 0.0453032 0
M  V30 3011 H 293.575 3.26253 2.66715 0
M  V30 3012 H 292.25 2.08154 2.47899 0
M  V30 3013 H 291.157 3.65856 0.781049 0
M  V30 3014 H 292.49 4.80938 1.04686 0
M  V30 3015 N 294.142 -0.090211 1.57342 0
M  V30 3016 C 295.074 -1.13541 1.99101 0
M  V30 3017 C 296.087 -1.3604 0.894258 0
M  V30 3018 O 297.276 -1.34606 1.17233 0
M  V30 3019 C 294.376 -2.49001 2.29895 0
M  V30 3020 C 293.549 -2.46712 3.61182 0
M  V30 3021 C 292.608 -3.64136 3.79857 0
M  V30 3022 O 291.634 -3.46405 4.51655 0
M  V30 3023 N 292.836 -4.83802 3.20806 0
M  V30 3024 H 295.601 -0.779942 2.89373 0
M  V30 3025 H 293.162 -0.279125 1.59476 0
M  V30 3026 H 295.154 -3.26166 2.39578 0
M  V30 3027 H 293.724 -2.76619 1.45605 0
M  V30 3028 H 292.944 -1.55058 3.62423 0
M  V30 3029 H 294.232 -2.42265 4.4742 0
M  V30 3030 H 293.63 -5.01112 2.62494 0
M  V30 3031 H 292.187 -5.58543 3.35966 0
M  V30 3032 N 295.62 -1.53406 -0.361157 0
M  V30 3033 C 296.568 -1.80832 -1.46296 0
M  V30 3034 C 297.562 -0.677699 -1.55253 0
M  V30 3035 O 298.768 -0.860723 -1.58087 0
M  V30 3036 H 295.143 -0.572627 -0.487445 0
M  V30 3037 H 297.114 -2.73045 -1.20371 0
M  V30 3038 C 295.863 -2.01907 -2.8307 0
M  V30 3039 H 295.186 -2.88349 -2.76938 0
M  V30 3040 H 296.626 -2.25072 -3.59331 0
M  V30 3041 C 295.085 -0.799449 -3.27277 0
M  V30 3042 O 295.615 0.00971761 -4.01699 0
M  V30 3043 N 293.821 -0.621637 -2.83873 0
M  V30 3044 H 293.368 -1.28126 -2.23476 0
M  V30 3045 H 293.326 0.19298 -3.13807 0
M  V30 3046 N 297.098 0.621204 -1.44841 0
M  V30 3047 C 298.008 1.7612 -1.5498 0
M  V30 3048 C 299.024 1.68477 -0.434927 0
M  V30 3049 O 300.2 1.89076 -0.693693 0
M  V30 3050 C 297.265 3.1254 -1.50065 0
M  V30 3051 C 296.326 3.31741 -2.72482 0
M  V30 3052 C 295.559 4.61653 -2.67792 0
M  V30 3053 O 295.782 5.431 -1.74352 0
M  V30 3054 O 294.716 4.83271 -3.58794 0
M  V30 3055 H 298.542 1.70518 -2.51311 0
M  V30 3056 H 296.127 0.783643 -1.27198 0
M  V30 3057 H 298.009 3.93844 -1.49882 0
M  V30 3058 H 296.684 3.18663 -0.568806 0
M  V30 3059 H 295.591 2.50077 -2.7823 0
M  V30 3060 H 296.924 3.30486 -3.64746 0
M  V30 3061 N 298.576 1.31904 0.862503 0
M  V30 3062 C 299.804 1.24998 1.64873 0
M  V30 3063 C 300.219 -0.183425 1.87907 0
M  V30 3064 O 299.576 -1.11794 1.44251 0
M  V30 3065 C 299.627 1.99829 3.01248 0
M  V30 3066 O 299.348 3.37575 2.79239 0
M  V30 3067 C 300.849 1.99852 3.95694 0
M  V30 3068 H 298.069 0.431599 0.513773 0
M  V30 3069 H 300.613 1.73901 1.07604 0
M  V30 3070 H 298.768 1.54668 3.55185 0
M  V30 3071 H 299.182 3.75776 3.65914 0
M  V30 3072 H 300.656 2.56709 4.88676 0
M  V30 3073 H 301.133 0.982852 4.28062 0
M  V30 3074 H 301.739 2.44926 3.47694 0
M  V30 3075 N 300.054 -1.07777 1.14986 0
M  V30 3076 C 301.331 -1.7699 0.832695 0
M  V30 3077 C 301.711 -2.001 -0.672561 0
M  V30 3078 O 301.059 -1.61598 -1.6155 0
M  V30 3079 C 301.269 -3.08139 1.63863 0
M  V30 3080 C 302.617 -3.8256 1.84208 0
M  V30 3081 O 303.641 -3.17939 1.60603 0
M  V30 3082 O 302.5 -4.98612 2.23714 0
M  V30 3083 H 299.594 -0.768389 0.305791 0
M  V30 3084 H 302.14 -1.14182 1.25541 0
M  V30 3085 H 300.912 -2.86909 2.6608 0
M  V30 3086 H 300.535 -3.78678 1.21197 0
M  V30 3087 N 301.532 -0.945985 -1.26051 0
M  V30 3088 C 302.781 -0.591836 -1.92822 0
M  V30 3089 C 303.094 0.873956 -1.7499 0
M  V30 3090 O 304.3 1.33769 -2.36259 0
M  V30 3091 C 302.756 -1.00776 -3.45503 0
M  V30 3092 C 302.364 -2.4955 -3.7206 0
M  V30 3093 C 304.108 -0.725735 -4.1825 0
M  V30 3094 C 302.015 -2.84988 -5.18205 0
M  V30 3095 H 300.945 -0.217635 -0.721908 0
M  V30 3096 H 303.596 -1.14927 -1.43052 0
M  V30 3097 H 301.978 -0.378812 -3.94184 0
M  V30 3098 H 303.152 -3.1739 -3.34066 0
M  V30 3099 H 301.467 -2.75133 -3.12555 0
M  V30 3100 H 304.064 -0.966771 -5.25887 0
M  V30 3101 H 304.407 0.337639 -4.14929 0
M  V30 3102 H 304.94 -1.31463 -3.7545 0
M  V30 3103 H 301.679 -3.90307 -5.26631 0
M  V30 3104 H 301.199 -2.21813 -5.57278 0
M  V30 3105 H 302.878 -2.73712 -5.86252 0
M  V30 3106 N 303.011 1.40521 -0.713556 0
M  V30 3107 C 303.958 2.30723 -0.059684 0
M  V30 3108 C 304.928 1.48079 0.752448 0
M  V30 3109 O 306.113 1.76823 0.71681 0
M  V30 3110 C 303.253 3.34274 0.857594 0
M  V30 3111 C 302.366 4.31986 0.0351536 0
M  V30 3112 C 301.501 5.22605 0.951724 0
M  V30 3113 C 300.54 6.11976 0.123253 0
M  V30 3114 N 299.677 6.9502 0.99459 0
M  V30 3115 H 304.517 2.86074 -0.834596 0
M  V30 3116 H 302.054 1.40879 -0.42326 0
M  V30 3117 H 304.012 3.92879 1.40364 0
M  V30 3118 H 302.642 2.8043 1.59871 0
M  V30 3119 H 301.694 3.7518 -0.628052 0
M  V30 3120 H 303.006 4.95101 -0.606347 0
M  V30 3121 H 302.16 5.86131 1.56638 0
M  V30 3122 H 300.899 4.59759 1.62705 0
M  V30 3123 H 299.904 5.47482 -0.50435 0
M  V30 3124 H 301.129 6.76881 -0.548539 0
M  V30 3125 H 299.075 6.34764 1.6556 0
M  V30 3126 H 298.992 7.54892 0.40908 0
M  V30 3127 H 300.26 7.62997 1.59549 0
M  V30 3128 N 304.489 0.459591 1.5075 0
M  V30 3129 C 305.439 -0.358926 2.25157 0
M  V30 3130 C 306.423 -0.971285 1.28276 0
M  V30 3131 O 307.615 -0.885739 1.53244 0
M  V30 3132 C 304.744 -1.44695 3.11317 0
M  V30 3133 C 303.83 -0.842894 4.15639 0
M  V30 3134 N 304.221 0.0299373 5.05791 0
M  V30 3135 C 302.519 -1.10809 4.32015 0
M  V30 3136 C 303.22 0.371563 5.80512 0
M  V30 3137 N 302.196 -0.250409 5.43023 0
M  V30 3138 H 305.998 0.313636 2.92222 0
M  V30 3139 H 303.512 0.273021 1.60089 0
M  V30 3140 H 305.509 -2.04641 3.63218 0
M  V30 3141 H 304.169 -2.12162 2.45799 0
M  V30 3142 H 305.18 0.39797 5.16369 0
M  V30 3143 H 301.857 -1.7786 3.77719 0
M  V30 3144 H 303.247 1.08319 6.63111 0
M  V30 3145 N 305.967 -1.56429 0.191757 0
M  V30 3146 C 306.897 -2.21937 -0.725696 0
M  V30 3147 C 307.878 -1.1814 -1.2238 0
M  V30 3148 O 309.063 -1.46636 -1.27325 0
M  V30 3149 C 306.193 -2.87611 -1.94672 0
M  V30 3150 C 305.147 -3.97623 -1.58366 0
M  V30 3151 C 304.473 -4.50446 -2.88102 0
M  V30 3152 C 305.773 -5.16197 -0.796133 0
M  V30 3153 H 307.467 -2.98861 -0.179606 0
M  V30 3154 H 305.013 -1.43749 -0.0849464 0
M  V30 3155 H 306.966 -3.3212 -2.59373 0
M  V30 3156 H 305.69 -2.08087 -2.51728 0
M  V30 3157 H 304.349 -3.53801 -0.960247 0
M  V30 3158 H 303.997 -3.67688 -3.43241 0
M  V30 3159 H 303.697 -5.24675 -2.64556 0
M  V30 3160 H 305.221 -4.97654 -3.53798 0
M  V30 3161 H 306.635 -5.57271 -1.34618 0
M  V30 3162 H 305.032 -5.96471 -0.658928 0
M  V30 3163 H 306.102 -4.84473 0.203478 0
M  V30 3164 N 307.445 0.0818655 -1.57387 0
M  V30 3165 C 308.861 0.436412 -1.53517 0
M  V30 3166 C 309.061 1.79758 -0.910459 0
M  V30 3167 O 308.117 2.47324 -0.508636 0
M  V30 3168 C 309.43 0.386734 -2.98203 0
M  V30 3169 C 310.978 0.467644 -3.09487 0
M  V30 3170 C 311.453 0.447978 -4.55804 0
M  V30 3171 N 312.944 0.508348 -4.60402 0
M  V30 3172 C 313.679 0.515184 -5.71081 0
M  V30 3173 N 313.175 0.477435 -6.91153 0
M  V30 3174 N 314.968 0.560988 -5.59294 0
M  V30 3175 H 307.119 -0.809546 -1.96367 0
M  V30 3176 H 309.382 -0.302733 -0.898363 0
M  V30 3177 H 309.088 -0.546539 -3.47427 0
M  V30 3178 H 308.962 1.20075 -3.57578 0
M  V30 3179 H 311.349 1.39134 -2.60242 0
M  V30 3180 H 311.43 -0.374753 -2.5304 0
M  V30 3181 H 311.074 -0.471826 -5.05704 0
M  V30 3182 H 311.004 1.30777 -5.10103 0
M  V30 3183 H 313.495 0.54218 -3.7399 0
M  V30 3184 H 313.808 0.486299 -7.71268 0
M  V30 3185 H 312.153 0.444278 -6.93579 0
M  V30 3186 H 315.344 0.5881 -4.64391 0
M  V30 3187 H 315.517 0.562846 -6.45551 0
M  V30 3188 N 308.923 1.53595 0.353017 0
M  V30 3189 C 309.87 1.80919 1.43308 0
M  V30 3190 C 310.84 0.654288 1.5267 0
M  V30 3191 O 312.025 0.897759 1.6836 0
M  V30 3192 C 309.165 2.01605 2.80089 0
M  V30 3193 C 308.278 3.29321 2.79593 0
M  V30 3194 C 307.413 3.40125 4.0803 0
M  V30 3195 C 306.452 4.61826 4.01725 0
M  V30 3196 N 305.589 4.69716 5.21834 0
M  V30 3197 H 310.429 2.73074 1.19308 0
M  V30 3198 H 307.966 1.35263 0.578131 0
M  V30 3199 H 309.924 2.11586 3.59565 0
M  V30 3200 H 308.554 1.12772 3.0246 0
M  V30 3201 H 307.606 3.28229 1.92276 0
M  V30 3202 H 308.918 4.18884 2.70809 0
M  V30 3203 H 308.072 3.49488 4.95927 0
M  V30 3204 H 306.811 2.48601 4.19582 0
M  V30 3205 H 305.816 4.52552 3.12213 0
M  V30 3206 H 307.041 5.54705 3.91764 0
M  V30 3207 H 304.987 3.81097 5.33948 0
M  V30 3208 H 304.904 5.53202 5.1527 0
M  V30 3209 H 306.172 4.83376 6.11529 0
M  V30 3210 N 310.401 -0.613514 1.45168 0
M  V30 3211 C 311.331 -1.7354 1.56225 0
M  V30 3212 C 312.312 -1.64981 0.41414 0
M  V30 3213 O 313.497 -1.83472 0.636526 0
M  V30 3214 C 310.627 -3.12128 1.52295 0
M  V30 3215 C 309.581 -3.35491 2.65762 0
M  V30 3216 C 308.907 -4.74291 2.46885 0
M  V30 3217 C 310.207 -3.26325 4.0781 0
M  V30 3218 H 311.901 -1.64543 2.50132 0
M  V30 3219 H 309.447 -0.790185 1.20383 0
M  V30 3220 H 311.4 -3.90404 1.58628 0
M  V30 3221 H 310.124 -3.2195 0.549139 0
M  V30 3222 H 308.783 -2.59603 2.58847 0
M  V30 3223 H 308.431 -4.80839 1.47657 0
M  V30 3224 H 308.131 -4.9088 3.22972 0
M  V30 3225 H 309.655 -5.54775 2.55063 0
M  V30 3226 H 311.069 -3.94483 4.16 0
M  V30 3227 H 309.466 -3.54445 4.8424 0
M  V30 3228 H 310.536 -2.23855 4.30136 0
M  V30 3229 N 311.879 -1.3236 -0.855495 0
M  V30 3230 C 312.826 -1.21225 -1.964 0
M  V30 3231 C 313.796 -0.0946204 -1.6583 0
M  V30 3232 O 314.981 -0.27002 -1.8888 0
M  V30 3233 C 312.121 -0.940419 -3.32039 0
M  V30 3234 C 311.234 -2.14276 -3.75113 0
M  V30 3235 C 310.369 -1.80648 -4.9954 0
M  V30 3236 C 309.408 -2.97208 -5.35102 0
M  V30 3237 N 308.545 -2.63678 -6.50706 0
M  V30 3238 H 313.385 -2.16042 -2.05255 0
M  V30 3239 H 310.922 -1.07451 -1.00463 0
M  V30 3240 H 312.88 -0.763311 -4.10158 0
M  V30 3241 H 311.51 -0.0290413 -3.22787 0
M  V30 3242 H 310.562 -2.43017 -2.92655 0
M  V30 3243 H 311.874 -3.01468 -3.97389 0
M  V30 3244 H 311.028 -1.59484 -5.85363 0
M  V30 3245 H 309.767 -0.906678 -4.79198 0
M  V30 3246 H 308.772 -3.19004 -4.47791 0
M  V30 3247 H 309.997 -3.87918 -5.57401 0
M  V30 3248 H 307.943 -1.76238 -6.31883 0
M  V30 3249 H 307.86 -3.444 -6.72997 0
M  V30 3250 H 309.128 -2.45942 -7.39684 0
M  V30 3251 N 313.357 1.07166 -1.15556 0
M  V30 3252 C 314.307 2.12649 -0.82247 0
M  V30 3253 C 315.291 1.59725 0.194129 0
M  V30 3254 O 316.483 1.76999 -0.00540402 0
M  V30 3255 C 313.612 3.41847 -0.315572 0
M  V30 3256 C 312.698 4.0162 -1.36244 0
M  V30 3257 N 313.089 4.35625 -2.5703 0
M  V30 3258 C 311.387 4.29114 -1.21562 0
M  V30 3259 C 312.088 4.83017 -3.24144 0
M  V30 3260 N 311.064 4.81906 -2.51531 0
M  V30 3261 H 314.866 2.36776 -1.74111 0
M  V30 3262 H 312.38 1.24622 -1.0413 0
M  V30 3263 H 314.377 4.16859 -0.0585855 0
M  V30 3264 H 313.037 3.19163 0.597105 0
M  V30 3265 H 314.048 4.26253 -2.94158 0
M  V30 3266 H 310.725 4.15919 -0.362988 0
M  V30 3267 H 312.115 5.18605 -4.27198 0
M  V30 3268 N 314.835 0.952656 1.25548 0
M  V30 3269 C 316.246 0.647392 1.75116 0
M  V30 3270 C 316.597 -0.837274 1.77438 0
M  V30 3271 O 315.722 -1.65525 1.39393 0
M  V30 3272 C 316.317 1.16845 3.18014 0
M  V30 3273 C 314.876 0.913382 3.6515 0
M  V30 3274 C 314.023 1.31265 2.44264 0
M  V30 3275 H 316.974 1.12968 1.11462 0
M  V30 3276 H 316.995 0.527606 3.76824 0
M  V30 3277 H 316.507 2.24902 3.16292 0
M  V30 3278 H 314.608 -0.152316 3.72289 0
M  V30 3279 H 314.721 1.54845 4.53387 0
M  V30 3280 H 313.085 0.731028 2.43984 0
M  V30 3281 H 313.868 2.40239 2.45234 0
M  V30 3282 N 316.313 -1.40141 0.720998 0
M  V30 3283 C 317.261 -2.3252 0.0608547 0
M  V30 3284 C 318.255 -1.52326 -0.741152 0
M  V30 3285 O 319.461 -1.68089 -0.643911 0
M  V30 3286 H 315.836 -0.751999 0.000876664 0
M  V30 3287 H 317.807 -2.8584 0.856614 0
M  V30 3288 C 316.556 -3.37331 -0.842809 0
M  V30 3289 H 315.879 -3.99108 -0.235084 0
M  V30 3290 H 317.319 -4.04452 -1.27257 0
M  V30 3291 C 315.778 -2.73246 -1.97074 0
M  V30 3292 O 316.308 -2.59998 -3.06209 0
M  V30 3293 N 314.514 -2.31547 -1.75597 0
M  V30 3294 H 314.061 -2.42522 -0.868368 0
M  V30 3295 H 314.019 -1.89007 -2.51244 0
M  V30 3296 N 317.792 -0.46758 -1.50504 0
M  V30 3297 C 319.041 0.0902868 -2.01498 0
M  V30 3298 C 319.354 1.411 -1.35463 0
M  V30 3299 O 320.56 2.0536 -1.77594 0
M  V30 3300 C 319.016 0.21142 -3.59278 0
M  V30 3301 C 318.624 -1.10065 -4.34269 0
M  V30 3302 C 320.368 0.721433 -4.18325 0
M  V30 3303 C 318.275 -0.943505 -5.83825 0
M  V30 3304 H 317.205 0.037517 -0.753066 0
M  V30 3305 H 319.856 -0.601943 -1.73346 0
M  V30 3306 H 318.238 0.967352 -3.84003 0
M  V30 3307 H 319.412 -1.86726 -4.21272 0
M  V30 3308 H 317.727 -1.5415 -3.86816 0
M  V30 3309 H 320.324 0.85598 -5.27804 0
M  V30 3310 H 320.667 1.71186 -3.79475 0
M  V30 3311 H 321.2 0.0229843 -3.97793 0
M  V30 3312 H 317.939 -1.90719 -6.27141 0
M  V30 3313 H 317.459 -0.217213 -5.99407 0
M  V30 3314 H 319.138 -0.608715 -6.4413 0
M  V30 3315 N 319.27 1.56325 -0.20005 0
M  V30 3316 C 320.519 1.96895 0.437652 0
M  V30 3317 C 320.832 1.08999 1.62415 0
M  V30 3318 O 322.038 1.39372 2.32997 0
M  V30 3319 C 320.494 3.50198 0.830025 0
M  V30 3320 C 320.102 4.46765 -0.332461 0
M  V30 3321 C 321.846 3.99526 1.43453 0
M  V30 3322 C 319.753 5.91344 0.0811468 0
M  V30 3323 H 318.683 0.735209 0.167282 0
M  V30 3324 H 321.334 1.81148 -0.292853 0
M  V30 3325 H 319.716 3.61467 1.61734 0
M  V30 3326 H 320.89 4.47231 -1.11 0
M  V30 3327 H 319.205 4.07657 -0.848789 0
M  V30 3328 H 321.802 5.05025 1.75652 0
M  V30 3329 H 322.145 3.44122 2.34277 0
M  V30 3330 H 322.678 3.91393 0.71109 0
M  V30 3331 H 319.417 6.50685 -0.793033 0
M  V30 3332 H 318.937 5.94121 0.823445 0
M  V30 3333 H 320.616 6.44945 0.515252 0
M  V30 3334 N 320.748 -0.0735177 1.57428 0
M  V30 3335 C 321.711 -1.07192 2.02589 0
M  V30 3336 C 322.711 -1.31695 0.922661 0
M  V30 3337 O 323.901 -1.27445 1.18758 0
M  V30 3338 C 321.033 -2.41599 2.40506 0
M  V30 3339 H 322.226 -0.682727 2.92025 0
M  V30 3340 H 319.779 -0.319193 1.53006 0
M  V30 3341 H 320.514 -2.85354 1.5409 0
M  V30 3342 H 320.299 -2.25156 3.21009 0
M  V30 3343 H 321.789 -3.13367 2.76027 0
M  V30 3344 N 322.226 -1.5378 -0.344866 0
M  V30 3345 C 323.473 -1.70963 -1.08526 0
M  V30 3346 C 323.801 -0.472126 -1.88683 0
M  V30 3347 O 323.056 0.546116 -1.87926 0
M  V30 3348 C 323.355 -2.92407 -2.05506 0
M  V30 3349 C 323.021 -4.28066 -1.41671 0
M  V30 3350 C 321.683 -4.64951 -1.2399 0
M  V30 3351 C 324.035 -5.12344 -0.956726 0
M  V30 3352 C 321.363 -5.83733 -0.589277 0
M  V30 3353 C 323.715 -6.3179 -0.320015 0
M  V30 3354 C 322.379 -6.67372 -0.130881 0
M  V30 3355 H 321.649 -0.625598 -0.397124 0
M  V30 3356 H 324.296 -1.87995 -0.36469 0
M  V30 3357 H 322.601 -2.69973 -2.8394 0
M  V30 3358 H 324.298 -3.02895 -2.62784 0
M  V30 3359 H 320.888 -3.99034 -1.56429 0
M  V30 3360 H 325.072 -4.8438 -1.08118 0
M  V30 3361 H 320.328 -6.09877 -0.431344 0
M  V30 3362 H 324.502 -6.96386 0.0445072 0
M  V30 3363 H 322.129 -7.59273 0.375318 0
M  V30 3364 N 323.704 0.605807 -1.45491 0
M  V30 3365 C 324.651 1.7164 -1.54299 0
M  V30 3366 C 325.621 1.61486 -0.388761 0
M  V30 3367 O 326.806 1.81039 -0.602445 0
M  V30 3368 C 323.946 3.09953 -1.51734 0
M  V30 3369 C 323.059 3.309 -2.77721 0
M  V30 3370 C 322.194 4.59329 -2.66816 0
M  V30 3371 C 321.233 4.7354 -3.87848 0
M  V30 3372 N 320.37 5.9327 -3.75467 0
M  V30 3373 H 325.21 1.63449 -2.49176 0
M  V30 3374 H 322.747 0.796957 -1.23641 0
M  V30 3375 H 324.705 3.89977 -1.48235 0
M  V30 3376 H 323.335 3.17098 -0.604068 0
M  V30 3377 H 322.387 2.44639 -2.913 0
M  V30 3378 H 323.699 3.37274 -3.67488 0
M  V30 3379 H 322.853 5.4755 -2.61292 0
M  V30 3380 H 321.592 4.55355 -1.74651 0
M  V30 3381 H 320.597 3.83741 -3.93729 0
M  V30 3382 H 321.822 4.79309 -4.81082 0
M  V30 3383 H 319.768 5.90338 -2.86072 0
M  V30 3384 H 319.685 6.00811 -4.5887 0
M  V30 3385 H 320.953 6.83984 -3.73879 0
M  V30 3386 N 325.182 1.32811 0.848464 0
M  V30 3387 C 326.43 1.23479 1.59991 0
M  V30 3388 C 326.751 -0.201853 1.93952 0
M  V30 3389 O 326.021 -1.12818 1.60153 0
M  V30 3390 H 324.601 0.454034 0.593179 0
M  V30 3391 H 327.263 1.66412 1.01455 0
M  V30 3392 H 326.359 1.82178 2.53412 0
M  V30 3393 N 326.66 -1.06551 1.16123 0
M  V30 3394 C 327.906 -1.79567 0.94252 0
M  V30 3395 C 328.239 -1.86869 -0.528547 0
M  V30 3396 O 327.514 -1.35838 -1.39206 0
M  V30 3397 C 327.797 -3.24195 1.56747 0
M  V30 3398 C 327.65 -3.24989 3.10969 0
M  V30 3399 C 328.969 -4.21678 1.25998 0
M  V30 3400 H 326.088 -0.651883 0.343828 0
M  V30 3401 H 328.73 -1.2463 1.43413 0
M  V30 3402 H 326.88 -3.71107 1.14942 0
M  V30 3403 H 328.552 -2.86258 3.61737 0
M  V30 3404 H 326.795 -2.63716 3.44436 0
M  V30 3405 H 327.466 -4.27005 3.49815 0
M  V30 3406 H 329.942 -3.83196 1.62174 0
M  V30 3407 H 328.818 -5.21146 1.7233 0
M  V30 3408 H 329.079 -4.4174 0.178367 0
M  V30 3409 N 328.138 -0.959301 -1.25041 0
M  V30 3410 C 329.378 -0.624343 -1.94631 0
M  V30 3411 C 329.742 0.82403 -1.73418 0
M  V30 3412 O 330.943 1.26881 -2.3697 0
M  V30 3413 C 329.214 -0.978805 -3.43736 0
M  V30 3414 S 330.773 -0.757127 -4.32219 0
M  V30 3415 H 327.591 -0.229327 -0.673001 0
M  V30 3416 H 330.193 -1.23447 -1.51595 0
M  V30 3417 H 328.897 -2.02997 -3.56679 0
M  V30 3418 H 328.428 -0.359117 -3.91757 0
M  V30 3419 H 330.443 0.369759 -4.9482 0
M  V30 3420 N 329.616 1.39756 -0.72842 0
M  V30 3421 C 330.844 2.04948 -0.283528 0
M  V30 3422 C 331.259 1.54908 1.0793 0
M  V30 3423 O 330.616 0.711135 1.68075 0
M  V30 3424 C 330.667 3.60498 -0.268957 0
M  V30 3425 O 330.388 4.08695 -1.57798 0
M  V30 3426 C 331.889 4.4288 0.192912 0
M  V30 3427 H 329.109 0.659243 -0.125056 0
M  V30 3428 H 331.653 1.78927 -0.990226 0
M  V30 3429 H 329.808 3.85444 0.388801 0
M  V30 3430 H 330.222 5.02977 -1.48709 0
M  V30 3431 H 331.696 5.51791 0.151952 0
M  V30 3432 H 332.173 4.21418 1.23708 0
M  V30 3433 H 332.779 4.23069 -0.435039 0
M  V30 3434 N 331.094 0.475555 1.50254 0
M  V30 3435 C 332.026 -0.352649 2.26471 0
M  V30 3436 C 333.039 -0.953165 1.3198 0
M  V30 3437 O 334.228 -0.840815 1.57457 0
M  V30 3438 C 331.328 -1.50902 3.0345 0
M  V30 3439 C 330.501 -1.02047 4.25329 0
M  V30 3440 C 329.56 -2.05142 4.84565 0
M  V30 3441 O 328.586 -1.63023 5.45355 0
M  V30 3442 N 329.788 -3.37987 4.71959 0
M  V30 3443 H 332.553 0.300767 2.98187 0
M  V30 3444 H 330.114 0.306598 1.5897 0
M  V30 3445 H 332.106 -2.19572 3.39956 0
M  V30 3446 H 330.676 -2.06705 2.34504 0
M  V30 3447 H 329.896 -0.159507 3.93877 0
M  V30 3448 H 331.184 -0.672061 5.04342 0
M  V30 3449 H 330.582 -3.74913 4.23623 0
M  V30 3450 H 329.139 -4.02443 5.12721 0
M  V30 3451 N 332.573 -1.56217 0.208337 0
M  V30 3452 C 333.536 -2.18455 -0.693557 0
M  V30 3453 C 334.536 -1.14268 -1.13135 0
M  V30 3454 O 335.726 -1.39577 -1.0423 0
M  V30 3455 C 332.858 -2.79727 -1.94848 0
M  V30 3456 H 334.051 -2.99519 -0.15114 0
M  V30 3457 H 331.604 -1.56245 -0.041287 0
M  V30 3458 H 332.339 -2.02497 -2.53309 0
M  V30 3459 H 332.124 -3.56009 -1.64316 0
M  V30 3460 H 333.614 -3.27475 -2.59133 0
M  V30 3461 N 334.051 0.0651679 -1.57465 0
M  V30 3462 C 335.462 0.616213 -1.76238 0
M  V30 3463 C 335.813 1.7756 -0.834689 0
M  V30 3464 O 334.938 2.1639 -0.0204156 0
M  V30 3465 C 335.533 1.12462 -3.1959 0
M  V30 3466 C 334.092 1.62147 -3.39684 0
M  V30 3467 C 333.239 0.543739 -2.71917 0
M  V30 3468 H 336.19 -0.161022 -1.57881 0
M  V30 3469 H 336.211 1.99324 -3.24114 0
M  V30 3470 H 335.723 0.280592 -3.87084 0
M  V30 3471 H 333.824 2.48854 -2.77313 0
M  V30 3472 H 333.937 1.69385 -4.48158 0
M  V30 3473 H 332.301 0.990352 -2.34657 0
M  V30 3474 H 333.084 -0.290216 -3.42071 0
M  V30 3475 N 335.529 1.53961 0.336706 0
M  V30 3476 C 336.769 1.73254 1.08454 0
M  V30 3477 C 337.133 0.488937 1.8567 0
M  V30 3478 O 338.334 0.559001 2.62923 0
M  V30 3479 C 336.605 2.96519 1.99528 0
M  V30 3480 S 338.164 3.36655 2.81441 0
M  V30 3481 H 334.982 0.609353 0.366347 0
M  V30 3482 H 337.584 1.92117 0.362124 0
M  V30 3483 H 336.288 3.85193 1.41614 0
M  V30 3484 H 335.819 2.80142 2.76196 0
M  V30 3485 H 337.834 2.90925 4.01967 0
M  V30 3486 N 337.007 -0.598083 1.45811 0
M  V30 3487 C 338.237 -1.38121 1.53643 0
M  V30 3488 C 338.645 -1.88425 0.171081 0
M  V30 3489 O 337.988 -1.63409 -0.839237 0
M  V30 3490 C 338.05 -2.61432 2.46766 0
M  V30 3491 C 337.714 -2.32702 3.93318 0
M  V30 3492 C 338.711 -1.92479 4.82957 0
M  V30 3493 C 336.396 -2.45321 4.38318 0
M  V30 3494 C 338.39 -1.65248 6.15607 0
M  V30 3495 C 336.077 -2.17703 5.71007 0
M  V30 3496 C 337.075 -1.7773 6.5947 0
M  V30 3497 O 336.763 -1.50441 7.89698 0
M  V30 3498 H 336.495 -0.428863 0.522544 0
M  V30 3499 H 339.049 -0.73557 1.91777 0
M  V30 3500 H 337.279 -3.28749 2.0362 0
M  V30 3501 H 338.968 -3.23487 2.45175 0
M  V30 3502 H 339.734 -1.82258 4.49452 0
M  V30 3503 H 335.613 -2.75399 3.69697 0
M  V30 3504 H 339.157 -1.33973 6.84614 0
M  V30 3505 H 335.054 -2.27544 6.04065 0
M  V30 3506 H 335.822 -1.64415 8.01817 0
M  V30 3507 N 338.485 -1.33259 -0.841409 0
M  V30 3508 C 339.725 -1.25902 -1.61022 0
M  V30 3509 C 340.089 0.173325 -1.91216 0
M  V30 3510 O 341.29 0.370824 -2.6623 0
M  V30 3511 C 339.561 -2.10735 -2.88662 0
M  V30 3512 S 341.12 -2.20541 -3.79351 0
M  V30 3513 H 337.938 -0.447958 -0.552137 0
M  V30 3514 H 340.54 -1.68263 -0.995382 0
M  V30 3515 H 339.244 -3.1384 -2.64448 0
M  V30 3516 H 338.775 -1.69201 -3.55154 0
M  V30 3517 H 340.79 -1.36462 -4.77067 0
M  V30 3518 N 339.963 1.05934 -1.16686 0
M  V30 3519 C 341.212 1.78188 -0.945085 0
M  V30 3520 C 341.525 1.88338 0.528021 0
M  V30 3521 O 342.731 2.57258 0.867799 0
M  V30 3522 C 341.187 3.20277 -1.64167 0
M  V30 3523 C 340.795 3.18281 -3.15279 0
M  V30 3524 C 342.539 3.97039 -1.502 0
M  V30 3525 C 340.446 4.55112 -3.7766 0
M  V30 3526 H 339.376 0.667866 -0.349959 0
M  V30 3527 H 342.027 1.18794 -1.39858 0
M  V30 3528 H 340.409 3.79952 -1.11589 0
M  V30 3529 H 341.583 2.68167 -3.74731 0
M  V30 3530 H 339.898 2.55018 -3.29173 0
M  V30 3531 H 342.495 4.98194 -1.94183 0
M  V30 3532 H 342.838 4.13845 -0.451461 0
M  V30 3533 H 343.371 3.43894 -1.99954 0
M  V30 3534 H 340.11 4.43512 -4.82677 0
M  V30 3535 H 339.63 5.05406 -3.22994 0
M  V30 3536 H 341.309 5.24064 -3.79428 0
M  V30 3537 N 341.441 0.965919 1.2453 0
M  V30 3538 C 342.69 0.622437 1.91856 0
M  V30 3539 C 343.003 -0.846006 1.76358 0
M  V30 3540 O 344.209 -1.29993 2.38357 0
M  V30 3541 C 342.665 1.0626 3.43856 0
M  V30 3542 C 342.273 2.55437 3.68043 0
M  V30 3543 C 344.017 0.792183 4.17043 0
M  V30 3544 C 341.924 2.93196 5.13605 0
M  V30 3545 H 340.854 0.229092 0.718354 0
M  V30 3546 H 343.505 1.17189 1.41206 0
M  V30 3547 H 341.887 0.441476 3.93531 0
M  V30 3548 H 343.061 3.22665 3.28974 0
M  V30 3549 H 341.376 2.8007 3.08139 0
M  V30 3550 H 343.973 1.05031 5.24283 0
M  V30 3551 H 344.316 -0.271584 4.15413 0
M  V30 3552 H 344.849 1.37419 3.73311 0
M  V30 3553 H 341.588 3.98636 5.20355 0
M  V30 3554 H 341.108 2.30651 5.53679 0
M  V30 3555 H 342.787 2.83004 5.81823 0
M  V30 3556 N 342.919 -1.39368 0.735821 0
M  V30 3557 C 343.852 -2.28155 0.0451175 0
M  V30 3558 C 344.83 -1.44433 -0.746852 0
M  V30 3559 O 346.014 -1.73823 -0.729237 0
M  V30 3560 C 343.141 -3.253 -0.943266 0
M  V30 3561 C 342.187 -4.25826 -0.239685 0
M  V30 3562 S 343.02 -5.25166 1.04693 0
M  V30 3563 C 344.176 -6.2587 0.0611639 0
M  V30 3564 H 344.409 -2.86388 0.79807 0
M  V30 3565 H 341.942 -1.45104 0.527653 0
M  V30 3566 H 343.9 -3.81789 -1.50824 0
M  V30 3567 H 342.561 -2.66085 -1.66906 0
M  V30 3568 H 341.754 -4.94229 -0.987596 0
M  V30 3569 H 341.356 -3.73141 0.253274 0
M  V30 3570 H 343.648 -6.73007 -0.778941 0
M  V30 3571 H 344.591 -7.04508 0.712362 0
M  V30 3572 H 344.999 -5.63639 -0.311602 0
M  V30 3573 N 344.397 -0.483516 -1.5 0
M  V30 3574 C 345.307 0.309172 -2.32554 0
M  V30 3575 C 346.323 0.984159 -1.43493 0
M  V30 3576 O 347.499 0.969399 -1.76535 0
M  V30 3577 C 344.564 1.36979 -3.18493 0
M  V30 3578 C 343.625 0.710095 -4.23387 0
M  V30 3579 C 342.858 1.72018 -5.05218 0
M  V30 3580 O 343.081 2.94813 -4.88305 0
M  V30 3581 O 342.015 1.28515 -5.8802 0
M  V30 3582 H 345.841 -0.366064 -3.01486 0
M  V30 3583 H 343.426 -0.24514 -1.47375 0
M  V30 3584 H 345.308 1.98385 -3.71781 0
M  V30 3585 H 343.983 2.02828 -2.52275 0
M  V30 3586 H 342.89 0.0567539 -3.74057 0
M  V30 3587 H 344.223 0.0943557 -4.9211 0
M  V30 3588 N 345.875 1.56104 -0.216619 0
M  V30 3589 C 347.105 2.02269 0.420802 0
M  V30 3590 C 347.513 1.09575 1.5424 0
M  V30 3591 O 346.856 0.0967308 1.83445 0
M  V30 3592 C 346.918 3.44784 1.01806 0
M  V30 3593 C 346.582 4.56988 0.0325154 0
M  V30 3594 C 347.579 5.14225 -0.766055 0
M  V30 3595 C 345.264 5.02228 -0.0848092 0
M  V30 3596 C 347.258 6.15169 -1.6687 0
M  V30 3597 C 344.945 6.03011 -0.990994 0
M  V30 3598 C 345.943 6.59357 -1.78149 0
M  V30 3599 O 345.631 7.58179 -2.67245 0
M  V30 3600 H 345.363 0.667353 0.107776 0
M  V30 3601 H 347.917 2.02747 -0.329034 0
M  V30 3602 H 346.147 3.41359 1.81689 0
M  V30 3603 H 347.836 3.74626 1.56237 0
M  V30 3604 H 348.602 4.80126 -0.685836 0
M  V30 3605 H 344.481 4.58054 0.520349 0
M  V30 3606 H 348.025 6.59076 -2.28615 0
M  V30 3607 H 343.922 6.36532 -1.07225 0
M  V30 3608 H 344.69 7.75682 -2.61265 0
M  V30 3609 N 347.353 -0.0568162 1.57498 0
M  V30 3610 C 348.593 -0.758273 1.89815 0
M  V30 3611 C 348.957 -1.73978 0.812132 0
M  V30 3612 O 350.158 -2.48744 1.01881 0
M  V30 3613 C 348.429 -1.43465 3.27342 0
M  V30 3614 S 349.988 -2.1691 3.81439 0
M  V30 3615 H 346.806 -0.251836 0.664906 0
M  V30 3616 H 349.408 -0.0137997 1.95495 0
M  V30 3617 H 348.112 -0.706693 4.0427 0
M  V30 3618 H 347.643 -2.21825 3.24896 0
M  V30 3619 H 349.658 -3.43658 3.5793 0
M  V30 3620 N 348.832 -1.54138 -0.328536 0
M  V30 3621 C 349.795 -1.82462 -1.38709 0
M  V30 3622 C 350.795 -0.696229 -1.44946 0
M  V30 3623 O 351.985 -0.964535 -1.4506 0
M  V30 3624 C 349.117 -1.98018 -2.77492 0
M  V30 3625 H 350.31 -2.77037 -1.14851 0
M  V30 3626 H 347.863 -1.45779 -0.563751 0
M  V30 3627 H 348.598 -1.05637 -3.06613 0
M  V30 3628 H 348.383 -2.80124 -2.74359 0
M  V30 3629 H 349.873 -2.21396 -3.54081 0
M  V30 3630 N 350.31 0.590341 -1.46126 0
M  V30 3631 C 351.26 1.69466 -1.5253 0
M  V30 3632 C 352.244 1.56179 -0.386917 0
M  V30 3633 O 353.436 1.65223 -0.634858 0
M  V30 3634 C 350.565 3.08245 -1.5113 0
M  V30 3635 C 349.651 3.26856 -2.70233 0
M  V30 3636 N 350.042 3.15657 -3.95214 0
M  V30 3637 C 348.34 3.57775 -2.66296 0
M  V30 3638 C 349.041 3.36066 -4.74799 0
M  V30 3639 N 348.017 3.60865 -4.06543 0
M  V30 3640 H 351.819 1.59326 -2.46966 0
M  V30 3641 H 349.333 0.79414 -1.41659 0
M  V30 3642 H 351.33 3.87492 -1.53804 0
M  V30 3643 H 349.99 3.19521 -0.577636 0
M  V30 3644 H 351.001 2.93686 -4.26578 0
M  V30 3645 H 347.678 3.75782 -1.81918 0
M  V30 3646 H 349.068 3.32655 -5.83772 0
M  V30 3647 N 351.788 1.33704 0.83433 0
M  V30 3648 C 353.036 1.25169 1.58673 0
M  V30 3649 C 353.357 -0.18127 1.94156 0
M  V30 3650 O 352.627 -1.11113 1.6134 0
M  V30 3651 H 351.207 0.4603 0.58833 0
M  V30 3652 H 353.869 1.67478 0.996847 0
M  V30 3653 H 352.965 1.84856 2.51465 0
M  V30 3654 N 353.266 -1.05314 1.17247 0
M  V30 3655 C 354.198 -2.13023 0.845812 0
M  V30 3656 C 355.211 -1.62096 -0.151246 0
M  V30 3657 O 356.4 -1.78343 0.0748818 0
M  V30 3658 C 353.5 -3.38047 0.240292 0
M  V30 3659 C 352.673 -4.18255 1.27991 0
M  V30 3660 C 351.732 -5.21625 0.692375 0
M  V30 3661 O 350.758 -5.52619 1.36385 0
M  V30 3662 N 351.96 -5.78201 -0.516178 0
M  V30 3663 H 354.725 -2.41642 1.77283 0
M  V30 3664 H 352.286 -1.21401 1.07115 0
M  V30 3665 H 354.278 -4.04359 -0.16603 0
M  V30 3666 H 352.848 -3.06972 -0.590487 0
M  V30 3667 H 352.068 -3.47451 1.86203 0
M  V30 3668 H 353.356 -4.68643 1.98119 0
M  V30 3669 H 352.754 -5.55301 -1.07969 0
M  V30 3670 H 351.311 -6.4604 -0.86458 0
M  V30 3671 N 354.744 -0.972509 -1.24016 0
M  V30 3672 C 355.674 -0.525548 -2.27509 0
M  V30 3673 C 356.655 0.437262 -1.64384 0
M  V30 3674 O 357.84 0.332343 -1.91335 0
M  V30 3675 C 354.97 0.180448 -3.46831 0
M  V30 3676 C 353.924 -0.698859 -4.22256 0
M  V30 3677 C 353.25 0.138903 -5.3452 0
M  V30 3678 C 354.55 -1.98582 -4.83076 0
M  V30 3679 H 356.244 -1.39058 -2.65148 0
M  V30 3680 H 353.79 -0.67009 -1.27459 0
M  V30 3681 H 355.743 0.504387 -4.18371 0
M  V30 3682 H 354.467 1.07987 -3.08231 0
M  V30 3683 H 353.126 -1.00614 -3.52523 0
M  V30 3684 H 352.774 1.03862 -4.9216 0
M  V30 3685 H 352.474 -0.446259 -5.85903 0
M  V30 3686 H 353.998 0.457404 -6.08884 0
M  V30 3687 H 355.412 -1.72715 -5.46665 0
M  V30 3688 H 353.809 -2.5181 -5.44713 0
M  V30 3689 H 354.879 -2.67769 -4.04262 0
M  V30 3690 N 356.222 1.38976 -0.743202 0
M  V30 3691 C 357.452 2.04339 -0.304807 0
M  V30 3692 C 357.86 1.56162 1.06819 0
M  V30 3693 O 357.203 0.725284 1.68776 0
M  V30 3694 C 357.265 3.58716 -0.237369 0
M  V30 3695 C 356.929 4.29905 -1.55018 0
M  V30 3696 C 357.926 4.55987 -2.49744 0
M  V30 3697 C 355.611 4.68294 -1.81675 0
M  V30 3698 C 357.605 5.19478 -3.69353 0
M  V30 3699 C 355.292 5.31512 -3.0156 0
M  V30 3700 C 356.29 5.57037 -3.9522 0
M  V30 3701 O 355.978 6.18941 -5.12998 0
M  V30 3702 H 355.71 0.663439 -0.12971 0
M  V30 3703 H 358.264 1.78852 -1.01001 0
M  V30 3704 H 356.494 3.83133 0.524003 0
M  V30 3705 H 358.183 4.05543 0.170121 0
M  V30 3706 H 358.949 4.26767 -2.30423 0
M  V30 3707 H 354.828 4.47779 -1.09615 0
M  V30 3708 H 358.372 5.39318 -4.42473 0
M  V30 3709 H 354.269 5.60153 -3.20778 0
M  V30 3710 H 355.037 6.37433 -5.13441 0
M  V30 3711 N 357.7 0.491464 1.49741 0
M  V30 3712 C 358.61 -0.296835 2.32715 0
M  V30 3713 C 359.626 -0.976536 1.44013 0
M  V30 3714 O 360.802 -0.960023 1.77047 0
M  V30 3715 C 357.867 -1.35288 3.19215 0
M  V30 3716 C 356.928 -0.687632 4.23757 0
M  V30 3717 C 356.161 -1.69336 5.06123 0
M  V30 3718 O 356.384 -2.92219 4.89861 0
M  V30 3719 O 355.318 -1.25394 5.88693 0
M  V30 3720 H 359.144 0.382048 3.01287 0
M  V30 3721 H 356.729 0.252953 1.47243 0
M  V30 3722 H 358.611 -1.96411 3.72828 0
M  V30 3723 H 357.286 -2.01487 2.53347 0
M  V30 3724 H 356.193 -0.0369159 3.74082 0
M  V30 3725 H 357.526 -0.0682566 4.92153 0
M  V30 3726 N 359.178 -1.55987 0.224894 0
M  V30 3727 C 360.424 -1.98684 -0.406502 0
M  V30 3728 C 360.757 -1.11248 -1.59177 0
M  V30 3729 O 360.032 -0.170909 -1.93748 0
M  V30 3730 C 360.315 -3.50218 -0.837808 0
M  V30 3731 C 360.168 -4.48426 0.351332 0
M  V30 3732 C 361.487 -4.06243 -1.69278 0
M  V30 3733 H 358.606 -0.722337 -0.146283 0
M  V30 3734 H 361.248 -1.87255 0.321799 0
M  V30 3735 H 359.398 -3.60089 -1.45837 0
M  V30 3736 H 361.07 -4.50562 0.989526 0
M  V30 3737 H 359.313 -4.22159 0.998207 0
M  V30 3738 H 359.984 -5.52 0.00655905 0
M  V30 3739 H 362.46 -3.99337 -1.16914 0
M  V30 3740 H 361.336 -5.12581 -1.96346 0
M  V30 3741 H 361.597 -3.53332 -2.65723 0
M  V30 3742 N 360.656 0.0484629 -1.57525 0
M  V30 3743 C 361.586 1.0549 -2.08313 0
M  V30 3744 C 362.567 1.38929 -0.981463 0
M  V30 3745 O 363.752 1.48151 -1.25558 0
M  V30 3746 C 360.882 2.36162 -2.54646 0
M  V30 3747 C 359.836 2.17016 -3.68901 0
M  V30 3748 C 359.162 3.53278 -4.01371 0
M  V30 3749 C 360.462 1.57219 -4.98076 0
M  V30 3750 H 362.156 0.632195 -2.92649 0
M  V30 3751 H 359.702 0.302654 -1.40784 0
M  V30 3752 H 361.655 3.06882 -2.88793 0
M  V30 3753 H 360.379 2.80456 -1.67368 0
M  V30 3754 H 359.038 1.48733 -3.35073 0
M  V30 3755 H 358.686 3.95185 -3.11188 0
M  V30 3756 H 358.386 3.41299 -4.78318 0
M  V30 3757 H 359.91 4.25391 -4.38035 0
M  V30 3758 H 361.324 2.17832 -5.30304 0
M  V30 3759 H 359.721 1.55871 -5.79503 0
M  V30 3760 H 360.791 0.535956 -4.81929 0
M  V30 3761 N 362.134 1.5431 0.320358 0
M  V30 3762 C 363.55 1.45091 0.664889 0
M  V30 3763 C 363.75 0.626382 1.91517 0
M  V30 3764 O 362.806 0.126443 2.52183 0
M  V30 3765 C 364.119 2.88848 0.83591 0
M  V30 3766 C 365.667 2.9877 0.933046 0
M  V30 3767 C 366.142 4.43683 1.13621 0
M  V30 3768 N 367.633 4.47309 1.20287 0
M  V30 3769 C 368.368 5.56595 1.37801 0
M  V30 3770 N 367.864 6.75844 1.52338 0
M  V30 3771 N 369.657 5.44248 1.40535 0
M  V30 3772 H 361.808 2.06398 -0.501374 0
M  V30 3773 H 364.071 0.933963 -0.162534 0
M  V30 3774 H 363.777 3.51698 -0.0116092 0
M  V30 3775 H 363.651 3.35148 1.73078 0
M  V30 3776 H 366.038 2.36045 1.77107 0
M  V30 3777 H 366.119 2.55796 0.0145782 0
M  V30 3778 H 365.763 5.06995 0.303032 0
M  V30 3779 H 365.693 4.84269 2.0686 0
M  V30 3780 H 368.184 3.61388 1.10485 0
M  V30 3781 H 368.497 7.54892 1.65403 0
M  V30 3782 H 366.842 6.78746 1.4943 0
M  V30 3783 H 370.033 4.50038 1.28777 0
M  V30 3784 H 370.206 6.29473 1.53842 0
M  V30 3785 N 363.613 -0.582584 1.46437 0
M  V30 3786 C 364.576 -1.67366 1.56592 0
M  V30 3787 C 365.576 -1.54575 0.443072 0
M  V30 3788 O 366.766 -1.59191 0.707381 0
M  V30 3789 C 363.898 -3.06791 1.48634 0
M  V30 3790 H 365.091 -1.5972 2.5383 0
M  V30 3791 H 362.644 -0.800432 1.34249 0
M  V30 3792 H 363.379 -3.19993 0.526763 0
M  V30 3793 H 363.164 -3.17484 2.30101 0
M  V30 3794 H 364.654 -3.86218 1.58826 0
M  V30 3795 N 365.091 -1.34144 -0.827227 0
M  V30 3796 C 366.339 -1.26009 -1.58007 0
M  V30 3797 C 366.66 0.170971 -1.94249 0
M  V30 3798 O 365.93 1.10256 -1.61927 0
M  V30 3799 H 364.51 -0.463414 -0.585881 0
M  V30 3800 H 367.172 -1.68005 -0.987951 0
M  V30 3801 H 366.268 -1.86187 -2.50481 0
M  V30 3802 N 366.569 1.04691 -1.17803 0
M  V30 3803 C 367.985 1.29963 -0.926379 0
M  V30 3804 C 368.185 1.97251 0.411635 0
M  V30 3805 O 367.241 2.24922 1.14744 0
M  V30 3806 C 368.554 2.16447 -2.08737 0
M  V30 3807 C 370.102 2.29814 -2.12496 0
M  V30 3808 C 370.577 3.19661 -3.27995 0
M  V30 3809 N 372.068 3.27247 -3.27816 0
M  V30 3810 C 372.803 3.96906 -4.13827 0
M  V30 3811 N 372.299 4.6895 -5.09959 0
M  V30 3812 N 374.092 3.93122 -4.01761 0
M  V30 3813 H 366.243 0.594182 -2.0392 0
M  V30 3814 H 368.506 0.324649 -0.890678 0
M  V30 3815 H 368.212 1.74304 -3.05469 0
M  V30 3816 H 368.086 3.17103 -2.04268 0
M  V30 3817 H 370.473 2.71196 -1.16347 0
M  V30 3818 H 370.554 1.2877 -2.21025 0
M  V30 3819 H 370.198 2.78991 -4.24413 0
M  V30 3820 H 370.128 4.20722 -3.16703 0
M  V30 3821 H 372.619 2.75921 -2.58217 0
M  V30 3822 H 372.932 5.19679 -5.71974 0
M  V30 3823 H 371.277 4.67875 -5.13924 0
M  V30 3824 H 374.468 3.35967 -3.2595 0
M  V30 3825 H 374.641 4.47139 -4.6901 0
M  V30 3826 N 368.047 0.979072 1.23499 0
M  V30 3827 C 368.994 0.517904 2.24914 0
M  V30 3828 C 369.964 -0.442525 1.60097 0
M  V30 3829 O 371.149 -0.350365 1.87556 0
M  V30 3830 C 368.289 -0.174813 3.44657 0
M  V30 3831 C 367.402 0.825721 4.24035 0
M  V30 3832 C 366.537 0.107946 5.3109 0
M  V30 3833 C 365.576 1.09778 6.02175 0
M  V30 3834 N 364.713 0.40925 7.00906 0
M  V30 3835 H 369.553 1.38751 2.63727 0
M  V30 3836 H 367.09 0.695303 1.2963 0
M  V30 3837 H 369.048 -0.593233 4.12961 0
M  V30 3838 H 367.678 -1.0083 3.06648 0
M  V30 3839 H 366.73 1.36253 3.55161 0
M  V30 3840 H 368.042 1.58005 4.73113 0
M  V30 3841 H 367.196 -0.367904 6.05583 0
M  V30 3842 H 365.935 -0.678994 4.8295 0
M  V30 3843 H 364.94 1.5844 5.26476 0
M  V30 3844 H 366.165 1.88536 6.52404 0
M  V30 3845 H 364.111 -0.358506 6.5502 0
M  V30 3846 H 364.028 1.10226 7.47921 0
M  V30 3847 H 365.296 -0.0442557 7.79487 0
M  V30 3848 N 369.525 -1.3858 0.750561 0
M  V30 3849 C 370.774 -1.99424 0.302172 0
M  V30 3850 C 371.087 -1.60254 -1.12152 0
M  V30 3851 O 372.293 -2.14046 -1.67023 0
M  V30 3852 C 370.749 -3.56558 0.489307 0
M  V30 3853 C 370.357 -4.04682 1.92189 0
M  V30 3854 C 372.101 -4.24374 0.103478 0
M  V30 3855 C 370.008 -5.54446 2.05775 0
M  V30 3856 H 368.938 -0.746046 0.10923 0
M  V30 3857 H 371.589 -1.58383 0.92667 0
M  V30 3858 H 369.971 -3.95472 -0.204329 0
M  V30 3859 H 371.145 -3.77065 2.64875 0
M  V30 3860 H 369.46 -3.4958 2.26236 0
M  V30 3861 H 372.057 -5.34384 0.183787 0
M  V30 3862 H 372.4 -4.05468 -0.943481 0
M  V30 3863 H 372.933 -3.90688 0.748854 0
M  V30 3864 H 369.672 -5.78252 3.08714 0
M  V30 3865 H 369.192 -5.83816 1.37546 0
M  V30 3866 H 370.871 -6.20099 1.84626 0
M  V30 3867 N 371.003 -0.499398 -1.49478 0
M  V30 3868 C 372.231 0.0425456 -2.06856 0
M  V30 3869 C 372.646 1.30964 -1.35992 0
M  V30 3870 O 372.003 1.77172 -0.437762 0
M  V30 3871 C 372.054 0.301735 -3.60239 0
M  V30 3872 O 371.775 -0.915127 -4.28436 0
M  V30 3873 C 373.276 0.887499 -4.34325 0
M  V30 3874 H 370.496 -0.0197482 -0.670709 0
M  V30 3875 H 373.04 -0.696297 -1.92281 0
M  V30 3876 H 371.195 0.990556 -3.74522 0
M  V30 3877 H 371.609 -0.676993 -5.20113 0
M  V30 3878 H 373.083 1.01845 -5.42523 0
M  V30 3879 H 373.56 1.88488 -3.96698 0
M  V30 3880 H 374.166 0.236196 -4.24644 0
M  V30 3881 N 372.481 1.55866 -0.233164 0
M  V30 3882 C 373.892 1.847 0.272554 0
M  V30 3883 C 374.243 1.15477 1.58617 0
M  V30 3884 O 373.368 0.42841 2.12117 0
M  V30 3885 C 373.963 3.35071 0.501299 0
M  V30 3886 C 372.522 3.6418 0.951304 0
M  V30 3887 C 371.669 2.77292 0.0208209 0
M  V30 3888 H 374.62 1.52005 -0.456074 0
M  V30 3889 H 374.641 3.55906 1.34577 0
M  V30 3890 H 374.153 3.85424 -0.454936 0
M  V30 3891 H 372.254 3.19293 1.92049 0
M  V30 3892 H 372.367 4.72071 0.817675 0
M  V30 3893 H 370.731 2.49131 0.529723 0
M  V30 3894 H 371.514 3.30448 -0.93054 0
M  V30 3895 N 373.959 -0.0401083 1.57549 0
M  V30 3896 C 375.375 -0.395556 1.54621 0
M  V30 3897 C 375.575 -1.77281 0.957799 0
M  V30 3898 O 374.631 -2.45888 0.574031 0
M  V30 3899 C 375.944 -0.307535 2.99123 0
M  V30 3900 C 377.492 -0.385425 3.10618 0
M  V30 3901 C 377.967 -0.326973 4.56831 0
M  V30 3902 N 379.458 -0.386102 4.61588 0
M  V30 3903 C 380.193 -0.363591 5.72246 0
M  V30 3904 N 379.689 -0.29402 6.92176 0
M  V30 3905 N 381.482 -0.412503 5.60584 0
M  V30 3906 H 373.633 0.861325 1.94152 0
M  V30 3907 H 375.896 0.326445 0.890021 0
M  V30 3908 H 375.602 0.638461 3.45856 0
M  V30 3909 H 375.476 -1.10552 3.60636 0
M  V30 3910 H 377.863 -1.32185 2.63839 0
M  V30 3911 H 377.944 0.44171 2.51957 0
M  V30 3912 H 377.588 0.605738 5.04275 0
M  V30 3913 H 377.518 -1.17207 5.13391 0
M  V30 3914 H 380.009 -0.442832 3.75296 0
M  V30 3915 H 380.322 -0.28164 7.72287 0
M  V30 3916 H 378.667 -0.260232 6.94513 0
M  V30 3917 H 381.858 -0.464769 4.65787 0
M  V30 3918 H 382.031 -0.391492 6.46816 0
M  V30 3919 N 375.437 -1.54477 -0.31217 0
M  V30 3920 C 376.367 -1.87652 -1.38957 0
M  V30 3921 C 377.348 -0.734358 -1.53431 0
M  V30 3922 O 378.533 -0.98911 -1.67123 0
M  V30 3923 C 375.663 -2.11396 -2.75552 0
M  V30 3924 C 374.617 -3.27243 -2.75855 0
M  V30 3925 C 373.943 -3.36382 -4.15633 0
M  V30 3926 C 375.243 -4.64622 -2.38587 0
M  V30 3927 H 376.937 -2.77887 -1.11442 0
M  V30 3928 H 374.483 -1.33707 -0.534655 0
M  V30 3929 H 376.436 -2.33189 -3.51 0
M  V30 3930 H 375.16 -1.17921 -3.04569 0
M  V30 3931 H 373.819 -3.05356 -2.02863 0
M  V30 3932 H 373.467 -2.40445 -4.41809 0
M  V30 3933 H 373.167 -4.14249 -4.1674 0
M  V30 3934 H 374.691 -3.60422 -4.92877 0
M  V30 3935 H 376.105 -4.86219 -3.03749 0
M  V30 3936 H 374.502 -5.45121 -2.50925 0
M  V30 3937 H 375.572 -4.66097 -1.33723 0
M  V30 3938 N 376.915 0.57481 -1.46744 0
M  V30 3939 C 377.845 1.69337 -1.60771 0
M  V30 3940 C 378.826 1.63825 -0.457736 0
M  V30 3941 O 380.011 1.8172 -0.684947 0
M  V30 3942 C 377.141 3.0798 -1.60517 0
M  V30 3943 C 376.095 3.28327 -2.74564 0
M  V30 3944 C 375.421 4.67578 -2.59373 0
M  V30 3945 C 376.721 3.15398 -4.16319 0
M  V30 3946 H 378.415 1.57853 -2.54407 0
M  V30 3947 H 375.961 0.75799 -1.22436 0
M  V30 3948 H 377.914 3.86061 -1.68923 0
M  V30 3949 H 376.638 3.20381 -0.634305 0
M  V30 3950 H 375.297 2.52649 -2.65639 0
M  V30 3951 H 374.945 4.76755 -1.60353 0
M  V30 3952 H 374.645 4.82144 -3.35873 0
M  V30 3953 H 376.169 5.47817 -2.69682 0
M  V30 3954 H 377.583 3.83315 -4.26313 0
M  V30 3955 H 375.98 3.41482 -4.93468 0
M  V30 3956 H 377.05 2.12372 -4.3592 0
M  V30 3957 N 378.394 1.34581 0.820102 0
M  V30 3958 C 379.64 1.27285 1.57881 0
M  V30 3959 C 379.973 -0.156137 1.93571 0
M  V30 3960 O 379.248 -1.10222 1.60254 0
M  V30 3961 C 379.531 2.16639 2.87645 0
M  V30 3962 C 379.384 3.68088 2.58517 0
M  V30 3963 C 380.703 2.05378 3.8924 0
M  V30 3964 H 377.822 0.463714 0.572833 0
M  V30 3965 H 380.464 1.64859 0.944539 0
M  V30 3966 H 378.614 1.84725 3.41773 0
M  V30 3967 H 380.286 4.10382 2.10676 0
M  V30 3968 H 378.529 3.89038 1.91917 0
M  V30 3969 H 379.2 4.2598 3.51063 0
M  V30 3970 H 381.676 2.33404 3.44473 0
M  V30 3971 H 380.552 2.7012 4.77835 0
M  V30 3972 H 380.813 1.0316 4.29896 0
M  V30 3973 N 379.872 -1.04064 1.18357 0
M  V30 3974 C 381.149 -1.74252 0.888581 0
M  V30 3975 C 381.529 -2.02138 -0.60856 0
M  V30 3976 O 380.877 -1.66656 -1.56327 0
M  V30 3977 C 381.087 -3.0277 1.73584 0
M  V30 3978 C 382.435 -3.76506 1.96286 0
M  V30 3979 O 383.459 -3.12668 1.70637 0
M  V30 3980 O 382.318 -4.91243 2.39464 0
M  V30 3981 H 379.412 -0.758271 0.330082 0
M  V30 3982 H 381.958 -1.1013 1.2911 0
M  V30 3983 H 380.73 -2.78299 2.75073 0
M  V30 3984 H 380.353 -3.74631 1.33183 0
M  V30 3985 N 381.35 -0.985608 -1.22978 0
M  V30 3986 C 382.596 -0.667998 -1.92118 0
M  V30 3987 C 382.951 0.790454 -1.75413 0
M  V30 3988 O 382.244 1.56336 -1.10768 0
M  V30 3989 C 382.438 -1.00014 -3.43121 0
M  V30 3990 C 382.267 -2.48933 -3.74516 0
M  V30 3991 C 381.037 -3.15218 -3.94925 0
M  V30 3992 C 383.235 -3.47024 -3.79577 0
M  V30 3993 N 381.217 -4.53689 -4.13569 0
M  V30 3994 C 382.588 -4.70923 -4.03276 0
M  V30 3995 C 384.643 -3.41432 -3.62393 0
M  V30 3996 C 383.346 -5.89914 -4.11574 0
M  V30 3997 C 385.372 -4.59793 -3.71947 0
M  V30 3998 C 384.734 -5.82489 -3.96088 0
M  V30 3999 H 380.833 -0.295589 -0.723983 0
M  V30 4000 H 383.417 -1.26413 -1.4808 0
M  V30 4001 H 381.588 -0.432655 -3.85983 0
M  V30 4002 H 383.32 -0.63927 -3.99619 0
M  V30 4003 H 380.075 -2.65702 -3.92045 0
M  V30 4004 H 380.499 -5.25492 -4.26834 0
M  V30 4005 H 385.141 -2.47594 -3.4272 0
M  V30 4006 H 382.859 -6.84164 -4.30053 0
M  V30 4007 H 386.445 -4.57048 -3.59998 0
M  V30 4008 H 385.325 -6.72546 -4.033 0
M  V30 4009 N 382.828 1.3818 -0.7579 0
M  V30 4010 C 384.053 2.04827 -0.325679 0
M  V30 4011 C 384.478 1.56788 1.03919 0
M  V30 4012 O 383.836 0.721811 1.66312 0
M  V30 4013 C 383.884 3.58774 -0.362447 0
M  V30 4014 O 382.988 4.07372 0.642033 0
M  V30 4015 H 382.329 0.64833 -0.143402 0
M  V30 4016 H 384.859 1.7677 -1.03023 0
M  V30 4017 H 384.869 4.07434 -0.214844 0
M  V30 4018 H 383.544 3.93096 -1.35824 0
M  V30 4019 H 382.121 3.70068 0.458688 0
M  V30 4020 N 384.306 0.507319 1.49211 0
M  V30 4021 C 385.534 -0.0315749 2.06876 0
M  V30 4022 C 385.949 -1.30241 1.36685 0
M  V30 4023 O 385.306 -1.76937 0.447152 0
M  V30 4024 C 385.357 -0.282627 3.60393 0
M  V30 4025 O 385.078 0.937835 4.27944 0
M  V30 4026 C 386.579 -0.864453 4.3479 0
M  V30 4027 H 383.799 0.0233048 0.670595 0
M  V30 4028 H 386.343 0.706484 1.91909 0
M  V30 4029 H 384.498 -0.97068 3.75042 0
M  V30 4030 H 384.912 0.704567 5.19746 0
M  V30 4031 H 386.386 -0.989664 5.43056 0
M  V30 4032 H 386.863 -1.86382 3.97692 0
M  V30 4033 H 387.469 -0.213672 4.24763 0
M  V30 4034 N 385.784 -1.5574 0.241426 0
M  V30 4035 C 387.032 -1.98417 -0.384075 0
M  V30 4036 C 387.353 -1.13078 -1.58866 0
M  V30 4037 O 386.623 -0.212312 -1.94746 0
M  V30 4038 H 385.203 -0.732813 -0.144894 0
M  V30 4039 H 387.865 -1.9193 0.338943 0
M  V30 4040 H 386.961 -3.04219 -0.696939 0
M  V30 4041 N 387.262 0.0317525 -1.57568 0
M  V30 4042 C 388.511 0.722131 -1.8833 0
M  V30 4043 C 388.824 1.76664 -0.839587 0
M  V30 4044 O 390.03 2.50942 -1.03635 0
M  V30 4045 C 388.486 1.33544 -3.34207 0
M  V30 4046 C 388.094 0.327415 -4.46802 0
M  V30 4047 C 389.838 2.00585 -3.7412 0
M  V30 4048 C 387.745 0.948915 -5.83738 0
M  V30 4049 H 386.675 0.273466 -0.702661 0
M  V30 4050 H 389.326 -0.0235811 -1.83485 0
M  V30 4051 H 387.708 2.13077 -3.33788 0
M  V30 4052 H 388.882 -0.441006 -4.58685 0
M  V30 4053 H 387.197 -0.240758 -4.15703 0
M  V30 4054 H 389.794 2.47932 -4.73744 0
M  V30 4055 H 390.137 2.82285 -3.05975 0
M  V30 4056 H 390.67 1.27831 -3.76702 0
M  V30 4057 H 387.409 0.171387 -6.55276 0
M  V30 4058 H 386.929 1.68724 -5.7558 0
M  V30 4059 H 388.608 1.45705 -6.3038 0
M  V30 4060 N 388.74 1.54641 0.303973 0
M  V30 4061 C 389.703 1.84646 1.35789 0
M  V30 4062 C 390.703 0.7192 1.4382 0
M  V30 4063 O 391.893 0.987491 1.43507 0
M  V30 4064 C 389.025 2.02407 2.74307 0
M  V30 4065 H 390.218 2.78829 1.10429 0
M  V30 4066 H 387.771 1.46658 0.540487 0
M  V30 4067 H 388.506 1.10502 3.04893 0
M  V30 4068 H 388.291 2.84453 2.69868 0
M  V30 4069 H 389.781 2.27002 3.50514 0
M  V30 4070 N 390.218 -0.567019 1.47046 0
M  V30 4071 C 391.443 -1.3551 1.57009 0
M  V30 4072 C 391.868 -1.86841 0.217259 0
M  V30 4073 O 391.226 -1.62435 -0.805268 0
M  V30 4074 C 391.274 -2.50777 2.5912 0
M  V30 4075 O 390.378 -3.52706 2.13711 0
M  V30 4076 H 389.719 -0.402919 0.52778 0
M  V30 4077 H 392.249 -0.686241 1.92748 0
M  V30 4078 H 392.259 -2.97481 2.79229 0
M  V30 4079 H 390.934 -2.12771 3.57353 0
M  V30 4080 H 389.511 -3.12374 2.03659 0
M  V30 4081 N 391.696 -1.35014 -0.812953 0
M  V30 4082 C 392.944 -1.27678 -1.56661 0
M  V30 4083 C 393.265 0.150359 -1.94419 0
M  V30 4084 O 392.535 1.08532 -1.63088 0
M  V30 4085 H 391.115 -0.469602 -0.580933 0
M  V30 4086 H 393.777 -1.69043 -0.970076 0
M  V30 4087 H 392.873 -1.88833 -2.48492 0
M  V30 4088 N 393.175 1.03435 -1.18907 0
M  V30 4089 C 394.108 2.11162 -0.86521 0
M  V30 4090 C 395.086 1.6165 0.175473 0
M  V30 4091 O 396.27 1.88425 0.0530129 0
M  V30 4092 C 393.397 3.37423 -0.293868 0
M  V30 4093 C 392.443 4.05795 -1.31274 0
M  V30 4094 S 393.276 4.52027 -2.8711 0
M  V30 4095 C 394.432 5.81513 -2.31504 0
M  V30 4096 H 394.665 2.38308 -1.77754 0
M  V30 4097 H 392.198 1.16295 -1.01562 0
M  V30 4098 H 394.156 4.1049 0.0292572 0
M  V30 4099 H 392.817 3.0838 0.596682 0
M  V30 4100 H 392.01 4.96574 -0.86198 0
M  V30 4101 H 391.612 3.38874 -1.58242 0
M  V30 4102 H 393.904 6.55784 -1.70157 0
M  V30 4103 H 394.847 6.3136 -3.20608 0
M  V30 4104 H 395.255 5.36921 -1.74286 0
M  V30 4105 N 394.653 0.992116 1.22453 0
M  V30 4106 C 395.601 0.534644 2.26372 0
M  V30 4107 C 396.595 -0.414293 1.64256 0
M  V30 4108 O 397.801 -0.286899 1.77699 0
M  V30 4109 H 394.176 0.154502 0.735957 0
M  V30 4110 H 396.147 1.42256 2.62309 0
M  V30 4111 C 394.896 -0.135815 3.47435 0
M  V30 4112 H 394.219 0.585311 3.95492 0
M  V30 4113 H 395.659 -0.419374 4.21921 0
M  V30 4114 C 394.118 -1.37089 3.07747 0
M  V30 4115 O 394.648 -2.46629 3.17076 0
M  V30 4116 N 392.854 -1.24585 2.62539 0
M  V30 4117 H 392.401 -0.354542 2.55149 0
M  V30 4118 H 392.359 -2.07327 2.36353 0
M  V30 4119 N 396.131 -1.37776 0.765217 0
M  V30 4120 C 397.361 -2.03828 0.337277 0
M  V30 4121 C 397.769 -1.57841 -1.04321 0
M  V30 4122 O 397.112 -0.752043 -1.67601 0
M  V30 4123 C 397.174 -3.58292 0.294407 0
M  V30 4124 C 396.838 -4.27384 1.61838 0
M  V30 4125 C 397.835 -4.51956 2.56967 0
M  V30 4126 C 395.52 -4.65345 1.89102 0
M  V30 4127 C 397.514 -5.13536 3.77571 0
M  V30 4128 C 395.201 -5.26647 3.09978 0
M  V30 4129 C 396.199 -5.50679 4.04032 0
M  V30 4130 O 395.887 -6.10702 5.2278 0
M  V30 4131 H 395.619 -0.661292 0.140248 0
M  V30 4132 H 398.173 -1.77222 1.03834 0
M  V30 4133 H 396.403 -3.83918 -0.462983 0
M  V30 4134 H 398.092 -4.05763 -0.105581 0
M  V30 4135 H 398.858 -4.23048 2.37183 0
M  V30 4136 H 394.737 -4.45978 1.16725 0
M  V30 4137 H 398.281 -5.3221 4.50997 0
M  V30 4138 H 394.178 -5.54979 3.29649 0
M  V30 4139 H 394.946 -6.29183 5.23517 0
M  V30 4140 N 397.609 -0.515225 -1.4894 0
M  V30 4141 C 398.539 0.244628 -2.32215 0
M  V30 4142 C 399.52 0.949136 -1.41157 0
M  V30 4143 O 400.705 0.937783 -1.70057 0
M  V30 4144 C 397.835 1.30096 -3.22013 0
M  V30 4145 C 396.789 0.715486 -4.21977 0
M  V30 4146 C 396.115 1.87339 -5.00808 0
M  V30 4147 C 397.415 -0.302982 -5.2142 0
M  V30 4148 H 399.109 -0.450501 -2.95991 0
M  V30 4149 H 396.655 -0.218098 -1.42339 0
M  V30 4150 H 398.608 1.84037 -3.79089 0
M  V30 4151 H 397.332 2.02547 -2.56207 0
M  V30 4152 H 395.991 0.197715 -3.66066 0
M  V30 4153 H 395.639 2.58592 -4.31438 0
M  V30 4154 H 395.339 1.48764 -5.68457 0
M  V30 4155 H 396.863 2.41686 -5.60732 0
M  V30 4156 H 398.277 0.148802 -5.73107 0
M  V30 4157 H 396.674 -0.60532 -5.97039 0
M  V30 4158 H 397.744 -1.21395 -4.69459 0
M  V30 4159 N 399.087 1.5561 -0.249682 0
M  V30 4160 C 400.037 2.18157 0.662673 0
M  V30 4161 C 401.021 1.1383 1.13717 0
M  V30 4162 O 402.213 1.39731 1.08648 0
M  V30 4163 C 399.342 2.88672 1.85805 0
M  V30 4164 C 398.428 4.00258 1.40193 0
M  V30 4165 N 398.819 5.01473 0.660213 0
M  V30 4166 C 397.117 4.12864 1.68698 0
M  V30 4167 C 397.818 5.80155 0.423695 0
M  V30 4168 N 396.794 5.34533 0.988721 0
M  V30 4169 H 400.596 2.93769 0.0878688 0
M  V30 4170 H 398.11 1.62316 -0.0521183 0
M  V30 4171 H 400.107 3.31912 2.5227 0
M  V30 4172 H 398.767 2.14564 2.43705 0
M  V30 4173 H 399.778 5.16971 0.310047 0
M  V30 4174 H 396.455 3.4993 2.27717 0
M  V30 4175 H 397.845 6.71688 -0.168616 0
M  V30 4176 N 400.565 -0.0233959 1.57583 0
M  V30 4177 C 401.495 -1.02162 2.09965 0
M  V30 4178 C 402.476 -1.3735 1.00344 0
M  V30 4179 O 403.661 -1.46135 1.27899 0
M  V30 4180 C 400.791 -2.32081 2.58371 0
M  V30 4181 C 399.745 -2.1112 3.72307 0
M  V30 4182 C 399.071 -3.46848 4.06941 0
M  V30 4183 C 400.371 -1.49276 5.00514 0
M  V30 4184 H 402.065 -0.585557 2.93618 0
M  V30 4185 H 399.611 -0.280218 1.41247 0
M  V30 4186 H 401.564 -3.02249 2.93639 0
M  V30 4187 H 400.288 -2.77758 1.71808 0
M  V30 4188 H 398.947 -1.43384 3.37397 0
M  V30 4189 H 398.595 -3.90184 3.17436 0
M  V30 4190 H 398.295 -3.33646 4.83688 0
M  V30 4191 H 399.819 -4.18369 4.44747 0
M  V30 4192 H 401.233 -2.09368 5.33702 0
M  V30 4193 H 399.63 -1.46632 5.8191 0
M  V30 4194 H 400.7 -0.459217 4.82721 0
M  V30 4195 N 402.043 -1.548 -0.295768 0
M  V30 4196 C 402.993 -1.82497 -1.3667 0
M  V30 4197 C 403.977 -0.682434 -1.45711 0
M  V30 4198 O 405.169 -0.943207 -1.49775 0
M  V30 4199 C 402.298 -2.08036 -2.73086 0
M  V30 4200 C 401.384 -3.28488 -2.68247 0
M  V30 4201 N 401.775 -4.48924 -2.33025 0
M  V30 4202 C 400.073 -3.3062 -2.99343 0
M  V30 4203 C 400.774 -5.30956 -2.37613 0
M  V30 4204 N 399.75 -4.68805 -2.75178 0
M  V30 4205 H 403.552 -2.73175 -1.0841 0
M  V30 4206 H 401.066 -1.5437 -0.504361 0
M  V30 4207 H 403.063 -2.26027 -3.5031 0
M  V30 4208 H 401.723 -1.18629 -3.02254 0
M  V30 4209 H 402.734 -4.75432 -2.05389 0
M  V30 4210 H 399.411 -2.51336 -3.33371 0
M  V30 4211 H 400.801 -6.37199 -2.13135 0
M  V30 4212 N 403.521 0.559213 -1.47345 0
M  V30 4213 C 404.468 1.66645 -1.59682 0
M  V30 4214 C 405.438 1.60168 -0.43994 0
M  V30 4215 O 406.623 1.79031 -0.659736 0
M  V30 4216 C 403.763 3.04969 -1.61518 0
M  V30 4217 C 402.876 3.21897 -2.88108 0
M  V30 4218 C 402.011 4.50608 -2.81294 0
M  V30 4219 C 401.05 4.60961 -4.02717 0
M  V30 4220 N 400.187 5.81024 -3.94151 0
M  V30 4221 H 405.027 1.55439 -2.54249 0
M  V30 4222 H 402.564 0.757219 -1.26113 0
M  V30 4223 H 404.522 3.85064 -1.60566 0
M  V30 4224 H 403.152 3.15015 -0.704645 0
M  V30 4225 H 402.204 2.35248 -2.98936 0
M  V30 4226 H 403.516 3.25412 -3.78032 0
M  V30 4227 H 402.67 5.3896 -2.7858 0
M  V30 4228 H 401.409 4.49568 -1.89049 0
M  V30 4229 H 400.414 3.71021 -4.05738 0
M  V30 4230 H 401.639 4.63761 -4.96087 0
M  V30 4231 H 399.585 5.80938 -3.04708 0
M  V30 4232 H 399.502 5.85909 -4.77752 0
M  V30 4233 H 400.77 6.71744 -3.9545 0
M  V30 4234 N 404.999 1.35443 0.805782 0
M  V30 4235 C 406.248 1.28097 1.55801 0
M  V30 4236 C 406.561 -0.142428 1.95081 0
M  V30 4237 O 407.767 -0.33817 2.69386 0
M  V30 4238 C 406.223 2.24653 2.81174 0
M  V30 4239 C 405.831 3.72342 2.49129 0
M  V30 4240 C 407.575 2.2625 3.59181 0
M  V30 4241 C 405.482 4.60719 3.70799 0
M  V30 4242 H 404.412 0.475937 0.584808 0
M  V30 4243 H 407.063 1.60712 0.885661 0
M  V30 4244 H 405.445 1.85011 3.50124 0
M  V30 4245 H 406.619 4.20624 1.88181 0
M  V30 4246 H 404.934 3.73361 1.84366 0
M  V30 4247 H 407.531 2.89495 4.49552 0
M  V30 4248 H 407.874 1.26647 3.96568 0
M  V30 4249 H 408.407 2.64426 2.97193 0
M  V30 4250 H 405.146 5.61324 3.3852 0
M  V30 4251 H 404.666 4.17163 4.3097 0
M  V30 4252 H 406.345 4.76182 4.38018 0
M  V30 4253 N 406.477 -1.02803 1.19454 0
M  V30 4254 C 407.726 -1.7562 0.991996 0
M  V30 4255 C 408.039 -1.89672 -0.477901 0
M  V30 4256 O 409.245 -2.59468 -0.799287 0
M  V30 4257 C 407.701 -3.15812 1.72601 0
M  V30 4258 C 407.309 -3.0981 3.23607 0
M  V30 4259 C 409.053 -3.92918 1.60674 0
M  V30 4260 C 406.96 -4.44939 3.89594 0
M  V30 4261 H 405.89 -0.658352 0.367543 0
M  V30 4262 H 408.541 -1.15044 1.42959 0
M  V30 4263 H 406.923 -3.7686 1.21624 0
M  V30 4264 H 408.097 -2.58138 3.81709 0
M  V30 4265 H 406.412 -2.46201 3.35819 0
M  V30 4266 H 409.009 -4.9287 2.07323 0
M  V30 4267 H 409.352 -4.12502 0.561025 0
M  V30 4268 H 409.885 -3.38472 2.09001 0
M  V30 4269 H 406.624 -4.30559 4.94267 0
M  V30 4270 H 406.144 -4.96664 3.36281 0
M  V30 4271 H 407.823 -5.1382 3.93189 0
M  V30 4272 N 407.956 -0.998596 -1.21925 0
M  V30 4273 C 408.906 -0.524743 -2.21879 0
M  V30 4274 C 409.89 0.41017 -1.55584 0
M  V30 4275 O 411.082 0.236063 -1.75419 0
M  V30 4276 C 408.211 0.153636 -3.42956 0
M  V30 4277 C 407.297 -0.801918 -4.16449 0
M  V30 4278 N 407.688 -1.95211 -4.66611 0
M  V30 4279 C 405.986 -0.618972 -4.41684 0
M  V30 4280 C 406.687 -2.55234 -5.22715 0
M  V30 4281 N 405.663 -1.83451 -5.1171 0
M  V30 4282 H 409.465 -1.40189 -2.58311 0
M  V30 4283 H 406.979 -0.86159 -1.3766 0
M  V30 4284 H 408.976 0.510534 -4.13762 0
M  V30 4285 H 407.636 1.02684 -3.08036 0
M  V30 4286 H 408.647 -2.33271 -4.62391 0
M  V30 4287 H 405.324 0.207694 -4.16983 0
M  V30 4288 H 406.714 -3.52471 -5.72026 0
M  V30 4289 N 409.434 1.37368 -0.772513 0
M  V30 4290 C 410.85 1.53059 -0.452231 0
M  V30 4291 C 411.05 1.73065 1.03203 0
M  V30 4292 O 410.106 1.75245 1.81784 0
M  V30 4293 C 411.419 2.72659 -1.26797 0
M  V30 4294 C 412.967 2.86521 -1.25995 0
M  V30 4295 C 413.442 4.09105 -2.05905 0
M  V30 4296 N 414.933 4.16219 -2.03263 0
M  V30 4297 C 415.668 5.10107 -2.61875 0
M  V30 4298 N 415.164 6.09547 -3.29278 0
M  V30 4299 N 416.957 5.02596 -2.51701 0
M  V30 4300 H 409.108 1.22634 -1.7342 0
M  V30 4301 H 411.371 0.597206 -0.736239 0
M  V30 4302 H 411.077 2.64343 -2.31982 0
M  V30 4303 H 410.951 3.66363 -0.897672 0
M  V30 4304 H 413.338 2.94308 -0.216081 0
M  V30 4305 H 413.419 1.93774 -1.66989 0
M  V30 4306 H 413.063 4.0208 -3.10313 0
M  V30 4307 H 412.993 5.00968 -1.62292 0
M  V30 4308 H 415.484 3.45012 -1.54192 0
M  V30 4309 H 415.797 6.77718 -3.71374 0
M  V30 4310 H 414.142 6.09824 -3.33377 0
M  V30 4311 H 417.333 4.23855 -1.98657 0
M  V30 4312 H 417.506 5.75582 -2.97673 0
M  V30 4313 N 410.912 0.523116 1.48665 0
M  V30 4314 C 412.189 -0.0775449 1.95446 0
M  V30 4315 C 412.569 -1.5197 1.4652 0
M  V30 4316 O 411.917 -2.17876 0.688657 0
M  V30 4317 C 412.127 0.0326135 3.48985 0
M  V30 4318 C 413.475 -0.130141 4.24401 0
M  V30 4319 O 414.499 -0.0415142 3.56176 0
M  V30 4320 O 413.358 -0.31491 5.45592 0
M  V30 4321 H 410.452 -0.0831012 0.822814 0
M  V30 4322 H 412.998 0.587227 1.59216 0
M  V30 4323 H 411.77 1.03748 3.77296 0
M  V30 4324 H 411.393 -0.671317 3.91892 0
M  V30 4325 N 412.39 -1.55475 0.257931 0
M  V30 4326 C 413.32 -2.24815 -0.630912 0
M  V30 4327 C 414.301 -1.23224 -1.17259 0
M  V30 4328 O 415.486 -1.51904 -1.20991 0
M  V30 4329 C 412.616 -2.95609 -1.82298 0
M  V30 4330 C 411.57 -4.03982 -1.41359 0
M  V30 4331 C 410.896 -4.6226 -2.68738 0
M  V30 4332 C 412.196 -5.19109 -0.57648 0
M  V30 4333 H 413.89 -2.99354 -0.0526878 0
M  V30 4334 H 411.436 -1.4398 -0.023901 0
M  V30 4335 H 413.389 -3.42822 -2.45054 0
M  V30 4336 H 412.113 -2.18577 -2.42676 0
M  V30 4337 H 410.772 -3.57555 -0.809324 0
M  V30 4338 H 410.42 -3.81915 -3.27338 0
M  V30 4339 H 410.12 -5.35424 -2.42065 0
M  V30 4340 H 411.644 -5.12212 -3.32372 0
M  V30 4341 H 413.058 -5.62479 -1.10861 0
M  V30 4342 H 411.455 -5.98729 -0.405351 0
M  V30 4343 H 412.525 -4.83174 0.408776 0
M  V30 4344 N 413.868 0.0150385 -1.57593 0
M  V30 4345 C 414.815 1.01126 -2.07466 0
M  V30 4346 C 415.785 1.35064 -0.966794 0
M  V30 4347 O 416.97 1.4516 -1.23827 0
M  V30 4348 C 414.11 2.30276 -2.57035 0
M  V30 4349 C 413.223 2.02373 -3.81666 0
M  V30 4350 C 412.358 3.25496 -4.19793 0
M  V30 4351 C 411.397 2.93211 -5.37303 0
M  V30 4352 N 410.534 4.08826 -5.70794 0
M  V30 4353 H 415.374 0.57901 -2.92321 0
M  V30 4354 H 412.911 0.27426 -1.44521 0
M  V30 4355 H 414.869 3.05757 -2.83846 0
M  V30 4356 H 413.499 2.71197 -1.75077 0
M  V30 4357 H 412.551 1.17327 -3.61854 0
M  V30 4358 H 413.863 1.74567 -4.67256 0
M  V30 4359 H 413.017 4.09333 -4.47807 0
M  V30 4360 H 411.756 3.56428 -3.32882 0
M  V30 4361 H 410.761 2.07777 -5.09027 0
M  V30 4362 H 411.986 2.63542 -6.25877 0
M  V30 4363 H 409.932 4.39682 -4.86842 0
M  V30 4364 H 409.849 3.84491 -6.50924 0
M  V30 4365 H 411.117 4.93496 -6.03392 0
M  V30 4366 N 415.346 1.54954 0.287554 0
M  V30 4367 C 416.571 1.79209 1.04397 0
M  V30 4368 C 416.996 0.556431 1.79682 0
M  V30 4369 O 416.354 -0.493518 1.74454 0
M  V30 4370 C 416.402 3.00739 1.98969 0
M  V30 4371 O 415.506 2.74805 3.075 0
M  V30 4372 H 414.847 0.592755 0.299227 0
M  V30 4373 H 417.377 2.02068 0.320886 0
M  V30 4374 H 417.387 3.29077 2.4119 0
M  V30 4375 H 416.062 3.90329 1.43582 0
M  V30 4376 H 414.639 2.57523 2.69697 0
M  V30 4377 N 416.824 -0.551391 1.4764 0
M  V30 4378 C 418.235 -1.13349 1.48354 0
M  V30 4379 C 418.586 -1.94709 0.241432 0
M  V30 4380 O 417.711 -2.06306 -0.653205 0
M  V30 4381 C 418.306 -2.0623 2.68802 0
M  V30 4382 C 416.865 -2.597 2.72457 0
M  V30 4383 C 416.012 -1.36201 2.41546 0
M  V30 4384 H 418.963 -0.337698 1.55065 0
M  V30 4385 H 418.984 -2.90196 2.46103 0
M  V30 4386 H 418.496 -1.46987 3.59188 0
M  V30 4387 H 416.597 -3.22724 1.86225 0
M  V30 4388 H 416.71 -3.00296 3.73308 0
M  V30 4389 H 415.074 -1.67068 1.9225 0
M  V30 4390 H 415.857 -0.787425 3.34147 0
M  V30 4391 N 418.302 -1.35869 -0.798587 0
M  V30 4392 C 419.25 -1.29491 -1.93222 0
M  V30 4393 C 420.244 -0.18836 -1.6835 0
M  V30 4394 O 421.45 -0.354822 -1.76468 0
M  V30 4395 H 417.825 -0.402901 -0.63496 0
M  V30 4396 H 419.796 -2.25247 -1.9572 0
M  V30 4397 C 418.545 -1.09184 -3.30112 0
M  V30 4398 H 417.868 -1.93574 -3.49813 0
M  V30 4399 H 419.308 -1.08766 -4.09812 0
M  V30 4400 C 417.767 0.203959 -3.36282 0
M  V30 4401 O 418.297 1.19699 -3.83451 0
M  V30 4402 N 416.503 0.245488 -2.89561 0
M  V30 4403 H 416.05 -0.563223 -2.51367 0
M  V30 4404 H 416.008 1.11219 -2.94071 0
M  V30 4405 N 419.78 1.02168 -1.19998 0
M  V30 4406 C 421.026 1.75945 -1.00852 0
M  V30 4407 C 421.359 1.88702 0.458828 0
M  V30 4408 O 420.634 1.40911 1.34069 0
M  V30 4409 C 420.917 3.18154 -1.68671 0
M  V30 4410 C 420.77 3.13224 -3.22817 0
M  V30 4411 C 422.089 4.16711 -1.41561 0
M  V30 4412 H 419.208 0.638673 -0.367785 0
M  V30 4413 H 421.85 1.19222 -1.4794 0
M  V30 4414 H 420 3.66586 -1.28636 0
M  V30 4415 H 421.672 2.72635 -3.72112 0
M  V30 4416 H 419.915 2.50751 -3.53986 0
M  V30 4417 H 420.586 4.13728 -3.65422 0
M  V30 4418 H 423.062 3.76913 -1.76284 0
M  V30 4419 H 421.938 5.14391 -1.91553 0
M  V30 4420 H 422.199 4.40774 -0.342193 0
M  V30 4421 N 421.258 1.00505 1.21394 0
M  V30 4422 C 422.188 0.585684 2.26035 0
M  V30 4423 C 423.169 -0.393525 1.65485 0
M  V30 4424 O 424.354 -0.281497 1.92149 0
M  V30 4425 C 421.484 -0.0884283 3.47187 0
M  V30 4426 C 420.438 0.810567 4.20254 0
M  V30 4427 C 419.764 0.00286382 5.347 0
M  V30 4428 C 421.064 2.1132 4.77641 0
M  V30 4429 H 422.758 1.46039 2.61368 0
M  V30 4430 H 420.304 0.703648 1.25638 0
M  V30 4431 H 422.257 -0.393286 4.19561 0
M  V30 4432 H 420.981 -0.997766 3.10986 0
M  V30 4433 H 419.64 1.09925 3.49731 0
M  V30 4434 H 419.288 -0.907765 4.94741 0
M  V30 4435 H 418.988 0.601444 5.84514 0
M  V30 4436 H 420.512 -0.295808 6.09883 0
M  V30 4437 H 421.926 1.87148 5.41893 0
M  V30 4438 H 420.323 2.66164 5.37845 0
M  V30 4439 H 421.393 2.78393 3.9702 0
M  V30 4440 N 422.737 -1.36956 0.779787 0
M  V30 4441 C 423.983 -1.99787 0.348281 0
M  V30 4442 C 424.316 -1.61756 -1.07465 0
M  V30 4443 O 423.591 -0.867639 -1.74075 0
M  V30 4444 C 423.874 -3.56597 0.50104 0
M  V30 4445 C 423.727 -4.04513 1.96697 0
M  V30 4446 C 425.046 -4.40008 -0.0898097 0
M  V30 4447 H 422.165 -0.725796 0.128022 0
M  V30 4448 H 424.807 -1.62514 0.984331 0
M  V30 4449 H 422.957 -3.88479 -0.0404347 0
M  V30 4450 H 424.629 -3.83161 2.56876 0
M  V30 4451 H 422.872 -3.56408 2.47297 0
M  V30 4452 H 423.543 -5.1352 2.02486 0
M  V30 4453 H 426.019 -4.14431 0.372293 0
M  V30 4454 H 424.895 -5.4888 0.0471605 0
M  V30 4455 H 425.156 -4.26035 -1.18096 0
M  V30 4456 N 424.215 -0.530993 -1.48385 0
M  V30 4457 C 425.443 -0.00134122 -2.069 0
M  V30 4458 C 425.858 1.2805 -1.3874 0
M  V30 4459 O 425.215 1.76204 -0.475244 0
M  V30 4460 C 425.266 0.225256 -3.60798 0
M  V30 4461 O 424.987 -1.0058 -4.26398 0
M  V30 4462 C 426.488 0.795172 -4.3611 0
M  V30 4463 H 423.708 -0.0339704 -0.67014 0
M  V30 4464 H 426.252 -0.736926 -1.90761 0
M  V30 4465 H 424.407 0.910891 -3.76539 0
M  V30 4466 H 424.821 -0.787165 -5.1856 0
M  V30 4467 H 426.295 0.903143 -5.44562 0
M  V30 4468 H 426.772 1.80031 -4.00606 0
M  V30 4469 H 427.378 0.146069 -4.25049 0
M  V30 4470 N 425.693 1.55336 -0.266172 0
M  V30 4471 C 426.643 2.18848 0.639497 0
M  V30 4472 C 427.627 1.1503 1.12503 0
M  V30 4473 O 428.819 1.40875 1.0716 0
M  V30 4474 C 425.948 2.90626 1.82733 0
M  V30 4475 C 425.034 4.01723 1.35939 0
M  V30 4476 N 425.425 5.02145 0.606988 0
M  V30 4477 C 423.723 4.1463 1.6431 0
M  V30 4478 C 424.424 5.80572 0.362138 0
M  V30 4479 N 423.4 5.35551 0.931971 0
M  V30 4480 H 427.202 2.93845 0.0567057 0
M  V30 4481 H 424.716 1.62252 -0.0693312 0
M  V30 4482 H 426.713 3.34569 2.48735 0
M  V30 4483 H 425.373 2.17137 2.41416 0
M  V30 4484 H 426.384 5.17271 0.255198 0
M  V30 4485 H 423.061 3.52326 2.23993 0
M  V30 4486 H 424.451 6.71472 -0.239848 0
M  V30 4487 N 427.171 -0.0066808 1.57599 0
M  V30 4488 C 428.399 -0.704087 1.94551 0
M  V30 4489 C 428.814 -1.67677 0.867746 0
M  V30 4490 O 428.171 -1.8185 -0.153925 0
M  V30 4491 C 428.222 -1.44177 3.31505 0
M  V30 4492 O 427.943 -0.508097 4.35144 0
M  V30 4493 C 429.444 -2.23429 3.82876 0
M  V30 4494 H 426.664 -0.196523 0.641576 0
M  V30 4495 H 429.208 0.042453 2.04456 0
M  V30 4496 H 427.363 -2.13999 3.22929 0
M  V30 4497 H 427.777 -1.02782 5.14331 0
M  V30 4498 H 429.251 -2.70552 4.8115 0
M  V30 4499 H 429.728 -3.05818 3.15233 0
M  V30 4500 H 430.334 -1.58636 3.94607 0
M  V30 4501 N 428.649 -1.55105 -0.279332 0
M  V30 4502 C 429.926 -1.66119 -1.03267 0
M  V30 4503 C 430.306 -0.523525 -2.04505 0
M  V30 4504 O 429.654 0.477194 -2.23462 0
M  V30 4505 C 429.864 -3.05067 -1.69515 0
M  V30 4506 C 431.212 -3.62606 -2.20912 0
M  V30 4507 O 432.236 -3.07659 -1.79512 0
M  V30 4508 O 431.095 -4.58861 -2.96831 0
M  V30 4509 H 428.189 -0.674429 -0.478618 0
M  V30 4510 H 430.735 -1.67446 -0.275694 0
M  V30 4511 H 429.507 -3.79311 -0.9612 0
M  V30 4512 H 429.13 -3.07611 -2.51915 0
M  V30 4513 N 430.127 0.543554 -1.4793 0
M  V30 4514 C 431.09 1.63156 -1.60975 0
M  V30 4515 C 432.09 1.53346 -0.483899 0
M  V30 4516 O 433.28 1.5726 -0.749339 0
M  V30 4517 C 430.412 3.02743 -1.56716 0
M  V30 4518 H 431.605 1.52934 -2.57975 0
M  V30 4519 H 429.158 0.764557 -1.36324 0
M  V30 4520 H 429.893 3.18484 -0.611418 0
M  V30 4521 H 429.678 3.11272 -2.38438 0
M  V30 4522 H 431.168 3.81871 -1.6901 0
M  V30 4523 N 431.605 1.3629 0.791371 0
M  V30 4524 C 432.851 1.30605 1.55146 0
M  V30 4525 C 433.184 -0.115042 1.93859 0
M  V30 4526 O 432.459 -1.06798 1.62556 0
M  V30 4527 C 432.742 2.22692 2.82985 0
M  V30 4528 C 432.595 3.73489 2.50651 0
M  V30 4529 C 433.914 2.13588 3.84796 0
M  V30 4530 H 431.033 0.475761 0.562868 0
M  V30 4531 H 433.675 1.66825 0.909358 0
M  V30 4532 H 431.825 1.91933 3.37778 0
M  V30 4533 H 433.497 4.14758 2.01924 0
M  V30 4534 H 431.74 3.93021 1.83622 0
M  V30 4535 H 432.411 4.3333 3.41949 0
M  V30 4536 H 434.887 2.40659 3.39445 0
M  V30 4537 H 433.763 2.80195 4.71998 0
M  V30 4538 H 434.024 1.12256 4.27611 0
M  V30 4539 N 433.083 -1.0153 1.20538 0
M  V30 4540 C 434.03 -2.10098 0.955383 0
M  V30 4541 C 435 -1.65702 -0.114878 0
M  V30 4542 O 436.185 -1.90776 0.0301118 0
M  V30 4543 C 433.325 -3.41236 0.514969 0
M  V30 4544 C 432.438 -3.99102 1.65353 0
M  V30 4545 C 431.573 -5.18306 1.16329 0
M  V30 4546 C 430.612 -5.68258 2.27485 0
M  V30 4547 N 429.749 -6.78722 1.7967 0
M  V30 4548 H 434.589 -2.30818 1.88486 0
M  V30 4549 H 432.126 -1.13189 0.939499 0
M  V30 4550 H 434.084 -4.16504 0.240935 0
M  V30 4551 H 432.714 -3.20585 -0.377512 0
M  V30 4552 H 431.766 -3.20918 2.04245 0
M  V30 4553 H 433.078 -4.32177 2.49047 0
M  V30 4554 H 432.232 -6.00782 0.845302 0
M  V30 4555 H 430.971 -4.86799 0.296254 0
M  V30 4556 H 429.976 -4.84385 2.60099 0
M  V30 4557 H 431.201 -6.01798 3.14667 0
M  V30 4558 H 429.147 -6.49042 0.95295 0
M  V30 4559 H 429.064 -7.10996 2.56944 0
M  V30 4560 H 430.332 -7.64759 1.50875 0
M  V30 4561 N 434.561 -1.01147 -1.20859 0
M  V30 4562 C 435.81 -0.693214 -1.89413 0
M  V30 4563 C 436.123 0.779969 -1.79376 0
M  V30 4564 O 437.329 1.21057 -2.43017 0
M  V30 4565 C 435.785 -1.18949 -3.39675 0
M  V30 4566 C 435.393 -2.68921 -3.58309 0
M  V30 4567 C 437.137 -0.94642 -4.13815 0
M  V30 4568 C 435.044 -3.12056 -5.0237 0
M  V30 4569 H 433.974 -0.255595 -0.709357 0
M  V30 4570 H 436.625 -1.22349 -1.36759 0
M  V30 4571 H 435.007 -0.587228 -3.91622 0
M  V30 4572 H 436.181 -3.34652 -3.16772 0
M  V30 4573 H 434.496 -2.91314 -2.97532 0
M  V30 4574 H 437.093 -1.24417 -5.20023 0
M  V30 4575 H 437.436 0.117219 -4.16135 0
M  V30 4576 H 437.969 -1.5118 -3.67953 0
M  V30 4577 H 434.708 -4.17674 -5.05202 0
M  V30 4578 H 434.228 -2.51041 -5.44737 0
M  V30 4579 H 435.907 -3.04403 -5.70918 0
M  V30 4580 N 436.039 1.36541 -0.78704 0
M  V30 4581 C 437.264 2.0409 -0.369053 0
M  V30 4582 C 437.689 1.58957 1.00569 0
M  V30 4583 O 437.047 0.756926 1.64743 0
M  V30 4584 C 437.095 3.57924 -0.438466 0
M  V30 4585 O 436.199 4.08642 0.555479 0
M  V30 4586 H 435.54 0.645142 -0.157122 0
M  V30 4587 H 438.07 1.74545 -1.06749 0
M  V30 4588 H 438.08 4.06887 -0.301218 0
M  V30 4589 H 436.755 3.90127 -1.44132 0
M  V30 4590 H 435.332 3.70958 0.380088 0
M  V30 4591 N 437.518 0.538854 1.48102 0
M  V30 4592 C 438.795 -0.0568108 1.95517 0
M  V30 4593 C 439.175 -1.50408 1.48124 0
M  V30 4594 O 438.523 -2.17133 0.711727 0
M  V30 4595 C 438.733 0.0696262 3.48931 0
M  V30 4596 C 440.081 -0.0851202 4.24515 0
M  V30 4597 O 441.105 -0.0037347 3.562 0
M  V30 4598 O 439.964 -0.257025 5.45895 0
M  V30 4599 H 437.058 -0.0743695 0.823649 0
M  V30 4600 H 439.604 0.604081 1.58584 0
M  V30 4601 H 438.376 1.07744 3.76174 0
M  V30 4602 H 437.999 -0.629714 3.92582 0
M  V30 4603 N 438.996 -1.55193 0.274407 0
M  V30 4604 C 440.243 -1.99581 -0.342579 0
M  V30 4605 C 440.571 -1.1628 -1.55914 0
M  V30 4606 O 439.826 -0.22029 -1.94456 0
M  V30 4607 C 440.125 -3.49019 -0.769458 0
M  V30 4608 C 439.791 -4.49598 0.342389 0
M  V30 4609 C 438.453 -4.76821 0.647686 0
M  V30 4610 C 440.805 -5.0964 1.09163 0
M  V30 4611 C 438.133 -5.61354 1.70581 0
M  V30 4612 C 440.485 -5.95323 2.13948 0
M  V30 4613 C 439.149 -6.20867 2.45113 0
M  V30 4614 H 438.419 -0.730319 -0.125358 0
M  V30 4615 H 441.066 -1.87529 0.387971 0
M  V30 4616 H 439.371 -3.58544 -1.57967 0
M  V30 4617 H 441.068 -3.8077 -1.25757 0
M  V30 4618 H 437.658 -4.28496 0.094318 0
M  V30 4619 H 441.842 -4.88632 0.869024 0
M  V30 4620 H 437.098 -5.79392 1.9523 0
M  V30 4621 H 441.272 -6.40881 2.72478 0
M  V30 4622 H 438.899 -6.86162 3.27239 0
M  V30 4623 N 440.474 -0.00167713 -1.576 0
M  V30 4624 C 441.722 0.681471 -1.90264 0
M  V30 4625 C 442.043 1.7422 -0.875924 0
M  V30 4626 O 441.313 1.95709 0.0864412 0
M  V30 4627 H 439.893 0.254696 -0.702239 0
M  V30 4628 H 442.555 -0.0429996 -1.94853 0
M  V30 4629 H 441.651 1.15166 -2.90075 0
M  V30 4630 N 441.952 1.55251 0.271103 0
M  V30 4631 C 443.18 1.79974 1.02064 0
M  V30 4632 C 443.595 0.574003 1.79863 0
M  V30 4633 O 442.952 -0.456962 1.76686 0
M  V30 4634 C 443.003 3.02603 1.97772 0
M  V30 4635 O 442.724 4.20443 1.23124 0
M  V30 4636 C 444.225 3.39944 2.84522 0
M  V30 4637 H 441.445 0.599489 0.301419 0
M  V30 4638 H 443.989 2.02268 0.301313 0
M  V30 4639 H 442.144 2.8243 2.65165 0
M  V30 4640 H 442.558 4.89783 1.87651 0
M  V30 4641 H 444.032 4.28915 3.47471 0
M  V30 4642 H 444.509 2.59432 3.54389 0
M  V30 4643 H 445.115 3.62383 2.22618 0
M  V30 4644 N 443.43 -0.535701 1.48216 0
M  V30 4645 C 444.655 -1.32149 1.59848 0
M  V30 4646 C 445.08 -1.86338 0.256842 0
M  V30 4647 O 444.438 -1.64107 -0.770632 0
M  V30 4648 C 444.486 -2.45224 2.64381 0
M  V30 4649 O 443.59 -3.48093 2.21144 0
M  V30 4650 H 442.931 -0.391634 0.536208 0
M  V30 4651 H 445.461 -0.645202 1.94161 0
M  V30 4652 H 445.471 -2.91491 2.85476 0
M  V30 4653 H 444.146 -2.05143 3.61786 0
M  V30 4654 H 442.723 -3.07984 2.10239 0
M  V30 4655 N 444.908 -1.36708 -0.784132 0
M  V30 4656 C 445.855 -1.31466 -1.89698 0
M  V30 4657 C 446.825 -0.18239 -1.65096 0
M  V30 4658 O 448.01 -0.369762 -1.87183 0
M  V30 4659 C 445.15 -1.1151 -3.26588 0
M  V30 4660 C 444.263 -2.33859 -3.63227 0
M  V30 4661 C 443.398 -2.06873 -4.89262 0
M  V30 4662 C 442.437 -3.25154 -5.18595 0
M  V30 4663 N 441.574 -2.978 -6.35814 0
M  V30 4664 H 446.414 -2.26619 -1.93515 0
M  V30 4665 H 443.951 -1.12625 -0.946256 0
M  V30 4666 H 445.909 -0.979653 -4.05535 0
M  V30 4667 H 444.539 -0.200103 -3.22179 0
M  V30 4668 H 443.591 -2.58188 -2.79362 0
M  V30 4669 H 444.903 -3.22109 -3.8085 0
M  V30 4670 H 444.057 -1.90289 -5.76086 0
M  V30 4671 H 442.796 -1.15942 -4.73718 0
M  V30 4672 H 441.801 -3.42292 -4.30251 0
M  V30 4673 H 443.026 -4.1692 -5.36055 0
M  V30 4674 H 440.972 -2.09485 -6.21653 0
M  V30 4675 H 440.889 -3.7959 -6.53794 0
M  V30 4676 H 442.157 -2.84805 -7.25607 0
M  V30 4677 N 446.386 1.0089 -1.21074 0
M  V30 4678 C 447.296 2.13039 -0.982425 0
M  V30 4679 C 448.312 1.73881 0.0642161 0
M  V30 4680 O 449.488 2.01012 -0.12496 0
M  V30 4681 C 446.553 3.42377 -0.545803 0
M  V30 4682 C 445.614 3.95731 -1.6642 0
M  V30 4683 C 444.847 5.18896 -1.24832 0
M  V30 4684 O 445.07 5.70273 -0.120265 0
M  V30 4685 O 444.004 5.65597 -2.05873 0
M  V30 4686 H 447.83 2.35175 -1.92163 0
M  V30 4687 H 445.415 1.1142 -0.995285 0
M  V30 4688 H 447.297 4.20244 -0.311912 0
M  V30 4689 H 445.972 3.21639 0.364727 0
M  V30 4690 H 444.879 3.19108 -1.95246 0
M  V30 4691 H 446.212 4.20872 -2.55201 0
M  V30 4692 N 447.864 1.01787 1.20321 0
M  V30 4693 C 448.794 0.609625 2.25401 0
M  V30 4694 C 449.775 -0.375951 1.65893 0
M  V30 4695 O 450.96 -0.261101 1.92437 0
M  V30 4696 C 448.09 -0.0515995 3.47262 0
M  V30 4697 C 447.044 0.855095 4.19371 0
M  V30 4698 C 446.37 0.0595757 5.34667 0
M  V30 4699 C 447.67 2.16374 4.75373 0
M  V30 4700 H 449.364 1.48803 2.59804 0
M  V30 4701 H 446.91 0.716934 1.24884 0
M  V30 4702 H 448.863 -0.348764 4.19954 0
M  V30 4703 H 447.587 -0.964726 3.12027 0
M  V30 4704 H 446.246 1.13628 3.48546 0
M  V30 4705 H 445.894 -0.85524 4.95676 0
M  V30 4706 H 445.594 0.663406 5.83843 0
M  V30 4707 H 447.118 -0.231105 6.10162 0
M  V30 4708 H 448.532 1.92885 5.39878 0
M  V30 4709 H 446.929 2.71853 5.34991 0
M  V30 4710 H 447.999 2.82589 3.94045 0
M  V30 4711 N 449.342 -1.36122 0.79427 0
M  V30 4712 C 450.567 -2.03891 0.379871 0
M  V30 4713 C 450.992 -1.59488 -0.997251 0
M  V30 4714 O 450.35 -0.765652 -1.64339 0
M  V30 4715 C 450.398 -3.57687 0.457442 0
M  V30 4716 O 449.502 -4.08931 -0.5338 0
M  V30 4717 H 448.843 -0.6443 0.160541 0
M  V30 4718 H 451.373 -1.73976 1.07673 0
M  V30 4719 H 451.383 -4.06721 0.322792 0
M  V30 4720 H 450.058 -3.89357 1.46199 0
M  V30 4721 H 448.635 -3.71154 -0.360409 0
M  V30 4722 N 450.82 -0.546701 -1.47814 0
M  V30 4723 C 452.097 0.0464413 -1.95545 0
M  V30 4724 C 452.477 1.4962 -1.48919 0
M  V30 4725 O 451.825 2.16752 -0.723232 0
M  V30 4726 C 452.035 -0.0881298 -3.48889 0
M  V30 4727 C 453.383 0.0626059 -4.24554 0
M  V30 4728 O 454.407 -0.0151555 -3.56197 0
M  V30 4729 O 453.266 0.228071 -5.46024 0
M  V30 4730 H 450.36 0.0700004 -0.824032 0
M  V30 4731 H 452.906 -0.612482 -1.58262 0
M  V30 4732 H 451.678 -1.09737 -3.75597 0
M  V30 4733 H 451.301 0.608886 -3.9291 0
M  V30 4734 N 452.299 1.55045 -0.282633 0
M  V30 4735 C 453.246 2.22822 0.601566 0
M  V30 4736 C 454.216 1.20431 1.14392 0
M  V30 4737 O 455.401 1.48996 1.19184 0
M  V30 4738 C 452.541 2.95873 1.77632 0
M  V30 4739 C 451.654 4.12999 1.26711 0
M  V30 4740 C 450.789 4.73676 2.40426 0
M  V30 4741 C 449.828 5.82981 1.86545 0
M  V30 4742 N 448.965 6.3769 2.93762 0
M  V30 4743 H 453.805 2.97995 0.0169528 0
M  V30 4744 H 451.342 1.471 -0.00339964 0
M  V30 4745 H 453.3 3.36447 2.46697 0
M  V30 4746 H 451.93 2.2311 2.33285 0
M  V30 4747 H 450.982 3.77494 0.469314 0
M  V30 4748 H 452.294 4.91803 0.832518 0
M  V30 4749 H 451.448 5.17008 3.17471 0
M  V30 4750 H 450.187 3.94164 2.87203 0
M  V30 4751 H 449.192 5.39092 1.07983 0
M  V30 4752 H 450.417 6.64366 1.40694 0
M  V30 4753 H 448.363 5.61069 3.39908 0
M  V30 4754 H 448.28 7.11788 2.54744 0
M  V30 4755 H 449.548 6.8568 3.7076 0
M  V30 4756 N 453.777 0.010035 1.57597 0
M  V30 4757 C 455.002 -0.687021 1.95691 0
M  V30 4758 C 455.427 -1.65952 0.885519 0
M  V30 4759 O 454.785 -1.80633 -0.15543 0
M  V30 4760 C 454.833 -1.3864 3.32884 0
M  V30 4761 O 453.937 -2.50115 3.27897 0
M  V30 4762 H 453.278 -0.181989 0.638573 0
M  V30 4763 H 455.808 0.0662122 2.04493 0
M  V30 4764 H 455.818 -1.74754 3.6868 0
M  V30 4765 H 454.493 -0.673411 4.10412 0
M  V30 4766 H 453.07 -2.16253 3.03791 0
M  V30 4767 N 455.255 -1.55392 -0.262866 0
M  V30 4768 C 456.483 -1.80513 -1.01108 0
M  V30 4769 C 456.898 -0.583533 -1.79556 0
M  V30 4770 O 456.255 0.447585 -1.76926 0
M  V30 4771 C 456.306 -3.03648 -1.96164 0
M  V30 4772 O 456.027 -4.2109 -1.20893 0
M  V30 4773 C 457.528 -3.41448 -2.82715 0
M  V30 4774 H 454.748 -0.601079 -0.298236 0
M  V30 4775 H 457.292 -2.02425 -0.290582 0
M  V30 4776 H 455.447 -2.83832 -2.63663 0
M  V30 4777 H 455.861 -4.90771 -1.85051 0
M  V30 4778 H 457.335 -4.30751 -3.45192 0
M  V30 4779 H 457.812 -2.61308 -3.53008 0
M  V30 4780 H 458.418 -3.63559 -2.20693 0
M  V30 4781 N 456.733 0.527833 -1.48498 0
M  V30 4782 C 457.68 1.6322 -1.6318 0
M  V30 4783 C 458.65 1.59199 -0.473815 0
M  V30 4784 O 459.835 1.77591 -0.697563 0
M  V30 4785 C 456.975 3.01474 -1.67951 0
M  V30 4786 C 456.088 3.15713 -2.94871 0
M  V30 4787 C 455.223 4.44539 -2.90789 0
M  V30 4788 C 454.262 4.52315 -4.12404 0
M  V30 4789 N 453.399 5.72533 -4.06387 0
M  V30 4790 H 458.239 1.50011 -2.57489 0
M  V30 4791 H 455.776 0.730298 -1.27691 0
M  V30 4792 H 457.734 3.81572 -1.68698 0
M  V30 4793 H 456.364 3.1345 -0.771306 0
M  V30 4794 H 455.416 2.28854 -3.03859 0
M  V30 4795 H 456.728 3.1732 -3.8485 0
M  V30 4796 H 455.882 5.3293 -2.89949 0
M  V30 4797 H 454.621 4.45457 -1.98542 0
M  V30 4798 H 453.626 3.62331 -4.13517 0
M  V30 4799 H 454.851 4.53134 -5.05812 0
M  V30 4800 H 452.797 5.74344 -3.16962 0
M  V30 4801 H 452.714 5.75643 -4.90073 0
M  V30 4802 H 453.982 6.63204 -4.0961 0
M  V30 4803 N 458.211 1.37122 0.776871 0
M  V30 4804 C 459.144 1.26835 1.89705 0
M  V30 4805 C 460.122 0.14992 1.61907 0
M  V30 4806 O 461.306 0.323242 1.85708 0
M  V30 4807 C 458.433 0.95986 3.24814 0
M  V30 4808 C 457.479 2.09447 3.7153 0
M  V30 4809 S 458.312 3.71368 3.85806 0
M  V30 4810 C 459.468 3.42659 5.23771 0
M  V30 4811 H 459.701 2.21647 1.98141 0
M  V30 4812 H 457.234 1.22685 0.937433 0
M  V30 4813 H 459.192 0.788696 4.02852 0
M  V30 4814 H 457.853 0.0293137 3.14086 0
M  V30 4815 H 457.046 1.8335 4.69467 0
M  V30 4816 H 456.648 2.2255 3.00578 0
M  V30 4817 H 458.94 2.9733 6.0877 0
M  V30 4818 H 459.883 4.39905 5.54878 0
M  V30 4819 H 460.291 2.77708 4.91466 0
M  V30 4820 N 459.689 -1.00246 1.21608 0
M  V30 4821 C 460.914 -1.78167 1.06167 0
M  V30 4822 C 461.339 -1.84138 -0.384035 0
M  V30 4823 O 460.697 -1.28683 -1.27712 0
M  V30 4824 C 460.745 -3.19786 1.66642 0
M  V30 4825 O 459.849 -4.02153 0.913613 0
M  V30 4826 H 459.19 -0.549 0.37349 0
M  V30 4827 H 461.72 -1.25994 1.61204 0
M  V30 4828 H 461.73 -3.70451 1.70969 0
M  V30 4829 H 460.405 -3.14754 2.7185 0
M  V30 4830 H 458.982 -3.60711 0.945635 0
M  V30 4831 N 461.167 -1.02423 -1.1978 0
M  V30 4832 C 462.414 -0.717988 -1.89344 0
M  V30 4833 C 462.742 0.753036 -1.79331 0
M  V30 4834 O 461.997 1.56355 -1.17692 0
M  V30 4835 C 462.296 -1.1088 -3.39765 0
M  V30 4836 C 461.962 -2.57731 -3.6998 0
M  V30 4837 C 460.624 -2.97854 -3.77937 0
M  V30 4838 C 462.976 -3.52763 -3.83677 0
M  V30 4839 C 460.304 -4.31931 -3.97054 0
M  V30 4840 C 462.656 -4.86538 -4.04306 0
M  V30 4841 C 461.32 -5.26356 -4.10494 0
M  V30 4842 H 460.59 -0.26273 -0.692859 0
M  V30 4843 H 463.237 -1.28623 -1.41875 0
M  V30 4844 H 461.542 -0.459094 -3.89101 0
M  V30 4845 H 463.239 -0.849432 -3.919 0
M  V30 4846 H 459.829 -2.25646 -3.64393 0
M  V30 4847 H 464.013 -3.2292 -3.76877 0
M  V30 4848 H 459.269 -4.62324 -4.00083 0
M  V30 4849 H 463.443 -5.60093 -4.13846 0
M  V30 4850 H 461.07 -6.3026 -4.2506 0
M  V30 4851 N 462.645 1.35699 -0.801477 0
M  V30 4852 C 463.608 2.28199 -0.213994 0
M  V30 4853 C 464.608 1.49359 0.595691 0
M  V30 4854 O 465.798 1.69186 0.414921 0
M  V30 4855 C 462.93 3.33587 0.702297 0
M  V30 4856 H 464.123 2.81666 -1.02976 0
M  V30 4857 H 461.676 1.45467 -0.571759 0
M  V30 4858 H 462.411 2.85297 1.54195 0
M  V30 4859 H 462.196 3.91906 0.123484 0
M  V30 4860 H 463.686 4.02638 1.10783 0
M  V30 4861 N 464.123 0.554532 1.47522 0
M  V30 4862 C 465.371 0.0294208 2.02079 0
M  V30 4863 C 465.692 -1.32411 1.43151 0
M  V30 4864 O 464.962 -1.863 0.605728 0
M  V30 4865 H 463.542 0.00788672 0.746958 0
M  V30 4866 H 466.204 0.723934 1.80956 0
M  V30 4867 H 465.3 -0.0606745 3.12041 0
M  V30 4868 N 465.601 -1.54893 0.290851 0
M  V30 4869 C 466.829 -2.04343 -0.324288 0
M  V30 4870 C 467.244 -1.16859 -1.48289 0
M  V30 4871 O 466.601 -0.192018 -1.81487 0
M  V30 4872 C 466.652 -3.52756 -0.79026 0
M  V30 4873 O 466.373 -4.36913 0.322213 0
M  V30 4874 C 467.874 -4.18161 -1.4716 0
M  V30 4875 H 465.094 -0.667135 -0.0719173 0
M  V30 4876 H 467.638 -1.99981 0.427529 0
M  V30 4877 H 465.793 -3.57511 -1.49213 0
M  V30 4878 H 466.207 -5.24486 -0.0387372 0
M  V30 4879 H 467.681 -5.23562 -1.7489 0
M  V30 4880 H 468.158 -3.67282 -2.40834 0
M  V30 4881 H 468.764 -4.17454 -0.813178 0
M  V30 4882 N 467.08 -0.0183926 -1.57589 0
M  V30 4883 C 468.326 0.663543 -1.91638 0
M  V30 4884 C 468.659 1.72392 -0.894134 0
M  V30 4885 O 467.934 1.94316 0.0846449 0
M  V30 4886 C 468.217 1.28984 -3.36207 0
M  V30 4887 C 468.07 0.239761 -4.49161 0
M  V30 4888 C 469.389 2.2109 -3.80536 0
M  V30 4889 H 466.508 0.239746 -0.696915 0
M  V30 4890 H 469.15 -0.073456 -1.89858 0
M  V30 4891 H 467.3 1.91799 -3.37854 0
M  V30 4892 H 468.972 -0.390119 -4.59647 0
M  V30 4893 H 467.215 -0.435972 -4.31604 0
M  V30 4894 H 467.886 0.717383 -5.47319 0
M  V30 4895 H 470.362 1.68273 -3.80557 0
M  V30 4896 H 469.238 2.61869 -4.82406 0
M  V30 4897 H 469.499 3.09764 -3.15434 0
M  V30 4898 N 468.558 1.5553 0.254621 0
M  V30 4899 C 469.521 1.88872 1.29846 0
M  V30 4900 C 470.521 0.764591 1.41459 0
M  V30 4901 O 471.711 1.03265 1.40293 0
M  V30 4902 C 468.843 2.11032 2.67728 0
M  V30 4903 H 470.036 2.82201 1.01502 0
M  V30 4904 H 467.589 1.48303 0.493556 0
M  V30 4905 H 468.324 1.20146 3.01223 0
M  V30 4906 H 468.109 2.92895 2.60682 0
M  V30 4907 H 469.599 2.38038 3.43115 0
M  V30 4908 N 470.036 -0.519951 1.48776 0
M  V30 4909 C 471.282 -1.27456 1.58514 0
M  V30 4910 C 471.637 -1.90634 0.260057 0
M  V30 4911 O 470.93 -1.76815 -0.738036 0
M  V30 4912 C 471.124 -2.37864 2.6675 0
M  V30 4913 C 470.953 -1.85509 4.09654 0
M  V30 4914 C 469.723 -1.67661 4.76674 0
M  V30 4915 C 471.921 -1.37783 4.955 0
M  V30 4916 N 469.903 -1.10037 6.03958 0
M  V30 4917 C 471.274 -0.921714 6.1311 0
M  V30 4918 C 473.329 -1.26179 4.81646 0
M  V30 4919 C 472.032 -0.361057 7.18393 0
M  V30 4920 C 474.058 -0.715121 5.8706 0
M  V30 4921 C 473.42 -0.269132 7.03886 0
M  V30 4922 H 469.519 -0.457049 0.634531 0
M  V30 4923 H 472.103 -0.585073 1.85701 0
M  V30 4924 H 470.274 -3.04296 2.41367 0
M  V30 4925 H 472.006 -3.04901 2.66116 0
M  V30 4926 H 468.761 -1.91478 4.33166 0
M  V30 4927 H 469.185 -0.832067 6.71867 0
M  V30 4928 H 473.827 -1.59263 3.91657 0
M  V30 4929 H 471.545 -0.0179127 8.08098 0
M  V30 4930 H 475.131 -0.628376 5.78397 0
M  V30 4931 H 474.011 0.14729 7.84062 0
M  V30 4932 N 471.514 -1.37532 -0.769588 0
M  V30 4933 C 472.447 -1.27839 -1.8903 0
M  V30 4934 C 473.425 -0.158504 -1.61826 0
M  V30 4935 O 474.609 -0.333086 -1.85534 0
M  V30 4936 C 471.736 -0.977072 -3.24301 0
M  V30 4937 C 470.782 -2.11414 -3.70414 0
M  V30 4938 S 471.615 -3.73409 -3.83831 0
M  V30 4939 C 472.771 -3.45432 -5.21946 0
M  V30 4940 H 473.004 -2.22694 -1.96963 0
M  V30 4941 H 470.537 -1.2318 -0.930914 0
M  V30 4942 H 472.495 -0.810049 -4.02428 0
M  V30 4943 H 471.156 -0.0459701 -3.14066 0
M  V30 4944 H 470.349 -1.85837 -4.68488 0
M  V30 4945 H 469.951 -2.24141 -2.99394 0
M  V30 4946 H 472.243 -3.00554 -6.07185 0
M  V30 4947 H 473.186 -4.42841 -5.52537 0
M  V30 4948 H 473.594 -2.80311 -4.89986 0
M  V30 4949 N 472.992 0.995999 -1.22138 0
M  V30 4950 C 473.955 2.06711 -0.990109 0
M  V30 4951 C 474.955 1.60744 0.0422978 0
M  V30 4952 O 476.145 1.73095 -0.195895 0
M  V30 4953 C 473.277 3.37288 -0.49491 0
M  V30 4954 H 474.47 2.28661 -1.94047 0
M  V30 4955 H 472.023 1.16711 -1.03963 0
M  V30 4956 H 472.758 3.21022 0.459948 0
M  V30 4957 H 472.543 3.71986 -1.23971 0
M  V30 4958 H 474.033 4.16103 -0.353253 0
M  V30 4959 N 474.47 1.03057 1.19235 0
M  V30 4960 C 475.881 0.757449 1.70645 0
M  V30 4961 C 476.232 -0.722735 1.82403 0
M  V30 4962 O 475.357 -1.56325 1.49638 0
M  V30 4963 C 475.952 1.36833 3.09939 0
M  V30 4964 C 474.511 1.14375 3.58602 0
M  V30 4965 C 473.658 1.46533 2.35422 0
M  V30 4966 H 476.609 1.19828 1.04052 0
M  V30 4967 H 476.63 0.766184 3.72706 0
M  V30 4968 H 476.142 2.44562 3.01349 0
M  V30 4969 H 474.243 0.0847542 3.72504 0
M  V30 4970 H 474.356 1.83366 4.42622 0
M  V30 4971 H 472.72 0.884712 2.38841 0
M  V30 4972 H 473.503 2.55349 2.2946 0
M  V30 4973 N 475.948 -1.35272 0.808662 0
M  V30 4974 C 476.858 -2.33546 0.222079 0
M  V30 4975 C 477.874 -1.6196 -0.636011 0
M  V30 4976 O 479.05 -1.93822 -0.547274 0
M  V30 4977 C 476.115 -3.41148 -0.61795 0
M  V30 4978 C 475.176 -4.28507 0.260875 0
M  V30 4979 C 474.409 -5.3097 -0.539156 0
M  V30 4980 O 474.632 -5.42123 -1.77367 0
M  V30 4981 O 473.566 -6.01858 0.0710526 0
M  V30 4982 H 477.392 -2.85515 1.03512 0
M  V30 4983 H 474.977 -1.38079 0.570495 0
M  V30 4984 H 476.859 -4.06889 -1.09634 0
M  V30 4985 H 475.534 -2.91447 -1.40855 0
M  V30 4986 H 474.441 -3.6574 0.786451 0
M  V30 4987 H 475.774 -4.81611 1.01547 0
M  V30 4988 N 477.426 -0.562348 -1.47226 0
M  V30 4989 C 478.672 -0.0402761 -2.0276 0
M  V30 4990 C 479.005 1.30823 -1.43523 0
M  V30 4991 O 478.28 1.85249 -0.592705 0
M  V30 4992 C 478.563 0.047311 -3.60069 0
M  V30 4993 C 478.416 -1.32865 -4.29729 0
M  V30 4994 C 479.735 0.758182 -4.3352 0
M  V30 4995 H 476.854 -0.0161105 -0.736824 0
M  V30 4996 H 479.496 -0.725628 -1.75598 0
M  V30 4997 H 477.646 0.630986 -3.83342 0
M  V30 4998 H 479.318 -1.95593 -4.17781 0
M  V30 4999 H 477.561 -1.90195 -3.89882 0
M  V30 5000 H 478.232 -1.22004 -5.38349 0
M  V30 5001 H 480.708 0.262546 -4.15271 0
M  V30 5002 H 479.584 0.78844 -5.43208 0
M  V30 5003 H 479.845 1.81537 -4.03109 0
M  V30 5004 N 478.904 1.54736 -0.299062 0
M  V30 5005 C 480.153 1.99279 0.311549 0
M  V30 5006 C 480.466 1.19107 1.55154 0
M  V30 5007 O 481.672 1.53908 2.23662 0
M  V30 5008 C 480.128 3.54768 0.605632 0
M  V30 5009 C 479.736 4.43746 -0.615914 0
M  V30 5010 C 481.48 4.07841 1.17754 0
M  V30 5011 C 479.387 5.90663 -0.29509 0
M  V30 5012 H 478.317 0.744359 0.120187 0
M  V30 5013 H 480.968 1.78919 -0.407464 0
M  V30 5014 H 479.35 3.71021 1.38419 0
M  V30 5015 H 480.524 4.39267 -1.39218 0
M  V30 5016 H 478.839 4.01434 -1.10633 0
M  V30 5017 H 481.436 5.15174 1.43179 0
M  V30 5018 H 481.779 3.58324 2.11918 0
M  V30 5019 H 482.312 3.95123 0.460739 0
M  V30 5020 H 479.051 6.44325 -1.20524 0
M  V30 5021 H 478.571 5.98155 0.44394 0
M  V30 5022 H 480.25 6.46916 0.104048 0
M  V30 5023 N 480.382 0.0267497 1.57577 0
M  V30 5024 C 481.798 -0.32962 1.56159 0
M  V30 5025 C 481.998 -1.73059 1.03213 0
M  V30 5026 O 481.054 -2.43233 0.677804 0
M  V30 5027 C 482.367 -0.18039 3.00158 0
M  V30 5028 C 483.915 -0.253334 3.11973 0
M  V30 5029 C 484.39 -0.132921 4.57807 0
M  V30 5030 N 485.881 -0.189979 4.6281 0
M  V30 5031 C 486.616 -0.120554 5.73273 0
M  V30 5032 N 486.112 -0.000180315 6.928 0
M  V30 5033 N 487.905 -0.174369 5.61829 0
M  V30 5034 H 480.056 0.942896 1.90324 0
M  V30 5035 H 482.319 0.3639 0.875375 0
M  V30 5036 H 482.025 0.784576 3.42837 0
M  V30 5037 H 481.899 -0.951565 3.65 0
M  V30 5038 H 484.286 -1.20876 2.69208 0
M  V30 5039 H 484.367 0.548177 2.49857 0
M  V30 5040 H 484.011 0.819073 5.01252 0
M  V30 5041 H 483.941 -0.953264 5.179 0
M  V30 5042 H 486.432 -0.283257 3.76837 0
M  V30 5043 H 486.745 0.0461666 7.72786 0
M  V30 5044 H 485.09 0.034569 6.94991 0
M  V30 5045 H 488.281 -0.266794 4.67339 0
M  V30 5046 H 488.454 -0.116802 6.47895 0
M  V30 5047 N 481.861 -1.55662 -0.24637 0
M  V30 5048 C 482.809 -1.91186 -1.3248 0
M  V30 5049 C 483.803 -0.790996 -1.49799 0
M  V30 5050 O 485.009 -0.975617 -1.51267 0
M  V30 5051 H 481.384 -0.607207 -0.443626 0
M  V30 5052 H 483.355 -2.81221 -0.997853 0
M  V30 5053 C 482.104 -2.22349 -2.67313 0
M  V30 5054 H 481.427 -3.08097 -2.54786 0
M  V30 5055 H 482.867 -2.51107 -3.41645 0
M  V30 5056 C 481.326 -1.04001 -3.20446 0
M  V30 5057 O 481.856 -0.28828 -4.00664 0
M  V30 5058 N 480.062 -0.830494 -2.7848 0
M  V30 5059 H 479.609 -1.4435 -2.13356 0
M  V30 5060 H 479.567 -0.0403258 -3.14374 0
M  V30 5061 N 483.339 0.512053 -1.4905 0
M  V30 5062 C 484.249 1.64139 -1.67617 0
M  V30 5063 C 485.265 1.64786 -0.558701 0
M  V30 5064 O 486.441 1.8341 -0.832034 0
M  V30 5065 C 483.506 3.00548 -1.72835 0
M  V30 5066 C 482.567 3.10615 -2.96339 0
M  V30 5067 C 481.8 4.40517 -3.01298 0
M  V30 5068 O 482.023 5.28671 -2.14157 0
M  V30 5069 O 480.957 4.55325 -3.93653 0
M  V30 5070 H 484.783 1.51407 -2.63267 0
M  V30 5071 H 482.368 0.687131 -1.32661 0
M  V30 5072 H 484.25 3.81641 -1.78683 0
M  V30 5073 H 482.925 3.13566 -0.803616 0
M  V30 5074 H 481.832 2.2875 -2.96014 0
M  V30 5075 H 483.165 3.0252 -3.88256 0
M  V30 5076 N 484.817 1.37938 0.762283 0
M  V30 5077 C 486.228 1.30094 1.33912 0
M  V30 5078 C 486.579 -0.0472026 1.96143 0
M  V30 5079 O 485.704 -0.94917 1.94473 0
M  V30 5080 C 486.299 2.35592 2.43478 0
M  V30 5081 C 484.858 2.31353 2.96905 0
M  V30 5082 C 484.005 2.18919 1.70205 0
M  V30 5083 H 486.956 1.48423 0.561816 0
M  V30 5084 H 486.977 2.00806 3.23199 0
M  V30 5085 H 486.489 3.33701 1.98155 0
M  V30 5086 H 484.59 1.36799 3.46579 0
M  V30 5087 H 484.703 3.25147 3.51875 0
M  V30 5088 H 483.067 1.65624 1.93496 0
M  V30 5089 H 483.85 3.18956 1.26973 0
M  V30 5090 N 486.295 -0.989507 1.22664 0
M  V30 5091 C 487.541 -1.7321 1.05481 0
M  V30 5092 C 487.874 -1.89852 -0.408635 0
M  V30 5093 O 487.149 -1.44416 -1.30285 0
M  V30 5094 C 487.432 -3.1357 1.77047 0
M  V30 5095 C 487.285 -3.04555 3.31008 0
M  V30 5096 C 488.604 -4.12812 1.5256 0
M  V30 5097 H 485.723 -0.628697 0.384589 0
M  V30 5098 H 488.365 -1.15258 1.51049 0
M  V30 5099 H 486.515 -3.63046 1.3831 0
M  V30 5100 H 488.187 -2.62674 3.7921 0
M  V30 5101 H 486.43 -2.41278 3.6051 0
M  V30 5102 H 487.101 -4.03894 3.76263 0
M  V30 5103 H 489.577 -3.72106 1.86215 0
M  V30 5104 H 488.453 -5.09132 2.05124 0
M  V30 5105 H 488.714 -4.39711 0.458936 0
M  V30 5106 N 487.773 -1.03688 -1.18687 0
M  V30 5107 C 488.998 -0.757819 -1.93059 0
M  V30 5108 C 489.423 0.678353 -1.75442 0
M  V30 5109 O 488.781 1.46938 -1.06203 0
M  V30 5110 C 488.829 -1.12423 -3.42627 0
M  V30 5111 O 487.933 -0.247505 -4.11657 0
M  V30 5112 H 487.274 -0.279245 -0.602427 0
M  V30 5113 H 489.804 -1.3857 -1.5053 0
M  V30 5114 H 489.814 -1.08454 -3.93322 0
M  V30 5115 H 488.489 -2.17049 -3.54771 0
M  V30 5116 H 487.066 -0.34649 -3.71287 0
M  V30 5117 N 489.251 1.34841 -0.815825 0
M  V30 5118 C 490.161 2.33425 -0.234462 0
M  V30 5119 C 491.177 1.62295 0.627413 0
M  V30 5120 O 492.353 1.94109 0.536987 0
M  V30 5121 C 489.418 3.41471 0.599849 0
M  V30 5122 C 488.479 4.28362 -0.283596 0
M  V30 5123 C 487.712 5.31248 0.51099 0
M  V30 5124 O 487.935 5.43056 1.7449 0
M  V30 5125 O 486.869 6.01812 -0.10297 0
M  V30 5126 H 490.695 2.84962 -1.05024 0
M  V30 5127 H 488.28 1.37774 -0.577809 0
M  V30 5128 H 490.162 4.07464 1.07475 0
M  V30 5129 H 488.837 2.9219 1.39308 0
M  V30 5130 H 487.744 3.65318 -0.805836 0
M  V30 5131 H 489.077 4.81066 -1.041 0
M  V30 5132 N 490.729 0.570148 1.46925 0
M  V30 5133 C 491.676 -0.170257 2.30171 0
M  V30 5134 C 492.646 -0.896099 1.39855 0
M  V30 5135 O 493.831 -0.889248 1.68811 0
M  V30 5136 C 490.971 -1.18605 3.24079 0
M  V30 5137 C 490.084 -0.464947 4.29491 0
M  V30 5138 C 489.219 -1.46716 5.10537 0
M  V30 5139 C 488.258 -0.731758 6.0771 0
M  V30 5140 N 487.395 -1.68142 6.81669 0
M  V30 5141 H 492.235 0.545713 2.92961 0
M  V30 5142 H 489.772 0.280938 1.44392 0
M  V30 5143 H 491.73 -1.78771 3.76957 0
M  V30 5144 H 490.36 -1.86989 2.63125 0
M  V30 5145 H 489.412 0.251506 3.79568 0
M  V30 5146 H 490.724 0.110548 4.98677 0
M  V30 5147 H 489.878 -2.14199 5.6763 0
M  V30 5148 H 488.617 -2.07658 4.41282 0
M  V30 5149 H 487.622 -0.0430787 5.49783 0
M  V30 5150 H 488.847 -0.127904 6.7898 0
M  V30 5151 H 486.793 -2.27918 6.15134 0
M  V30 5152 H 486.71 -1.15841 7.47072 0
M  V30 5153 H 487.978 -2.347 7.43328 0
M  V30 5154 N 492.207 -1.54576 0.307264 0
M  V30 5155 C 493.453 -2.0056 -0.300612 0
M  V30 5156 C 493.786 -1.1953 -1.53057 0
M  V30 5157 O 493.061 -0.27337 -1.92569 0
M  V30 5158 C 493.344 -3.54167 -0.650987 0
M  V30 5159 C 493.197 -4.45933 0.588539 0
M  V30 5160 C 494.516 -4.14645 -1.47506 0
M  V30 5161 H 491.635 -0.729075 -0.107788 0
M  V30 5162 H 494.277 -1.85286 0.420606 0
M  V30 5163 H 492.427 -3.67313 -1.26544 0
M  V30 5164 H 494.099 -4.44683 1.22697 0
M  V30 5165 H 492.342 -4.16274 1.22058 0
M  V30 5166 H 493.013 -5.51189 0.299153 0
M  V30 5167 H 495.489 -4.04973 -0.955821 0
M  V30 5168 H 494.365 -5.22269 -1.68899 0
M  V30 5169 H 494.626 -3.66921 -2.4662 0
M  V30 5170 N 493.685 -0.035106 -1.57561 0
M  V30 5171 C 494.962 0.681212 -1.83354 0
M  V30 5172 C 495.342 1.89986 -0.920252 0
M  V30 5173 O 494.69 2.28489 0.0226815 0
M  V30 5174 C 494.9 1.05376 -3.32712 0
M  V30 5175 C 496.248 1.44286 -3.99333 0
M  V30 5176 O 497.272 1.14656 -3.37242 0
M  V30 5177 O 496.131 1.99518 -5.08778 0
M  V30 5178 H 493.225 0.334741 -0.756226 0
M  V30 5179 H 495.771 -0.0632448 -1.69582 0
M  V30 5180 H 494.543 0.186668 -3.90854 0
M  V30 5181 H 494.166 1.85619 -3.51613 0
M  V30 5182 N 495.163 1.55791 0.238111 0
M  V30 5183 C 496.412 1.77234 0.962868 0
M  V30 5184 C 496.725 0.600661 1.86149 0
M  V30 5185 O 497.931 0.698315 2.62366 0
M  V30 5186 C 496.387 3.13808 1.76218 0
M  V30 5187 C 495.995 4.3865 0.910518 0
M  V30 5188 C 497.739 3.44585 2.47914 0
M  V30 5189 C 495.646 5.66252 1.70623 0
M  V30 5190 H 494.576 0.660731 0.36325 0
M  V30 5191 H 497.227 1.8221 0.217242 0
M  V30 5192 H 495.609 3.02963 2.55009 0
M  V30 5193 H 496.783 4.60507 0.164316 0
M  V30 5194 H 495.098 4.15271 0.30647 0
M  V30 5195 H 497.695 4.3714 3.07917 0
M  V30 5196 H 498.038 2.66314 3.19973 0
M  V30 5197 H 498.571 3.56685 1.76127 0
M  V30 5198 H 495.31 6.47369 1.02923 0
M  V30 5199 H 494.83 5.48483 2.42748 0
M  V30 5200 H 496.509 6.05829 2.27114 0
M  V30 5201 N 496.642 -0.504142 1.49319 0
M  V30 5202 C 497.888 -1.25767 1.59857 0
M  V30 5203 C 498.243 -1.90348 0.280262 0
M  V30 5204 O 497.536 -1.77588 -0.719241 0
M  V30 5205 C 497.73 -2.35021 2.69258 0
M  V30 5206 C 497.559 -1.81154 4.11598 0
M  V30 5207 C 496.329 -1.62596 4.78425 0
M  V30 5208 C 498.527 -1.3252 4.96934 0
M  V30 5209 N 496.509 -1.03625 6.05091 0
M  V30 5210 C 497.88 -0.856633 6.14054 0
M  V30 5211 C 499.935 -1.21063 4.82958 0
M  V30 5212 C 498.638 -0.284841 7.18736 0
M  V30 5213 C 500.664 -0.652815 5.87786 0
M  V30 5214 C 500.026 -0.194461 7.04132 0
M  V30 5215 H 496.125 -0.450293 0.639343 0
M  V30 5216 H 498.709 -0.565344 1.86311 0
M  V30 5217 H 496.88 -3.01719 2.44581 0
M  V30 5218 H 498.612 -3.02061 2.69335 0
M  V30 5219 H 495.367 -1.86873 4.35173 0
M  V30 5220 H 495.791 -0.76076 6.72712 0
M  V30 5221 H 500.433 -1.551 3.93324 0
M  V30 5222 H 498.151 0.0677979 8.08072 0
M  V30 5223 H 501.737 -0.566994 5.79031 0
M  V30 5224 H 500.617 0.230442 7.83861 0
M  V30 5225 N 498.12 -1.38341 -0.754957 0
M  V30 5226 C 499.345 -1.37882 -1.5493 0
M  V30 5227 C 499.77 0.0296385 -1.88077 0
M  V30 5228 O 499.128 1.01133 -1.50472 0
M  V30 5229 C 499.176 -2.23996 -2.82592 0
M  V30 5230 O 498.28 -1.65612 -3.77686 0
M  V30 5231 H 497.621 -0.470384 -0.468652 0
M  V30 5232 H 500.151 -1.82084 -0.933082 0
M  V30 5233 H 500.161 -2.37806 -3.3153 0
M  V30 5234 H 498.836 -3.26365 -2.57796 0
M  V30 5235 H 497.413 -1.60936 -3.36384 0
M  V30 5236 N 499.598 0.982988 -1.23187 0
M  V30 5237 C 500.845 1.72392 -1.06241 0
M  V30 5238 C 501.173 1.9032 0.40108 0
M  V30 5239 O 500.428 1.45084 1.31336 0
M  V30 5240 C 500.727 3.12736 -1.73006 0
M  V30 5241 C 500.393 3.14695 -3.22921 0
M  V30 5242 C 499.055 3.14937 -3.63824 0
M  V30 5243 C 501.407 3.10211 -4.1883 0
M  V30 5244 C 498.735 3.08408 -4.99101 0
M  V30 5245 C 501.087 3.05224 -5.54095 0
M  V30 5246 C 499.751 3.03787 -5.94365 0
M  V30 5247 H 499.021 0.630829 -0.388762 0
M  V30 5248 H 501.668 1.15053 -1.53085 0
M  V30 5249 H 499.973 3.73446 -1.18514 0
M  V30 5250 H 501.67 3.68828 -1.57374 0
M  V30 5251 H 498.26 3.15262 -2.90358 0
M  V30 5252 H 502.444 3.09166 -3.8824 0
M  V30 5253 H 497.7 3.05646 -5.29519 0
M  V30 5254 H 501.874 3.00712 -6.28128 0
M  V30 5255 H 499.501 2.98483 -6.99151 0
M  V30 5256 N 501.076 1.04316 1.18135 0
M  V30 5257 C 502.324 0.746542 1.87806 0
M  V30 5258 C 502.645 -0.728082 1.80898 0
M  V30 5259 O 501.915 -1.52554 1.22899 0
M  V30 5260 H 500.495 0.273157 0.695265 0
M  V30 5261 H 503.157 1.32044 1.43354 0
M  V30 5262 H 502.253 1.05362 2.93778 0
M  V30 5263 N 502.554 -1.34406 0.822964 0
M  V30 5264 C 503.8 -1.98578 0.411666 0
M  V30 5265 C 504.133 -1.65093 -1.02264 0
M  V30 5266 O 503.408 -0.92258 -1.71227 0
M  V30 5267 C 503.691 -3.54823 0.614235 0
M  V30 5268 C 503.544 -3.9805 2.09466 0
M  V30 5269 C 504.863 -4.40071 0.050221 0
M  V30 5270 H 501.982 -0.721355 0.151047 0
M  V30 5271 H 504.624 -1.59301 1.03554 0
M  V30 5272 H 502.774 -3.88411 0.0831774 0
M  V30 5273 H 504.446 -3.74795 2.68936 0
M  V30 5274 H 502.689 -3.4836 2.5851 0
M  V30 5275 H 503.36 -5.06819 2.18721 0
M  V30 5276 H 505.836 -4.13037 0.503953 0
M  V30 5277 H 504.712 -5.48452 0.221759 0
M  V30 5278 H 504.973 -4.29576 -1.04482 0
M  V30 5279 N 504.032 -0.577932 -1.46621 0
M  V30 5280 C 505.278 -0.0617793 -2.02706 0
M  V30 5281 C 505.611 1.29294 -1.44903 0
M  V30 5282 O 504.886 1.8461 -0.61232 0
M  V30 5283 C 505.169 0.00911824 -3.60099 0
M  V30 5284 C 505.022 -1.37416 -4.28295 0
M  V30 5285 C 506.341 0.712159 -4.343 0
M  V30 5286 H 503.46 -0.0239246 -0.736612 0
M  V30 5287 H 506.102 -0.744211 -1.74818 0
M  V30 5288 H 504.252 0.590292 -3.83989 0
M  V30 5289 H 505.924 -2.00013 -4.15683 0
M  V30 5290 H 504.167 -1.94319 -3.87843 0
M  V30 5291 H 504.838 -1.27707 -5.37024 0
M  V30 5292 H 507.314 0.218486 -4.15526 0
M  V30 5293 H 506.19 0.730782 -5.44014 0
M  V30 5294 H 506.451 1.77251 -4.05012 0
M  V30 5295 N 505.51 1.54411 -0.315457 0
M  V30 5296 C 506.44 2.27002 0.547039 0
M  V30 5297 C 507.421 1.27492 1.12605 0
M  V30 5298 O 508.606 1.5629 1.15269 0
M  V30 5299 C 505.736 3.02171 1.71201 0
M  V30 5300 C 504.69 4.0895 1.26268 0
M  V30 5301 C 504.016 4.71915 2.51396 0
M  V30 5302 C 505.316 5.20891 0.383419 0
M  V30 5303 H 507.01 2.99343 -0.0584517 0
M  V30 5304 H 504.556 1.4397 -0.0295527 0
M  V30 5305 H 506.509 3.51681 2.32161 0
M  V30 5306 H 505.233 2.27433 2.34397 0
M  V30 5307 H 503.892 3.60312 0.676062 0
M  V30 5308 H 503.54 3.93801 3.12937 0
M  V30 5309 H 503.24 5.44039 2.22026 0
M  V30 5310 H 504.764 5.24195 3.13133 0
M  V30 5311 H 506.178 5.66206 0.899082 0
M  V30 5312 H 504.575 5.99821 0.182857 0
M  V30 5313 H 505.645 4.81324 -0.587821 0
M  V30 5314 N 506.988 0.0434614 1.5754 0
M  V30 5315 C 508.234 -0.627109 1.93491 0
M  V30 5316 C 508.589 -1.68904 0.921362 0
M  V30 5317 O 507.882 -1.91504 -0.0605799 0
M  V30 5318 C 508.076 -1.2738 3.3393 0
M  V30 5319 C 507.905 -0.27603 4.48852 0
M  V30 5320 C 506.675 0.129244 5.05135 0
M  V30 5321 C 508.873 0.475462 5.12098 0
M  V30 5322 N 506.855 1.12068 6.03584 0
M  V30 5323 C 508.226 1.32021 6.05781 0
M  V30 5324 C 510.281 0.534611 4.95022 0
M  V30 5325 C 508.984 2.2188 6.84223 0
M  V30 5326 C 511.01 1.42059 5.74085 0
M  V30 5327 C 510.372 2.25309 6.67394 0
M  V30 5328 H 506.471 -0.201354 0.755633 0
M  V30 5329 H 509.055 0.113991 1.94366 0
M  V30 5330 H 507.226 -1.98496 3.33847 0
M  V30 5331 H 508.958 -1.90255 3.57191 0
M  V30 5332 H 505.713 -0.248145 4.72949 0
M  V30 5333 H 506.137 1.61306 6.57502 0
M  V30 5334 H 510.779 -0.0947817 4.22694 0
M  V30 5335 H 508.497 2.85868 7.55847 0
M  V30 5336 H 512.083 1.47083 5.62901 0
M  V30 5337 H 510.963 2.92754 7.27506 0
M  V30 5338 N 508.466 -1.55915 -0.229846 0
M  V30 5339 C 509.376 -1.94891 -1.30593 0
M  V30 5340 C 510.392 -0.851604 -1.51736 0
M  V30 5341 O 511.568 -1.15447 -1.65027 0
M  V30 5342 C 508.633 -2.25052 -2.63728 0
M  V30 5343 C 507.694 -3.48306 -2.5096 0
M  V30 5344 C 506.927 -3.77019 -3.77747 0
M  V30 5345 O 507.15 -3.07534 -4.80395 0
M  V30 5346 O 506.084 -4.70523 -3.75356 0
M  V30 5347 H 509.91 -2.86581 -1.00525 0
M  V30 5348 H 507.495 -1.43017 -0.432025 0
M  V30 5349 H 509.377 -2.45682 -3.42372 0
M  V30 5350 H 508.052 -1.36538 -2.93495 0
M  V30 5351 H 506.959 -3.32964 -1.70546 0
M  V30 5352 H 508.292 -4.37177 -2.26136 0
M  V30 5353 N 509.944 0.496216 -1.49584 0
M  V30 5354 C 510.874 1.60576 -1.69521 0
M  V30 5355 C 511.855 1.61169 -0.543933 0
M  V30 5356 O 513.04 1.77834 -0.78031 0
M  V30 5357 C 510.17 2.99038 -1.76616 0
M  V30 5358 C 509.124 3.13312 -2.91581 0
M  V30 5359 C 508.45 4.53172 -2.83794 0
M  V30 5360 C 509.75 2.92886 -4.32452 0
M  V30 5361 H 511.444 1.44146 -2.62416 0
M  V30 5362 H 508.99 0.692024 -1.26282 0
M  V30 5363 H 510.943 3.76564 -1.8915 0
M  V30 5364 H 509.667 3.16568 -0.80324 0
M  V30 5365 H 508.326 2.38213 -2.78658 0
M  V30 5366 H 507.974 4.67585 -1.854 0
M  V30 5367 H 507.674 4.63662 -3.60958 0
M  V30 5368 H 509.198 5.32752 -2.98342 0
M  V30 5369 H 510.612 3.60178 -4.46032 0
M  V30 5370 H 509.009 3.14844 -5.10875 0
M  V30 5371 H 510.079 1.88966 -4.46565 0
M  V30 5372 N 511.423 1.38739 0.74761 0
M  V30 5373 C 512.353 1.39173 1.87492 0
M  V30 5374 C 513.334 0.256794 1.6815 0
M  V30 5375 O 514.519 0.460762 1.88655 0
M  V30 5376 C 511.649 1.22197 3.25093 0
M  V30 5377 C 510.603 2.32957 3.59047 0
M  V30 5378 C 509.929 2.01082 4.95449 0
M  V30 5379 C 511.229 3.75237 3.6331 0
M  V30 5380 H 512.923 2.3351 1.87386 0
M  V30 5381 H 510.469 1.12399 0.900134 0
M  V30 5382 H 512.422 1.21124 4.03617 0
M  V30 5383 H 511.146 0.243241 3.25693 0
M  V30 5384 H 509.805 2.33226 2.82845 0
M  V30 5385 H 509.453 1.01678 4.92616 0
M  V30 5386 H 509.153 2.75267 5.19136 0
M  V30 5387 H 510.677 2.01638 5.76346 0
M  V30 5388 H 512.091 3.76966 4.31937 0
M  V30 5389 H 510.488 4.48677 3.98509 0
M  V30 5390 H 511.558 4.07122 2.634 0
M  V30 5391 N 512.901 -0.976442 1.23707 0
M  V30 5392 C 514.129 -1.75341 1.09833 0
M  V30 5393 C 514.544 -1.8553 -0.349885 0
M  V30 5394 O 513.901 -1.33732 -1.24185 0
M  V30 5395 C 513.952 -3.17833 1.72233 0
M  V30 5396 O 513.673 -3.08167 3.11391 0
M  V30 5397 C 515.174 -4.11906 1.63853 0
M  V30 5398 H 512.394 -0.550137 0.384175 0
M  V30 5399 H 514.938 -1.2265 1.63638 0
M  V30 5400 H 513.093 -3.67538 1.22452 0
M  V30 5401 H 513.507 -3.97897 3.41729 0
M  V30 5402 H 514.981 -5.09579 2.12211 0
M  V30 5403 H 515.458 -4.35109 0.598092 0
M  V30 5404 H 516.064 -3.68107 2.13019 0
M  V30 5405 N 514.379 -1.04941 -1.1758 0
M  V30 5406 C 515.627 -0.756492 -1.87408 0
M  V30 5407 C 515.948 0.718478 -1.81281 0
M  V30 5408 O 515.218 1.519 -1.23706 0
M  V30 5409 H 513.798 -0.276841 -0.693807 0
M  V30 5410 H 516.46 -1.32803 -1.42652 0
M  V30 5411 H 515.556 -1.06918 -2.93215 0
M  V30 5412 N 515.857 1.33968 -0.830081 0
M  V30 5413 C 516.767 2.33164 -0.259207 0
M  V30 5414 C 517.783 1.62951 0.610164 0
M  V30 5415 O 518.959 1.94668 0.516369 0
M  V30 5416 C 516.024 3.42088 0.563598 0
M  V30 5417 C 515.085 4.28037 -0.329014 0
M  V30 5418 C 514.318 5.3176 0.454616 0
M  V30 5419 O 514.541 5.44876 1.6872 0
M  V30 5420 O 513.475 6.01669 -0.166794 0
M  V30 5421 H 517.301 2.83832 -1.08041 0
M  V30 5422 H 514.886 1.37154 -0.59239 0
M  V30 5423 H 516.768 4.08581 1.03147 0
M  V30 5424 H 515.443 2.93651 1.36201 0
M  V30 5425 H 514.35 3.64443 -0.844538 0
M  V30 5426 H 515.683 4.79934 -1.09196 0
M  V30 5427 N 517.335 0.585699 1.46312 0
M  V30 5428 C 518.584 0.0701192 2.01578 0
M  V30 5429 C 518.897 -1.29889 1.46247 0
M  V30 5430 O 520.103 -1.90598 1.93351 0
M  V30 5431 C 518.559 0.0747499 3.59822 0
M  V30 5432 C 518.167 1.44226 4.24149 0
M  V30 5433 C 519.911 -0.38673 4.22735 0
M  V30 5434 C 517.818 1.40446 5.74481 0
M  V30 5435 H 516.748 0.0224441 0.753666 0
M  V30 5436 H 519.399 0.737789 1.68015 0
M  V30 5437 H 517.781 -0.659144 3.90476 0
M  V30 5438 H 518.955 2.19612 4.05101 0
M  V30 5439 H 517.27 1.84401 3.73343 0
M  V30 5440 H 519.867 -0.433853 5.32937 0
M  V30 5441 H 520.21 -1.40489 3.91878 0
M  V30 5442 H 520.743 0.293195 3.96718 0
M  V30 5443 H 517.482 2.39952 6.10003 0
M  V30 5444 H 517.002 0.692845 5.95785 0
M  V30 5445 H 518.681 1.11865 6.37256 0
M  V30 5446 N 518.813 -1.54241 0.323641 0
M  V30 5447 C 520.224 -1.85975 -0.164405 0
M  V30 5448 C 520.575 -1.24529 -1.51615 0
M  V30 5449 O 519.7 -0.551351 -2.09258 0
M  V30 5450 C 520.295 -3.37424 -0.305091 0
M  V30 5451 C 518.854 -3.69107 -0.737358 0
M  V30 5452 C 518.001 -2.76942 0.140884 0
M  V30 5453 H 520.952 -1.49088 0.543922 0
M  V30 5454 H 520.973 -3.63147 -1.13598 0
M  V30 5455 H 520.485 -3.82116 0.678876 0
M  V30 5456 H 518.586 -3.29947 -1.73107 0
M  V30 5457 H 518.699 -4.76035 -0.541053 0
M  V30 5458 H 517.063 -2.51795 -0.383572 0
M  V30 5459 H 517.846 -3.24461 1.12162 0
M  V30 5460 N 520.291 -0.0518155 -1.57515 0
M  V30 5461 C 521.521 0.63048 -1.96745 0
M  V30 5462 C 521.929 1.64875 -0.928054 0
M  V30 5463 O 521.272 1.83449 0.0960678 0
M  V30 5464 C 521.334 1.37381 -3.32215 0
M  V30 5465 C 520.998 0.511298 -4.54131 0
M  V30 5466 C 521.995 -0.222884 -5.19422 0
M  V30 5467 C 519.68 0.442035 -5.00351 0
M  V30 5468 C 521.674 -1.01476 -6.2927 0
M  V30 5469 C 519.361 -0.35353 -6.10077 0
M  V30 5470 C 520.359 -1.08062 -6.74397 0
M  V30 5471 O 520.047 -1.8631 -7.82013 0
M  V30 5472 H 519.779 0.177126 -0.652382 0
M  V30 5473 H 522.333 -0.114726 -2.05079 0
M  V30 5474 H 520.563 2.16466 -3.20436 0
M  V30 5475 H 522.252 1.9464 -3.56188 0
M  V30 5476 H 523.018 -0.178846 -4.8467 0
M  V30 5477 H 518.897 0.997562 -4.50077 0
M  V30 5478 H 522.441 -1.58279 -6.79407 0
M  V30 5479 H 518.338 -0.399205 -6.44264 0
M  V30 5480 H 519.106 -1.78528 -7.98793 0
M  V30 5481 N 521.769 1.56035 0.221574 0
M  V30 5482 C 522.716 1.92413 1.27459 0
M  V30 5483 C 523.686 0.781323 1.46576 0
M  V30 5484 O 524.871 1.03721 1.60145 0
M  V30 5485 C 522.011 2.24617 2.61995 0
M  V30 5486 C 521.124 3.51831 2.50677 0
M  V30 5487 C 520.259 3.73482 3.77736 0
M  V30 5488 C 519.298 4.94211 3.6114 0
M  V30 5489 N 518.435 5.12252 4.80148 0
M  V30 5490 H 523.275 2.82203 0.957355 0
M  V30 5491 H 520.812 1.39676 0.461415 0
M  V30 5492 H 522.77 2.41298 3.40339 0
M  V30 5493 H 521.4 1.38 2.91815 0
M  V30 5494 H 520.452 3.43343 1.63767 0
M  V30 5495 H 521.764 4.40328 2.34334 0
M  V30 5496 H 520.918 3.9026 4.64523 0
M  V30 5497 H 519.657 2.83266 3.97003 0
M  V30 5498 H 518.662 4.77384 2.72736 0
M  V30 5499 H 519.887 5.85912 3.43343 0
M  V30 5500 H 517.833 4.24978 4.99729 0
M  V30 5501 H 517.75 5.94881 4.66532 0
M  V30 5502 H 519.018 5.33465 5.68362 0
M  V30 5503 N 523.247 -0.488276 1.49845 0
M  V30 5504 C 524.524 -1.24959 1.50481 0
M  V30 5505 C 524.904 -2.09735 0.239698 0
M  V30 5506 O 524.252 -2.14865 -0.777524 0
M  V30 5507 C 524.462 -2.0954 2.79095 0
M  V30 5508 C 525.81 -2.68305 3.29086 0
M  V30 5509 O 526.834 -2.19797 2.80299 0
M  V30 5510 O 525.693 -3.56643 4.14087 0
M  V30 5511 H 522.787 -0.566133 0.602845 0
M  V30 5512 H 525.333 -0.501504 1.6212 0
M  V30 5513 H 524.105 -1.46958 3.62656 0
M  V30 5514 H 523.728 -2.91517 2.70377 0
M  V30 5515 N 524.725 -1.39134 -0.740242 0
M  V30 5516 C 525.971 -1.36273 -1.50192 0
M  V30 5517 C 526.304 0.0430136 -1.94152 0
M  V30 5518 O 525.579 1.00691 -1.66408 0
M  V30 5519 C 525.862 -2.33041 -2.74525 0
M  V30 5520 C 525.715 -3.82535 -2.36617 0
M  V30 5521 C 527.034 -2.27723 -3.76604 0
M  V30 5522 H 524.153 -0.496323 -0.544823 0
M  V30 5523 H 526.795 -1.70085 -0.846815 0
M  V30 5524 H 524.945 -2.04337 -3.30422 0
M  V30 5525 H 526.617 -4.21967 -1.86391 0
M  V30 5526 H 524.86 -3.99565 -1.68909 0
M  V30 5527 H 525.531 -4.45723 -3.2563 0
M  V30 5528 H 528.007 -2.53091 -3.30279 0
M  V30 5529 H 526.883 -2.97519 -4.61274 0
M  V30 5530 H 527.144 -1.28049 -4.2315 0
M  V30 5531 N 526.204 0.969867 -1.24223 0
M  V30 5532 C 527.481 1.68774 -0.988664 0
M  V30 5533 C 527.861 2.05342 0.489673 0
M  V30 5534 O 527.209 1.75486 1.46345 0
M  V30 5535 C 527.419 2.92135 -1.90941 0
M  V30 5536 C 528.767 3.64422 -2.17903 0
M  V30 5537 O 529.791 3.02188 -1.88576 0
M  V30 5538 O 528.65 4.76446 -2.67697 0
M  V30 5539 H 525.744 0.737736 -0.37373 0
M  V30 5540 H 528.29 1.02415 -1.35312 0
M  V30 5541 H 527.062 2.61788 -2.90831 0
M  V30 5542 H 526.685 3.66228 -1.54798 0
M  V30 5543 N 527.682 1.05563 1.17022 0
M  V30 5544 C 528.907 0.788437 1.91829 0
M  V30 5545 C 529.332 -0.650356 1.76499 0
M  V30 5546 O 528.69 -1.45229 1.08527 0
M  V30 5547 C 528.738 1.1786 3.40795 0
M  V30 5548 O 527.842 0.312965 4.11211 0
M  V30 5549 H 527.183 0.288794 0.597908 0
M  V30 5550 H 529.713 1.40948 1.48307 0
M  V30 5551 H 529.723 1.14697 3.91546 0
M  V30 5552 H 528.398 2.22666 3.51273 0
M  V30 5553 H 526.975 0.405515 3.70689 0
M  V30 5554 N 529.16 -1.33526 0.837174 0
M  V30 5555 C 530.385 -2.0258 0.444545 0
M  V30 5556 C 530.81 -1.6258 -0.946006 0
M  V30 5557 O 530.168 -0.817548 -1.6182 0
M  V30 5558 C 530.216 -3.5605 0.571006 0
M  V30 5559 O 529.32 -4.10422 -0.403431 0
M  V30 5560 H 528.661 -0.638866 0.180958 0
M  V30 5561 H 531.191 -1.70462 1.13154 0
M  V30 5562 H 531.201 -4.05488 0.452024 0
M  V30 5563 H 529.876 -3.84509 1.58512 0
M  V30 5564 H 528.453 -3.72113 -0.242147 0
M  V30 5565 N 530.638 -0.59345 -1.46 0
M  V30 5566 C 531.601 0.123538 -2.28867 0
M  V30 5567 C 532.601 0.808628 -1.38989 0
M  V30 5568 O 533.791 0.658945 -1.61256 0
M  V30 5569 C 530.923 1.1847 -3.19653 0
M  V30 5570 H 532.116 -0.604843 -2.93737 0
M  V30 5571 H 529.669 -0.351875 -1.52288 0
M  V30 5572 H 530.404 1.94431 -2.59552 0
M  V30 5573 H 530.189 0.69783 -3.8584 0
M  V30 5574 H 531.679 1.68726 -3.81997 0
M  V30 5575 N 532.116 1.54067 -0.331816 0
M  V30 5576 C 533.365 1.99895 0.269209 0
M  V30 5577 C 533.678 1.22371 1.52593 0
M  V30 5578 O 534.884 1.58618 2.20347 0
M  V30 5579 C 533.34 3.55972 0.530244 0
M  V30 5580 C 532.948 4.4234 -0.709901 0
M  V30 5581 C 534.692 4.10247 1.09077 0
M  V30 5582 C 532.599 5.89905 -0.420312 0
M  V30 5583 H 531.529 0.746741 0.104371 0
M  V30 5584 H 534.18 1.78014 -0.445324 0
M  V30 5585 H 532.562 3.73873 1.30518 0
M  V30 5586 H 533.736 4.36215 -1.48504 0
M  V30 5587 H 532.051 3.98997 -1.19123 0
M  V30 5588 H 534.648 5.18095 1.32219 0
M  V30 5589 H 534.991 3.62739 2.0427 0
M  V30 5590 H 535.524 3.96011 0.376824 0
M  V30 5591 H 532.263 6.41623 -1.34164 0
M  V30 5592 H 531.783 5.98962 0.316962 0
M  V30 5593 H 533.462 6.46991 -0.0331956 0
M  V30 5594 N 533.594 0.0601682 1.57485 0
M  V30 5595 C 534.843 -0.611101 1.9222 0
M  V30 5596 C 535.156 -1.71469 0.941159 0
M  V30 5597 O 536.362 -2.44473 1.18089 0
M  V30 5598 C 534.818 -1.13832 3.41424 0
M  V30 5599 C 534.426 -0.0663596 4.47951 0
M  V30 5600 C 536.17 -1.78432 3.85178 0
M  V30 5601 C 534.077 -0.606965 5.88277 0
M  V30 5602 H 533.007 -0.232033 0.71741 0
M  V30 5603 H 535.658 0.130518 1.83035 0
M  V30 5604 H 534.04 -1.93254 3.45643 0
M  V30 5605 H 535.214 0.707682 4.55333 0
M  V30 5606 H 533.529 0.482715 4.13593 0
M  V30 5607 H 536.126 -2.1989 4.87394 0
M  V30 5608 H 536.469 -2.63966 3.21913 0
M  V30 5609 H 537.002 -1.05651 3.83514 0
M  V30 5610 H 533.741 0.21095 6.5516 0
M  V30 5611 H 533.261 -1.34879 5.84438 0
M  V30 5612 H 534.94 -1.08704 6.37803 0
M  V30 5613 N 535.072 -1.5615 -0.213296 0
M  V30 5614 C 536.318 -1.80718 -0.933402 0
M  V30 5615 C 536.673 -0.634441 -1.81639 0
M  V30 5616 O 535.966 0.371182 -1.8797 0
M  V30 5617 C 536.16 -3.08772 -1.79985 0
M  V30 5618 C 535.989 -4.38389 -1.00224 0
M  V30 5619 C 534.759 -5.00513 -0.693885 0
M  V30 5620 C 536.957 -5.13013 -0.363598 0
M  V30 5621 N 534.939 -6.13774 0.124266 0
M  V30 5622 C 536.31 -6.19186 0.31757 0
M  V30 5623 C 538.365 -4.97126 -0.277468 0
M  V30 5624 C 537.068 -7.11197 1.07664 0
M  V30 5625 C 539.094 -5.89544 0.468155 0
M  V30 5626 C 538.456 -6.95149 1.13784 0
M  V30 5627 H 534.555 -0.712833 -0.321549 0
M  V30 5628 H 537.139 -1.93633 -0.203588 0
M  V30 5629 H 535.31 -2.97126 -2.50142 0
M  V30 5630 H 537.042 -3.21499 -2.45806 0
M  V30 5631 H 533.797 -4.62619 -1.01391 0
M  V30 5632 H 534.221 -6.74981 0.522418 0
M  V30 5633 H 538.863 -4.15526 -0.78087 0
M  V30 5634 H 536.581 -7.92273 1.59153 0
M  V30 5635 H 540.167 -5.79327 0.535911 0
M  V30 5636 H 539.047 -7.65428 1.70557 0
M  V30 5637 N 536.55 0.480323 -1.50102 0
M  V30 5638 C 537.798 1.23063 -1.60312 0
M  V30 5639 C 538.119 1.92659 -0.301226 0
M  V30 5640 O 537.389 1.83691 0.680753 0
M  V30 5641 H 535.969 0.457231 -0.590719 0
M  V30 5642 H 538.631 0.554893 -1.86834 0
M  V30 5643 H 537.727 1.9835 -2.40964 0
M  V30 5644 N 538.028 1.39524 0.732853 0
M  V30 5645 C 539.274 1.37068 1.49467 0
M  V30 5646 C 539.607 -0.0327166 1.94172 0
M  V30 5647 O 538.882 -0.998071 1.66939 0
M  V30 5648 C 539.165 2.34494 2.73285 0
M  V30 5649 C 539.018 3.83784 2.34585 0
M  V30 5650 C 540.337 2.29717 3.75391 0
M  V30 5651 H 537.456 0.499206 0.542183 0
M  V30 5652 H 540.098 1.70532 0.837783 0
M  V30 5653 H 538.248 2.06087 3.29333 0
M  V30 5654 H 539.92 4.22949 1.84151 0
M  V30 5655 H 538.163 4.00455 1.66787 0
M  V30 5656 H 538.834 4.47444 3.23262 0
M  V30 5657 H 541.31 2.54839 3.28932 0
M  V30 5658 H 540.186 2.99962 4.59689 0
M  V30 5659 H 540.447 1.30291 4.22465 0
M  V30 5660 N 539.506 -0.963266 1.24736 0
M  V30 5661 C 540.754 -1.70343 1.08755 0
M  V30 5662 C 541.075 -1.91387 -0.373619 0
M  V30 5663 O 540.345 -1.4948 -1.2662 0
M  V30 5664 H 538.925 -0.631224 0.399456 0
M  V30 5665 H 541.587 -1.15859 1.56725 0
M  V30 5666 H 540.683 -2.68616 1.58909 0
M  V30 5667 N 540.985 -1.06182 -1.16461 0
M  V30 5668 C 542.21 -0.798599 -1.91408 0
M  V30 5669 C 542.635 0.640987 -1.76842 0
M  V30 5670 O 541.993 1.44652 -1.09296 0
M  V30 5671 C 542.041 -1.19665 -3.40165 0
M  V30 5672 O 541.145 -0.334768 -4.11039 0
M  V30 5673 H 540.486 -0.291961 -0.596368 0
M  V30 5674 H 543.016 -1.41732 -1.47557 0
M  V30 5675 H 543.026 -1.16772 -3.90933 0
M  V30 5676 H 541.701 -2.24526 -3.50087 0
M  V30 5677 H 540.278 -0.425168 -3.70468 0
M  V30 5678 N 542.463 1.3308 -0.844243 0
M  V30 5679 C 543.411 2.31028 -0.269954 0
M  V30 5680 C 544.405 1.58381 0.600997 0
M  V30 5681 O 545.611 1.73203 0.48996 0
M  V30 5682 H 541.986 0.748866 -0.0685782 0
M  V30 5683 H 543.957 2.76967 -1.11049 0
M  V30 5684 C 542.706 3.43549 0.535676 0
M  V30 5685 H 542.029 3.99604 -0.125202 0
M  V30 5686 H 543.469 4.14267 0.903262 0
M  V30 5687 C 541.928 2.8988 1.71672 0
M  V30 5688 O 542.458 2.86511 2.81557 0
M  V30 5689 N 540.664 2.46416 1.54037 0
M  V30 5690 H 540.211 2.49356 0.64649 0
M  V30 5691 H 540.169 2.1086 2.33207 0
M  V30 5692 N 543.941 0.601185 1.45683 0
M  V30 5693 C 545.166 0.0982245 2.07167 0
M  V30 5694 C 545.591 -1.20546 1.44396 0
M  V30 5695 O 544.949 -1.73247 0.534347 0
M  V30 5696 C 544.997 -0.0346976 3.60583 0
M  V30 5697 O 544.101 -1.08657 3.97828 0
M  V30 5698 H 543.442 0.0711618 0.660176 0
M  V30 5699 H 545.972 0.829376 1.87036 0
M  V30 5700 H 545.982 -0.234969 4.07323 0
M  V30 5701 H 544.657 0.917265 4.05659 0
M  V30 5702 H 543.234 -0.863275 3.6277 0
M  V30 5703 N 545.419 -1.53889 0.339982 0
M  V30 5704 C 546.349 -2.27843 -0.510856 0
M  V30 5705 C 547.33 -1.29267 -1.10563 0
M  V30 5706 O 548.515 -1.58104 -1.12768 0
M  V30 5707 C 545.645 -3.04857 -1.66372 0
M  V30 5708 C 544.599 -4.10907 -1.19746 0
M  V30 5709 C 543.925 -4.75855 -2.43857 0
M  V30 5710 C 545.225 -5.21435 -0.300501 0
M  V30 5711 H 546.919 -2.99212 0.106067 0
M  V30 5712 H 544.465 -1.43904 0.0524533 0
M  V30 5713 H 546.418 -3.5533 -2.26537 0
M  V30 5714 H 545.142 -2.31133 -2.30749 0
M  V30 5715 H 543.801 -3.61342 -0.618654 0
M  V30 5716 H 543.449 -3.9873 -3.06633 0
M  V30 5717 H 543.149 -5.47502 -2.13343 0
M  V30 5718 H 544.673 -5.2911 -3.04754 0
M  V30 5719 H 546.087 -5.67565 -0.80889 0
M  V30 5720 H 544.484 -6.00036 -0.0874076 0
M  V30 5721 H 545.554 -4.80328 0.664321 0
M  V30 5722 N 546.897 -0.0685191 -1.57451 0
M  V30 5723 C 547.847 0.909895 -2.09057 0
M  V30 5724 C 548.831 1.26088 -0.999528 0
M  V30 5725 O 550.023 1.24041 -1.26265 0
M  V30 5726 C 547.152 2.17863 -2.65312 0
M  V30 5727 C 546.238 1.85427 -3.81415 0
M  V30 5728 N 546.629 1.23426 -4.9051 0
M  V30 5729 C 544.927 2.15196 -3.90649 0
M  V30 5730 C 545.628 1.09008 -5.71395 0
M  V30 5731 N 544.604 1.59871 -5.1956 0
M  V30 5732 H 548.406 0.426145 -2.90794 0
M  V30 5733 H 545.92 0.135462 -1.61834 0
M  V30 5734 H 547.917 2.88872 -3.00597 0
M  V30 5735 H 546.577 2.66829 -1.85021 0
M  V30 5736 H 547.588 0.904305 -5.09944 0
M  V30 5737 H 544.265 2.66562 -3.21327 0
M  V30 5738 H 545.655 0.607305 -6.6915 0
M  V30 5739 N 548.375 1.56261 0.205012 0
M  V30 5740 C 549.305 1.96779 1.257 0
M  V30 5741 C 550.286 0.838309 1.48008 0
M  V30 5742 O 551.471 1.10189 1.59913 0
M  V30 5743 C 548.601 2.29876 2.60335 0
M  V30 5744 C 547.555 3.45469 2.52656 0
M  V30 5745 C 546.881 3.64215 3.91473 0
M  V30 5746 C 548.181 4.79954 2.06014 0
M  V30 5747 H 549.875 2.84904 0.920338 0
M  V30 5748 H 547.421 1.37072 0.441277 0
M  V30 5749 H 549.374 2.56814 3.34102 0
M  V30 5750 H 548.098 1.38622 2.95722 0
M  V30 5751 H 546.757 3.18605 1.81345 0
M  V30 5752 H 546.405 2.70309 4.24196 0
M  V30 5753 H 546.105 4.41973 3.87213 0
M  V30 5754 H 547.629 3.93519 4.66878 0
M  V30 5755 H 549.043 5.05989 2.69533 0
M  V30 5756 H 547.44 5.61111 2.12777 0
M  V30 5757 H 548.51 4.74201 1.01297 0
M  V30 5758 N 549.853 -0.472356 1.50355 0
M  V30 5759 C 551.264 -1.05326 1.54154 0
M  V30 5760 C 551.615 -1.93155 0.344303 0
M  V30 5761 O 550.74 -2.09479 -0.542928 0
M  V30 5762 C 551.335 -1.91691 2.79356 0
M  V30 5763 C 549.894 -2.44892 2.8584 0
M  V30 5764 C 549.041 -1.23205 2.48426 0
M  V30 5765 H 551.992 -0.255027 1.56637 0
M  V30 5766 H 552.013 -2.76742 2.6114 0
M  V30 5767 H 551.525 -1.27741 3.66475 0
M  V30 5768 H 549.626 -3.12399 2.0307 0
M  V30 5769 H 549.739 -2.80086 3.88701 0
M  V30 5770 H 548.103 -1.56643 2.00836 0
M  V30 5771 H 548.886 -0.609194 3.37852 0
M  V30 5772 N 551.331 -1.39911 -0.725443 0
M  V30 5773 C 552.577 -1.37858 -1.48738 0
M  V30 5774 C 552.91 0.0224187 -1.94187 0
M  V30 5775 O 552.185 0.989204 -1.67466 0
M  V30 5776 C 552.468 -2.3594 -2.72038 0
M  V30 5777 C 552.321 -3.85023 -2.32546 0
M  V30 5778 C 553.64 -2.31704 -3.74167 0
M  V30 5779 H 550.759 -0.502074 -0.539528 0
M  V30 5780 H 553.401 -1.70974 -0.828728 0
M  V30 5781 H 551.551 -2.0783 -3.28236 0
M  V30 5782 H 553.223 -4.2392 -1.81905 0
M  V30 5783 H 551.466 -4.01334 -1.64661 0
M  V30 5784 H 552.137 -4.49152 -3.20884 0
M  V30 5785 H 554.613 -2.5658 -3.27576 0
M  V30 5786 H 553.489 -3.02395 -4.58092 0
M  V30 5787 H 553.75 -1.3253 -4.21768 0
M  V30 5788 N 552.809 0.956637 -1.25245 0
M  V30 5789 C 554.22 1.51569 -1.09012 0
M  V30 5790 C 554.571 1.93322 0.334813 0
M  V30 5791 O 553.696 1.78421 1.22454 0
M  V30 5792 C 554.291 2.75444 -1.97271 0
M  V30 5793 C 552.85 3.27669 -1.8523 0
M  V30 5794 C 551.997 2.00517 -1.91542 0
M  V30 5795 H 554.948 0.773746 -1.3856 0
M  V30 5796 H 554.969 3.4919 -1.51151 0
M  V30 5797 H 554.481 2.45024 -3.00973 0
M  V30 5798 H 552.582 3.62914 -0.844045 0
M  V30 5799 H 552.695 3.9582 -2.69932 0
M  V30 5800 H 551.059 2.15727 -1.35404 0
M  V30 5801 H 551.842 1.72448 -2.96844 0
M  V30 5802 N 554.287 1.06798 1.15896 0
M  V30 5803 C 555.512 0.808739 1.90982 0
M  V30 5804 C 555.937 -0.6316 1.77179 0
M  V30 5805 O 555.295 -1.4407 1.10061 0
M  V30 5806 C 555.343 1.21468 3.39526 0
M  V30 5807 O 554.447 0.356562 4.10856 0
M  V30 5808 H 553.788 0.29512 0.594811 0
M  V30 5809 H 556.318 1.42513 1.46804 0
M  V30 5810 H 556.328 1.18844 3.90308 0
M  V30 5811 H 555.003 2.26379 3.48891 0
M  V30 5812 H 553.58 0.444808 3.70238 0
M  V30 5813 N 555.766 -1.3263 0.851289 0
M  V30 5814 C 556.994 -2.01563 0.466899 0
M  V30 5815 C 557.409 -1.63996 -0.935447 0
M  V30 5816 O 556.766 -0.85957 -1.6099 0
M  V30 5817 C 556.817 -3.56613 0.592433 0
M  V30 5818 O 556.538 -3.92828 1.93954 0
M  V30 5819 C 558.039 -4.42818 0.206612 0
M  V30 5820 H 555.259 -0.645307 0.183902 0
M  V30 5821 H 557.803 -1.69285 1.1473 0
M  V30 5822 H 555.958 -3.87379 -0.0401936 0
M  V30 5823 H 556.372 -4.87545 1.9339 0
M  V30 5824 H 557.846 -5.50918 0.345462 0
M  V30 5825 H 558.323 -4.30844 -0.85264 0
M  V30 5826 H 558.929 -4.17434 0.814176 0
M  V30 5827 N 557.244 -0.608902 -1.45362 0
M  V30 5828 C 558.484 -0.10763 -2.04116 0
M  V30 5829 C 558.848 1.23883 -1.46686 0
M  V30 5830 O 560.049 1.83091 -1.96803 0
M  V30 5831 C 558.32 -0.0703351 -3.57331 0
M  V30 5832 S 559.879 0.369554 -4.37241 0
M  V30 5833 H 556.697 -0.0502123 -0.709225 0
M  V30 5834 H 559.299 -0.8073 -1.78053 0
M  V30 5835 H 558.003 -1.05379 -3.9664 0
M  V30 5836 H 557.534 0.651287 -3.87971 0
M  V30 5837 H 559.549 1.61878 -4.69052 0
M  V30 5838 N 558.722 1.53707 -0.348139 0
M  V30 5839 C 560.133 1.86213 0.134797 0
M  V30 5840 C 560.484 1.26925 1.49614 0
M  V30 5841 O 559.609 0.584573 2.08355 0
M  V30 5842 C 560.204 3.37866 0.251371 0
M  V30 5843 C 558.763 3.70233 0.678543 0
M  V30 5844 C 557.91 2.76683 -0.184925 0
M  V30 5845 H 560.861 1.48204 -0.567571 0
M  V30 5846 H 560.882 3.64908 1.07806 0
M  V30 5847 H 560.394 3.80988 -0.739581 0
M  V30 5848 H 558.495 3.32659 1.67835 0
M  V30 5849 H 558.608 4.76836 0.465251 0
M  V30 5850 H 556.972 2.52374 0.343465 0
M  V30 5851 H 557.755 3.22635 -1.1731 0
M  V30 5852 N 560.2 0.0768682 1.57412 0
M  V30 5853 C 561.477 -0.632359 1.85096 0
M  V30 5854 C 561.857 -1.87479 0.9703 0
M  V30 5855 O 561.205 -2.28469 0.0379062 0
M  V30 5856 C 561.415 -0.965174 3.35388 0
M  V30 5857 C 562.763 -1.33648 4.03018 0
M  V30 5858 O 563.787 -1.05675 3.40164 0
M  V30 5859 O 562.646 -1.85959 5.13889 0
M  V30 5860 H 559.74 -0.314574 0.764835 0
M  V30 5861 H 562.286 0.108184 1.69355 0
M  V30 5862 H 561.058 -0.0829745 3.91212 0
M  V30 5863 H 560.681 -1.76231 3.5641 0
M  V30 5864 N 561.678 -1.56367 -0.196722 0
M  V30 5865 C 562.926 -1.80172 -0.915554 0
M  V30 5866 C 563.247 -0.649649 -1.8386 0
M  V30 5867 O 562.517 0.332111 -1.93064 0
M  V30 5868 H 561.097 -0.664592 -0.341067 0
M  V30 5869 H 563.759 -1.93844 -0.202622 0
M  V30 5870 H 562.855 -2.7327 -1.50764 0
M  V30 5871 N 563.156 0.464375 -1.50603 0
M  V30 5872 C 564.403 1.21596 -1.61928 0
M  V30 5873 C 564.731 1.91804 -0.322737 0
M  V30 5874 O 563.986 1.83065 0.691776 0
M  V30 5875 C 564.285 2.278 -2.75394 0
M  V30 5876 C 563.951 1.74797 -4.1564 0
M  V30 5877 C 562.613 1.60063 -4.53799 0
M  V30 5878 C 564.965 1.35548 -5.03266 0
M  V30 5879 C 562.293 1.04514 -5.77316 0
M  V30 5880 C 564.645 0.814381 -6.27336 0
M  V30 5881 C 563.309 0.653726 -6.64291 0
M  V30 5882 H 562.579 0.444951 -0.592536 0
M  V30 5883 H 565.226 0.510964 -1.84557 0
M  V30 5884 H 563.531 3.04233 -2.46879 0
M  V30 5885 H 565.228 2.85723 -2.81359 0
M  V30 5886 H 561.818 1.87234 -3.8554 0
M  V30 5887 H 566.002 1.45763 -4.74412 0
M  V30 5888 H 561.258 0.908186 -6.04617 0
M  V30 5889 H 565.432 0.501626 -6.94591 0
M  V30 5890 H 563.059 0.22114 -7.59878 0
M  V30 5891 N 564.634 1.40294 0.718013 0
M  V30 5892 C 565.581 1.40367 1.8321 0
M  V30 5893 C 566.551 0.260952 1.64037 0
M  V30 5894 O 567.736 0.458648 1.85205 0
M  V30 5895 C 564.876 1.26965 3.20895 0
M  V30 5896 C 563.989 2.50922 3.51656 0
M  V30 5897 C 563.124 2.29981 4.78834 0
M  V30 5898 C 562.163 3.49527 5.02491 0
M  V30 5899 N 561.3 3.27796 6.20882 0
M  V30 5900 H 566.14 2.35593 1.82482 0
M  V30 5901 H 563.677 1.17012 0.891444 0
M  V30 5902 H 565.635 1.17202 4.00399 0
M  V30 5903 H 564.265 0.353591 3.20858 0
M  V30 5904 H 563.317 2.71223 2.66725 0
M  V30 5905 H 564.629 3.39913 3.65048 0
M  V30 5906 H 563.783 2.17558 5.66351 0
M  V30 5907 H 562.522 1.38411 4.67647 0
M  V30 5908 H 561.527 3.6243 4.1343 0
M  V30 5909 H 562.752 4.42021 5.15553 0
M  V30 5910 H 560.698 2.38906 6.1095 0
M  V30 5911 H 560.615 4.10351 6.34939 0
M  V30 5912 H 561.883 3.19101 7.11193 0
M  V30 5913 N 566.112 -0.949982 1.2575 0
M  V30 5914 C 567.361 -1.68956 1.10168 0
M  V30 5915 C 567.674 -1.92327 -0.356309 0
M  V30 5916 O 568.88 -2.64026 -0.632657 0
M  V30 5917 C 567.336 -3.04196 1.92336 0
M  V30 5918 C 566.944 -2.88603 3.42655 0
M  V30 5919 C 568.688 -3.81904 1.85336 0
M  V30 5920 C 566.595 -4.19262 4.17101 0
M  V30 5921 H 565.525 -0.633645 0.408668 0
M  V30 5922 H 568.176 -1.05719 1.49986 0
M  V30 5923 H 566.558 -3.68363 1.45344 0
M  V30 5924 H 567.732 -2.3334 3.97353 0
M  V30 5925 H 566.047 -2.24345 3.50796 0
M  V30 5926 H 568.644 -4.78688 2.38248 0
M  V30 5927 H 568.987 -4.08099 0.822226 0
M  V30 5928 H 569.52 -3.24495 2.30104 0
M  V30 5929 H 566.259 -3.98254 5.20648 0
M  V30 5930 H 565.779 -4.74273 3.67186 0
M  V30 5931 H 567.458 -4.87775 4.25071 0
M  V30 5932 N 567.59 -1.07411 -1.15328 0
M  V30 5933 C 568.52 -0.716472 -2.22236 0
M  V30 5934 C 569.501 0.296373 -1.67498 0
M  V30 5935 O 570.686 0.168989 -1.93463 0
M  V30 5936 C 567.816 -0.114142 -3.47112 0
M  V30 5937 C 566.77 -1.05421 -4.14814 0
M  V30 5938 C 566.096 -0.314604 -5.33774 0
M  V30 5939 C 567.396 -2.38808 -4.64508 0
M  V30 5940 H 569.09 -1.61029 -2.52408 0
M  V30 5941 H 566.636 -0.775702 -1.21321 0
M  V30 5942 H 568.589 0.148001 -4.2114 0
M  V30 5943 H 567.313 0.814755 -3.16274 0
M  V30 5944 H 565.972 -1.30128 -3.42728 0
M  V30 5945 H 565.62 0.617772 -4.99192 0
M  V30 5946 H 565.32 -0.941209 -5.80013 0
M  V30 5947 H 566.844 -0.0602747 -6.1057 0
M  V30 5948 H 568.258 -2.18424 -5.3006 0
M  V30 5949 H 566.655 -2.97069 -5.21412 0
M  V30 5950 H 567.725 -3.01067 -3.80114 0
M  V30 5951 N 569.068 1.32177 -0.85831 0
M  V30 5952 C 570.001 2.26823 -0.25035 0
M  V30 5953 C 570.979 1.50571 0.61378 0
M  V30 5954 O 572.163 1.79682 0.569777 0
M  V30 5955 C 569.29 3.32472 0.646556 0
M  V30 5956 C 568.336 4.26255 -0.144675 0
M  V30 5957 S 569.169 5.13608 -1.5155 0
M  V30 5958 C 570.325 6.22778 -0.624408 0
M  V30 5959 H 570.558 2.7804 -1.05267 0
M  V30 5960 H 568.091 1.39764 -0.656152 0
M  V30 5961 H 570.049 3.93817 1.15837 0
M  V30 5962 H 568.71 2.80031 1.42272 0
M  V30 5963 H 567.903 5.01114 0.538613 0
M  V30 5964 H 567.505 3.69346 -0.588198 0
M  V30 5965 H 569.797 6.77287 0.169846 0
M  V30 5966 H 570.74 6.95233 -1.34376 0
M  V30 5967 H 571.148 5.64156 -0.197128 0
M  V30 5968 N 570.547 0.616602 1.45037 0
M  V30 5969 C 571.494 -0.0969439 2.30596 0
M  V30 5970 C 572.464 -0.851151 1.42635 0
M  V30 5971 O 573.649 -0.835092 1.71554 0
M  V30 5972 C 570.789 -1.08234 3.27688 0
M  V30 5973 C 569.902 -0.328072 4.30752 0
M  V30 5974 C 569.037 -1.30399 5.14946 0
M  V30 5975 C 568.076 -0.538049 6.09731 0
M  V30 5976 N 567.213 -1.46371 6.86673 0
M  V30 5977 H 572.053 0.63864 2.91076 0
M  V30 5978 H 569.59 0.326733 1.43425 0
M  V30 5979 H 571.548 -1.66688 3.82454 0
M  V30 5980 H 570.178 -1.78523 2.68941 0
M  V30 5981 H 569.23 0.372136 3.78575 0
M  V30 5982 H 570.542 0.269142 4.98073 0
M  V30 5983 H 569.696 -1.96032 5.74157 0
M  V30 5984 H 568.435 -1.93514 4.47665 0
M  V30 5985 H 567.44 0.131852 5.49642 0
M  V30 5986 H 568.665 0.0881732 6.79043 0
M  V30 5987 H 566.611 -2.08233 6.22073 0
M  V30 5988 H 566.528 -0.920152 7.50379 0
M  V30 5989 H 567.796 -2.10932 7.50418 0
M  V30 5990 N 572.025 -1.5352 0.356285 0
M  V30 5991 C 572.957 -2.23009 -0.529127 0
M  V30 5992 C 573.97 -1.241 -1.05371 0
M  V30 5993 O 575.159 -1.50379 -0.961679 0
M  V30 5994 C 572.259 -2.90685 -1.74229 0
M  V30 5995 C 571.432 -4.16019 -1.35081 0
M  V30 5996 C 570.491 -4.66989 -2.42502 0
M  V30 5997 O 569.517 -5.30895 -2.05279 0
M  V30 5998 N 570.719 -4.44006 -3.7395 0
M  V30 5999 H 573.484 -2.99627 0.0660501 0
M  V30 6000 H 571.045 -1.60885 0.181014 0
M  V30 6001 H 573.037 -3.21695 -2.4555 0
M  V30 6002 H 571.607 -2.17575 -2.24454 0
M  V30 6003 H 570.827 -3.91414 -0.467833 0
M  V30 6004 H 572.115 -4.9752 -1.06542 0
M  V30 6005 H 571.513 -3.92924 -4.06973 0
M  V30 6006 H 570.07 -4.7959 -4.41403 0
M  V30 6007 N 573.503 -0.0852151 -1.57369 0
M  V30 6008 C 574.731 0.58946 -1.98325 0
M  V30 6009 C 575.146 1.62333 -0.96403 0
M  V30 6010 O 574.503 1.82438 0.0476395 0
M  V30 6011 C 574.554 1.24604 -3.39347 0
M  V30 6012 O 574.275 0.253532 -4.37366 0
M  V30 6013 C 575.776 2.00726 -3.95252 0
M  V30 6014 H 572.996 0.158783 -0.651942 0
M  V30 6015 H 575.54 -0.161584 -2.03861 0
M  V30 6016 H 573.695 1.94808 -3.34856 0
M  V30 6017 H 574.109 0.726207 -5.19448 0
M  V30 6018 H 575.583 2.42039 -4.96106 0
M  V30 6019 H 576.06 2.86919 -3.32527 0
M  V30 6020 H 576.666 1.3536 -4.03185 0
M  V30 6021 N 574.981 1.5647 0.188427 0
M  V30 6022 C 576.227 1.82181 0.904534 0
M  V30 6023 C 576.582 0.663258 1.80606 0
M  V30 6024 O 575.875 -0.341231 1.88537 0
M  V30 6025 C 576.069 3.11596 1.7505 0
M  V30 6026 C 575.898 4.39928 0.932372 0
M  V30 6027 C 574.668 5.01554 0.61417 0
M  V30 6028 C 576.866 5.13527 0.281936 0
M  V30 6029 N 574.848 6.13499 -0.221896 0
M  V30 6030 C 576.219 6.18603 -0.416037 0
M  V30 6031 C 578.274 4.97505 0.198345 0
M  V30 6032 C 576.977 7.09394 -1.18965 0
M  V30 6033 C 579.003 5.88725 -0.561887 0
M  V30 6034 C 578.365 6.93251 -1.24828 0
M  V30 6035 H 574.464 0.717858 0.310168 0
M  V30 6036 H 577.048 1.93932 0.172757 0
M  V30 6037 H 575.219 3.01068 2.45383 0
M  V30 6038 H 576.951 3.25369 2.4066 0
M  V30 6039 H 573.706 4.64174 0.940187 0
M  V30 6040 H 574.13 6.74065 -0.629735 0
M  V30 6041 H 578.772 4.16716 0.714665 0
M  V30 6042 H 576.49 7.8964 -1.71737 0
M  V30 6043 H 580.076 5.78401 -0.628009 0
M  V30 6044 H 578.956 7.62618 -1.82712 0
M  V30 6045 N 576.459 -0.456382 1.50847 0
M  V30 6046 C 577.391 -1.57033 1.66953 0
M  V30 6047 C 578.404 -1.53207 0.550593 0
M  V30 6048 O 579.593 -1.58328 0.824285 0
M  V30 6049 C 576.693 -2.95937 1.65149 0
M  V30 6050 C 575.866 -3.24475 2.93317 0
M  V30 6051 C 574.925 -4.43007 2.83957 0
M  V30 6052 O 573.951 -4.42592 3.57912 0
M  V30 6053 N 575.153 -5.45503 1.9851 0
M  V30 6054 H 577.918 -1.43629 2.63042 0
M  V30 6055 H 575.479 -0.645037 1.48495 0
M  V30 6056 H 577.471 -3.73224 1.56481 0
M  V30 6057 H 576.041 -3.03036 0.767343 0
M  V30 6058 H 575.261 -2.35664 3.16 0
M  V30 6059 H 576.549 -3.4036 3.78196 0
M  V30 6060 H 575.947 -5.48668 1.37766 0
M  V30 6061 H 574.504 -6.21716 1.95735 0
M  V30 6062 N 577.937 -1.40673 -0.710563 0
M  V30 6063 C 579.162 -1.42741 -1.50465 0
M  V30 6064 C 579.587 -0.0302116 -1.88076 0
M  V30 6065 O 578.945 0.962945 -1.53613 0
M  V30 6066 C 578.993 -2.32873 -2.75322 0
M  V30 6067 O 578.097 -1.77544 -3.72226 0
M  V30 6068 H 577.438 -0.485056 -0.45345 0
M  V30 6069 H 579.968 -1.84961 -0.874681 0
M  V30 6070 H 579.978 -2.48233 -3.23797 0
M  V30 6071 H 578.653 -3.34401 -2.47283 0
M  V30 6072 H 577.23 -1.71556 -3.31093 0
M  V30 6073 N 579.415 0.9433 -1.26252 0
M  V30 6074 C 580.362 2.0417 -1.07625 0
M  V30 6075 C 581.332 1.6609 0.0180738 0
M  V30 6076 O 582.517 1.90276 -0.141289 0
M  V30 6077 C 579.657 3.37653 -0.713043 0
M  V30 6078 C 578.77 3.88783 -1.8834 0
M  V30 6079 C 577.905 5.10642 -1.4635 0
M  V30 6080 C 576.944 5.54028 -2.60229 0
M  V30 6081 N 576.081 6.67092 -2.18936 0
M  V30 6082 H 580.921 2.19436 -2.01623 0
M  V30 6083 H 578.458 1.07519 -1.00389 0
M  V30 6084 H 580.416 4.14391 -0.483358 0
M  V30 6085 H 579.046 3.22241 0.18996 0
M  V30 6086 H 578.098 3.08464 -2.22608 0
M  V30 6087 H 579.41 4.16922 -2.73821 0
M  V30 6088 H 578.564 5.94832 -1.19414 0
M  V30 6089 H 577.303 4.84244 -0.579568 0
M  V30 6090 H 576.308 4.68396 -2.87898 0
M  V30 6091 H 577.533 5.82429 -3.49219 0
M  V30 6092 H 575.479 6.42381 -1.32974 0
M  V30 6093 H 575.396 6.94806 -2.97961 0
M  V30 6094 H 576.664 7.54662 -1.95206 0
M  V30 6095 N 580.893 1.08022 1.14757 0
M  V30 6096 C 582.304 0.829144 1.67279 0
M  V30 6097 C 582.655 -0.644721 1.85305 0
M  V30 6098 O 581.78 -1.49838 1.56133 0
M  V30 6099 C 582.375 1.49855 3.03857 0
M  V30 6100 C 580.934 1.29482 3.53428 0
M  V30 6101 C 580.081 1.56386 2.28995 0
M  V30 6102 H 583.032 1.24134 0.988762 0
M  V30 6103 H 583.053 0.923572 3.69121 0
M  V30 6104 H 582.565 2.57123 2.90705 0
M  V30 6105 H 580.666 0.242669 3.71809 0
M  V30 6106 H 580.779 2.01974 4.34446 0
M  V30 6107 H 579.143 0.985217 2.34874 0
M  V30 6108 H 579.926 2.64851 2.18423 0
M  V30 6109 N 582.371 -1.3172 0.865308 0
M  V30 6110 C 583.787 -1.4958 0.556596 0
M  V30 6111 C 583.987 -1.79763 -0.910353 0
M  V30 6112 O 583.043 -1.87351 -1.6928 0
M  V30 6113 C 584.356 -2.63277 1.45279 0
M  V30 6114 C 585.904 -2.77161 1.45433 0
M  V30 6115 C 586.379 -3.93949 2.33598 0
M  V30 6116 N 587.87 -4.01228 2.31453 0
M  V30 6117 C 588.605 -4.90855 2.96393 0
M  V30 6118 N 588.101 -5.85416 3.70486 0
M  V30 6119 N 589.894 -4.84063 2.85726 0
M  V30 6120 H 582.045 -1.10396 1.81456 0
M  V30 6121 H 584.308 -0.54507 0.775631 0
M  V30 6122 H 584.014 -2.47734 2.49641 0
M  V30 6123 H 583.888 -3.59309 1.14792 0
M  V30 6124 H 586.275 -2.9212 0.41831 0
M  V30 6125 H 586.356 -1.8181 1.79941 0
M  V30 6126 H 586 -3.79748 3.37274 0
M  V30 6127 H 585.93 -4.88598 1.96417 0
M  V30 6128 H 588.421 -3.3357 1.77593 0
M  V30 6129 H 588.734 -6.50525 4.17178 0
M  V30 6130 H 587.079 -5.85409 3.74594 0
M  V30 6131 H 590.27 -4.09163 2.27384 0
M  V30 6132 H 590.443 -5.53708 3.36617 0
M  V30 6133 N 583.85 -0.624285 -1.44708 0
M  V30 6134 C 584.798 0.0969952 -2.32398 0
M  V30 6135 C 585.792 0.842762 -1.46949 0
M  V30 6136 O 586.998 0.756436 -1.63334 0
M  V30 6137 H 583.373 0.0501306 -0.750327 0
M  V30 6138 H 585.344 -0.660767 -2.90992 0
M  V30 6139 C 584.093 1.06967 -3.30837 0
M  V30 6140 H 583.416 0.505242 -3.96595 0
M  V30 6141 H 584.856 1.54397 -3.94889 0
M  V30 6142 C 583.315 2.15153 -2.5925 0
M  V30 6143 O 583.845 3.23139 -2.3863 0
M  V30 6144 N 582.051 1.90898 -2.19103 0
M  V30 6145 H 581.598 1.03086 -2.36074 0
M  V30 6146 H 581.556 2.63485 -1.71531 0
M  V30 6147 N 585.328 1.53329 -0.364422 0
M  V30 6148 C 586.744 1.59594 -0.0133165 0
M  V30 6149 C 586.944 1.37959 1.46865 0
M  V30 6150 O 586 1.18418 2.2301 0
M  V30 6151 C 587.313 2.97032 -0.468213 0
M  V30 6152 C 588.861 3.10138 -0.422334 0
M  V30 6153 C 589.336 4.49986 -0.853024 0
M  V30 6154 N 590.827 4.56098 -0.808037 0
M  V30 6155 C 591.562 5.62495 -1.11299 0
M  V30 6156 N 591.058 6.7665 -1.48717 0
M  V30 6157 N 592.851 5.52473 -1.03586 0
M  V30 6158 H 585.002 1.65644 -1.32951 0
M  V30 6159 H 587.265 0.77684 -0.543345 0
M  V30 6160 H 586.971 3.18 -1.5023 0
M  V30 6161 H 586.845 3.76918 0.145775 0
M  V30 6162 H 589.232 2.88881 0.602622 0
M  V30 6163 H 589.313 2.32263 -1.0718 0
M  V30 6164 H 588.957 4.7198 -1.87609 0
M  V30 6165 H 588.887 5.26289 -0.180819 0
M  V30 6166 H 591.378 3.74131 -0.532361 0
M  V30 6167 H 591.691 7.53776 -1.70415 0
M  V30 6168 H 590.036 6.78044 -1.52581 0
M  V30 6169 H 593.227 4.6217 -0.742736 0
M  V30 6170 H 593.4 6.35295 -1.27686 0
M  V30 6171 N 586.806 0.0935595 1.57322 0
M  V30 6172 C 588.217 -0.435807 1.81542 0
M  V30 6173 C 588.568 -1.68263 1.00907 0
M  V30 6174 O 587.693 -2.15087 0.237983 0
M  V30 6175 C 588.288 -0.797436 3.29282 0
M  V30 6176 C 586.847 -1.27155 3.54272 0
M  V30 6177 C 585.994 -0.267455 2.76007 0
M  V30 6178 H 588.945 0.31902 1.5546 0
M  V30 6179 H 588.966 -1.6571 3.42521 0
M  V30 6180 H 588.478 0.110206 3.87943 0
M  V30 6181 H 586.579 -2.19696 3.00939 0
M  V30 6182 H 586.692 -1.23445 4.62923 0
M  V30 6183 H 585.056 -0.749282 2.43429 0
M  V30 6184 H 585.839 0.632839 3.37417 0
M  V30 6185 N 588.284 -1.56567 -0.180126 0
M  V30 6186 C 589.509 -1.85975 -0.918041 0
M  V30 6187 C 589.934 -0.678888 -1.75422 0
M  V30 6188 O 589.292 0.372168 -1.77439 0
M  V30 6189 C 589.34 -3.13731 -1.77779 0
M  V30 6190 O 588.444 -2.95335 -2.87838 0
M  V30 6191 H 587.785 -0.61196 -0.257683 0
M  V30 6192 H 590.315 -2.03798 -0.180923 0
M  V30 6193 H 590.325 -3.4491 -2.17948 0
M  V30 6194 H 589 -3.99293 -1.16352 0
M  V30 6195 H 587.577 -2.7549 -2.51316 0
M  V30 6196 N 589.762 0.448376 -1.51087 0
M  V30 6197 C 591.009 1.19872 -1.63209 0
M  V30 6198 C 591.337 1.91451 -0.343062 0
M  V30 6199 O 590.592 1.83789 0.672321 0
M  V30 6200 C 590.891 2.24866 -2.77795 0
M  V30 6201 C 590.557 1.70378 -4.17471 0
M  V30 6202 C 589.219 1.55241 -4.55471 0
M  V30 6203 C 591.571 1.30203 -5.04675 0
M  V30 6204 C 588.899 0.983844 -5.78392 0
M  V30 6205 C 591.251 0.747798 -6.28165 0
M  V30 6206 C 589.915 0.583233 -6.64947 0
M  V30 6207 H 589.185 0.438642 -0.597222 0
M  V30 6208 H 591.832 0.49136 -1.85089 0
M  V30 6209 H 590.137 3.01598 -2.50092 0
M  V30 6210 H 591.834 2.82723 -2.84374 0
M  V30 6211 H 588.424 1.83134 -3.87505 0
M  V30 6212 H 592.608 1.40723 -4.75932 0
M  V30 6213 H 587.864 0.844007 -6.05546 0
M  V30 6214 H 592.038 0.427927 -6.95084 0
M  V30 6215 H 589.665 0.140532 -7.6007 0
M  V30 6216 N 591.24 1.41047 0.703093 0
M  V30 6217 C 592.656 1.23351 1.01275 0
M  V30 6218 C 592.856 0.11754 2.01157 0
M  V30 6219 O 591.912 -0.520518 2.47077 0
M  V30 6220 C 593.225 2.58001 1.54454 0
M  V30 6221 C 594.773 2.65119 1.66376 0
M  V30 6222 C 595.248 4.00067 2.22958 0
M  V30 6223 N 596.739 4.01875 2.30328 0
M  V30 6224 C 597.474 5.03087 2.75119 0
M  V30 6225 N 596.97 6.14692 3.19571 0
M  V30 6226 N 598.763 4.90451 2.74616 0
M  V30 6227 H 590.914 2.1236 0.0412686 0
M  V30 6228 H 593.177 0.944543 0.08089 0
M  V30 6229 H 592.883 3.40378 0.88521 0
M  V30 6230 H 592.757 2.79962 2.52786 0
M  V30 6231 H 595.144 1.83106 2.31422 0
M  V30 6232 H 595.225 2.46975 0.666089 0
M  V30 6233 H 594.869 4.82526 1.58529 0
M  V30 6234 H 594.799 4.15547 3.23462 0
M  V30 6235 H 597.29 3.21291 1.98949 0
M  V30 6236 H 597.603 6.87799 3.52352 0
M  V30 6237 H 595.948 6.18239 3.17498 0
M  V30 6238 H 599.139 4.0235 2.39233 0
M  V30 6239 H 599.312 5.6947 3.09206 0
M  V30 6240 N 592.718 -0.936591 1.26751 0
M  V30 6241 C 593.65 -2.03991 1.045 0
M  V30 6242 C 594.663 -1.628 0.00394261 0
M  V30 6243 O 595.852 -1.76817 0.244526 0
M  V30 6244 C 592.952 -3.34218 0.561403 0
M  V30 6245 C 592.125 -4.04151 1.67274 0
M  V30 6246 C 591.184 -5.12651 1.1864 0
M  V30 6247 O 590.21 -5.37104 1.88437 0
M  V30 6248 N 591.412 -5.80488 0.037278 0
M  V30 6249 H 594.177 -2.23644 1.99508 0
M  V30 6250 H 591.738 -1.10638 1.18198 0
M  V30 6251 H 593.73 -4.04101 0.220136 0
M  V30 6252 H 592.3 -3.11203 -0.295211 0
M  V30 6253 H 591.52 -3.28121 2.18472 0
M  V30 6254 H 592.808 -4.47626 2.41885 0
M  V30 6255 H 592.206 -5.63064 -0.545494 0
M  V30 6256 H 590.763 -6.5134 -0.244877 0
M  V30 6257 N 594.196 -1.08629 -1.14182 0
M  V30 6258 C 595.424 -0.838889 -1.8913 0
M  V30 6259 C 595.839 0.609153 -1.78703 0
M  V30 6260 O 595.196 1.41876 -1.14794 0
M  V30 6261 C 595.247 -1.25477 -3.39025 0
M  V30 6262 O 594.968 -2.64601 -3.49167 0
M  V30 6263 C 596.469 -1.03856 -4.30963 0
M  V30 6264 H 593.689 -0.302377 -0.599007 0
M  V30 6265 H 596.233 -1.44615 -1.44592 0
M  V30 6266 H 594.388 -0.691571 -3.81177 0
M  V30 6267 H 594.802 -2.81922 -4.42289 0
M  V30 6268 H 596.276 -1.37892 -5.345 0
M  V30 6269 H 596.753 0.0242522 -4.39193 0
M  V30 6270 H 597.359 -1.58731 -3.94569 0
M  V30 6271 N 595.674 1.31259 -0.872281 0
M  V30 6272 C 596.604 2.30929 -0.345554 0
M  V30 6273 C 597.585 1.60449 0.5648 0
M  V30 6274 O 598.77 1.8814 0.481335 0
M  V30 6275 C 595.9 3.44348 0.451823 0
M  V30 6276 C 594.854 4.26435 -0.365641 0
M  V30 6277 C 594.18 5.31785 0.557562 0
M  V30 6278 C 595.48 4.97159 -1.60095 0
M  V30 6279 H 597.174 2.75234 -1.17841 0
M  V30 6280 H 594.72 1.3232 -0.568094 0
M  V30 6281 H 596.673 4.13128 0.830854 0
M  V30 6282 H 595.397 2.98816 1.31821 0
M  V30 6283 H 594.056 3.59326 -0.726649 0
M  V30 6284 H 593.704 4.82502 1.4213 0
M  V30 6285 H 593.404 5.87598 0.0144878 0
M  V30 6286 H 594.928 6.03424 0.933387 0
M  V30 6287 H 596.342 5.58523 -1.29323 0
M  V30 6288 H 594.739 5.62779 -2.08327 0
M  V30 6289 H 595.809 4.24012 -2.35249 0
M  V30 6290 N 597.152 0.631951 1.44375 0
M  V30 6291 C 598.085 -0.121822 2.27875 0
M  V30 6292 C 599.063 -0.850457 1.38586 0
M  V30 6293 O 600.247 -0.854378 1.68026 0
M  V30 6294 C 597.374 -1.17859 3.17533 0
M  V30 6295 C 596.42 -0.550391 4.22934 0
M  V30 6296 S 597.253 0.660145 5.31415 0
M  V30 6297 C 598.409 -0.396613 6.24642 0
M  V30 6298 H 598.642 0.586537 2.91457 0
M  V30 6299 H 596.175 0.420146 1.48574 0
M  V30 6300 H 598.133 -1.78335 3.69739 0
M  V30 6301 H 596.794 -1.85915 2.53169 0
M  V30 6302 H 595.987 -1.34631 4.85685 0
M  V30 6303 H 595.589 -0.0202306 3.73995 0
M  V30 6304 H 597.881 -1.26893 6.65511 0
M  V30 6305 H 598.824 0.195345 7.0783 0
M  V30 6306 H 599.232 -0.72288 5.59852 0
M  V30 6307 N 598.631 -1.53133 0.372548 0
M  V30 6308 C 599.581 -2.22733 -0.487218 0
M  V30 6309 C 600.565 -1.22506 -1.04312 0
M  V30 6310 O 601.757 -1.47923 -0.972005 0
M  V30 6311 C 598.886 -3.02524 -1.62278 0
M  V30 6312 C 597.972 -4.10133 -1.07943 0
M  V30 6313 N 598.363 -5.05133 -0.259629 0
M  V30 6314 C 596.661 -4.24964 -1.35356 0
M  V30 6315 C 597.362 -5.81687 0.0386656 0
M  V30 6316 N 596.338 -5.40699 -0.560827 0
M  V30 6317 H 600.14 -2.93538 0.145853 0
M  V30 6318 H 597.654 -1.61389 0.180938 0
M  V30 6319 H 599.651 -3.50909 -2.25096 0
M  V30 6320 H 598.311 -2.33252 -2.25884 0
M  V30 6321 H 599.322 -5.178 0.101746 0
M  V30 6322 H 595.999 -3.66919 -1.9919 0
M  V30 6323 H 597.389 -6.68224 0.701841 0
M  V30 6324 N 600.109 -0.101901 -1.5727 0
M  V30 6325 C 601.039 0.851544 -2.17419 0
M  V30 6326 C 602.02 1.28942 -1.10941 0
M  V30 6327 O 603.205 1.35509 -1.39107 0
M  V30 6328 C 600.335 2.10816 -2.75996 0
M  V30 6329 C 599.289 1.80867 -3.87906 0
M  V30 6330 C 598.615 3.13413 -4.33216 0
M  V30 6331 C 599.915 1.0903 -5.10793 0
M  V30 6332 H 601.609 0.350381 -2.97343 0
M  V30 6333 H 599.155 0.16709 -1.43027 0
M  V30 6334 H 601.108 2.77959 -3.16729 0
M  V30 6335 H 599.832 2.63227 -1.93337 0
M  V30 6336 H 598.491 1.16119 -3.47724 0
M  V30 6337 H 598.139 3.63725 -3.47438 0
M  V30 6338 H 597.839 2.94155 -5.08671 0
M  V30 6339 H 599.363 3.81704 -4.76586 0
M  V30 6340 H 600.777 1.66295 -5.48652 0
M  V30 6341 H 599.174 0.99927 -5.91722 0
M  V30 6342 H 600.244 0.0741704 -4.84843 0
M  V30 6343 N 601.587 1.56661 0.17182 0
M  V30 6344 C 602.864 1.72838 0.915778 0
M  V30 6345 C 603.244 0.66316 2.00413 0
M  V30 6346 O 602.592 -0.322123 2.26218 0
M  V30 6347 C 602.802 3.16019 1.48097 0
M  V30 6348 C 604.15 3.76962 1.95408 0
M  V30 6349 O 605.174 3.19294 1.57892 0
M  V30 6350 O 604.033 4.78219 2.64516 0
M  V30 6351 H 601.127 0.705797 0.431021 0
M  V30 6352 H 603.673 1.68947 0.159689 0
M  V30 6353 H 602.445 3.85031 0.697618 0
M  V30 6354 H 602.068 3.24234 2.30126 0
M  V30 6355 N 603.065 -0.440357 1.51323 0
M  V30 6356 C 604.314 -1.18697 1.63076 0
M  V30 6357 C 604.627 -1.92418 0.35136 0
M  V30 6358 O 605.833 -2.69258 0.348221 0
M  V30 6359 C 604.289 -2.15849 2.87988 0
M  V30 6360 C 603.897 -1.47789 4.22921 0
M  V30 6361 C 605.641 -2.90962 3.09098 0
M  V30 6362 C 603.548 -2.43407 5.38987 0
M  V30 6363 H 602.478 -0.44676 0.607389 0
M  V30 6364 H 605.129 -0.454313 1.77787 0
M  V30 6365 H 603.511 -2.92537 2.66905 0
M  V30 6366 H 604.685 -0.7668 4.54375 0
M  V30 6367 H 603 -0.848404 4.07665 0
M  V30 6368 H 605.597 -3.62584 3.92985 0
M  V30 6369 H 605.94 -3.52133 2.22053 0
M  V30 6370 H 606.473 -2.21381 3.30507 0
M  V30 6371 H 603.212 -1.86929 6.28282 0
M  V30 6372 H 602.732 -3.12579 5.11913 0
M  V30 6373 H 604.411 -3.046 5.70813 0
M  V30 6374 N 604.543 -1.41418 -0.695603 0
M  V30 6375 C 605.506 -1.42988 -1.79129 0
M  V30 6376 C 606.506 -0.320514 -1.57573 0
M  V30 6377 O 607.696 -0.58039 -1.64247 0
M  V30 6378 C 604.828 -1.24122 -3.175 0
M  V30 6379 H 606.021 -2.40526 -1.7913 0
M  V30 6380 H 603.574 -1.2756 -0.903225 0
M  V30 6381 H 604.309 -0.274253 -3.23138 0
M  V30 6382 H 604.094 -2.045 -3.34547 0
M  V30 6383 H 605.584 -1.28056 -3.97481 0
M  V30 6384 N 606.021 0.929856 -1.27246 0
M  V30 6385 C 607.246 1.71674 -1.16374 0
M  V30 6386 C 607.671 1.86064 0.276024 0
M  V30 6387 O 607.029 1.3591 1.19992 0
M  V30 6388 C 607.077 3.09526 -1.85003 0
M  V30 6389 O 606.181 3.96142 -1.14653 0
M  V30 6390 H 605.522 0.52629 -0.404863 0
M  V30 6391 H 608.052 1.16381 -1.68276 0
M  V30 6392 H 608.062 3.59852 -1.92276 0
M  V30 6393 H 606.737 2.98369 -2.89739 0
M  V30 6394 H 605.314 3.54584 -1.15433 0
M  V30 6395 N 607.499 1.09233 1.13605 0
M  V30 6396 C 608.462 0.733553 2.17144 0
M  V30 6397 C 609.462 -0.235873 1.59061 0
M  V30 6398 O 610.652 -0.0143167 1.74194 0
M  V30 6399 C 607.784 0.084471 3.40795 0
M  V30 6400 H 608.977 1.65049 2.50397 0
M  V30 6401 H 606.53 0.891264 1.28399 0
M  V30 6402 H 607.265 -0.843795 3.1313 0
M  V30 6403 H 607.05 0.781985 3.84223 0
M  V30 6404 H 608.54 -0.151216 4.17326 0
M  V30 6405 N 608.977 -1.30795 0.87923 0
M  V30 6406 C 610.254 -1.91145 0.415086 0
M  V30 6407 C 610.634 -1.7995 -1.10368 0
M  V30 6408 O 609.982 -1.21305 -1.93642 0
M  V30 6409 C 610.192 -3.37014 0.906778 0
M  V30 6410 C 611.54 -4.14101 0.938358 0
M  V30 6411 O 612.564 -3.45834 0.853053 0
M  V30 6412 O 611.423 -5.36054 1.06342 0
M  V30 6413 H 608.517 -0.81736 0.125905 0
M  V30 6414 H 611.063 -1.39401 0.967753 0
M  V30 6415 H 609.835 -3.3922 1.95053 0
M  V30 6416 H 609.458 -3.96204 0.332948 0
M  V30 6417 N 610.455 -0.639598 -1.44038 0
M  V30 6418 C 611.701 -0.147698 -2.02261 0
M  V30 6419 C 612.034 1.23031 -1.50256 0
M  V30 6420 O 611.309 1.81847 -0.690068 0
M  V30 6421 C 611.592 -0.14362 -3.59813 0
M  V30 6422 C 611.445 -1.55458 -4.22082 0
M  V30 6423 C 612.764 0.527317 -4.36929 0
M  V30 6424 H 609.883 -0.0551453 -0.734934 0
M  V30 6425 H 612.525 -0.817688 -1.71505 0
M  V30 6426 H 610.675 0.426898 -3.86147 0
M  V30 6427 H 612.347 -2.17464 -4.06826 0
M  V30 6428 H 610.59 -2.10594 -3.79253 0
M  V30 6429 H 611.261 -1.50369 -5.31124 0
M  V30 6430 H 613.737 0.0420504 -4.16079 0
M  V30 6431 H 612.613 0.499389 -5.46624 0
M  V30 6432 H 612.874 1.59914 -4.12165 0
M  V30 6433 N 611.933 1.52934 -0.380664 0
M  V30 6434 C 612.863 2.29118 0.450268 0
M  V30 6435 C 613.844 1.32153 1.07096 0
M  V30 6436 O 615.029 1.61038 1.08537 0
M  V30 6437 C 612.159 3.09161 1.58231 0
M  V30 6438 C 611.113 4.13938 1.0881 0
M  V30 6439 C 610.439 4.82153 2.31155 0
M  V30 6440 C 611.739 5.22048 0.162146 0
M  V30 6441 H 613.433 2.98826 -0.185361 0
M  V30 6442 H 610.979 1.43715 -0.0905886 0
M  V30 6443 H 612.932 3.61211 2.17036 0
M  V30 6444 H 611.656 2.3717 2.2454 0
M  V30 6445 H 610.315 3.62855 0.522633 0
M  V30 6446 H 609.963 4.06719 2.95953 0
M  V30 6447 H 609.663 5.52966 1.98752 0
M  V30 6448 H 611.187 5.37004 2.90618 0
M  V30 6449 H 612.601 5.6951 0.658126 0
M  V30 6450 H 610.998 6.00057 -0.0717122 0
M  V30 6451 H 612.068 4.78398 -0.791438 0
M  V30 6452 N 613.412 0.11024 1.57214 0
M  V30 6453 C 614.375 -0.828808 2.1369 0
M  V30 6454 C 615.375 -1.20059 1.06969 0
M  V30 6455 O 616.565 -1.12754 1.32786 0
M  V30 6456 C 613.697 -2.11959 2.66994 0
M  V30 6457 H 614.89 -0.338146 2.97988 0
M  V30 6458 H 612.443 -0.138913 1.55681 0
M  V30 6459 H 613.178 -2.65476 1.8626 0
M  V30 6460 H 612.963 -1.86258 3.45037 0
M  V30 6461 H 614.453 -2.79105 3.10629 0
M  V30 6462 N 614.89 -1.56749 -0.16351 0
M  V30 6463 C 616.118 -1.86577 -0.894233 0
M  V30 6464 C 616.533 -0.696543 -1.75481 0
M  V30 6465 O 615.89 0.334161 -1.79415 0
M  V30 6466 C 615.941 -3.15508 -1.76456 0
M  V30 6467 O 615.662 -4.27926 -0.938685 0
M  V30 6468 C 617.163 -3.58737 -2.60428 0
M  V30 6469 H 614.383 -0.618829 -0.259405 0
M  V30 6470 H 616.927 -2.03863 -0.161259 0
M  V30 6471 H 615.082 -3.00025 -2.45079 0
M  V30 6472 H 615.496 -5.01546 -1.53465 0
M  V30 6473 H 616.97 -4.51832 -3.17099 0
M  V30 6474 H 617.447 -2.83229 -3.35675 0
M  V30 6475 H 618.053 -3.76858 -1.97125 0
M  V30 6476 N 616.368 0.432326 -1.51554 0
M  V30 6477 C 617.779 1.01202 -1.56892 0
M  V30 6478 C 618.13 1.92175 -0.395394 0
M  V30 6479 O 617.255 2.10844 0.487198 0
M  V30 6480 C 617.85 1.84217 -2.8434 0
M  V30 6481 C 616.409 2.37228 -2.92233 0
M  V30 6482 C 615.556 1.16576 -2.51606 0
M  V30 6483 H 618.507 0.213407 -1.57259 0
M  V30 6484 H 618.528 2.69721 -2.68385 0
M  V30 6485 H 618.04 1.17979 -3.69733 0
M  V30 6486 H 616.141 3.06905 -2.11282 0
M  V30 6487 H 616.254 2.69682 -3.95991 0
M  V30 6488 H 614.618 1.51263 -2.04919 0
M  V30 6489 H 615.401 0.519404 -3.39348 0
M  V30 6490 N 617.846 1.41785 0.688094 0
M  V30 6491 C 618.778 1.40159 1.81351 0
M  V30 6492 C 619.791 0.30262 1.59963 0
M  V30 6493 O 620.98 0.564841 1.69327 0
M  V30 6494 C 618.08 1.16517 3.1824 0
M  V30 6495 C 617.253 2.38597 3.66593 0
M  V30 6496 C 616.312 2.10699 4.82174 0
M  V30 6497 O 615.338 2.83798 4.93404 0
M  V30 6498 N 616.54 1.10187 5.69947 0
M  V30 6499 H 619.305 2.3716 1.83236 0
M  V30 6500 H 616.866 1.36494 0.870697 0
M  V30 6501 H 618.858 0.957941 3.93199 0
M  V30 6502 H 617.428 0.280873 3.11336 0
M  V30 6503 H 616.648 2.74974 2.82459 0
M  V30 6504 H 617.936 3.19919 3.95638 0
M  V30 6505 H 617.334 0.497016 5.63512 0
M  V30 6506 H 615.891 0.954518 6.44773 0
M  V30 6507 N 619.324 -0.923095 1.27737 0
M  V30 6508 C 620.234 -2.05765 1.12685 0
M  V30 6509 C 621.25 -1.73911 0.0557197 0
M  V30 6510 O 622.426 -1.99674 0.263137 0
M  V30 6511 C 619.491 -3.37804 0.780363 0
M  V30 6512 C 618.552 -3.83326 1.93286 0
M  V30 6513 C 617.785 -5.09064 1.60281 0
M  V30 6514 O 618.008 -5.6809 0.512828 0
M  V30 6515 O 616.942 -5.50071 2.44347 0
M  V30 6516 H 620.768 -2.21378 2.07907 0
M  V30 6517 H 618.353 -1.04299 1.06968 0
M  V30 6518 H 620.235 -4.17097 0.600668 0
M  V30 6519 H 618.91 -3.23387 -0.142291 0
M  V30 6520 H 617.817 -3.049 2.16764 0
M  V30 6521 H 619.15 -4.02292 2.83588 0
M  V30 6522 N 620.802 -1.09834 -1.13024 0
M  V30 6523 C 622.03 -0.858902 -1.8823 0
M  V30 6524 C 622.445 0.590164 -1.79339 0
M  V30 6525 O 621.802 1.4065 -1.16292 0
M  V30 6526 C 621.853 -1.29066 -3.37675 0
M  V30 6527 O 621.574 -2.6829 -3.46341 0
M  V30 6528 C 623.075 -1.08421 -4.29837 0
M  V30 6529 H 620.295 -0.308713 -0.595766 0
M  V30 6530 H 622.839 -1.4614 -1.4305 0
M  V30 6531 H 620.994 -0.731961 -3.80422 0
M  V30 6532 H 621.408 -2.86598 -4.39274 0
M  V30 6533 H 622.882 -1.43553 -5.33007 0
M  V30 6534 H 623.359 -0.0223315 -4.39194 0
M  V30 6535 H 623.965 -1.62907 -3.92863 0
M  V30 6536 N 622.28 1.30327 -0.886154 0
M  V30 6537 C 623.51 1.99964 -0.519421 0
M  V30 6538 C 623.918 1.66593 0.89686 0
M  V30 6539 O 623.261 0.899886 1.60149 0
M  V30 6540 C 623.323 3.54187 -0.615795 0
M  V30 6541 C 622.987 4.11078 -1.9966 0
M  V30 6542 C 623.984 4.26985 -2.96614 0
M  V30 6543 C 621.669 4.46429 -2.30231 0
M  V30 6544 C 623.663 4.77456 -4.22273 0
M  V30 6545 C 621.35 4.966 -3.56135 0
M  V30 6546 C 622.348 5.12066 -4.5197 0
M  V30 6547 O 622.036 5.61154 -5.7564 0
M  V30 6548 H 621.768 0.645979 -0.199217 0
M  V30 6549 H 624.322 1.67154 -1.19368 0
M  V30 6550 H 622.552 3.86528 0.115448 0
M  V30 6551 H 624.241 4.05065 -0.26017 0
M  V30 6552 H 625.007 3.99975 -2.74308 0
M  V30 6553 H 620.886 4.33658 -1.56404 0
M  V30 6554 H 624.43 4.89444 -4.97082 0
M  V30 6555 H 620.327 5.23045 -3.78277 0
M  V30 6556 H 621.095 5.79494 -5.78039 0
M  V30 6557 N 623.758 0.647228 1.43697 0
M  V30 6558 C 625.005 0.158188 2.01881 0
M  V30 6559 C 625.333 -1.22573 1.51017 0
M  V30 6560 O 624.588 -1.83086 0.69122 0
M  V30 6561 C 624.887 0.111481 3.57226 0
M  V30 6562 C 624.553 1.43633 4.27411 0
M  V30 6563 C 623.215 1.79915 4.463 0
M  V30 6564 C 625.567 2.31011 4.67208 0
M  V30 6565 C 622.895 3.03251 5.02251 0
M  V30 6566 C 625.247 3.53633 5.24525 0
M  V30 6567 C 623.911 3.90118 5.41631 0
M  V30 6568 H 623.181 0.0578851 0.738736 0
M  V30 6569 H 625.828 0.836746 1.72252 0
M  V30 6570 H 624.133 -0.650507 3.86362 0
M  V30 6571 H 625.83 -0.283682 3.99995 0
M  V30 6572 H 622.42 1.14403 4.1305 0
M  V30 6573 H 626.604 2.04272 4.52313 0
M  V30 6574 H 621.86 3.31575 5.13681 0
M  V30 6575 H 626.034 4.21561 5.5431 0
M  V30 6576 H 623.661 4.85768 5.84751 0
M  V30 6577 N 625.236 -1.5273 0.388769 0
M  V30 6578 C 626.183 -2.26437 -0.446639 0
M  V30 6579 C 627.153 -1.28025 -1.05824 0
M  V30 6580 O 628.338 -1.56852 -1.08637 0
M  V30 6581 C 625.478 -3.07407 -1.56828 0
M  V30 6582 C 624.591 -4.20747 -0.979589 0
M  V30 6583 C 623.726 -4.89113 -2.07224 0
M  V30 6584 C 622.765 -5.94447 -1.45942 0
M  V30 6585 N 621.902 -6.56411 -2.49135 0
M  V30 6586 H 626.742 -2.97404 0.18837 0
M  V30 6587 H 624.279 -1.46727 0.104725 0
M  V30 6588 H 626.237 -3.52642 -2.22934 0
M  V30 6589 H 624.867 -2.3865 -2.17361 0
M  V30 6590 H 623.919 -3.7983 -0.208151 0
M  V30 6591 H 625.231 -4.9637 -0.491747 0
M  V30 6592 H 624.385 -5.3765 -2.81101 0
M  V30 6593 H 623.124 -4.13013 -2.59368 0
M  V30 6594 H 622.129 -5.4525 -0.705894 0
M  V30 6595 H 623.354 -6.7248 -0.945932 0
M  V30 6596 H 621.3 -5.83152 -3.00449 0
M  V30 6597 H 621.217 -7.27645 -2.05105 0
M  V30 6598 H 622.485 -7.09592 -3.22644 0
M  V30 6599 N 626.714 -0.118576 -1.57153 0
M  V30 6600 C 627.939 0.550582 -1.99958 0
M  V30 6601 C 628.364 1.59458 -0.997736 0
M  V30 6602 O 627.722 1.81274 0.0306269 0
M  V30 6603 C 627.77 1.15379 -3.41643 0
M  V30 6604 O 626.874 2.26932 -3.44348 0
M  V30 6605 H 626.215 0.137567 -0.649593 0
M  V30 6606 H 628.745 -0.206926 -2.03551 0
M  V30 6607 H 628.755 1.48942 -3.79843 0
M  V30 6608 H 627.43 0.389087 -4.14076 0
M  V30 6609 H 626.007 1.94812 -3.17967 0
M  V30 6610 N 628.193 1.56834 0.155195 0
M  V30 6611 C 629.125 1.94235 1.21677 0
M  V30 6612 C 630.138 0.83724 1.39621 0
M  V30 6613 O 631.327 1.11567 1.39338 0
M  V30 6614 C 628.427 2.19402 2.58294 0
M  V30 6615 C 627.6 3.50671 2.61436 0
M  V30 6616 C 626.659 3.64475 3.79532 0
M  V30 6617 O 625.685 4.36945 3.64784 0
M  V30 6618 N 626.887 3.00526 4.96653 0
M  V30 6619 H 629.652 2.85901 0.898932 0
M  V30 6620 H 627.213 1.58185 0.34483 0
M  V30 6621 H 629.205 2.25886 3.35794 0
M  V30 6622 H 627.775 1.34042 2.82403 0
M  V30 6623 H 626.995 3.55702 1.69912 0
M  V30 6624 H 628.283 4.3702 2.60559 0
M  V30 6625 H 627.681 2.41549 5.11538 0
M  V30 6626 H 626.238 3.12583 5.71958 0
M  V30 6627 N 629.671 -0.424282 1.51781 0
M  V30 6628 C 630.634 -1.49848 1.73431 0
M  V30 6629 C 631.634 -1.49016 0.604225 0
M  V30 6630 O 632.824 -1.50808 0.871935 0
M  V30 6631 C 629.956 -2.89332 1.80277 0
M  V30 6632 H 631.149 -1.3195 2.69312 0
M  V30 6633 H 628.702 -0.653809 1.41968 0
M  V30 6634 H 629.437 -3.12618 0.862568 0
M  V30 6635 H 629.222 -2.9134 2.62419 0
M  V30 6636 H 630.712 -3.67233 1.98821 0
M  V30 6637 N 631.149 -1.42148 -0.680565 0
M  V30 6638 C 632.059 -1.47565 -1.82378 0
M  V30 6639 C 633.075 -0.36489 -1.70131 0
M  V30 6640 O 634.251 -0.614916 -1.91783 0
M  V30 6641 C 631.316 -1.37013 -3.18478 0
M  V30 6642 C 630.377 -2.58532 -3.42724 0
M  V30 6643 C 629.61 -2.48473 -4.72331 0
M  V30 6644 O 629.833 -1.51745 -5.49845 0
M  V30 6645 O 628.767 -3.38503 -4.97694 0
M  V30 6646 H 632.593 -2.44045 -1.80764 0
M  V30 6647 H 630.178 -1.23849 -0.835569 0
M  V30 6648 H 632.06 -1.33468 -3.99705 0
M  V30 6649 H 630.735 -0.436552 -3.20743 0
M  V30 6650 H 629.642 -2.67652 -2.61368 0
M  V30 6651 H 630.975 -3.50769 -3.45286 0
M  V30 6652 N 632.627 0.916307 -1.28225 0
M  V30 6653 C 633.873 1.66794 -1.1641 0
M  V30 6654 C 634.228 1.90278 0.284986 0
M  V30 6655 O 633.521 1.49023 1.20427 0
M  V30 6656 C 633.715 3.03125 -1.8934 0
M  V30 6657 C 633.544 2.92947 -3.41192 0
M  V30 6658 C 632.314 2.9461 -4.10528 0
M  V30 6659 C 634.512 2.7121 -4.36978 0
M  V30 6660 N 632.494 2.74993 -5.48864 0
M  V30 6661 C 633.865 2.60411 -5.6266 0
M  V30 6662 C 635.92 2.56187 -4.26934 0
M  V30 6663 C 634.623 2.3612 -6.79441 0
M  V30 6664 C 636.649 2.33275 -5.43449 0
M  V30 6665 C 636.011 2.23228 -6.68093 0
M  V30 6666 H 632.11 0.616654 -0.480896 0
M  V30 6667 H 634.694 1.08237 -1.61842 0
M  V30 6668 H 632.865 3.59774 -1.46346 0
M  V30 6669 H 634.597 3.67294 -1.69932 0
M  V30 6670 H 631.352 3.0527 -3.62087 0
M  V30 6671 H 631.776 2.68284 -6.21573 0
M  V30 6672 H 636.418 2.62707 -3.31278 0
M  V30 6673 H 634.136 2.28339 -7.75169 0
M  V30 6674 H 637.722 2.22519 -5.37565 0
M  V30 6675 H 636.602 2.05741 -7.5673 0
M  V30 6676 N 634.105 1.10431 1.1244 0
M  V30 6677 C 635.521 0.836096 1.35947 0
M  V30 6678 C 635.721 -0.544475 1.94004 0
M  V30 6679 O 634.777 -1.29735 2.16622 0
M  V30 6680 C 636.09 1.93575 2.30107 0
M  V30 6681 C 637.638 1.9642 2.43697 0
M  V30 6682 C 638.113 3.05559 3.41171 0
M  V30 6683 N 639.604 3.04865 3.48728 0
M  V30 6684 C 640.339 3.85954 4.24061 0
M  V30 6685 N 639.835 4.76977 5.02458 0
M  V30 6686 N 641.628 3.74172 4.19466 0
M  V30 6687 H 633.779 1.9942 0.731124 0
M  V30 6688 H 636.042 0.866607 0.384312 0
M  V30 6689 H 635.748 2.92943 1.94621 0
M  V30 6690 H 635.622 1.8229 3.30227 0
M  V30 6691 H 638.009 0.97685 2.78463 0
M  V30 6692 H 638.09 2.11782 1.43465 0
M  V30 6693 H 637.734 4.04513 3.07135 0
M  V30 6694 H 637.664 2.87438 4.41234 0
M  V30 6695 H 640.155 2.38908 2.92799 0
M  V30 6696 H 640.468 5.35409 5.57277 0
M  V30 6697 H 638.813 4.81006 5.01655 0
M  V30 6698 H 642.004 3.02412 3.57302 0
M  V30 6699 H 642.177 4.37602 4.77921 0
M  V30 6700 N 635.583 -1.29855 0.893053 0
M  V30 6701 C 636.493 -2.31661 0.370157 0
M  V30 6702 C 637.509 -1.65677 -0.531723 0
M  V30 6703 O 638.685 -1.9691 -0.422902 0
M  V30 6704 C 635.75 -3.44388 -0.399741 0
M  V30 6705 C 634.811 -4.2598 0.532861 0
M  V30 6706 C 634.044 -5.33324 -0.200388 0
M  V30 6707 O 634.267 -5.52305 -1.42531 0
M  V30 6708 O 633.201 -6.00188 0.453668 0
M  V30 6709 H 637.027 -2.78354 1.2146 0
M  V30 6710 H 634.612 -1.34171 0.657153 0
M  V30 6711 H 636.494 -4.13037 -0.835358 0
M  V30 6712 H 635.169 -2.99815 -1.22035 0
M  V30 6713 H 634.076 -3.59998 1.01746 0
M  V30 6714 H 635.409 -4.74178 1.3197 0
M  V30 6715 N 637.061 -0.65484 -1.43351 0
M  V30 6716 C 637.971 0.0363603 -2.34572 0
M  V30 6717 C 638.987 0.810432 -1.53974 0
M  V30 6718 O 640.163 0.757308 -1.86619 0
M  V30 6719 C 637.228 0.989733 -3.32273 0
M  V30 6720 C 636.289 0.212414 -4.28774 0
M  V30 6721 C 635.522 1.12038 -5.21808 0
M  V30 6722 O 635.745 2.35967 -5.19303 0
M  V30 6723 O 634.679 0.59191 -5.98982 0
M  V30 6724 H 638.505 -0.714527 -2.95175 0
M  V30 6725 H 636.09 -0.415029 -1.4352 0
M  V30 6726 H 637.972 1.53759 -3.92347 0
M  V30 6727 H 636.647 1.72082 -2.74171 0
M  V30 6728 H 635.554 -0.379062 -3.72175 0
M  V30 6729 H 636.887 -0.479138 -4.89862 0
M  V30 6730 N 638.539 1.52521 -0.396863 0
M  V30 6731 C 639.785 2.01971 0.183169 0
M  V30 6732 C 640.118 1.2825 1.45827 0
M  V30 6733 O 639.393 0.385179 1.90648 0
M  V30 6734 C 639.676 3.5736 0.443391 0
M  V30 6735 C 639.529 4.41743 -0.84753 0
M  V30 6736 C 640.848 4.22539 1.2308 0
M  V30 6737 H 637.967 0.734119 0.0650976 0
M  V30 6738 H 640.609 1.82519 -0.527918 0
M  V30 6739 H 638.759 3.74066 1.04914 0
M  V30 6740 H 640.431 4.36773 -1.48414 0
M  V30 6741 H 638.674 4.0845 -1.4612 0
M  V30 6742 H 639.345 5.48507 -0.620003 0
M  V30 6743 H 641.821 4.09857 0.718084 0
M  V30 6744 H 640.697 5.31227 1.38162 0
M  V30 6745 H 640.958 3.80675 2.24808 0
M  V30 6746 N 640.017 0.126909 1.57088 0
M  V30 6747 C 640.964 -0.82036 2.15728 0
M  V30 6748 C 641.934 -1.25811 1.08447 0
M  V30 6749 O 643.119 -1.33422 1.36393 0
M  V30 6750 C 640.259 -2.06199 2.76724 0
M  V30 6751 C 639.372 -1.67188 3.98337 0
M  V30 6752 C 638.507 -2.86378 4.47393 0
M  V30 6753 C 637.546 -2.43644 5.61519 0
M  V30 6754 N 636.683 -3.55775 6.05284 0
M  V30 6755 H 641.523 -0.313472 2.96347 0
M  V30 6756 H 639.06 -0.14303 1.46403 0
M  V30 6757 H 641.018 -2.78959 3.10222 0
M  V30 6758 H 639.648 -2.54333 1.98782 0
M  V30 6759 H 638.7 -0.842714 3.70948 0
M  V30 6760 H 640.012 -1.31789 4.81075 0
M  V30 6761 H 639.166 -3.67353 4.82842 0
M  V30 6762 H 637.905 -3.25009 3.63621 0
M  V30 6763 H 636.91 -1.61104 5.25667 0
M  V30 6764 H 638.135 -2.06122 6.47063 0
M  V30 6765 H 636.081 -3.94065 5.24451 0
M  V30 6766 H 635.998 -3.24325 6.82898 0
M  V30 6767 H 637.266 -4.37166 6.45373 0
M  V30 6768 N 641.495 -1.56914 -0.146875 0
M  V30 6769 C 642.442 -1.98275 -1.18134 0
M  V30 6770 C 643.412 -0.850367 -1.42681 0
M  V30 6771 O 644.597 -1.11244 -1.55014 0
M  V30 6772 C 641.737 -2.36861 -2.5098 0
M  V30 6773 C 640.85 -3.63391 -2.33605 0
M  V30 6774 C 639.985 -3.91079 -3.59486 0
M  V30 6775 C 639.024 -5.10879 -3.37149 0
M  V30 6776 N 638.161 -5.34577 -4.55161 0
M  V30 6777 H 643.001 -2.8645 -0.821622 0
M  V30 6778 H 640.538 -1.41718 -0.394248 0
M  V30 6779 H 642.496 -2.57262 -3.28439 0
M  V30 6780 H 641.126 -1.51766 -2.84898 0
M  V30 6781 H 640.178 -3.50766 -1.47199 0
M  V30 6782 H 641.49 -4.51007 -2.13059 0
M  V30 6783 H 640.644 -4.11979 -4.45374 0
M  V30 6784 H 639.383 -3.01885 -3.83036 0
M  V30 6785 H 638.388 -4.89853 -2.49649 0
M  V30 6786 H 639.613 -6.01626 -3.14997 0
M  V30 6787 H 637.559 -4.48337 -4.78884 0
M  V30 6788 H 637.476 -6.16463 -4.37618 0
M  V30 6789 H 638.744 -5.59975 -5.42263 0
M  V30 6790 N 642.974 0.416227 -1.52004 0
M  V30 6791 C 643.924 1.50558 -1.7122 0
M  V30 6792 C 644.908 1.50613 -0.56609 0
M  V30 6793 O 646.1 1.56709 -0.822874 0
M  V30 6794 C 643.229 2.88556 -1.85984 0
M  V30 6795 C 642.315 2.93177 -3.06445 0
M  V30 6796 N 642.706 2.67505 -4.29272 0
M  V30 6797 C 641.004 3.24343 -3.06133 0
M  V30 6798 C 641.705 2.78511 -5.10692 0
M  V30 6799 N 640.681 3.11087 -4.45787 0
M  V30 6800 H 644.483 1.29494 -2.63834 0
M  V30 6801 H 641.997 0.62384 -1.4994 0
M  V30 6802 H 643.994 3.66954 -1.97865 0
M  V30 6803 H 642.654 3.10624 -0.945654 0
M  V30 6804 H 643.665 2.42033 -4.57865 0
M  V30 6805 H 640.342 3.52051 -2.24425 0
M  V30 6806 H 641.732 2.62438 -6.18527 0
M  V30 6807 N 644.452 1.42507 0.673017 0
M  V30 6808 C 645.699 1.43072 1.43306 0
M  V30 6809 C 646.027 0.0478004 1.94441 0
M  V30 6810 O 645.282 -0.944106 1.71421 0
M  V30 6811 C 645.581 2.40351 2.64511 0
M  V30 6812 C 645.247 3.8669 2.31908 0
M  V30 6813 C 643.909 4.26551 2.22728 0
M  V30 6814 C 646.261 4.78991 2.05467 0
M  V30 6815 C 643.589 5.56691 1.85234 0
M  V30 6816 C 645.941 6.09476 1.69477 0
M  V30 6817 C 644.605 6.48334 1.58808 0
M  V30 6818 H 643.875 0.523536 0.524395 0
M  V30 6819 H 646.522 1.75459 0.76723 0
M  V30 6820 H 644.827 2.01297 3.36135 0
M  V30 6821 H 646.524 2.38051 3.22696 0
M  V30 6822 H 643.114 3.55132 2.39956 0
M  V30 6823 H 647.298 4.48982 2.11492 0
M  V30 6824 H 642.554 5.85657 1.75545 0
M  V30 6825 H 646.728 6.80482 1.48043 0
M  V30 6826 H 644.355 7.49084 1.29525 0
M  V30 6827 N 645.93 -0.909495 1.28709 0
M  V30 6828 C 646.84 -2.04558 1.14861 0
M  V30 6829 C 647.856 -1.73842 0.0741621 0
M  V30 6830 O 649.032 -1.99383 0.2843 0
M  V30 6831 C 646.097 -3.36957 0.816148 0
M  V30 6832 C 645.158 -3.81255 1.97341 0
M  V30 6833 C 644.391 -5.07335 1.65671 0
M  V30 6834 O 644.614 -5.67514 0.573053 0
M  V30 6835 O 643.548 -5.47449 2.50167 0
M  V30 6836 H 647.374 -2.19161 2.10243 0
M  V30 6837 H 644.959 -1.03159 1.08068 0
M  V30 6838 H 646.841 -4.16436 0.644873 0
M  V30 6839 H 645.516 -3.2352 -0.107983 0
M  V30 6840 H 644.423 -3.02584 2.19986 0
M  V30 6841 H 645.756 -3.99261 2.87839 0
M  V30 6842 N 647.408 -1.11026 -1.11852 0
M  V30 6843 C 648.355 -0.764662 -2.17765 0
M  V30 6844 C 649.325 0.261854 -1.64023 0
M  V30 6845 O 650.51 0.139748 -1.90288 0
M  V30 6846 C 647.65 -0.209317 -3.44465 0
M  V30 6847 C 646.763 -1.29187 -4.12231 0
M  V30 6848 C 645.898 -0.697523 -5.266 0
M  V30 6849 C 644.937 -1.76023 -5.86244 0
M  V30 6850 N 644.074 -1.18569 -6.92016 0
M  V30 6851 H 648.914 -1.67202 -2.46673 0
M  V30 6852 H 646.451 -0.835065 -1.21099 0
M  V30 6853 H 648.409 0.130599 -4.16996 0
M  V30 6854 H 647.039 0.661251 -3.15955 0
M  V30 6855 H 646.091 -1.74881 -3.37818 0
M  V30 6856 H 647.403 -2.09607 -4.52622 0
M  V30 6857 H 646.557 -0.307412 -6.05921 0
M  V30 6858 H 645.296 0.138044 -4.87505 0
M  V30 6859 H 644.301 -2.1597 -5.05606 0
M  V30 6860 H 645.526 -2.59875 -6.27409 0
M  V30 6861 H 643.472 -0.371695 -6.54946 0
M  V30 6862 H 643.389 -1.92666 -7.31038 0
M  V30 6863 H 644.657 -0.82233 -7.7515 0
M  V30 6864 N 648.886 1.2938 -0.899927 0
M  V30 6865 C 650.135 1.9483 -0.521937 0
M  V30 6866 C 650.448 1.71725 0.936473 0
M  V30 6867 O 651.654 2.31282 1.42199 0
M  V30 6868 C 650.11 3.48911 -0.88255 0
M  V30 6869 C 649.718 3.80815 -2.35974 0
M  V30 6870 C 651.462 4.20595 -0.57448 0
M  V30 6871 C 649.369 5.28142 -2.66121 0
M  V30 6872 H 648.299 0.729285 -0.191468 0
M  V30 6873 H 650.95 1.47103 -1.09695 0
M  V30 6874 H 649.332 3.95293 -0.236459 0
M  V30 6875 H 650.506 3.45291 -3.05141 0
M  V30 6876 H 648.821 3.22271 -2.63686 0
M  V30 6877 H 651.418 5.29031 -0.776556 0
M  V30 6878 H 651.761 4.13442 0.487005 0
M  V30 6879 H 652.294 3.79945 -1.17842 0
M  V30 6880 H 649.033 5.4036 -3.71068 0
M  V30 6881 H 648.553 5.64913 -2.01578 0
M  V30 6882 H 650.232 5.95738 -2.52399 0
M  V30 6883 N 650.364 0.662433 1.43002 0
M  V30 6884 C 651.311 -0.0235324 2.30788 0
M  V30 6885 C 652.281 -0.805342 1.4527 0
M  V30 6886 O 653.466 -0.78009 1.74124 0
M  V30 6887 C 650.606 -0.977545 3.30965 0
M  V30 6888 C 649.719 -0.190865 4.31578 0
M  V30 6889 C 648.854 -1.13951 5.18834 0
M  V30 6890 C 647.893 -0.343796 6.11134 0
M  V30 6891 N 647.03 -1.2445 6.90982 0
M  V30 6892 H 651.87 0.730921 2.88897 0
M  V30 6893 H 649.407 0.372197 1.42313 0
M  V30 6894 H 651.365 -1.54437 3.87563 0
M  V30 6895 H 649.995 -1.69877 2.74484 0
M  V30 6896 H 649.047 0.492388 3.772 0
M  V30 6897 H 650.359 0.427464 4.96965 0
M  V30 6898 H 649.513 -1.77666 5.80103 0
M  V30 6899 H 648.252 -1.79174 4.53595 0
M  V30 6900 H 647.257 0.30665 5.48944 0
M  V30 6901 H 648.482 0.304161 6.78419 0
M  V30 6902 H 646.428 -1.88336 6.28383 0
M  V30 6903 H 646.345 -0.680959 7.52927 0
M  V30 6904 H 647.613 -1.86952 7.56749 0
M  V30 6905 N 651.842 -1.52309 0.404946 0
M  V30 6906 C 653.067 -2.06666 -0.1743 0
M  V30 6907 C 653.492 -1.27341 -1.38441 0
M  V30 6908 O 652.85 -0.302539 -1.78758 0
M  V30 6909 C 652.898 -3.57014 -0.507262 0
M  V30 6910 O 652.002 -3.80144 -1.59889 0
M  V30 6911 H 651.343 -0.663807 -0.0160273 0
M  V30 6912 H 653.873 -1.96297 0.576937 0
M  V30 6913 H 653.883 -4.00724 -0.767098 0
M  V30 6914 H 652.558 -4.14184 0.377368 0
M  V30 6915 H 651.135 -3.48316 -1.33155 0
M  V30 6916 N 653.32 -0.135238 -1.57019 0
M  V30 6917 C 654.23 0.822226 -2.19719 0
M  V30 6918 C 655.246 1.28057 -1.17802 0
M  V30 6919 O 656.422 1.3402 -1.50335 0
M  V30 6920 C 653.487 2.0484 -2.79717 0
M  V30 6921 C 652.548 1.64042 -3.96723 0
M  V30 6922 C 651.781 2.80814 -4.53849 0
M  V30 6923 O 652.004 3.967 -4.0986 0
M  V30 6924 O 650.938 2.56963 -5.44292 0
M  V30 6925 H 654.764 0.318552 -3.02025 0
M  V30 6926 H 652.349 0.0912021 -1.49121 0
M  V30 6927 H 654.231 2.76622 -3.17897 0
M  V30 6928 H 652.906 2.54182 -2.00432 0
M  V30 6929 H 651.813 0.893182 -3.63281 0
M  V30 6930 H 653.146 1.19426 -4.77492 0
M  V30 6931 N 654.798 1.5699 0.138552 0
M  V30 6932 C 656.046 1.83446 0.848053 0
M  V30 6933 C 656.367 0.71744 1.81322 0
M  V30 6934 O 655.637 -0.260228 1.94164 0
M  V30 6935 H 654.217 0.676792 0.316166 0
M  V30 6936 H 656.879 1.94462 0.130538 0
M  V30 6937 H 655.975 2.78677 1.40518 0
M  V30 6938 N 656.276 -0.40816 1.52223 0
M  V30 6939 C 657.504 -1.17672 1.70179 0
M  V30 6940 C 657.919 -1.84257 0.411696 0
M  V30 6941 O 657.276 -1.7192 -0.612354 0
M  V30 6942 C 657.327 -2.23911 2.83806 0
M  V30 6943 O 657.048 -1.60044 4.0782 0
M  V30 6944 C 658.549 -3.1364 3.13281 0
M  V30 6945 H 655.769 -0.353562 0.570293 0
M  V30 6946 H 658.313 -0.480083 1.98785 0
M  V30 6947 H 656.468 -2.89242 2.57717 0
M  V30 6948 H 656.882 -2.30484 4.71145 0
M  V30 6949 H 658.356 -3.84255 3.96298 0
M  V30 6950 H 658.833 -3.76066 2.26872 0
M  V30 6951 H 659.439 -2.53977 3.41139 0
M  V30 6952 N 657.755 -1.42862 -0.66545 0
M  V30 6953 C 658.995 -1.45323 -1.43738 0
M  V30 6954 C 659.359 -0.0707969 -1.91869 0
M  V30 6955 O 660.56 0.0298852 -2.68783 0
M  V30 6956 C 658.831 -2.45671 -2.59577 0
M  V30 6957 S 660.39 -2.6691 -3.48288 0
M  V30 6958 H 657.208 -0.51442 -0.490809 0
M  V30 6959 H 659.81 -1.79537 -0.773745 0
M  V30 6960 H 658.514 -3.44869 -2.22471 0
M  V30 6961 H 658.045 -2.12914 -3.30804 0
M  V30 6962 H 660.06 -1.95914 -4.55886 0
M  V30 6963 N 659.233 0.902656 -1.29189 0
M  V30 6964 C 660.482 1.6475 -1.16362 0
M  V30 6965 C 660.795 1.93517 0.284682 0
M  V30 6966 O 662.001 2.66192 0.534229 0
M  V30 6967 C 660.457 2.96848 -2.03493 0
M  V30 6968 C 660.065 2.75687 -3.5313 0
M  V30 6969 C 661.809 3.74762 -1.99383 0
M  V30 6970 C 659.716 4.03492 -4.32375 0
M  V30 6971 H 658.646 0.618041 -0.431904 0
M  V30 6972 H 661.297 1.0008 -1.53806 0
M  V30 6973 H 659.679 3.62715 -1.58916 0
M  V30 6974 H 660.853 2.18431 -4.05739 0
M  V30 6975 H 659.168 2.11171 -3.58881 0
M  V30 6976 H 661.765 4.69515 -2.5585 0
M  V30 6977 H 662.108 4.04767 -0.973123 0
M  V30 6978 H 662.641 3.15732 -2.41988 0
M  V30 6979 H 659.38 3.78656 -5.3507 0
M  V30 6980 H 658.9 4.60318 -3.84535 0
M  V30 6981 H 660.579 4.71662 -4.42881 0
M  V30 6982 N 660.711 1.11618 1.11262 0
M  V30 6983 C 661.661 0.745274 2.15475 0
M  V30 6984 C 662.645 -0.251585 1.58921 0
M  V30 6985 O 663.837 -0.0584093 1.76904 0
M  V30 6986 C 660.966 0.192128 3.42762 0
M  V30 6987 C 660.052 1.21676 4.0627 0
M  V30 6988 N 660.443 2.41158 4.44608 0
M  V30 6989 C 658.741 1.06013 4.33217 0
M  V30 6990 C 659.442 3.0652 4.94389 0
M  V30 6991 N 658.418 2.33994 4.9066 0
M  V30 6992 H 662.22 1.65462 2.42898 0
M  V30 6993 H 659.734 0.995695 1.28295 0
M  V30 6994 H 661.731 -0.0917339 4.16799 0
M  V30 6995 H 660.391 -0.711778 3.16802 0
M  V30 6996 H 661.402 2.786 4.3658 0
M  V30 6997 H 658.079 0.212809 4.16957 0
M  V30 6998 H 659.469 4.08225 5.33669 0
M  V30 6999 N 662.189 -1.289 0.906776 0
M  V30 7000 C 663.605 -1.47733 0.603902 0
M  V30 7001 C 663.805 -1.82568 -0.852702 0
M  V30 7002 O 662.861 -1.92642 -1.63234 0
M  V30 7003 C 664.174 -2.58522 1.53581 0
M  V30 7004 C 665.722 -2.72394 1.54177 0
M  V30 7005 C 666.197 -3.86318 2.46013 0
M  V30 7006 N 667.688 -3.93661 2.441 0
M  V30 7007 C 668.423 -4.81177 3.11859 0
M  V30 7008 N 667.919 -5.73333 3.88923 0
M  V30 7009 N 669.712 -4.74728 3.00981 0
M  V30 7010 H 661.863 -1.04567 1.84877 0
M  V30 7011 H 664.126 -0.520118 0.792579 0
M  V30 7012 H 663.832 -2.39667 2.57396 0
M  V30 7013 H 663.706 -3.55475 1.26165 0
M  V30 7014 H 666.093 -2.90641 0.511034 0
M  V30 7015 H 666.174 -1.75993 1.85634 0
M  V30 7016 H 665.818 -3.68826 3.49185 0
M  V30 7017 H 665.748 -4.82102 2.11862 0
M  V30 7018 H 668.239 -3.27751 1.88115 0
M  V30 7019 H 668.552 -6.36923 4.37663 0
M  V30 7020 H 666.897 -5.73196 3.93029 0
M  V30 7021 H 670.088 -4.01722 2.40286 0
M  V30 7022 H 670.261 -5.42719 3.54062 0
M  V30 7023 N 663.667 -0.670007 -1.42649 0
M  V30 7024 C 664.597 -0.00258501 -2.335 0
M  V30 7025 C 665.578 0.794364 -1.50412 0
M  V30 7026 O 666.763 0.75248 -1.79029 0
M  V30 7027 C 663.893 0.952748 -3.33976 0
M  V30 7028 C 662.847 0.264733 -4.2718 0
M  V30 7029 C 662.173 1.33267 -5.17826 0
M  V30 7030 C 663.473 -0.853289 -5.15283 0
M  V30 7031 H 665.167 -0.761326 -2.89559 0
M  V30 7032 H 662.713 -0.367561 -1.3923 0
M  V30 7033 H 664.666 1.4287 -3.96442 0
M  V30 7034 H 663.39 1.74285 -2.7621 0
M  V30 7035 H 662.049 -0.190938 -3.66102 0
M  V30 7036 H 661.697 2.11464 -4.5639 0
M  V30 7037 H 661.397 0.877476 -5.81011 0
M  V30 7038 H 662.921 1.80965 -5.83167 0
M  V30 7039 H 664.335 -0.458763 -5.71462 0
M  V30 7040 H 662.732 -1.23398 -5.87276 0
M  V30 7041 H 663.802 -1.70412 -4.53969 0
M  V30 7042 N 665.145 1.52092 -0.413018 0
M  V30 7043 C 666.422 1.94356 0.22024 0
M  V30 7044 C 666.802 1.35017 1.62277 0
M  V30 7045 O 666.15 0.527511 2.22328 0
M  V30 7046 C 666.36 3.48289 0.222638 0
M  V30 7047 C 667.708 4.22313 0.440098 0
M  V30 7048 O 668.732 3.54919 0.301826 0
M  V30 7049 O 667.591 5.41829 0.712984 0
M  V30 7050 H 664.685 0.814536 0.14304 0
M  V30 7051 H 667.231 1.63083 -0.469242 0
M  V30 7052 H 666.003 3.83872 -0.758836 0
M  V30 7053 H 665.626 3.85934 0.956057 0
M  V30 7054 N 666.623 0.143563 1.56945 0
M  V30 7055 C 667.533 -0.810562 2.20152 0
M  V30 7056 C 668.549 -1.27431 1.1848 0
M  V30 7057 O 669.725 -1.33221 1.51044 0
M  V30 7058 C 666.79 -2.03353 2.80799 0
M  V30 7059 C 665.851 -1.61936 3.97587 0
M  V30 7060 C 665.084 -2.78403 4.55332 0
M  V30 7061 O 665.307 -3.94521 4.11958 0
M  V30 7062 O 664.241 -2.54073 5.45647 0
M  V30 7063 H 668.067 -0.30253 3.02189 0
M  V30 7064 H 665.652 -0.0832925 1.49168 0
M  V30 7065 H 667.534 -2.74932 3.19359 0
M  V30 7066 H 666.209 -2.53116 2.01777 0
M  V30 7067 H 665.116 -0.873904 3.6375 0
M  V30 7068 H 666.449 -1.16892 4.78118 0
M  V30 7069 N 668.101 -1.57061 -0.130224 0
M  V30 7070 C 669.011 -2.02802 -1.17934 0
M  V30 7071 C 670.027 -0.946378 -1.46013 0
M  V30 7072 O 671.203 -1.25708 -1.57351 0
M  V30 7073 C 668.268 -2.41368 -2.48882 0
M  V30 7074 C 667.329 -3.63561 -2.28301 0
M  V30 7075 C 666.562 -4.00279 -3.53005 0
M  V30 7076 O 666.785 -3.37463 -4.59864 0
M  V30 7077 O 665.719 -4.93441 -3.44673 0
M  V30 7078 H 669.545 -2.92394 -0.820958 0
M  V30 7079 H 667.13 -1.45475 -0.340197 0
M  V30 7080 H 669.012 -2.66958 -3.26054 0
M  V30 7081 H 667.687 -1.54926 -2.84217 0
M  V30 7082 H 666.594 -3.43136 -1.49025 0
M  V30 7083 H 667.927 -4.50673 -1.97875 0
M  V30 7084 N 669.579 0.400081 -1.52437 0
M  V30 7085 C 670.509 1.4947 -1.7939 0
M  V30 7086 C 671.49 1.57383 -0.645329 0
M  V30 7087 O 672.675 1.72511 -0.891826 0
M  V30 7088 C 669.805 2.87201 -1.95276 0
M  V30 7089 C 668.759 2.94134 -3.10917 0
M  V30 7090 C 668.085 4.34207 -3.1204 0
M  V30 7091 C 669.385 2.64791 -4.50203 0
M  V30 7092 H 671.079 1.27165 -2.71052 0
M  V30 7093 H 668.625 0.610312 -1.30427 0
M  V30 7094 H 670.578 3.63772 -2.12715 0
M  V30 7095 H 669.302 3.10819 -1.00294 0
M  V30 7096 H 667.961 2.20009 -2.93243 0
M  V30 7097 H 667.609 4.54848 -2.14761 0
M  V30 7098 H 667.309 4.39768 -3.89715 0
M  V30 7099 H 668.833 5.127 -3.31619 0
M  V30 7100 H 670.247 3.31083 -4.68035 0
M  V30 7101 H 668.644 2.81717 -5.29864 0
M  V30 7102 H 669.714 1.60184 -4.57678 0
M  V30 7103 N 671.057 1.43213 0.657864 0
M  V30 7104 C 672.306 1.43871 1.41365 0
M  V30 7105 C 672.619 0.064898 1.95492 0
M  V30 7106 O 673.825 -0.0510796 2.71452 0
M  V30 7107 C 672.281 2.53158 2.55811 0
M  V30 7108 C 671.889 3.96624 2.08311 0
M  V30 7109 C 673.633 2.63004 3.3321 0
M  V30 7110 C 671.54 4.97385 3.1994 0
M  V30 7111 H 670.47 0.535174 0.531136 0
M  V30 7112 H 673.121 1.69185 0.710543 0
M  V30 7113 H 671.503 2.21037 3.2857 0
M  V30 7114 H 672.677 4.38182 1.42593 0
M  V30 7115 H 670.992 3.90781 1.43804 0
M  V30 7116 H 673.589 3.3546 4.16378 0
M  V30 7117 H 673.932 1.67918 3.80932 0
M  V30 7118 H 674.465 2.94403 2.67529 0
M  V30 7119 H 671.204 5.94007 2.77192 0
M  V30 7120 H 670.724 4.60444 3.84385 0
M  V30 7121 H 672.403 5.19877 3.85145 0
M  V30 7122 N 672.536 -0.895792 1.29666 0
M  V30 7123 C 673.952 -1.17726 1.07763 0
M  V30 7124 C 674.152 -2.00794 -0.168576 0
M  V30 7125 O 673.208 -2.37213 -0.865244 0
M  V30 7126 C 674.521 -1.89441 2.33522 0
M  V30 7127 C 676.069 -2.02251 2.3888 0
M  V30 7128 C 676.544 -2.77378 3.64452 0
M  V30 7129 N 678.035 -2.8493 3.65198 0
M  V30 7130 C 678.77 -3.43606 4.59045 0
M  V30 7131 N 678.266 -4.03417 5.63228 0
M  V30 7132 N 680.059 -3.41317 4.46608 0
M  V30 7133 H 672.21 -0.341652 2.09634 0
M  V30 7134 H 674.473 -0.213865 0.923561 0
M  V30 7135 H 674.179 -1.35842 3.24407 0
M  V30 7136 H 674.053 -2.89893 2.41334 0
M  V30 7137 H 676.44 -2.55025 1.4848 0
M  V30 7138 H 676.521 -1.0092 2.3505 0
M  V30 7139 H 676.165 -2.25279 4.55205 0
M  V30 7140 H 676.095 -3.79062 3.65541 0
M  V30 7141 H 678.586 -2.42453 2.89871 0
M  V30 7142 H 678.899 -4.46224 6.30955 0
M  V30 7143 H 677.244 -4.01868 5.67033 0
M  V30 7144 H 680.435 -2.93812 3.64407 0
M  V30 7145 H 680.608 -3.86751 5.1993 0
M  V30 7146 N 674.014 -1.12206 -1.10668 0
M  V30 7147 C 675.43 -0.857619 -1.346 0
M  V30 7148 C 675.63 0.513542 -1.94846 0
M  V30 7149 O 674.686 1.26273 -2.18658 0
M  V30 7150 C 675.999 -1.97212 -2.26998 0
M  V30 7151 C 677.547 -2.00272 -2.40542 0
M  V30 7152 C 678.022 -3.10948 -3.36267 0
M  V30 7153 N 679.513 -3.10375 -3.43834 0
M  V30 7154 C 680.248 -3.92651 -4.17867 0
M  V30 7155 N 679.744 -4.84911 -4.94807 0
M  V30 7156 N 681.537 -3.80798 -4.1346 0
M  V30 7157 H 673.688 -2.00558 -0.699306 0
M  V30 7158 H 675.951 -0.872612 -0.370477 0
M  V30 7159 H 675.657 -2.96002 -1.89936 0
M  V30 7160 H 675.531 -1.87521 -3.27286 0
M  V30 7161 H 677.918 -1.02103 -2.76874 0
M  V30 7162 H 677.999 -2.14037 -1.40077 0
M  V30 7163 H 677.643 -4.09348 -3.00661 0
M  V30 7164 H 677.573 -2.94421 -4.36605 0
M  V30 7165 H 680.064 -2.43536 -2.88961 0
M  V30 7166 H 680.377 -5.44207 -5.48688 0
M  V30 7167 H 678.722 -4.88926 -4.93939 0
M  V30 7168 H 681.913 -3.08058 -3.52445 0
M  V30 7169 H 682.086 -4.4515 -4.70898 0
M  V30 7170 N 675.492 1.28418 -0.913599 0
M  V30 7171 C 676.908 1.47411 -0.611728 0
M  V30 7172 C 677.108 1.83018 0.843008 0
M  V30 7173 O 676.164 1.93505 1.6221 0
M  V30 7174 C 677.477 2.57703 -1.5495 0
M  V30 7175 C 679.025 2.71572 -1.5562 0
M  V30 7176 C 679.5 3.85008 -2.48058 0
M  V30 7177 N 680.991 3.92361 -2.46184 0
M  V30 7178 C 681.726 4.79516 -3.14407 0
M  V30 7179 N 681.222 5.71262 -3.91958 0
M  V30 7180 N 683.015 4.73125 -3.03495 0
M  V30 7181 H 675.166 1.03585 -1.85429 0
M  V30 7182 H 677.429 0.515907 -0.795326 0
M  V30 7183 H 677.135 2.38298 -2.58663 0
M  V30 7184 H 677.009 3.54801 -1.28048 0
M  V30 7185 H 679.396 2.90366 -0.526441 0
M  V30 7186 H 679.477 1.75006 -1.86565 0
M  V30 7187 H 679.121 3.66969 -3.51136 0
M  V30 7188 H 679.051 4.80971 -2.14416 0
M  V30 7189 H 681.542 3.26749 -1.89851 0
M  V30 7190 H 681.855 6.34593 -4.41034 0
M  V30 7191 H 680.2 5.71103 -3.96063 0
M  V30 7192 H 683.391 4.00442 -2.42413 0
M  V30 7193 H 683.564 5.40834 -3.56935 0
M  V30 7194 N 676.97 0.677563 1.42291 0
M  V30 7195 C 678.386 0.347376 1.55774 0
M  V30 7196 C 678.586 -1.14703 1.65667 0
M  V30 7197 O 677.642 -1.93252 1.62512 0
M  V30 7198 C 678.955 1.08011 2.80631 0
M  V30 7199 C 680.503 1.06271 2.94407 0
M  V30 7200 C 680.978 1.77683 4.22129 0
M  V30 7201 N 682.469 1.74564 4.29047 0
M  V30 7202 C 683.204 2.26673 5.26694 0
M  V30 7203 N 682.7 2.87176 6.30477 0
M  V30 7204 N 684.493 2.17032 5.18511 0
M  V30 7205 H 676.644 1.64703 1.34114 0
M  V30 7206 H 678.907 0.694038 0.645768 0
M  V30 7207 H 678.613 2.13518 2.79469 0
M  V30 7208 H 678.487 0.647115 3.71608 0
M  V30 7209 H 680.874 0.0159658 2.95096 0
M  V30 7210 H 680.955 1.53461 2.04654 0
M  V30 7211 H 680.599 2.82327 4.22201 0
M  V30 7212 H 680.529 1.2794 5.10822 0
M  V30 7213 H 683.02 1.30436 3.54676 0
M  V30 7214 H 683.333 3.24551 7.01346 0
M  V30 7215 H 681.678 2.91247 6.31031 0
M  V30 7216 H 684.869 1.69451 4.36353 0
M  V30 7217 H 685.042 2.57948 5.94446 0
M  V30 7218 N 678.448 -1.51871 0.421078 0
M  V30 7219 C 679.358 -2.31077 -0.405069 0
M  V30 7220 C 680.374 -1.39301 -1.04265 0
M  V30 7221 O 681.55 -1.72376 -1.04157 0
M  V30 7222 C 678.615 -3.12556 -1.50032 0
M  V30 7223 C 677.676 -4.20088 -0.884559 0
M  V30 7224 C 676.909 -4.97673 -1.92762 0
M  V30 7225 O 677.132 -4.75696 -3.14753 0
M  V30 7226 O 676.066 -5.82203 -1.52719 0
M  V30 7227 H 679.892 -3.02742 0.241086 0
M  V30 7228 H 677.477 -1.48263 0.183991 0
M  V30 7229 H 679.359 -3.6326 -2.13589 0
M  V30 7230 H 678.034 -2.43672 -2.13086 0
M  V30 7231 H 676.941 -3.73502 -0.211379 0
M  V30 7232 H 678.274 -4.91298 -0.297763 0
M  V30 7233 N 679.926 -0.151884 -1.56866 0
M  V30 7234 C 680.836 0.798876 -2.20579 0
M  V30 7235 C 681.852 1.268 -1.19154 0
M  V30 7236 O 683.028 1.32418 -1.51748 0
M  V30 7237 C 680.093 2.01861 -2.81874 0
M  V30 7238 C 679.154 1.59825 -3.9844 0
M  V30 7239 C 678.387 2.75984 -4.56802 0
M  V30 7240 O 678.61 3.92331 -4.14044 0
M  V30 7241 O 677.544 2.51175 -5.46987 0
M  V30 7242 H 681.37 0.2865 -3.02346 0
M  V30 7243 H 678.955 0.0753806 -1.4921 0
M  V30 7244 H 680.837 2.73235 -3.20813 0
M  V30 7245 H 679.512 2.52042 -2.03117 0
M  V30 7246 H 678.419 0.854601 -3.64208 0
M  V30 7247 H 679.752 1.14355 -4.78731 0
M  V30 7248 N 681.404 1.57128 0.121893 0
M  V30 7249 C 682.334 2.03165 1.15092 0
M  V30 7250 C 683.315 0.915587 1.43356 0
M  V30 7251 O 684.5 1.1851 1.53847 0
M  V30 7252 C 681.63 2.43352 2.47784 0
M  V30 7253 C 680.584 3.58376 2.33989 0
M  V30 7254 C 679.91 3.84454 3.71617 0
M  V30 7255 C 681.21 4.90199 1.80283 0
M  V30 7256 H 682.904 2.89382 0.768023 0
M  V30 7257 H 680.45 1.39218 0.367998 0
M  V30 7258 H 682.403 2.74163 3.20019 0
M  V30 7259 H 681.127 1.54103 2.87958 0
M  V30 7260 H 679.786 3.2777 1.64202 0
M  V30 7261 H 679.434 2.92414 4.09271 0
M  V30 7262 H 679.134 4.61877 3.6324 0
M  V30 7263 H 680.658 4.17714 4.45362 0
M  V30 7264 H 682.072 5.19565 2.42333 0
M  V30 7265 H 680.469 5.71601 1.82735 0
M  V30 7266 H 681.539 4.78904 0.760184 0
M  V30 7267 N 682.882 -0.391992 1.52647 0
M  V30 7268 C 684.298 -0.731848 1.41831 0
M  V30 7269 C 684.498 -1.9423 0.536361 0
M  V30 7270 O 683.554 -2.52499 0.00866571 0
M  V30 7271 C 684.867 -0.969743 2.84634 0
M  V30 7272 C 686.415 -1.0714 2.94092 0
M  V30 7273 C 686.89 -1.34195 4.37899 0
M  V30 7274 N 688.381 -1.41023 4.41211 0
M  V30 7275 C 689.116 -1.63616 5.49561 0
M  V30 7276 N 688.612 -1.83699 6.68002 0
M  V30 7277 N 690.405 -1.65771 5.371 0
M  V30 7278 H 682.556 0.404547 2.08512 0
M  V30 7279 H 684.819 0.11879 0.940528 0
M  V30 7280 H 684.525 -0.152465 3.51369 0
M  V30 7281 H 684.399 -1.88523 3.26709 0
M  V30 7282 H 686.786 -1.87925 2.27526 0
M  V30 7283 H 686.867 -0.133887 2.55449 0
M  V30 7284 H 686.511 -0.539207 5.0503 0
M  V30 7285 H 686.441 -2.29226 4.74092 0
M  V30 7286 H 688.932 -1.27223 3.55841 0
M  V30 7287 H 689.245 -2.00437 7.46354 0
M  V30 7288 H 687.59 -1.8093 6.71036 0
M  V30 7289 H 690.781 -1.4963 4.43541 0
M  V30 7290 H 690.954 -1.83038 6.21612 0
M  V30 7291 N 684.36 -1.4356 -0.65026 0
M  V30 7292 C 685.31 -1.45392 -1.75628 0
M  V30 7293 C 686.294 -0.322006 -1.57645 0
M  V30 7294 O 687.486 -0.565996 -1.67707 0
M  V30 7295 C 684.615 -1.38254 -3.1423 0
M  V30 7296 C 683.701 -2.56487 -3.3775 0
M  V30 7297 N 684.092 -3.81824 -3.31729 0
M  V30 7298 C 682.39 -2.51274 -3.6848 0
M  V30 7299 C 683.091 -4.60497 -3.55412 0
M  V30 7300 N 682.067 -3.91274 -3.77367 0
M  V30 7301 H 685.869 -2.40167 -1.69402 0
M  V30 7302 H 683.383 -1.38254 -0.852037 0
M  V30 7303 H 685.38 -1.3765 -3.9352 0
M  V30 7304 H 684.04 -0.445019 -3.21636 0
M  V30 7305 H 685.051 -4.14069 -3.11074 0
M  V30 7306 H 681.728 -1.66223 -3.82983 0
M  V30 7307 H 683.118 -5.69518 -3.5651 0
M  V30 7308 N 685.838 0.888903 -1.30139 0
M  V30 7309 C 686.801 1.97576 -1.16174 0
M  V30 7310 C 687.801 1.60525 -0.094086 0
M  V30 7311 O 688.991 1.70812 -0.341889 0
M  V30 7312 C 686.123 3.3188 -0.778983 0
M  V30 7313 H 687.316 2.11393 -2.12728 0
M  V30 7314 H 684.869 1.0748 -1.1348 0
M  V30 7315 H 685.604 3.23765 0.186225 0
M  V30 7316 H 685.389 3.60141 -1.55051 0
M  V30 7317 H 686.879 4.11612 -0.704631 0
M  V30 7318 N 687.317 1.12792 1.10072 0
M  V30 7319 C 688.247 0.821688 2.18565 0
M  V30 7320 C 689.228 -0.21612 1.68721 0
M  V30 7321 O 690.413 -0.0764932 1.94049 0
M  V30 7322 C 687.543 0.279624 3.46172 0
M  V30 7323 C 686.497 1.25092 4.09312 0
M  V30 7324 C 685.823 0.568916 5.31665 0
M  V30 7325 C 687.123 2.60699 4.52585 0
M  V30 7326 H 688.817 1.72888 2.44438 0
M  V30 7327 H 686.363 0.832702 1.17482 0
M  V30 7328 H 688.316 0.053099 4.21367 0
M  V30 7329 H 687.04 -0.662929 3.19801 0
M  V30 7330 H 685.699 1.46332 3.36129 0
M  V30 7331 H 685.347 -0.378898 5.01571 0
M  V30 7332 H 685.047 1.21687 5.74862 0
M  V30 7333 H 686.571 0.351517 6.09587 0
M  V30 7334 H 687.985 2.43465 5.19035 0
M  V30 7335 H 686.382 3.21608 5.06644 0
M  V30 7336 H 687.452 3.1886 3.65317 0
M  V30 7337 N 688.795 -1.27931 0.920396 0
M  V30 7338 C 690.072 -1.89728 0.475687 0
M  V30 7339 C 690.452 -1.8337 -1.04588 0
M  V30 7340 O 689.8 -1.27404 -1.89685 0
M  V30 7341 C 690.01 -3.33959 1.01354 0
M  V30 7342 C 691.358 -4.10907 1.06963 0
M  V30 7343 O 692.382 -3.42945 0.962646 0
M  V30 7344 O 691.241 -5.32399 1.23343 0
M  V30 7345 H 688.335 -0.81294 0.151845 0
M  V30 7346 H 690.881 -1.36252 1.01161 0
M  V30 7347 H 689.653 -3.32843 2.05746 0
M  V30 7348 H 689.276 -3.94944 0.458829 0
M  V30 7349 N 690.273 -0.685099 -1.4193 0
M  V30 7350 C 691.522 -0.208816 -2.00616 0
M  V30 7351 C 691.835 1.19506 -1.54847 0
M  V30 7352 O 693.041 1.76826 -2.06021 0
M  V30 7353 C 691.497 -0.322446 -3.58453 0
M  V30 7354 C 691.105 -1.73102 -4.13206 0
M  V30 7355 C 692.849 0.0945979 -4.24395 0
M  V30 7356 C 690.756 -1.79687 -5.63442 0
M  V30 7357 H 689.686 -0.0743092 -0.750329 0
M  V30 7358 H 692.337 -0.851778 -1.62533 0
M  V30 7359 H 690.719 0.388588 -3.94089 0
M  V30 7360 H 691.893 -2.46997 -3.8901 0
M  V30 7361 H 690.208 -2.09682 -3.59753 0
M  V30 7362 H 692.805 0.0656937 -5.3466 0
M  V30 7363 H 693.148 1.1316 -4.00625 0
M  V30 7364 H 693.681 -0.56579 -3.93756 0
M  V30 7365 H 690.42 -2.81404 -5.92024 0
M  V30 7366 H 689.94 -1.10162 -5.89597 0
M  V30 7367 H 691.619 -1.55498 -6.28036 0
M  V30 7368 N 691.751 1.51645 -0.429126 0
M  V30 7369 C 693.167 1.59394 -0.080994 0
M  V30 7370 C 693.367 1.44064 1.40882 0
M  V30 7371 O 692.423 1.27771 2.17786 0
M  V30 7372 C 693.736 2.94779 -0.593773 0
M  V30 7373 C 695.284 3.08067 -0.553494 0
M  V30 7374 C 695.759 4.45963 -1.04311 0
M  V30 7375 N 697.25 4.5226 -1.00076 0
M  V30 7376 C 697.985 5.57268 -1.35056 0
M  V30 7377 N 697.481 6.69734 -1.77282 0
M  V30 7378 N 699.274 5.47582 -1.26925 0
M  V30 7379 H 691.425 1.59856 -1.39857 0
M  V30 7380 H 693.688 0.753095 -0.575805 0
M  V30 7381 H 693.394 3.11342 -1.63583 0
M  V30 7382 H 693.268 3.77197 -0.0142202 0
M  V30 7383 H 695.655 2.91177 0.479556 0
M  V30 7384 H 695.736 2.27508 -1.16935 0
M  V30 7385 H 695.38 4.63598 -2.07459 0
M  V30 7386 H 695.31 5.25049 -0.403873 0
M  V30 7387 H 697.801 3.71537 -0.690564 0
M  V30 7388 H 698.114 7.4587 -2.02232 0
M  V30 7389 H 696.459 6.70963 -1.81202 0
M  V30 7390 H 699.65 4.58604 -0.93809 0
M  V30 7391 H 699.823 6.29308 -1.54516 0
M  V30 7392 N 693.229 0.160201 1.56784 0
M  V30 7393 C 694.139 -0.787167 2.21 0
M  V30 7394 C 695.155 -1.26167 1.19825 0
M  V30 7395 O 696.331 -1.31611 1.52448 0
M  V30 7396 C 693.396 -2.00364 2.8294 0
M  V30 7397 C 692.457 -1.5771 3.99282 0
M  V30 7398 C 691.69 -2.73558 4.58259 0
M  V30 7399 O 691.913 -3.90129 4.16119 0
M  V30 7400 O 690.847 -2.48271 5.48311 0
M  V30 7401 H 694.673 -0.270462 3.02493 0
M  V30 7402 H 692.258 -0.0674666 1.49248 0
M  V30 7403 H 694.14 -2.71529 3.22257 0
M  V30 7404 H 692.815 -2.50961 2.04451 0
M  V30 7405 H 691.722 -0.835274 3.64656 0
M  V30 7406 H 693.055 -1.11815 4.79331 0
M  V30 7407 N 694.707 -1.5719 -0.113559 0
M  V30 7408 C 695.657 -1.97166 -1.14497 0
M  V30 7409 C 696.641 -0.847413 -1.36776 0
M  V30 7410 O 697.833 -1.11114 -1.37777 0
M  V30 7411 C 694.962 -2.38411 -2.47013 0
M  V30 7412 C 694.048 -3.5748 -2.28185 0
M  V30 7413 N 694.439 -4.72998 -1.79182 0
M  V30 7414 C 692.737 -3.63218 -2.58821 0
M  V30 7415 C 693.438 -5.55007 -1.74191 0
M  V30 7416 N 692.414 -4.9765 -2.18735 0
M  V30 7417 H 696.216 -2.83937 -0.758733 0
M  V30 7418 H 693.73 -1.59191 -0.321234 0
M  V30 7419 H 695.727 -2.65269 -3.21618 0
M  V30 7420 H 694.387 -1.53007 -2.8639 0
M  V30 7421 H 695.398 -4.96109 -1.48649 0
M  V30 7422 H 692.075 -2.88434 -3.01847 0
M  V30 7423 H 693.465 -6.57678 -1.37512 0
M  V30 7424 N 696.185 0.383891 -1.52853 0
M  V30 7425 C 697.415 1.14783 -1.7178 0
M  V30 7426 C 697.823 1.84055 -0.438211 0
M  V30 7427 O 697.166 1.73713 0.597465 0
M  V30 7428 C 697.228 2.23543 -2.81547 0
M  V30 7429 C 696.892 1.74195 -4.22499 0
M  V30 7430 C 697.889 1.21591 -5.05481 0
M  V30 7431 C 695.574 1.80262 -4.6884 0
M  V30 7432 C 697.568 0.757104 -6.32888 0
M  V30 7433 C 695.255 1.33993 -5.96229 0
M  V30 7434 C 696.253 0.818049 -6.78083 0
M  V30 7435 O 695.941 0.362123 -8.03084 0
M  V30 7436 H 695.673 0.349908 -0.578395 0
M  V30 7437 H 698.227 0.454377 -2.00311 0
M  V30 7438 H 696.457 2.96328 -2.48449 0
M  V30 7439 H 698.146 2.8519 -2.88828 0
M  V30 7440 H 698.912 1.16257 -4.7086 0
M  V30 7441 H 694.791 2.19825 -4.05213 0
M  V30 7442 H 698.335 0.34908 -6.96726 0
M  V30 7443 H 694.232 1.39015 -6.30353 0
M  V30 7444 H 695 0.483134 -8.17073 0
M  V30 7445 N 697.663 1.43903 0.642637 0
M  V30 7446 C 698.573 1.52349 1.78401 0
M  V30 7447 C 699.589 0.409869 1.69104 0
M  V30 7448 O 700.765 0.665548 1.90085 0
M  V30 7449 C 697.83 1.45408 3.14734 0
M  V30 7450 C 696.891 2.67528 3.35749 0
M  V30 7451 C 696.124 2.60909 4.65577 0
M  V30 7452 O 696.347 1.6627 5.45628 0
M  V30 7453 O 695.281 3.5158 4.88544 0
M  V30 7454 H 699.107 2.48752 1.7423 0
M  V30 7455 H 696.692 1.26021 0.802439 0
M  V30 7456 H 698.574 1.44019 3.96026 0
M  V30 7457 H 697.249 0.521437 3.19473 0
M  V30 7458 H 696.156 2.74487 2.5418 0
M  V30 7459 H 697.489 3.598 3.35864 0
M  V30 7460 N 699.141 -0.881989 1.30609 0
M  V30 7461 C 700.557 -1.16576 1.09005 0
M  V30 7462 C 700.757 -2.00961 -0.14727 0
M  V30 7463 O 699.813 -2.38117 -0.840036 0
M  V30 7464 C 701.126 -1.86954 2.35518 0
M  V30 7465 C 702.674 -1.99706 2.41011 0
M  V30 7466 C 703.149 -2.73497 3.67374 0
M  V30 7467 N 704.64 -2.8104 3.68199 0
M  V30 7468 C 705.375 -3.38718 4.62664 0
M  V30 7469 N 704.871 -3.97421 5.67475 0
M  V30 7470 N 706.664 -3.36561 4.50203 0
M  V30 7471 H 698.815 -0.319398 2.09985 0
M  V30 7472 H 701.078 -0.204058 0.925778 0
M  V30 7473 H 700.784 -1.32393 3.2583 0
M  V30 7474 H 700.658 -2.87317 2.44395 0
M  V30 7475 H 703.045 -2.53436 1.51176 0
M  V30 7476 H 703.126 -0.984218 2.36108 0
M  V30 7477 H 702.77 -2.20438 4.57569 0
M  V30 7478 H 702.7 -3.75163 3.6954 0
M  V30 7479 H 705.191 -2.39365 2.92426 0
M  V30 7480 H 705.504 -4.39507 6.35652 0
M  V30 7481 H 703.849 -3.95832 5.71264 0
M  V30 7482 H 707.04 -2.8993 3.67503 0
M  V30 7483 H 707.213 -3.81215 5.24003 0
M  V30 7484 N 700.619 -1.13374 -1.09472 0
M  V30 7485 C 701.566 -0.810682 -2.16094 0
M  V30 7486 C 702.536 0.227003 -1.64541 0
M  V30 7487 O 703.721 0.0993538 -1.90541 0
M  V30 7488 C 700.861 -0.282336 -3.43943 0
M  V30 7489 C 699.974 -1.37902 -4.09398 0
M  V30 7490 C 699.109 -0.809066 -5.25002 0
M  V30 7491 C 698.148 -1.88419 -5.82379 0
M  V30 7492 N 697.285 -1.33221 -6.89345 0
M  V30 7493 H 702.125 -1.72397 -2.43071 0
M  V30 7494 H 699.662 -0.860564 -1.19301 0
M  V30 7495 H 701.62 0.0421189 -4.17179 0
M  V30 7496 H 700.25 0.594083 -3.17286 0
M  V30 7497 H 699.302 -1.82008 -3.34032 0
M  V30 7498 H 700.614 -2.19161 -4.48074 0
M  V30 7499 H 699.768 -0.435867 -6.05132 0
M  V30 7500 H 698.507 0.0346058 -4.87688 0
M  V30 7501 H 697.512 -2.26646 -5.00911 0
M  V30 7502 H 698.737 -2.73125 -6.21755 0
M  V30 7503 H 696.683 -0.510535 -6.5401 0
M  V30 7504 H 696.6 -2.08129 -7.26786 0
M  V30 7505 H 697.868 -0.986565 -7.73232 0
M  V30 7506 N 702.098 1.27442 -0.927168 0
M  V30 7507 C 703.028 2.29256 -0.443188 0
M  V30 7508 C 704.009 1.62701 0.49624 0
M  V30 7509 O 705.194 1.90013 0.401105 0
M  V30 7510 C 702.324 3.45955 0.305366 0
M  V30 7511 C 701.278 4.24501 -0.546178 0
M  V30 7512 C 700.604 5.33671 0.331512 0
M  V30 7513 C 701.904 4.89921 -1.81037 0
M  V30 7514 H 703.598 2.69988 -1.29409 0
M  V30 7515 H 701.144 1.29792 -0.623705 0
M  V30 7516 H 703.097 4.1628 0.654885 0
M  V30 7517 H 701.821 3.04138 1.19029 0
M  V30 7518 H 700.48 3.55921 -0.878398 0
M  V30 7519 H 700.128 4.88096 1.21537 0
M  V30 7520 H 699.828 5.87131 -0.234746 0
M  V30 7521 H 701.352 6.0684 0.676614 0
M  V30 7522 H 702.766 5.52536 -1.52895 0
M  V30 7523 H 701.163 5.53436 -2.32009 0
M  V30 7524 H 702.233 4.13652 -2.53021 0
M  V30 7525 N 703.576 0.692616 1.41565 0
M  V30 7526 C 704.486 0.0258451 2.34586 0
M  V30 7527 C 705.502 -0.769324 1.56069 0
M  V30 7528 O 706.678 -0.707563 1.88562 0
M  V30 7529 C 703.743 -0.901289 3.3478 0
M  V30 7530 C 702.804 -0.0986579 4.29187 0
M  V30 7531 C 702.037 -0.981634 5.24595 0
M  V30 7532 O 702.26 -2.22115 5.25377 0
M  V30 7533 O 701.194 -0.432892 6.00341 0
M  V30 7534 H 705.02 0.792537 2.93177 0
M  V30 7535 H 702.605 0.452935 1.42369 0
M  V30 7536 H 704.487 -1.43302 3.96286 0
M  V30 7537 H 703.162 -1.64752 2.78637 0
M  V30 7538 H 702.069 0.477604 3.71039 0
M  V30 7539 H 703.402 0.608848 4.8842 0
M  V30 7540 N 705.054 -1.51416 0.437162 0
M  V30 7541 C 706.47 -1.59349 0.0894459 0
M  V30 7542 C 706.67 -1.44809 -1.40116 0
M  V30 7543 O 705.726 -1.28924 -2.17106 0
M  V30 7544 C 707.039 -2.9446 0.609398 0
M  V30 7545 C 708.587 -3.07769 0.569824 0
M  V30 7546 C 709.062 -4.45404 1.06675 0
M  V30 7547 N 710.553 -4.51723 1.02473 0
M  V30 7548 C 711.288 -5.56544 1.3801 0
M  V30 7549 N 710.784 -6.68784 1.80831 0
M  V30 7550 N 712.577 -5.46901 1.29828 0
M  V30 7551 H 704.728 -1.59112 1.40703 0
M  V30 7552 H 706.991 -0.750031 0.579791 0
M  V30 7553 H 706.697 -3.1047 1.65231 0
M  V30 7554 H 706.571 -3.77184 0.0342236 0
M  V30 7555 H 708.958 -2.91428 -0.464107 0
M  V30 7556 H 709.039 -2.26885 1.1814 0
M  V30 7557 H 708.683 -4.62492 2.09914 0
M  V30 7558 H 708.613 -5.24827 0.431712 0
M  V30 7559 H 711.104 -3.71165 0.710258 0
M  V30 7560 H 711.417 -7.44787 2.06185 0
M  V30 7561 H 709.762 -6.69992 1.84757 0
M  V30 7562 H 712.953 -4.581 0.962397 0
M  V30 7563 H 713.126 -6.2848 1.57851 0
M  V30 7564 N 706.532 -0.168513 -1.56696 0
M  V30 7565 C 707.495 0.748928 -2.16619 0
M  V30 7566 C 708.495 1.16007 -1.11351 0
M  V30 7567 O 709.685 1.07748 -1.3688 0
M  V30 7568 C 706.817 2.01904 -2.74677 0
M  V30 7569 H 708.01 0.227317 -2.99037 0
M  V30 7570 H 705.563 0.0810372 -1.5609 0
M  V30 7571 H 706.298 2.58381 -1.95985 0
M  V30 7572 H 706.083 1.73323 -3.51712 0
M  V30 7573 H 707.573 2.67383 -3.20774 0
M  V30 7574 N 708.01 1.57248 0.105221 0
M  V30 7575 C 708.958 2.02337 1.14728 0
M  V30 7576 C 709.952 0.922652 1.42069 0
M  V30 7577 O 711.158 1.10785 1.41869 0
M  V30 7578 H 707.533 0.644682 0.387155 0
M  V30 7579 H 709.504 2.89063 0.740607 0
M  V30 7580 C 708.253 2.45513 2.46209 0
M  V30 7581 H 707.576 3.29785 2.26013 0
M  V30 7582 H 709.016 2.80846 3.1765 0
M  V30 7583 C 707.475 1.3243 3.09781 0
M  V30 7584 O 708.005 0.647841 3.96442 0
M  V30 7585 N 706.211 1.07785 2.69872 0
M  V30 7586 H 705.758 1.62973 1.99493 0
M  V30 7587 H 705.716 0.323204 3.12734 0
M  V30 7588 N 709.488 -0.375779 1.53054 0
M  V30 7589 C 710.436 -1.48015 1.79428 0
M  V30 7590 C 711.43 -1.55893 0.662854 0
M  V30 7591 O 712.636 -1.58901 0.845599 0
M  V30 7592 H 709.011 -0.492887 0.56795 0
M  V30 7593 H 710.982 -1.22971 2.71884 0
M  V30 7594 C 709.731 -2.84984 1.99197 0
M  V30 7595 H 709.054 -2.79677 2.85693 0
M  V30 7596 H 710.494 -3.61462 2.21633 0
M  V30 7597 C 708.953 -3.28025 0.768183 0
M  V30 7598 O 709.483 -4.01671 -0.0480482 0
M  V30 7599 N 707.689 -2.84454 0.594521 0
M  V30 7600 H 707.236 -2.24688 1.25988 0
M  V30 7601 H 707.194 -3.13609 -0.222916 0
M  V30 7602 N 710.966 -1.44241 -0.634997 0
M  V30 7603 C 711.896 -1.53632 -1.7584 0
M  V30 7604 C 712.877 -0.389603 -1.65578 0
M  V30 7605 O 714.062 -0.609219 -1.84397 0
M  V30 7606 C 711.192 -1.47644 -3.14354 0
M  V30 7607 C 710.146 -2.60752 -3.394 0
M  V30 7608 C 709.472 -2.39817 -4.77904 0
M  V30 7609 C 710.772 -4.02921 -3.32343 0
M  V30 7610 H 712.466 -2.47662 -1.68238 0
M  V30 7611 H 710.012 -1.19197 -0.807969 0
M  V30 7612 H 711.965 -1.52815 -3.92716 0
M  V30 7613 H 710.689 -0.501284 -3.2273 0
M  V30 7614 H 709.348 -2.54965 -2.63417 0
M  V30 7615 H 708.996 -1.40502 -4.82978 0
M  V30 7616 H 708.696 -3.15649 -4.9562 0
M  V30 7617 H 710.22 -2.46799 -5.585 0
M  V30 7618 H 711.634 -4.10098 -4.00615 0
M  V30 7619 H 710.031 -4.78925 -3.61595 0
M  V30 7620 H 711.101 -4.26766 -2.30215 0
M  V30 7621 N 712.444 0.87505 -1.31075 0
M  V30 7622 C 713.674 1.65818 -1.2324 0
M  V30 7623 C 714.082 1.8808 0.205536 0
M  V30 7624 O 713.425 1.43548 1.14628 0
M  V30 7625 C 713.487 3.05131 -1.90093 0
M  V30 7626 C 713.151 3.05999 -3.39432 0
M  V30 7627 C 714.148 2.84328 -4.35263 0
M  V30 7628 C 711.833 3.27281 -3.81041 0
M  V30 7629 C 713.827 2.83912 -5.70678 0
M  V30 7630 C 711.514 3.26493 -5.16571 0
M  V30 7631 C 712.512 3.04834 -6.112 0
M  V30 7632 O 712.2 3.03882 -7.44252 0
M  V30 7633 H 711.932 0.52387 -0.427242 0
M  V30 7634 H 714.486 1.10086 -1.73408 0
M  V30 7635 H 712.716 3.62568 -1.34468 0
M  V30 7636 H 714.405 3.65641 -1.76242 0
M  V30 7637 H 715.171 2.67673 -4.04445 0
M  V30 7638 H 711.05 3.43171 -3.07822 0
M  V30 7639 H 714.594 2.66925 -6.44513 0
M  V30 7640 H 710.491 3.42687 -5.47025 0
M  V30 7641 H 711.259 3.19979 -7.53363 0
M  V30 7642 N 713.922 1.13953 1.08869 0
M  V30 7643 C 714.855 0.765765 2.14968 0
M  V30 7644 C 715.833 -0.250689 1.60656 0
M  V30 7645 O 717.017 -0.140852 1.87973 0
M  V30 7646 C 714.144 0.136146 3.38426 0
M  V30 7647 C 713.19 1.12201 4.11477 0
M  V30 7648 S 714.023 2.65711 4.64928 0
M  V30 7649 C 715.179 2.04125 5.91679 0
M  V30 7650 H 715.412 1.66444 2.46341 0
M  V30 7651 H 712.945 0.960263 1.20906 0
M  V30 7652 H 714.903 -0.220712 4.09906 0
M  V30 7653 H 713.564 -0.739887 3.05261 0
M  V30 7654 H 712.757 0.629398 5.00055 0
M  V30 7655 H 712.359 1.42262 3.45886 0
M  V30 7656 H 714.651 1.39381 6.63008 0
M  V30 7657 H 715.594 2.90808 6.45629 0
M  V30 7658 H 716.002 1.4905 5.44467 0
M  V30 7659 N 715.4 -1.26948 0.933913 0
M  V30 7660 C 716.31 -2.30366 0.443671 0
M  V30 7661 C 717.326 -1.67284 -0.478745 0
M  V30 7662 O 718.502 -1.98156 -0.360043 0
M  V30 7663 C 715.567 -3.45485 -0.289974 0
M  V30 7664 C 714.628 -4.24069 0.668114 0
M  V30 7665 C 713.861 -5.33691 -0.0306138 0
M  V30 7666 O 714.084 -5.5656 -1.24888 0
M  V30 7667 O 713.018 -5.98441 0.644384 0
M  V30 7668 H 716.844 -2.74349 1.30254 0
M  V30 7669 H 714.429 -1.32012 0.699506 0
M  V30 7670 H 716.311 -4.15486 -0.70353 0
M  V30 7671 H 714.986 -3.03546 -1.12435 0
M  V30 7672 H 713.893 -3.56579 1.13147 0
M  V30 7673 H 715.226 -4.69739 1.46989 0
M  V30 7674 N 716.879 -0.700114 -1.41195 0
M  V30 7675 C 717.809 -0.0521132 -2.33442 0
M  V30 7676 C 718.79 0.76228 -1.52063 0
M  V30 7677 O 719.975 0.714336 -1.80585 0
M  V30 7678 C 717.105 0.881693 -3.35922 0
M  V30 7679 C 716.059 0.174062 -4.27646 0
M  V30 7680 C 715.385 1.22254 -5.20536 0
M  V30 7681 C 716.685 -0.962396 -5.13357 0
M  V30 7682 H 718.379 -0.822574 -2.87879 0
M  V30 7683 H 715.925 -0.397011 -1.38419 0
M  V30 7684 H 717.878 1.34429 -3.99383 0
M  V30 7685 H 716.602 1.68387 -2.79845 0
M  V30 7686 H 715.261 -0.268551 -3.65615 0
M  V30 7687 H 714.909 2.01736 -4.60773 0
M  V30 7688 H 714.609 0.754038 -5.82742 0
M  V30 7689 H 716.133 1.68555 -5.86874 0
M  V30 7690 H 717.547 -0.579875 -5.7036 0
M  V30 7691 H 715.944 -1.35828 -5.84526 0
M  V30 7692 H 717.014 -1.80003 -4.50252 0
M  V30 7693 N 718.357 1.51182 -0.445186 0
M  V30 7694 C 719.582 2.07056 0.119445 0
M  V30 7695 C 720.007 1.30966 1.35016 0
M  V30 7696 O 719.365 0.349827 1.77893 0
M  V30 7697 C 719.413 3.58234 0.412428 0
M  V30 7698 O 718.517 3.84249 1.49754 0
M  V30 7699 H 717.858 0.663998 -0.00157797 0
M  V30 7700 H 720.388 1.94699 -0.628779 0
M  V30 7701 H 720.398 4.02617 0.660583 0
M  V30 7702 H 719.073 4.13038 -0.487049 0
M  V30 7703 H 717.65 3.51724 1.23873 0
M  V30 7704 N 719.835 0.176821 1.56605 0
M  V30 7705 C 720.798 -0.737429 2.17013 0
M  V30 7706 C 721.798 -1.15414 1.11965 0
M  V30 7707 O 722.988 -1.0702 1.37449 0
M  V30 7708 C 720.12 -2.00445 2.75744 0
M  V30 7709 H 721.313 -0.211455 2.99154 0
M  V30 7710 H 718.866 -0.0727582 1.56131 0
M  V30 7711 H 719.601 -2.57338 1.97352 0
M  V30 7712 H 719.386 -1.71456 3.52626 0
M  V30 7713 H 720.876 -2.65679 3.22187 0
M  V30 7714 N 721.313 -1.57302 -0.09688 0
M  V30 7715 C 722.562 -1.85183 -0.799388 0
M  V30 7716 C 722.875 -0.765818 -1.79985 0
M  V30 7717 O 724.081 -0.931696 -2.55013 0
M  V30 7718 C 722.537 -3.28399 -1.47249 0
M  V30 7719 C 722.145 -4.45066 -0.511888 0
M  V30 7720 C 723.889 -3.65506 -2.15883 0
M  V30 7721 C 721.796 -5.79315 -1.18948 0
M  V30 7722 H 720.726 -0.690752 -0.302287 0
M  V30 7723 H 723.377 -1.83425 -0.0523104 0
M  V30 7724 H 721.759 -3.24692 -2.26697 0
M  V30 7725 H 722.933 -4.60116 0.250962 0
M  V30 7726 H 721.248 -4.16343 0.0686576 0
M  V30 7727 H 723.845 -4.63087 -2.67309 0
M  V30 7728 H 724.188 -2.94041 -2.94696 0
M  V30 7729 H 724.721 -3.71094 -1.43298 0
M  V30 7730 H 721.46 -6.54007 -0.442198 0
M  V30 7731 H 720.98 -5.68111 -1.9238 0
M  V30 7732 H 722.659 -6.23816 -1.71646 0
M  V30 7733 N 722.791 0.367657 -1.53252 0
M  V30 7734 C 723.724 1.47264 -1.74323 0
M  V30 7735 C 724.702 1.51458 -0.591535 0
M  V30 7736 O 725.886 1.69542 -0.823883 0
M  V30 7737 C 723.013 2.85637 -1.82015 0
M  V30 7738 C 722.059 2.99176 -3.03967 0
M  V30 7739 S 722.892 2.68147 -4.63527 0
M  V30 7740 C 724.048 4.08673 -4.74065 0
M  V30 7741 H 724.281 1.29169 -2.67773 0
M  V30 7742 H 721.814 0.561866 -1.43814 0
M  V30 7743 H 723.772 3.65365 -1.87132 0
M  V30 7744 H 722.433 3.01043 -0.896195 0
M  V30 7745 H 721.626 4.00511 -3.05953 0
M  V30 7746 H 721.228 2.27367 -2.96952 0
M  V30 7747 H 723.52 5.02889 -4.53992 0
M  V30 7748 H 724.463 4.11693 -5.7612 0
M  V30 7749 H 724.871 3.95576 -4.02716 0
M  V30 7750 N 724.269 1.44576 0.627338 0
M  V30 7751 C 725.199 1.54562 1.75022 0
M  V30 7752 C 726.18 0.398378 1.65369 0
M  V30 7753 O 727.365 0.61899 1.84071 0
M  V30 7754 C 724.495 1.49309 3.13567 0
M  V30 7755 C 723.449 2.62549 3.38012 0
M  V30 7756 C 722.775 2.42348 4.76625 0
M  V30 7757 C 724.075 4.04678 3.30202 0
M  V30 7758 H 725.769 2.4855 1.66922 0
M  V30 7759 H 723.315 1.19624 0.801636 0
M  V30 7760 H 725.268 1.54895 3.919 0
M  V30 7761 H 723.992 0.518392 3.2246 0
M  V30 7762 H 722.651 2.56358 2.62061 0
M  V30 7763 H 722.299 1.43062 4.82226 0
M  V30 7764 H 721.999 3.18273 4.93939 0
M  V30 7765 H 723.523 2.49758 5.57183 0
M  V30 7766 H 724.937 4.12217 3.98435 0
M  V30 7767 H 723.334 4.80836 3.5905 0
M  V30 7768 H 724.404 4.2798 2.27949 0
M  V30 7769 N 725.747 -0.868086 1.31537 0
M  V30 7770 C 726.679 -1.98165 1.15166 0
M  V30 7771 C 727.692 -1.6255 0.0902335 0
M  V30 7772 O 728.881 -1.75272 0.33791 0
M  V30 7773 C 725.981 -3.30772 0.737776 0
M  V30 7774 C 725.154 -3.94716 1.88462 0
M  V30 7775 C 724.213 -5.05641 1.45648 0
M  V30 7776 O 723.239 -5.2636 2.16642 0
M  V30 7777 N 724.441 -5.79474 0.34493 0
M  V30 7778 H 727.206 -2.12754 2.11083 0
M  V30 7779 H 724.767 -1.04217 1.23897 0
M  V30 7780 H 726.759 -4.02366 0.434032 0
M  V30 7781 H 725.329 -3.1233 -0.129834 0
M  V30 7782 H 724.549 -3.16079 2.35558 0
M  V30 7783 H 725.837 -4.34175 2.65273 0
M  V30 7784 H 725.235 -5.65164 -0.246259 0
M  V30 7785 H 723.792 -6.51722 0.100728 0
M  V30 7786 N 727.225 -1.14528 -1.08264 0
M  V30 7787 C 728.155 -0.856356 -2.1723 0
M  V30 7788 C 729.136 0.189251 -1.69044 0
M  V30 7789 O 730.321 0.0456119 -1.94146 0
M  V30 7790 C 727.451 -0.334662 -3.45684 0
M  V30 7791 C 726.405 -1.31588 -4.0727 0
M  V30 7792 C 725.731 -0.653428 -5.30692 0
M  V30 7793 C 727.031 -2.67866 -4.48381 0
M  V30 7794 H 728.725 -1.76755 -2.41657 0
M  V30 7795 H 726.271 -0.851287 -1.16143 0
M  V30 7796 H 728.224 -0.120128 -4.21229 0
M  V30 7797 H 726.948 0.611967 -3.20815 0
M  V30 7798 H 725.607 -1.51661 -3.33758 0
M  V30 7799 H 725.255 0.299054 -5.0211 0
M  V30 7800 H 724.955 -1.30817 -5.72853 0
M  V30 7801 H 726.479 -0.448453 -6.08951 0
M  V30 7802 H 727.893 -2.51692 -5.15096 0
M  V30 7803 H 726.29 -3.29627 -5.01464 0
M  V30 7804 H 727.36 -3.24632 -3.60198 0
M  V30 7805 N 728.703 1.26451 -0.940633 0
M  V30 7806 C 729.613 2.30128 -0.455881 0
M  V30 7807 C 730.629 1.67536 0.469867 0
M  V30 7808 O 731.805 1.98344 0.349529 0
M  V30 7809 C 728.87 3.45634 0.271648 0
M  V30 7810 C 727.931 4.23709 -0.690594 0
M  V30 7811 C 727.164 5.337 0.00231047 0
M  V30 7812 O 727.387 5.57215 1.21935 0
M  V30 7813 O 726.321 5.98091 -0.676111 0
M  V30 7814 H 730.147 2.73655 -1.31707 0
M  V30 7815 H 727.732 1.3164 -0.706497 0
M  V30 7816 H 729.614 4.15853 0.681486 0
M  V30 7817 H 728.289 3.04138 1.10824 0
M  V30 7818 H 727.196 3.55974 -1.15037 0
M  V30 7819 H 728.529 4.68953 -1.49478 0
M  V30 7820 N 730.181 0.707592 1.40822 0
M  V30 7821 C 731.114 -0.000859377 2.282 0
M  V30 7822 C 732.092 -0.7758 1.42899 0
M  V30 7823 O 733.276 -0.76411 1.72318 0
M  V30 7824 C 730.403 -1.00861 3.23334 0
M  V30 7825 C 729.449 -0.32543 4.25257 0
M  V30 7826 S 730.282 0.940908 5.27169 0
M  V30 7827 C 731.438 -0.0649459 6.25866 0
M  V30 7828 H 731.671 0.740207 2.87938 0
M  V30 7829 H 729.204 0.498311 1.46138 0
M  V30 7830 H 731.162 -1.58485 3.78672 0
M  V30 7831 H 729.823 -1.72233 2.62668 0
M  V30 7832 H 729.016 -1.08697 4.92139 0
M  V30 7833 H 728.618 0.178044 3.73576 0
M  V30 7834 H 730.91 -0.914377 6.71301 0
M  V30 7835 H 731.853 0.570276 7.058 0
M  V30 7836 H 732.261 -0.425098 5.62897 0
M  V30 7837 N 731.66 -1.50943 0.453197 0
M  V30 7838 C 733.076 -1.59245 0.106342 0
M  V30 7839 C 733.276 -1.46287 -1.38572 0
M  V30 7840 O 732.332 -1.31219 -2.15726 0
M  V30 7841 C 733.645 -2.93797 0.640595 0
M  V30 7842 C 735.193 -3.07148 0.602435 0
M  V30 7843 C 735.668 -4.44247 1.11393 0
M  V30 7844 N 737.159 -4.50611 1.07258 0
M  V30 7845 C 737.894 -5.55049 1.43905 0
M  V30 7846 N 737.39 -6.66828 1.87914 0
M  V30 7847 N 739.183 -5.45494 1.35621 0
M  V30 7848 H 731.334 -1.5761 1.42382 0
M  V30 7849 H 733.597 -0.74384 0.587713 0
M  V30 7850 H 733.303 -3.087 1.68515 0
M  V30 7851 H 733.177 -3.77127 0.0742272 0
M  V30 7852 H 735.564 -2.91903 -0.433171 0
M  V30 7853 H 735.645 -2.25619 1.20539 0
M  V30 7854 H 735.289 -4.60239 2.14808 0
M  V30 7855 H 735.219 -5.2434 0.487353 0
M  V30 7856 H 737.71 -3.70391 0.749585 0
M  V30 7857 H 738.023 -7.42558 2.14072 0
M  V30 7858 H 736.368 -6.67995 1.91853 0
M  V30 7859 H 739.559 -4.57053 1.01093 0
M  V30 7860 H 739.732 -6.2677 1.64508 0
M  V30 7861 N 733.138 -0.185124 -1.56509 0
M  V30 7862 C 734.048 0.751908 -2.22224 0
M  V30 7863 C 735.064 1.24244 -1.21817 0
M  V30 7864 O 736.24 1.29169 -1.54523 0
M  V30 7865 C 733.305 1.95837 -2.86092 0
M  V30 7866 C 732.366 1.51337 -4.01741 0
M  V30 7867 C 731.599 2.66233 -4.62554 0
M  V30 7868 O 731.822 3.8346 -4.22273 0
M  V30 7869 O 730.756 2.39517 -5.52191 0
M  V30 7870 H 734.582 0.222304 -3.02885 0
M  V30 7871 H 732.167 0.0437141 -1.49336 0
M  V30 7872 H 734.049 2.66368 -3.26536 0
M  V30 7873 H 732.724 2.47677 -2.08417 0
M  V30 7874 H 731.631 0.777155 -3.65939 0
M  V30 7875 H 732.964 1.04175 -4.81049 0
M  V30 7876 N 734.616 1.57351 0.0885366 0
M  V30 7877 C 735.563 2.02523 1.10693 0
M  V30 7878 C 736.533 0.902736 1.39427 0
M  V30 7879 O 737.718 1.16921 1.50779 0
M  V30 7880 C 734.858 2.46013 2.42016 0
M  V30 7881 C 733.971 3.7181 2.19957 0
M  V30 7882 C 733.106 4.04152 3.44724 0
M  V30 7883 C 732.145 5.2304 3.17956 0
M  V30 7884 N 731.282 5.51102 4.35007 0
M  V30 7885 H 736.122 2.89302 0.714742 0
M  V30 7886 H 733.659 1.43084 0.341378 0
M  V30 7887 H 735.617 2.69274 3.18665 0
M  V30 7888 H 734.247 1.62235 2.79069 0
M  V30 7889 H 733.299 3.55987 1.34079 0
M  V30 7890 H 734.611 4.58604 1.96173 0
M  V30 7891 H 733.765 4.28225 4.29777 0
M  V30 7892 H 732.504 3.15893 3.71568 0
M  V30 7893 H 731.509 4.98781 2.31296 0
M  V30 7894 H 732.734 6.12902 2.92451 0
M  V30 7895 H 730.68 4.65802 4.61914 0
M  V30 7896 H 730.597 6.3228 4.14437 0
M  V30 7897 H 731.865 5.79714 5.21106 0
M  V30 7898 N 736.094 -0.359525 1.53444 0
M  V30 7899 C 737.004 -1.46445 1.83278 0
M  V30 7900 C 738.02 -1.5833 0.721629 0
M  V30 7901 O 739.196 -1.7411 1.01231 0
M  V30 7902 C 736.261 -2.81638 2.02191 0
M  V30 7903 C 735.322 -2.7923 3.26082 0
M  V30 7904 C 734.555 -4.07974 3.44082 0
M  V30 7905 O 734.778 -5.04447 2.66251 0
M  V30 7906 O 733.712 -4.13417 4.37458 0
M  V30 7907 H 737.538 -1.24156 2.77162 0
M  V30 7908 H 735.123 -0.550201 1.389 0
M  V30 7909 H 737.005 -3.61732 2.16167 0
M  V30 7910 H 735.68 -3.03892 1.11496 0
M  V30 7911 H 734.587 -1.97813 3.17523 0
M  V30 7912 H 735.92 -2.6193 4.16718 0
M  V30 7913 N 737.572 -1.44907 -0.619662 0
M  V30 7914 C 738.502 -1.55488 -1.742 0
M  V30 7915 C 739.483 -0.407143 -1.65156 0
M  V30 7916 O 740.668 -0.628743 -1.8374 0
M  V30 7917 C 737.798 -1.5097 -3.1277 0
M  V30 7918 C 736.752 -2.64337 -3.36615 0
M  V30 7919 C 736.078 -2.44872 -4.75333 0
M  V30 7920 C 737.378 -4.06423 -3.28051 0
M  V30 7921 H 739.072 -2.49432 -1.65602 0
M  V30 7922 H 736.618 -1.20047 -0.795281 0
M  V30 7923 H 738.571 -1.56971 -3.91073 0
M  V30 7924 H 737.295 -0.535486 -3.2218 0
M  V30 7925 H 735.954 -2.57744 -2.60698 0
M  V30 7926 H 735.602 -1.45617 -4.81461 0
M  V30 7927 H 735.302 -3.20888 -4.92244 0
M  V30 7928 H 736.826 -2.52709 -5.55851 0
M  V30 7929 H 738.24 -4.14324 -3.96243 0
M  V30 7930 H 736.637 -4.82733 -3.56495 0
M  V30 7931 H 737.707 -4.29183 -2.25676 0
M  V30 7932 N 739.05 0.861098 -1.31996 0
M  V30 7933 C 740.299 1.60965 -1.21545 0
M  V30 7934 C 740.612 1.94325 0.222972 0
M  V30 7935 O 741.818 2.67757 0.449272 0
M  V30 7936 C 740.274 2.90223 -2.12834 0
M  V30 7937 C 739.882 2.64313 -3.61722 0
M  V30 7938 C 741.626 3.68229 -2.11205 0
M  V30 7939 C 739.533 3.89532 -4.44993 0
M  V30 7940 H 738.463 0.603988 -0.451348 0
M  V30 7941 H 741.114 0.951358 -1.56912 0
M  V30 7942 H 739.496 3.57475 -1.70375 0
M  V30 7943 H 740.67 2.05413 -4.12483 0
M  V30 7944 H 738.985 1.99647 -3.65418 0
M  V30 7945 H 741.582 4.61138 -2.70658 0
M  V30 7946 H 741.925 4.01466 -1.1014 0
M  V30 7947 H 742.458 3.07873 -2.51911 0
M  V30 7948 H 739.197 3.61441 -5.46846 0
M  V30 7949 H 738.717 4.47851 -3.98985 0
M  V30 7950 H 740.396 4.57334 -4.57663 0
M  V30 7951 N 740.528 1.15101 1.07655 0
M  V30 7952 C 741.475 0.844958 2.14777 0
M  V30 7953 C 742.445 -0.200798 1.64882 0
M  V30 7954 O 743.63 -0.0690278 1.90675 0
M  V30 7955 C 740.77 0.337018 3.4345 0
M  V30 7956 C 739.883 1.44398 4.07153 0
M  V30 7957 C 739.018 0.892487 5.23649 0
M  V30 7958 C 738.057 1.9766 5.79307 0
M  V30 7959 N 737.194 1.44171 6.87138 0
M  V30 7960 H 742.034 1.76242 2.40297 0
M  V30 7961 H 739.571 0.879435 1.17917 0
M  V30 7962 H 741.529 0.024256 4.17193 0
M  V30 7963 H 740.159 -0.543531 3.18191 0
M  V30 7964 H 739.211 1.87299 3.31094 0
M  V30 7965 H 740.523 2.26262 4.4453 0
M  V30 7966 H 739.677 0.532083 6.04362 0
M  V30 7967 H 738.416 0.0429854 4.87681 0
M  V30 7968 H 737.421 2.34586 4.97242 0
M  V30 7969 H 738.646 2.82982 6.17331 0
M  V30 7970 H 736.592 0.614518 6.53115 0
M  V30 7971 H 736.509 2.19665 7.23383 0
M  V30 7972 H 737.777 1.10945 7.71564 0
M  V30 7973 N 742.006 -1.2595 0.947325 0
M  V30 7974 C 743.422 -1.45737 0.650597 0
M  V30 7975 C 743.622 -1.85189 -0.794188 0
M  V30 7976 O 742.678 -1.97738 -1.57022 0
M  V30 7977 C 743.991 -2.53505 1.61728 0
M  V30 7978 C 745.539 -2.67351 1.62765 0
M  V30 7979 C 746.014 -3.78296 2.58179 0
M  V30 7980 N 747.505 -3.85696 2.56501 0
M  V30 7981 C 748.24 -4.71012 3.2701 0
M  V30 7982 N 747.736 -5.60669 4.06966 0
M  V30 7983 N 749.529 -4.64912 3.15932 0
M  V30 7984 H 741.68 -0.986327 1.8811 0
M  V30 7985 H 743.943 -0.494639 0.808725 0
M  V30 7986 H 743.649 -2.31357 2.6489 0
M  V30 7987 H 743.523 -3.51281 1.3741 0
M  V30 7988 H 745.91 -2.88869 0.603241 0
M  V30 7989 H 745.991 -1.69998 1.91139 0
M  V30 7990 H 745.635 -3.5753 3.60742 0
M  V30 7991 H 745.565 -4.75117 2.27093 0
M  V30 7992 H 748.056 -3.21601 1.98447 0
M  V30 7993 H 748.369 -6.22677 4.57704 0
M  V30 7994 H 746.714 -5.60402 4.11066 0
M  V30 7995 H 749.905 -3.93874 2.52945 0
M  V30 7996 H 750.078 -5.3118 3.71149 0
M  V30 7997 N 743.484 -0.715051 -1.40445 0
M  V30 7998 C 744.394 -0.0631624 -2.34515 0
M  V30 7999 C 745.41 0.744397 -1.57273 0
M  V30 8000 O 746.586 0.677475 -1.89663 0
M  V30 8001 C 743.651 0.847915 -3.36172 0
M  V30 8002 C 742.712 0.0303655 -4.29289 0
M  V30 8003 C 741.945 0.898051 -5.2609 0
M  V30 8004 O 742.168 2.13729 -5.28844 0
M  V30 8005 O 741.102 0.337328 -6.00954 0
M  V30 8006 H 744.928 -0.839078 -2.91879 0
M  V30 8007 H 742.513 -0.475527 -1.4163 0
M  V30 8008 H 744.395 1.3698 -3.98515 0
M  V30 8009 H 743.07 1.60299 -2.81222 0
M  V30 8010 H 741.977 -0.536573 -3.70232 0
M  V30 8011 H 743.31 -0.686474 -4.87389 0
M  V30 8012 N 744.962 1.50701 -0.461195 0
M  V30 8013 C 745.894 2.26124 0.374244 0
M  V30 8014 C 746.907 1.31064 0.965715 0
M  V30 8015 O 748.096 1.56647 0.855801 0
M  V30 8016 C 745.196 3.01996 1.5379 0
M  V30 8017 C 744.369 4.24336 1.06101 0
M  V30 8018 C 743.428 4.82585 2.09756 0
M  V30 8019 O 742.454 5.43775 1.68219 0
M  V30 8020 N 743.656 4.68712 3.42475 0
M  V30 8021 H 746.421 2.9846 -0.2723 0
M  V30 8022 H 743.982 1.59256 -0.291415 0
M  V30 8023 H 745.974 3.37846 2.22806 0
M  V30 8024 H 744.544 2.32521 2.08933 0
M  V30 8025 H 743.764 3.93707 0.197085 0
M  V30 8026 H 745.052 5.03678 0.720156 0
M  V30 8027 H 744.45 4.20026 3.78938 0
M  V30 8028 H 743.007 5.08858 4.07317 0
M  V30 8029 N 746.441 0.193421 1.56409 0
M  V30 8030 C 747.404 -0.714371 2.17783 0
M  V30 8031 C 748.404 -1.1422 1.13183 0
M  V30 8032 O 749.594 -1.05557 1.38576 0
M  V30 8033 C 746.726 -1.97509 2.77855 0
M  V30 8034 H 747.919 -0.179714 2.99361 0
M  V30 8035 H 745.472 -0.0561944 1.56199 0
M  V30 8036 H 746.207 -2.5523 2.0007 0
M  V30 8037 H 745.992 -1.67706 3.54425 0
M  V30 8038 H 747.482 -2.62246 3.24987 0
M  V30 8039 N 747.919 -1.57396 -0.0801906 0
M  V30 8040 C 749.165 -1.87113 -0.782083 0
M  V30 8041 C 749.498 -0.78458 -1.77646 0
M  V30 8042 O 748.773 0.205993 -1.93406 0
M  V30 8043 C 749.056 -3.27483 -1.49756 0
M  V30 8044 C 748.909 -4.46782 -0.520171 0
M  V30 8045 C 750.228 -3.65965 -2.44454 0
M  V30 8046 H 747.347 -0.680559 -0.282858 0
M  V30 8047 H 749.989 -1.89946 -0.0454139 0
M  V30 8048 H 748.139 -3.25199 -2.12551 0
M  V30 8049 H 749.811 -4.61187 0.101919 0
M  V30 8050 H 748.054 -4.33485 0.165219 0
M  V30 8051 H 748.725 -5.41761 -1.05824 0
M  V30 8052 H 751.201 -3.69289 -1.91742 0
M  V30 8053 H 750.077 -4.65086 -2.91524 0
M  V30 8054 H 750.338 -2.95446 -3.28883 0
M  V30 8055 N 749.397 0.351382 -1.53633 0
M  V30 8056 C 750.307 1.45471 -1.84052 0
M  V30 8057 C 751.323 1.57945 -0.730015 0
M  V30 8058 O 752.499 1.73571 -1.02153 0
M  V30 8059 C 749.564 2.80562 -2.03681 0
M  V30 8060 C 748.625 2.77497 -3.27558 0
M  V30 8061 C 747.858 4.06144 -3.46241 0
M  V30 8062 O 748.081 5.03028 -2.68922 0
M  V30 8063 O 747.015 4.11092 -4.39645 0
M  V30 8064 H 750.841 1.22684 -2.77817 0
M  V30 8065 H 748.426 0.542827 -1.3919 0
M  V30 8066 H 750.308 3.6058 -2.18082 0
M  V30 8067 H 748.983 3.03296 -1.13106 0
M  V30 8068 H 747.89 1.96126 -3.18568 0
M  V30 8069 H 749.223 2.59716 -4.18101 0
M  V30 8070 N 750.875 1.45233 0.611969 0
M  V30 8071 C 751.822 1.5357 1.72293 0
M  V30 8072 C 752.792 0.381912 1.6165 0
M  V30 8073 O 753.977 0.594765 1.81293 0
M  V30 8074 C 751.117 1.50419 3.10593 0
M  V30 8075 C 750.23 2.76316 3.32074 0
M  V30 8076 C 749.365 2.64866 4.60456 0
M  V30 8077 C 748.404 3.85838 4.7518 0
M  V30 8078 N 747.541 3.72949 5.94856 0
M  V30 8079 H 752.381 2.4848 1.64504 0
M  V30 8080 H 749.918 1.23302 0.802191 0
M  V30 8081 H 751.876 1.4658 3.90602 0
M  V30 8082 H 750.506 0.590621 3.17351 0
M  V30 8083 H 749.558 2.90261 2.45872 0
M  V30 8084 H 750.87 3.66055 3.38829 0
M  V30 8085 H 750.024 2.58969 5.48653 0
M  V30 8086 H 748.763 1.72719 4.56092 0
M  V30 8087 H 747.768 3.92099 3.85407 0
M  V30 8088 H 748.993 4.79045 4.81344 0
M  V30 8089 H 746.939 2.83567 5.91545 0
M  V30 8090 H 746.856 4.56319 6.02751 0
M  V30 8091 H 748.124 3.70976 6.85563 0
M  V30 8092 N 752.353 -0.854086 1.3245 0
M  V30 8093 C 753.3 -1.96271 1.21434 0
M  V30 8094 C 754.27 -1.6582 0.0963851 0
M  V30 8095 O 755.455 -1.88851 0.27203 0
M  V30 8096 C 752.595 -3.31939 0.943952 0
M  V30 8097 C 751.708 -3.74885 2.14675 0
M  V30 8098 C 750.843 -4.99347 1.81179 0
M  V30 8099 C 749.882 -5.34785 2.97777 0
M  V30 8100 N 749.019 -6.50425 2.6437 0
M  V30 8101 H 753.859 -2.05025 2.16261 0
M  V30 8102 H 751.396 -1.00348 1.07558 0
M  V30 8103 H 753.354 -4.10076 0.767675 0
M  V30 8104 H 751.984 -3.22784 0.0324763 0
M  V30 8105 H 751.036 -2.92396 2.43328 0
M  V30 8106 H 752.348 -3.97068 3.01891 0
M  V30 8107 H 751.502 -5.85193 1.60107 0
M  V30 8108 H 750.241 -4.79101 0.911777 0
M  V30 8109 H 749.246 -4.47451 3.1948 0
M  V30 8110 H 750.471 -5.56988 3.88511 0
M  V30 8111 H 748.417 -6.31695 1.7691 0
M  V30 8112 H 748.334 -6.7263 3.45116 0
M  V30 8113 H 749.602 -7.39422 2.46729 0
M  V30 8114 N 753.831 -1.1567 -1.07043 0
M  V30 8115 C 755.061 -0.956083 -1.83146 0
M  V30 8116 C 755.469 0.498969 -1.82502 0
M  V30 8117 O 754.812 1.35791 -1.23719 0
M  V30 8118 C 754.874 -1.39704 -3.31245 0
M  V30 8119 C 754.538 -2.87045 -3.55604 0
M  V30 8120 C 755.535 -3.85092 -3.49285 0
M  V30 8121 C 753.22 -3.24787 -3.8317 0
M  V30 8122 C 755.214 -5.18885 -3.70185 0
M  V30 8123 C 752.901 -4.58751 -4.03721 0
M  V30 8124 C 753.899 -5.55609 -3.97224 0
M  V30 8125 O 753.587 -6.87154 -4.17223 0
M  V30 8126 H 753.319 -0.339473 -0.58458 0
M  V30 8127 H 755.873 -1.53922 -1.36005 0
M  V30 8128 H 754.103 -0.757326 -3.79212 0
M  V30 8129 H 755.792 -1.16503 -3.88821 0
M  V30 8130 H 756.558 -3.5728 -3.27988 0
M  V30 8131 H 752.437 -2.49979 -3.87339 0
M  V30 8132 H 755.981 -5.94473 -3.6503 0
M  V30 8133 H 751.878 -4.86277 -4.24505 0
M  V30 8134 H 752.646 -6.93618 -4.34553 0
M  V30 8135 N 755.309 1.25446 -0.953992 0
M  V30 8136 C 756.72 1.75047 -0.649255 0
M  V30 8137 C 757.071 1.77527 0.835385 0
M  V30 8138 O 756.196 1.39569 1.65377 0
M  V30 8139 C 756.791 3.17889 -1.17183 0
M  V30 8140 C 755.35 3.65052 -0.917267 0
M  V30 8141 C 754.497 2.44124 -1.31525 0
M  V30 8142 H 757.448 1.11342 -1.13087 0
M  V30 8143 H 757.469 3.76768 -0.531616 0
M  V30 8144 H 756.981 3.16052 -2.25239 0
M  V30 8145 H 755.082 3.72305 0.148354 0
M  V30 8146 H 755.195 4.53222 -1.55328 0
M  V30 8147 H 753.559 2.43906 -0.733624 0
M  V30 8148 H 754.342 2.44979 -2.405 0
M  V30 8149 N 756.787 0.722489 1.40064 0
M  V30 8150 C 758.035 0.264455 2.00362 0
M  V30 8151 C 758.356 -1.14847 1.57592 0
M  V30 8152 O 757.626 -1.77982 0.818477 0
M  V30 8153 H 756.206 0.0947846 0.740962 0
M  V30 8154 H 758.868 0.929659 1.71299 0
M  V30 8155 H 757.964 0.302977 3.10626 0
M  V30 8156 N 758.265 -1.50454 0.469181 0
M  V30 8157 C 759.493 -2.06729 -0.0842134 0
M  V30 8158 C 759.908 -1.33326 -1.33677 0
M  V30 8159 O 759.265 -0.401977 -1.78018 0
M  V30 8160 C 759.316 -3.59557 -0.374253 0
M  V30 8161 O 759.037 -4.30192 0.828622 0
M  V30 8162 C 760.538 -4.32449 -0.974824 0
M  V30 8163 H 757.758 -0.670971 0.006231 0
M  V30 8164 H 760.302 -1.93645 0.657415 0
M  V30 8165 H 758.457 -3.7245 -1.06581 0
M  V30 8166 H 758.871 -5.21371 0.572066 0
M  V30 8167 H 760.345 -5.40361 -1.12755 0
M  V30 8168 H 760.822 -3.92819 -1.96442 0
M  V30 8169 H 761.428 -4.24082 -0.321703 0
M  V30 8170 N 759.743 -0.201713 -1.56304 0
M  V30 8171 C 760.973 0.440084 -2.01858 0
M  V30 8172 C 761.381 1.55279 -1.08098 0
M  V30 8173 O 760.724 1.83529 -0.0792216 0
M  V30 8174 C 760.786 1.05091 -3.43797 0
M  V30 8175 C 760.45 0.0761208 -4.56937 0
M  V30 8176 C 761.447 -0.716951 -5.14933 0
M  V30 8177 C 759.132 -0.0368815 -5.02286 0
M  V30 8178 C 761.126 -1.60993 -6.16733 0
M  V30 8179 C 758.813 -0.933409 -6.03929 0
M  V30 8180 C 759.811 -1.71849 -6.61027 0
M  V30 8181 O 759.499 -2.59998 -7.60695 0
M  V30 8182 H 759.231 0.114139 -0.666294 0
M  V30 8183 H 761.785 -0.309672 -2.03052 0
M  V30 8184 H 760.015 1.84938 -3.3961 0
M  V30 8185 H 761.704 1.59804 -3.73118 0
M  V30 8186 H 762.47 -0.63999 -4.80759 0
M  V30 8187 H 758.349 0.564034 -4.57537 0
M  V30 8188 H 761.893 -2.22315 -6.61227 0
M  V30 8189 H 757.79 -1.01146 -6.37526 0
M  V30 8190 H 758.558 -2.53851 -7.7814 0
M  V30 8191 N 761.222 1.57436 0.0718424 0
M  V30 8192 C 762.169 2.03686 1.08539 0
M  V30 8193 C 763.139 0.917474 1.38462 0
M  V30 8194 O 764.324 1.18513 1.4953 0
M  V30 8195 C 761.464 2.48566 2.39393 0
M  V30 8196 C 760.577 3.74122 2.16001 0
M  V30 8197 C 759.712 4.07786 3.40418 0
M  V30 8198 C 758.751 5.26383 3.1239 0
M  V30 8199 N 757.888 5.55685 4.29138 0
M  V30 8200 H 762.728 2.90043 0.684018 0
M  V30 8201 H 760.265 1.43438 0.326183 0
M  V30 8202 H 762.223 2.72639 3.15791 0
M  V30 8203 H 760.853 1.65186 2.77333 0
M  V30 8204 H 759.905 3.57389 1.30296 0
M  V30 8205 H 761.217 4.60659 1.91298 0
M  V30 8206 H 760.371 4.32759 4.25211 0
M  V30 8207 H 759.11 3.19817 3.68197 0
M  V30 8208 H 758.115 5.01206 2.25993 0
M  V30 8209 H 759.34 6.1597 2.85934 0
M  V30 8210 H 757.286 4.70675 4.56948 0
M  V30 8211 H 757.203 6.3664 4.07708 0
M  V30 8212 H 758.471 5.85209 5.14928 0
M  V30 8213 N 762.7 -0.34323 1.53817 0
M  V30 8214 C 764.116 -0.686355 1.44088 0
M  V30 8215 C 764.316 -1.92426 0.597882 0
M  V30 8216 O 763.372 -2.52343 0.0889918 0
M  V30 8217 C 764.685 -0.878698 2.87575 0
M  V30 8218 C 766.233 -0.977296 2.97352 0
M  V30 8219 C 766.708 -1.20195 4.41947 0
M  V30 8220 N 768.199 -1.26915 4.45474 0
M  V30 8221 C 768.934 -1.46049 5.54488 0
M  V30 8222 N 768.43 -1.62354 6.73508 0
M  V30 8223 N 770.223 -1.48599 5.42102 0
M  V30 8224 H 762.374 0.470679 2.07119 0
M  V30 8225 H 764.637 0.148652 0.936273 0
M  V30 8226 H 764.343 -0.040602 3.51677 0
M  V30 8227 H 764.217 -1.78034 3.32541 0
M  V30 8228 H 766.604 -1.80591 2.3339 0
M  V30 8229 H 766.685 -0.0525498 2.55746 0
M  V30 8230 H 766.329 -0.378262 5.06489 0
M  V30 8231 H 766.259 -2.14027 4.81145 0
M  V30 8232 H 768.75 -1.15837 3.59708 0
M  V30 8233 H 769.063 -1.76591 7.52353 0
M  V30 8234 H 767.408 -1.5949 6.76453 0
M  V30 8235 H 770.599 -1.35443 4.48077 0
M  V30 8236 H 770.772 -1.6317 6.2712 0
M  V30 8237 N 764.178 -1.45556 -0.604258 0
M  V30 8238 C 765.128 -1.50906 -1.70913 0
M  V30 8239 C 766.112 -0.371996 -1.56541 0
M  V30 8240 O 767.304 -0.619064 -1.65821 0
M  V30 8241 C 764.433 -1.48181 -3.09673 0
M  V30 8242 C 763.519 -2.67102 -3.2942 0
M  V30 8243 N 763.91 -3.92184 -3.19414 0
M  V30 8244 C 762.208 -2.6287 -3.60299 0
M  V30 8245 C 762.909 -4.71571 -3.40581 0
M  V30 8246 N 761.885 -4.03081 -3.64728 0
M  V30 8247 H 765.687 -2.45435 -1.61675 0
M  V30 8248 H 763.201 -1.40894 -0.807622 0
M  V30 8249 H 765.198 -1.501 -3.88942 0
M  V30 8250 H 763.858 -0.54712 -3.20057 0
M  V30 8251 H 764.869 -4.23756 -2.97743 0
M  V30 8252 H 761.546 -1.78324 -3.77501 0
M  V30 8253 H 762.936 -5.80571 -3.38211 0
M  V30 8254 N 765.656 0.84705 -1.32902 0
M  V30 8255 C 767.067 1.41785 -1.21466 0
M  V30 8256 C 767.418 1.95464 0.169767 0
M  V30 8257 O 766.543 1.88157 1.06892 0
M  V30 8258 C 767.138 2.57734 -2.19906 0
M  V30 8259 C 765.697 3.10791 -2.12334 0
M  V30 8260 C 764.844 1.83562 -2.07847 0
M  V30 8261 H 767.795 0.653532 -1.44619 0
M  V30 8262 H 767.816 3.35123 -1.80202 0
M  V30 8263 H 767.328 2.18635 -3.20656 0
M  V30 8264 H 765.429 3.54455 -1.14858 0
M  V30 8265 H 765.542 3.71519 -3.02506 0
M  V30 8266 H 763.906 2.03475 -1.53199 0
M  V30 8267 H 764.689 1.4667 -3.10392 0
M  V30 8268 N 767.134 1.16236 1.06428 0
M  V30 8269 C 768.38 0.944431 1.79467 0
M  V30 8270 C 768.713 -0.526558 1.86925 0
M  V30 8271 O 767.988 -1.39061 1.35986 0
M  V30 8272 C 768.271 1.57092 3.24028 0
M  V30 8273 C 768.124 3.11315 3.24658 0
M  V30 8274 C 769.443 1.26447 4.21544 0
M  V30 8275 H 766.562 0.344521 0.651517 0
M  V30 8276 H 769.204 1.43545 1.24478 0
M  V30 8277 H 767.354 1.15337 3.70985 0
M  V30 8278 H 769.026 3.62042 2.85873 0
M  V30 8279 H 767.269 3.44716 2.6335 0
M  V30 8280 H 767.94 3.50269 4.26633 0
M  V30 8281 H 770.416 1.62581 3.83023 0
M  V30 8282 H 769.292 1.72885 5.20963 0
M  V30 8283 H 769.553 0.183068 4.41721 0
M  V30 8284 N 768.612 -1.24939 0.960631 0
M  V30 8285 C 770.028 -1.45039 0.666018 0
M  V30 8286 C 770.228 -1.86021 -0.774501 0
M  V30 8287 O 769.284 -1.99392 -1.54916 0
M  V30 8288 C 770.597 -2.51775 1.64408 0
M  V30 8289 C 772.145 -2.6561 1.65592 0
M  V30 8290 C 772.62 -3.75536 2.62177 0
M  V30 8291 N 774.111 -3.82954 2.60577 0
M  V30 8292 C 774.846 -4.67517 3.31987 0
M  V30 8293 N 774.342 -5.56321 4.1289 0
M  V30 8294 N 776.135 -4.61535 3.20845 0
M  V30 8295 H 768.286 -0.96632 1.89145 0
M  V30 8296 H 770.549 -0.486034 0.813926 0
M  V30 8297 H 770.255 -2.28534 2.67329 0
M  V30 8298 H 770.129 -3.49804 1.41128 0
M  V30 8299 H 772.516 -2.88212 0.633846 0
M  V30 8300 H 772.597 -1.67962 1.92931 0
M  V30 8301 H 772.241 -3.53684 3.64514 0
M  V30 8302 H 772.171 -4.72682 2.32119 0
M  V30 8303 H 774.662 -3.19478 2.01847 0
M  V30 8304 H 774.975 -6.17787 4.64283 0
M  V30 8305 H 773.32 -5.5601 4.16987 0
M  V30 8306 H 776.511 -3.91169 2.57108 0
M  V30 8307 H 776.684 -5.27214 3.76762 0
M  V30 8308 N 770.09 -0.729906 -1.39679 0
M  V30 8309 C 771.501 -0.346241 -1.83461 0
M  V30 8310 C 771.852 1.1215 -1.60987 0
M  V30 8311 O 770.977 1.86456 -1.09832 0
M  V30 8312 C 771.572 -0.621656 -3.33048 0
M  V30 8313 C 770.131 -0.291543 -3.75269 0
M  V30 8314 C 769.278 -0.886844 -2.62736 0
M  V30 8315 H 772.229 -0.927949 -1.28743 0
M  V30 8316 H 772.25 0.108301 -3.80346 0
M  V30 8317 H 771.762 -1.68996 -3.49373 0
M  V30 8318 H 769.863 0.771133 -3.64533 0
M  V30 8319 H 769.976 -0.770544 -4.72863 0
M  V30 8320 H 768.34 -0.313839 -2.52759 0
M  V30 8321 H 769.123 -1.95971 -2.81869 0
M  V30 8322 N 771.568 1.50203 -0.477153 0
M  V30 8323 C 772.817 2.01551 0.0774548 0
M  V30 8324 C 773.13 1.36359 1.40234 0
M  V30 8325 O 774.336 1.78898 2.04225 0
M  V30 8326 C 772.792 3.59406 0.188539 0
M  V30 8327 C 772.4 4.3356 -1.12828 0
M  V30 8328 C 774.144 4.18776 0.694782 0
M  V30 8329 C 772.051 5.83213 -0.98066 0
M  V30 8330 H 770.981 0.75329 0.0327212 0
M  V30 8331 H 773.632 1.72959 -0.612969 0
M  V30 8332 H 772.014 3.84611 0.942881 0
M  V30 8333 H 773.188 4.20074 -1.89405 0
M  V30 8334 H 771.503 3.85827 -1.5661 0
M  V30 8335 H 774.1 5.28338 0.822356 0
M  V30 8336 H 774.443 3.80557 1.68766 0
M  V30 8337 H 774.976 3.978 -0.00234519 0
M  V30 8338 H 771.715 6.25914 -1.94709 0
M  V30 8339 H 771.235 5.99256 -0.255375 0
M  V30 8340 H 772.914 6.4373 -0.649717 0
M  V30 8341 N 773.046 0.209999 1.56195 0
M  V30 8342 C 774.295 -0.425106 1.97169 0
M  V30 8343 C 774.608 -1.61718 1.10031 0
M  V30 8344 O 775.814 -2.32105 1.40853 0
M  V30 8345 C 774.27 -0.80771 3.50719 0
M  V30 8346 C 773.878 0.360902 4.46544 0
M  V30 8347 C 775.622 -1.40906 4.00432 0
M  V30 8348 C 773.529 -0.0434919 5.91384 0
M  V30 8349 H 772.459 -0.162598 0.736259 0
M  V30 8350 H 775.11 0.304382 1.80958 0
M  V30 8351 H 773.492 -1.59429 3.62489 0
M  V30 8352 H 774.666 1.13846 4.46515 0
M  V30 8353 H 772.981 0.874729 4.07109 0
M  V30 8354 H 775.578 -1.72433 5.06133 0
M  V30 8355 H 775.921 -2.32081 3.45607 0
M  V30 8356 H 776.454 -0.686154 3.91838 0
M  V30 8357 H 773.193 0.834448 6.50167 0
M  V30 8358 H 772.713 -0.785598 5.94633 0
M  V30 8359 H 774.392 -0.474176 6.4526 0
M  V30 8360 N 774.524 -1.57472 -0.0634922 0
M  V30 8361 C 775.474 -2.00709 -1.08166 0
M  V30 8362 C 776.458 -0.890498 -1.34011 0
M  V30 8363 O 777.65 -1.15441 -1.34173 0
M  V30 8364 C 774.779 -2.46148 -2.39303 0
M  V30 8365 C 773.865 -3.64559 -2.16697 0
M  V30 8366 N 774.256 -4.78459 -1.64043 0
M  V30 8367 C 772.554 -3.71269 -2.47135 0
M  V30 8368 C 773.255 -5.60268 -1.56445 0
M  V30 8369 N 772.231 -5.04357 -2.02792 0
M  V30 8370 H 776.033 -2.86208 -0.668016 0
M  V30 8371 H 773.547 -1.60133 -0.270426 0
M  V30 8372 H 775.544 -2.75367 -3.13016 0
M  V30 8373 H 774.204 -1.62041 -2.81377 0
M  V30 8374 H 775.215 -5.00587 -1.32791 0
M  V30 8375 H 771.892 -2.97891 -2.92518 0
M  V30 8376 H 773.282 -6.6172 -1.16519 0
M  V30 8377 N 776.003 0.335068 -1.53997 0
M  V30 8378 C 777.414 0.910191 -1.6301 0
M  V30 8379 C 777.765 1.89271 -0.516809 0
M  V30 8380 O 776.89 2.13516 0.352123 0
M  V30 8381 C 777.485 1.65761 -2.9548 0
M  V30 8382 C 776.044 2.18163 -3.06728 0
M  V30 8383 C 775.191 1.00338 -2.5851 0
M  V30 8384 H 778.142 0.112965 -1.58297 0
M  V30 8385 H 778.163 2.52107 -2.84995 0
M  V30 8386 H 777.675 0.94227 -3.76488 0
M  V30 8387 H 775.776 2.92847 -2.30372 0
M  V30 8388 H 775.889 2.43952 -4.1234 0
M  V30 8389 H 774.253 1.37925 -2.14124 0
M  V30 8390 H 775.036 0.30254 -3.41964 0
M  V30 8391 N 777.481 1.45874 0.596531 0
M  V30 8392 C 778.429 1.55739 1.72766 0
M  V30 8393 C 779.423 0.426666 1.63939 0
M  V30 8394 O 780.629 0.60301 1.69599 0
M  V30 8395 H 777.004 0.489386 0.570968 0
M  V30 8396 H 778.975 2.50871 1.61575 0
M  V30 8397 C 777.724 1.55174 3.11153 0
M  V30 8398 H 777.047 2.41511 3.1861 0
M  V30 8399 H 778.487 1.66133 3.90097 0
M  V30 8400 C 776.946 0.278001 3.35751 0
M  V30 8401 O 777.476 -0.637557 3.96608 0
M  V30 8402 N 775.682 0.170227 2.90101 0
M  V30 8403 H 775.229 0.916159 2.40758 0
M  V30 8404 H 775.187 -0.68117 3.06932 0
M  V30 8405 N 778.959 -0.83999 1.33349 0
M  V30 8406 C 779.922 -1.93128 1.23426 0
M  V30 8407 C 780.922 -1.60065 0.153599 0
M  V30 8408 O 782.112 -1.69425 0.405049 0
M  V30 8409 C 779.244 -3.28761 0.901622 0
M  V30 8410 H 780.437 -2.03352 2.20427 0
M  V30 8411 H 777.99 -1.03194 1.17391 0
M  V30 8412 H 778.725 -3.24233 -0.0659337 0
M  V30 8413 H 778.51 -3.54138 1.68311 0
M  V30 8414 H 780 -4.08714 0.856913 0
M  V30 8415 N 780.437 -1.16799 -1.0581 0
M  V30 8416 C 781.37 -0.822491 -2.12862 0
M  V30 8417 C 782.348 0.208006 -1.61264 0
M  V30 8418 O 783.532 0.0909652 -1.8828 0
M  V30 8419 C 780.659 -0.225826 -3.37946 0
M  V30 8420 C 779.705 -1.23071 -4.08357 0
M  V30 8421 S 780.538 -2.77944 -4.5772 0
M  V30 8422 C 781.694 -2.19741 -5.86059 0
M  V30 8423 H 781.927 -1.72917 -2.41841 0
M  V30 8424 H 779.46 -0.991982 -1.18318 0
M  V30 8425 H 781.418 0.111955 -4.10347 0
M  V30 8426 H 780.079 0.658692 -3.07116 0
M  V30 8427 H 779.272 -0.761758 -4.9821 0
M  V30 8428 H 778.874 -1.51383 -3.41993 0
M  V30 8429 H 781.166 -1.5691 -6.59079 0
M  V30 8430 H 782.109 -3.07823 -6.37692 0
M  V30 8431 H 782.517 -1.63433 -5.40324 0
M  V30 8432 N 781.915 1.24427 -0.967243 0
M  V30 8433 C 782.825 2.29109 -0.504592 0
M  V30 8434 C 783.841 1.68495 0.434224 0
M  V30 8435 O 785.017 1.99041 0.307379 0
M  V30 8436 C 782.082 3.46133 0.198273 0
M  V30 8437 C 781.143 4.22149 -0.780313 0
M  V30 8438 C 780.376 5.33585 -0.110896 0
M  V30 8439 O 780.599 5.59676 1.10088 0
M  V30 8440 O 779.533 5.96522 -0.802823 0
M  V30 8441 H 783.359 2.708 -1.37482 0
M  V30 8442 H 780.944 1.30111 -0.73426 0
M  V30 8443 H 782.826 4.17205 0.593124 0
M  V30 8444 H 781.501 3.0642 1.04347 0
M  V30 8445 H 780.408 3.53454 -1.22561 0
M  V30 8446 H 781.741 4.65677 -1.59392 0
M  V30 8447 N 783.393 0.737304 1.3929 0
M  V30 8448 C 784.34 0.0988364 2.30588 0
M  V30 8449 C 785.31 -0.727206 1.49335 0
M  V30 8450 O 786.495 -0.686694 1.78014 0
M  V30 8451 C 783.635 -0.800734 3.35682 0
M  V30 8452 C 782.748 0.0381731 4.31983 0
M  V30 8453 C 781.883 -0.862884 5.24145 0
M  V30 8454 C 780.922 -0.0193639 6.12097 0
M  V30 8455 N 780.059 -0.87648 6.96608 0
M  V30 8456 H 784.899 0.883031 2.84617 0
M  V30 8457 H 782.436 0.447111 1.4014 0
M  V30 8458 H 784.394 -1.33676 3.95205 0
M  V30 8459 H 783.024 -1.55088 2.83103 0
M  V30 8460 H 782.076 0.691641 3.74059 0
M  V30 8461 H 783.388 0.690294 4.94 0
M  V30 8462 H 782.542 -1.46667 5.88705 0
M  V30 8463 H 781.281 -1.54878 4.62454 0
M  V30 8464 H 780.286 0.597202 5.46547 0
M  V30 8465 H 781.511 0.663348 6.75852 0
M  V30 8466 H 779.457 -1.54762 6.37483 0
M  V30 8467 H 779.374 -0.280892 7.55478 0
M  V30 8468 H 780.642 -1.46575 7.65595 0
M  V30 8469 N 784.871 -1.49948 0.485112 0
M  V30 8470 C 785.801 -2.31675 -0.291364 0
M  V30 8471 C 786.782 -1.39216 -0.977383 0
M  V30 8472 O 787.967 -1.68133 -0.971855 0
M  V30 8473 C 785.097 -3.19326 -1.36558 0
M  V30 8474 C 784.051 -4.2045 -0.800359 0
M  V30 8475 C 783.377 -4.96931 -1.97391 0
M  V30 8476 C 784.677 -5.21925 0.197867 0
M  V30 8477 H 786.371 -2.96839 0.390775 0
M  V30 8478 H 783.917 -1.42749 0.189375 0
M  V30 8479 H 785.87 -3.75304 -1.91638 0
M  V30 8480 H 784.594 -2.52074 -2.07668 0
M  V30 8481 H 783.253 -3.65594 -0.271428 0
M  V30 8482 H 782.901 -4.26141 -2.67232 0
M  V30 8483 H 782.601 -5.65344 -1.60187 0
M  V30 8484 H 784.125 -5.55749 -2.52935 0
M  V30 8485 H 785.539 -5.72691 -0.264239 0
M  V30 8486 H 783.936 -5.98138 0.484908 0
M  V30 8487 H 785.006 -4.71809 1.11912 0
M  V30 8488 N 786.349 -0.21828 -1.56081 0
M  V30 8489 C 787.282 0.733096 -2.16104 0
M  V30 8490 C 788.26 1.19333 -1.10447 0
M  V30 8491 O 789.444 1.27666 -1.38685 0
M  V30 8492 C 786.571 1.99283 -2.73868 0
M  V30 8493 C 785.617 1.67285 -3.92324 0
M  V30 8494 S 786.45 0.800511 -5.29483 0
M  V30 8495 C 787.606 2.06988 -5.90683 0
M  V30 8496 H 787.839 0.222917 -2.96463 0
M  V30 8497 H 785.372 -0.00300946 -1.544 0
M  V30 8498 H 787.33 2.71618 -3.07789 0
M  V30 8499 H 785.991 2.47414 -1.93508 0
M  V30 8500 H 785.184 2.60874 -4.31232 0
M  V30 8501 H 784.786 1.03016 -3.59533 0
M  V30 8502 H 787.078 3.02019 -6.06457 0
M  V30 8503 H 788.021 1.72476 -6.86773 0
M  V30 8504 H 788.429 2.20893 -5.19487 0
M  V30 8505 N 787.827 1.57504 0.0551401 0
M  V30 8506 C 788.774 2.04825 1.06373 0
M  V30 8507 C 789.744 0.932108 1.37481 0
M  V30 8508 O 790.929 1.20093 1.48265 0
M  V30 8509 C 788.069 2.51091 2.36743 0
M  V30 8510 C 787.182 3.76392 2.12021 0
M  V30 8511 C 786.317 4.11373 3.36074 0
M  V30 8512 C 785.356 5.29666 3.0679 0
M  V30 8513 N 784.493 5.60205 4.2322 0
M  V30 8514 H 789.333 2.90753 0.653216 0
M  V30 8515 H 786.87 1.43776 0.310951 0
M  V30 8516 H 788.828 2.75973 3.12881 0
M  V30 8517 H 787.458 1.68118 2.75565 0
M  V30 8518 H 786.51 3.58751 1.26498 0
M  V30 8519 H 787.822 4.62662 1.86401 0
M  V30 8520 H 786.976 4.37245 4.20597 0
M  V30 8521 H 785.715 3.23704 3.64784 0
M  V30 8522 H 784.72 5.03574 2.20664 0
M  V30 8523 H 785.945 6.18968 2.79385 0
M  V30 8524 H 783.891 4.75495 4.5193 0
M  V30 8525 H 783.808 6.40928 4.00933 0
M  V30 8526 H 785.076 5.90637 5.08692 0
M  V30 8527 N 789.305 -0.326896 1.54172 0
M  V30 8528 C 790.721 -0.671034 1.44808 0
M  V30 8529 C 790.921 -1.91781 0.618258 0
M  V30 8530 O 789.977 -2.52235 0.115751 0
M  V30 8531 C 791.29 -0.848147 2.88491 0
M  V30 8532 C 792.838 -0.945702 2.98371 0
M  V30 8533 C 793.313 -1.15501 4.43197 0
M  V30 8534 N 794.804 -1.22183 4.46795 0
M  V30 8535 C 795.539 -1.4016 5.56006 0
M  V30 8536 N 795.035 -1.55202 6.75192 0
M  V30 8537 N 796.828 -1.42841 5.43648 0
M  V30 8538 H 788.979 0.49262 2.06608 0
M  V30 8539 H 791.242 0.158574 0.934643 0
M  V30 8540 H 790.948 -0.00329969 3.517 0
M  V30 8541 H 790.822 -1.74497 3.34411 0
M  V30 8542 H 793.209 -1.78106 2.35292 0
M  V30 8543 H 793.29 -0.0254215 2.55787 0
M  V30 8544 H 792.934 -0.324521 5.06862 0
M  V30 8545 H 792.864 -2.08911 4.83388 0
M  V30 8546 H 795.355 -1.12016 3.60917 0
M  V30 8547 H 795.668 -1.68601 7.54184 0
M  V30 8548 H 794.013 -1.52306 6.78106 0
M  V30 8549 H 797.204 -1.30683 4.49488 0
M  V30 8550 H 797.377 -1.56509 6.28816 0
M  V30 8551 N 790.784 -1.46188 -0.588786 0
M  V30 8552 C 791.731 -1.56292 -1.69828 0
M  V30 8553 C 792.701 -0.407581 -1.61022 0
M  V30 8554 O 793.886 -0.623532 -1.80324 0
M  V30 8555 C 791.026 -1.55341 -3.08161 0
M  V30 8556 C 790.139 -2.81564 -3.27636 0
M  V30 8557 C 789.274 -2.72158 -4.56183 0
M  V30 8558 C 788.313 -3.93348 -4.68981 0
M  V30 8559 N 787.45 -3.82365 -5.88848 0
M  V30 8560 H 792.29 -2.51066 -1.6053 0
M  V30 8561 H 789.827 -1.24562 -0.782474 0
M  V30 8562 H 791.785 -1.52776 -3.88221 0
M  V30 8563 H 790.415 -0.641034 -3.16371 0
M  V30 8564 H 789.467 -2.94136 -2.41223 0
M  V30 8565 H 790.779 -3.714 -3.32962 0
M  V30 8566 H 789.933 -2.67665 -5.44464 0
M  V30 8567 H 788.672 -1.79953 -4.53286 0
M  V30 8568 H 787.677 -3.98181 -3.7912 0
M  V30 8569 H 788.902 -4.86643 -4.73662 0
M  V30 8570 H 786.848 -2.92942 -5.86959 0
M  V30 8571 H 786.765 -4.65851 -5.95415 0
M  V30 8572 H 788.033 -3.81836 -6.79575 0
M  V30 8573 N 792.262 0.832906 -1.33792 0
M  V30 8574 C 793.51 1.58539 -1.25338 0
M  V30 8575 C 793.831 1.94175 0.179204 0
M  V30 8576 O 793.101 1.61458 1.10941 0
M  V30 8577 H 791.681 0.58784 -0.460926 0
M  V30 8578 H 794.343 0.995064 -1.67584 0
M  V30 8579 H 793.439 2.51268 -1.85123 0
M  V30 8580 N 793.74 1.17359 1.05189 0
M  V30 8581 C 794.986 0.963413 1.78455 0
M  V30 8582 C 795.319 -0.506703 1.87473 0
M  V30 8583 O 794.594 -1.37611 1.37453 0
M  V30 8584 C 794.877 1.60519 3.22344 0
M  V30 8585 C 794.73 3.14741 3.21338 0
M  V30 8586 C 796.049 1.3091 4.20179 0
M  V30 8587 H 793.168 0.351412 0.647826 0
M  V30 8588 H 795.81 1.44858 1.22948 0
M  V30 8589 H 793.96 1.19265 3.69741 0
M  V30 8590 H 795.632 3.65053 2.82017 0
M  V30 8591 H 793.875 3.4749 2.59679 0
M  V30 8592 H 794.546 3.54775 4.22894 0
M  V30 8593 H 797.022 1.66635 3.81277 0
M  V30 8594 H 795.898 1.784 5.191 0
M  V30 8595 H 796.159 0.229908 4.41502 0
M  V30 8596 N 795.218 -1.23913 0.973828 0
M  V30 8597 C 796.629 -1.73992 0.677021 0
M  V30 8598 C 796.98 -1.78833 -0.807036 0
M  V30 8599 O 796.105 -1.42183 -1.63135 0
M  V30 8600 C 796.7 -3.15985 1.22226 0
M  V30 8601 C 795.259 -3.63547 0.975228 0
M  V30 8602 C 794.406 -2.42001 1.35392 0
M  V30 8603 H 797.357 -1.09529 1.14844 0
M  V30 8604 H 797.378 -3.75875 0.591489 0
M  V30 8605 H 796.89 -3.12429 2.30238 0
M  V30 8606 H 794.991 -3.72493 -0.0891047 0
M  V30 8607 H 795.104 -4.50693 1.62518 0
M  V30 8608 H 793.468 -2.42708 0.772334 0
M  V30 8609 H 794.251 -2.41122 2.44367 0
M  V30 8610 N 796.696 -0.74468 -1.38897 0
M  V30 8611 C 797.646 -0.0869375 -2.27834 0
M  V30 8612 C 798.63 0.702553 -1.44751 0
M  V30 8613 O 799.822 0.569972 -1.67572 0
M  V30 8614 C 796.951 0.812232 -3.33553 0
M  V30 8615 C 796.037 0.0163713 -4.24097 0
M  V30 8616 N 796.428 -1.01547 -4.95502 0
M  V30 8617 C 794.726 0.244554 -4.45329 0
M  V30 8618 C 795.427 -1.49622 -5.62128 0
M  V30 8619 N 794.403 -0.813097 -5.37485 0
M  V30 8620 H 798.205 -0.877345 -2.80499 0
M  V30 8621 H 795.719 -0.579898 -1.51694 0
M  V30 8622 H 797.716 1.299 -3.96146 0
M  V30 8623 H 796.376 1.60169 -2.82446 0
M  V30 8624 H 797.387 -1.39707 -4.98701 0
M  V30 8625 H 794.064 1.00806 -4.05147 0
M  V30 8626 H 795.454 -2.35523 -6.29268 0
M  V30 8627 N 798.174 1.49689 -0.493057 0
M  V30 8628 C 799.121 2.28976 0.28959 0
M  V30 8629 C 800.091 1.35011 0.967536 0
M  V30 8630 O 801.276 1.63964 0.975736 0
M  V30 8631 C 798.416 3.1748 1.35279 0
M  V30 8632 C 797.529 4.26496 0.687418 0
M  V30 8633 C 796.664 5.02226 1.73038 0
M  V30 8634 C 795.703 6.03089 1.04645 0
M  V30 8635 N 794.84 6.72014 2.03325 0
M  V30 8636 H 799.68 2.954 -0.392798 0
M  V30 8637 H 797.217 1.45657 -0.205554 0
M  V30 8638 H 799.175 3.67162 1.98111 0
M  V30 8639 H 797.805 2.53057 2.00405 0
M  V30 8640 H 796.857 3.80362 -0.0540001 0
M  V30 8641 H 798.169 4.98578 0.14864 0
M  V30 8642 H 797.323 5.55737 2.43395 0
M  V30 8643 H 796.062 4.29899 2.303 0
M  V30 8644 H 795.067 5.48817 0.328606 0
M  V30 8645 H 796.292 6.77398 0.480428 0
M  V30 8646 H 794.238 6.02464 2.59564 0
M  V30 8647 H 794.155 7.40046 1.54492 0
M  V30 8648 H 795.423 7.30133 2.72995 0
M  V30 8649 N 799.652 0.226554 1.55963 0
M  V30 8650 C 800.877 -0.411527 2.03276 0
M  V30 8651 C 801.302 -1.52206 1.10521 0
M  V30 8652 O 800.66 -1.81054 0.0943217 0
M  V30 8653 C 800.708 -0.915694 3.4878 0
M  V30 8654 O 799.812 -2.02672 3.59163 0
M  V30 8655 H 799.153 -0.0924907 0.657527 0
M  V30 8656 H 801.683 0.346656 2.01642 0
M  V30 8657 H 801.693 -1.22421 3.892 0
M  V30 8658 H 800.368 -0.102915 4.15773 0
M  V30 8659 H 798.945 -1.72445 3.30632 0
M  V30 8660 N 801.13 -1.57531 -0.0467866 0
M  V30 8661 C 802.378 -1.88078 -0.739656 0
M  V30 8662 C 802.699 -0.821936 -1.76831 0
M  V30 8663 O 801.969 0.146582 -1.95351 0
M  V30 8664 H 800.549 -0.694075 -0.276169 0
M  V30 8665 H 803.211 -1.94893 -0.0169391 0
M  V30 8666 H 802.307 -2.86396 -1.24031 0
M  V30 8667 N 802.608 0.318715 -1.54344 0
M  V30 8668 C 803.541 1.41644 -1.7892 0
M  V30 8669 C 804.519 1.495 -0.639421 0
M  V30 8670 O 805.703 1.66835 -0.877404 0
M  V30 8671 C 802.83 2.79701 -1.9101 0
M  V30 8672 C 801.876 2.89354 -3.13331 0
M  V30 8673 S 802.709 2.53264 -4.71824 0
M  V30 8674 C 803.865 3.93384 -4.86826 0
M  V30 8675 H 804.098 1.20585 -2.71747 0
M  V30 8676 H 801.631 0.515828 -1.45529 0
M  V30 8677 H 803.589 3.59227 -1.98661 0
M  V30 8678 H 802.25 2.9804 -0.991516 0
M  V30 8679 H 801.443 3.90574 -3.1854 0
M  V30 8680 H 801.045 2.17805 -3.04035 0
M  V30 8681 H 803.337 4.88191 -4.69761 0
M  V30 8682 H 804.28 3.93156 -5.88926 0
M  V30 8683 H 804.688 3.82564 -4.15097 0
M  V30 8684 N 804.086 1.46499 0.581025 0
M  V30 8685 C 805.018 1.53225 1.70455 0
M  V30 8686 C 806.031 0.420443 1.57277 0
M  V30 8687 O 807.22 0.688888 1.64671 0
M  V30 8688 C 804.32 1.39803 3.08721 0
M  V30 8689 C 803.493 2.65132 3.47884 0
M  V30 8690 C 802.552 2.45886 4.65217 0
M  V30 8691 O 801.578 3.19615 4.70993 0
M  V30 8692 N 802.78 1.5216 5.60203 0
M  V30 8693 H 805.545 2.50098 1.65139 0
M  V30 8694 H 803.106 1.42576 0.76705 0
M  V30 8695 H 805.098 1.24697 3.8501 0
M  V30 8696 H 803.668 0.51104 3.08394 0
M  V30 8697 H 802.888 2.95169 2.61284 0
M  V30 8698 H 804.176 3.48385 3.70817 0
M  V30 8699 H 803.574 0.913646 5.58273 0
M  V30 8700 H 802.131 1.43017 6.35916 0
M  V30 8701 N 805.565 -0.825799 1.34232 0
M  V30 8702 C 806.793 -1.61363 1.29497 0
M  V30 8703 C 807.208 -1.88341 -0.131536 0
M  V30 8704 O 806.565 -1.47279 -1.07773 0
M  V30 8705 C 806.616 -2.95623 2.08061 0
M  V30 8706 O 806.337 -2.69824 3.45147 0
M  V30 8707 C 807.838 -3.90032 2.10688 0
M  V30 8708 H 805.058 -0.501676 0.445603 0
M  V30 8709 H 807.602 -1.02767 1.76803 0
M  V30 8710 H 805.757 -3.50785 1.64404 0
M  V30 8711 H 806.171 -3.55412 3.85723 0
M  V30 8712 H 807.645 -4.81411 2.70087 0
M  V30 8713 H 808.122 -4.25188 1.10052 0
M  V30 8714 H 808.728 -3.40807 2.54422 0
M  V30 8715 N 807.043 -1.17915 -1.04565 0
M  V30 8716 C 807.99 -0.901605 -2.12461 0
M  V30 8717 C 808.96 0.157011 -1.65356 0
M  V30 8718 O 810.145 0.0184494 -1.90791 0
M  V30 8719 C 807.285 -0.42796 -3.42436 0
M  V30 8720 C 806.398 -1.55142 -4.03181 0
M  V30 8721 C 805.533 -1.03101 -5.21098 0
M  V30 8722 C 804.572 -2.1295 -5.73863 0
M  V30 8723 N 803.709 -1.62339 -6.83074 0
M  V30 8724 H 808.549 -1.82551 -2.3554 0
M  V30 8725 H 806.086 -0.910389 -1.15544 0
M  V30 8726 H 808.044 -0.134859 -4.16982 0
M  V30 8727 H 806.674 0.458977 -3.1952 0
M  V30 8728 H 805.726 -1.96011 -3.26012 0
M  V30 8729 H 807.038 -2.37968 -4.38375 0
M  V30 8730 H 806.192 -0.692132 -6.02739 0
M  V30 8731 H 804.931 -0.17227 -4.87396 0
M  V30 8732 H 803.936 -2.47687 -4.90847 0
M  V30 8733 H 805.161 -2.9925 -6.09611 0
M  V30 8734 H 803.107 -0.787464 -6.51256 0
M  V30 8735 H 803.024 -2.38767 -7.17305 0
M  V30 8736 H 804.292 -1.31363 -7.68351 0
M  V30 8737 N 808.521 1.23394 -0.980386 0
M  V30 8738 C 809.937 1.43961 -0.689008 0
M  V30 8739 C 810.137 1.87229 0.744809 0
M  V30 8740 O 809.193 2.01831 1.51725 0
M  V30 8741 C 810.506 2.49128 -1.68392 0
M  V30 8742 C 812.054 2.62941 -1.69796 0
M  V30 8743 C 812.529 3.71317 -2.68118 0
M  V30 8744 N 814.02 3.7876 -2.66636 0
M  V30 8745 C 814.755 4.62176 -3.39383 0
M  V30 8746 N 814.251 5.49682 -4.21688 0
M  V30 8747 N 816.044 4.56372 -3.28147 0
M  V30 8748 H 808.195 0.936106 -1.90659 0
M  V30 8749 H 810.458 0.473023 -0.821555 0
M  V30 8750 H 810.164 2.24252 -2.70931 0
M  V30 8751 H 810.038 3.47514 -1.46675 0
M  V30 8752 H 812.425 2.87168 -0.679617 0
M  V30 8753 H 812.506 1.64871 -1.95579 0
M  V30 8754 H 812.15 3.4784 -3.70095 0
M  V30 8755 H 812.08 4.68929 -2.3961 0
M  V30 8756 H 814.571 3.16226 -2.06904 0
M  V30 8757 H 814.884 6.10323 -4.74053 0
M  V30 8758 H 813.229 5.49306 -4.25779 0
M  V30 8759 H 816.42 3.87029 -2.63299 0
M  V30 8760 H 816.593 5.21153 -3.85102 0
M  V30 8761 N 809.999 0.752036 1.385 0
M  V30 8762 C 811.41 0.375385 1.82887 0
M  V30 8763 C 811.761 -1.09575 1.62751 0
M  V30 8764 O 810.886 -1.84685 1.12785 0
M  V30 8765 C 811.481 0.674563 3.32017 0
M  V30 8766 C 810.04 0.351208 3.74758 0
M  V30 8767 C 809.187 0.928531 2.61292 0
M  V30 8768 H 812.138 0.948313 1.27251 0
M  V30 8769 H 812.159 -0.0477781 3.8047 0
M  V30 8770 H 811.671 1.74533 3.46641 0
M  V30 8771 H 809.772 -0.713042 3.65714 0
M  V30 8772 H 809.885 0.845675 4.71577 0
M  V30 8773 H 808.249 0.354012 2.52228 0
M  V30 8774 H 809.032 2.0043 2.78716 0
M  V30 8775 N 811.477 -1.49425 0.500989 0
M  V30 8776 C 812.754 -1.9531 -0.106551 0
M  V30 8777 C 813.134 -1.44248 -1.54129 0
M  V30 8778 O 812.482 -0.656237 -2.18874 0
M  V30 8779 C 812.692 -3.48995 -0.0191972 0
M  V30 8780 C 814.04 -4.24161 -0.193129 0
M  V30 8781 O 815.064 -3.56075 -0.0943843 0
M  V30 8782 O 813.923 -5.45064 -0.395869 0
M  V30 8783 H 811.017 -0.82149 -0.0953068 0
M  V30 8784 H 813.563 -1.6007 0.563526 0
M  V30 8785 H 812.335 -3.78794 0.981353 0
M  V30 8786 H 811.958 -3.90852 -0.72942 0
M  V30 8787 N 812.955 -0.234822 -1.55841 0
M  V30 8788 C 813.885 0.664217 -2.23854 0
M  V30 8789 C 814.866 1.19076 -1.2147 0
M  V30 8790 O 816.051 1.23232 -1.50091 0
M  V30 8791 C 813.181 1.86666 -2.9287 0
M  V30 8792 C 812.135 1.47341 -4.01839 0
M  V30 8793 C 811.461 2.75571 -4.58219 0
M  V30 8794 C 812.761 0.653479 -5.18196 0
M  V30 8795 H 814.455 0.0971213 -2.99242 0
M  V30 8796 H 812.001 0.0452724 -1.43929 0
M  V30 8797 H 813.954 2.50116 -3.39146 0
M  V30 8798 H 812.678 2.45894 -2.1495 0
M  V30 8799 H 811.337 0.862314 -3.56314 0
M  V30 8800 H 810.985 3.32971 -3.77014 0
M  V30 8801 H 810.685 2.49987 -5.31771 0
M  V30 8802 H 812.209 3.39939 -5.07221 0
M  V30 8803 H 813.623 1.19198 -5.60771 0
M  V30 8804 H 812.02 0.494188 -5.98062 0
M  V30 8805 H 813.09 -0.337004 -4.83728 0
M  V30 8806 N 814.433 1.57553 0.0384317 0
M  V30 8807 C 815.363 2.0898 1.04161 0
M  V30 8808 C 816.344 0.99029 1.38301 0
M  V30 8809 O 817.529 1.26499 1.47349 0
M  V30 8810 C 814.659 2.56145 2.34536 0
M  V30 8811 C 813.613 3.70275 2.14663 0
M  V30 8812 C 812.939 4.03612 3.50715 0
M  V30 8813 C 814.239 4.99067 1.54045 0
M  V30 8814 H 815.933 2.93046 0.613548 0
M  V30 8815 H 813.479 1.40973 0.293684 0
M  V30 8816 H 815.432 2.90741 3.05037 0
M  V30 8817 H 814.156 1.6915 2.79385 0
M  V30 8818 H 812.815 3.36013 1.46597 0
M  V30 8819 H 812.463 3.13698 3.93195 0
M  V30 8820 H 812.163 4.80482 3.38247 0
M  V30 8821 H 813.687 4.40735 4.22593 0
M  V30 8822 H 815.101 5.3168 2.14451 0
M  V30 8823 H 813.498 5.80484 1.52178 0
M  V30 8824 H 814.568 4.8226 0.505259 0
M  V30 8825 N 815.911 -0.310526 1.54511 0
M  V30 8826 C 817.327 -0.655637 1.45511 0
M  V30 8827 C 817.527 -1.91114 0.638564 0
M  V30 8828 O 816.583 -2.52098 0.142497 0
M  V30 8829 C 817.896 -0.817501 2.89374 0
M  V30 8830 C 819.444 -0.914003 2.99358 0
M  V30 8831 C 819.919 -1.10794 4.44397 0
M  V30 8832 N 821.41 -1.17437 4.48066 0
M  V30 8833 C 822.145 -1.34255 5.57461 0
M  V30 8834 N 821.641 -1.48032 6.768 0
M  V30 8835 N 823.434 -1.37067 5.45132 0
M  V30 8836 H 815.585 0.514506 2.06074 0
M  V30 8837 H 817.848 0.168478 0.932909 0
M  V30 8838 H 817.554 0.034003 3.51684 0
M  V30 8839 H 817.428 -1.7094 3.36243 0
M  V30 8840 H 819.815 -1.756 2.37168 0
M  V30 8841 H 819.896 0.00170958 2.558 0
M  V30 8842 H 819.54 -0.270743 5.07178 0
M  V30 8843 H 819.47 -2.03773 4.85576 0
M  V30 8844 H 821.961 -1.08181 3.62084 0
M  V30 8845 H 822.274 -1.60593 7.5593 0
M  V30 8846 H 820.619 -1.45105 6.79683 0
M  V30 8847 H 823.81 -1.25909 4.50849 0
M  V30 8848 H 823.983 -1.49831 6.3044 0
M  V30 8849 N 817.389 -1.46805 -0.573248 0
M  V30 8850 C 818.614 -1.56433 -1.36175 0
M  V30 8851 C 819.039 -0.209336 -1.86932 0
M  V30 8852 O 818.397 0.812146 -1.62092 0
M  V30 8853 C 818.445 -2.58055 -2.51873 0
M  V30 8854 O 817.549 -2.12214 -3.53609 0
M  V30 8855 H 816.89 -0.526068 -0.405153 0
M  V30 8856 H 819.42 -1.92456 -0.694405 0
M  V30 8857 H 819.43 -2.77966 -2.98662 0
M  V30 8858 H 818.105 -3.56448 -2.14284 0
M  V30 8859 H 816.682 -2.02333 -3.13234 0
M  V30 8860 N 818.867 0.818669 -1.34668 0
M  V30 8861 C 819.777 1.9616 -1.2868 0
M  V30 8862 C 820.793 1.72918 -0.193742 0
M  V30 8863 O 821.969 1.96951 -0.420975 0
M  V30 8864 C 819.034 3.30534 -1.04633 0
M  V30 8865 C 818.095 3.66755 -2.23136 0
M  V30 8866 C 817.328 4.94717 -2.00227 0
M  V30 8867 O 817.551 5.62218 -0.96264 0
M  V30 8868 O 816.485 5.28915 -2.87286 0
M  V30 8869 H 820.311 2.04157 -2.24842 0
M  V30 8870 H 817.896 0.954691 -1.14917 0
M  V30 8871 H 819.778 4.11005 -0.930216 0
M  V30 8872 H 818.453 3.23495 -0.115139 0
M  V30 8873 H 817.36 2.8671 -2.40308 0
M  V30 8874 H 818.693 3.78484 -3.1466 0
M  V30 8875 N 820.346 1.18468 1.03938 0
M  V30 8876 C 821.594 0.978895 1.76811 0
M  V30 8877 C 821.915 -0.49257 1.88676 0
M  V30 8878 O 821.185 -1.3572 1.41269 0
M  V30 8879 H 819.765 0.359201 0.654968 0
M  V30 8880 H 822.427 1.49173 1.25433 0
M  V30 8881 H 821.523 1.418 2.78027 0
M  V30 8882 N 821.824 -1.22873 0.986916 0
M  V30 8883 C 823.073 -1.90772 0.654911 0
M  V30 8884 C 823.386 -1.77768 -0.81595 0
M  V30 8885 O 824.592 -2.40529 -1.25929 0
M  V30 8886 C 823.048 -3.42003 1.12081 0
M  V30 8887 C 822.656 -3.63655 2.61647 0
M  V30 8888 C 824.4 -4.15638 0.862854 0
M  V30 8889 C 822.307 -5.08555 3.01871 0
M  V30 8890 H 821.237 -0.714362 0.241252 0
M  V30 8891 H 823.888 -1.39196 1.19568 0
M  V30 8892 H 822.27 -3.92725 0.508207 0
M  V30 8893 H 823.444 -3.2345 3.28202 0
M  V30 8894 H 821.759 -3.03341 2.8526 0
M  V30 8895 H 824.356 -5.22425 1.13915 0
M  V30 8896 H 824.699 -4.15814 -0.201036 0
M  V30 8897 H 825.232 -3.70924 1.43736 0
M  V30 8898 H 821.971 -5.13514 4.07411 0
M  V30 8899 H 821.491 -5.49684 2.40015 0
M  V30 8900 H 823.17 -5.76936 2.92839 0
M  V30 8901 N 823.302 -0.75937 -1.38099 0
M  V30 8902 C 824.713 -0.385078 -1.82686 0
M  V30 8903 C 825.064 1.0871 -1.6333 0
M  V30 8904 O 824.189 1.84084 -1.13762 0
M  V30 8905 C 824.784 -0.692161 -3.31654 0
M  V30 8906 C 823.343 -0.371077 -3.74566 0
M  V30 8907 C 822.49 -0.942375 -2.60796 0
M  V30 8908 H 825.441 -0.955048 -1.26746 0
M  V30 8909 H 825.462 0.0276001 -3.8049 0
M  V30 8910 H 824.974 -1.76369 -3.4571 0
M  V30 8911 H 823.075 0.693637 -3.66087 0
M  V30 8912 H 823.188 -0.870672 -4.71122 0
M  V30 8913 H 821.552 -0.367383 -2.52036 0
M  V30 8914 H 822.335 -2.01905 -2.77649 0
M  V30 8915 N 824.78 1.49157 -0.508906 0
M  V30 8916 C 826.008 2.06879 0.0293734 0
M  V30 8917 C 826.423 1.36823 1.30095 0
M  V30 8918 O 825.78 0.449034 1.7689 0
M  V30 8919 C 825.831 3.60423 0.278791 0
M  V30 8920 O 825.552 4.27844 -0.942389 0
M  V30 8921 C 827.053 4.34881 0.859825 0
M  V30 8922 H 824.273 0.67057 -0.0240184 0
M  V30 8923 H 826.817 1.91834 -0.708526 0
M  V30 8924 H 824.972 3.75145 0.966689 0
M  V30 8925 H 825.386 5.19671 -0.710097 0
M  V30 8926 H 826.86 5.43161 0.983884 0
M  V30 8927 H 827.337 3.9789 1.85958 0
M  V30 8928 H 827.943 4.24785 0.209152 0
M  V30 8929 N 826.258 0.243083 1.55714 0
M  V30 8930 C 827.486 -0.386971 2.03249 0
M  V30 8931 C 827.901 -1.51812 1.12243 0
M  V30 8932 O 827.258 -1.81992 0.136119 0
M  V30 8933 C 827.309 -0.898361 3.5016 0
M  V30 8934 O 827.03 0.187708 4.37698 0
M  V30 8935 C 828.531 -1.59949 4.13438 0
M  V30 8936 H 825.751 -0.0923981 0.664608 0
M  V30 8937 H 828.295 0.365832 2.01201 0
M  V30 8938 H 826.45 -1.60136 3.52754 0
M  V30 8939 H 826.864 -0.200001 5.24119 0
M  V30 8940 H 828.338 -1.90907 5.17937 0
M  V30 8941 H 828.815 -2.52014 3.59702 0
M  V30 8942 H 829.421 -0.941163 4.14756 0
M  V30 8943 N 827.736 -1.57571 -0.0300757 0
M  V30 8944 C 828.646 -2.09892 -1.04798 0
M  V30 8945 C 829.662 -1.03732 -1.39698 0
M  V30 8946 O 830.838 -1.35461 -1.49038 0
M  V30 8947 C 827.903 -2.56707 -2.33028 0
M  V30 8948 C 826.964 -3.77345 -2.04718 0
M  V30 8949 C 826.197 -4.21918 -3.26834 0
M  V30 8950 O 826.42 -3.66025 -4.37472 0
M  V30 8951 O 825.354 -5.14362 -3.12594 0
M  V30 8952 H 829.18 -2.97023 -0.633344 0
M  V30 8953 H 826.765 -1.47344 -0.246991 0
M  V30 8954 H 828.647 -2.87154 -3.08417 0
M  V30 8955 H 827.322 -1.72688 -2.73789 0
M  V30 8956 H 826.229 -3.51919 -1.26901 0
M  V30 8957 H 827.562 -4.62345 -1.68813 0
M  V30 8958 N 829.214 0.302327 -1.54673 0
M  V30 8959 C 830.46 1.03924 -1.74149 0
M  V30 8960 C 830.793 1.86968 -0.525041 0
M  V30 8961 O 830.068 1.88538 0.477868 0
M  V30 8962 C 830.351 1.94633 -3.02969 0
M  V30 8963 C 830.204 1.14778 -4.34909 0
M  V30 8964 C 831.523 2.93826 -3.27649 0
M  V30 8965 H 828.642 0.376405 -0.633631 0
M  V30 8966 H 831.284 0.314007 -1.87387 0
M  V30 8967 H 829.434 2.56471 -2.91813 0
M  V30 8968 H 831.106 0.552363 -4.57981 0
M  V30 8969 H 829.349 0.450462 -4.31455 0
M  V30 8970 H 830.02 1.81495 -5.21309 0
M  V30 8971 H 832.496 2.42117 -3.38406 0
M  V30 8972 H 831.372 3.54462 -4.19104 0
M  V30 8973 H 831.633 3.67416 -2.45882 0
M  V30 8974 N 830.692 1.47107 0.565454 0
M  V30 8975 C 831.655 1.58535 1.65527 0
M  V30 8976 C 832.655 0.461081 1.54048 0
M  V30 8977 O 833.845 0.725911 1.58355 0
M  V30 8978 C 830.977 1.52204 3.05036 0
M  V30 8979 H 832.17 2.55676 1.56747 0
M  V30 8980 H 829.723 1.35174 0.78471 0
M  V30 8981 H 830.458 0.564071 3.19357 0
M  V30 8982 H 830.243 2.3379 3.14777 0
M  V30 8983 H 831.733 1.63322 3.84338 0
M  V30 8984 N 832.17 -0.811516 1.35101 0
M  V30 8985 C 833.581 -1.38515 1.25182 0
M  V30 8986 C 833.932 -1.95846 -0.117883 0
M  V30 8987 O 833.057 -1.90925 -1.01866 0
M  V30 8988 C 833.652 -2.51813 2.26662 0
M  V30 8989 C 832.211 -3.05052 2.20499 0
M  V30 8990 C 831.358 -1.77987 2.12641 0
M  V30 8991 H 834.309 -0.614959 1.46301 0
M  V30 8992 H 834.33 -3.30228 1.89023 0
M  V30 8993 H 833.842 -2.10057 3.2634 0
M  V30 8994 H 831.943 -3.51285 1.24215 0
M  V30 8995 H 832.056 -3.63368 3.1225 0
M  V30 8996 H 830.42 -1.99342 1.5854 0
M  V30 8997 H 831.203 -1.38389 3.14171 0
M  V30 8998 N 833.648 -1.19017 -1.03309 0
M  V30 8999 C 834.876 -1.01534 -1.80273 0
M  V30 9000 C 835.291 0.43605 -1.83696 0
M  V30 9001 O 834.648 1.30288 -1.27794 0
M  V30 9002 C 834.699 -1.5722 -3.25522 0
M  V30 9003 O 834.42 -2.96677 -3.22358 0
M  V30 9004 C 835.921 -1.4446 -4.19102 0
M  V30 9005 H 833.141 -0.358094 -0.567459 0
M  V30 9006 H 835.685 -1.57738 -1.3015 0
M  V30 9007 H 833.84 -1.05174 -3.7285 0
M  V30 9008 H 834.254 -3.22795 -4.13405 0
M  V30 9009 H 835.728 -1.88209 -5.18923 0
M  V30 9010 H 836.205 -0.394471 -4.37425 0
M  V30 9011 H 836.811 -1.95616 -3.77643 0
M  V30 9012 N 835.127 1.22348 -0.993418 0
M  V30 9013 C 836.09 2.22522 -0.549251 0
M  V30 9014 C 837.09 1.56529 0.368164 0
M  V30 9015 O 838.28 1.73463 0.16005 0
M  V30 9016 C 835.412 3.40307 0.201037 0
M  V30 9017 H 836.605 2.63332 -1.43515 0
M  V30 9018 H 834.158 1.35407 -0.78068 0
M  V30 9019 H 834.893 3.0497 1.10289 0
M  V30 9020 H 834.678 3.8942 -0.457685 0
M  V30 9021 H 836.168 4.14597 0.499946 0
M  V30 9022 N 836.605 0.766683 1.37694 0
M  V30 9023 C 837.83 0.338715 2.04615 0
M  V30 9024 C 838.255 -1.02918 1.57447 0
M  V30 9025 O 837.613 -1.65849 0.732386 0
M  V30 9026 C 837.661 0.385284 3.58536 0
M  V30 9027 O 836.765 -0.616081 4.07772 0
M  V30 9028 H 836.106 0.147527 0.647404 0
M  V30 9029 H 838.636 1.04146 1.7611 0
M  V30 9030 H 838.646 0.240782 4.07289 0
M  V30 9031 H 837.321 1.38325 3.92223 0
M  V30 9032 H 835.898 -0.435115 3.70353 0
M  V30 9033 N 838.083 -1.48885 0.516809 0
M  V30 9034 C 839.494 -1.86557 0.0729921 0
M  V30 9035 C 839.845 -1.42767 -1.34581 0
M  V30 9036 O 838.97 -0.812514 -2.00567 0
M  V30 9037 C 839.565 -3.38567 0.125686 0
M  V30 9038 C 838.124 -3.75481 -0.262867 0
M  V30 9039 C 837.271 -2.72913 0.491281 0
M  V30 9040 H 840.222 -1.40978 0.728767 0
M  V30 9041 H 840.243 -3.74629 -0.665831 0
M  V30 9042 H 839.755 -3.70408 1.15842 0
M  V30 9043 H 837.856 -3.49251 -1.29824 0
M  V30 9044 H 837.969 -4.79052 0.067579 0
M  V30 9045 H 836.333 -2.54627 -0.0608525 0
M  V30 9046 H 837.116 -3.07599 1.5244 0
M  V30 9047 N 839.561 -0.251338 -1.55583 0
M  V30 9048 C 840.491 0.640437 -2.24545 0
M  V30 9049 C 841.472 1.17781 -1.22726 0
M  V30 9050 O 842.657 1.21633 -1.5139 0
M  V30 9051 C 839.787 1.8355 -2.94834 0
M  V30 9052 C 838.741 1.4307 -4.03379 0
M  V30 9053 C 838.067 2.70695 -4.61116 0
M  V30 9054 C 839.367 0.59848 -5.1886 0
M  V30 9055 H 841.061 0.0653772 -2.99329 0
M  V30 9056 H 838.607 0.0300042 -1.43969 0
M  V30 9057 H 840.56 2.46505 -3.4178 0
M  V30 9058 H 839.284 2.43601 -2.17546 0
M  V30 9059 H 837.943 0.824474 -3.57209 0
M  V30 9060 H 837.591 3.28954 -3.80524 0
M  V30 9061 H 837.291 2.44332 -5.34393 0
M  V30 9062 H 838.815 3.34541 -5.10798 0
M  V30 9063 H 840.229 1.13244 -5.62004 0
M  V30 9064 H 838.626 0.430728 -5.98552 0
M  V30 9065 H 839.696 -0.38829 -4.83343 0
M  V30 9066 N 841.039 1.57585 0.0217189 0
M  V30 9067 C 842.264 1.94267 0.726309 0
M  V30 9068 C 842.689 0.851904 1.67703 0
M  V30 9069 O 842.047 -0.191792 1.80283 0
M  V30 9070 C 842.095 3.30023 1.45318 0
M  V30 9071 O 841.199 3.22791 2.5667 0
M  V30 9072 H 840.54 0.634777 0.194818 0
M  V30 9073 H 843.07 2.04585 -0.0249985 0
M  V30 9074 H 843.08 3.65084 1.82147 0
M  V30 9075 H 841.755 4.08972 0.755962 0
M  V30 9076 H 840.332 2.99373 2.2233 0
M  V30 9077 N 842.517 -0.29412 1.54831 0
M  V30 9078 C 843.765 -1.02643 1.74094 0
M  V30 9079 C 844.086 -1.87563 0.533402 0
M  V30 9080 O 843.356 -1.9061 -0.452192 0
M  V30 9081 H 841.936 -0.381959 0.641963 0
M  V30 9082 H 844.598 -0.323444 1.92197 0
M  V30 9083 H 843.694 -1.67558 2.63307 0
M  V30 9084 N 843.995 -1.47404 -0.557645 0
M  V30 9085 C 845.22 -1.57868 -1.34508 0
M  V30 9086 C 845.645 -0.229151 -1.86699 0
M  V30 9087 O 845.003 0.794908 -1.62944 0
M  V30 9088 C 845.051 -2.60712 -2.49122 0
M  V30 9089 O 844.155 -2.15952 -3.51338 0
M  V30 9090 H 843.496 -0.530335 -0.399551 0
M  V30 9091 H 846.026 -1.93181 -0.673954 0
M  V30 9092 H 846.036 -2.81118 -2.95697 0
M  V30 9093 H 844.711 -3.58701 -2.10491 0
M  V30 9094 H 843.288 -2.05644 -3.11071 0
M  V30 9095 N 845.473 0.80434 -1.35529 0
M  V30 9096 C 846.884 1.37849 -1.25915 0
M  V30 9097 C 847.235 1.95905 0.107495 0
M  V30 9098 O 846.36 1.91462 1.00852 0
M  V30 9099 C 846.955 2.50608 -2.27994 0
M  V30 9100 C 845.514 3.03879 -2.22114 0
M  V30 9101 C 844.661 1.76856 -2.13582 0
M  V30 9102 H 847.612 0.607192 -1.46625 0
M  V30 9103 H 847.633 3.29221 -1.90772 0
M  V30 9104 H 847.145 2.08323 -3.27449 0
M  V30 9105 H 845.246 3.50622 -1.26077 0
M  V30 9106 H 845.359 3.61707 -3.14173 0
M  V30 9107 H 843.723 1.98498 -1.59595 0
M  V30 9108 H 844.506 1.36721 -3.14901 0
M  V30 9109 N 846.951 1.19563 1.02676 0
M  V30 9110 C 847.898 0.935291 2.11 0
M  V30 9111 C 848.868 -0.130685 1.65585 0
M  V30 9112 O 850.053 0.0119062 1.90796 0
M  V30 9113 C 847.193 0.482384 3.41712 0
M  V30 9114 C 846.306 1.61537 4.00662 0
M  V30 9115 C 845.441 1.11378 5.19392 0
M  V30 9116 C 844.48 2.22052 5.70403 0
M  V30 9117 N 843.617 1.73185 6.80405 0
M  V30 9118 H 848.457 1.86275 2.32606 0
M  V30 9119 H 845.994 0.928656 1.14081 0
M  V30 9120 H 847.952 0.20118 4.16715 0
M  V30 9121 H 846.582 -0.408086 3.2021 0
M  V30 9122 H 845.634 2.01173 3.22852 0
M  V30 9123 H 846.946 2.44912 4.34534 0
M  V30 9124 H 846.1 0.787935 6.01562 0
M  V30 9125 H 844.839 0.249789 4.8706 0
M  V30 9126 H 843.844 2.55465 4.86845 0
M  V30 9127 H 845.069 3.08911 6.04774 0
M  V30 9128 H 843.015 0.890973 6.49921 0
M  V30 9129 H 842.932 2.50148 7.13416 0
M  V30 9130 H 844.2 1.4357 7.66164 0
M  V30 9131 N 848.429 -1.21819 0.999893 0
M  V30 9132 C 849.362 -2.22635 0.500887 0
M  V30 9133 C 850.34 -1.56459 -0.442636 0
M  V30 9134 O 851.524 -1.84902 -0.366551 0
M  V30 9135 C 848.651 -3.37598 -0.273046 0
M  V30 9136 C 847.697 -4.22006 0.617511 0
M  V30 9137 S 848.53 -4.93583 2.07693 0
M  V30 9138 C 849.686 -6.1198 1.31269 0
M  V30 9139 H 849.919 -2.64618 1.35516 0
M  V30 9140 H 847.452 -1.31606 0.807419 0
M  V30 9141 H 849.41 -4.04251 -0.713515 0
M  V30 9142 H 848.071 -2.94108 -1.10268 0
M  V30 9143 H 847.264 -5.03995 0.0216543 0
M  V30 9144 H 846.866 -3.6052 0.99504 0
M  V30 9145 H 849.158 -6.74979 0.583933 0
M  V30 9146 H 850.101 -6.75991 2.10811 0
M  V30 9147 H 850.509 -5.5847 0.822901 0
M  V30 9148 N 849.908 -0.773975 -1.37286 0
M  V30 9149 C 851.133 -0.349561 -2.04433 0
M  V30 9150 C 851.558 1.02082 -1.5799 0
M  V30 9151 O 850.916 1.65458 -0.741172 0
M  V30 9152 C 850.964 -0.404292 -3.58326 0
M  V30 9153 O 850.068 0.594447 -4.08093 0
M  V30 9154 H 849.409 -0.150959 -0.646612 0
M  V30 9155 H 851.939 -1.05079 -1.75555 0
M  V30 9156 H 851.949 -0.262378 -4.07155 0
M  V30 9157 H 850.624 -1.40403 -3.91484 0
M  V30 9158 H 849.201 0.415468 -3.70578 0
M  V30 9159 N 851.386 1.48609 -0.524698 0
M  V30 9160 C 852.614 2.06899 0.00742946 0
M  V30 9161 C 853.029 1.38196 1.28637 0
M  V30 9162 O 852.386 0.467771 1.76403 0
M  V30 9163 C 852.437 3.60699 0.240548 0
M  V30 9164 O 852.158 4.26821 -0.987715 0
M  V30 9165 C 853.659 4.35769 0.813652 0
M  V30 9166 H 850.879 0.670278 -0.0311294 0
M  V30 9167 H 853.423 1.91071 -0.728832 0
M  V30 9168 H 851.578 3.76149 0.926845 0
M  V30 9169 H 851.992 5.18889 -0.765175 0
M  V30 9170 H 853.466 5.44174 0.926219 0
M  V30 9171 H 853.943 3.9984 1.81728 0
M  V30 9172 H 854.549 4.24983 0.164086 0
M  V30 9173 N 852.864 0.259585 1.55447 0
M  V30 9174 C 854.089 -0.368317 2.04103 0
M  V30 9175 C 854.514 -1.49827 1.13725 0
M  V30 9176 O 853.872 -1.80814 0.132705 0
M  V30 9177 C 853.92 -0.841506 3.50644 0
M  V30 9178 O 853.024 -1.95008 3.63381 0
M  V30 9179 H 852.365 -0.0785227 0.659341 0
M  V30 9180 H 854.895 0.389349 2.00861 0
M  V30 9181 H 854.905 -1.14138 3.9171 0
M  V30 9182 H 853.58 -0.0147001 4.15897 0
M  V30 9183 H 852.157 -1.65393 3.34215 0
M  V30 9184 N 854.342 -1.57594 -0.0133615 0
M  V30 9185 C 855.567 -1.94649 -0.715996 0
M  V30 9186 C 855.992 -0.860786 -1.67249 0
M  V30 9187 O 855.35 0.182228 -1.80382 0
M  V30 9188 C 855.398 -3.30789 -1.43566 0
M  V30 9189 O 854.502 -3.24148 -2.54955 0
M  V30 9190 H 853.843 -0.635801 -0.191449 0
M  V30 9191 H 856.373 -2.04569 0.0358478 0
M  V30 9192 H 856.383 -3.66045 -1.80208 0
M  V30 9193 H 855.058 -4.09367 -0.734263 0
M  V30 9194 H 853.635 -3.00548 -2.20739 0
M  V30 9195 N 855.82 0.285905 -1.54985 0
M  V30 9196 C 857.045 1.04207 -1.7932 0
M  V30 9197 C 857.47 1.79622 -0.558343 0
M  V30 9198 O 856.828 1.74506 0.491661 0
M  V30 9199 C 856.876 1.98648 -3.0095 0
M  V30 9200 O 855.98 3.07207 -2.75132 0
M  V30 9201 H 855.321 0.298596 -0.593074 0
M  V30 9202 H 857.851 0.318736 -2.02102 0
M  V30 9203 H 857.861 2.4084 -3.29333 0
M  V30 9204 H 856.536 1.43167 -3.90482 0
M  V30 9205 H 855.113 2.69423 -2.57809 0
M  V30 9206 N 857.298 1.47698 0.54982 0
M  V30 9207 C 858.245 1.60739 1.65625 0
M  V30 9208 C 859.215 0.450129 1.59884 0
M  V30 9209 O 860.4 0.671123 1.78607 0
M  V30 9210 C 857.54 1.63457 3.03934 0
M  V30 9211 C 856.653 2.90152 3.20056 0
M  V30 9212 C 855.788 2.84157 4.48807 0
M  V30 9213 C 854.827 4.05644 4.58387 0
M  V30 9214 N 853.964 3.97843 5.78503 0
M  V30 9215 H 858.804 2.55234 1.53817 0
M  V30 9216 H 856.341 1.26593 0.749173 0
M  V30 9217 H 858.299 1.63015 3.84034 0
M  V30 9218 H 856.929 0.724689 3.1456 0
M  V30 9219 H 855.981 3.00428 2.33339 0
M  V30 9220 H 857.293 3.80097 3.22998 0
M  V30 9221 H 856.447 2.82006 5.37175 0
M  V30 9222 H 855.186 1.91908 4.48356 0
M  V30 9223 H 854.191 4.08092 3.6843 0
M  V30 9224 H 855.416 4.9903 4.60593 0
M  V30 9225 H 853.362 3.08401 5.78986 0
M  V30 9226 H 853.279 4.81473 5.82855 0
M  V30 9227 H 854.547 3.99719 6.69212 0
M  V30 9228 N 858.776 -0.797141 1.35954 0
M  V30 9229 C 860.001 -1.59097 1.33053 0
M  V30 9230 C 860.426 -1.87897 -0.0874592 0
M  V30 9231 O 859.784 -1.47291 -1.05712 0
M  V30 9232 C 859.832 -2.89346 2.152 0
M  V30 9233 O 858.936 -3.826 1.5392 0
M  V30 9234 H 858.277 -0.482895 0.45575 0
M  V30 9235 H 860.807 -0.988633 1.79129 0
M  V30 9236 H 860.817 -3.38686 2.27499 0
M  V30 9237 H 859.492 -2.6771 3.18283 0
M  V30 9238 H 858.069 -3.41174 1.50516 0
M  V30 9239 N 860.254 -1.20106 -1.0204 0
M  V30 9240 C 861.67 -0.955099 -1.27867 0
M  V30 9241 C 861.87 0.367595 -1.98119 0
M  V30 9242 O 860.926 1.09705 -2.27423 0
M  V30 9243 C 862.239 -2.13507 -2.11744 0
M  V30 9244 C 863.787 -2.17563 -2.25023 0
M  V30 9245 C 864.262 -3.35035 -3.12275 0
M  V30 9246 N 865.753 -3.35024 -3.19864 0
M  V30 9247 C 866.488 -4.22566 -3.8759 0
M  V30 9248 N 865.984 -5.20278 -4.57474 0
M  V30 9249 N 867.777 -4.10418 -3.84075 0
M  V30 9250 H 859.928 -2.05193 -0.54861 0
M  V30 9251 H 862.191 -0.897689 -0.304728 0
M  V30 9252 H 861.897 -3.09275 -1.67456 0
M  V30 9253 H 861.771 -2.11281 -3.12474 0
M  V30 9254 H 864.158 -1.22359 -2.68537 0
M  V30 9255 H 864.239 -2.23838 -1.23815 0
M  V30 9256 H 863.883 -4.30522 -2.69468 0
M  V30 9257 H 863.813 -3.25996 -4.13563 0
M  V30 9258 H 866.304 -2.64299 -2.701 0
M  V30 9259 H 866.617 -5.83408 -5.06809 0
M  V30 9260 H 864.962 -5.24219 -4.56311 0
M  V30 9261 H 868.153 -3.33353 -3.28623 0
M  V30 9262 H 868.326 -4.78854 -4.36581 0
M  V30 9263 N 861.732 1.21287 -1.00634 0
M  V30 9264 C 862.962 1.94103 -0.70765 0
M  V30 9265 C 863.37 1.74382 0.733991 0
M  V30 9266 O 862.713 1.04843 1.50843 0
M  V30 9267 C 862.775 3.46705 -0.950581 0
M  V30 9268 C 862.439 3.90176 -2.37932 0
M  V30 9269 C 863.436 3.96769 -3.35961 0
M  V30 9270 C 861.121 4.22453 -2.71733 0
M  V30 9271 C 863.115 4.35034 -4.65858 0
M  V30 9272 C 860.802 4.60394 -4.01846 0
M  V30 9273 C 861.8 4.66656 -4.9872 0
M  V30 9274 O 861.488 5.03732 -6.26505 0
M  V30 9275 H 861.22 0.62405 -0.259881 0
M  V30 9276 H 863.774 1.55015 -1.34757 0
M  V30 9277 H 862.004 3.85868 -0.253492 0
M  V30 9278 H 863.693 4.00741 -0.645069 0
M  V30 9279 H 864.459 3.72009 -3.11182 0
M  V30 9280 H 860.338 4.16776 -1.97025 0
M  V30 9281 H 863.882 4.39836 -5.4147 0
M  V30 9282 H 859.779 4.84609 -4.26409 0
M  V30 9283 H 860.547 5.21761 -6.30641 0
M  V30 9284 N 863.21 0.781244 1.36873 0
M  V30 9285 C 864.626 0.461968 1.52768 0
M  V30 9286 C 864.826 -1.02099 1.73719 0
M  V30 9287 O 863.882 -1.80665 1.76399 0
M  V30 9288 C 865.195 1.2853 2.71846 0
M  V30 9289 C 866.743 1.27817 2.85713 0
M  V30 9290 C 867.218 2.08506 4.07786 0
M  V30 9291 N 868.709 2.05909 4.14917 0
M  V30 9292 C 869.444 2.65118 5.08429 0
M  V30 9293 N 868.94 3.33152 6.07438 0
M  V30 9294 N 870.733 2.54896 5.00983 0
M  V30 9295 H 862.884 1.74198 1.21527 0
M  V30 9296 H 865.147 0.740027 0.592506 0
M  V30 9297 H 864.853 2.3366 2.62861 0
M  V30 9298 H 864.727 0.920981 3.65784 0
M  V30 9299 H 867.114 0.234817 2.94164 0
M  V30 9300 H 867.195 1.68219 1.92707 0
M  V30 9301 H 866.839 3.12867 4.00096 0
M  V30 9302 H 866.769 1.65479 4.99924 0
M  V30 9303 H 869.26 1.56386 3.44023 0
M  V30 9304 H 869.573 3.75681 6.75339 0
M  V30 9305 H 867.918 3.37253 6.07689 0
M  V30 9306 H 871.109 2.01352 4.22581 0
M  V30 9307 H 871.282 3.01332 5.73675 0
M  V30 9308 N 864.689 -1.48329 0.532571 0
M  V30 9309 C 865.914 -2.074 0.00147755 0
M  V30 9310 C 866.339 -1.38615 -1.27151 0
M  V30 9311 O 865.697 -0.452949 -1.75551 0
M  V30 9312 C 865.745 -3.60029 -0.202866 0
M  V30 9313 O 864.849 -3.92327 -1.27097 0
M  V30 9314 H 864.19 -0.662777 0.0402883 0
M  V30 9315 H 866.72 -1.90701 0.741224 0
M  V30 9316 H 866.73 -4.05783 -0.424722 0
M  V30 9317 H 865.405 -4.09496 0.727033 0
M  V30 9318 H 863.982 -3.58348 -1.03156 0
M  V30 9319 N 866.167 -0.267825 -1.55308 0
M  V30 9320 C 867.114 0.6228 -2.22238 0
M  V30 9321 C 868.084 1.15536 -1.19334 0
M  V30 9322 O 869.269 1.206 -1.47852 0
M  V30 9323 C 866.409 1.80447 -2.94164 0
M  V30 9324 C 865.522 1.30646 -4.11771 0
M  V30 9325 C 864.657 2.44935 -4.7136 0
M  V30 9326 C 863.696 1.92099 -5.81175 0
M  V30 9327 N 862.833 2.99834 -6.34857 0
M  V30 9328 H 867.673 0.0453874 -2.97965 0
M  V30 9329 H 865.21 0.0106371 -1.47096 0
M  V30 9330 H 867.168 2.49896 -3.34078 0
M  V30 9331 H 865.798 2.35403 -2.20874 0
M  V30 9332 H 864.85 0.505314 -3.77029 0
M  V30 9333 H 866.162 0.879409 -4.90987 0
M  V30 9334 H 865.316 3.2239 -5.13955 0
M  V30 9335 H 864.055 2.90951 -3.91406 0
M  V30 9336 H 863.06 1.13122 -5.38037 0
M  V30 9337 H 864.285 1.47027 -6.62993 0
M  V30 9338 H 862.231 3.45246 -5.578 0
M  V30 9339 H 862.148 2.61524 -7.09324 0
M  V30 9340 H 863.416 3.77286 -6.82111 0
M  V30 9341 N 867.645 1.57599 0.00500368 0
M  V30 9342 C 869.056 1.78462 0.54848 0
M  V30 9343 C 869.407 0.901869 1.74243 0
M  V30 9344 O 868.532 0.103014 2.16155 0
M  V30 9345 C 869.127 3.2365 1.00179 0
M  V30 9346 C 867.686 3.45627 1.49061 0
M  V30 9347 C 866.833 2.73794 0.439531 0
M  V30 9348 H 869.784 1.57151 -0.22118 0
M  V30 9349 H 869.805 3.31488 1.86805 0
M  V30 9350 H 869.317 3.87873 0.132607 0
M  V30 9351 H 867.418 2.86612 2.38085 0
M  V30 9352 H 867.531 4.54298 1.52152 0
M  V30 9353 H 865.895 2.38267 0.900043 0
M  V30 9354 H 866.678 3.40714 -0.420599 0
M  V30 9355 N 869.123 -0.277682 1.55134 0
M  V30 9356 C 870.539 -0.624625 1.46869 0
M  V30 9357 C 870.739 -1.89717 0.678958 0
M  V30 9358 O 869.795 -2.51739 0.195939 0
M  V30 9359 C 871.108 -0.755937 2.91043 0
M  V30 9360 C 872.656 -0.850299 3.01229 0
M  V30 9361 C 873.131 -1.01343 4.46647 0
M  V30 9362 N 874.622 -1.07906 4.50456 0
M  V30 9363 C 875.357 -1.224 5.60184 0
M  V30 9364 N 874.853 -1.33642 6.79788 0
M  V30 9365 N 876.646 -1.25473 5.47917 0
M  V30 9366 H 868.797 0.558102 2.04937 0
M  V30 9367 H 871.06 0.188228 0.929125 0
M  V30 9368 H 870.766 0.108593 3.51532 0
M  V30 9369 H 870.64 -1.6377 3.39793 0
M  V30 9370 H 873.027 -1.7053 2.40839 0
M  V30 9371 H 873.108 0.0559681 2.55739 0
M  V30 9372 H 872.752 -0.163102 5.07638 0
M  V30 9373 H 872.682 -1.93427 4.89789 0
M  V30 9374 H 875.173 -1.00477 3.64298 0
M  V30 9375 H 875.486 -1.44522 7.59166 0
M  V30 9376 H 873.831 -1.30655 6.82608 0
M  V30 9377 H 877.022 -1.16317 4.53418 0
M  V30 9378 H 877.195 -1.36424 6.33476 0
M  V30 9379 N 870.601 -1.47988 -0.541979 0
M  V30 9380 C 871.551 -1.58019 -1.64359 0
M  V30 9381 C 872.535 -0.438056 -1.54822 0
M  V30 9382 O 873.727 -0.688837 -1.63046 0
M  V30 9383 C 870.856 -1.61182 -3.03109 0
M  V30 9384 C 869.942 -2.80834 -3.17794 0
M  V30 9385 N 870.333 -4.05379 -3.02492 0
M  V30 9386 C 868.631 -2.77914 -3.48826 0
M  V30 9387 C 869.332 -4.85592 -3.20274 0
M  V30 9388 N 868.308 -4.18188 -3.47304 0
M  V30 9389 H 872.11 -2.52071 -1.5112 0
M  V30 9390 H 869.624 -1.44193 -0.747137 0
M  V30 9391 H 871.621 -1.66461 -3.82226 0
M  V30 9392 H 870.281 -0.682375 -3.17449 0
M  V30 9393 H 871.292 -4.36003 -2.79503 0
M  V30 9394 H 867.969 -1.94174 -3.69598 0
M  V30 9395 H 869.359 -5.94394 -3.13282 0
M  V30 9396 N 872.079 0.78992 -1.36375 0
M  V30 9397 C 873.495 1.0879 -1.16777 0
M  V30 9398 C 873.695 2.01498 0.00848236 0
M  V30 9399 O 872.751 2.43338 0.674007 0
M  V30 9400 C 874.064 1.70285 -2.47837 0
M  V30 9401 C 875.612 1.82629 -2.54196 0
M  V30 9402 C 876.087 2.47539 -3.85342 0
M  V30 9403 N 877.578 2.55008 -3.86685 0
M  V30 9404 C 878.313 3.06041 -4.84898 0
M  V30 9405 N 877.809 3.57385 -5.93505 0
M  V30 9406 N 879.602 3.04748 -4.72319 0
M  V30 9407 H 871.753 0.173985 -2.11686 0
M  V30 9408 H 874.016 0.139798 -0.937636 0
M  V30 9409 H 873.722 1.09633 -3.34176 0
M  V30 9410 H 873.596 2.69799 -2.63607 0
M  V30 9411 H 875.983 2.42419 -1.68276 0
M  V30 9412 H 876.064 0.81923 -2.42327 0
M  V30 9413 H 875.708 1.88393 -4.71668 0
M  V30 9414 H 875.638 3.48815 -3.94507 0
M  V30 9415 H 878.129 2.18651 -3.08221 0
M  V30 9416 H 878.442 3.94674 -6.64419 0
M  V30 9417 H 876.787 3.55538 -5.97175 0
M  V30 9418 H 879.978 2.63925 -3.86602 0
M  V30 9419 H 880.151 3.44212 -5.49019 0
M  V30 9420 N 873.557 1.20646 1.01402 0
M  V30 9421 C 874.973 0.961866 1.27359 0
M  V30 9422 C 875.173 -0.357083 1.98311 0
M  V30 9423 O 874.229 -1.08498 2.28001 0
M  V30 9424 C 875.542 2.14627 2.10609 0
M  V30 9425 C 877.09 2.18753 2.23866 0
M  V30 9426 C 877.565 3.36686 3.10494 0
M  V30 9427 N 879.056 3.36716 3.18083 0
M  V30 9428 C 879.791 4.24615 3.85343 0
M  V30 9429 N 879.287 5.22697 4.54708 0
M  V30 9430 N 881.08 4.12449 3.81893 0
M  V30 9431 H 873.231 2.05481 0.537721 0
M  V30 9432 H 875.494 0.899292 0.299963 0
M  V30 9433 H 875.2 3.10159 1.65814 0
M  V30 9434 H 875.074 2.12935 3.11349 0
M  V30 9435 H 877.461 1.23782 2.67885 0
M  V30 9436 H 877.542 2.24492 1.22626 0
M  V30 9437 H 877.186 4.31945 2.67181 0
M  V30 9438 H 877.116 3.28185 4.11828 0
M  V30 9439 H 879.607 2.65728 2.68695 0
M  V30 9440 H 879.92 5.86087 5.03708 0
M  V30 9441 H 878.265 5.26631 4.53525 0
M  V30 9442 H 881.456 3.35091 3.26851 0
M  V30 9443 H 881.629 4.81162 4.34035 0
M  V30 9444 N 875.035 -1.20752 1.01276 0
M  V30 9445 C 876.283 -1.89645 0.698505 0
M  V30 9446 C 876.604 -1.78986 -0.773883 0
M  V30 9447 O 875.874 -1.18977 -1.55632 0
M  V30 9448 H 874.454 -0.701992 0.255375 0
M  V30 9449 H 877.116 -1.46668 1.28353 0
M  V30 9450 H 876.212 -2.96364 0.978512 0
M  V30 9451 N 876.513 -0.788492 -1.36457 0
M  V30 9452 C 877.461 -0.174192 -2.31947 0
M  V30 9453 C 878.455 0.665974 -1.5576 0
M  V30 9454 O 879.661 0.561161 -1.71029 0
M  V30 9455 H 876.036 -0.0375538 -0.751062 0
M  V30 9456 H 878.007 -0.995011 -2.81322 0
M  V30 9457 C 876.756 0.677276 -3.4104 0
M  V30 9458 H 876.079 0.0401418 -3.9978 0
M  V30 9459 H 877.519 1.07379 -4.10178 0
M  V30 9460 C 875.978 1.83512 -2.82533 0
M  V30 9461 O 876.508 2.93164 -2.74623 0
M  V30 9462 N 874.714 1.64095 -2.39836 0
M  V30 9463 H 874.261 0.749046 -2.46469 0
M  V30 9464 H 874.219 2.41726 -2.01037 0
M  V30 9465 N 877.991 1.48044 -0.54043 0
M  V30 9466 C 879.216 2.07396 -0.0124765 0
M  V30 9467 C 879.641 1.39288 1.26414 0
M  V30 9468 O 878.999 0.462252 1.75308 0
M  V30 9469 C 879.047 3.60131 0.18377 0
M  V30 9470 O 878.151 3.92995 1.25014 0
M  V30 9471 H 877.492 0.662554 -0.0438026 0
M  V30 9472 H 880.022 1.90306 -0.751327 0
M  V30 9473 H 880.032 4.06003 0.403197 0
M  V30 9474 H 878.707 4.09105 -0.74874 0
M  V30 9475 H 877.284 3.5889 1.01254 0
M  V30 9476 N 879.47 0.276058 1.55163 0
M  V30 9477 C 880.886 -0.0780579 1.59409 0
M  V30 9478 C 881.086 -1.54521 1.29327 0
M  V30 9479 O 880.142 -2.29422 1.05459 0
M  V30 9480 C 881.455 0.297422 2.99225 0
M  V30 9481 C 883.003 0.244117 3.12047 0
M  V30 9482 C 883.478 0.594051 4.54131 0
M  V30 9483 N 884.969 0.54564 4.59975 0
M  V30 9484 C 885.704 0.789192 5.67943 0
M  V30 9485 N 885.2 1.09741 6.84053 0
M  V30 9486 N 886.993 0.717926 5.57496 0
M  V30 9487 H 879.144 1.23251 1.72982 0
M  V30 9488 H 881.407 0.497988 0.806667 0
M  V30 9489 H 881.113 1.31782 3.26077 0
M  V30 9490 H 880.987 -0.361286 3.75466 0
M  V30 9491 H 883.374 -0.766992 2.84958 0
M  V30 9492 H 883.455 0.937097 2.38017 0
M  V30 9493 H 883.099 1.60285 4.81945 0
M  V30 9494 H 883.029 -0.120728 5.26462 0
M  V30 9495 H 885.52 0.317334 3.76565 0
M  V30 9496 H 885.833 1.26989 7.62295 0
M  V30 9497 H 884.178 1.13519 6.85666 0
M  V30 9498 H 887.369 0.47697 4.65664 0
M  V30 9499 H 887.542 0.911118 6.41563 0
M  V30 9500 N 880.948 -1.576 0.00335426 0
M  V30 9501 C 882.196 -1.90336 -0.679446 0
M  V30 9502 C 882.517 -0.877777 -1.74127 0
M  V30 9503 O 881.787 0.0843585 -1.95718 0
M  V30 9504 H 880.367 -0.702509 -0.253948 0
M  V30 9505 H 883.029 -1.94848 0.0450731 0
M  V30 9506 H 882.125 -2.90197 -1.14857 0
M  V30 9507 N 882.426 0.269451 -1.5528 0
M  V30 9508 C 883.651 1.02299 -1.80415 0
M  V30 9509 C 884.076 1.7902 -0.577363 0
M  V30 9510 O 883.434 1.75018 0.473125 0
M  V30 9511 C 883.482 1.95445 -3.0304 0
M  V30 9512 O 882.586 3.04271 -2.78375 0
M  V30 9513 H 881.927 0.292289 -0.596207 0
M  V30 9514 H 884.457 0.297282 -2.02429 0
M  V30 9515 H 884.467 2.37333 -3.31869 0
M  V30 9516 H 883.142 1.39017 -3.91978 0
M  V30 9517 H 881.719 2.66673 -2.60653 0
M  V30 9518 N 883.904 1.48273 0.534124 0
M  V30 9519 C 884.854 1.58889 1.63519 0
M  V30 9520 C 885.838 0.44626 1.54588 0
M  V30 9521 O 887.03 0.697474 1.62679 0
M  V30 9522 C 884.159 1.62787 3.0225 0
M  V30 9523 C 883.245 2.82515 3.16301 0
M  V30 9524 N 883.636 4.06977 3.00338 0
M  V30 9525 C 881.934 2.7976 3.47347 0
M  V30 9526 C 882.635 4.87283 3.17694 0
M  V30 9527 N 881.611 4.20024 3.45081 0
M  V30 9528 H 885.413 2.52869 1.49781 0
M  V30 9529 H 882.927 1.44587 0.739479 0
M  V30 9530 H 884.924 1.68486 3.81337 0
M  V30 9531 H 883.584 0.699201 3.17082 0
M  V30 9532 H 884.595 4.37479 2.77186 0
M  V30 9533 H 881.272 1.96132 3.68563 0
M  V30 9534 H 882.662 5.96047 3.10126 0
M  V30 9535 N 885.382 -0.782676 1.36792 0
M  V30 9536 C 886.607 -1.57676 1.34733 0
M  V30 9537 C 887.032 -1.87979 -0.0675253 0
M  V30 9538 O 886.39 -1.48404 -1.04144 0
M  V30 9539 C 886.438 -2.87047 2.18257 0
M  V30 9540 O 885.542 -3.80946 1.57969 0
M  V30 9541 H 884.883 -0.478034 0.460846 0
M  V30 9542 H 887.413 -0.969578 1.80168 0
M  V30 9543 H 887.423 -3.36254 2.31079 0
M  V30 9544 H 886.098 -2.64319 3.21104 0
M  V30 9545 H 884.675 -3.39558 1.54126 0
M  V30 9546 N 886.86 -1.21182 -1.00761 0
M  V30 9547 C 888.137 -0.936297 -1.71735 0
M  V30 9548 C 888.517 0.552585 -2.03739 0
M  V30 9549 O 887.865 1.51672 -1.70903 0
M  V30 9550 C 888.075 -1.81867 -2.97868 0
M  V30 9551 C 889.423 -2.06594 -3.7095 0
M  V30 9552 O 890.447 -1.79194 -3.07844 0
M  V30 9553 O 889.306 -2.5292 -4.84452 0
M  V30 9554 H 886.4 -0.350867 -0.74888 0
M  V30 9555 H 888.946 -1.32098 -1.06527 0
M  V30 9556 H 887.718 -2.82643 -2.70607 0
M  V30 9557 H 887.341 -1.43463 -3.70815 0
M  V30 9558 N 888.338 1.20213 -1.01915 0
M  V30 9559 C 889.585 1.89647 -0.709955 0
M  V30 9560 C 889.913 1.7901 0.760631 0
M  V30 9561 O 889.168 1.17028 1.56853 0
M  V30 9562 C 889.467 3.40232 -1.09438 0
M  V30 9563 C 889.133 3.7107 -2.5616 0
M  V30 9564 C 887.795 3.79196 -2.96249 0
M  V30 9565 C 890.147 3.85169 -3.51133 0
M  V30 9566 C 887.475 3.98882 -4.30244 0
M  V30 9567 C 889.827 4.06365 -4.8482 0
M  V30 9568 C 888.491 4.12722 -5.24611 0
M  V30 9569 H 887.761 0.693967 -0.259791 0
M  V30 9570 H 890.408 1.42419 -1.2802 0
M  V30 9571 H 888.713 3.89292 -0.442596 0
M  V30 9572 H 890.41 3.92257 -0.832811 0
M  V30 9573 H 887 3.65346 -2.24099 0
M  V30 9574 H 891.184 3.78243 -3.21319 0
M  V30 9575 H 886.44 4.02039 -4.60624 0
M  V30 9576 H 890.614 4.16216 -5.58334 0
M  V30 9577 H 888.241 4.27728 -6.28453 0
M  V30 9578 N 889.816 0.795718 1.36037 0
M  V30 9579 C 890.779 0.204318 2.28287 0
M  V30 9580 C 891.779 -0.602017 1.49105 0
M  V30 9581 O 892.969 -0.422089 1.69009 0
M  V30 9582 C 890.101 -0.716431 3.33287 0
M  V30 9583 H 891.294 1.01781 2.821 0
M  V30 9584 H 888.847 0.565588 1.45708 0
M  V30 9585 H 889.582 -1.55403 2.84641 0
M  V30 9586 H 889.367 -0.140096 3.9185 0
M  V30 9587 H 890.857 -1.12488 4.02164 0
M  V30 9588 N 891.294 -1.47756 0.548274 0
M  V30 9589 C 892.257 -2.28379 -0.193857 0
M  V30 9590 C 893.257 -1.36436 -0.850986 0
M  V30 9591 O 894.447 -1.59154 -0.70822 0
M  V30 9592 C 891.579 -3.15858 -1.28243 0
M  V30 9593 H 892.772 -2.95458 0.514231 0
M  V30 9594 H 890.325 -1.53298 0.304879 0
M  V30 9595 H 891.06 -2.5345 -2.0232 0
M  V30 9596 H 890.845 -3.83512 -0.816148 0
M  V30 9597 H 892.335 -3.76627 -1.80393 0
M  V30 9598 N 892.772 -0.284283 -1.55015 0
M  V30 9599 C 894.021 0.33055 -1.98973 0
M  V30 9600 C 894.334 1.56284 -1.17621 0
M  V30 9601 O 895.54 2.2512 -1.51767 0
M  V30 9602 C 893.996 0.639457 -3.54174 0
M  V30 9603 C 893.604 -0.573543 -4.44313 0
M  V30 9604 C 895.348 1.21641 -4.06699 0
M  V30 9605 C 893.255 -0.238715 -5.90918 0
M  V30 9606 H 892.185 0.127285 -0.743179 0
M  V30 9607 H 894.836 -0.390372 -1.793 0
M  V30 9608 H 893.218 1.41953 -3.69683 0
M  V30 9609 H 894.392 -1.3502 -4.40575 0
M  V30 9610 H 892.707 -1.06797 -4.02472 0
M  V30 9611 H 895.304 1.48088 -5.13784 0
M  V30 9612 H 895.647 2.15328 -3.56286 0
M  V30 9613 H 896.18 0.498422 -3.94665 0
M  V30 9614 H 892.919 -1.1437 -6.45445 0
M  V30 9615 H 892.439 0.500997 -5.97704 0
M  V30 9616 H 894.118 0.165774 -6.46788 0
M  V30 9617 N 894.251 1.57596 -0.0117121 0
M  V30 9618 C 895.181 2.12188 0.9746 0
M  V30 9619 C 896.162 1.03379 1.35081 0
M  V30 9620 O 897.347 1.31123 1.4325 0
M  V30 9621 C 894.477 2.63477 2.26268 0
M  V30 9622 C 893.431 3.76917 2.02774 0
M  V30 9623 C 892.757 4.14566 3.37697 0
M  V30 9624 C 894.057 5.03715 1.38089 0
M  V30 9625 H 895.751 2.9485 0.520007 0
M  V30 9626 H 893.297 1.41836 0.248685 0
M  V30 9627 H 895.25 3.00299 2.95633 0
M  V30 9628 H 893.974 1.77953 2.73862 0
M  V30 9629 H 892.633 3.40507 1.35832 0
M  V30 9630 H 892.281 3.26048 3.83016 0
M  V30 9631 H 891.981 4.91 3.22789 0
M  V30 9632 H 893.505 4.53956 4.08358 0
M  V30 9633 H 894.919 5.38233 1.97428 0
M  V30 9634 H 893.316 5.85032 1.33634 0
M  V30 9635 H 894.386 4.83624 0.351575 0
M  V30 9636 N 895.729 -0.261212 1.5542 0
M  V30 9637 C 896.676 -1.32315 1.89107 0
M  V30 9638 C 897.646 -1.48517 0.743767 0
M  V30 9639 O 898.831 -1.62733 0.996123 0
M  V30 9640 C 895.971 -2.67626 2.17877 0
M  V30 9641 C 895.084 -2.59549 3.45338 0
M  V30 9642 C 894.219 -3.87118 3.63748 0
M  V30 9643 C 893.258 -3.736 4.8486 0
M  V30 9644 N 892.395 -4.93029 4.99867 0
M  V30 9645 H 897.235 -1.02886 2.79675 0
M  V30 9646 H 894.772 -0.496812 1.38456 0
M  V30 9647 H 896.73 -3.4637 2.32559 0
M  V30 9648 H 895.36 -2.95232 1.30529 0
M  V30 9649 H 894.412 -1.72452 3.39064 0
M  V30 9650 H 895.724 -2.45465 4.34222 0
M  V30 9651 H 894.878 -4.74305 3.78312 0
M  V30 9652 H 893.617 -4.04084 2.73071 0
M  V30 9653 H 892.622 -2.84797 4.70288 0
M  V30 9654 H 893.847 -3.58143 5.76984 0
M  V30 9655 H 891.793 -5.10383 4.12123 0
M  V30 9656 H 891.71 -4.81521 5.82815 0
M  V30 9657 H 892.978 -5.81754 5.18828 0
M  V30 9658 N 897.207 -1.48554 -0.526253 0
M  V30 9659 C 898.155 -1.63804 -1.65139 0
M  V30 9660 C 899.149 -0.504398 -1.61716 0
M  V30 9661 O 900.355 -0.683241 -1.66529 0
M  V30 9662 H 896.73 -0.516071 -0.546969 0
M  V30 9663 H 898.701 -2.58294 -1.49421 0
M  V30 9664 C 897.45 -1.69843 -3.03395 0
M  V30 9665 H 896.773 -2.56438 -3.06724 0
M  V30 9666 H 898.213 -1.84555 -3.81727 0
M  V30 9667 C 896.672 -0.437875 -3.34042 0
M  V30 9668 O 897.202 0.447604 -3.99198 0
M  V30 9669 N 895.408 -0.308444 -2.88958 0
M  V30 9670 H 894.955 -1.02998 -2.36112 0
M  V30 9671 H 894.913 0.533952 -3.09833 0
M  V30 9672 N 898.685 0.775411 -1.37205 0
M  V30 9673 C 899.617 1.89761 -1.28544 0
M  V30 9674 C 900.63 1.61542 -0.201996 0
M  V30 9675 O 901.819 1.72528 -0.457848 0
M  V30 9676 C 898.919 3.24904 -0.963885 0
M  V30 9677 C 898.092 3.80796 -2.15205 0
M  V30 9678 C 897.151 4.94407 -1.80135 0
M  V30 9679 O 896.177 5.10185 -2.52388 0
M  V30 9680 N 897.379 5.75722 -0.743298 0
M  V30 9681 H 900.144 1.97708 -2.25237 0
M  V30 9682 H 897.705 0.954348 -1.30782 0
M  V30 9683 H 899.697 3.9842 -0.710182 0
M  V30 9684 H 898.267 3.12483 -0.085632 0
M  V30 9685 H 897.487 2.99101 -2.56773 0
M  V30 9686 H 898.775 4.1487 -2.94552 0
M  V30 9687 H 898.173 5.65518 -0.143655 0
M  V30 9688 H 896.73 6.4948 -0.549446 0
M  V30 9689 N 900.163 1.21714 1.00117 0
M  V30 9690 C 901.574 1.03477 1.55401 0
M  V30 9691 C 901.925 -0.40429 1.91989 0
M  V30 9692 O 901.05 -1.28807 1.7389 0
M  V30 9693 C 901.645 1.87213 2.82377 0
M  V30 9694 C 900.204 1.73297 3.34133 0
M  V30 9695 C 899.351 1.84189 2.07291 0
M  V30 9696 H 902.302 1.3568 0.823195 0
M  V30 9697 H 902.323 1.38465 3.54412 0
M  V30 9698 H 901.835 2.91944 2.55715 0
M  V30 9699 H 899.936 0.712662 3.65721 0
M  V30 9700 H 900.049 2.55486 4.05294 0
M  V30 9701 H 898.413 1.27538 2.20468 0
M  V30 9702 H 899.196 2.90435 1.83037 0
M  V30 9703 N 901.641 -1.19671 1.02551 0
M  V30 9704 C 902.604 -2.20987 0.608055 0
M  V30 9705 C 903.604 -1.5745 -0.326534 0
M  V30 9706 O 904.794 -1.73827 -0.114003 0
M  V30 9707 C 901.926 -3.4072 -0.11074 0
M  V30 9708 H 903.119 -2.59434 1.50446 0
M  V30 9709 H 900.672 -1.3329 0.816307 0
M  V30 9710 H 901.407 -3.07787 -1.02165 0
M  V30 9711 H 901.192 -3.88069 0.560772 0
M  V30 9712 H 902.682 -4.15776 -0.389848 0
M  V30 9713 N 903.119 -0.802921 -1.35613 0
M  V30 9714 C 904.051 -0.168461 -2.2858 0
M  V30 9715 C 905.064 0.630123 -1.50111 0
M  V30 9716 O 906.253 0.463086 -1.72388 0
M  V30 9717 C 903.353 0.783943 -3.29708 0
M  V30 9718 C 902.526 0.0325165 -4.37388 0
M  V30 9719 C 901.585 0.902859 -5.18396 0
M  V30 9720 O 900.611 0.355144 -5.68091 0
M  V30 9721 N 901.813 2.22542 -5.36149 0
M  V30 9722 H 904.578 -0.96709 -2.83668 0
M  V30 9723 H 902.139 -0.658043 -1.47924 0
M  V30 9724 H 904.131 1.37034 -3.80794 0
M  V30 9725 H 902.701 1.48339 -2.75162 0
M  V30 9726 H 901.921 -0.735057 -3.87286 0
M  V30 9727 H 903.209 -0.485499 -5.06478 0
M  V30 9728 H 902.607 2.69439 -4.97412 0
M  V30 9729 H 901.164 2.76113 -5.90428 0
M  V30 9730 N 904.597 1.47463 -0.556102 0
M  V30 9731 C 905.507 2.33785 0.195378 0
M  V30 9732 C 906.523 1.48123 0.913 0
M  V30 9733 O 907.699 1.81053 0.882141 0
M  V30 9734 C 904.764 3.24795 1.21282 0
M  V30 9735 C 903.825 4.26346 0.502747 0
M  V30 9736 C 903.058 5.13007 1.47172 0
M  V30 9737 O 903.281 5.02103 2.70646 0
M  V30 9738 O 902.215 5.93588 0.996814 0
M  V30 9739 H 906.041 2.99341 -0.512676 0
M  V30 9740 H 903.626 1.46004 -0.31673 0
M  V30 9741 H 905.508 3.81015 1.80016 0
M  V30 9742 H 904.183 2.61868 1.90282 0
M  V30 9743 H 903.09 3.73889 -0.125757 0
M  V30 9744 H 904.423 4.91984 -0.145779 0
M  V30 9745 N 906.075 0.2925 1.54862 0
M  V30 9746 C 907.023 -0.603186 2.24643 0
M  V30 9747 C 908.017 -1.1439 1.24946 0
M  V30 9748 O 909.223 -1.09552 1.42823 0
M  V30 9749 H 905.598 -0.213105 0.721173 0
M  V30 9750 H 907.569 0.00799278 2.98399 0
M  V30 9751 C 906.318 -1.76769 2.99413 0
M  V30 9752 H 905.641 -1.36084 3.75927 0
M  V30 9753 H 907.081 -2.37066 3.51533 0
M  V30 9754 C 905.54 -2.66669 2.05886 0
M  V30 9755 O 906.07 -3.67525 1.62136 0
M  V30 9756 N 904.276 -2.34216 1.7202 0
M  V30 9757 H 903.823 -1.52246 2.07795 0
M  V30 9758 H 903.781 -2.94635 1.09717 0
M  V30 9759 N 907.553 -1.57587 0.0200696 0
M  V30 9760 C 908.778 -1.96124 -0.674547 0
M  V30 9761 C 909.203 -0.896068 -1.65385 0
M  V30 9762 O 908.561 0.143925 -1.80728 0
M  V30 9763 C 908.609 -3.3376 -1.36517 0
M  V30 9764 O 907.713 -3.29483 -2.48022 0
M  V30 9765 H 907.054 -0.639719 -0.177919 0
M  V30 9766 H 909.584 -2.04447 0.0792317 0
M  V30 9767 H 909.594 -3.69785 -1.72403 0
M  V30 9768 H 908.269 -4.10832 -0.647265 0
M  V30 9769 H 906.846 -3.05162 -2.14314 0
M  V30 9770 N 909.032 0.252966 -1.55557 0
M  V30 9771 C 910.443 0.822503 -1.67606 0
M  V30 9772 C 910.794 1.86265 -0.616411 0
M  V30 9773 O 909.919 2.15082 0.238447 0
M  V30 9774 C 910.514 1.49866 -3.03852 0
M  V30 9775 C 909.073 2.01597 -3.17861 0
M  V30 9776 C 908.22 0.864943 -2.63465 0
M  V30 9777 H 911.171 0.0288958 -1.58674 0
M  V30 9778 H 911.192 2.36646 -2.97958 0
M  V30 9779 H 910.704 0.741378 -3.80953 0
M  V30 9780 H 908.805 2.80224 -2.45571 0
M  V30 9781 H 908.918 2.21752 -4.24692 0
M  V30 9782 H 907.282 1.2638 -2.21134 0
M  V30 9783 H 908.065 0.120847 -3.43087 0
M  V30 9784 N 910.51 1.48831 0.518367 0
M  V30 9785 C 911.46 1.60614 1.61824 0
M  V30 9786 C 912.444 0.462631 1.54106 0
M  V30 9787 O 913.636 0.714689 1.6193 0
M  V30 9788 C 910.765 1.65984 3.00507 0
M  V30 9789 C 909.851 2.85854 3.13286 0
M  V30 9790 N 910.242 4.1014 2.96005 0
M  V30 9791 C 908.54 2.83429 3.4436 0
M  V30 9792 C 909.241 4.90626 3.12508 0
M  V30 9793 N 908.217 4.2366 3.40607 0
M  V30 9794 H 912.019 2.54443 1.47091 0
M  V30 9795 H 909.533 1.45363 0.724102 0
M  V30 9796 H 911.53 1.72521 3.79529 0
M  V30 9797 H 910.19 0.732792 3.16323 0
M  V30 9798 H 911.201 4.40395 2.72531 0
M  V30 9799 H 907.878 2.0003 3.66462 0
M  V30 9800 H 909.268 5.99302 3.03786 0
M  V30 9801 N 911.988 -0.768124 1.37614 0
M  V30 9802 C 913.399 -1.34462 1.29525 0
M  V30 9803 C 913.75 -1.96121 -0.0555168 0
M  V30 9804 O 912.875 -1.94069 -0.957406 0
M  V30 9805 C 913.47 -2.44475 2.34558 0
M  V30 9806 C 912.029 -2.97883 2.30093 0
M  V30 9807 C 911.176 -1.71131 2.18196 0
M  V30 9808 H 914.127 -0.568103 1.48183 0
M  V30 9809 H 914.148 -3.24047 1.99434 0
M  V30 9810 H 913.66 -1.99568 3.32858 0
M  V30 9811 H 911.761 -3.47156 1.35328 0
M  V30 9812 H 911.874 -3.53251 3.23652 0
M  V30 9813 H 910.238 -1.94197 1.64802 0
M  V30 9814 H 911.021 -1.28323 3.18415 0
M  V30 9815 N 913.466 -1.22244 -0.994698 0
M  V30 9816 C 914.694 -1.07218 -1.76952 0
M  V30 9817 C 915.109 0.377388 -1.8499 0
M  V30 9818 O 914.466 1.26157 -1.31874 0
M  V30 9819 C 914.517 -1.67496 -3.20355 0
M  V30 9820 O 914.238 -3.06782 -3.12756 0
M  V30 9821 C 915.739 -1.57721 -4.14294 0
M  V30 9822 H 912.959 -0.375966 -0.555779 0
M  V30 9823 H 915.503 -1.61799 -1.25065 0
M  V30 9824 H 913.658 -1.16982 -3.69315 0
M  V30 9825 H 914.072 -3.35784 -4.02926 0
M  V30 9826 H 915.546 -2.04623 -5.12673 0
M  V30 9827 H 916.023 -0.533434 -4.35949 0
M  V30 9828 H 916.629 -2.07531 -3.71229 0
M  V30 9829 N 914.944 1.19125 -1.03184 0
M  V30 9830 C 916.174 1.92558 -0.748663 0
M  V30 9831 C 916.582 1.759 0.696837 0
M  V30 9832 O 915.925 1.08019 1.48585 0
M  V30 9833 C 915.987 3.4461 -1.02391 0
M  V30 9834 C 915.651 3.85041 -2.46155 0
M  V30 9835 C 916.648 3.89554 -3.44302 0
M  V30 9836 C 914.333 4.16594 -2.80633 0
M  V30 9837 C 916.327 4.25055 -4.74981 0
M  V30 9838 C 914.014 4.51767 -4.11521 0
M  V30 9839 C 915.012 4.55972 -5.08506 0
M  V30 9840 O 914.7 4.9033 -6.37049 0
M  V30 9841 H 914.432 0.618397 -0.273059 0
M  V30 9842 H 916.986 1.52122 -1.38015 0
M  V30 9843 H 915.216 3.85244 -0.335284 0
M  V30 9844 H 916.905 3.99283 -0.729927 0
M  V30 9845 H 917.671 3.65324 -3.19003 0
M  V30 9846 H 913.55 4.12503 -2.05821 0
M  V30 9847 H 917.094 4.28252 -5.50678 0
M  V30 9848 H 912.991 4.75455 -4.36592 0
M  V30 9849 H 913.759 5.08266 -6.41566 0
M  V30 9850 N 916.422 0.810101 1.35185 0
M  V30 9851 C 917.352 0.237453 2.32289 0
M  V30 9852 C 918.333 -0.639032 1.5764 0
M  V30 9853 O 919.518 -0.568575 1.8569 0
M  V30 9854 C 916.648 -0.611964 3.41866 0
M  V30 9855 C 915.602 0.166318 4.27677 0
M  V30 9856 C 914.928 -0.805024 5.28605 0
M  V30 9857 C 916.228 1.36729 5.04086 0
M  V30 9858 H 917.922 1.04874 2.80432 0
M  V30 9859 H 915.468 0.505751 1.34826 0
M  V30 9860 H 917.421 -1.02267 4.08802 0
M  V30 9861 H 916.145 -1.45617 2.92341 0
M  V30 9862 H 914.804 0.558238 3.62325 0
M  V30 9863 H 914.452 -1.64483 4.75347 0
M  V30 9864 H 914.152 -0.288577 5.86891 0
M  V30 9865 H 915.676 -1.21386 5.98413 0
M  V30 9866 H 917.09 1.03128 5.63948 0
M  V30 9867 H 915.487 1.81848 5.71884 0
M  V30 9868 H 916.557 2.15214 4.34524 0
M  V30 9869 N 917.9 -1.47166 0.563914 0
M  V30 9870 C 918.85 -2.27116 -0.20055 0
M  V30 9871 C 919.834 -1.34756 -0.879177 0
M  V30 9872 O 921.026 -1.59064 -0.776377 0
M  V30 9873 C 918.155 -3.20676 -1.22565 0
M  V30 9874 C 917.241 -4.20517 -0.550092 0
M  V30 9875 N 917.632 -5.04343 0.383662 0
M  V30 9876 C 915.93 -4.38708 -0.803186 0
M  V30 9877 C 916.631 -5.76491 0.776718 0
M  V30 9878 N 915.607 -5.43444 0.130047 0
M  V30 9879 H 919.409 -2.89312 0.517275 0
M  V30 9880 H 916.923 -1.57787 0.384334 0
M  V30 9881 H 918.92 -3.76643 -1.78733 0
M  V30 9882 H 917.58 -2.60038 -1.94449 0
M  V30 9883 H 918.591 -5.1232 0.758192 0
M  V30 9884 H 915.268 -3.89235 -1.51003 0
M  V30 9885 H 916.658 -6.5391 1.54437 0
M  V30 9886 N 919.378 -0.300708 -1.54705 0
M  V30 9887 C 920.31 0.609179 -2.20956 0
M  V30 9888 C 921.323 1.09776 -1.20221 0
M  V30 9889 O 922.512 1.01527 -1.46815 0
M  V30 9890 C 919.612 1.84595 -2.84214 0
M  V30 9891 C 918.785 1.49991 -4.10879 0
M  V30 9892 C 917.844 2.5918 -4.57943 0
M  V30 9893 O 916.87 2.24285 -5.23149 0
M  V30 9894 N 918.072 3.89714 -4.30236 0
M  V30 9895 H 920.837 0.0420111 -2.99671 0
M  V30 9896 H 918.398 -0.122896 -1.61433 0
M  V30 9897 H 920.39 2.56988 -3.12633 0
M  V30 9898 H 918.96 2.32152 -2.09342 0
M  V30 9899 H 918.18 0.608637 -3.89473 0
M  V30 9900 H 919.468 1.24409 -4.93356 0
M  V30 9901 H 918.866 4.20874 -3.77997 0
M  V30 9902 H 917.423 4.58406 -4.63365 0
M  V30 9903 N 920.856 1.57574 -0.0284266 0
M  V30 9904 C 921.819 2.09096 0.938691 0
M  V30 9905 C 922.819 1.00588 1.25454 0
M  V30 9906 O 924.009 1.2675 1.19499 0
M  V30 9907 C 921.141 2.55624 2.25542 0
M  V30 9908 H 922.334 2.95829 0.49248 0
M  V30 9909 H 919.887 1.5475 0.219594 0
M  V30 9910 H 920.622 1.72218 2.74793 0
M  V30 9911 H 920.407 3.34896 2.03929 0
M  V30 9912 H 921.897 2.95712 2.94863 0
M  V30 9913 N 922.334 -0.244713 1.55689 0
M  V30 9914 C 923.266 -1.32595 1.86952 0
M  V30 9915 C 924.279 -1.44185 0.755948 0
M  V30 9916 O 925.468 -1.45496 1.03408 0
M  V30 9917 C 922.568 -2.70429 2.04258 0
M  V30 9918 C 921.741 -2.8108 3.35131 0
M  V30 9919 C 920.8 -3.99773 3.42152 0
M  V30 9920 O 919.826 -3.89197 4.15348 0
M  V30 9921 N 921.028 -5.13041 2.71604 0
M  V30 9922 H 923.793 -1.06111 2.80287 0
M  V30 9923 H 921.354 -0.434811 1.55952 0
M  V30 9924 H 923.346 -3.48173 2.06295 0
M  V30 9925 H 921.916 -2.89612 1.17658 0
M  V30 9926 H 921.136 -1.89994 3.45392 0
M  V30 9927 H 922.424 -2.85147 4.21389 0
M  V30 9928 H 921.822 -5.24525 2.11872 0
M  V30 9929 H 920.379 -5.88912 2.79331 0
M  V30 9930 N 923.813 -1.49104 -0.510467 0
M  V30 9931 C 925.038 -1.62068 -1.29417 0
M  V30 9932 C 925.463 -0.288432 -1.85875 0
M  V30 9933 O 924.821 0.742667 -1.65391 0
M  V30 9934 C 924.869 -2.68506 -2.40701 0
M  V30 9935 O 923.973 -2.27021 -3.4429 0
M  V30 9936 H 923.314 -0.542778 -0.382476 0
M  V30 9937 H 925.844 -1.95228 -0.612154 0
M  V30 9938 H 925.854 -2.90383 -2.86604 0
M  V30 9939 H 924.529 -3.65216 -1.98973 0
M  V30 9940 H 923.106 -2.15436 -3.04371 0
M  V30 9941 N 925.291 0.760815 -1.38019 0
M  V30 9942 C 926.223 1.88387 -1.30549 0
M  V30 9943 C 927.236 1.61319 -0.219119 0
M  V30 9944 O 928.425 1.72033 -0.476122 0
M  V30 9945 C 925.525 3.23863 -0.998291 0
M  V30 9946 C 924.698 3.78492 -2.19232 0
M  V30 9947 C 923.757 4.92468 -1.85368 0
M  V30 9948 O 922.783 5.0748 -2.57785 0
M  V30 9949 N 923.985 5.74901 -0.804319 0
M  V30 9950 H 926.75 1.95308 -2.27322 0
M  V30 9951 H 924.311 0.940423 -1.31786 0
M  V30 9952 H 926.303 3.97644 -0.7524 0
M  V30 9953 H 924.873 3.12374 -0.11877 0
M  V30 9954 H 924.093 2.96361 -2.5993 0
M  V30 9955 H 925.381 4.11722 -2.98935 0
M  V30 9956 H 924.779 5.65333 -0.203628 0
M  V30 9957 H 923.336 6.48861 -0.618301 0
M  V30 9958 N 926.769 1.22769 0.988202 0
M  V30 9959 C 927.999 1.07998 1.76125 0
M  V30 9960 C 928.407 -0.372062 1.85506 0
M  V30 9961 O 927.75 -1.26946 1.3278 0
M  V30 9962 C 927.812 1.6219 3.20834 0
M  V30 9963 C 927.476 3.1086 3.34986 0
M  V30 9964 C 928.473 4.08239 3.21927 0
M  V30 9965 C 926.158 3.50411 3.59886 0
M  V30 9966 C 928.152 5.43154 3.33561 0
M  V30 9967 C 925.839 4.85473 3.71159 0
M  V30 9968 C 926.837 5.81653 3.58006 0
M  V30 9969 O 926.525 7.14263 3.68895 0
M  V30 9970 H 926.257 0.378937 0.559806 0
M  V30 9971 H 928.811 1.62925 1.25078 0
M  V30 9972 H 927.041 1.01676 3.73094 0
M  V30 9973 H 928.73 1.43011 3.79872 0
M  V30 9974 H 929.496 3.79025 3.02597 0
M  V30 9975 H 925.375 2.76068 3.69198 0
M  V30 9976 H 928.919 6.18207 3.23211 0
M  V30 9977 H 924.816 5.14365 3.89998 0
M  V30 9978 H 925.584 7.21906 3.85739 0
M  V30 9979 N 928.247 -1.18576 1.03814 0
M  V30 9980 C 929.658 -1.70159 0.768299 0
M  V30 9981 C 930.009 -1.8286 -0.711106 0
M  V30 9982 O 929.134 -1.5063 -1.55369 0
M  V30 9983 C 929.729 -3.09062 1.38804 0
M  V30 9984 C 928.288 -3.57866 1.16656 0
M  V30 9985 C 927.435 -2.34484 1.48029 0
M  V30 9986 H 930.386 -1.03287 1.20488 0
M  V30 9987 H 930.407 -3.72211 0.7899 0
M  V30 9988 H 929.919 -2.99785 2.46476 0
M  V30 9989 H 928.02 -3.72442 0.108471 0
M  V30 9990 H 928.133 -4.41445 1.8618 0
M  V30 9991 H 926.497 -2.38273 0.899902 0
M  V30 9992 H 927.28 -2.27829 2.56805 0
M  V30 9993 N 929.725 -0.817259 -1.34754 0
M  V30 9994 C 930.95 -0.414423 -2.03217 0
M  V30 9995 C 931.375 0.970037 -1.61158 0
M  V30 9996 O 930.733 1.63016 -0.793436 0
M  V30 9997 C 930.781 -0.518087 -3.56859 0
M  V30 9998 O 929.885 0.464314 -4.09778 0
M  V30 9999 H 929.226 -0.171454 -0.641482 0
M  V30 10000 H 931.756 -1.10611 -1.72123 0
M  V30 10001 H 931.766 -0.391779 -4.06115 0
M  V30 10002 H 930.441 -1.52786 -3.86819 0
M  V30 10003 H 929.018 0.297361 -3.71712 0
M  V30 10004 N 931.203 1.46865 -0.571711 0
M  V30 10005 C 932.133 2.3298 0.155795 0
M  V30 10006 C 933.114 1.44678 0.894553 0
M  V30 10007 O 934.299 1.73513 0.872176 0
M  V30 10008 C 931.429 3.26745 1.17708 0
M  V30 10009 C 930.383 4.24401 0.553863 0
M  V30 10010 C 929.709 5.07595 1.68083 0
M  V30 10011 C 931.009 5.19884 -0.501827 0
M  V30 10012 H 932.703 2.94056 -0.563176 0
M  V30 10013 H 930.249 1.41402 -0.27228 0
M  V30 10014 H 932.202 3.85838 1.6943 0
M  V30 10015 H 930.926 2.63753 1.92618 0
M  V30 10016 H 929.585 3.66554 0.057815 0
M  V30 10017 H 929.233 4.40996 2.41933 0
M  V30 10018 H 928.933 5.73722 1.26953 0
M  V30 10019 H 930.457 5.6955 2.20103 0
M  V30 10020 H 931.871 5.73257 -0.0701057 0
M  V30 10021 H 930.268 5.94293 -0.832815 0
M  V30 10022 H 931.338 4.64482 -1.39229 0
M  V30 10023 N 932.681 0.308908 1.54543 0
M  V30 10024 C 933.631 -0.578902 2.20528 0
M  V30 10025 C 934.615 -1.09288 1.18088 0
M  V30 10026 O 935.807 -1.03234 1.43777 0
M  V30 10027 C 932.936 -1.74649 2.95555 0
M  V30 10028 C 932.022 -1.24809 4.05319 0
M  V30 10029 N 932.413 -0.46828 5.03628 0
M  V30 10030 C 930.711 -1.52813 4.19004 0
M  V30 10031 C 931.412 -0.201896 5.8135 0
M  V30 10032 N 930.388 -0.783927 5.37918 0
M  V30 10033 H 934.19 0.0243496 2.9389 0
M  V30 10034 H 931.704 0.114049 1.61999 0
M  V30 10035 H 933.701 -2.39414 3.41301 0
M  V30 10036 H 932.361 -2.35336 2.23712 0
M  V30 10037 H 933.372 -0.112453 5.17778 0
M  V30 10038 H 930.049 -2.14191 3.58369 0
M  V30 10039 H 931.439 0.424929 6.70555 0
M  V30 10040 N 934.159 -1.57557 0.0367827 0
M  V30 10041 C 935.109 -2.07182 -0.95183 0
M  V30 10042 C 936.093 -0.973921 -1.28076 0
M  V30 10043 O 937.285 -1.23741 -1.26559 0
M  V30 10044 C 934.414 -2.60869 -2.23164 0
M  V30 10045 C 933.5 -3.77602 -1.93074 0
M  V30 10046 N 933.891 -4.87923 -1.33283 0
M  V30 10047 C 932.189 -3.86234 -2.23023 0
M  V30 10048 C 932.89 -5.69083 -1.20498 0
M  V30 10049 N 931.866 -5.16233 -1.70306 0
M  V30 10050 H 935.668 -2.89876 -0.484647 0
M  V30 10051 H 933.182 -1.61528 -0.16804 0
M  V30 10052 H 935.179 -2.94716 -2.9487 0
M  V30 10053 H 933.839 -1.79607 -2.70502 0
M  V30 10054 H 934.85 -5.08018 -1.00686 0
M  V30 10055 H 931.527 -3.15891 -2.72981 0
M  V30 10056 H 932.917 -6.6779 -0.741999 0
M  V30 10057 N 935.637 0.236453 -1.55816 0
M  V30 10058 C 936.587 1.29603 -1.87582 0
M  V30 10059 C 937.571 1.42999 -0.737566 0
M  V30 10060 O 938.763 1.46065 -0.999701 0
M  V30 10061 C 935.892 2.64945 -2.1831 0
M  V30 10062 C 934.978 2.55511 -3.38489 0
M  V30 10063 N 935.369 2.15716 -4.57494 0
M  V30 10064 C 933.667 2.86502 -3.41808 0
M  V30 10065 C 934.368 2.17169 -5.39641 0
M  V30 10066 N 933.344 2.5708 -4.78969 0
M  V30 10067 H 937.146 0.979016 -2.77115 0
M  V30 10068 H 934.66 0.445058 -1.56183 0
M  V30 10069 H 936.657 3.41426 -2.39236 0
M  V30 10070 H 935.317 2.97504 -1.30082 0
M  V30 10071 H 936.328 1.87089 -4.82927 0
M  V30 10072 H 933.005 3.23533 -2.6388 0
M  V30 10073 H 934.395 1.88653 -6.44872 0
M  V30 10074 N 937.115 1.49373 0.502552 0
M  V30 10075 C 938.063 1.66411 1.62512 0
M  V30 10076 C 939.057 0.530062 1.60893 0
M  V30 10077 O 940.263 0.709648 1.65421 0
M  V30 10078 H 936.638 0.524707 0.538689 0
M  V30 10079 H 938.609 2.60639 1.45293 0
M  V30 10080 C 937.358 1.74648 3.00655 0
M  V30 10081 H 936.681 2.61285 3.02606 0
M  V30 10082 H 938.121 1.90605 3.78742 0
M  V30 10083 C 936.58 0.490963 3.33303 0
M  V30 10084 O 937.11 -0.384039 3.9986 0
M  V30 10085 N 935.316 0.354375 2.88431 0
M  V30 10086 H 934.863 1.06742 2.34444 0
M  V30 10087 H 934.821 -0.484593 3.10643 0
M  V30 10088 N 938.594 -0.753485 1.38421 0
M  V30 10089 C 939.819 -1.54783 1.38047 0
M  V30 10090 C 940.244 -1.8808 -0.0276371 0
M  V30 10091 O 939.602 -1.5058 -1.00973 0
M  V30 10092 C 939.65 -2.82353 2.24297 0
M  V30 10093 O 938.754 -3.77509 1.66014 0
M  V30 10094 H 938.095 -0.468151 0.470883 0
M  V30 10095 H 940.625 -0.931144 1.82184 0
M  V30 10096 H 940.635 -3.31277 2.38159 0
M  V30 10097 H 939.31 -2.57449 3.26639 0
M  V30 10098 H 937.887 -3.36212 1.61294 0
M  V30 10099 N 940.072 -1.23292 -0.981677 0
M  V30 10100 C 941.002 -1.03738 -2.09191 0
M  V30 10101 C 941.983 0.0453041 -1.7004 0
M  V30 10102 O 943.168 -0.119092 -1.93834 0
M  V30 10103 C 940.298 -0.626426 -3.41604 0
M  V30 10104 C 939.252 -1.65631 -3.94652 0
M  V30 10105 C 938.578 -1.10084 -5.23245 0
M  V30 10106 C 939.878 -3.04903 -4.24066 0
M  V30 10107 H 941.572 -1.966 -2.25807 0
M  V30 10108 H 939.118 -0.946656 -1.0851 0
M  V30 10109 H 941.071 -0.476689 -4.18695 0
M  V30 10110 H 939.795 0.337873 -3.24848 0
M  V30 10111 H 938.454 -1.79402 -3.19704 0
M  V30 10112 H 938.102 -0.127562 -5.02838 0
M  V30 10113 H 937.802 -1.78896 -5.59705 0
M  V30 10114 H 939.326 -0.962928 -6.02959 0
M  V30 10115 H 940.74 -2.94441 -4.91912 0
M  V30 10116 H 939.137 -3.70941 -4.71724 0
M  V30 10117 H 940.207 -3.53991 -3.31389 0
M  V30 10118 N 941.55 1.18024 -1.04442 0
M  V30 10119 C 942.482 2.21294 -0.596799 0
M  V30 10120 C 943.495 1.59305 0.33552 0
M  V30 10121 O 944.684 1.7803 0.129443 0
M  V30 10122 C 941.784 3.38578 0.147648 0
M  V30 10123 C 940.957 4.30143 -0.793484 0
M  V30 10124 C 940.016 5.2612 -0.0916561 0
M  V30 10125 O 939.042 5.64586 -0.72331 0
M  V30 10126 N 940.244 5.68512 1.17364 0
M  V30 10127 H 943.009 2.6032 -1.48504 0
M  V30 10128 H 940.57 1.32847 -0.925374 0
M  V30 10129 H 942.562 3.99812 0.627098 0
M  V30 10130 H 941.132 2.98212 0.937466 0
M  V30 10131 H 940.352 3.66456 -1.45272 0
M  V30 10132 H 941.64 4.88216 -1.43258 0
M  V30 10133 H 941.038 5.39322 1.70729 0
M  V30 10134 H 939.595 6.31925 1.5973 0
M  V30 10135 N 943.028 0.824394 1.34319 0
M  V30 10136 C 943.96 0.204805 2.28283 0
M  V30 10137 C 944.973 -0.606162 1.51094 0
M  V30 10138 O 946.162 -0.435602 1.73103 0
M  V30 10139 C 943.262 -0.73139 3.30914 0
M  V30 10140 C 942.435 0.0370723 4.37384 0
M  V30 10141 C 941.494 -0.820272 5.19767 0
M  V30 10142 O 940.52 -0.264721 5.68584 0
M  V30 10143 N 941.722 -2.13984 5.39621 0
M  V30 10144 H 944.487 1.0121 2.82093 0
M  V30 10145 H 942.048 0.681494 1.46858 0
M  V30 10146 H 944.04 -1.30958 3.82926 0
M  V30 10147 H 942.61 -1.43943 2.77487 0
M  V30 10148 H 941.83 0.796578 3.86068 0
M  V30 10149 H 943.118 0.566014 5.05642 0
M  V30 10150 H 942.516 -2.61492 5.01636 0
M  V30 10151 H 941.073 -2.66685 5.94746 0
M  V30 10152 N 944.506 -1.46559 0.579492 0
M  V30 10153 C 945.438 -2.28383 -0.19337 0
M  V30 10154 C 946.451 -1.38324 -0.858511 0
M  V30 10155 O 947.64 -1.62952 -0.728615 0
M  V30 10156 C 944.74 -3.13262 -1.29306 0
M  V30 10157 C 943.913 -4.31426 -0.720459 0
M  V30 10158 C 942.972 -4.97728 -1.70744 0
M  V30 10159 O 941.998 -5.55423 -1.24476 0
M  V30 10160 N 943.2 -4.94445 -3.04146 0
M  V30 10161 H 945.965 -2.95353 0.508611 0
M  V30 10162 H 943.526 -1.56436 0.417046 0
M  V30 10163 H 945.518 -3.54483 -1.95254 0
M  V30 10164 H 944.088 -2.48388 -1.89795 0
M  V30 10165 H 943.308 -3.94028 0.116398 0
M  V30 10166 H 944.596 -5.07808 -0.31763 0
M  V30 10167 H 943.994 -4.4881 -3.44363 0
M  V30 10168 H 942.551 -5.39616 -3.65592 0
M  V30 10169 N 945.984 -0.3171 -1.54377 0
M  V30 10170 C 947.214 0.289138 -2.04567 0
M  V30 10171 C 947.622 1.46833 -1.19318 0
M  V30 10172 O 946.965 1.82436 -0.215141 0
M  V30 10173 C 947.027 0.792994 -3.50645 0
M  V30 10174 C 946.691 -0.263033 -4.56242 0
M  V30 10175 C 947.688 -1.09694 -5.08196 0
M  V30 10176 C 945.373 -0.409364 -5.00629 0
M  V30 10177 C 947.367 -2.06297 -6.03092 0
M  V30 10178 C 945.054 -1.37882 -5.95342 0
M  V30 10179 C 946.052 -2.20409 -6.46459 0
M  V30 10180 O 945.74 -3.15708 -7.39313 0
M  V30 10181 H 945.472 0.0644005 -0.672925 0
M  V30 10182 H 948.026 -0.459438 -2.00196 0
M  V30 10183 H 946.256 1.59237 -3.52392 0
M  V30 10184 H 947.945 1.31687 -3.83944 0
M  V30 10185 H 948.711 -0.994842 -4.74687 0
M  V30 10186 H 944.59 0.223091 -4.6046 0
M  V30 10187 H 948.134 -2.70751 -6.42915 0
M  V30 10188 H 944.031 -1.48158 -6.28267 0
M  V30 10189 H 944.799 -3.10873 -7.57166 0
M  V30 10190 N 947.462 1.57535 -0.0451378 0
M  V30 10191 C 948.394 2.08109 0.960372 0
M  V30 10192 C 949.407 1.0077 1.27864 0
M  V30 10193 O 950.596 1.28351 1.24049 0
M  V30 10194 C 947.696 2.50414 2.28355 0
M  V30 10195 C 946.869 3.8102 2.14808 0
M  V30 10196 C 945.928 4.09702 3.30198 0
M  V30 10197 O 944.954 4.79715 3.0637 0
M  V30 10198 N 946.156 3.61138 4.54489 0
M  V30 10199 H 948.921 2.94999 0.528752 0
M  V30 10200 H 946.482 1.61283 0.141248 0
M  V30 10201 H 948.474 2.66683 3.04405 0
M  V30 10202 H 947.044 1.68805 2.63104 0
M  V30 10203 H 946.264 3.74392 1.23387 0
M  V30 10204 H 947.552 4.66559 2.02978 0
M  V30 10205 H 946.95 3.04527 4.76739 0
M  V30 10206 H 945.507 3.82656 5.27653 0
M  V30 10207 N 948.94 -0.228186 1.55939 0
M  V30 10208 C 949.872 -1.30605 1.88348 0
M  V30 10209 C 950.885 -1.43375 0.771198 0
M  V30 10210 O 952.074 -1.44391 1.04945 0
M  V30 10211 C 949.174 -2.68248 2.07115 0
M  V30 10212 C 948.347 -2.77509 3.38094 0
M  V30 10213 C 947.406 -3.96121 3.46373 0
M  V30 10214 O 946.432 -3.8477 4.19453 0
M  V30 10215 N 947.634 -5.10132 2.77031 0
M  V30 10216 H 950.399 -1.03132 2.81396 0
M  V30 10217 H 947.96 -0.418245 1.56404 0
M  V30 10218 H 949.952 -3.45966 2.09976 0
M  V30 10219 H 948.522 -2.88348 1.20723 0
M  V30 10220 H 947.742 -1.8632 3.47388 0
M  V30 10221 H 949.03 -2.80662 4.2439 0
M  V30 10222 H 948.428 -5.22249 2.17424 0
M  V30 10223 H 946.985 -5.85916 2.85561 0
M  V30 10224 N 950.418 -1.49637 -0.494624 0
M  V30 10225 C 951.829 -1.52573 -1.07603 0
M  V30 10226 C 952.18 -0.315591 -1.93645 0
M  V30 10227 O 951.305 0.573966 -2.08649 0
M  V30 10228 C 951.9 -2.7648 -1.95817 0
M  V30 10229 C 950.459 -2.82173 -2.49109 0
M  V30 10230 C 949.606 -2.4657 -1.2688 0
M  V30 10231 H 952.557 -1.56242 -0.278251 0
M  V30 10232 H 952.578 -2.57003 -2.80588 0
M  V30 10233 H 952.09 -3.64538 -1.33167 0
M  V30 10234 H 950.191 -1.9841 -3.15379 0
M  V30 10235 H 950.304 -3.84501 -2.85825 0
M  V30 10236 H 948.668 -1.98489 -1.59607 0
M  V30 10237 H 949.451 -3.3691 -0.659281 0
M  V30 10238 N 951.896 0.746133 -1.38819 0
M  V30 10239 C 953.307 1.32384 -1.31648 0
M  V30 10240 C 953.658 1.96185 0.0243086 0
M  V30 10241 O 952.783 1.95567 0.92641 0
M  V30 10242 C 953.378 2.40712 -2.38418 0
M  V30 10243 C 951.937 2.94185 -2.34803 0
M  V30 10244 C 951.084 1.67639 -2.20891 0
M  V30 10245 H 954.035 0.544457 -1.49068 0
M  V30 10246 H 954.056 3.20833 -2.04564 0
M  V30 10247 H 953.568 1.94247 -3.3599 0
M  V30 10248 H 951.669 3.44959 -1.40834 0
M  V30 10249 H 951.782 3.48057 -3.29231 0
M  V30 10250 H 950.146 1.9155 -1.67871 0
M  V30 10251 H 950.929 1.23242 -3.20416 0
M  V30 10252 N 953.375 1.23811 0.975125 0
M  V30 10253 C 954.786 1.0675 1.53171 0
M  V30 10254 C 955.137 -0.363475 1.92804 0
M  V30 10255 O 954.262 -1.25089 1.76583 0
M  V30 10256 C 954.857 1.93161 2.78342 0
M  V30 10257 C 953.416 1.80346 3.30382 0
M  V30 10258 C 952.563 1.88544 2.03338 0
M  V30 10259 H 955.514 1.37396 0.79423 0
M  V30 10260 H 955.535 1.45951 3.51395 0
M  V30 10261 H 955.047 2.97302 2.49465 0
M  V30 10262 H 953.148 0.790077 3.64127 0
M  V30 10263 H 953.261 2.64026 3.99784 0
M  V30 10264 H 951.625 1.32186 2.17713 0
M  V30 10265 H 952.408 2.94252 1.76836 0
M  V30 10266 N 954.853 -1.17469 1.05066 0
M  V30 10267 C 955.816 -2.19648 0.654793 0
M  V30 10268 C 956.816 -1.58107 -0.293063 0
M  V30 10269 O 958.006 -1.74029 -0.077106 0
M  V30 10270 C 955.138 -3.40878 -0.0384437 0
M  V30 10271 H 956.331 -2.56184 1.55915 0
M  V30 10272 H 953.884 -1.31528 0.844396 0
M  V30 10273 H 954.619 -3.09885 -0.956133 0
M  V30 10274 H 954.404 -3.86792 0.642961 0
M  V30 10275 H 955.894 -4.1651 -0.301568 0
M  V30 10276 N 956.331 -0.831506 -1.3388 0
M  V30 10277 C 957.264 -0.2046 -2.27281 0
M  V30 10278 C 958.242 0.643992 -1.49303 0
M  V30 10279 O 959.426 0.605863 -1.78498 0
M  V30 10280 C 956.553 0.713409 -3.31101 0
M  V30 10281 C 955.599 -0.0587654 -4.2646 0
M  V30 10282 S 956.432 -1.41172 -5.16557 0
M  V30 10283 C 957.588 -0.498807 -6.23909 0
M  V30 10284 H 957.821 -0.996442 -2.80104 0
M  V30 10285 H 955.354 -0.62786 -1.41058 0
M  V30 10286 H 957.312 1.23748 -3.91403 0
M  V30 10287 H 955.973 1.47885 -2.77108 0
M  V30 10288 H 955.166 0.639466 -4.99927 0
M  V30 10289 H 954.768 -0.513665 -3.70456 0
M  V30 10290 H 957.06 0.306268 -6.76807 0
M  V30 10291 H 958.003 -1.20342 -6.97799 0
M  V30 10292 H 958.411 -0.0834242 -5.64438 0
M  V30 10293 N 957.809 1.4625 -0.587256 0
M  V30 10294 C 959.034 2.07252 -0.0784517 0
M  V30 10295 C 959.459 1.43239 1.21919 0
M  V30 10296 O 958.817 0.517791 1.73749 0
M  V30 10297 C 958.865 3.60534 0.0691037 0
M  V30 10298 O 957.969 3.96773 1.12448 0
M  V30 10299 H 957.31 0.660825 -0.064859 0
M  V30 10300 H 959.84 1.87819 -0.811491 0
M  V30 10301 H 959.85 4.0708 0.273826 0
M  V30 10302 H 958.525 4.06516 -0.878514 0
M  V30 10303 H 957.102 3.6193 0.897852 0
M  V30 10304 N 959.287 0.325282 1.54207 0
M  V30 10305 C 960.219 -0.57395 2.21897 0
M  V30 10306 C 961.232 -1.0785 1.21952 0
M  V30 10307 O 962.421 -0.991782 1.48411 0
M  V30 10308 C 959.521 -1.8005 2.87115 0
M  V30 10309 C 958.694 -1.43435 4.13213 0
M  V30 10310 C 957.753 -2.51862 4.62009 0
M  V30 10311 O 956.779 -2.15934 5.26651 0
M  V30 10312 N 957.981 -3.8282 4.36382 0
M  V30 10313 H 960.746 0.00566918 2.99699 0
M  V30 10314 H 958.307 0.148563 1.61217 0
M  V30 10315 H 960.299 -2.51981 3.16682 0
M  V30 10316 H 958.869 -2.28792 2.13009 0
M  V30 10317 H 958.089 -0.546598 3.90392 0
M  V30 10318 H 959.377 -1.16544 4.95273 0
M  V30 10319 H 958.775 -4.14807 3.84645 0
M  V30 10320 H 957.332 -4.50976 4.70599 0
M  V30 10321 N 960.765 -1.57509 0.0534917 0
M  V30 10322 C 961.99 -1.97511 -0.632794 0
M  V30 10323 C 962.415 -0.930947 -1.63447 0
M  V30 10324 O 961.773 0.105558 -1.80992 0
M  V30 10325 C 961.821 -3.3658 -1.29407 0
M  V30 10326 O 960.925 -3.3467 -2.40977 0
M  V30 10327 H 960.266 -0.643349 -0.16431 0
M  V30 10328 H 962.796 -2.04232 0.12258 0
M  V30 10329 H 962.806 -3.73359 -1.64521 0
M  V30 10330 H 961.481 -4.12113 -0.559976 0
M  V30 10331 H 960.058 -3.09639 -2.07793 0
M  V30 10332 N 962.243 0.219913 -1.56058 0
M  V30 10333 C 963.193 1.27606 -1.88946 0
M  V30 10334 C 964.177 1.42209 -0.752691 0
M  V30 10335 O 965.369 1.44996 -1.01514 0
M  V30 10336 C 962.498 2.62614 -2.21108 0
M  V30 10337 C 961.584 2.51906 -3.4118 0
M  V30 10338 N 961.975 2.10851 -4.59756 0
M  V30 10339 C 960.273 2.82861 -3.44827 0
M  V30 10340 C 960.974 2.11434 -5.41914 0
M  V30 10341 N 959.95 2.51985 -4.81669 0
M  V30 10342 H 963.752 0.94957 -2.78137 0
M  V30 10343 H 961.266 0.428468 -1.56646 0
M  V30 10344 H 963.263 3.38869 -2.42844 0
M  V30 10345 H 961.923 2.96108 -1.3323 0
M  V30 10346 H 962.934 1.81956 -4.84884 0
M  V30 10347 H 959.611 3.20716 -2.67297 0
M  V30 10348 H 961.001 1.81803 -6.46836 0
M  V30 10349 N 963.721 1.49897 0.486681 0
M  V30 10350 C 964.671 1.6401 1.58381 0
M  V30 10351 C 965.655 0.495215 1.5309 0
M  V30 10352 O 966.847 0.748876 1.60377 0
M  V30 10353 C 963.976 1.72321 2.96918 0
M  V30 10354 C 963.062 2.92435 3.07152 0
M  V30 10355 N 963.453 4.16326 2.87238 0
M  V30 10356 C 961.751 2.90669 3.38271 0
M  V30 10357 C 962.452 4.97144 3.02031 0
M  V30 10358 N 961.428 4.3079 3.31544 0
M  V30 10359 H 965.23 2.57506 1.41661 0
M  V30 10360 H 962.744 1.46867 0.693106 0
M  V30 10361 H 964.741 1.80532 3.75784 0
M  V30 10362 H 963.401 0.799724 3.14697 0
M  V30 10363 H 964.412 4.46076 2.63128 0
M  V30 10364 H 961.089 2.07758 3.62137 0
M  V30 10365 H 962.479 6.05611 2.91006 0
M  V30 10366 N 965.199 -0.738761 1.39212 0
M  V30 10367 C 966.61 -1.31684 1.32348 0
M  V30 10368 C 966.961 -1.96195 -0.0139041 0
M  V30 10369 O 966.086 -1.96056 -0.916025 0
M  V30 10370 C 966.681 -2.39444 2.39691 0
M  V30 10371 C 965.24 -2.92935 2.36359 0
M  V30 10372 C 964.387 -1.66465 2.21776 0
M  V30 10373 H 967.338 -0.536543 1.49355 0
M  V30 10374 H 967.359 -3.19744 2.06262 0
M  V30 10375 H 966.871 -1.92463 3.37016 0
M  V30 10376 H 964.972 -3.44207 1.42662 0
M  V30 10377 H 965.085 -3.46306 3.31073 0
M  V30 10378 H 963.449 -1.90657 1.68884 0
M  V30 10379 H 964.232 -1.21541 3.21065 0
M  V30 10380 N 966.677 -1.24326 -0.968545 0
M  V30 10381 C 968.093 -1.00847 -1.23701 0
M  V30 10382 C 968.293 0.283235 -1.99499 0
M  V30 10383 O 967.349 0.999607 -2.31871 0
M  V30 10384 C 968.662 -2.22295 -2.02498 0
M  V30 10385 C 970.21 -2.26911 -2.15593 0
M  V30 10386 C 970.685 -3.47978 -2.97784 0
M  V30 10387 N 972.176 -3.48289 -3.05367 0
M  V30 10388 C 972.911 -4.38625 -3.69318 0
M  V30 10389 N 972.407 -5.39213 -4.34995 0
M  V30 10390 N 974.2 -4.26339 -3.66322 0
M  V30 10391 H 966.351 -2.07335 -0.461087 0
M  V30 10392 H 968.614 -0.909805 -0.26638 0
M  V30 10393 H 968.32 -3.161 -1.54188 0
M  V30 10394 H 968.194 -2.24344 -3.03232 0
M  V30 10395 H 970.581 -1.33639 -2.63106 0
M  V30 10396 H 970.662 -2.28888 -1.14209 0
M  V30 10397 H 970.306 -4.41564 -2.50965 0
M  V30 10398 H 970.236 -3.43244 -3.99364 0
M  V30 10399 H 972.727 -2.75517 -2.58648 0
M  V30 10400 H 973.04 -6.04378 -4.81608 0
M  V30 10401 H 971.385 -5.43101 -4.33667 0
M  V30 10402 H 974.576 -3.46991 -3.14189 0
M  V30 10403 H 974.749 -4.9694 -4.15878 0
M  V30 10404 N 968.156 1.1691 -1.05688 0
M  V30 10405 C 969.086 2.23275 -0.683402 0
M  V30 10406 C 970.067 1.6704 0.321206 0
M  V30 10407 O 971.252 1.93191 0.197691 0
M  V30 10408 C 968.382 3.47244 -0.0626006 0
M  V30 10409 C 967.336 4.16333 -0.992513 0
M  V30 10410 C 966.662 5.34182 -0.23533 0
M  V30 10411 C 967.962 4.68002 -2.31886 0
M  V30 10412 H 969.656 2.54771 -1.57264 0
M  V30 10413 H 967.202 1.2246 -0.757606 0
M  V30 10414 H 969.155 4.20874 0.210503 0
M  V30 10415 H 967.879 3.1503 0.861616 0
M  V30 10416 H 966.538 3.44622 -1.25026 0
M  V30 10417 H 966.186 4.9822 0.69181 0
M  V30 10418 H 965.886 5.81346 -0.855002 0
M  V30 10419 H 967.41 6.10592 0.0303717 0
M  V30 10420 H 968.824 5.33244 -2.10531 0
M  V30 10421 H 967.221 5.25764 -2.89296 0
M  V30 10422 H 968.291 3.84541 -2.95391 0
M  V30 10423 N 969.634 0.838594 1.33437 0
M  V30 10424 C 970.582 0.260158 2.31141 0
M  V30 10425 C 971.576 -0.607706 1.58124 0
M  V30 10426 O 972.782 -0.497298 1.72994 0
M  V30 10427 H 969.157 0.0654031 0.74915 0
M  V30 10428 H 971.128 1.09874 2.77435 0
M  V30 10429 C 969.877 -0.550234 3.43319 0
M  V30 10430 H 969.2 0.108262 3.99653 0
M  V30 10431 H 970.64 -0.920815 4.1388 0
M  V30 10432 C 969.099 -1.729 2.89149 0
M  V30 10433 O 969.629 -2.82769 2.85315 0
M  V30 10434 N 967.835 -1.5508 2.45761 0
M  V30 10435 H 967.382 -0.657055 2.49079 0
M  V30 10436 H 967.34 -2.34099 2.0987 0
M  V30 10437 N 971.112 -1.45937 0.595003 0
M  V30 10438 C 972.045 -2.27491 -0.179775 0
M  V30 10439 C 973.023 -1.36376 -0.88545 0
M  V30 10440 O 974.207 -1.65797 -0.896863 0
M  V30 10441 C 971.334 -3.1443 -1.25902 0
M  V30 10442 C 970.38 -4.21396 -0.657847 0
M  V30 10443 S 971.213 -5.32923 0.524689 0
M  V30 10444 C 972.369 -6.2343 -0.555452 0
M  V30 10445 H 972.602 -2.92855 0.512173 0
M  V30 10446 H 970.135 -1.49595 0.382199 0
M  V30 10447 H 972.093 -3.65081 -1.87687 0
M  V30 10448 H 970.754 -2.48356 -1.92297 0
M  V30 10449 H 969.947 -4.82102 -1.46948 0
M  V30 10450 H 969.549 -3.73822 -0.115403 0
M  V30 10451 H 971.841 -6.62066 -1.43789 0
M  V30 10452 H 972.784 -7.08098 0.0151431 0
M  V30 10453 H 973.192 -5.57831 -0.865125 0
M  V30 10454 N 972.59 -0.333456 -1.54032 0
M  V30 10455 C 973.54 0.543745 -2.21421 0
M  V30 10456 C 974.524 1.07396 -1.19812 0
M  V30 10457 O 975.716 1.00934 -1.45401 0
M  V30 10458 C 972.845 1.69925 -2.98296 0
M  V30 10459 C 971.931 1.18345 -4.07253 0
M  V30 10460 N 972.322 0.388098 -5.04309 0
M  V30 10461 C 970.62 1.46128 -4.21382 0
M  V30 10462 C 971.321 0.109383 -5.81597 0
M  V30 10463 N 970.297 0.69825 -5.39097 0
M  V30 10464 H 974.099 -0.0711018 -2.93814 0
M  V30 10465 H 971.613 -0.139807 -1.61797 0
M  V30 10466 H 973.61 2.33954 -3.45067 0
M  V30 10467 H 972.27 2.31747 -2.27428 0
M  V30 10468 H 973.281 0.0300645 -5.17891 0
M  V30 10469 H 969.958 2.08463 -3.61731 0
M  V30 10470 H 971.348 -0.531554 -6.69794 0
M  V30 10471 N 974.068 1.57479 -0.061844 0
M  V30 10472 C 975.316 1.92727 0.608336 0
M  V30 10473 C 975.637 0.941799 1.70749 0
M  V30 10474 O 974.907 -0.0116608 1.95897 0
M  V30 10475 H 973.487 0.71145 0.2277 0
M  V30 10476 H 976.149 1.94546 -0.117359 0
M  V30 10477 H 975.245 2.9426 1.04007 0
M  V30 10478 N 975.546 -0.211634 1.56173 0
M  V30 10479 C 976.478 -1.286 1.89723 0
M  V30 10480 C 977.491 -1.42549 0.786361 0
M  V30 10481 O 978.68 -1.4327 1.06471 0
M  V30 10482 C 975.78 -2.66036 2.09948 0
M  V30 10483 C 974.953 -2.73908 3.41018 0
M  V30 10484 C 974.012 -3.92425 3.50555 0
M  V30 10485 O 973.038 -3.803 4.2351 0
M  V30 10486 N 974.24 -5.07165 2.82426 0
M  V30 10487 H 977.005 -1.00142 2.82474 0
M  V30 10488 H 974.566 -0.401633 1.56839 0
M  V30 10489 H 976.558 -3.43719 2.13634 0
M  V30 10490 H 975.128 -2.87052 1.23774 0
M  V30 10491 H 974.348 -1.82625 3.49345 0
M  V30 10492 H 975.636 -2.76145 4.27342 0
M  V30 10493 H 975.034 -5.19913 2.2295 0
M  V30 10494 H 973.591 -5.82855 2.9176 0
M  V30 10495 N 977.024 -1.50153 -0.478725 0
M  V30 10496 C 978.301 -1.51274 -1.23999 0
M  V30 10497 C 978.681 -0.253048 -2.09578 0
M  V30 10498 O 978.029 0.763827 -2.15355 0
M  V30 10499 C 978.239 -2.80423 -2.07759 0
M  V30 10500 C 979.587 -3.30788 -2.66204 0
M  V30 10501 O 980.611 -2.81693 -2.18008 0
M  V30 10502 O 979.47 -4.1635 -3.53999 0
M  V30 10503 H 976.564 -0.606438 -0.562283 0
M  V30 10504 H 979.11 -1.62436 -0.491171 0
M  V30 10505 H 977.882 -3.63584 -1.44645 0
M  V30 10506 H 977.505 -2.72228 -2.89789 0
M  V30 10507 N 978.502 0.731368 -1.39602 0
M  V30 10508 C 979.751 1.48647 -1.36334 0
M  V30 10509 C 980.064 1.95565 0.0367383 0
M  V30 10510 O 981.27 2.7082 0.192017 0
M  V30 10511 C 979.726 2.68616 -2.39528 0
M  V30 10512 C 979.334 2.28632 -3.85268 0
M  V30 10513 C 981.078 3.46422 -2.45341 0
M  V30 10514 C 978.985 3.45345 -4.80095 0
M  V30 10515 H 977.915 0.558218 -0.506861 0
M  V30 10516 H 980.566 0.797467 -1.65266 0
M  V30 10517 H 978.948 3.39609 -2.03671 0
M  V30 10518 H 980.122 1.65162 -4.30184 0
M  V30 10519 H 978.437 1.63909 -3.82783 0
M  V30 10520 H 981.034 4.33241 -3.13379 0
M  V30 10521 H 981.377 3.8914 -1.47904 0
M  V30 10522 H 981.91 2.82461 -2.80108 0
M  V30 10523 H 978.649 3.07674 -5.78807 0
M  V30 10524 H 978.169 4.07784 -4.39855 0
M  V30 10525 H 979.848 4.1163 -4.99169 0
M  V30 10526 N 979.98 1.24838 0.961938 0
M  V30 10527 C 980.943 1.04674 2.03902 0
M  V30 10528 C 981.943 0.00204674 1.608 0
M  V30 10529 O 983.133 0.243555 1.72489 0
M  V30 10530 C 980.265 0.587736 3.35795 0
M  V30 10531 H 981.458 2.00278 2.23223 0
M  V30 10532 H 979.011 1.07142 1.138 0
M  V30 10533 H 979.746 -0.371244 3.22168 0
M  V30 10534 H 979.531 1.34182 3.68426 0
M  V30 10535 H 981.021 0.467867 4.14971 0
M  V30 10536 N 981.458 -1.16348 1.06306 0
M  V30 10537 C 982.686 -1.90782 0.800614 0
M  V30 10538 C 983.101 -1.77439 -0.645033 0
M  V30 10539 O 982.458 -1.11912 -1.4416 0
M  V30 10540 C 982.509 -3.41484 1.18621 0
M  V30 10541 O 982.23 -3.54428 2.57512 0
M  V30 10542 C 983.731 -4.32968 0.951525 0
M  V30 10543 H 980.951 -0.604977 0.290247 0
M  V30 10544 H 983.495 -1.47476 1.41672 0
M  V30 10545 H 981.65 -3.82493 0.614633 0
M  V30 10546 H 982.064 -4.4788 2.72954 0
M  V30 10547 H 983.538 -5.37169 1.27095 0
M  V30 10548 H 984.015 -4.39055 -0.112734 0
M  V30 10549 H 984.621 -3.97687 1.50749 0
M  V30 10550 N 982.937 -0.845659 -1.3299 0
M  V30 10551 C 984.177 -0.450819 -1.99366 0
M  V30 10552 C 984.541 0.973297 -1.65502 0
M  V30 10553 O 985.742 1.47222 -2.24898 0
M  V30 10554 C 984.013 -0.672825 -3.5101 0
M  V30 10555 S 985.572 -0.374216 -4.37201 0
M  V30 10556 H 982.39 -0.169273 -0.690556 0
M  V30 10557 H 984.992 -1.09642 -1.61861 0
M  V30 10558 H 983.696 -1.70855 -3.73145 0
M  V30 10559 H 983.227 -0.0133185 -3.93398 0
M  V30 10560 H 985.242 0.803342 -4.89654 0
M  V30 10561 N 984.415 1.45619 -0.602734 0
M  V30 10562 C 985.378 2.28941 0.108962 0
M  V30 10563 C 986.378 1.39501 0.799762 0
M  V30 10564 O 987.568 1.61673 0.648663 0
M  V30 10565 C 984.7 3.204 1.16432 0
M  V30 10566 H 985.893 2.93346 -0.623534 0
M  V30 10567 H 983.446 1.52061 -0.361565 0
M  V30 10568 H 984.181 2.60785 1.92774 0
M  V30 10569 H 983.966 3.86277 0.673248 0
M  V30 10570 H 985.456 3.83063 1.6629 0
M  V30 10571 N 985.893 0.34162 1.53853 0
M  V30 10572 C 986.841 -0.531412 2.26448 0
M  V30 10573 C 987.835 -1.10357 1.28521 0
M  V30 10574 O 989.041 -1.04953 1.46236 0
M  V30 10575 H 985.416 -0.190054 0.727588 0
M  V30 10576 H 987.387 0.102922 2.98222 0
M  V30 10577 C 986.136 -1.67154 3.04885 0
M  V30 10578 H 985.459 -1.24055 3.80066 0
M  V30 10579 H 986.899 -2.25762 3.58898 0
M  V30 10580 C 985.358 -2.59984 2.14266 0
M  V30 10581 O 985.888 -3.62181 1.73746 0
M  V30 10582 N 984.094 -2.28625 1.79385 0
M  V30 10583 H 983.641 -1.45559 2.12533 0
M  V30 10584 H 983.599 -2.90995 1.19035 0
M  V30 10585 N 987.371 -1.57444 0.0701946 0
M  V30 10586 C 988.319 -2.13834 -0.915302 0
M  V30 10587 C 989.313 -1.07483 -1.30934 0
M  V30 10588 O 990.519 -1.25865 -1.28678 0
M  V30 10589 H 986.894 -0.683716 -0.313108 0
M  V30 10590 H 988.865 -2.95503 -0.414758 0
M  V30 10591 C 987.614 -2.71355 -2.17398 0
M  V30 10592 H 986.937 -3.52861 -1.87961 0
M  V30 10593 H 988.377 -3.1441 -2.84469 0
M  V30 10594 C 986.836 -1.66038 -2.93143 0
M  V30 10595 O 987.366 -1.08443 -3.86786 0
M  V30 10596 N 985.572 -1.3711 -2.56221 0
M  V30 10597 H 985.119 -1.84135 -1.80145 0
M  V30 10598 H 985.077 -0.66877 -3.07205 0
M  V30 10599 N 988.849 0.203349 -1.56283 0
M  V30 10600 C 989.779 1.2549 -1.96912 0
M  V30 10601 C 990.76 1.47919 -0.839884 0
M  V30 10602 O 991.945 1.59795 -1.10359 0
M  V30 10603 C 989.075 2.6009 -2.30153 0
M  V30 10604 C 988.029 2.52289 -3.45738 0
M  V30 10605 C 987.355 3.91086 -3.64632 0
M  V30 10606 C 988.655 2.05503 -4.80173 0
M  V30 10607 H 990.349 0.917306 -2.85002 0
M  V30 10608 H 987.895 0.439818 -1.37119 0
M  V30 10609 H 989.848 3.33829 -2.5717 0
M  V30 10610 H 988.572 2.95574 -1.38937 0
M  V30 10611 H 987.231 1.81006 -3.18798 0
M  V30 10612 H 986.879 4.23908 -2.7076 0
M  V30 10613 H 986.579 3.86742 -4.42385 0
M  V30 10614 H 988.103 4.66459 -3.94016 0
M  V30 10615 H 989.517 2.68995 -5.06275 0
M  V30 10616 H 987.914 2.1218 -5.61337 0
M  V30 10617 H 988.984 1.00793 -4.74309 0
M  V30 10618 N 990.327 1.50405 0.470755 0
M  V30 10619 C 991.743 1.37838 0.804534 0
M  V30 10620 C 991.943 0.434743 1.96754 0
M  V30 10621 O 990.999 -0.122507 2.52203 0
M  V30 10622 C 992.312 2.79212 1.11629 0
M  V30 10623 C 993.86 2.88129 1.22272 0
M  V30 10624 C 994.335 4.30337 1.5676 0
M  V30 10625 N 995.826 4.3329 1.63751 0
M  V30 10626 C 996.561 5.4032 1.91942 0
M  V30 10627 N 996.057 6.57558 2.18151 0
M  V30 10628 N 997.85 5.27764 1.93446 0
M  V30 10629 H 990.001 2.10332 -0.295689 0
M  V30 10630 H 992.264 0.945429 -0.0697733 0
M  V30 10631 H 991.97 3.50103 0.334778 0
M  V30 10632 H 991.844 3.16475 2.0524 0
M  V30 10633 H 994.231 2.17457 1.9949 0
M  V30 10634 H 994.312 2.54409 0.2664 0
M  V30 10635 H 993.956 5.01547 0.800817 0
M  V30 10636 H 993.886 4.61545 2.53543 0
M  V30 10637 H 996.377 3.48752 1.45535 0
M  V30 10638 H 996.69 7.34935 2.38936 0
M  V30 10639 H 995.035 6.60732 2.15542 0
M  V30 10640 H 998.226 4.35169 1.72468 0
M  V30 10641 H 998.399 6.11264 2.15081 0
M  V30 10642 N 991.805 -0.723954 1.39988 0
M  V30 10643 C 993.035 -1.51094 1.40905 0
M  V30 10644 C 993.443 -1.89199 0.00476744 0
M  V30 10645 O 992.786 -1.55398 -0.979646 0
M  V30 10646 C 992.848 -2.82114 2.22827 0
M  V30 10647 C 992.512 -2.66379 3.71337 0
M  V30 10648 C 993.509 -2.34192 4.64166 0
M  V30 10649 C 991.194 -2.82905 4.15054 0
M  V30 10650 C 993.188 -2.18729 5.98696 0
M  V30 10651 C 990.875 -2.67059 5.49657 0
M  V30 10652 C 991.873 -2.35018 6.41292 0
M  V30 10653 O 991.561 -2.19284 7.73414 0
M  V30 10654 H 991.293 -0.473142 0.482818 0
M  V30 10655 H 993.847 -0.901321 1.84568 0
M  V30 10656 H 992.077 -3.45377 1.7393 0
M  V30 10657 H 993.766 -3.43789 2.15787 0
M  V30 10658 H 994.532 -2.21065 4.31689 0
M  V30 10659 H 990.411 -3.06834 3.44055 0
M  V30 10660 H 993.955 -1.93641 6.70186 0
M  V30 10661 H 989.852 -2.79768 5.81722 0
M  V30 10662 H 990.62 -2.34269 7.84258 0
M  V30 10663 N 993.283 -1.25346 -0.955304 0
M  V30 10664 C 994.53 -1.10055 -1.69983 0
M  V30 10665 C 994.858 0.358586 -1.91166 0
M  V30 10666 O 994.113 1.28071 -1.47974 0
M  V30 10667 C 994.412 -1.7993 -3.08804 0
M  V30 10668 C 994.078 -3.29851 -3.07424 0
M  V30 10669 C 992.74 -3.7075 -3.06754 0
M  V30 10670 C 995.092 -4.25636 -3.00805 0
M  V30 10671 C 992.42 -5.05847 -2.97214 0
M  V30 10672 C 994.772 -5.60756 -2.92806 0
M  V30 10673 C 993.436 -6.00984 -2.90472 0
M  V30 10674 H 992.706 -0.402718 -0.622012 0
M  V30 10675 H 995.353 -1.5561 -1.11614 0
M  V30 10676 H 993.658 -1.26803 -3.70713 0
M  V30 10677 H 995.355 -1.65551 -3.65231 0
M  V30 10678 H 991.945 -2.97308 -3.08716 0
M  V30 10679 H 996.129 -3.9503 -3.00441 0
M  V30 10680 H 991.385 -5.36196 -2.93775 0
M  V30 10681 H 995.559 -6.34671 -2.86645 0
M  V30 10682 H 993.186 -7.05626 -2.82835 0
M  V30 10683 N 994.761 1.15782 -1.06922 0
M  V30 10684 C 996.009 1.86097 -0.788192 0
M  V30 10685 C 996.33 1.82475 0.687606 0
M  V30 10686 O 995.6 1.26266 1.49778 0
M  V30 10687 H 994.18 0.689008 -0.288577 0
M  V30 10688 H 996.842 1.40377 -1.35205 0
M  V30 10689 H 995.938 2.91358 -1.1188 0
M  V30 10690 N 996.239 0.8527 1.3254 0
M  V30 10691 C 997.65 0.510012 1.79599 0
M  V30 10692 C 998.001 -0.972002 1.70431 0
M  V30 10693 O 997.126 -1.7581 1.26173 0
M  V30 10694 C 997.721 0.918986 3.26098 0
M  V30 10695 C 996.28 0.628227 3.7112 0
M  V30 10696 C 995.427 1.11979 2.53685 0
M  V30 10697 H 998.378 1.04009 1.19866 0
M  V30 10698 H 998.399 0.234577 3.79776 0
M  V30 10699 H 997.911 1.99765 3.32739 0
M  V30 10700 H 996.012 -0.4398 3.69995 0
M  V30 10701 H 996.125 1.19315 4.64005 0
M  V30 10702 H 994.489 0.540133 2.48907 0
M  V30 10703 H 995.272 2.20552 2.63081 0
M  V30 10704 N 997.718 -1.45297 0.610449 0
M  V30 10705 C 998.681 -2.28995 -0.0968194 0
M  V30 10706 C 999.681 -1.39923 -0.792353 0
M  V30 10707 O 1000.87 -1.62014 -0.64008 0
M  V30 10708 C 998.003 -3.21013 -1.14731 0
M  V30 10709 H 999.196 -2.93012 0.639082 0
M  V30 10710 H 996.749 -1.51867 0.369624 0
M  V30 10711 H 997.484 -2.61803 -1.91388 0
M  V30 10712 H 997.269 -3.86628 -0.652753 0
M  V30 10713 H 998.759 -3.8394 -1.64256 0
M  V30 10714 N 999.196 -0.349774 -1.5367 0
M  V30 10715 C 1000.16 0.491676 -2.23864 0
M  V30 10716 C 1001.16 1.02256 -1.24098 0
M  V30 10717 O 1002.35 0.910816 -1.48492 0
M  V30 10718 C 999.481 1.68557 -2.96313 0
M  V30 10719 H 1000.67 -0.12233 -2.9965 0
M  V30 10720 H 998.227 -0.101214 -1.55972 0
M  V30 10721 H 998.962 2.3381 -2.2473 0
M  V30 10722 H 998.747 1.31203 -3.69497 0
M  V30 10723 H 1000.24 2.28225 -3.49718 0
M  V30 10724 N 1000.67 1.57404 -0.0785433 0
M  V30 10725 C 1001.64 2.11977 0.871693 0
M  V30 10726 C 1002.64 1.04529 1.2219 0
M  V30 10727 O 1003.83 1.30488 1.15406 0
M  V30 10728 C 1000.96 2.6267 2.17296 0
M  V30 10729 H 1002.15 2.97246 0.398115 0
M  V30 10730 H 999.705 1.5537 0.170251 0
M  V30 10731 H 1000.44 1.80873 2.69175 0
M  V30 10732 H 1000.22 3.41214 1.93171 0
M  V30 10733 H 1001.71 3.04943 2.85306 0
M  V30 10734 N 1002.15 -0.195058 1.56388 0
M  V30 10735 C 1003.08 -1.24444 1.97575 0
M  V30 10736 C 1004.06 -1.47471 0.847717 0
M  V30 10737 O 1005.25 -1.59208 1.11205 0
M  V30 10738 C 1002.38 -2.58866 2.31529 0
M  V30 10739 C 1001.33 -2.50451 3.47071 0
M  V30 10740 C 1000.66 -3.89146 3.667 0
M  V30 10741 C 1001.96 -2.02953 4.81256 0
M  V30 10742 H 1003.65 -0.902178 2.85484 0
M  V30 10743 H 1001.2 -0.43254 1.3735 0
M  V30 10744 H 1003.15 -3.3246 2.58936 0
M  V30 10745 H 1001.87 -2.94833 1.40502 0
M  V30 10746 H 1000.53 -1.79313 3.19754 0
M  V30 10747 H 1000.18 -4.22466 2.73004 0
M  V30 10748 H 999.882 -3.84391 4.44429 0
M  V30 10749 H 1001.41 -4.64363 3.96484 0
M  V30 10750 H 1002.82 -2.66306 5.07695 0
M  V30 10751 H 1001.22 -2.092 5.62455 0
M  V30 10752 H 1002.29 -0.982757 4.74837 0
M  V30 10753 N 1003.63 -1.50653 -0.462772 0
M  V30 10754 C 1005.05 -1.38263 -0.797213 0
M  V30 10755 C 1005.25 -0.445172 -1.96521 0
M  V30 10756 O 1004.3 0.10913 -2.52264 0
M  V30 10757 C 1005.61 -2.798 -1.10146 0
M  V30 10758 C 1007.16 -2.88774 -1.20742 0
M  V30 10759 C 1007.64 -4.31163 -1.54476 0
M  V30 10760 N 1009.13 -4.34152 -1.61451 0
M  V30 10761 C 1009.86 -5.4133 -1.89074 0
M  V30 10762 N 1009.36 -6.58705 -2.1466 0
M  V30 10763 N 1011.15 -5.28783 -1.90645 0
M  V30 10764 H 1003.3 -2.10172 0.30684 0
M  V30 10765 H 1005.57 -0.945046 0.0747862 0
M  V30 10766 H 1005.27 -3.50276 -0.316207 0
M  V30 10767 H 1005.15 -3.17559 -2.03559 0
M  V30 10768 H 1007.53 -2.18512 -1.98334 0
M  V30 10769 H 1007.61 -2.54547 -0.252904 0
M  V30 10770 H 1007.26 -5.01965 -0.774207 0
M  V30 10771 H 1007.19 -4.62883 -2.51092 0
M  V30 10772 H 1009.68 -3.49519 -1.43684 0
M  V30 10773 H 1009.99 -7.36192 -2.35035 0
M  V30 10774 H 1008.34 -6.61866 -2.12035 0
M  V30 10775 H 1011.53 -4.36078 -1.70158 0
M  V30 10776 H 1011.7 -6.12396 -2.11836 0
M  V30 10777 N 1005.11 0.71652 -1.4037 0
M  V30 10778 C 1006.33 1.51069 -1.42102 0
M  V30 10779 C 1006.76 1.88087 -0.0222387 0
M  V30 10780 O 1006.12 1.53204 0.969448 0
M  V30 10781 C 1006.16 2.76307 -2.31704 0
M  V30 10782 O 1005.27 3.72975 -1.75964 0
M  V30 10783 H 1004.61 0.455502 -0.483129 0
M  V30 10784 H 1007.14 0.882514 -1.84588 0
M  V30 10785 H 1007.15 3.24846 -2.46859 0
M  V30 10786 H 1005.82 2.48698 -3.3335 0
M  V30 10787 H 1004.4 3.31818 -1.70151 0
M  V30 10788 N 1006.59 1.25851 0.948643 0
M  V30 10789 C 1008 1.09975 1.50872 0
M  V30 10790 C 1008.35 -0.322497 1.93531 0
M  V30 10791 O 1007.47 -1.21316 1.79197 0
M  V30 10792 C 1008.07 1.99021 2.74182 0
M  V30 10793 C 1006.63 1.87313 3.26483 0
M  V30 10794 C 1005.77 1.92815 1.99293 0
M  V30 10795 H 1008.73 1.3905 0.764908 0
M  V30 10796 H 1008.75 1.53372 3.4822 0
M  V30 10797 H 1008.26 3.02527 2.43103 0
M  V30 10798 H 1006.36 0.867136 3.62369 0
M  V30 10799 H 1006.47 2.72446 3.94094 0
M  V30 10800 H 1004.84 1.36774 2.1486 0
M  V30 10801 H 1005.62 2.97936 1.70554 0
M  V30 10802 N 1008.06 -1.15214 1.07534 0
M  V30 10803 C 1008.99 -2.2216 0.718837 0
M  V30 10804 C 1009.98 -1.6753 -0.29459 0
M  V30 10805 O 1011.16 -1.93481 -0.166931 0
M  V30 10806 C 1008.29 -3.471 0.117836 0
M  V30 10807 C 1007.24 -4.14701 1.05862 0
M  V30 10808 C 1006.57 -5.3374 0.320284 0
M  V30 10809 C 1007.87 -4.64254 2.39302 0
M  V30 10810 H 1009.56 -2.52237 1.61297 0
M  V30 10811 H 1007.11 -1.21239 0.776992 0
M  V30 10812 H 1009.06 -4.21156 -0.143519 0
M  V30 10813 H 1007.79 -3.16361 -0.811389 0
M  V30 10814 H 1006.45 -3.42589 1.30493 0
M  V30 10815 H 1006.09 -4.99257 -0.61246 0
M  V30 10816 H 1005.79 -5.79912 0.947381 0
M  V30 10817 H 1007.32 -6.10563 0.0667721 0
M  V30 10818 H 1008.73 -5.29827 2.18988 0
M  V30 10819 H 1007.13 -5.21095 2.97623 0
M  V30 10820 H 1008.2 -3.79793 3.01472 0
M  V30 10821 N 1009.54 -0.859717 -1.32086 0
M  V30 10822 C 1010.77 -0.478865 -2.01796 0
M  V30 10823 C 1011.19 0.918274 -1.64163 0
M  V30 10824 O 1010.55 1.60409 -0.844896 0
M  V30 10825 C 1010.6 -0.631356 -3.5503 0
M  V30 10826 O 1009.7 0.333712 -4.11048 0
M  V30 10827 H 1009.04 -0.191775 -0.635703 0
M  V30 10828 H 1011.57 -1.16031 -1.68517 0
M  V30 10829 H 1011.58 -0.520783 -4.04663 0
M  V30 10830 H 1010.26 -1.65015 -3.81763 0
M  V30 10831 H 1008.84 0.178953 -3.7247 0
M  V30 10832 N 1011.02 1.44971 -0.618145 0
M  V30 10833 C 1011.97 2.32354 0.106846 0
M  V30 10834 C 1012.96 1.4659 0.848984 0
M  V30 10835 O 1014.17 1.63012 0.763354 0
M  V30 10836 H 1010.54 0.750108 0.0533109 0
M  V30 10837 H 1012.51 2.9127 -0.648426 0
M  V30 10838 C 1011.26 3.30381 1.08368 0
M  V30 10839 H 1010.59 3.96377 0.52205 0
M  V30 10840 H 1012.03 3.94231 1.56069 0
M  V30 10841 C 1010.49 2.58336 2.1625 0
M  V30 10842 O 1011.02 2.37258 3.24148 0
M  V30 10843 N 1009.22 2.18292 1.91825 0
M  V30 10844 H 1008.77 2.35635 1.04086 0
M  V30 10845 H 1008.73 1.70413 2.6421 0
M  V30 10846 N 1012.5 0.357919 1.53482 0
M  V30 10847 C 1013.45 -0.50845 2.22258 0
M  V30 10848 C 1014.43 -1.05476 1.21506 0
M  V30 10849 O 1015.62 -0.986075 1.46988 0
M  V30 10850 C 1012.75 -1.65157 3.00962 0
M  V30 10851 C 1011.84 -1.11851 4.09084 0
M  V30 10852 N 1012.23 -0.307818 5.04862 0
M  V30 10853 C 1010.53 -1.39405 4.23653 0
M  V30 10854 C 1011.23 -0.016842 5.81698 0
M  V30 10855 N 1010.21 -0.612396 5.40139 0
M  V30 10856 H 1014.01 0.117836 2.93664 0
M  V30 10857 H 1011.52 0.16553 1.61554 0
M  V30 10858 H 1013.52 -2.28435 3.48745 0
M  V30 10859 H 1012.18 -2.281 2.31086 0
M  V30 10860 H 1013.19 0.0523313 5.17874 0
M  V30 10861 H 1009.87 -2.02682 3.65002 0
M  V30 10862 H 1011.26 0.638046 6.68864 0
M  V30 10863 N 1013.98 -1.5736 0.0868897 0
M  V30 10864 C 1014.94 -2.12436 -0.860439 0
M  V30 10865 C 1015.94 -1.05175 -1.21634 0
M  V30 10866 O 1017.13 -1.31098 -1.14713 0
M  V30 10867 C 1014.26 -2.63818 -2.159 0
M  V30 10868 H 1015.45 -2.97453 -0.382346 0
M  V30 10869 H 1013.01 -1.55458 -0.162009 0
M  V30 10870 H 1013.74 -1.82298 -2.68212 0
M  V30 10871 H 1013.53 -3.42234 -1.91359 0
M  V30 10872 H 1015.02 -3.06452 -2.83685 0
M  V30 10873 N 1015.45 0.186762 -1.56489 0
M  V30 10874 C 1016.39 1.25565 -1.91745 0
M  V30 10875 C 1017.4 1.4128 -0.80894 0
M  V30 10876 O 1018.59 1.41558 -1.08737 0
M  V30 10877 C 1015.69 2.62662 -2.14154 0
M  V30 10878 C 1014.86 2.68448 -3.45333 0
M  V30 10879 C 1013.92 3.86798 -3.56754 0
M  V30 10880 O 1012.95 3.73514 -4.29507 0
M  V30 10881 N 1014.15 5.02607 -2.90459 0
M  V30 10882 H 1016.91 0.956351 -2.84032 0
M  V30 10883 H 1014.47 0.376631 -1.57458 0
M  V30 10884 H 1016.47 3.40277 -2.19075 0
M  V30 10885 H 1015.04 2.85046 -1.28326 0
M  V30 10886 H 1014.26 1.77044 -3.52206 0
M  V30 10887 H 1015.54 2.69311 -4.31682 0
M  V30 10888 H 1014.94 5.163 -2.31194 0
M  V30 10889 H 1013.5 5.78139 -3.00996 0
M  V30 10890 N 1016.93 1.50896 0.454776 0
M  V30 10891 C 1018.35 1.38684 0.78987 0
M  V30 10892 C 1018.55 0.455587 1.96282 0
M  V30 10893 O 1017.6 -0.0957503 2.52318 0
M  V30 10894 C 1018.92 2.80381 1.08661 0
M  V30 10895 C 1020.47 2.8941 1.19209 0
M  V30 10896 C 1020.94 4.31976 1.52187 0
M  V30 10897 N 1022.43 4.35002 1.59146 0
M  V30 10898 C 1023.17 5.42326 1.862 0
M  V30 10899 N 1022.66 6.59835 2.11164 0
M  V30 10900 N 1024.46 5.29786 1.87838 0
M  V30 10901 H 1016.61 2.10006 -0.317981 0
M  V30 10902 H 1018.87 0.944636 -0.0797969 0
M  V30 10903 H 1018.58 3.50438 0.297626 0
M  V30 10904 H 1018.45 3.18634 2.01872 0
M  V30 10905 H 1020.84 2.19561 1.97173 0
M  V30 10906 H 1020.92 2.54677 0.239401 0
M  V30 10907 H 1020.56 5.02368 0.747576 0
M  V30 10908 H 1020.49 4.64208 2.48633 0
M  V30 10909 H 1022.98 3.50276 1.41828 0
M  V30 10910 H 1023.3 7.37428 2.31128 0
M  V30 10911 H 1021.64 6.62981 2.08522 0
M  V30 10912 H 1024.83 4.36974 1.67843 0
M  V30 10913 H 1025 6.13511 2.08585 0
M  V30 10914 N 1018.41 -0.709066 1.40748 0
M  V30 10915 C 1019.34 -1.83412 1.37451 0
M  V30 10916 C 1020.36 -1.60394 0.27884 0
M  V30 10917 O 1021.54 -1.70147 0.539642 0
M  V30 10918 C 1018.64 -3.19935 1.1178 0
M  V30 10919 C 1017.82 -3.70095 2.33128 0
M  V30 10920 C 1016.88 -4.85249 2.03518 0
M  V30 10921 O 1015.9 -4.97563 2.76442 0
M  V30 10922 N 1017.1 -5.7152 1.01714 0
M  V30 10923 H 1019.87 -1.86736 2.34414 0
M  V30 10924 H 1017.43 -0.890863 1.35186 0
M  V30 10925 H 1019.42 -3.94578 0.899464 0
M  V30 10926 H 1017.99 -3.11718 0.234624 0
M  V30 10927 H 1017.21 -2.8651 2.70751 0
M  V30 10928 H 1018.5 -4.00344 3.1401 0
M  V30 10929 H 1017.9 -5.64188 0.413307 0
M  V30 10930 H 1016.46 -6.46119 0.858696 0
M  V30 10931 N 1019.89 -1.26353 -0.941956 0
M  V30 10932 C 1020.82 -1.10341 -2.05784 0
M  V30 10933 C 1021.8 -0.00881565 -1.70098 0
M  V30 10934 O 1022.99 -0.180699 -1.93357 0
M  V30 10935 C 1020.12 -0.734788 -3.39438 0
M  V30 10936 C 1019.07 -1.78103 -3.89183 0
M  V30 10937 C 1018.4 -1.26675 -5.19478 0
M  V30 10938 C 1019.7 -3.1824 -4.14151 0
M  V30 10939 H 1021.39 -2.03684 -2.19438 0
M  V30 10940 H 1018.94 -0.980698 -1.05443 0
M  V30 10941 H 1020.89 -0.609653 -4.16967 0
M  V30 10942 H 1019.61 0.234354 -3.25758 0
M  V30 10943 H 1018.27 -1.89482 -3.13835 0
M  V30 10944 H 1017.92 -0.287472 -5.02178 0
M  V30 10945 H 1017.62 -1.96612 -5.53731 0
M  V30 10946 H 1019.14 -1.15427 -5.99591 0
M  V30 10947 H 1020.56 -3.09942 -4.82296 0
M  V30 10948 H 1018.95 -3.8576 -4.59684 0
M  V30 10949 H 1020.02 -3.64354 -3.19959 0
M  V30 10950 N 1021.37 1.14642 -1.08144 0
M  V30 10951 C 1022.78 1.6719 -0.830923 0
M  V30 10952 C 1023.13 1.85373 0.642749 0
M  V30 10953 O 1022.25 1.56293 1.49671 0
M  V30 10954 C 1022.85 3.03697 -1.50179 0
M  V30 10955 C 1021.41 3.5329 -1.29858 0
M  V30 10956 C 1020.56 2.28828 -1.5663 0
M  V30 10957 H 1023.51 0.987441 -1.24239 0
M  V30 10958 H 1023.53 3.69023 -0.9275 0
M  V30 10959 H 1023.04 2.90431 -2.57432 0
M  V30 10960 H 1021.14 3.71783 -0.246626 0
M  V30 10961 H 1021.25 4.34231 -2.02436 0
M  V30 10962 H 1019.62 2.34769 -0.987716 0
M  V30 10963 H 1020.4 2.18141 -2.65084 0
M  V30 10964 N 1022.85 0.866709 1.31628 0
M  V30 10965 C 1024.09 0.475086 1.96437 0
M  V30 10966 C 1024.41 -0.975179 1.68865 0
M  V30 10967 O 1023.68 -1.68317 1.0023 0
M  V30 10968 H 1022.26 0.172695 0.726764 0
M  V30 10969 H 1024.93 1.10578 1.60494 0
M  V30 10970 H 1024.02 0.630123 3.05673 0
M  V30 10971 N 1024.32 -1.44642 0.625825 0
M  V30 10972 C 1025.55 -2.06971 0.133373 0
M  V30 10973 C 1025.97 -1.46421 -1.18078 0
M  V30 10974 O 1025.33 -0.563676 -1.72315 0
M  V30 10975 C 1025.38 -3.6059 0.0265097 0
M  V30 10976 O 1024.48 -3.99615 -1.01889 0
M  V30 10977 H 1023.82 -0.658873 0.0823568 0
M  V30 10978 H 1026.35 -1.85601 0.861002 0
M  V30 10979 H 1026.36 -4.07663 -0.1658 0
M  V30 10980 H 1025.04 -4.04043 0.985986 0
M  V30 10981 H 1023.62 -3.64183 -0.801577 0
M  V30 10982 N 1025.8 -0.366053 -1.5329 0
M  V30 10983 C 1027.03 0.226839 -2.06156 0
M  V30 10984 C 1027.45 1.41637 -1.23776 0
M  V30 10985 O 1026.81 1.7947 -0.256948 0
M  V30 10986 C 1026.86 0.597956 -3.55608 0
M  V30 10987 O 1025.96 1.69512 -3.75951 0
M  V30 10988 H 1025.3 0.0329156 -0.663184 0
M  V30 10989 H 1027.83 -0.526793 -1.97702 0
M  V30 10990 H 1027.84 0.868831 -3.98642 0
M  V30 10991 H 1026.52 -0.271838 -4.15011 0
M  V30 10992 H 1025.09 1.41976 -3.44815 0
M  V30 10993 N 1027.28 1.57312 -0.0952337 0
M  V30 10994 C 1028.69 1.81589 0.433875 0
M  V30 10995 C 1029.04 1.01086 1.68155 0
M  V30 10996 O 1028.17 0.240272 2.15062 0
M  V30 10997 C 1028.76 3.29366 0.793931 0
M  V30 10998 C 1027.32 3.54407 1.26778 0
M  V30 10999 C 1026.47 2.76035 0.264518 0
M  V30 11000 H 1029.42 1.55426 -0.320675 0
M  V30 11001 H 1029.44 3.42697 1.65345 0
M  V30 11002 H 1028.95 3.87932 -0.114334 0
M  V30 11003 H 1027.05 3.01173 2.19376 0
M  V30 11004 H 1027.17 4.63055 1.22952 0
M  V30 11005 H 1025.53 2.43509 0.746691 0
M  V30 11006 H 1026.31 3.37349 -0.636429 0
M  V30 11007 N 1028.76 -0.17846 1.56586 0
M  V30 11008 C 1030.03 -0.923096 1.72448 0
M  V30 11009 C 1030.41 -2.00692 0.654659 0
M  V30 11010 O 1029.76 -2.26079 -0.33171 0
M  V30 11011 C 1029.97 -1.49435 3.15389 0
M  V30 11012 C 1031.32 -1.97005 3.76131 0
M  V30 11013 O 1032.34 -1.59244 3.18622 0
M  V30 11014 O 1031.2 -2.66541 4.77094 0
M  V30 11015 H 1028.3 -0.434009 0.703964 0
M  V30 11016 H 1030.84 -0.16685 1.68878 0
M  V30 11017 H 1029.62 -0.713933 3.84732 0
M  V30 11018 H 1029.24 -2.31498 3.23256 0
M  V30 11019 N 1030.24 -1.51135 -0.446768 0
M  V30 11020 C 1031.17 -1.74709 -1.54916 0
M  V30 11021 C 1032.15 -0.596628 -1.59293 0
M  V30 11022 O 1033.33 -0.838356 -1.75172 0
M  V30 11023 C 1030.46 -1.86353 -2.9307 0
M  V30 11024 C 1029.42 -3.01725 -3.03556 0
M  V30 11025 C 1028.74 -2.9854 -4.43597 0
M  V30 11026 C 1030.04 -4.41848 -2.7851 0
M  V30 11027 H 1031.74 -2.67014 -1.3544 0
M  V30 11028 H 1029.28 -1.28489 -0.650131 0
M  V30 11029 H 1031.23 -2.01428 -3.70141 0
M  V30 11030 H 1029.96 -0.906887 -3.13756 0
M  V30 11031 H 1028.62 -2.86339 -2.28922 0
M  V30 11032 H 1028.27 -2.00673 -4.61237 0
M  V30 11033 H 1027.97 -3.76008 -4.51544 0
M  V30 11034 H 1029.49 -3.15696 -5.22655 0
M  V30 11035 H 1030.9 -4.57633 -3.45319 0
M  V30 11036 H 1029.3 -5.2095 -2.97877 0
M  V30 11037 H 1030.37 -4.52536 -1.74182 0
M  V30 11038 N 1031.71 0.701592 -1.41122 0
M  V30 11039 C 1032.96 1.45722 -1.39456 0
M  V30 11040 C 1033.28 1.95599 -0.00475228 0
M  V30 11041 O 1034.48 2.71166 0.134529 0
M  V30 11042 C 1032.94 2.63475 -2.45172 0
M  V30 11043 C 1032.55 2.20409 -3.90031 0
M  V30 11044 C 1034.29 3.4114 -2.52633 0
M  V30 11045 C 1032.2 3.35084 -4.87312 0
M  V30 11046 H 1031.13 0.547341 -0.518588 0
M  V30 11047 H 1033.78 0.762233 -1.6692 0
M  V30 11048 H 1032.16 3.35212 -2.10829 0
M  V30 11049 H 1033.33 1.56 -4.3359 0
M  V30 11050 H 1031.65 1.55752 -3.86174 0
M  V30 11051 H 1034.25 4.26496 -3.22498 0
M  V30 11052 H 1034.59 3.85915 -1.56125 0
M  V30 11053 H 1035.12 2.76456 -2.86037 0
M  V30 11054 H 1031.86 2.95327 -5.85203 0
M  V30 11055 H 1031.38 3.98362 -4.48406 0
M  V30 11056 H 1033.06 4.00949 -5.07788 0
M  V30 11057 N 1033.19 1.2685 0.935242 0
M  V30 11058 C 1034.42 1.15645 1.72165 0
M  V30 11059 C 1034.84 -0.283909 1.85945 0
M  V30 11060 O 1034.2 -1.20567 1.354 0
M  V30 11061 C 1034.25 1.83689 3.10307 0
M  V30 11062 O 1033.35 1.12972 3.96625 0
M  V30 11063 H 1032.69 0.402629 0.528002 0
M  V30 11064 H 1035.22 1.67781 1.17093 0
M  V30 11065 H 1035.23 1.90749 3.60664 0
M  V30 11066 H 1033.91 2.88472 2.99595 0
M  V30 11067 H 1032.48 1.13929 3.5507 0
M  V30 11068 N 1034.67 -1.14067 1.0875 0
M  V30 11069 C 1035.9 -1.89041 0.840902 0
M  V30 11070 C 1036.31 -1.78768 -0.60725 0
M  V30 11071 O 1035.67 -1.14945 -1.41753 0
M  V30 11072 C 1035.72 -3.38891 1.25838 0
M  V30 11073 O 1035.44 -3.48886 2.64972 0
M  V30 11074 C 1036.94 -4.30852 1.04315 0
M  V30 11075 H 1034.16 -0.598685 0.303014 0
M  V30 11076 H 1036.71 -1.44438 1.44769 0
M  V30 11077 H 1034.86 -3.81103 0.695627 0
M  V30 11078 H 1035.28 -4.41989 2.82393 0
M  V30 11079 H 1036.75 -5.34353 1.38461 0
M  V30 11080 H 1037.23 -4.39196 -0.0195784 0
M  V30 11081 H 1037.83 -3.944 1.59151 0
M  V30 11082 N 1036.15 -0.873678 -1.31166 0
M  V30 11083 C 1037.11 -0.337069 -2.26708 0
M  V30 11084 C 1038.11 0.51406 -1.52362 0
M  V30 11085 O 1039.3 0.322834 -1.71182 0
M  V30 11086 C 1036.43 0.520897 -3.36897 0
M  V30 11087 H 1037.63 -1.18056 -2.75686 0
M  V30 11088 H 1035.18 -0.649577 -1.42163 0
M  V30 11089 H 1035.91 1.38543 -2.93217 0
M  V30 11090 H 1035.7 -0.0886015 -3.92 0
M  V30 11091 H 1037.19 0.888497 -4.08039 0
M  V30 11092 N 1037.63 1.44308 -0.633487 0
M  V30 11093 C 1038.56 2.27887 0.119397 0
M  V30 11094 C 1039.54 1.38676 0.848981 0
M  V30 11095 O 1040.72 1.68116 0.85259 0
M  V30 11096 C 1037.85 3.17658 1.17521 0
M  V30 11097 C 1036.89 4.22992 0.54589 0
M  V30 11098 S 1037.73 5.31345 -0.6658 0
M  V30 11099 C 1038.88 6.24684 0.389965 0
M  V30 11100 H 1039.12 2.91394 -0.589638 0
M  V30 11101 H 1036.65 1.48529 -0.421727 0
M  V30 11102 H 1038.61 3.69929 1.77941 0
M  V30 11103 H 1037.27 2.53367 1.85645 0
M  V30 11104 H 1036.46 4.85828 1.34115 0
M  V30 11105 H 1036.06 3.73996 0.0162506 0
M  V30 11106 H 1038.36 6.65645 1.26185 0
M  V30 11107 H 1039.3 7.07809 -0.202878 0
M  V30 11108 H 1039.71 5.59929 0.716922 0
M  V30 11109 N 1039.1 0.374177 1.53094 0
M  V30 11110 C 1040.07 -0.455999 2.24618 0
M  V30 11111 C 1041.07 -1.00269 1.25709 0
M  V30 11112 O 1042.26 -0.887077 1.49922 0
M  V30 11113 C 1039.39 -1.63822 2.98957 0
M  V30 11114 H 1040.58 0.169986 2.99418 0
M  V30 11115 H 1038.14 0.126015 1.55791 0
M  V30 11116 H 1038.87 -2.30205 2.28421 0
M  V30 11117 H 1038.66 -1.25308 3.71538 0
M  V30 11118 H 1040.15 -2.22633 3.53305 0
M  V30 11119 N 1040.58 -1.57259 0.103575 0
M  V30 11120 C 1041.55 -2.13337 -0.837859 0
M  V30 11121 C 1042.55 -1.06459 -1.20512 0
M  V30 11122 O 1043.74 -1.32307 -1.13316 0
M  V30 11123 C 1040.87 -2.66093 -2.13089 0
M  V30 11124 H 1042.06 -2.97842 -0.350775 0
M  V30 11125 H 1039.61 -1.55621 -0.145511 0
M  V30 11126 H 1040.35 -1.85133 -2.66264 0
M  V30 11127 H 1040.13 -3.44244 -1.87719 0
M  V30 11128 H 1041.62 -3.09443 -2.80419 0
M  V30 11129 N 1042.06 0.170153 -1.56679 0
M  V30 11130 C 1043.34 0.913938 -1.72935 0
M  V30 11131 C 1043.72 2.00342 -0.665293 0
M  V30 11132 O 1043.07 2.26252 0.319715 0
M  V30 11133 C 1043.28 1.47761 -3.16177 0
M  V30 11134 C 1044.62 1.95007 -3.7717 0
M  V30 11135 O 1045.65 1.57552 -3.19462 0
M  V30 11136 O 1044.51 2.64007 -4.78501 0
M  V30 11137 H 1041.6 0.43027 -0.706256 0
M  V30 11138 H 1044.15 0.157891 -1.68964 0
M  V30 11139 H 1042.92 0.69352 -3.85105 0
M  V30 11140 H 1042.54 2.2978 -3.24479 0
M  V30 11141 N 1043.54 1.5137 0.438746 0
M  V30 11142 C 1044.78 1.65627 1.19779 0
M  V30 11143 C 1045.14 0.363885 1.8852 0
M  V30 11144 O 1046.34 0.382215 2.66069 0
M  V30 11145 C 1044.61 2.82536 2.18879 0
M  V30 11146 S 1046.17 3.17113 3.0329 0
M  V30 11147 H 1042.99 0.583535 0.406212 0
M  V30 11148 H 1045.59 1.89271 0.489582 0
M  V30 11149 H 1044.3 3.74879 1.67015 0
M  V30 11150 H 1043.83 2.61077 2.94283 0
M  V30 11151 H 1045.84 2.63439 4.20493 0
M  V30 11152 N 1045.02 -0.694098 1.41492 0
M  V30 11153 C 1046.26 -1.45493 1.42138 0
M  V30 11154 C 1046.62 -1.92376 0.0302688 0
M  V30 11155 O 1045.91 -1.66723 -0.944142 0
M  V30 11156 C 1046.1 -2.6805 2.36398 0
M  V30 11157 C 1045.93 -2.33157 3.84536 0
M  V30 11158 C 1044.7 -2.2345 4.53209 0
M  V30 11159 C 1046.9 -1.96037 4.75473 0
M  V30 11160 N 1044.88 -1.81457 5.8647 0
M  V30 11161 C 1046.25 -1.64814 5.97693 0
M  V30 11162 C 1048.31 -1.8286 4.63106 0
M  V30 11163 C 1047.01 -1.21738 7.08923 0
M  V30 11164 C 1049.04 -1.41188 5.74299 0
M  V30 11165 C 1048.4 -1.10877 6.95619 0
M  V30 11166 H 1044.5 -0.529635 0.575335 0
M  V30 11167 H 1047.08 -0.802901 1.77374 0
M  V30 11168 H 1045.25 -3.30972 2.03254 0
M  V30 11169 H 1046.99 -3.34531 2.27753 0
M  V30 11170 H 1043.74 -2.41894 4.07166 0
M  V30 11171 H 1044.17 -1.62938 6.571 0
M  V30 11172 H 1048.81 -2.04947 3.69806 0
M  V30 11173 H 1046.53 -0.983947 8.02087 0
M  V30 11174 H 1050.11 -1.3154 5.66735 0
M  V30 11175 H 1048.99 -0.791191 7.80199 0
M  V30 11176 N 1046.49 -1.27344 -0.928501 0
M  V30 11177 C 1047.91 -1.04732 -1.2043 0
M  V30 11178 C 1048.11 0.219623 -2.003 0
M  V30 11179 O 1047.17 0.925333 -2.34934 0
M  V30 11180 C 1048.48 -2.28625 -1.95323 0
M  V30 11181 C 1050.03 -2.33655 -2.08265 0
M  V30 11182 C 1050.5 -3.57275 -2.86563 0
M  V30 11183 N 1051.99 -3.57828 -2.94132 0
M  V30 11184 C 1052.73 -4.50152 -3.55177 0
M  V30 11185 N 1052.22 -5.52779 -4.17621 0
M  V30 11186 N 1054.02 -4.37777 -3.52573 0
M  V30 11187 H 1046.17 -2.08697 -0.394892 0
M  V30 11188 H 1048.43 -0.91782 -0.2373 0
M  V30 11189 H 1048.14 -3.20845 -1.44054 0
M  V30 11190 H 1048.01 -2.33878 -2.95941 0
M  V30 11191 H 1050.4 -1.41942 -2.58721 0
M  V30 11192 H 1050.48 -2.32406 -1.0687 0
M  V30 11193 H 1050.12 -4.49325 -2.3679 0
M  V30 11194 H 1050.05 -3.55775 -3.88242 0
M  V30 11195 H 1052.54 -2.83607 -2.49751 0
M  V30 11196 H 1052.86 -6.19394 -4.62137 0
M  V30 11197 H 1051.2 -5.56622 -4.16169 0
M  V30 11198 H 1054.39 -3.56811 -3.02991 0
M  V30 11199 H 1054.57 -5.09919 -3.99858 0
M  V30 11200 N 1047.97 1.13488 -1.09353 0
M  V30 11201 C 1049.2 1.89133 -0.85108 0
M  V30 11202 C 1049.62 1.78542 0.591976 0
M  V30 11203 O 1048.98 1.13243 1.41583 0
M  V30 11204 C 1049.03 3.36736 -1.29001 0
M  V30 11205 O 1048.13 4.09959 -0.447993 0
M  V30 11206 H 1047.47 0.58809 -0.308296 0
M  V30 11207 H 1050 1.43593 -1.45747 0
M  V30 11208 H 1050.01 3.87564 -1.27508 0
M  V30 11209 H 1048.69 3.43762 -2.34095 0
M  V30 11210 H 1047.27 3.69155 -0.52717 0
M  V30 11211 N 1049.45 0.880621 1.30701 0
M  V30 11212 C 1050.68 0.510909 2.01009 0
M  V30 11213 C 1051.1 -0.892041 1.65603 0
M  V30 11214 O 1050.46 -1.59045 0.870309 0
M  V30 11215 C 1050.51 0.687759 3.53981 0
M  V30 11216 O 1049.61 -0.268275 4.11526 0
M  V30 11217 H 1048.95 0.201864 0.632572 0
M  V30 11218 H 1051.48 1.18697 1.6665 0
M  V30 11219 H 1051.49 0.585095 4.03783 0
M  V30 11220 H 1050.17 1.71068 3.79089 0
M  V30 11221 H 1048.74 -0.119673 3.72708 0
M  V30 11222 N 1050.93 -1.4397 0.641131 0
M  V30 11223 C 1051.84 -2.34526 -0.058742 0
M  V30 11224 C 1052.86 -1.53194 -0.825088 0
M  V30 11225 O 1054.03 -1.85888 -0.775081 0
M  V30 11226 C 1051.1 -3.31313 -1.02139 0
M  V30 11227 C 1050.16 -4.28552 -0.253319 0
M  V30 11228 C 1049.39 -5.20715 -1.17012 0
M  V30 11229 O 1049.61 -5.17028 -2.40911 0
M  V30 11230 O 1048.55 -5.9839 -0.649039 0
M  V30 11231 H 1052.37 -2.95843 0.686329 0
M  V30 11232 H 1049.96 -1.43909 0.401316 0
M  V30 11233 H 1051.84 -3.90862 -1.57496 0
M  V30 11234 H 1050.52 -2.72516 -1.7469 0
M  V30 11235 H 1049.42 -3.72519 0.343531 0
M  V30 11236 H 1050.76 -4.90297 0.432372 0
M  V30 11237 N 1052.41 -0.382291 -1.52893 0
M  V30 11238 C 1053.82 0.0932841 -1.86467 0
M  V30 11239 C 1054.17 1.4675 -1.30226 0
M  V30 11240 O 1053.29 2.07001 -0.63084 0
M  V30 11241 C 1053.89 0.176048 -3.38342 0
M  V30 11242 C 1052.45 0.595904 -3.71653 0
M  V30 11243 C 1051.6 -0.246511 -2.76202 0
M  V30 11244 H 1054.55 -0.600443 -1.46903 0
M  V30 11245 H 1054.57 0.996512 -3.67219 0
M  V30 11246 H 1054.08 -0.824264 -3.79246 0
M  V30 11247 H 1052.18 1.60384 -3.36315 0
M  V30 11248 H 1052.29 0.358919 -4.77754 0
M  V30 11249 H 1050.66 0.287162 -2.53076 0
M  V30 11250 H 1051.44 -1.24467 -3.19942 0
M  V30 11251 N 1053.89 1.57202 -0.111913 0
M  V30 11252 C 1055.16 1.86459 0.590972 0
M  V30 11253 C 1055.54 1.01182 1.85271 0
M  V30 11254 O 1054.89 0.0887891 2.28327 0
M  V30 11255 C 1055.1 3.37455 0.890225 0
M  V30 11256 C 1056.45 4.05895 1.24638 0
M  V30 11257 O 1057.47 3.42433 0.980713 0
M  V30 11258 O 1056.33 5.17903 1.74466 0
M  V30 11259 H 1053.43 0.771652 0.297459 0
M  V30 11260 H 1055.97 1.69072 -0.145882 0
M  V30 11261 H 1054.74 3.913 -0.00419012 0
M  V30 11262 H 1054.37 3.60248 1.68248 0
M  V30 11263 N 1055.36 -0.161842 1.56767 0
M  V30 11264 C 1056.31 -1.2002 1.97139 0
M  V30 11265 C 1057.28 -1.43486 0.836713 0
M  V30 11266 O 1058.47 -1.56069 1.0976 0
M  V30 11267 C 1055.61 -2.53228 2.34456 0
M  V30 11268 C 1054.72 -2.37062 3.61145 0
M  V30 11269 C 1053.85 -3.63202 3.87631 0
M  V30 11270 C 1052.89 -3.42008 5.07638 0
M  V30 11271 N 1052.03 -4.60242 5.30209 0
M  V30 11272 H 1056.87 -0.848918 2.85653 0
M  V30 11273 H 1054.41 -0.407753 1.41336 0
M  V30 11274 H 1056.36 -3.30879 2.54116 0
M  V30 11275 H 1054.99 -2.86333 1.4904 0
M  V30 11276 H 1054.05 -1.50539 3.49345 0
M  V30 11277 H 1055.36 -2.17353 4.48953 0
M  V30 11278 H 1054.51 -4.49285 4.0771 0
M  V30 11279 H 1053.25 -3.85899 2.98216 0
M  V30 11280 H 1052.26 -2.54312 4.87448 0
M  V30 11281 H 1053.48 -3.20724 5.98593 0
M  V30 11282 H 1051.43 -4.8314 4.43747 0
M  V30 11283 H 1051.34 -4.43481 6.12259 0
M  V30 11284 H 1052.61 -5.47581 5.54775 0
M  V30 11285 N 1056.84 -1.516 -0.430713 0
M  V30 11286 C 1058.09 -1.64271 -1.17726 0
M  V30 11287 C 1058.41 -0.364406 -1.91565 0
M  V30 11288 O 1057.68 0.619991 -1.8583 0
M  V30 11289 H 1056.26 -0.605432 -0.437562 0
M  V30 11290 H 1058.92 -1.88557 -0.493166 0
M  V30 11291 H 1058.02 -2.47355 -1.90321 0
M  V30 11292 N 1058.32 0.686584 -1.41858 0
M  V30 11293 C 1059.25 1.81202 -1.40352 0
M  V30 11294 C 1060.26 1.5993 -0.304322 0
M  V30 11295 O 1061.45 1.69267 -0.566643 0
M  V30 11296 C 1058.55 3.18116 -1.16856 0
M  V30 11297 C 1057.73 3.66339 -2.38987 0
M  V30 11298 C 1056.79 4.8195 -2.11212 0
M  V30 11299 O 1055.81 4.93102 -2.84323 0
M  V30 11300 N 1057.01 5.69829 -1.10793 0
M  V30 11301 H 1059.78 1.82983 -2.37355 0
M  V30 11302 H 1057.34 0.869244 -1.36586 0
M  V30 11303 H 1059.33 3.93097 -0.962125 0
M  V30 11304 H 1057.9 3.11306 -0.284186 0
M  V30 11305 H 1057.12 2.82166 -2.75274 0
M  V30 11306 H 1058.41 3.95297 -3.2034 0
M  V30 11307 H 1057.81 5.63459 -0.503012 0
M  V30 11308 H 1056.36 6.44671 -0.961379 0
M  V30 11309 N 1059.8 1.27835 0.921735 0
M  V30 11310 C 1060.76 1.11108 2.00469 0
M  V30 11311 C 1061.76 0.053203 1.60712 0
M  V30 11312 O 1062.95 0.298308 1.71627 0
M  V30 11313 C 1060.08 0.694269 3.33755 0
M  V30 11314 H 1061.28 2.07279 2.16738 0
M  V30 11315 H 1058.83 1.10708 1.10333 0
M  V30 11316 H 1059.56 -0.268561 3.23186 0
M  V30 11317 H 1059.35 1.45836 3.6397 0
M  V30 11318 H 1060.84 0.59965 4.13272 0
M  V30 11319 N 1061.28 -1.12907 1.09954 0
M  V30 11320 C 1062.52 -1.83941 0.837255 0
M  V30 11321 C 1062.84 -1.84234 -0.638984 0
M  V30 11322 O 1062.11 -1.30193 -1.46378 0
M  V30 11323 H 1060.69 -0.681115 0.306743 0
M  V30 11324 H 1063.36 -1.36743 1.38879 0
M  V30 11325 H 1062.45 -2.88289 1.19565 0
M  V30 11326 N 1062.75 -0.88754 -1.30232 0
M  V30 11327 C 1064.16 -0.55745 -1.78184 0
M  V30 11328 C 1064.52 0.926474 -1.72948 0
M  V30 11329 O 1063.64 1.72403 -1.3079 0
M  V30 11330 C 1064.24 -1.00512 -3.23547 0
M  V30 11331 C 1062.79 -0.726402 -3.69324 0
M  V30 11332 C 1061.94 -1.18666 -2.50627 0
M  V30 11333 H 1064.89 -1.07151 -1.17066 0
M  V30 11334 H 1064.91 -0.335185 -3.79021 0
M  V30 11335 H 1064.43 -2.08517 -3.27326 0
M  V30 11336 H 1062.53 0.341548 -3.71031 0
M  V30 11337 H 1062.64 -1.31575 -4.60679 0
M  V30 11338 H 1061 -0.605936 -2.47387 0
M  V30 11339 H 1061.79 -2.2745 -2.57141 0
M  V30 11340 N 1064.23 1.43628 -0.648757 0
M  V30 11341 C 1065.48 2.02695 -0.169158 0
M  V30 11342 C 1065.83 1.50239 1.20191 0
M  V30 11343 O 1065.13 0.684018 1.78974 0
M  V30 11344 C 1065.32 3.57214 -0.115282 0
M  V30 11345 C 1065.15 4.24663 -1.47959 0
M  V30 11346 C 1063.92 4.60917 -2.07084 0
M  V30 11347 C 1066.12 4.53962 -2.41708 0
M  V30 11348 N 1064.1 5.13416 -3.36566 0
M  V30 11349 C 1065.47 5.07733 -3.55819 0
M  V30 11350 C 1067.53 4.35927 -2.40566 0
M  V30 11351 C 1066.23 5.45367 -4.69007 0
M  V30 11352 C 1068.25 4.7462 -3.52831 0
M  V30 11353 C 1067.62 5.2852 -4.65667 0
M  V30 11354 H 1063.72 0.774751 -0.106227 0
M  V30 11355 H 1066.3 1.74869 -0.85609 0
M  V30 11356 H 1064.47 3.84614 0.54098 0
M  V30 11357 H 1066.2 4.02961 0.374775 0
M  V30 11358 H 1062.96 4.45812 -1.59841 0
M  V30 11359 H 1063.38 5.44124 -4.02813 0
M  V30 11360 H 1068.02 3.93533 -1.54569 0
M  V30 11361 H 1065.74 5.86707 -5.55698 0
M  V30 11362 H 1069.33 4.62364 -3.53144 0
M  V30 11363 H 1068.21 5.57906 -5.511 0
M  V30 11364 N 1065.71 0.390394 1.52688 0
M  V30 11365 C 1066.96 -0.191067 2.01195 0
M  V30 11366 C 1067.28 -1.47229 1.27862 0
M  V30 11367 O 1066.55 -1.91793 0.399007 0
M  V30 11368 H 1065.13 -0.073596 0.743366 0
M  V30 11369 H 1067.79 0.522334 1.8777 0
M  V30 11370 H 1066.89 -0.40051 3.0952 0
M  V30 11371 N 1067.19 -1.57141 0.120249 0
M  V30 11372 C 1068.43 -1.97124 -0.540521 0
M  V30 11373 C 1068.79 -1.0022 -1.63768 0
M  V30 11374 O 1069.99 -1.29146 -2.35743 0
M  V30 11375 C 1068.26 -3.41371 -1.05833 0
M  V30 11376 S 1069.82 -4.03367 -1.72745 0
M  V30 11377 H 1066.64 -0.688962 -0.175646 0
M  V30 11378 H 1069.24 -1.94416 0.205625 0
M  V30 11379 H 1067.95 -4.09646 -0.248656 0
M  V30 11380 H 1067.48 -3.47732 -1.83972 0
M  V30 11381 H 1069.49 -3.94227 -3.0133 0
M  V30 11382 N 1068.67 0.153526 -1.5685 0
M  V30 11383 C 1069.91 0.873522 -1.84794 0
M  V30 11384 C 1070.27 1.78642 -0.703648 0
M  V30 11385 O 1071.47 2.54537 -0.863972 0
M  V30 11386 C 1069.74 1.63316 -3.17904 0
M  V30 11387 S 1071.3 2.39948 -3.67383 0
M  V30 11388 H 1068.12 0.292233 -0.648167 0
M  V30 11389 H 1070.72 0.133949 -1.95041 0
M  V30 11390 H 1069.43 0.95387 -3.99161 0
M  V30 11391 H 1068.96 2.41377 -3.10646 0
M  V30 11392 H 1070.97 3.65011 -3.36127 0
M  V30 11393 N 1070.14 1.51827 0.422667 0
M  V30 11394 C 1071.08 1.70409 1.53275 0
M  V30 11395 C 1072.09 0.584584 1.51942 0
M  V30 11396 O 1073.28 0.859349 1.56453 0
M  V30 11397 C 1070.38 1.717 2.92185 0
M  V30 11398 C 1069.55 3.00472 3.17861 0
M  V30 11399 C 1068.61 2.93755 4.36571 0
M  V30 11400 O 1067.64 3.67682 4.3451 0
M  V30 11401 N 1068.84 2.10612 5.40946 0
M  V30 11402 H 1071.6 2.66176 1.37734 0
M  V30 11403 H 1069.16 1.49895 0.611799 0
M  V30 11404 H 1071.16 1.64756 3.69645 0
M  V30 11405 H 1069.73 0.834655 3.01251 0
M  V30 11406 H 1068.95 3.21171 2.28567 0
M  V30 11407 H 1070.23 3.85684 3.31851 0
M  V30 11408 H 1069.63 1.49954 5.45463 0
M  V30 11409 H 1068.19 2.09535 6.17202 0
M  V30 11410 N 1071.62 -0.679052 1.4222 0
M  V30 11411 C 1072.59 -1.77448 1.45069 0
M  V30 11412 C 1073.59 -1.57189 0.338882 0
M  V30 11413 O 1074.78 -1.63559 0.599519 0
M  V30 11414 C 1071.91 -3.1603 1.27819 0
M  V30 11415 H 1073.1 -1.7631 2.426 0
M  V30 11416 H 1070.65 -0.888277 1.28605 0
M  V30 11417 H 1071.39 -3.22796 0.311946 0
M  V30 11418 H 1071.17 -3.32138 2.08391 0
M  V30 11419 H 1072.66 -3.9596 1.32686 0
M  V30 11420 N 1073.1 -1.28322 -0.914942 0
M  V30 11421 C 1074.38 -1.06111 -1.64316 0
M  V30 11422 C 1074.76 0.399934 -2.07277 0
M  V30 11423 O 1074.11 1.38577 -1.81683 0
M  V30 11424 C 1074.32 -2.03461 -2.83557 0
M  V30 11425 C 1075.66 -2.33541 -3.54604 0
M  V30 11426 O 1076.69 -2.01536 -2.93704 0
M  V30 11427 O 1075.55 -2.88158 -4.64357 0
M  V30 11428 H 1072.64 -0.405451 -0.72079 0
M  V30 11429 H 1075.19 -1.39636 -0.964352 0
M  V30 11430 H 1073.96 -3.01938 -2.48896 0
M  V30 11431 H 1073.58 -1.70574 -3.59152 0
M  V30 11432 N 1074.58 1.12322 -1.10551 0
M  V30 11433 C 1075.54 2.16273 -0.758844 0
M  V30 11434 C 1076.54 1.59325 0.217294 0
M  V30 11435 O 1077.73 1.74199 -0.00601346 0
M  V30 11436 C 1074.86 3.40674 -0.124238 0
M  V30 11437 H 1076.06 2.48454 -1.6796 0
M  V30 11438 H 1073.61 1.2735 -0.906188 0
M  V30 11439 H 1074.34 3.14094 0.807194 0
M  V30 11440 H 1074.13 3.83284 -0.826772 0
M  V30 11441 H 1075.62 4.17474 0.102502 0
M  V30 11442 N 1076.06 0.894434 1.2976 0
M  V30 11443 C 1077.29 0.532143 1.99629 0
M  V30 11444 C 1077.69 -0.886234 1.6716 0
M  V30 11445 O 1077.04 -1.59573 0.910065 0
M  V30 11446 C 1077.1 0.638335 3.53787 0
M  V30 11447 C 1076.76 2.02273 4.09798 0
M  V30 11448 C 1077.76 2.99327 4.25087 0
M  V30 11449 C 1075.45 2.33069 4.44954 0
M  V30 11450 C 1077.44 4.25304 4.74758 0
M  V30 11451 C 1075.13 3.59289 4.94322 0
M  V30 11452 C 1076.12 4.55222 5.09178 0
M  V30 11453 O 1075.81 5.79202 5.57477 0
M  V30 11454 H 1075.54 0.203326 0.644697 0
M  V30 11455 H 1078.1 1.2043 1.6639 0
M  V30 11456 H 1076.33 -0.0908338 3.86593 0
M  V30 11457 H 1078.02 0.285956 4.04891 0
M  V30 11458 H 1078.78 2.76849 3.9822 0
M  V30 11459 H 1074.66 1.59162 4.32653 0
M  V30 11460 H 1078.21 5.00189 4.86269 0
M  V30 11461 H 1074.1 3.816 5.20626 0
M  V30 11462 H 1074.87 5.81717 5.75802 0
M  V30 11463 N 1077.53 -1.43282 0.656365 0
M  V30 11464 C 1078.81 -1.9534 0.100816 0
M  V30 11465 C 1079.19 -1.59755 -1.37992 0
M  V30 11466 O 1078.54 -0.884264 -2.10697 0
M  V30 11467 C 1078.75 -3.47237 0.35038 0
M  V30 11468 C 1080.1 -4.23822 0.257001 0
M  V30 11469 O 1081.12 -3.55073 0.283111 0
M  V30 11470 O 1079.98 -5.46192 0.183397 0
M  V30 11471 H 1077.07 -0.826963 -0.00780287 0
M  V30 11472 H 1079.62 -1.53205 0.72982 0
M  V30 11473 H 1078.39 -3.66276 1.37685 0
M  V30 11474 H 1078.02 -3.96378 -0.311539 0
M  V30 11475 N 1079.01 -0.398486 -1.52479 0
M  V30 11476 C 1080.42 0.0735015 -1.86555 0
M  V30 11477 C 1080.78 1.45361 -1.31775 0
M  V30 11478 O 1079.9 2.0632 -0.652759 0
M  V30 11479 C 1080.5 0.140152 -3.3851 0
M  V30 11480 C 1079.05 0.556451 -3.72264 0
M  V30 11481 C 1078.2 -0.275792 -2.75925 0
M  V30 11482 H 1081.15 -0.615991 -1.46257 0
M  V30 11483 H 1081.17 0.957507 -3.68255 0
M  V30 11484 H 1080.69 -0.864442 -3.7835 0
M  V30 11485 H 1078.79 1.56808 -3.37997 0
M  V30 11486 H 1078.9 0.308227 -4.78107 0
M  V30 11487 H 1077.26 0.260304 -2.53366 0
M  V30 11488 H 1078.05 -1.27854 -3.18604 0
M  V30 11489 N 1080.49 1.57075 -0.12858 0
M  V30 11490 C 1081.73 1.97408 0.530059 0
M  V30 11491 C 1082.1 1.01087 1.63234 0
M  V30 11492 O 1083.3 1.30394 2.35055 0
M  V30 11493 C 1081.57 3.41928 1.04021 0
M  V30 11494 S 1083.13 4.04277 1.70603 0
M  V30 11495 H 1079.94 0.689884 0.17199 0
M  V30 11496 H 1082.55 1.94304 -0.215933 0
M  V30 11497 H 1081.25 4.09772 0.226928 0
M  V30 11498 H 1080.78 3.48703 1.82125 0
M  V30 11499 H 1082.8 3.95819 2.99235 0
M  V30 11500 N 1081.97 -0.145205 1.5693 0
M  V30 11501 C 1082.9 -1.18096 2.01434 0
M  V30 11502 C 1083.88 -1.447 0.894204 0
M  V30 11503 O 1085.07 -1.55589 1.16214 0
M  V30 11504 C 1082.2 -2.51369 2.39647 0
M  V30 11505 C 1081.15 -2.39283 3.54863 0
M  V30 11506 C 1080.48 -3.77283 3.78895 0
M  V30 11507 C 1081.78 -1.8754 4.87469 0
M  V30 11508 H 1083.47 -0.810897 2.8821 0
M  V30 11509 H 1081.02 -0.388624 1.38657 0
M  V30 11510 H 1082.97 -3.24054 2.69382 0
M  V30 11511 H 1081.69 -2.90214 1.49811 0
M  V30 11512 H 1080.35 -1.6905 3.25296 0
M  V30 11513 H 1080 -4.13567 2.86307 0
M  V30 11514 H 1079.7 -3.70057 4.56433 0
M  V30 11515 H 1081.22 -4.51514 4.11057 0
M  V30 11516 H 1082.64 -2.50019 5.1591 0
M  V30 11517 H 1081.03 -1.912 5.68826 0
M  V30 11518 H 1082.1 -0.831194 4.77723 0
M  V30 11519 N 1083.45 -1.52049 -0.414609 0
M  V30 11520 C 1084.38 -1.7122 -1.52369 0
M  V30 11521 C 1085.39 -0.592634 -1.5163 0
M  V30 11522 O 1086.58 -0.867634 -1.55995 0
M  V30 11523 C 1083.68 -1.73247 -2.91271 0
M  V30 11524 C 1082.85 -3.02153 -3.16263 0
M  V30 11525 C 1081.91 -2.96066 -4.35007 0
M  V30 11526 O 1080.94 -3.69981 -4.32554 0
M  V30 11527 N 1082.14 -2.13478 -5.39822 0
M  V30 11528 H 1084.91 -2.66902 -1.3632 0
M  V30 11529 H 1082.47 -1.50218 -0.603842 0
M  V30 11530 H 1084.46 -1.66714 -3.68766 0
M  V30 11531 H 1083.03 -0.85062 -3.00804 0
M  V30 11532 H 1082.25 -3.22379 -2.2686 0
M  V30 11533 H 1083.54 -3.87439 -3.29801 0
M  V30 11534 H 1082.94 -1.52844 -5.44661 0
M  V30 11535 H 1081.49 -2.12805 -6.16082 0
M  V30 11536 N 1084.93 0.6715 -1.42579 0
M  V30 11537 C 1086.17 1.44353 -1.44712 0
M  V30 11538 C 1086.53 1.91898 -0.0626628 0
M  V30 11539 O 1087.73 2.68768 0.0412789 0
M  V30 11540 C 1086 2.60616 -2.44569 0
M  V30 11541 S 1087.56 3.49416 -2.65431 0
M  V30 11542 H 1084.38 0.492985 -0.512334 0
M  V30 11543 H 1086.98 0.781349 -1.79207 0
M  V30 11544 H 1085.68 2.23931 -3.43923 0
M  V30 11545 H 1085.22 3.31703 -2.1151 0
M  V30 11546 H 1087.23 4.56712 -1.9398 0
M  V30 11547 N 1086.4 1.28806 0.908124 0
M  V30 11548 C 1087.82 1.06634 1.18749 0
M  V30 11549 C 1088.02 -0.187729 2.00624 0
M  V30 11550 O 1087.08 -0.88784 2.36376 0
M  V30 11551 C 1088.39 2.31703 1.91661 0
M  V30 11552 C 1089.94 2.36939 2.04521 0
M  V30 11553 C 1090.41 3.61789 2.80843 0
M  V30 11554 N 1091.9 3.62462 2.88402 0
M  V30 11555 C 1092.64 4.55746 3.47971 0
M  V30 11556 N 1092.13 5.59353 4.08774 0
M  V30 11557 N 1093.93 4.43331 3.45564 0
M  V30 11558 H 1086.08 2.09299 0.36164 0
M  V30 11559 H 1088.34 0.921479 0.222668 0
M  V30 11560 H 1088.05 3.23096 1.38931 0
M  V30 11561 H 1087.92 2.38556 2.92183 0
M  V30 11562 H 1090.31 1.4604 2.5643 0
M  V30 11563 H 1090.39 2.34077 1.03159 0
M  V30 11564 H 1090.03 4.53035 2.29612 0
M  V30 11565 H 1089.96 3.61907 3.82532 0
M  V30 11566 H 1092.45 2.87544 2.45208 0
M  V30 11567 H 1092.77 6.26668 4.52224 0
M  V30 11568 H 1091.11 5.63173 4.07261 0
M  V30 11569 H 1094.3 3.61587 2.97276 0
M  V30 11570 H 1094.48 5.16216 3.91695 0
M  V30 11571 N 1087.88 -1.11734 1.11145 0
M  V30 11572 C 1089.29 -1.64928 0.874959 0
M  V30 11573 C 1089.64 -1.87012 -0.593375 0
M  V30 11574 O 1088.77 -1.60206 -1.45475 0
M  V30 11575 C 1089.36 -2.99608 1.58178 0
M  V30 11576 C 1087.92 -3.49723 1.39179 0
M  V30 11577 C 1087.07 -2.24595 1.62642 0
M  V30 11578 H 1090.02 -0.954154 1.26813 0
M  V30 11579 H 1090.04 -3.66434 1.02501 0
M  V30 11580 H 1089.55 -2.83504 2.65042 0
M  V30 11581 H 1087.65 -3.70998 0.345111 0
M  V30 11582 H 1087.77 -4.28711 2.13878 0
M  V30 11583 H 1086.13 -2.32067 1.04961 0
M  V30 11584 H 1086.91 -2.11036 2.70774 0
M  V30 11585 N 1089.36 -0.901303 -1.29284 0
M  V30 11586 C 1090.27 -0.3849 -2.31421 0
M  V30 11587 C 1091.29 0.521163 -1.66012 0
M  V30 11588 O 1092.46 0.410356 -1.97175 0
M  V30 11589 C 1089.53 0.377804 -3.44635 0
M  V30 11590 C 1088.59 -0.559974 -4.25632 0
M  V30 11591 C 1087.82 0.166425 -5.3344 0
M  V30 11592 O 1088.04 1.39012 -5.53202 0
M  V30 11593 O 1086.98 -0.491875 -5.99887 0
M  V30 11594 H 1090.8 -1.2323 -2.77575 0
M  V30 11595 H 1088.39 -0.665683 -1.3375 0
M  V30 11596 H 1090.27 0.809041 -4.13561 0
M  V30 11597 H 1088.95 1.20124 -3.00586 0
M  V30 11598 H 1087.85 -1.04036 -3.59343 0
M  V30 11599 H 1089.19 -1.34987 -4.73328 0
M  V30 11600 N 1090.84 1.42931 -0.663954 0
M  V30 11601 C 1091.77 2.29122 0.0598878 0
M  V30 11602 C 1092.78 1.43094 0.776404 0
M  V30 11603 O 1093.97 1.66923 0.63237 0
M  V30 11604 C 1091.07 3.20268 1.10822 0
M  V30 11605 C 1090.24 4.34892 0.4677 0
M  V30 11606 C 1089.3 5.06836 1.41435 0
M  V30 11607 O 1088.33 5.61735 0.918818 0
M  V30 11608 N 1089.53 5.11336 2.74801 0
M  V30 11609 H 1092.3 2.91885 -0.679945 0
M  V30 11610 H 1089.86 1.53739 -0.507543 0
M  V30 11611 H 1091.85 3.65264 1.74255 0
M  V30 11612 H 1090.42 2.59031 1.7499 0
M  V30 11613 H 1089.64 3.92679 -0.34593 0
M  V30 11614 H 1090.93 5.08796 0.0210237 0
M  V30 11615 H 1090.33 4.68124 3.1761 0
M  V30 11616 H 1088.88 5.60013 3.33509 0
M  V30 11617 N 1092.32 0.406567 1.52266 0
M  V30 11618 C 1093.55 -0.169378 2.05905 0
M  V30 11619 C 1093.95 -1.39626 1.27676 0
M  V30 11620 O 1093.3 -1.80871 0.32114 0
M  V30 11621 C 1093.36 -0.587209 3.54672 0
M  V30 11622 C 1093.02 0.528588 4.53933 0
M  V30 11623 C 1094.02 1.39137 5.00936 0
M  V30 11624 C 1091.7 0.700549 4.97391 0
M  V30 11625 C 1093.7 2.41108 5.90039 0
M  V30 11626 C 1091.39 1.72357 5.8629 0
M  V30 11627 C 1092.38 2.57725 6.32509 0
M  V30 11628 O 1092.07 3.58275 7.19649 0
M  V30 11629 H 1091.8 -0.0250574 0.675535 0
M  V30 11630 H 1094.36 0.575377 1.97177 0
M  V30 11631 H 1092.59 -1.38421 3.61077 0
M  V30 11632 H 1094.28 -1.09078 3.90969 0
M  V30 11633 H 1095.04 1.26991 4.68079 0
M  V30 11634 H 1090.92 0.0457503 4.60977 0
M  V30 11635 H 1094.47 3.07774 6.26036 0
M  V30 11636 H 1090.36 1.84535 6.1856 0
M  V30 11637 H 1091.13 3.54489 7.37753 0
M  V30 11638 N 1093.79 -1.57004 0.136909 0
M  V30 11639 C 1095.04 -1.9541 -0.51569 0
M  V30 11640 C 1095.36 -1.02219 -1.66061 0
M  V30 11641 O 1094.63 -0.0818172 -1.95729 0
M  V30 11642 H 1093.21 -0.721504 -0.193497 0
M  V30 11643 H 1095.88 -1.93765 0.210046 0
M  V30 11644 H 1094.97 -2.98887 -0.898494 0
M  V30 11645 N 1095.27 0.136881 -1.57004 0
M  V30 11646 C 1096.5 0.866405 -1.88436 0
M  V30 11647 C 1096.92 1.73483 -0.727006 0
M  V30 11648 O 1096.28 1.78398 0.323094 0
M  V30 11649 C 1096.33 1.69059 -3.18514 0
M  V30 11650 O 1095.43 2.79584 -3.03161 0
M  V30 11651 H 1094.77 0.240709 -0.618834 0
M  V30 11652 H 1097.3 0.124653 -2.0422 0
M  V30 11653 H 1097.31 2.08353 -3.50789 0
M  V30 11654 H 1095.99 1.05296 -4.0235 0
M  V30 11655 H 1094.57 2.43623 -2.82315 0
M  V30 11656 N 1096.75 1.52266 0.40654 0
M  V30 11657 C 1097.68 1.78755 1.50229 0
M  V30 11658 C 1098.66 0.638652 1.57655 0
M  V30 11659 O 1099.85 0.884505 1.72888 0
M  V30 11660 C 1096.98 1.94057 2.88026 0
M  V30 11661 C 1095.93 3.09667 2.95449 0
M  V30 11662 C 1095.26 3.10196 4.35526 0
M  V30 11663 C 1096.56 4.49077 2.66697 0
M  V30 11664 H 1098.25 2.70511 1.28313 0
M  V30 11665 H 1095.8 1.30167 0.615836 0
M  V30 11666 H 1097.75 2.11171 3.64671 0
M  V30 11667 H 1096.47 0.989755 3.11242 0
M  V30 11668 H 1095.13 2.92308 2.2125 0
M  V30 11669 H 1094.78 2.12831 4.55754 0
M  V30 11670 H 1094.48 3.87847 4.41416 0
M  V30 11671 H 1096 3.29443 5.14101 0
M  V30 11672 H 1097.42 4.66628 3.33064 0
M  V30 11673 H 1095.82 5.28665 2.8396 0
M  V30 11674 H 1096.89 4.56995 1.62122 0
M  V30 11675 N 1098.23 -0.663929 1.42933 0
M  V30 11676 C 1099.51 -1.42054 1.34462 0
M  V30 11677 C 1099.89 -2.11096 -0.0127801 0
M  V30 11678 O 1099.23 -2.04027 -1.02884 0
M  V30 11679 C 1099.44 -2.41406 2.5204 0
M  V30 11680 C 1100.79 -3.05726 2.94647 0
M  V30 11681 O 1101.82 -2.51733 2.52009 0
M  V30 11682 O 1100.67 -4.03593 3.68477 0
M  V30 11683 H 1097.77 -0.634149 0.530834 0
M  V30 11684 H 1100.31 -0.691738 1.54962 0
M  V30 11685 H 1099.09 -1.89263 3.42484 0
M  V30 11686 H 1098.71 -3.21752 2.33584 0
M  V30 11687 N 1099.71 -1.29285 -0.901281 0
M  V30 11688 C 1100.96 -1.16538 -1.64626 0
M  V30 11689 C 1101.27 0.282623 -1.93547 0
M  V30 11690 O 1102.47 0.531396 -2.66249 0
M  V30 11691 C 1100.93 -2.03809 -2.96631 0
M  V30 11692 C 1100.54 -3.53423 -2.75311 0
M  V30 11693 C 1102.28 -1.99782 -3.7455 0
M  V30 11694 C 1100.19 -4.32804 -4.03032 0
M  V30 11695 H 1099.12 -0.432561 -0.617581 0
M  V30 11696 H 1101.77 -1.53912 -0.999159 0
M  V30 11697 H 1100.15 -1.59302 -3.62545 0
M  V30 11698 H 1101.33 -4.05971 -2.18 0
M  V30 11699 H 1099.64 -3.59106 -2.10789 0
M  V30 11700 H 1102.24 -2.5635 -4.69243 0
M  V30 11701 H 1102.58 -0.97743 -4.04663 0
M  V30 11702 H 1103.11 -2.42324 -3.15474 0
M  V30 11703 H 1099.85 -5.35473 -3.78086 0
M  V30 11704 H 1099.37 -3.85025 -4.59909 0
M  V30 11705 H 1101.05 -4.43383 -4.71191 0
M  V30 11706 N 1101.18 1.11143 -1.11736 0
M  V30 11707 C 1102.6 1.64462 -0.883693 0
M  V30 11708 C 1102.95 1.87324 0.583448 0
M  V30 11709 O 1102.07 1.60975 1.44623 0
M  V30 11710 C 1102.67 2.98765 -1.59764 0
M  V30 11711 C 1101.23 3.4898 -1.41032 0
M  V30 11712 C 1100.37 2.23729 -1.63831 0
M  V30 11713 H 1103.32 0.947415 -1.27317 0
M  V30 11714 H 1103.34 3.65885 -1.04443 0
M  V30 11715 H 1102.86 2.82094 -2.66542 0
M  V30 11716 H 1100.96 3.7081 -0.364781 0
M  V30 11717 H 1101.07 4.27571 -2.16148 0
M  V30 11718 H 1099.43 2.31507 -1.06191 0
M  V30 11719 H 1100.22 2.09597 -2.7189 0
M  V30 11720 N 1102.66 0.908147 1.28804 0
M  V30 11721 C 1103.89 0.553431 1.9988 0
M  V30 11722 C 1104.31 -0.856714 1.67458 0
M  V30 11723 O 1103.67 -1.57163 0.903849 0
M  V30 11724 C 1103.72 0.762688 3.52442 0
M  V30 11725 O 1102.82 -0.180924 4.12003 0
M  V30 11726 H 1102.16 0.215237 0.628147 0
M  V30 11727 H 1104.69 1.22205 1.64095 0
M  V30 11728 H 1104.7 0.670612 4.02451 0
M  V30 11729 H 1103.38 1.79071 3.75375 0
M  V30 11730 H 1101.96 -0.0405897 3.72878 0
M  V30 11731 N 1104.14 -1.42577 0.671525 0
M  V30 11732 C 1105.1 -2.292 0.000392482 0
M  V30 11733 C 1106.1 -1.43158 -0.732294 0
M  V30 11734 O 1107.29 -1.64583 -0.570789 0
M  V30 11735 C 1104.43 -3.25591 -1.01013 0
M  V30 11736 H 1105.62 -2.90037 0.762783 0
M  V30 11737 H 1103.17 -1.50162 0.433703 0
M  V30 11738 H 1103.91 -2.69685 -1.80112 0
M  V30 11739 H 1103.69 -3.89049 -0.488183 0
M  V30 11740 H 1105.18 -3.90561 -1.47824 0
M  V30 11741 N 1105.62 -0.414636 -1.52048 0
M  V30 11742 C 1106.53 0.414861 -2.30903 0
M  V30 11743 C 1107.54 1.04855 -1.38858 0
M  V30 11744 O 1108.72 1.04886 -1.71933 0
M  V30 11745 C 1105.79 1.51356 -3.11917 0
M  V30 11746 C 1104.85 0.902359 -4.19709 0
M  V30 11747 C 1104.08 1.9487 -4.96852 0
M  V30 11748 O 1104.3 3.16766 -4.74358 0
M  V30 11749 O 1103.24 1.55186 -5.8155 0
M  V30 11750 H 1107.06 -0.228251 -3.02841 0
M  V30 11751 H 1104.65 -0.177704 -1.48339 0
M  V30 11752 H 1106.53 2.15127 -3.62351 0
M  V30 11753 H 1105.2 2.14117 -2.42767 0
M  V30 11754 H 1104.11 0.22721 -3.73409 0
M  V30 11755 H 1105.44 0.318587 -4.91168 0
M  V30 11756 N 1107.1 1.56929 -0.145233 0
M  V30 11757 C 1108.51 1.82877 0.375884 0
M  V30 11758 C 1108.86 1.06384 1.64854 0
M  V30 11759 O 1107.98 0.30857 2.14189 0
M  V30 11760 C 1108.58 3.31725 0.688744 0
M  V30 11761 C 1107.14 3.58261 1.15439 0
M  V30 11762 C 1106.28 2.76737 0.176565 0
M  V30 11763 H 1109.24 1.54328 -0.36996 0
M  V30 11764 H 1109.26 3.47784 1.54359 0
M  V30 11765 H 1108.77 3.87371 -0.237694 0
M  V30 11766 H 1106.87 3.08 2.09683 0
M  V30 11767 H 1106.98 4.66732 1.08158 0
M  V30 11768 H 1105.35 2.45761 0.668843 0
M  V30 11769 H 1106.13 3.35154 -0.743432 0
M  V30 11770 N 1108.58 -0.128553 1.57075 0
M  V30 11771 C 1109.82 -0.839252 1.8462 0
M  V30 11772 C 1110.15 -1.79974 0.729582 0
M  V30 11773 O 1109.43 -1.92681 -0.265369 0
M  V30 11774 C 1109.71 -1.59756 3.22723 0
M  V30 11775 C 1109.57 -0.657313 4.44971 0
M  V30 11776 C 1110.88 -2.55592 3.58275 0
M  V30 11777 H 1108 -0.303652 0.671539 0
M  V30 11778 H 1110.65 -0.103802 1.89716 0
M  V30 11779 H 1108.8 -2.22451 3.18509 0
M  V30 11780 H 1110.47 -0.0399471 4.61283 0
M  V30 11781 H 1108.71 0.0318416 4.33788 0
M  V30 11782 H 1109.38 -1.22433 5.38251 0
M  V30 11783 H 1111.86 -2.03007 3.63218 0
M  V30 11784 H 1110.73 -3.05687 4.55902 0
M  V30 11785 H 1110.99 -3.37813 2.85193 0
M  V30 11786 N 1110.05 -1.5248 -0.398459 0
M  V30 11787 C 1111.3 -1.66731 -1.14215 0
M  V30 11788 C 1111.62 -0.404957 -1.90749 0
M  V30 11789 O 1110.89 0.580434 -1.87104 0
M  V30 11790 H 1109.47 -0.614577 -0.424622 0
M  V30 11791 H 1112.13 -1.89561 -0.453059 0
M  V30 11792 H 1111.23 -2.51336 -1.85031 0
M  V30 11793 N 1111.53 0.65634 -1.43283 0
M  V30 11794 C 1112.95 0.971645 -1.26614 0
M  V30 11795 C 1113.15 2.00662 -0.183612 0
M  V30 11796 O 1112.2 2.48654 0.439003 0
M  V30 11797 C 1113.52 1.45888 -2.6294 0
M  V30 11798 C 1115.06 1.57569 -2.70446 0
M  V30 11799 C 1115.54 2.09684 -4.07181 0
M  V30 11800 N 1117.03 2.16991 -4.0923 0
M  V30 11801 C 1117.77 2.5843 -5.11861 0
M  V30 11802 N 1117.26 2.99188 -6.24867 0
M  V30 11803 N 1119.05 2.58342 -4.99215 0
M  V30 11804 H 1111.21 -0.028573 -2.12381 0
M  V30 11805 H 1113.47 0.0497918 -0.946691 0
M  V30 11806 H 1113.17 0.772823 -3.43104 0
M  V30 11807 H 1113.05 2.43445 -2.88122 0
M  V30 11808 H 1115.44 2.25277 -1.90616 0
M  V30 11809 H 1115.52 0.584529 -2.49032 0
M  V30 11810 H 1115.16 1.42579 -4.87477 0
M  V30 11811 H 1115.09 3.09625 -4.25958 0
M  V30 11812 H 1117.58 1.88278 -3.27658 0
M  V30 11813 H 1117.89 3.29549 -6.99012 0
M  V30 11814 H 1116.24 2.97 -6.28344 0
M  V30 11815 H 1119.43 2.25875 -4.09998 0
M  V30 11816 H 1119.6 2.90316 -5.79328 0
M  V30 11817 N 1113.01 1.29761 0.894412 0
M  V30 11818 C 1114.23 1.21064 1.68399 0
M  V30 11819 C 1114.66 -0.224608 1.86754 0
M  V30 11820 O 1114.02 -1.16199 1.39167 0
M  V30 11821 C 1114.07 1.93468 3.04306 0
M  V30 11822 O 1113.17 1.25533 3.9283 0
M  V30 11823 H 1112.51 0.419223 0.514925 0
M  V30 11824 H 1115.04 1.71421 1.11696 0
M  V30 11825 H 1115.05 2.02127 3.54413 0
M  V30 11826 H 1113.73 2.97857 2.90265 0
M  V30 11827 H 1112.3 1.25168 3.51266 0
M  V30 11828 N 1114.49 -1.10549 1.12324 0
M  V30 11829 C 1115.9 -1.63991 0.892402 0
M  V30 11830 C 1116.25 -1.87631 -0.573506 0
M  V30 11831 O 1115.37 -1.6174 -1.43768 0
M  V30 11832 C 1115.97 -2.97914 1.61347 0
M  V30 11833 C 1114.53 -3.48227 1.42881 0
M  V30 11834 C 1113.68 -2.22857 1.65015 0
M  V30 11835 H 1116.63 -0.94065 1.27818 0
M  V30 11836 H 1116.65 -3.65326 1.06382 0
M  V30 11837 H 1116.16 -2.80677 2.68034 0
M  V30 11838 H 1114.26 -3.70611 0.384441 0
M  V30 11839 H 1114.37 -4.26419 2.18413 0
M  V30 11840 H 1112.74 -2.30941 1.07417 0
M  V30 11841 H 1113.52 -2.08152 2.72997 0
M  V30 11842 N 1115.97 -0.914965 -1.28321 0
M  V30 11843 C 1117.24 -0.46764 -1.89928 0
M  V30 11844 C 1117.62 1.05364 -1.82925 0
M  V30 11845 O 1116.97 1.90223 -1.26599 0
M  V30 11846 C 1117.18 -0.999372 -3.34385 0
M  V30 11847 C 1118.53 -1.0522 -4.11356 0
M  V30 11848 O 1119.55 -0.9481 -3.4335 0
M  V30 11849 O 1118.41 -1.21085 -5.32917 0
M  V30 11850 H 1115.51 -0.148398 -0.813577 0
M  V30 11851 H 1118.05 -1.00583 -1.36679 0
M  V30 11852 H 1116.82 -2.04333 -3.33712 0
M  V30 11853 H 1116.45 -0.442083 -3.95135 0
M  V30 11854 N 1117.44 1.42219 -0.679077 0
M  V30 11855 C 1118.37 2.33493 -0.0174528 0
M  V30 11856 C 1119.35 1.50915 0.78477 0
M  V30 11857 O 1120.54 1.79504 0.741065 0
M  V30 11858 C 1117.67 3.34576 0.931463 0
M  V30 11859 C 1116.62 4.2734 0.237527 0
M  V30 11860 C 1115.95 5.18664 1.29967 0
M  V30 11861 C 1117.25 5.14729 -0.886082 0
M  V30 11862 H 1118.94 2.89068 -0.779748 0
M  V30 11863 H 1116.49 1.38993 -0.376419 0
M  V30 11864 H 1118.44 3.97343 1.40343 0
M  V30 11865 H 1117.17 2.77315 1.72523 0
M  V30 11866 H 1115.83 3.65973 -0.214245 0
M  V30 11867 H 1115.47 4.57727 2.08554 0
M  V30 11868 H 1115.17 5.81558 0.840463 0
M  V30 11869 H 1116.7 5.84308 1.77249 0
M  V30 11870 H 1118.11 5.71158 -0.495141 0
M  V30 11871 H 1116.51 5.86478 -1.27135 0
M  V30 11872 H 1117.58 4.52874 -1.733 0
M  V30 11873 N 1118.92 0.422693 1.51826 0
M  V30 11874 C 1120.15 -0.15017 2.06856 0
M  V30 11875 C 1120.57 -1.36946 1.28948 0
M  V30 11876 O 1119.93 -1.78393 0.32338 0
M  V30 11877 C 1119.98 -0.465563 3.57582 0
M  V30 11878 O 1119.08 -1.55442 3.81984 0
M  V30 11879 H 1118.42 -0.00827931 0.663948 0
M  V30 11880 H 1120.95 0.599806 1.95611 0
M  V30 11881 H 1120.96 -0.720279 4.01592 0
M  V30 11882 H 1119.64 0.425679 4.13716 0
M  V30 11883 H 1118.21 -1.29081 3.49846 0
M  V30 11884 N 1120.4 -1.5685 0.153553 0
M  V30 11885 C 1121.35 -2.1709 -0.783626 0
M  V30 11886 C 1122.32 -1.10567 -1.23952 0
M  V30 11887 O 1123.5 -1.38638 -1.31088 0
M  V30 11888 C 1120.64 -2.80183 -2.01473 0
M  V30 11889 C 1119.75 -4.01117 -1.60403 0
M  V30 11890 C 1118.89 -4.5219 -2.78743 0
M  V30 11891 C 1117.93 -5.65574 -2.34079 0
M  V30 11892 N 1117.07 -6.11235 -3.4545 0
M  V30 11893 H 1121.91 -2.96836 -0.263127 0
M  V30 11894 H 1119.44 -1.46625 -0.11816 0
M  V30 11895 H 1121.4 -3.14912 -2.73654 0
M  V30 11896 H 1120.03 -2.03071 -2.50923 0
M  V30 11897 H 1119.08 -3.72325 -0.779631 0
M  V30 11898 H 1120.39 -4.83243 -1.23605 0
M  V30 11899 H 1119.55 -4.89008 -3.59105 0
M  V30 11900 H 1118.29 -3.69085 -3.18791 0
M  V30 11901 H 1117.29 -5.28326 -1.52158 0
M  V30 11902 H 1118.52 -6.50468 -1.95109 0
M  V30 11903 H 1116.46 -5.31064 -3.85106 0
M  V30 11904 H 1116.38 -6.88304 -3.12687 0
M  V30 11905 H 1117.65 -6.527 -4.26149 0
M  V30 11906 N 1121.88 0.120221 -1.57141 0
M  V30 11907 C 1123.1 0.84637 -1.89344 0
M  V30 11908 C 1123.53 1.72702 -0.745365 0
M  V30 11909 O 1122.89 1.7873 0.304155 0
M  V30 11910 C 1122.93 1.65671 -3.20289 0
M  V30 11911 O 1122.04 2.76353 -3.06109 0
M  V30 11912 H 1121.38 0.234132 -0.621352 0
M  V30 11913 H 1123.91 0.102986 -2.04341 0
M  V30 11914 H 1123.92 2.04621 -3.52979 0
M  V30 11915 H 1122.59 1.01023 -4.03444 0
M  V30 11916 H 1121.17 2.40615 -2.84884 0
M  V30 11917 N 1123.36 1.52689 0.390367 0
M  V30 11918 C 1124.77 1.59623 0.968366 0
M  V30 11919 C 1125.12 0.44824 1.91011 0
M  V30 11920 O 1124.24 -0.428868 2.12108 0
M  V30 11921 C 1124.84 2.89312 1.76306 0
M  V30 11922 C 1123.4 2.98664 2.29079 0
M  V30 11923 C 1122.54 2.54725 1.09593 0
M  V30 11924 H 1125.5 1.57787 0.169959 0
M  V30 11925 H 1125.52 2.75721 2.62217 0
M  V30 11926 H 1125.03 3.72846 1.07738 0
M  V30 11927 H 1123.13 2.19665 3.00962 0
M  V30 11928 H 1123.24 4.03277 2.58659 0
M  V30 11929 H 1121.61 2.09012 1.45554 0
M  V30 11930 H 1122.39 3.40651 0.425625 0
M  V30 11931 N 1124.83 -0.648732 1.43629 0
M  V30 11932 C 1125.8 -1.74331 1.488 0
M  V30 11933 C 1126.8 -1.56434 0.372147 0
M  V30 11934 O 1127.99 -1.6225 0.634078 0
M  V30 11935 C 1125.12 -3.13248 1.34494 0
M  V30 11936 H 1126.31 -1.71125 2.46285 0
M  V30 11937 H 1123.87 -0.860798 1.30461 0
M  V30 11938 H 1124.6 -3.22062 0.380345 0
M  V30 11939 H 1124.39 -3.27643 2.15389 0
M  V30 11940 H 1125.88 -3.93056 1.41055 0
M  V30 11941 N 1126.31 -1.30234 -0.887518 0
M  V30 11942 C 1127.26 -1.13013 -1.9802 0
M  V30 11943 C 1128.25 -0.0460253 -1.60834 0
M  V30 11944 O 1129.44 -0.26907 -1.74943 0
M  V30 11945 C 1126.57 -0.821397 -3.33329 0
M  V30 11946 C 1125.65 -1.94564 -3.76837 0
M  V30 11947 N 1126.04 -3.19068 -3.92465 0
M  V30 11948 C 1124.34 -1.84142 -4.06211 0
M  V30 11949 C 1125.04 -3.92495 -4.29328 0
M  V30 11950 N 1124.02 -3.20526 -4.39049 0
M  V30 11951 H 1127.82 -2.07446 -2.0819 0
M  V30 11952 H 1125.34 -1.21536 -1.07716 0
M  V30 11953 H 1127.33 -0.679046 -4.11333 0
M  V30 11954 H 1125.99 0.114891 -3.24497 0
M  V30 11955 H 1127 -3.54386 -3.77665 0
M  V30 11956 H 1123.68 -0.97865 -4.05868 0
M  V30 11957 H 1125.07 -4.99701 -4.49164 0
M  V30 11958 N 1127.79 1.09952 -1.12909 0
M  V30 11959 C 1128.74 2.18525 -0.796849 0
M  V30 11960 C 1129.73 1.67985 0.218483 0
M  V30 11961 O 1130.94 1.79839 0.07618 0
M  V30 11962 H 1127.31 0.712714 -0.239882 0
M  V30 11963 H 1129.28 2.43783 -1.72083 0
M  V30 11964 C 1128.03 3.46625 -0.273237 0
M  V30 11965 H 1127.36 3.85879 -1.04582 0
M  V30 11966 H 1128.8 4.23926 -0.0791355 0
M  V30 11967 C 1127.26 3.2172 0.999903 0
M  V30 11968 O 1127.79 3.43851 2.07676 0
M  V30 11969 N 1125.99 2.75356 0.928833 0
M  V30 11970 H 1125.54 2.57547 0.052379 0
M  V30 11971 H 1125.5 2.5907 1.78129 0
M  V30 11972 N 1129.27 0.921757 1.27833 0
M  V30 11973 C 1130.68 0.604496 1.76643 0
M  V30 11974 C 1131.03 -0.880294 1.75343 0
M  V30 11975 O 1130.16 -1.68875 1.35315 0
M  V30 11976 C 1130.75 1.09055 3.20768 0
M  V30 11977 C 1129.31 0.824066 3.67268 0
M  V30 11978 C 1128.46 1.25269 2.47392 0
M  V30 11979 H 1131.41 1.10217 1.14184 0
M  V30 11980 H 1131.43 0.435558 3.77999 0
M  V30 11981 H 1130.94 2.17122 3.21682 0
M  V30 11982 H 1129.04 -0.243055 3.71806 0
M  V30 11983 H 1129.15 1.43743 4.57028 0
M  V30 11984 H 1127.52 0.671313 2.45694 0
M  V30 11985 H 1128.3 2.34188 2.5102 0
M  V30 11986 N 1130.75 -1.41857 0.686609 0
M  V30 11987 C 1131.68 -2.33481 0.0298353 0
M  V30 11988 C 1132.66 -1.51329 -0.776756 0
M  V30 11989 O 1133.84 -1.79895 -0.731535 0
M  V30 11990 C 1130.97 -3.35065 -0.913707 0
M  V30 11991 C 1129.93 -4.2746 -0.214861 0
M  V30 11992 C 1129.25 -5.19346 -1.27215 0
M  V30 11993 C 1130.55 -5.14252 0.913367 0
M  V30 11994 H 1132.25 -2.8865 0.795067 0
M  V30 11995 H 1129.79 -1.38792 0.383785 0
M  V30 11996 H 1131.75 -3.98082 -1.38234 0
M  V30 11997 H 1130.47 -2.78226 -1.7105 0
M  V30 11998 H 1129.13 -3.65855 0.233651 0
M  V30 11999 H 1128.78 -4.58827 -2.06124 0
M  V30 12000 H 1128.48 -5.81996 -0.80961 0
M  V30 12001 H 1130 -5.85239 -1.74147 0
M  V30 12002 H 1131.41 -5.70887 0.525424 0
M  V30 12003 H 1129.81 -5.85796 1.30244 0
M  V30 12004 H 1130.88 -4.51949 1.75699 0
M  V30 12005 N 1132.22 -0.430739 -1.51599 0
M  V30 12006 C 1133.15 0.374695 -2.30474 0
M  V30 12007 C 1134.14 1.02694 -1.35602 0
M  V30 12008 O 1135.32 1.03184 -1.6452 0
M  V30 12009 C 1132.45 1.47981 -3.14196 0
M  V30 12010 C 1131.4 0.951415 -4.17291 0
M  V30 12011 C 1130.73 2.15177 -4.89492 0
M  V30 12012 C 1132.03 -0.00957951 -5.22299 0
M  V30 12013 H 1133.72 -0.283508 -2.98055 0
M  V30 12014 H 1131.27 -0.13779 -1.43339 0
M  V30 12015 H 1133.22 2.05043 -3.68151 0
M  V30 12016 H 1131.95 2.16621 -2.44424 0
M  V30 12017 H 1130.61 0.403052 -3.64378 0
M  V30 12018 H 1130.25 2.82421 -4.1623 0
M  V30 12019 H 1129.95 1.80464 -5.59202 0
M  V30 12020 H 1131.48 2.72806 -5.46269 0
M  V30 12021 H 1132.89 0.470527 -5.71366 0
M  V30 12022 H 1131.29 -0.268959 -5.99497 0
M  V30 12023 H 1132.36 -0.948297 -4.75537 0
M  V30 12024 N 1133.7 1.56767 -0.161869 0
M  V30 12025 C 1134.61 2.21083 0.784814 0
M  V30 12026 C 1135.63 1.19959 1.26039 0
M  V30 12027 O 1136.8 1.52588 1.31449 0
M  V30 12028 C 1133.87 2.83153 2.00063 0
M  V30 12029 C 1132.93 3.9945 1.57285 0
M  V30 12030 C 1132.16 4.5855 2.7307 0
M  V30 12031 O 1132.39 4.16534 3.89686 0
M  V30 12032 O 1131.32 5.48575 2.47688 0
M  V30 12033 H 1135.15 3.02522 0.267243 0
M  V30 12034 H 1132.73 1.49255 0.0658783 0
M  V30 12035 H 1134.61 3.22546 2.71186 0
M  V30 12036 H 1133.29 2.04718 2.50744 0
M  V30 12037 H 1132.2 3.64745 0.831393 0
M  V30 12038 H 1133.53 4.7945 1.11304 0
M  V30 12039 N 1135.18 -0.111886 1.57202 0
M  V30 12040 C 1136.13 -1.15585 2.01849 0
M  V30 12041 C 1137.12 -1.42458 0.916621 0
M  V30 12042 O 1138.33 -1.42337 1.10182 0
M  V30 12043 H 1134.7 -0.389885 0.643035 0
M  V30 12044 H 1136.67 -0.752854 2.88747 0
M  V30 12045 C 1135.42 -2.47247 2.44467 0
M  V30 12046 H 1134.75 -2.27409 3.28824 0
M  V30 12047 H 1136.19 -3.18837 2.79497 0
M  V30 12048 C 1134.65 -3.10339 1.31115 0
M  V30 12049 O 1135.18 -3.96713 0.631029 0
M  V30 12050 N 1133.38 -2.70326 1.0664 0
M  V30 12051 H 1132.93 -2.00182 1.62126 0
M  V30 12052 H 1132.89 -3.12869 0.309944 0
M  V30 12053 N 1136.66 -1.52894 -0.382264 0
M  V30 12054 C 1137.62 -1.77497 -1.45008 0
M  V30 12055 C 1138.62 -0.64509 -1.47293 0
M  V30 12056 O 1139.81 -0.913192 -1.48346 0
M  V30 12057 C 1136.94 -1.88188 -2.8425 0
M  V30 12058 H 1138.14 -2.72849 -1.24473 0
M  V30 12059 H 1135.69 -1.43717 -0.61441 0
M  V30 12060 H 1136.42 -0.948451 -3.10121 0
M  V30 12061 H 1136.21 -2.70353 -2.83992 0
M  V30 12062 H 1137.7 -2.08873 -3.6161 0
M  V30 12063 N 1138.14 0.641106 -1.43971 0
M  V30 12064 C 1139.07 1.76645 -1.46046 0
M  V30 12065 C 1140.08 1.58881 -0.355049 0
M  V30 12066 O 1141.27 1.67379 -0.620207 0
M  V30 12067 C 1138.37 3.14237 -1.26918 0
M  V30 12068 C 1137.54 3.5855 -2.50521 0
M  V30 12069 C 1136.6 4.74986 -2.26438 0
M  V30 12070 O 1135.63 4.83807 -2.99866 0
M  V30 12071 N 1136.83 5.66016 -1.28866 0
M  V30 12072 H 1139.6 1.75339 -2.43056 0
M  V30 12073 H 1137.16 0.82535 -1.39282 0
M  V30 12074 H 1139.15 3.89837 -1.0867 0
M  V30 12075 H 1137.72 3.10244 -0.383082 0
M  V30 12076 H 1136.94 2.73265 -2.84112 0
M  V30 12077 H 1138.23 3.84906 -3.32754 0
M  V30 12078 H 1137.63 5.61574 -0.682018 0
M  V30 12079 H 1136.18 6.41286 -1.16599 0
M  V30 12080 N 1139.62 1.30703 0.880598 0
M  V30 12081 C 1140.84 1.22843 1.67106 0
M  V30 12082 C 1141.27 -0.204788 1.86982 0
M  V30 12083 O 1140.62 -1.14716 1.40392 0
M  V30 12084 C 1140.67 1.96685 3.02237 0
M  V30 12085 O 1139.78 1.29693 3.91476 0
M  V30 12086 H 1139.12 0.424661 0.51045 0
M  V30 12087 H 1141.65 1.72596 1.09871 0
M  V30 12088 H 1141.66 2.05874 3.52249 0
M  V30 12089 H 1140.33 3.00919 2.8709 0
M  V30 12090 H 1138.91 1.28886 3.49918 0
M  V30 12091 N 1141.09 -1.09351 1.1349 0
M  V30 12092 C 1142.32 -1.85844 0.92069 0
M  V30 12093 C 1142.74 -1.80616 -0.525303 0
M  V30 12094 O 1142.1 -1.1842 -1.37282 0
M  V30 12095 C 1142.15 -3.31716 1.4141 0
M  V30 12096 O 1141.25 -4.08014 0.599838 0
M  V30 12097 H 1140.59 -0.576242 0.32991 0
M  V30 12098 H 1143.12 -1.38084 1.50976 0
M  V30 12099 H 1143.13 -3.82564 1.41805 0
M  V30 12100 H 1141.81 -3.34837 2.46692 0
M  V30 12101 H 1140.39 -3.66944 0.663816 0
M  V30 12102 N 1142.57 -0.928524 -1.27343 0
M  V30 12103 C 1143.48 -0.433901 -2.30553 0
M  V30 12104 C 1144.5 0.485832 -1.6708 0
M  V30 12105 O 1145.67 0.36844 -1.98001 0
M  V30 12106 C 1142.74 0.304617 -3.45359 0
M  V30 12107 C 1141.8 -0.650131 -4.24349 0
M  V30 12108 C 1141.03 0.0532372 -5.33673 0
M  V30 12109 O 1141.26 1.27246 -5.56026 0
M  V30 12110 O 1140.19 -0.619009 -5.98709 0
M  V30 12111 H 1144.02 -1.2909 -2.74899 0
M  V30 12112 H 1141.6 -0.693903 -1.32308 0
M  V30 12113 H 1143.48 0.721137 -4.15184 0
M  V30 12114 H 1142.16 1.13721 -3.03066 0
M  V30 12115 H 1141.06 -1.11635 -3.57055 0
M  V30 12116 H 1142.4 -1.44996 -4.70358 0
M  V30 12117 N 1144.05 1.41491 -0.694123 0
M  V30 12118 C 1145 2.30783 -0.0278824 0
M  V30 12119 C 1145.97 1.47028 0.772783 0
M  V30 12120 O 1147.15 1.75819 0.74111 0
M  V30 12121 C 1144.29 3.33061 0.903579 0
M  V30 12122 C 1143.4 4.31896 0.0946823 0
M  V30 12123 C 1142.54 5.21243 1.02365 0
M  V30 12124 C 1141.58 6.11748 0.207578 0
M  V30 12125 N 1140.72 6.93583 1.09028 0
M  V30 12126 H 1145.56 2.87197 -0.795092 0
M  V30 12127 H 1143.09 1.41449 -0.403806 0
M  V30 12128 H 1145.05 3.90907 1.45765 0
M  V30 12129 H 1143.68 2.782 1.6372 0
M  V30 12130 H 1142.73 3.76009 -0.576289 0
M  V30 12131 H 1144.04 4.95889 -0.538059 0
M  V30 12132 H 1143.2 5.83917 1.647 0
M  V30 12133 H 1141.94 4.57473 1.69025 0
M  V30 12134 H 1140.94 5.48125 -0.428854 0
M  V30 12135 H 1142.17 6.77573 -0.455206 0
M  V30 12136 H 1140.11 6.32422 1.74292 0
M  V30 12137 H 1140.03 7.54257 0.513073 0
M  V30 12138 H 1141.3 7.60726 1.70048 0
M  V30 12139 N 1145.53 0.438773 1.51369 0
M  V30 12140 C 1146.76 -0.125847 2.06517 0
M  V30 12141 C 1147.17 -1.36336 1.30606 0
M  V30 12142 O 1146.53 -1.78792 0.36603 0
M  V30 12143 C 1146.58 -0.446619 3.5873 0
M  V30 12144 O 1146.3 0.741781 4.31775 0
M  V30 12145 C 1147.8 -1.06175 4.30397 0
M  V30 12146 H 1145.02 -0.00728868 0.67096 0
M  V30 12147 H 1147.56 0.618267 1.9493 0
M  V30 12148 H 1145.72 -1.14064 3.70227 0
M  V30 12149 H 1146.13 0.466907 5.22418 0
M  V30 12150 H 1147.61 -1.23619 5.3798 0
M  V30 12151 H 1148.08 -2.04317 3.88782 0
M  V30 12152 H 1148.69 -0.40708 4.23347 0
M  V30 12153 N 1147.01 -1.56678 0.170181 0
M  V30 12154 C 1147.92 -2.21496 -0.773079 0
M  V30 12155 C 1148.93 -1.20626 -1.25401 0
M  V30 12156 O 1150.11 -1.53283 -1.30638 0
M  V30 12157 C 1147.17 -2.8421 -1.98558 0
M  V30 12158 C 1146.23 -4.00278 -1.55164 0
M  V30 12159 C 1145.47 -4.59992 -2.70634 0
M  V30 12160 O 1145.69 -4.18595 -3.87472 0
M  V30 12161 O 1144.62 -5.49881 -2.44775 0
M  V30 12162 H 1148.45 -3.02659 -0.251195 0
M  V30 12163 H 1146.03 -1.49288 -0.0579621 0
M  V30 12164 H 1147.92 -3.2398 -2.69472 0
M  V30 12165 H 1146.59 -2.06045 -2.49654 0
M  V30 12166 H 1145.5 -3.6518 -0.812038 0
M  V30 12167 H 1146.83 -4.80033 -1.0876 0
M  V30 12168 N 1148.48 0.103547 -1.57259 0
M  V30 12169 C 1149.39 1.14475 -2.04774 0
M  V30 12170 C 1150.41 1.44385 -0.971025 0
M  V30 12171 O 1151.59 1.55195 -1.28361 0
M  V30 12172 C 1148.65 2.4475 -2.45558 0
M  V30 12173 C 1147.71 2.22098 -3.67384 0
M  V30 12174 C 1146.94 3.4616 -4.06213 0
M  V30 12175 O 1147.17 4.5407 -3.45219 0
M  V30 12176 O 1146.1 3.36248 -4.9922 0
M  V30 12177 H 1149.93 0.771211 -2.93745 0
M  V30 12178 H 1147.51 0.315456 -1.46032 0
M  V30 12179 H 1149.39 3.21476 -2.72454 0
M  V30 12180 H 1148.07 2.81547 -1.59728 0
M  V30 12181 H 1146.98 1.43179 -3.45616 0
M  V30 12182 H 1148.31 1.90197 -4.53967 0
M  V30 12183 N 1149.96 1.53094 0.37415 0
M  V30 12184 C 1150.91 1.79585 1.47824 0
M  V30 12185 C 1151.9 0.664513 1.55822 0
M  V30 12186 O 1153.11 0.84729 1.58811 0
M  V30 12187 H 1149.48 0.568474 0.492282 0
M  V30 12188 H 1151.46 2.72014 1.22681 0
M  V30 12189 C 1150.2 1.995 2.84772 0
M  V30 12190 H 1149.53 2.85991 2.79373 0
M  V30 12191 H 1150.97 2.22018 3.61226 0
M  V30 12192 C 1149.43 0.771673 3.27943 0
M  V30 12193 O 1149.96 -0.0437737 4.01676 0
M  V30 12194 N 1148.16 0.597547 2.8439 0
M  V30 12195 H 1147.71 1.26227 2.24554 0
M  V30 12196 H 1147.67 -0.219578 3.13632 0
M  V30 12197 N 1151.44 -0.633461 1.44309 0
M  V30 12198 C 1152.35 -1.77428 1.53481 0
M  V30 12199 C 1153.37 -1.68839 0.420628 0
M  V30 12200 O 1154.54 -1.89658 0.677638 0
M  V30 12201 C 1151.61 -3.13801 1.47409 0
M  V30 12202 C 1150.67 -3.34039 2.6966 0
M  V30 12203 C 1149.9 -4.63907 2.63868 0
M  V30 12204 O 1150.12 -5.44559 1.69741 0
M  V30 12205 O 1149.06 -4.86295 3.54684 0
M  V30 12206 H 1152.88 -1.72642 2.49857 0
M  V30 12207 H 1150.47 -0.794399 1.26529 0
M  V30 12208 H 1152.35 -3.95101 1.46537 0
M  V30 12209 H 1151.03 -3.19134 0.541769 0
M  V30 12210 H 1149.93 -2.52427 2.761 0
M  V30 12211 H 1151.27 -3.33566 3.61931 0
M  V30 12212 N 1152.92 -1.31168 -0.873655 0
M  V30 12213 C 1154.17 -1.20642 -1.6264 0
M  V30 12214 C 1154.49 0.236286 -1.93059 0
M  V30 12215 O 1153.75 1.18401 -1.55819 0
M  V30 12216 C 1154.05 -1.99204 -2.96736 0
M  V30 12217 C 1153.71 -3.48734 -2.85824 0
M  V30 12218 C 1152.38 -3.89507 -2.82555 0
M  V30 12219 C 1154.73 -4.43905 -2.73127 0
M  V30 12220 C 1152.06 -5.23724 -2.64442 0
M  V30 12221 C 1154.41 -5.78242 -2.56551 0
M  V30 12222 C 1153.07 -6.18241 -2.51663 0
M  V30 12223 H 1152.34 -0.44146 -0.595142 0
M  V30 12224 H 1154.99 -1.62394 -1.01492 0
M  V30 12225 H 1153.29 -1.50122 -3.61899 0
M  V30 12226 H 1154.99 -1.88443 -3.53963 0
M  V30 12227 H 1151.58 -3.1634 -2.89184 0
M  V30 12228 H 1155.76 -4.13338 -2.7471 0
M  V30 12229 H 1151.02 -5.53794 -2.59081 0
M  V30 12230 H 1155.19 -6.51616 -2.45702 0
M  V30 12231 H 1152.82 -7.22185 -2.37387 0
M  V30 12232 N 1154.4 1.08748 -1.14068 0
M  V30 12233 C 1155.62 1.85353 -0.930532 0
M  V30 12234 C 1156.05 1.80892 0.515717 0
M  V30 12235 O 1155.4 1.19146 1.36652 0
M  V30 12236 C 1155.45 3.30962 -1.43167 0
M  V30 12237 O 1154.56 4.0769 -0.621468 0
M  V30 12238 H 1153.9 0.574485 -0.332962 0
M  V30 12239 H 1156.43 1.37282 -1.51707 0
M  V30 12240 H 1156.44 3.81807 -1.43832 0
M  V30 12241 H 1155.11 3.33524 -2.48464 0
M  V30 12242 H 1153.69 3.66587 -0.683267 0
M  V30 12243 N 1155.87 0.935264 1.26849 0
M  V30 12244 C 1157.12 0.578545 1.93642 0
M  V30 12245 C 1157.44 -0.884296 1.73796 0
M  V30 12246 O 1156.71 -1.62768 1.09011 0
M  V30 12247 H 1155.29 0.210976 0.716588 0
M  V30 12248 H 1157.96 1.1893 1.54407 0
M  V30 12249 H 1157.05 0.791268 3.01903 0
M  V30 12250 N 1157.35 -1.41121 0.701616 0
M  V30 12251 C 1158.59 -2.02993 0.239383 0
M  V30 12252 C 1158.96 -1.5439 -1.1414 0
M  V30 12253 O 1160.16 -2.08229 -1.69982 0
M  V30 12254 C 1158.43 -3.56128 0.301232 0
M  V30 12255 S 1159.99 -4.38716 -0.0860681 0
M  V30 12256 H 1156.81 -0.704494 0.0959645 0
M  V30 12257 H 1159.41 -1.72461 0.920736 0
M  V30 12258 H 1158.11 -3.88996 1.30805 0
M  V30 12259 H 1157.64 -3.91371 -0.399069 0
M  V30 12260 H 1159.66 -4.78537 -1.31212 0
M  V30 12261 N 1158.83 -0.446794 -1.51134 0
M  V30 12262 C 1160.25 -0.0995905 -1.59289 0
M  V30 12263 C 1160.45 1.39191 -1.45699 0
M  V30 12264 O 1159.5 2.1628 -1.30303 0
M  V30 12265 C 1160.82 -0.628135 -2.94066 0
M  V30 12266 C 1162.36 -0.589409 -3.074 0
M  V30 12267 C 1162.84 -1.09509 -4.44715 0
M  V30 12268 N 1164.33 -1.05347 -4.51061 0
M  V30 12269 C 1165.06 -1.41551 -5.55654 0
M  V30 12270 N 1164.56 -1.85086 -6.67619 0
M  V30 12271 N 1166.35 -1.33307 -5.46064 0
M  V30 12272 H 1158.5 -1.41713 -1.58213 0
M  V30 12273 H 1160.77 -0.584555 -0.746324 0
M  V30 12274 H 1160.47 -1.67205 -3.09411 0
M  V30 12275 H 1160.35 -0.0582398 -3.77155 0
M  V30 12276 H 1162.73 0.445541 -2.91717 0
M  V30 12277 H 1162.82 -1.19582 -2.26128 0
M  V30 12278 H 1162.46 -2.12855 -4.61146 0
M  V30 12279 H 1162.39 -0.465122 -5.24542 0
M  V30 12280 H 1164.88 -0.733877 -3.70706 0
M  V30 12281 H 1165.19 -2.10923 -7.43459 0
M  V30 12282 H 1163.54 -1.8902 -6.68802 0
M  V30 12283 H 1166.73 -0.991547 -4.57478 0
M  V30 12284 H 1166.9 -1.6185 -6.27462 0
M  V30 12285 N 1160.31 1.56586 -0.178487 0
M  V30 12286 C 1161.53 2.01915 0.473841 0
M  V30 12287 C 1161.96 1.05789 1.55533 0
M  V30 12288 O 1161.32 0.0386018 1.81259 0
M  V30 12289 C 1161.36 3.45799 1.02251 0
M  V30 12290 O 1160.47 3.52761 2.1362 0
M  V30 12291 H 1159.81 0.654372 0.112666 0
M  V30 12292 H 1162.34 2.02613 -0.284486 0
M  V30 12293 H 1162.35 3.85252 1.34332 0
M  V30 12294 H 1161.02 4.1526 0.230719 0
M  V30 12295 H 1159.6 3.25172 1.8253 0
M  V30 12296 N 1161.79 -0.095206 1.57312 0
M  V30 12297 C 1162.7 -1.13388 2.05379 0
M  V30 12298 C 1163.71 -1.43868 0.978668 0
M  V30 12299 O 1164.89 -1.54512 1.29182 0
M  V30 12300 C 1161.95 -2.43444 2.46852 0
M  V30 12301 C 1161.01 -2.20146 3.68557 0
M  V30 12302 C 1160.25 -3.44001 4.08043 0
M  V30 12303 O 1160.47 -4.52233 3.47623 0
M  V30 12304 O 1159.4 -3.33596 5.00997 0
M  V30 12305 H 1163.23 -0.755622 2.9415 0
M  V30 12306 H 1160.82 -0.307707 1.46197 0
M  V30 12307 H 1162.7 -3.20027 2.74155 0
M  V30 12308 H 1161.37 -2.80696 1.61219 0
M  V30 12309 H 1160.28 -1.41345 3.46371 0
M  V30 12310 H 1161.61 -1.87787 4.54969 0
M  V30 12311 N 1163.26 -1.53291 -0.366026 0
M  V30 12312 C 1164.49 -1.73665 -1.13381 0
M  V30 12313 C 1164.91 -0.464284 -1.8228 0
M  V30 12314 O 1164.27 0.581645 -1.71717 0
M  V30 12315 C 1164.32 -2.90225 -2.14013 0
M  V30 12316 O 1163.42 -2.58803 -3.21084 0
M  V30 12317 H 1162.77 -0.576762 -0.329 0
M  V30 12318 H 1165.3 -2.00174 -0.423287 0
M  V30 12319 H 1165.31 -3.16378 -2.57622 0
M  V30 12320 H 1163.98 -3.82518 -1.63257 0
M  V30 12321 H 1162.56 -2.43466 -2.82451 0
M  V30 12322 N 1164.74 0.6258 -1.44643 0
M  V30 12323 C 1165.97 1.41726 -1.51422 0
M  V30 12324 C 1166.39 1.87565 -0.14181 0
M  V30 12325 O 1165.75 1.59059 0.870054 0
M  V30 12326 C 1165.8 2.61012 -2.48807 0
M  V30 12327 O 1164.9 3.61029 -1.99328 0
M  V30 12328 H 1164.24 0.423855 -0.511119 0
M  V30 12329 H 1166.77 0.763336 -1.89827 0
M  V30 12330 H 1166.78 3.08489 -2.67018 0
M  V30 12331 H 1165.46 2.26995 -3.48491 0
M  V30 12332 H 1164.04 3.20325 -1.90909 0
M  V30 12333 N 1166.22 1.31629 0.866686 0
M  V30 12334 C 1167.15 1.22151 1.99001 0
M  V30 12335 C 1168.13 0.107972 1.69757 0
M  V30 12336 O 1169.32 0.293125 1.91975 0
M  V30 12337 C 1166.45 0.93144 3.34577 0
M  V30 12338 C 1165.4 2.0049 3.78137 0
M  V30 12339 C 1164.73 1.56747 5.11209 0
M  V30 12340 C 1166.03 3.41844 3.94892 0
M  V30 12341 H 1167.72 2.16132 2.0719 0
M  V30 12342 H 1165.27 1.04051 0.995463 0
M  V30 12343 H 1167.22 0.851719 4.12703 0
M  V30 12344 H 1165.94 -0.0440289 3.2657 0
M  V30 12345 H 1164.6 2.07457 3.02253 0
M  V30 12346 H 1164.25 0.579767 4.99648 0
M  V30 12347 H 1163.95 2.28562 5.41326 0
M  V30 12348 H 1165.47 1.50188 5.91841 0
M  V30 12349 H 1166.89 3.37534 4.63405 0
M  V30 12350 H 1165.29 4.11905 4.36411 0
M  V30 12351 H 1166.36 3.82389 2.98172 0
M  V30 12352 N 1167.7 -1.08142 1.14644 0
M  V30 12353 C 1168.95 -1.80225 0.914517 0
M  V30 12354 C 1169.27 -1.86778 -0.560269 0
M  V30 12355 O 1168.54 -1.36284 -1.40724 0
M  V30 12356 H 1167.12 -0.667492 0.335356 0
M  V30 12357 H 1169.78 -1.30729 1.44554 0
M  V30 12358 H 1168.88 -2.82958 1.31685 0
M  V30 12359 N 1169.18 -0.941978 -1.26351 0
M  V30 12360 C 1170.41 -0.606748 -1.97803 0
M  V30 12361 C 1170.82 0.818441 -1.70138 0
M  V30 12362 O 1170.18 1.54583 -0.970076 0
M  V30 12363 C 1170.23 -0.840431 -3.51595 0
M  V30 12364 O 1169.95 -2.20957 -3.78299 0
M  V30 12365 C 1171.45 -0.515855 -4.40288 0
M  V30 12366 H 1168.67 -0.228591 -0.630862 0
M  V30 12367 H 1171.21 -1.2629 -1.60845 0
M  V30 12368 H 1169.37 -0.230875 -3.86711 0
M  V30 12369 H 1169.78 -2.2702 -4.72824 0
M  V30 12370 H 1171.26 -0.72998 -5.47152 0
M  V30 12371 H 1171.73 0.549178 -4.35753 0
M  V30 12372 H 1172.34 -1.10417 -4.10717 0
M  V30 12373 N 1170.66 1.40747 -0.709091 0
M  V30 12374 C 1171.88 2.05841 -0.253816 0
M  V30 12375 C 1172.31 1.53056 1.09341 0
M  V30 12376 O 1171.66 0.663181 1.68735 0
M  V30 12377 C 1171.71 3.59822 -0.236699 0
M  V30 12378 O 1170.82 4.04876 0.784168 0
M  V30 12379 H 1170.16 0.65295 -0.120631 0
M  V30 12380 H 1172.69 1.80266 -0.967749 0
M  V30 12381 H 1172.7 4.07936 -0.0721616 0
M  V30 12382 H 1171.37 3.97608 -1.21988 0
M  V30 12383 H 1169.95 3.68237 0.587884 0
M  V30 12384 N 1172.13 0.454803 1.50895 0
M  V30 12385 C 1173.08 -0.366073 2.25042 0
M  V30 12386 C 1174.07 -0.975353 1.27967 0
M  V30 12387 O 1175.26 -0.8906 1.52962 0
M  V30 12388 C 1172.39 -1.45683 3.10856 0
M  V30 12389 C 1171.47 -0.856086 4.1537 0
M  V30 12390 N 1171.87 0.0138787 5.05798 0
M  V30 12391 C 1170.16 -1.1218 4.31661 0
M  V30 12392 C 1170.86 0.35313 5.80627 0
M  V30 12393 N 1169.84 -0.267648 5.42941 0
M  V30 12394 H 1173.64 0.304357 2.9232 0
M  V30 12395 H 1171.16 0.267937 1.60174 0
M  V30 12396 H 1173.15 -2.05793 3.62567 0
M  V30 12397 H 1171.81 -2.12942 2.45124 0
M  V30 12398 H 1172.82 0.381574 5.16492 0
M  V30 12399 H 1169.5 -1.79059 3.77153 0
M  V30 12400 H 1170.89 1.06213 6.63452 0
M  V30 12401 N 1173.61 -1.56489 0.186789 0
M  V30 12402 C 1174.54 -2.21705 -0.732739 0
M  V30 12403 C 1175.52 -1.17751 -1.22755 0
M  V30 12404 O 1176.71 -1.46231 -1.27789 0
M  V30 12405 C 1173.84 -2.86992 -1.95584 0
M  V30 12406 C 1172.79 -3.97118 -1.59628 0
M  V30 12407 C 1172.12 -4.49529 -2.89531 0
M  V30 12408 C 1173.42 -5.15941 -0.812518 0
M  V30 12409 H 1175.11 -2.98802 -0.189094 0
M  V30 12410 H 1172.66 -1.43722 -0.0895099 0
M  V30 12411 H 1174.61 -3.31295 -2.60426 0
M  V30 12412 H 1173.33 -2.07287 -2.52388 0
M  V30 12413 H 1171.99 -3.53494 -0.971475 0
M  V30 12414 H 1171.64 -3.66596 -3.44407 0
M  V30 12415 H 1171.34 -5.23832 -2.66221 0
M  V30 12416 H 1172.87 -4.96528 -3.55376 0
M  V30 12417 H 1174.28 -5.56841 -1.36386 0
M  V30 12418 H 1172.68 -5.96259 -0.677862 0
M  V30 12419 H 1173.75 -4.84535 0.188095 0
M  V30 12420 N 1175.09 0.086862 -1.5736 0
M  V30 12421 C 1176.34 0.787281 -1.86135 0
M  V30 12422 C 1176.66 1.78866 -0.776667 0
M  V30 12423 O 1175.93 1.94915 0.19625 0
M  V30 12424 H 1174.51 0.293744 -0.686821 0
M  V30 12425 H 1177.17 0.0665326 -1.94786 0
M  V30 12426 H 1176.27 1.3128 -2.83147 0
M  V30 12427 N 1176.57 1.53483 0.357892 0
M  V30 12428 C 1177.8 1.73956 1.12013 0
M  V30 12429 C 1178.21 0.472053 1.82803 0
M  V30 12430 O 1177.57 -0.555499 1.7384 0
M  V30 12431 C 1177.62 2.91015 2.14459 0
M  V30 12432 O 1177.34 4.12862 1.4655 0
M  V30 12433 C 1178.84 3.23423 3.0317 0
M  V30 12434 H 1176.06 0.58161 0.334621 0
M  V30 12435 H 1178.6 2.00256 0.414467 0
M  V30 12436 H 1176.76 2.67087 2.80612 0
M  V30 12437 H 1177.17 4.78468 2.14869 0
M  V30 12438 H 1178.65 4.08717 3.71018 0
M  V30 12439 H 1179.12 2.39114 3.68404 0
M  V30 12440 H 1179.73 3.49305 2.42624 0
M  V30 12441 N 1178.05 -0.61812 1.44973 0
M  V30 12442 C 1179.46 -1.19994 1.43033 0
M  V30 12443 C 1179.81 -1.95607 0.152422 0
M  V30 12444 O 1178.93 -2.03114 -0.746571 0
M  V30 12445 C 1179.53 -2.18269 2.59122 0
M  V30 12446 C 1178.09 -2.7185 2.60336 0
M  V30 12447 C 1177.23 -1.4707 2.35086 0
M  V30 12448 H 1180.18 -0.408034 1.53365 0
M  V30 12449 H 1180.21 -3.01113 2.32619 0
M  V30 12450 H 1179.72 -1.63208 3.52115 0
M  V30 12451 H 1177.82 -3.30878 1.7132 0
M  V30 12452 H 1177.93 -3.17001 3.59231 0
M  V30 12453 H 1176.3 -1.75658 1.84435 0
M  V30 12454 H 1177.08 -0.938928 3.30211 0
M  V30 12455 N 1179.52 -1.32087 -0.859693 0
M  V30 12456 C 1180.93 -1.20107 -1.42938 0
M  V30 12457 C 1181.29 0.188411 -1.95293 0
M  V30 12458 O 1180.41 1.08683 -1.87128 0
M  V30 12459 C 1181.01 -2.17436 -2.59821 0
M  V30 12460 C 1179.56 -2.09359 -3.12803 0
M  V30 12461 C 1178.71 -2.06086 -1.85537 0
M  V30 12462 H 1181.66 -1.43989 -0.667302 0
M  V30 12463 H 1181.68 -1.76996 -3.36828 0
M  V30 12464 H 1181.2 -3.18555 -2.21685 0
M  V30 12465 H 1179.3 -1.1147 -3.55535 0
M  V30 12466 H 1179.41 -2.98947 -3.74389 0
M  V30 12467 H 1177.77 -1.51251 -2.04928 0
M  V30 12468 H 1178.56 -3.08978 -1.49625 0
M  V30 12469 N 1181 1.07532 -1.15215 0
M  V30 12470 C 1181.96 2.1286 -0.84989 0
M  V30 12471 C 1182.96 1.60103 0.149524 0
M  V30 12472 O 1184.15 1.74017 -0.0798918 0
M  V30 12473 C 1181.29 3.3984 -0.268617 0
M  V30 12474 H 1182.48 2.41106 -1.78347 0
M  V30 12475 H 1180.03 1.23392 -0.959386 0
M  V30 12476 H 1180.77 3.17235 0.67325 0
M  V30 12477 H 1180.55 3.79433 -0.988592 0
M  V30 12478 H 1182.04 4.17533 -0.0746554 0
M  V30 12479 N 1182.48 0.948665 1.2585 0
M  V30 12480 C 1183.41 0.482036 2.2847 0
M  V30 12481 C 1184.39 -0.468553 1.63519 0
M  V30 12482 O 1185.58 -0.368796 1.90666 0
M  V30 12483 C 1182.71 -0.246603 3.46423 0
M  V30 12484 C 1181.66 0.61815 4.23513 0
M  V30 12485 C 1180.99 -0.240884 5.34157 0
M  V30 12486 C 1182.29 1.89327 4.86778 0
M  V30 12487 H 1183.98 1.33973 2.67753 0
M  V30 12488 H 1181.53 0.645645 1.28715 0
M  V30 12489 H 1183.48 -0.584135 4.17332 0
M  V30 12490 H 1182.2 -1.13849 3.06114 0
M  V30 12491 H 1180.86 0.938682 3.54379 0
M  V30 12492 H 1180.51 -1.13235 4.90089 0
M  V30 12493 H 1180.21 0.334367 5.86648 0
M  V30 12494 H 1181.73 -0.573517 6.07901 0
M  V30 12495 H 1183.15 1.62252 5.49861 0
M  V30 12496 H 1181.55 2.41369 5.49419 0
M  V30 12497 H 1182.62 2.60006 4.09298 0
M  V30 12498 N 1183.96 -1.40369 0.716545 0
M  V30 12499 C 1185.37 -1.83783 0.328719 0
M  V30 12500 C 1185.72 -1.5991 -1.13681 0
M  V30 12501 O 1184.85 -1.08048 -1.87496 0
M  V30 12502 C 1185.44 -3.33626 0.589848 0
M  V30 12503 C 1184 -3.7553 0.25572 0
M  V30 12504 C 1183.15 -2.63571 0.861733 0
M  V30 12505 H 1186.1 -1.29623 0.915621 0
M  V30 12506 H 1186.12 -3.80225 -0.14459 0
M  V30 12507 H 1185.63 -3.5097 1.65655 0
M  V30 12508 H 1183.73 -3.63781 -0.805883 0
M  V30 12509 H 1183.84 -4.73577 0.725388 0
M  V30 12510 H 1182.21 -2.53047 0.289706 0
M  V30 12511 H 1182.99 -2.83727 1.93272 0
M  V30 12512 N 1185.44 -0.462799 -1.50652 0
M  V30 12513 C 1186.85 -0.11648 -1.59174 0
M  V30 12514 C 1187.05 1.37638 -1.47167 0
M  V30 12515 O 1186.11 2.14886 -1.3259 0
M  V30 12516 C 1187.42 -0.659289 -2.93383 0
M  V30 12517 C 1188.97 -0.62198 -3.06758 0
M  V30 12518 C 1189.44 -1.14219 -4.43529 0
M  V30 12519 N 1190.94 -1.10125 -4.49919 0
M  V30 12520 C 1191.67 -1.47436 -5.54121 0
M  V30 12521 N 1191.17 -1.92156 -6.65618 0
M  V30 12522 N 1192.96 -1.39091 -5.44619 0
M  V30 12523 H 1185.11 -1.43383 -1.56701 0
M  V30 12524 H 1187.37 -0.592438 -0.740082 0
M  V30 12525 H 1187.08 -1.70477 -3.07621 0
M  V30 12526 H 1186.95 -0.0982388 -3.77072 0
M  V30 12527 H 1189.34 0.414576 -2.92173 0
M  V30 12528 H 1189.42 -1.21974 -2.24847 0
M  V30 12529 H 1189.07 -2.17734 -4.58862 0
M  V30 12530 H 1189 -0.52073 -5.24019 0
M  V30 12531 H 1191.49 -0.773154 -3.69906 0
M  V30 12532 H 1191.8 -2.18796 -7.4118 0
M  V30 12533 H 1190.14 -1.96103 -6.6676 0
M  V30 12534 H 1193.34 -1.04001 -4.564 0
M  V30 12535 H 1193.51 -1.68496 -6.2571 0
M  V30 12536 N 1186.91 1.56388 -0.195085 0
M  V30 12537 C 1187.86 2.19091 0.725793 0
M  V30 12538 C 1188.83 1.13814 1.20977 0
M  V30 12539 O 1190.02 1.42065 1.27366 0
M  V30 12540 C 1187.16 2.85427 1.93973 0
M  V30 12541 C 1186.27 4.05229 1.49712 0
M  V30 12542 C 1185.4 4.59421 2.66656 0
M  V30 12543 C 1184.44 5.71581 2.19001 0
M  V30 12544 N 1183.58 6.2018 3.29123 0
M  V30 12545 H 1188.42 2.97429 0.184334 0
M  V30 12546 H 1185.96 1.46886 0.0792434 0
M  V30 12547 H 1187.92 3.22057 2.65208 0
M  V30 12548 H 1186.55 2.09652 2.4545 0
M  V30 12549 H 1185.6 3.74261 0.680641 0
M  V30 12550 H 1186.91 4.8635 1.10749 0
M  V30 12551 H 1186.06 4.98357 3.46014 0
M  V30 12552 H 1184.8 3.77407 3.08893 0
M  V30 12553 H 1183.81 5.32174 1.38097 0
M  V30 12554 H 1185.03 6.55413 1.77795 0
M  V30 12555 H 1182.98 5.41088 3.70891 0
M  V30 12556 H 1182.9 6.96353 2.94328 0
M  V30 12557 H 1184.16 6.63769 4.08694 0
M  V30 12558 N 1188.39 -0.0785156 1.57404 0
M  V30 12559 C 1189.62 -0.792042 1.9114 0
M  V30 12560 C 1190.04 -1.71458 0.790408 0
M  V30 12561 O 1189.39 -1.80959 -0.236662 0
M  V30 12562 C 1189.44 -1.59138 3.24588 0
M  V30 12563 O 1189.16 -0.705931 4.32375 0
M  V30 12564 C 1190.67 -2.4065 3.72293 0
M  V30 12565 H 1187.89 -0.225566 0.63195 0
M  V30 12566 H 1190.43 -0.0507929 2.04437 0
M  V30 12567 H 1188.58 -2.28498 3.12838 0
M  V30 12568 H 1189 -1.26121 5.09111 0
M  V30 12569 H 1190.47 -2.92204 4.68317 0
M  V30 12570 H 1190.95 -3.1987 3.00965 0
M  V30 12571 H 1191.56 -1.7646 3.86965 0
M  V30 12572 N 1189.87 -1.5367 -0.349747 0
M  V30 12573 C 1191.29 -1.43796 -0.692457 0
M  V30 12574 C 1191.49 -0.58972 -1.92677 0
M  V30 12575 O 1190.54 -0.078294 -2.52379 0
M  V30 12576 C 1191.86 -2.872 -0.890881 0
M  V30 12577 C 1193.4 -2.96935 -0.989892 0
M  V30 12578 C 1193.88 -4.41433 -1.22068 0
M  V30 12579 N 1195.37 -4.44932 -1.28802 0
M  V30 12580 C 1196.1 -5.53864 -1.48398 0
M  V30 12581 N 1195.6 -6.72814 -1.65208 0
M  V30 12582 N 1197.39 -5.41467 -1.50896 0
M  V30 12583 H 1189.54 -2.07317 0.461895 0
M  V30 12584 H 1191.81 -0.936895 0.144681 0
M  V30 12585 H 1191.51 -3.51656 -0.0555095 0
M  V30 12586 H 1191.39 -3.31784 -1.79442 0
M  V30 12587 H 1193.77 -2.32622 -1.81579 0
M  V30 12588 H 1193.86 -2.55721 -0.0633906 0
M  V30 12589 H 1193.5 -5.06325 -0.399729 0
M  V30 12590 H 1193.43 -4.80233 -2.16064 0
M  V30 12591 H 1195.92 -3.59214 -1.17361 0
M  V30 12592 H 1196.23 -7.51598 -1.79779 0
M  V30 12593 H 1194.58 -6.7577 -1.62356 0
M  V30 12594 H 1197.77 -4.47498 -1.37342 0
M  V30 12595 H 1197.94 -6.26423 -1.65826 0
M  V30 12596 N 1191.35 0.610423 -1.45298 0
M  V30 12597 C 1192.76 1.19234 -1.43667 0
M  V30 12598 C 1193.11 1.95523 -0.162794 0
M  V30 12599 O 1192.24 2.03507 0.735789 0
M  V30 12600 C 1192.83 2.16892 -2.60276 0
M  V30 12601 C 1191.39 2.70465 -2.61774 0
M  V30 12602 C 1190.54 1.45821 -2.35863 0
M  V30 12603 H 1193.49 0.399895 -1.53579 0
M  V30 12604 H 1193.51 2.99875 -2.34212 0
M  V30 12605 H 1193.02 1.61339 -3.52975 0
M  V30 12606 H 1191.12 3.29965 -1.73072 0
M  V30 12607 H 1191.23 3.15092 -3.60907 0
M  V30 12608 H 1189.6 1.74678 -1.85364 0
M  V30 12609 H 1190.38 0.921403 -3.30704 0
M  V30 12610 N 1192.83 1.32541 0.852676 0
M  V30 12611 C 1193.76 1.24254 1.97694 0
M  V30 12612 C 1194.74 0.125971 1.69633 0
M  V30 12613 O 1195.92 0.31347 1.91653 0
M  V30 12614 C 1193.05 0.966874 3.3357 0
M  V30 12615 C 1192.01 2.0449 3.75989 0
M  V30 12616 C 1191.33 1.6216 5.09518 0
M  V30 12617 C 1192.63 3.46013 3.91244 0
M  V30 12618 H 1194.33 2.18317 2.04886 0
M  V30 12619 H 1191.87 1.05101 0.984371 0
M  V30 12620 H 1193.83 0.895444 4.11776 0
M  V30 12621 H 1192.55 -0.0093893 3.26599 0
M  V30 12622 H 1191.21 2.10651 3.00036 0
M  V30 12623 H 1190.86 0.632729 4.99005 0
M  V30 12624 H 1190.56 2.3429 5.38871 0
M  V30 12625 H 1192.08 1.56457 5.90215 0
M  V30 12626 H 1193.49 3.4243 4.59799 0
M  V30 12627 H 1191.89 4.1651 4.32017 0
M  V30 12628 H 1192.96 3.8553 2.941 0
M  V30 12629 N 1194.3 -1.0692 1.15784 0
M  V30 12630 C 1195.24 -2.14168 0.816375 0
M  V30 12631 C 1196.25 -1.61872 -0.17357 0
M  V30 12632 O 1197.44 -1.78429 0.0502973 0
M  V30 12633 C 1194.54 -3.38346 0.193682 0
M  V30 12634 C 1193.71 -4.19979 1.22215 0
M  V30 12635 C 1192.77 -5.2253 0.620424 0
M  V30 12636 O 1191.8 -5.54446 1.28757 0
M  V30 12637 N 1193 -5.77434 -0.595811 0
M  V30 12638 H 1195.76 -2.44062 1.73937 0
M  V30 12639 H 1193.32 -1.22865 1.05431 0
M  V30 12640 H 1195.32 -4.04092 -0.22174 0
M  V30 12641 H 1193.89 -3.06129 -0.632735 0
M  V30 12642 H 1193.11 -3.49984 1.81397 0
M  V30 12643 H 1194.39 -4.71329 1.91641 0
M  V30 12644 H 1193.79 -5.5376 -1.15611 0
M  V30 12645 H 1192.35 -6.44788 -0.953529 0
M  V30 12646 N 1195.78 -0.955326 -1.25345 0
M  V30 12647 C 1196.73 -0.474888 -2.25862 0
M  V30 12648 C 1197.7 0.472996 -1.59223 0
M  V30 12649 O 1198.88 0.386094 -1.86853 0
M  V30 12650 C 1196.02 0.240554 -3.44261 0
M  V30 12651 C 1195.14 -0.74465 -4.25534 0
M  V30 12652 C 1194.27 -0.00657513 -5.312 0
M  V30 12653 C 1193.31 -0.982666 -6.04161 0
M  V30 12654 N 1192.45 -0.275418 -7.0156 0
M  V30 12655 H 1197.29 -1.33693 -2.66327 0
M  V30 12656 H 1194.83 -0.670439 -1.30933 0
M  V30 12657 H 1196.78 0.671933 -4.11753 0
M  V30 12658 H 1195.41 1.06664 -3.04668 0
M  V30 12659 H 1194.47 -1.29451 -3.57696 0
M  V30 12660 H 1195.78 -1.48948 -4.76042 0
M  V30 12661 H 1194.93 0.483404 -6.04771 0
M  V30 12662 H 1193.67 0.771035 -4.81567 0
M  V30 12663 H 1192.68 -1.48364 -5.29404 0
M  V30 12664 H 1193.9 -1.76052 -6.55883 0
M  V30 12665 H 1191.85 0.483441 -6.54216 0
M  V30 12666 H 1191.76 -0.959324 -7.49889 0
M  V30 12667 H 1193.03 0.193002 -7.79261 0
M  V30 12668 N 1197.26 1.39987 -0.723979 0
M  V30 12669 C 1198.49 2.0556 -0.275634 0
M  V30 12670 C 1198.91 1.54207 1.07711 0
M  V30 12671 O 1198.27 0.681041 1.68022 0
M  V30 12672 C 1198.32 3.59551 -0.27485 0
M  V30 12673 O 1197.42 4.05685 0.741182 0
M  V30 12674 H 1196.76 0.651634 -0.12755 0
M  V30 12675 H 1199.29 1.79229 -0.986814 0
M  V30 12676 H 1199.3 4.07837 -0.115425 0
M  V30 12677 H 1197.98 3.96291 -1.26198 0
M  V30 12678 H 1196.55 3.6884 0.548795 0
M  V30 12679 N 1198.74 0.470782 1.50404 0
M  V30 12680 C 1199.99 -0.0841494 2.01925 0
M  V30 12681 C 1200.31 -1.40244 1.35487 0
M  V30 12682 O 1199.58 -1.89409 0.500111 0
M  V30 12683 H 1198.16 -0.0340884 0.746222 0
M  V30 12684 H 1200.82 0.621133 1.84738 0
M  V30 12685 H 1199.92 -0.235877 3.11207 0
M  V30 12686 N 1200.22 -1.56282 0.203376 0
M  V30 12687 C 1201.49 -1.89587 -0.481256 0
M  V30 12688 C 1201.87 -1.11812 -1.79057 0
M  V30 12689 O 1201.22 -0.221759 -2.27421 0
M  V30 12690 C 1201.43 -3.42071 -0.691965 0
M  V30 12691 C 1202.78 -4.12471 -1.00761 0
M  V30 12692 O 1203.8 -3.47568 -0.779396 0
M  V30 12693 O 1202.66 -5.27194 -1.43974 0
M  V30 12694 H 1199.76 -0.787682 -0.251963 0
M  V30 12695 H 1202.3 -1.67934 0.244207 0
M  V30 12696 H 1201.08 -3.9061 0.232322 0
M  V30 12697 H 1200.7 -3.69444 -1.46958 0
M  V30 12698 N 1201.7 0.070167 -1.57444 0
M  V30 12699 C 1202.97 0.802108 -1.78397 0
M  V30 12700 C 1203.35 1.95706 -0.791356 0
M  V30 12701 O 1202.7 2.27827 0.17518 0
M  V30 12702 C 1202.91 1.27354 -3.24934 0
M  V30 12703 C 1204.26 1.70626 -3.88808 0
M  V30 12704 O 1205.28 1.36916 -3.28835 0
M  V30 12705 O 1204.14 2.33041 -4.94322 0
M  V30 12706 H 1201.24 0.384483 -0.73219 0
M  V30 12707 H 1203.78 0.0501168 -1.69626 0
M  V30 12708 H 1202.55 0.447204 -3.88736 0
M  V30 12709 H 1202.18 2.0868 -3.38435 0
M  V30 12710 N 1203.17 1.53854 0.341593 0
M  V30 12711 C 1204.4 1.75447 1.10604 0
M  V30 12712 C 1204.82 0.493225 1.81518 0
M  V30 12713 O 1204.18 -0.554253 1.7262 0
M  V30 12714 C 1204.23 2.93593 2.09369 0
M  V30 12715 O 1203.33 2.63878 3.16926 0
M  V30 12716 H 1202.67 0.581923 0.319783 0
M  V30 12717 H 1205.2 2.00822 0.391388 0
M  V30 12718 H 1205.21 3.20437 2.52556 0
M  V30 12719 H 1203.89 3.85067 1.57151 0
M  V30 12720 H 1202.47 2.47929 2.78542 0
M  V30 12721 N 1204.65 -0.602709 1.4562 0
M  V30 12722 C 1205.88 -1.39299 1.53657 0
M  V30 12723 C 1206.3 -1.87315 0.171632 0
M  V30 12724 O 1205.66 -1.60423 -0.844639 0
M  V30 12725 C 1205.71 -2.57021 2.52928 0
M  V30 12726 O 1204.81 -3.57812 2.05047 0
M  V30 12727 H 1204.15 -0.41567 0.517798 0
M  V30 12728 H 1206.68 -0.73304 1.91018 0
M  V30 12729 H 1206.69 -3.04202 2.71892 0
M  V30 12730 H 1205.37 -2.21422 3.52058 0
M  V30 12731 H 1203.94 -3.17247 1.95981 0
M  V30 12732 N 1206.13 -1.32992 -0.845635 0
M  V30 12733 C 1207.04 -1.24701 -1.98713 0
M  V30 12734 C 1208.06 -0.158864 -1.73273 0
M  V30 12735 O 1209.23 -0.381209 -1.97759 0
M  V30 12736 C 1206.3 -0.979524 -3.32575 0
M  V30 12737 C 1205.36 -2.15701 -3.71176 0
M  V30 12738 C 1204.59 -1.90219 -4.98651 0
M  V30 12739 O 1204.81 -0.849171 -5.64044 0
M  V30 12740 O 1203.75 -2.76571 -5.34595 0
M  V30 12741 H 1207.57 -2.20683 -2.08645 0
M  V30 12742 H 1205.16 -1.12971 -0.97765 0
M  V30 12743 H 1207.04 -0.847219 -4.12796 0
M  V30 12744 H 1205.72 -0.0499398 -3.23661 0
M  V30 12745 H 1204.62 -2.34483 -2.91494 0
M  V30 12746 H 1205.96 -3.0697 -3.84747 0
M  V30 12747 N 1207.61 1.06304 -1.1635 0
M  V30 12748 C 1208.52 2.17296 -0.884289 0
M  V30 12749 C 1209.53 1.73408 0.143414 0
M  V30 12750 O 1210.71 2.01373 -0.0331987 0
M  V30 12751 C 1207.77 3.44509 -0.389163 0
M  V30 12752 C 1206.84 4.02906 -1.48208 0
M  V30 12753 C 1206.07 5.24047 -1.01048 0
M  V30 12754 O 1206.29 5.70229 0.139821 0
M  V30 12755 O 1205.23 5.74394 -1.79876 0
M  V30 12756 H 1209.05 2.4369 -1.81243 0
M  V30 12757 H 1206.64 1.15841 -0.943459 0
M  V30 12758 H 1208.52 4.21229 -0.120018 0
M  V30 12759 H 1207.19 3.19642 0.510968 0
M  V30 12760 H 1206.1 3.27677 -1.80496 0
M  V30 12761 H 1207.43 4.32068 -2.35751 0
M  V30 12762 N 1209.09 0.96196 1.24836 0
M  V30 12763 C 1210 0.494876 2.29321 0
M  V30 12764 C 1211.01 -0.441363 1.68309 0
M  V30 12765 O 1212.19 -0.315814 1.98908 0
M  V30 12766 C 1209.25 -0.212944 3.46045 0
M  V30 12767 C 1208.31 0.762411 4.22476 0
M  V30 12768 C 1207.55 0.0882756 5.33627 0
M  V30 12769 O 1207.77 -1.12459 5.59204 0
M  V30 12770 O 1206.7 0.777529 5.96857 0
M  V30 12771 H 1210.53 1.36333 2.7138 0
M  V30 12772 H 1208.11 0.728738 1.30421 0
M  V30 12773 H 1210 -0.610805 4.1695 0
M  V30 12774 H 1208.67 -1.05645 3.05975 0
M  V30 12775 H 1207.58 1.21062 3.5397 0
M  V30 12776 H 1208.91 1.57416 4.66349 0
M  V30 12777 N 1210.56 -1.39601 0.731392 0
M  V30 12778 C 1211.47 -2.34425 0.090527 0
M  V30 12779 C 1212.49 -1.58131 -0.725992 0
M  V30 12780 O 1213.67 -1.90441 -0.655294 0
M  V30 12781 C 1210.73 -3.37138 -0.808624 0
M  V30 12782 C 1209.79 -4.29295 0.0197365 0
M  V30 12783 C 1209.02 -5.27102 -0.836593 0
M  V30 12784 O 1209.25 -5.31302 -2.07543 0
M  V30 12785 O 1208.18 -6.01307 -0.267172 0
M  V30 12786 H 1212.01 -2.9088 0.873084 0
M  V30 12787 H 1209.59 -1.41066 0.492024 0
M  V30 12788 H 1211.47 -4.00087 -1.32319 0
M  V30 12789 H 1210.15 -2.83074 -1.57006 0
M  V30 12790 H 1209.06 -3.69581 0.579744 0
M  V30 12791 H 1210.39 -4.86555 0.743308 0
M  V30 12792 N 1212.04 -0.478751 -1.50152 0
M  V30 12793 C 1213.29 0.0734397 -2.01967 0
M  V30 12794 C 1213.61 1.39523 -1.36229 0
M  V30 12795 O 1212.88 1.89141 -0.510149 0
M  V30 12796 H 1211.46 0.0301305 -0.746392 0
M  V30 12797 H 1214.12 -0.630921 -1.84406 0
M  V30 12798 H 1213.22 0.21937 -3.11328 0
M  V30 12799 N 1213.52 1.56172 -0.211661 0
M  V30 12800 C 1214.43 2.23468 0.714081 0
M  V30 12801 C 1215.45 1.23908 1.22159 0
M  V30 12802 O 1216.62 1.56693 1.26528 0
M  V30 12803 C 1213.69 2.89375 1.90953 0
M  V30 12804 C 1212.75 4.04251 1.44497 0
M  V30 12805 C 1211.98 4.67006 2.58343 0
M  V30 12806 O 1212.2 4.28721 3.76237 0
M  V30 12807 O 1211.14 5.56177 2.3011 0
M  V30 12808 H 1214.96 3.03219 0.170862 0
M  V30 12809 H 1212.55 1.49389 0.0183607 0
M  V30 12810 H 1214.43 3.3101 2.60787 0
M  V30 12811 H 1213.11 2.12591 2.44104 0
M  V30 12812 H 1212.01 3.67205 0.714932 0
M  V30 12813 H 1213.35 4.82748 0.959947 0
M  V30 12814 N 1215 -0.0618163 1.57479 0
M  V30 12815 C 1216.24 -0.760193 1.88013 0
M  V30 12816 C 1216.58 -1.76718 0.805258 0
M  V30 12817 O 1215.85 -1.93633 -0.183408 0
M  V30 12818 C 1216.14 -1.45924 3.29208 0
M  V30 12819 C 1215.99 -0.467994 4.47359 0
M  V30 12820 C 1217.31 -2.40166 3.68793 0
M  V30 12821 H 1214.43 -0.274896 0.683814 0
M  V30 12822 H 1217.07 -0.0232433 1.89986 0
M  V30 12823 H 1215.22 -2.08741 3.27657 0
M  V30 12824 H 1216.89 0.155735 4.61037 0
M  V30 12825 H 1215.13 0.215797 4.33263 0
M  V30 12826 H 1215.8 -0.994942 5.42959 0
M  V30 12827 H 1218.28 -1.87419 3.71501 0
M  V30 12828 H 1217.16 -2.86076 4.68457 0
M  V30 12829 H 1217.42 -3.25413 2.99264 0
M  V30 12830 N 1216.48 -1.54033 -0.333429 0
M  V30 12831 C 1217.75 -1.62404 -1.09015 0
M  V30 12832 C 1218.13 -0.451653 -2.06212 0
M  V30 12833 O 1217.48 0.555086 -2.21655 0
M  V30 12834 C 1217.69 -2.98949 -1.80085 0
M  V30 12835 C 1219.04 -3.54655 -2.33464 0
M  V30 12836 O 1220.06 -3.0119 -1.90166 0
M  V30 12837 O 1218.92 -4.48195 -3.12703 0
M  V30 12838 H 1216.02 -0.65727 -0.501921 0
M  V30 12839 H 1218.56 -1.66378 -0.33411 0
M  V30 12840 H 1217.33 -3.75716 -1.09332 0
M  V30 12841 H 1216.96 -2.98609 -2.62523 0
M  V30 12842 N 1217.95 0.594978 -1.45938 0
M  V30 12843 C 1219.18 1.38482 -1.54394 0
M  V30 12844 C 1219.6 1.87222 -0.181563 0
M  V30 12845 O 1218.96 1.60869 0.836119 0
M  V30 12846 C 1219.01 2.55676 -2.54287 0
M  V30 12847 O 1218.11 3.5672 -2.06941 0
M  V30 12848 H 1217.46 0.412918 -0.519995 0
M  V30 12849 H 1219.99 0.722899 -1.91404 0
M  V30 12850 H 1220 3.02756 -2.73501 0
M  V30 12851 H 1218.67 2.19552 -3.53228 0
M  V30 12852 H 1217.25 3.16204 -1.97661 0
M  V30 12853 N 1219.43 1.33438 0.838571 0
M  V30 12854 C 1220.34 1.25753 1.98049 0
M  V30 12855 C 1221.36 0.168051 1.73187 0
M  V30 12856 O 1222.53 0.391691 1.97554 0
M  V30 12857 C 1219.6 0.997148 3.32051 0
M  V30 12858 C 1218.66 2.17667 3.70027 0
M  V30 12859 C 1217.89 1.92861 4.97635 0
M  V30 12860 O 1218.12 0.879072 5.63585 0
M  V30 12861 O 1217.05 2.79402 5.33121 0
M  V30 12862 H 1220.88 2.21786 2.07472 0
M  V30 12863 H 1218.46 1.13488 0.971645 0
M  V30 12864 H 1220.34 0.869099 4.1234 0
M  V30 12865 H 1219.02 0.0671036 3.2363 0
M  V30 12866 H 1217.93 2.36025 2.90246 0
M  V30 12867 H 1219.26 3.09006 3.83114 0
M  V30 12868 N 1220.91 -1.05686 1.16912 0
M  V30 12869 C 1222.16 -1.78862 0.955839 0
M  V30 12870 C 1222.49 -1.87257 -0.514645 0
M  V30 12871 O 1221.76 -1.36869 -1.38193 0
M  V30 12872 C 1222.05 -3.23021 1.59152 0
M  V30 12873 C 1221.9 -3.22669 3.13376 0
M  V30 12874 C 1223.22 -4.2073 1.29128 0
M  V30 12875 H 1220.34 -0.64931 0.348663 0
M  V30 12876 H 1222.98 -1.23561 1.44335 0
M  V30 12877 H 1221.13 -3.70243 1.17697 0
M  V30 12878 H 1222.8 -2.83562 3.63855 0
M  V30 12879 H 1221.05 -2.61149 3.46386 0
M  V30 12880 H 1221.72 -4.24394 3.52979 0
M  V30 12881 H 1224.19 -3.8198 1.65017 0
M  V30 12882 H 1223.07 -5.19851 1.76198 0
M  V30 12883 H 1223.33 -4.41595 0.21119 0
M  V30 12884 N 1222.39 -0.968567 -1.24324 0
M  V30 12885 C 1223.3 -0.50703 -2.29055 0
M  V30 12886 C 1224.31 0.432431 -1.68541 0
M  V30 12887 O 1225.49 0.30526 -1.99073 0
M  V30 12888 C 1222.56 0.194589 -3.46153 0
M  V30 12889 C 1221.62 -0.784805 -4.22066 0
M  V30 12890 C 1220.85 -0.116574 -5.33573 0
M  V30 12891 O 1221.07 1.09492 -5.59792 0
M  V30 12892 O 1220.01 -0.809171 -5.96436 0
M  V30 12893 H 1223.83 -1.3777 -2.70653 0
M  V30 12894 H 1221.42 -0.735645 -1.30033 0
M  V30 12895 H 1223.3 0.588684 -4.17268 0
M  V30 12896 H 1221.97 1.04021 -3.06531 0
M  V30 12897 H 1220.88 -1.22938 -3.53323 0
M  V30 12898 H 1222.21 -1.59887 -4.65507 0
M  V30 12899 N 1223.87 1.39211 -0.738786 0
M  V30 12900 C 1225.11 2.00436 -0.28839 0
M  V30 12901 C 1225.44 1.58626 1.12552 0
M  V30 12902 O 1224.7 0.808154 1.78234 0
M  V30 12903 C 1225 3.55758 -0.342224 0
M  V30 12904 C 1224.66 4.1723 -1.70968 0
M  V30 12905 C 1223.32 4.33734 -2.08395 0
M  V30 12906 C 1225.68 4.51294 -2.60736 0
M  V30 12907 C 1223 4.81592 -3.35091 0
M  V30 12908 C 1225.36 5.00562 -3.86808 0
M  V30 12909 C 1224.02 5.15274 -4.24322 0
M  V30 12910 H 1223.29 0.733447 -0.105529 0
M  V30 12911 H 1225.94 1.66481 -0.94637 0
M  V30 12912 H 1224.24 3.8976 0.399331 0
M  V30 12913 H 1225.94 4.00993 0.0244582 0
M  V30 12914 H 1222.53 4.04788 -1.4087 0
M  V30 12915 H 1226.71 4.38158 -2.3309 0
M  V30 12916 H 1221.97 4.91167 -3.64095 0
M  V30 12917 H 1226.14 5.25892 -4.5652 0
M  V30 12918 H 1223.77 5.52119 -5.2256 0
M  V30 12919 N 1225.34 0.486708 1.49896 0
M  V30 12920 C 1226.76 0.0353906 1.86666 0
M  V30 12921 C 1227.11 -1.3743 1.40026 0
M  V30 12922 O 1226.23 -2.02163 0.77194 0
M  V30 12923 C 1226.83 0.0574475 3.38751 0
M  V30 12924 C 1225.39 -0.338464 3.74875 0
M  V30 12925 C 1224.53 0.436196 2.73848 0
M  V30 12926 H 1227.48 0.700215 1.42417 0
M  V30 12927 H 1227.5 -0.741175 3.73212 0
M  V30 12928 H 1227.02 1.08356 3.72667 0
M  V30 12929 H 1225.12 -1.36835 3.46565 0
M  V30 12930 H 1225.23 -0.0289519 4.79091 0
M  V30 12931 H 1223.59 -0.112141 2.54453 0
M  V30 12932 H 1224.38 1.46212 3.10608 0
M  V30 12933 N 1226.82 -1.56058 0.219941 0
M  V30 12934 C 1228.24 -1.59024 -0.135476 0
M  V30 12935 C 1228.44 -1.23672 -1.59083 0
M  V30 12936 O 1227.5 -0.971197 -2.33075 0
M  V30 12937 C 1228.81 -3.00103 0.189356 0
M  V30 12938 C 1230.36 -3.12724 0.131463 0
M  V30 12939 C 1230.83 -4.55977 0.429947 0
M  V30 12940 N 1232.32 -4.61643 0.37946 0
M  V30 12941 C 1233.06 -5.70419 0.58393 0
M  V30 12942 N 1232.55 -6.87565 0.850088 0
M  V30 12943 N 1234.35 -5.59722 0.516477 0
M  V30 12944 H 1226.5 -1.77313 1.16935 0
M  V30 12945 H 1228.76 -0.824096 0.468583 0
M  V30 12946 H 1228.47 -3.30616 1.19941 0
M  V30 12947 H 1228.34 -3.73919 -0.49641 0
M  V30 12948 H 1230.73 -2.82008 -0.869223 0
M  V30 12949 H 1230.81 -2.41241 0.85068 0
M  V30 12950 H 1230.45 -4.8741 1.42806 0
M  V30 12951 H 1230.38 -5.25684 -0.310444 0
M  V30 12952 H 1232.87 -3.77465 0.181373 0
M  V30 12953 H 1233.19 -7.66378 0.994251 0
M  V30 12954 H 1231.53 -6.89313 0.887265 0
M  V30 12955 H 1234.72 -4.6708 0.308784 0
M  V30 12956 H 1234.9 -6.4443 0.679236 0
M  V30 12957 N 1228.3 0.053464 -1.57509 0
M  V30 12958 C 1229.72 0.408651 -1.5428 0
M  V30 12959 C 1229.92 1.78086 -0.942735 0
M  V30 12960 O 1228.97 2.46366 -0.553163 0
M  V30 12961 C 1230.29 0.332884 -2.98852 0
M  V30 12962 C 1231.83 0.411745 -3.1028 0
M  V30 12963 C 1232.31 0.365691 -4.56538 0
M  V30 12964 N 1233.8 0.425222 -4.61244 0
M  V30 12965 C 1234.54 0.412093 -5.71917 0
M  V30 12966 N 1234.03 0.352693 -6.91902 0
M  V30 12967 N 1235.82 0.460016 -5.60214 0
M  V30 12968 H 1227.98 -0.844834 -1.94875 0
M  V30 12969 H 1230.24 -0.318888 -0.892757 0
M  V30 12970 H 1229.94 -0.609116 -3.46385 0
M  V30 12971 H 1229.82 1.13605 -3.59686 0
M  V30 12972 H 1232.21 1.34417 -2.62709 0
M  V30 12973 H 1232.29 -0.420333 -2.52323 0
M  V30 12974 H 1231.93 -0.562963 -5.0477 0
M  V30 12975 H 1231.86 1.21555 -5.12379 0
M  V30 12976 H 1234.35 0.474634 -3.74908 0
M  V30 12977 H 1234.66 0.347105 -7.7202 0
M  V30 12978 H 1233.01 0.319104 -6.94267 0
M  V30 12979 H 1236.2 0.504242 -4.65376 0
M  V30 12980 H 1236.37 0.446315 -6.46461 0
M  V30 12981 N 1229.78 1.54207 0.325255 0
M  V30 12982 C 1230.71 1.79812 1.42128 0
M  V30 12983 C 1231.72 0.68003 1.47917 0
M  V30 12984 O 1232.91 0.957107 1.50671 0
M  V30 12985 C 1230.01 1.89935 2.80674 0
M  V30 12986 C 1229.19 3.20078 2.98108 0
M  V30 12987 C 1228.25 3.20924 4.17006 0
M  V30 12988 O 1227.27 3.94571 4.10247 0
M  V30 12989 N 1228.47 2.44588 5.26457 0
M  V30 12990 H 1231.24 2.74396 1.20527 0
M  V30 12991 H 1228.8 1.53483 0.515233 0
M  V30 12992 H 1230.79 1.8793 3.58419 0
M  V30 12993 H 1229.36 1.02455 2.95333 0
M  V30 12994 H 1228.58 3.35057 2.07679 0
M  V30 12995 H 1229.87 4.06008 3.06651 0
M  V30 12996 H 1229.27 1.8434 5.34823 0
M  V30 12997 H 1227.82 2.48363 6.02627 0
M  V30 12998 N 1231.26 -0.58723 1.46251 0
M  V30 12999 C 1232.67 -0.910129 1.31106 0
M  V30 13000 C 1232.87 -1.99557 0.279141 0
M  V30 13001 O 1231.93 -2.50466 -0.319867 0
M  V30 13002 C 1233.24 -1.33177 2.69601 0
M  V30 13003 C 1234.79 -1.44486 2.77656 0
M  V30 13004 C 1235.27 -1.90018 4.16722 0
M  V30 13005 N 1236.76 -1.97219 4.19117 0
M  V30 13006 C 1237.49 -2.33714 5.23608 0
M  V30 13007 N 1236.99 -2.69034 6.3843 0
M  V30 13008 N 1238.78 -2.3423 5.10972 0
M  V30 13009 H 1230.93 0.12987 2.12003 0
M  V30 13010 H 1233.19 -0.00456718 0.947989 0
M  V30 13011 H 1232.9 -0.608243 3.464 0
M  V30 13012 H 1232.77 -2.29421 2.99409 0
M  V30 13013 H 1235.16 -2.15926 2.01147 0
M  V30 13014 H 1235.24 -0.465047 2.51537 0
M  V30 13015 H 1234.89 -1.19159 4.93724 0
M  V30 13016 H 1234.82 -2.88949 4.40245 0
M  V30 13017 H 1237.31 -1.72431 3.36268 0
M  V30 13018 H 1237.62 -2.95822 7.13939 0
M  V30 13019 H 1235.97 -2.66683 6.41798 0
M  V30 13020 H 1239.16 -2.06056 4.20308 0
M  V30 13021 H 1239.33 -2.62345 5.92519 0
M  V30 13022 N 1232.74 -1.33881 -0.831482 0
M  V30 13023 C 1234.15 -1.23112 -1.40358 0
M  V30 13024 C 1234.5 0.146944 -1.95649 0
M  V30 13025 O 1233.62 1.04689 -1.89391 0
M  V30 13026 C 1234.22 -2.22899 -2.5515 0
M  V30 13027 C 1232.78 -2.15946 -3.08292 0
M  V30 13028 C 1231.92 -2.09975 -1.81124 0
M  V30 13029 H 1234.87 -1.45372 -0.63661 0
M  V30 13030 H 1234.9 -1.841 -3.32997 0
M  V30 13031 H 1234.41 -3.23186 -2.14878 0
M  V30 13032 H 1232.51 -1.18987 -3.53091 0
M  V30 13033 H 1232.62 -3.06822 -3.67964 0
M  V30 13034 H 1230.99 -1.55564 -2.01673 0
M  V30 13035 H 1231.77 -3.12082 -1.43037 0
M  V30 13036 N 1234.21 1.05064 -1.1747 0
M  V30 13037 C 1235.16 2.11131 -0.860692 0
M  V30 13038 C 1236.15 1.60049 0.165288 0
M  V30 13039 O 1237.34 1.76961 -0.0373288 0
M  V30 13040 C 1234.47 3.41222 -0.37718 0
M  V30 13041 C 1233.55 3.99097 -1.43466 0
M  V30 13042 N 1233.95 4.30918 -2.64846 0
M  V30 13043 C 1232.24 4.26851 -1.29282 0
M  V30 13044 C 1232.94 4.77092 -3.32804 0
M  V30 13045 N 1231.92 4.77291 -2.60182 0
M  V30 13046 H 1235.72 2.33597 -1.78353 0
M  V30 13047 H 1233.24 1.22724 -1.06361 0
M  V30 13048 H 1235.23 4.16685 -0.133766 0
M  V30 13049 H 1233.89 3.20188 0.53944 0
M  V30 13050 H 1234.9 4.20877 -3.01799 0
M  V30 13051 H 1231.58 4.15197 -0.437949 0
M  V30 13052 H 1232.97 5.10815 -4.36483 0
M  V30 13053 N 1235.69 0.975146 1.23809 0
M  V30 13054 C 1237.11 0.682899 1.44252 0
M  V30 13055 C 1237.31 -0.752739 1.86912 0
M  V30 13056 O 1236.36 -1.52579 2.01186 0
M  V30 13057 C 1237.68 1.67335 2.49839 0
M  V30 13058 C 1239.22 1.6868 2.63659 0
M  V30 13059 C 1239.7 2.66542 3.72451 0
M  V30 13060 N 1241.19 2.65028 3.79887 0
M  V30 13061 C 1241.93 3.37421 4.63611 0
M  V30 13062 N 1241.42 4.19355 5.51465 0
M  V30 13063 N 1243.21 3.2621 4.57759 0
M  V30 13064 H 1235.37 1.9026 0.94418 0
M  V30 13065 H 1237.63 0.819543 0.476502 0
M  V30 13066 H 1237.33 2.69978 2.25399 0
M  V30 13067 H 1237.21 1.45201 3.48133 0
M  V30 13068 H 1239.6 0.667438 2.87453 0
M  V30 13069 H 1239.68 1.94878 1.65699 0
M  V30 13070 H 1239.32 3.68617 3.49405 0
M  V30 13071 H 1239.25 2.3762 4.69941 0
M  V30 13072 H 1241.74 2.05562 3.171 0
M  V30 13073 H 1242.05 4.71461 6.12327 0
M  V30 13074 H 1240.4 4.23447 5.51106 0
M  V30 13075 H 1243.59 2.61656 3.88142 0
M  V30 13076 H 1243.76 3.82889 5.22781 0
M  V30 13077 N 1237.17 -1.38817 0.746158 0
M  V30 13078 C 1238.41 -2.02129 0.303843 0
M  V30 13079 C 1238.77 -1.57943 -1.0917 0
M  V30 13080 O 1239.97 -2.13532 -1.63272 0
M  V30 13081 C 1238.25 -3.5499 0.414379 0
M  V30 13082 S 1239.8 -4.38767 0.0535495 0
M  V30 13083 H 1236.62 -0.701084 0.118329 0
M  V30 13084 H 1239.22 -1.69444 0.975137 0
M  V30 13085 H 1237.93 -3.84638 1.43114 0
M  V30 13086 H 1237.46 -3.92442 -0.274355 0
M  V30 13087 H 1239.47 -4.82469 -1.15921 0
M  V30 13088 N 1238.65 -0.49465 -1.49636 0
M  V30 13089 C 1239.9 0.0539277 -2.01628 0
M  V30 13090 C 1240.21 1.38634 -1.37986 0
M  V30 13091 O 1241.42 2.02123 -1.81269 0
M  V30 13092 C 1239.87 0.146582 -3.59601 0
M  V30 13093 C 1239.48 -1.1788 -4.32213 0
M  V30 13094 C 1241.22 0.645862 -4.19558 0
M  V30 13095 C 1239.13 -1.04866 -5.82028 0
M  V30 13096 H 1238.06 0.0239278 -0.75362 0
M  V30 13097 H 1240.71 -0.633112 -1.72232 0
M  V30 13098 H 1239.09 0.897931 -3.85685 0
M  V30 13099 H 1240.27 -1.94295 -4.17835 0
M  V30 13100 H 1238.58 -1.61102 -3.83973 0
M  V30 13101 H 1241.18 0.76064 -5.29262 0
M  V30 13102 H 1241.52 1.64313 -3.82501 0
M  V30 13103 H 1242.06 -0.04877 -3.9777 0
M  V30 13104 H 1238.79 -2.02 -6.23599 0
M  V30 13105 H 1238.31 -0.325293 -5.98917 0
M  V30 13106 H 1239.99 -0.724799 -6.42927 0
M  V30 13107 N 1240.13 1.55939 -0.228214 0
M  V30 13108 C 1241.35 2.0332 0.409364 0
M  V30 13109 C 1241.78 1.10683 1.52088 0
M  V30 13110 O 1241.13 0.0962484 1.81044 0
M  V30 13111 C 1241.18 3.48877 0.911981 0
M  V30 13112 O 1240.29 3.59378 2.02289 0
M  V30 13113 H 1239.63 0.657625 0.0917909 0
M  V30 13114 H 1242.16 2.01605 -0.348802 0
M  V30 13115 H 1242.17 3.89331 1.22007 0
M  V30 13116 H 1240.84 4.15783 0.0984902 0
M  V30 13117 H 1239.42 3.30815 1.72093 0
M  V30 13118 N 1241.6 -0.0451101 1.57535 0
M  V30 13119 C 1242.83 -0.755068 1.93167 0
M  V30 13120 C 1243.25 -1.68949 0.826915 0
M  V30 13121 O 1242.61 -1.79978 -0.218534 0
M  V30 13122 C 1242.66 -1.50201 3.27829 0
M  V30 13123 O 1241.76 -2.61434 3.18945 0
M  V30 13124 H 1241.11 -0.204219 0.631815 0
M  V30 13125 H 1243.64 -0.00537504 2.04599 0
M  V30 13126 H 1243.65 -1.87547 3.6234 0
M  V30 13127 H 1242.32 -0.816591 4.07805 0
M  V30 13128 H 1240.9 -2.26749 2.96039 0
M  V30 13129 N 1243.08 -1.54377 -0.317073 0
M  V30 13130 C 1244.32 -1.74621 -1.06239 0
M  V30 13131 C 1244.69 -0.512542 -1.85032 0
M  V30 13132 O 1245.89 -0.592438 -2.6219 0
M  V30 13133 C 1244.16 -2.99036 -1.95735 0
M  V30 13134 S 1245.72 -3.40212 -2.77131 0
M  V30 13135 H 1242.54 -0.613969 -0.358557 0
M  V30 13136 H 1245.14 -1.92562 -0.33763 0
M  V30 13137 H 1243.84 -3.86965 -1.36697 0
M  V30 13138 H 1243.37 -2.83636 -2.72606 0
M  V30 13139 H 1245.39 -2.9602 -3.98229 0
M  V30 13140 N 1244.56 0.579466 -1.4656 0
M  V30 13141 C 1245.49 1.70291 -1.53406 0
M  V30 13142 C 1246.51 1.57232 -0.422116 0
M  V30 13143 O 1247.69 1.64598 -0.69064 0
M  V30 13144 C 1244.79 3.08572 -1.40131 0
M  V30 13145 C 1243.97 3.47602 -2.65502 0
M  V30 13146 C 1243.03 4.64955 -2.4638 0
M  V30 13147 O 1242.05 4.70653 -3.20116 0
M  V30 13148 N 1243.25 5.60041 -1.52756 0
M  V30 13149 H 1246.02 1.64873 -2.50274 0
M  V30 13150 H 1243.58 0.765533 -1.42658 0
M  V30 13151 H 1245.57 3.84877 -1.25106 0
M  V30 13152 H 1244.14 3.0834 -0.514322 0
M  V30 13153 H 1243.36 2.60969 -2.95446 0
M  V30 13154 H 1244.65 3.70446 -3.48779 0
M  V30 13155 H 1244.05 5.58176 -0.919587 0
M  V30 13156 H 1242.61 6.35764 -1.43693 0
M  V30 13157 N 1246.04 1.3432 0.824371 0
M  V30 13158 C 1247.26 1.2982 1.61745 0
M  V30 13159 C 1247.69 -0.125298 1.87682 0
M  V30 13160 O 1247.05 -1.08658 1.45131 0
M  V30 13161 C 1247.09 2.09327 2.93623 0
M  V30 13162 O 1246.2 1.4618 3.85623 0
M  V30 13163 H 1245.54 0.445929 0.491979 0
M  V30 13164 H 1248.07 1.77101 1.02452 0
M  V30 13165 H 1248.08 2.20629 3.43201 0
M  V30 13166 H 1246.75 3.12825 2.74069 0
M  V30 13167 H 1245.33 1.43611 3.44137 0
M  V30 13168 N 1247.52 -1.0444 1.18026 0
M  V30 13169 C 1248.75 -1.80971 0.996642 0
M  V30 13170 C 1249.15 -1.83568 -0.458192 0
M  V30 13171 O 1248.5 -1.26713 -1.33002 0
M  V30 13172 C 1248.56 -3.28051 1.47048 0
M  V30 13173 C 1248.22 -3.49122 2.94895 0
M  V30 13174 C 1249.22 -3.40621 3.92777 0
M  V30 13175 C 1246.91 -3.7584 3.33241 0
M  V30 13176 C 1248.9 -3.58535 5.27002 0
M  V30 13177 C 1246.59 -3.93402 4.6763 0
M  V30 13178 C 1247.58 -3.84749 5.6432 0
M  V30 13179 O 1247.27 -4.01813 6.96277 0
M  V30 13180 H 1247 -0.576873 0.352411 0
M  V30 13181 H 1249.56 -1.32542 1.56913 0
M  V30 13182 H 1247.79 -3.77431 0.841609 0
M  V30 13183 H 1249.48 -3.8613 1.25135 0
M  V30 13184 H 1250.24 -3.19948 3.64497 0
M  V30 13185 H 1246.12 -3.81674 2.58545 0
M  V30 13186 H 1249.67 -3.51698 6.02457 0
M  V30 13187 H 1245.56 -4.13568 4.95613 0
M  V30 13188 H 1246.33 -4.18995 7.03126 0
M  V30 13189 N 1248.99 -0.981699 -1.2329 0
M  V30 13190 C 1250.22 -0.669025 -1.96313 0
M  V30 13191 C 1250.64 0.757624 -1.72168 0
M  V30 13192 O 1250 1.51626 -0.993942 0
M  V30 13193 C 1250.05 -0.966875 -3.47396 0
M  V30 13194 O 1249.15 -0.0595933 -4.12357 0
M  V30 13195 H 1248.5 -0.251493 -0.61453 0
M  V30 13196 H 1251.03 -1.31564 -1.56691 0
M  V30 13197 H 1251.04 -0.904112 -3.97857 0
M  V30 13198 H 1249.71 -2.00651 -3.64296 0
M  V30 13199 H 1248.29 -0.176878 -3.7248 0
M  V30 13200 N 1250.47 1.3842 -0.753509 0
M  V30 13201 C 1251.7 2.04403 -0.320449 0
M  V30 13202 C 1252.12 1.5683 1.05118 0
M  V30 13203 O 1251.47 0.741335 1.66765 0
M  V30 13204 C 1251.52 3.59954 -0.333937 0
M  V30 13205 O 1251.24 4.05782 -1.65144 0
M  V30 13206 C 1252.75 4.43156 0.112997 0
M  V30 13207 H 1249.97 0.656881 -0.136927 0
M  V30 13208 H 1252.51 1.77112 -1.02234 0
M  V30 13209 H 1250.66 3.86083 0.319215 0
M  V30 13210 H 1251.08 5.00213 -1.57757 0
M  V30 13211 H 1252.55 5.51975 0.0523995 0
M  V30 13212 H 1253.03 4.23581 1.16087 0
M  V30 13213 H 1253.64 4.22216 -0.511278 0
M  V30 13214 N 1251.95 0.502579 1.49372 0
M  V30 13215 C 1253.2 -0.041381 2.02458 0
M  V30 13216 C 1253.53 -1.36848 1.38213 0
M  V30 13217 O 1252.78 -1.89003 0.507568 0
M  V30 13218 C 1253.08 -0.240835 3.56588 0
M  V30 13219 C 1252.75 1.00846 4.39478 0
M  V30 13220 C 1251.41 1.35091 4.61848 0
M  V30 13221 C 1253.76 1.8388 4.87686 0
M  V30 13222 C 1251.09 2.52318 5.29672 0
M  V30 13223 C 1253.44 3.00262 5.56799 0
M  V30 13224 C 1252.1 3.34885 5.77415 0
M  V30 13225 H 1251.37 -0.0151424 0.740845 0
M  V30 13226 H 1254.02 0.663056 1.79655 0
M  V30 13227 H 1252.33 -1.02781 3.78078 0
M  V30 13228 H 1254.02 -0.676194 3.95258 0
M  V30 13229 H 1250.61 0.731719 4.22308 0
M  V30 13230 H 1254.8 1.58738 4.7023 0
M  V30 13231 H 1250.05 2.79379 5.43836 0
M  V30 13232 H 1254.23 3.64927 5.93128 0
M  V30 13233 H 1251.85 4.25824 6.29744 0
M  V30 13234 N 1253.43 -1.55816 0.23648 0
M  V30 13235 C 1254.65 -2.03534 -0.398575 0
M  V30 13236 C 1255.08 -1.11488 -1.51499 0
M  V30 13237 O 1254.44 -0.105848 -1.80991 0
M  V30 13238 C 1254.48 -3.49356 -0.893467 0
M  V30 13239 O 1253.59 -3.60446 -2.00381 0
M  V30 13240 H 1252.93 -0.658102 -0.0883021 0
M  V30 13241 H 1255.46 -2.01417 0.359488 0
M  V30 13242 H 1255.47 -3.89972 -1.19941 0
M  V30 13243 H 1254.14 -4.1583 -0.0764388 0
M  V30 13244 H 1252.72 -3.31723 -1.70336 0
M  V30 13245 N 1254.91 0.036755 -1.57557 0
M  V30 13246 C 1256.13 0.744813 -1.93565 0
M  V30 13247 C 1256.56 1.68508 -0.835863 0
M  V30 13248 O 1255.91 1.80091 0.208986 0
M  V30 13249 C 1255.96 1.48461 -3.28621 0
M  V30 13250 O 1255.07 2.59739 -3.20327 0
M  V30 13251 H 1254.41 0.200866 -0.632889 0
M  V30 13252 H 1256.94 -0.00547543 -2.04599 0
M  V30 13253 H 1256.95 1.85622 -3.63329 0
M  V30 13254 H 1255.62 0.794953 -4.08232 0
M  V30 13255 H 1254.2 2.25176 -2.97237 0
M  V30 13256 N 1256.39 1.54543 0.308881 0
M  V30 13257 C 1257.3 1.87994 1.4034 0
M  V30 13258 C 1258.31 0.773294 1.55872 0
M  V30 13259 O 1259.49 1.069 1.70688 0
M  V30 13260 C 1256.55 2.11341 2.74838 0
M  V30 13261 C 1255.61 3.35086 2.68358 0
M  V30 13262 C 1254.85 3.5731 3.96441 0
M  V30 13263 O 1255.07 2.82692 4.9542 0
M  V30 13264 O 1254 4.50814 3.98811 0
M  V30 13265 H 1257.83 2.81094 1.14976 0
M  V30 13266 H 1255.41 1.40634 0.504236 0
M  V30 13267 H 1257.3 2.27943 3.54429 0
M  V30 13268 H 1255.97 1.21427 3.00062 0
M  V30 13269 H 1254.88 3.23855 1.87267 0
M  V30 13270 H 1256.21 4.25104 2.48087 0
M  V30 13271 N 1257.86 -0.571685 1.46866 0
M  V30 13272 C 1258.81 -1.70098 1.58649 0
M  V30 13273 C 1259.81 -1.63191 0.45443 0
M  V30 13274 O 1261.01 -1.68551 0.63171 0
M  V30 13275 H 1257.39 -0.56258 0.499007 0
M  V30 13276 H 1259.36 -1.57293 2.53577 0
M  V30 13277 C 1258.11 -3.08475 1.60433 0
M  V30 13278 H 1257.43 -3.14465 2.46884 0
M  V30 13279 H 1258.87 -3.87221 1.7273 0
M  V30 13280 C 1257.33 -3.35231 0.334948 0
M  V30 13281 O 1257.86 -3.97633 -0.570149 0
M  V30 13282 N 1256.06 -2.8977 0.219441 0
M  V30 13283 H 1255.61 -2.39168 0.956891 0
M  V30 13284 H 1255.57 -3.08044 -0.628975 0
M  V30 13285 N 1259.34 -1.34755 -0.817236 0
M  V30 13286 C 1260.59 -1.27432 -1.57377 0
M  V30 13287 C 1260.92 0.15419 -1.93888 0
M  V30 13288 O 1260.17 1.11686 -1.60701 0
M  V30 13289 C 1260.47 -2.11611 -2.8802 0
M  V30 13290 C 1260.14 -3.60543 -2.70776 0
M  V30 13291 C 1258.8 -4.01141 -2.6578 0
M  V30 13292 C 1261.15 -4.55089 -2.54053 0
M  V30 13293 C 1258.48 -5.34469 -2.41991 0
M  V30 13294 C 1260.83 -5.88603 -2.31795 0
M  V30 13295 C 1259.49 -6.28358 -2.25215 0
M  V30 13296 H 1258.76 -0.466305 -0.575882 0
M  V30 13297 H 1261.41 -1.66552 -0.945128 0
M  V30 13298 H 1259.72 -1.65336 -3.55206 0
M  V30 13299 H 1261.41 -2.03287 -3.45652 0
M  V30 13300 H 1258 -3.2832 -2.75506 0
M  V30 13301 H 1262.19 -4.24617 -2.56932 0
M  V30 13302 H 1257.44 -5.64284 -2.35359 0
M  V30 13303 H 1261.62 -6.61451 -2.17844 0
M  V30 13304 H 1259.24 -7.31604 -2.06543 0
M  V30 13305 N 1260.82 1.03812 -1.18578 0
M  V30 13306 C 1262.04 1.8124 -1.00831 0
M  V30 13307 C 1262.47 1.82917 0.43853 0
M  V30 13308 O 1261.83 1.24835 1.31476 0
M  V30 13309 C 1261.88 3.24592 -1.57075 0
M  V30 13310 O 1260.98 4.04688 -0.793824 0
M  V30 13311 H 1260.32 0.559846 -0.357028 0
M  V30 13312 H 1262.85 1.30724 -1.57393 0
M  V30 13313 H 1262.86 3.75363 -1.59896 0
M  V30 13314 H 1261.54 3.22686 -2.62387 0
M  V30 13315 H 1260.11 3.63359 -0.838134 0
M  V30 13316 N 1262.3 0.988223 1.22768 0
M  V30 13317 C 1263.54 0.662441 1.91676 0
M  V30 13318 C 1263.88 -0.802931 1.76824 0
M  V30 13319 O 1263.15 -1.58011 1.13415 0
M  V30 13320 C 1263.43 1.06332 3.44043 0
M  V30 13321 C 1263.29 2.5869 3.67967 0
M  V30 13322 C 1264.61 0.613058 4.35809 0
M  V30 13323 H 1261.73 0.242132 0.69609 0
M  V30 13324 H 1264.37 1.23091 1.44736 0
M  V30 13325 H 1262.52 0.579623 3.84152 0
M  V30 13326 H 1264.19 3.14694 3.37291 0
M  V30 13327 H 1262.43 3.00971 3.12408 0
M  V30 13328 H 1263.1 2.8179 4.74656 0
M  V30 13329 H 1265.58 1.02846 4.0319 0
M  V30 13330 H 1264.46 0.921901 5.41103 0
M  V30 13331 H 1264.72 -0.48641 4.39416 0
M  V30 13332 N 1263.78 -1.38018 0.760839 0
M  V30 13333 C 1265 -2.04757 0.330038 0
M  V30 13334 C 1265.43 -1.57009 -1.03585 0
M  V30 13335 O 1264.78 -0.725349 -1.66158 0
M  V30 13336 C 1264.83 -3.58696 0.370082 0
M  V30 13337 O 1263.94 -4.07507 -0.633361 0
M  V30 13338 H 1263.28 -0.648023 0.144782 0
M  V30 13339 H 1265.81 -1.7655 1.03399 0
M  V30 13340 H 1265.82 -4.07387 0.223515 0
M  V30 13341 H 1264.49 -3.92806 1.36661 0
M  V30 13342 H 1263.07 -3.70165 -0.45081 0
M  V30 13343 N 1265.25 -0.510493 -1.49103 0
M  V30 13344 C 1266.53 0.0941122 -1.95373 0
M  V30 13345 C 1266.91 1.53207 -1.45227 0
M  V30 13346 O 1266.26 2.18452 -0.670161 0
M  V30 13347 C 1266.47 -0.00302507 -3.49 0
M  V30 13348 C 1267.82 0.166117 -4.24275 0
M  V30 13349 O 1268.84 0.0717097 -3.56128 0
M  V30 13350 O 1267.7 0.361155 -5.45305 0
M  V30 13351 H 1264.79 0.0900741 -0.82208 0
M  V30 13352 H 1267.34 -0.573707 -1.59708 0
M  V30 13353 H 1266.11 -1.00545 -3.78162 0
M  V30 13354 H 1265.73 0.704518 -3.91308 0
M  V30 13355 N 1266.73 1.55688 -0.24474 0
M  V30 13356 C 1267.98 1.98498 0.379852 0
M  V30 13357 C 1268.3 1.13416 1.58625 0
M  V30 13358 O 1267.57 0.216456 1.947 0
M  V30 13359 H 1266.15 0.73312 0.143334 0
M  V30 13360 H 1268.81 1.91858 -0.343027 0
M  V30 13361 H 1267.91 3.04367 0.690463 0
M  V30 13362 N 1268.21 -0.0283989 1.57574 0
M  V30 13363 C 1269.12 -1.04575 2.10003 0
M  V30 13364 C 1270.14 -1.39588 1.03881 0
M  V30 13365 O 1271.31 -1.48894 1.35619 0
M  V30 13366 C 1268.38 -2.32755 2.56955 0
M  V30 13367 C 1267.44 -2.04317 3.77562 0
M  V30 13368 C 1266.67 -3.26385 4.22266 0
M  V30 13369 O 1266.89 -4.37082 3.66491 0
M  V30 13370 O 1265.83 -3.12046 5.14695 0
M  V30 13371 H 1269.65 -0.630183 2.9709 0
M  V30 13372 H 1267.24 -0.245423 1.4737 0
M  V30 13373 H 1269.12 -3.08111 2.87482 0
M  V30 13374 H 1267.8 -2.73605 1.72979 0
M  V30 13375 H 1266.7 -1.26527 3.52054 0
M  V30 13376 H 1268.04 -1.68321 4.62524 0
M  V30 13377 N 1269.69 -1.54705 -0.300681 0
M  V30 13378 C 1270.6 -1.88736 -1.39341 0
M  V30 13379 C 1271.61 -0.78155 -1.5546 0
M  V30 13380 O 1272.79 -1.07804 -1.70118 0
M  V30 13381 C 1269.85 -2.12795 -2.73713 0
M  V30 13382 C 1268.92 -3.36504 -2.66577 0
M  V30 13383 C 1268.15 -3.59407 -3.94541 0
M  V30 13384 O 1268.37 -2.85315 -4.93914 0
M  V30 13385 O 1267.31 -4.52923 -3.96415 0
M  V30 13386 H 1271.13 -2.817 -1.13484 0
M  V30 13387 H 1268.72 -1.40899 -0.496771 0
M  V30 13388 H 1270.6 -2.29819 -3.53215 0
M  V30 13389 H 1269.27 -1.23017 -2.99414 0
M  V30 13390 H 1268.18 -3.24844 -1.85546 0
M  V30 13391 H 1269.51 -4.26414 -2.45829 0
M  V30 13392 N 1271.17 0.563888 -1.47167 0
M  V30 13393 C 1272.41 1.31875 -1.53145 0
M  V30 13394 C 1272.74 1.94047 -0.192518 0
M  V30 13395 O 1272.01 1.79577 0.782872 0
M  V30 13396 H 1270.59 0.489694 -0.5641 0
M  V30 13397 H 1273.25 0.658976 -1.83422 0
M  V30 13398 H 1272.34 2.11574 -2.2944 0
M  V30 13399 N 1272.64 1.35187 0.810078 0
M  V30 13400 C 1273.59 1.27848 1.94313 0
M  V30 13401 C 1274.59 0.174081 1.68503 0
M  V30 13402 O 1275.79 0.339848 1.76763 0
M  V30 13403 H 1272.17 0.397504 0.638353 0
M  V30 13404 H 1274.14 2.23579 1.97623 0
M  V30 13405 C 1272.89 1.06382 3.31026 0
M  V30 13406 H 1272.21 1.90601 3.51441 0
M  V30 13407 H 1273.65 1.05287 4.1072 0
M  V30 13408 C 1272.11 -0.232462 3.36097 0
M  V30 13409 O 1272.64 -1.22946 3.82423 0
M  V30 13410 N 1270.85 -0.270028 2.89343 0
M  V30 13411 H 1270.39 0.541891 2.51836 0
M  V30 13412 H 1270.35 -1.13708 2.93117 0
M  V30 13413 N 1274.12 -1.03182 1.19127 0
M  V30 13414 C 1275.35 -1.80165 1.01726 0
M  V30 13415 C 1275.77 -1.83742 -0.434095 0
M  V30 13416 O 1275.12 -1.27932 -1.30152 0
M  V30 13417 C 1275.17 -3.25354 1.57566 0
M  V30 13418 O 1274.89 -3.22042 2.9702 0
M  V30 13419 C 1276.4 -4.18948 1.44906 0
M  V30 13420 H 1273.62 -0.567078 0.358698 0
M  V30 13421 H 1276.16 -1.29982 1.57877 0
M  V30 13422 H 1274.31 -3.72738 1.0557 0
M  V30 13423 H 1274.73 -4.13061 3.23235 0
M  V30 13424 H 1276.2 -5.18723 1.88762 0
M  V30 13425 H 1276.68 -4.37383 0.399125 0
M  V30 13426 H 1277.29 -3.77435 1.96018 0
M  V30 13427 N 1275.6 -0.99472 -1.22242 0
M  V30 13428 C 1276.83 -0.689809 -1.95592 0
M  V30 13429 C 1277.25 0.739321 -1.72961 0
M  V30 13430 O 1276.61 1.50563 -1.00997 0
M  V30 13431 C 1276.66 -1.00367 -3.46351 0
M  V30 13432 O 1275.76 -0.103326 -4.12271 0
M  V30 13433 H 1275.1 -0.257997 -0.611828 0
M  V30 13434 H 1277.63 -1.33219 -1.55286 0
M  V30 13435 H 1277.64 -0.946259 -3.96875 0
M  V30 13436 H 1276.32 -2.04504 -3.62148 0
M  V30 13437 H 1274.89 -0.216374 -3.72272 0
M  V30 13438 N 1277.08 1.37613 -0.768148 0
M  V30 13439 C 1278.36 1.93921 -0.255724 0
M  V30 13440 C 1278.74 1.70215 1.2486 0
M  V30 13441 O 1278.08 1.0489 2.03003 0
M  V30 13442 C 1278.29 3.43354 -0.625204 0
M  V30 13443 C 1279.64 4.20439 -0.592978 0
M  V30 13444 O 1280.67 3.51701 -0.564375 0
M  V30 13445 O 1279.52 5.43008 -0.616849 0
M  V30 13446 H 1276.62 0.824968 -0.0579366 0
M  V30 13447 H 1279.16 1.46921 -0.849257 0
M  V30 13448 H 1277.94 3.54177 -1.66356 0
M  V30 13449 H 1277.56 3.976 -0.00442816 0
M  V30 13450 N 1278.56 0.518393 1.4883 0
M  V30 13451 C 1279.51 -0.270295 2.26392 0
M  V30 13452 C 1280.49 -0.9202 1.31989 0
M  V30 13453 O 1281.68 -0.824923 1.56601 0
M  V30 13454 C 1278.81 -1.32368 3.16755 0
M  V30 13455 C 1277.9 -0.679143 4.18627 0
M  V30 13456 N 1278.29 0.228392 5.05284 0
M  V30 13457 C 1276.59 -0.937712 4.36031 0
M  V30 13458 C 1277.29 0.599076 5.78607 0
M  V30 13459 N 1276.26 -0.0371273 5.43587 0
M  V30 13460 H 1280.07 0.428066 2.90766 0
M  V30 13461 H 1277.58 0.335632 1.58894 0
M  V30 13462 H 1279.58 -1.9023 3.70969 0
M  V30 13463 H 1278.24 -2.02354 2.53935 0
M  V30 13464 H 1279.25 0.600292 5.14409 0
M  V30 13465 H 1275.92 -1.62901 3.84408 0
M  V30 13466 H 1277.31 1.34256 6.5835 0
M  V30 13467 N 1280.03 -1.55556 0.252993 0
M  V30 13468 C 1281.26 -2.03945 -0.376965 0
M  V30 13469 C 1281.68 -1.13089 -1.50308 0
M  V30 13470 O 1281.04 -0.125039 -1.80868 0
M  V30 13471 C 1281.09 -3.50284 -0.856363 0
M  V30 13472 O 1280.19 -3.62551 -1.96546 0
M  V30 13473 H 1279.54 -0.659002 -0.081317 0
M  V30 13474 H 1282.07 -2.01024 0.380831 0
M  V30 13475 H 1282.08 -3.91222 -1.15798 0
M  V30 13476 H 1280.75 -4.15887 -0.0323302 0
M  V30 13477 H 1279.33 -3.33511 -1.66808 0
M  V30 13478 N 1281.51 0.0200419 -1.57587 0
M  V30 13479 C 1282.46 1.0362 -2.08244 0
M  V30 13480 C 1283.45 1.36872 -0.998119 0
M  V30 13481 O 1284.66 1.35671 -1.18293 0
M  V30 13482 H 1281.04 0.351731 -0.664673 0
M  V30 13483 H 1283.01 0.583226 -2.92645 0
M  V30 13484 C 1281.76 2.32574 -2.58466 0
M  V30 13485 H 1281.08 2.0785 -3.41523 0
M  V30 13486 H 1282.52 3.02 -2.97611 0
M  V30 13487 C 1280.98 3.02167 -1.48986 0
M  V30 13488 O 1281.51 3.92359 -0.861251 0
M  V30 13489 N 1279.71 2.63649 -1.22219 0
M  V30 13490 H 1279.26 1.90389 -1.73521 0
M  V30 13491 H 1279.22 3.10529 -0.491828 0
M  V30 13492 N 1282.99 1.54862 0.292472 0
M  V30 13493 C 1284.22 1.78877 1.04966 0
M  V30 13494 C 1284.64 0.550724 1.79857 0
M  V30 13495 O 1284 -0.499054 1.74296 0
M  V30 13496 C 1284.05 3.00106 1.99922 0
M  V30 13497 O 1283.15 2.73827 3.0837 0
M  V30 13498 H 1282.49 0.591802 0.301108 0
M  V30 13499 H 1285.02 2.01965 0.3273 0
M  V30 13500 H 1285.03 3.28309 2.42233 0
M  V30 13501 H 1283.71 3.89872 1.44821 0
M  V30 13502 H 1282.28 2.56665 2.70513 0
M  V30 13503 N 1284.47 -0.556076 1.47464 0
M  V30 13504 C 1285.88 -1.1382 1.47993 0
M  V30 13505 C 1286.23 -1.94785 0.235249 0
M  V30 13506 O 1285.36 -2.06098 -0.659752 0
M  V30 13507 C 1285.95 -2.07082 2.68146 0
M  V30 13508 C 1284.51 -2.60564 2.71631 0
M  V30 13509 C 1283.66 -1.36967 2.41113 0
M  V30 13510 H 1286.61 -0.34262 1.54957 0
M  V30 13511 H 1286.63 -2.90975 2.45181 0
M  V30 13512 H 1286.14 -1.48127 3.5872 0
M  V30 13513 H 1284.24 -3.23314 1.852 0
M  V30 13514 H 1284.35 -3.0148 3.72353 0
M  V30 13515 H 1282.72 -1.67678 1.91719 0
M  V30 13516 H 1283.5 -0.79803 3.33896 0
M  V30 13517 N 1285.95 -1.35615 -0.802897 0
M  V30 13518 C 1287.22 -1.19655 -1.54732 0
M  V30 13519 C 1287.6 0.222827 -2.09921 0
M  V30 13520 O 1286.95 1.2268 -1.92774 0
M  V30 13521 C 1287.16 -2.26761 -2.65293 0
M  V30 13522 C 1288.51 -2.62754 -3.33535 0
M  V30 13523 O 1289.53 -2.25702 -2.75567 0
M  V30 13524 O 1288.39 -3.26476 -4.38264 0
M  V30 13525 H 1285.49 -0.465079 -0.683835 0
M  V30 13526 H 1288.03 -1.47307 -0.84254 0
M  V30 13527 H 1286.81 -3.21946 -2.22411 0
M  V30 13528 H 1286.43 -2.00399 -3.43404 0
M  V30 13529 N 1287.43 1.02549 -1.19673 0
M  V30 13530 C 1288.34 2.14373 -0.952972 0
M  V30 13531 C 1289.35 1.73776 0.0881727 0
M  V30 13532 O 1290.53 2.01165 -0.0972471 0
M  V30 13533 C 1287.59 3.43096 -0.498569 0
M  V30 13534 C 1286.65 3.97987 -1.60951 0
M  V30 13535 C 1285.89 5.20567 -1.17669 0
M  V30 13536 O 1286.11 5.70385 -0.0416636 0
M  V30 13537 O 1285.04 5.6838 -1.98059 0
M  V30 13538 H 1288.87 2.378 -1.88904 0
M  V30 13539 H 1286.45 1.12781 -0.979836 0
M  V30 13540 H 1288.34 4.20634 -0.253968 0
M  V30 13541 H 1287.01 3.21105 0.409018 0
M  V30 13542 H 1285.92 3.21768 -1.90829 0
M  V30 13543 H 1287.25 4.24349 -2.49377 0
M  V30 13544 N 1288.9 1.00119 1.21713 0
M  V30 13545 C 1289.83 0.578504 2.2622 0
M  V30 13546 C 1290.81 -0.398777 1.6536 0
M  V30 13547 O 1292 -0.287596 1.92059 0
M  V30 13548 C 1289.13 -0.0994508 3.47158 0
M  V30 13549 C 1288.08 0.79722 4.2051 0
M  V30 13550 C 1287.41 -0.0141125 5.34698 0
M  V30 13551 C 1288.71 2.09802 4.7831 0
M  V30 13552 H 1290.4 1.45208 2.6183 0
M  V30 13553 H 1287.95 0.699656 1.2586 0
M  V30 13554 H 1289.9 -0.406605 4.19434 0
M  V30 13555 H 1288.63 -1.00763 3.10667 0
M  V30 13556 H 1287.29 1.08814 3.50079 0
M  V30 13557 H 1286.93 -0.923468 4.9445 0
M  V30 13558 H 1286.63 0.582883 5.84702 0
M  V30 13559 H 1288.16 -0.31517 6.09786 0
M  V30 13560 H 1289.57 1.85427 5.42485 0
M  V30 13561 H 1287.97 2.64455 5.38687 0
M  V30 13562 H 1289.04 2.77132 3.97902 0
M  V30 13563 N 1290.38 -1.37203 0.775435 0
M  V30 13564 C 1291.34 -2.28566 0.170406 0
M  V30 13565 C 1292.34 -1.48195 -0.624085 0
M  V30 13566 O 1293.53 -1.68364 -0.447132 0
M  V30 13567 C 1290.67 -3.32186 -0.765829 0
M  V30 13568 H 1291.86 -2.8358 0.975824 0
M  V30 13569 H 1289.41 -1.46531 0.543895 0
M  V30 13570 H 1290.15 -2.82303 -1.59611 0
M  V30 13571 H 1289.93 -3.91598 -0.198251 0
M  V30 13572 H 1291.42 -4.0045 -1.18446 0
M  V30 13573 N 1291.86 -0.526279 -1.48553 0
M  V30 13574 C 1293.14 0.073385 -1.95462 0
M  V30 13575 C 1293.52 1.51658 -1.46843 0
M  V30 13576 O 1292.86 2.17729 -0.693293 0
M  V30 13577 C 1293.07 -0.040041 -3.48977 0
M  V30 13578 C 1294.42 0.121108 -4.24427 0
M  V30 13579 O 1295.45 0.0339335 -3.56184 0
M  V30 13580 O 1294.31 0.303297 -5.45658 0
M  V30 13581 H 1291.4 0.0813498 -0.822989 0
M  V30 13582 H 1293.95 -0.590614 -1.59091 0
M  V30 13583 H 1292.72 -1.0455 -3.77074 0
M  V30 13584 H 1292.34 0.662975 -3.92034 0
M  V30 13585 N 1293.34 1.5542 -0.261239 0
M  V30 13586 C 1294.28 2.21972 0.632216 0
M  V30 13587 C 1295.25 1.18843 1.16041 0
M  V30 13588 O 1296.44 1.47339 1.21226 0
M  V30 13589 C 1293.58 2.93397 1.81693 0
M  V30 13590 C 1292.69 4.11214 1.3239 0
M  V30 13591 C 1291.83 4.70318 2.46931 0
M  V30 13592 C 1290.87 5.80355 1.94561 0
M  V30 13593 N 1290 6.33581 3.02523 0
M  V30 13594 H 1294.84 2.97944 0.058018 0
M  V30 13595 H 1292.38 1.4709 0.0168725 0
M  V30 13596 H 1294.34 3.33015 2.5131 0
M  V30 13597 H 1292.97 2.19874 2.36337 0
M  V30 13598 H 1292.02 3.76811 0.521292 0
M  V30 13599 H 1293.33 4.90609 0.900214 0
M  V30 13600 H 1292.49 5.12584 3.24565 0
M  V30 13601 H 1291.23 3.90169 2.92608 0
M  V30 13602 H 1290.23 5.37552 1.15402 0
M  V30 13603 H 1291.46 6.62364 1.49836 0
M  V30 13604 H 1289.4 5.56332 3.47608 0
M  V30 13605 H 1289.32 7.08209 2.64529 0
M  V30 13606 H 1290.59 6.80506 3.80174 0
M  V30 13607 N 1294.82 -0.0116844 1.57596 0
M  V30 13608 C 1295.75 -1.00599 2.10718 0
M  V30 13609 C 1296.73 -1.36601 1.01362 0
M  V30 13610 O 1297.91 -1.4518 1.28982 0
M  V30 13611 C 1295.04 -2.30155 2.60089 0
M  V30 13612 C 1294 -2.08347 3.73866 0
M  V30 13613 C 1293.32 -3.43814 4.09507 0
M  V30 13614 C 1294.62 -1.45552 5.01609 0
M  V30 13615 H 1296.32 -0.563721 2.94045 0
M  V30 13616 H 1293.86 -0.269714 1.41452 0
M  V30 13617 H 1295.81 -3.00058 2.95877 0
M  V30 13618 H 1294.54 -2.76473 1.73868 0
M  V30 13619 H 1293.2 -1.40872 3.38453 0
M  V30 13620 H 1292.85 -3.87814 3.20326 0
M  V30 13621 H 1292.55 -3.30043 4.86154 0
M  V30 13622 H 1294.07 -4.15052 4.47844 0
M  V30 13623 H 1295.48 -2.05396 5.35243 0
M  V30 13624 H 1293.88 -1.42304 5.82983 0
M  V30 13625 H 1294.95 -0.423331 4.83049 0
M  V30 13626 N 1296.29 -1.55015 -0.284256 0
M  V30 13627 C 1297.2 -1.90203 -1.37332 0
M  V30 13628 C 1298.22 -0.797994 -1.54622 0
M  V30 13629 O 1299.4 -1.09602 -1.68965 0
M  V30 13630 C 1296.46 -2.15687 -2.71441 0
M  V30 13631 C 1295.52 -3.39313 -2.62993 0
M  V30 13632 C 1294.75 -3.63571 -3.90707 0
M  V30 13633 O 1294.98 -2.90538 -4.9086 0
M  V30 13634 O 1293.91 -4.57102 -3.91589 0
M  V30 13635 H 1297.74 -2.82888 -1.1049 0
M  V30 13636 H 1295.32 -1.41418 -0.481798 0
M  V30 13637 H 1297.2 -2.33553 -3.50758 0
M  V30 13638 H 1295.88 -1.26185 -2.98092 0
M  V30 13639 H 1294.79 -3.26793 -1.82091 0
M  V30 13640 H 1296.12 -4.28997 -2.41293 0
M  V30 13641 N 1297.77 0.548248 -1.47757 0
M  V30 13642 C 1299.05 1.3092 -1.45325 0
M  V30 13643 C 1299.43 2.1053 -0.155008 0
M  V30 13644 O 1298.78 2.11558 0.863455 0
M  V30 13645 C 1298.99 2.20614 -2.70426 0
M  V30 13646 C 1300.33 2.81345 -3.18009 0
M  V30 13647 O 1301.36 2.30911 -2.71216 0
M  V30 13648 O 1300.22 3.73036 -3.99383 0
M  V30 13649 H 1297.31 0.58996 -0.579548 0
M  V30 13650 H 1299.86 0.56641 -1.59968 0
M  V30 13651 H 1298.63 1.61449 -3.56441 0
M  V30 13652 H 1298.25 3.02173 -2.58413 0
M  V30 13653 N 1299.25 1.36039 0.795694 0
M  V30 13654 C 1300.67 1.16315 1.09284 0
M  V30 13655 C 1300.87 -0.017024 2.01493 0
M  V30 13656 O 1299.92 -0.684316 2.4305 0
M  V30 13657 C 1301.23 2.47113 1.71335 0
M  V30 13658 C 1302.78 2.5342 1.83705 0
M  V30 13659 C 1303.26 3.84289 2.49171 0
M  V30 13660 N 1304.75 3.856 2.56645 0
M  V30 13661 C 1305.48 4.83597 3.08094 0
M  V30 13662 N 1304.98 5.91985 3.59897 0
M  V30 13663 N 1306.77 4.71023 3.06748 0
M  V30 13664 H 1298.92 2.11611 0.182957 0
M  V30 13665 H 1301.19 0.937035 0.143771 0
M  V30 13666 H 1300.89 3.33708 1.11049 0
M  V30 13667 H 1300.77 2.62461 2.70914 0
M  V30 13668 H 1303.15 1.67247 2.43131 0
M  V30 13669 H 1303.23 2.41977 0.829495 0
M  V30 13670 H 1302.88 4.70865 1.90391 0
M  V30 13671 H 1302.81 3.93025 3.50484 0
M  V30 13672 H 1305.3 3.07291 2.19956 0
M  V30 13673 H 1305.61 6.6274 3.97487 0
M  V30 13674 H 1303.96 5.95662 3.58066 0
M  V30 13675 H 1307.15 3.8548 2.65561 0
M  V30 13676 H 1307.32 5.47555 3.46536 0
M  V30 13677 N 1300.73 -1.01913 1.20215 0
M  V30 13678 C 1301.66 -2.12282 0.97256 0
M  V30 13679 C 1302.64 -1.6982 -0.0975709 0
M  V30 13680 O 1303.82 -1.94109 0.0594307 0
M  V30 13681 C 1300.95 -3.43369 0.521085 0
M  V30 13682 C 1299.91 -3.99559 1.53417 0
M  V30 13683 C 1299.23 -5.26383 0.93942 0
M  V30 13684 C 1300.53 -4.33241 2.91718 0
M  V30 13685 H 1302.23 -2.31746 1.89563 0
M  V30 13686 H 1299.77 -1.1137 0.912841 0
M  V30 13687 H 1301.73 -4.19963 0.347713 0
M  V30 13688 H 1300.45 -3.23655 -0.437605 0
M  V30 13689 H 1299.11 -3.25069 1.69486 0
M  V30 13690 H 1298.76 -5.02993 -0.0271236 0
M  V30 13691 H 1298.46 -5.64942 1.616 0
M  V30 13692 H 1299.98 -6.05635 0.777059 0
M  V30 13693 H 1301.4 -5.00734 2.79175 0
M  V30 13694 H 1299.79 -4.82907 3.56259 0
M  V30 13695 H 1300.86 -3.42118 3.43633 0
M  V30 13696 N 1302.21 -1.00763 -1.2118 0
M  V30 13697 C 1303.17 -0.575183 -2.21865 0
M  V30 13698 C 1304.17 0.349871 -1.56948 0
M  V30 13699 O 1305.36 0.139795 -1.73638 0
M  V30 13700 C 1302.49 0.161308 -3.40518 0
M  V30 13701 H 1303.68 -1.46578 -2.61639 0
M  V30 13702 H 1301.24 -0.79643 -1.34487 0
M  V30 13703 H 1301.97 1.06723 -3.06236 0
M  V30 13704 H 1301.76 -0.503101 -3.88859 0
M  V30 13705 H 1303.25 0.451527 -4.15152 0
M  V30 13706 N 1303.68 1.3679 -0.7827 0
M  V30 13707 C 1304.59 2.33928 -0.17747 0
M  V30 13708 C 1305.61 1.60716 0.666802 0
M  V30 13709 O 1306.79 1.92742 0.584162 0
M  V30 13710 C 1303.85 3.39907 0.68294 0
M  V30 13711 C 1302.91 4.28926 -0.179053 0
M  V30 13712 C 1302.15 5.29844 0.640386 0
M  V30 13713 O 1302.37 5.38639 1.87681 0
M  V30 13714 O 1301.3 6.01884 0.0438164 0
M  V30 13715 H 1305.13 2.87439 -0.980441 0
M  V30 13716 H 1302.71 1.39142 -0.54404 0
M  V30 13717 H 1304.6 4.04722 1.17379 0
M  V30 13718 H 1303.27 2.88706 1.46391 0
M  V30 13719 H 1302.18 3.67174 -0.716512 0
M  V30 13720 H 1303.51 4.83461 -0.923377 0
M  V30 13721 N 1305.16 0.53415 1.48272 0
M  V30 13722 C 1306.11 -0.226335 2.29688 0
M  V30 13723 C 1307.08 -0.929937 1.37628 0
M  V30 13724 O 1308.26 -0.930149 1.66592 0
M  V30 13725 C 1305.4 -1.26472 3.2109 0
M  V30 13726 C 1304.52 -0.569542 4.28229 0
M  V30 13727 C 1303.65 -1.59122 5.06807 0
M  V30 13728 C 1302.69 -0.879734 6.05745 0
M  V30 13729 N 1301.83 -1.84715 6.77366 0
M  V30 13730 H 1306.67 0.474111 2.94204 0
M  V30 13731 H 1304.21 0.245643 1.45034 0
M  V30 13732 H 1306.16 -1.87911 3.72485 0
M  V30 13733 H 1304.79 -1.9335 2.58487 0
M  V30 13734 H 1303.85 0.158872 3.80068 0
M  V30 13735 H 1305.16 -0.0110904 4.98799 0
M  V30 13736 H 1304.31 -2.27977 5.62238 0
M  V30 13737 H 1303.05 -2.18357 4.36086 0
M  V30 13738 H 1302.06 -0.177134 5.49515 0
M  V30 13739 H 1303.28 -0.293439 6.78466 0
M  V30 13740 H 1301.23 -2.42851 6.09393 0
M  V30 13741 H 1301.14 -1.34025 7.44025 0
M  V30 13742 H 1302.41 -2.52756 7.37384 0
M  V30 13743 N 1306.64 -1.55279 0.269478 0
M  V30 13744 C 1307.57 -2.25278 -0.614188 0
M  V30 13745 C 1308.55 -1.24092 -1.1634 0
M  V30 13746 O 1309.74 -1.52799 -1.19858 0
M  V30 13747 C 1306.87 -2.96956 -1.80096 0
M  V30 13748 C 1305.82 -4.05021 -1.38353 0
M  V30 13749 C 1305.15 -4.64244 -2.65295 0
M  V30 13750 C 1306.45 -5.19523 -0.537886 0
M  V30 13751 H 1308.14 -2.99385 -0.0304397 0
M  V30 13752 H 1305.69 -1.43994 -0.0132004 0
M  V30 13753 H 1307.64 -3.44633 -2.42499 0
M  V30 13754 H 1306.36 -2.20374 -2.41045 0
M  V30 13755 H 1305.02 -3.58146 -0.78273 0
M  V30 13756 H 1304.67 -3.84337 -3.2449 0
M  V30 13757 H 1304.37 -5.37208 -2.38079 0
M  V30 13758 H 1305.89 -5.14668 -3.28557 0
M  V30 13759 H 1307.31 -5.63287 -1.06677 0
M  V30 13760 H 1305.71 -5.99014 -0.360845 0
M  V30 13761 H 1306.78 -4.82857 0.444672 0
M  V30 13762 N 1308.12 0.00332656 -1.576 0
M  V30 13763 C 1309.4 0.725722 -1.81639 0
M  V30 13764 C 1309.78 1.92173 -0.87365 0
M  V30 13765 O 1309.12 2.28365 0.0783931 0
M  V30 13766 C 1309.33 1.13458 -3.30043 0
M  V30 13767 C 1310.68 1.53982 -3.95695 0
M  V30 13768 O 1311.71 1.22846 -3.34346 0
M  V30 13769 O 1310.56 2.11866 -5.03761 0
M  V30 13770 H 1307.66 0.353083 -0.747838 0
M  V30 13771 H 1310.2 -0.0218724 -1.69686 0
M  V30 13772 H 1308.98 0.281925 -3.90283 0
M  V30 13773 H 1308.6 1.94138 -3.46982 0
M  V30 13774 N 1309.6 1.55164 0.276031 0
M  V30 13775 C 1310.87 1.66338 1.02913 0
M  V30 13776 C 1311.25 0.527876 2.04393 0
M  V30 13777 O 1310.6 -0.472437 2.23563 0
M  V30 13778 C 1310.81 3.05427 1.68865 0
M  V30 13779 C 1312.16 3.63075 2.2014 0
M  V30 13780 O 1313.18 3.0804 1.78857 0
M  V30 13781 O 1312.04 4.59492 2.95854 0
M  V30 13782 H 1309.14 0.675446 0.477181 0
M  V30 13783 H 1311.68 1.67504 0.272129 0
M  V30 13784 H 1310.45 3.79514 0.953125 0
M  V30 13785 H 1310.08 3.08147 2.5126 0
M  V30 13786 N 1311.07 -0.540404 1.48045 0
M  V30 13787 C 1312 -1.65538 1.6468 0
M  V30 13788 C 1312.99 -1.62713 0.495847 0
M  V30 13789 O 1314.17 -1.80072 0.727172 0
M  V30 13790 C 1311.3 -3.0415 1.67661 0
M  V30 13791 C 1310.25 -3.2183 2.82152 0
M  V30 13792 C 1309.58 -4.61397 2.70216 0
M  V30 13793 C 1310.88 -3.05596 4.23567 0
M  V30 13794 H 1312.57 -1.51873 2.58021 0
M  V30 13795 H 1310.12 -0.729208 1.24171 0
M  V30 13796 H 1312.07 -3.82013 1.77887 0
M  V30 13797 H 1310.8 -3.18814 0.708907 0
M  V30 13798 H 1309.46 -2.4638 2.71463 0
M  V30 13799 H 1309.1 -4.72883 1.71437 0
M  V30 13800 H 1308.8 -4.74174 3.47035 0
M  V30 13801 H 1310.33 -5.41374 2.82395 0
M  V30 13802 H 1311.74 -3.73261 4.35143 0
M  V30 13803 H 1310.14 -3.29871 5.01303 0
M  V30 13804 H 1311.21 -2.0214 4.40758 0
M  V30 13805 N 1312.55 -1.36459 -0.788468 0
M  V30 13806 C 1313.48 -1.33545 -1.91541 0
M  V30 13807 C 1314.46 -0.206762 -1.68839 0
M  V30 13808 O 1315.65 -0.404553 -1.89939 0
M  V30 13809 C 1312.78 -1.12492 -3.28577 0
M  V30 13810 C 1311.73 -2.22196 -3.65805 0
M  V30 13811 C 1311.06 -1.86285 -5.01201 0
M  V30 13812 C 1312.36 -3.64286 -3.7429 0
M  V30 13813 H 1314.05 -2.27844 -1.94236 0
M  V30 13814 H 1311.6 -1.09677 -0.933105 0
M  V30 13815 H 1313.55 -1.09089 -4.07035 0
M  V30 13816 H 1312.28 -0.146446 -3.26272 0
M  V30 13817 H 1310.93 -2.24727 -2.89644 0
M  V30 13818 H 1310.58 -0.87009 -4.95417 0
M  V30 13819 H 1310.28 -2.59734 -5.27079 0
M  V30 13820 H 1311.81 -1.84439 -5.82078 0
M  V30 13821 H 1313.22 -3.63977 -4.42937 0
M  V30 13822 H 1311.62 -4.36648 -4.11653 0
M  V30 13823 H 1312.69 -3.99123 -2.75371 0
M  V30 13824 N 1314.03 1.01274 -1.20754 0
M  V30 13825 C 1315.26 1.7906 -1.04653 0
M  V30 13826 C 1315.68 1.83806 0.399632 0
M  V30 13827 O 1315.04 1.27596 1.28798 0
M  V30 13828 C 1315.09 3.21187 -1.63925 0
M  V30 13829 O 1314.19 4.02913 -0.879486 0
M  V30 13830 H 1313.53 0.552147 -0.368823 0
M  V30 13831 H 1316.06 1.27356 -1.6013 0
M  V30 13832 H 1316.07 3.71887 -1.67822 0
M  V30 13833 H 1314.75 3.17048 -2.69172 0
M  V30 13834 H 1313.32 3.61499 -0.915019 0
M  V30 13835 N 1315.51 1.01404 1.20644 0
M  V30 13836 C 1316.44 0.540288 2.22741 0
M  V30 13837 C 1317.45 -0.375953 1.584 0
M  V30 13838 O 1318.64 -0.174708 1.77643 0
M  V30 13839 C 1315.74 -0.233766 3.38093 0
M  V30 13840 C 1314.92 0.683759 4.32023 0
M  V30 13841 C 1313.98 -0.0422681 5.26183 0
M  V30 13842 O 1313 0.579392 5.66243 0
M  V30 13843 N 1314.2 -1.31794 5.65341 0
M  V30 13844 H 1316.97 1.41831 2.64015 0
M  V30 13845 H 1314.53 0.891265 1.35159 0
M  V30 13846 H 1316.52 -0.728645 3.98087 0
M  V30 13847 H 1315.09 -1.01306 2.9573 0
M  V30 13848 H 1314.31 1.35899 3.70034 0
M  V30 13849 H 1315.6 1.30786 4.91704 0
M  V30 13850 H 1315 -1.84399 5.34802 0
M  V30 13851 H 1313.55 -1.7576 6.27656 0
M  V30 13852 N 1316.99 -1.36373 0.789944 0
M  V30 13853 C 1318.22 -2.03482 0.37453 0
M  V30 13854 C 1318.63 -1.59562 -1.00923 0
M  V30 13855 O 1317.99 -0.785289 -1.64741 0
M  V30 13856 C 1318.04 -3.58942 0.429255 0
M  V30 13857 O 1317.76 -4.01261 1.75845 0
M  V30 13858 C 1319.26 -4.433 0.00453729 0
M  V30 13859 H 1316.48 -0.653019 0.154295 0
M  V30 13860 H 1319.02 -1.74339 1.06894 0
M  V30 13861 H 1317.18 -3.86793 -0.21674 0
M  V30 13862 H 1317.59 -4.95854 1.70964 0
M  V30 13863 H 1319.07 -5.5192 0.0939653 0
M  V30 13864 H 1319.54 -4.26509 -1.04816 0
M  V30 13865 H 1320.15 -4.20712 0.623041 0
M  V30 13866 N 1318.47 -0.542005 -1.47987 0
M  V30 13867 C 1319.88 -0.104646 -1.86406 0
M  V30 13868 C 1320.23 1.32139 -1.4503 0
M  V30 13869 O 1319.35 1.99159 -0.846439 0
M  V30 13870 C 1319.95 -0.183133 -3.38305 0
M  V30 13871 C 1318.51 0.199098 -3.75873 0
M  V30 13872 C 1317.65 -0.537532 -2.7204 0
M  V30 13873 H 1320.6 -0.75259 -1.3972 0
M  V30 13874 H 1320.63 0.602149 -3.75705 0
M  V30 13875 H 1320.14 -1.22113 -3.68389 0
M  V30 13876 H 1318.24 1.23878 -3.51404 0
M  V30 13877 H 1318.35 -0.14888 -4.78869 0
M  V30 13878 H 1316.72 0.0176255 -2.54694 0
M  V30 13879 H 1317.5 -1.57639 -3.04967 0
M  V30 13880 N 1319.94 1.55134 -0.277709 0
M  V30 13881 C 1320.85 2.26296 0.618658 0
M  V30 13882 C 1321.87 1.28978 1.16794 0
M  V30 13883 O 1323.05 1.61918 1.19768 0
M  V30 13884 C 1320.11 2.97214 1.78508 0
M  V30 13885 C 1319.17 4.10016 1.27221 0
M  V30 13886 C 1318.4 4.77543 2.38304 0
M  V30 13887 O 1318.63 4.44293 3.57715 0
M  V30 13888 O 1317.56 5.65437 2.06313 0
M  V30 13889 H 1321.39 3.03671 0.0421031 0
M  V30 13890 H 1318.97 1.49332 -0.0450166 0
M  V30 13891 H 1320.85 3.41773 2.46513 0
M  V30 13892 H 1319.53 2.22753 2.34867 0
M  V30 13893 H 1318.44 3.69907 0.558544 0
M  V30 13894 H 1319.77 4.86385 0.754333 0
M  V30 13895 N 1321.42 0.00503138 1.57599 0
M  V30 13896 C 1322.67 -0.677979 1.89964 0
M  V30 13897 C 1322.98 -1.74657 0.88059 0
M  V30 13898 O 1324.19 -2.48455 1.09463 0
M  V30 13899 C 1322.65 -1.25708 3.37232 0
M  V30 13900 C 1322.25 -0.223045 4.47444 0
M  V30 13901 C 1324 -1.91799 3.787 0
M  V30 13902 C 1321.9 -0.812416 5.85793 0
M  V30 13903 H 1320.83 -0.256991 0.708852 0
M  V30 13904 H 1323.49 0.0663988 1.8338 0
M  V30 13905 H 1321.87 -2.05228 3.3867 0
M  V30 13906 H 1323.04 0.54794 4.57531 0
M  V30 13907 H 1321.36 0.337714 4.15028 0
M  V30 13908 H 1323.95 -2.36808 4.79402 0
M  V30 13909 H 1324.3 -2.75067 3.1248 0
M  V30 13910 H 1324.83 -1.19004 3.79583 0
M  V30 13911 H 1321.57 -0.0184031 6.55497 0
M  V30 13912 H 1321.09 -1.55244 5.79361 0
M  V30 13913 H 1322.77 -1.30952 6.33609 0
M  V30 13914 N 1322.9 -1.55308 -0.267798 0
M  V30 13915 C 1324.31 -1.66814 -0.838459 0
M  V30 13916 C 1324.66 -0.598609 -1.86845 0
M  V30 13917 O 1323.79 0.25896 -2.14845 0
M  V30 13918 C 1324.38 -3.02408 -1.52758 0
M  V30 13919 C 1322.94 -3.15923 -2.04621 0
M  V30 13920 C 1322.09 -2.62628 -0.890044 0
M  V30 13921 H 1325.04 -1.58639 -0.0440354 0
M  V30 13922 H 1325.06 -2.95687 -2.39478 0
M  V30 13923 H 1324.57 -3.80228 -0.777695 0
M  V30 13924 H 1322.67 -2.42886 -2.82555 0
M  V30 13925 H 1322.79 -4.22556 -2.25794 0
M  V30 13926 H 1321.15 -2.19918 -1.28485 0
M  V30 13927 H 1321.93 -3.42956 -0.153579 0
M  V30 13928 N 1324.38 0.532545 -1.4833 0
M  V30 13929 C 1325.63 1.28498 -1.55471 0
M  V30 13930 C 1325.94 1.94214 -0.232412 0
M  V30 13931 O 1327.15 2.70889 -0.182044 0
M  V30 13932 C 1325.6 2.33144 -2.74175 0
M  V30 13933 C 1325.21 1.73508 -4.13036 0
M  V30 13934 C 1326.95 3.09413 -2.90627 0
M  V30 13935 C 1324.86 2.76079 -5.23005 0
M  V30 13936 H 1323.79 0.483253 -0.578777 0
M  V30 13937 H 1326.44 0.562744 -1.74658 0
M  V30 13938 H 1324.82 3.08391 -2.48417 0
M  V30 13939 H 1326 1.04466 -4.48802 0
M  V30 13940 H 1324.31 1.0974 -4.01679 0
M  V30 13941 H 1326.91 3.86056 -3.69953 0
M  V30 13942 H 1327.25 3.65118 -1.99987 0
M  V30 13943 H 1327.79 2.4128 -3.16274 0
M  V30 13944 H 1324.52 2.25197 -6.15602 0
M  V30 13945 H 1324.04 3.43456 -4.9173 0
M  V30 13946 H 1325.72 3.39113 -5.51009 0
M  V30 13947 N 1325.86 1.36875 0.78122 0
M  V30 13948 C 1327.13 1.22101 1.52809 0
M  V30 13949 C 1327.51 -0.189402 2.10249 0
M  V30 13950 O 1326.86 -1.19598 1.94701 0
M  V30 13951 C 1327.07 2.30953 2.61652 0
M  V30 13952 C 1328.42 2.68027 3.29313 0
M  V30 13953 O 1329.44 2.30058 2.71941 0
M  V30 13954 O 1328.3 3.33407 4.33015 0
M  V30 13955 H 1325.4 0.4759 0.676349 0
M  V30 13956 H 1327.94 1.48629 0.818998 0
M  V30 13957 H 1326.71 3.25443 2.17261 0
M  V30 13958 H 1326.34 2.05837 3.40172 0
M  V30 13959 N 1327.33 -1.00632 1.21289 0
M  V30 13960 C 1328.58 -1.73802 1.02351 0
M  V30 13961 C 1328.9 -1.90503 -0.443611 0
M  V30 13962 O 1330.1 -2.60868 -0.752356 0
M  V30 13963 C 1328.56 -3.12647 1.78269 0
M  V30 13964 C 1328.17 -3.03923 3.29142 0
M  V30 13965 C 1329.91 -3.89956 1.67735 0
M  V30 13966 C 1327.82 -4.3784 3.97556 0
M  V30 13967 H 1326.75 -0.651616 0.379358 0
M  V30 13968 H 1329.4 -1.12446 1.45011 0
M  V30 13969 H 1327.78 -3.74605 1.28401 0
M  V30 13970 H 1328.95 -2.51211 3.86303 0
M  V30 13971 H 1327.27 -2.40103 3.40205 0
M  V30 13972 H 1329.87 -4.89051 2.1618 0
M  V30 13973 H 1330.21 -4.11423 0.635338 0
M  V30 13974 H 1330.74 -3.34647 2.15072 0
M  V30 13975 H 1327.48 -4.21573 5.01952 0
M  V30 13976 H 1327 -4.90518 3.45184 0
M  V30 13977 H 1328.68 -5.06644 4.02393 0
M  V30 13978 N 1328.81 -1.02043 -1.20104 0
M  V30 13979 C 1330.04 -0.731142 -1.94085 0
M  V30 13980 C 1330.46 0.702467 -1.74491 0
M  V30 13981 O 1329.82 1.48387 -1.04168 0
M  V30 13982 C 1329.87 -1.07691 -3.44144 0
M  V30 13983 O 1328.97 -0.190751 -4.11959 0
M  V30 13984 H 1328.31 -0.270917 -0.606218 0
M  V30 13985 H 1330.84 -1.36483 -1.52426 0
M  V30 13986 H 1330.85 -1.03023 -3.94779 0
M  V30 13987 H 1329.53 -2.1214 -3.57728 0
M  V30 13988 H 1328.1 -0.29529 -3.71729 0
M  V30 13989 N 1330.29 1.35952 -0.797165 0
M  V30 13990 C 1331.52 2.0381 -0.38421 0
M  V30 13991 C 1331.94 1.597 0.993854 0
M  V30 13992 O 1331.3 0.769148 1.64176 0
M  V30 13993 C 1331.35 3.57589 -0.465054 0
M  V30 13994 O 1330.45 4.09043 0.525095 0
M  V30 13995 H 1329.79 0.643957 -0.161912 0
M  V30 13996 H 1332.32 1.73746 -1.08043 0
M  V30 13997 H 1332.33 4.06651 -0.331448 0
M  V30 13998 H 1331.01 3.89045 -1.47027 0
M  V30 13999 H 1329.58 3.7123 0.352509 0
M  V30 14000 N 1331.77 0.549846 1.47697 0
M  V30 14001 C 1332.72 -0.222213 2.26915 0
M  V30 14002 C 1333.7 -0.891996 1.33911 0
M  V30 14003 O 1334.89 -0.791519 1.58316 0
M  V30 14004 C 1332.02 -1.25619 3.19491 0
M  V30 14005 C 1331.11 -0.590193 4.19973 0
M  V30 14006 N 1331.5 0.335519 5.04686 0
M  V30 14007 C 1329.8 -0.845012 4.37922 0
M  V30 14008 C 1330.5 0.721672 5.77206 0
M  V30 14009 N 1329.48 0.078184 5.43544 0
M  V30 14010 H 1333.28 0.489645 2.89792 0
M  V30 14011 H 1330.79 0.36926 1.58146 0
M  V30 14012 H 1332.79 -1.82319 3.74921 0
M  V30 14013 H 1331.45 -1.96922 2.5817 0
M  V30 14014 H 1332.46 0.709271 5.1302 0
M  V30 14015 H 1329.14 -1.54711 3.87777 0
M  V30 14016 H 1330.53 1.48191 6.55354 0
M  V30 14017 N 1333.25 -1.54984 0.285932 0
M  V30 14018 C 1334.47 -2.04699 -0.333621 0
M  V30 14019 C 1334.9 -1.16252 -1.47875 0
M  V30 14020 O 1334.25 -0.163376 -1.80562 0
M  V30 14021 C 1334.3 -3.52022 -0.78187 0
M  V30 14022 O 1333.41 -3.66639 -1.88812 0
M  V30 14023 H 1332.75 -0.660579 -0.0673203 0
M  V30 14024 H 1335.28 -2.00171 0.423386 0
M  V30 14025 H 1335.29 -3.93591 -1.07473 0
M  V30 14026 H 1333.96 -4.15862 0.055893 0
M  V30 14027 H 1332.54 -3.36974 -1.59696 0
M  V30 14028 N 1334.72 -0.0133892 -1.57594 0
M  V30 14029 C 1336 0.706416 -1.82398 0
M  V30 14030 C 1336.38 1.91236 -0.893983 0
M  V30 14031 O 1335.73 2.28436 0.0541675 0
M  V30 14032 C 1335.94 1.09951 -3.31228 0
M  V30 14033 C 1337.29 1.49776 -3.97306 0
M  V30 14034 O 1338.31 1.19293 -3.3563 0
M  V30 14035 O 1337.17 2.06511 -5.0598 0
M  V30 14036 H 1334.26 0.345131 -0.751541 0
M  V30 14037 H 1336.81 -0.0398687 -1.69653 0
M  V30 14038 H 1335.58 0.240514 -3.9056 0
M  V30 14039 H 1335.21 1.90447 -3.49021 0
M  V30 14040 N 1336.2 1.55448 0.259558 0
M  V30 14041 C 1337.45 1.76337 0.987396 0
M  V30 14042 C 1337.77 0.57505 1.86328 0
M  V30 14043 O 1337.04 -0.409621 1.9157 0
M  V30 14044 H 1335.62 0.650312 0.367565 0
M  V30 14045 H 1338.28 1.9287 0.280551 0
M  V30 14046 H 1337.38 2.66975 1.61651 0
M  V30 14047 N 1337.68 -0.524672 1.4861 0
M  V30 14048 C 1338.61 -1.63782 1.66426 0
M  V30 14049 C 1339.59 -1.62177 0.513077 0
M  V30 14050 O 1340.78 -1.7929 0.74623 0
M  V30 14051 C 1337.91 -3.02354 1.70877 0
M  V30 14052 C 1336.86 -3.18819 2.85549 0
M  V30 14053 C 1336.19 -4.58506 2.75094 0
M  V30 14054 C 1337.49 -3.01086 4.26784 0
M  V30 14055 H 1339.18 -1.49127 2.59618 0
M  V30 14056 H 1336.73 -0.715997 1.24938 0
M  V30 14057 H 1338.68 -3.80105 1.81929 0
M  V30 14058 H 1337.4 -3.18044 0.742682 0
M  V30 14059 H 1336.06 -2.43487 2.74061 0
M  V30 14060 H 1335.71 -4.71038 1.76443 0
M  V30 14061 H 1335.41 -4.70466 3.52044 0
M  V30 14062 H 1336.93 -5.38348 2.88121 0
M  V30 14063 H 1338.35 -3.68624 4.39077 0
M  V30 14064 H 1336.75 -3.24536 5.04774 0
M  V30 14065 H 1337.82 -1.97454 4.42877 0
M  V30 14066 N 1339.16 -1.37287 -0.77395 0
M  V30 14067 C 1340.38 -1.35734 -1.56815 0
M  V30 14068 C 1340.81 0.0555546 -1.88018 0
M  V30 14069 O 1340.17 1.03197 -1.49064 0
M  V30 14070 C 1340.21 -2.2008 -2.85652 0
M  V30 14071 O 1339.32 -1.60391 -3.79932 0
M  V30 14072 H 1338.66 -0.463881 -0.47509 0
M  V30 14073 H 1341.19 -1.80781 -0.958087 0
M  V30 14074 H 1341.2 -2.33215 -3.34776 0
M  V30 14075 H 1339.87 -3.22781 -2.6227 0
M  V30 14076 H 1338.45 -1.56285 -3.3857 0
M  V30 14077 N 1340.64 0.999871 -1.21821 0
M  V30 14078 C 1341.91 1.71135 -0.947213 0
M  V30 14079 C 1342.29 2.04087 0.539601 0
M  V30 14080 O 1341.64 1.71866 1.5058 0
M  V30 14081 C 1341.85 2.96704 -1.8376 0
M  V30 14082 C 1343.2 3.69627 -2.08952 0
M  V30 14083 O 1344.22 3.06697 -1.81151 0
M  V30 14084 O 1343.08 4.82832 -2.55999 0
M  V30 14085 H 1340.18 0.746631 -0.355628 0
M  V30 14086 H 1342.72 1.05684 -1.32774 0
M  V30 14087 H 1341.49 2.68802 -2.84361 0
M  V30 14088 H 1341.12 3.69894 -1.45821 0
M  V30 14089 N 1342.11 1.02678 1.19562 0
M  V30 14090 C 1343.06 0.605764 2.22709 0
M  V30 14091 C 1344.03 -0.37936 1.6171 0
M  V30 14092 O 1345.22 -0.276496 1.88786 0
M  V30 14093 C 1342.36 -0.0394312 3.45077 0
M  V30 14094 C 1341.47 0.991481 4.20468 0
M  V30 14095 C 1340.6 0.316269 5.30258 0
M  V30 14096 C 1339.64 1.33324 5.97404 0
M  V30 14097 N 1338.78 0.683979 6.9876 0
M  V30 14098 H 1343.62 1.48994 2.58079 0
M  V30 14099 H 1341.16 0.745636 1.26802 0
M  V30 14100 H 1343.12 -0.430726 4.14971 0
M  V30 14101 H 1341.75 -0.887193 3.10369 0
M  V30 14102 H 1340.8 1.50085 3.49541 0
M  V30 14103 H 1342.11 1.76449 4.66548 0
M  V30 14104 H 1341.26 -0.129983 6.06561 0
M  V30 14105 H 1340 -0.488956 4.85243 0
M  V30 14106 H 1339.01 1.78977 5.19853 0
M  V30 14107 H 1340.23 2.13992 6.44503 0
M  V30 14108 H 1338.18 -0.101192 6.55922 0
M  V30 14109 H 1338.1 1.3949 7.4302 0
M  V30 14110 H 1339.36 0.261658 7.79061 0
M  V30 14111 N 1343.59 -1.35528 0.804364 0
M  V30 14112 C 1344.5 -2.33616 0.214663 0
M  V30 14113 C 1345.52 -1.61757 -0.64115 0
M  V30 14114 O 1346.69 -1.93647 -0.553424 0
M  V30 14115 C 1343.76 -3.40951 -0.628778 0
M  V30 14116 C 1342.82 -4.28587 0.247269 0
M  V30 14117 C 1342.05 -5.30796 -0.556012 0
M  V30 14118 O 1342.28 -5.41557 -1.79088 0
M  V30 14119 O 1341.21 -6.01878 0.0519437 0
M  V30 14120 H 1345.04 -2.85843 1.02605 0
M  V30 14121 H 1342.62 -1.38259 0.566108 0
M  V30 14122 H 1344.5 -4.06538 -1.10926 0
M  V30 14123 H 1343.18 -2.90999 -1.4178 0
M  V30 14124 H 1342.09 -3.65988 0.774835 0
M  V30 14125 H 1343.42 -4.81931 1.00017 0
M  V30 14126 N 1345.07 -0.557671 -1.47404 0
M  V30 14127 C 1346.31 -0.0361491 -2.04368 0
M  V30 14128 C 1346.68 1.2894 -1.42262 0
M  V30 14129 O 1347.88 1.89864 -1.90276 0
M  V30 14130 C 1346.15 0.0547287 -3.57358 0
M  V30 14131 S 1347.71 0.522307 -4.3568 0
M  V30 14132 H 1344.52 -0.0253676 -0.710547 0
M  V30 14133 H 1347.13 -0.744509 -1.80769 0
M  V30 14134 H 1345.83 -0.914374 -4.00084 0
M  V30 14135 H 1345.36 0.786629 -3.85455 0
M  V30 14136 H 1347.38 1.7819 -4.63101 0
M  V30 14137 N 1346.55 1.54831 -0.294147 0
M  V30 14138 C 1347.51 2.21946 0.572061 0
M  V30 14139 C 1348.51 1.20331 1.06663 0
M  V30 14140 O 1349.7 1.45112 0.963757 0
M  V30 14141 C 1346.83 2.90044 1.7913 0
M  V30 14142 H 1348.03 2.99897 -0.0142234 0
M  V30 14143 H 1345.58 1.56235 -0.0449187 0
M  V30 14144 H 1346.32 2.16154 2.4176 0
M  V30 14145 H 1346.1 3.64527 1.44439 0
M  V30 14146 H 1347.59 3.41263 2.40684 0
M  V30 14147 N 1348.03 0.0217466 1.57585 0
M  V30 14148 C 1349.27 -0.659463 1.91778 0
M  V30 14149 C 1349.61 -1.72201 0.897801 0
M  V30 14150 O 1348.88 -1.94333 -0.080509 0
M  V30 14151 C 1349.16 -1.28269 3.36481 0
M  V30 14152 C 1349.02 -0.230201 4.49211 0
M  V30 14153 C 1350.34 -2.20279 3.81005 0
M  V30 14154 H 1347.46 -0.238263 0.697424 0
M  V30 14155 H 1350.1 0.0774967 1.89842 0
M  V30 14156 H 1348.25 -1.9108 3.38262 0
M  V30 14157 H 1349.92 0.399901 4.59563 0
M  V30 14158 H 1348.16 0.445157 4.3151 0
M  V30 14159 H 1348.83 -0.705732 5.4747 0
M  V30 14160 H 1351.31 -1.67463 3.80914 0
M  V30 14161 H 1350.19 -2.60842 4.82962 0
M  V30 14162 H 1350.45 -3.09092 3.16093 0
M  V30 14163 N 1349.51 -1.55583 -0.251311 0
M  V30 14164 C 1350.92 -1.47908 -0.599606 0
M  V30 14165 C 1351.12 -0.711061 -1.88537 0
M  V30 14166 O 1350.18 -0.238639 -2.5137 0
M  V30 14167 C 1351.49 -2.92284 -0.706429 0
M  V30 14168 C 1353.04 -3.02629 -0.799049 0
M  V30 14169 C 1353.51 -4.48303 -0.93747 0
M  V30 14170 N 1355 -4.52222 -1.00245 0
M  V30 14171 C 1355.74 -5.62181 -1.12874 0
M  V30 14172 N 1355.24 -6.81958 -1.22085 0
M  V30 14173 N 1357.03 -5.49968 -1.16155 0
M  V30 14174 H 1349.18 -2.0396 0.592806 0
M  V30 14175 H 1351.44 -0.925797 0.203971 0
M  V30 14176 H 1351.15 -3.51297 0.168243 0
M  V30 14177 H 1351.02 -3.42524 -1.57979 0
M  V30 14178 H 1353.41 -2.43699 -1.66418 0
M  V30 14179 H 1353.49 -2.55607 0.099367 0
M  V30 14180 H 1353.13 -5.07842 -0.0769166 0
M  V30 14181 H 1353.06 -4.93002 -1.85086 0
M  V30 14182 H 1355.56 -3.65951 -0.94279 0
M  V30 14183 H 1355.87 -7.6151 -1.31616 0
M  V30 14184 H 1354.21 -6.84728 -1.1905 0
M  V30 14185 H 1357.4 -4.55327 -1.08604 0
M  V30 14186 H 1357.58 -6.35701 -1.25653 0
M  V30 14187 N 1350.98 0.516783 -1.48886 0
M  V30 14188 C 1352.4 0.84654 -1.35299 0
M  V30 14189 C 1352.6 1.97998 -0.374035 0
M  V30 14190 O 1351.66 2.51707 0.200003 0
M  V30 14191 C 1352.97 1.20162 -2.75648 0
M  V30 14192 C 1354.52 1.31074 -2.84233 0
M  V30 14193 C 1354.99 1.69919 -4.25313 0
M  V30 14194 N 1356.48 1.76998 -4.28049 0
M  V30 14195 C 1357.22 2.08466 -5.34162 0
M  V30 14196 N 1356.71 2.38268 -6.50538 0
M  V30 14197 N 1358.51 2.09584 -5.21566 0
M  V30 14198 H 1350.66 -0.230871 -2.11142 0
M  V30 14199 H 1352.92 -0.0406678 -0.947127 0
M  V30 14200 H 1352.63 0.442278 -3.48908 0
M  V30 14201 H 1352.5 2.14875 -3.10014 0
M  V30 14202 H 1354.89 2.06083 -2.1122 0
M  V30 14203 H 1354.97 0.344506 -2.5347 0
M  V30 14204 H 1354.61 0.954667 -4.98847 0
M  V30 14205 H 1354.54 2.67616 -4.5353 0
M  V30 14206 H 1357.03 1.56191 -3.44112 0
M  V30 14207 H 1357.35 2.61423 -7.2724 0
M  V30 14208 H 1355.69 2.35758 -6.53791 0
M  V30 14209 H 1358.88 1.85768 -4.2966 0
M  V30 14210 H 1359.06 2.33776 -6.04362 0
M  V30 14211 N 1352.46 1.37696 0.766659 0
M  V30 14212 C 1353.71 1.33382 1.52765 0
M  V30 14213 C 1354.04 -0.0800569 1.94035 0
M  V30 14214 O 1353.32 -1.03848 1.64456 0
M  V30 14215 C 1353.6 2.2776 2.78922 0
M  V30 14216 C 1353.45 3.77949 2.43874 0
M  V30 14217 C 1354.77 2.20494 3.80881 0
M  V30 14218 H 1351.89 0.485836 0.554195 0
M  V30 14219 H 1354.53 1.68438 0.879119 0
M  V30 14220 H 1352.68 1.97994 3.34261 0
M  V30 14221 H 1354.35 4.18333 1.9441 0
M  V30 14222 H 1352.6 3.96269 1.76503 0
M  V30 14223 H 1353.27 4.39428 3.34077 0
M  V30 14224 H 1355.74 2.46742 3.35048 0
M  V30 14225 H 1354.62 2.88663 4.66867 0
M  V30 14226 H 1354.88 1.19951 4.25516 0
M  V30 14227 N 1353.94 -0.993397 1.22349 0
M  V30 14228 C 1354.89 -2.0834 0.993123 0
M  V30 14229 C 1355.86 -1.65883 -0.0849717 0
M  V30 14230 O 1357.04 -1.90691 0.0645176 0
M  V30 14231 C 1354.18 -3.40252 0.576434 0
M  V30 14232 C 1353.29 -3.96055 1.72524 0
M  V30 14233 C 1352.43 -5.16123 1.25659 0
M  V30 14234 C 1351.47 -5.64062 2.37698 0
M  V30 14235 N 1350.61 -6.7537 1.91883 0
M  V30 14236 H 1355.45 -2.27381 1.92619 0
M  V30 14237 H 1352.98 -1.11476 0.959763 0
M  V30 14238 H 1354.94 -4.16001 0.316021 0
M  V30 14239 H 1353.57 -3.21214 -0.319626 0
M  V30 14240 H 1352.62 -3.17182 2.1 0
M  V30 14241 H 1353.93 -4.27614 2.56802 0
M  V30 14242 H 1353.09 -5.9916 0.953528 0
M  V30 14243 H 1351.83 -4.86186 0.384011 0
M  V30 14244 H 1350.83 -4.79614 2.68794 0
M  V30 14245 H 1352.06 -5.96025 3.25471 0
M  V30 14246 H 1350 -6.47217 1.06986 0
M  V30 14247 H 1349.92 -7.06246 2.69727 0
M  V30 14248 H 1351.19 -7.61914 1.64644 0
M  V30 14249 N 1355.42 -1.03311 -1.19015 0
M  V30 14250 C 1356.65 -0.751802 -1.92758 0
M  V30 14251 C 1357.06 0.689982 -1.7574 0
M  V30 14252 O 1356.42 1.46961 -1.08207 0
M  V30 14253 C 1356.47 -1.09892 -3.44392 0
M  V30 14254 O 1356.19 -2.48409 -3.60866 0
M  V30 14255 C 1357.69 -0.841029 -4.35249 0
M  V30 14256 H 1354.91 -0.274757 -0.612168 0
M  V30 14257 H 1357.45 -1.37873 -1.51034 0
M  V30 14258 H 1355.61 -0.517092 -3.83933 0
M  V30 14259 H 1356.02 -2.61468 -4.54681 0
M  V30 14260 H 1357.5 -1.13383 -5.4023 0
M  V30 14261 H 1357.97 0.224434 -4.38626 0
M  V30 14262 H 1358.58 -1.40579 -4.01395 0
M  V30 14263 N 1356.9 1.35099 -0.81154 0
M  V30 14264 C 1357.83 2.28468 -0.183012 0
M  V30 14265 C 1358.84 1.50509 0.620553 0
M  V30 14266 O 1360.03 1.7268 0.4521 0
M  V30 14267 C 1357.13 3.30201 0.762933 0
M  V30 14268 C 1356.3 4.374 0.00466561 0
M  V30 14269 C 1355.36 5.18961 0.869832 0
M  V30 14270 O 1354.39 5.68306 0.318964 0
M  V30 14271 N 1355.59 5.37555 2.19123 0
M  V30 14272 H 1358.35 2.83046 -0.985132 0
M  V30 14273 H 1355.92 1.47502 -0.667449 0
M  V30 14274 H 1357.91 3.81659 1.34606 0
M  V30 14275 H 1356.48 2.76101 1.46584 0
M  V30 14276 H 1355.7 3.8681 -0.759702 0
M  V30 14277 H 1356.99 5.06159 -0.517739 0
M  V30 14278 H 1356.38 4.99118 2.66266 0
M  V30 14279 H 1354.94 5.92174 2.72348 0
M  V30 14280 N 1358.37 0.56548 1.47106 0
M  V30 14281 C 1359.31 -0.225573 2.27082 0
M  V30 14282 C 1360.28 -0.912747 1.34565 0
M  V30 14283 O 1361.47 -0.930085 1.63956 0
M  V30 14284 C 1358.6 -1.32211 3.1183 0
M  V30 14285 C 1357.64 -0.742615 4.19985 0
M  V30 14286 S 1358.47 0.417211 5.33872 0
M  V30 14287 C 1359.63 -0.680945 6.22185 0
M  V30 14288 H 1359.86 0.453066 2.93828 0
M  V30 14289 H 1357.4 0.351982 1.50334 0
M  V30 14290 H 1359.35 -1.95004 3.61225 0
M  V30 14291 H 1358.02 -1.97262 2.44431 0
M  V30 14292 H 1357.21 -1.56632 4.79043 0
M  V30 14293 H 1356.81 -0.190696 3.73514 0
M  V30 14294 H 1359.1 -1.57099 6.59034 0
M  V30 14295 H 1360.05 -0.127524 7.07985 0
M  V30 14296 H 1360.45 -0.977339 5.55975 0
M  V30 14297 N 1359.85 -1.54672 0.302354 0
M  V30 14298 C 1361.08 -2.05041 -0.311891 0
M  V30 14299 C 1361.5 -1.17814 -1.46634 0
M  V30 14300 O 1360.86 -0.182517 -1.80379 0
M  V30 14301 C 1360.91 -3.52831 -0.744489 0
M  V30 14302 O 1360.01 -3.68621 -1.84913 0
M  V30 14303 H 1359.35 -0.661255 -0.0603102 0
M  V30 14304 H 1361.88 -1.99711 0.444593 0
M  V30 14305 H 1361.89 -3.94708 -1.03293 0
M  V30 14306 H 1360.57 -4.1578 0.0999976 0
M  V30 14307 H 1359.15 -3.38649 -1.56113 0
M  V30 14308 N 1361.33 -0.0301034 -1.57571 0
M  V30 14309 C 1362.26 0.94977 -2.13311 0
M  V30 14310 C 1363.24 1.33865 -1.04948 0
M  V30 14311 O 1364.43 1.4171 -1.32786 0
M  V30 14312 C 1361.56 2.23178 -2.66099 0
M  V30 14313 C 1360.51 1.98362 -3.79258 0
M  V30 14314 C 1359.84 3.32836 -4.18479 0
M  V30 14315 C 1361.14 1.32201 -5.05292 0
M  V30 14316 H 1362.83 0.485562 -2.95436 0
M  V30 14317 H 1360.38 0.232116 -1.42117 0
M  V30 14318 H 1362.33 2.92108 -3.03728 0
M  V30 14319 H 1361.05 2.71766 -1.81137 0
M  V30 14320 H 1359.71 1.31849 -3.42069 0
M  V30 14321 H 1359.36 3.79185 -3.30496 0
M  V30 14322 H 1359.06 3.17037 -4.94733 0
M  V30 14323 H 1360.58 4.03032 -4.58691 0
M  V30 14324 H 1362 1.91133 -5.40501 0
M  V30 14325 H 1360.4 1.26797 -5.86551 0
M  V30 14326 H 1361.47 0.29511 -4.84001 0
M  V30 14327 N 1362.81 1.55714 0.243056 0
M  V30 14328 C 1364.06 1.77375 0.968638 0
M  V30 14329 C 1364.38 0.594781 1.85708 0
M  V30 14330 O 1363.65 -0.38928 1.91993 0
M  V30 14331 H 1362.23 0.654174 0.360646 0
M  V30 14332 H 1364.89 1.93157 0.260079 0
M  V30 14333 H 1363.99 2.68674 1.5881 0
M  V30 14334 N 1364.29 -0.50888 1.49158 0
M  V30 14335 C 1365.23 -1.61129 1.65246 0
M  V30 14336 C 1366.2 -1.58582 0.49405 0
M  V30 14337 O 1367.39 -1.76689 0.720122 0
M  V30 14338 C 1364.53 -2.99311 1.71776 0
M  V30 14339 C 1363.64 -3.11933 2.98868 0
M  V30 14340 C 1362.78 -4.408 2.96426 0
M  V30 14341 C 1361.82 -4.47027 4.18131 0
M  V30 14342 N 1360.95 -5.67311 4.13645 0
M  V30 14343 H 1365.79 -1.4672 2.59379 0
M  V30 14344 H 1363.33 -0.713978 1.28611 0
M  V30 14345 H 1365.29 -3.79392 1.73543 0
M  V30 14346 H 1363.92 -3.12442 0.811159 0
M  V30 14347 H 1362.97 -2.24966 3.06748 0
M  V30 14348 H 1364.28 -3.12393 3.8886 0
M  V30 14349 H 1363.44 -5.29194 2.96712 0
M  V30 14350 H 1362.17 -4.42893 2.04199 0
M  V30 14351 H 1361.18 -3.57036 4.18097 0
M  V30 14352 H 1362.4 -4.46656 5.11542 0
M  V30 14353 H 1360.35 -5.70261 3.2425 0
M  V30 14354 H 1360.27 -5.69355 4.97364 0
M  V30 14355 H 1361.54 -6.57934 4.18022 0
M  V30 14356 N 1365.76 -1.381 -0.759346 0
M  V30 14357 C 1366.69 -1.37578 -1.88665 0
M  V30 14358 C 1367.68 -0.242529 -1.68362 0
M  V30 14359 O 1368.86 -0.444751 -1.89039 0
M  V30 14360 C 1365.99 -1.19437 -3.26117 0
M  V30 14361 C 1364.94 -2.29905 -3.61009 0
M  V30 14362 C 1364.27 -1.96874 -4.97136 0
M  V30 14363 C 1365.57 -3.72143 -3.66479 0
M  V30 14364 H 1367.26 -2.31912 -1.89359 0
M  V30 14365 H 1364.81 -1.11632 -0.909631 0
M  V30 14366 H 1366.76 -1.17698 -4.0463 0
M  V30 14367 H 1365.49 -0.21562 -3.25887 0
M  V30 14368 H 1364.15 -2.3082 -2.84812 0
M  V30 14369 H 1363.79 -0.974979 -4.9346 0
M  V30 14370 H 1363.49 -2.70855 -5.21451 0
M  V30 14371 H 1365.02 -1.96744 -5.78035 0
M  V30 14372 H 1366.43 -3.73291 -4.35117 0
M  V30 14373 H 1364.83 -4.45282 -4.02299 0
M  V30 14374 H 1365.9 -4.04874 -2.66843 0
M  V30 14375 N 1367.24 0.986894 -1.22875 0
M  V30 14376 C 1368.48 1.74243 -1.06859 0
M  V30 14377 C 1368.85 1.88024 0.388736 0
M  V30 14378 O 1370.05 2.60318 0.669907 0
M  V30 14379 C 1368.32 3.10668 -1.76692 0
M  V30 14380 S 1369.88 4.01884 -1.76166 0
M  V30 14381 H 1366.7 0.59931 -0.382555 0
M  V30 14382 H 1369.3 1.17951 -1.55909 0
M  V30 14383 H 1368 2.98285 -2.81877 0
M  V30 14384 H 1367.53 3.7203 -1.27897 0
M  V30 14385 H 1369.55 4.89451 -0.815627 0
M  V30 14386 N 1368.72 1.0394 1.18466 0
M  V30 14387 C 1369.97 0.743141 1.88694 0
M  V30 14388 C 1370.3 -0.727211 1.8007 0
M  V30 14389 O 1369.57 -1.53058 1.20014 0
M  V30 14390 C 1369.86 1.20829 3.39223 0
M  V30 14391 C 1369.71 2.74064 3.56664 0
M  V30 14392 C 1371.03 0.797348 4.32817 0
M  V30 14393 H 1368.15 0.271437 0.685194 0
M  V30 14394 H 1370.79 1.29119 1.39386 0
M  V30 14395 H 1368.94 0.742033 3.81348 0
M  V30 14396 H 1370.61 3.28717 3.2364 0
M  V30 14397 H 1368.86 3.1395 2.99362 0
M  V30 14398 H 1369.53 3.01668 4.62277 0
M  V30 14399 H 1372 1.19854 3.98465 0
M  V30 14400 H 1370.88 1.15057 5.36706 0
M  V30 14401 H 1371.14 -0.299601 4.41084 0
M  V30 14402 N 1370.2 -1.34667 0.818693 0
M  V30 14403 C 1371.11 -2.33375 0.239429 0
M  V30 14404 C 1372.12 -1.62428 -0.623957 0
M  V30 14405 O 1373.3 -1.94223 -0.532854 0
M  V30 14406 C 1370.37 -3.41598 -0.59258 0
M  V30 14407 C 1369.43 -4.28301 0.292712 0
M  V30 14408 C 1368.66 -5.31356 -0.499682 0
M  V30 14409 O 1368.88 -5.43426 -1.73334 0
M  V30 14410 O 1367.82 -6.01789 0.115778 0
M  V30 14411 H 1371.64 -2.84738 1.05631 0
M  V30 14412 H 1369.23 -1.37651 0.58074 0
M  V30 14413 H 1371.11 -4.07692 -1.06607 0
M  V30 14414 H 1369.78 -2.92486 -1.38685 0
M  V30 14415 H 1368.69 -3.65145 0.81361 0
M  V30 14416 H 1370.02 -4.80843 1.05123 0
M  V30 14417 N 1371.68 -0.573274 -1.46804 0
M  V30 14418 C 1372.59 0.168081 -2.33997 0
M  V30 14419 C 1373.6 0.895652 -1.49178 0
M  V30 14420 O 1374.78 0.860951 -1.8207 0
M  V30 14421 C 1371.84 1.17483 -3.26188 0
M  V30 14422 C 1370.9 0.452956 -4.26904 0
M  V30 14423 C 1370.14 1.41175 -5.1469 0
M  V30 14424 O 1370.36 2.64767 -5.05227 0
M  V30 14425 O 1369.29 0.927472 -5.94711 0
M  V30 14426 H 1373.12 -0.547576 -2.98723 0
M  V30 14427 H 1370.71 -0.333747 -1.45624 0
M  V30 14428 H 1372.59 1.75557 -3.8309 0
M  V30 14429 H 1371.26 1.87213 -2.6407 0
M  V30 14430 H 1370.17 -0.169383 -3.73716 0
M  V30 14431 H 1371.5 -0.203186 -4.9178 0
M  V30 14432 N 1373.15 1.5451 -0.310553 0
M  V30 14433 C 1374.57 1.59543 0.0425296 0
M  V30 14434 C 1374.77 1.32737 1.51602 0
M  V30 14435 O 1373.83 1.10543 2.27016 0
M  V30 14436 C 1375.14 2.98489 -0.364002 0
M  V30 14437 C 1376.69 3.11425 -0.313566 0
M  V30 14438 C 1377.16 4.52695 -0.695064 0
M  V30 14439 N 1378.65 4.58645 -0.647966 0
M  V30 14440 C 1379.39 5.66044 -0.915508 0
M  V30 14441 N 1378.88 6.81439 -1.24951 0
M  V30 14442 N 1380.68 5.55759 -0.841933 0
M  V30 14443 H 1372.83 1.70194 -1.27074 0
M  V30 14444 H 1375.09 0.795374 -0.515833 0
M  V30 14445 H 1374.8 3.23061 -1.39012 0
M  V30 14446 H 1374.67 3.76177 0.27756 0
M  V30 14447 H 1377.06 2.86596 0.703326 0
M  V30 14448 H 1377.14 2.35871 -0.989883 0
M  V30 14449 H 1376.78 4.78255 -1.70981 0
M  V30 14450 H 1376.71 5.266 0.00342684 0
M  V30 14451 H 1379.2 3.75765 -0.401137 0
M  V30 14452 H 1379.52 7.59277 -1.43938 0
M  V30 14453 H 1377.86 6.82968 -1.28764 0
M  V30 14454 H 1381.05 4.64486 -0.58058 0
M  V30 14455 H 1381.23 6.39374 -1.0538 0
M  V30 14456 N 1374.63 0.0384594 1.57553 0
M  V30 14457 C 1375.88 -0.636879 1.91803 0
M  V30 14458 C 1376.2 -1.72128 0.916347 0
M  V30 14459 O 1375.47 -1.95858 -0.0407405 0
M  V30 14460 H 1374.05 -0.238237 0.707992 0
M  V30 14461 H 1376.71 0.0884651 1.94699 0
M  V30 14462 H 1375.81 -1.08364 2.92683 0
M  V30 14463 N 1376.11 -1.55841 -0.234795 0
M  V30 14464 C 1377.34 -1.82043 -0.976937 0
M  V30 14465 C 1377.75 -0.613552 -1.78975 0
M  V30 14466 O 1377.09 0.427271 -1.78662 0
M  V30 14467 C 1377.15 -3.0178 -1.95369 0
M  V30 14468 C 1376.82 -4.3732 -1.32666 0
M  V30 14469 C 1377.82 -5.14847 -0.723107 0
M  V30 14470 C 1375.5 -4.8403 -1.3424 0
M  V30 14471 C 1377.49 -6.37238 -0.143646 0
M  V30 14472 C 1375.18 -6.06367 -0.759087 0
M  V30 14473 C 1376.18 -6.82811 -0.16075 0
M  V30 14474 O 1375.87 -8.02836 0.41352 0
M  V30 14475 H 1375.6 -0.609424 -0.292537 0
M  V30 14476 H 1378.15 -2.03758 -0.259216 0
M  V30 14477 H 1376.38 -2.7585 -2.71005 0
M  V30 14478 H 1378.07 -3.14968 -2.56027 0
M  V30 14479 H 1378.84 -4.79873 -0.703371 0
M  V30 14480 H 1374.72 -4.24512 -1.7975 0
M  V30 14481 H 1378.26 -6.96847 0.324002 0
M  V30 14482 H 1374.16 -6.40816 -0.776191 0
M  V30 14483 H 1374.93 -8.17926 0.306554 0
M  V30 14484 N 1377.59 0.500963 -1.49426 0
M  V30 14485 C 1378.5 1.62889 -1.68833 0
M  V30 14486 C 1379.52 1.64367 -0.570932 0
M  V30 14487 O 1380.69 1.82786 -0.845641 0
M  V30 14488 C 1377.76 2.99255 -1.75063 0
M  V30 14489 C 1376.82 3.08404 -2.9864 0
M  V30 14490 C 1376.05 4.38266 -3.04564 0
M  V30 14491 O 1376.27 5.27065 -2.1808 0
M  V30 14492 O 1375.21 4.52387 -3.97026 0
M  V30 14493 H 1379.03 1.49446 -2.64385 0
M  V30 14494 H 1376.62 0.677254 -1.33168 0
M  V30 14495 H 1378.5 3.80303 -1.81515 0
M  V30 14496 H 1377.18 3.1296 -0.826896 0
M  V30 14497 H 1376.08 2.26544 -2.97706 0
M  V30 14498 H 1377.42 2.99626 -3.90494 0
M  V30 14499 N 1379.07 1.38501 0.752011 0
M  V30 14500 C 1380.02 1.35975 1.88716 0
M  V30 14501 C 1381.01 0.245392 1.67613 0
M  V30 14502 O 1382.22 0.414514 1.75162 0
M  V30 14503 H 1378.59 0.424221 0.620919 0
M  V30 14504 H 1380.56 2.3176 1.87962 0
M  V30 14505 C 1379.31 1.20326 3.26216 0
M  V30 14506 H 1378.63 2.05336 3.43041 0
M  V30 14507 H 1380.07 1.22613 4.05884 0
M  V30 14508 C 1378.53 -0.0897029 3.36781 0
M  V30 14509 O 1379.06 -1.06615 3.87293 0
M  V30 14510 N 1377.27 -0.147065 2.90228 0
M  V30 14511 H 1376.82 0.648216 2.49311 0
M  V30 14512 H 1376.77 -1.01174 2.97676 0
M  V30 14513 N 1380.55 -0.980364 1.23396 0
M  V30 14514 C 1381.96 -1.53622 1.061 0
M  V30 14515 C 1382.31 -1.92648 -0.371645 0
M  V30 14516 O 1381.43 -1.76051 -1.25837 0
M  V30 14517 C 1382.03 -2.79159 1.91979 0
M  V30 14518 C 1380.59 -3.31144 1.78943 0
M  V30 14519 C 1379.73 -2.04135 1.87681 0
M  V30 14520 H 1382.68 -0.800047 1.37058 0
M  V30 14521 H 1382.71 -3.52011 1.4446 0
M  V30 14522 H 1382.22 -2.50723 2.96242 0
M  V30 14523 H 1380.32 -3.64459 0.774634 0
M  V30 14524 H 1380.43 -4.009 2.62329 0
M  V30 14525 H 1378.8 -2.18271 1.31262 0
M  V30 14526 H 1379.58 -1.78081 2.93499 0
M  V30 14527 N 1382.02 -1.04567 -1.17913 0
M  V30 14528 C 1382.96 -0.585519 -2.2056 0
M  V30 14529 C 1383.93 0.382581 -1.58035 0
M  V30 14530 O 1385.12 0.295692 -1.86166 0
M  V30 14531 C 1382.25 0.14396 -3.38394 0
M  V30 14532 C 1381.29 -0.778174 -4.19341 0
M  V30 14533 S 1382.12 -2.26385 -4.85294 0
M  V30 14534 C 1383.28 -1.54537 -6.06522 0
M  V30 14535 H 1383.51 -1.4552 -2.59251 0
M  V30 14536 H 1381.05 -0.857075 -1.28427 0
M  V30 14537 H 1383 0.558661 -4.06681 0
M  V30 14538 H 1381.67 0.989593 -2.98104 0
M  V30 14539 H 1380.86 -0.214053 -5.03545 0
M  V30 14540 H 1380.46 -1.13195 -3.56459 0
M  V30 14541 H 1382.75 -0.841199 -6.72257 0
M  V30 14542 H 1383.7 -2.36465 -6.6745 0
M  V30 14543 H 1384.1 -1.03551 -5.54921 0
M  V30 14544 N 1383.5 1.34231 -0.825823 0
M  V30 14545 C 1384.43 2.28261 -0.207234 0
M  V30 14546 C 1385.45 1.51159 0.604554 0
M  V30 14547 O 1386.64 1.7315 0.43376 0
M  V30 14548 C 1383.74 3.30991 0.727868 0
M  V30 14549 C 1382.91 4.3738 -0.0417267 0
M  V30 14550 C 1381.97 5.19854 0.81474 0
M  V30 14551 O 1380.99 5.68612 0.25867 0
M  V30 14552 N 1382.2 5.39849 2.1341 0
M  V30 14553 H 1384.96 2.81986 -1.0151 0
M  V30 14554 H 1382.52 1.46785 -0.683056 0
M  V30 14555 H 1384.51 3.83065 1.3055 0
M  V30 14556 H 1383.08 2.7764 1.43647 0
M  V30 14557 H 1382.3 3.85983 -0.800686 0
M  V30 14558 H 1383.59 5.05581 -0.571395 0
M  V30 14559 H 1382.99 5.01914 2.60958 0
M  V30 14560 H 1381.55 5.95029 2.66052 0
M  V30 14561 N 1384.98 0.581051 1.46498 0
M  V30 14562 C 1386.23 0.0659956 2.02392 0
M  V30 14563 C 1386.55 -1.29329 1.45273 0
M  V30 14564 O 1385.81 -1.86047 0.607041 0
M  V30 14565 C 1386.11 -0.0514774 3.57363 0
M  V30 14566 C 1385.77 1.24 4.33514 0
M  V30 14567 C 1384.44 1.59383 4.54038 0
M  V30 14568 C 1386.79 2.09473 4.77253 0
M  V30 14569 C 1384.12 2.8004 5.15552 0
M  V30 14570 C 1386.47 3.29355 5.401 0
M  V30 14571 C 1385.13 3.65022 5.58852 0
M  V30 14572 H 1384.4 0.0241495 0.740606 0
M  V30 14573 H 1387.05 0.757354 1.75887 0
M  V30 14574 H 1385.35 -0.825955 3.82995 0
M  V30 14575 H 1387.05 -0.465726 3.98286 0
M  V30 14576 H 1383.64 0.954547 4.17835 0
M  V30 14577 H 1387.83 1.83441 4.61154 0
M  V30 14578 H 1383.08 3.07814 5.28262 0
M  V30 14579 H 1387.26 3.95855 5.7295 0
M  V30 14580 H 1384.88 4.58607 6.06287 0
M  V30 14581 N 1386.46 -1.54343 0.318742 0
M  V30 14582 C 1387.37 -2.27856 -0.558442 0
M  V30 14583 C 1388.38 -1.32029 -1.13333 0
M  V30 14584 O 1389.56 -1.65037 -1.15433 0
M  V30 14585 C 1386.62 -3.01842 -1.70565 0
M  V30 14586 C 1385.69 -4.13245 -1.16305 0
M  V30 14587 C 1384.92 -4.83693 -2.25559 0
M  V30 14588 O 1385.14 -4.53621 -3.4581 0
M  V30 14589 O 1384.08 -5.70708 -1.91249 0
M  V30 14590 H 1387.9 -3.03676 0.0384247 0
M  V30 14591 H 1385.49 -1.4916 0.0845936 0
M  V30 14592 H 1387.37 -3.48189 -2.37365 0
M  V30 14593 H 1386.04 -2.28902 -2.28879 0
M  V30 14594 H 1384.95 -3.71258 -0.460274 0
M  V30 14595 H 1386.28 -4.88214 -0.625111 0
M  V30 14596 N 1387.94 -0.0468143 -1.5753 0
M  V30 14597 C 1388.85 0.944362 -2.14753 0
M  V30 14598 C 1389.86 1.34473 -1.10422 0
M  V30 14599 O 1391.04 1.42254 -1.42569 0
M  V30 14600 C 1388.1 2.2023 -2.67768 0
M  V30 14601 C 1387.16 1.8607 -3.8688 0
M  V30 14602 C 1386.4 3.05867 -4.37357 0
M  V30 14603 O 1386.62 4.19099 -3.86927 0
M  V30 14604 O 1385.55 2.87134 -5.28997 0
M  V30 14605 H 1389.38 0.48772 -2.99758 0
M  V30 14606 H 1386.96 0.174831 -1.48374 0
M  V30 14607 H 1388.85 2.94044 -3.01855 0
M  V30 14608 H 1387.52 2.65041 -1.85836 0
M  V30 14609 H 1386.43 1.09586 -3.5769 0
M  V30 14610 H 1387.76 1.46062 -4.70028 0
M  V30 14611 N 1389.41 1.55964 0.226527 0
M  V30 14612 C 1390.64 1.83168 0.972846 0
M  V30 14613 C 1391.06 0.626512 1.7736 0
M  V30 14614 O 1390.42 -0.42468 1.76256 0
M  V30 14615 C 1390.47 3.08315 1.87014 0
M  V30 14616 O 1389.57 2.8666 2.96479 0
M  V30 14617 H 1388.92 0.604041 0.275736 0
M  V30 14618 H 1391.45 2.03172 0.241345 0
M  V30 14619 H 1391.46 3.38288 2.28091 0
M  V30 14620 H 1390.13 3.95663 1.28154 0
M  V30 14621 H 1388.71 2.67907 2.59384 0
M  V30 14622 N 1390.89 -0.493031 1.4969 0
M  V30 14623 C 1392.17 -1.25436 1.50084 0
M  V30 14624 C 1392.55 -2.0981 0.233038 0
M  V30 14625 O 1391.9 -2.14617 -0.784342 0
M  V30 14626 C 1392.11 -2.10425 2.78428 0
M  V30 14627 C 1393.46 -2.69349 3.28232 0
M  V30 14628 O 1394.48 -2.20686 2.796 0
M  V30 14629 O 1393.34 -3.57956 4.12953 0
M  V30 14630 H 1390.43 -0.568044 0.601045 0
M  V30 14631 H 1392.98 -0.506648 1.6196 0
M  V30 14632 H 1391.75 -1.48108 3.62187 0
M  V30 14633 H 1391.37 -2.92374 2.6945 0
M  V30 14634 N 1392.37 -1.38898 -0.744656 0
M  V30 14635 C 1393.61 -1.37019 -1.51675 0
M  V30 14636 C 1393.97 0.0371033 -1.91964 0
M  V30 14637 O 1395.18 0.180835 -2.68191 0
M  V30 14638 C 1393.45 -2.30701 -2.72969 0
M  V30 14639 S 1395.01 -2.46922 -3.62733 0
M  V30 14640 H 1391.82 -0.486035 -0.518933 0
M  V30 14641 H 1394.43 -1.74906 -0.873384 0
M  V30 14642 H 1393.13 -3.31827 -2.41494 0
M  V30 14643 H 1392.66 -1.93994 -3.42242 0
M  V30 14644 H 1394.68 -1.69994 -4.66172 0
M  V30 14645 N 1393.85 0.973806 -1.23914 0
M  V30 14646 C 1395.13 1.69087 -0.9833 0
M  V30 14647 C 1395.51 2.05186 0.49619 0
M  V30 14648 O 1394.85 1.75021 1.46901 0
M  V30 14649 C 1395.06 2.92739 -1.90012 0
M  V30 14650 C 1396.41 3.65112 -2.16745 0
M  V30 14651 O 1397.44 3.02785 -1.87616 0
M  V30 14652 O 1396.29 4.77293 -2.66183 0
M  V30 14653 H 1393.39 0.738919 -0.371386 0
M  V30 14654 H 1395.93 1.02844 -1.34986 0
M  V30 14655 H 1394.71 2.6271 -2.89999 0
M  V30 14656 H 1394.33 3.66718 -1.53635 0
M  V30 14657 N 1395.33 1.05191 1.17357 0
M  V30 14658 C 1396.55 0.782343 1.92079 0
M  V30 14659 C 1396.98 -0.655957 1.76292 0
M  V30 14660 O 1396.33 -1.45573 1.08065 0
M  V30 14661 C 1396.38 1.16777 3.41168 0
M  V30 14662 O 1395.49 0.299908 4.11308 0
M  V30 14663 H 1394.83 0.286894 0.598822 0
M  V30 14664 H 1397.36 1.40476 1.48754 0
M  V30 14665 H 1397.37 1.13454 3.91909 0
M  V30 14666 H 1396.04 2.2155 3.51978 0
M  V30 14667 H 1394.62 0.393744 3.70815 0
M  V30 14668 N 1396.8 -1.33791 0.83293 0
M  V30 14669 C 1398.03 -2.0272 0.438111 0
M  V30 14670 C 1398.45 -1.62279 -0.951163 0
M  V30 14671 O 1397.81 -0.812406 -1.62079 0
M  V30 14672 C 1397.86 -3.5623 0.559698 0
M  V30 14673 O 1396.96 -4.10292 -0.41646 0
M  V30 14674 H 1396.31 -0.639438 0.178928 0
M  V30 14675 H 1398.84 -1.70821 1.12612 0
M  V30 14676 H 1398.85 -4.0563 0.439148 0
M  V30 14677 H 1397.52 -3.8501 1.5729 0
M  V30 14678 H 1396.1 -3.72034 -0.25396 0
M  V30 14679 N 1398.28 -0.588812 -1.46187 0
M  V30 14680 C 1399.56 -0.00958331 -1.95598 0
M  V30 14681 C 1399.94 1.45294 -1.53144 0
M  V30 14682 O 1399.29 2.14592 -0.785015 0
M  V30 14683 C 1399.5 -0.188018 -3.48493 0
M  V30 14684 C 1400.85 -0.0590152 -4.24559 0
M  V30 14685 O 1401.87 -0.117167 -3.56007 0
M  V30 14686 O 1400.73 0.0715924 -5.46453 0
M  V30 14687 H 1397.82 0.0463708 -0.825699 0
M  V30 14688 H 1400.37 -0.657558 -1.56443 0
M  V30 14689 H 1399.14 -1.20449 -3.723 0
M  V30 14690 H 1398.76 0.496103 -3.94493 0
M  V30 14691 N 1399.76 1.54172 -0.326923 0
M  V30 14692 C 1401.01 2.00233 0.274098 0
M  V30 14693 C 1401.33 1.21665 1.5239 0
M  V30 14694 O 1400.6 0.319359 1.93279 0
M  V30 14695 H 1399.18 0.739687 0.104271 0
M  V30 14696 H 1401.84 1.8977 -0.444244 0
M  V30 14697 H 1400.94 3.07599 0.528154 0
M  V30 14698 N 1401.24 0.0551678 1.57503 0
M  V30 14699 C 1402.15 -0.932959 2.15251 0
M  V30 14700 C 1403.16 -1.33885 1.11134 0
M  V30 14701 O 1404.34 -1.41495 1.43321 0
M  V30 14702 C 1401.41 -2.18807 2.68932 0
M  V30 14703 C 1400.47 -1.84016 3.87862 0
M  V30 14704 C 1399.7 -3.03543 4.38973 0
M  V30 14705 O 1399.92 -4.17041 3.89144 0
M  V30 14706 O 1398.86 -2.84325 5.30512 0
M  V30 14707 H 1402.68 -0.471816 3.00013 0
M  V30 14708 H 1400.27 -0.16696 1.48464 0
M  V30 14709 H 1402.15 -2.92439 3.0341 0
M  V30 14710 H 1400.82 -2.64051 1.87239 0
M  V30 14711 H 1399.73 -1.07687 3.58266 0
M  V30 14712 H 1401.06 -1.43567 4.70796 0
M  V30 14713 N 1402.72 -1.56081 -0.218252 0
M  V30 14714 C 1403.96 -1.81024 -0.949188 0
M  V30 14715 C 1404.32 -0.629178 -1.81398 0
M  V30 14716 O 1405.52 -0.757982 -2.57892 0
M  V30 14717 C 1403.79 -3.10878 -1.76322 0
M  V30 14718 S 1405.35 -3.57147 -2.54934 0
M  V30 14719 H 1402.17 -0.635529 -0.318785 0
M  V30 14720 H 1404.77 -1.9432 -0.214484 0
M  V30 14721 H 1403.48 -3.94875 -1.11811 0
M  V30 14722 H 1403.01 -3.00399 -2.54016 0
M  V30 14723 H 1405.02 -3.20747 -3.78597 0
M  V30 14724 N 1404.2 0.485086 -1.49949 0
M  V30 14725 C 1405.42 1.26648 -1.64241 0
M  V30 14726 C 1405.85 1.85359 -0.319939 0
M  V30 14727 O 1405.2 1.66628 0.714487 0
M  V30 14728 C 1405.25 2.36109 -2.72552 0
M  V30 14729 O 1404.36 3.40387 -2.32832 0
M  V30 14730 H 1403.7 0.373208 -0.549192 0
M  V30 14731 H 1406.23 0.578929 -1.96239 0
M  V30 14732 H 1406.24 2.81634 -2.95205 0
M  V30 14733 H 1404.91 1.92745 -3.6854 0
M  V30 14734 H 1403.49 3.0067 -2.20571 0
M  V30 14735 N 1405.67 1.39291 0.737279 0
M  V30 14736 C 1406.95 1.26901 1.48847 0
M  V30 14737 C 1407.33 -0.122417 2.10745 0
M  V30 14738 O 1406.68 -1.13343 1.98408 0
M  V30 14739 C 1406.89 2.3916 2.54172 0
M  V30 14740 C 1408.24 2.78368 3.20619 0
M  V30 14741 O 1409.26 2.38593 2.64484 0
M  V30 14742 O 1408.12 3.47014 4.22189 0
M  V30 14743 H 1405.21 0.497176 0.660867 0
M  V30 14744 H 1407.76 1.51159 0.771299 0
M  V30 14745 H 1406.53 3.3219 2.06797 0
M  V30 14746 H 1406.15 2.16555 3.33451 0
M  V30 14747 N 1407.15 -0.967221 1.24429 0
M  V30 14748 C 1408.11 -2.04344 1.03808 0
M  V30 14749 C 1409.11 -1.60799 -0.00476972 0
M  V30 14750 O 1410.3 -1.72591 0.236241 0
M  V30 14751 C 1407.44 -3.36041 0.573496 0
M  V30 14752 H 1408.63 -2.2407 1.9933 0
M  V30 14753 H 1406.18 -1.14253 1.06658 0
M  V30 14754 H 1406.92 -3.22008 -0.384898 0
M  V30 14755 H 1406.7 -3.68991 1.32619 0
M  V30 14756 H 1408.19 -4.15165 0.450272 0
M  V30 14757 N 1408.63 -1.05812 -1.16797 0
M  V30 14758 C 1409.86 -0.792519 -1.9112 0
M  V30 14759 C 1410.27 0.652549 -1.77164 0
M  V30 14760 O 1409.63 1.44633 -1.113 0
M  V30 14761 C 1409.68 -1.17172 -3.41984 0
M  V30 14762 O 1409.4 -2.56008 -3.55516 0
M  V30 14763 C 1410.9 -0.933162 -4.33367 0
M  V30 14764 H 1408.12 -0.28768 -0.606202 0
M  V30 14765 H 1410.67 -1.41046 -1.48075 0
M  V30 14766 H 1408.82 -0.598413 -3.8275 0
M  V30 14767 H 1409.24 -2.71053 -4.49033 0
M  V30 14768 H 1410.71 -1.24817 -5.37703 0
M  V30 14769 H 1411.19 0.131345 -4.39004 0
M  V30 14770 H 1411.79 -1.49062 -3.98322 0
M  V30 14771 N 1410.11 1.33347 -0.840014 0
M  V30 14772 C 1411.35 1.98037 -0.43692 0
M  V30 14773 C 1411.69 1.66382 1.00154 0
M  V30 14774 O 1410.96 0.944311 1.70038 0
M  V30 14775 C 1411.24 3.54012 -0.65937 0
M  V30 14776 C 1411.1 3.9535 -2.14518 0
M  V30 14777 C 1412.42 4.39972 -0.106258 0
M  V30 14778 H 1409.54 0.719373 -0.160221 0
M  V30 14779 H 1412.18 1.57969 -1.05574 0
M  V30 14780 H 1410.33 3.88274 -0.132633 0
M  V30 14781 H 1412 3.7134 -2.73687 0
M  V30 14782 H 1410.24 3.4504 -2.62926 0
M  V30 14783 H 1410.91 5.03992 -2.25158 0
M  V30 14784 H 1413.39 4.12362 -0.556511 0
M  V30 14785 H 1412.27 5.48125 -0.291583 0
M  V30 14786 H 1412.53 4.30872 0.990032 0
M  V30 14787 N 1411.59 0.596556 1.45873 0
M  V30 14788 C 1413 0.259317 1.57479 0
M  V30 14789 C 1413.2 -1.23829 1.58961 0
M  V30 14790 O 1412.26 -2.02076 1.51399 0
M  V30 14791 C 1413.57 0.920755 2.86256 0
M  V30 14792 C 1415.12 0.895638 2.99912 0
M  V30 14793 C 1415.59 1.53688 4.31444 0
M  V30 14794 N 1417.08 1.50186 4.38176 0
M  V30 14795 C 1417.82 1.96727 5.38596 0
M  V30 14796 N 1417.32 2.51304 6.45615 0
M  V30 14797 N 1419.11 1.87561 5.29884 0
M  V30 14798 H 1411.26 1.56909 1.43155 0
M  V30 14799 H 1413.52 0.656664 0.683737 0
M  V30 14800 H 1413.23 1.97481 2.91023 0
M  V30 14801 H 1413.1 0.437331 3.74656 0
M  V30 14802 H 1415.49 -0.149838 2.94719 0
M  V30 14803 H 1415.57 1.41722 2.12952 0
M  V30 14804 H 1415.21 2.58163 4.37395 0
M  V30 14805 H 1415.14 0.990408 5.17203 0
M  V30 14806 H 1417.64 1.10305 3.61443 0
M  V30 14807 H 1417.95 2.84639 7.18471 0
M  V30 14808 H 1416.29 2.55337 6.46396 0
M  V30 14809 H 1419.48 1.4467 4.45183 0
M  V30 14810 H 1419.66 2.24146 6.07999 0
M  V30 14811 N 1413.06 -1.53996 0.335095 0
M  V30 14812 C 1414.29 -2.05188 -0.26563 0
M  V30 14813 C 1414.71 -1.21058 -1.44881 0
M  V30 14814 O 1414.06 -0.243919 -1.80863 0
M  V30 14815 C 1414.11 -3.54875 -0.688904 0
M  V30 14816 O 1413.84 -4.35811 0.447217 0
M  V30 14817 C 1415.34 -4.22204 -1.35123 0
M  V30 14818 H 1412.56 -0.668921 -0.0527806 0
M  V30 14819 H 1415.1 -1.98675 0.48463 0
M  V30 14820 H 1413.26 -3.61638 -1.38912 0
M  V30 14821 H 1413.67 -5.24381 0.111495 0
M  V30 14822 H 1415.14 -5.28356 -1.59823 0
M  V30 14823 H 1415.62 -3.74029 -2.30216 0
M  V30 14824 H 1416.23 -4.19611 -0.693283 0
M  V30 14825 N 1414.54 -0.0635198 -1.57472 0
M  V30 14826 C 1415.49 0.924358 -2.13444 0
M  V30 14827 C 1416.48 1.31389 -1.06927 0
M  V30 14828 O 1417.69 1.2921 -1.25319 0
M  V30 14829 H 1414.06 0.316003 -0.682383 0
M  V30 14830 H 1416.04 0.427281 -2.95325 0
M  V30 14831 C 1414.78 2.18546 -2.70431 0
M  V30 14832 H 1414.11 1.89455 -3.52061 0
M  V30 14833 H 1415.55 2.85799 -3.13201 0
M  V30 14834 C 1414.01 2.93845 -1.64794 0
M  V30 14835 O 1414.54 3.87242 -1.06802 0
M  V30 14836 N 1412.74 2.568 -1.36023 0
M  V30 14837 H 1412.29 1.80924 -1.83369 0
M  V30 14838 H 1412.25 3.07486 -0.655741 0
M  V30 14839 N 1416.02 1.56195 0.209972 0
M  V30 14840 C 1416.97 1.93355 1.26026 0
M  V30 14841 C 1417.94 0.792195 1.45991 0
M  V30 14842 O 1419.12 1.04909 1.5937 0
M  V30 14843 C 1416.26 2.26558 2.60318 0
M  V30 14844 C 1415.37 3.53685 2.48055 0
M  V30 14845 C 1414.51 3.76279 3.7495 0
M  V30 14846 C 1413.55 4.96881 3.57457 0
M  V30 14847 N 1412.69 5.15806 4.76328 0
M  V30 14848 H 1417.53 2.82907 0.936357 0
M  V30 14849 H 1415.06 1.40015 0.451022 0
M  V30 14850 H 1417.02 2.43821 3.38537 0
M  V30 14851 H 1415.65 1.40165 2.90781 0
M  V30 14852 H 1414.7 3.44551 1.61211 0
M  V30 14853 H 1416.01 4.42057 2.31056 0
M  V30 14854 H 1415.17 3.93702 4.6161 0
M  V30 14855 H 1413.91 2.86209 3.94887 0
M  V30 14856 H 1412.91 4.79397 2.69181 0
M  V30 14857 H 1414.14 5.88447 3.38979 0
M  V30 14858 H 1412.08 4.28681 4.96557 0
M  V30 14859 H 1412 5.98332 4.62099 0
M  V30 14860 H 1413.27 5.37674 5.64382 0
M  V30 14861 N 1417.5 -0.477127 1.50204 0
M  V30 14862 C 1418.45 -1.57334 1.65015 0
M  V30 14863 C 1419.43 -1.52771 0.504953 0
M  V30 14864 O 1420.62 -1.59897 0.759072 0
M  V30 14865 C 1417.75 -2.95815 1.74208 0
M  V30 14866 C 1416.84 -3.05284 2.94385 0
M  V30 14867 N 1417.23 -2.84582 4.18147 0
M  V30 14868 C 1415.53 -3.36413 2.92817 0
M  V30 14869 C 1416.23 -2.98859 4.99057 0
M  V30 14870 N 1415.2 -3.28794 4.32892 0
M  V30 14871 H 1419.01 -1.40018 2.58403 0
M  V30 14872 H 1416.52 -0.68374 1.47305 0
M  V30 14873 H 1418.52 -3.74627 1.82921 0
M  V30 14874 H 1417.18 -3.14182 0.819746 0
M  V30 14875 H 1418.19 -2.60282 4.47743 0
M  V30 14876 H 1414.87 -3.60806 2.1006 0
M  V30 14877 H 1416.26 -2.87144 6.07452 0
M  V30 14878 N 1418.98 -1.3968 -0.729882 0
M  V30 14879 C 1420.21 -1.40263 -1.5169 0
M  V30 14880 C 1420.61 0.00325293 -1.892 0
M  V30 14881 O 1419.96 0.986225 -1.54982 0
M  V30 14882 C 1420.02 -2.21629 -2.83056 0
M  V30 14883 C 1419.68 -3.70204 -2.67951 0
M  V30 14884 C 1420.68 -4.63169 -2.36158 0
M  V30 14885 C 1418.37 -4.13851 -2.84662 0
M  V30 14886 C 1420.36 -5.97763 -2.21265 0
M  V30 14887 C 1418.05 -5.4852 -2.69387 0
M  V30 14888 C 1419.04 -6.4029 -2.37734 0
M  V30 14889 O 1418.73 -7.72478 -2.22561 0
M  V30 14890 H 1418.46 -0.480808 -0.475184 0
M  V30 14891 H 1421.02 -1.84184 -0.909136 0
M  V30 14892 H 1419.25 -1.72465 -3.46111 0
M  V30 14893 H 1420.94 -2.14328 -3.447 0
M  V30 14894 H 1421.7 -4.30748 -2.22893 0
M  V30 14895 H 1417.58 -3.42751 -3.0829 0
M  V30 14896 H 1421.13 -6.69359 -1.96481 0
M  V30 14897 H 1417.02 -5.8053 -2.82232 0
M  V30 14898 H 1417.79 -7.83258 -2.37591 0
M  V30 14899 N 1420.45 0.960609 -1.2494 0
M  V30 14900 C 1421.68 1.7446 -1.12153 0
M  V30 14901 C 1422.1 1.85335 0.321315 0
M  V30 14902 O 1421.46 1.32944 1.23271 0
M  V30 14903 C 1421.51 3.13945 -1.774 0
M  V30 14904 O 1420.61 3.9882 -1.04958 0
M  V30 14905 H 1419.96 0.536007 -0.391909 0
M  V30 14906 H 1422.49 1.2045 -1.65388 0
M  V30 14907 H 1422.5 3.64434 -1.83444 0
M  V30 14908 H 1421.17 3.05346 -2.82377 0
M  V30 14909 H 1419.75 3.57293 -1.06752 0
M  V30 14910 N 1421.93 1.0643 1.16234 0
M  V30 14911 C 1423.16 0.802671 1.91238 0
M  V30 14912 C 1423.58 -0.637222 1.76978 0
M  V30 14913 O 1422.94 -1.44419 1.09603 0
M  V30 14914 C 1422.99 1.20389 3.3991 0
M  V30 14915 O 1422.09 0.343516 4.10967 0
M  V30 14916 H 1421.43 0.29323 0.595745 0
M  V30 14917 H 1423.96 1.42046 1.47255 0
M  V30 14918 H 1423.97 1.17604 3.90683 0
M  V30 14919 H 1422.65 2.2527 3.49608 0
M  V30 14920 H 1421.23 0.433051 3.70377 0
M  V30 14921 N 1423.41 -1.329 0.847073 0
M  V30 14922 C 1424.37 -2.27341 0.291324 0
M  V30 14923 C 1425.37 -1.51295 -0.544653 0
M  V30 14924 O 1426.56 -1.70497 -0.357258 0
M  V30 14925 C 1423.7 -3.35779 -0.588668 0
M  V30 14926 H 1424.89 -2.78009 1.12477 0
M  V30 14927 H 1422.44 -1.43442 0.620803 0
M  V30 14928 H 1423.18 -2.90366 -1.44423 0
M  V30 14929 H 1422.96 -3.92099 0.00960515 0
M  V30 14930 H 1424.45 -4.06166 -0.970526 0
M  V30 14931 N 1424.89 -0.604284 -1.45555 0
M  V30 14932 C 1426.12 -0.104452 -2.06636 0
M  V30 14933 C 1426.53 1.20976 -1.44949 0
M  V30 14934 O 1425.89 1.73616 -0.562468 0
M  V30 14935 C 1425.94 0.0451646 -3.61472 0
M  V30 14936 O 1425.66 -1.21705 -4.20856 0
M  V30 14937 C 1427.16 0.57684 -4.39531 0
M  V30 14938 H 1424.38 -0.067326 -0.667614 0
M  V30 14939 H 1426.93 -0.831079 -1.86851 0
M  V30 14940 H 1425.08 0.722104 -3.80611 0
M  V30 14941 H 1425.49 -1.04462 -5.13992 0
M  V30 14942 H 1426.97 0.630627 -5.48386 0
M  V30 14943 H 1427.45 1.59842 -4.09081 0
M  V30 14944 H 1428.05 -0.0659444 -4.25249 0
M  V30 14945 N 1426.37 1.53816 -0.343257 0
M  V30 14946 C 1427.61 2.01902 0.246398 0
M  V30 14947 C 1427.97 1.22671 1.48221 0
M  V30 14948 O 1427.26 0.305932 1.89142 0
M  V30 14949 C 1427.45 3.521 0.613243 0
M  V30 14950 C 1427.28 4.45873 -0.585472 0
M  V30 14951 C 1426.05 4.93388 -1.09069 0
M  V30 14952 C 1428.25 4.93617 -1.44383 0
M  V30 14953 N 1426.23 5.71112 -2.25176 0
M  V30 14954 C 1427.6 5.69461 -2.45182 0
M  V30 14955 C 1429.66 4.75726 -1.46931 0
M  V30 14956 C 1428.36 6.29317 -3.48357 0
M  V30 14957 C 1430.39 5.36432 -2.48987 0
M  V30 14958 C 1429.75 6.12143 -3.48511 0
M  V30 14959 H 1425.85 0.780169 0.0534765 0
M  V30 14960 H 1428.43 1.8862 -0.482756 0
M  V30 14961 H 1426.6 3.65588 1.3115 0
M  V30 14962 H 1428.34 3.8693 1.18606 0
M  V30 14963 H 1425.09 4.68995 -0.658824 0
M  V30 14964 H 1425.52 6.14645 -2.83797 0
M  V30 14965 H 1430.16 4.16737 -0.713479 0
M  V30 14966 H 1427.88 6.87416 -4.24835 0
M  V30 14967 H 1431.46 5.24495 -2.51785 0
M  V30 14968 H 1430.34 6.58281 -4.26187 0
M  V30 14969 O 1427.88 0.211535 1.60109 0
M  V30 14970 H 1428.57 -0.370843 1.90117 0
M  V30 END ATOM
M  V30 BEGIN BOND
M  V30 END BOND
M  V30 END CTAB
M  END
$$$$
