drugbank_target|O43293 Death-associated protein kinase 3 (DB04716; DB07125; DB07242; DB12010)
 OpenBabel12092120403D

  0  0  0     0  0            999 V3000
M  V30 BEGIN CTAB
M  V30 COUNTS 7423 7482 0 0 0
M  V30 BEGIN ATOM
M  V30 1 H -0.908 1.98254 -0.117106 0
M  V30 2 N 0 1.576 0 0
M  V30 3 C 0.933 2.03868 1.02534 0
M  V30 4 C 1.911 0.928543 1.3348 0
M  V30 5 O 3.095 1.19667 1.45644 0
M  V30 6 C 0.222 2.43627 2.35294 0
M  V30 7 C -0.732 3.65373 2.2001 0
M  V30 8 S 0.101 5.13292 1.52614 0
M  V30 9 C 1.257 5.56322 2.86805 0
M  V30 10 H 1.49 2.90518 0.631377 0
M  V30 11 H -0.977 1.52953 0.210867 0
M  V30 12 H 0.981 2.67203 3.11629 0
M  V30 13 H -0.358 1.57376 2.7183 0
M  V30 14 H -1.165 3.90944 3.18086 0
M  V30 15 H -1.563 3.418 1.51819 0
M  V30 16 H 0.729 5.58782 3.83104 0
M  V30 17 H 1.672 6.56266 2.65933 0
M  V30 18 H 2.08 4.83886 2.90714 0
M  V30 19 N 1.4781 -0.272755 1.55222 0
M  V30 20 C 2.7031 -1.02683 1.80197 0
M  V30 21 C 3.1281 -1.79142 0.573551 0
M  V30 22 O 2.4861 -1.74917 -0.476849 0
M  V30 23 C 2.5341 -1.9609 3.02624 0
M  V30 24 O 1.6381 -3.04863 2.77727 0
M  V30 25 H 0.9791 -0.293557 0.595584 0
M  V30 26 H 3.5091 -0.30159 2.02365 0
M  V30 27 H 3.5191 -2.38039 3.31363 0
M  V30 28 H 2.1941 -1.39851 3.91682 0
M  V30 29 H 0.7711 -2.67228 2.60084 0
M  V30 30 N 2.9562 -1.48159 -0.537278 0
M  V30 31 C 4.1842 -1.59454 -1.31841 0
M  V30 32 C 4.5992 -0.252065 -1.8711 0
M  V30 33 O 3.9562 0.757621 -1.66031 0
M  V30 34 C 4.0072 -2.63546 -2.47439 0
M  V30 35 O 3.7282 -3.92583 -1.94449 0
M  V30 36 C 5.2292 -2.85212 -3.39366 0
M  V30 37 H 2.4492 -0.53785 -0.401196 0
M  V30 38 H 4.9932 -1.93932 -0.648891 0
M  V30 39 H 3.1482 -2.31946 -3.1029 0
M  V30 40 H 3.5622 -4.49629 -2.70063 0
M  V30 41 H 5.0362 -3.61863 -4.16844 0
M  V30 42 H 5.5132 -1.93765 -3.94147 0
M  V30 43 H 6.1192 -3.18086 -2.82314 0
M  V30 44 N 4.4343 0.785586 -1.36625 0
M  V30 45 C 5.6813 1.54362 -1.31067 0
M  V30 46 C 6.0093 1.94195 0.10893 0
M  V30 47 O 5.2643 1.63262 1.07908 0
M  V30 48 C 5.5633 2.83007 -2.1827 0
M  V30 49 C 5.2293 2.62294 -3.6676 0
M  V30 50 C 3.8913 2.56353 -4.0723 0
M  V30 51 C 6.2433 2.43371 -4.6089 0
M  V30 52 C 3.5713 2.29461 -5.39967 0
M  V30 53 C 5.9233 2.18005 -5.93849 0
M  V30 54 C 4.5873 2.105 -6.3344 0
M  V30 55 H 3.8573 0.564851 -0.479609 0
M  V30 56 H 6.5043 0.906028 -1.68711 0
M  V30 57 H 4.8093 3.51253 -1.73576 0
M  V30 58 H 6.5063 3.40817 -2.11292 0
M  V30 59 H 3.0963 2.67774 -3.34656 0
M  V30 60 H 7.2803 2.46959 -4.30494 0
M  V30 61 H 2.5363 2.22135 -5.69619 0
M  V30 62 H 6.7103 2.02359 -6.66351 0
M  V30 63 H 4.3373 1.89425 -7.36222 0
M  V30 64 N 5.9124 1.20967 1.01018 0
M  V30 65 C 7.3284 0.965905 1.27053 0
M  V30 66 C 7.5284 -0.350785 1.98423 0
M  V30 67 O 6.5844 -1.07773 2.28344 0
M  V30 68 C 7.8974 2.15294 2.09926 0
M  V30 69 C 9.4454 2.19463 2.23171 0
M  V30 70 C 9.9204 3.3767 3.09424 0
M  V30 71 N 11.4114 3.37724 3.17012 0
M  V30 72 C 12.1464 4.25837 3.83993 0
M  V30 73 N 11.6424 5.24138 4.53047 0
M  V30 74 N 13.4354 4.1366 3.80581 0
M  V30 75 H 5.5864 2.0565 0.531194 0
M  V30 76 H 7.8494 0.90024 0.297106 0
M  V30 77 H 7.5554 3.10684 1.64828 0
M  V30 78 H 7.4294 2.13923 3.10672 0
M  V30 79 H 9.8164 1.24632 2.6749 0
M  V30 80 H 9.8974 2.2488 1.21912 0
M  V30 81 H 9.5414 4.32791 2.65808 0
M  V30 82 H 9.4714 3.29491 4.10784 0
M  V30 83 H 11.9624 2.6658 2.6785 0
M  V30 84 H 12.2754 5.87684 5.01844 0
M  V30 85 H 10.6204 5.28068 4.5185 0
M  V30 86 H 13.8114 3.36127 3.25785 0
M  V30 87 H 13.9844 4.82538 4.32505 0
M  V30 88 N 7.3905 -1.2043 1.01659 0
M  V30 89 C 8.3225 -2.22626 0.544988 0
M  V30 90 C 9.3355 -1.58479 -0.372609 0
M  V30 91 O 10.5245 -1.77679 -0.170958 0
M  V30 92 C 7.6245 -3.38141 -0.22663 0
M  V30 93 C 6.7975 -4.31877 0.692876 0
M  V30 94 C 5.8565 -5.26191 -0.0311616 0
M  V30 95 O 4.8825 -5.6612 0.591343 0
M  V30 96 N 6.0845 -5.65618 -1.30601 0
M  V30 97 H 8.8495 -2.63716 1.42388 0
M  V30 98 H 6.4105 -1.34971 0.894116 0
M  V30 99 H 8.4025 -3.98239 -0.72024 0
M  V30 100 H 6.9725 -2.95943 -1.00681 0
M  V30 101 H 6.1925 -3.69746 1.36679 0
M  V30 102 H 7.4805 -4.91426 1.31824 0
M  V30 103 H 6.8785 -5.3519 -1.83269 0
M  V30 104 H 5.4355 -6.28025 -1.74435 0
M  V30 105 N 8.8686 -0.792821 -1.36206 0
M  V30 106 C 9.7786 -0.194808 -2.3379 0
M  V30 107 C 10.7946 0.654869 -1.61206 0
M  V30 108 O 11.9706 0.569856 -1.9317 0
M  V30 109 C 9.0356 0.657721 -3.40404 0
M  V30 110 C 8.0966 -0.210849 -4.28782 0
M  V30 111 C 7.3296 0.601086 -5.30304 0
M  V30 112 O 7.5526 1.83682 -5.40016 0
M  V30 113 O 6.4866 -0.000808277 -6.019 0
M  V30 114 H 10.3126 -1.00172 -2.86704 0
M  V30 115 H 7.8976 -0.554341 -1.38735 0
M  V30 116 H 9.7796 1.14375 -4.05581 0
M  V30 117 H 8.4546 1.44247 -2.89784 0
M  V30 118 H 7.3616 -0.743714 -3.66633 0
M  V30 119 H 8.6946 -0.959195 -4.82763 0
M  V30 120 N 10.3467 1.47872 -0.545128 0
M  V30 121 C 11.6237 1.9554 0.0485222 0
M  V30 122 C 12.0037 1.4876 1.49779 0
M  V30 123 O 11.3517 0.720925 2.16829 0
M  V30 124 C 11.5617 3.48898 -0.084417 0
M  V30 125 C 12.9097 4.24547 0.0671239 0
M  V30 126 O 13.9337 3.56198 -0.0113649 0
M  V30 127 O 12.7927 5.45999 0.233882 0
M  V30 128 H 9.8867 0.823957 0.0708773 0
M  V30 129 H 12.4327 1.58327 -0.610798 0
M  V30 130 H 11.2047 3.75714 -1.09337 0
M  V30 131 H 10.8277 3.92845 0.613066 0
M  V30 132 N 11.8248 0.280983 1.55075 0
M  V30 133 C 13.0708 -0.33461 2.00021 0
M  V30 134 C 13.4038 -1.55063 1.16915 0
M  V30 135 O 12.6788 -1.93006 0.240646 0
M  V30 136 C 12.9618 -0.711007 3.53011 0
M  V30 137 C 12.8148 0.512766 4.46868 0
M  V30 138 C 14.1338 -1.54522 4.12081 0
M  V30 139 H 11.2528 -0.120147 0.727141 0
M  V30 140 H 13.8948 0.389097 1.85973 0
M  V30 141 H 12.0448 -1.32761 3.65112 0
M  V30 142 H 13.7168 1.15131 4.46702 0
M  V30 143 H 11.9598 1.14975 4.18286 0
M  V30 144 H 12.6308 0.205556 5.51617 0
M  V30 145 H 15.1068 -1.02442 4.03293 0
M  V30 146 H 13.9828 -1.77739 5.19327 0
M  V30 147 H 14.2438 -2.52813 3.62682 0
M  V30 148 N 13.3029 -1.57598 0.00835791 0
M  V30 149 C 14.2129 -2.12385 -0.996487 0
M  V30 150 C 15.2289 -1.07108 -1.37127 0
M  V30 151 O 16.4049 -1.39055 -1.4569 0
M  V30 152 C 13.4699 -2.62314 -2.26699 0
M  V30 153 C 12.5309 -3.82225 -1.95456 0
M  V30 154 C 11.7639 -4.29763 -3.16449 0
M  V30 155 O 11.9869 -3.76584 -4.28416 0
M  V30 156 O 10.9209 -5.21832 -2.99958 0
M  V30 157 H 14.7469 -2.98479 -0.560725 0
M  V30 158 H 12.3319 -1.47903 -0.210987 0
M  V30 159 H 14.2139 -2.94589 -3.01322 0
M  V30 160 H 12.8889 -1.79313 -2.69497 0
M  V30 161 H 11.7959 -3.54909 -1.18282 0
M  V30 162 H 13.1289 -4.66324 -1.57489 0
M  V30 163 N 14.781 0.264519 -1.55364 0
M  V30 164 C 16.058 1.01677 -1.67096 0
M  V30 165 C 16.438 2.03996 -0.543015 0
M  V30 166 O 15.786 2.23907 0.45585 0
M  V30 167 C 15.996 1.66596 -3.0667 0
M  V30 168 C 17.344 2.17442 -3.64697 0
M  V30 169 O 18.368 1.76568 -3.09358 0
M  V30 170 O 17.227 2.92439 -4.61673 0
M  V30 171 H 14.321 0.472161 -0.678965 0
M  V30 172 H 16.867 0.259703 -1.67701 0
M  V30 173 H 15.639 0.924962 -3.80211 0
M  V30 174 H 15.262 2.48968 -3.10001 0
M  V30 175 N 16.2591 1.48442 0.529413 0
M  V30 176 C 17.2091 1.59407 1.63014 0
M  V30 177 C 18.1931 0.451166 1.54445 0
M  V30 178 O 19.3851 0.702635 1.62456 0
M  V30 179 C 16.5141 1.63746 3.01732 0
M  V30 180 C 15.6001 2.83518 3.15402 0
M  V30 181 N 15.9911 4.07929 2.99045 0
M  V30 182 C 14.2891 2.80862 3.46457 0
M  V30 183 C 14.9901 4.8829 3.16146 0
M  V30 184 N 13.9661 4.21117 3.43746 0
M  V30 185 H 17.7681 2.53343 1.48978 0
M  V30 186 H 15.2821 1.44821 0.734885 0
M  V30 187 H 17.2791 1.69695 3.80801 0
M  V30 188 H 15.9391 0.709264 3.16859 0
M  V30 189 H 16.9501 4.38357 2.75796 0
M  V30 190 H 13.6271 1.97301 3.67938 0
M  V30 191 H 15.0171 5.97028 3.08232 0
M  V30 192 N 17.7372 -0.778329 1.37039 0
M  V30 193 C 18.9672 -1.56507 1.34868 0
M  V30 194 C 19.3752 -1.89072 -0.0694802 0
M  V30 195 O 18.7182 -1.51434 -1.03987 0
M  V30 196 C 18.7802 -2.90641 2.11585 0
M  V30 197 C 18.4442 -2.80746 3.60598 0
M  V30 198 C 19.4412 -2.52226 4.54618 0
M  V30 199 C 17.1262 -2.98974 4.03633 0
M  V30 200 C 19.1202 -2.42054 5.89651 0
M  V30 201 C 16.8072 -2.88423 5.38754 0
M  V30 202 C 17.8052 -2.60002 6.31576 0
M  V30 203 O 17.4932 -2.49465 7.64214 0
M  V30 204 H 17.2252 -0.491723 0.463879 0
M  V30 205 H 19.7792 -0.973053 1.80889 0
M  V30 206 H 18.0092 -3.51936 1.60243 0
M  V30 207 H 19.6982 -3.51992 2.0213 0
M  V30 208 H 20.4642 -2.37835 4.22681 0
M  V30 209 H 16.3432 -3.20099 3.31749 0
M  V30 210 H 19.8872 -2.19791 6.62071 0
M  V30 211 H 15.7842 -3.0238 5.70295 0
M  V30 212 H 16.5522 -2.64864 7.74461 0
M  V30 213 N 19.2153 -1.21501 -1.00376 0
M  V30 214 C 20.1253 -0.991447 -2.12621 0
M  V30 215 C 21.1413 0.0568446 -1.73907 0
M  V30 216 O 22.3173 -0.13348 -2.00957 0
M  V30 217 C 19.3823 -0.560312 -3.42142 0
M  V30 218 C 18.4433 -1.68096 -3.95022 0
M  V30 219 C 17.6763 -1.2703 -5.18362 0
M  V30 220 O 17.8993 -0.144438 -5.70217 0
M  V30 221 O 16.8333 -2.08269 -5.64719 0
M  V30 222 H 20.6593 -1.93158 -2.34358 0
M  V30 223 H 18.2443 -0.999999 -1.10997 0
M  V30 224 H 20.1263 -0.329724 -4.20108 0
M  V30 225 H 18.8013 0.351089 -3.2179 0
M  V30 226 H 17.7083 -1.96597 -3.18278 0
M  V30 227 H 19.0413 -2.56983 -4.19786 0
M  V30 228 N 20.6934 1.19889 -1.02296 0
M  V30 229 C 21.6264 2.21639 -0.543282 0
M  V30 230 C 22.6044 1.57275 0.412698 0
M  V30 231 O 23.7884 1.85568 0.331198 0
M  V30 232 C 20.9154 3.38057 0.208571 0
M  V30 233 C 19.9614 4.20751 -0.697933 0
M  V30 234 S 20.7944 4.89529 -2.17075 0
M  V30 235 C 21.9504 6.09363 -1.42923 0
M  V30 236 H 22.1834 2.61984 -1.40541 0
M  V30 237 H 19.7164 1.30041 -0.832387 0
M  V30 238 H 21.6744 4.05539 0.63624 0
M  V30 239 H 20.3354 2.96159 1.04635 0
M  V30 240 H 19.5284 5.03862 -0.117831 0
M  V30 241 H 19.1304 3.58556 -1.06366 0
M  V30 242 H 21.4224 6.73742 -0.712637 0
M  V30 243 H 22.3654 6.71845 -2.23673 0
M  V30 244 H 22.7734 5.56798 -0.929327 0
M  V30 245 N 22.1715 0.800033 1.35784 0
M  V30 246 C 23.4195 0.376597 1.9856 0
M  V30 247 C 23.7405 -1.05812 1.63795 0
M  V30 248 O 23.0105 -1.73103 0.917171 0
M  V30 249 H 21.5905 0.136261 0.734467 0
M  V30 250 H 24.2525 1.02442 1.65806 0
M  V30 251 H 23.3485 0.477002 3.08433 0
M  V30 252 N 23.6496 -1.47581 0.552962 0
M  V30 253 C 24.5596 -2.33743 -0.200353 0
M  V30 254 C 25.5756 -1.47928 -0.916151 0
M  V30 255 O 26.7516 -1.80865 -0.885993 0
M  V30 256 C 23.8166 -3.24536 -1.21973 0
M  V30 257 C 22.8776 -4.26238 -0.511819 0
M  V30 258 C 22.1106 -5.12693 -1.48263 0
M  V30 259 O 22.3336 -5.01525 -2.71714 0
M  V30 260 O 21.2676 -5.93375 -1.00945 0
M  V30 261 H 25.0936 -2.9945 0.506304 0
M  V30 262 H 22.6786 -1.46071 0.313622 0
M  V30 263 H 24.5606 -3.80631 -1.80827 0
M  V30 264 H 23.2356 -2.61462 -1.90839 0
M  V30 265 H 22.1426 -3.73914 0.117799 0
M  V30 266 H 23.4756 -4.92014 0.135308 0
M  V30 267 N 25.1277 -0.289203 -1.54924 0
M  V30 268 C 26.0377 0.601863 -2.26748 0
M  V30 269 C 27.0537 1.15834 -1.2984 0
M  V30 270 O 28.2297 1.18564 -1.62802 0
M  V30 271 C 25.2947 1.76299 -2.98529 0
M  V30 272 C 24.3557 1.24178 -4.10948 0
M  V30 273 C 23.5887 2.34757 -4.79296 0
M  V30 274 O 23.8117 3.54411 -4.46933 0
M  V30 275 O 22.7457 2.02115 -5.66951 0
M  V30 276 H 26.5717 0.0195879 -3.03694 0
M  V30 277 H 24.1567 -0.0560868 -1.49295 0
M  V30 278 H 26.0387 2.43973 -3.43592 0
M  V30 279 H 24.7137 2.33209 -2.24488 0
M  V30 280 H 23.6207 0.531104 -3.70311 0
M  V30 281 H 24.9537 0.718252 -4.86931 0
M  V30 282 N 26.6058 1.57591 -0.0167156 0
M  V30 283 C 27.5358 2.12496 0.967858 0
M  V30 284 C 28.5168 1.03807 1.34752 0
M  V30 285 O 29.7018 1.31577 1.42833 0
M  V30 286 C 26.8318 2.64194 2.25431 0
M  V30 287 C 25.7858 3.77559 2.01576 0
M  V30 288 C 25.1118 4.15636 3.36379 0
M  V30 289 C 26.4118 5.04151 1.36489 0
M  V30 290 H 28.1058 2.95013 0.510643 0
M  V30 291 H 25.6518 1.41915 0.244181 0
M  V30 292 H 27.6048 3.01236 2.94678 0
M  V30 293 H 26.3288 1.78821 2.73296 0
M  V30 294 H 24.9878 3.40937 1.34751 0
M  V30 295 H 24.6358 3.27263 3.81979 0
M  V30 296 H 24.3358 4.92022 3.21229 0
M  V30 297 H 25.8598 4.5525 4.06915 0
M  V30 298 H 27.2738 5.38857 1.95718 0
M  V30 299 H 25.6708 5.85453 1.31776 0
M  V30 300 H 26.7408 4.83733 0.336219 0
M  V30 301 N 28.0839 -0.256276 1.55502 0
M  V30 302 C 29.3319 -0.983672 1.76545 0
M  V30 303 C 29.6529 -1.86206 0.578982 0
M  V30 304 O 28.9229 -1.91656 -0.405577 0
M  V30 305 H 27.5029 -0.366191 0.651086 0
M  V30 306 H 30.1649 -0.276479 1.92929 0
M  V30 307 H 29.2609 -1.61087 2.67315 0
M  V30 308 N 29.562 -1.4872 -0.521534 0
M  V30 309 C 30.787 -1.61101 -1.30618 0
M  V30 310 C 31.212 -0.274611 -1.86085 0
M  V30 311 O 30.57 0.754937 -1.64834 0
M  V30 312 C 30.618 -2.66709 -2.4269 0
M  V30 313 O 29.722 -2.24456 -3.45967 0
M  V30 314 H 29.063 -0.539921 -0.386499 0
M  V30 315 H 31.593 -1.94767 -0.626645 0
M  V30 316 H 31.603 -2.88245 -2.88754 0
M  V30 317 H 30.278 -3.63727 -2.01682 0
M  V30 318 H 28.855 -2.13168 -3.05964 0
M  V30 319 N 31.0401 0.771051 -1.3745 0
M  V30 320 C 32.2881 1.52661 -1.32435 0
M  V30 321 C 32.6091 1.9479 0.0905024 0
M  V30 322 O 31.8791 1.66348 1.03466 0
M  V30 323 H 30.4591 0.566218 -0.487244 0
M  V30 324 H 33.1211 0.917636 -1.71946 0
M  V30 325 H 32.2171 2.42568 -1.96385 0
M  V30 326 N 32.5182 1.22032 0.997298 0
M  V30 327 C 33.4502 0.944263 2.08845 0
M  V30 328 C 34.4632 -0.0754663 1.62625 0
M  V30 329 O 35.6522 0.157994 1.77799 0
M  V30 330 C 32.7522 0.397723 3.36558 0
M  V30 331 C 31.9252 1.47362 4.11829 0
M  V30 332 C 30.9842 0.934951 5.17827 0
M  V30 333 O 30.0102 1.62016 5.45655 0
M  V30 334 N 31.2122 -0.245895 5.79979 0
M  V30 335 H 33.9772 1.88363 2.33109 0
M  V30 336 H 31.5382 1.12661 1.16272 0
M  V30 337 H 33.5302 0.0227771 4.04694 0
M  V30 338 H 32.1002 -0.446646 3.09393 0
M  V30 339 H 31.3202 2.02208 3.38386 0
M  V30 340 H 32.6082 2.19764 4.58891 0
M  V30 341 H 32.0062 -0.819475 5.59733 0
M  V30 342 H 30.5632 -0.562272 6.4937 0
M  V30 343 N 33.9963 -1.19345 1.0293 0
M  V30 344 C 35.2433 -1.89038 0.726008 0
M  V30 345 C 35.5713 -1.79649 -0.745427 0
M  V30 346 O 34.8263 -1.18354 -1.55855 0
M  V30 347 C 35.1253 -3.39292 1.12319 0
M  V30 348 C 34.7913 -3.68885 2.59297 0
M  V30 349 C 33.4533 -3.76671 2.99453 0
M  V30 350 C 35.8053 -3.82178 3.54386 0
M  V30 351 C 33.1333 -3.9522 4.33611 0
M  V30 352 C 35.4853 -4.0224 4.88248 0
M  V30 353 C 34.1493 -4.08259 5.28092 0
M  V30 354 H 33.4193 -0.691739 0.265665 0
M  V30 355 H 36.0663 -1.41328 1.29223 0
M  V30 356 H 34.3713 -3.88903 0.475584 0
M  V30 357 H 36.0683 -3.91536 0.866037 0
M  V30 358 H 32.6583 -3.63433 2.27189 0
M  V30 359 H 36.8423 -3.75505 3.24514 0
M  V30 360 H 32.0983 -3.98119 4.64016 0
M  V30 361 H 36.2723 -4.11468 5.61843 0
M  V30 362 H 33.8993 -4.22384 6.32057 0
M  V30 363 N 35.4744 -0.807222 -1.35358 0
M  V30 364 C 36.4374 -0.223665 -2.28106 0
M  V30 365 C 37.4374 0.589354 -1.4961 0
M  V30 366 O 38.6274 0.407745 -1.69361 0
M  V30 367 C 35.7594 0.688149 -3.33882 0
M  V30 368 H 36.9524 -1.04169 -2.81227 0
M  V30 369 H 34.5054 -0.577921 -1.45223 0
M  V30 370 H 35.2404 1.52984 -2.85948 0
M  V30 371 H 35.0254 0.10687 -3.91954 0
M  V30 372 H 36.5154 1.09075 -4.03104 0
M  V30 373 N 36.9525 1.47285 -0.560781 0
M  V30 374 C 38.2015 2.01668 -0.035895 0
M  V30 375 C 38.5145 1.44021 1.32353 0
M  V30 376 O 39.7205 1.90088 1.93853 0
M  V30 377 C 38.1765 3.59897 -0.0136659 0
M  V30 378 C 37.7845 4.26536 -1.37006 0
M  V30 379 C 39.5285 4.22017 0.458425 0
M  V30 380 C 37.4355 5.76782 -1.30675 0
M  V30 381 H 36.3655 0.753938 -0.00964879 0
M  V30 382 H 39.0165 1.69243 -0.709166 0
M  V30 383 H 37.3985 3.89301 0.725325 0
M  V30 384 H 38.5725 4.0877 -2.12705 0
M  V30 385 H 36.8875 3.76419 -1.78038 0
M  V30 386 H 39.4845 5.32124 0.524247 0
M  V30 387 H 39.8275 3.89437 1.4712 0
M  V30 388 H 40.3605 3.97159 -0.225818 0
M  V30 389 H 37.0995 6.13988 -2.29564 0
M  V30 390 H 36.6195 5.96875 -0.591622 0
M  V30 391 H 38.2985 6.39063 -1.01033 0
M  V30 392 N 38.4306 0.297415 1.54768 0
M  V30 393 C 39.6766 -0.313376 2.00364 0
M  V30 394 C 40.0096 -1.53815 1.18553 0
M  V30 395 O 39.2846 -1.92739 0.261103 0
M  V30 396 C 39.5676 -0.673525 3.53745 0
M  V30 397 C 39.4206 0.560133 4.46299 0
M  V30 398 C 40.7396 -1.50143 4.13697 0
M  V30 399 H 37.8586 -0.112428 0.728374 0
M  V30 400 H 40.5006 0.4088 1.8555 0
M  V30 401 H 38.6506 -1.28881 3.665 0
M  V30 402 H 40.3226 1.19863 4.45455 0
M  V30 403 H 38.5656 1.19405 4.17043 0
M  V30 404 H 39.2366 0.26405 5.51368 0
M  V30 405 H 41.7126 -0.981588 4.04356 0
M  V30 406 H 40.5886 -1.72221 5.21182 0
M  V30 407 H 40.8496 -2.48952 3.65343 0
M  V30 408 N 39.9087 -1.5758 0.0250728 0
M  V30 409 C 41.3247 -1.56124 -0.331282 0
M  V30 410 C 41.5247 -1.03029 -1.73169 0
M  V30 411 O 40.5807 -0.675215 -2.43305 0
M  V30 412 C 41.8937 -3.00139 -0.183584 0
M  V30 413 C 43.4417 -3.11946 -0.256654 0
M  V30 414 C 43.9167 -4.57793 -0.137792 0
M  V30 415 N 45.4077 -4.6279 -0.194904 0
M  V30 416 C 46.1427 -5.7326 -0.126655 0
M  V30 417 N 45.6387 -6.928 -0.00755288 0
M  V30 418 N 47.4317 -5.61811 -0.180348 0
M  V30 419 H 39.5827 -1.90424 0.94087 0
M  V30 420 H 41.8457 -0.875761 0.362968 0
M  V30 421 H 41.5517 -3.4292 0.780927 0
M  V30 422 H 41.4257 -3.64899 -0.955448 0
M  V30 423 H 43.8127 -2.69079 -1.21162 0
M  V30 424 H 43.8937 -2.49915 0.545517 0
M  V30 425 H 43.5377 -5.01339 0.813739 0
M  V30 426 H 43.4677 -5.17798 -0.958775 0
M  V30 427 H 45.9587 -3.76807 -0.287267 0
M  V30 428 H 46.2717 -7.72791 0.0379428 0
M  V30 429 H 44.6167 -6.94995 0.0271731 0
M  V30 430 H 47.8077 -4.6731 -0.271767 0
M  V30 431 H 47.9807 -6.47882 -0.123697 0
M  V30 432 N 41.3868 0.248026 -1.55636 0
M  V30 433 C 42.3338 1.30707 -1.90222 0
M  V30 434 C 43.3038 1.47881 -0.756332 0
M  V30 435 O 44.4888 1.61883 -1.00988 0
M  V30 436 C 41.6288 2.65769 -2.20138 0
M  V30 437 C 40.7418 2.56612 -3.47526 0
M  V30 438 C 39.8768 3.8402 -3.67017 0
M  V30 439 C 38.9158 3.69476 -4.8801 0
M  V30 440 N 38.0528 4.88774 -5.04029 0
M  V30 441 H 42.8928 1.00512 -2.80538 0
M  V30 442 H 40.4298 0.485055 -1.38873 0
M  V30 443 H 42.3878 3.44386 -2.35487 0
M  V30 444 H 41.0178 2.94115 -1.33027 0
M  V30 445 H 40.0698 1.69571 -3.40514 0
M  V30 446 H 41.3818 2.41774 -4.36287 0
M  V30 447 H 40.5358 4.7108 -3.8232 0
M  V30 448 H 39.2748 4.01754 -2.76487 0
M  V30 449 H 38.2798 2.80799 -4.72686 0
M  V30 450 H 39.5048 3.53238 -5.8 0
M  V30 451 H 37.4508 5.0687 -4.16435 0
M  V30 452 H 37.3678 4.76562 -5.86877 0
M  V30 453 H 38.6358 5.77335 -5.23741 0
M  V30 454 N 42.8649 1.48995 0.513639 0
M  V30 455 C 44.1049 1.59452 1.27885 0
M  V30 456 C 44.4689 0.269479 1.90099 0
M  V30 457 O 45.6699 0.249139 2.67643 0
M  V30 458 C 43.9409 2.71277 2.32688 0
M  V30 459 S 45.4999 3.01604 3.18717 0
M  V30 460 H 42.3179 0.562565 0.434789 0
M  V30 461 H 44.9199 1.86595 0.583301 0
M  V30 462 H 43.6239 3.66089 1.8549 0
M  V30 463 H 43.1549 2.46086 3.06929 0
M  V30 464 H 45.1699 2.42155 4.331 0
M  V30 465 N 44.343 -0.763751 1.37857 0
M  V30 466 C 45.759 -1.06542 1.18832 0
M  V30 467 C 45.959 -2.01478 0.0299722 0
M  V30 468 O 45.015 -2.4458 -0.627447 0
M  V30 469 C 46.328 -1.65525 2.51042 0
M  V30 470 C 47.876 -1.77745 2.57635 0
M  V30 471 C 48.351 -2.4014 3.89996 0
M  V30 472 N 49.842 -2.47582 3.91481 0
M  V30 473 C 50.577 -2.96732 4.9065 0
M  V30 474 N 50.073 -3.45993 6.00217 0
M  V30 475 N 51.866 -2.95679 4.78048 0
M  V30 476 H 44.017 -0.133556 2.1198 0
M  V30 477 H 46.28 -0.121879 0.940133 0
M  V30 478 H 45.986 -1.03236 3.36207 0
M  V30 479 H 45.86 -2.64719 2.68707 0
M  V30 480 H 48.247 -2.39164 1.72872 0
M  V30 481 H 48.328 -0.772836 2.43846 0
M  V30 482 H 47.972 -1.79358 4.75177 0
M  V30 483 H 47.902 -3.41223 4.01092 0
M  V30 484 H 50.393 -2.1273 3.12337 0
M  V30 485 H 50.706 -3.81922 6.7183 0
M  V30 486 H 49.051 -3.44077 6.03851 0
M  V30 487 H 52.242 -2.56499 3.91568 0
M  V30 488 H 52.415 -3.33672 5.55488 0
M  V30 489 N 45.8211 -1.22559 -0.990812 0
M  V30 490 C 46.7531 -0.955325 -2.08342 0
M  V30 491 C 47.7661 0.0668408 -1.62663 0
M  V30 492 O 48.9551 -0.167421 -1.77713 0
M  V30 493 C 46.0551 -0.415566 -3.36342 0
M  V30 494 C 45.2281 -1.49544 -4.11042 0
M  V30 495 C 44.2871 -0.962399 -5.17324 0
M  V30 496 O 43.3131 -1.64907 -5.44788 0
M  V30 497 N 44.5151 0.215134 -5.80101 0
M  V30 498 H 47.2801 -1.89596 -2.32106 0
M  V30 499 H 44.8411 -1.13276 -1.15673 0
M  V30 500 H 46.8331 -0.0442386 -4.04676 0
M  V30 501 H 45.4031 0.430232 -3.09625 0
M  V30 502 H 44.6231 -2.04 -3.37309 0
M  V30 503 H 45.9111 -2.22195 -4.57719 0
M  V30 504 H 45.3091 0.789779 -5.6016 0
M  V30 505 H 43.8661 0.527826 -6.49659 0
M  V30 506 N 47.2992 1.18797 -1.03562 0
M  V30 507 C 48.2462 2.22253 -0.622259 0
M  V30 508 C 49.2162 1.61987 0.36736 0
M  V30 509 O 50.4012 1.88986 0.262492 0
M  V30 510 C 47.5412 3.45097 0.0138462 0
M  V30 511 C 46.6542 4.19722 -1.02263 0
M  V30 512 C 45.7892 5.30009 -0.355573 0
M  V30 513 C 44.8282 5.96399 -1.37749 0
M  V30 514 N 43.9652 6.98234 -0.735766 0
M  V30 515 H 48.8052 2.56968 -1.50903 0
M  V30 516 H 46.3422 1.26245 -0.755017 0
M  V30 517 H 48.3002 4.15279 0.399948 0
M  V30 518 H 46.9302 3.11018 0.864158 0
M  V30 519 H 45.9822 3.48418 -1.52673 0
M  V30 520 H 47.2942 4.65227 -1.79903 0
M  V30 521 H 46.4482 6.0664 0.0850095 0
M  V30 522 H 45.1872 4.85592 0.452967 0
M  V30 523 H 44.1922 5.18512 -1.82826 0
M  V30 524 H 45.4172 6.42899 -2.18764 0
M  V30 525 H 43.3632 6.55979 0.0525597 0
M  V30 526 H 43.2802 7.41965 -1.44995 0
M  V30 527 H 44.5482 7.78845 -0.31941 0
M  V30 528 N 48.7773 0.814389 1.34928 0
M  V30 529 C 50.0253 0.397636 1.9815 0
M  V30 530 C 50.3463 -1.04069 1.64908 0
M  V30 531 O 49.6163 -1.72121 0.93548 0
M  V30 532 H 48.1963 0.144043 0.732981 0
M  V30 533 H 50.8583 1.04195 1.6471 0
M  V30 534 H 49.9543 0.509688 3.0791 0
M  V30 535 N 50.2554 -1.46986 0.568584 0
M  V30 536 C 51.4834 -2.0683 0.0539956 0
M  V30 537 C 51.8984 -1.41953 -1.24478 0
M  V30 538 O 51.2554 -0.519933 -1.74937 0
M  V30 539 C 51.3064 -3.61254 -0.133362 0
M  V30 540 O 51.0274 -4.237 1.11399 0
M  V30 541 C 52.5284 -4.37992 -0.683927 0
M  V30 542 H 49.7484 -0.669058 0.0510141 0
M  V30 543 H 52.2924 -1.88824 0.785234 0
M  V30 544 H 50.4474 -3.78735 -0.81477 0
M  V30 545 H 50.8614 -5.16388 0.91888 0
M  V30 546 H 52.3354 -5.46684 -0.764263 0
M  V30 547 H 52.8124 -4.05058 -1.69778 0
M  V30 548 H 53.4184 -4.25283 -0.0378494 0
M  V30 549 N 51.7335 -0.305618 -1.54608 0
M  V30 550 C 52.9815 0.301701 -1.99835 0
M  V30 551 C 53.3025 1.54054 -1.19551 0
M  V30 552 O 52.5725 1.93702 -0.292658 0
M  V30 553 H 51.1525 0.114468 -0.738178 0
M  V30 554 H 53.8145 -0.418016 -1.90364 0
M  V30 555 H 52.9105 0.570548 -3.06841 0
M  V30 556 N 53.2116 1.57565 -0.0334293 0
M  V30 557 C 54.1586 2.10478 0.946981 0
M  V30 558 C 55.1286 1.00787 1.32027 0
M  V30 559 O 56.3136 1.28232 1.41284 0
M  V30 560 C 53.4536 2.63994 2.22263 0
M  V30 561 C 52.5666 3.87709 1.90541 0
M  V30 562 C 51.7016 4.29604 3.12433 0
M  V30 563 C 50.7406 5.46065 2.76549 0
M  V30 564 N 49.8776 5.83096 3.9108 0
M  V30 565 H 54.7176 2.93963 0.488846 0
M  V30 566 H 52.2546 1.45296 0.22969 0
M  V30 567 H 54.2126 2.93114 2.96884 0
M  V30 568 H 52.8426 1.83333 2.65685 0
M  V30 569 H 51.8946 3.65291 1.06144 0
M  V30 570 H 53.2066 4.72403 1.60116 0
M  V30 571 H 52.3606 4.60182 3.9537 0
M  V30 572 H 51.0996 3.43685 3.46023 0
M  V30 573 H 50.1046 5.15176 1.92026 0
M  V30 574 H 51.3296 6.33685 2.44171 0
M  V30 575 H 49.2756 5.00132 4.24504 0
M  V30 576 H 49.1926 6.6244 3.64293 0
M  V30 577 H 50.4606 6.18282 4.74708 0
M  V30 578 N 54.6897 -0.239769 1.55765 0
M  V30 579 C 55.5997 -1.31831 1.94056 0
M  V30 580 C 56.6157 -1.52275 0.841925 0
M  V30 581 O 57.7917 -1.65759 1.14394 0
M  V30 582 C 54.8567 -2.65156 2.23368 0
M  V30 583 C 53.9177 -2.53173 3.46701 0
M  V30 584 C 53.1507 -3.8014 3.74606 0
M  V30 585 O 53.3737 -4.82343 3.04469 0
M  V30 586 O 52.3077 -3.78344 4.68123 0
M  V30 587 H 56.1337 -1.02347 2.85935 0
M  V30 588 H 53.7187 -0.441123 1.42739 0
M  V30 589 H 55.6007 -3.43929 2.43497 0
M  V30 590 H 54.2757 -2.94358 1.34666 0
M  V30 591 H 53.1827 -1.72662 3.31871 0
M  V30 592 H 54.5157 -2.28915 4.35728 0
M  V30 593 N 56.1678 -1.49265 -0.50573 0
M  V30 594 C 57.3978 -1.61979 -1.28243 0
M  V30 595 C 57.8058 -0.288576 -1.86986 0
M  V30 596 O 57.1488 0.735408 -1.68337 0
M  V30 597 C 57.2108 -2.62632 -2.45489 0
M  V30 598 C 56.8748 -4.071 -2.07651 0
M  V30 599 C 57.8718 -4.94049 -1.61901 0
M  V30 600 C 55.5568 -4.52801 -2.17431 0
M  V30 601 C 57.5508 -6.24736 -1.26428 0
M  V30 602 C 55.2378 -5.83503 -1.8157 0
M  V30 603 C 56.2358 -6.69294 -1.36142 0
M  V30 604 O 55.9238 -7.9756 -1.00764 0
M  V30 605 H 55.6558 -0.54834 -0.395347 0
M  V30 606 H 58.2098 -1.96002 -0.614204 0
M  V30 607 H 56.4398 -2.2378 -3.15372 0
M  V30 608 H 58.1288 -2.64925 -3.07522 0
M  V30 609 H 58.8948 -4.5997 -1.53795 0
M  V30 610 H 54.7738 -3.86196 -2.51742 0
M  V30 611 H 58.3178 -6.91652 -0.908992 0
M  V30 612 H 54.2148 -6.17112 -1.89324 0
M  V30 613 H 54.9828 -8.10529 -1.13952 0
M  V30 614 N 57.6459 0.756429 -1.3826 0
M  V30 615 C 58.6089 1.85176 -1.35065 0
M  V30 616 C 59.6089 1.58818 -0.251703 0
M  V30 617 O 60.7989 1.66615 -0.508433 0
M  V30 618 C 57.9309 3.22596 -1.10201 0
M  V30 619 H 59.1239 1.89417 -2.3251 0
M  V30 620 H 56.6769 0.95783 -1.23512 0
M  V30 621 H 57.4119 3.24025 -0.133504 0
M  V30 622 H 57.1969 3.43122 -1.89762 0
M  V30 623 H 58.6869 4.02673 -1.10654 0
M  V30 624 N 59.124 1.23083 0.984299 0
M  V30 625 C 60.087 1.00979 2.05757 0
M  V30 626 C 61.087 -0.0269573 1.60777 0
M  V30 627 O 62.277 0.212403 1.729 0
M  V30 628 C 59.409 0.527072 3.36801 0
M  V30 629 H 60.602 1.9622 2.26799 0
M  V30 630 H 58.155 1.05072 1.15714 0
M  V30 631 H 58.89 -0.429294 3.21446 0
M  V30 632 H 58.675 1.27515 3.70786 0
M  V30 633 H 60.165 0.392942 4.15747 0
M  V30 634 N 60.6021 -1.18246 1.0419 0
M  V30 635 C 61.5491 -2.2192 0.634037 0
M  V30 636 C 62.5191 -1.62179 -0.358765 0
M  V30 637 O 63.7041 -1.89122 -0.252466 0
M  V30 638 C 60.8441 -3.451 0.00445535 0
M  V30 639 C 59.9571 -4.19174 1.04487 0
M  V30 640 C 59.0921 -5.29813 0.383676 0
M  V30 641 C 58.1311 -5.9566 1.4091 0
M  V30 642 N 57.2681 -6.97834 0.772784 0
M  V30 643 H 62.1081 -2.56164 1.52263 0
M  V30 644 H 59.6451 -1.25843 0.761701 0
M  V30 645 H 61.6031 -4.15485 -0.377919 0
M  V30 646 H 60.2331 -3.11472 -0.847652 0
M  V30 647 H 59.2851 -3.47604 1.54518 0
M  V30 648 H 60.5971 -4.64267 1.82368 0
M  V30 649 H 59.7511 -6.06677 -0.0528366 0
M  V30 650 H 58.4901 -4.85825 -0.427208 0
M  V30 651 H 57.4951 -5.17535 1.85574 0
M  V30 652 H 58.7201 -6.4173 2.22171 0
M  V30 653 H 56.6661 -6.55998 -0.0177708 0
M  V30 654 H 56.5831 -7.41186 1.48928 0
M  V30 655 H 57.8511 -7.78665 0.36071 0
M  V30 656 N 62.0802 -0.821533 -1.34494 0
M  V30 657 C 63.3272 -0.408946 -1.98328 0
M  V30 658 C 63.6552 1.02764 -1.65136 0
M  V30 659 O 62.9102 1.73026 -0.914349 0
M  V30 660 C 63.2092 -0.556512 -3.53041 0
M  V30 661 C 62.8752 -1.95861 -4.0614 0
M  V30 662 C 61.5372 -2.34217 -4.20352 0
M  V30 663 C 63.8892 -2.87523 -4.34718 0
M  V30 664 C 61.2172 -3.63572 -4.6047 0
M  V30 665 C 63.5692 -4.1634 -4.76281 0
M  V30 666 C 62.2332 -4.54675 -4.88699 0
M  V30 667 H 61.5032 -0.149644 -0.725732 0
M  V30 668 H 64.1502 -1.04521 -1.6046 0
M  V30 669 H 62.4552 0.163148 -3.9146 0
M  V30 670 H 64.1522 -0.217826 -4.00408 0
M  V30 671 H 60.7422 -1.65066 -3.95539 0
M  V30 672 H 64.9262 -2.59133 -4.23277 0
M  V30 673 H 60.1822 -3.93101 -4.68275 0
M  V30 674 H 64.3562 -4.87455 -4.97354 0
M  V30 675 H 61.9832 -5.54959 -5.19542 0
M  V30 676 N 63.5583 1.46682 -0.576371 0
M  V30 677 C 64.8073 2.01619 -0.0572825 0
M  V30 678 C 65.1203 1.45417 1.30818 0
M  V30 679 O 66.3263 1.92133 1.91825 0
M  V30 680 C 64.7823 3.59863 -0.0518371 0
M  V30 681 C 64.3903 4.25059 -1.41523 0
M  V30 682 C 66.1343 4.2248 0.413639 0
M  V30 683 C 64.0413 5.75364 -1.36785 0
M  V30 684 H 62.9713 0.753794 -0.0176448 0
M  V30 685 H 65.6223 1.68481 -0.727076 0
M  V30 686 H 64.0043 3.90048 0.683994 0
M  V30 687 H 65.1783 4.06491 -2.17029 0
M  V30 688 H 63.4933 3.7451 -1.8202 0
M  V30 689 H 66.0903 5.3265 0.467779 0
M  V30 690 H 66.4333 3.90976 1.42982 0
M  V30 691 H 66.9663 3.96897 -0.267929 0
M  V30 692 H 63.7053 6.11518 -2.36063 0
M  V30 693 H 63.2253 5.96214 -0.654895 0
M  V30 694 H 64.9043 6.37955 -1.07805 0
M  V30 695 N 65.0364 0.313813 1.54444 0
M  V30 696 C 65.9834 -0.55655 2.23989 0
M  V30 697 C 66.9534 -1.11943 1.22711 0
M  V30 698 O 68.1384 -1.16158 1.51367 0
M  V30 699 C 65.2784 -1.71635 2.99392 0
M  V30 700 C 64.3914 -1.18364 4.15468 0
M  V30 701 C 63.5264 -2.30834 4.78424 0
M  V30 702 C 62.5654 -1.74762 5.86622 0
M  V30 703 N 61.7024 -2.80855 6.43479 0
M  V30 704 H 66.5424 0.0430893 2.97969 0
M  V30 705 H 64.0794 0.0330359 1.47063 0
M  V30 706 H 66.0374 -2.39868 3.41349 0
M  V30 707 H 64.6674 -2.28742 2.27765 0
M  V30 708 H 63.7194 -0.393163 3.78363 0
M  V30 709 H 65.0314 -0.733262 4.93381 0
M  V30 710 H 64.1854 -3.0699 5.23299 0
M  V30 711 H 62.9244 -2.79204 3.99871 0
M  V30 712 H 61.9294 -0.970995 5.41158 0
M  V30 713 H 63.1544 -1.2728 6.67066 0
M  V30 714 H 61.1004 -3.28535 5.67804 0
M  V30 715 H 61.0174 -2.40351 7.16776 0
M  V30 716 H 62.2854 -3.5687 6.93011 0
M  V30 717 N 66.5145 -1.57545 0.0417849 0
M  V30 718 C 67.4615 -2.10977 -0.935805 0
M  V30 719 C 68.4315 -1.01486 -1.31491 0
M  V30 720 O 69.6165 -1.2898 -1.40602 0
M  V30 721 C 66.7565 -2.65169 -2.2086 0
M  V30 722 C 65.8695 -3.88714 -1.88482 0
M  V30 723 C 65.0045 -4.31254 -3.1015 0
M  V30 724 C 64.0435 -5.47524 -2.7365 0
M  V30 725 N 63.1805 -5.85162 -3.87982 0
M  V30 726 H 68.0205 -2.94218 -0.473249 0
M  V30 727 H 65.5575 -1.45415 -0.221981 0
M  V30 728 H 67.5155 -2.94685 -2.95325 0
M  V30 729 H 66.1455 -1.8474 -2.64709 0
M  V30 730 H 65.1975 -3.65849 -1.04205 0
M  V30 731 H 66.5095 -4.73245 -1.57608 0
M  V30 732 H 65.6635 -4.62273 -3.92923 0
M  V30 733 H 64.4025 -3.45516 -3.44195 0
M  V30 734 H 63.4075 -5.16187 -1.89291 0
M  V30 735 H 64.6325 -6.34971 -2.40807 0
M  V30 736 H 62.5785 -5.02377 -4.21846 0
M  V30 737 H 62.4955 -6.64362 -3.60775 0
M  V30 738 H 63.7635 -6.20791 -4.71422 0
M  V30 739 N 67.9926 0.231505 -1.5589 0
M  V30 740 C 69.4086 0.580748 -1.48659 0
M  V30 741 C 69.6086 1.87617 -0.73498 0
M  V30 742 O 68.6646 2.51046 -0.270586 0
M  V30 743 C 69.9776 0.669202 -2.93159 0
M  V30 744 C 71.5256 0.760499 -3.03621 0
M  V30 745 C 72.0006 0.880383 -4.49459 0
M  V30 746 N 73.4916 0.944861 -4.53461 0
M  V30 747 C 74.2266 1.05716 -5.63571 0
M  V30 748 N 73.7226 1.13403 -6.83456 0
M  V30 749 N 75.5156 1.09152 -5.514 0
M  V30 750 H 67.6666 -0.618695 -2.03189 0
M  V30 751 H 69.9296 -0.215728 -0.923128 0
M  V30 752 H 69.6356 -0.212904 -3.51055 0
M  V30 753 H 69.5096 1.5361 -3.44505 0
M  V30 754 H 71.8966 1.63305 -2.45796 0
M  V30 755 H 71.9776 -0.131864 -2.5546 0
M  V30 756 H 71.6216 0.0123284 -5.07899 0
M  V30 757 H 71.5516 1.78802 -4.95316 0
M  V30 758 H 74.0426 0.896176 -3.6712 0
M  V30 759 H 74.3556 1.21921 -7.63122 0
M  V30 760 H 72.7006 1.10333 -6.86186 0
M  V30 761 H 75.8916 1.02805 -4.56671 0
M  V30 762 H 76.0646 1.17558 -6.37247 0
M  V30 763 N 69.4707 1.49531 0.497807 0
M  V30 764 C 70.8867 1.36365 0.829266 0
M  V30 765 C 71.0867 0.399184 1.97506 0
M  V30 766 O 70.1427 -0.167977 2.51941 0
M  V30 767 C 71.4557 2.77153 1.16647 0
M  V30 768 C 73.0037 2.85877 1.27449 0
M  V30 769 C 73.4787 4.2744 1.64497 0
M  V30 770 N 74.9697 4.30265 1.7154 0
M  V30 771 C 75.7047 5.3677 2.01656 0
M  V30 772 N 75.2007 6.53516 2.29976 0
M  V30 773 N 76.9937 5.24189 2.02934 0
M  V30 774 H 69.1447 2.10831 -0.257703 0
M  V30 775 H 71.4077 0.946534 -0.0527091 0
M  V30 776 H 71.1137 3.49442 0.397872 0
M  V30 777 H 70.9877 3.12722 2.10915 0
M  V30 778 H 73.3747 2.13824 2.0338 0
M  V30 779 H 73.4557 2.53887 0.312244 0
M  V30 780 H 73.0997 5.00021 0.891151 0
M  V30 781 H 73.0297 4.56896 2.61827 0
M  V30 782 H 75.5207 3.4607 1.51802 0
M  V30 783 H 75.8337 7.30506 2.52153 0
M  V30 784 H 74.1787 6.56737 2.27425 0
M  V30 785 H 77.3697 4.31988 1.80289 0
M  V30 786 H 77.5427 6.07286 2.26071 0
M  V30 787 N 70.9488 -0.749086 1.3866 0
M  V30 788 C 71.8788 -1.8764 1.38973 0
M  V30 789 C 72.8598 -1.68178 0.255004 0
M  V30 790 O 74.0448 -1.88704 0.458754 0
M  V30 791 C 71.1748 -3.25222 1.21851 0
M  V30 792 C 70.1288 -3.59295 2.32575 0
M  V30 793 C 69.4548 -4.95663 2.00555 0
M  V30 794 C 70.7548 -3.63709 3.7485 0
M  V30 795 H 72.4488 -1.87635 2.3331 0
M  V30 796 H 69.9948 -0.901329 1.12303 0
M  V30 797 H 71.9478 -4.03746 1.20695 0
M  V30 798 H 70.6718 -3.25719 0.239775 0
M  V30 799 H 69.3308 -2.83093 2.32925 0
M  V30 800 H 68.9788 -4.92724 1.01154 0
M  V30 801 H 68.6788 -5.19429 2.74714 0
M  V30 802 H 70.2028 -5.7656 2.01024 0
M  V30 803 H 71.6168 -4.32338 3.76506 0
M  V30 804 H 70.0138 -3.98986 4.48252 0
M  V30 805 H 71.0838 -2.63834 4.06841 0
M  V30 806 N 72.4269 -1.23603 -0.977757 0
M  V30 807 C 73.6519 -1.09735 -1.75991 0
M  V30 808 C 74.0769 0.346858 -1.84874 0
M  V30 809 O 73.4349 1.25093 -1.3123 0
M  V30 810 C 73.4829 -1.73051 -3.16363 0
M  V30 811 O 72.5869 -0.994452 -4.0023 0
M  V30 812 H 71.9279 -0.384476 -0.541364 0
M  V30 813 H 74.4579 -1.6371 -1.2272 0
M  V30 814 H 74.4679 -1.78398 -3.66931 0
M  V30 815 H 73.1429 -2.78137 -3.09213 0
M  V30 816 H 71.7199 -1.01812 -3.58732 0
M  V30 817 N 73.905 1.17692 -1.04816 0
M  V30 818 C 75.13 1.92327 -0.776207 0
M  V30 819 C 75.555 1.76082 0.661581 0
M  V30 820 O 74.913 1.076 1.45917 0
M  V30 821 C 74.961 3.41539 -1.15687 0
M  V30 822 O 74.065 4.11402 -0.286775 0
M  V30 823 H 73.406 0.599735 -0.284981 0
M  V30 824 H 75.936 1.49201 -1.4 0
M  V30 825 H 75.946 3.92269 -1.12202 0
M  V30 826 H 74.621 3.52684 -2.20425 0
M  V30 827 H 73.198 3.70939 -0.381903 0
M  V30 828 N 75.3831 0.828654 1.34056 0
M  V30 829 C 76.6081 0.431637 2.02859 0
M  V30 830 C 77.0331 -0.956339 1.61975 0
M  V30 831 O 76.3911 -1.62338 0.807228 0
M  V30 832 C 76.4391 0.548323 3.56407 0
M  V30 833 O 75.5431 -0.429556 4.10157 0
M  V30 834 H 74.8841 0.176886 0.640006 0
M  V30 835 H 77.4141 1.12066 1.71179 0
M  V30 836 H 77.4241 0.426196 4.05768 0
M  V30 837 H 76.0991 1.5606 3.8551 0
M  V30 838 H 74.6761 -0.265836 3.71951 0
M  V30 839 N 76.8612 -1.46375 0.584142 0
M  V30 840 C 78.2772 -1.57694 0.245929 0
M  V30 841 C 78.4772 -1.57903 -1.25175 0
M  V30 842 O 77.5332 -1.49676 -2.03355 0
M  V30 843 C 78.8462 -2.87028 0.896402 0
M  V30 844 C 80.3942 -3.00662 0.870127 0
M  V30 845 C 80.8692 -4.32734 1.50017 0
M  V30 846 N 82.3602 -4.39436 1.46458 0
M  V30 847 C 83.0952 -5.40248 1.92144 0
M  V30 848 N 82.5912 -6.47726 2.4581 0
M  V30 849 N 84.3842 -5.31459 1.83052 0
M  V30 850 H 76.5352 -1.44483 1.55687 0
M  V30 851 H 78.7982 -0.689291 0.650831 0
M  V30 852 H 78.5042 -2.9269 1.95002 0
M  V30 853 H 78.3782 -3.75014 0.405486 0
M  V30 854 H 80.7652 -2.94581 -0.174871 0
M  V30 855 H 80.8462 -2.14148 1.39908 0
M  V30 856 H 80.4902 -4.39573 2.54437 0
M  V30 857 H 80.4202 -5.18025 0.946432 0
M  V30 858 H 82.9112 -3.62367 1.07231 0
M  V30 859 H 83.2242 -7.20863 2.78525 0
M  V30 860 H 81.5692 -6.48542 2.49836 0
M  V30 861 H 84.7602 -4.46396 1.40883 0
M  V30 862 H 84.9332 -6.09881 2.18973 0
M  V30 863 N 78.3393 -0.321999 -1.54275 0
M  V30 864 C 79.7553 0.0306999 -1.5957 0
M  V30 865 C 79.9553 1.50614 -1.33857 0
M  V30 866 O 79.0113 2.2619 -1.12223 0
M  V30 867 C 80.3243 -0.386122 -2.98211 0
M  V30 868 C 81.8723 -0.336647 -3.11184 0
M  V30 869 C 82.3473 -0.728607 -4.52167 0
M  V30 870 N 83.8383 -0.681952 -4.58152 0
M  V30 871 C 84.5733 -0.957449 -5.6535 0
M  V30 872 N 84.0693 -1.3 -6.80494 0
M  V30 873 N 85.8623 -0.883113 -5.55119 0
M  V30 874 H 78.0133 -1.28332 -1.69247 0
M  V30 875 H 80.2763 -0.521716 -0.791528 0
M  V30 876 H 79.9823 -1.41404 -3.22022 0
M  V30 877 H 79.8563 0.249662 -3.76373 0
M  V30 878 H 82.2433 0.682058 -2.8711 0
M  V30 879 H 82.3243 -1.00734 -2.3513 0
M  V30 880 H 81.9683 -1.74522 -4.76974 0
M  V30 881 H 81.8983 -0.0356152 -5.26588 0
M  V30 882 H 84.3893 -0.428985 -3.75457 0
M  V30 883 H 84.7023 -1.49563 -7.58189 0
M  V30 884 H 83.0473 -1.33824 -6.81994 0
M  V30 885 H 86.2383 -0.615001 -4.64042 0
M  V30 886 H 86.4113 -1.10118 -6.38575 0
M  V30 887 N 79.8174 1.5752 -0.0501392 0
M  V30 888 C 81.0654 1.9227 0.622642 0
M  V30 889 C 81.3864 0.929083 1.71444 0
M  V30 890 O 80.6564 -0.0262186 1.95882 0
M  V30 891 H 79.2364 0.709739 0.232981 0
M  V30 892 H 81.8984 1.94628 -0.102898 0
M  V30 893 H 80.9944 2.93479 1.06191 0
M  V30 894 N 81.2955 -0.223234 1.56011 0
M  V30 895 C 82.5415 -0.949279 1.79211 0
M  V30 896 C 82.8745 -1.84054 0.619494 0
M  V30 897 O 82.1495 -1.90726 -0.381317 0
M  V30 898 C 82.4325 -1.78965 3.12479 0
M  V30 899 C 82.2855 -0.924997 4.40186 0
M  V30 900 C 83.6045 -2.76774 3.42175 0
M  V30 901 H 80.7235 -0.343676 0.651963 0
M  V30 902 H 83.3655 -0.218253 1.88742 0
M  V30 903 H 81.5155 -2.41291 3.04485 0
M  V30 904 H 83.1875 -0.318615 4.60198 0
M  V30 905 H 81.4305 -0.230344 4.33188 0
M  V30 906 H 82.1015 -1.54735 5.29869 0
M  V30 907 H 84.5775 -2.24584 3.50287 0
M  V30 908 H 83.4535 -3.32678 4.36597 0
M  V30 909 H 83.7145 -3.54429 2.64258 0
M  V30 910 N 82.7736 -1.49793 -0.48987 0
M  V30 911 C 83.9986 -1.63836 -1.27172 0
M  V30 912 C 84.4236 -0.31402 -1.8546 0
M  V30 913 O 83.7816 0.719803 -1.66399 0
M  V30 914 C 83.8296 -2.71797 -2.36978 0
M  V30 915 O 82.9336 -2.31744 -3.41128 0
M  V30 916 H 82.2746 -0.547997 -0.37496 0
M  V30 917 H 84.8046 -1.96053 -0.585191 0
M  V30 918 H 84.8146 -2.94305 -2.82575 0
M  V30 919 H 83.4896 -3.67923 -1.93921 0
M  V30 920 H 82.0666 -2.1961 -3.01373 0
M  V30 921 N 84.2517 0.741722 -1.39055 0
M  V30 922 C 85.6677 1.04638 -1.20512 0
M  V30 923 C 85.8677 2.01405 -0.0620218 0
M  V30 924 O 84.9237 2.45547 0.588457 0
M  V30 925 C 86.2367 1.6151 -2.53643 0
M  V30 926 C 87.7847 1.73623 -2.6043 0
M  V30 927 C 88.2597 2.33906 -3.93767 0
M  V30 928 N 89.7507 2.41323 -3.9537 0
M  V30 929 C 90.4857 2.88888 -4.95309 0
M  V30 930 N 89.9817 3.36401 -6.05645 0
M  V30 931 N 91.7747 2.88037 -4.82692 0
M  V30 932 H 83.9257 0.0998155 -2.12165 0
M  V30 933 H 86.1887 0.106907 -0.941953 0
M  V30 934 H 85.8947 0.978739 -3.37807 0
M  V30 935 H 85.7687 2.60411 -2.72885 0
M  V30 936 H 88.1557 2.36384 -1.76655 0
M  V30 937 H 88.2367 0.733945 -2.45045 0
M  V30 938 H 87.8807 1.71776 -4.7797 0
M  V30 939 H 87.8107 3.34799 -4.06469 0
M  V30 940 H 90.3017 2.07734 -3.15682 0
M  V30 941 H 90.6147 3.71186 -6.77821 0
M  V30 942 H 88.9597 3.34427 -6.09248 0
M  V30 943 H 92.1507 2.50237 -3.95599 0
M  V30 944 H 92.3237 3.24792 -5.60726 0
M  V30 945 N 85.7298 1.2412 0.971189 0
M  V30 946 C 86.6398 1.04747 2.09917 0
M  V30 947 C 87.6558 -0.0107162 1.73997 0
M  V30 948 O 88.8318 0.186714 2.00533 0
M  V30 949 C 85.8968 0.650828 3.40537 0
M  V30 950 C 84.9578 1.7851 3.90426 0
M  V30 951 C 84.1908 1.40729 5.14812 0
M  V30 952 O 84.4138 0.29557 5.69634 0
M  V30 953 O 83.3478 2.23168 5.58999 0
M  V30 954 H 87.1738 1.99304 2.29154 0
M  V30 955 H 84.7588 1.02908 1.08307 0
M  V30 956 H 86.6408 0.440992 4.19086 0
M  V30 957 H 85.3158 -0.265649 3.22608 0
M  V30 958 H 84.2228 2.04966 3.12953 0
M  V30 959 H 85.5558 2.68023 4.12825 0
M  V30 960 N 87.2079 -1.17134 1.05439 0
M  V30 961 C 88.1179 -2.24878 0.668365 0
M  V30 962 C 89.1339 -1.71186 -0.311687 0
M  V30 963 O 90.3099 -2.00738 -0.163161 0
M  V30 964 C 87.3749 -3.46662 0.051648 0
M  V30 965 C 86.4359 -4.15429 1.08246 0
M  V30 966 C 85.6689 -5.31399 0.495082 0
M  V30 967 O 85.8919 -5.66153 -0.694743 0
M  V30 968 O 84.8259 -5.89187 1.23056 0
M  V30 969 H 88.6519 -2.60189 1.56637 0
M  V30 970 H 86.2369 -1.24482 0.826104 0
M  V30 971 H 88.1189 -4.20394 -0.290966 0
M  V30 972 H 86.7939 -3.13142 -0.819971 0
M  V30 973 H 85.7009 -3.43704 1.47711 0
M  V30 974 H 87.0339 -4.52982 1.92532 0
M  V30 975 N 88.686 -0.835752 -1.33615 0
M  V30 976 C 89.935 -0.426289 -1.97144 0
M  V30 977 C 90.248 1.01912 -1.66953 0
M  V30 978 O 91.454 1.53311 -2.24072 0
M  V30 979 C 89.91 -0.711321 -3.52801 0
M  V30 980 C 89.518 -2.1712 -3.91871 0
M  V30 981 C 91.262 -0.368654 -4.22896 0
M  V30 982 C 89.169 -2.40044 -5.40493 0
M  V30 983 H 88.099 -0.15567 -0.737755 0
M  V30 984 H 90.75 -1.0239 -1.52278 0
M  V30 985 H 89.132 -0.0433766 -3.95976 0
M  V30 986 H 90.306 -2.87936 -3.59763 0
M  V30 987 H 88.621 -2.47654 -3.34749 0
M  V30 988 H 91.218 -0.517601 -5.32189 0
M  V30 989 H 91.561 0.688078 -4.10574 0
M  V30 990 H 92.094 -0.991702 -3.8524 0
M  V30 991 H 88.833 -3.44271 -5.57815 0
M  V30 992 H 88.353 -1.73785 -5.74072 0
M  V30 993 H 90.032 -2.23042 -6.0734 0
M  V30 994 N 90.1641 1.46063 -0.591896 0
M  V30 995 C 91.0741 2.34192 0.13831 0
M  V30 996 C 92.0901 1.50305 0.876608 0
M  V30 997 O 93.2661 1.8315 0.837728 0
M  V30 998 C 90.3311 3.27656 1.13326 0
M  V30 999 C 89.3921 4.27445 0.39863 0
M  V30 1000 C 88.6251 5.16443 1.34618 0
M  V30 1001 O 88.8481 5.08553 2.58321 0
M  V30 1002 O 87.7821 5.95843 0.851768 0
M  V30 1003 H 91.6081 2.98002 -0.58552 0
M  V30 1004 H 89.1931 1.45188 -0.352239 0
M  V30 1005 H 91.0751 3.85291 1.70671 0
M  V30 1006 H 89.7501 2.6643 1.83839 0
M  V30 1007 H 88.6571 3.73471 -0.216895 0
M  V30 1008 H 89.9901 4.91482 -0.265709 0
M  V30 1009 N 91.6422 0.330177 1.54103 0
M  V30 1010 C 93.0582 -0.0222371 1.59585 0
M  V30 1011 C 93.2582 -1.49902 1.34654 0
M  V30 1012 O 92.3142 -2.25592 1.13421 0
M  V30 1013 C 93.6272 0.401932 2.98002 0
M  V30 1014 C 95.1752 0.353145 3.11001 0
M  V30 1015 C 95.6502 0.752576 4.51775 0
M  V30 1016 N 97.1412 0.706239 4.57784 0
M  V30 1017 C 97.8762 0.987417 5.64834 0
M  V30 1018 N 97.3722 1.33607 6.79795 0
M  V30 1019 N 99.1652 0.91254 5.54643 0
M  V30 1020 H 91.3162 1.29228 1.68564 0
M  V30 1021 H 93.5792 0.525906 0.78875 0
M  V30 1022 H 93.2852 1.4311 3.21267 0
M  V30 1023 H 93.1592 -0.229699 3.765 0
M  V30 1024 H 95.5462 -0.666822 2.87467 0
M  V30 1025 H 95.6272 1.0198 2.34593 0
M  V30 1026 H 95.2712 1.77049 4.76042 0
M  V30 1027 H 95.2012 0.0635409 5.26562 0
M  V30 1028 H 97.6922 0.44889 3.75224 0
M  V30 1029 H 98.0052 1.53582 7.57385 0
M  V30 1030 H 96.3502 1.37439 6.81275 0
M  V30 1031 H 99.5412 0.639601 4.6371 0
M  V30 1032 H 99.7142 1.13503 6.37982 0
M  V30 1033 N 93.1203 -1.57491 0.0584922 0
M  V30 1034 C 94.0303 -2.15448 -0.928414 0
M  V30 1035 C 95.0463 -1.11416 -1.3365 0
M  V30 1036 O 96.2223 -1.4362 -1.41193 0
M  V30 1037 C 93.2873 -2.69393 -2.18239 0
M  V30 1038 C 92.3483 -3.88249 -1.83196 0
M  V30 1039 C 91.5813 -4.39613 -3.02616 0
M  V30 1040 O 91.8043 -3.90023 -4.16219 0
M  V30 1041 O 90.7383 -5.31111 -2.83204 0
M  V30 1042 H 94.5643 -3.00112 -0.465483 0
M  V30 1043 H 92.1493 -1.48499 -0.163826 0
M  V30 1044 H 94.0313 -3.04026 -2.91798 0
M  V30 1045 H 92.7063 -1.87796 -2.63656 0
M  V30 1046 H 91.6133 -3.58492 -1.06931 0
M  V30 1047 H 92.9463 -4.71098 -1.42573 0
M  V30 1048 N 94.5984 0.214957 -1.56127 0
M  V30 1049 C 95.8444 0.939762 -1.79712 0
M  V30 1050 C 96.1774 1.83723 -0.629247 0
M  V30 1051 O 95.4524 1.90925 0.371197 0
M  V30 1052 C 95.7354 1.77306 -3.13424 0
M  V30 1053 C 95.5884 0.90164 -4.40671 0
M  V30 1054 C 96.9074 2.74956 -3.43638 0
M  V30 1055 H 94.0264 0.340214 -0.653776 0
M  V30 1056 H 96.6684 0.20824 -1.88855 0
M  V30 1057 H 94.8184 2.39673 -3.0576 0
M  V30 1058 H 96.4904 0.294206 -4.60361 0
M  V30 1059 H 94.7334 0.207368 -4.33304 0
M  V30 1060 H 95.4044 1.51923 -5.30682 0
M  V30 1061 H 97.8804 2.22724 -3.51473 0
M  V30 1062 H 96.7564 3.30358 -4.38355 0
M  V30 1063 H 97.0174 3.53023 -2.66134 0
M  V30 1064 N 96.0765 1.50051 0.48192 0
M  V30 1065 C 97.0245 1.68635 1.60203 0
M  V30 1066 C 98.0185 0.552184 1.60148 0
M  V30 1067 O 99.2245 0.732377 1.64427 0
M  V30 1068 H 95.5995 0.532081 0.531407 0
M  V30 1069 H 97.5705 2.62616 1.41688 0
M  V30 1070 C 96.3195 1.78775 2.9822 0
M  V30 1071 H 95.6425 2.6543 2.98976 0
M  V30 1072 H 97.0825 1.95806 3.7608 0
M  V30 1073 C 95.5415 0.536849 3.32595 0
M  V30 1074 O 96.0715 -0.328897 4.00351 0
M  V30 1075 N 94.2775 0.394091 2.87915 0
M  V30 1076 H 93.8245 1.09962 2.32951 0
M  V30 1077 H 93.7825 -0.441737 3.11281 0
M  V30 1078 N 97.5546 -0.734337 1.39446 0
M  V30 1079 C 98.8036 -1.48937 1.36017 0
M  V30 1080 C 99.1166 -1.95557 -0.0409005 0
M  V30 1081 O 100.323 -2.70779 -0.19778 0
M  V30 1082 C 98.7786 -2.69125 2.38955 0
M  V30 1083 C 98.3866 -2.29452 3.8478 0
M  V30 1084 C 100.131 -3.46944 2.44603 0
M  V30 1085 C 98.0376 -3.46366 4.79358 0
M  V30 1086 H 96.9676 -0.559296 0.505672 0
M  V30 1087 H 99.6186 -0.800983 1.65095 0
M  V30 1088 H 98.0006 -3.40041 2.02948 0
M  V30 1089 H 99.1746 -1.66077 4.29831 0
M  V30 1090 H 97.4896 -1.64723 3.82433 0
M  V30 1091 H 100.087 -4.33907 3.12456 0
M  V30 1092 H 100.43 -3.89454 1.47076 0
M  V30 1093 H 100.963 -2.83056 2.79507 0
M  V30 1094 H 97.7016 -3.08905 5.78151 0
M  V30 1095 H 97.2216 -4.08719 4.38986 0
M  V30 1096 H 98.9006 -4.12691 4.98292 0
M  V30 1097 N 99.0327 -1.24633 -0.964593 0
M  V30 1098 C 99.9627 -1.06611 -2.07741 0
M  V30 1099 C 100.944 0.0218666 -1.70086 0
M  V30 1100 O 102.129 -0.145793 -1.93652 0
M  V30 1101 C 99.2587 -0.673444 -3.40708 0
M  V30 1102 C 98.2127 -1.71054 -3.92332 0
M  V30 1103 C 97.5387 -1.17285 -5.21678 0
M  V30 1104 C 98.8387 -3.10718 -4.19824 0
M  V30 1105 H 100.533 -1.99693 -2.23076 0
M  V30 1106 H 98.0787 -0.96152 -1.07195 0
M  V30 1107 H 100.032 -0.534345 -4.17998 0
M  V30 1108 H 98.7557 0.293073 -3.25282 0
M  V30 1109 H 97.4147 -1.83791 -3.17201 0
M  V30 1110 H 97.0627 -0.196847 -5.02615 0
M  V30 1111 H 96.7627 -1.86592 -5.57187 0
M  V30 1112 H 98.2867 -1.04593 -6.01575 0
M  V30 1113 H 99.7007 -3.01192 -4.87808 0
M  V30 1114 H 98.0977 -3.77406 -4.66567 0
M  V30 1115 H 99.1677 -3.58524 -3.26479 0
M  V30 1116 N 100.511 1.16574 -1.06058 0
M  V30 1117 C 101.927 1.3904 -0.783585 0
M  V30 1118 C 102.127 1.91784 0.618145 0
M  V30 1119 O 101.183 2.11511 1.37911 0
M  V30 1120 C 102.496 2.37329 -1.84649 0
M  V30 1121 C 104.044 2.51018 -1.86973 0
M  V30 1122 C 104.519 3.52588 -2.92311 0
M  V30 1123 N 106.01 3.60113 -2.91329 0
M  V30 1124 C 106.745 4.38486 -3.69482 0
M  V30 1125 N 106.241 5.20302 -4.57447 0
M  V30 1126 N 108.034 4.33446 -3.57885 0
M  V30 1127 H 100.185 0.806725 -1.96483 0
M  V30 1128 H 102.448 0.417117 -0.851303 0
M  V30 1129 H 102.154 2.05663 -2.85299 0
M  V30 1130 H 102.028 3.36946 -1.6955 0
M  V30 1131 H 104.415 2.81989 -0.869827 0
M  V30 1132 H 104.496 1.51445 -2.0615 0
M  V30 1133 H 104.14 3.22354 -3.92492 0
M  V30 1134 H 104.07 4.51886 -2.70383 0
M  V30 1135 H 106.561 3.01707 -2.27555 0
M  V30 1136 H 106.874 5.77311 -5.13743 0
M  V30 1137 H 105.219 5.19653 -4.61503 0
M  V30 1138 H 108.41 3.68586 -2.88551 0
M  V30 1139 H 108.583 4.94279 -4.19037 0
M  V30 1140 N 101.989 0.842826 1.3317 0
M  V30 1141 C 102.899 0.281444 2.32906 0
M  V30 1142 C 103.915 -0.594587 1.63526 0
M  V30 1143 O 105.091 -0.49777 1.95152 0
M  V30 1144 C 102.156 -0.530929 3.42611 0
M  V30 1145 C 101.217 0.369843 4.27704 0
M  V30 1146 C 100.45 -0.403853 5.3217 0
M  V30 1147 O 100.673 -1.63513 5.46461 0
M  V30 1148 O 99.6069 0.224199 6.01482 0
M  V30 1149 H 103.433 1.10744 2.82789 0
M  V30 1150 H 101.018 0.60545 1.36582 0
M  V30 1151 H 102.9 -0.992437 4.09547 0
M  V30 1152 H 101.575 -1.33392 2.94938 0
M  V30 1153 H 100.482 0.879275 3.6362 0
M  V30 1154 H 101.815 1.13771 4.78871 0
M  V30 1155 N 103.467 -1.45747 0.599634 0
M  V30 1156 C 104.716 -2.01502 0.0893511 0
M  V30 1157 C 105.029 -1.4748 -1.28488 0
M  V30 1158 O 106.235 -1.95161 -1.88745 0
M  V30 1159 C 104.691 -3.59735 0.109082 0
M  V30 1160 C 104.299 -4.22754 1.48267 0
M  V30 1161 C 106.043 -4.23085 -0.346374 0
M  V30 1162 C 103.95 -5.73115 1.45921 0
M  V30 1163 H 102.88 -0.753417 0.0296347 0
M  V30 1164 H 105.531 -1.67303 0.753788 0
M  V30 1165 H 103.913 -3.91087 -0.621854 0
M  V30 1166 H 105.087 -4.02987 2.23468 0
M  V30 1167 H 103.402 -3.71567 1.87955 0
M  V30 1168 H 105.999 -5.33327 -0.38298 0
M  V30 1169 H 106.342 -3.93201 -1.36743 0
M  V30 1170 H 106.875 -3.9642 0.331038 0
M  V30 1171 H 103.614 -6.07685 2.45762 0
M  V30 1172 H 103.134 -5.95097 0.749665 0
M  V30 1173 H 104.813 -6.3616 1.17941 0
M  V30 1174 N 104.945 -0.338344 -1.53925 0
M  V30 1175 C 106.361 0.0137736 -1.59594 0
M  V30 1176 C 106.561 1.49186 -1.35447 0
M  V30 1177 O 105.617 2.24987 -1.14616 0
M  V30 1178 C 106.93 -0.41773 -2.97784 0
M  V30 1179 C 108.478 -0.369633 -3.1081 0
M  V30 1180 C 108.953 -0.776524 -4.51369 0
M  V30 1181 N 110.444 -0.730506 -4.57403 0
M  V30 1182 C 111.179 -1.01736 -5.64303 0
M  V30 1183 N 110.675 -1.3721 -6.79077 0
M  V30 1184 N 112.468 -0.941942 -5.54151 0
M  V30 1185 H 104.619 -1.3012 -1.67876 0
M  V30 1186 H 106.882 -0.530082 -0.78595 0
M  V30 1187 H 106.588 -1.44811 -3.20504 0
M  V30 1188 H 106.462 0.209729 -3.76616 0
M  V30 1189 H 108.849 0.651568 -2.87817 0
M  V30 1190 H 108.93 -1.03223 -2.34049 0
M  V30 1191 H 108.574 -1.79571 -4.75096 0
M  V30 1192 H 108.504 -0.0914649 -5.26521 0
M  V30 1193 H 110.995 -0.468783 -3.74981 0
M  V30 1194 H 111.308 -1.57597 -7.5656 0
M  V30 1195 H 109.653 -1.4105 -6.80536 0
M  V30 1196 H 112.844 -0.664184 -4.63364 0
M  V30 1197 H 113.017 -1.16884 -6.37371 0
M  V30 1198 N 106.423 1.57458 -0.0668435 0
M  V30 1199 C 107.373 2.0896 0.912119 0
M  V30 1200 C 108.357 0.998186 1.26195 0
M  V30 1201 O 109.549 1.26133 1.24175 0
M  V30 1202 C 106.678 2.6508 2.18145 0
M  V30 1203 C 105.764 3.81218 1.85832 0
M  V30 1204 N 106.155 4.90378 1.23948 0
M  V30 1205 C 104.453 3.9042 2.15612 0
M  V30 1206 C 105.154 5.71279 1.09616 0
M  V30 1207 N 104.13 5.19389 1.60423 0
M  V30 1208 H 107.932 2.90749 0.42924 0
M  V30 1209 H 105.446 1.6182 0.137184 0
M  V30 1210 H 107.443 3.0029 2.89192 0
M  V30 1211 H 106.103 1.84736 2.67025 0
M  V30 1212 H 107.114 5.09847 0.909731 0
M  V30 1213 H 103.791 3.21043 2.66903 0
M  V30 1214 H 105.181 6.69085 0.614425 0
M  V30 1215 N 107.901 -0.206675 1.56239 0
M  V30 1216 C 109.312 -0.772383 1.69974 0
M  V30 1217 C 109.663 -1.84353 0.671436 0
M  V30 1218 O 108.788 -2.15695 -0.174491 0
M  V30 1219 C 109.383 -1.40779 3.08167 0
M  V30 1220 C 107.942 -1.92072 3.23706 0
M  V30 1221 C 107.089 -0.786347 2.65917 0
M  V30 1222 H 110.04 0.0182223 1.5869 0
M  V30 1223 H 110.061 -2.27696 3.04852 0
M  V30 1224 H 109.573 -0.627958 3.82986 0
M  V30 1225 H 107.674 -2.7281 2.53782 0
M  V30 1226 H 107.787 -2.09046 4.31087 0
M  V30 1227 H 106.151 -1.1976 2.24788 0
M  V30 1228 H 106.934 -0.0189416 3.43295 0
M  V30 1229 N 109.379 -1.50304 -0.473955 0
M  V30 1230 C 110.327 -1.69482 -1.59307 0
M  V30 1231 C 111.321 -0.560669 -1.59853 0
M  V30 1232 O 112.527 -0.741087 -1.64036 0
M  V30 1233 H 108.902 -0.534892 -0.528578 0
M  V30 1234 H 110.873 -2.63364 -1.40293 0
M  V30 1235 C 109.622 -1.80354 -2.97267 0
M  V30 1236 H 108.945 -2.67012 -2.97564 0
M  V30 1237 H 110.385 -1.97798 -3.75036 0
M  V30 1238 C 108.844 -0.55448 -3.32306 0
M  V30 1239 O 109.374 0.307661 -4.0052 0
M  V30 1240 N 107.58 -0.409354 -2.87702 0
M  V30 1241 H 107.127 -1.11196 -2.32364 0
M  V30 1242 H 107.085 0.425223 -3.11511 0
M  V30 1243 N 110.857 0.726932 -1.39834 0
M  V30 1244 C 112.106 1.48214 -1.36805 0
M  V30 1245 C 112.419 1.95576 0.0305291 0
M  V30 1246 O 113.625 2.7088 0.183417 0
M  V30 1247 C 112.081 2.67854 -2.40379 0
M  V30 1248 C 111.689 2.27408 -3.85992 0
M  V30 1249 C 113.433 3.45641 -2.46439 0
M  V30 1250 C 111.34 3.43819 -4.81189 0
M  V30 1251 H 110.27 0.556606 -0.508631 0
M  V30 1252 H 112.921 0.792216 -1.65518 0
M  V30 1253 H 111.303 3.3896 -2.04749 0
M  V30 1254 H 112.477 1.63795 -4.30706 0
M  V30 1255 H 110.792 1.62692 -3.83302 0
M  V30 1256 H 113.389 4.32244 -3.14753 0
M  V30 1257 H 113.732 3.88669 -1.49139 0
M  V30 1258 H 114.265 2.8157 -2.81004 0
M  V30 1259 H 111.004 3.05834 -5.79781 0
M  V30 1260 H 110.524 4.06385 -4.41148 0
M  V30 1261 H 112.203 4.10043 -5.00474 0
M  V30 1262 N 112.336 1.25143 0.95797 0
M  V30 1263 C 113.585 1.0909 1.69654 0
M  V30 1264 C 113.898 -0.368548 1.92097 0
M  V30 1265 O 115.104 -0.649455 2.63618 0
M  V30 1266 C 113.56 1.90395 3.05414 0
M  V30 1267 C 113.168 3.4081 2.90779 0
M  V30 1268 C 114.912 1.82901 3.83076 0
M  V30 1269 C 112.819 4.14423 4.21909 0
M  V30 1270 H 111.749 0.404625 0.636235 0
M  V30 1271 H 114.4 1.4931 1.06672 0
M  V30 1272 H 112.782 1.42996 3.69281 0
M  V30 1273 H 113.956 3.95859 2.35865 0
M  V30 1274 H 112.271 3.49361 2.26575 0
M  V30 1275 H 114.868 2.35196 4.80195 0
M  V30 1276 H 115.211 0.796224 4.08615 0
M  V30 1277 H 115.744 2.28033 3.25954 0
M  V30 1278 H 112.483 5.18102 4.01561 0
M  V30 1279 H 112.003 3.64159 4.76601 0
M  V30 1280 H 113.682 4.21956 4.90471 0
M  V30 1281 N 113.814 -1.1601 1.06675 0
M  V30 1282 C 115.042 -1.90527 0.806667 0
M  V30 1283 C 115.457 -1.77643 -0.639396 0
M  V30 1284 O 114.814 -1.12369 -1.43803 0
M  V30 1285 C 114.865 -3.41106 1.19705 0
M  V30 1286 O 114.586 -3.53608 2.58636 0
M  V30 1287 C 116.087 -4.32663 0.965266 0
M  V30 1288 H 113.307 -0.604053 0.292166 0
M  V30 1289 H 115.851 -1.47026 1.4214 0
M  V30 1290 H 114.006 -3.82296 0.626774 0
M  V30 1291 H 114.42 -4.47011 2.74375 0
M  V30 1292 H 115.894 -5.36763 1.288 0
M  V30 1293 H 116.371 -4.39089 -0.0987936 0
M  V30 1294 H 116.977 -3.97206 1.52011 0
M  V30 1295 N 115.292 -0.849877 -1.32721 0
M  V30 1296 C 116.222 -0.306308 -2.31482 0
M  V30 1297 C 117.203 0.591952 -1.59468 0
M  V30 1298 O 118.388 0.513199 -1.87296 0
M  V30 1299 C 115.518 0.510204 -3.43532 0
M  V30 1300 C 114.472 -0.293209 -4.26994 0
M  V30 1301 C 113.798 0.647743 -5.30762 0
M  V30 1302 C 115.098 -1.51634 -4.99804 0
M  V30 1303 H 116.792 -1.13153 -2.77195 0
M  V30 1304 H 114.338 -0.545553 -1.33266 0
M  V30 1305 H 116.291 0.900856 -4.11658 0
M  V30 1306 H 115.015 1.36874 -2.96535 0
M  V30 1307 H 113.674 -0.665555 -3.60508 0
M  V30 1308 H 113.322 1.50299 -4.8002 0
M  V30 1309 H 113.022 0.11422 -5.87489 0
M  V30 1310 H 114.546 1.03567 -6.01753 0
M  V30 1311 H 115.96 -1.19824 -5.60638 0
M  V30 1312 H 114.357 -1.98745 -5.66234 0
M  V30 1313 H 115.427 -2.28018 -4.27943 0
M  V30 1314 N 116.77 1.45427 -0.607355 0
M  V30 1315 C 117.72 2.27612 0.133038 0
M  V30 1316 C 118.704 1.37307 0.838785 0
M  V30 1317 O 119.896 1.61299 0.728813 0
M  V30 1318 C 117.025 3.24173 1.12991 0
M  V30 1319 C 116.111 4.21965 0.425011 0
M  V30 1320 N 116.502 5.02982 -0.533217 0
M  V30 1321 C 114.8 4.40899 0.672593 0
M  V30 1322 C 115.501 5.73931 -0.947518 0
M  V30 1323 N 114.477 5.42819 -0.291321 0
M  V30 1324 H 118.279 2.87649 -0.602935 0
M  V30 1325 H 115.793 1.56576 -0.431006 0
M  V30 1326 H 117.79 3.81783 1.67473 0
M  V30 1327 H 116.45 2.65696 1.86644 0
M  V30 1328 H 117.461 5.09843 -0.90995 0
M  V30 1329 H 114.138 3.93547 1.39382 0
M  V30 1330 H 115.528 6.49037 -1.73782 0
M  V30 1331 N 118.248 0.346503 1.53744 0
M  V30 1332 C 119.525 -0.304532 1.93215 0
M  V30 1333 C 119.905 -1.67993 1.27834 0
M  V30 1334 O 119.253 -2.24411 0.430352 0
M  V30 1335 C 119.463 -0.373852 3.46992 0
M  V30 1336 C 120.811 -0.62329 4.2 0
M  V30 1337 O 121.835 -0.455847 3.53271 0
M  V30 1338 O 120.694 -0.947879 5.38217 0
M  V30 1339 H 117.788 -0.178318 0.807547 0
M  V30 1340 H 120.334 0.397895 1.64969 0
M  V30 1341 H 119.106 0.591224 3.86808 0
M  V30 1342 H 118.729 -1.12294 3.81413 0
M  V30 1343 N 119.726 -1.57421 0.075193 0
M  V30 1344 C 120.975 -1.92794 -0.592731 0
M  V30 1345 C 121.288 -0.957478 -1.70563 0
M  V30 1346 O 122.494 -1.20417 -2.43335 0
M  V30 1347 C 120.95 -3.42495 -1.10569 0
M  V30 1348 C 120.558 -4.47994 -0.0236121 0
M  V30 1349 C 122.302 -3.86864 -1.74748 0
M  V30 1350 C 120.209 -5.88829 -0.550803 0
M  V30 1351 H 119.139 -0.719591 -0.225177 0
M  V30 1352 H 121.79 -1.82902 0.147978 0
M  V30 1353 H 120.172 -3.47471 -1.89947 0
M  V30 1354 H 121.346 -4.54637 0.751099 0
M  V30 1355 H 119.661 -4.13113 0.522159 0
M  V30 1356 H 122.258 -4.8947 -2.15229 0
M  V30 1357 H 122.601 -3.24417 -2.60882 0
M  V30 1358 H 123.134 -3.84504 -1.01986 0
M  V30 1359 H 119.873 -6.54929 0.273457 0
M  V30 1360 H 119.393 -5.85698 -1.29296 0
M  V30 1361 H 121.072 -6.38811 -1.02613 0
M  V30 1362 N 121.204 0.198386 -1.56346 0
M  V30 1363 C 122.451 0.919286 -1.80431 0
M  V30 1364 C 122.779 1.83393 -0.647866 0
M  V30 1365 O 122.034 1.92236 0.366556 0
M  V30 1366 C 122.333 1.77031 -3.10475 0
M  V30 1367 C 121.999 1.00693 -4.39513 0
M  V30 1368 C 120.661 0.796145 -4.74568 0
M  V30 1369 C 123.013 0.469559 -5.19081 0
M  V30 1370 C 120.341 0.0364588 -5.86689 0
M  V30 1371 C 122.693 -0.2769 -6.31994 0
M  V30 1372 C 121.357 -0.49873 -6.65634 0
M  V30 1373 H 120.627 0.336391 -0.660244 0
M  V30 1374 H 123.274 0.185872 -1.90596 0
M  V30 1375 H 121.579 2.5723 -2.95533 0
M  V30 1376 H 123.276 2.33065 -3.26315 0
M  V30 1377 H 119.866 1.18122 -4.12001 0
M  V30 1378 H 124.05 0.619816 -4.92414 0
M  V30 1379 H 119.306 -0.145412 -6.11227 0
M  V30 1380 H 123.48 -0.700684 -6.92866 0
M  V30 1381 H 121.107 -1.0893 -7.52355 0
M  V30 1382 N 122.682 1.50554 0.465978 0
M  V30 1383 C 123.592 1.72585 1.58907 0
M  V30 1384 C 124.608 0.60911 1.6299 0
M  V30 1385 O 125.784 0.88804 1.80765 0
M  V30 1386 C 122.849 1.81995 2.95091 0
M  V30 1387 C 121.91 3.05751 3.01355 0
M  V30 1388 C 121.143 3.14702 4.31043 0
M  V30 1389 O 121.366 2.30313 5.21835 0
M  V30 1390 O 120.3 4.07468 4.43005 0
M  V30 1391 H 124.126 2.67799 1.43239 0
M  V30 1392 H 121.711 1.34711 0.646013 0
M  V30 1393 H 123.593 1.90335 3.75966 0
M  V30 1394 H 122.268 0.899659 3.10947 0
M  V30 1395 H 121.175 3.02908 2.19539 0
M  V30 1396 H 122.508 3.97375 2.90437 0
M  V30 1397 N 124.16 -0.719506 1.40217 0
M  V30 1398 C 125.108 -1.85493 1.40339 0
M  V30 1399 C 126.102 -1.66995 0.284415 0
M  V30 1400 O 127.308 -1.74148 0.455252 0
M  V30 1401 H 123.683 -0.610857 0.438586 0
M  V30 1402 H 125.654 -1.82506 2.36081 0
M  V30 1403 C 124.403 -3.23321 1.27901 0
M  V30 1404 H 123.726 -3.38159 2.1328 0
M  V30 1405 H 125.166 -4.02914 1.32045 0
M  V30 1406 C 123.625 -3.36898 -0.0111355 0
M  V30 1407 O 124.155 -3.89674 -0.975538 0
M  V30 1408 N 122.361 -2.90492 -0.0793393 0
M  V30 1409 H 121.908 -2.47731 0.706183 0
M  V30 1410 H 121.866 -2.99955 -0.942038 0
M  V30 1411 N 125.638 -1.25649 -0.95132 0
M  V30 1412 C 126.585 -1.06323 -2.04851 0
M  V30 1413 C 127.555 0.0286491 -1.66075 0
M  V30 1414 O 128.74 -0.12917 -1.90362 0
M  V30 1415 C 125.88 -0.691529 -3.381 0
M  V30 1416 C 124.993 -1.85861 -3.89974 0
M  V30 1417 C 124.128 -1.43096 -5.11563 0
M  V30 1418 C 123.167 -2.56696 -5.55674 0
M  V30 1419 N 122.304 -2.14684 -6.68472 0
M  V30 1420 H 127.144 -2.00222 -2.20715 0
M  V30 1421 H 124.681 -0.997027 -1.08156 0
M  V30 1422 H 126.639 -0.456963 -4.1469 0
M  V30 1423 H 125.269 0.210474 -3.22113 0
M  V30 1424 H 124.321 -2.20639 -3.09875 0
M  V30 1425 H 125.633 -2.71161 -4.18657 0
M  V30 1426 H 124.787 -1.15624 -5.9558 0
M  V30 1427 H 123.526 -0.548722 -4.84603 0
M  V30 1428 H 122.531 -2.84909 -4.7022 0
M  V30 1429 H 123.756 -3.45503 -5.8464 0
M  V30 1430 H 121.702 -1.28881 -6.43215 0
M  V30 1431 H 121.619 -2.9353 -6.96689 0
M  V30 1432 H 122.887 -1.90397 -7.5589 0
M  V30 1433 N 127.117 1.15442 -1.07289 0
M  V30 1434 C 128.345 1.90096 -0.81676 0
M  V30 1435 C 128.76 1.7798 0.629966 0
M  V30 1436 O 128.117 1.1313 1.43206 0
M  V30 1437 C 128.168 3.40466 -1.21512 0
M  V30 1438 O 127.889 3.52232 -2.60508 0
M  V30 1439 C 129.39 4.32145 -0.988198 0
M  V30 1440 H 126.61 0.602495 -0.295366 0
M  V30 1441 H 129.154 1.4627 -1.42918 0
M  V30 1442 H 127.309 3.81958 -0.647039 0
M  V30 1443 H 127.723 4.45549 -2.76742 0
M  V30 1444 H 129.197 5.36072 -1.31645 0
M  V30 1445 H 129.674 4.39135 0.0755063 0
M  V30 1446 H 130.28 3.96395 -1.54115 0
M  V30 1447 N 128.595 0.856903 1.32268 0
M  V30 1448 C 129.872 0.382583 1.91822 0
M  V30 1449 C 130.252 -1.13407 1.78051 0
M  V30 1450 O 129.6 -1.95673 1.18001 0
M  V30 1451 C 129.81 0.849446 3.38505 0
M  V30 1452 C 131.158 0.867936 4.15634 0
M  V30 1453 O 132.182 0.794232 3.47232 0
M  V30 1454 O 131.041 0.972286 5.37781 0
M  V30 1455 H 128.135 0.112014 0.819379 0
M  V30 1456 H 130.681 0.943952 1.41024 0
M  V30 1457 H 129.453 1.89267 3.42482 0
M  V30 1458 H 129.076 0.265652 3.96712 0
M  V30 1459 N 130.073 -1.45103 0.615059 0
M  V30 1460 C 131.319 -2.02483 0.113347 0
M  V30 1461 C 131.652 -1.48146 -1.25564 0
M  V30 1462 O 130.927 -0.659104 -1.82992 0
M  V30 1463 C 131.21 -3.60005 0.0825278 0
M  V30 1464 C 131.063 -4.2466 1.48271 0
M  V30 1465 C 132.382 -4.35972 -0.601401 0
M  V30 1466 H 129.501 -0.735764 0.0426632 0
M  V30 1467 H 132.143 -1.72868 0.788461 0
M  V30 1468 H 130.293 -3.85367 -0.492378 0
M  V30 1469 H 131.965 -4.10458 2.10527 0
M  V30 1470 H 130.208 -3.82772 2.04127 0
M  V30 1471 H 130.879 -5.336 1.41332 0
M  V30 1472 H 133.355 -4.15947 -0.112666 0
M  V30 1473 H 132.231 -5.45697 -0.592097 0
M  V30 1474 H 132.492 -4.09391 -1.66887 0
M  V30 1475 N 131.551 -0.354651 -1.53558 0
M  V30 1476 C 132.797 0.238797 -2.01389 0
M  V30 1477 C 133.13 1.49309 -1.2418 0
M  V30 1478 O 132.405 1.91638 -0.332457 0
M  V30 1479 C 132.688 0.541771 -3.56001 0
M  V30 1480 C 132.541 -0.725388 -4.43912 0
M  V30 1481 C 133.86 1.34685 -4.18984 0
M  V30 1482 H 130.979 0.0853177 -0.732045 0
M  V30 1483 H 133.621 -0.477384 -1.83905 0
M  V30 1484 H 131.771 1.15189 -3.71031 0
M  V30 1485 H 133.443 -1.36313 -4.407 0
M  V30 1486 H 131.686 -1.34801 -4.12324 0
M  V30 1487 H 132.357 -0.468505 -5.50008 0
M  V30 1488 H 134.833 0.830837 -4.07721 0
M  V30 1489 H 133.709 1.52759 -5.27215 0
M  V30 1490 H 133.97 2.35221 -3.74331 0
M  V30 1491 N 133.029 1.57378 -0.0835403 0
M  V30 1492 C 133.959 2.1641 0.87686 0
M  V30 1493 C 134.94 1.09429 1.30228 0
M  V30 1494 O 136.125 1.37516 1.37124 0
M  V30 1495 C 133.255 2.73517 2.14022 0
M  V30 1496 C 132.209 3.85769 1.85381 0
M  V30 1497 C 131.535 4.29529 3.18448 0
M  V30 1498 C 132.835 5.09486 1.14984 0
M  V30 1499 H 134.529 2.96914 0.385059 0
M  V30 1500 H 132.075 1.42823 0.18377 0
M  V30 1501 H 134.028 3.13463 2.81636 0
M  V30 1502 H 132.752 1.90252 2.65465 0
M  V30 1503 H 131.411 3.46345 1.20169 0
M  V30 1504 H 131.059 3.43169 3.67755 0
M  V30 1505 H 130.759 5.05204 3.00071 0
M  V30 1506 H 132.283 4.72099 3.8724 0
M  V30 1507 H 133.697 5.46674 1.72687 0
M  V30 1508 H 132.094 5.90515 1.06826 0
M  V30 1509 H 133.164 4.84724 0.130749 0
M  V30 1510 N 134.507 -0.190092 1.56449 0
M  V30 1511 C 135.756 -0.907912 1.80111 0
M  V30 1512 C 136.069 -1.84214 0.657619 0
M  V30 1513 O 137.275 -2.60094 0.778663 0
M  V30 1514 C 135.731 -1.66485 3.19078 0
M  V30 1515 C 135.339 -0.7752 4.41242 0
M  V30 1516 C 137.083 -2.37201 3.52045 0
M  V30 1517 C 134.99 -1.53129 5.71231 0
M  V30 1518 H 133.92 -0.34276 0.671589 0
M  V30 1519 H 136.571 -0.161109 1.82791 0
M  V30 1520 H 134.953 -2.45572 3.10661 0
M  V30 1521 H 136.127 -0.0226298 4.60794 0
M  V30 1522 H 134.442 -0.178627 4.16017 0
M  V30 1523 H 137.039 -2.94329 4.46402 0
M  V30 1524 H 137.382 -3.11632 2.76028 0
M  V30 1525 H 137.915 -1.65075 3.61932 0
M  V30 1526 H 134.654 -0.82967 6.50228 0
M  V30 1527 H 134.174 -2.25767 5.55688 0
M  V30 1528 H 135.853 -2.08377 6.12526 0
M  V30 1529 N 135.985 -1.50799 -0.457987 0
M  V30 1530 C 136.915 -1.73553 -1.5621 0
M  V30 1531 C 137.896 -0.584774 -1.59732 0
M  V30 1532 O 139.081 -0.825314 -1.7579 0
M  V30 1533 C 136.211 -1.84169 -2.94447 0
M  V30 1534 C 135.165 -2.99461 -3.0579 0
M  V30 1535 C 134.491 -2.95235 -4.45803 0
M  V30 1536 C 135.791 -4.39766 -2.81786 0
M  V30 1537 H 137.485 -2.66 -1.37421 0
M  V30 1538 H 135.031 -1.28002 -0.659662 0
M  V30 1539 H 136.984 -1.98672 -3.71628 0
M  V30 1540 H 135.708 -0.883545 -3.14422 0
M  V30 1541 H 134.367 -2.8463 -2.31044 0
M  V30 1542 H 134.015 -1.97239 -4.62715 0
M  V30 1543 H 133.715 -3.72642 -4.54326 0
M  V30 1544 H 135.239 -3.11803 -5.24987 0
M  V30 1545 H 136.653 -4.55054 -3.4871 0
M  V30 1546 H 135.05 -5.18722 -3.0174 0
M  V30 1547 H 136.12 -4.51229 -1.7754 0
M  V30 1548 N 137.463 0.71206 -1.40597 0
M  V30 1549 C 138.373 1.8562 -1.43466 0
M  V30 1550 C 139.389 1.70902 -0.326902 0
M  V30 1551 O 140.565 1.93105 -0.572043 0
M  V30 1552 C 137.63 3.21451 -1.29884 0
M  V30 1553 C 136.691 3.48398 -2.50833 0
M  V30 1554 C 135.924 4.77749 -2.3789 0
M  V30 1555 O 136.147 5.53089 -1.39459 0
M  V30 1556 O 135.081 5.05111 -3.27333 0
M  V30 1557 H 138.907 1.86155 -2.39958 0
M  V30 1558 H 136.492 0.86295 -1.21957 0
M  V30 1559 H 138.374 4.02579 -1.24531 0
M  V30 1560 H 137.049 3.21636 -0.364997 0
M  V30 1561 H 135.956 2.67265 -2.61763 0
M  V30 1562 H 137.289 3.53014 -3.4299 0
M  V30 1563 N 138.941 1.26152 0.944643 0
M  V30 1564 C 139.871 1.09902 2.06019 0
M  V30 1565 C 140.852 0.00519538 1.70099 0
M  V30 1566 O 142.037 0.176583 1.93396 0
M  V30 1567 C 139.167 0.727562 3.39594 0
M  V30 1568 C 138.121 1.77274 3.89561 0
M  V30 1569 C 137.447 1.25569 5.19747 0
M  V30 1570 C 138.747 3.17357 4.14827 0
M  V30 1571 H 140.441 2.03217 2.19871 0
M  V30 1572 H 137.987 0.978452 1.05652 0
M  V30 1573 H 139.94 0.600777 4.17095 0
M  V30 1574 H 138.664 -0.241287 3.25707 0
M  V30 1575 H 137.323 1.88814 3.14237 0
M  V30 1576 H 136.971 0.276783 5.02238 0
M  V30 1577 H 136.671 1.95433 5.54148 0
M  V30 1578 H 138.195 1.1415 5.99835 0
M  V30 1579 H 139.609 3.08914 4.82954 0
M  V30 1580 H 138.006 3.84781 4.60504 0
M  V30 1581 H 139.076 3.63673 3.20734 0
M  V30 1582 N 140.419 -1.14872 1.07899 0
M  V30 1583 C 141.665 -1.86064 0.806725 0
M  V30 1584 C 141.998 -1.82434 -0.665706 0
M  V30 1585 O 141.273 -1.25138 -1.48899 0
M  V30 1586 C 141.556 -3.34929 1.32267 0
M  V30 1587 C 141.409 -3.47161 2.86006 0
M  V30 1588 C 142.728 -4.29863 0.943717 0
M  V30 1589 H 139.847 -0.675591 0.294526 0
M  V30 1590 H 142.489 -1.34925 1.33773 0
M  V30 1591 H 140.639 -3.78611 0.870974 0
M  V30 1592 H 142.311 -3.12302 3.39507 0
M  V30 1593 H 140.554 -2.88539 3.23925 0
M  V30 1594 H 141.225 -4.51777 3.17177 0
M  V30 1595 H 143.701 -3.9417 1.33302 0
M  V30 1596 H 142.577 -5.32494 1.33198 0
M  V30 1597 H 142.838 -4.41846 -0.149796 0
M  V30 1598 N 141.898 -0.863906 -1.31812 0
M  V30 1599 C 143.123 -0.48527 -2.01643 0
M  V30 1600 C 143.548 0.913058 -1.64453 0
M  V30 1601 O 142.906 1.6014 -0.849985 0
M  V30 1602 C 142.954 -0.642625 -3.54828 0
M  V30 1603 O 142.058 0.320659 -4.11151 0
M  V30 1604 H 141.399 -0.193793 -0.635091 0
M  V30 1605 H 143.929 -1.16565 -1.68148 0
M  V30 1606 H 143.939 -0.533628 -4.04495 0
M  V30 1607 H 142.614 -1.66227 -3.81237 0
M  V30 1608 H 141.191 0.167126 -3.72525 0
M  V30 1609 N 143.376 1.44774 -0.622745 0
M  V30 1610 C 144.624 2.01721 -0.123655 0
M  V30 1611 C 144.945 1.49172 1.25589 0
M  V30 1612 O 144.215 0.691974 1.83272 0
M  V30 1613 H 142.795 0.745777 -0.0427225 0
M  V30 1614 H 145.457 1.77382 -0.807559 0
M  V30 1615 H 144.553 3.11984 -0.0849534 0
M  V30 1616 N 144.854 0.36279 1.53368 0
M  V30 1617 C 146.102 -0.227326 2.00817 0
M  V30 1618 C 146.423 -1.49511 1.25186 0
M  V30 1619 O 145.693 -1.92482 0.364348 0
M  V30 1620 H 144.273 -0.0869923 0.741917 0
M  V30 1621 H 146.935 0.488381 1.88682 0
M  V30 1622 H 146.031 -0.456273 3.08747 0
M  V30 1623 N 146.332 -1.57332 0.0918853 0
M  V30 1624 C 147.242 -2.17368 -0.882505 0
M  V30 1625 C 148.258 -1.14226 -1.31257 0
M  V30 1626 O 149.434 -1.46582 -1.38115 0
M  V30 1627 C 146.499 -2.73962 -2.12476 0
M  V30 1628 C 145.56 -3.92048 -1.7492 0
M  V30 1629 C 144.793 -4.45933 -2.93223 0
M  V30 1630 O 145.016 -3.98764 -4.07852 0
M  V30 1631 O 143.95 -5.36999 -2.71875 0
M  V30 1632 H 147.776 -3.01031 -0.40172 0
M  V30 1633 H 145.361 -1.48813 -0.132291 0
M  V30 1634 H 147.243 -3.10147 -2.85283 0
M  V30 1635 H 145.918 -1.93347 -2.59613 0
M  V30 1636 H 144.825 -3.6068 -0.993025 0
M  V30 1637 H 146.158 -4.74017 -1.32548 0
M  V30 1638 N 147.81 0.181792 -1.56548 0
M  V30 1639 C 148.74 1.22765 -1.98623 0
M  V30 1640 C 149.721 1.46747 -0.860189 0
M  V30 1641 O 150.906 1.58259 -1.12551 0
M  V30 1642 C 148.036 2.56894 -2.33715 0
M  V30 1643 C 146.99 2.475 -3.49182 0
M  V30 1644 C 146.316 3.86023 -3.69986 0
M  V30 1645 C 147.616 1.98866 -4.82959 0
M  V30 1646 H 149.31 0.877942 -2.86239 0
M  V30 1647 H 146.856 0.42088 -1.37712 0
M  V30 1648 H 148.809 3.30253 -2.61746 0
M  V30 1649 H 147.533 2.93632 -1.42997 0
M  V30 1650 H 146.192 1.76596 -3.21262 0
M  V30 1651 H 145.84 4.20136 -2.76576 0
M  V30 1652 H 145.54 3.80609 -4.47672 0
M  V30 1653 H 147.064 4.60984 -4.00407 0
M  V30 1654 H 148.478 2.61992 -5.09934 0
M  V30 1655 H 146.875 2.04424 -5.64208 0
M  V30 1656 H 147.945 0.942465 -4.75653 0
M  V30 1657 N 149.288 1.51039 0.449983 0
M  V30 1658 C 150.535 1.63081 1.20045 0
M  V30 1659 C 150.863 0.341024 1.91487 0
M  V30 1660 O 150.118 -0.674276 1.83717 0
M  V30 1661 C 150.417 2.77556 2.25161 0
M  V30 1662 C 150.083 4.17289 1.70823 0
M  V30 1663 C 148.745 4.55305 1.55725 0
M  V30 1664 C 151.097 5.04536 1.3074 0
M  V30 1665 C 148.425 5.78287 0.989999 0
M  V30 1666 C 150.777 6.28085 0.754482 0
M  V30 1667 C 149.441 6.64885 0.590308 0
M  V30 1668 H 148.711 0.596755 0.439277 0
M  V30 1669 H 151.358 1.85037 0.49333 0
M  V30 1670 H 149.663 2.49771 3.01863 0
M  V30 1671 H 151.36 2.84073 2.83026 0
M  V30 1672 H 147.95 3.8731 1.83546 0
M  V30 1673 H 152.134 4.75782 1.41229 0
M  V30 1674 H 147.39 6.05456 0.850451 0
M  V30 1675 H 151.564 6.95038 0.435324 0
M  V30 1676 H 149.191 7.60055 0.14862 0
M  V30 1677 N 150.766 -0.704594 1.40972 0
M  V30 1678 C 152.043 -1.45847 1.30338 0
M  V30 1679 C 152.423 -2.10973 -0.0732344 0
M  V30 1680 O 151.771 -2.00997 -1.08685 0
M  V30 1681 C 151.981 -2.48525 2.45023 0
M  V30 1682 C 153.329 -3.1404 2.8577 0
M  V30 1683 O 154.353 -2.58848 2.44696 0
M  V30 1684 O 153.212 -4.13981 3.56766 0
M  V30 1685 H 150.306 -0.649092 0.512454 0
M  V30 1686 H 152.852 -0.735836 1.52917 0
M  V30 1687 H 151.624 -1.98994 3.36923 0
M  V30 1688 H 151.247 -3.2831 2.24272 0
M  V30 1689 N 152.244 -1.26651 -0.937939 0
M  V30 1690 C 153.491 -1.12387 -1.6845 0
M  V30 1691 C 153.819 0.332208 -1.91642 0
M  V30 1692 O 153.074 1.2602 -1.49725 0
M  V30 1693 C 153.373 -1.84168 -3.06295 0
M  V30 1694 C 153.039 -3.34056 -3.02849 0
M  V30 1695 C 151.701 -3.74942 -3.01616 0
M  V30 1696 C 154.053 -4.29741 -2.9491 0
M  V30 1697 C 151.381 -5.09894 -2.90215 0
M  V30 1698 C 153.733 -5.64738 -2.8505 0
M  V30 1699 C 152.397 -6.0493 -2.82162 0
M  V30 1700 H 151.667 -0.411252 -0.616403 0
M  V30 1701 H 154.314 -1.57134 -1.09459 0
M  V30 1702 H 152.619 -1.319 -3.6893 0
M  V30 1703 H 154.316 -1.70569 -3.62915 0
M  V30 1704 H 150.906 -3.01534 -3.0459 0
M  V30 1705 H 155.09 -3.99133 -2.94969 0
M  V30 1706 H 150.346 -5.40194 -2.86358 0
M  V30 1707 H 154.52 -6.38561 -2.77872 0
M  V30 1708 H 152.147 -7.09457 -2.73084 0
M  V30 1709 N 153.722 1.14298 -1.08507 0
M  V30 1710 C 154.652 2.21542 -0.737646 0
M  V30 1711 C 155.633 1.67773 0.280377 0
M  V30 1712 O 156.818 1.93616 0.150521 0
M  V30 1713 C 153.948 3.46988 -0.147259 0
M  V30 1714 C 152.902 4.13789 -1.09374 0
M  V30 1715 C 152.228 5.33449 -0.365524 0
M  V30 1716 C 153.528 4.62208 -2.4323 0
M  V30 1717 H 155.222 2.5086 -1.6343 0
M  V30 1718 H 152.768 1.20576 -0.787243 0
M  V30 1719 H 154.721 4.21262 0.107808 0
M  V30 1720 H 153.445 3.17037 0.784538 0
M  V30 1721 H 152.104 3.4147 -1.33393 0
M  V30 1722 H 151.752 4.99759 0.57011 0
M  V30 1723 H 151.452 5.79088 -0.996512 0
M  V30 1724 H 152.976 6.10485 -0.118534 0
M  V30 1725 H 154.39 5.27952 -2.23472 0
M  V30 1726 H 152.787 5.18553 -3.02031 0
M  V30 1727 H 153.857 3.77224 -3.04681 0
M  V30 1728 N 155.201 0.870884 1.31352 0
M  V30 1729 C 156.164 0.332243 2.26779 0
M  V30 1730 C 157.164 -0.517302 1.52252 0
M  V30 1731 O 158.354 -0.326477 1.71113 0
M  V30 1732 C 155.486 -0.528066 3.36785 0
M  V30 1733 H 156.679 1.17469 2.75937 0
M  V30 1734 H 154.232 0.64655 1.423 0
M  V30 1735 H 154.967 -1.39167 2.92922 0
M  V30 1736 H 154.752 0.0802582 3.92018 0
M  V30 1737 H 156.242 -0.897179 4.07849 0
M  V30 1738 N 156.679 -1.44442 0.630414 0
M  V30 1739 C 157.589 -2.34476 -0.0761693 0
M  V30 1740 C 158.605 -1.52576 -0.836449 0
M  V30 1741 O 159.781 -1.85307 -0.788874 0
M  V30 1742 C 156.846 -3.30545 -1.04599 0
M  V30 1743 C 155.907 -4.28352 -0.28516 0
M  V30 1744 C 155.14 -5.19831 -1.20878 0
M  V30 1745 O 155.363 -5.15223 -2.44747 0
M  V30 1746 O 154.297 -5.97892 -0.693491 0
M  V30 1747 H 158.123 -2.96345 0.664324 0
M  V30 1748 H 155.708 -1.44203 0.39061 0
M  V30 1749 H 157.59 -3.89681 -1.60396 0
M  V30 1750 H 156.265 -2.7121 -1.76711 0
M  V30 1751 H 155.172 -3.72764 0.315837 0
M  V30 1752 H 156.505 -4.90605 0.395924 0
M  V30 1753 N 158.157 -0.370918 -1.53173 0
M  V30 1754 C 159.104 0.473035 -2.259 0
M  V30 1755 C 160.074 1.07311 -1.26781 0
M  V30 1756 O 161.259 1.1046 -1.55574 0
M  V30 1757 C 158.399 1.60405 -3.05556 0
M  V30 1758 C 157.512 1.02863 -4.19575 0
M  V30 1759 C 156.647 2.12918 -4.86661 0
M  V30 1760 C 155.686 1.52869 -5.92704 0
M  V30 1761 N 154.823 2.56779 -6.53459 0
M  V30 1762 H 159.663 -0.153649 -2.97604 0
M  V30 1763 H 157.2 -0.0875946 -1.46839 0
M  V30 1764 H 159.158 2.27034 -3.50016 0
M  V30 1765 H 157.788 2.20131 -2.36097 0
M  V30 1766 H 156.84 0.252465 -3.79561 0
M  V30 1767 H 158.152 0.549642 -4.95762 0
M  V30 1768 H 157.306 2.87356 -5.34333 0
M  V30 1769 H 156.045 2.6417 -4.09958 0
M  V30 1770 H 155.05 0.769479 -5.44389 0
M  V30 1771 H 156.275 1.02435 -6.7133 0
M  V30 1772 H 154.221 3.07235 -5.79606 0
M  V30 1773 H 154.138 2.13583 -7.25202 0
M  V30 1774 H 155.406 3.30903 -7.05779 0
M  V30 1775 N 159.635 1.57281 -0.100228 0
M  V30 1776 C 160.545 2.17833 0.870965 0
M  V30 1777 C 161.561 1.14921 1.30649 0
M  V30 1778 O 162.737 1.47313 1.37335 0
M  V30 1779 C 159.802 2.75085 2.1102 0
M  V30 1780 C 158.863 3.9297 1.72838 0
M  V30 1781 C 158.096 4.47482 2.90854 0
M  V30 1782 O 158.319 4.00922 4.05731 0
M  V30 1783 O 157.253 5.38433 2.69023 0
M  V30 1784 H 161.079 3.0124 0.38575 0
M  V30 1785 H 158.664 1.48881 0.124397 0
M  V30 1786 H 160.546 3.11656 2.83634 0
M  V30 1787 H 159.221 1.94721 2.58584 0
M  V30 1788 H 158.128 3.61201 0.973883 0
M  V30 1789 H 159.461 4.74713 1.30033 0
M  V30 1790 N 161.113 -0.173488 1.56642 0
M  V30 1791 C 162.338 -0.910149 1.86363 0
M  V30 1792 C 162.763 -1.75132 0.686318 0
M  V30 1793 O 162.121 -1.77595 -0.364643 0
M  V30 1794 C 162.169 -1.76447 3.14482 0
M  V30 1795 O 161.273 -2.86584 2.96553 0
M  V30 1796 H 160.614 -0.255086 0.613047 0
M  V30 1797 H 163.144 -0.172283 2.03873 0
M  V30 1798 H 163.154 -2.16483 3.45831 0
M  V30 1799 H 161.829 -1.14658 3.99783 0
M  V30 1800 H 160.406 -2.50146 2.76553 0
M  V30 1801 N 162.591 -1.51276 -0.441967 0
M  V30 1802 C 163.521 -1.752 -1.54361 0
M  V30 1803 C 164.502 -0.601682 -1.59103 0
M  V30 1804 O 165.687 -0.843913 -1.74905 0
M  V30 1805 C 162.817 -1.87282 -2.92477 0
M  V30 1806 C 161.771 -3.02687 -3.02596 0
M  V30 1807 C 161.097 -2.99947 -4.42647 0
M  V30 1808 C 162.397 -4.4273 -2.77106 0
M  V30 1809 H 164.091 -2.67442 -1.34592 0
M  V30 1810 H 161.637 -1.28694 -0.646048 0
M  V30 1811 H 163.59 -2.02602 -3.695 0
M  V30 1812 H 162.314 -0.916844 -3.13467 0
M  V30 1813 H 160.973 -2.87065 -2.28012 0
M  V30 1814 H 160.621 -2.02136 -4.60597 0
M  V30 1815 H 160.321 -3.77439 -4.50348 0
M  V30 1816 H 161.845 -3.17354 -5.2165 0
M  V30 1817 H 163.259 -4.58727 -3.43864 0
M  V30 1818 H 161.656 -5.21893 -2.96222 0
M  V30 1819 H 162.726 -4.53087 -1.72744 0
M  V30 1820 N 164.069 0.697108 -1.41344 0
M  V30 1821 C 165.297 1.48593 -1.43972 0
M  V30 1822 C 165.712 1.88747 -0.0445612 0
M  V30 1823 O 165.069 1.56682 0.935785 0
M  V30 1824 C 165.12 2.74946 -2.34706 0
M  V30 1825 O 164.841 2.36484 -3.68791 0
M  V30 1826 C 166.342 3.687 -2.46121 0
M  V30 1827 H 163.562 0.457964 -0.490418 0
M  V30 1828 H 166.106 0.858429 -1.8561 0
M  V30 1829 H 164.261 3.33937 -1.9638 0
M  V30 1830 H 164.675 3.17918 -4.17167 0
M  V30 1831 H 166.149 4.54145 -3.13777 0
M  V30 1832 H 166.626 4.13081 -1.49199 0
M  V30 1833 H 167.232 3.15613 -2.85076 0
M  V30 1834 N 165.547 1.27147 0.931209 0
M  V30 1835 C 166.457 1.11372 2.06478 0
M  V30 1836 C 167.473 0.044645 1.73943 0
M  V30 1837 O 168.649 0.250417 1.99837 0
M  V30 1838 C 165.714 0.758838 3.38294 0
M  V30 1839 C 164.775 1.90841 3.84549 0
M  V30 1840 C 164.008 1.57036 5.10074 0
M  V30 1841 O 164.231 0.476645 5.68405 0
M  V30 1842 O 163.165 2.40839 5.51616 0
M  V30 1843 H 166.991 2.06493 2.22698 0
M  V30 1844 H 164.576 1.06301 1.04978 0
M  V30 1845 H 166.458 0.574098 4.17471 0
M  V30 1846 H 165.133 -0.162879 3.2329 0
M  V30 1847 H 164.04 2.14819 3.06274 0
M  V30 1848 H 165.373 2.81021 4.04089 0
M  V30 1849 N 167.025 -1.13721 1.09112 0
M  V30 1850 C 168.302 -1.81155 0.737706 0
M  V30 1851 C 168.682 -1.96253 -0.777683 0
M  V30 1852 O 168.03 -1.52807 -1.69889 0
M  V30 1853 C 168.24 -3.16392 1.47299 0
M  V30 1854 C 169.588 -3.91787 1.63671 0
M  V30 1855 O 170.612 -3.26005 1.43524 0
M  V30 1856 O 169.471 -5.0977 1.96969 0
M  V30 1857 H 166.565 -0.783518 0.26463 0
M  V30 1858 H 169.111 -1.20676 1.19312 0
M  V30 1859 H 167.883 -3.0061 2.50498 0
M  V30 1860 H 167.506 -3.8457 1.00953 0
M  V30 1861 N 168.503 -0.877838 -1.30888 0
M  V30 1862 C 169.413 -0.343096 -2.32078 0
M  V30 1863 C 170.429 0.551022 -1.65045 0
M  V30 1864 O 171.605 0.445854 -1.96403 0
M  V30 1865 C 168.67 0.439905 -3.43898 0
M  V30 1866 C 167.731 -0.483111 -4.26573 0
M  V30 1867 C 166.964 0.262616 -5.33053 0
M  V30 1868 O 167.187 1.48967 -5.50604 0
M  V30 1869 O 166.121 -0.383593 -6.00676 0
M  V30 1870 H 169.947 -1.18203 -2.79753 0
M  V30 1871 H 167.532 -0.64145 -1.34929 0
M  V30 1872 H 169.414 0.883504 -4.12034 0
M  V30 1873 H 168.089 1.25526 -2.98371 0
M  V30 1874 H 166.996 -0.975374 -3.61161 0
M  V30 1875 H 168.329 -1.26427 -4.75686 0
M  V30 1876 N 169.982 1.44106 -0.638065 0
M  V30 1877 C 170.945 2.29138 0.0531013 0
M  V30 1878 C 171.945 1.41409 0.765506 0
M  V30 1879 O 173.135 1.63206 0.609046 0
M  V30 1880 C 170.267 3.23144 1.08584 0
M  V30 1881 H 171.46 2.91739 -0.694883 0
M  V30 1882 H 169.013 1.51134 -0.398538 0
M  V30 1883 H 169.748 2.65408 1.86357 0
M  V30 1884 H 169.533 3.87804 0.578852 0
M  V30 1885 H 171.023 3.87004 1.56899 0
M  V30 1886 N 171.46 0.379036 1.52974 0
M  V30 1887 C 172.688 -0.20679 2.05864 0
M  V30 1888 C 173.103 -1.41356 1.25155 0
M  V30 1889 O 172.46 -1.8009 0.295588 0
M  V30 1890 C 172.511 -0.587045 3.56702 0
M  V30 1891 O 172.232 0.571776 4.34353 0
M  V30 1892 C 173.733 -1.22983 4.25899 0
M  V30 1893 H 170.953 -0.0336123 0.670158 0
M  V30 1894 H 173.497 0.541298 1.97206 0
M  V30 1895 H 171.652 -1.28504 3.65466 0
M  V30 1896 H 172.066 0.261544 5.23847 0
M  V30 1897 H 173.54 -1.44635 5.32715 0
M  V30 1898 H 174.017 -2.19416 3.80465 0
M  V30 1899 H 174.623 -0.572892 4.21424 0
M  V30 1900 N 172.938 -1.57226 0.108567 0
M  V30 1901 C 173.87 -2.11809 -0.875752 0
M  V30 1902 C 174.883 -1.05839 -1.23701 0
M  V30 1903 O 176.072 -1.33245 -1.18778 0
M  V30 1904 C 173.172 -2.59411 -2.18081 0
M  V30 1905 C 172.345 -3.89364 -1.99284 0
M  V30 1906 C 171.404 -4.22672 -3.13424 0
M  V30 1907 O 170.43 -4.91668 -2.86795 0
M  V30 1908 N 171.632 -3.79154 -4.3957 0
M  V30 1909 H 174.397 -2.9689 -0.409477 0
M  V30 1910 H 171.958 -1.61721 -0.076158 0
M  V30 1911 H 173.95 -2.7873 -2.93414 0
M  V30 1912 H 172.52 -1.79268 -2.5609 0
M  V30 1913 H 171.74 -3.79059 -1.08203 0
M  V30 1914 H 173.028 -4.74358 -1.84017 0
M  V30 1915 H 172.426 -3.23486 -4.64083 0
M  V30 1916 H 170.983 -4.03602 -5.11809 0
M  V30 1917 N 174.416 0.165178 -1.56732 0
M  V30 1918 C 175.663 0.880807 -1.8234 0
M  V30 1919 C 175.991 1.81977 -0.686621 0
M  V30 1920 O 175.246 1.92971 0.325697 0
M  V30 1921 C 175.545 1.70405 -3.1416 0
M  V30 1922 C 175.211 0.913475 -4.4155 0
M  V30 1923 C 173.873 0.695303 -4.7615 0
M  V30 1924 C 176.225 0.359349 -5.1996 0
M  V30 1925 C 173.553 -0.0879947 -5.86634 0
M  V30 1926 C 175.905 -0.410893 -6.31264 0
M  V30 1927 C 174.569 -0.639808 -6.64427 0
M  V30 1928 H 173.839 0.32231 -0.667231 0
M  V30 1929 H 176.486 0.145402 -1.90947 0
M  V30 1930 H 174.791 2.50903 -3.00923 0
M  V30 1931 H 176.488 2.26091 -3.31186 0
M  V30 1932 H 173.078 1.09357 -4.14414 0
M  V30 1933 H 177.262 0.515228 -4.93618 0
M  V30 1934 H 172.518 -0.27503 -6.10781 0
M  V30 1935 H 176.692 -0.847494 -6.91224 0
M  V30 1936 H 174.319 -1.24864 -7.49875 0
M  V30 1937 N 175.894 1.51508 0.433938 0
M  V30 1938 C 176.824 1.76016 1.53429 0
M  V30 1939 C 177.805 0.610112 1.58782 0
M  V30 1940 O 178.99 0.853177 1.74455 0
M  V30 1941 C 176.12 1.88831 2.9148 0
M  V30 1942 C 175.074 3.04288 3.00987 0
M  V30 1943 C 174.4 3.0229 4.4105 0
M  V30 1944 C 175.7 4.44193 2.74754 0
M  V30 1945 H 177.394 2.68152 1.33171 0
M  V30 1946 H 174.94 1.29035 0.639214 0
M  V30 1947 H 176.893 2.04559 3.6842 0
M  V30 1948 H 175.617 0.933455 3.12976 0
M  V30 1949 H 174.276 2.8827 2.26486 0
M  V30 1950 H 173.924 2.04576 4.59519 0
M  V30 1951 H 173.624 3.79822 4.4834 0
M  V30 1952 H 175.148 3.20116 5.1996 0
M  V30 1953 H 176.562 4.60544 3.41426 0
M  V30 1954 H 174.959 5.23457 2.9345 0
M  V30 1955 H 176.029 4.53996 1.70339 0
M  V30 1956 N 177.372 -0.689602 1.41712 0
M  V30 1957 C 178.319 -1.80345 1.44029 0
M  V30 1958 C 179.289 -1.63478 0.293948 0
M  V30 1959 O 180.474 -1.84244 0.495869 0
M  V30 1960 C 177.614 -3.18272 1.33405 0
M  V30 1961 C 176.727 -3.46529 2.57956 0
M  V30 1962 C 175.862 -4.74103 2.39582 0
M  V30 1963 C 174.901 -4.95347 3.5958 0
M  V30 1964 N 174.038 -6.14151 3.40239 0
M  V30 1965 H 178.878 -1.77698 2.39222 0
M  V30 1966 H 176.415 -0.867688 1.18784 0
M  V30 1967 H 178.373 -3.97956 1.25246 0
M  V30 1968 H 177.003 -3.2008 0.418164 0
M  V30 1969 H 176.055 -2.61207 2.76542 0
M  V30 1970 H 177.367 -3.58126 3.47199 0
M  V30 1971 H 176.521 -5.61853 2.28924 0
M  V30 1972 H 175.26 -4.64763 1.47805 0
M  V30 1973 H 174.265 -4.06044 3.70686 0
M  V30 1974 H 175.49 -5.06542 4.52318 0
M  V30 1975 H 173.436 -6.06013 2.51167 0
M  V30 1976 H 173.353 -6.26543 4.23061 0
M  V30 1977 H 174.621 -7.04619 3.33365 0
M  V30 1978 N 178.85 -1.27639 -0.924453 0
M  V30 1979 C 179.782 -1.06442 -2.02985 0
M  V30 1980 C 180.795 -0.0194771 -1.62788 0
M  V30 1981 O 181.984 -0.261388 -1.76576 0
M  V30 1982 C 179.084 -0.59327 -3.33667 0
M  V30 1983 C 178.257 -1.71123 -4.02537 0
M  V30 1984 C 177.316 -1.23527 -5.11495 0
M  V30 1985 O 176.342 -1.93553 -5.35281 0
M  V30 1986 N 177.544 -0.0926678 -5.80426 0
M  V30 1987 H 180.309 -2.01633 -2.2173 0
M  V30 1988 H 177.87 -1.19248 -1.09505 0
M  V30 1989 H 179.862 -0.258686 -4.03872 0
M  V30 1990 H 178.432 0.265502 -3.1147 0
M  V30 1991 H 177.652 -2.21593 -3.26022 0
M  V30 1992 H 178.94 -2.46145 -4.45298 0
M  V30 1993 H 178.338 0.491741 -5.63559 0
M  V30 1994 H 176.895 0.182714 -6.51544 0
M  V30 1995 N 180.328 1.1314 -1.09713 0
M  V30 1996 C 181.577 1.83838 -0.829851 0
M  V30 1997 C 181.89 1.84599 0.646728 0
M  V30 1998 O 183.096 2.51218 1.02965 0
M  V30 1999 C 181.552 3.30069 -1.43466 0
M  V30 2000 C 181.16 3.37688 -2.94399 0
M  V30 2001 C 182.904 4.05788 -1.24645 0
M  V30 2002 C 180.811 4.78209 -3.47952 0
M  V30 2003 H 179.741 0.68877 -0.306777 0
M  V30 2004 H 182.392 1.27448 -1.3202 0
M  V30 2005 H 180.774 3.8628 -0.871996 0
M  V30 2006 H 181.948 2.91456 -3.56918 0
M  V30 2007 H 180.263 2.75436 -3.12289 0
M  V30 2008 H 182.86 5.09535 -1.62107 0
M  V30 2009 H 183.203 4.15878 -0.187357 0
M  V30 2010 H 183.736 3.55915 -1.77678 0
M  V30 2011 H 180.475 4.73311 -4.53495 0
M  V30 2012 H 179.995 5.24924 -2.90198 0
M  V30 2013 H 181.674 5.47133 -3.45332 0
M  V30 2014 N 181.806 0.884767 1.30421 0
M  V30 2015 C 182.736 0.367574 2.30589 0
M  V30 2016 C 183.717 -0.549464 1.60981 0
M  V30 2017 O 184.902 -0.46336 1.88591 0
M  V30 2018 C 182.032 -0.418944 3.44764 0
M  V30 2019 C 180.986 0.406316 4.26067 0
M  V30 2020 C 180.312 -0.506793 5.32293 0
M  V30 2021 C 181.612 1.64832 4.95608 0
M  V30 2022 H 183.306 1.20462 2.74097 0
M  V30 2023 H 180.852 0.580695 1.31772 0
M  V30 2024 H 182.805 -0.791395 4.13902 0
M  V30 2025 H 181.529 -1.28964 3.0006 0
M  V30 2026 H 180.188 0.760903 3.58617 0
M  V30 2027 H 179.836 -1.37519 4.83836 0
M  V30 2028 H 179.536 0.0415828 5.87585 0
M  V30 2029 H 181.06 -0.875764 6.04287 0
M  V30 2030 H 182.474 1.34646 5.57264 0
M  V30 2031 H 180.871 2.13688 5.60765 0
M  V30 2032 H 181.941 2.39284 4.21748 0
M  V30 2033 N 183.284 -1.43765 0.645699 0
M  V30 2034 C 184.561 -1.9541 0.0862963 0
M  V30 2035 C 184.941 -1.58725 -1.39175 0
M  V30 2036 O 184.289 -0.868581 -2.11348 0
M  V30 2037 C 184.499 -3.47488 0.324565 0
M  V30 2038 C 185.847 -4.24001 0.225497 0
M  V30 2039 O 186.871 -3.55274 0.256715 0
M  V30 2040 O 185.73 -5.46313 0.142801 0
M  V30 2041 H 182.824 -0.826882 -0.0139483 0
M  V30 2042 H 185.37 -1.53743 0.718415 0
M  V30 2043 H 184.142 -3.67289 1.3496 0
M  V30 2044 H 183.765 -3.96135 -0.340987 0
M  V30 2045 N 184.763 -0.387143 -1.52771 0
M  V30 2046 C 186.011 0.195349 -2.01154 0
M  V30 2047 C 186.332 1.475 -1.27549 0
M  V30 2048 O 185.602 1.91878 -0.394924 0
M  V30 2049 H 184.182 0.075178 -0.743207 0
M  V30 2050 H 186.844 -0.518337 -1.87881 0
M  V30 2051 H 185.94 0.407096 -3.09434 0
M  V30 2052 N 186.241 1.57166 -0.116904 0
M  V30 2053 C 187.487 1.95412 0.542405 0
M  V30 2054 C 187.82 1.00019 1.66463 0
M  V30 2055 O 187.095 0.0370346 1.94465 0
M  V30 2056 C 187.378 3.43615 1.07708 0
M  V30 2057 C 187.231 4.49781 -0.0415868 0
M  V30 2058 C 188.55 3.93616 1.96861 0
M  V30 2059 H 185.669 0.710543 0.195696 0
M  V30 2060 H 188.311 1.89027 -0.192038 0
M  V30 2061 H 186.461 3.49187 1.70296 0
M  V30 2062 H 188.133 4.56308 -0.676793 0
M  V30 2063 H 186.376 4.28033 -0.705019 0
M  V30 2064 H 187.047 5.50733 0.373717 0
M  V30 2065 H 189.523 3.90335 1.44146 0
M  V30 2066 H 188.399 4.97838 2.3119 0
M  V30 2067 H 188.66 3.34188 2.89432 0
M  V30 2068 N 187.719 -0.156864 1.56817 0
M  V30 2069 C 188.669 -1.19891 1.93934 0
M  V30 2070 C 189.653 -1.39061 0.809372 0
M  V30 2071 O 190.845 -1.40789 1.07273 0
M  V30 2072 C 187.974 -2.53493 2.31508 0
M  V30 2073 C 187.06 -2.37957 3.51052 0
M  V30 2074 N 187.451 -1.92158 4.67877 0
M  V30 2075 C 185.749 -2.68739 3.55943 0
M  V30 2076 C 186.45 -1.8943 5.49992 0
M  V30 2077 N 185.426 -2.32375 4.91429 0
M  V30 2078 H 189.228 -0.836746 2.81737 0
M  V30 2079 H 186.742 -0.365012 1.58245 0
M  V30 2080 H 188.739 -3.28811 2.56299 0
M  V30 2081 H 187.399 -2.905 1.45051 0
M  V30 2082 H 188.41 -1.62274 4.91821 0
M  V30 2083 H 185.087 -3.09687 2.80001 0
M  V30 2084 H 186.477 -1.55596 6.53636 0
M  V30 2085 N 189.197 -1.51736 -0.425897 0
M  V30 2086 C 190.427 -1.68549 -1.19476 0
M  V30 2087 C 190.835 -0.387288 -1.85194 0
M  V30 2088 O 190.178 0.645142 -1.71999 0
M  V30 2089 C 190.24 -2.75275 -2.31223 0
M  V30 2090 C 189.904 -4.17534 -1.8578 0
M  V30 2091 C 190.901 -5.01936 -1.35485 0
M  V30 2092 C 188.586 -4.6369 -1.93123 0
M  V30 2093 C 190.58 -6.30559 -0.931347 0
M  V30 2094 C 188.267 -5.92307 -1.50384 0
M  V30 2095 C 189.265 -6.75569 -1.00473 0
M  V30 2096 O 188.953 -8.0178 -0.583452 0
M  V30 2097 H 188.685 -0.568525 -0.365725 0
M  V30 2098 H 191.239 -1.98982 -0.509444 0
M  V30 2099 H 189.469 -2.40182 -3.03067 0
M  V30 2100 H 191.158 -2.80853 -2.93047 0
M  V30 2101 H 191.924 -4.67475 -1.29197 0
M  V30 2102 H 187.803 -3.98997 -2.30916 0
M  V30 2103 H 191.347 -6.95498 -0.541084 0
M  V30 2104 H 187.244 -6.2628 -1.56346 0
M  V30 2105 H 188.012 -8.1543 -0.708275 0
M  V30 2106 N 190.675 0.682077 -1.42076 0
M  V30 2107 C 191.605 1.80796 -1.47767 0
M  V30 2108 C 192.586 1.6677 -0.334954 0
M  V30 2109 O 193.771 1.863 -0.548264 0
M  V30 2110 C 190.901 3.19038 -1.37229 0
M  V30 2111 C 189.855 3.47789 -2.49453 0
M  V30 2112 C 189.181 4.8553 -2.23975 0
M  V30 2113 C 190.481 3.45411 -3.91776 0
M  V30 2114 H 192.175 1.7629 -2.41997 0
M  V30 2115 H 189.721 0.846721 -1.16476 0
M  V30 2116 H 191.674 3.97528 -1.39821 0
M  V30 2117 H 190.398 3.24204 -0.394907 0
M  V30 2118 H 189.057 2.71657 -2.46166 0
M  V30 2119 H 188.705 4.87337 -1.24547 0
M  V30 2120 H 188.405 5.0573 -2.99184 0
M  V30 2121 H 189.929 5.66312 -2.28304 0
M  V30 2122 H 191.343 4.13882 -3.96705 0
M  V30 2123 H 189.74 3.77145 -4.66778 0
M  V30 2124 H 190.81 2.44122 -4.18966 0
M  V30 2125 N 192.153 1.28127 0.917671 0
M  V30 2126 C 193.103 1.08361 2.00604 0
M  V30 2127 C 194.087 0.00847518 1.60898 0
M  V30 2128 O 195.279 0.228167 1.75523 0
M  V30 2129 C 192.408 0.743376 3.35155 0
M  V30 2130 C 191.494 1.85716 3.81275 0
M  V30 2131 N 191.885 3.09822 3.99805 0
M  V30 2132 C 190.183 1.74612 4.10398 0
M  V30 2133 C 190.884 3.82368 4.38372 0
M  V30 2134 N 189.86 3.10192 4.4641 0
M  V30 2135 H 193.662 2.02531 2.12975 0
M  V30 2136 H 191.176 1.18989 1.10523 0
M  V30 2137 H 193.173 0.582859 4.12805 0
M  V30 2138 H 191.833 -0.190595 3.2414 0
M  V30 2139 H 192.844 3.45475 3.85833 0
M  V30 2140 H 189.521 0.883657 4.08041 0
M  V30 2141 H 190.911 4.89082 4.60704 0
M  V30 2142 N 193.631 -1.12557 1.10312 0
M  V30 2143 C 194.856 -1.88405 0.867085 0
M  V30 2144 C 195.281 -1.79038 -0.576817 0
M  V30 2145 O 194.639 -1.14439 -1.40618 0
M  V30 2146 C 194.687 -3.3563 1.31851 0
M  V30 2147 O 193.791 -4.09565 0.482734 0
M  V30 2148 H 193.132 -0.585455 0.313271 0
M  V30 2149 H 195.662 -1.42352 1.4696 0
M  V30 2150 H 195.672 -3.86469 1.3079 0
M  V30 2151 H 194.347 -3.41765 2.37001 0
M  V30 2152 H 192.924 -3.68695 0.558448 0
M  V30 2153 N 195.109 -0.891671 -1.2995 0
M  V30 2154 C 196.056 -0.361736 -2.27948 0
M  V30 2155 C 197.026 0.551761 -1.56668 0
M  V30 2156 O 198.211 0.478736 -1.84696 0
M  V30 2157 C 195.351 0.411825 -3.42634 0
M  V30 2158 C 194.464 -0.531651 -4.28716 0
M  V30 2159 C 193.599 0.258167 -5.30572 0
M  V30 2160 C 192.638 -0.680349 -6.08307 0
M  V30 2161 N 191.775 0.0745613 -7.0206 0
M  V30 2162 H 196.615 -1.20254 -2.72659 0
M  V30 2163 H 194.152 -0.604352 -1.34112 0
M  V30 2164 H 196.11 0.876304 -4.07893 0
M  V30 2165 H 194.74 1.21715 -2.98974 0
M  V30 2166 H 193.792 -1.11463 -3.63703 0
M  V30 2167 H 195.104 -1.25038 -4.82874 0
M  V30 2168 H 194.258 0.784204 -6.0161 0
M  V30 2169 H 192.997 1.01008 -4.77126 0
M  V30 2170 H 192.002 -1.21796 -5.3614 0
M  V30 2171 H 193.227 -1.43145 -6.63842 0
M  V30 2172 H 191.173 0.808883 -6.50994 0
M  V30 2173 H 191.09 -0.584409 -7.53738 0
M  V30 2174 H 192.358 0.581123 -7.77331 0
M  V30 2175 N 196.587 1.43421 -0.653314 0
M  V30 2176 C 198.003 1.56341 -0.320886 0
M  V30 2177 C 198.203 1.63696 1.17499 0
M  V30 2178 O 197.259 1.59208 1.95982 0
M  V30 2179 C 198.572 2.82424 -1.03233 0
M  V30 2180 C 200.12 2.96168 -1.01259 0
M  V30 2181 C 200.595 4.25084 -1.70492 0
M  V30 2182 N 202.086 4.31948 -1.67257 0
M  V30 2183 C 202.821 5.30466 -2.17701 0
M  V30 2184 N 202.317 6.35261 -2.76434 0
M  V30 2185 N 204.11 5.2212 -2.082 0
M  V30 2186 H 196.261 1.3689 -1.62403 0
M  V30 2187 H 198.524 0.657455 -0.682977 0
M  V30 2188 H 198.23 2.83053 -2.08744 0
M  V30 2189 H 198.104 3.72653 -0.583948 0
M  V30 2190 H 200.491 2.9508 0.0341235 0
M  V30 2191 H 200.572 2.07229 -1.49966 0
M  V30 2192 H 200.216 4.26932 -2.7512 0
M  V30 2193 H 200.146 5.1292 -1.19251 0
M  V30 2194 H 202.637 3.56838 -1.24398 0
M  V30 2195 H 202.95 7.06754 -3.12601 0
M  V30 2196 H 201.295 6.35884 -2.80495 0
M  V30 2197 H 204.486 4.39166 -1.62021 0
M  V30 2198 H 204.659 5.98739 -2.47822 0
M  V30 2199 N 198.065 0.39524 1.52563 0
M  V30 2200 C 199.314 -0.186321 2.00838 0
M  V30 2201 C 199.627 -1.47402 1.28577 0
M  V30 2202 O 200.833 -2.13599 1.67593 0
M  V30 2203 C 199.289 -0.382595 3.57861 0
M  V30 2204 C 198.897 0.892202 4.39026 0
M  V30 2205 C 200.641 -0.9202 4.14406 0
M  V30 2206 C 198.548 0.66388 5.87662 0
M  V30 2207 H 197.478 -0.0734041 0.750418 0
M  V30 2208 H 200.129 0.518552 1.76021 0
M  V30 2209 H 198.511 -1.14946 3.7895 0
M  V30 2210 H 199.685 1.66414 4.29701 0
M  V30 2211 H 198 1.35519 3.9373 0
M  V30 2212 H 200.597 -1.10683 5.23119 0
M  V30 2213 H 200.94 -1.89096 3.70875 0
M  V30 2214 H 201.473 -0.212751 3.97231 0
M  V30 2215 H 198.212 1.6058 6.35527 0
M  V30 2216 H 197.732 -0.0690193 5.9976 0
M  V30 2217 H 199.411 0.300699 6.46301 0
M  V30 2218 N 199.544 -1.57102 0.125237 0
M  V30 2219 C 200.507 -2.14471 -0.80838 0
M  V30 2220 C 201.507 -1.0811 -1.19033 0
M  V30 2221 O 202.697 -1.33856 -1.11482 0
M  V30 2222 C 199.829 -2.69005 -2.09402 0
M  V30 2223 H 201.022 -2.98297 -0.309696 0
M  V30 2224 H 198.575 -1.55807 -0.124051 0
M  V30 2225 H 199.31 -1.88785 -2.63687 0
M  V30 2226 H 199.095 -3.46799 -1.82957 0
M  V30 2227 H 200.585 -3.13278 -2.76128 0
M  V30 2228 N 201.022 0.148545 -1.56898 0
M  V30 2229 C 201.972 1.1886 -1.94567 0
M  V30 2230 C 202.956 1.3863 -0.816735 0
M  V30 2231 O 204.148 1.40218 -1.08018 0
M  V30 2232 C 201.277 2.52262 -2.32849 0
M  V30 2233 C 200.363 2.36092 -3.52309 0
M  V30 2234 N 200.754 1.89674 -4.6889 0
M  V30 2235 C 199.052 2.66848 -3.57363 0
M  V30 2236 C 199.753 1.86511 -5.50989 0
M  V30 2237 N 198.729 2.29766 -4.92655 0
M  V30 2238 H 202.531 0.821793 -2.82177 0
M  V30 2239 H 200.045 0.356615 -1.58436 0
M  V30 2240 H 202.042 3.27447 -2.58039 0
M  V30 2241 H 200.702 2.89727 -1.46589 0
M  V30 2242 H 201.713 1.59663 -4.92674 0
M  V30 2243 H 198.39 3.08198 -2.81639 0
M  V30 2244 H 199.78 1.52128 -6.54452 0
M  V30 2245 N 202.5 1.5196 0.417844 0
M  V30 2246 C 203.747 1.65591 1.16559 0
M  V30 2247 C 204.075 0.381565 1.90721 0
M  V30 2248 O 203.33 -0.635156 1.85106 0
M  V30 2249 C 203.629 2.82269 2.19223 0
M  V30 2250 C 203.295 4.20819 1.61933 0
M  V30 2251 C 201.957 4.58506 1.46033 0
M  V30 2252 C 204.309 5.07196 1.20008 0
M  V30 2253 C 201.637 5.80257 0.867113 0
M  V30 2254 C 203.989 6.29544 0.621086 0
M  V30 2255 C 202.653 6.65987 0.449144 0
M  V30 2256 H 201.923 0.605939 0.42652 0
M  V30 2257 H 204.57 1.86041 0.45397 0
M  V30 2258 H 202.875 2.56118 2.96498 0
M  V30 2259 H 204.572 2.90012 2.76936 0
M  V30 2260 H 201.162 3.91116 1.7529 0
M  V30 2261 H 205.346 4.7867 1.31105 0
M  V30 2262 H 200.602 6.07124 0.721833 0
M  V30 2263 H 204.776 6.95805 0.287798 0
M  V30 2264 H 202.403 7.60199 -0.012632 0
M  V30 2265 N 203.978 -0.674533 1.42435 0
M  V30 2266 C 205.255 -1.4305 1.33402 0
M  V30 2267 C 205.635 -2.11081 -0.0284674 0
M  V30 2268 O 204.983 -2.03257 -1.04397 0
M  V30 2269 C 205.193 -2.43272 2.50239 0
M  V30 2270 C 206.541 -3.07907 2.92367 0
M  V30 2271 O 207.565 -2.53599 2.50132 0
M  V30 2272 O 206.424 -4.0632 3.65467 0
M  V30 2273 H 203.518 -0.638076 0.526106 0
M  V30 2274 H 206.064 -0.703235 1.54443 0
M  V30 2275 H 204.836 -1.91803 3.41068 0
M  V30 2276 H 204.459 -3.23479 2.31186 0
M  V30 2277 N 205.456 -1.28612 -0.910864 0
M  V30 2278 C 206.386 -1.15326 -2.03032 0
M  V30 2279 C 207.367 -0.0502924 -1.70026 0
M  V30 2280 O 208.552 -0.227797 -1.92859 0
M  V30 2281 C 205.682 -0.817343 -3.37545 0
M  V30 2282 C 204.636 -1.8754 -3.84724 0
M  V30 2283 C 203.962 -1.39305 -5.16235 0
M  V30 2284 C 205.262 -3.28244 -4.06267 0
M  V30 2285 H 206.956 -2.08975 -2.14406 0
M  V30 2286 H 204.502 -1.00612 -1.03021 0
M  V30 2287 H 206.455 -0.711151 -4.15356 0
M  V30 2288 H 205.179 0.154846 -3.26233 0
M  V30 2289 H 203.838 -1.97079 -3.09121 0
M  V30 2290 H 203.486 -0.409846 -5.01328 0
M  V30 2291 H 203.186 -2.10057 -5.48771 0
M  V30 2292 H 204.71 -1.30014 -5.96598 0
M  V30 2293 H 206.124 -3.21611 -4.74594 0
M  V30 2294 H 204.521 -3.96855 -4.5014 0
M  V30 2295 H 205.591 -3.72048 -3.10979 0
M  V30 2296 N 206.934 1.1197 -1.10907 0
M  V30 2297 C 207.881 2.17846 -0.762345 0
M  V30 2298 C 208.851 1.63995 0.263599 0
M  V30 2299 O 210.036 1.90273 0.141773 0
M  V30 2300 C 207.176 3.44487 -0.205651 0
M  V30 2301 C 206.289 4.12369 -1.28748 0
M  V30 2302 C 205.424 5.26674 -0.691919 0
M  V30 2303 C 204.463 5.86431 -1.75399 0
M  V30 2304 N 203.6 6.92142 -1.17833 0
M  V30 2305 H 208.44 2.46851 -1.6694 0
M  V30 2306 H 205.977 1.21188 -0.833776 0
M  V30 2307 H 207.935 4.16981 0.135037 0
M  V30 2308 H 206.565 3.15884 0.664613 0
M  V30 2309 H 205.617 3.38003 -1.74522 0
M  V30 2310 H 206.929 4.52844 -2.09125 0
M  V30 2311 H 206.083 6.05953 -0.300963 0
M  V30 2312 H 204.822 4.8749 0.143232 0
M  V30 2313 H 203.827 5.05835 -2.15432 0
M  V30 2314 H 205.052 6.27685 -2.59208 0
M  V30 2315 H 202.998 6.54985 -0.364725 0
M  V30 2316 H 202.915 7.31242 -1.91887 0
M  V30 2317 H 204.183 7.75237 -0.81408 0
M  V30 2318 N 208.412 0.89855 1.29475 0
M  V30 2319 C 209.823 0.572537 1.77705 0
M  V30 2320 C 210.174 -0.911778 1.73727 0
M  V30 2321 O 209.299 -1.71288 1.32247 0
M  V30 2322 C 209.894 1.03252 3.22683 0
M  V30 2323 C 208.453 0.757687 3.68695 0
M  V30 2324 C 207.6 1.20787 2.49612 0
M  V30 2325 H 210.551 1.08139 1.16153 0
M  V30 2326 H 210.572 0.367307 3.78723 0
M  V30 2327 H 210.084 2.11285 3.25546 0
M  V30 2328 H 208.185 -0.310079 3.71308 0
M  V30 2329 H 208.298 1.35476 4.59547 0
M  V30 2330 H 206.662 0.626888 2.46865 0
M  V30 2331 H 207.445 2.29622 2.55203 0
M  V30 2332 N 209.89 -1.43072 0.660911 0
M  V30 2333 C 210.8 -2.34585 -0.0264163 0
M  V30 2334 C 211.816 -1.54316 -0.803898 0
M  V30 2335 O 212.992 -1.86939 -0.749391 0
M  V30 2336 C 210.057 -3.32689 -0.975639 0
M  V30 2337 C 209.118 -4.2886 -0.194236 0
M  V30 2338 C 208.351 -5.22278 -1.09825 0
M  V30 2339 O 208.574 -5.20299 -2.33763 0
M  V30 2340 O 207.508 -5.99228 -0.566513 0
M  V30 2341 H 211.334 -2.94869 0.727034 0
M  V30 2342 H 208.919 -1.43342 0.42111 0
M  V30 2343 H 210.801 -3.92995 -1.52094 0
M  V30 2344 H 209.476 -2.74898 -1.70918 0
M  V30 2345 H 208.383 -3.72011 0.394835 0
M  V30 2346 H 209.716 -4.89655 0.499899 0
M  V30 2347 N 211.368 -0.403325 -1.52352 0
M  V30 2348 C 212.316 0.439752 -2.28405 0
M  V30 2349 C 213.31 1.05089 -1.32863 0
M  V30 2350 O 214.516 0.989759 -1.50345 0
M  V30 2351 H 210.891 0.160587 -0.734653 0
M  V30 2352 H 212.862 -0.222983 -2.97566 0
M  V30 2353 C 211.611 1.54736 -3.11371 0
M  V30 2354 H 210.934 1.08643 -3.84755 0
M  V30 2355 H 212.374 2.1112 -3.67701 0
M  V30 2356 C 210.833 2.51141 -2.24566 0
M  V30 2357 O 211.363 3.54887 -1.88196 0
M  V30 2358 N 209.569 2.21213 -1.8845 0
M  V30 2359 H 209.116 1.36878 -2.18225 0
M  V30 2360 H 209.074 2.85963 -1.30662 0
M  V30 2361 N 212.846 1.57033 -0.133567 0
M  V30 2362 C 214.095 1.94861 0.520768 0
M  V30 2363 C 214.408 1.02012 1.66892 0
M  V30 2364 O 215.614 1.29365 2.38699 0
M  V30 2365 C 214.07 3.46362 0.977809 0
M  V30 2366 C 213.678 4.47773 -0.142674 0
M  V30 2367 C 215.422 3.93083 1.60269 0
M  V30 2368 C 213.329 5.90468 0.331883 0
M  V30 2369 H 212.259 0.727453 0.198315 0
M  V30 2370 H 214.91 1.82227 -0.215759 0
M  V30 2371 H 213.292 3.54282 1.7692 0
M  V30 2372 H 214.466 4.51536 -0.919317 0
M  V30 2373 H 212.781 4.10891 -0.675124 0
M  V30 2374 H 215.378 4.97121 1.96914 0
M  V30 2375 H 215.721 3.33876 2.48662 0
M  V30 2376 H 216.254 3.88025 0.876453 0
M  V30 2377 H 212.993 6.53463 -0.516341 0
M  V30 2378 H 212.513 5.90094 1.07469 0
M  V30 2379 H 214.192 6.42179 0.788332 0
M  V30 2380 N 214.325 -0.140222 1.56975 0
M  V30 2381 C 215.258 -1.20266 1.93936 0
M  V30 2382 C 216.236 -1.41212 0.806099 0
M  V30 2383 O 217.42 -1.55713 1.06234 0
M  V30 2384 C 214.547 -2.56037 2.21726 0
M  V30 2385 C 213.593 -2.51646 3.44349 0
M  V30 2386 S 214.426 -1.97678 4.97678 0
M  V30 2387 C 215.582 -3.35165 5.28597 0
M  V30 2388 H 215.815 -0.887358 2.83749 0
M  V30 2389 H 213.348 -0.346119 1.50471 0
M  V30 2390 H 215.306 -3.34167 2.38416 0
M  V30 2391 H 213.967 -2.84755 1.32566 0
M  V30 2392 H 213.16 -3.51608 3.61092 0
M  V30 2393 H 212.762 -1.81628 3.26936 0
M  V30 2394 H 215.054 -4.31302 5.2248 0
M  V30 2395 H 215.997 -3.23269 6.30002 0
M  V30 2396 H 216.405 -3.32614 4.56101 0
M  V30 2397 N 215.803 -1.52179 -0.40978 0
M  V30 2398 C 216.733 -1.78435 -1.5061 0
M  V30 2399 C 217.714 -0.635295 -1.57791 0
M  V30 2400 O 218.899 -0.880823 -1.73076 0
M  V30 2401 C 216.029 -1.93444 -2.88439 0
M  V30 2402 C 214.983 -3.09038 -2.96108 0
M  V30 2403 C 214.309 -3.09268 -4.36185 0
M  V30 2404 C 215.609 -4.48508 -2.67652 0
M  V30 2405 H 217.303 -2.70237 -1.28889 0
M  V30 2406 H 214.849 -1.30036 -0.618605 0
M  V30 2407 H 216.802 -2.10394 -3.65119 0
M  V30 2408 H 215.526 -0.983129 -3.11452 0
M  V30 2409 H 214.185 -2.91837 -2.21872 0
M  V30 2410 H 213.833 -2.11861 -4.56206 0
M  V30 2411 H 213.533 -3.86907 -4.42241 0
M  V30 2412 H 215.057 -3.28348 -5.14801 0
M  V30 2413 H 216.471 -4.65918 -3.34056 0
M  V30 2414 H 214.868 -5.28059 -2.85085 0
M  V30 2415 H 215.938 -4.56649 -1.63095 0
M  V30 2416 N 217.281 0.66697 -1.42791 0
M  V30 2417 C 218.211 1.79218 -1.49677 0
M  V30 2418 C 219.192 1.66405 -0.352623 0
M  V30 2419 O 220.377 1.85708 -0.567993 0
M  V30 2420 C 217.507 3.17565 -1.40605 0
M  V30 2421 C 216.461 3.45124 -2.53127 0
M  V30 2422 C 215.787 4.83127 -2.29112 0
M  V30 2423 C 217.087 3.41236 -3.95418 0
M  V30 2424 H 218.781 1.73713 -2.43853 0
M  V30 2425 H 216.327 0.83432 -1.17367 0
M  V30 2426 H 218.28 3.96022 -1.44029 0
M  V30 2427 H 217.004 3.23767 -0.429271 0
M  V30 2428 H 215.663 2.69031 -2.49034 0
M  V30 2429 H 215.311 4.85988 -1.29709 0
M  V30 2430 H 215.011 5.02528 -3.04531 0
M  V30 2431 H 216.535 5.63859 -2.34297 0
M  V30 2432 H 217.949 4.09651 -4.01073 0
M  V30 2433 H 216.346 3.72173 -4.70752 0
M  V30 2434 H 217.416 2.39665 -4.21532 0
M  V30 2435 N 218.759 1.29093 0.90403 0
M  V30 2436 C 220.036 1.075 1.63411 0
M  V30 2437 C 220.416 -0.382346 2.07609 0
M  V30 2438 O 219.764 -1.37031 1.82851 0
M  V30 2439 C 219.974 2.05858 2.81822 0
M  V30 2440 C 221.322 2.36539 3.52611 0
M  V30 2441 O 222.346 2.04019 2.91984 0
M  V30 2442 O 221.205 2.92085 4.61897 0
M  V30 2443 H 218.299 0.411547 0.717327 0
M  V30 2444 H 220.845 1.40449 0.952479 0
M  V30 2445 H 219.617 3.04037 2.46327 0
M  V30 2446 H 219.24 1.73613 3.57693 0
M  V30 2447 N 220.237 -1.11381 1.11499 0
M  V30 2448 C 221.184 -2.17439 0.773887 0
M  V30 2449 C 222.154 -1.64132 -0.254899 0
M  V30 2450 O 223.339 -1.90345 -0.13168 0
M  V30 2451 C 220.479 -3.44373 0.223917 0
M  V30 2452 C 219.592 -4.1168 1.30934 0
M  V30 2453 C 218.727 -5.263 0.71984 0
M  V30 2454 C 217.766 -5.85493 1.78507 0
M  V30 2455 N 216.903 -6.91507 1.21502 0
M  V30 2456 H 221.743 -2.45962 1.68246 0
M  V30 2457 H 219.28 -1.20744 0.840191 0
M  V30 2458 H 221.238 -4.17047 -0.112921 0
M  V30 2459 H 219.868 -3.16232 -0.647851 0
M  V30 2460 H 218.92 -3.37073 1.76312 0
M  V30 2461 H 220.232 -4.51729 2.11524 0
M  V30 2462 H 219.386 -6.05785 0.333094 0
M  V30 2463 H 218.125 -4.87559 -0.117377 0
M  V30 2464 H 217.13 -5.04686 2.18111 0
M  V30 2465 H 218.355 -6.26301 2.62533 0
M  V30 2466 H 216.301 -6.54783 0.399455 0
M  V30 2467 H 216.218 -7.30214 1.95763 0
M  V30 2468 H 217.486 -7.74795 0.855181 0
M  V30 2469 N 221.715 -0.905404 -1.28997 0
M  V30 2470 C 222.663 -0.377431 -2.29517 0
M  V30 2471 C 223.657 0.526461 -1.61012 0
M  V30 2472 O 224.863 0.40863 -1.753 0
M  V30 2473 H 221.238 -0.103437 -0.744852 0
M  V30 2474 H 223.209 -1.23848 -2.71485 0
M  V30 2475 C 221.958 0.374833 -3.45674 0
M  V30 2476 H 221.281 -0.311474 -3.98585 0
M  V30 2477 H 222.721 0.70903 -4.1803 0
M  V30 2478 C 221.18 1.57963 -2.97572 0
M  V30 2479 O 221.71 2.67886 -2.99333 0
M  V30 2480 N 219.916 1.42375 -2.53333 0
M  V30 2481 H 219.463 0.529466 -2.521 0
M  V30 2482 H 219.421 2.23117 -2.21509 0
M  V30 2483 N 223.193 1.4272 -0.668489 0
M  V30 2484 C 224.439 2.01923 -0.188419 0
M  V30 2485 C 224.772 1.52704 1.19979 0
M  V30 2486 O 224.047 0.726566 1.8042 0
M  V30 2487 C 224.33 3.59451 -0.216085 0
M  V30 2488 C 224.183 4.18864 -1.6393 0
M  V30 2489 C 225.502 4.37903 0.439179 0
M  V30 2490 H 222.621 0.733674 -0.0699412 0
M  V30 2491 H 225.263 1.69822 -0.852076 0
M  V30 2492 H 223.413 3.86929 0.349012 0
M  V30 2493 H 225.085 4.02362 -2.25616 0
M  V30 2494 H 223.328 3.74933 -2.18193 0
M  V30 2495 H 223.999 5.27987 -1.61039 0
M  V30 2496 H 226.475 4.16079 -0.0417878 0
M  V30 2497 H 225.351 5.47519 0.389157 0
M  V30 2498 H 225.612 4.15303 1.51577 0
M  V30 2499 N 224.671 0.411399 1.52136 0
M  V30 2500 C 226.082 -0.0576826 1.86611 0
M  V30 2501 C 226.433 -1.44238 1.33003 0
M  V30 2502 O 225.558 -2.05759 0.670228 0
M  V30 2503 C 226.153 -0.111448 3.38617 0
M  V30 2504 C 224.712 -0.52487 3.72723 0
M  V30 2505 C 223.859 0.299176 2.75681 0
M  V30 2506 H 226.81 0.628368 1.4573 0
M  V30 2507 H 226.831 -0.926252 3.69054 0
M  V30 2508 H 226.343 0.896488 3.77604 0
M  V30 2509 H 224.444 -1.53936 3.39315 0
M  V30 2510 H 224.557 -0.267681 4.78352 0
M  V30 2511 H 222.921 -0.238814 2.53578 0
M  V30 2512 H 223.704 1.3055 3.17508 0
M  V30 2513 N 226.149 -1.5696 0.141893 0
M  V30 2514 C 227.097 -2.17784 -0.816874 0
M  V30 2515 C 228.091 -1.1334 -1.25899 0
M  V30 2516 O 229.297 -1.316 -1.22806 0
M  V30 2517 H 225.672 -0.697278 -0.281615 0
M  V30 2518 H 227.643 -2.97087 -0.279621 0
M  V30 2519 C 226.392 -2.80983 -2.04802 0
M  V30 2520 H 225.715 -3.61062 -1.7168 0
M  V30 2521 H 227.155 -3.2705 -2.69841 0
M  V30 2522 C 225.614 -1.79228 -2.8527 0
M  V30 2523 O 226.144 -1.25962 -3.8144 0
M  V30 2524 N 224.35 -1.48647 -2.49704 0
M  V30 2525 H 223.897 -1.92155 -1.71564 0
M  V30 2526 H 223.855 -0.808115 -3.03837 0
M  V30 2527 N 227.627 0.131896 -1.57047 0
M  V30 2528 C 229.038 0.690407 -1.73465 0
M  V30 2529 C 229.389 1.8094 -0.758629 0
M  V30 2530 O 228.514 2.16282 0.0713813 0
M  V30 2531 C 229.109 1.25916 -3.14532 0
M  V30 2532 C 227.668 1.76409 -3.32501 0
M  V30 2533 C 226.815 0.658579 -2.69366 0
M  V30 2534 H 229.766 -0.0939144 -1.58422 0
M  V30 2535 H 229.787 2.12892 -3.15369 0
M  V30 2536 H 229.299 0.444515 -3.85546 0
M  V30 2537 H 227.4 2.60391 -2.66509 0
M  V30 2538 H 227.513 1.88241 -4.4057 0
M  V30 2539 H 225.877 1.08899 -2.30246 0
M  V30 2540 H 226.66 -0.14487 -3.42994 0
M  V30 2541 N 229.106 1.52395 0.401703 0
M  V30 2542 C 230.522 1.41363 0.740864 0
M  V30 2543 C 230.722 0.523982 1.94568 0
M  V30 2544 O 229.778 -0.00741204 2.52499 0
M  V30 2545 C 231.091 2.84011 0.987847 0
M  V30 2546 C 232.639 2.93404 1.09011 0
M  V30 2547 C 233.114 4.37036 1.3698 0
M  V30 2548 N 234.605 4.40304 1.43829 0
M  V30 2549 C 235.34 5.48508 1.67112 0
M  V30 2550 N 234.836 6.66819 1.87949 0
M  V30 2551 N 236.629 5.36034 1.69187 0
M  V30 2552 H 228.78 2.08765 -0.391262 0
M  V30 2553 H 231.043 0.941265 -0.112798 0
M  V30 2554 H 230.749 3.51265 0.174835 0
M  V30 2555 H 230.623 3.25502 1.906 0
M  V30 2556 H 233.01 2.26325 1.8937 0
M  V30 2557 H 233.091 2.55359 0.15015 0
M  V30 2558 H 232.735 5.04676 0.571353 0
M  V30 2559 H 232.665 4.72623 2.3224 0
M  V30 2560 H 235.156 3.55024 1.29486 0
M  V30 2561 H 235.469 7.45063 2.05185 0
M  V30 2562 H 233.814 6.6987 1.85199 0
M  V30 2563 H 237.005 4.42579 1.52451 0
M  V30 2564 H 237.178 6.20434 1.86993 0
M  V30 2565 N 230.584 -0.659388 1.43143 0
M  V30 2566 C 231.833 -1.41518 1.43721 0
M  V30 2567 C 232.146 -1.95499 0.0628176 0
M  V30 2568 O 233.352 -2.71446 -0.0539683 0
M  V30 2569 C 231.808 -2.5608 2.52885 0
M  V30 2570 C 231.416 -2.08733 3.96402 0
M  V30 2571 C 233.16 -3.3349 2.62649 0
M  V30 2572 C 231.067 -3.20469 4.97045 0
M  V30 2573 H 229.997 -0.531705 0.534608 0
M  V30 2574 H 232.648 -0.712343 1.69109 0
M  V30 2575 H 231.03 -3.28805 2.20688 0
M  V30 2576 H 232.204 -1.43059 4.3803 0
M  V30 2577 H 230.519 -1.44219 3.90627 0
M  V30 2578 H 233.116 -4.16734 3.35017 0
M  V30 2579 H 233.459 -3.8111 1.67513 0
M  V30 2580 H 233.992 -2.67842 2.94118 0
M  V30 2581 H 230.731 -2.77824 5.93712 0
M  V30 2582 H 230.251 -3.84874 4.60034 0
M  V30 2583 H 231.93 -3.85698 5.19467 0
M  V30 2584 N 232.062 -1.29571 -0.897171 0
M  V30 2585 C 233.009 -1.14916 -2.00158 0
M  V30 2586 C 233.979 -0.0418149 -1.66047 0
M  V30 2587 O 235.164 -0.209793 -1.89643 0
M  V30 2588 C 232.304 -0.834307 -3.34863 0
M  V30 2589 C 231.417 -2.02234 -3.8174 0
M  V30 2590 C 230.552 -1.64664 -5.05034 0
M  V30 2591 C 229.591 -2.80033 -5.44286 0
M  V30 2592 N 228.728 -2.42843 -6.58765 0
M  V30 2593 H 233.568 -2.09403 -2.12025 0
M  V30 2594 H 231.105 -1.042 -1.0383 0
M  V30 2595 H 233.063 -0.632436 -4.12379 0
M  V30 2596 H 231.693 0.0736656 -3.22716 0
M  V30 2597 H 230.745 -2.33583 -3.00238 0
M  V30 2598 H 232.057 -2.88673 -4.06779 0
M  V30 2599 H 231.211 -1.4078 -5.9014 0
M  V30 2600 H 229.95 -0.753766 -4.8184 0
M  V30 2601 H 228.955 -3.04596 -4.57713 0
M  V30 2602 H 230.18 -3.69989 -5.6946 0
M  V30 2603 H 228.126 -1.56046 -6.3717 0
M  V30 2604 H 228.043 -3.22815 -6.83613 0
M  V30 2605 H 229.311 -2.22285 -7.47134 0
M  V30 2606 N 233.54 1.10788 -1.12088 0
M  V30 2607 C 234.47 2.19083 -0.807755 0
M  V30 2608 C 235.451 1.6858 0.226859 0
M  V30 2609 O 236.636 1.93997 0.0888475 0
M  V30 2610 C 233.766 3.46344 -0.257576 0
M  V30 2611 C 232.72 4.101 -1.22483 0
M  V30 2612 C 232.046 5.32016 -0.535052 0
M  V30 2613 C 233.346 4.54236 -2.57811 0
M  V30 2614 H 235.04 2.45534 -1.71328 0
M  V30 2615 H 232.586 1.1801 -0.825205 0
M  V30 2616 H 234.539 4.21392 -0.0262679 0
M  V30 2617 H 233.263 3.19373 0.683278 0
M  V30 2618 H 231.922 3.37054 -1.44189 0
M  V30 2619 H 231.57 5.01319 0.410827 0
M  V30 2620 H 231.27 5.75625 -1.18024 0
M  V30 2621 H 232.794 6.09799 -0.312695 0
M  V30 2622 H 234.208 5.20575 -2.40155 0
M  V30 2623 H 232.605 5.08682 -3.18375 0
M  V30 2624 H 233.675 3.6734 -3.16528 0
M  V30 2625 N 235.018 0.912232 1.28515 0
M  V30 2626 C 236.267 0.540504 1.94323 0
M  V30 2627 C 236.58 -0.920044 1.72611 0
M  V30 2628 O 237.786 -1.39986 2.32629 0
M  V30 2629 C 236.242 0.915803 3.48053 0
M  V30 2630 C 235.85 2.39598 3.78546 0
M  V30 2631 C 237.594 0.614588 4.20027 0
M  V30 2632 C 235.501 2.71148 5.25578 0
M  V30 2633 H 234.431 0.198418 0.727424 0
M  V30 2634 H 237.082 1.11094 1.46049 0
M  V30 2635 H 235.464 0.274168 3.9505 0
M  V30 2636 H 236.638 3.08422 3.42364 0
M  V30 2637 H 234.953 2.66749 3.1974 0
M  V30 2638 H 237.55 0.827002 5.28266 0
M  V30 2639 H 237.893 -0.447531 4.13887 0
M  V30 2640 H 238.426 1.21462 3.78803 0
M  V30 2641 H 235.165 3.76207 5.36794 0
M  V30 2642 H 234.685 2.0696 5.62963 0
M  V30 2643 H 236.364 2.58072 5.93302 0
M  V30 2644 N 236.496 -1.42363 0.676048 0
M  V30 2645 C 237.773 -1.95183 0.127726 0
M  V30 2646 C 238.153 -1.61641 -1.35777 0
M  V30 2647 O 237.501 -0.913216 -2.09458 0
M  V30 2648 C 237.711 -3.46721 0.398199 0
M  V30 2649 C 239.059 -4.23427 0.315383 0
M  V30 2650 O 240.083 -3.54649 0.332016 0
M  V30 2651 O 238.942 -5.45888 0.25865 0
M  V30 2652 H 236.036 -0.826992 0.00359427 0
M  V30 2653 H 238.582 -1.52184 0.750864 0
M  V30 2654 H 237.354 -3.64344 1.4272 0
M  V30 2655 H 236.977 -3.96769 -0.256885 0
M  V30 2656 N 237.974 -0.419461 -1.51915 0
M  V30 2657 C 239.221 0.152939 -2.01922 0
M  V30 2658 C 239.549 1.4426 -1.30458 0
M  V30 2659 O 238.804 1.91514 -0.402593 0
M  V30 2660 C 239.103 0.437067 -3.54717 0
M  V30 2661 C 238.769 -0.764632 -4.44369 0
M  V30 2662 C 237.431 -1.09423 -4.68594 0
M  V30 2663 C 239.783 -1.56713 -4.97082 0
M  V30 2664 C 237.111 -2.22732 -5.42777 0
M  V30 2665 C 239.463 -2.69107 -5.72507 0
M  V30 2666 C 238.127 -3.02541 -5.95 0
M  V30 2667 H 237.397 0.0559644 -0.738884 0
M  V30 2668 H 240.044 -0.562998 -1.83037 0
M  V30 2669 H 238.349 1.23469 -3.71837 0
M  V30 2670 H 240.046 0.893083 -3.90928 0
M  V30 2671 H 236.636 -0.497775 -4.257 0
M  V30 2672 H 240.82 -1.32571 -4.78266 0
M  V30 2673 H 236.076 -2.48971 -5.58411 0
M  V30 2674 H 240.25 -3.31671 -6.12346 0
M  V30 2675 H 237.877 -3.90457 -6.52264 0
M  V30 2676 N 239.452 1.56882 -0.150215 0
M  V30 2677 C 240.7 1.9584 0.499105 0
M  V30 2678 C 241.021 1.03623 1.65188 0
M  V30 2679 O 240.291 0.0984084 1.95653 0
M  V30 2680 H 238.871 0.723119 0.187373 0
M  V30 2681 H 241.533 1.9358 -0.226466 0
M  V30 2682 H 240.629 2.99638 0.873122 0
M  V30 2683 N 240.93 -0.123565 1.57115 0
M  V30 2684 C 242.179 -0.830704 1.83799 0
M  V30 2685 C 242.492 -1.81259 0.735158 0
M  V30 2686 O 243.698 -2.56558 0.888278 0
M  V30 2687 C 242.154 -1.52802 3.25852 0
M  V30 2688 C 241.762 -0.587356 4.44133 0
M  V30 2689 C 243.506 -2.22056 3.61789 0
M  V30 2690 C 241.413 -1.28764 5.77212 0
M  V30 2691 H 240.343 -0.313967 0.685522 0
M  V30 2692 H 242.994 -0.0834359 1.8331 0
M  V30 2693 H 241.376 -2.32175 3.20797 0
M  V30 2694 H 242.55 0.172829 4.60476 0
M  V30 2695 H 240.865 -0.00201892 4.164 0
M  V30 2696 H 243.462 -2.75131 4.58483 0
M  V30 2697 H 243.805 -2.99644 2.88997 0
M  V30 2698 H 244.338 -1.49576 3.68608 0
M  V30 2699 H 241.077 -0.55314 6.53162 0
M  V30 2700 H 240.597 -2.01995 5.64764 0
M  V30 2701 H 242.276 -1.8221 6.20813 0
M  V30 2702 N 242.408 -1.52605 -0.393616 0
M  V30 2703 C 243.371 -1.76415 -1.46323 0
M  V30 2704 C 244.371 -0.634126 -1.47768 0
M  V30 2705 O 245.561 -0.902142 -1.4902 0
M  V30 2706 C 242.693 -1.8607 -2.85641 0
M  V30 2707 H 243.886 -2.71916 -1.26498 0
M  V30 2708 H 241.439 -1.43257 -0.625073 0
M  V30 2709 H 242.174 -0.925378 -3.10817 0
M  V30 2710 H 241.959 -2.68235 -2.85993 0
M  V30 2711 H 243.449 -2.06179 -3.63153 0
M  V30 2712 N 243.887 0.651787 -1.4349 0
M  V30 2713 C 244.837 1.75783 -1.45205 0
M  V30 2714 C 245.821 1.57679 -0.320328 0
M  V30 2715 O 247.013 1.67767 -0.564211 0
M  V30 2716 C 244.142 3.14377 -1.3792 0
M  V30 2717 C 243.228 3.38023 -2.56127 0
M  V30 2718 N 243.619 3.32135 -3.81471 0
M  V30 2719 C 241.917 3.68747 -2.50882 0
M  V30 2720 C 242.618 3.55902 -4.60118 0
M  V30 2721 N 241.594 3.77783 -3.90872 0
M  V30 2722 H 245.396 1.69657 -2.39987 0
M  V30 2723 H 242.91 0.853508 -1.38163 0
M  V30 2724 H 244.907 3.93666 -1.37231 0
M  V30 2725 H 243.567 3.21683 -0.441596 0
M  V30 2726 H 244.578 3.11515 -4.13738 0
M  V30 2727 H 241.255 3.8316 -1.65816 0
M  V30 2728 H 242.645 3.57116 -5.69138 0
M  V30 2729 N 245.365 1.30045 0.890287 0
M  V30 2730 C 246.312 1.15976 1.99545 0
M  V30 2731 C 247.282 0.0506202 1.66023 0
M  V30 2732 O 248.467 0.219847 1.89529 0
M  V30 2733 C 245.607 0.852054 3.34416 0
M  V30 2734 C 244.72 2.04255 3.80662 0
M  V30 2735 C 243.855 1.6734 5.04154 0
M  V30 2736 C 242.894 2.82916 5.42794 0
M  V30 2737 N 242.031 2.46333 6.57468 0
M  V30 2738 H 246.871 2.10524 2.10911 0
M  V30 2739 H 244.408 1.04749 1.03276 0
M  V30 2740 H 246.366 0.654296 4.12037 0
M  V30 2741 H 244.996 -0.0565502 3.2275 0
M  V30 2742 H 244.048 2.35172 2.98995 0
M  V30 2743 H 245.36 2.90826 4.05242 0
M  V30 2744 H 244.514 1.43908 5.89386 0
M  V30 2745 H 243.253 0.779308 4.81433 0
M  V30 2746 H 242.258 3.0702 4.56091 0
M  V30 2747 H 243.483 3.73004 5.6749 0
M  V30 2748 H 241.429 1.59423 6.36334 0
M  V30 2749 H 241.346 3.26436 6.81891 0
M  V30 2750 H 242.614 2.26244 7.45945 0
M  V30 2751 N 246.843 -1.10192 1.12674 0
M  V30 2752 C 248.092 -1.81573 0.8783 0
M  V30 2753 C 248.405 -1.86249 -0.597557 0
M  V30 2754 O 249.611 -2.5386 -0.962681 0
M  V30 2755 C 248.067 -3.26149 1.52167 0
M  V30 2756 C 247.675 -3.29763 3.03249 0
M  V30 2757 C 249.419 -4.0234 1.3536 0
M  V30 2758 C 247.326 -4.68815 3.60508 0
M  V30 2759 H 246.256 -0.680394 0.324931 0
M  V30 2760 H 248.907 -1.23902 1.35353 0
M  V30 2761 H 247.289 -3.83832 0.974104 0
M  V30 2762 H 248.463 -2.8189 3.6452 0
M  V30 2763 H 246.778 -2.67059 3.19481 0
M  V30 2764 H 249.375 -5.05058 1.75559 0
M  V30 2765 H 249.718 -4.15235 0.297554 0
M  V30 2766 H 250.251 -3.51079 1.87052 0
M  V30 2767 H 246.99 -4.61121 4.65884 0
M  V30 2768 H 246.51 -5.17045 3.04014 0
M  V30 2769 H 248.189 -5.37785 3.59717 0
M  V30 2770 N 248.321 -0.919034 -1.28029 0
M  V30 2771 C 249.231 -0.416756 -2.30869 0
M  V30 2772 C 250.247 0.498235 -1.66714 0
M  V30 2773 O 251.423 0.383144 -1.97722 0
M  V30 2774 C 248.488 0.330274 -3.45123 0
M  V30 2775 C 247.549 -0.618578 -4.2482 0
M  V30 2776 C 246.782 0.0928959 -5.33619 0
M  V30 2777 O 247.005 1.31375 -5.55065 0
M  V30 2778 O 245.939 -0.574499 -5.99152 0
M  V30 2779 H 249.765 -1.27043 -2.75851 0
M  V30 2780 H 247.35 -0.684052 -1.3282 0
M  V30 2781 H 249.232 0.751972 -4.14636 0
M  V30 2782 H 247.907 1.1597 -3.02213 0
M  V30 2783 H 246.814 -1.08978 -3.57875 0
M  V30 2784 H 248.147 -1.41497 -4.71423 0
M  V30 2785 N 249.799 1.42003 -0.683588 0
M  V30 2786 C 250.762 2.29191 -0.0198243 0
M  V30 2787 C 251.762 1.43773 0.72013 0
M  V30 2788 O 252.952 1.65061 0.556815 0
M  V30 2789 C 250.084 3.26435 0.982487 0
M  V30 2790 H 251.277 2.8938 -0.787345 0
M  V30 2791 H 248.83 1.49789 -0.446418 0
M  V30 2792 H 249.565 2.71203 1.77819 0
M  V30 2793 H 249.35 3.89449 0.455182 0
M  V30 2794 H 250.84 3.918 1.44508 0
M  V30 2795 N 251.277 0.427512 1.51691 0
M  V30 2796 C 252.525 -0.141948 2.01601 0
M  V30 2797 C 252.846 -1.44067 1.31414 0
M  V30 2798 O 252.116 -1.90763 0.445658 0
M  V30 2799 H 250.696 -0.0554468 0.744939 0
M  V30 2800 H 253.358 0.567968 1.86441 0
M  V30 2801 H 252.454 -0.324913 3.10404 0
M  V30 2802 N 252.755 -1.56801 0.158532 0
M  V30 2803 C 253.703 -2.18638 -0.793729 0
M  V30 2804 C 254.697 -1.14669 -1.24689 0
M  V30 2805 O 255.903 -1.32895 -1.21403 0
M  V30 2806 H 252.278 -0.700226 -0.274204 0
M  V30 2807 H 254.249 -2.97367 -0.248095 0
M  V30 2808 C 252.998 -2.83139 -2.0181 0
M  V30 2809 H 252.321 -3.62863 -1.67841 0
M  V30 2810 H 253.761 -3.29894 -2.66357 0
M  V30 2811 C 252.22 -1.82244 -2.83353 0
M  V30 2812 O 252.75 -1.3 -3.80083 0
M  V30 2813 N 250.956 -1.51288 -2.48114 0
M  V30 2814 H 250.503 -1.93964 -1.69516 0
M  V30 2815 H 250.461 -0.840296 -3.02963 0
M  V30 2816 N 254.233 0.115231 -1.57178 0
M  V30 2817 C 255.143 1.15994 -2.03918 0
M  V30 2818 C 256.159 1.45103 -0.960268 0
M  V30 2819 O 257.335 1.56144 -1.27204 0
M  V30 2820 C 254.4 2.46568 -2.43732 0
M  V30 2821 C 253.461 2.24822 -3.65723 0
M  V30 2822 C 252.694 3.4917 -4.03629 0
M  V30 2823 O 252.917 4.56623 -3.41835 0
M  V30 2824 O 251.851 3.39949 -4.96708 0
M  V30 2825 H 255.677 0.793019 -2.93164 0
M  V30 2826 H 253.262 0.3263 -1.45793 0
M  V30 2827 H 255.144 3.23492 -2.70057 0
M  V30 2828 H 253.819 2.82726 -1.57631 0
M  V30 2829 H 252.726 1.45744 -3.44542 0
M  V30 2830 H 254.059 1.93566 -4.52541 0
M  V30 2831 N 255.711 1.52812 0.385517 0
M  V30 2832 C 256.958 1.68026 1.1302 0
M  V30 2833 C 257.286 0.421934 1.89868 0
M  V30 2834 O 256.541 -0.595749 1.86412 0
M  V30 2835 C 256.84 2.86856 2.13187 0
M  V30 2836 C 256.506 4.24159 1.5297 0
M  V30 2837 C 255.168 4.61501 1.36274 0
M  V30 2838 C 257.52 5.09627 1.09223 0
M  V30 2839 C 254.848 5.81966 0.743837 0
M  V30 2840 C 257.2 6.30719 0.487411 0
M  V30 2841 C 255.864 6.6679 0.307777 0
M  V30 2842 H 255.134 0.614849 0.413571 0
M  V30 2843 H 257.781 1.86962 0.414405 0
M  V30 2844 H 256.086 2.6235 2.90998 0
M  V30 2845 H 257.783 2.95821 2.70722 0
M  V30 2846 H 254.373 3.94746 1.66954 0
M  V30 2847 H 258.557 4.81343 1.20922 0
M  V30 2848 H 253.813 6.08519 0.592891 0
M  V30 2849 H 257.987 6.96259 0.140143 0
M  V30 2850 H 255.614 7.60001 -0.173879 0
M  V30 2851 N 257.189 -0.644168 1.43834 0
M  V30 2852 C 258.136 -1.75671 1.49694 0
M  V30 2853 C 259.106 -1.6246 0.345809 0
M  V30 2854 O 260.291 -1.82573 0.554234 0
M  V30 2855 C 257.431 -3.13867 1.43463 0
M  V30 2856 C 256.544 -3.38147 2.6885 0
M  V30 2857 C 255.679 -4.66241 2.54544 0
M  V30 2858 C 254.718 -4.83657 3.75157 0
M  V30 2859 N 253.855 -6.03016 3.59605 0
M  V30 2860 H 258.695 -1.69998 2.44754 0
M  V30 2861 H 256.232 -0.829458 1.21484 0
M  V30 2862 H 258.19 -3.9377 1.37843 0
M  V30 2863 H 256.82 -3.18588 0.519783 0
M  V30 2864 H 255.872 -2.52276 2.84712 0
M  V30 2865 H 257.184 -3.46899 3.58417 0
M  V30 2866 H 256.338 -5.54285 2.46683 0
M  V30 2867 H 255.077 -4.59826 1.62516 0
M  V30 2868 H 254.082 -3.94046 3.83416 0
M  V30 2869 H 255.307 -4.91896 4.68204 0
M  V30 2870 H 253.253 -5.97715 2.7032 0
M  V30 2871 H 253.17 -6.12766 4.42779 0
M  V30 2872 H 254.438 -6.93657 3.55613 0
M  V30 2873 N 258.668 -1.30515 -0.883378 0
M  V30 2874 C 259.616 -1.16941 -2.01066 0
M  V30 2875 C 260.61 -0.0809148 -1.69207 0
M  V30 2876 O 261.816 -0.241877 -1.78367 0
M  V30 2877 H 258.191 -0.361705 -0.659298 0
M  V30 2878 H 260.162 -2.12344 -2.09649 0
M  V30 2879 C 258.911 -0.879694 -3.36388 0
M  V30 2880 H 258.234 -1.70936 -3.61415 0
M  V30 2881 H 259.674 -0.82483 -4.159 0
M  V30 2882 C 258.133 0.417409 -3.34304 0
M  V30 2883 O 258.663 1.43843 -3.75063 0
M  V30 2884 N 256.869 0.429141 -2.87414 0
M  V30 2885 H 256.416 -0.402222 -2.5444 0
M  V30 2886 H 256.374 1.29696 -2.86403 0
M  V30 2887 N 260.146 1.09593 -1.13257 0
M  V30 2888 C 261.395 1.81105 -0.887917 0
M  V30 2889 C 261.708 1.86563 0.587672 0
M  V30 2890 O 262.914 2.54367 0.949204 0
M  V30 2891 C 261.37 3.25338 -1.53895 0
M  V30 2892 C 260.978 3.28151 -3.04994 0
M  V30 2893 C 262.722 4.01617 -1.37492 0
M  V30 2894 C 260.629 4.66897 -3.6299 0
M  V30 2895 H 259.559 0.678661 -0.328534 0
M  V30 2896 H 262.21 1.23183 -1.36008 0
M  V30 2897 H 260.592 3.8331 -0.994446 0
M  V30 2898 H 261.766 2.79953 -3.66009 0
M  V30 2899 H 260.081 2.65361 -3.20893 0
M  V30 2900 H 262.678 5.04119 -1.78235 0
M  V30 2901 H 263.021 4.15072 -0.31957 0
M  V30 2902 H 263.554 3.50082 -1.88912 0
M  V30 2903 H 260.293 4.58643 -4.68323 0
M  V30 2904 H 259.813 5.15426 -3.06752 0
M  V30 2905 H 261.492 5.3587 -3.62563 0
M  V30 2906 N 261.624 0.925811 1.2754 0
M  V30 2907 C 262.871 0.565255 1.94451 0
M  V30 2908 C 263.199 -0.89316 1.7278 0
M  V30 2909 O 262.454 -1.65213 1.04895 0
M  V30 2910 C 262.753 0.835296 3.47502 0
M  V30 2911 C 262.419 2.27515 3.89291 0
M  V30 2912 C 261.081 2.66879 4.00411 0
M  V30 2913 C 263.433 3.21158 4.10496 0
M  V30 2914 C 260.761 3.99014 4.30122 0
M  V30 2915 C 263.113 4.52871 4.4169 0
M  V30 2916 C 261.777 4.92072 4.51023 0
M  V30 2917 H 261.047 0.206841 0.711546 0
M  V30 2918 H 263.694 1.16942 1.51647 0
M  V30 2919 H 261.999 0.148442 3.91519 0
M  V30 2920 H 263.696 0.535322 3.97411 0
M  V30 2921 H 260.286 1.95976 3.81171 0
M  V30 2922 H 264.47 2.9195 4.01346 0
M  V30 2923 H 259.726 4.2907 4.35556 0
M  V30 2924 H 263.9 5.25436 4.57045 0
M  V30 2925 H 261.527 5.9449 4.738 0
M  V30 2926 N 263.102 -1.41638 0.69111 0
M  V30 2927 C 264.35 -2.00902 0.219758 0
M  V30 2928 C 264.671 -1.54994 -1.18329 0
M  V30 2929 O 263.941 -0.778628 -1.79762 0
M  V30 2930 H 262.521 -0.74289 0.0782558 0
M  V30 2931 H 265.183 -1.73327 0.891271 0
M  V30 2932 H 264.279 -3.11224 0.233708 0
M  V30 2933 N 264.58 -0.43555 -1.51462 0
M  V30 2934 C 265.808 0.130242 -2.0649 0
M  V30 2935 C 266.223 1.36614 -1.30315 0
M  V30 2936 O 265.58 1.78869 -0.362223 0
M  V30 2937 C 265.631 0.454253 -3.58635 0
M  V30 2938 O 265.352 -0.73259 -4.31931 0
M  V30 2939 C 266.853 1.07091 -4.3017 0
M  V30 2940 H 264.073 0.00871669 -0.670943 0
M  V30 2941 H 266.617 -0.614117 -1.95061 0
M  V30 2942 H 264.772 1.14851 -3.69984 0
M  V30 2943 H 265.186 -0.455787 -5.22516 0
M  V30 2944 H 266.66 1.24764 -5.37716 0
M  V30 2945 H 267.137 2.05144 -3.88346 0
M  V30 2946 H 267.743 0.416089 -4.2326 0
M  V30 2947 N 266.058 1.56714 -0.166846 0
M  V30 2948 C 267.469 1.83378 0.350646 0
M  V30 2949 C 267.82 1.08646 1.63372 0
M  V30 2950 O 266.945 0.338058 2.13743 0
M  V30 2951 C 267.54 3.32643 0.642963 0
M  V30 2952 C 266.099 3.59818 1.10491 0
M  V30 2953 C 265.246 2.76954 0.138411 0
M  V30 2954 H 268.197 1.53803 -0.391193 0
M  V30 2955 H 268.218 3.49878 1.49551 0
M  V30 2956 H 267.73 3.87007 -0.291055 0
M  V30 2957 H 265.831 3.1086 2.05418 0
M  V30 2958 H 265.944 4.68178 1.01716 0
M  V30 2959 H 264.308 2.4666 0.634911 0
M  V30 2960 H 265.091 3.34097 -0.789549 0
M  V30 2961 N 267.536 -0.106894 1.57237 0
M  V30 2962 C 268.446 -1.14911 2.0453 0
M  V30 2963 C 269.462 -1.44592 0.96795 0
M  V30 2964 O 270.638 -1.55468 1.2803 0
M  V30 2965 C 267.703 -2.45272 2.45036 0
M  V30 2966 C 266.764 -2.22879 3.66911 0
M  V30 2967 C 265.997 -3.47024 4.05475 0
M  V30 2968 O 266.22 -4.54804 3.44252 0
M  V30 2969 O 265.154 -3.3731 4.98504 0
M  V30 2970 H 268.98 -0.777461 2.9358 0
M  V30 2971 H 266.565 -0.318563 1.45964 0
M  V30 2972 H 268.447 -3.22055 2.71769 0
M  V30 2973 H 267.122 -2.81886 1.59129 0
M  V30 2974 H 266.029 -1.43915 3.45311 0
M  V30 2975 H 267.362 -1.91163 4.53561 0
M  V30 2976 N 269.014 -1.53014 -0.377408 0
M  V30 2977 C 270.261 -1.68623 -1.12128 0
M  V30 2978 C 270.589 -0.431997 -1.89642 0
M  V30 2979 O 269.844 0.585855 -1.86725 0
M  V30 2980 C 270.143 -2.87982 -2.11663 0
M  V30 2981 C 269.809 -4.24964 -1.50719 0
M  V30 2982 C 268.471 -4.62217 -1.33825 0
M  V30 2983 C 270.823 -5.10199 -1.06519 0
M  V30 2984 C 268.151 -5.82352 -0.712963 0
M  V30 2985 C 270.503 -6.30969 -0.453955 0
M  V30 2986 C 269.167 -6.66944 -0.272411 0
M  V30 2987 H 268.437 -0.617034 -0.410305 0
M  V30 2988 H 271.084 -1.8718 -0.404484 0
M  V30 2989 H 269.389 -2.63889 -2.89603 0
M  V30 2990 H 271.086 -2.97253 -2.6915 0
M  V30 2991 H 267.676 -3.95626 -1.64858 0
M  V30 2992 H 271.86 -4.81978 -1.18368 0
M  V30 2993 H 267.116 -6.08824 -0.560611 0
M  V30 2994 H 271.29 -6.96324 -0.103217 0
M  V30 2995 H 268.917 -7.59898 0.214181 0
M  V30 2996 N 270.492 0.636531 -1.44174 0
M  V30 2997 C 271.738 1.39826 -1.4689 0
M  V30 2998 C 272.071 1.93947 -0.0990585 0
M  V30 2999 O 271.346 1.73325 0.882544 0
M  V30 3000 C 271.629 2.56751 -2.5249 0
M  V30 3001 C 271.482 2.08014 -3.98811 0
M  V30 3002 C 272.801 3.58946 -2.54649 0
M  V30 3003 H 269.92 0.507075 -0.53483 0
M  V30 3004 H 272.562 0.720188 -1.75822 0
M  V30 3005 H 270.712 3.14597 -2.2795 0
M  V30 3006 H 272.384 1.5504 -4.34466 0
M  V30 3007 H 270.627 1.39242 -4.10846 0
M  V30 3008 H 271.298 2.92169 -4.68339 0
M  V30 3009 H 273.774 3.1089 -2.76563 0
M  V30 3010 H 272.65 4.38286 -3.3045 0
M  V30 3011 H 272.911 4.12655 -1.58646 0
M  V30 3012 N 271.97 1.30982 0.876444 0
M  V30 3013 C 272.933 1.18054 1.96459 0
M  V30 3014 C 273.933 0.109399 1.60427 0
M  V30 3015 O 275.123 0.358173 1.70478 0
M  V30 3016 C 272.255 0.810616 3.31122 0
M  V30 3017 H 273.448 2.14735 2.09354 0
M  V30 3018 H 271.001 1.145 1.06392 0
M  V30 3019 H 271.736 -0.155322 3.23928 0
M  V30 3020 H 271.521 1.58481 3.58645 0
M  V30 3021 H 273.011 0.743876 4.10921 0
M  V30 3022 N 273.449 -1.08991 1.13837 0
M  V30 3023 C 274.86 -1.62746 0.914917 0
M  V30 3024 C 275.211 -1.88403 -0.547594 0
M  V30 3025 O 274.336 -1.63706 -1.41525 0
M  V30 3026 C 274.931 -2.95662 1.65437 0
M  V30 3027 C 273.49 -3.46225 1.47666 0
M  V30 3028 C 272.637 -2.20562 1.6807 0
M  V30 3029 H 275.588 -0.922946 1.29102 0
M  V30 3030 H 275.609 -3.63825 1.11407 0
M  V30 3031 H 275.121 -2.76956 2.71877 0
M  V30 3032 H 273.222 -3.70046 0.435478 0
M  V30 3033 H 273.335 -4.23368 2.24268 0
M  V30 3034 H 271.699 -2.29439 1.10589 0
M  V30 3035 H 272.482 -2.0437 2.7584 0
M  V30 3036 N 274.927 -0.932562 -1.27047 0
M  V30 3037 C 275.837 -0.441219 -2.30414 0
M  V30 3038 C 276.853 0.480525 -1.67233 0
M  V30 3039 O 278.029 0.362151 -1.98117 0
M  V30 3040 C 275.094 0.293651 -3.45454 0
M  V30 3041 C 274.155 -0.663601 -4.2414 0
M  V30 3042 C 273.388 0.0362932 -5.33688 0
M  V30 3043 O 273.611 1.2548 -5.56427 0
M  V30 3044 O 272.545 -0.638015 -5.98509 0
M  V30 3045 H 276.371 -1.29962 -2.74488 0
M  V30 3046 H 273.956 -0.6981 -1.32087 0
M  V30 3047 H 275.838 0.707951 -4.15411 0
M  V30 3048 H 274.513 1.12758 -3.03426 0
M  V30 3049 H 273.42 -1.12768 -3.56699 0
M  V30 3050 H 274.753 -1.46489 -4.69896 0
M  V30 3051 N 276.405 1.4127 -0.698611 0
M  V30 3052 C 277.654 2.00408 -0.227949 0
M  V30 3053 C 277.967 1.55981 1.18023 0
M  V30 3054 O 279.173 2.07699 1.74852 0
M  V30 3055 C 277.629 3.58129 -0.356636 0
M  V30 3056 C 277.237 4.11536 -1.77037 0
M  V30 3057 C 278.981 4.24466 0.0540969 0
M  V30 3058 C 276.888 5.61701 -1.85055 0
M  V30 3059 H 275.818 0.749586 -0.0814657 0
M  V30 3060 H 278.469 1.61713 -0.867249 0
M  V30 3061 H 276.851 3.94442 0.350965 0
M  V30 3062 H 278.025 3.86636 -2.50698 0
M  V30 3063 H 276.34 3.57736 -2.13105 0
M  V30 3064 H 278.937 5.34698 0.0146723 0
M  V30 3065 H 279.28 4.01687 1.09332 0
M  V30 3066 H 279.813 3.93198 -0.603337 0
M  V30 3067 H 276.552 5.89312 -2.8704 0
M  V30 3068 H 276.072 5.88519 -1.15783 0
M  V30 3069 H 277.751 6.26524 -1.61484 0
M  V30 3070 N 277.883 0.443576 1.51229 0
M  V30 3071 C 279.129 -0.120975 2.02439 0
M  V30 3072 C 279.462 -1.41815 1.32674 0
M  V30 3073 O 278.737 -1.89373 0.443622 0
M  V30 3074 C 279.02 -0.333291 3.58554 0
M  V30 3075 C 278.873 0.982968 4.38928 0
M  V30 3076 C 280.192 -1.10028 4.26124 0
M  V30 3077 H 277.311 -0.0424923 0.735774 0
M  V30 3078 H 279.953 0.583794 1.80809 0
M  V30 3079 H 278.103 -0.933614 3.77115 0
M  V30 3080 H 279.775 1.61775 4.32003 0
M  V30 3081 H 278.018 1.58611 4.03763 0
M  V30 3082 H 278.689 0.788379 5.46341 0
M  V30 3083 H 281.165 -0.591711 4.11871 0
M  V30 3084 H 280.041 -1.21761 5.35225 0
M  V30 3085 H 280.302 -2.12996 3.87408 0
M  V30 3086 N 279.361 -1.56624 0.175154 0
M  V30 3087 C 280.309 -2.19468 -0.770495 0
M  V30 3088 C 281.303 -1.15985 -1.23466 0
M  V30 3089 O 282.509 -1.34176 -1.19987 0
M  V30 3090 H 278.884 -0.703095 -0.266761 0
M  V30 3091 H 280.855 -2.97613 -0.216542 0
M  V30 3092 C 279.604 -2.85264 -1.98796 0
M  V30 3093 H 278.927 -3.64623 -1.63983 0
M  V30 3094 H 280.367 -3.327 -2.62843 0
M  V30 3095 C 278.826 -1.85239 -2.81404 0
M  V30 3096 O 279.356 -1.34024 -3.78682 0
M  V30 3097 N 277.562 -1.53911 -2.46495 0
M  V30 3098 H 277.109 -1.95751 -1.67449 0
M  V30 3099 H 277.067 -0.872382 -3.02054 0
M  V30 3100 N 280.839 0.0985539 -1.57292 0
M  V30 3101 C 282.069 0.815135 -1.8984 0
M  V30 3102 C 282.477 1.7297 -0.766679 0
M  V30 3103 O 281.82 1.81698 0.270483 0
M  V30 3104 C 281.882 1.6842 -3.17608 0
M  V30 3105 C 281.546 0.94182 -4.4719 0
M  V30 3106 C 282.543 0.273212 -5.19182 0
M  V30 3107 C 280.228 0.916927 -4.9386 0
M  V30 3108 C 282.222 -0.410361 -6.36078 0
M  V30 3109 C 279.909 0.229567 -6.10669 0
M  V30 3110 C 280.907 -0.432902 -6.81627 0
M  V30 3111 O 280.595 -1.10925 -7.9621 0
M  V30 3112 H 280.327 0.238501 -0.632529 0
M  V30 3113 H 282.881 0.0812659 -2.05239 0
M  V30 3114 H 281.111 2.46022 -2.98345 0
M  V30 3115 H 282.8 2.27704 -3.36015 0
M  V30 3116 H 283.566 0.283927 -4.84168 0
M  V30 3117 H 279.445 1.42201 -4.3852 0
M  V30 3118 H 282.989 -0.928013 -6.914 0
M  V30 3119 H 278.886 0.216686 -6.45136 0
M  V30 3120 H 279.654 -1.01579 -8.12172 0
M  V30 3121 N 282.317 1.53212 0.369288 0
M  V30 3122 C 283.227 1.82342 1.47609 0
M  V30 3123 C 284.243 0.711532 1.58787 0
M  V30 3124 O 285.419 1.0012 1.74751 0
M  V30 3125 C 282.484 2.00393 2.8292 0
M  V30 3126 C 281.545 3.24297 2.81301 0
M  V30 3127 C 280.778 3.41478 4.10157 0
M  V30 3128 O 281.001 2.63033 5.06132 0
M  V30 3129 O 279.935 4.34817 4.16194 0
M  V30 3130 H 283.761 2.76366 1.25918 0
M  V30 3131 H 281.346 1.38547 0.559034 0
M  V30 3132 H 283.228 2.13859 3.63101 0
M  V30 3133 H 281.903 1.09559 3.04596 0
M  V30 3134 H 280.81 3.16257 1.99831 0
M  V30 3135 H 282.143 4.15041 2.64578 0
M  V30 3136 N 283.795 -0.628877 1.44509 0
M  V30 3137 C 285.206 -1.21054 1.42137 0
M  V30 3138 C 285.557 -1.95715 0.137881 0
M  V30 3139 O 284.682 -2.02554 -0.761645 0
M  V30 3140 C 285.277 -2.20189 2.57493 0
M  V30 3141 C 283.836 -2.73777 2.58308 0
M  V30 3142 C 282.983 -1.48813 2.33987 0
M  V30 3143 H 285.934 -0.41942 1.53057 0
M  V30 3144 H 285.955 -3.02833 2.30375 0
M  V30 3145 H 285.467 -1.6582 3.50892 0
M  V30 3146 H 283.568 -3.32142 1.68856 0
M  V30 3147 H 283.681 -3.19662 3.56865 0
M  V30 3148 H 282.045 -1.77024 1.83124 0
M  V30 3149 H 282.828 -0.963442 3.29504 0
M  V30 3150 N 285.273 -1.31445 -0.869486 0
M  V30 3151 C 286.203 -1.21727 -1.99261 0
M  V30 3152 C 287.184 -0.104359 -1.6978 0
M  V30 3153 O 288.369 -0.289038 -1.92037 0
M  V30 3154 C 285.499 -0.924317 -3.34774 0
M  V30 3155 C 284.453 -1.99685 -3.78563 0
M  V30 3156 C 283.779 -1.55658 -5.11541 0
M  V30 3157 C 285.079 -3.41003 -3.95619 0
M  V30 3158 H 286.773 -2.1569 -2.07649 0
M  V30 3159 H 284.319 -1.03839 -0.997675 0
M  V30 3160 H 286.272 -0.842934 -4.12883 0
M  V30 3161 H 284.996 0.0509793 -3.2656 0
M  V30 3162 H 283.655 -2.06813 -3.02694 0
M  V30 3163 H 283.303 -0.569132 -4.9977 0
M  V30 3164 H 283.003 -2.27409 -5.41811 0
M  V30 3165 H 284.527 -1.48928 -5.92159 0
M  V30 3166 H 285.941 -3.36547 -4.64122 0
M  V30 3167 H 284.338 -4.10975 -4.37286 0
M  V30 3168 H 285.408 -3.81754 -2.98985 0
M  V30 3169 N 286.751 1.08385 -1.14413 0
M  V30 3170 C 287.999 1.80419 -0.910679 0
M  V30 3171 C 288.32 1.86658 0.564243 0
M  V30 3172 O 287.59 1.35985 1.41014 0
M  V30 3173 H 286.17 0.668204 -0.333934 0
M  V30 3174 H 288.832 1.31037 -1.44275 0
M  V30 3175 H 287.928 2.83238 -1.31082 0
M  V30 3176 N 288.23 0.939286 1.26551 0
M  V30 3177 C 289.16 0.465044 2.28822 0
M  V30 3178 C 290.141 -0.480692 1.63167 0
M  V30 3179 O 291.326 -0.382955 1.90387 0
M  V30 3180 C 288.456 -0.27234 3.46231 0
M  V30 3181 C 287.41 0.58666 4.2396 0
M  V30 3182 C 286.736 -0.280573 5.33963 0
M  V30 3183 C 288.036 1.85704 4.88171 0
M  V30 3184 H 289.73 1.31979 2.68741 0
M  V30 3185 H 287.276 0.636061 1.29191 0
M  V30 3186 H 289.229 -0.615133 4.16886 0
M  V30 3187 H 287.953 -1.16121 3.0526 0
M  V30 3188 H 286.612 0.91232 3.55067 0
M  V30 3189 H 286.26 -1.16874 4.89234 0
M  V30 3190 H 285.96 0.29076 5.8688 0
M  V30 3191 H 287.484 -0.618678 6.07458 0
M  V30 3192 H 288.898 1.58161 5.51052 0
M  V30 3193 H 287.295 2.37279 5.51197 0
M  V30 3194 H 288.365 2.56957 4.11219 0
M  V30 3195 N 289.708 -1.40897 0.706093 0
M  V30 3196 C 290.618 -2.3455 0.0482286 0
M  V30 3197 C 291.634 -1.56796 -0.754396 0
M  V30 3198 O 292.81 -1.89228 -0.689538 0
M  V30 3199 C 289.875 -3.35625 -0.869303 0
M  V30 3200 C 288.936 -4.29261 -0.0576994 0
M  V30 3201 C 288.169 -5.25508 -0.931531 0
M  V30 3202 O 288.392 -5.27472 -2.17092 0
M  V30 3203 O 287.326 -6.00727 -0.375587 0
M  V30 3204 H 291.152 -2.92407 0.820476 0
M  V30 3205 H 288.737 -1.4193 0.4665 0
M  V30 3206 H 290.619 -3.97635 -1.39514 0
M  V30 3207 H 289.294 -2.80196 -1.62086 0
M  V30 3208 H 288.201 -3.70566 0.512988 0
M  V30 3209 H 289.534 -4.87817 0.655426 0
M  V30 3210 N 291.186 -0.45159 -1.50991 0
M  V30 3211 C 292.149 0.341117 -2.26647 0
M  V30 3212 C 293.149 0.937422 -1.30649 0
M  V30 3213 O 294.339 0.809644 -1.54241 0
M  V30 3214 C 291.471 1.48398 -3.06905 0
M  V30 3215 H 292.664 -0.322117 -2.98165 0
M  V30 3216 H 290.217 -0.205122 -1.54948 0
M  V30 3217 H 290.952 2.18284 -2.39838 0
M  V30 3218 H 290.737 1.06241 -3.77432 0
M  V30 3219 H 292.227 2.04367 -3.64176 0
M  V30 3220 N 292.664 1.56529 -0.183458 0
M  V30 3221 C 293.941 1.88959 0.50536 0
M  V30 3222 C 294.321 1.09523 1.80466 0
M  V30 3223 O 293.669 0.19278 2.27685 0
M  V30 3224 C 293.879 3.41162 0.73547 0
M  V30 3225 C 295.227 4.11155 1.06005 0
M  V30 3226 O 296.251 3.46548 0.823594 0
M  V30 3227 O 295.11 5.25318 1.50675 0
M  V30 3228 H 292.204 0.78441 0.261973 0
M  V30 3229 H 294.75 1.68231 -0.222802 0
M  V30 3230 H 293.522 3.90874 -0.182561 0
M  V30 3231 H 293.145 3.67543 1.51651 0
M  V30 3232 N 294.142 -0.090211 1.57342 0
M  V30 3233 C 295.075 -1.14035 1.97664 0
M  V30 3234 C 296.053 -1.38576 0.850616 0
M  V30 3235 O 297.237 -1.52255 1.11134 0
M  V30 3236 C 294.364 -2.48854 2.2976 0
M  V30 3237 C 293.41 -2.40564 3.52181 0
M  V30 3238 S 294.243 -1.81745 5.03715 0
M  V30 3239 C 295.399 -3.18178 5.38993 0
M  V30 3240 H 295.632 -0.796636 2.86428 0
M  V30 3241 H 293.165 -0.298072 1.51496 0
M  V30 3242 H 295.123 -3.26413 2.48927 0
M  V30 3243 H 293.784 -2.80393 1.41558 0
M  V30 3244 H 292.977 -3.39942 3.72096 0
M  V30 3245 H 292.579 -1.71135 3.32549 0
M  V30 3246 H 294.871 -4.14461 5.35937 0
M  V30 3247 H 295.814 -3.03062 6.39968 0
M  V30 3248 H 296.222 -3.17935 4.66452 0
M  V30 3249 N 295.62 -1.53406 -0.361157 0
M  V30 3250 C 296.866 -1.70999 -1.1014 0
M  V30 3251 C 297.221 -0.458425 -1.86859 0
M  V30 3252 O 296.514 0.548654 -1.83577 0
M  V30 3253 C 296.708 -2.90211 -2.08596 0
M  V30 3254 C 296.537 -4.26841 -1.41553 0
M  V30 3255 C 295.307 -4.91621 -1.16778 0
M  V30 3256 C 297.505 -5.07212 -0.850915 0
M  V30 3257 N 295.487 -6.12164 -0.461312 0
M  V30 3258 C 296.858 -6.19394 -0.274046 0
M  V30 3259 C 298.913 -4.92218 -0.750036 0
M  V30 3260 C 297.616 -7.18221 0.393868 0
M  V30 3261 C 299.642 -5.91322 -0.095894 0
M  V30 3262 C 299.004 -7.0283 0.470081 0
M  V30 3263 H 295.103 -0.678939 -0.388028 0
M  V30 3264 H 297.687 -1.90811 -0.38722 0
M  V30 3265 H 295.858 -2.71931 -2.77323 0
M  V30 3266 H 297.59 -2.96606 -2.7533 0
M  V30 3267 H 294.345 -4.50849 -1.45024 0
M  V30 3268 H 294.769 -6.76888 -0.123312 0
M  V30 3269 H 299.411 -4.06192 -1.17337 0
M  V30 3270 H 297.129 -8.03835 0.82914 0
M  V30 3271 H 300.715 -5.81797 -0.0187075 0
M  V30 3272 H 299.595 -7.782 0.968241 0
M  V30 3273 N 297.098 0.621204 -1.44841 0
M  V30 3274 C 298.323 1.41244 -1.51871 0
M  V30 3275 C 298.748 1.87519 -0.147764 0
M  V30 3276 O 298.106 1.59334 0.865 0
M  V30 3277 C 298.154 2.60221 -2.49634 0
M  V30 3278 O 297.258 3.60395 -2.00473 0
M  V30 3279 H 296.599 0.42223 -0.512463 0
M  V30 3280 H 299.129 0.757305 -1.90069 0
M  V30 3281 H 299.139 3.0764 -2.67996 0
M  V30 3282 H 297.814 2.25887 -3.4921 0
M  V30 3283 H 296.391 3.19717 -1.91925 0
M  V30 3284 N 298.576 1.31904 0.862503 0
M  V30 3285 C 299.825 1.21373 1.61094 0
M  V30 3286 C 300.138 -0.22504 1.94301 0
M  V30 3287 O 301.344 -0.452121 2.67709 0
M  V30 3288 C 299.8 2.12525 2.9045 0
M  V30 3289 C 299.408 3.61441 2.64697 0
M  V30 3290 C 301.152 2.10813 3.68454 0
M  V30 3291 C 299.059 4.44578 3.90006 0
M  V30 3292 H 297.989 0.450705 0.604468 0
M  V30 3293 H 300.64 1.56811 0.953027 0
M  V30 3294 H 299.022 1.69994 3.57656 0
M  V30 3295 H 300.196 4.12264 2.05851 0
M  V30 3296 H 298.511 3.65205 2.00036 0
M  V30 3297 H 301.108 2.70167 4.61426 0
M  V30 3298 H 301.451 1.09713 4.01583 0
M  V30 3299 H 301.984 2.51583 3.08141 0
M  V30 3300 H 298.723 5.46461 3.62023 0
M  V30 3301 H 298.243 3.98508 4.48276 0
M  V30 3302 H 299.922 4.57176 4.5782 0
M  V30 3303 N 300.054 -1.07777 1.14986 0
M  V30 3304 C 301.302 -1.79934 0.920235 0
M  V30 3305 C 301.623 -1.86955 -0.554336 0
M  V30 3306 O 300.893 -1.36731 -1.40291 0
M  V30 3307 H 299.473 -0.666424 0.337473 0
M  V30 3308 H 302.135 -1.3027 1.44968 0
M  V30 3309 H 301.231 -2.82539 1.32583 0
M  V30 3310 N 301.532 -0.945985 -1.26051 0
M  V30 3311 C 302.778 -0.597002 -1.93814 0
M  V30 3312 C 303.111 0.862484 -1.73997 0
M  V30 3313 O 302.386 1.61769 -1.07986 0
M  V30 3314 C 302.669 -0.945937 -3.47454 0
M  V30 3315 C 302.522 -2.46052 -3.76535 0
M  V30 3316 C 303.841 -0.464785 -4.37639 0
M  V30 3317 H 300.96 -0.218366 -0.703907 0
M  V30 3318 H 303.602 -1.18107 -1.48831 0
M  V30 3319 H 301.752 -0.448902 -3.85898 0
M  V30 3320 H 303.424 -3.03065 -3.47778 0
M  V30 3321 H 301.667 -2.90194 -3.22444 0
M  V30 3322 H 302.338 -2.65517 -4.83947 0
M  V30 3323 H 304.814 -0.891016 -4.06448 0
M  V30 3324 H 303.69 -0.737712 -5.4392 0
M  V30 3325 H 303.951 0.635274 -4.37512 0
M  V30 3326 N 303.011 1.40521 -0.713556 0
M  V30 3327 C 304.26 2.00155 -0.249192 0
M  V30 3328 C 304.573 1.57224 1.16362 0
M  V30 3329 O 305.779 2.09542 1.72639 0
M  V30 3330 C 304.235 3.5773 -0.3946 0
M  V30 3331 C 303.843 4.09635 -1.81392 0
M  V30 3332 C 305.587 4.24499 0.00907364 0
M  V30 3333 C 303.494 5.59707 -1.91003 0
M  V30 3334 H 302.424 0.74868 -0.0894114 0
M  V30 3335 H 305.075 1.60784 -0.884352 0
M  V30 3336 H 303.457 3.94792 0.30911 0
M  V30 3337 H 304.631 3.83955 -2.54785 0
M  V30 3338 H 302.946 3.55456 -2.16888 0
M  V30 3339 H 305.543 5.34683 -0.0420404 0
M  V30 3340 H 305.886 4.02824 1.05065 0
M  V30 3341 H 306.419 3.92536 -0.645007 0
M  V30 3342 H 303.158 5.86234 -2.93275 0
M  V30 3343 H 302.678 5.87258 -1.22019 0
M  V30 3344 H 304.357 6.24776 -1.6812 0
M  V30 3345 N 304.489 0.459591 1.5075 0
M  V30 3346 C 305.717 -0.0973749 2.06671 0
M  V30 3347 C 306.132 -1.34524 1.32472 0
M  V30 3348 O 305.489 -1.7827 0.390634 0
M  V30 3349 C 305.54 -0.39714 3.59312 0
M  V30 3350 O 305.261 0.801214 4.30711 0
M  V30 3351 C 306.762 -1.00234 4.31819 0
M  V30 3352 H 303.982 0.00195854 0.670997 0
M  V30 3353 H 306.526 0.645072 1.94059 0
M  V30 3354 H 304.681 -1.08951 3.71764 0
M  V30 3355 H 305.095 0.538857 5.21725 0
M  V30 3356 H 306.569 -1.16193 5.39632 0
M  V30 3357 H 307.046 -1.98939 3.91561 0
M  V30 3358 H 307.652 -0.348699 4.23868 0
M  V30 3359 N 305.967 -1.56429 0.191757 0
M  V30 3360 C 307.197 -2.01574 -0.452928 0
M  V30 3361 C 307.605 -1.07107 -1.55964 0
M  V30 3362 O 306.948 -0.067534 -1.83576 0
M  V30 3363 C 307.01 -3.43121 -1.07278 0
M  V30 3364 C 306.674 -4.56879 -0.105214 0
M  V30 3365 C 307.671 -5.15379 0.684149 0
M  V30 3366 C 305.356 -5.023 0.00489824 0
M  V30 3367 C 307.35 -6.17746 1.57062 0
M  V30 3368 C 305.037 -6.04511 0.894935 0
M  V30 3369 C 306.035 -6.62108 1.67637 0
M  V30 3370 O 305.723 -7.62335 2.55149 0
M  V30 3371 H 305.455 -0.665554 -0.118379 0
M  V30 3372 H 308.009 -2.03245 0.296737 0
M  V30 3373 H 306.239 -3.38425 -1.87097 0
M  V30 3374 H 307.928 -3.72093 -1.62177 0
M  V30 3375 H 308.694 -4.81157 0.609365 0
M  V30 3376 H 304.573 -4.57168 -0.593156 0
M  V30 3377 H 308.117 -6.6263 2.181 0
M  V30 3378 H 304.014 -6.38157 0.970847 0
M  V30 3379 H 304.782 -7.79741 2.48892 0
M  V30 3380 N 307.445 0.0818655 -1.57387 0
M  V30 3381 C 308.694 0.781681 -1.85937 0
M  V30 3382 C 309.007 1.79246 -0.782957 0
M  V30 3383 O 310.213 2.54112 -0.955987 0
M  V30 3384 C 308.669 1.44109 -3.29789 0
M  V30 3385 C 308.277 0.469396 -4.45534 0
M  V30 3386 C 310.021 2.12386 -3.67549 0
M  V30 3387 C 307.928 1.13415 -5.80423 0
M  V30 3388 H 306.858 0.295682 -0.693605 0
M  V30 3389 H 309.509 0.0348051 -1.83467 0
M  V30 3390 H 307.891 2.23588 -3.2684 0
M  V30 3391 H 309.065 -0.294856 -4.59856 0
M  V30 3392 H 307.38 -0.108383 -4.16259 0
M  V30 3393 H 309.977 2.62878 -4.65617 0
M  V30 3394 H 310.32 2.91877 -2.96839 0
M  V30 3395 H 310.853 1.39751 -3.72444 0
M  V30 3396 H 307.592 0.379771 -6.54399 0
M  V30 3397 H 307.112 1.8695 -5.69921 0
M  V30 3398 H 308.791 1.65686 -6.25426 0
M  V30 3399 N 308.923 1.53595 0.353017 0
M  V30 3400 C 309.853 1.83902 1.43883 0
M  V30 3401 C 310.834 0.693421 1.55324 0
M  V30 3402 O 312.019 0.944452 1.69687 0
M  V30 3403 C 309.149 2.04016 2.8106 0
M  V30 3404 C 308.103 3.19814 2.84434 0
M  V30 3405 C 307.429 3.25244 4.24406 0
M  V30 3406 C 308.729 4.58133 2.50822 0
M  V30 3407 H 310.423 2.74835 1.1877 0
M  V30 3408 H 307.969 1.32242 0.569917 0
M  V30 3409 H 309.922 2.238 3.57059 0
M  V30 3410 H 308.646 1.09804 3.07588 0
M  V30 3411 H 307.305 2.9987 2.10887 0
M  V30 3412 H 306.953 2.28646 4.48029 0
M  V30 3413 H 306.653 4.03054 4.27576 0
M  V30 3414 H 308.177 3.47228 5.0226 0
M  V30 3415 H 309.591 4.77995 3.16534 0
M  V30 3416 H 307.988 5.38276 2.6529 0
M  V30 3417 H 309.058 4.62387 1.46034 0
M  V30 3418 N 310.401 -0.613514 1.45168 0
M  V30 3419 C 311.331 -1.7354 1.56225 0
M  V30 3420 C 312.312 -1.64981 0.41414 0
M  V30 3421 O 313.497 -1.83472 0.636526 0
M  V30 3422 C 310.627 -3.12128 1.52295 0
M  V30 3423 C 309.581 -3.35491 2.65762 0
M  V30 3424 C 308.907 -4.74291 2.46885 0
M  V30 3425 C 310.207 -3.26325 4.0781 0
M  V30 3426 H 311.901 -1.64543 2.50132 0
M  V30 3427 H 309.447 -0.790185 1.20383 0
M  V30 3428 H 311.4 -3.90404 1.58628 0
M  V30 3429 H 310.124 -3.2195 0.549139 0
M  V30 3430 H 308.783 -2.59603 2.58847 0
M  V30 3431 H 308.431 -4.80839 1.47657 0
M  V30 3432 H 308.131 -4.9088 3.22972 0
M  V30 3433 H 309.655 -5.54775 2.55063 0
M  V30 3434 H 311.069 -3.94483 4.16 0
M  V30 3435 H 309.466 -3.54445 4.8424 0
M  V30 3436 H 310.536 -2.23855 4.30136 0
M  V30 3437 N 311.879 -1.3236 -0.855495 0
M  V30 3438 C 313.104 -1.2601 -1.64731 0
M  V30 3439 C 313.529 0.169068 -1.87339 0
M  V30 3440 O 312.887 1.12016 -1.42556 0
M  V30 3441 C 312.935 -2.02417 -2.98429 0
M  V30 3442 O 312.039 -1.3714 -3.8893 0
M  V30 3443 H 311.38 -0.434325 -0.502253 0
M  V30 3444 H 313.91 -1.74661 -1.06558 0
M  V30 3445 H 313.92 -2.12559 -3.48257 0
M  V30 3446 H 312.595 -3.06343 -2.81295 0
M  V30 3447 H 311.172 -1.3554 -3.47395 0
M  V30 3448 N 313.357 1.07166 -1.15556 0
M  V30 3449 C 314.605 1.79443 -0.929764 0
M  V30 3450 C 314.926 1.87246 0.544414 0
M  V30 3451 O 314.196 1.37473 1.39564 0
M  V30 3452 H 312.776 0.664625 -0.341003 0
M  V30 3453 H 315.438 1.29499 -1.45657 0
M  V30 3454 H 314.534 2.81832 -1.34079 0
M  V30 3455 N 314.835 0.952656 1.25548 0
M  V30 3456 C 315.798 0.475794 2.24207 0
M  V30 3457 C 316.798 -0.419428 1.55234 0
M  V30 3458 O 317.988 -0.216994 1.72843 0
M  V30 3459 C 315.12 -0.312814 3.39462 0
M  V30 3460 H 316.313 1.34779 2.67908 0
M  V30 3461 H 313.866 0.735739 1.37901 0
M  V30 3462 H 314.601 -1.20257 3.01179 0
M  V30 3463 H 314.386 0.329404 3.90714 0
M  V30 3464 H 315.876 -0.635986 4.12729 0
M  V30 3465 N 316.313 -1.40141 0.720998 0
M  V30 3466 C 317.538 -2.05618 0.271258 0
M  V30 3467 C 317.963 -1.53978 -1.08039 0
M  V30 3468 O 317.321 -0.677463 -1.68167 0
M  V30 3469 C 317.369 -3.59609 0.267197 0
M  V30 3470 O 316.473 -4.05526 -0.749814 0
M  V30 3471 H 315.814 -0.651904 0.126162 0
M  V30 3472 H 318.344 -1.79439 0.982997 0
M  V30 3473 H 318.354 -4.0786 0.106744 0
M  V30 3474 H 317.029 -3.96559 1.25354 0
M  V30 3475 H 315.606 -3.68722 -0.556644 0
M  V30 3476 N 317.792 -0.46758 -1.50504 0
M  V30 3477 C 319.203 -0.0116166 -1.86696 0
M  V30 3478 C 319.554 1.39202 -1.38265 0
M  V30 3479 O 318.679 2.0313 -0.746132 0
M  V30 3480 C 319.274 -0.0143044 -3.38797 0
M  V30 3481 C 317.833 0.386175 -3.74414 0
M  V30 3482 C 316.98 -0.401287 -2.74381 0
M  V30 3483 H 319.931 -0.682022 -1.43297 0
M  V30 3484 H 319.952 0.788641 -3.72237 0
M  V30 3485 H 319.464 -1.03602 -3.74016 0
M  V30 3486 H 317.565 1.41237 -3.44794 0
M  V30 3487 H 317.678 0.0899596 -4.79016 0
M  V30 3488 H 316.042 0.144536 -2.5429 0
M  V30 3489 H 316.825 -1.42244 -3.12444 0
M  V30 3490 N 319.27 1.56325 -0.20005 0
M  V30 3491 C 320.517 1.97719 0.437411 0
M  V30 3492 C 320.845 1.08709 1.61284 0
M  V30 3493 O 320.1 0.127261 1.95286 0
M  V30 3494 C 320.399 3.4495 0.935103 0
M  V30 3495 C 320.065 4.5072 -0.12749 0
M  V30 3496 C 318.727 4.79368 -0.419451 0
M  V30 3497 C 321.079 5.14268 -0.847231 0
M  V30 3498 C 318.407 5.68854 -1.43604 0
M  V30 3499 C 320.759 6.04852 -1.85301 0
M  V30 3500 C 319.423 6.31855 -2.15211 0
M  V30 3501 H 318.693 0.723507 0.16006 0
M  V30 3502 H 321.34 1.89166 -0.298056 0
M  V30 3503 H 319.645 3.50599 1.74894 0
M  V30 3504 H 321.342 3.74337 1.43781 0
M  V30 3505 H 317.932 4.28458 0.11023 0
M  V30 3506 H 322.116 4.92222 -0.634901 0
M  V30 3507 H 317.372 5.88047 -1.67364 0
M  V30 3508 H 321.546 6.53152 -2.41591 0
M  V30 3509 H 319.173 7.00994 -2.94129 0
M  V30 3510 N 320.748 -0.0735177 1.57428 0
M  V30 3511 C 321.678 -1.0879 2.06608 0
M  V30 3512 C 322.659 -1.40473 0.959237 0
M  V30 3513 O 323.844 -1.5013 1.23185 0
M  V30 3514 C 320.974 -2.40183 2.50857 0
M  V30 3515 C 319.928 -2.22858 3.65402 0
M  V30 3516 C 319.254 -3.59619 3.957 0
M  V30 3517 C 320.554 -1.65123 4.95511 0
M  V30 3518 H 322.248 -0.678673 2.91607 0
M  V30 3519 H 319.794 -0.325013 1.40284 0
M  V30 3520 H 321.747 -3.11437 2.83874 0
M  V30 3521 H 320.471 -2.83083 1.62885 0
M  V30 3522 H 319.13 -1.54045 3.32664 0
M  V30 3523 H 318.778 -4.00086 3.04861 0
M  V30 3524 H 318.478 -3.48866 4.72828 0
M  V30 3525 H 320.002 -4.32306 4.31212 0
M  V30 3526 H 321.416 -2.26241 5.26771 0
M  V30 3527 H 319.813 -1.65071 5.7695 0
M  V30 3528 H 320.883 -0.612559 4.81015 0
M  V30 3529 N 322.226 -1.5378 -0.344866 0
M  V30 3530 C 323.474 -1.70625 -1.08311 0
M  V30 3531 C 323.795 -0.471447 -1.89215 0
M  V30 3532 O 323.065 0.514616 -1.8902 0
M  V30 3533 H 321.645 -0.629058 -0.402859 0
M  V30 3534 H 324.307 -1.9103 -0.386459 0
M  V30 3535 H 323.403 -2.57656 -1.76124 0
M  V30 3536 N 323.704 0.605807 -1.45491 0
M  V30 3537 C 324.614 1.74466 -1.56839 0
M  V30 3538 C 325.63 1.68006 -0.452772 0
M  V30 3539 O 326.806 1.8833 -0.713708 0
M  V30 3540 C 323.871 3.10931 -1.53371 0
M  V30 3541 C 322.932 3.28832 -2.75986 0
M  V30 3542 C 322.165 4.58787 -2.72673 0
M  V30 3543 O 322.388 5.4122 -1.80102 0
M  V30 3544 O 321.322 4.79438 -3.63899 0
M  V30 3545 H 325.148 1.67843 -2.53106 0
M  V30 3546 H 322.733 0.770108 -1.28022 0
M  V30 3547 H 324.615 3.92233 -1.54051 0
M  V30 3548 H 323.29 3.18042 -0.602572 0
M  V30 3549 H 322.197 2.47112 -2.80867 0
M  V30 3550 H 323.53 3.26599 -3.68231 0
M  V30 3551 N 325.182 1.32811 0.848464 0
M  V30 3552 C 326.41 1.26739 1.63538 0
M  V30 3553 C 326.825 -0.163484 1.88091 0
M  V30 3554 O 326.182 -1.10258 1.45429 0
M  V30 3555 C 326.233 2.03013 2.99112 0
M  V30 3556 O 325.954 3.40518 2.75643 0
M  V30 3557 C 327.455 2.04038 3.93552 0
M  V30 3558 H 324.675 0.437024 0.509167 0
M  V30 3559 H 327.219 1.75033 1.05753 0
M  V30 3560 H 325.374 1.58426 3.53525 0
M  V30 3561 H 325.788 3.79635 3.61908 0
M  V30 3562 H 327.262 2.61877 4.85926 0
M  V30 3563 H 327.739 1.0282 4.26995 0
M  V30 3564 H 328.345 2.486 3.45077 0
M  V30 3565 N 326.66 -1.06551 1.16123 0
M  V30 3566 C 327.607 -2.13961 0.865414 0
M  V30 3567 C 328.577 -1.65066 -0.185055 0
M  V30 3568 O 329.762 -1.90732 -0.05083 0
M  V30 3569 C 326.902 -3.43113 0.369776 0
M  V30 3570 C 326.015 -4.05756 1.48276 0
M  V30 3571 C 325.15 -5.22773 0.942414 0
M  V30 3572 C 324.189 -5.77395 2.03179 0
M  V30 3573 N 323.326 -6.85731 1.50721 0
M  V30 3574 H 328.166 -2.38605 1.78527 0
M  V30 3575 H 325.703 -1.17072 0.890646 0
M  V30 3576 H 327.661 -4.17151 0.0640643 0
M  V30 3577 H 326.291 -3.18695 -0.513143 0
M  V30 3578 H 325.343 -3.29292 1.9045 0
M  V30 3579 H 326.655 -4.42351 2.30493 0
M  V30 3580 H 325.809 -6.03827 0.589729 0
M  V30 3581 H 324.548 -4.87618 0.0895191 0
M  V30 3582 H 323.553 -4.94981 2.3932 0
M  V30 3583 H 324.778 -6.14603 2.8886 0
M  V30 3584 H 322.724 -6.52499 0.676811 0
M  V30 3585 H 322.641 -7.21254 2.26557 0
M  V30 3586 H 323.909 -7.7047 1.18303 0
M  V30 3587 N 328.138 -0.959301 -1.25041 0
M  V30 3588 C 329.07 -0.440543 -2.24926 0
M  V30 3589 C 330.083 0.446131 -1.56568 0
M  V30 3590 O 331.272 0.253657 -1.76689 0
M  V30 3591 C 328.372 0.38412 -3.36716 0
M  V30 3592 C 327.545 -0.490658 -4.34639 0
M  V30 3593 C 326.604 0.276587 -5.25473 0
M  V30 3594 O 325.63 -0.326614 -5.68262 0
M  V30 3595 N 326.832 1.56844 -5.5891 0
M  V30 3596 H 329.597 -1.29931 -2.70071 0
M  V30 3597 H 327.158 -0.830181 -1.38995 0
M  V30 3598 H 329.15 0.905228 -3.94446 0
M  V30 3599 H 327.72 1.14377 -2.90924 0
M  V30 3600 H 326.94 -1.19282 -3.7572 0
M  V30 3601 H 328.228 -1.08756 -4.97041 0
M  V30 3602 H 327.626 2.08036 -5.26059 0
M  V30 3603 H 326.183 2.03541 -6.19205 0
M  V30 3604 N 329.616 1.39756 -0.72842 0
M  V30 3605 C 330.526 2.34444 -0.0855374 0
M  V30 3606 C 331.542 1.57976 0.729356 0
M  V30 3607 O 332.718 1.90301 0.659346 0
M  V30 3608 C 329.783 3.36965 0.815798 0
M  V30 3609 C 328.844 4.29299 -0.0105996 0
M  V30 3610 C 328.077 5.26923 0.84781 0
M  V30 3611 O 328.3 5.30859 2.08673 0
M  V30 3612 O 327.234 6.01249 0.279969 0
M  V30 3613 H 331.06 2.91065 -0.866892 0
M  V30 3614 H 328.645 1.4117 -0.48902 0
M  V30 3615 H 330.527 3.99804 1.33171 0
M  V30 3616 H 329.202 2.82739 1.57608 0
M  V30 3617 H 328.109 3.69703 -0.571877 0
M  V30 3618 H 329.442 4.86712 -0.73295 0
M  V30 3619 N 331.094 0.475555 1.50254 0
M  V30 3620 C 332.322 -0.0754493 2.06762 0
M  V30 3621 C 332.737 -1.33111 1.33891 0
M  V30 3622 O 332.094 -1.77846 0.40952 0
M  V30 3623 C 332.145 -0.359008 3.59713 0
M  V30 3624 O 331.866 0.846851 4.29837 0
M  V30 3625 C 333.367 -0.956484 4.32858 0
M  V30 3626 H 330.587 0.00907525 0.670939 0
M  V30 3627 H 333.131 0.665618 1.93364 0
M  V30 3628 H 331.286 -1.05001 3.72899 0
M  V30 3629 H 331.7 0.594162 5.21124 0
M  V30 3630 H 333.174 -1.10463 5.40834 0
M  V30 3631 H 333.651 -1.94775 3.93649 0
M  V30 3632 H 334.257 -0.303723 4.24214 0
M  V30 3633 N 332.573 -1.56217 0.208337 0
M  V30 3634 C 333.503 -2.22694 -0.702116 0
M  V30 3635 C 334.484 -1.19432 -1.2112 0
M  V30 3636 O 335.669 -1.47978 -1.25762 0
M  V30 3637 C 332.799 -2.8966 -1.9161 0
M  V30 3638 C 331.753 -3.9928 -1.5414 0
M  V30 3639 C 331.079 -4.53476 -2.83308 0
M  V30 3640 C 332.379 -5.17012 -0.741339 0
M  V30 3641 H 334.073 -2.99034 -0.147898 0
M  V30 3642 H 331.619 -1.43831 -0.0696951 0
M  V30 3643 H 333.572 -3.34852 -2.55836 0
M  V30 3644 H 332.296 -2.10746 -2.49507 0
M  V30 3645 H 330.955 -3.54799 -0.922668 0
M  V30 3646 H 330.603 -3.71308 -3.39322 0
M  V30 3647 H 330.303 -5.27451 -2.58976 0
M  V30 3648 H 331.827 -5.01378 -3.485 0
M  V30 3649 H 333.241 -5.58667 -1.28699 0
M  V30 3650 H 331.638 -5.97137 -0.595627 0
M  V30 3651 H 332.708 -4.8423 0.254851 0
M  V30 3652 N 334.051 0.0651679 -1.57465 0
M  V30 3653 C 335.279 0.775808 -1.91804 0
M  V30 3654 C 335.694 1.70782 -0.804916 0
M  V30 3655 O 335.051 1.81153 0.221311 0
M  V30 3656 C 335.102 1.56381 -3.25925 0
M  V30 3657 O 334.823 0.669248 -4.32958 0
M  V30 3658 C 336.324 2.37485 -3.7432 0
M  V30 3659 H 333.544 0.2202 -0.63384 0
M  V30 3660 H 336.088 0.0334587 -2.04473 0
M  V30 3661 H 334.243 2.25837 -3.14764 0
M  V30 3662 H 334.657 1.21801 -5.10162 0
M  V30 3663 H 336.131 2.88223 -4.70778 0
M  V30 3664 H 336.608 3.17307 -3.03666 0
M  V30 3665 H 337.214 1.73173 -3.88447 0
M  V30 3666 N 335.529 1.53961 0.336706 0
M  V30 3667 C 336.477 1.83136 1.43401 0
M  V30 3668 C 337.471 0.702313 1.54156 0
M  V30 3669 O 338.677 0.885765 1.56698 0
M  V30 3670 H 335.052 0.580309 0.478273 0
M  V30 3671 H 337.023 2.74925 1.16012 0
M  V30 3672 C 335.772 2.06385 2.79822 0
M  V30 3673 H 335.095 2.92718 2.72316 0
M  V30 3674 H 336.535 2.30761 3.55704 0
M  V30 3675 C 334.994 0.851414 3.25964 0
M  V30 3676 O 335.524 0.0541904 4.01663 0
M  V30 3677 N 333.73 0.66672 2.82848 0
M  V30 3678 H 333.277 1.31665 2.21409 0
M  V30 3679 H 333.235 -0.143032 3.14074 0
M  V30 3680 N 337.007 -0.598083 1.45811 0
M  V30 3681 C 338.256 -1.35295 1.49594 0
M  V30 3682 C 338.569 -1.95057 0.145679 0
M  V30 3683 O 339.775 -2.71431 0.0612099 0
M  V30 3684 C 338.231 -2.45124 2.63519 0
M  V30 3685 C 337.839 -1.91732 4.04899 0
M  V30 3686 C 339.583 -3.2205 2.76558 0
M  V30 3687 C 337.49 -2.991 5.1019 0
M  V30 3688 H 336.42 -0.508552 0.556679 0
M  V30 3689 H 339.071 -0.639977 1.71978 0
M  V30 3690 H 337.453 -3.19149 2.34435 0
M  V30 3691 H 338.627 -1.24352 4.43704 0
M  V30 3692 H 336.942 -1.27522 3.96393 0
M  V30 3693 H 339.539 -4.0215 3.52391 0
M  V30 3694 H 339.882 -3.73663 1.83526 0
M  V30 3695 H 340.415 -2.55127 3.05213 0
M  V30 3696 H 337.154 -2.52393 6.04961 0
M  V30 3697 H 336.674 -3.65017 4.75944 0
M  V30 3698 H 338.353 -3.63318 5.35359 0
M  V30 3699 N 338.485 -1.33259 -0.841409 0
M  V30 3700 C 339.71 -1.2775 -1.63385 0
M  V30 3701 C 340.135 0.149188 -1.87507 0
M  V30 3702 O 339.493 1.10498 -1.43736 0
M  V30 3703 C 339.541 -2.05571 -2.96265 0
M  V30 3704 O 338.645 -1.41257 -3.87453 0
M  V30 3705 H 337.986 -0.439627 -0.497618 0
M  V30 3706 H 340.516 -1.75782 -1.04699 0
M  V30 3707 H 340.526 -2.16241 -3.45982 0
M  V30 3708 H 339.201 -3.09309 -2.7803 0
M  V30 3709 H 337.778 -1.39217 -3.45938 0
M  V30 3710 N 339.963 1.05934 -1.16686 0
M  V30 3711 C 340.926 2.11669 -0.879144 0
M  V30 3712 C 341.926 1.60294 0.127445 0
M  V30 3713 O 343.116 1.7389 -0.103865 0
M  V30 3714 C 340.248 3.39438 -0.315425 0
M  V30 3715 H 341.441 2.38626 -1.81653 0
M  V30 3716 H 338.994 1.22058 -0.976299 0
M  V30 3717 H 339.729 3.18132 0.629468 0
M  V30 3718 H 339.514 3.78034 -1.04079 0
M  V30 3719 H 341.004 4.17391 -0.132189 0
M  V30 3720 N 341.441 0.965919 1.2453 0
M  V30 3721 C 342.687 0.62776 1.92839 0
M  V30 3722 C 343.02 -0.834694 1.75347 0
M  V30 3723 O 342.295 -1.60031 1.10546 0
M  V30 3724 C 342.578 1.00109 3.45905 0
M  V30 3725 C 342.431 2.52011 3.72573 0
M  V30 3726 C 343.75 0.53435 4.36844 0
M  V30 3727 H 340.869 0.229537 0.700344 0
M  V30 3728 H 343.511 1.2046 1.46933 0
M  V30 3729 H 341.661 0.510238 3.85135 0
M  V30 3730 H 343.333 3.08559 3.42912 0
M  V30 3731 H 341.576 2.95287 3.17786 0
M  V30 3732 H 342.247 2.73183 4.79661 0
M  V30 3733 H 344.723 0.955565 4.04979 0
M  V30 3734 H 343.599 0.824152 5.42678 0
M  V30 3735 H 343.86 -0.565589 4.38467 0
M  V30 3736 N 342.919 -1.39368 0.735821 0
M  V30 3737 C 343.867 -2.32443 0.0855131 0
M  V30 3738 C 344.861 -1.53104 -0.724954 0
M  V30 3739 O 346.067 -1.68762 -0.626047 0
M  V30 3740 H 342.442 -0.751948 0.00885257 0
M  V30 3741 H 344.413 -2.84916 0.886883 0
M  V30 3742 C 343.162 -3.38206 -0.806983 0
M  V30 3743 H 342.485 -3.99335 -0.19274 0
M  V30 3744 H 343.925 -4.05779 -1.2296 0
M  V30 3745 C 342.384 -2.75321 -1.94165 0
M  V30 3746 O 342.914 -2.63231 -3.03435 0
M  V30 3747 N 341.12 -2.33396 -1.73132 0
M  V30 3748 H 340.667 -2.4343 -0.842596 0
M  V30 3749 H 340.625 -1.91661 -2.49225 0
M  V30 3750 N 344.397 -0.483516 -1.5 0
M  V30 3751 C 345.627 0.0643896 -2.065 0
M  V30 3752 C 346.035 1.32949 -1.34615 0
M  V30 3753 O 345.378 1.79003 -0.412756 0
M  V30 3754 C 345.44 0.405983 -3.572 0
M  V30 3755 C 345.104 -0.758875 -4.50655 0
M  V30 3756 C 346.101 -1.64445 -4.93208 0
M  V30 3757 C 343.786 -0.952725 -4.93182 0
M  V30 3758 C 345.78 -2.70818 -5.77006 0
M  V30 3759 C 343.467 -2.01966 -5.76761 0
M  V30 3760 C 344.465 -2.89574 -6.18576 0
M  V30 3761 O 344.153 -3.94429 -7.00486 0
M  V30 3762 H 343.885 -0.00934786 -0.675935 0
M  V30 3763 H 346.439 -0.674959 -1.93993 0
M  V30 3764 H 344.669 1.19869 -3.67652 0
M  V30 3765 H 346.358 0.890433 -3.96013 0
M  V30 3766 H 347.124 -1.50643 -4.61012 0
M  V30 3767 H 343.003 -0.280247 -4.60147 0
M  V30 3768 H 346.547 -3.3923 -6.09565 0
M  V30 3769 H 342.444 -2.1577 -6.0837 0
M  V30 3770 H 343.212 -3.91568 -7.1876 0
M  V30 3771 N 345.875 1.56104 -0.216619 0
M  V30 3772 C 347.152 1.89988 0.465165 0
M  V30 3773 C 347.532 1.13326 1.78102 0
M  V30 3774 O 346.88 0.241033 2.27225 0
M  V30 3775 C 347.09 3.42646 0.662939 0
M  V30 3776 C 348.438 4.13311 0.972602 0
M  V30 3777 O 349.462 3.48217 0.749901 0
M  V30 3778 O 348.321 5.28396 1.39499 0
M  V30 3779 H 345.415 0.78979 0.245276 0
M  V30 3780 H 347.961 1.67721 -0.258436 0
M  V30 3781 H 346.733 3.90399 -0.26543 0
M  V30 3782 H 346.356 3.70677 1.43821 0
M  V30 3783 N 347.353 -0.0568162 1.57498 0
M  V30 3784 C 348.6 -0.753104 1.87975 0
M  V30 3785 C 348.928 -1.76815 0.81035 0
M  V30 3786 O 348.183 -1.94756 -0.19199 0
M  V30 3787 C 348.482 -1.48359 3.25153 0
M  V30 3788 C 348.148 -0.60713 4.46794 0
M  V30 3789 C 346.81 -0.365642 4.79809 0
M  V30 3790 C 349.162 -0.000305978 5.212 0
M  V30 3791 C 346.49 0.491905 5.84634 0
M  V30 3792 C 348.842 0.844781 6.26934 0
M  V30 3793 C 347.506 1.096 6.58441 0
M  V30 3794 H 346.776 -0.27558 0.687849 0
M  V30 3795 H 349.423 -0.0135173 1.91495 0
M  V30 3796 H 347.728 -2.29577 3.17492 0
M  V30 3797 H 349.425 -2.02739 3.45974 0
M  V30 3798 H 346.015 -0.805487 4.20963 0
M  V30 3799 H 350.199 -0.173961 4.95995 0
M  V30 3800 H 345.455 0.695131 6.07436 0
M  V30 3801 H 349.629 1.32165 6.83744 0
M  V30 3802 H 347.256 1.76224 7.39492 0
M  V30 3803 N 348.832 -1.54138 -0.328536 0
M  V30 3804 C 350.109 -1.62749 -1.08499 0
M  V30 3805 C 350.489 -0.458198 -2.06067 0
M  V30 3806 O 349.837 0.548046 -2.2183 0
M  V30 3807 C 350.047 -2.99519 -1.79135 0
M  V30 3808 C 351.395 -3.55394 -2.32337 0
M  V30 3809 O 352.419 -3.01792 -1.89209 0
M  V30 3810 O 351.278 -4.49186 -3.11279 0
M  V30 3811 H 348.372 -0.65886 -0.499832 0
M  V30 3812 H 350.918 -1.66484 -0.328826 0
M  V30 3813 H 349.69 -3.76061 -1.08139 0
M  V30 3814 H 349.313 -2.99441 -2.61574 0
M  V30 3815 N 350.31 0.590341 -1.46126 0
M  V30 3816 C 351.22 1.72793 -1.58681 0
M  V30 3817 C 352.236 1.67516 -0.470566 0
M  V30 3818 O 353.412 1.87562 -0.733642 0
M  V30 3819 C 350.477 3.09287 -1.5666 0
M  V30 3820 C 349.538 3.25886 -2.79458 0
M  V30 3821 C 348.771 4.55869 -2.77524 0
M  V30 3822 O 348.994 5.3928 -1.85832 0
M  V30 3823 O 347.928 4.75552 -3.68964 0
M  V30 3824 H 351.754 1.65149 -2.54872 0
M  V30 3825 H 349.339 0.756486 -1.28832 0
M  V30 3826 H 351.221 3.90577 -1.58202 0
M  V30 3827 H 349.896 3.17385 -0.636271 0
M  V30 3828 H 348.803 2.44119 -2.83472 0
M  V30 3829 H 350.136 3.22675 -3.71674 0
M  V30 3830 N 351.788 1.33704 0.83433 0
M  V30 3831 C 352.698 1.26382 1.97648 0
M  V30 3832 C 353.714 0.173548 1.73132 0
M  V30 3833 O 354.89 0.397962 1.97429 0
M  V30 3834 C 351.955 1.00769 3.31733 0
M  V30 3835 C 351.016 2.1884 3.69334 0
M  V30 3836 C 350.249 1.9444 4.9702 0
M  V30 3837 O 350.472 0.896961 5.63303 0
M  V30 3838 O 349.406 2.81093 5.32231 0
M  V30 3839 H 353.232 2.22444 2.06767 0
M  V30 3840 H 350.817 1.13795 0.968037 0
M  V30 3841 H 352.699 0.882186 4.12062 0
M  V30 3842 H 351.374 0.0773783 3.23608 0
M  V30 3843 H 350.281 2.36946 2.89495 0
M  V30 3844 H 351.614 3.10221 3.82131 0
M  V30 3845 N 353.266 -1.05314 1.17247 0
M  V30 3846 C 354.496 -1.81707 0.983166 0
M  V30 3847 C 354.904 -1.83222 -0.471822 0
M  V30 3848 O 354.247 -1.25721 -1.3394 0
M  V30 3849 C 354.309 -3.29134 1.44606 0
M  V30 3850 C 353.973 -3.51304 2.92292 0
M  V30 3851 C 354.97 -3.4353 3.90235 0
M  V30 3852 C 352.655 -3.78306 3.30439 0
M  V30 3853 C 354.649 -3.62442 5.24323 0
M  V30 3854 C 352.336 -3.96866 4.64694 0
M  V30 3855 C 353.334 -3.88933 5.61445 0
M  V30 3856 O 353.022 -4.06976 6.93272 0
M  V30 3857 H 352.754 -0.579476 0.348114 0
M  V30 3858 H 355.308 -1.33705 1.55924 0
M  V30 3859 H 353.538 -3.78046 0.813537 0
M  V30 3860 H 355.227 -3.87049 1.22262 0
M  V30 3861 H 355.993 -3.22648 3.62109 0
M  V30 3862 H 351.872 -3.83585 2.55702 0
M  V30 3863 H 355.416 -3.56165 5.99827 0
M  V30 3864 H 351.313 -4.1724 4.92525 0
M  V30 3865 H 352.081 -4.24209 6.99992 0
M  V30 3866 N 354.744 -0.972509 -1.24016 0
M  V30 3867 C 355.991 -0.637034 -1.92219 0
M  V30 3868 C 356.319 0.828418 -1.75976 0
M  V30 3869 O 355.574 1.61206 -1.10955 0
M  V30 3870 C 355.873 -0.963694 -3.44162 0
M  V30 3871 C 355.539 -2.41807 -3.80579 0
M  V30 3872 C 354.201 -2.81556 -3.9023 0
M  V30 3873 C 356.553 -3.36172 -3.98293 0
M  V30 3874 C 353.881 -4.14702 -4.15017 0
M  V30 3875 C 356.233 -4.68952 -4.24578 0
M  V30 3876 C 354.897 -5.08472 -4.32449 0
M  V30 3877 H 354.167 -0.233107 -0.703379 0
M  V30 3878 H 356.814 -1.2249 -1.47202 0
M  V30 3879 H 355.119 -0.29365 -3.90698 0
M  V30 3880 H 356.816 -0.682449 -3.9515 0
M  V30 3881 H 353.406 -2.09988 -3.73635 0
M  V30 3882 H 357.59 -3.06644 -3.90234 0
M  V30 3883 H 352.846 -4.4494 -4.19331 0
M  V30 3884 H 357.02 -5.42037 -4.37229 0
M  V30 3885 H 354.647 -6.11665 -4.51409 0
M  V30 3886 N 356.222 1.38976 -0.743202 0
M  V30 3887 C 357.447 2.05161 -0.303936 0
M  V30 3888 C 357.872 1.55677 1.05576 0
M  V30 3889 O 357.23 0.704131 1.67068 0
M  V30 3890 C 357.278 3.59138 -0.324373 0
M  V30 3891 O 356.382 4.06668 0.685204 0
M  V30 3892 H 355.723 0.649815 -0.136518 0
M  V30 3893 H 358.253 1.77852 -1.01142 0
M  V30 3894 H 358.263 4.07639 -0.171618 0
M  V30 3895 H 356.938 3.94515 -1.31647 0
M  V30 3896 H 355.515 3.69561 0.497913 0
M  V30 3897 N 357.7 0.491464 1.49741 0
M  V30 3898 C 358.648 -0.305837 2.30581 0
M  V30 3899 C 359.642 -0.971642 1.38764 0
M  V30 3900 O 360.848 -0.90042 1.5586 0
M  V30 3901 H 357.223 -0.117482 0.742767 0
M  V30 3902 H 359.194 0.396093 2.95759 0
M  V30 3903 C 357.943 -1.36319 3.19863 0
M  V30 3904 H 357.266 -0.860258 3.90435 0
M  V30 3905 H 358.706 -1.89323 3.79385 0
M  V30 3906 C 357.165 -2.37621 2.38826 0
M  V30 3907 O 357.695 -3.43311 2.08567 0
M  V30 3908 N 355.901 -2.09849 2.01026 0
M  V30 3909 H 355.448 -1.23922 2.25834 0
M  V30 3910 H 355.406 -2.77859 1.47112 0
M  V30 3911 N 359.178 -1.55987 0.224894 0
M  V30 3912 C 360.406 -2.02784 -0.410665 0
M  V30 3913 C 360.821 -1.10464 -1.53112 0
M  V30 3914 O 360.178 -0.114871 -1.82138 0
M  V30 3915 C 360.229 -3.49087 -0.939165 0
M  V30 3916 O 359.95 -4.37887 0.136614 0
M  V30 3917 C 361.451 -4.11543 -1.64763 0
M  V30 3918 H 358.671 -0.663484 -0.100148 0
M  V30 3919 H 361.215 -2.01614 0.342326 0
M  V30 3920 H 359.37 -3.50861 -1.64242 0
M  V30 3921 H 359.784 -5.23849 -0.261155 0
M  V30 3922 H 361.258 -5.15673 -1.96939 0
M  V30 3923 H 361.735 -3.56736 -2.56195 0
M  V30 3924 H 362.341 -4.13629 -0.989503 0
M  V30 3925 N 360.656 0.0484629 -1.57525 0
M  V30 3926 C 361.881 0.759177 -1.93006 0
M  V30 3927 C 362.306 1.69125 -0.823317 0
M  V30 3928 O 361.664 1.79931 0.222364 0
M  V30 3929 C 361.712 1.50899 -3.27509 0
M  V30 3930 O 360.816 2.62112 -3.18388 0
M  V30 3931 H 360.157 0.205564 -0.631379 0
M  V30 3932 H 362.687 0.00972959 -2.04598 0
M  V30 3933 H 362.697 1.88317 -3.6194 0
M  V30 3934 H 361.372 0.825269 -4.0763 0
M  V30 3935 H 359.949 2.27379 -2.95556 0
M  V30 3936 N 362.134 1.5431 0.320358 0
M  V30 3937 C 363.044 1.86946 1.41734 0
M  V30 3938 C 364.06 0.761689 1.56443 0
M  V30 3939 O 365.236 1.05629 1.71477 0
M  V30 3940 C 362.301 2.09293 2.76401 0
M  V30 3941 C 361.362 3.33082 2.70841 0
M  V30 3942 C 360.595 3.54353 3.99086 0
M  V30 3943 O 360.818 2.79002 4.97508 0
M  V30 3944 O 359.752 4.47838 4.0215 0
M  V30 3945 H 363.578 2.80232 1.17062 0
M  V30 3946 H 361.163 1.40255 0.514673 0
M  V30 3947 H 363.045 2.25303 3.56113 0
M  V30 3948 H 361.72 1.19194 3.00956 0
M  V30 3949 H 360.627 3.22454 1.89668 0
M  V30 3950 H 361.96 4.23249 2.5124 0
M  V30 3951 N 363.613 -0.582584 1.46437 0
M  V30 3952 C 364.543 -1.70187 1.59871 0
M  V30 3953 C 365.524 -1.64066 0.449042 0
M  V30 3954 O 366.709 -1.82081 0.6753 0
M  V30 3955 C 363.839 -3.08827 1.58881 0
M  V30 3956 C 362.793 -3.29779 2.72819 0
M  V30 3957 C 362.119 -4.68947 2.5689 0
M  V30 3958 C 363.419 -3.17601 4.1464 0
M  V30 3959 H 365.113 -1.592 2.53566 0
M  V30 3960 H 362.659 -0.764472 1.22032 0
M  V30 3961 H 364.612 -3.86951 1.66873 0
M  V30 3962 H 363.336 -3.20713 0.617306 0
M  V30 3963 H 361.995 -2.54054 2.64296 0
M  V30 3964 H 361.643 -4.77599 1.57823 0
M  V30 3965 H 361.343 -4.83919 3.33312 0
M  V30 3966 H 362.867 -5.4924 2.66773 0
M  V30 3967 H 364.281 -3.8557 4.24274 0
M  V30 3968 H 362.678 -3.44094 4.9165 0
M  V30 3969 H 363.748 -2.14681 4.34788 0
M  V30 3970 N 365.091 -1.34144 -0.827227 0
M  V30 3971 C 366.054 -1.25264 -1.91942 0
M  V30 3972 C 367.054 -0.168866 -1.59911 0
M  V30 3973 O 368.244 -0.421198 -1.69031 0
M  V30 3974 C 365.376 -0.932952 -3.27885 0
M  V30 3975 H 366.569 -2.22357 -2.0124 0
M  V30 3976 H 364.122 -1.1837 -1.0207 0
M  V30 3977 H 364.857 0.0349917 -3.24281 0
M  V30 3978 H 364.642 -1.71682 -3.52516 0
M  V30 3979 H 366.132 -0.895874 -4.07877 0
M  V30 3980 N 366.569 1.04691 -1.17803 0
M  V30 3981 C 367.516 2.12557 -0.899343 0
M  V30 3982 C 368.486 1.65339 0.158771 0
M  V30 3983 O 369.671 1.90789 0.0204797 0
M  V30 3984 C 366.811 3.42481 -0.424315 0
M  V30 3985 C 365.924 4.03346 -1.54713 0
M  V30 3986 C 365.059 5.21208 -1.02546 0
M  V30 3987 C 364.098 5.74089 -2.12339 0
M  V30 3988 N 363.235 6.83247 -1.61612 0
M  V30 3989 H 368.075 2.35734 -1.823 0
M  V30 3990 H 365.612 1.1564 -0.909159 0
M  V30 3991 H 367.57 4.16996 -0.130421 0
M  V30 3992 H 366.2 3.19471 0.462377 0
M  V30 3993 H 365.252 3.2622 -1.95664 0
M  V30 3994 H 366.564 4.38628 -2.37501 0
M  V30 3995 H 365.718 6.02812 -0.685718 0
M  V30 3996 H 364.457 4.87414 -0.167084 0
M  V30 3997 H 363.462 4.91111 -2.47165 0
M  V30 3998 H 364.687 6.0993 -2.98601 0
M  V30 3999 H 362.633 6.5134 -0.780533 0
M  V30 4000 H 362.55 7.17559 -2.38003 0
M  V30 4001 H 363.818 7.68491 -1.30545 0
M  V30 4002 N 368.047 0.979072 1.23499 0
M  V30 4003 C 369.324 0.563674 1.87302 0
M  V30 4004 C 369.704 -0.959199 1.88049 0
M  V30 4005 O 369.052 -1.83535 1.36114 0
M  V30 4006 C 369.262 1.16822 3.28867 0
M  V30 4007 C 370.61 1.26014 4.0547 0
M  V30 4008 O 371.634 1.12158 3.38082 0
M  V30 4009 O 370.493 1.48044 5.26066 0
M  V30 4010 H 367.587 0.189602 0.804972 0
M  V30 4011 H 370.133 1.07407 1.31384 0
M  V30 4012 H 368.905 2.21049 3.22883 0
M  V30 4013 H 368.528 0.642564 3.92373 0
M  V30 4014 N 369.525 -1.3858 0.750561 0
M  V30 4015 C 370.772 -2.00184 0.305373 0
M  V30 4016 C 371.1 -1.59575 -1.11203 0
M  V30 4017 O 370.355 -0.823236 -1.77542 0
M  V30 4018 C 370.654 -3.55455 0.372373 0
M  V30 4019 C 370.32 -4.15765 1.745 0
M  V30 4020 C 368.982 -4.31951 2.12065 0
M  V30 4021 C 371.334 -4.49067 2.64553 0
M  V30 4022 C 368.662 -4.78734 3.39162 0
M  V30 4023 C 371.014 -4.97265 3.91038 0
M  V30 4024 C 369.678 -5.11658 4.28676 0
M  V30 4025 H 368.948 -0.732526 0.111744 0
M  V30 4026 H 371.595 -1.65673 0.960451 0
M  V30 4027 H 369.9 -3.90084 -0.366272 0
M  V30 4028 H 371.597 -4.00999 0.00953918 0
M  V30 4029 H 368.187 -4.03579 1.44297 0
M  V30 4030 H 372.371 -4.36166 2.36796 0
M  V30 4031 H 367.627 -4.88062 3.68246 0
M  V30 4032 H 371.801 -5.22003 4.60962 0
M  V30 4033 H 369.428 -5.47668 5.27222 0
M  V30 4034 N 371.003 -0.499398 -1.49478 0
M  V30 4035 C 372.252 0.0475259 -2.01644 0
M  V30 4036 C 372.565 1.38195 -1.38425 0
M  V30 4037 O 373.771 2.01547 -1.8191 0
M  V30 4038 C 372.227 0.135164 -3.59646 0
M  V30 4039 C 371.835 -1.19252 -4.31837 0
M  V30 4040 C 373.579 0.632538 -4.19761 0
M  V30 4041 C 371.486 -1.06713 -5.81693 0
M  V30 4042 H 370.416 0.0215349 -0.753692 0
M  V30 4043 H 373.067 -0.638577 -1.7203 0
M  V30 4044 H 371.449 0.885681 -3.85969 0
M  V30 4045 H 372.623 -1.9562 -4.17216 0
M  V30 4046 H 370.938 -1.62321 -3.83459 0
M  V30 4047 H 373.535 0.743833 -5.29501 0
M  V30 4048 H 373.878 1.63098 -3.83021 0
M  V30 4049 H 374.411 -0.0613987 -3.97753 0
M  V30 4050 H 371.15 -2.03979 -6.22955 0
M  V30 4051 H 370.67 -0.344307 -5.98811 0
M  V30 4052 H 372.349 -0.745208 -6.42694 0
M  V30 4053 N 372.481 1.55866 -0.233164 0
M  V30 4054 C 373.897 1.59133 0.121988 0
M  V30 4055 C 374.097 1.25016 1.58029 0
M  V30 4056 O 373.153 0.990922 2.32243 0
M  V30 4057 C 374.466 2.99932 -0.214792 0
M  V30 4058 C 376.014 3.12601 -0.157971 0
M  V30 4059 C 376.489 4.55597 -0.46859 0
M  V30 4060 N 377.98 4.61305 -0.418585 0
M  V30 4061 C 378.715 5.69903 -0.63227 0
M  V30 4062 N 378.211 6.86819 -0.90835 0
M  V30 4063 N 380.004 5.59264 -0.563913 0
M  V30 4064 H 372.155 1.76315 -1.18434 0
M  V30 4065 H 374.418 0.820093 -0.475553 0
M  V30 4066 H 374.124 3.29588 -1.22739 0
M  V30 4067 H 373.998 3.74327 0.464691 0
M  V30 4068 H 376.385 2.82735 0.845283 0
M  V30 4069 H 376.466 2.40511 -0.871102 0
M  V30 4070 H 376.11 4.86182 -1.46934 0
M  V30 4071 H 376.04 5.25928 0.265865 0
M  V30 4072 H 378.531 3.77297 -0.213368 0
M  V30 4073 H 378.844 7.65507 -1.05919 0
M  V30 4074 H 377.189 6.88536 -0.945673 0
M  V30 4075 H 380.38 4.66802 -0.348372 0
M  V30 4076 H 380.553 6.43831 -0.733847 0
M  V30 4077 N 373.959 -0.0401083 1.57549 0
M  V30 4078 C 375.375 -0.395556 1.54621 0
M  V30 4079 C 375.575 -1.77281 0.957799 0
M  V30 4080 O 374.631 -2.45888 0.574031 0
M  V30 4081 C 375.944 -0.307535 2.99123 0
M  V30 4082 C 377.492 -0.385425 3.10618 0
M  V30 4083 C 377.967 -0.326973 4.56831 0
M  V30 4084 N 379.458 -0.386102 4.61588 0
M  V30 4085 C 380.193 -0.363591 5.72246 0
M  V30 4086 N 379.689 -0.29402 6.92176 0
M  V30 4087 N 381.482 -0.412503 5.60584 0
M  V30 4088 H 373.633 0.861325 1.94152 0
M  V30 4089 H 375.896 0.326445 0.890021 0
M  V30 4090 H 375.602 0.638461 3.45856 0
M  V30 4091 H 375.476 -1.10552 3.60636 0
M  V30 4092 H 377.863 -1.32185 2.63839 0
M  V30 4093 H 377.944 0.44171 2.51957 0
M  V30 4094 H 377.588 0.605738 5.04275 0
M  V30 4095 H 377.518 -1.17207 5.13391 0
M  V30 4096 H 380.009 -0.442832 3.75296 0
M  V30 4097 H 380.322 -0.28164 7.72287 0
M  V30 4098 H 378.667 -0.260232 6.94513 0
M  V30 4099 H 381.858 -0.464769 4.65787 0
M  V30 4100 H 382.031 -0.391492 6.46816 0
M  V30 4101 N 375.437 -1.54477 -0.31217 0
M  V30 4102 C 376.367 -1.87652 -1.38957 0
M  V30 4103 C 377.348 -0.734358 -1.53431 0
M  V30 4104 O 378.533 -0.98911 -1.67123 0
M  V30 4105 C 375.663 -2.11396 -2.75552 0
M  V30 4106 C 374.617 -3.27243 -2.75855 0
M  V30 4107 C 373.943 -3.36382 -4.15633 0
M  V30 4108 C 375.243 -4.64622 -2.38587 0
M  V30 4109 H 376.937 -2.77887 -1.11442 0
M  V30 4110 H 374.483 -1.33707 -0.534655 0
M  V30 4111 H 376.436 -2.33189 -3.51 0
M  V30 4112 H 375.16 -1.17921 -3.04569 0
M  V30 4113 H 373.819 -3.05356 -2.02863 0
M  V30 4114 H 373.467 -2.40445 -4.41809 0
M  V30 4115 H 373.167 -4.14249 -4.1674 0
M  V30 4116 H 374.691 -3.60422 -4.92877 0
M  V30 4117 H 376.105 -4.86219 -3.03749 0
M  V30 4118 H 374.502 -5.45121 -2.50925 0
M  V30 4119 H 375.572 -4.66097 -1.33723 0
M  V30 4120 N 376.915 0.57481 -1.46744 0
M  V30 4121 C 377.845 1.69337 -1.60771 0
M  V30 4122 C 378.826 1.63825 -0.457736 0
M  V30 4123 O 380.011 1.8172 -0.684947 0
M  V30 4124 C 377.141 3.0798 -1.60517 0
M  V30 4125 C 376.095 3.28327 -2.74564 0
M  V30 4126 C 375.421 4.67578 -2.59373 0
M  V30 4127 C 376.721 3.15398 -4.16319 0
M  V30 4128 H 378.415 1.57853 -2.54407 0
M  V30 4129 H 375.961 0.75799 -1.22436 0
M  V30 4130 H 377.914 3.86061 -1.68923 0
M  V30 4131 H 376.638 3.20381 -0.634305 0
M  V30 4132 H 375.297 2.52649 -2.65639 0
M  V30 4133 H 374.945 4.76755 -1.60353 0
M  V30 4134 H 374.645 4.82144 -3.35873 0
M  V30 4135 H 376.169 5.47817 -2.69682 0
M  V30 4136 H 377.583 3.83315 -4.26313 0
M  V30 4137 H 375.98 3.41482 -4.93468 0
M  V30 4138 H 377.05 2.12372 -4.3592 0
M  V30 4139 N 378.394 1.34581 0.820102 0
M  V30 4140 C 379.64 1.27285 1.57881 0
M  V30 4141 C 379.973 -0.156137 1.93571 0
M  V30 4142 O 379.248 -1.10222 1.60254 0
M  V30 4143 C 379.531 2.16639 2.87645 0
M  V30 4144 C 379.384 3.68088 2.58517 0
M  V30 4145 C 380.703 2.05378 3.8924 0
M  V30 4146 H 377.822 0.463714 0.572833 0
M  V30 4147 H 380.464 1.64859 0.944539 0
M  V30 4148 H 378.614 1.84725 3.41773 0
M  V30 4149 H 380.286 4.10382 2.10676 0
M  V30 4150 H 378.529 3.89038 1.91917 0
M  V30 4151 H 379.2 4.2598 3.51063 0
M  V30 4152 H 381.676 2.33404 3.44473 0
M  V30 4153 H 380.552 2.7012 4.77835 0
M  V30 4154 H 380.813 1.0316 4.29896 0
M  V30 4155 N 379.872 -1.04064 1.18357 0
M  V30 4156 C 380.819 -2.12077 0.910603 0
M  V30 4157 C 381.789 -1.65421 -0.15 0
M  V30 4158 O 382.974 -1.90797 -0.0103614 0
M  V30 4159 C 380.114 -3.42252 0.442472 0
M  V30 4160 C 379.227 -4.0252 1.5685 0
M  V30 4161 C 378.362 -5.20657 1.05309 0
M  V30 4162 C 377.401 -5.72955 2.1538 0
M  V30 4163 N 376.538 -6.8238 1.65233 0
M  V30 4164 H 381.378 -2.34764 1.83548 0
M  V30 4165 H 378.915 -1.15157 0.915279 0
M  V30 4166 H 380.873 -4.16921 0.152534 0
M  V30 4167 H 379.503 -3.19712 -0.445428 0
M  V30 4168 H 378.555 -3.25178 1.97391 0
M  V30 4169 H 379.867 -4.37362 2.39824 0
M  V30 4170 H 379.021 -6.0244 0.717677 0
M  V30 4171 H 377.76 -4.87318 0.19293 0
M  V30 4172 H 376.765 -4.89793 2.49766 0
M  V30 4173 H 377.99 -6.08337 3.01832 0
M  V30 4174 H 375.936 -6.50917 0.815064 0
M  V30 4175 H 375.853 -7.16286 2.41805 0
M  V30 4176 H 377.121 -7.67788 1.34619 0
M  V30 4177 N 381.35 -0.985608 -1.22978 0
M  V30 4178 C 382.627 -0.573599 -1.87001 0
M  V30 4179 C 383.007 0.949213 -1.88555 0
M  V30 4180 O 382.355 1.82811 -1.37086 0
M  V30 4181 C 382.565 -1.18564 -3.28243 0
M  V30 4182 C 383.913 -1.28163 -4.04796 0
M  V30 4183 O 384.937 -1.13949 -3.37482 0
M  V30 4184 O 383.796 -1.50832 -5.25273 0
M  V30 4185 H 380.89 -0.193868 -0.803955 0
M  V30 4186 H 383.436 -1.08102 -1.30813 0
M  V30 4187 H 382.208 -2.22758 -3.21706 0
M  V30 4188 H 381.831 -0.663363 -3.92027 0
M  V30 4189 N 382.828 1.3818 -0.7579 0
M  V30 4190 C 384.239 1.82726 -0.383134 0
M  V30 4191 C 384.59 1.63214 1.08884 0
M  V30 4192 O 383.715 1.13566 1.84205 0
M  V30 4193 C 384.31 3.31728 -0.688631 0
M  V30 4194 C 382.869 3.74606 -0.367091 0
M  V30 4195 C 382.016 2.60896 -0.939599 0
M  V30 4196 H 384.967 1.26847 -0.953699 0
M  V30 4197 H 384.988 3.80487 0.0316492 0
M  V30 4198 H 384.5 3.45898 -1.76001 0
M  V30 4199 H 382.601 3.66013 0.697532 0
M  V30 4200 H 382.714 4.71215 -0.865658 0
M  V30 4201 H 381.078 2.52075 -0.3647 0
M  V30 4202 H 381.861 2.77864 -2.0161 0
M  V30 4203 N 384.306 0.507319 1.49211 0
M  V30 4204 C 385.253 -0.267728 2.29242 0
M  V30 4205 C 386.223 -0.954609 1.35928 0
M  V30 4206 O 387.408 -0.960046 1.64887 0
M  V30 4207 C 384.548 -1.32243 3.18756 0
M  V30 4208 C 383.661 -0.64669 4.27132 0
M  V30 4209 C 382.796 -1.68238 5.03855 0
M  V30 4210 C 381.835 -0.98885 6.0406 0
M  V30 4211 N 380.972 -1.96903 6.73924 0
M  V30 4212 H 385.812 0.420968 2.95012 0
M  V30 4213 H 383.349 0.219443 1.45454 0
M  V30 4214 H 385.307 -1.94599 3.69036 0
M  V30 4215 H 383.937 -1.97981 2.54958 0
M  V30 4216 H 382.989 0.0902926 3.80293 0
M  V30 4217 H 384.301 -0.101058 4.98698 0
M  V30 4218 H 383.455 -2.38081 5.58034 0
M  V30 4219 H 382.194 -2.26187 4.32077 0
M  V30 4220 H 381.199 -0.276222 5.49106 0
M  V30 4221 H 382.424 -0.415767 6.77826 0
M  V30 4222 H 380.37 -2.53803 6.04913 0
M  V30 4223 H 380.287 -1.47423 7.41487 0
M  V30 4224 H 381.555 -2.66015 7.32705 0
M  V30 4225 N 385.784 -1.5574 0.241426 0
M  V30 4226 C 387.2 -1.59196 -0.113548 0
M  V30 4227 C 387.4 -1.25852 -1.57364 0
M  V30 4228 O 386.456 -1.00322 -2.31715 0
M  V30 4229 C 387.769 -2.99814 0.230695 0
M  V30 4230 C 389.317 -3.12513 0.174547 0
M  V30 4231 C 389.792 -4.55342 0.492744 0
M  V30 4232 N 391.283 -4.61076 0.443043 0
M  V30 4233 C 392.018 -5.6956 0.662484 0
M  V30 4234 N 391.514 -6.86328 0.944761 0
M  V30 4235 N 393.307 -5.58957 0.593564 0
M  V30 4236 H 385.458 -1.75685 1.19368 0
M  V30 4237 H 387.721 -0.81756 0.479896 0
M  V30 4238 H 387.427 -3.28932 1.24485 0
M  V30 4239 H 387.301 -3.74568 -0.444833 0
M  V30 4240 H 389.688 -2.83179 -0.830277 0
M  V30 4241 H 389.769 -2.40045 0.883845 0
M  V30 4242 H 389.413 -4.85396 1.4951 0
M  V30 4243 H 389.343 -5.26062 -0.23797 0
M  V30 4244 H 391.834 -3.77179 0.233374 0
M  V30 4245 H 392.147 -7.64935 1.09977 0
M  V30 4246 H 390.492 -6.88025 0.982175 0
M  V30 4247 H 393.683 -4.66611 0.373123 0
M  V30 4248 H 393.856 -6.43433 0.767981 0
M  V30 4249 N 387.262 0.0317525 -1.57568 0
M  V30 4250 C 388.678 0.38735 -1.54828 0
M  V30 4251 C 388.878 1.7677 -0.967187 0
M  V30 4252 O 387.934 2.45581 -0.587063 0
M  V30 4253 C 389.247 0.291667 -2.99282 0
M  V30 4254 C 390.795 0.368946 -3.10818 0
M  V30 4255 C 391.27 0.302741 -4.56998 0
M  V30 4256 N 392.761 0.361617 -4.61786 0
M  V30 4257 C 393.496 0.333238 -5.72431 0
M  V30 4258 N 392.992 0.257308 -6.92322 0
M  V30 4259 N 394.785 0.382769 -5.60795 0
M  V30 4260 H 386.936 -0.871609 -1.93692 0
M  V30 4261 H 389.199 -0.331161 -0.888277 0
M  V30 4262 H 388.905 -0.656794 -3.45513 0
M  V30 4263 H 388.779 1.08638 -3.61217 0
M  V30 4264 H 391.166 1.30784 -2.64536 0
M  V30 4265 H 391.247 -0.455066 -2.5172 0
M  V30 4266 H 390.891 -0.632473 -5.03947 0
M  V30 4267 H 390.821 1.14482 -5.14005 0
M  V30 4268 H 393.312 0.422923 -3.75526 0
M  V30 4269 H 393.625 0.24068 -7.72425 0
M  V30 4270 H 391.97 0.223396 -6.94641 0
M  V30 4271 H 395.161 0.44006 -4.66027 0
M  V30 4272 H 395.334 0.357184 -6.47015 0
M  V30 4273 N 388.74 1.54641 0.303973 0
M  V30 4274 C 389.673 1.80263 1.3993 0
M  V30 4275 C 390.651 0.653657 1.48883 0
M  V30 4276 O 391.835 0.893284 1.6599 0
M  V30 4277 C 388.962 1.9367 2.77866 0
M  V30 4278 C 388.008 3.16078 2.86351 0
M  V30 4279 S 388.841 4.74219 2.4875 0
M  V30 4280 C 389.997 4.90558 3.88721 0
M  V30 4281 H 390.23 2.72886 1.17986 0
M  V30 4282 H 387.763 1.46014 0.501918 0
M  V30 4283 H 389.721 2.0208 3.57315 0
M  V30 4284 H 388.382 1.01991 2.9708 0
M  V30 4285 H 387.575 3.22252 3.87517 0
M  V30 4286 H 387.177 3.06099 2.14893 0
M  V30 4287 H 389.469 4.74398 4.83687 0
M  V30 4288 H 390.412 5.92651 3.87518 0
M  V30 4289 H 390.82 4.18728 3.78585 0
M  V30 4290 N 390.218 -0.567019 1.47046 0
M  V30 4291 C 391.446 -1.35027 1.56765 0
M  V30 4292 C 391.861 -1.8758 0.214316 0
M  V30 4293 O 391.218 -1.64471 -0.790919 0
M  V30 4294 C 391.269 -2.52698 2.58507 0
M  V30 4295 O 390.99 -2.0232 3.88585 0
M  V30 4296 C 392.491 -3.45043 2.78316 0
M  V30 4297 H 389.711 -0.41195 0.529658 0
M  V30 4298 H 392.255 -0.687832 1.92585 0
M  V30 4299 H 390.41 -3.149 2.25648 0
M  V30 4300 H 390.824 -2.79068 4.44096 0
M  V30 4301 H 392.298 -4.2405 3.53391 0
M  V30 4302 H 392.775 -3.97971 1.85784 0
M  V30 4303 H 393.381 -2.88665 3.12334 0
M  V30 4304 N 391.696 -1.35014 -0.812953 0
M  V30 4305 C 392.945 -1.27269 -1.56479 0
M  V30 4306 C 393.258 0.152771 -1.95002 0
M  V30 4307 O 394.464 0.352451 -2.69203 0
M  V30 4308 C 392.92 -2.23159 -2.82362 0
M  V30 4309 C 392.528 -3.71016 -2.511 0
M  V30 4310 C 394.272 -2.24342 -3.60376 0
M  V30 4311 C 392.179 -4.58746 -3.73237 0
M  V30 4312 H 391.109 -0.472829 -0.587324 0
M  V30 4313 H 393.76 -1.6024 -0.894171 0
M  V30 4314 H 392.142 -1.83151 -3.51101 0
M  V30 4315 H 393.316 -4.1962 -1.90409 0
M  V30 4316 H 391.631 -3.72378 -1.86343 0
M  V30 4317 H 394.228 -2.87107 -4.51081 0
M  V30 4318 H 394.571 -1.24542 -3.97234 0
M  V30 4319 H 395.104 -2.62846 -2.98591 0
M  V30 4320 H 391.843 -5.59521 -3.41492 0
M  V30 4321 H 391.363 -4.14871 -4.33176 0
M  V30 4322 H 393.042 -4.73852 -4.40537 0
M  V30 4323 N 393.175 1.03435 -1.18907 0
M  V30 4324 C 394.138 2.09756 -0.923844 0
M  V30 4325 C 395.138 1.60528 0.093416 0
M  V30 4326 O 396.328 1.73631 -0.140727 0
M  V30 4327 C 393.46 3.38692 -0.387354 0
M  V30 4328 H 394.653 2.34719 -1.86674 0
M  V30 4329 H 392.206 1.19959 -1.00197 0
M  V30 4330 H 392.941 3.19396 0.561845 0
M  V30 4331 H 392.726 3.75742 -1.12074 0
M  V30 4332 H 394.216 4.17016 -0.220694 0
M  V30 4333 N 394.653 0.992116 1.22453 0
M  V30 4334 C 395.585 0.500024 2.23679 0
M  V30 4335 C 396.598 -0.404463 1.57696 0
M  V30 4336 O 397.787 -0.206722 1.77299 0
M  V30 4337 C 394.887 -0.294711 3.37616 0
M  V30 4338 C 394.06 0.605723 4.33186 0
M  V30 4339 C 393.119 -0.13717 5.26021 0
M  V30 4340 O 392.145 0.477164 5.67196 0
M  V30 4341 N 393.347 -1.4197 5.62872 0
M  V30 4342 H 396.112 1.37045 2.66531 0
M  V30 4343 H 393.673 0.866741 1.36745 0
M  V30 4344 H 395.665 -0.800329 3.96707 0
M  V30 4345 H 394.235 -1.06623 2.93854 0
M  V30 4346 H 393.455 1.29202 3.72425 0
M  V30 4347 H 394.743 1.21896 4.93983 0
M  V30 4348 H 394.141 -1.94015 5.31389 0
M  V30 4349 H 392.698 -1.87052 6.24383 0
M  V30 4350 N 396.131 -1.37776 0.765217 0
M  V30 4351 C 397.356 -2.04651 0.336537 0
M  V30 4352 C 397.781 -1.57337 -1.03086 0
M  V30 4353 O 397.139 -0.730621 -1.65927 0
M  V30 4354 C 397.187 -3.58577 0.381468 0
M  V30 4355 O 396.291 -4.07706 -0.62042 0
M  V30 4356 H 395.632 -0.64756 0.146838 0
M  V30 4357 H 398.162 -1.76221 1.03959 0
M  V30 4358 H 398.172 -4.07314 0.236448 0
M  V30 4359 H 396.847 -3.9237 1.37907 0
M  V30 4360 H 395.424 -3.70306 -0.439056 0
M  V30 4361 N 397.609 -0.515225 -1.4894 0
M  V30 4362 C 398.539 0.244628 -2.32215 0
M  V30 4363 C 399.52 0.949136 -1.41157 0
M  V30 4364 O 400.705 0.937783 -1.70057 0
M  V30 4365 C 397.835 1.30096 -3.22013 0
M  V30 4366 C 396.789 0.715486 -4.21977 0
M  V30 4367 C 396.115 1.87339 -5.00808 0
M  V30 4368 C 397.415 -0.302982 -5.2142 0
M  V30 4369 H 399.109 -0.450501 -2.95991 0
M  V30 4370 H 396.655 -0.218098 -1.42339 0
M  V30 4371 H 398.608 1.84037 -3.79089 0
M  V30 4372 H 397.332 2.02547 -2.56207 0
M  V30 4373 H 395.991 0.197715 -3.66066 0
M  V30 4374 H 395.639 2.58592 -4.31438 0
M  V30 4375 H 395.339 1.48764 -5.68457 0
M  V30 4376 H 396.863 2.41686 -5.60732 0
M  V30 4377 H 398.277 0.148802 -5.73107 0
M  V30 4378 H 396.674 -0.60532 -5.97039 0
M  V30 4379 H 397.744 -1.21395 -4.69459 0
M  V30 4380 N 399.087 1.5561 -0.249682 0
M  V30 4381 C 399.997 2.25143 0.659375 0
M  V30 4382 C 401.013 1.2685 1.19101 0
M  V30 4383 O 402.189 1.59732 1.22669 0
M  V30 4384 C 399.254 2.93945 1.8384 0
M  V30 4385 C 398.315 4.07655 1.34596 0
M  V30 4386 C 397.548 4.73167 2.46878 0
M  V30 4387 O 397.771 4.37768 3.65671 0
M  V30 4388 O 396.705 5.61623 2.16478 0
M  V30 4389 H 400.531 3.03545 0.0968698 0
M  V30 4390 H 398.116 1.49389 -0.018074 0
M  V30 4391 H 399.998 3.37271 2.52638 0
M  V30 4392 H 398.673 2.18481 2.38847 0
M  V30 4393 H 397.58 3.68839 0.625174 0
M  V30 4394 H 398.913 4.84946 0.841941 0
M  V30 4395 N 400.565 -0.0233959 1.57583 0
M  V30 4396 C 401.515 -1.03023 2.03397 0
M  V30 4397 C 402.499 -1.31701 0.924315 0
M  V30 4398 O 403.691 -1.31191 1.18819 0
M  V30 4399 C 400.82 -2.32961 2.52159 0
M  V30 4400 C 399.906 -2.07349 3.69956 0
M  V30 4401 N 400.297 -1.51814 4.82479 0
M  V30 4402 C 398.595 -2.37606 3.77438 0
M  V30 4403 C 399.296 -1.42136 5.64068 0
M  V30 4404 N 398.272 -1.89891 5.09355 0
M  V30 4405 H 402.074 -0.594962 2.87815 0
M  V30 4406 H 399.588 -0.229586 1.60769 0
M  V30 4407 H 401.585 -3.05906 2.83244 0
M  V30 4408 H 400.245 -2.77162 1.69149 0
M  V30 4409 H 401.256 -1.20008 5.03804 0
M  V30 4410 H 397.933 -2.84842 3.05239 0
M  V30 4411 H 399.323 -0.996405 6.64471 0
M  V30 4412 N 402.043 -1.548 -0.295768 0
M  V30 4413 C 403.268 -1.78653 -1.05346 0
M  V30 4414 C 403.693 -0.546894 -1.79974 0
M  V30 4415 O 403.051 0.502763 -1.7419 0
M  V30 4416 C 403.099 -2.99679 -2.00561 0
M  V30 4417 O 402.203 -2.7317 -3.08953 0
M  V30 4418 H 401.544 -0.59116 -0.302367 0
M  V30 4419 H 404.074 -2.01895 -0.331598 0
M  V30 4420 H 404.084 -3.27793 -2.42932 0
M  V30 4421 H 402.759 -3.89562 -1.4565 0
M  V30 4422 H 401.336 -2.56089 -2.71059 0
M  V30 4423 N 403.521 0.559213 -1.47345 0
M  V30 4424 C 404.767 1.31614 -1.55079 0
M  V30 4425 C 405.122 1.91257 -0.209422 0
M  V30 4426 O 404.415 1.74796 0.784656 0
M  V30 4427 C 404.609 2.44853 -2.6035 0
M  V30 4428 C 404.438 1.96305 -4.04591 0
M  V30 4429 C 403.208 1.8024 -4.72061 0
M  V30 4430 C 405.406 1.50872 -4.91673 0
M  V30 4431 N 403.388 1.26011 -6.00828 0
M  V30 4432 C 404.759 1.08395 -6.10451 0
M  V30 4433 C 406.814 1.38905 -4.78132 0
M  V30 4434 C 405.517 0.551399 -7.17183 0
M  V30 4435 C 407.543 0.870518 -5.84958 0
M  V30 4436 C 406.905 0.455661 -7.02925 0
M  V30 4437 H 403.004 0.473712 -0.62219 0
M  V30 4438 H 405.588 0.634103 -1.84085 0
M  V30 4439 H 403.759 3.10589 -2.33215 0
M  V30 4440 H 405.491 3.11849 -2.57938 0
M  V30 4441 H 402.246 2.02895 -4.27937 0
M  V30 4442 H 402.67 1.00991 -6.69425 0
M  V30 4443 H 407.312 1.69591 -3.87297 0
M  V30 4444 H 405.03 0.232159 -8.07766 0
M  V30 4445 H 408.616 0.781507 -5.76527 0
M  V30 4446 H 407.496 0.0606414 -7.84177 0
M  V30 4447 N 404.999 1.35443 0.805782 0
M  V30 4448 C 406.248 1.28097 1.55801 0
M  V30 4449 C 406.561 -0.142428 1.95081 0
M  V30 4450 O 407.767 -0.33817 2.69386 0
M  V30 4451 C 406.223 2.24653 2.81174 0
M  V30 4452 C 405.831 3.72342 2.49129 0
M  V30 4453 C 407.575 2.2625 3.59181 0
M  V30 4454 C 405.482 4.60719 3.70799 0
M  V30 4455 H 404.412 0.475937 0.584808 0
M  V30 4456 H 407.063 1.60712 0.885661 0
M  V30 4457 H 405.445 1.85011 3.50124 0
M  V30 4458 H 406.619 4.20624 1.88181 0
M  V30 4459 H 404.934 3.73361 1.84366 0
M  V30 4460 H 407.531 2.89495 4.49552 0
M  V30 4461 H 407.874 1.26647 3.96568 0
M  V30 4462 H 408.407 2.64426 2.97193 0
M  V30 4463 H 405.146 5.61324 3.3852 0
M  V30 4464 H 404.666 4.17163 4.3097 0
M  V30 4465 H 406.345 4.76182 4.38018 0
M  V30 4466 N 406.477 -1.02803 1.19454 0
M  V30 4467 C 407.424 -2.11099 0.933046 0
M  V30 4468 C 408.394 -1.65571 -0.132447 0
M  V30 4469 O 409.579 -1.90797 0.00987576 0
M  V30 4470 C 406.719 -3.41763 0.478747 0
M  V30 4471 C 405.832 -4.00833 1.6111 0
M  V30 4472 C 404.967 -5.19511 1.10825 0
M  V30 4473 C 404.006 -5.70639 2.21445 0
M  V30 4474 N 403.143 -6.80589 1.72461 0
M  V30 4475 H 407.983 -2.32804 1.86028 0
M  V30 4476 H 405.52 -1.14179 0.927441 0
M  V30 4477 H 407.478 -4.16736 0.196745 0
M  V30 4478 H 406.108 -3.20166 -0.411493 0
M  V30 4479 H 405.16 -3.23066 2.00829 0
M  V30 4480 H 406.472 -4.34794 2.4445 0
M  V30 4481 H 405.626 -6.01645 0.781533 0
M  V30 4482 H 404.365 -4.87086 0.244606 0
M  V30 4483 H 403.37 -4.87116 2.54947 0
M  V30 4484 H 404.595 -6.05102 3.08267 0
M  V30 4485 H 402.541 -6.50016 0.884056 0
M  V30 4486 H 402.458 -7.13681 2.49389 0
M  V30 4487 H 403.726 -7.66317 1.42755 0
M  V30 4488 N 407.956 -0.998596 -1.21925 0
M  V30 4489 C 408.919 -0.558679 -2.22287 0
M  V30 4490 C 409.919 0.361525 -1.56683 0
M  V30 4491 O 411.109 0.152695 -1.73529 0
M  V30 4492 C 408.241 0.18661 -3.40389 0
M  V30 4493 H 409.434 -1.4463 -2.62721 0
M  V30 4494 H 406.987 -0.786413 -1.35075 0
M  V30 4495 H 407.722 1.08996 -3.05435 0
M  V30 4496 H 407.507 -0.474188 -3.89222 0
M  V30 4497 H 408.997 0.482367 -4.14805 0
M  V30 4498 N 409.434 1.37368 -0.772513 0
M  V30 4499 C 410.683 1.98918 -0.333861 0
M  V30 4500 C 410.996 1.62017 1.09589 0
M  V30 4501 O 412.202 2.16676 1.63596 0
M  V30 4502 C 410.658 3.55735 -0.545971 0
M  V30 4503 C 410.266 4.01573 -1.98603 0
M  V30 4504 C 412.01 4.24156 -0.170979 0
M  V30 4505 C 409.917 5.51102 -2.1457 0
M  V30 4506 H 408.847 0.744214 -0.121085 0
M  V30 4507 H 411.498 1.56888 -0.95175 0
M  V30 4508 H 409.88 3.95748 0.141387 0
M  V30 4509 H 411.054 3.72803 -2.7084 0
M  V30 4510 H 409.369 3.45937 -2.31769 0
M  V30 4511 H 411.966 5.34024 -0.26878 0
M  V30 4512 H 412.309 4.06917 0.878855 0
M  V30 4513 H 412.842 3.89447 -0.810914 0
M  V30 4514 H 409.581 5.73268 -3.17875 0
M  V30 4515 H 409.101 5.81554 -1.46817 0
M  V30 4516 H 410.78 6.17083 -1.94468 0
M  V30 4517 N 410.912 0.523116 1.48665 0
M  V30 4518 C 412.328 0.180511 1.58576 0
M  V30 4519 C 412.528 -1.31597 1.52592 0
M  V30 4520 O 411.584 -2.0937 1.4114 0
M  V30 4521 C 412.897 0.776949 2.90489 0
M  V30 4522 C 414.445 0.745058 3.04003 0
M  V30 4523 C 414.92 1.31995 4.38567 0
M  V30 4524 N 416.411 1.28162 4.45117 0
M  V30 4525 C 417.146 1.6964 5.47731 0
M  V30 4526 N 416.642 2.18816 6.57337 0
M  V30 4527 N 418.435 1.6092 5.38573 0
M  V30 4528 H 410.586 1.4958 1.50797 0
M  V30 4529 H 412.849 0.621772 0.715614 0
M  V30 4530 H 412.555 1.82732 3.00503 0
M  V30 4531 H 412.429 0.25007 3.7637 0
M  V30 4532 H 414.816 -0.296532 2.93606 0
M  V30 4533 H 414.897 1.30933 2.1975 0
M  V30 4534 H 414.541 2.36043 4.49718 0
M  V30 4535 H 414.471 0.731418 5.21496 0
M  V30 4536 H 416.962 0.92155 3.66491 0
M  V30 4537 H 417.275 2.48478 7.31764 0
M  V30 4538 H 415.62 2.22805 6.58318 0
M  V30 4539 H 418.811 1.22304 4.5184 0
M  V30 4540 H 418.984 1.93567 6.18414 0
M  V30 4541 N 412.39 -1.55475 0.257931 0
M  V30 4542 C 413.806 -1.59307 -0.0966563 0
M  V30 4543 C 414.006 -1.27514 -1.5602 0
M  V30 4544 O 413.062 -1.02774 -2.30637 0
M  V30 4545 C 414.375 -2.99552 0.262481 0
M  V30 4546 C 415.923 -3.1231 0.207683 0
M  V30 4547 C 416.398 -4.54793 0.541012 0
M  V30 4548 N 417.889 -4.6058 0.491921 0
M  V30 4549 C 418.624 -5.68825 0.722857 0
M  V30 4550 N 418.12 -6.85287 1.0175 0
M  V30 4551 N 419.913 -5.58296 0.652815 0
M  V30 4552 H 412.064 -1.74409 1.21224 0
M  V30 4553 H 414.327 -0.812424 0.48854 0
M  V30 4554 H 414.033 -3.27593 1.27967 0
M  V30 4555 H 413.907 -3.75019 -0.40508 0
M  V30 4556 H 416.294 -2.84044 -0.800195 0
M  V30 4557 H 416.375 -2.39095 0.909255 0
M  V30 4558 H 416.019 -4.83783 1.5465 0
M  V30 4559 H 415.949 -5.26285 -0.18216 0
M  V30 4560 H 418.44 -3.7691 0.273366 0
M  V30 4561 H 418.753 -7.63725 1.18084 0
M  V30 4562 H 417.098 -6.86945 1.05509 0
M  V30 4563 H 420.289 -4.66189 0.422592 0
M  V30 4564 H 420.462 -6.42582 0.836182 0
M  V30 4565 N 413.868 0.0150385 -1.57593 0
M  V30 4566 C 415.284 0.370907 -1.5523 0
M  V30 4567 C 415.484 1.75735 -0.985882 0
M  V30 4568 O 414.54 2.44944 -0.613077 0
M  V30 4569 C 415.853 0.259908 -2.99575 0
M  V30 4570 C 417.401 0.335959 -3.11192 0
M  V30 4571 C 417.876 0.254253 -4.57294 0
M  V30 4572 N 419.367 0.312618 -4.62144 0
M  V30 4573 C 420.102 0.272505 -5.72752 0
M  V30 4574 N 419.598 0.183864 -6.92556 0
M  V30 4575 N 421.391 0.323267 -5.6117 0
M  V30 4576 H 413.542 -0.892104 -1.92757 0
M  V30 4577 H 415.805 -0.340563 -0.884715 0
M  V30 4578 H 415.511 -0.693403 -3.44797 0
M  V30 4579 H 415.385 1.048 -3.62349 0
M  V30 4580 H 417.772 1.27971 -2.65909 0
M  V30 4581 H 417.853 -0.481739 -2.51223 0
M  V30 4582 H 417.497 -0.685887 -5.03247 0
M  V30 4583 H 417.427 1.09024 -5.15191 0
M  V30 4584 H 419.918 0.38307 -3.75953 0
M  V30 4585 H 420.231 0.15874 -7.72637 0
M  V30 4586 H 418.576 0.149708 -6.94839 0
M  V30 4587 H 421.767 0.390607 -4.66467 0
M  V30 4588 H 421.94 0.288539 -6.47357 0
M  V30 4589 N 415.346 1.54954 0.287554 0
M  V30 4590 C 416.294 1.87606 1.37502 0
M  V30 4591 C 417.288 0.751001 1.51843 0
M  V30 4592 O 418.494 0.935169 1.53801 0
M  V30 4593 H 414.869 0.595231 0.459569 0
M  V30 4594 H 416.84 2.78477 1.07206 0
M  V30 4595 C 415.589 2.15183 2.73115 0
M  V30 4596 H 414.912 3.01234 2.62866 0
M  V30 4597 H 416.352 2.4196 3.48183 0
M  V30 4598 C 414.811 0.954686 3.2309 0
M  V30 4599 O 415.341 0.181949 4.01288 0
M  V30 4600 N 413.547 0.756368 2.80584 0
M  V30 4601 H 413.094 1.38643 2.17108 0
M  V30 4602 H 413.052 -0.0430391 3.14371 0
M  V30 4603 N 416.824 -0.551391 1.4764 0
M  V30 4604 C 418.07 -1.31024 1.54792 0
M  V30 4605 C 418.403 -1.9304 0.211967 0
M  V30 4606 O 417.678 -1.78175 -0.77999 0
M  V30 4607 C 417.961 -2.41593 2.67029 0
M  V30 4608 C 417.814 -1.84408 4.10261 0
M  V30 4609 C 419.133 -3.43488 2.75143 0
M  V30 4610 H 416.252 -0.475031 0.563485 0
M  V30 4611 H 418.894 -0.616454 1.79722 0
M  V30 4612 H 417.044 -3.00772 2.45904 0
M  V30 4613 H 418.716 -1.29445 4.42766 0
M  V30 4614 H 416.959 -1.15051 4.18265 0
M  V30 4615 H 417.63 -2.64367 4.84576 0
M  V30 4616 H 420.106 -2.94236 2.94218 0
M  V30 4617 H 418.982 -4.18274 3.55441 0
M  V30 4618 H 419.243 -4.02703 1.82435 0
M  V30 4619 N 418.302 -1.35869 -0.798587 0
M  V30 4620 C 419.718 -1.16082 -1.09532 0
M  V30 4621 C 419.918 0.0213124 -2.01489 0
M  V30 4622 O 418.974 0.689488 -2.42904 0
M  V30 4623 C 420.287 -2.46748 -1.7186 0
M  V30 4624 C 421.835 -2.53028 -1.84244 0
M  V30 4625 C 422.31 -3.83758 -2.49988 0
M  V30 4626 N 423.801 -3.85053 -2.57465 0
M  V30 4627 C 424.536 -4.8294 -3.09122 0
M  V30 4628 N 424.032 -5.91217 -3.61157 0
M  V30 4629 N 425.825 -4.70369 -3.0775 0
M  V30 4630 H 417.976 -2.11571 -0.187461 0
M  V30 4631 H 420.239 -0.936726 -0.145765 0
M  V30 4632 H 419.945 -3.33471 -1.11759 0
M  V30 4633 H 419.819 -2.61883 -2.71472 0
M  V30 4634 H 422.206 -1.66729 -2.43486 0
M  V30 4635 H 422.287 -2.418 -0.834643 0
M  V30 4636 H 421.931 -4.70459 -1.91393 0
M  V30 4637 H 421.861 -3.92278 -3.5132 0
M  V30 4638 H 424.352 -3.06822 -2.20609 0
M  V30 4639 H 424.665 -6.61892 -3.98896 0
M  V30 4640 H 423.01 -5.94899 -3.59333 0
M  V30 4641 H 426.201 -3.84914 -2.66381 0
M  V30 4642 H 426.374 -5.46816 -3.47701 0
M  V30 4643 N 419.78 1.02168 -1.19998 0
M  V30 4644 C 421.028 1.75338 -1.00504 0
M  V30 4645 C 421.349 1.89387 0.464506 0
M  V30 4646 O 420.619 1.43268 1.33608 0
M  V30 4647 H 419.199 0.649564 -0.368885 0
M  V30 4648 H 421.861 1.23205 -1.51018 0
M  V30 4649 H 420.957 2.75892 -1.45912 0
M  V30 4650 N 421.258 1.00505 1.21394 0
M  V30 4651 C 422.168 0.574806 2.27449 0
M  V30 4652 C 423.184 -0.382206 1.6975 0
M  V30 4653 O 424.36 -0.246027 1.99892 0
M  V30 4654 C 421.425 -0.0917414 3.46579 0
M  V30 4655 C 420.486 0.909758 4.1955 0
M  V30 4656 C 419.719 0.274924 5.32991 0
M  V30 4657 O 419.942 -0.928254 5.62796 0
M  V30 4658 O 418.876 0.985877 5.93771 0
M  V30 4659 H 422.702 1.45744 2.66444 0
M  V30 4660 H 420.287 0.773923 1.27792 0
M  V30 4661 H 422.169 -0.464551 4.18832 0
M  V30 4662 H 420.844 -0.948755 3.09484 0
M  V30 4663 H 419.751 1.33372 3.49518 0
M  V30 4664 H 421.084 1.73636 4.60555 0
M  V30 4665 N 422.737 -1.36956 0.779787 0
M  V30 4666 C 424.014 -1.93697 0.272156 0
M  V30 4667 C 424.394 -1.71267 -1.23413 0
M  V30 4668 O 423.742 -1.06607 -2.02107 0
M  V30 4669 C 423.952 -3.42812 0.654291 0
M  V30 4670 C 425.3 -4.19921 0.628602 0
M  V30 4671 O 426.324 -3.51209 0.594172 0
M  V30 4672 O 425.183 -5.42465 0.662864 0
M  V30 4673 H 422.277 -0.824447 0.0649286 0
M  V30 4674 H 424.823 -1.46196 0.861682 0
M  V30 4675 H 423.595 -3.52754 1.69353 0
M  V30 4676 H 423.218 -3.97582 0.0381369 0
M  V30 4677 N 424.215 -0.530993 -1.48385 0
M  V30 4678 C 425.44 0.000729535 -2.074 0
M  V30 4679 C 425.865 1.27298 -1.3848 0
M  V30 4680 O 425.223 1.75599 -0.451081 0
M  V30 4681 C 425.271 0.206697 -3.60007 0
M  V30 4682 O 424.375 1.27514 -3.92191 0
M  V30 4683 H 423.716 -0.039583 -0.662819 0
M  V30 4684 H 426.246 -0.739194 -1.9078 0
M  V30 4685 H 426.256 0.42904 -4.05738 0
M  V30 4686 H 424.931 -0.722675 -4.09573 0
M  V30 4687 H 423.508 1.03537 -3.58238 0
M  V30 4688 N 425.693 1.55336 -0.266172 0
M  V30 4689 C 426.941 1.99003 0.35246 0
M  V30 4690 C 427.262 1.15591 1.57047 0
M  V30 4691 O 426.532 0.243268 1.94384 0
M  V30 4692 H 425.112 0.735025 0.133217 0
M  V30 4693 H 427.774 1.91367 -0.369434 0
M  V30 4694 H 426.87 3.05289 0.648453 0
M  V30 4695 N 427.171 -0.0066808 1.57599 0
M  V30 4696 C 428.587 -0.36267 1.55425 0
M  V30 4697 C 428.787 -1.75209 0.995187 0
M  V30 4698 O 427.843 -2.44616 0.626058 0
M  V30 4699 C 429.156 -0.244017 2.99708 0
M  V30 4700 C 430.704 -0.319451 3.11366 0
M  V30 4701 C 431.179 -0.229998 4.57422 0
M  V30 4702 N 432.67 -0.288105 4.62303 0
M  V30 4703 C 433.405 -0.242127 5.72889 0
M  V30 4704 N 432.901 -0.147133 6.92644 0
M  V30 4705 N 434.694 -0.293502 5.61333 0
M  V30 4706 H 426.845 0.902314 1.92281 0
M  V30 4707 H 429.108 0.34525 0.882896 0
M  V30 4708 H 428.814 0.711678 3.44424 0
M  V30 4709 H 428.688 -1.02877 3.629 0
M  V30 4710 H 431.075 -1.26559 2.66584 0
M  V30 4711 H 431.156 0.495055 2.50964 0
M  V30 4712 H 430.8 0.712566 5.02877 0
M  V30 4713 H 430.73 -1.0629 5.15761 0
M  V30 4714 H 433.221 -0.363126 3.76151 0
M  V30 4715 H 433.534 -0.117763 7.7271 0
M  V30 4716 H 431.879 -0.112857 6.94908 0
M  V30 4717 H 435.07 -0.365864 4.66668 0
M  V30 4718 H 435.243 -0.254204 6.47501 0
M  V30 4719 N 428.649 -1.55105 -0.279332 0
M  V30 4720 C 429.596 -1.8755 -1.34513 0
M  V30 4721 C 430.566 -0.726384 -1.49375 0
M  V30 4722 O 431.751 -0.977063 -1.63884 0
M  V30 4723 C 428.891 -2.14738 -2.70151 0
M  V30 4724 C 428.004 -3.42285 -2.63562 0
M  V30 4725 C 427.139 -3.59206 -3.91337 0
M  V30 4726 C 426.178 -4.80467 -3.79233 0
M  V30 4727 N 425.315 -4.94079 -4.98829 0
M  V30 4728 H 430.155 -2.78456 -1.06143 0
M  V30 4729 H 427.692 -1.37867 -0.512936 0
M  V30 4730 H 429.65 -2.28501 -3.49061 0
M  V30 4731 H 428.28 -1.27075 -2.96735 0
M  V30 4732 H 427.332 -3.37029 -1.76397 0
M  V30 4733 H 428.644 -4.31328 -2.50515 0
M  V30 4734 H 427.798 -3.72751 -4.78687 0
M  V30 4735 H 426.537 -2.68337 -4.07243 0
M  V30 4736 H 425.542 -4.66932 -2.90266 0
M  V30 4737 H 426.767 -5.72765 -3.64852 0
M  V30 4738 H 424.713 -4.06139 -5.15158 0
M  V30 4739 H 424.63 -5.77156 -4.8829 0
M  V30 4740 H 425.898 -5.12003 -5.8777 0
M  V30 4741 N 430.127 0.543554 -1.4793 0
M  V30 4742 C 431.538 1.12561 -1.48953 0
M  V30 4743 C 431.889 1.94578 -0.251754 0
M  V30 4744 O 431.014 2.0665 0.642255 0
M  V30 4745 C 431.609 2.04801 -2.69892 0
M  V30 4746 C 430.168 2.58251 -2.73831 0
M  V30 4747 C 429.315 1.34918 -2.42265 0
M  V30 4748 H 432.266 0.32947 -1.55242 0
M  V30 4749 H 432.287 2.88886 -2.47639 0
M  V30 4750 H 431.799 1.4508 -3.59963 0
M  V30 4751 H 429.9 3.21732 -1.87934 0
M  V30 4752 H 430.013 2.98312 -3.74895 0
M  V30 4753 H 428.377 1.66046 -1.93134 0
M  V30 4754 H 429.16 0.769693 -3.3456 0
M  V30 4755 N 431.605 1.3629 0.791371 0
M  V30 4756 C 432.515 1.32606 1.93527 0
M  V30 4757 C 433.531 0.228541 1.72493 0
M  V30 4758 O 434.707 0.460571 1.96063 0
M  V30 4759 C 431.772 1.11271 3.28359 0
M  V30 4760 C 430.833 2.3048 3.62185 0
M  V30 4761 C 430.066 2.10154 4.90583 0
M  V30 4762 O 430.289 1.07572 5.60165 0
M  V30 4763 O 429.223 2.97884 5.23019 0
M  V30 4764 H 433.049 2.28909 1.99585 0
M  V30 4765 H 430.634 1.16818 0.931344 0
M  V30 4766 H 432.516 1.01283 4.09047 0
M  V30 4767 H 431.191 0.180292 3.23198 0
M  V30 4768 H 430.098 2.46036 2.81811 0
M  V30 4769 H 431.431 3.22221 3.72068 0
M  V30 4770 N 433.083 -1.0153 1.20538 0
M  V30 4771 C 434.499 -1.27461 0.96051 0
M  V30 4772 C 434.699 -1.98273 -0.359193 0
M  V30 4773 O 433.755 -2.27886 -1.0874 0
M  V30 4774 C 435.068 -2.10837 2.14402 0
M  V30 4775 C 436.616 -2.24099 2.18515 0
M  V30 4776 C 437.091 -3.10852 3.36355 0
M  V30 4777 N 438.582 -3.18441 3.36377 0
M  V30 4778 C 439.317 -3.85795 4.24205 0
M  V30 4779 N 438.813 -4.55264 5.22213 0
M  V30 4780 N 440.606 -3.82331 4.12043 0
M  V30 4781 H 432.757 -0.539907 2.05423 0
M  V30 4782 H 435.02 -0.30092 0.898972 0
M  V30 4783 H 434.726 -1.66144 3.09983 0
M  V30 4784 H 434.6 -3.11576 2.12604 0
M  V30 4785 H 436.987 -2.68016 1.23497 0
M  V30 4786 H 437.068 -1.22865 2.24361 0
M  V30 4787 H 436.712 -2.6764 4.31661 0
M  V30 4788 H 436.642 -4.12177 3.27746 0
M  V30 4789 H 439.133 -2.68978 2.65442 0
M  V30 4790 H 439.446 -5.04331 5.85551 0
M  V30 4791 H 437.791 -4.54085 5.26148 0
M  V30 4792 H 440.982 -3.27207 3.34743 0
M  V30 4793 H 441.155 -4.34547 4.807 0
M  V30 4794 N 434.561 -1.01147 -1.20859 0
M  V30 4795 C 435.977 -0.725422 -1.42161 0
M  V30 4796 C 436.177 0.696919 -1.89064 0
M  V30 4797 O 435.233 1.46539 -2.05627 0
M  V30 4798 C 436.546 -1.74678 -2.44761 0
M  V30 4799 C 438.094 -1.76433 -2.58535 0
M  V30 4800 C 438.569 -2.77481 -3.64374 0
M  V30 4801 N 440.06 -2.76189 -3.71852 0
M  V30 4802 C 440.795 -3.51035 -4.53389 0
M  V30 4803 N 440.291 -4.35541 -5.38773 0
M  V30 4804 N 442.084 -3.39655 -4.47873 0
M  V30 4805 H 434.235 -1.92979 -0.887282 0
M  V30 4806 H 436.498 -0.833327 -0.451962 0
M  V30 4807 H 436.204 -2.76551 -2.17285 0
M  V30 4808 H 436.078 -1.55472 -3.43669 0
M  V30 4809 H 438.465 -0.75248 -2.85345 0
M  V30 4810 H 438.546 -1.99712 -1.5984 0
M  V30 4811 H 438.19 -3.78827 -3.38308 0
M  V30 4812 H 438.12 -2.51466 -4.6268 0
M  V30 4813 H 440.611 -2.14885 -3.10858 0
M  V30 4814 H 440.924 -4.89432 -5.98061 0
M  V30 4815 H 439.269 -4.39621 -5.38292 0
M  V30 4816 H 442.46 -2.73063 -3.80203 0
M  V30 4817 H 442.633 -3.9824 -5.11184 0
M  V30 4818 N 436.039 1.36541 -0.78704 0
M  V30 4819 C 437.455 1.52571 -0.46844 0
M  V30 4820 C 437.655 1.7415 1.01361 0
M  V30 4821 O 436.711 1.77163 1.79915 0
M  V30 4822 C 438.024 2.71299 -1.29682 0
M  V30 4823 C 439.572 2.85169 -1.29027 0
M  V30 4824 C 440.047 4.06898 -2.10233 0
M  V30 4825 N 441.538 4.1404 -2.07666 0
M  V30 4826 C 442.273 5.07301 -2.67271 0
M  V30 4827 N 441.769 6.06021 -3.35724 0
M  V30 4828 N 443.562 4.99898 -2.57018 0
M  V30 4829 H 435.713 1.20788 -1.74711 0
M  V30 4830 H 437.976 0.589364 -0.742532 0
M  V30 4831 H 437.682 2.61868 -2.34773 0
M  V30 4832 H 437.556 3.6539 -0.936479 0
M  V30 4833 H 439.943 2.94062 -0.247284 0
M  V30 4834 H 440.024 1.91992 -1.69035 0
M  V30 4835 H 439.668 3.98766 -3.1456 0
M  V30 4836 H 439.598 4.99218 -1.67597 0
M  V30 4837 H 442.089 3.43357 -1.57843 0
M  V30 4838 H 442.402 6.73741 -3.78541 0
M  V30 4839 H 440.747 6.06253 -3.39826 0
M  V30 4840 H 443.938 4.21724 -2.03142 0
M  V30 4841 H 444.111 5.72392 -3.03761 0
M  V30 4842 N 437.518 0.538854 1.48102 0
M  V30 4843 C 438.448 -0.207654 2.32575 0
M  V30 4844 C 439.429 -0.926559 1.4265 0
M  V30 4845 O 440.614 -0.91061 1.71527 0
M  V30 4846 C 437.744 -1.24957 3.24042 0
M  V30 4847 C 436.698 -0.648263 4.23062 0
M  V30 4848 C 436.024 -1.79348 5.03725 0
M  V30 4849 C 437.324 0.385897 5.20872 0
M  V30 4850 H 439.018 0.497534 2.95237 0
M  V30 4851 H 436.564 0.240715 1.41974 0
M  V30 4852 H 438.517 -1.77983 3.81969 0
M  V30 4853 H 437.241 -1.98446 2.59397 0
M  V30 4854 H 435.9 -0.139452 3.66335 0
M  V30 4855 H 435.548 -2.51696 4.35498 0
M  V30 4856 H 435.248 -1.39702 5.70751 0
M  V30 4857 H 436.772 -2.32735 5.64506 0
M  V30 4858 H 438.186 -0.057607 5.73271 0
M  V30 4859 H 436.583 0.700227 5.96001 0
M  V30 4860 H 437.653 1.28848 4.67468 0
M  V30 4861 N 438.996 -1.55193 0.274407 0
M  V30 4862 C 439.943 -2.225 -0.613374 0
M  V30 4863 C 440.913 -1.19823 -1.15029 0
M  V30 4864 O 442.098 -1.48362 -1.19973 0
M  V30 4865 C 439.238 -2.94927 -1.79199 0
M  V30 4866 C 438.351 -4.12322 -1.28899 0
M  V30 4867 C 437.486 -4.72394 -2.42934 0
M  V30 4868 C 436.525 -5.81984 -1.89634 0
M  V30 4869 N 435.662 -6.36123 -2.9714 0
M  V30 4870 H 440.502 -2.97982 -0.032756 0
M  V30 4871 H 438.039 -1.47099 -0.00440146 0
M  V30 4872 H 439.997 -3.35134 -2.48478 0
M  V30 4873 H 438.627 -2.2187 -2.34465 0
M  V30 4874 H 437.679 -3.7724 -0.489327 0
M  V30 4875 H 438.991 -4.91355 -0.858587 0
M  V30 4876 H 438.145 -5.15317 -3.20208 0
M  V30 4877 H 436.884 -3.92636 -2.8929 0
M  V30 4878 H 435.889 -5.38511 -1.1084 0
M  V30 4879 H 437.114 -6.6361 -1.44215 0
M  V30 4880 H 435.06 -5.59259 -3.42878 0
M  V30 4881 H 434.977 -7.10427 -2.58515 0
M  V30 4882 H 436.245 -6.83704 -3.74391 0
M  V30 4883 N 440.474 -0.00167713 -1.576 0
M  V30 4884 C 441.702 0.693759 -1.94922 0
M  V30 4885 C 442.117 1.67215 -0.876626 0
M  V30 4886 O 441.474 1.81929 0.144279 0
M  V30 4887 C 441.525 1.42416 -3.32265 0
M  V30 4888 O 441.246 0.485014 -4.35407 0
M  V30 4889 C 442.747 2.21395 -3.84056 0
M  V30 4890 H 439.967 0.193118 -0.642609 0
M  V30 4891 H 442.511 -0.0532952 -2.04431 0
M  V30 4892 H 440.666 2.12284 -3.24059 0
M  V30 4893 H 441.08 1.00053 -5.14868 0
M  V30 4894 H 442.554 2.67996 -4.82578 0
M  V30 4895 H 443.031 3.04142 -3.16851 0
M  V30 4896 H 443.637 1.56542 -3.95443 0
M  V30 4897 N 441.952 1.55251 0.271103 0
M  V30 4898 C 443.18 1.79974 1.02064 0
M  V30 4899 C 443.595 0.574003 1.79863 0
M  V30 4900 O 442.952 -0.456962 1.76686 0
M  V30 4901 C 443.003 3.02603 1.97772 0
M  V30 4902 O 442.724 4.20443 1.23124 0
M  V30 4903 C 444.225 3.39944 2.84522 0
M  V30 4904 H 441.445 0.599489 0.301419 0
M  V30 4905 H 443.989 2.02268 0.301313 0
M  V30 4906 H 442.144 2.8243 2.65165 0
M  V30 4907 H 442.558 4.89783 1.87651 0
M  V30 4908 H 444.032 4.28915 3.47471 0
M  V30 4909 H 444.509 2.59432 3.54389 0
M  V30 4910 H 445.115 3.62383 2.22618 0
M  V30 4911 N 443.43 -0.535701 1.48216 0
M  V30 4912 C 444.846 -0.863701 1.3421 0
M  V30 4913 C 445.046 -1.98458 0.34879 0
M  V30 4914 O 444.102 -2.51432 -0.23204 0
M  V30 4915 C 445.415 -1.23662 2.74095 0
M  V30 4916 C 446.963 -1.34683 2.82541 0
M  V30 4917 C 447.438 -1.75322 4.23115 0
M  V30 4918 N 448.929 -1.82434 4.2576 0
M  V30 4919 C 449.664 -2.15252 5.31464 0
M  V30 4920 N 449.16 -2.46533 6.47452 0
M  V30 4921 N 450.953 -2.16209 5.18855 0
M  V30 4922 H 443.104 0.203965 2.11418 0
M  V30 4923 H 445.367 0.0286033 0.947568 0
M  V30 4924 H 445.073 -0.486674 3.48316 0
M  V30 4925 H 444.947 -2.18805 3.07253 0
M  V30 4926 H 447.334 -2.08756 2.08579 0
M  V30 4927 H 447.415 -0.376756 2.5301 0
M  V30 4928 H 447.059 -1.01812 4.97591 0
M  V30 4929 H 446.989 -2.7337 4.50085 0
M  V30 4930 H 449.48 -1.6056 3.42095 0
M  V30 4931 H 449.793 -2.70662 7.23852 0
M  V30 4932 H 448.138 -2.44065 6.50736 0
M  V30 4933 H 451.329 -1.91224 4.2726 0
M  V30 4934 H 451.502 -2.41453 6.01335 0
M  V30 4935 N 444.908 -1.36708 -0.784132 0
M  V30 4936 C 445.838 -1.34153 -1.91116 0
M  V30 4937 C 446.819 -0.212121 -1.68772 0
M  V30 4938 O 448.004 -0.410581 -1.8981 0
M  V30 4939 C 445.134 -1.13535 -3.28218 0
M  V30 4940 C 444.088 -2.23356 -3.65097 0
M  V30 4941 C 443.414 -1.87875 -5.00607 0
M  V30 4942 C 444.714 -3.65473 -3.73131 0
M  V30 4943 H 446.408 -2.28459 -1.93512 0
M  V30 4944 H 443.954 -1.09973 -0.929618 0
M  V30 4945 H 445.907 -1.10381 -4.06687 0
M  V30 4946 H 444.631 -0.156804 -3.26223 0
M  V30 4947 H 443.29 -2.25645 -2.88929 0
M  V30 4948 H 442.938 -0.885814 -4.95139 0
M  V30 4949 H 442.638 -2.61406 -5.26252 0
M  V30 4950 H 444.162 -1.86286 -5.81489 0
M  V30 4951 H 445.576 -3.65382 -4.41779 0
M  V30 4952 H 443.973 -4.37953 -4.10265 0
M  V30 4953 H 445.043 -3.99995 -2.74102 0
M  V30 4954 N 446.386 1.0089 -1.21074 0
M  V30 4955 C 447.333 2.09588 -0.966512 0
M  V30 4956 C 448.303 1.65761 0.106089 0
M  V30 4957 O 449.488 1.90758 -0.0402287 0
M  V30 4958 C 446.628 3.40958 -0.533058 0
M  V30 4959 C 445.741 3.9822 -1.67467 0
M  V30 4960 C 444.876 5.17682 -1.19076 0
M  V30 4961 C 443.915 5.67043 -2.30496 0
M  V30 4962 N 443.052 6.77759 -1.83267 0
M  V30 4963 H 447.892 2.29815 -1.89708 0
M  V30 4964 H 445.429 1.12689 -0.945489 0
M  V30 4965 H 447.387 4.1637 -0.263019 0
M  V30 4966 H 446.017 3.20781 0.360505 0
M  V30 4967 H 445.069 3.1983 -2.05944 0
M  V30 4968 H 446.381 4.3085 -2.51336 0
M  V30 4969 H 445.535 6.00326 -0.877151 0
M  V30 4970 H 444.274 4.86635 -0.322066 0
M  V30 4971 H 443.279 4.82999 -2.62664 0
M  V30 4972 H 444.504 6.00121 -3.17855 0
M  V30 4973 H 442.45 6.48527 -0.987356 0
M  V30 4974 H 442.367 7.09624 -2.60711 0
M  V30 4975 H 443.635 7.63949 -1.54928 0
M  V30 4976 N 447.864 1.01787 1.20321 0
M  V30 4977 C 448.774 0.598898 2.26827 0
M  V30 4978 C 449.79 -0.36418 1.70146 0
M  V30 4979 O 450.966 -0.224812 2.00141 0
M  V30 4980 C 448.031 -0.0549769 3.46656 0
M  V30 4981 C 447.092 0.954205 4.18561 0
M  V30 4982 C 446.325 0.331439 5.3267 0
M  V30 4983 O 446.548 -0.86851 5.63749 0
M  V30 4984 O 445.482 1.0488 5.92692 0
M  V30 4985 H 449.308 1.48562 2.64883 0
M  V30 4986 H 446.893 0.787434 1.26964 0
M  V30 4987 H 448.775 -0.420102 4.19301 0
M  V30 4988 H 447.45 -0.915876 3.10473 0
M  V30 4989 H 446.357 1.37072 3.48083 0
M  V30 4990 H 447.69 1.78511 4.58688 0
M  V30 4991 N 449.342 -1.36122 0.79427 0
M  V30 4992 C 450.572 -2.03067 0.380437 0
M  V30 4993 C 450.98 -1.60018 -1.00949 0
M  V30 4994 O 450.323 -0.787425 -1.65968 0
M  V30 4995 C 450.385 -3.57587 0.37034 0
M  V30 4996 C 450.049 -4.23855 1.70867 0
M  V30 4997 C 451.046 -4.46404 2.66496 0
M  V30 4998 C 448.731 -4.61229 1.9893 0
M  V30 4999 C 450.725 -5.05412 3.88378 0
M  V30 5000 C 448.412 -5.19953 3.21079 0
M  V30 5001 C 449.41 -5.41985 4.15621 0
M  V30 5002 O 449.098 -5.99475 5.35616 0
M  V30 5003 H 448.83 -0.658168 0.154243 0
M  V30 5004 H 451.384 -1.7498 1.0757 0
M  V30 5005 H 449.614 -3.84814 -0.381444 0
M  V30 5006 H 451.303 -4.05895 -0.0194894 0
M  V30 5007 H 452.069 -4.17921 2.46103 0
M  V30 5008 H 447.948 -4.43402 1.26158 0
M  V30 5009 H 451.492 -5.22524 4.62185 0
M  V30 5010 H 447.389 -5.47862 3.41347 0
M  V30 5011 H 448.157 -6.17937 5.36745 0
M  V30 5012 N 450.82 -0.546701 -1.47814 0
M  V30 5013 C 452.048 -0.0232857 -2.06887 0
M  V30 5014 C 452.463 1.26571 -1.4009 0
M  V30 5015 O 451.82 1.7569 -0.493906 0
M  V30 5016 C 451.871 0.186975 -3.61016 0
M  V30 5017 O 451.592 -1.05097 -4.25307 0
M  V30 5018 C 453.093 0.748872 -4.36929 0
M  V30 5019 H 450.313 -0.0410763 -0.669742 0
M  V30 5020 H 452.857 -0.757117 -1.89968 0
M  V30 5021 H 451.012 0.870903 -3.77484 0
M  V30 5022 H 451.426 -0.842121 -5.17695 0
M  V30 5023 H 452.9 0.845334 -5.45489 0
M  V30 5024 H 453.377 1.75772 -4.02493 0
M  V30 5025 H 453.983 0.100979 -4.2518 0
M  V30 5026 N 452.299 1.55045 -0.282633 0
M  V30 5027 C 453.548 1.98938 0.332667 0
M  V30 5028 C 453.861 1.17455 1.56409 0
M  V30 5029 O 455.067 1.51527 2.25282 0
M  V30 5030 C 453.523 3.54105 0.643226 0
M  V30 5031 C 453.131 4.44374 -0.568814 0
M  V30 5032 C 454.875 4.06569 1.22074 0
M  V30 5033 C 452.782 5.90943 -0.232426 0
M  V30 5034 H 451.712 0.743043 0.128075 0
M  V30 5035 H 454.363 1.79341 -0.388464 0
M  V30 5036 H 452.745 3.69532 1.42346 0
M  V30 5037 H 453.919 4.40718 -1.34551 0
M  V30 5038 H 452.234 4.02585 -1.06369 0
M  V30 5039 H 454.831 5.13626 1.48635 0
M  V30 5040 H 455.174 3.56057 2.15707 0
M  V30 5041 H 455.707 3.94612 0.502621 0
M  V30 5042 H 452.446 6.45567 -1.13683 0
M  V30 5043 H 451.966 5.9765 0.507357 0
M  V30 5044 H 453.645 6.4677 0.172657 0
M  V30 5045 N 453.777 0.010035 1.57597 0
M  V30 5046 C 454.724 -0.978122 2.09049 0
M  V30 5047 C 455.694 -1.33509 0.988159 0
M  V30 5048 O 456.879 -1.43172 1.26121 0
M  V30 5049 C 454.019 -2.26158 2.60666 0
M  V30 5050 C 453.132 -1.96275 3.84838 0
M  V30 5051 C 452.267 -3.18776 4.24918 0
M  V30 5052 C 451.306 -2.84625 5.41899 0
M  V30 5053 N 450.443 -3.99693 5.77226 0
M  V30 5054 H 455.283 -0.532431 2.93205 0
M  V30 5055 H 452.82 -0.251234 1.44939 0
M  V30 5056 H 454.778 -3.01202 2.88675 0
M  V30 5057 H 453.408 -2.68378 1.79369 0
M  V30 5058 H 452.46 -1.11555 3.63675 0
M  V30 5059 H 453.772 -1.67111 4.69974 0
M  V30 5060 H 452.926 -4.02157 4.54262 0
M  V30 5061 H 451.665 -3.51087 3.38511 0
M  V30 5062 H 450.67 -1.99653 5.12268 0
M  V30 5063 H 451.895 -2.53551 6.29991 0
M  V30 5064 H 449.841 -4.31882 4.93776 0
M  V30 5065 H 449.758 -3.74087 6.56959 0
M  V30 5066 H 451.026 -4.83834 6.11167 0
M  V30 5067 N 455.255 -1.55392 -0.262866 0
M  V30 5068 C 456.48 -1.80847 -1.01533 0
M  V30 5069 C 456.905 -0.584946 -1.78774 0
M  V30 5070 O 456.263 0.465701 -1.75217 0
M  V30 5071 C 456.311 -3.03866 -1.94159 0
M  V30 5072 O 455.415 -2.79662 -3.03089 0
M  V30 5073 H 454.756 -0.597441 -0.289759 0
M  V30 5074 H 457.286 -2.02553 -0.288698 0
M  V30 5075 H 457.296 -3.32872 -2.35924 0
M  V30 5076 H 455.971 -3.92564 -1.37354 0
M  V30 5077 H 454.548 -2.61781 -2.65566 0
M  V30 5078 N 456.733 0.527833 -1.48498 0
M  V30 5079 C 457.683 1.62844 -1.5958 0
M  V30 5080 C 458.667 1.54397 -0.452809 0
M  V30 5081 O 459.859 1.62381 -0.704364 0
M  V30 5082 C 456.988 3.01557 -1.64067 0
M  V30 5083 C 456.074 3.151 -2.83853 0
M  V30 5084 N 456.465 2.9861 -4.08247 0
M  V30 5085 C 454.763 3.46158 -2.8123 0
M  V30 5086 C 455.464 3.15626 -4.88626 0
M  V30 5087 N 454.44 3.43298 -4.21483 0
M  V30 5088 H 458.242 1.48708 -2.53502 0
M  V30 5089 H 455.756 0.733343 -1.44899 0
M  V30 5090 H 457.753 3.8062 -1.70101 0
M  V30 5091 H 456.413 3.16783 -0.712636 0
M  V30 5092 H 457.424 2.75329 -4.3865 0
M  V30 5093 H 454.101 3.67728 -1.97692 0
M  V30 5094 H 455.491 3.07596 -5.97356 0
M  V30 5095 N 458.211 1.37122 0.776871 0
M  V30 5096 C 459.436 1.354 1.57104 0
M  V30 5097 C 459.861 -0.0595562 1.88006 0
M  V30 5098 O 459.219 -1.03514 1.48844 0
M  V30 5099 C 459.267 2.19472 2.8612 0
M  V30 5100 O 458.371 1.59582 3.80273 0
M  V30 5101 H 457.712 0.462869 0.476076 0
M  V30 5102 H 460.242 1.80577 0.961932 0
M  V30 5103 H 460.252 2.32502 3.35271 0
M  V30 5104 H 458.927 3.22222 2.62956 0
M  V30 5105 H 457.504 1.55564 3.38902 0
M  V30 5106 N 459.689 -1.00246 1.21608 0
M  V30 5107 C 460.914 -1.78167 1.06167 0
M  V30 5108 C 461.339 -1.84138 -0.384035 0
M  V30 5109 O 460.697 -1.28683 -1.27712 0
M  V30 5110 C 460.745 -3.19786 1.66642 0
M  V30 5111 O 459.849 -4.02153 0.913613 0
M  V30 5112 H 459.19 -0.549 0.37349 0
M  V30 5113 H 461.72 -1.25994 1.61204 0
M  V30 5114 H 461.73 -3.70451 1.70969 0
M  V30 5115 H 460.405 -3.14754 2.7185 0
M  V30 5116 H 458.982 -3.60711 0.945635 0
M  V30 5117 N 461.167 -1.02423 -1.1978 0
M  V30 5118 C 462.097 -0.62157 -2.25075 0
M  V30 5119 C 463.078 0.367148 -1.6609 0
M  V30 5120 O 464.263 0.250892 -1.92573 0
M  V30 5121 C 461.393 0.0331826 -3.47284 0
M  V30 5122 C 460.347 -0.877323 -4.18912 0
M  V30 5123 C 459.673 -0.0879296 -5.34628 0
M  V30 5124 C 460.973 -2.18892 -4.74219 0
M  V30 5125 H 462.667 -1.50179 -2.59011 0
M  V30 5126 H 460.213 -0.723547 -1.24502 0
M  V30 5127 H 462.166 0.326488 -4.20133 0
M  V30 5128 H 460.89 0.948164 -3.12534 0
M  V30 5129 H 459.549 -1.15475 -3.47938 0
M  V30 5130 H 459.197 0.828941 -4.96123 0
M  V30 5131 H 458.897 -0.694359 -5.83483 0
M  V30 5132 H 460.421 0.198743 -6.10276 0
M  V30 5133 H 461.835 -1.95746 -5.38847 0
M  V30 5134 H 460.232 -2.74686 -5.33542 0
M  V30 5135 H 461.302 -2.84674 -3.92541 0
M  V30 5136 N 462.645 1.35699 -0.801477 0
M  V30 5137 C 464.056 1.81415 -0.441073 0
M  V30 5138 C 464.407 1.66595 1.03636 0
M  V30 5139 O 463.532 1.19369 1.80499 0
M  V30 5140 C 464.127 3.29369 -0.793819 0
M  V30 5141 C 462.686 3.73248 -0.486083 0
M  V30 5142 C 461.833 2.57775 -1.02213 0
M  V30 5143 H 464.784 1.23749 -0.993572 0
M  V30 5144 H 464.805 3.80395 -0.0894158 0
M  V30 5145 H 464.317 3.40123 -1.86917 0
M  V30 5146 H 462.418 3.68046 0.580735 0
M  V30 5147 H 462.531 4.68222 -1.01513 0
M  V30 5148 H 460.895 2.50788 -0.444712 0
M  V30 5149 H 461.678 2.71309 -2.10348 0
M  V30 5150 N 464.123 0.554532 1.47522 0
M  V30 5151 C 465.534 0.120446 1.86311 0
M  V30 5152 C 465.885 -1.30904 1.46145 0
M  V30 5153 O 465.01 -1.98434 0.863294 0
M  V30 5154 C 465.605 0.211808 3.38137 0
M  V30 5155 C 464.164 -0.167224 3.76028 0
M  V30 5156 C 463.311 0.560576 2.71575 0
M  V30 5157 H 466.262 0.764408 1.39077 0
M  V30 5158 H 466.283 -0.570275 3.76202 0
M  V30 5159 H 465.795 1.25232 3.6734 0
M  V30 5160 H 463.896 -1.20894 3.52442 0
M  V30 5161 H 464.009 0.189473 4.78725 0
M  V30 5162 H 462.373 0.00396836 2.547 0
M  V30 5163 H 463.156 1.60219 3.0362 0
M  V30 5164 N 465.601 -1.54893 0.290851 0
M  V30 5165 C 466.549 -2.24579 -0.605576 0
M  V30 5166 C 467.543 -1.24824 -1.14522 0
M  V30 5167 O 468.749 -1.42706 -1.09704 0
M  V30 5168 H 465.124 -0.720946 -0.213872 0
M  V30 5169 H 467.095 -2.984 0.0048173 0
M  V30 5170 C 465.844 -2.99224 -1.77088 0
M  V30 5171 H 465.167 -3.75782 -1.36484 0
M  V30 5172 H 466.607 -3.51281 -2.3744 0
M  V30 5173 C 465.066 -2.05602 -2.66888 0
M  V30 5174 O 465.596 -1.61745 -3.67698 0
M  V30 5175 N 463.802 -1.71771 -2.34399 0
M  V30 5176 H 463.349 -2.07633 -1.52468 0
M  V30 5177 H 463.307 -1.09403 -2.94751 0
M  V30 5178 N 467.08 -0.0183926 -1.57589 0
M  V30 5179 C 468.028 0.985111 -2.10709 0
M  V30 5180 C 469.022 1.34397 -1.0312 0
M  V30 5181 O 470.228 1.32746 -1.21567 0
M  V30 5182 H 466.603 0.335418 -0.673052 0
M  V30 5183 H 468.574 0.511689 -2.9398 0
M  V30 5184 C 467.323 2.26202 -2.64061 0
M  V30 5185 H 466.646 1.9946 -3.4649 0
M  V30 5186 H 468.086 2.94652 -3.04887 0
M  V30 5187 C 466.545 2.98444 -1.5631 0
M  V30 5188 O 467.075 3.90142 -0.956674 0
M  V30 5189 N 465.281 2.6059 -1.28612 0
M  V30 5190 H 464.828 1.86101 -1.78112 0
M  V30 5191 H 464.786 3.09238 -0.567406 0
M  V30 5192 N 468.558 1.5553 0.254621 0
M  V30 5193 C 469.783 1.81383 1.00573 0
M  V30 5194 C 470.208 0.594419 1.78461 0
M  V30 5195 O 469.566 -0.456403 1.75461 0
M  V30 5196 C 469.614 3.04892 1.92545 0
M  V30 5197 O 468.718 2.81266 3.01601 0
M  V30 5198 H 468.059 0.598969 0.286587 0
M  V30 5199 H 470.589 2.02703 0.277952 0
M  V30 5200 H 470.599 3.34119 2.34155 0
M  V30 5201 H 469.274 3.93287 1.3527 0
M  V30 5202 H 467.851 2.63185 2.64174 0
M  V30 5203 N 470.036 -0.519951 1.48776 0
M  V30 5204 C 471.266 -1.29783 1.60748 0
M  V30 5205 C 471.674 -1.87253 0.27072 0
M  V30 5206 O 471.017 -1.67628 -0.751438 0
M  V30 5207 C 471.079 -2.47984 2.60277 0
M  V30 5208 C 470.743 -2.11526 4.051 0
M  V30 5209 C 471.74 -1.66608 4.92481 0
M  V30 5210 C 469.425 -2.21742 4.50706 0
M  V30 5211 C 471.419 -1.32384 6.23501 0
M  V30 5212 C 469.106 -1.87129 5.81744 0
M  V30 5213 C 470.104 -1.42523 6.67964 0
M  V30 5214 O 469.792 -1.0837 7.96562 0
M  V30 5215 H 469.524 -0.400562 0.544542 0
M  V30 5216 H 472.078 -0.632879 1.95407 0
M  V30 5217 H 470.308 -3.17493 2.2076 0
M  V30 5218 H 471.997 -3.10036 2.61978 0
M  V30 5219 H 472.763 -1.58178 4.58481 0
M  V30 5220 H 468.642 -2.55415 3.83776 0
M  V30 5221 H 472.186 -0.974949 6.90754 0
M  V30 5222 H 468.083 -1.95204 6.15277 0
M  V30 5223 H 468.851 -1.21681 8.09405 0
M  V30 5224 N 471.514 -1.37532 -0.769588 0
M  V30 5225 C 472.477 -1.33292 -1.86456 0
M  V30 5226 C 473.477 -0.236537 -1.59051 0
M  V30 5227 O 474.667 -0.492511 -1.67093 0
M  V30 5228 C 471.799 -1.07118 -3.23633 0
M  V30 5229 H 472.992 -2.30692 -1.91628 0
M  V30 5230 H 470.545 -1.22593 -0.969572 0
M  V30 5231 H 471.28 -0.102578 -3.24138 0
M  V30 5232 H 471.065 -1.86479 -3.44917 0
M  V30 5233 H 472.555 -1.06806 -4.03711 0
M  V30 5234 N 472.992 0.995999 -1.22138 0
M  V30 5235 C 474.269 1.70834 -0.952642 0
M  V30 5236 C 474.649 2.04257 0.533119 0
M  V30 5237 O 473.997 1.72343 1.50034 0
M  V30 5238 C 474.207 2.96119 -1.84701 0
M  V30 5239 C 475.555 3.68962 -2.10124 0
M  V30 5240 O 476.579 3.0612 -1.82124 0
M  V30 5241 O 475.438 4.82017 -2.57531 0
M  V30 5242 H 472.532 0.745498 -0.357997 0
M  V30 5243 H 475.078 1.05262 -1.33109 0
M  V30 5244 H 473.85 2.67898 -2.85213 0
M  V30 5245 H 473.473 3.6943 -1.46995 0
M  V30 5246 N 474.47 1.03057 1.19235 0
M  V30 5247 C 475.717 0.728019 1.88961 0
M  V30 5248 C 476.045 -0.743515 1.79728 0
M  V30 5249 O 475.3 -1.55729 1.1852 0
M  V30 5250 C 475.599 1.1268 3.39172 0
M  V30 5251 C 475.265 2.5969 3.68608 0
M  V30 5252 C 473.927 2.99854 3.76352 0
M  V30 5253 C 476.279 3.54793 3.81801 0
M  V30 5254 C 473.607 4.34031 3.94758 0
M  V30 5255 C 475.959 4.88675 4.0172 0
M  V30 5256 C 474.623 5.28526 4.07697 0
M  V30 5257 H 473.893 0.266401 0.691456 0
M  V30 5258 H 476.54 1.29373 1.41191 0
M  V30 5259 H 474.845 0.479722 3.88852 0
M  V30 5260 H 476.542 0.870203 3.91444 0
M  V30 5261 H 473.132 2.27575 3.63191 0
M  V30 5262 H 477.316 3.24914 3.7516 0
M  V30 5263 H 472.572 4.6444 3.97625 0
M  V30 5264 H 476.746 5.6228 4.1087 0
M  V30 5265 H 474.373 6.32506 4.21712 0
M  V30 5266 N 475.948 -1.35272 0.808662 0
M  V30 5267 C 476.858 -2.33546 0.222079 0
M  V30 5268 C 477.874 -1.6196 -0.636011 0
M  V30 5269 O 479.05 -1.93822 -0.547274 0
M  V30 5270 C 476.115 -3.41148 -0.61795 0
M  V30 5271 C 475.176 -4.28507 0.260875 0
M  V30 5272 C 474.409 -5.3097 -0.539156 0
M  V30 5273 O 474.632 -5.42123 -1.77367 0
M  V30 5274 O 473.566 -6.01858 0.0710526 0
M  V30 5275 H 477.392 -2.85515 1.03512 0
M  V30 5276 H 474.977 -1.38079 0.570495 0
M  V30 5277 H 476.859 -4.06889 -1.09634 0
M  V30 5278 H 475.534 -2.91447 -1.40855 0
M  V30 5279 H 474.441 -3.6574 0.786451 0
M  V30 5280 H 475.774 -4.81611 1.01547 0
M  V30 5281 N 477.426 -0.562348 -1.47226 0
M  V30 5282 C 478.842 -0.222492 -1.58042 0
M  V30 5283 C 479.042 1.27505 -1.56028 0
M  V30 5284 O 478.098 2.05555 -1.46641 0
M  V30 5285 C 479.411 -0.853694 -2.88327 0
M  V30 5286 C 480.959 -0.825397 -3.01921 0
M  V30 5287 C 481.434 -1.43576 -4.34914 0
M  V30 5288 N 482.925 -1.39918 -4.41562 0
M  V30 5289 C 483.66 -1.84103 -5.43041 0
M  V30 5290 N 483.156 -2.36167 -6.51304 0
M  V30 5291 N 484.949 -1.75142 -5.34118 0
M  V30 5292 H 477.1 -1.53525 -1.46778 0
M  V30 5293 H 479.363 -0.640527 -0.698877 0
M  V30 5294 H 479.069 -1.90635 -2.95552 0
M  V30 5295 H 478.943 -0.34977 -3.75575 0
M  V30 5296 H 481.33 0.218583 -2.94289 0
M  V30 5297 H 481.411 -1.36713 -2.16202 0
M  V30 5298 H 481.055 -2.47884 -4.43301 0
M  V30 5299 H 480.985 -0.869427 -5.19373 0
M  V30 5300 H 483.476 -1.0184 -3.63919 0
M  V30 5301 H 483.789 -2.67793 -7.24919 0
M  V30 5302 H 482.134 -2.40181 -6.52179 0
M  V30 5303 H 485.325 -1.34241 -4.48439 0
M  V30 5304 H 485.498 -2.09895 -6.13065 0
M  V30 5305 N 478.904 1.54736 -0.299062 0
M  V30 5306 C 480.151 2.00101 0.310784 0
M  V30 5307 C 480.479 1.18746 1.54045 0
M  V30 5308 O 479.734 0.251198 1.94081 0
M  V30 5309 C 480.033 3.50199 0.713835 0
M  V30 5310 C 479.699 4.48997 -0.413873 0
M  V30 5311 C 478.361 4.7573 -0.723462 0
M  V30 5312 C 480.713 5.07839 -1.17257 0
M  V30 5313 C 478.041 5.5857 -1.79491 0
M  V30 5314 C 480.393 5.91844 -2.23392 0
M  V30 5315 C 479.057 6.16889 -2.54959 0
M  V30 5316 H 478.327 0.732221 0.113724 0
M  V30 5317 H 480.974 1.86888 -0.417756 0
M  V30 5318 H 479.279 3.61012 1.52243 0
M  V30 5319 H 480.976 3.82723 1.19684 0
M  V30 5320 H 477.566 4.28292 -0.162476 0
M  V30 5321 H 481.75 4.87188 -0.946651 0
M  V30 5322 H 477.006 5.76213 -2.04423 0
M  V30 5323 H 481.18 6.36465 -2.8264 0
M  V30 5324 H 478.807 6.80869 -3.38114 0
M  V30 5325 N 480.382 0.0267497 1.57577 0
M  V30 5326 C 481.607 -0.666227 1.96408 0
M  V30 5327 C 482.032 -1.65004 0.903071 0
M  V30 5328 O 481.39 -1.80787 -0.136263 0
M  V30 5329 C 481.438 -1.35101 3.34335 0
M  V30 5330 O 480.542 -2.46623 3.30531 0
M  V30 5331 H 479.883 -0.175206 0.640468 0
M  V30 5332 H 482.413 0.0878977 2.04411 0
M  V30 5333 H 482.423 -1.70834 3.70513 0
M  V30 5334 H 481.098 -0.629844 4.11103 0
M  V30 5335 H 479.675 -2.13019 3.06068 0
M  V30 5336 N 481.861 -1.55662 -0.24637 0
M  V30 5337 C 482.808 -1.90361 -1.30504 0
M  V30 5338 C 483.778 -0.757905 -1.47801 0
M  V30 5339 O 484.963 -1.01161 -1.61775 0
M  V30 5340 C 482.103 -2.2042 -2.65535 0
M  V30 5341 C 481.216 -3.47799 -2.56242 0
M  V30 5342 C 480.351 -3.67426 -3.8363 0
M  V30 5343 C 479.39 -4.88403 -3.68956 0
M  V30 5344 N 478.527 -5.04548 -4.88237 0
M  V30 5345 H 483.367 -2.80645 -1.00213 0
M  V30 5346 H 480.904 -1.38924 -0.483577 0
M  V30 5347 H 482.862 -2.35853 -3.44135 0
M  V30 5348 H 481.492 -1.3334 -2.93973 0
M  V30 5349 H 480.544 -3.40694 -1.69208 0
M  V30 5350 H 481.856 -4.36544 -2.4131 0
M  V30 5351 H 481.01 -3.82821 -4.70673 0
M  V30 5352 H 479.749 -2.76914 -4.01459 0
M  V30 5353 H 478.754 -4.72984 -2.80296 0
M  V30 5354 H 479.979 -5.80375 -3.52621 0
M  V30 5355 H 477.925 -4.16974 -5.06427 0
M  V30 5356 H 477.842 -5.87384 -4.75937 0
M  V30 5357 H 479.11 -5.24355 -5.76777 0
M  V30 5358 N 483.339 0.512053 -1.4905 0
M  V30 5359 C 484.585 1.26874 -1.58212 0
M  V30 5360 C 484.918 1.9241 -0.263073 0
M  V30 5361 O 484.193 1.80181 0.732476 0
M  V30 5362 C 484.476 2.34428 -2.73341 0
M  V30 5363 C 484.329 1.73466 -4.15006 0
M  V30 5364 C 485.648 3.36073 -2.84154 0
M  V30 5365 H 482.767 0.459924 -0.575881 0
M  V30 5366 H 485.409 0.568587 -1.81293 0
M  V30 5367 H 483.559 2.94146 -2.53792 0
M  V30 5368 H 485.231 1.17661 -4.46042 0
M  V30 5369 H 483.474 1.03921 -4.21168 0
M  V30 5370 H 484.145 2.51426 -4.91415 0
M  V30 5371 H 486.621 2.86332 -3.01916 0
M  V30 5372 H 485.497 4.08703 -3.66406 0
M  V30 5373 H 485.758 3.97725 -1.93048 0
M  V30 5374 N 484.817 1.37938 0.762283 0
M  V30 5375 C 485.747 1.37176 1.88958 0
M  V30 5376 C 486.728 0.238945 1.68413 0
M  V30 5377 O 487.913 0.440726 1.89133 0
M  V30 5378 C 485.043 1.18742 3.2637 0
M  V30 5379 C 483.997 2.29136 3.61498 0
M  V30 5380 C 483.323 1.95816 4.97554 0
M  V30 5381 C 484.623 3.71363 3.6727 0
M  V30 5382 H 486.317 2.31509 1.89853 0
M  V30 5383 H 483.863 1.11438 0.912005 0
M  V30 5384 H 485.816 1.16837 4.04879 0
M  V30 5385 H 484.54 0.208683 3.25933 0
M  V30 5386 H 483.199 2.30213 2.85303 0
M  V30 5387 H 482.847 0.964475 4.93667 0
M  V30 5388 H 482.547 2.69745 5.22026 0
M  V30 5389 H 484.071 1.95513 5.78452 0
M  V30 5390 H 485.485 3.72364 4.35911 0
M  V30 5391 H 483.882 4.44425 4.03245 0
M  V30 5392 H 484.952 4.04305 2.67704 0
M  V30 5393 N 486.295 -0.989507 1.22664 0
M  V30 5394 C 487.205 -2.11449 1.01619 0
M  V30 5395 C 488.221 -1.73962 -0.036545 0
M  V30 5396 O 489.397 -2.00788 0.156924 0
M  V30 5397 C 486.462 -3.41465 0.600204 0
M  V30 5398 C 485.523 -3.93033 1.72695 0
M  V30 5399 C 484.756 -5.16844 1.33071 0
M  V30 5400 O 484.979 -5.7001 0.210975 0
M  V30 5401 O 483.913 -5.6225 2.14845 0
M  V30 5402 H 487.739 -2.32088 1.9588 0
M  V30 5403 H 485.324 -1.09823 1.01289 0
M  V30 5404 H 487.206 -4.19695 0.37873 0
M  V30 5405 H 485.881 -3.22178 -0.313511 0
M  V30 5406 H 484.788 -3.15961 2.00298 0
M  V30 5407 H 486.121 -4.16758 2.61865 0
M  V30 5408 N 487.773 -1.03688 -1.18687 0
M  V30 5409 C 488.683 -0.634908 -2.25845 0
M  V30 5410 C 489.699 0.337065 -1.70704 0
M  V30 5411 O 490.875 0.192943 -2.00474 0
M  V30 5412 C 487.94 -0.000180054 -3.467 0
M  V30 5413 C 487.001 -1.02067 -4.1699 0
M  V30 5414 C 486.234 -0.41614 -5.32075 0
M  V30 5415 O 486.457 0.778712 -5.65059 0
M  V30 5416 O 485.391 -1.14296 -5.90948 0
M  V30 5417 H 489.217 -1.52757 -2.62486 0
M  V30 5418 H 486.802 -0.807533 -1.25695 0
M  V30 5419 H 488.684 0.353342 -4.19916 0
M  V30 5420 H 487.359 0.866367 -3.11891 0
M  V30 5421 H 486.266 -1.42592 -3.45859 0
M  V30 5422 H 487.599 -1.85786 -4.5579 0
M  V30 5423 N 489.251 1.34841 -0.815825 0
M  V30 5424 C 490.214 2.27959 -0.238185 0
M  V30 5425 C 491.214 1.49983 0.579816 0
M  V30 5426 O 492.404 1.69617 0.396953 0
M  V30 5427 C 489.536 3.34314 0.666876 0
M  V30 5428 H 490.729 2.80558 -1.05958 0
M  V30 5429 H 488.282 1.44852 -0.587156 0
M  V30 5430 H 489.017 2.86916 1.5116 0
M  V30 5431 H 488.802 3.92014 0.0819106 0
M  V30 5432 H 490.292 4.0379 1.06506 0
M  V30 5433 N 490.729 0.570148 1.46925 0
M  V30 5434 C 491.692 -0.159933 2.28641 0
M  V30 5435 C 492.692 -0.830638 1.37685 0
M  V30 5436 O 493.882 -0.684516 1.60187 0
M  V30 5437 C 491.014 -1.2354 3.17727 0
M  V30 5438 H 492.207 0.558035 2.94662 0
M  V30 5439 H 489.76 0.327603 1.52828 0
M  V30 5440 H 490.495 -1.98535 2.56426 0
M  V30 5441 H 490.28 -0.759125 3.84681 0
M  V30 5442 H 491.77 -1.74782 3.79264 0
M  V30 5443 N 492.207 -1.54576 0.307264 0
M  V30 5444 C 493.17 -2.22423 -0.553224 0
M  V30 5445 C 494.17 -1.21231 -1.05639 0
M  V30 5446 O 495.36 -1.45923 -0.951419 0
M  V30 5447 C 492.492 -2.91552 -1.76664 0
M  V30 5448 H 493.685 -2.99874 0.0396484 0
M  V30 5449 H 491.238 -1.56192 0.0581629 0
M  V30 5450 H 491.973 -2.18196 -2.39918 0
M  V30 5451 H 491.758 -3.65738 -1.41343 0
M  V30 5452 H 493.248 -3.43292 -2.37783 0
M  V30 5453 N 493.685 -0.035106 -1.57561 0
M  V30 5454 C 494.648 0.929819 -2.09492 0
M  V30 5455 C 495.648 1.25026 -1.01119 0
M  V30 5456 O 496.838 1.18961 -1.27255 0
M  V30 5457 C 493.97 2.24457 -2.56577 0
M  V30 5458 H 495.163 0.479935 -2.96035 0
M  V30 5459 H 492.716 0.213033 -1.54841 0
M  V30 5460 H 493.451 2.74061 -1.73382 0
M  V30 5461 H 493.236 2.02508 -3.35757 0
M  V30 5462 H 494.726 2.93607 -2.96959 0
M  V30 5463 N 495.163 1.55791 0.238111 0
M  V30 5464 C 496.073 1.94196 1.31625 0
M  V30 5465 C 497.089 0.843545 1.52185 0
M  V30 5466 O 498.265 1.1457 1.65637 0
M  V30 5467 C 495.33 2.2365 2.64918 0
M  V30 5468 C 494.391 3.46971 2.52804 0
M  V30 5469 C 493.624 3.7501 3.79741 0
M  V30 5470 O 493.847 3.04982 4.82019 0
M  V30 5471 O 492.781 4.68525 3.77846 0
M  V30 5472 H 496.607 2.86044 1.02043 0
M  V30 5473 H 494.192 1.42786 0.439603 0
M  V30 5474 H 496.074 2.43863 3.4367 0
M  V30 5475 H 494.749 1.34979 2.94215 0
M  V30 5476 H 493.656 3.32055 1.72309 0
M  V30 5477 H 494.989 4.35971 2.28451 0
M  V30 5478 N 496.642 -0.504142 1.49319 0
M  V30 5479 C 497.552 -1.63248 1.68486 0
M  V30 5480 C 498.568 -1.64488 0.567432 0
M  V30 5481 O 499.744 -1.82966 0.841749 0
M  V30 5482 C 496.809 -2.99627 1.74426 0
M  V30 5483 C 495.87 -3.09039 2.97982 0
M  V30 5484 C 495.103 -4.38913 3.0363 0
M  V30 5485 O 495.326 -5.27528 2.16958 0
M  V30 5486 O 494.26 -4.53231 3.96062 0
M  V30 5487 H 498.086 -1.50008 2.64067 0
M  V30 5488 H 495.671 -0.680086 1.33023 0
M  V30 5489 H 497.553 -3.80689 1.80705 0
M  V30 5490 H 496.228 -3.13136 0.820233 0
M  V30 5491 H 495.135 -2.27177 2.97223 0
M  V30 5492 H 496.468 -3.00456 3.89855 0
M  V30 5493 N 498.12 -1.38341 -0.754957 0
M  V30 5494 C 499.368 -1.34208 -1.51105 0
M  V30 5495 C 499.689 0.0677634 -1.94882 0
M  V30 5496 O 498.959 1.01517 -1.67544 0
M  V30 5497 H 497.539 -0.493819 -0.560493 0
M  V30 5498 H 500.201 -1.73005 -0.897507 0
M  V30 5499 H 499.297 -1.99203 -2.4026 0
M  V30 5500 N 499.598 0.982988 -1.23187 0
M  V30 5501 C 500.528 2.09301 -1.03515 0
M  V30 5502 C 501.509 1.70035 0.0471136 0
M  V30 5503 O 502.694 1.93847 -0.117029 0
M  V30 5504 C 499.824 3.4167 -0.622791 0
M  V30 5505 C 498.778 3.94828 -1.65211 0
M  V30 5506 C 498.104 5.23362 -1.09527 0
M  V30 5507 C 499.404 4.2439 -3.04451 0
M  V30 5508 H 501.098 2.26016 -1.96359 0
M  V30 5509 H 498.644 1.08611 -0.945501 0
M  V30 5510 H 500.597 4.18746 -0.472233 0
M  V30 5511 H 499.321 3.24811 0.341329 0
M  V30 5512 H 497.98 3.19895 -1.79061 0
M  V30 5513 H 497.628 5.02852 -0.122211 0
M  V30 5514 H 497.328 5.59895 -1.783 0
M  V30 5515 H 498.852 6.03062 -0.956511 0
M  V30 5516 H 500.266 4.92225 -2.93917 0
M  V30 5517 H 498.663 4.72118 -3.70438 0
M  V30 5518 H 499.733 3.31765 -3.53638 0
M  V30 5519 N 501.076 1.04316 1.18135 0
M  V30 5520 C 502.492 0.762858 1.40188 0
M  V30 5521 C 502.692 -0.646547 1.90846 0
M  V30 5522 O 501.748 -1.41036 2.0944 0
M  V30 5523 C 503.061 1.81106 2.40044 0
M  V30 5524 C 504.609 1.83226 2.53766 0
M  V30 5525 C 505.084 2.87044 3.56889 0
M  V30 5526 N 506.575 2.85951 3.64398 0
M  V30 5527 C 507.31 3.62932 4.43923 0
M  V30 5528 N 506.806 4.49672 5.27036 0
M  V30 5529 N 508.599 3.51411 4.38711 0
M  V30 5530 H 500.75 1.95264 0.835805 0
M  V30 5531 H 503.013 0.845017 0.429709 0
M  V30 5532 H 502.719 2.82214 2.09876 0
M  V30 5533 H 502.593 1.64529 3.39426 0
M  V30 5534 H 504.98 0.827869 2.8325 0
M  V30 5535 H 505.061 2.03879 1.54489 0
M  V30 5536 H 504.705 3.87663 3.28145 0
M  V30 5537 H 504.635 2.63645 4.5585 0
M  V30 5538 H 507.126 2.23051 3.05052 0
M  V30 5539 H 507.439 5.05116 5.84874 0
M  V30 5540 H 505.784 4.53738 5.26447 0
M  V30 5541 H 508.975 2.83047 3.72829 0
M  V30 5542 H 509.148 4.11654 5.00445 0
M  V30 5543 N 502.554 -1.34406 0.822964 0
M  V30 5544 C 503.464 -2.33298 0.246838 0
M  V30 5545 C 504.48 -1.62625 -0.618797 0
M  V30 5546 O 505.656 -1.94391 -0.526685 0
M  V30 5547 C 502.721 -3.41785 -0.581731 0
M  V30 5548 C 501.782 -4.28206 0.306309 0
M  V30 5549 C 501.015 -5.31512 -0.48281 0
M  V30 5550 O 501.238 -5.43973 -1.71607 0
M  V30 5551 O 500.172 -6.01749 0.134884 0
M  V30 5552 H 503.998 -2.84401 1.06534 0
M  V30 5553 H 501.583 -1.37466 0.585108 0
M  V30 5554 H 503.465 -4.08028 -1.05313 0
M  V30 5555 H 502.14 -2.92925 -1.37756 0
M  V30 5556 H 501.047 -3.64885 0.825199 0
M  V30 5557 H 502.38 -4.80507 1.06649 0
M  V30 5558 N 504.032 -0.577932 -1.46621 0
M  V30 5559 C 504.962 0.145917 -2.33044 0
M  V30 5560 C 505.943 0.888412 -1.45056 0
M  V30 5561 O 507.128 0.864812 -1.73881 0
M  V30 5562 C 504.258 1.16322 -3.27241 0
M  V30 5563 C 503.212 0.535868 -4.24632 0
M  V30 5564 C 502.538 1.65929 -5.08303 0
M  V30 5565 C 503.838 -0.523861 -5.19666 0
M  V30 5566 H 505.532 -0.575636 -2.93814 0
M  V30 5567 H 503.078 -0.278272 -1.41286 0
M  V30 5568 H 505.031 1.67793 -3.86553 0
M  V30 5569 H 503.755 1.91498 -2.64567 0
M  V30 5570 H 502.414 0.0422759 -3.66576 0
M  V30 5571 H 502.062 2.40061 -4.42018 0
M  V30 5572 H 501.762 1.2452 -5.74255 0
M  V30 5573 H 503.286 2.17686 -5.70478 0
M  V30 5574 H 504.7 -0.0944059 -5.73222 0
M  V30 5575 H 503.097 -0.858 -5.93935 0
M  V30 5576 H 504.167 -1.41197 -4.63887 0
M  V30 5577 N 505.51 1.54411 -0.315457 0
M  V30 5578 C 506.442 2.21527 0.588067 0
M  V30 5579 C 507.455 1.21263 1.08624 0
M  V30 5580 O 508.644 1.47777 1.00121 0
M  V30 5581 C 505.744 2.85963 1.81875 0
M  V30 5582 C 504.917 4.12291 1.46063 0
M  V30 5583 C 503.976 4.60396 2.54799 0
M  V30 5584 O 503.002 5.25265 2.19283 0
M  V30 5585 N 504.204 4.33935 3.85591 0
M  V30 5586 H 506.969 2.99697 0.013414 0
M  V30 5587 H 504.53 1.61308 -0.138295 0
M  V30 5588 H 506.522 3.15071 2.53993 0
M  V30 5589 H 505.092 2.11548 2.30144 0
M  V30 5590 H 504.312 3.90036 0.571445 0
M  V30 5591 H 505.6 4.9452 1.19695 0
M  V30 5592 H 504.998 3.81996 4.17248 0
M  V30 5593 H 503.555 4.67718 4.53964 0
M  V30 5594 N 506.988 0.0434614 1.5754 0
M  V30 5595 C 508.404 -0.313039 1.565 0
M  V30 5596 C 508.604 -1.71954 1.05043 0
M  V30 5597 O 507.66 -2.425 0.703564 0
M  V30 5598 C 508.973 -0.148544 3.00333 0
M  V30 5599 C 510.521 -0.220231 3.12224 0
M  V30 5600 C 510.996 -0.0843565 4.57922 0
M  V30 5601 N 512.487 -0.140881 4.62986 0
M  V30 5602 C 513.222 -0.0597443 5.73369 0
M  V30 5603 N 512.718 0.0733004 6.92761 0
M  V30 5604 N 514.511 -0.11477 5.61983 0
M  V30 5605 H 506.662 0.96303 1.89313 0
M  V30 5606 H 508.925 0.373164 0.871466 0
M  V30 5607 H 508.631 0.820894 3.41986 0
M  V30 5608 H 508.505 -0.912798 3.65989 0
M  V30 5609 H 510.892 -1.18014 2.70475 0
M  V30 5610 H 510.973 0.574646 2.49262 0
M  V30 5611 H 510.617 0.872192 5.00355 0
M  V30 5612 H 510.547 -0.898281 5.18882 0
M  V30 5613 H 513.038 -0.243273 3.77116 0
M  V30 5614 H 513.351 0.128128 7.72694 0
M  V30 5615 H 511.696 0.10828 6.94916 0
M  V30 5616 H 514.887 -0.217212 4.67596 0
M  V30 5617 H 515.06 -0.0480779 6.47982 0
M  V30 5618 N 508.466 -1.55915 -0.229846 0
M  V30 5619 C 509.691 -1.8296 -0.976743 0
M  V30 5620 C 510.116 -0.622735 -1.77493 0
M  V30 5621 O 509.474 0.428431 -1.76165 0
M  V30 5622 C 509.522 -3.07916 -1.8767 0
M  V30 5623 O 508.626 -2.86028 -2.97088 0
M  V30 5624 H 507.967 -0.603453 -0.277021 0
M  V30 5625 H 510.497 -2.0312 -0.245669 0
M  V30 5626 H 510.507 -3.37802 -2.2881 0
M  V30 5627 H 509.182 -3.95389 -1.28996 0
M  V30 5628 H 507.759 -2.67355 -2.59954 0
M  V30 5629 N 509.944 0.496216 -1.49584 0
M  V30 5630 C 511.36 0.827814 -1.36453 0
M  V30 5631 C 511.56 1.97464 -0.401285 0
M  V30 5632 O 510.616 2.51958 0.165296 0
M  V30 5633 C 511.929 1.16352 -2.77277 0
M  V30 5634 C 513.477 1.27145 -2.86013 0
M  V30 5635 C 513.952 1.64042 -4.27615 0
M  V30 5636 N 515.443 1.71082 -4.30448 0
M  V30 5637 C 516.178 2.01085 -5.36984 0
M  V30 5638 N 515.674 2.2928 -6.5376 0
M  V30 5639 N 517.467 2.02376 -5.24405 0
M  V30 5640 H 509.618 -0.259947 -2.10803 0
M  V30 5641 H 511.881 -0.0537163 -0.946477 0
M  V30 5642 H 511.587 0.394153 -3.49484 0
M  V30 5643 H 511.461 2.10582 -3.12946 0
M  V30 5644 H 513.848 2.03152 -2.1404 0
M  V30 5645 H 513.929 0.309542 -2.5392 0
M  V30 5646 H 513.573 0.88583 -5.00115 0
M  V30 5647 H 513.503 2.6134 -4.57175 0
M  V30 5648 H 515.994 1.51434 -3.46232 0
M  V30 5649 H 516.307 2.51376 -7.30774 0
M  V30 5650 H 514.652 2.26726 -6.56978 0
M  V30 5651 H 517.843 1.79829 -4.32179 0
M  V30 5652 H 518.016 2.25425 -6.07526 0
M  V30 5653 N 511.423 1.38739 0.74761 0
M  V30 5654 C 512.839 1.20067 1.05148 0
M  V30 5655 C 513.039 0.0534835 2.01429 0
M  V30 5656 O 512.095 -0.59886 2.45296 0
M  V30 5657 C 513.408 2.52957 1.62584 0
M  V30 5658 C 514.956 2.59692 1.74726 0
M  V30 5659 C 515.431 3.92772 2.35573 0
M  V30 5660 N 516.922 3.94343 2.42997 0
M  V30 5661 C 517.657 4.9408 2.90985 0
M  V30 5662 N 517.153 6.04214 3.38965 0
M  V30 5663 N 518.946 4.81466 2.9008 0
M  V30 5664 H 511.097 2.12121 0.108808 0
M  V30 5665 H 513.36 0.941491 0.110899 0
M  V30 5666 H 513.066 3.37389 0.993051 0
M  V30 5667 H 512.94 2.71779 2.61565 0
M  V30 5668 H 515.327 1.75651 2.3713 0
M  V30 5669 H 515.408 2.44731 0.744326 0
M  V30 5670 H 515.052 4.77238 1.738 0
M  V30 5671 H 514.982 4.05046 3.36519 0
M  V30 5672 H 517.473 3.14799 2.0907 0
M  V30 5673 H 517.786 6.76241 3.74056 0
M  V30 5674 H 516.131 6.07825 3.37007 0
M  V30 5675 H 519.322 3.94535 2.51912 0
M  V30 5676 H 519.495 5.59344 3.27166 0
M  V30 5677 N 512.901 -0.976442 1.23707 0
M  V30 5678 C 513.831 -2.08749 1.04624 0
M  V30 5679 C 514.812 -1.70057 -0.0380956 0
M  V30 5680 O 515.997 -1.93782 0.127308 0
M  V30 5681 C 513.127 -3.41335 0.640902 0
M  V30 5682 C 512.081 -3.93947 1.67302 0
M  V30 5683 C 511.407 -5.22774 1.12301 0
M  V30 5684 C 512.707 -4.22769 3.06697 0
M  V30 5685 H 514.401 -2.24972 1.97555 0
M  V30 5686 H 511.947 -1.08108 0.951247 0
M  V30 5687 H 513.9 -4.18489 0.494434 0
M  V30 5688 H 512.624 -3.24988 -0.324099 0
M  V30 5689 H 511.283 -3.18941 1.80755 0
M  V30 5690 H 510.931 -5.0278 0.148877 0
M  V30 5691 H 510.631 -5.58942 1.81267 0
M  V30 5692 H 512.155 -6.02546 0.988479 0
M  V30 5693 H 513.569 -4.90659 2.96524 0
M  V30 5694 H 511.966 -4.70147 3.72937 0
M  V30 5695 H 513.036 -3.29885 3.55392 0
M  V30 5696 N 514.379 -1.04941 -1.1758 0
M  V30 5697 C 515.619 -0.766996 -1.89464 0
M  V30 5698 C 515.983 0.693123 -1.79053 0
M  V30 5699 O 517.184 1.08953 -2.45729 0
M  V30 5700 C 515.455 -1.23108 -3.35528 0
M  V30 5701 S 517.014 -1.07565 -4.25412 0
M  V30 5702 H 513.832 -0.278616 -0.654136 0
M  V30 5703 H 516.434 -1.34352 -1.4202 0
M  V30 5704 H 515.138 -2.28896 -3.40639 0
M  V30 5705 H 514.669 -0.648724 -3.88014 0
M  V30 5706 H 516.684 0.00169467 -4.962 0
M  V30 5707 N 515.857 1.33968 -0.830081 0
M  V30 5708 C 516.807 2.26845 -0.229242 0
M  V30 5709 C 517.791 1.48862 0.610659 0
M  V30 5710 O 518.983 1.70808 0.464067 0
M  V30 5711 C 516.112 3.3798 0.602057 0
M  V30 5712 C 515.198 4.23369 -0.248866 0
M  V30 5713 N 515.589 4.88182 -1.32334 0
M  V30 5714 C 513.887 4.45987 -0.0344077 0
M  V30 5715 C 514.588 5.51671 -1.84482 0
M  V30 5716 N 513.564 5.31348 -1.14762 0
M  V30 5717 H 517.366 2.74464 -1.05104 0
M  V30 5718 H 514.88 1.4777 -0.673623 0
M  V30 5719 H 516.877 4.03494 1.04873 0
M  V30 5720 H 515.537 2.9191 1.42193 0
M  V30 5721 H 516.548 4.88988 -1.70619 0
M  V30 5722 H 513.225 4.10658 0.752727 0
M  V30 5723 H 514.615 6.13308 -2.74413 0
M  V30 5724 N 517.335 0.585699 1.46312 0
M  V30 5725 C 518.245 -0.148236 2.34131 0
M  V30 5726 C 519.261 -0.882972 1.49932 0
M  V30 5727 O 520.437 -0.845484 1.82794 0
M  V30 5728 C 517.502 -1.14714 3.27172 0
M  V30 5729 C 516.563 -0.416746 4.27272 0
M  V30 5730 C 515.796 -1.36806 5.15868 0
M  V30 5731 O 516.019 -2.60475 5.07454 0
M  V30 5732 O 514.953 -0.877018 5.95476 0
M  V30 5733 H 518.779 0.572882 2.98248 0
M  V30 5734 H 516.364 0.346082 1.45336 0
M  V30 5735 H 518.246 -1.72303 3.84564 0
M  V30 5736 H 516.921 -1.84967 2.65648 0
M  V30 5737 H 515.828 0.201061 3.73559 0
M  V30 5738 H 517.161 0.244872 4.9159 0
M  V30 5739 N 518.813 -1.54241 0.323641 0
M  V30 5740 C 520.09 -1.92741 -0.333181 0
M  V30 5741 C 520.47 -1.25326 -1.69872 0
M  V30 5742 O 519.818 -0.396991 -2.25025 0
M  V30 5743 C 520.028 -3.46399 -0.425322 0
M  V30 5744 C 521.376 -4.19029 -0.68557 0
M  V30 5745 O 522.4 -3.52555 -0.50824 0
M  V30 5746 O 521.259 -5.36751 -1.02767 0
M  V30 5747 H 518.353 -0.804811 -0.190286 0
M  V30 5748 H 520.899 -1.65542 0.373361 0
M  V30 5749 H 519.671 -3.87643 0.533737 0
M  V30 5750 H 519.294 -3.79704 -1.17944 0
M  V30 5751 N 520.291 -0.0518155 -1.57515 0
M  V30 5752 C 521.537 0.622745 -1.93002 0
M  V30 5753 C 521.87 1.70456 -0.930499 0
M  V30 5754 O 521.145 1.94452 0.0434086 0
M  V30 5755 C 521.428 1.21824 -3.38867 0
M  V30 5756 C 521.281 0.144434 -4.49568 0
M  V30 5757 C 522.6 2.12968 -3.8514 0
M  V30 5758 H 519.719 0.22491 -0.701844 0
M  V30 5759 H 522.361 -0.113711 -1.89659 0
M  V30 5760 H 520.511 1.8459 -3.41846 0
M  V30 5761 H 522.183 -0.48753 -4.58717 0
M  V30 5762 H 520.426 -0.527424 -4.30582 0
M  V30 5763 H 521.097 0.601127 -5.48717 0
M  V30 5764 H 523.573 1.60163 -3.8404 0
M  V30 5765 H 522.449 2.51578 -4.87852 0
M  V30 5766 H 522.71 3.03004 -3.21934 0
M  V30 5767 N 521.769 1.56035 0.221574 0
M  V30 5768 C 522.679 1.95581 1.29558 0
M  V30 5769 C 523.695 0.859639 1.51282 0
M  V30 5770 O 524.871 1.16321 1.64413 0
M  V30 5771 C 521.936 2.26447 2.62531 0
M  V30 5772 C 520.997 3.49632 2.4911 0
M  V30 5773 C 520.23 3.79017 3.75742 0
M  V30 5774 O 520.453 3.10077 4.78757 0
M  V30 5775 O 519.387 4.72507 3.72855 0
M  V30 5776 H 523.213 2.8711 0.990035 0
M  V30 5777 H 520.798 1.43244 0.424434 0
M  V30 5778 H 522.68 2.47494 3.41064 0
M  V30 5779 H 521.355 1.38092 2.92766 0
M  V30 5780 H 520.262 3.33864 1.68777 0
M  V30 5781 H 521.595 4.3837 2.23814 0
M  V30 5782 N 523.247 -0.488276 1.49845 0
M  V30 5783 C 524.21 -1.57069 1.66919 0
M  V30 5784 C 525.21 -1.51445 0.540479 0
M  V30 5785 O 526.4 -1.5437 0.807188 0
M  V30 5786 C 523.532 -2.96718 1.67844 0
M  V30 5787 H 524.725 -1.43254 2.63474 0
M  V30 5788 H 522.278 -0.713435 1.39068 0
M  V30 5789 H 523.013 -3.15996 0.7292 0
M  V30 5790 H 522.798 -3.02208 2.49826 0
M  V30 5791 H 524.288 -3.75335 1.83066 0
M  V30 5792 N 524.725 -1.39134 -0.740242 0
M  V30 5793 C 525.655 -1.40165 -1.86751 0
M  V30 5794 C 526.636 -0.265708 -1.68012 0
M  V30 5795 O 527.821 -0.47076 -1.88408 0
M  V30 5796 C 524.951 -1.2392 -3.2444 0
M  V30 5797 C 523.905 -2.34858 -3.57807 0
M  V30 5798 C 523.231 -2.03707 -4.94376 0
M  V30 5799 C 524.531 -3.77159 -3.61315 0
M  V30 5800 H 526.225 -2.345 -1.86145 0
M  V30 5801 H 523.771 -1.12875 -0.89416 0
M  V30 5802 H 525.724 -1.23263 -4.02969 0
M  V30 5803 H 524.448 -0.26051 -3.25559 0
M  V30 5804 H 523.107 -2.34723 -2.81604 0
M  V30 5805 H 522.755 -1.04289 -4.9207 0
M  V30 5806 H 522.455 -2.78016 -5.17669 0
M  V30 5807 H 523.979 -2.04691 -5.75268 0
M  V30 5808 H 525.393 -3.79252 -4.29931 0
M  V30 5809 H 523.79 -4.50784 -3.96124 0
M  V30 5810 H 524.86 -4.08513 -2.61238 0
M  V30 5811 N 526.204 0.969867 -1.24223 0
M  V30 5812 C 527.167 2.04564 -1.03373 0
M  V30 5813 C 528.167 1.60798 0.00819206 0
M  V30 5814 O 529.357 1.72641 -0.232567 0
M  V30 5815 C 526.489 3.36163 -0.566343 0
M  V30 5816 H 527.682 2.24494 -1.98853 0
M  V30 5817 H 525.235 1.1448 -1.06415 0
M  V30 5818 H 525.97 3.21925 0.391751 0
M  V30 5819 H 525.755 3.69273 -1.31834 0
M  V30 5820 H 527.245 4.1526 -0.441435 0
M  V30 5821 N 527.682 1.05563 1.17022 0
M  V30 5822 C 528.645 0.664098 2.19368 0
M  V30 5823 C 529.645 -0.286358 1.5823 0
M  V30 5824 O 530.835 -0.069728 1.7406 0
M  V30 5825 C 527.967 -0.0239932 3.40892 0
M  V30 5826 H 529.16 1.57 2.55521 0
M  V30 5827 H 526.713 0.849964 1.31169 0
M  V30 5828 H 527.448 -0.942988 3.10287 0
M  V30 5829 H 527.233 0.659351 3.86516 0
M  V30 5830 H 528.723 -0.283909 4.16634 0
M  V30 5831 N 529.16 -1.33526 0.837174 0
M  V30 5832 C 530.409 -1.97098 0.428387 0
M  V30 5833 C 530.722 -1.67062 -1.01734 0
M  V30 5834 O 531.928 -2.24235 -1.53072 0
M  V30 5835 C 530.384 -3.52725 0.715075 0
M  V30 5836 C 529.992 -3.9164 2.17537 0
M  V30 5837 C 531.736 -4.22857 0.373154 0
M  V30 5838 C 529.643 -5.40237 2.40619 0
M  V30 5839 H 528.573 -0.737589 0.156455 0
M  V30 5840 H 531.224 -1.52169 1.02552 0
M  V30 5841 H 529.606 -3.95971 0.0475904 0
M  V30 5842 H 530.78 -3.59456 2.88319 0
M  V30 5843 H 529.095 -3.34485 2.4801 0
M  V30 5844 H 531.692 -5.32133 0.523264 0
M  V30 5845 H 532.035 -4.10647 -0.683708 0
M  V30 5846 H 532.568 -3.85135 0.995801 0
M  V30 5847 H 529.307 -5.57449 3.44864 0
M  V30 5848 H 528.827 -5.73887 1.74396 0
M  V30 5849 H 530.506 -6.07102 2.23688 0
M  V30 5850 N 530.638 -0.59345 -1.46 0
M  V30 5851 C 531.868 -0.0889642 -2.06408 0
M  V30 5852 C 532.276 1.22597 -1.44106 0
M  V30 5853 O 531.619 1.75448 -0.544398 0
M  V30 5854 C 531.681 0.139902 -3.59228 0
M  V30 5855 C 531.345 -1.09107 -4.43784 0
M  V30 5856 C 532.342 -2.00577 -4.79651 0
M  V30 5857 C 530.027 -1.31593 -4.84756 0
M  V30 5858 C 532.021 -3.12873 -5.55328 0
M  V30 5859 C 529.708 -2.44192 -5.60191 0
M  V30 5860 C 530.706 -3.34661 -5.95392 0
M  V30 5861 O 530.394 -4.45302 -6.69299 0
M  V30 5862 H 530.126 -0.0594613 -0.67338 0
M  V30 5863 H 532.68 -0.817 -1.88452 0
M  V30 5864 H 530.91 0.922672 -3.75531 0
M  V30 5865 H 532.599 0.594228 -4.01527 0
M  V30 5866 H 533.365 -1.84425 -4.48567 0
M  V30 5867 H 529.244 -0.620801 -4.56801 0
M  V30 5868 H 532.788 -3.83511 -5.82722 0
M  V30 5869 H 528.685 -2.60303 -5.90688 0
M  V30 5870 H 529.453 -4.43805 -6.87735 0
M  V30 5871 N 532.116 1.54067 -0.331816 0
M  V30 5872 C 533.026 2.28322 0.539104 0
M  V30 5873 C 534.042 1.32985 1.1221 0
M  V30 5874 O 535.218 1.6601 1.1403 0
M  V30 5875 C 532.283 3.03277 1.68 0
M  V30 5876 C 531.344 4.14216 1.12798 0
M  V30 5877 C 530.577 4.85588 2.2145 0
M  V30 5878 O 530.8 4.56536 3.41952 0
M  V30 5879 O 529.734 5.72309 1.86404 0
M  V30 5880 H 533.56 3.03632 -0.0641692 0
M  V30 5881 H 531.145 1.49083 -0.0972365 0
M  V30 5882 H 533.027 3.50189 2.34405 0
M  V30 5883 H 531.702 2.30834 2.2693 0
M  V30 5884 H 530.609 3.71635 0.428782 0
M  V30 5885 H 531.942 4.88727 0.583698 0
M  V30 5886 N 533.594 0.0601682 1.57485 0
M  V30 5887 C 534.504 -0.926121 2.15546 0
M  V30 5888 C 535.52 -1.33532 1.11558 0
M  V30 5889 O 536.696 -1.4104 1.4377 0
M  V30 5890 C 533.761 -2.17952 2.69625 0
M  V30 5891 C 532.822 -1.82783 3.88444 0
M  V30 5892 C 532.055 -3.02148 4.39935 0
M  V30 5893 O 532.278 -4.15803 3.90466 0
M  V30 5894 O 531.212 -2.82639 5.31412 0
M  V30 5895 H 535.038 -0.462289 3.00161 0
M  V30 5896 H 532.623 -0.162246 1.48516 0
M  V30 5897 H 534.505 -2.91474 3.04337 0
M  V30 5898 H 533.18 -2.63456 1.88077 0
M  V30 5899 H 532.087 -1.06549 3.58606 0
M  V30 5900 H 533.42 -1.42072 4.7125 0
M  V30 5901 N 535.072 -1.5615 -0.213296 0
M  V30 5902 C 536.019 -1.93086 -1.26437 0
M  V30 5903 C 536.989 -0.789086 -1.4616 0
M  V30 5904 O 538.174 -1.04569 -1.59593 0
M  V30 5905 C 535.314 -2.26003 -2.608 0
M  V30 5906 C 534.427 -3.53156 -2.48807 0
M  V30 5907 C 533.562 -3.7548 -3.7575 0
M  V30 5908 C 532.601 -4.96119 -3.58514 0
M  V30 5909 N 531.738 -5.14791 -4.77425 0
M  V30 5910 H 536.578 -2.82707 -0.942376 0
M  V30 5911 H 534.115 -1.39919 -0.454001 0
M  V30 5912 H 536.073 -2.431 -3.39055 0
M  V30 5913 H 534.703 -1.39546 -2.91079 0
M  V30 5914 H 533.755 -3.44207 -1.61944 0
M  V30 5915 H 535.067 -4.41565 -2.31996 0
M  V30 5916 H 534.221 -3.92718 -4.62447 0
M  V30 5917 H 532.96 -2.85368 -3.95495 0
M  V30 5918 H 531.965 -4.78823 -2.70201 0
M  V30 5919 H 533.19 -5.87724 -3.40231 0
M  V30 5920 H 531.136 -4.27623 -4.97468 0
M  V30 5921 H 531.053 -5.97347 -4.63371 0
M  V30 5922 H 532.321 -5.36471 -5.65525 0
M  V30 5923 N 536.55 0.480323 -1.50102 0
M  V30 5924 C 537.46 1.60547 -1.71061 0
M  V30 5925 C 538.476 1.63564 -0.593529 0
M  V30 5926 O 539.652 1.81604 -0.870751 0
M  V30 5927 C 536.717 2.96814 -1.79171 0
M  V30 5928 C 535.778 3.04259 -3.02861 0
M  V30 5929 C 535.011 4.34027 -3.10574 0
M  V30 5930 O 535.234 5.24009 -2.25323 0
M  V30 5931 O 534.168 4.46873 -4.03223 0
M  V30 5932 H 537.994 1.45788 -2.6642 0
M  V30 5933 H 535.579 0.658838 -1.34088 0
M  V30 5934 H 537.461 3.77765 -1.86738 0
M  V30 5935 H 536.136 3.11791 -0.869947 0
M  V30 5936 H 535.043 2.22419 -3.008 0
M  V30 5937 H 536.376 2.94216 -3.94586 0
M  V30 5938 N 538.028 1.39524 0.732853 0
M  V30 5939 C 538.991 1.38189 1.82857 0
M  V30 5940 C 539.991 0.278624 1.58368 0
M  V30 5941 O 541.181 0.536639 1.65728 0
M  V30 5942 C 538.313 1.15661 3.2068 0
M  V30 5943 H 539.506 2.35692 1.85444 0
M  V30 5944 H 537.059 1.2512 0.936728 0
M  V30 5945 H 537.794 0.188482 3.23752 0
M  V30 5946 H 537.579 1.95559 3.39852 0
M  V30 5947 H 539.069 1.17472 4.00737 0
M  V30 5948 N 539.506 -0.963266 1.24736 0
M  V30 5949 C 540.752 -1.71 1.10139 0
M  V30 5950 C 541.107 -1.89089 -0.35541 0
M  V30 5951 O 540.4 -1.44451 -1.25875 0
M  V30 5952 C 540.594 -3.09944 1.7796 0
M  V30 5953 C 540.423 -3.05408 3.30085 0
M  V30 5954 C 539.193 -3.09643 3.99311 0
M  V30 5955 C 541.391 -2.87241 4.26611 0
M  V30 5956 N 539.373 -2.95174 5.3828 0
M  V30 5957 C 540.744 -2.81114 5.52607 0
M  V30 5958 C 542.799 -2.71856 4.17132 0
M  V30 5959 C 541.502 -2.61174 6.70209 0
M  V30 5960 C 543.528 -2.53284 5.34417 0
M  V30 5961 C 542.89 -2.4787 6.59348 0
M  V30 5962 H 538.989 -0.634078 0.457678 0
M  V30 5963 H 541.573 -1.14169 1.57713 0
M  V30 5964 H 539.744 -3.64958 1.32893 0
M  V30 5965 H 541.476 -3.73348 1.56183 0
M  V30 5966 H 538.231 -3.18498 3.50508 0
M  V30 5967 H 538.655 -2.91168 6.11188 0
M  V30 5968 H 543.297 -2.74821 3.21299 0
M  V30 5969 H 541.015 -2.56952 7.6616 0
M  V30 5970 H 544.601 -2.42317 5.28936 0
M  V30 5971 H 543.481 -2.33685 7.48573 0
M  V30 5972 N 540.985 -1.06182 -1.16461 0
M  V30 5973 C 542.215 -0.797425 -1.9059 0
M  V30 5974 C 542.623 0.651845 -1.77616 0
M  V30 5975 O 541.966 1.45788 -1.11766 0
M  V30 5976 C 542.028 -1.11128 -3.41893 0
M  V30 5977 C 541.692 -2.55874 -3.78652 0
M  V30 5978 C 542.689 -3.54104 -3.80665 0
M  V30 5979 C 540.374 -2.91144 -4.09317 0
M  V30 5980 C 542.368 -4.85645 -4.12829 0
M  V30 5981 C 540.055 -4.22885 -4.41148 0
M  V30 5982 C 541.053 -5.19945 -4.42883 0
M  V30 5983 O 540.741 -6.49322 -4.73959 0
M  V30 5984 H 540.473 -0.288709 -0.611247 0
M  V30 5985 H 543.027 -1.41841 -1.4856 0
M  V30 5986 H 541.257 -0.433217 -3.84266 0
M  V30 5987 H 542.946 -0.831306 -3.97296 0
M  V30 5988 H 543.712 -3.28197 -3.57088 0
M  V30 5989 H 539.591 -2.16252 -4.07131 0
M  V30 5990 H 543.135 -5.61398 -4.14099 0
M  V30 5991 H 539.032 -4.48551 -4.6419 0
M  V30 5992 H 539.8 -6.54294 -4.91774 0
M  V30 5993 N 542.463 1.3308 -0.844243 0
M  V30 5994 C 543.879 1.50447 -0.532729 0
M  V30 5995 C 544.079 1.78292 0.938837 0
M  V30 5996 O 543.135 1.84635 1.72239 0
M  V30 5997 C 544.448 2.65555 -1.41072 0
M  V30 5998 C 545.996 2.7944 -1.41005 0
M  V30 5999 C 546.471 3.97616 -2.27301 0
M  V30 6000 N 547.962 4.0486 -2.2504 0
M  V30 6001 C 548.697 4.95508 -2.88547 0
M  V30 6002 N 548.193 5.91236 -3.61126 0
M  V30 6003 N 549.986 4.88548 -2.77989 0
M  V30 6004 H 542.137 1.13269 -1.79677 0
M  V30 6005 H 544.4 0.55734 -0.766861 0
M  V30 6006 H 544.106 2.51675 -2.45668 0
M  V30 6007 H 543.98 3.61089 -1.09061 0
M  V30 6008 H 546.367 2.92749 -0.371784 0
M  V30 6009 H 546.448 1.8465 -1.77026 0
M  V30 6010 H 546.092 3.85066 -3.3119 0
M  V30 6011 H 546.022 4.91661 -1.88619 0
M  V30 6012 H 548.513 3.36353 -1.72264 0
M  V30 6013 H 548.826 6.57079 -4.06776 0
M  V30 6014 H 547.171 5.91295 -3.65234 0
M  V30 6015 H 550.362 4.12729 -2.20846 0
M  V30 6016 H 550.535 5.58994 -3.27765 0
M  V30 6017 N 543.941 0.601185 1.45683 0
M  V30 6018 C 544.851 -0.123395 2.34275 0
M  V30 6019 C 545.867 -0.86702 1.5086 0
M  V30 6020 O 547.043 -0.826049 1.8368 0
M  V30 6021 C 544.108 -1.11237 3.2837 0
M  V30 6022 C 543.169 -0.371405 4.2769 0
M  V30 6023 C 542.402 -1.31327 5.1729 0
M  V30 6024 O 542.625 -2.55078 5.10188 0
M  V30 6025 O 541.559 -0.813811 5.96373 0
M  V30 6026 H 545.385 0.604483 2.97623 0
M  V30 6027 H 542.97 0.361477 1.44961 0
M  V30 6028 H 544.852 -1.68214 3.8637 0
M  V30 6029 H 543.527 -1.82139 2.67595 0
M  V30 6030 H 542.434 0.24067 3.73325 0
M  V30 6031 H 543.767 0.296998 4.91303 0
M  V30 6032 N 545.419 -1.53889 0.339982 0
M  V30 6033 C 546.329 -2.28604 -0.526988 0
M  V30 6034 C 547.345 -1.33578 -1.11503 0
M  V30 6035 O 548.521 -1.66612 -1.13148 0
M  V30 6036 C 545.586 -3.04164 -1.66389 0
M  V30 6037 C 544.647 -4.14809 -1.10599 0
M  V30 6038 C 543.88 -4.86756 -2.18871 0
M  V30 6039 O 544.103 -4.58343 -3.39526 0
M  V30 6040 O 543.037 -5.73289 -1.83366 0
M  V30 6041 H 546.863 -3.03594 0.0802707 0
M  V30 6042 H 544.448 -1.4903 0.105141 0
M  V30 6043 H 546.33 -3.51427 -2.32544 0
M  V30 6044 H 545.005 -2.32035 -2.25703 0
M  V30 6045 H 543.912 -3.71857 -0.409067 0
M  V30 6046 H 545.245 -4.89029 -0.557771 0
M  V30 6047 N 546.897 -0.0685191 -1.57451 0
M  V30 6048 C 548.122 0.613919 -1.98106 0
M  V30 6049 C 548.547 1.62551 -0.946501 0
M  V30 6050 O 547.905 1.81085 0.0882824 0
M  V30 6051 C 547.953 1.26189 -3.378 0
M  V30 6052 O 547.057 2.37773 -3.36954 0
M  V30 6053 H 546.398 0.158163 -0.644888 0
M  V30 6054 H 548.928 -0.142063 -2.04106 0
M  V30 6055 H 548.938 1.60951 -3.74912 0
M  V30 6056 H 547.613 0.520625 -4.12629 0
M  V30 6057 H 546.19 2.04829 -3.11608 0
M  V30 6058 N 548.375 1.56261 0.205012 0
M  V30 6059 C 549.652 1.70856 0.952233 0
M  V30 6060 C 550.032 0.620501 2.01775 0
M  V30 6061 O 549.38 -0.370035 2.25484 0
M  V30 6062 C 549.59 3.12807 1.54767 0
M  V30 6063 C 550.938 3.72733 2.0336 0
M  V30 6064 O 551.962 3.15873 1.64629 0
M  V30 6065 O 550.821 4.72501 2.746 0
M  V30 6066 H 547.915 0.696496 0.445895 0
M  V30 6067 H 550.461 1.6857 0.195489 0
M  V30 6068 H 549.233 3.83465 0.779132 0
M  V30 6069 H 548.856 3.1928 2.36951 0
M  V30 6070 N 549.853 -0.472356 1.50355 0
M  V30 6071 C 551.078 -1.25251 1.65309 0
M  V30 6072 C 551.503 -1.85081 0.335643 0
M  V30 6073 O 550.861 -1.67227 -0.700335 0
M  V30 6074 C 550.909 -2.3379 2.74544 0
M  V30 6075 O 550.013 -3.38401 2.35709 0
M  V30 6076 H 549.354 -0.368539 0.552336 0
M  V30 6077 H 551.884 -0.562271 1.96722 0
M  V30 6078 H 551.894 -2.79121 2.97583 0
M  V30 6079 H 550.569 -1.89614 3.70161 0
M  V30 6080 H 549.146 -2.9879 2.23112 0
M  V30 6081 N 551.331 -1.39911 -0.725443 0
M  V30 6082 C 552.261 -1.42138 -1.85254 0
M  V30 6083 C 553.242 -0.283513 -1.67721 0
M  V30 6084 O 554.427 -0.490717 -1.87898 0
M  V30 6085 C 551.557 -1.27354 -3.23107 0
M  V30 6086 C 550.511 -2.3864 -3.55296 0
M  V30 6087 C 549.837 -2.08939 -4.92188 0
M  V30 6088 C 551.137 -3.8097 -3.57295 0
M  V30 6089 H 552.831 -2.36461 -1.83648 0
M  V30 6090 H 550.377 -1.13817 -0.882138 0
M  V30 6091 H 552.33 -1.2753 -4.01639 0
M  V30 6092 H 551.054 -0.295025 -3.25265 0
M  V30 6093 H 549.713 -2.37696 -2.79099 0
M  V30 6094 H 549.361 -1.09502 -4.90936 0
M  V30 6095 H 549.061 -2.83491 -5.14691 0
M  V30 6096 H 550.585 -2.10781 -5.73065 0
M  V30 6097 H 551.999 -3.8379 -4.25885 0
M  V30 6098 H 550.396 -4.5496 -3.9132 0
M  V30 6099 H 551.466 -4.11261 -2.5689 0
M  V30 6100 N 552.809 0.956637 -1.25245 0
M  V30 6101 C 554.057 1.69764 -1.09657 0
M  V30 6102 C 554.378 1.91583 0.363464 0
M  V30 6103 O 553.648 1.50149 1.25825 0
M  V30 6104 H 552.228 0.629097 -0.402798 0
M  V30 6105 H 554.89 1.15026 -1.57337 0
M  V30 6106 H 553.986 2.67769 -1.60331 0
M  V30 6107 N 554.287 1.06798 1.15896 0
M  V30 6108 C 555.219 0.641263 2.20046 0
M  V30 6109 C 556.232 -0.303355 1.59949 0
M  V30 6110 O 557.421 -0.0935478 1.78255 0
M  V30 6111 C 554.521 -0.0794029 3.38807 0
M  V30 6112 C 553.694 0.879986 4.28457 0
M  V30 6113 C 552.753 0.197638 5.25829 0
M  V30 6114 O 551.779 0.836913 5.63014 0
M  V30 6115 N 552.981 -1.05886 5.70761 0
M  V30 6116 H 555.746 1.53718 2.57276 0
M  V30 6117 H 553.307 0.951951 1.30956 0
M  V30 6118 H 555.299 -0.546418 4.00994 0
M  V30 6119 H 553.869 -0.877193 3.0004 0
M  V30 6120 H 553.089 1.52625 3.63454 0
M  V30 6121 H 554.377 1.53065 4.8523 0
M  V30 6122 H 553.775 -1.59828 5.42652 0
M  V30 6123 H 552.332 -1.46965 6.35015 0
M  V30 6124 N 555.766 -1.3263 0.851289 0
M  V30 6125 C 557.043 -1.91982 0.374448 0
M  V30 6126 C 557.423 -1.77568 -1.14161 0
M  V30 6127 O 556.771 -1.1717 -1.96172 0
M  V30 6128 C 556.981 -3.38862 0.835088 0
M  V30 6129 C 558.329 -4.15999 0.850309 0
M  V30 6130 O 559.353 -3.47566 0.779505 0
M  V30 6131 O 558.212 -5.38189 0.949481 0
M  V30 6132 H 555.306 -0.819846 0.10854 0
M  V30 6133 H 557.852 -1.41422 0.937966 0
M  V30 6134 H 556.624 -3.43281 1.87814 0
M  V30 6135 H 556.247 -3.96821 0.248833 0
M  V30 6136 N 557.244 -0.608902 -1.45362 0
M  V30 6137 C 558.174 0.0964526 -2.33301 0
M  V30 6138 C 559.155 0.857444 -1.46908 0
M  V30 6139 O 560.34 0.827735 -1.75676 0
M  V30 6140 C 557.47 1.09354 -3.29635 0
M  V30 6141 C 556.424 0.445676 -4.25673 0
M  V30 6142 C 555.75 1.5511 -5.11708 0
M  V30 6143 C 557.05 -0.633972 -5.18438 0
M  V30 6144 H 558.744 -0.637829 -2.92527 0
M  V30 6145 H 556.29 -0.308178 -1.40664 0
M  V30 6146 H 558.243 1.59556 -3.90025 0
M  V30 6147 H 556.967 1.85843 -2.6857 0
M  V30 6148 H 555.626 -0.0354897 -3.66583 0
M  V30 6149 H 555.274 2.30631 -4.4701 0
M  V30 6150 H 554.974 1.12311 -5.76767 0
M  V30 6151 H 556.498 2.05537 -5.74967 0
M  V30 6152 H 557.912 -0.215974 -5.72893 0
M  V30 6153 H 556.309 -0.983789 -5.91981 0
M  V30 6154 H 557.379 -1.51005 -4.60788 0
M  V30 6155 N 558.722 1.53707 -0.348139 0
M  V30 6156 C 560.138 1.596 0.00361134 0
M  V30 6157 C 560.338 1.36394 1.4832 0
M  V30 6158 O 559.394 1.16046 2.24253 0
M  V30 6159 C 560.707 2.97512 -0.436682 0
M  V30 6160 C 562.255 3.10568 -0.389416 0
M  V30 6161 C 562.73 4.50866 -0.805249 0
M  V30 6162 N 564.221 4.56929 -0.759616 0
M  V30 6163 C 564.956 5.63643 -1.05327 0
M  V30 6164 N 564.452 6.78189 -1.41531 0
M  V30 6165 N 566.245 5.5354 -0.977207 0
M  V30 6166 H 558.396 1.67044 -1.31187 0
M  V30 6167 H 560.659 0.782559 -0.535075 0
M  V30 6168 H 560.365 3.19575 -1.46849 0
M  V30 6169 H 560.239 3.76742 0.185744 0
M  V30 6170 H 562.626 2.88226 0.633228 0
M  V30 6171 H 562.707 2.33387 -1.04711 0
M  V30 6172 H 562.351 4.73943 -1.82593 0
M  V30 6173 H 562.281 5.26452 -0.124989 0
M  V30 6174 H 564.772 3.74675 -0.49265 0
M  V30 6175 H 565.085 7.55541 -1.62411 0
M  V30 6176 H 563.43 6.79624 -1.45381 0
M  V30 6177 H 566.621 4.62932 -0.693675 0
M  V30 6178 H 566.794 6.36614 -1.2094 0
M  V30 6179 N 560.2 0.0768682 1.57412 0
M  V30 6180 C 561.616 -0.279772 1.57129 0
M  V30 6181 C 561.816 -1.69688 1.08666 0
M  V30 6182 O 560.872 -2.40953 0.754843 0
M  V30 6183 C 562.185 -0.0848055 3.0058 0
M  V30 6184 C 563.733 -0.153954 3.12621 0
M  V30 6185 C 564.208 0.0127946 4.57998 0
M  V30 6186 N 565.699 -0.0426435 4.6318 0
M  V30 6187 C 566.434 0.0618892 5.73367 0
M  V30 6188 N 565.93 0.220229 6.9245 0
M  V30 6189 N 567.723 0.00446072 5.621 0
M  V30 6190 H 559.874 1.00297 1.87228 0
M  V30 6191 H 562.137 0.391565 0.863354 0
M  V30 6192 H 561.843 0.89325 3.40168 0
M  V30 6193 H 561.717 -0.834961 3.67843 0
M  V30 6194 H 564.104 -1.1225 2.72917 0
M  V30 6195 H 564.185 0.627389 2.47987 0
M  V30 6196 H 563.829 0.978128 4.98392 0
M  V30 6197 H 563.759 -0.788016 5.20671 0
M  V30 6198 H 566.25 -0.163226 3.77547 0
M  V30 6199 H 566.563 0.291999 7.72248 0
M  V30 6200 H 564.908 0.255658 6.9453 0
M  V30 6201 H 568.099 -0.117979 4.67951 0
M  V30 6202 H 568.272 0.0893796 6.47938 0
M  V30 6203 N 561.678 -1.56367 -0.196722 0
M  V30 6204 C 562.608 -1.97442 -1.24655 0
M  V30 6205 C 563.589 -0.846147 -1.47561 0
M  V30 6206 O 564.774 -1.11035 -1.59326 0
M  V30 6207 C 561.904 -2.31253 -2.59112 0
M  V30 6208 C 560.858 -3.46804 -2.50821 0
M  V30 6209 C 560.184 -3.66286 -3.89536 0
M  V30 6210 C 561.484 -4.8104 -2.03465 0
M  V30 6211 H 563.178 -2.85388 -0.905216 0
M  V30 6212 H 560.724 -1.37304 -0.434002 0
M  V30 6213 H 562.677 -2.58583 -3.32736 0
M  V30 6214 H 561.401 -1.40188 -2.94983 0
M  V30 6215 H 560.06 -3.19563 -1.79653 0
M  V30 6216 H 559.708 -2.72555 -4.22756 0
M  V30 6217 H 559.408 -4.4402 -3.84864 0
M  V30 6218 H 560.932 -3.9599 -4.64784 0
M  V30 6219 H 562.346 -5.07411 -2.66846 0
M  V30 6220 H 560.743 -5.62232 -2.09798 0
M  V30 6221 H 561.813 -4.74732 -0.98781 0
M  V30 6222 N 563.156 0.464375 -1.50603 0
M  V30 6223 C 564.572 0.798684 -1.38178 0
M  V30 6224 C 564.772 1.96568 -0.44308 0
M  V30 6225 O 563.828 2.52252 0.111814 0
M  V30 6226 C 565.141 1.10444 -2.79683 0
M  V30 6227 C 566.689 1.2105 -2.88645 0
M  V30 6228 C 567.164 1.54934 -4.30998 0
M  V30 6229 N 568.655 1.61913 -4.3398 0
M  V30 6230 C 569.39 1.8965 -5.41129 0
M  V30 6231 N 568.886 2.15361 -6.58477 0
M  V30 6232 N 570.679 1.91207 -5.28579 0
M  V30 6233 H 562.83 -0.304603 -2.10204 0
M  V30 6234 H 565.093 -0.0737804 -0.945125 0
M  V30 6235 H 564.799 0.319934 -3.50242 0
M  V30 6236 H 564.673 2.03896 -3.17342 0
M  V30 6237 H 567.06 1.98567 -2.18301 0
M  V30 6238 H 567.141 0.255613 -2.5452 0
M  V30 6239 H 566.785 0.779549 -5.01882 0
M  V30 6240 H 566.715 2.51584 -4.62615 0
M  V30 6241 H 569.206 1.44055 -3.49366 0
M  V30 6242 H 569.519 2.35818 -7.35941 0
M  V30 6243 H 567.864 2.1274 -6.6164 0
M  V30 6244 H 571.055 1.70622 -4.35897 0
M  V30 6245 H 571.228 2.12488 -6.12171 0
M  V30 6246 N 564.634 1.40294 0.718013 0
M  V30 6247 C 565.566 1.36281 1.84283 0
M  V30 6248 C 566.579 0.268621 1.60569 0
M  V30 6249 O 567.768 0.528798 1.70487 0
M  V30 6250 C 564.868 1.09741 3.2064 0
M  V30 6251 C 564.041 2.30767 3.71571 0
M  V30 6252 C 563.1 2.00424 4.86535 0
M  V30 6253 O 562.126 2.73268 4.99313 0
M  V30 6254 N 563.328 0.980724 5.72156 0
M  V30 6255 H 566.093 2.3322 1.88225 0
M  V30 6256 H 563.654 1.34616 0.899453 0
M  V30 6257 H 565.646 0.874322 3.95143 0
M  V30 6258 H 564.216 0.214771 3.11861 0
M  V30 6259 H 563.436 2.68921 2.88228 0
M  V30 6260 H 564.724 3.11455 4.02335 0
M  V30 6261 H 564.122 0.377375 5.6444 0
M  V30 6262 H 562.679 0.817538 6.46653 0
M  V30 6263 N 566.112 -0.949982 1.2575 0
M  V30 6264 C 567.022 -2.08109 1.08295 0
M  V30 6265 C 568.038 -1.7399 0.0188181 0
M  V30 6266 O 569.214 -2.00187 0.220724 0
M  V30 6267 C 566.279 -3.39383 0.708534 0
M  V30 6268 C 565.34 -3.8734 1.85111 0
M  V30 6269 C 564.573 -5.12349 1.49447 0
M  V30 6270 O 564.796 -5.6905 0.392212 0
M  V30 6271 O 563.73 -5.5513 2.32624 0
M  V30 6272 H 567.556 -2.25738 2.03165 0
M  V30 6273 H 565.141 -1.06545 1.04731 0
M  V30 6274 H 567.023 -4.18277 0.512061 0
M  V30 6275 H 565.698 -3.23013 -0.210854 0
M  V30 6276 H 564.605 -3.09429 2.10248 0
M  V30 6277 H 565.938 -4.08216 2.74991 0
M  V30 6278 N 567.59 -1.07411 -1.15328 0
M  V30 6279 C 568.52 -0.716472 -2.22236 0
M  V30 6280 C 569.501 0.296373 -1.67498 0
M  V30 6281 O 570.686 0.168989 -1.93463 0
M  V30 6282 C 567.816 -0.114142 -3.47112 0
M  V30 6283 C 566.77 -1.05421 -4.14814 0
M  V30 6284 C 566.096 -0.314604 -5.33774 0
M  V30 6285 C 567.396 -2.38808 -4.64508 0
M  V30 6286 H 569.09 -1.61029 -2.52408 0
M  V30 6287 H 566.636 -0.775702 -1.21321 0
M  V30 6288 H 568.589 0.148001 -4.2114 0
M  V30 6289 H 567.313 0.814755 -3.16274 0
M  V30 6290 H 565.972 -1.30128 -3.42728 0
M  V30 6291 H 565.62 0.617772 -4.99192 0
M  V30 6292 H 565.32 -0.941209 -5.80013 0
M  V30 6293 H 566.844 -0.0602747 -6.1057 0
M  V30 6294 H 568.258 -2.18424 -5.3006 0
M  V30 6295 H 566.655 -2.97069 -5.21412 0
M  V30 6296 H 567.725 -3.01067 -3.80114 0
M  V30 6297 N 569.068 1.32177 -0.85831 0
M  V30 6298 C 569.998 2.31282 -0.321041 0
M  V30 6299 C 570.979 1.59841 0.581786 0
M  V30 6300 O 572.164 1.87619 0.501262 0
M  V30 6301 C 569.294 3.4385 0.48832 0
M  V30 6302 C 568.248 4.26799 -0.320391 0
M  V30 6303 C 567.574 5.31164 0.613934 0
M  V30 6304 C 568.874 4.98829 -1.54813 0
M  V30 6305 H 570.568 2.76469 -1.14915 0
M  V30 6306 H 568.114 1.32916 -0.554028 0
M  V30 6307 H 570.067 4.12224 0.874626 0
M  V30 6308 H 568.791 2.97401 1.34983 0
M  V30 6309 H 567.45 3.60077 -0.688497 0
M  V30 6310 H 567.098 4.80967 1.47239 0
M  V30 6311 H 566.798 5.8755 0.0768097 0
M  V30 6312 H 568.322 6.024 0.997336 0
M  V30 6313 H 569.736 5.59864 -1.23392 0
M  V30 6314 H 568.133 5.64957 -2.02346 0
M  V30 6315 H 569.203 4.26483 -2.30739 0
M  V30 6316 N 570.547 0.616602 1.45037 0
M  V30 6317 C 571.494 -0.0969439 2.30596 0
M  V30 6318 C 572.464 -0.851151 1.42635 0
M  V30 6319 O 573.649 -0.835092 1.71554 0
M  V30 6320 C 570.789 -1.08234 3.27688 0
M  V30 6321 C 569.902 -0.328072 4.30752 0
M  V30 6322 C 569.037 -1.30399 5.14946 0
M  V30 6323 C 568.076 -0.538049 6.09731 0
M  V30 6324 N 567.213 -1.46371 6.86673 0
M  V30 6325 H 572.053 0.63864 2.91076 0
M  V30 6326 H 569.59 0.326733 1.43425 0
M  V30 6327 H 571.548 -1.66688 3.82454 0
M  V30 6328 H 570.178 -1.78523 2.68941 0
M  V30 6329 H 569.23 0.372136 3.78575 0
M  V30 6330 H 570.542 0.269142 4.98073 0
M  V30 6331 H 569.696 -1.96032 5.74157 0
M  V30 6332 H 568.435 -1.93514 4.47665 0
M  V30 6333 H 567.44 0.131852 5.49642 0
M  V30 6334 H 568.665 0.0881732 6.79043 0
M  V30 6335 H 566.611 -2.08233 6.22073 0
M  V30 6336 H 566.528 -0.920152 7.50379 0
M  V30 6337 H 567.796 -2.10932 7.50418 0
M  V30 6338 N 572.025 -1.5352 0.356285 0
M  V30 6339 C 573.253 -2.05534 -0.237328 0
M  V30 6340 C 573.668 -1.23043 -1.43199 0
M  V30 6341 O 573.025 -0.268821 -1.80509 0
M  V30 6342 C 573.076 -3.55791 -0.639933 0
M  V30 6343 O 572.797 -4.35154 0.507233 0
M  V30 6344 C 574.298 -4.24027 -1.29292 0
M  V30 6345 H 571.518 -0.669585 -0.0435572 0
M  V30 6346 H 574.062 -1.97988 0.511963 0
M  V30 6347 H 572.217 -3.63518 -1.33915 0
M  V30 6348 H 572.631 -5.24178 0.18375 0
M  V30 6349 H 574.105 -5.30509 -1.52527 0
M  V30 6350 H 574.582 -3.77166 -2.25039 0
M  V30 6351 H 575.188 -4.20527 -0.63539 0
M  V30 6352 N 573.503 -0.0852151 -1.57369 0
M  V30 6353 C 574.413 0.891712 -2.16992 0
M  V30 6354 C 575.429 1.3174 -1.13669 0
M  V30 6355 O 576.605 1.38735 -1.45995 0
M  V30 6356 C 573.67 2.13635 -2.73059 0
M  V30 6357 C 572.731 1.7658 -3.91303 0
M  V30 6358 C 571.964 2.95111 -4.44686 0
M  V30 6359 O 572.187 4.09539 -3.97032 0
M  V30 6360 O 571.121 2.74149 -5.35841 0
M  V30 6361 H 574.947 0.414477 -3.00858 0
M  V30 6362 H 572.532 0.138598 -1.48756 0
M  V30 6363 H 574.414 2.86595 -3.08935 0
M  V30 6364 H 573.089 2.6043 -1.92244 0
M  V30 6365 H 571.996 1.00831 -3.60255 0
M  V30 6366 H 573.329 1.34557 -4.7345 0
M  V30 6367 N 574.981 1.5647 0.188427 0
M  V30 6368 C 575.944 1.9421 1.21718 0
M  V30 6369 C 576.944 0.823901 1.38089 0
M  V30 6370 O 578.134 1.09122 1.35787 0
M  V30 6371 C 575.266 2.22197 2.58537 0
M  V30 6372 H 576.459 2.86252 0.894418 0
M  V30 6373 H 574.012 1.50263 0.430211 0
M  V30 6374 H 574.747 1.32814 2.95856 0
M  V30 6375 H 574.532 3.03688 2.48025 0
M  V30 6376 H 576.022 2.52376 3.3271 0
M  V30 6377 N 576.459 -0.456382 1.50847 0
M  V30 6378 C 577.389 -1.56025 1.73719 0
M  V30 6379 C 578.37 -1.5967 0.586473 0
M  V30 6380 O 579.555 -1.75702 0.827185 0
M  V30 6381 C 576.685 -2.94251 1.84483 0
M  V30 6382 C 575.639 -3.05471 2.99786 0
M  V30 6383 C 574.965 -4.45489 2.95709 0
M  V30 6384 C 576.265 -2.81318 4.40065 0
M  V30 6385 H 577.959 -1.37138 2.66146 0
M  V30 6386 H 575.505 -0.658299 1.28072 0
M  V30 6387 H 577.458 -3.71417 1.99067 0
M  V30 6388 H 576.182 -3.14328 0.886891 0
M  V30 6389 H 574.841 -2.30741 2.84876 0
M  V30 6390 H 574.489 -4.62505 1.97732 0
M  V30 6391 H 574.189 -4.53929 3.73125 0
M  V30 6392 H 575.713 -5.24655 3.12362 0
M  V30 6393 H 577.127 -3.48226 4.55425 0
M  V30 6394 H 575.524 -3.01188 5.19043 0
M  V30 6395 H 576.594 -1.7706 4.51418 0
M  V30 6396 N 577.937 -1.40673 -0.710563 0
M  V30 6397 C 578.884 -1.41336 -1.82463 0
M  V30 6398 C 579.854 -0.269648 -1.63897 0
M  V30 6399 O 581.039 -0.468463 -1.8496 0
M  V30 6400 C 578.179 -1.28665 -3.20218 0
M  V30 6401 C 577.292 -2.52784 -3.5032 0
M  V30 6402 C 576.427 -2.32517 -4.77608 0
M  V30 6403 C 575.466 -3.52187 -5.0063 0
M  V30 6404 N 574.603 -3.31084 -6.19135 0
M  V30 6405 H 579.443 -2.36558 -1.8123 0
M  V30 6406 H 576.98 -1.17483 -0.885226 0
M  V30 6407 H 578.938 -1.19324 -3.99772 0
M  V30 6408 H 577.568 -0.370602 -3.20666 0
M  V30 6409 H 576.62 -2.72634 -2.65283 0
M  V30 6410 H 577.932 -3.41845 -3.63241 0
M  V30 6411 H 577.086 -2.20558 -5.65189 0
M  V30 6412 H 575.825 -1.40889 -4.66906 0
M  V30 6413 H 574.83 -3.64617 -4.11502 0
M  V30 6414 H 576.055 -4.44749 -5.13201 0
M  V30 6415 H 574.001 -2.42143 -6.09674 0
M  V30 6416 H 573.918 -4.13713 -6.32754 0
M  V30 6417 H 575.186 -3.22868 -7.0949 0
M  V30 6418 N 579.415 0.9433 -1.26252 0
M  V30 6419 C 580.831 1.21644 -1.03319 0
M  V30 6420 C 581.031 2.0003 0.242983 0
M  V30 6421 O 580.087 2.33838 0.952688 0
M  V30 6422 C 581.4 1.97978 -2.2633 0
M  V30 6423 C 582.948 2.10978 -2.31209 0
M  V30 6424 C 583.423 2.90713 -3.53907 0
M  V30 6425 N 584.914 2.98287 -3.54371 0
M  V30 6426 C 585.649 3.60406 -4.45976 0
M  V30 6427 N 585.145 4.24043 -5.47868 0
M  V30 6428 N 586.938 3.57658 -4.33633 0
M  V30 6429 H 579.089 0.419221 -2.08222 0
M  V30 6430 H 581.352 0.247995 -0.914988 0
M  V30 6431 H 581.058 1.47788 -3.19142 0
M  V30 6432 H 580.932 2.9865 -2.30408 0
M  V30 6433 H 583.319 2.6036 -1.38913 0
M  V30 6434 H 583.4 1.09575 -2.31143 0
M  V30 6435 H 583.044 2.42018 -4.46531 0
M  V30 6436 H 582.974 3.92367 -3.5122 0
M  V30 6437 H 585.465 2.53044 -2.80673 0
M  V30 6438 H 585.778 4.69334 -6.13959 0
M  V30 6439 H 584.123 4.22637 -5.51728 0
M  V30 6440 H 587.314 3.07134 -3.53251 0
M  V30 6441 H 587.487 4.05782 -5.05218 0
M  V30 6442 N 580.893 1.08022 1.14757 0
M  V30 6443 C 581.825 0.664566 2.19354 0
M  V30 6444 C 582.838 -0.286374 1.60261 0
M  V30 6445 O 584.027 -0.0746362 1.78344 0
M  V30 6446 C 581.127 -0.0434634 3.38872 0
M  V30 6447 C 580.3 0.925381 4.27499 0
M  V30 6448 C 579.359 0.253398 5.2559 0
M  V30 6449 O 578.385 0.896581 5.62094 0
M  V30 6450 N 579.587 -0.998263 5.71852 0
M  V30 6451 H 582.352 1.56438 2.55631 0
M  V30 6452 H 579.913 0.965788 1.29939 0
M  V30 6453 H 581.905 -0.503857 4.01551 0
M  V30 6454 H 580.475 -0.845321 3.00954 0
M  V30 6455 H 579.695 1.56472 3.61815 0
M  V30 6456 H 580.983 1.58203 4.8358 0
M  V30 6457 H 580.381 -1.54063 5.44317 0
M  V30 6458 H 578.938 -1.40222 6.36538 0
M  V30 6459 N 582.371 -1.3172 0.865308 0
M  V30 6460 C 583.334 -2.26918 0.322627 0
M  V30 6461 C 584.334 -1.52031 -0.523751 0
M  V30 6462 O 585.524 -1.70973 -0.333727 0
M  V30 6463 C 582.656 -3.36558 -0.542338 0
M  V30 6464 H 583.849 -2.76432 1.16298 0
M  V30 6465 H 581.402 -1.42573 0.640512 0
M  V30 6466 H 582.137 -2.92329 -1.40407 0
M  V30 6467 H 581.922 -3.92048 0.0636395 0
M  V30 6468 H 583.412 -4.07465 -0.91446 0
M  V30 6469 N 583.85 -0.624285 -1.44708 0
M  V30 6470 C 584.782 0.12305 -2.28869 0
M  V30 6471 C 585.795 0.81557 -1.40898 0
M  V30 6472 O 586.984 0.678162 -1.65116 0
M  V30 6473 C 584.084 1.19612 -3.1709 0
M  V30 6474 C 583.257 0.587452 -4.33437 0
M  V30 6475 C 582.316 1.55358 -5.02743 0
M  V30 6476 O 581.341 1.07338 -5.58988 0
M  V30 6477 N 582.543 2.88798 -5.03563 0
M  V30 6478 H 585.308 -0.599193 -2.93649 0
M  V30 6479 H 582.87 -0.464954 -1.5508 0
M  V30 6480 H 584.861 1.84261 -3.60319 0
M  V30 6481 H 583.432 1.82067 -2.54107 0
M  V30 6482 H 582.652 -0.237509 -3.93484 0
M  V30 6483 H 583.94 0.161326 -5.08544 0
M  V30 6484 H 583.338 3.30399 -4.59188 0
M  V30 6485 H 581.894 3.48826 -5.50603 0
M  V30 6486 N 585.328 1.53329 -0.364422 0
M  V30 6487 C 586.238 2.29414 0.490552 0
M  V30 6488 C 587.254 1.35335 1.09363 0
M  V30 6489 O 588.43 1.68391 1.10483 0
M  V30 6490 C 585.495 3.06772 1.61529 0
M  V30 6491 C 584.556 4.16516 1.03986 0
M  V30 6492 C 583.789 4.90176 2.111 0
M  V30 6493 O 584.012 4.63687 3.32191 0
M  V30 6494 O 582.946 5.76134 1.74222 0
M  V30 6495 H 586.772 3.03428 -0.12856 0
M  V30 6496 H 584.357 1.48843 -0.128837 0
M  V30 6497 H 586.239 3.55082 2.26924 0
M  V30 6498 H 584.914 2.35596 2.21983 0
M  V30 6499 H 583.821 3.7246 0.349856 0
M  V30 6500 H 585.154 4.89855 0.4799 0
M  V30 6501 N 586.806 0.0935595 1.57322 0
M  V30 6502 C 587.716 -0.880192 2.17462 0
M  V30 6503 C 588.732 -1.31135 1.14366 0
M  V30 6504 O 589.908 -1.37958 1.46729 0
M  V30 6505 C 586.973 -2.12184 2.74188 0
M  V30 6506 C 586.034 -1.74503 3.92234 0
M  V30 6507 C 585.267 -2.92748 4.46245 0
M  V30 6508 O 585.49 -4.07427 3.99198 0
M  V30 6509 O 584.424 -2.71303 5.37288 0
M  V30 6510 H 588.25 -0.398516 3.01074 0
M  V30 6511 H 585.835 -0.130707 1.48827 0
M  V30 6512 H 587.717 -2.84953 3.10451 0
M  V30 6513 H 586.392 -2.59407 1.93623 0
M  V30 6514 H 585.299 -0.989186 3.60785 0
M  V30 6515 H 586.632 -1.32044 4.74157 0
M  V30 6516 N 588.284 -1.56567 -0.180126 0
M  V30 6517 C 589.247 -1.94852 -1.20686 0
M  V30 6518 C 590.247 -0.831212 -1.3765 0
M  V30 6519 O 591.437 -1.09841 -1.35206 0
M  V30 6520 C 588.569 -2.23565 -2.57355 0
M  V30 6521 H 589.762 -2.86722 -0.879225 0
M  V30 6522 H 587.315 -1.50489 -0.422237 0
M  V30 6523 H 588.05 -1.34381 -2.95148 0
M  V30 6524 H 587.835 -3.04999 -2.46411 0
M  V30 6525 H 589.325 -2.54137 -3.31367 0
M  V30 6526 N 589.762 0.448376 -1.51087 0
M  V30 6527 C 590.709 1.54341 -1.71603 0
M  V30 6528 C 591.679 1.56463 -0.557536 0
M  V30 6529 O 592.864 1.73644 -0.79072 0
M  V30 6530 C 590.004 2.92148 -1.83695 0
M  V30 6531 C 589.117 2.99639 -3.11192 0
M  V30 6532 C 588.252 4.285 -3.13944 0
M  V30 6533 C 587.291 4.29819 -4.35801 0
M  V30 6534 N 586.428 5.50186 -4.36164 0
M  V30 6535 H 591.268 1.36151 -2.65079 0
M  V30 6536 H 588.805 0.661585 -1.31383 0
M  V30 6537 H 590.763 3.72093 -1.88687 0
M  V30 6538 H 589.393 3.0892 -0.936374 0
M  V30 6539 H 588.445 2.12425 -3.15562 0
M  V30 6540 H 589.757 2.96474 -4.01129 0
M  V30 6541 H 588.911 5.16811 -3.17791 0
M  V30 6542 H 587.65 4.34307 -2.21876 0
M  V30 6543 H 586.655 3.39902 -4.32142 0
M  V30 6544 H 587.88 4.25685 -5.29121 0
M  V30 6545 H 585.826 5.56735 -3.46961 0
M  V30 6546 H 585.743 5.48856 -5.19897 0
M  V30 6547 H 587.011 6.40559 -4.44189 0
M  V30 6548 N 591.24 1.41047 0.703093 0
M  V30 6549 C 592.488 1.39723 1.4602 0
M  V30 6550 C 592.809 0.00461257 1.94999 0
M  V30 6551 O 592.079 -0.952292 1.71196 0
M  V30 6552 H 590.659 0.514281 0.541779 0
M  V30 6553 H 593.321 1.76217 0.832678 0
M  V30 6554 H 592.417 2.07982 2.32701 0
M  V30 6555 N 592.718 -0.936591 1.26751 0
M  V30 6556 C 593.681 -2.01752 1.08761 0
M  V30 6557 C 594.681 -1.60763 0.0344435 0
M  V30 6558 O 595.871 -1.71963 0.278258 0
M  V30 6559 C 593.003 -3.34543 0.655271 0
M  V30 6560 H 594.196 -2.19143 2.04735 0
M  V30 6561 H 591.749 -1.11618 1.09413 0
M  V30 6562 H 592.484 -3.22851 -0.30626 0
M  V30 6563 H 592.269 -3.65647 1.41578 0
M  V30 6564 H 593.759 -4.13944 0.551378 0
M  V30 6565 N 594.196 -1.08629 -1.14182 0
M  V30 6566 C 595.126 -0.740003 -2.21464 0
M  V30 6567 C 596.107 0.278591 -1.67803 0
M  V30 6568 O 597.292 0.148461 -1.93632 0
M  V30 6569 C 594.422 -0.150952 -3.46972 0
M  V30 6570 C 593.376 -1.09815 -4.13672 0
M  V30 6571 C 592.702 -0.3712 -5.3341 0
M  V30 6572 C 594.002 -2.43722 -4.61949 0
M  V30 6573 H 595.696 -1.63697 -2.50686 0
M  V30 6574 H 593.242 -0.788526 -1.20492 0
M  V30 6575 H 595.195 0.103325 -4.21273 0
M  V30 6576 H 593.919 0.781164 -3.1712 0
M  V30 6577 H 592.578 -1.33756 -3.41328 0
M  V30 6578 H 592.226 0.564792 -4.99819 0
M  V30 6579 H 591.926 -1.00267 -5.78982 0
M  V30 6580 H 593.45 -0.12503 -6.10472 0
M  V30 6581 H 594.864 -2.24034 -5.27714 0
M  V30 6582 H 593.261 -3.02582 -5.18232 0
M  V30 6583 H 594.331 -3.05082 -3.76899 0
M  V30 6584 N 595.674 1.31259 -0.872281 0
M  V30 6585 C 596.604 2.30929 -0.345554 0
M  V30 6586 C 597.585 1.60449 0.5648 0
M  V30 6587 O 598.77 1.8814 0.481335 0
M  V30 6588 C 595.9 3.44348 0.451823 0
M  V30 6589 C 594.854 4.26435 -0.365641 0
M  V30 6590 C 594.18 5.31785 0.557562 0
M  V30 6591 C 595.48 4.97159 -1.60095 0
M  V30 6592 H 597.174 2.75234 -1.17841 0
M  V30 6593 H 594.72 1.3232 -0.568094 0
M  V30 6594 H 596.673 4.13128 0.830854 0
M  V30 6595 H 595.397 2.98816 1.31821 0
M  V30 6596 H 594.056 3.59326 -0.726649 0
M  V30 6597 H 593.704 4.82502 1.4213 0
M  V30 6598 H 593.404 5.87598 0.0144878 0
M  V30 6599 H 594.928 6.03424 0.933387 0
M  V30 6600 H 596.342 5.58523 -1.29323 0
M  V30 6601 H 594.739 5.62779 -2.08327 0
M  V30 6602 H 595.809 4.24012 -2.35249 0
M  V30 6603 N 597.152 0.631951 1.44375 0
M  V30 6604 C 598.4 0.136497 2.01639 0
M  V30 6605 C 598.721 -1.24637 1.49969 0
M  V30 6606 O 597.991 -1.82827 0.70363 0
M  V30 6607 H 596.571 0.0474703 0.74549 0
M  V30 6608 H 599.233 0.818837 1.76865 0
M  V30 6609 H 598.329 0.104817 3.11924 0
M  V30 6610 N 598.631 -1.53133 0.372548 0
M  V30 6611 C 599.859 -2.05774 -0.215515 0
M  V30 6612 C 600.274 -1.24555 -1.41886 0
M  V30 6613 O 599.631 -0.287951 -1.80214 0
M  V30 6614 C 599.682 -3.5645 -0.602161 0
M  V30 6615 O 599.403 -4.34591 0.553359 0
M  V30 6616 C 600.904 -4.25374 -1.24787 0
M  V30 6617 H 598.124 -0.670009 -0.0364529 0
M  V30 6618 H 600.668 -1.97434 0.532934 0
M  V30 6619 H 598.823 -3.64918 -1.30052 0
M  V30 6620 H 599.237 -5.23954 0.239336 0
M  V30 6621 H 600.711 -5.32097 -1.46891 0
M  V30 6622 H 601.188 -3.79531 -2.21026 0
M  V30 6623 H 601.794 -4.21177 -0.590752 0
M  V30 6624 N 600.109 -0.101901 -1.5727 0
M  V30 6625 C 601.334 0.571759 -1.99363 0
M  V30 6626 C 601.759 1.60507 -0.980768 0
M  V30 6627 O 601.117 1.81231 0.0498517 0
M  V30 6628 C 601.165 1.18996 -3.404 0
M  V30 6629 O 600.269 2.30572 -3.41922 0
M  V30 6630 H 599.61 0.144449 -0.648098 0
M  V30 6631 H 602.14 -0.185325 -2.03759 0
M  V30 6632 H 602.15 1.52962 -3.78241 0
M  V30 6633 H 600.825 0.432984 -4.1364 0
M  V30 6634 H 599.402 1.98173 -3.15883 0
M  V30 6635 N 601.587 1.56661 0.17182 0
M  V30 6636 C 602.835 1.81606 0.886774 0
M  V30 6637 C 603.156 0.678818 1.82803 0
M  V30 6638 O 602.426 -0.301354 1.93568 0
M  V30 6639 H 601.006 0.669934 0.330451 0
M  V30 6640 H 603.668 1.94142 0.171757 0
M  V30 6641 H 602.764 2.75634 1.46398 0
M  V30 6642 N 603.065 -0.440357 1.51323 0
M  V30 6643 C 603.995 -1.54174 1.75364 0
M  V30 6644 C 604.976 -1.59039 0.603375 0
M  V30 6645 O 606.161 -1.74815 0.845774 0
M  V30 6646 C 603.291 -2.92277 1.87593 0
M  V30 6647 C 602.245 -3.02274 3.03009 0
M  V30 6648 C 601.571 -4.42327 3.00418 0
M  V30 6649 C 602.871 -2.76634 4.43024 0
M  V30 6650 H 604.565 -1.34307 2.67585 0
M  V30 6651 H 602.111 -0.644678 1.28763 0
M  V30 6652 H 604.064 -3.69284 2.02995 0
M  V30 6653 H 602.788 -3.13369 0.920179 0
M  V30 6654 H 601.447 -2.27706 2.87307 0
M  V30 6655 H 601.095 -4.60382 2.02626 0
M  V30 6656 H 600.795 -4.49946 3.77918 0
M  V30 6657 H 602.319 -5.21312 3.17909 0
M  V30 6658 H 603.733 -3.43376 4.59093 0
M  V30 6659 H 602.13 -2.95666 5.22208 0
M  V30 6660 H 603.2 -1.72262 4.5327 0
M  V30 6661 N 604.543 -1.41418 -0.695603 0
M  V30 6662 C 605.49 -1.43264 -1.80954 0
M  V30 6663 C 606.46 -0.287016 -1.63601 0
M  V30 6664 O 607.645 -0.488054 -1.84452 0
M  V30 6665 C 604.785 -1.32054 -3.18835 0
M  V30 6666 C 603.898 -2.56485 -3.4762 0
M  V30 6667 C 603.033 -2.3757 -4.75115 0
M  V30 6668 C 602.072 -3.57477 -4.96867 0
M  V30 6669 N 601.209 -3.37632 -6.15588 0
M  V30 6670 H 606.049 -2.38467 -1.78711 0
M  V30 6671 H 603.586 -1.18415 -0.872715 0
M  V30 6672 H 605.544 -1.23558 -3.98484 0
M  V30 6673 H 604.174 -0.404592 -3.20254 0
M  V30 6674 H 603.226 -2.75432 -2.62376 0
M  V30 6675 H 604.538 -3.45678 -3.59594 0
M  V30 6676 H 603.692 -2.2654 -5.62818 0
M  V30 6677 H 602.431 -1.45834 -4.65386 0
M  V30 6678 H 601.436 -3.68961 -4.07612 0
M  V30 6679 H 602.661 -4.50167 -5.08455 0
M  V30 6680 H 600.607 -2.48596 -6.07072 0
M  V30 6681 H 600.524 -4.20401 -6.2833 0
M  V30 6682 H 601.792 -3.30375 -7.06026 0
M  V30 6683 N 606.021 0.929856 -1.27246 0
M  V30 6684 C 607.437 1.20542 -1.04603 0
M  V30 6685 C 607.637 2.00276 0.221754 0
M  V30 6686 O 606.693 2.34835 0.927833 0
M  V30 6687 C 608.006 1.95566 -2.28417 0
M  V30 6688 C 609.554 2.08513 -2.33433 0
M  V30 6689 C 610.029 2.86943 -3.5697 0
M  V30 6690 N 611.52 2.94512 -3.57515 0
M  V30 6691 C 612.255 3.55656 -4.49774 0
M  V30 6692 N 611.751 4.18209 -5.52334 0
M  V30 6693 N 613.544 3.53038 -4.37402 0
M  V30 6694 H 605.695 0.397113 -2.08655 0
M  V30 6695 H 607.958 0.238277 -0.917566 0
M  V30 6696 H 607.664 1.44395 -3.20691 0
M  V30 6697 H 607.538 2.9619 -2.33563 0
M  V30 6698 H 609.925 2.58872 -1.41666 0
M  V30 6699 H 610.006 1.07117 -2.32292 0
M  V30 6700 H 609.65 2.37268 -4.49072 0
M  V30 6701 H 609.58 3.8862 -3.55362 0
M  V30 6702 H 612.071 2.50053 -2.83341 0
M  V30 6703 H 612.384 4.62796 -6.18902 0
M  V30 6704 H 610.729 4.16761 -5.56179 0
M  V30 6705 H 613.92 3.0337 -3.56489 0
M  V30 6706 H 614.093 4.004 -5.09493 0
M  V30 6707 N 607.499 1.09233 1.13605 0
M  V30 6708 C 608.915 0.82163 1.36826 0
M  V30 6709 C 609.115 -0.565021 1.93416 0
M  V30 6710 O 608.171 -1.32026 2.15234 0
M  V30 6711 C 609.484 1.91124 2.32147 0
M  V30 6712 C 611.032 1.93824 2.45767 0
M  V30 6713 C 611.507 3.01923 3.44393 0
M  V30 6714 N 612.998 3.01149 3.51942 0
M  V30 6715 C 613.733 3.81434 4.2813 0
M  V30 6716 N 613.229 4.71621 5.07489 0
M  V30 6717 N 615.022 3.69702 4.23411 0
M  V30 6718 H 607.173 1.98633 0.752234 0
M  V30 6719 H 609.436 0.862482 0.393482 0
M  V30 6720 H 609.142 2.90862 1.97717 0
M  V30 6721 H 609.016 1.78777 3.32142 0
M  V30 6722 H 611.403 0.94726 2.79483 0
M  V30 6723 H 611.484 2.10248 1.45703 0
M  V30 6724 H 611.128 4.01232 3.11408 0
M  V30 6725 H 611.058 2.82742 4.44257 0
M  V30 6726 H 613.549 2.35789 2.95317 0
M  V30 6727 H 613.862 5.29468 5.62924 0
M  V30 6728 H 612.207 4.75658 5.06729 0
M  V30 6729 H 615.398 2.98606 3.60489 0
M  V30 6730 H 615.571 4.32509 4.82535 0
M  V30 6731 N 608.977 -1.30795 0.87923 0
M  V30 6732 C 610.224 -1.96362 0.494786 0
M  V30 6733 C 610.552 -1.69448 -0.954868 0
M  V30 6734 O 609.807 -0.988711 -1.68888 0
M  V30 6735 C 610.106 -3.50287 0.709476 0
M  V30 6736 C 609.772 -3.9724 2.13333 0
M  V30 6737 C 608.434 -4.09772 2.52271 0
M  V30 6738 C 610.786 -4.21807 3.06151 0
M  V30 6739 C 608.114 -4.44227 3.83248 0
M  V30 6740 C 610.466 -4.5773 4.36654 0
M  V30 6741 C 609.13 -4.68469 4.75492 0
M  V30 6742 H 608.4 -0.71854 0.181055 0
M  V30 6743 H 611.047 -1.55764 1.11399 0
M  V30 6744 H 609.352 -3.91799 0.0072 0
M  V30 6745 H 611.049 -3.99082 0.391703 0
M  V30 6746 H 607.639 -3.87988 1.82107 0
M  V30 6747 H 611.823 -4.11611 2.77291 0
M  V30 6748 H 607.079 -4.50741 4.13089 0
M  V30 6749 H 611.253 -4.7569 5.08617 0
M  V30 6750 H 608.88 -4.94923 5.77022 0
M  V30 6751 N 610.455 -0.639598 -1.44038 0
M  V30 6752 C 611.68 -0.153117 -2.06834 0
M  V30 6753 C 612.105 1.16676 -1.47541 0
M  V30 6754 O 611.463 1.71769 -0.580093 0
M  V30 6755 C 611.511 -0.0609169 -3.60549 0
M  V30 6756 O 610.615 0.98071 -4.00569 0
M  V30 6757 H 609.956 -0.0886402 -0.658057 0
M  V30 6758 H 612.486 -0.878674 -1.84771 0
M  V30 6759 H 612.496 0.126892 -4.07803 0
M  V30 6760 H 611.171 -1.0245 -4.03084 0
M  V30 6761 H 609.748 0.766789 -3.64931 0
M  V30 6762 N 611.933 1.52934 -0.380664 0
M  V30 6763 C 613.349 1.59571 -0.0302429 0
M  V30 6764 C 613.549 1.39509 1.45394 0
M  V30 6765 O 612.605 1.20777 2.21741 0
M  V30 6766 C 613.918 2.96519 -0.499691 0
M  V30 6767 C 615.466 3.09672 -0.455204 0
M  V30 6768 C 615.941 4.49056 -0.900703 0
M  V30 6769 N 617.432 4.55215 -0.856367 0
M  V30 6770 C 618.167 5.61282 -1.17259 0
M  V30 6771 N 617.663 6.75035 -1.55885 0
M  V30 6772 N 619.456 5.51343 -1.0944 0
M  V30 6773 H 611.607 1.64224 -1.347 0
M  V30 6774 H 613.87 0.771033 -0.551554 0
M  V30 6775 H 613.576 3.16388 -1.53595 0
M  V30 6776 H 613.45 3.77052 0.105789 0
M  V30 6777 H 615.837 2.89504 0.571949 0
M  V30 6778 H 615.918 2.31113 -1.09638 0
M  V30 6779 H 615.562 4.69964 -1.92604 0
M  V30 6780 H 615.492 5.26068 -0.236629 0
M  V30 6781 H 617.983 3.73546 -0.572013 0
M  V30 6782 H 618.296 7.51926 -1.784 0
M  V30 6783 H 616.641 6.76388 -1.59764 0
M  V30 6784 H 619.832 4.61356 -0.791713 0
M  V30 6785 H 620.005 6.33905 -1.34417 0
M  V30 6786 N 613.412 0.11024 1.57214 0
M  V30 6787 C 614.342 -0.840002 2.17867 0
M  V30 6788 C 615.323 -1.28352 1.11624 0
M  V30 6789 O 616.508 -1.3477 1.39824 0
M  V30 6790 C 613.638 -2.09349 2.77111 0
M  V30 6791 C 612.592 -1.78807 3.8886 0
M  V30 6792 C 611.918 -3.11112 4.34872 0
M  V30 6793 C 613.218 -1.0632 5.11364 0
M  V30 6794 H 614.912 -0.334608 2.97524 0
M  V30 6795 H 612.458 -0.159502 1.43114 0
M  V30 6796 H 614.411 -2.76275 3.18198 0
M  V30 6797 H 613.135 -2.62198 1.9473 0
M  V30 6798 H 611.794 -1.14273 3.48335 0
M  V30 6799 H 611.442 -3.61877 3.49362 0
M  V30 6800 H 611.142 -2.91453 5.10224 0
M  V30 6801 H 612.666 -3.79171 4.78604 0
M  V30 6802 H 614.08 -1.63383 5.49526 0
M  V30 6803 H 612.477 -0.967876 5.92243 0
M  V30 6804 H 613.547 -0.0484569 4.84876 0
M  V30 6805 N 614.89 -1.56749 -0.16351 0
M  V30 6806 C 615.8 -2.00255 -1.2221 0
M  V30 6807 C 616.816 -0.915194 -1.47987 0
M  V30 6808 O 617.992 -1.22342 -1.59982 0
M  V30 6809 C 615.057 -2.36035 -2.53946 0
M  V30 6810 C 614.118 -3.58637 -2.35962 0
M  V30 6811 C 613.351 -3.92701 -3.61416 0
M  V30 6812 O 613.574 -3.27632 -4.66919 0
M  V30 6813 O 612.508 -4.86019 -3.55062 0
M  V30 6814 H 616.334 -2.90586 -0.882794 0
M  V30 6815 H 613.919 -1.44721 -0.370978 0
M  V30 6816 H 615.801 -2.59982 -3.31643 0
M  V30 6817 H 614.476 -1.48863 -2.8744 0
M  V30 6818 H 613.383 -3.39898 -1.5627 0
M  V30 6819 H 614.716 -4.46374 -2.0739 0
M  V30 6820 N 616.368 0.432326 -1.51554 0
M  V30 6821 C 617.316 1.54572 -1.73811 0
M  V30 6822 C 618.31 1.58246 -0.604539 0
M  V30 6823 O 619.516 1.6193 -0.786041 0
M  V30 6824 H 615.891 0.513626 -0.549265 0
M  V30 6825 H 617.862 1.32977 -2.67132 0
M  V30 6826 C 616.611 2.92181 -1.88483 0
M  V30 6827 H 615.934 2.90088 -2.75116 0
M  V30 6828 H 617.374 3.69439 -2.08065 0
M  V30 6829 C 615.833 3.3065 -0.645909 0
M  V30 6830 O 616.363 4.01216 0.197093 0
M  V30 6831 N 614.569 2.86464 -0.488538 0
M  V30 6832 H 614.116 2.29209 -1.17562 0
M  V30 6833 H 614.074 3.12565 0.339156 0
M  V30 6834 N 617.846 1.41785 0.688094 0
M  V30 6835 C 619.262 1.24419 0.999608 0
M  V30 6836 C 619.462 0.138868 2.01021 0
M  V30 6837 O 618.518 -0.494283 2.47615 0
M  V30 6838 C 619.831 2.59625 1.51709 0
M  V30 6839 C 621.379 2.66869 1.63554 0
M  V30 6840 C 621.854 4.0241 2.18702 0
M  V30 6841 N 623.345 4.04295 2.26053 0
M  V30 6842 C 624.08 5.05977 2.69768 0
M  V30 6843 N 623.576 6.18047 3.13033 0
M  V30 6844 N 625.369 4.93336 2.69398 0
M  V30 6845 H 617.52 2.12392 0.0187427 0
M  V30 6846 H 619.783 0.945347 0.0708673 0
M  V30 6847 H 619.489 3.41297 0.849059 0
M  V30 6848 H 619.363 2.82628 2.49803 0
M  V30 6849 H 621.75 1.8555 2.29467 0
M  V30 6850 H 621.831 2.47668 0.639857 0
M  V30 6851 H 621.475 4.8418 1.53402 0
M  V30 6852 H 621.405 4.18955 3.19037 0
M  V30 6853 H 623.896 3.23383 1.9553 0
M  V30 6854 H 624.209 6.91498 3.45038 0
M  V30 6855 H 622.554 6.21572 3.10923 0
M  V30 6856 H 625.745 4.04865 2.34952 0
M  V30 6857 H 625.918 5.72717 3.03148 0
M  V30 6858 N 619.324 -0.923095 1.27737 0
M  V30 6859 C 620.554 -1.70277 1.17001 0
M  V30 6860 C 620.962 -1.87188 -0.275199 0
M  V30 6861 O 620.305 -1.39195 -1.19877 0
M  V30 6862 C 620.367 -3.11976 1.78637 0
M  V30 6863 C 620.031 -3.18386 3.27841 0
M  V30 6864 C 621.028 -3.00287 4.2441 0
M  V30 6865 C 618.713 -3.41198 3.68632 0
M  V30 6866 C 620.707 -3.04896 5.59747 0
M  V30 6867 C 618.394 -3.4544 5.04097 0
M  V30 6868 C 619.392 -3.27309 5.99465 0
M  V30 6869 O 619.08 -3.31295 7.32461 0
M  V30 6870 H 618.812 -0.539366 0.407505 0
M  V30 6871 H 621.366 -1.16446 1.69202 0
M  V30 6872 H 619.596 -3.67308 1.20919 0
M  V30 6873 H 621.285 -3.7193 1.6255 0
M  V30 6874 H 622.051 -2.825 3.94232 0
M  V30 6875 H 617.93 -3.54359 2.94873 0
M  V30 6876 H 621.474 -2.90662 6.34162 0
M  V30 6877 H 617.371 -3.62753 5.33929 0
M  V30 6878 H 618.139 -3.47719 7.40968 0
M  V30 6879 N 620.802 -1.09834 -1.13024 0
M  V30 6880 C 621.712 -0.753731 -2.22162 0
M  V30 6881 C 622.728 0.246105 -1.72251 0
M  V30 6882 O 623.904 0.0864051 -2.01215 0
M  V30 6883 C 620.969 -0.183958 -3.46212 0
M  V30 6884 C 620.03 -1.24028 -4.10993 0
M  V30 6885 C 619.263 -0.697597 -5.29121 0
M  V30 6886 O 619.486 0.478092 -5.68393 0
M  V30 6887 O 618.42 -1.4546 -5.84059 0
M  V30 6888 H 622.246 -1.66456 -2.5402 0
M  V30 6889 H 619.831 -0.873026 -1.21238 0
M  V30 6890 H 621.713 0.130257 -4.21199 0
M  V30 6891 H 620.388 0.699823 -3.16045 0
M  V30 6892 H 619.295 -1.60725 -3.37814 0
M  V30 6893 H 620.628 -2.09685 -4.45301 0
M  V30 6894 N 622.28 1.30327 -0.886154 0
M  V30 6895 C 623.243 2.26376 -0.358687 0
M  V30 6896 C 624.243 1.52845 0.499498 0
M  V30 6897 O 625.433 1.71483 0.306485 0
M  V30 6898 C 622.565 3.37379 0.488726 0
M  V30 6899 H 623.758 2.74547 -1.20681 0
M  V30 6900 H 621.311 1.41536 -0.663113 0
M  V30 6901 H 622.046 2.94526 1.35739 0
M  V30 6902 H 621.831 3.91897 -0.126003 0
M  V30 6903 H 623.321 4.08868 0.84952 0
M  V30 6904 N 623.758 0.647228 1.43697 0
M  V30 6905 C 624.688 -0.0345631 2.33474 0
M  V30 6906 C 625.669 -0.818193 1.4913 0
M  V30 6907 O 626.854 -0.780867 1.77809 0
M  V30 6908 C 623.984 -1.00576 3.32418 0
M  V30 6909 C 622.938 -0.33266 4.26705 0
M  V30 6910 C 622.264 -1.41489 5.1564 0
M  V30 6911 C 623.564 0.771204 5.16575 0
M  V30 6912 H 625.258 0.715163 2.90733 0
M  V30 6913 H 622.804 0.345364 1.39797 0
M  V30 6914 H 624.757 -1.49159 3.94119 0
M  V30 6915 H 623.481 -1.78657 2.73403 0
M  V30 6916 H 622.14 0.13267 3.6636 0
M  V30 6917 H 621.788 -2.18698 4.52968 0
M  V30 6918 H 621.488 -0.969799 5.79542 0
M  V30 6919 H 623.012 -1.9022 5.80214 0
M  V30 6920 H 624.426 0.36779 5.72119 0
M  V30 6921 H 622.823 1.1404 5.89165 0
M  V30 6922 H 623.893 1.63169 4.56622 0
M  V30 6923 N 625.236 -1.5273 0.388769 0
M  V30 6924 C 626.199 -2.25043 -0.434544 0
M  V30 6925 C 627.199 -1.26661 -0.990644 0
M  V30 6926 O 628.389 -1.50762 -0.872731 0
M  V30 6927 C 625.521 -3.00507 -1.60961 0
M  V30 6928 H 626.714 -2.99242 0.198549 0
M  V30 6929 H 624.267 -1.55664 0.140875 0
M  V30 6930 H 625.002 -2.30607 -2.28015 0
M  V30 6931 H 624.787 -3.72716 -1.21757 0
M  V30 6932 H 626.277 -3.55413 -2.19251 0
M  V30 6933 N 626.714 -0.118576 -1.57153 0
M  V30 6934 C 627.661 0.831789 -2.1529 0
M  V30 6935 C 628.631 1.26385 -1.07778 0
M  V30 6936 O 629.816 1.34144 -1.35684 0
M  V30 6937 C 626.956 2.07664 -2.75626 0
M  V30 6938 C 626.069 1.69298 -3.97444 0
M  V30 6939 C 625.204 2.88747 -4.45868 0
M  V30 6940 C 624.243 2.46619 -5.60219 0
M  V30 6941 N 623.38 3.5898 -6.03389 0
M  V30 6942 H 628.22 0.329183 -2.96176 0
M  V30 6943 H 625.757 0.150792 -1.46325 0
M  V30 6944 H 627.715 2.80601 -3.08738 0
M  V30 6945 H 626.345 2.55384 -1.97431 0
M  V30 6946 H 625.397 0.862374 -3.70496 0
M  V30 6947 H 626.709 1.34338 -4.80369 0
M  V30 6948 H 625.863 3.69909 -4.80887 0
M  V30 6949 H 624.602 3.26933 -3.61892 0
M  V30 6950 H 623.607 1.63889 -5.24805 0
M  V30 6951 H 624.832 2.0955 -6.45961 0
M  V30 6952 H 622.778 3.9684 -5.22354 0
M  V30 6953 H 622.695 3.27942 -6.81168 0
M  V30 6954 H 623.963 4.40583 -6.43045 0
M  V30 6955 N 628.193 1.56834 0.155195 0
M  V30 6956 C 629.125 1.94235 1.21677 0
M  V30 6957 C 630.138 0.83724 1.39621 0
M  V30 6958 O 631.327 1.11567 1.39338 0
M  V30 6959 C 628.427 2.19402 2.58294 0
M  V30 6960 C 627.6 3.50671 2.61436 0
M  V30 6961 C 626.659 3.64475 3.79532 0
M  V30 6962 O 625.685 4.36945 3.64784 0
M  V30 6963 N 626.887 3.00526 4.96653 0
M  V30 6964 H 629.652 2.85901 0.898932 0
M  V30 6965 H 627.213 1.58185 0.34483 0
M  V30 6966 H 629.205 2.25886 3.35794 0
M  V30 6967 H 627.775 1.34042 2.82403 0
M  V30 6968 H 626.995 3.55702 1.69912 0
M  V30 6969 H 628.283 4.3702 2.60559 0
M  V30 6970 H 627.681 2.41549 5.11538 0
M  V30 6971 H 626.238 3.12583 5.71958 0
M  V30 6972 N 629.671 -0.424282 1.51781 0
M  V30 6973 C 630.917 -1.17434 1.6534 0
M  V30 6974 C 631.25 -1.90549 0.374806 0
M  V30 6975 O 630.525 -1.84145 -0.626179 0
M  V30 6976 C 630.808 -2.18093 2.86544 0
M  V30 6977 C 630.661 -1.48975 4.24413 0
M  V30 6978 C 631.98 -3.18934 3.03264 0
M  V30 6979 H 629.099 -0.425566 0.601716 0
M  V30 6980 H 631.741 -0.461921 1.84299 0
M  V30 6981 H 629.891 -2.78849 2.7051 0
M  V30 6982 H 631.563 -0.914551 4.52143 0
M  V30 6983 H 629.806 -0.791893 4.26511 0
M  V30 6984 H 630.477 -2.22347 5.05238 0
M  V30 6985 H 632.953 -2.68243 3.18096 0
M  V30 6986 H 631.829 -3.86645 3.89611 0
M  V30 6987 H 632.09 -3.85793 2.15908 0
M  V30 6988 N 631.149 -1.42148 -0.680565 0
M  V30 6989 C 632.112 -1.4488 -1.77602 0
M  V30 6990 C 633.112 -0.337209 -1.57224 0
M  V30 6991 O 634.302 -0.597778 -1.63622 0
M  V30 6992 C 631.434 -1.27483 -3.16166 0
M  V30 6993 H 632.627 -2.42412 -1.76568 0
M  V30 6994 H 630.18 -1.28511 -0.889645 0
M  V30 6995 H 630.915 -0.30851 -3.22829 0
M  V30 6996 H 630.7 -2.08037 -3.3236 0
M  V30 6997 H 632.19 -1.32265 -3.96101 0
M  V30 6998 N 632.627 0.916307 -1.28225 0
M  V30 6999 C 633.852 1.7043 -1.18188 0
M  V30 7000 C 634.277 1.86346 0.256274 0
M  V30 7001 O 633.635 1.37175 1.18544 0
M  V30 7002 C 633.683 3.07546 -1.88275 0
M  V30 7003 O 632.787 3.94904 -1.18848 0
M  V30 7004 H 632.128 0.521967 -0.410423 0
M  V30 7005 H 634.658 1.14589 -1.69501 0
M  V30 7006 H 634.668 3.57793 -1.96082 0
M  V30 7007 H 633.343 2.95279 -2.92887 0
M  V30 7008 H 631.92 3.53339 -1.19187 0
M  V30 7009 N 634.105 1.10431 1.1244 0
M  V30 7010 C 635.015 0.765502 2.21759 0
M  V30 7011 C 636.031 -0.236966 1.72379 0
M  V30 7012 O 637.207 -0.0757329 2.01258 0
M  V30 7013 C 634.272 0.202316 3.46109 0
M  V30 7014 C 633.333 1.26205 4.1033 0
M  V30 7015 C 632.566 0.725648 5.28744 0
M  V30 7016 O 632.789 -0.447942 5.68638 0
M  V30 7017 O 631.723 1.48555 5.83279 0
M  V30 7018 H 635.549 1.67801 2.53133 0
M  V30 7019 H 633.134 0.879443 1.20773 0
M  V30 7020 H 635.016 -0.107918 4.21262 0
M  V30 7021 H 633.691 -0.683052 3.16411 0
M  V30 7022 H 632.598 1.62514 3.36957 0
M  V30 7023 H 633.931 2.12044 4.44183 0
M  V30 7024 N 635.583 -1.29855 0.893053 0
M  V30 7025 C 636.516 -2.26079 0.3104 0
M  V30 7026 C 637.494 -1.52145 -0.573644 0
M  V30 7027 O 638.678 -1.8113 -0.521937 0
M  V30 7028 C 635.805 -3.34069 -0.558179 0
M  V30 7029 C 634.851 -4.25721 0.257638 0
M  V30 7030 S 635.684 -5.09409 1.65114 0
M  V30 7031 C 636.84 -6.20903 0.789307 0
M  V30 7032 H 637.073 -2.75151 1.12602 0
M  V30 7033 H 634.606 -1.37975 0.692978 0
M  V30 7034 H 636.564 -3.9675 -1.05355 0
M  V30 7035 H 635.225 -2.83705 -1.34797 0
M  V30 7036 H 634.418 -5.02366 -0.405562 0
M  V30 7037 H 634.02 -3.67656 0.685917 0
M  V30 7038 H 636.312 -6.77499 0.00978451 0
M  V30 7039 H 637.255 -6.91426 1.52762 0
M  V30 7040 H 637.663 -5.63435 0.346634 0
M  V30 7041 N 637.061 -0.65484 -1.43351 0
M  V30 7042 C 638.477 -0.32255 -1.56307 0
M  V30 7043 C 638.677 1.17324 -1.63821 0
M  V30 7044 O 637.733 1.95813 -1.59417 0
M  V30 7045 C 639.046 -1.03533 -2.82314 0
M  V30 7046 C 640.594 -1.01574 -2.9606 0
M  V30 7047 C 641.069 -1.70945 -4.24902 0
M  V30 7048 N 642.56 -1.67716 -4.3177 0
M  V30 7049 C 643.295 -2.18265 -5.30234 0
M  V30 7050 N 642.791 -2.7711 -6.34966 0
M  V30 7051 N 644.584 -2.08756 -5.21898 0
M  V30 7052 H 636.735 -1.62549 -1.36717 0
M  V30 7053 H 638.998 -0.683676 -0.656727 0
M  V30 7054 H 638.704 -2.09045 -2.8283 0
M  V30 7055 H 638.578 -0.587913 -3.7259 0
M  V30 7056 H 640.965 0.0309834 -2.95084 0
M  V30 7057 H 641.046 -1.50186 -2.07069 0
M  V30 7058 H 640.69 -2.75574 -4.26639 0
M  V30 7059 H 640.62 -1.19797 -5.12793 0
M  V30 7060 H 643.111 -1.24777 -3.56706 0
M  V30 7061 H 643.424 -3.13353 -7.06421 0
M  V30 7062 H 641.769 -2.81171 -6.35585 0
M  V30 7063 H 644.96 -1.62488 -4.38994 0
M  V30 7064 H 645.133 -2.48459 -5.98475 0
M  V30 7065 N 638.539 1.52521 -0.396863 0
M  V30 7066 C 639.786 2.01672 0.182898 0
M  V30 7067 C 640.114 1.28302 1.46181 0
M  V30 7068 O 639.369 0.374118 1.92091 0
M  V30 7069 C 639.668 3.5403 0.489677 0
M  V30 7070 C 639.334 4.45456 -0.698581 0
M  V30 7071 C 637.996 4.70166 -1.02454 0
M  V30 7072 C 640.348 4.99354 -1.49316 0
M  V30 7073 C 637.676 5.46024 -2.1465 0
M  V30 7074 C 640.028 5.76439 -2.60579 0
M  V30 7075 C 638.692 5.99426 -2.93675 0
M  V30 7076 H 637.962 0.737971 0.066927 0
M  V30 7077 H 640.609 1.83853 -0.535764 0
M  V30 7078 H 638.914 3.69963 1.28976 0
M  V30 7079 H 640.611 3.8956 0.951018 0
M  V30 7080 H 637.201 4.26392 -0.434525 0
M  V30 7081 H 641.385 4.80182 -1.25457 0
M  V30 7082 H 636.641 5.62046 -2.40654 0
M  V30 7083 H 640.815 6.17202 -3.22544 0
M  V30 7084 H 638.442 6.57988 -3.80731 0
M  V30 7085 N 640.017 0.126909 1.57088 0
M  V30 7086 C 641.263 -0.529952 1.95753 0
M  V30 7087 C 641.596 -1.65823 1.01077 0
M  V30 7088 O 640.871 -1.94437 0.0494162 0
M  V30 7089 C 641.154 -1.05517 3.44294 0
M  V30 7090 C 641.007 0.0702253 4.49745 0
M  V30 7091 C 642.326 -1.9435 3.94862 0
M  V30 7092 H 639.445 -0.191168 0.711775 0
M  V30 7093 H 642.087 0.204071 1.88901 0
M  V30 7094 H 640.237 -1.68069 3.50264 0
M  V30 7095 H 641.909 0.705834 4.55868 0
M  V30 7096 H 640.152 0.732259 4.27575 0
M  V30 7097 H 640.823 -0.338642 5.5096 0
M  V30 7098 H 643.299 -1.41658 3.91244 0
M  V30 7099 H 642.175 -2.28015 4.993 0
M  V30 7100 H 642.436 -2.87299 3.36024 0
M  V30 7101 N 641.495 -1.56914 -0.146875 0
M  V30 7102 C 642.427 -1.94878 -1.20645 0
M  V30 7103 C 643.44 -0.844633 -1.39175 0
M  V30 7104 O 644.629 -1.12304 -1.38744 0
M  V30 7105 C 641.729 -2.20769 -2.57127 0
M  V30 7106 C 640.902 -3.52053 -2.59572 0
M  V30 7107 C 639.961 -3.66482 -3.77594 0
M  V30 7108 O 638.987 -4.38873 -3.62462 0
M  V30 7109 N 640.189 -3.03156 -4.95052 0
M  V30 7110 H 642.954 -2.86374 -0.883757 0
M  V30 7111 H 640.515 -1.58366 -0.336436 0
M  V30 7112 H 642.507 -2.27664 -3.34591 0
M  V30 7113 H 641.077 -1.35538 -2.81688 0
M  V30 7114 H 640.297 -3.56598 -1.68023 0
M  V30 7115 H 641.585 -4.38396 -2.58238 0
M  V30 7116 H 640.983 -2.44258 -5.10249 0
M  V30 7117 H 639.54 -3.15611 -5.70292 0
M  V30 7118 N 642.974 0.416227 -1.52004 0
M  V30 7119 C 644.251 1.17637 -1.56272 0
M  V30 7120 C 644.631 2.08352 -0.339493 0
M  V30 7121 O 643.979 2.1833 0.674124 0
M  V30 7122 C 644.189 1.95986 -2.88774 0
M  V30 7123 C 645.537 2.52299 -3.41512 0
M  V30 7124 O 646.561 2.06174 -2.90467 0
M  V30 7125 O 645.42 3.3648 -4.30631 0
M  V30 7126 H 642.514 0.536726 -0.629169 0
M  V30 7127 H 645.06 0.423583 -1.64329 0
M  V30 7128 H 643.832 1.29487 -3.69254 0
M  V30 7129 H 643.455 2.78285 -2.83978 0
M  V30 7130 N 644.452 1.42507 0.673017 0
M  V30 7131 C 645.382 1.48916 1.79851 0
M  V30 7132 C 646.363 0.345566 1.66553 0
M  V30 7133 O 647.548 0.560116 1.85947 0
M  V30 7134 C 644.678 1.39258 3.18158 0
M  V30 7135 C 643.632 2.51662 3.46194 0
M  V30 7136 C 642.958 2.27062 4.84094 0
M  V30 7137 C 644.258 3.93968 3.42909 0
M  V30 7138 H 645.952 2.43114 1.74745 0
M  V30 7139 H 643.498 1.17013 0.839288 0
M  V30 7140 H 645.451 1.42349 3.96629 0
M  V30 7141 H 644.175 0.415542 3.23946 0
M  V30 7142 H 642.834 2.47891 2.70084 0
M  V30 7143 H 642.482 1.27648 4.86534 0
M  V30 7144 H 642.182 3.02398 5.03815 0
M  V30 7145 H 643.706 2.31905 5.64847 0
M  V30 7146 H 645.12 3.99332 4.11347 0
M  V30 7147 H 643.517 4.6917 3.74165 0
M  V30 7148 H 644.587 4.20512 2.41449 0
M  V30 7149 N 645.93 -0.909495 1.28709 0
M  V30 7150 C 647.176 -1.66151 1.16283 0
M  V30 7151 C 647.509 -1.92067 -0.287069 0
M  V30 7152 O 646.784 -1.52409 -1.20837 0
M  V30 7153 C 647.067 -3.01676 1.9663 0
M  V30 7154 C 646.92 -2.82888 3.49707 0
M  V30 7155 C 648.239 -4.02274 1.78504 0
M  V30 7156 H 645.358 -0.602966 0.423793 0
M  V30 7157 H 648 -1.05418 1.58073 0
M  V30 7158 H 646.15 -3.53515 1.61119 0
M  V30 7159 H 647.822 -2.38026 3.95147 0
M  V30 7160 H 646.065 -2.17862 3.75125 0
M  V30 7161 H 646.736 -3.79147 4.01187 0
M  V30 7162 H 649.212 -3.59511 2.09503 0
M  V30 7163 H 648.088 -4.95056 2.37088 0
M  V30 7164 H 648.349 -4.35903 0.737647 0
M  V30 7165 N 647.408 -1.11026 -1.11852 0
M  V30 7166 C 648.824 -0.843294 -1.35502 0
M  V30 7167 C 649.024 0.534179 -1.9429 0
M  V30 7168 O 648.08 1.28585 -2.17307 0
M  V30 7169 C 649.393 -1.94793 -2.29077 0
M  V30 7170 C 650.941 -1.97709 -2.42652 0
M  V30 7171 C 651.416 -3.07364 -3.39546 0
M  V30 7172 N 652.907 -3.0671 -3.47107 0
M  V30 7173 C 653.642 -3.88197 -4.22008 0
M  V30 7174 N 653.138 -4.79635 -4.99922 0
M  V30 7175 N 654.931 -3.76391 -4.17476 0
M  V30 7176 H 647.082 -1.99805 -0.720538 0
M  V30 7177 H 649.345 -0.868633 -0.379711 0
M  V30 7178 H 649.051 -2.93971 -1.93065 0
M  V30 7179 H 648.925 -1.84039 -3.29256 0
M  V30 7180 H 651.312 -0.991604 -2.77941 0
M  V30 7181 H 651.393 -2.1254 -1.4234 0
M  V30 7182 H 651.037 -4.06136 -3.04985 0
M  V30 7183 H 650.967 -2.89774 -4.39703 0
M  V30 7184 H 653.458 -2.40457 -2.91528 0
M  V30 7185 H 653.771 -5.38357 -5.54429 0
M  V30 7186 H 652.116 -4.8366 -4.99097 0
M  V30 7187 H 655.307 -3.04303 -3.55693 0
M  V30 7188 H 655.48 -4.40131 -4.75593 0
M  V30 7189 N 648.886 1.2938 -0.899927 0
M  V30 7190 C 649.849 2.25983 -0.382677 0
M  V30 7191 C 650.849 1.53366 0.483259 0
M  V30 7192 O 652.039 1.71798 0.28828 0
M  V30 7193 C 649.171 3.37878 0.452915 0
M  V30 7194 H 650.364 2.73252 -1.23586 0
M  V30 7195 H 647.917 1.40825 -0.678088 0
M  V30 7196 H 648.652 2.95949 1.32608 0
M  V30 7197 H 648.437 3.91742 -0.167562 0
M  V30 7198 H 649.927 4.09746 0.806107 0
M  V30 7199 N 650.364 0.662433 1.43002 0
M  V30 7200 C 651.294 -0.00979809 2.33498 0
M  V30 7201 C 652.275 -0.802329 1.49989 0
M  V30 7202 O 653.46 -0.761964 1.78627 0
M  V30 7203 C 650.59 -0.970446 3.33466 0
M  V30 7204 C 649.544 -0.287383 4.27034 0
M  V30 7205 C 648.87 -1.36012 5.17112 0
M  V30 7206 C 650.17 0.82595 5.15728 0
M  V30 7207 H 651.864 0.745959 2.89958 0
M  V30 7208 H 649.41 0.360172 1.39423 0
M  V30 7209 H 651.363 -1.44971 3.95679 0
M  V30 7210 H 650.087 -1.75748 2.75282 0
M  V30 7211 H 648.746 0.17152 3.66199 0
M  V30 7212 H 648.394 -2.13882 4.55262 0
M  V30 7213 H 648.094 -0.908276 5.80538 0
M  V30 7214 H 649.618 -1.84056 5.82199 0
M  V30 7215 H 651.032 0.42845 5.71697 0
M  V30 7216 H 649.429 1.20282 5.87922 0
M  V30 7217 H 650.499 1.68003 4.54866 0
M  V30 7218 N 651.842 -1.52309 0.404946 0
M  V30 7219 C 652.752 -2.30634 -0.429555 0
M  V30 7220 C 653.768 -1.38187 -1.05737 0
M  V30 7221 O 654.944 -1.71261 -1.05979 0
M  V30 7222 C 652.009 -3.10947 -1.53339 0
M  V30 7223 C 651.07 -4.19126 -0.929065 0
M  V30 7224 C 650.303 -4.95601 -1.9803 0
M  V30 7225 O 650.526 -4.72331 -3.1978 0
M  V30 7226 O 649.46 -5.80551 -1.58886 0
M  V30 7227 H 653.286 -3.0298 0.208963 0
M  V30 7228 H 650.871 -1.4845 0.168255 0
M  V30 7229 H 652.753 -3.60974 -2.1743 0
M  V30 7230 H 651.428 -2.41399 -2.15658 0
M  V30 7231 H 650.335 -3.73257 -0.250982 0
M  V30 7232 H 651.668 -4.90955 -0.349855 0
M  V30 7233 N 653.32 -0.135238 -1.57019 0
M  V30 7234 C 654.252 0.839675 -2.13265 0
M  V30 7235 C 655.265 1.21887 -1.07923 0
M  V30 7236 O 656.454 1.16499 -1.35241 0
M  V30 7237 C 653.554 2.13647 -2.63075 0
M  V30 7238 C 652.727 1.92646 -3.92691 0
M  V30 7239 C 651.786 3.06205 -4.27931 0
M  V30 7240 O 650.812 2.78409 -4.96465 0
M  V30 7241 N 652.014 4.33072 -3.86561 0
M  V30 7242 H 654.779 0.359026 -2.97542 0
M  V30 7243 H 652.34 0.0486979 -1.61827 0
M  V30 7244 H 654.332 2.88641 -2.8367 0
M  V30 7245 H 652.902 2.5301 -1.83588 0
M  V30 7246 H 652.122 1.01754 -3.80841 0
M  V30 7247 H 653.41 1.75939 -4.77413 0
M  V30 7248 H 652.808 4.58526 -3.31316 0
M  V30 7249 H 651.365 5.04885 -4.12231 0
M  V30 7250 N 654.798 1.5699 0.138552 0
M  V30 7251 C 655.708 2.02174 1.19008 0
M  V30 7252 C 656.724 0.938622 1.46512 0
M  V30 7253 O 657.9 1.24872 1.58016 0
M  V30 7254 C 654.965 2.40045 2.50159 0
M  V30 7255 C 654.026 3.62346 2.30226 0
M  V30 7256 C 653.259 3.98401 3.55123 0
M  V30 7257 O 653.482 3.35019 4.61647 0
M  V30 7258 O 652.416 4.91606 3.47285 0
M  V30 7259 H 656.242 2.91954 0.836452 0
M  V30 7260 H 653.827 1.45293 0.347907 0
M  V30 7261 H 655.709 2.65225 3.27465 0
M  V30 7262 H 654.384 1.53417 2.85035 0
M  V30 7263 H 653.291 3.42341 1.50843 0
M  V30 7264 H 654.624 4.49617 2.00262 0
M  V30 7265 N 656.276 -0.40816 1.52223 0
M  V30 7266 C 657.223 -1.49737 1.75635 0
M  V30 7267 C 658.193 -1.5493 0.598824 0
M  V30 7268 O 659.378 -1.71487 0.83648 0
M  V30 7269 C 656.518 -2.87174 1.91376 0
M  V30 7270 C 655.631 -2.91283 3.19027 0
M  V30 7271 C 654.766 -4.20026 3.25195 0
M  V30 7272 C 653.805 -4.18113 4.47044 0
M  V30 7273 N 652.942 -5.38429 4.50598 0
M  V30 7274 H 657.782 -1.29075 2.68596 0
M  V30 7275 H 655.319 -0.626518 1.33091 0
M  V30 7276 H 657.277 -3.66959 1.98486 0
M  V30 7277 H 655.907 -3.06329 1.01795 0
M  V30 7278 H 654.959 -2.03984 3.21084 0
M  V30 7279 H 656.271 -2.85734 4.08849 0
M  V30 7280 H 655.425 -5.08204 3.31382 0
M  V30 7281 H 654.164 -4.28271 2.33313 0
M  V30 7282 H 653.169 -3.28325 4.41002 0
M  V30 7283 H 654.394 -4.11507 5.40221 0
M  V30 7284 H 652.34 -5.4734 3.616 0
M  V30 7285 H 652.257 -5.34879 5.34266 0
M  V30 7286 H 653.525 -6.28557 4.61016 0
M  V30 7287 N 657.755 -1.42862 -0.66545 0
M  V30 7288 C 658.685 -1.49867 -1.79059 0
M  V30 7289 C 659.666 -0.354394 -1.66367 0
M  V30 7290 O 660.851 -0.569969 -1.85647 0
M  V30 7291 C 657.981 -1.40943 -3.17415 0
M  V30 7292 C 656.935 -2.53495 -3.44854 0
M  V30 7293 C 656.261 -2.29626 -4.82883 0
M  V30 7294 C 657.561 -3.95781 -3.40815 0
M  V30 7295 H 659.255 -2.44037 -1.73453 0
M  V30 7296 H 656.801 -1.17456 -0.833071 0
M  V30 7297 H 658.754 -1.4445 -3.95869 0
M  V30 7298 H 657.478 -0.432716 -3.23721 0
M  V30 7299 H 656.137 -2.4932 -2.68766 0
M  V30 7300 H 655.785 -1.30226 -4.8585 0
M  V30 7301 H 655.485 -3.05065 -5.02204 0
M  V30 7302 H 657.009 -2.34897 -5.63609 0
M  V30 7303 H 658.423 -4.01508 -4.09224 0
M  V30 7304 H 656.82 -4.71148 -3.71672 0
M  V30 7305 H 657.89 -4.21786 -2.39216 0
M  V30 7306 N 659.233 0.902656 -1.29189 0
M  V30 7307 C 660.165 2.01149 -1.09872 0
M  V30 7308 C 661.178 1.62732 -0.0471046 0
M  V30 7309 O 662.367 1.76107 -0.29132 0
M  V30 7310 C 659.467 3.32612 -0.649818 0
M  V30 7311 C 658.64 3.99574 -1.7793 0
M  V30 7312 C 657.699 5.09325 -1.32191 0
M  V30 7313 O 656.725 5.31919 -2.02611 0
M  V30 7314 N 657.927 5.80185 -0.191171 0
M  V30 7315 H 660.692 2.18276 -2.05368 0
M  V30 7316 H 658.253 1.07466 -1.2109 0
M  V30 7317 H 660.245 4.03375 -0.327199 0
M  V30 7318 H 658.815 3.11876 0.212597 0
M  V30 7319 H 658.035 3.22213 -2.27095 0
M  V30 7320 H 659.323 4.41056 -2.53668 0
M  V30 7321 H 658.721 5.64312 0.396016 0
M  V30 7322 H 657.278 6.5176 0.0721001 0
M  V30 7323 N 660.711 1.11618 1.11262 0
M  V30 7324 C 661.959 0.864469 1.82678 0
M  V30 7325 C 662.28 -0.611564 1.85162 0
M  V30 7326 O 661.55 -1.44429 1.32352 0
M  V30 7327 H 660.13 0.316821 0.676486 0
M  V30 7328 H 662.792 1.40894 1.34666 0
M  V30 7329 H 661.888 1.23832 2.86482 0
M  V30 7330 N 662.189 -1.289 0.906776 0
M  V30 7331 C 663.435 -1.95558 0.53712 0
M  V30 7332 C 663.768 -1.71262 -0.915582 0
M  V30 7333 O 663.043 -1.02961 -1.65013 0
M  V30 7334 C 663.326 -3.50198 0.838645 0
M  V30 7335 C 663.179 -3.83923 2.34357 0
M  V30 7336 C 664.498 -4.38861 0.329988 0
M  V30 7337 H 661.617 -0.710289 0.196617 0
M  V30 7338 H 664.259 -1.52392 1.13475 0
M  V30 7339 H 662.409 -3.87096 0.330024 0
M  V30 7340 H 664.081 -3.56933 2.92227 0
M  V30 7341 H 662.324 -3.31215 2.80141 0
M  V30 7342 H 662.995 -4.91883 2.5051 0
M  V30 7343 H 665.471 -4.08996 0.765609 0
M  V30 7344 H 664.347 -5.45931 0.570105 0
M  V30 7345 H 664.608 -4.35352 -0.769511 0
M  V30 7346 N 663.667 -0.670007 -1.42649 0
M  V30 7347 C 664.577 0.0114788 -2.34597 0
M  V30 7348 C 665.593 0.794055 -1.54825 0
M  V30 7349 O 666.769 0.737472 -1.87412 0
M  V30 7350 C 663.834 0.954436 -3.33304 0
M  V30 7351 C 662.895 0.166925 -4.28975 0
M  V30 7352 C 662.128 1.06497 -5.22967 0
M  V30 7353 O 662.351 2.30446 -5.21777 0
M  V30 7354 O 661.285 0.528347 -5.99577 0
M  V30 7355 H 665.111 -0.745794 -2.944 0
M  V30 7356 H 662.696 -0.430228 -1.43071 0
M  V30 7357 H 664.578 1.49589 -3.93956 0
M  V30 7358 H 663.253 1.69164 -2.7598 0
M  V30 7359 H 662.16 -0.418515 -3.71752 0
M  V30 7360 H 663.493 -0.531067 -4.89327 0
M  V30 7361 N 665.145 1.52092 -0.413018 0
M  V30 7362 C 666.385 2.03765 0.160975 0
M  V30 7363 C 666.749 1.29174 1.4205 0
M  V30 7364 O 667.95 1.71093 2.07318 0
M  V30 7365 C 666.221 3.55167 0.398871 0
M  V30 7366 S 667.78 4.28619 0.939755 0
M  V30 7367 H 664.598 0.709685 0.0432281 0
M  V30 7368 H 667.2 1.87102 -0.566831 0
M  V30 7369 H 665.904 4.07034 -0.524544 0
M  V30 7370 H 665.435 3.7608 1.15444 0
M  V30 7371 H 667.45 4.43773 2.21991 0
M  V30 7372 N 666.623 0.143563 1.56945 0
M  V30 7373 C 667.871 -0.507402 1.95627 0
M  V30 7374 C 668.192 -1.65626 1.02922 0
M  V30 7375 O 667.462 -1.95693 0.0901136 0
M  V30 7376 H 666.042 -0.190436 0.722318 0
M  V30 7377 H 668.704 0.218257 1.93674 0
M  V30 7378 H 667.8 -0.885816 2.99265 0
M  V30 7379 N 668.101 -1.57061 -0.130224 0
M  V30 7380 C 669.031 -2.02552 -1.16168 0
M  V30 7381 C 670.012 -0.907971 -1.4384 0
M  V30 7382 O 671.197 -1.17693 -1.54473 0
M  V30 7383 C 668.327 -2.42035 -2.49071 0
M  V30 7384 C 667.281 -3.5713 -2.35886 0
M  V30 7385 C 666.607 -3.82478 -3.7365 0
M  V30 7386 C 667.907 -4.89236 -1.8288 0
M  V30 7387 H 669.601 -2.8897 -0.783359 0
M  V30 7388 H 667.147 -1.39021 -0.375376 0
M  V30 7389 H 669.1 -2.72462 -3.21469 0
M  V30 7390 H 667.824 -1.52573 -2.88771 0
M  V30 7391 H 666.483 -3.26895 -1.65938 0
M  V30 7392 H 666.131 -2.9024 -4.10816 0
M  V30 7393 H 665.831 -4.59944 -3.65685 0
M  V30 7394 H 667.355 -4.15347 -4.47571 0
M  V30 7395 H 668.769 -5.18272 -2.45085 0
M  V30 7396 H 667.166 -5.70624 -1.85763 0
M  V30 7397 H 668.236 -4.78494 -0.785571 0
M  V30 7398 N 669.579 0.400081 -1.52437 0
M  V30 7399 C 670.995 0.739359 -1.41441 0
M  V30 7400 C 671.195 1.94512 -0.526053 0
M  V30 7401 O 670.251 2.525 0.00472502 0
M  V30 7402 C 671.564 0.984824 -2.84116 0
M  V30 7403 C 673.112 1.08698 -2.93519 0
M  V30 7404 C 673.587 1.36515 -4.37181 0
M  V30 7405 N 675.078 1.43361 -4.40457 0
M  V30 7406 C 675.813 1.66528 -5.48686 0
M  V30 7407 N 675.309 1.87239 -6.67018 0
M  V30 7408 N 677.102 1.68617 -5.36213 0
M  V30 7409 H 669.253 -0.393484 -2.08723 0
M  V30 7410 H 671.516 -0.1138 -0.941145 0
M  V30 7411 H 671.222 0.171096 -3.51284 0
M  V30 7412 H 671.096 1.90253 -3.25705 0
M  V30 7413 H 673.483 1.89129 -2.26526 0
M  V30 7414 H 673.564 0.147432 -2.55375 0
M  V30 7415 H 673.208 0.565982 -5.04737 0
M  V30 7416 H 673.138 2.31737 -4.7287 0
M  V30 7417 H 675.629 1.29108 -3.55161 0
M  V30 7418 H 675.942 2.04392 -7.45281 0
M  V30 7419 H 674.287 1.84486 -6.70067 0
M  V30 7420 H 677.478 1.5198 -4.42741 0
M  V30 7421 H 677.651 1.86332 -6.20632 0
M  V30 7422 O 671.096 1.51991 0.545992 0
M  V30 7423 H 671.787 1.51962 1.20114 0
M  V30 END ATOM
M  V30 BEGIN BOND
M  V30 END BOND
M  V30 END CTAB
M  END
$$$$
