drugbank_target|O43272 Proline dehydrogenase 1, mitochondrial (DB00172)
 OpenBabel12092120093D

  0  0  0     0  0            999 V3000
M  V30 BEGIN CTAB
M  V30 COUNTS 9542 9644 0 0 0
M  V30 BEGIN ATOM
M  V30 1 H -0.908 1.98254 -0.117106 0
M  V30 2 N 0 1.576 0 0
M  V30 3 C 0.933 2.03868 1.02534 0
M  V30 4 C 1.911 0.928543 1.3348 0
M  V30 5 O 3.095 1.19667 1.45644 0
M  V30 6 C 0.222 2.43627 2.35294 0
M  V30 7 C -0.732 3.65373 2.2001 0
M  V30 8 S 0.101 5.13292 1.52614 0
M  V30 9 C 1.257 5.56322 2.86805 0
M  V30 10 H 1.49 2.90518 0.631377 0
M  V30 11 H -0.977 1.52953 0.210867 0
M  V30 12 H 0.981 2.67203 3.11629 0
M  V30 13 H -0.358 1.57376 2.7183 0
M  V30 14 H -1.165 3.90944 3.18086 0
M  V30 15 H -1.563 3.418 1.51819 0
M  V30 16 H 0.729 5.58782 3.83104 0
M  V30 17 H 1.672 6.56266 2.65933 0
M  V30 18 H 2.08 4.83886 2.90714 0
M  V30 19 N 1.4781 -0.272755 1.55222 0
M  V30 20 C 2.4411 -1.32041 1.87344 0
M  V30 21 C 3.4411 -1.42342 0.74803 0
M  V30 22 O 4.6311 -1.41488 1.0162 0
M  V30 23 C 1.7631 -2.70173 2.07893 0
M  V30 24 H 2.9561 -1.04789 2.80997 0
M  V30 25 H 0.5091 -0.51083 1.47717 0
M  V30 26 H 1.2441 -3.02605 1.16622 0
M  V30 27 H 1.0291 -2.64082 2.89833 0
M  V30 28 H 2.5191 -3.45869 2.34017 0
M  V30 29 N 2.9562 -1.48159 -0.537278 0
M  V30 30 C 3.8862 -1.65029 -1.6519 0
M  V30 31 C 4.8672 -0.499281 -1.62607 0
M  V30 32 O 6.0522 -0.730972 -1.79918 0
M  V30 33 C 3.1822 -1.68303 -3.03795 0
M  V30 34 C 2.1362 -2.8283 -3.21234 0
M  V30 35 C 1.4622 -2.71189 -4.60826 0
M  V30 36 C 2.7622 -4.24211 -3.04701 0
M  V30 37 H 4.4562 -2.58341 -1.51328 0
M  V30 38 H 2.0022 -1.24325 -0.726585 0
M  V30 39 H 3.9552 -1.78693 -3.81637 0
M  V30 40 H 2.6792 -0.715635 -3.18663 0
M  V30 41 H 1.3382 -2.71983 -2.45807 0
M  V30 42 H 0.9862 -1.72435 -4.7252 0
M  V30 43 H 0.6862 -3.48035 -4.7344 0
M  V30 44 H 2.2102 -2.83537 -5.40777 0
M  V30 45 H 3.6242 -4.3593 -3.72341 0
M  V30 46 H 2.0212 -5.01998 -3.28813 0
M  V30 47 H 3.0912 -4.41184 -2.01209 0
M  V30 48 N 4.4343 0.785586 -1.36625 0
M  V30 49 C 5.8503 1.08419 -1.17122 0
M  V30 50 C 6.0503 2.015 0.00208491 0
M  V30 51 O 5.1063 2.43551 0.666278 0
M  V30 52 C 6.4193 1.69498 -2.48377 0
M  V30 53 C 7.9673 1.81821 -2.54775 0
M  V30 54 C 8.4423 2.46315 -3.86126 0
M  V30 55 N 9.9333 2.53779 -3.87492 0
M  V30 56 C 10.6683 3.045 -4.85868 0
M  V30 57 N 10.1643 3.55499 -5.94637 0
M  V30 58 N 11.9573 3.03247 -4.73284 0
M  V30 59 H 4.1083 0.167264 -2.1174 0
M  V30 60 H 6.3713 0.13682 -0.938075 0
M  V30 61 H 6.0773 1.08571 -3.34522 0
M  V30 62 H 5.9513 2.6896 -2.64462 0
M  V30 63 H 8.3383 2.41884 -1.69045 0
M  V30 64 H 8.4193 0.811532 -2.42586 0
M  V30 65 H 8.0633 1.86895 -4.72263 0
M  V30 66 H 7.9933 3.47561 -3.95612 0
M  V30 67 H 10.4843 2.17672 -3.08913 0
M  V30 68 H 10.7973 3.92562 -6.65669 0
M  V30 69 H 9.1423 3.5364 -5.98301 0
M  V30 70 H 12.3333 2.62696 -3.87438 0
M  V30 71 H 12.5063 3.42467 -5.50109 0
M  V30 72 N 5.9124 1.20967 1.01018 0
M  V30 73 C 7.3284 0.965905 1.27053 0
M  V30 74 C 7.5284 -0.350785 1.98423 0
M  V30 75 O 6.5844 -1.07773 2.28344 0
M  V30 76 C 7.8974 2.15294 2.09926 0
M  V30 77 C 9.4454 2.19463 2.23171 0
M  V30 78 C 9.9204 3.3767 3.09424 0
M  V30 79 N 11.4114 3.37724 3.17012 0
M  V30 80 C 12.1464 4.25837 3.83993 0
M  V30 81 N 11.6424 5.24138 4.53047 0
M  V30 82 N 13.4354 4.1366 3.80581 0
M  V30 83 H 5.5864 2.0565 0.531194 0
M  V30 84 H 7.8494 0.90024 0.297106 0
M  V30 85 H 7.5554 3.10684 1.64828 0
M  V30 86 H 7.4294 2.13923 3.10672 0
M  V30 87 H 9.8164 1.24632 2.6749 0
M  V30 88 H 9.8974 2.2488 1.21912 0
M  V30 89 H 9.5414 4.32791 2.65808 0
M  V30 90 H 9.4714 3.29491 4.10784 0
M  V30 91 H 11.9624 2.6658 2.6785 0
M  V30 92 H 12.2754 5.87684 5.01844 0
M  V30 93 H 10.6204 5.28068 4.5185 0
M  V30 94 H 13.8114 3.36127 3.25785 0
M  V30 95 H 13.9844 4.82538 4.32505 0
M  V30 96 N 7.3905 -1.2043 1.01659 0
M  V30 97 C 8.3535 -2.21433 0.591616 0
M  V30 98 C 9.3535 -1.57203 -0.338226 0
M  V30 99 O 10.5435 -1.73737 -0.126918 0
M  V30 100 C 7.6755 -3.40628 -0.136058 0
M  V30 101 H 8.8685 -2.60545 1.48514 0
M  V30 102 H 6.4215 -1.33893 0.806379 0
M  V30 103 H 7.1565 -3.07019 -1.04449 0
M  V30 104 H 6.9415 -3.88475 0.531917 0
M  V30 105 H 8.4315 -4.15475 -0.420735 0
M  V30 106 N 8.8686 -0.792821 -1.36206 0
M  V30 107 C 9.7986 -0.207853 -2.32573 0
M  V30 108 C 10.7796 0.659055 -1.56813 0
M  V30 109 O 11.9646 0.592176 -1.84951 0
M  V30 110 C 9.0946 0.655449 -3.41059 0
M  V30 111 C 8.0486 -0.111842 -4.27854 0
M  V30 112 C 7.3746 0.872274 -5.27537 0
M  V30 113 C 8.6746 -1.30299 -5.05786 0
M  V30 114 H 10.3686 -1.01294 -2.81744 0
M  V30 115 H 7.9146 -0.48854 -1.3546 0
M  V30 116 H 9.8676 1.07464 -4.07467 0
M  V30 117 H 8.5916 1.49328 -2.90463 0
M  V30 118 H 7.2506 -0.512053 -3.63006 0
M  V30 119 H 6.8986 1.70523 -4.73214 0
M  V30 120 H 6.5986 0.363291 -5.86476 0
M  V30 121 H 8.1226 1.28996 -5.96818 0
M  V30 122 H 9.5366 -0.959379 -5.65216 0
M  V30 123 H 7.9336 -1.7455 -5.74154 0
M  V30 124 H 9.0036 -2.09663 -4.37229 0
M  V30 125 N 10.3467 1.47872 -0.545128 0
M  V30 126 C 11.7577 1.86384 -0.108581 0
M  V30 127 C 12.1087 1.45309 1.31832 0
M  V30 128 O 11.2337 0.850641 1.9898 0
M  V30 129 C 11.8287 3.38265 -0.190274 0
M  V30 130 C 10.3877 3.75914 0.191164 0
M  V30 131 C 9.5347 2.71926 -0.543273 0
M  V30 132 H 12.4857 1.39561 -0.755537 0
M  V30 133 H 12.5067 3.75831 0.594217 0
M  V30 134 H 12.0187 3.6813 -1.2289 0
M  V30 135 H 10.1197 3.51665 1.23136 0
M  V30 136 H 10.2327 4.78836 -0.158987 0
M  V30 137 H 8.5967 2.54697 0.0122495 0
M  V30 138 H 9.3797 3.04634 -1.58282 0
M  V30 139 N 11.8248 0.280983 1.55075 0
M  V30 140 C 12.7878 -0.590896 2.21452 0
M  V30 141 C 13.7878 -1.07682 1.19421 0
M  V30 142 O 14.9778 -0.97605 1.44288 0
M  V30 143 C 12.1098 -1.81587 2.88511 0
M  V30 144 H 13.3028 -0.0112554 2.99898 0
M  V30 145 H 10.8558 0.0316438 1.56268 0
M  V30 146 H 11.5908 -2.43587 2.14093 0
M  V30 147 H 11.3758 -1.4753 3.63287 0
M  V30 148 H 12.8658 -2.43575 3.39206 0
M  V30 149 N 13.3029 -1.57598 0.00835791 0
M  V30 150 C 14.2329 -2.1198 -0.979113 0
M  V30 151 C 15.2139 -1.03091 -1.35301 0
M  V30 152 O 16.3989 -1.30818 -1.43528 0
M  V30 153 C 13.5289 -2.62995 -2.26828 0
M  V30 154 C 12.4829 -3.76485 -2.03576 0
M  V30 155 C 11.8089 -4.13846 -3.38579 0
M  V30 156 C 13.1089 -5.0342 -1.39161 0
M  V30 157 H 14.8029 -2.94738 -0.526281 0
M  V30 158 H 12.3489 -1.41783 -0.251704 0
M  V30 159 H 14.3019 -2.99669 -2.96271 0
M  V30 160 H 13.0259 -1.7737 -2.7424 0
M  V30 161 H 11.6849 -3.40217 -1.36557 0
M  V30 162 H 11.3329 -3.25232 -3.83709 0
M  V30 163 H 11.0329 -4.90312 -3.23834 0
M  V30 164 H 12.5569 -4.53086 -4.09323 0
M  V30 165 H 13.9709 -5.37812 -1.98573 0
M  V30 166 H 12.3679 -5.84746 -1.34878 0
M  V30 167 H 13.4379 -4.83548 -0.361868 0
M  V30 168 N 14.781 0.264519 -1.55364 0
M  V30 169 C 16.197 0.61215 -1.47394 0
M  V30 170 C 16.397 1.89134 -0.695018 0
M  V30 171 O 15.453 2.51563 -0.217275 0
M  V30 172 C 16.766 0.731235 -2.91674 0
M  V30 173 C 18.314 0.82473 -3.01939 0
M  V30 174 C 18.789 0.975522 -4.4749 0
M  V30 175 N 20.28 1.04083 -4.51354 0
M  V30 176 C 21.015 1.17646 -5.61201 0
M  V30 177 N 20.511 1.27874 -6.80896 0
M  V30 178 N 22.304 1.20823 -5.48961 0
M  V30 179 H 14.455 -0.575456 -2.04456 0
M  V30 180 H 16.718 -0.196099 -0.927496 0
M  V30 181 H 16.424 -0.138392 -3.51428 0
M  V30 182 H 16.298 1.60883 -3.41169 0
M  V30 183 H 18.685 1.68482 -2.42276 0
M  V30 184 H 18.766 -0.0776479 -2.55682 0
M  V30 185 H 18.41 0.120058 -5.07758 0
M  V30 186 H 18.34 1.89268 -4.91412 0
M  V30 187 H 20.831 0.973846 -3.65136 0
M  V30 188 H 21.144 1.38081 -7.60364 0
M  V30 189 H 19.489 1.24863 -6.83692 0
M  V30 190 H 22.68 1.12469 -4.54388 0
M  V30 191 H 22.853 1.31049 -6.3461 0
M  V30 192 N 16.2591 1.48442 0.529413 0
M  V30 193 C 17.6701 1.5002 1.11134 0
M  V30 194 C 18.0211 0.27031 1.94329 0
M  V30 195 O 17.1461 -0.622507 2.07253 0
M  V30 196 C 17.7411 2.71834 2.02217 0
M  V30 197 C 16.3001 2.76283 2.55627 0
M  V30 198 C 15.4471 2.43542 1.326 0
M  V30 199 H 18.3981 1.5555 0.314641 0
M  V30 200 H 18.4191 2.50384 2.8651 0
M  V30 201 H 17.9311 3.61331 1.41639 0
M  V30 202 H 16.0321 1.90995 3.19924 0
M  V30 203 H 16.1451 3.77725 2.94721 0
M  V30 204 H 14.5091 1.94709 1.64196 0
M  V30 205 H 15.2921 3.3528 0.737734 0
M  V30 206 N 17.7372 -0.778329 1.37039 0
M  V30 207 C 18.9772 -1.54973 1.33276 0
M  V30 208 C 19.3412 -1.91816 -0.0839376 0
M  V30 209 O 20.5422 -2.6767 -0.246228 0
M  V30 210 C 18.8132 -2.78517 2.23971 0
M  V30 211 S 20.3722 -3.6865 2.37997 0
M  V30 212 H 17.1902 -0.530639 0.473226 0
M  V30 213 H 19.7922 -0.915806 1.72723 0
M  V30 214 H 18.4962 -2.4952 3.25835 0
M  V30 215 H 18.0272 -3.46875 1.85584 0
M  V30 216 H 20.0422 -4.70182 1.58567 0
M  V30 217 N 19.2153 -1.21501 -1.00376 0
M  V30 218 C 20.4643 -1.02718 -1.73586 0
M  V30 219 C 20.7773 0.439589 -1.90596 0
M  V30 220 O 21.9833 0.746848 -2.61026 0
M  V30 221 C 20.4393 -1.78929 -3.1227 0
M  V30 222 C 20.0473 -3.29783 -3.03228 0
M  V30 223 C 21.7913 -1.68557 -3.89601 0
M  V30 224 C 19.6983 -3.98479 -4.36999 0
M  V30 225 H 18.6283 -0.380733 -0.650814 0
M  V30 226 H 21.2793 -1.45248 -1.1214 0
M  V30 227 H 19.6613 -1.29192 -3.74333 0
M  V30 228 H 20.8353 -3.86832 -2.50395 0
M  V30 229 H 19.1503 -3.40711 -2.39385 0
M  V30 230 H 21.7473 -2.17211 -4.88593 0
M  V30 231 H 22.0903 -0.644021 -4.11288 0
M  V30 232 H 22.6233 -2.15778 -3.34193 0
M  V30 233 H 19.3623 -5.02841 -4.20513 0
M  V30 234 H 18.8823 -3.46219 -4.89788 0
M  V30 235 H 20.5613 -4.03462 -5.05794 0
M  V30 236 N 20.6934 1.19889 -1.02296 0
M  V30 237 C 22.1044 1.71124 -0.746568 0
M  V30 238 C 22.4554 1.81939 0.734335 0
M  V30 239 O 21.5804 1.48639 1.57275 0
M  V30 240 C 22.1754 3.10804 -1.34857 0
M  V30 241 C 20.7344 3.59323 -1.1209 0
M  V30 242 C 19.8814 2.3635 -1.45031 0
M  V30 243 H 22.8324 1.04813 -1.19163 0
M  V30 244 H 22.8534 3.73186 -0.742437 0
M  V30 245 H 22.3654 3.029 -2.42638 0
M  V30 246 H 20.4664 3.7255 -0.0610337 0
M  V30 247 H 20.5794 4.4378 -1.80544 0
M  V30 248 H 18.9434 2.39399 -0.869487 0
M  V30 249 H 19.7264 2.31081 -2.53883 0
M  V30 250 N 22.1715 0.800033 1.35784 0
M  V30 251 C 23.5875 0.482977 1.52117 0
M  V30 252 C 23.7875 -0.996948 1.75109 0
M  V30 253 O 22.8435 -1.78216 1.78872 0
M  V30 254 C 24.1565 1.32264 2.70049 0
M  V30 255 C 25.7045 1.31742 2.83924 0
M  V30 256 C 26.1795 2.14106 4.04874 0
M  V30 257 N 27.6705 2.11607 4.12039 0
M  V30 258 C 28.4055 2.72099 5.04727 0
M  V30 259 N 27.9015 3.41492 6.02789 0
M  V30 260 N 29.6945 2.61776 4.97423 0
M  V30 261 H 21.8455 1.75856 1.19115 0
M  V30 262 H 24.1085 0.748122 0.582252 0
M  V30 263 H 23.8145 2.37261 2.59616 0
M  V30 264 H 23.6885 0.971303 3.6448 0
M  V30 265 H 26.0755 0.275333 2.93813 0
M  V30 266 H 26.1565 1.70859 1.9037 0
M  V30 267 H 25.8005 3.18351 3.95746 0
M  V30 268 H 25.7305 1.72353 4.97596 0
M  V30 269 H 28.2215 1.61112 3.41835 0
M  V30 270 H 28.5345 3.84953 6.70098 0
M  V30 271 H 26.8795 3.45596 6.02983 0
M  V30 272 H 30.0705 2.07157 4.19766 0
M  V30 273 H 30.2435 3.0921 5.69468 0
M  V30 274 N 23.6496 -1.47581 0.552962 0
M  V30 275 C 24.8966 -2.02482 0.0273243 0
M  V30 276 C 25.2246 -1.42776 -1.32081 0
M  V30 277 O 24.4796 -0.571393 -1.87173 0
M  V30 278 C 24.7786 -3.57199 -0.119728 0
M  V30 279 C 24.4446 -4.35804 1.15697 0
M  V30 280 C 23.1066 -4.57 1.50681 0
M  V30 281 C 25.4586 -4.81167 2.00319 0
M  V30 282 C 22.7866 -5.20807 2.70142 0
M  V30 283 C 25.1386 -5.46293 3.18978 0
M  V30 284 C 23.8026 -5.65722 3.54281 0
M  V30 285 H 23.0726 -0.740933 0.00999866 0
M  V30 286 H 25.7196 -1.77302 0.72362 0
M  V30 287 H 24.0246 -3.81348 -0.89896 0
M  V30 288 H 25.7216 -3.97324 -0.541718 0
M  V30 289 H 22.3116 -4.19582 0.874561 0
M  V30 290 H 26.4956 -4.64574 1.74599 0
M  V30 291 H 21.7516 -5.34045 2.97668 0
M  V30 292 H 25.9256 -5.80407 3.84838 0
M  V30 293 H 23.5526 -6.14936 4.46942 0
M  V30 294 N 25.1277 -0.289203 -1.54924 0
M  V30 295 C 26.3737 0.323998 -2.00195 0
M  V30 296 C 26.7067 1.54441 -1.17735 0
M  V30 297 O 25.9817 1.92875 -0.250878 0
M  V30 298 C 26.2647 0.692276 -3.53383 0
M  V30 299 C 26.1177 -0.536457 -4.46589 0
M  V30 300 C 27.4367 1.52335 -4.12895 0
M  V30 301 H 24.5557 0.116289 -0.727768 0
M  V30 302 H 27.1977 -0.398954 -1.85764 0
M  V30 303 H 25.3477 1.30822 -3.65811 0
M  V30 304 H 27.0197 -1.17499 -4.46085 0
M  V30 305 H 25.2627 -1.17192 -4.1767 0
M  V30 306 H 25.9337 -0.234806 -5.515 0
M  V30 307 H 28.4097 1.00302 -4.0383 0
M  V30 308 H 27.2857 1.74982 -5.20262 0
M  V30 309 H 27.5467 2.50886 -3.64018 0
M  V30 310 N 26.6058 1.57591 -0.0167156 0
M  V30 311 C 27.5378 2.06343 0.997753 0
M  V30 312 C 28.5508 0.984469 1.29661 0
M  V30 313 O 29.7398 1.26093 1.26344 0
M  V30 314 C 26.8398 2.46255 2.32834 0
M  V30 315 C 26.0128 3.77083 2.21646 0
M  V30 316 C 25.0718 4.0368 3.37534 0
M  V30 317 O 24.0978 4.7411 3.14973 0
M  V30 318 N 25.2998 3.52881 4.60929 0
M  V30 319 H 28.0648 2.93997 0.581875 0
M  V30 320 H 25.6258 1.61002 0.170316 0
M  V30 321 H 27.6178 2.61149 3.09166 0
M  V30 322 H 26.1878 1.64032 2.66106 0
M  V30 323 H 25.4078 3.72106 1.30119 0
M  V30 324 H 26.6958 4.62822 2.11361 0
M  V30 325 H 26.0938 2.95878 4.82154 0
M  V30 326 H 24.6508 3.73076 5.34469 0
M  V30 327 N 28.0839 -0.256276 1.55502 0
M  V30 328 C 29.0139 -1.32102 1.92539 0
M  V30 329 C 29.9949 -1.50684 0.789194 0
M  V30 330 O 31.1799 -1.63449 1.04872 0
M  V30 331 C 28.3099 -2.67752 2.21192 0
M  V30 332 C 27.2639 -2.63878 3.36975 0
M  V30 333 C 26.5899 -4.03236 3.51147 0
M  V30 334 C 27.8899 -2.21682 4.72921 0
M  V30 335 H 29.5839 -1.01351 2.81724 0
M  V30 336 H 27.1299 -0.486105 1.35547 0
M  V30 337 H 29.0829 -3.42365 2.45691 0
M  V30 338 H 27.8069 -3.0012 1.28824 0
M  V30 339 H 26.4659 -1.91722 3.12471 0
M  V30 340 H 26.1139 -4.32854 2.56216 0
M  V30 341 H 25.8139 -4.01535 4.29003 0
M  V30 342 H 27.3379 -4.79563 3.77957 0
M  V30 343 H 28.7519 -2.86023 4.96854 0
M  V30 344 H 27.1489 -2.3111 5.53812 0
M  V30 345 H 28.2189 -1.16833 4.70615 0
M  V30 346 N 29.562 -1.4872 -0.521534 0
M  V30 347 C 30.787 -1.61101 -1.30618 0
M  V30 348 C 31.212 -0.274611 -1.86085 0
M  V30 349 O 30.57 0.754937 -1.64834 0
M  V30 350 C 30.618 -2.66709 -2.4269 0
M  V30 351 O 29.722 -2.24456 -3.45967 0
M  V30 352 H 29.063 -0.539921 -0.386499 0
M  V30 353 H 31.593 -1.94767 -0.626645 0
M  V30 354 H 31.603 -2.88245 -2.88754 0
M  V30 355 H 30.278 -3.63727 -2.01682 0
M  V30 356 H 28.855 -2.13168 -3.05964 0
M  V30 357 N 31.0401 0.771051 -1.3745 0
M  V30 358 C 32.2681 1.56015 -1.35893 0
M  V30 359 C 32.6831 1.88718 0.0555523 0
M  V30 360 O 32.0401 1.51502 1.01752 0
M  V30 361 C 32.0911 2.87001 -2.19801 0
M  V30 362 O 31.8121 2.557 -3.55738 0
M  V30 363 C 33.3131 3.81228 -2.26231 0
M  V30 364 H 30.5331 0.483317 -0.465453 0
M  V30 365 H 33.0771 0.955611 -1.80799 0
M  V30 366 H 31.2321 3.43877 -1.78402 0
M  V30 367 H 31.6461 3.39584 -3.99729 0
M  V30 368 H 33.1201 4.70139 -2.89263 0
M  V30 369 H 33.5971 4.20409 -1.27093 0
M  V30 370 H 34.2031 3.30281 -2.67945 0
M  V30 371 N 32.5182 1.22032 0.997298 0
M  V30 372 C 33.4812 0.987909 2.06816 0
M  V30 373 C 34.4812 -0.0440084 1.6074 0
M  V30 374 O 35.6712 0.194053 1.73116 0
M  V30 375 C 32.8032 0.49132 3.37341 0
M  V30 376 H 33.9962 1.93803 2.28868 0
M  V30 377 H 31.5492 1.03838 1.16822 0
M  V30 378 H 32.2842 -0.463364 3.20973 0
M  V30 379 H 32.0692 1.23575 3.72118 0
M  V30 380 H 33.5592 0.348824 4.16141 0
M  V30 381 N 33.9963 -1.19345 1.0293 0
M  V30 382 C 35.4073 -1.70725 0.755633 0
M  V30 383 C 35.7583 -1.82326 -0.724676 0
M  V30 384 O 34.8833 -1.49471 -1.56484 0
M  V30 385 C 35.4783 -3.10084 1.36503 0
M  V30 386 C 34.0373 -3.58723 1.13994 0
M  V30 387 C 33.1843 -2.35577 1.46283 0
M  V30 388 H 36.1353 -1.0418 1.19718 0
M  V30 389 H 36.1563 -3.72787 0.762217 0
M  V30 390 H 35.6683 -3.01609 2.44241 0
M  V30 391 H 33.7693 -3.72512 0.0807901 0
M  V30 392 H 33.8823 -4.42816 1.82894 0
M  V30 393 H 32.2463 -2.38935 0.88217 0
M  V30 394 H 33.0293 -2.29731 2.55105 0
M  V30 395 N 35.4744 -0.807222 -1.35358 0
M  V30 396 C 36.4374 -0.223665 -2.28106 0
M  V30 397 C 37.4374 0.589354 -1.4961 0
M  V30 398 O 38.6274 0.407745 -1.69361 0
M  V30 399 C 35.7594 0.688149 -3.33882 0
M  V30 400 H 36.9524 -1.04169 -2.81227 0
M  V30 401 H 34.5054 -0.577921 -1.45223 0
M  V30 402 H 35.2404 1.52984 -2.85948 0
M  V30 403 H 35.0254 0.10687 -3.91954 0
M  V30 404 H 36.5154 1.09075 -4.03104 0
M  V30 405 N 36.9525 1.47285 -0.560781 0
M  V30 406 C 38.1775 2.07359 -0.0410566 0
M  V30 407 C 38.6025 1.41017 1.24483 0
M  V30 408 O 37.9605 0.486368 1.74654 0
M  V30 409 C 38.0085 3.6035 0.134123 0
M  V30 410 O 37.1125 3.94681 1.19587 0
M  V30 411 H 36.4535 0.661887 -0.0529291 0
M  V30 412 H 38.9835 1.89252 -0.777482 0
M  V30 413 H 38.9935 4.0652 0.347207 0
M  V30 414 H 37.6685 4.08034 -0.805047 0
M  V30 415 H 36.2455 3.60251 0.962987 0
M  V30 416 N 38.4306 0.297415 1.54768 0
M  V30 417 C 39.8466 -0.0560823 1.59501 0
M  V30 418 C 40.0466 -1.52725 1.31444 0
M  V30 419 O 39.1026 -2.27947 1.08611 0
M  V30 420 C 40.4156 0.338631 2.98787 0
M  V30 421 C 41.9636 0.287097 3.11681 0
M  V30 422 C 42.4386 0.656579 4.53269 0
M  V30 423 N 43.9296 0.608977 4.59179 0
M  V30 424 C 44.6646 0.867385 5.66802 0
M  V30 425 N 44.1606 1.19157 6.82476 0
M  V30 426 N 45.9536 0.794687 5.56454 0
M  V30 427 H 38.1046 1.25624 1.71267 0
M  V30 428 H 40.3676 0.509057 0.799728 0
M  V30 429 H 40.0736 1.36263 3.2423 0
M  V30 430 H 39.9476 -0.309508 3.75928 0
M  V30 431 H 42.3346 -0.727649 2.85988 0
M  V30 432 H 42.4156 0.969809 2.36703 0
M  V30 433 H 42.0596 1.66912 4.7969 0
M  V30 434 H 41.9896 -0.0481649 5.26578 0
M  V30 435 H 44.4806 0.369198 3.76092 0
M  V30 436 H 44.7936 1.37482 7.60473 0
M  V30 437 H 43.1386 1.22958 6.84037 0
M  V30 438 H 46.3296 0.541098 4.64962 0
M  V30 439 H 46.5026 0.999445 6.40246 0
M  V30 440 N 39.9087 -1.5758 0.0250728 0
M  V30 441 C 40.8187 -2.1343 -0.973905 0
M  V30 442 C 41.8347 -1.08556 -1.35984 0
M  V30 443 O 43.0107 -1.40592 -1.44207 0
M  V30 444 C 40.0757 -2.64703 -2.23904 0
M  V30 445 C 39.1367 -3.84276 -1.91391 0
M  V30 446 C 38.3697 -4.33095 -3.11873 0
M  V30 447 O 38.5927 -3.81107 -4.24398 0
M  V30 448 O 37.5267 -5.24984 -2.94406 0
M  V30 449 H 41.3527 -2.99057 -0.529036 0
M  V30 450 H 38.9377 -1.48118 -0.195288 0
M  V30 451 H 40.8197 -2.97769 -2.98181 0
M  V30 452 H 39.4947 -1.82161 -2.6758 0
M  V30 453 H 38.4017 -3.56143 -1.14511 0
M  V30 454 H 39.7347 -4.67968 -1.52534 0
M  V30 455 N 41.3868 0.248026 -1.55636 0
M  V30 456 C 42.3188 1.32993 -1.8667 0
M  V30 457 C 43.3318 1.44345 -0.752877 0
M  V30 458 O 44.5208 1.45715 -1.03098 0
M  V30 459 C 41.6208 2.70863 -2.03682 0
M  V30 460 C 40.7938 2.81792 -3.34532 0
M  V30 461 C 39.8528 4.005 -3.41301 0
M  V30 462 O 38.8788 3.9008 -4.14519 0
M  V30 463 N 40.0808 5.13618 -2.70512 0
M  V30 464 H 42.8458 1.06707 -2.8006 0
M  V30 465 H 40.4068 0.438129 -1.55859 0
M  V30 466 H 42.3988 3.48612 -2.05553 0
M  V30 467 H 40.9688 2.89862 -1.17041 0
M  V30 468 H 40.1888 1.90729 -3.44987 0
M  V30 469 H 41.4768 2.86043 -4.20781 0
M  V30 470 H 40.8748 5.24975 -2.10755 0
M  V30 471 H 39.4318 5.89505 -2.78077 0
M  V30 472 N 42.8649 1.48995 0.513639 0
M  V30 473 C 44.2759 1.5119 1.09537 0
M  V30 474 C 44.6269 0.290906 1.94031 0
M  V30 475 O 43.7519 -0.60049 2.07902 0
M  V30 476 C 44.3469 2.73964 1.99322 0
M  V30 477 C 42.9059 2.78978 2.52682 0
M  V30 478 C 42.0529 2.44934 1.30009 0
M  V30 479 H 45.0039 1.55875 0.298125 0
M  V30 480 H 45.0249 2.53409 2.83838 0
M  V30 481 H 44.5369 3.62813 1.37799 0
M  V30 482 H 42.6379 1.94378 3.1788 0
M  V30 483 H 42.7509 3.8083 2.90698 0
M  V30 484 H 41.1149 1.9644 1.62122 0
M  V30 485 H 41.8979 3.36043 0.702131 0
M  V30 486 N 44.343 -0.763751 1.37857 0
M  V30 487 C 45.306 -1.85889 1.34081 0
M  V30 488 C 46.306 -1.58949 0.243277 0
M  V30 489 O 47.496 -1.66882 0.499589 0
M  V30 490 C 44.628 -3.23176 1.08489 0
M  V30 491 H 45.821 -1.90648 2.31502 0
M  V30 492 H 43.374 -0.964367 1.23003 0
M  V30 493 H 44.109 -3.24091 0.116318 0
M  V30 494 H 43.894 -3.44124 1.8794 0
M  V30 495 H 45.384 -4.03254 1.08517 0
M  V30 496 N 45.8211 -1.22559 -0.990812 0
M  V30 497 C 46.7841 -0.998863 -2.0629 0
M  V30 498 C 47.7841 0.0354834 -1.60761 0
M  V30 499 O 48.9741 -0.203231 -1.7301 0
M  V30 500 C 46.1061 -0.509203 -3.37076 0
M  V30 501 H 47.2991 -1.95014 -2.27837 0
M  V30 502 H 44.8521 -1.04456 -1.16269 0
M  V30 503 H 45.5871 0.446335 -3.21214 0
M  V30 504 H 45.3721 -1.25547 -3.71457 0
M  V30 505 H 46.8621 -0.370888 -4.1595 0
M  V30 506 N 47.2992 1.18797 -1.03562 0
M  V30 507 C 48.5472 1.88278 -0.734569 0
M  V30 508 C 48.8682 1.8043 0.739586 0
M  V30 509 O 48.1382 1.21925 1.53333 0
M  V30 510 H 46.7182 0.696991 -0.268725 0
M  V30 511 H 49.3802 1.44192 -1.31129 0
M  V30 512 H 48.4762 2.94443 -1.03489 0
M  V30 513 N 48.7773 0.814389 1.34928 0
M  V30 514 C 50.1883 0.458364 1.80986 0
M  V30 515 C 50.5393 -1.02042 1.67577 0
M  V30 516 O 49.6643 -1.79352 1.21086 0
M  V30 517 C 50.2593 0.825212 3.28597 0
M  V30 518 C 48.8183 0.521677 3.72767 0
M  V30 519 C 47.9653 1.04668 2.56788 0
M  V30 520 H 50.9163 1.00533 1.22795 0
M  V30 521 H 50.9373 0.12571 3.80292 0
M  V30 522 H 50.4493 1.90154 3.38324 0
M  V30 523 H 48.5503 -0.545589 3.68584 0
M  V30 524 H 48.6633 1.05977 4.67232 0
M  V30 525 H 47.0273 0.468622 2.50352 0
M  V30 526 H 47.8103 2.12927 2.6929 0
M  V30 527 N 50.2554 -1.46986 0.568584 0
M  V30 528 C 51.2184 -2.28624 -0.162366 0
M  V30 529 C 52.2184 -1.37596 -0.832103 0
M  V30 530 O 53.4084 -1.60115 -0.68622 0
M  V30 531 C 50.5404 -3.17596 -1.23878 0
M  V30 532 H 51.7334 -2.94722 0.554899 0
M  V30 533 H 49.2864 -1.52863 0.325976 0
M  V30 534 H 50.0214 -2.56214 -1.98808 0
M  V30 535 H 49.8064 -3.846 -0.763219 0
M  V30 536 H 51.2964 -3.79078 -1.75185 0
M  V30 537 N 51.7335 -0.305618 -1.54608 0
M  V30 538 C 52.6965 0.555591 -2.22364 0
M  V30 539 C 53.6965 1.05768 -1.21119 0
M  V30 540 O 54.8865 0.952972 -1.45822 0
M  V30 541 C 52.0185 1.76974 -2.91364 0
M  V30 542 H 53.2115 -0.0364572 -2.99878 0
M  V30 543 H 50.7645 -0.0565007 -1.56198 0
M  V30 544 H 51.4995 2.40151 -2.17941 0
M  V30 545 H 51.2845 1.41732 -3.65588 0
M  V30 546 H 52.7745 2.38148 -3.43038 0
M  V30 547 N 53.2116 1.57565 -0.0334293 0
M  V30 548 C 54.4576 1.92262 0.645226 0
M  V30 549 C 54.7906 0.910543 1.71531 0
M  V30 550 O 54.0656 -0.066099 1.94388 0
M  V30 551 C 54.3486 3.37422 1.2577 0
M  V30 552 C 54.2016 4.49369 0.196891 0
M  V30 553 C 55.5206 3.82628 2.17449 0
M  V30 554 H 52.6396 0.699171 0.233085 0
M  V30 555 H 55.2816 1.89779 -0.0915694 0
M  V30 556 H 53.4316 3.39669 1.88566 0
M  V30 557 H 55.1036 4.59254 -0.433962 0
M  V30 558 H 53.3466 4.31168 -0.477137 0
M  V30 559 H 54.0176 5.47978 0.665124 0
M  V30 560 H 56.4936 3.82145 1.64634 0
M  V30 561 H 55.3696 4.84883 2.57254 0
M  V30 562 H 55.6306 3.18376 3.0674 0
M  V30 563 N 54.6897 -0.239769 1.55765 0
M  V30 564 C 56.1007 -0.808263 1.68297 0
M  V30 565 C 56.4517 -1.85736 0.632181 0
M  V30 566 O 55.5767 -2.15277 -0.220204 0
M  V30 567 C 56.1717 -1.47284 3.05111 0
M  V30 568 C 54.7307 -1.98895 3.19559 0
M  V30 569 C 53.8777 -0.842575 2.64189 0
M  V30 570 H 56.8287 -0.0154422 1.58692 0
M  V30 571 H 56.8497 -2.34111 2.99954 0
M  V30 572 H 56.3617 -0.709053 3.81568 0
M  V30 573 H 54.4627 -2.78132 2.47938 0
M  V30 574 H 54.5757 -2.18143 4.26556 0
M  V30 575 H 52.9397 -1.24501 2.22197 0
M  V30 576 H 53.7227 -0.0917552 3.43177 0
M  V30 577 N 56.1678 -1.49265 -0.50573 0
M  V30 578 C 57.4158 -1.582 -1.25766 0
M  V30 579 C 57.7368 -0.268482 -1.93143 0
M  V30 580 O 57.0068 0.711833 -1.8251 0
M  V30 581 H 55.5868 -0.582873 -0.467191 0
M  V30 582 H 58.2488 -1.85865 -0.586525 0
M  V30 583 H 57.3448 -2.37563 -2.02412 0
M  V30 584 N 57.6459 0.756429 -1.3826 0
M  V30 585 C 58.8939 1.51248 -1.34047 0
M  V30 586 C 59.2149 1.94875 0.0698372 0
M  V30 587 O 58.4849 1.67436 1.01696 0
M  V30 588 H 57.0649 0.561018 -0.493222 0
M  V30 589 H 59.7269 0.899347 -1.7291 0
M  V30 590 H 58.8229 2.40472 -1.98947 0
M  V30 591 N 59.124 1.23083 0.984299 0
M  V30 592 C 60.372 1.05848 1.72165 0
M  V30 593 C 60.693 -0.406049 1.90726 0
M  V30 594 O 59.963 -1.29139 1.47309 0
M  V30 595 H 58.543 0.388685 0.637913 0
M  V30 596 H 61.205 1.54736 1.18503 0
M  V30 597 H 60.301 1.54327 2.71274 0
M  V30 598 N 60.6021 -1.18246 1.0419 0
M  V30 599 C 61.8271 -1.92736 0.765996 0
M  V30 600 C 62.2521 -1.75728 -0.67091 0
M  V30 601 O 61.6101 -1.06825 -1.46486 0
M  V30 602 C 61.6581 -3.42148 1.13875 0
M  V30 603 O 60.7621 -4.11548 0.264954 0
M  V30 604 H 60.1031 -0.601238 0.281797 0
M  V30 605 H 62.6331 -1.49942 1.39207 0
M  V30 606 H 62.6431 -3.92858 1.1012 0
M  V30 607 H 61.3181 -3.53848 2.18551 0
M  V30 608 H 59.8951 -3.71137 0.362226 0
M  V30 609 N 62.0802 -0.821533 -1.34494 0
M  V30 610 C 63.0432 -0.247847 -2.27856 0
M  V30 611 C 64.0432 0.573453 -1.50227 0
M  V30 612 O 65.2332 0.389759 -1.69784 0
M  V30 613 C 62.3652 0.652698 -3.34593 0
M  V30 614 H 63.5582 -1.07146 -2.80107 0
M  V30 615 H 61.1112 -0.593291 -1.44602 0
M  V30 616 H 61.8462 1.49943 -2.87555 0
M  V30 617 H 61.6312 0.065292 -3.92046 0
M  V30 618 H 63.1212 1.04793 -4.04238 0
M  V30 619 N 63.5583 1.46682 -0.576371 0
M  V30 620 C 64.7863 2.06798 -0.0649635 0
M  V30 621 C 65.2013 1.42612 1.23723 0
M  V30 622 O 64.5583 0.529203 1.74659 0
M  V30 623 C 64.6093 3.6132 0.114202 0
M  V30 624 O 64.3303 4.23104 -1.13644 0
M  V30 625 C 65.8313 4.38349 0.66069 0
M  V30 626 H 63.0513 0.668778 -0.0545616 0
M  V30 627 H 65.5953 1.88404 -0.795237 0
M  V30 628 H 63.7503 3.79162 0.794673 0
M  V30 629 H 64.1643 5.15894 -0.946253 0
M  V30 630 H 65.6383 5.47081 0.73526 0
M  V30 631 H 66.1153 4.05953 1.67627 0
M  V30 632 H 66.7213 4.25297 0.0152951 0
M  V30 633 N 65.0364 0.313813 1.54444 0
M  V30 634 C 65.9994 -0.54379 2.22656 0
M  V30 635 C 66.9994 -1.05124 1.21678 0
M  V30 636 O 68.1894 -0.945225 1.46325 0
M  V30 637 C 65.3214 -1.75427 2.92298 0
M  V30 638 H 66.5144 0.0523599 2.99854 0
M  V30 639 H 64.0674 0.0647834 1.56166 0
M  V30 640 H 64.8024 -2.38991 2.19211 0
M  V30 641 H 64.5874 -1.39791 3.66334 0
M  V30 642 H 66.0774 -2.36325 3.44297 0
M  V30 643 N 66.5145 -1.57545 0.0417849 0
M  V30 644 C 67.7605 -1.92601 -0.635021 0
M  V30 645 C 68.0935 -0.919627 -1.71045 0
M  V30 646 O 67.3685 0.0557892 -1.9442 0
M  V30 647 C 67.6515 -3.38085 -1.23979 0
M  V30 648 C 67.5045 -4.49467 -0.173057 0
M  V30 649 C 68.8235 -3.83776 -2.15416 0
M  V30 650 H 65.9425 -0.700397 -0.229374 0
M  V30 651 H 68.5845 -1.89728 0.101633 0
M  V30 652 H 66.7345 -3.40664 -1.86762 0
M  V30 653 H 68.4065 -4.59018 0.458312 0
M  V30 654 H 66.6495 -4.30909 0.499996 0
M  V30 655 H 67.3205 -5.48323 -0.636054 0
M  V30 656 H 69.7965 -3.83013 -1.62605 0
M  V30 657 H 68.6725 -4.8624 -2.54679 0
M  V30 658 H 68.9335 -3.19998 -3.05047 0
M  V30 659 N 67.9926 0.231505 -1.5589 0
M  V30 660 C 69.4086 0.580748 -1.48659 0
M  V30 661 C 69.6086 1.87617 -0.73498 0
M  V30 662 O 68.6646 2.51046 -0.270586 0
M  V30 663 C 69.9776 0.669202 -2.93159 0
M  V30 664 C 71.5256 0.760499 -3.03621 0
M  V30 665 C 72.0006 0.880383 -4.49459 0
M  V30 666 N 73.4916 0.944861 -4.53461 0
M  V30 667 C 74.2266 1.05716 -5.63571 0
M  V30 668 N 73.7226 1.13403 -6.83456 0
M  V30 669 N 75.5156 1.09152 -5.514 0
M  V30 670 H 67.6666 -0.618695 -2.03189 0
M  V30 671 H 69.9296 -0.215728 -0.923128 0
M  V30 672 H 69.6356 -0.212904 -3.51055 0
M  V30 673 H 69.5096 1.5361 -3.44505 0
M  V30 674 H 71.8966 1.63305 -2.45796 0
M  V30 675 H 71.9776 -0.131864 -2.5546 0
M  V30 676 H 71.6216 0.0123284 -5.07899 0
M  V30 677 H 71.5516 1.78802 -4.95316 0
M  V30 678 H 74.0426 0.896176 -3.6712 0
M  V30 679 H 74.3556 1.21921 -7.63122 0
M  V30 680 H 72.7006 1.10333 -6.86186 0
M  V30 681 H 75.8916 1.02805 -4.56671 0
M  V30 682 H 76.0646 1.17558 -6.37247 0
M  V30 683 N 69.4707 1.49531 0.497807 0
M  V30 684 C 70.8817 1.52344 1.07927 0
M  V30 685 C 71.2327 0.311469 1.93712 0
M  V30 686 O 70.3577 -0.578405 2.08527 0
M  V30 687 C 70.9527 2.76062 1.96405 0
M  V30 688 C 69.5117 2.81643 2.49709 0
M  V30 689 C 68.6587 2.46299 1.27404 0
M  V30 690 H 71.6097 1.56182 0.281576 0
M  V30 691 H 71.6307 2.56405 2.81135 0
M  V30 692 H 71.1427 3.64254 1.33943 0
M  V30 693 H 69.2437 1.97739 3.15801 0
M  V30 694 H 69.3567 3.83891 2.86643 0
M  V30 695 H 67.7207 1.98148 1.60029 0
M  V30 696 H 68.5037 3.36769 0.66645 0
M  V30 697 N 70.9488 -0.749086 1.3866 0
M  V30 698 C 72.3598 -1.32664 1.31366 0
M  V30 699 C 72.7108 -1.96179 -0.028484 0
M  V30 700 O 71.8358 -1.9537 -0.93057 0
M  V30 701 C 72.4308 -2.41219 2.37905 0
M  V30 702 C 70.9898 -2.94684 2.34176 0
M  V30 703 C 70.1368 -1.68108 2.20533 0
M  V30 704 H 73.0878 -0.547628 1.48952 0
M  V30 705 H 73.1088 -3.21268 2.0388 0
M  V30 706 H 72.6208 -1.94962 3.35576 0
M  V30 707 H 70.7218 -3.45258 1.401 0
M  V30 708 H 70.8348 -3.48757 3.2849 0
M  V30 709 H 69.1988 -1.91907 1.67463 0
M  V30 710 H 69.9818 -1.23923 3.20153 0
M  V30 711 N 72.4269 -1.23603 -0.977757 0
M  V30 712 C 73.6729 -1.07129 -1.72195 0
M  V30 713 C 74.0059 0.390501 -1.90233 0
M  V30 714 O 73.2809 1.28902 -1.45653 0
M  V30 715 C 73.5639 -1.80031 -3.11867 0
M  V30 716 C 73.4169 -3.33899 -3.01383 0
M  V30 717 C 74.7359 -1.56492 -4.11337 0
M  V30 718 H 71.8549 -0.390571 -0.624999 0
M  V30 719 H 74.4969 -1.52142 -1.13811 0
M  V30 720 H 72.6469 -1.41768 -3.6171 0
M  V30 721 H 74.3189 -3.81699 -2.59043 0
M  V30 722 H 72.5619 -3.62796 -2.37827 0
M  V30 723 H 73.2329 -3.801 -4.00285 0
M  V30 724 H 75.7089 -1.89757 -3.70313 0
M  V30 725 H 74.5849 -2.09973 -5.07151 0
M  V30 726 H 74.8459 -0.500874 -4.39254 0
M  V30 727 N 73.905 1.17692 -1.04816 0
M  V30 728 C 75.316 1.69501 -0.782698 0
M  V30 729 C 75.667 1.83456 0.695577 0
M  V30 730 O 74.792 1.51942 1.54086 0
M  V30 731 C 75.387 3.07874 -1.41419 0
M  V30 732 C 73.946 3.56864 -1.19686 0
M  V30 733 C 73.093 2.3322 -1.50012 0
M  V30 734 H 76.044 1.02262 -1.2136 0
M  V30 735 H 76.065 3.71528 -0.821428 0
M  V30 736 H 75.577 2.97685 -2.49009 0
M  V30 737 H 73.678 3.72337 -0.140043 0
M  V30 738 H 73.791 4.39851 -1.89916 0
M  V30 739 H 72.155 2.37501 -0.920071 0
M  V30 740 H 72.938 2.25644 -2.58727 0
M  V30 741 N 75.3831 0.828654 1.34056 0
M  V30 742 C 76.3461 0.259927 2.27721 0
M  V30 743 C 77.3461 -0.565478 1.50529 0
M  V30 744 O 78.5361 -0.38075 1.69988 0
M  V30 745 C 75.6681 -0.634944 3.34935 0
M  V30 746 H 76.8611 1.0863 2.79534 0
M  V30 747 H 74.4141 0.600951 1.44285 0
M  V30 748 H 75.1491 -1.48416 2.88346 0
M  V30 749 H 74.9341 -0.0444999 3.92075 0
M  V30 750 H 76.4241 -1.02648 4.04788 0
M  V30 751 N 76.8612 -1.46375 0.584142 0
M  V30 752 C 78.1072 -2.02678 0.0703716 0
M  V30 753 C 78.4402 -1.4545 -1.28678 0
M  V30 754 O 77.7152 -0.62014 -1.84349 0
M  V30 755 C 77.9982 -3.60099 0.00614674 0
M  V30 756 C 77.8512 -4.27709 1.3923 0
M  V30 757 C 79.1702 -4.34598 -0.693742 0
M  V30 758 H 76.2892 -0.736504 0.027047 0
M  V30 759 H 78.9312 -1.74501 0.751615 0
M  V30 760 H 77.0812 -3.84236 -0.574009 0
M  V30 761 H 78.7532 -4.14832 2.01773 0
M  V30 762 H 76.9962 -3.87016 1.95962 0
M  V30 763 H 77.6672 -5.36478 1.29982 0
M  V30 764 H 80.1432 -4.15615 -0.200869 0
M  V30 765 H 79.0192 -5.44318 -0.707714 0
M  V30 766 H 79.2802 -4.05759 -1.75533 0
M  V30 767 N 78.3393 -0.321999 -1.54275 0
M  V30 768 C 79.6163 0.335232 -1.92706 0
M  V30 769 C 79.9963 1.70006 -1.25145 0
M  V30 770 O 79.3443 2.25067 -0.394596 0
M  V30 771 C 79.5543 0.429008 -3.46353 0
M  V30 772 C 80.9023 0.690029 -4.18956 0
M  V30 773 O 81.9263 0.511992 -3.52501 0
M  V30 774 O 80.7853 1.03338 -5.36641 0
M  V30 775 H 77.8793 0.191143 -0.804608 0
M  V30 776 H 80.4253 -0.3716 -1.65581 0
M  V30 777 H 79.1973 -0.529611 -3.87699 0
M  V30 778 H 78.8203 1.18348 -3.79578 0
M  V30 779 N 79.8174 1.5752 -0.0501392 0
M  V30 780 C 81.0644 1.9265 0.623874 0
M  V30 781 C 81.3924 0.928411 1.70912 0
M  V30 782 O 80.6474 -0.0594525 1.9561 0
M  V30 783 C 80.9464 3.34467 1.25963 0
M  V30 784 C 80.6124 4.49883 0.302689 0
M  V30 785 C 79.2744 4.81184 0.0393636 0
M  V30 786 C 81.6264 5.20002 -0.353205 0
M  V30 787 C 78.9544 5.79951 -0.887308 0
M  V30 788 C 81.3064 6.1976 -1.26806 0
M  V30 789 C 79.9704 6.49491 -1.54007 0
M  V30 790 H 79.2404 0.704957 0.228292 0
M  V30 791 H 81.8874 1.91146 -0.116398 0
M  V30 792 H 80.1924 3.32333 2.07514 0
M  V30 793 H 81.8894 3.58928 1.78806 0
M  V30 794 H 78.4794 4.25457 0.518109 0
M  V30 795 H 82.6634 4.96033 -0.162854 0
M  V30 796 H 77.9194 6.01322 -1.10553 0
M  V30 797 H 82.0934 6.73205 -1.78236 0
M  V30 798 H 79.7204 7.25837 -2.25976 0
M  V30 799 N 81.2955 -0.223234 1.56011 0
M  V30 800 C 82.5435 -0.946003 1.78592 0
M  V30 801 C 82.8645 -1.84936 0.618349 0
M  V30 802 O 82.1345 -1.92473 -0.364833 0
M  V30 803 H 80.7145 -0.352298 0.658707 0
M  V30 804 H 83.3765 -0.235494 1.93472 0
M  V30 805 H 82.4725 -1.55381 2.70672 0
M  V30 806 N 82.7736 -1.49793 -0.48987 0
M  V30 807 C 83.7216 -1.67783 -1.61095 0
M  V30 808 C 84.7156 -0.543683 -1.60438 0
M  V30 809 O 85.9216 -0.723647 -1.64813 0
M  V30 810 H 82.2966 -0.529255 -0.534222 0
M  V30 811 H 84.2676 -2.61861 -1.43078 0
M  V30 812 C 83.0166 -1.77191 -2.99164 0
M  V30 813 H 82.3396 -2.63841 -3.0038 0
M  V30 814 H 83.7796 -1.93809 -3.77113 0
M  V30 815 C 82.2386 -0.519203 -3.32875 0
M  V30 816 O 82.7686 0.350124 -4.00171 0
M  V30 817 N 80.9746 -0.378816 -2.8812 0
M  V30 818 H 80.5216 -1.08725 -2.33531 0
M  V30 819 H 80.4796 0.458239 -3.11043 0
M  V30 820 N 84.2517 0.741722 -1.39055 0
M  V30 821 C 85.2147 1.83733 -1.37021 0
M  V30 822 C 86.2147 1.58542 -0.268534 0
M  V30 823 O 87.4047 1.66067 -0.526076 0
M  V30 824 C 84.5367 3.2141 -1.13617 0
M  V30 825 H 85.7297 1.86941 -2.34506 0
M  V30 826 H 83.2827 0.944676 -1.24521 0
M  V30 827 H 84.0177 3.23865 -0.167863 0
M  V30 828 H 83.8027 3.4109 -1.93391 0
M  V30 829 H 85.2927 4.01477 -1.14918 0
M  V30 830 N 85.7298 1.2412 0.971189 0
M  V30 831 C 86.6618 0.988349 2.06795 0
M  V30 832 C 87.6748 -0.0409541 1.62748 0
M  V30 833 O 88.8638 0.195673 1.77424 0
M  V30 834 C 85.9638 0.469023 3.35639 0
M  V30 835 C 85.1368 1.56065 4.08611 0
M  V30 836 C 84.1958 1.04458 5.15728 0
M  V30 837 O 83.2218 1.73553 5.42096 0
M  V30 838 N 84.4238 -0.122817 5.8037 0
M  V30 839 H 87.1888 1.93265 2.29061 0
M  V30 840 H 84.7498 1.15102 1.13856 0
M  V30 841 H 86.7418 0.108613 4.04554 0
M  V30 842 H 85.3118 -0.380919 3.1027 0
M  V30 843 H 84.5318 2.09341 3.34021 0
M  V30 844 H 85.8198 2.29449 4.54126 0
M  V30 845 H 85.2178 -0.700563 5.61345 0
M  V30 846 H 83.7748 -0.424404 6.50417 0
M  V30 847 N 87.2079 -1.17134 1.05439 0
M  V30 848 C 88.1179 -2.24878 0.668365 0
M  V30 849 C 89.1339 -1.71186 -0.311687 0
M  V30 850 O 90.3099 -2.00738 -0.163161 0
M  V30 851 C 87.3749 -3.46662 0.051648 0
M  V30 852 C 86.4359 -4.15429 1.08246 0
M  V30 853 C 85.6689 -5.31399 0.495082 0
M  V30 854 O 85.8919 -5.66153 -0.694743 0
M  V30 855 O 84.8259 -5.89187 1.23056 0
M  V30 856 H 88.6519 -2.60189 1.56637 0
M  V30 857 H 86.2369 -1.24482 0.826104 0
M  V30 858 H 88.1189 -4.20394 -0.290966 0
M  V30 859 H 86.7939 -3.13142 -0.819971 0
M  V30 860 H 85.7009 -3.43704 1.47711 0
M  V30 861 H 87.0339 -4.52982 1.92532 0
M  V30 862 N 88.686 -0.835752 -1.33615 0
M  V30 863 C 89.649 -0.272 -2.2758 0
M  V30 864 C 90.649 0.557487 -1.50827 0
M  V30 865 O 91.839 0.37173 -1.70188 0
M  V30 866 C 88.971 0.617173 -3.35267 0
M  V30 867 H 90.164 -1.10111 -2.78954 0
M  V30 868 H 87.717 -0.608594 -1.43965 0
M  V30 869 H 88.452 1.46884 -2.89129 0
M  V30 870 H 88.237 0.0237066 -3.92093 0
M  V30 871 H 89.727 1.005 -4.05326 0
M  V30 872 N 90.1641 1.46063 -0.591896 0
M  V30 873 C 91.3941 2.06418 -0.0867676 0
M  V30 874 C 91.8021 1.43975 1.22751 0
M  V30 875 O 91.1451 0.542531 1.75506 0
M  V30 876 C 91.2071 3.59213 0.143725 0
M  V30 877 C 90.8711 4.439 -1.08635 0
M  V30 878 C 91.8681 4.79864 -2.00067 0
M  V30 879 C 89.5531 4.84896 -1.31077 0
M  V30 880 C 91.5471 5.55661 -3.12282 0
M  V30 881 C 89.2341 5.6045 -2.43596 0
M  V30 882 C 90.2321 5.95747 -3.34027 0
M  V30 883 O 89.9201 6.69772 -4.4459 0
M  V30 884 H 89.6521 0.673443 -0.0587447 0
M  V30 885 H 92.2061 1.88539 -0.814994 0
M  V30 886 H 90.4361 3.75433 0.926668 0
M  V30 887 H 92.1251 4.01463 0.5985 0
M  V30 888 H 92.8911 4.48763 -1.83947 0
M  V30 889 H 88.7701 4.56867 -0.61594 0
M  V30 890 H 92.3141 5.8313 -3.82891 0
M  V30 891 H 88.2111 5.90965 -2.59674 0
M  V30 892 H 88.9791 6.88207 -4.43073 0
M  V30 893 N 91.6422 0.330177 1.54103 0
M  V30 894 C 93.0582 -0.0222371 1.59585 0
M  V30 895 C 93.2582 -1.49902 1.34654 0
M  V30 896 O 92.3142 -2.25592 1.13421 0
M  V30 897 C 93.6272 0.401932 2.98002 0
M  V30 898 C 95.1752 0.353145 3.11001 0
M  V30 899 C 95.6502 0.752576 4.51775 0
M  V30 900 N 97.1412 0.706239 4.57784 0
M  V30 901 C 97.8762 0.987417 5.64834 0
M  V30 902 N 97.3722 1.33607 6.79795 0
M  V30 903 N 99.1652 0.91254 5.54643 0
M  V30 904 H 91.3162 1.29228 1.68564 0
M  V30 905 H 93.5792 0.525906 0.78875 0
M  V30 906 H 93.2852 1.4311 3.21267 0
M  V30 907 H 93.1592 -0.229699 3.765 0
M  V30 908 H 95.5462 -0.666822 2.87467 0
M  V30 909 H 95.6272 1.0198 2.34593 0
M  V30 910 H 95.2712 1.77049 4.76042 0
M  V30 911 H 95.2012 0.0635409 5.26562 0
M  V30 912 H 97.6922 0.44889 3.75224 0
M  V30 913 H 98.0052 1.53582 7.57385 0
M  V30 914 H 96.3502 1.37439 6.81275 0
M  V30 915 H 99.5412 0.639601 4.6371 0
M  V30 916 H 99.7142 1.13503 6.37982 0
M  V30 917 N 93.1203 -1.57491 0.0584922 0
M  V30 918 C 94.3453 -1.97711 -0.62652 0
M  V30 919 C 94.7703 -0.936132 -1.63151 0
M  V30 920 O 94.1283 0.099811 -1.81025 0
M  V30 921 C 94.1763 -3.36989 -1.28338 0
M  V30 922 O 93.2803 -3.35433 -2.39913 0
M  V30 923 H 92.6213 -0.643868 -0.162266 0
M  V30 924 H 95.1513 -2.04193 0.129064 0
M  V30 925 H 95.1613 -3.73879 -1.63335 0
M  V30 926 H 93.8363 -4.12289 -0.546889 0
M  V30 927 H 92.4133 -3.10298 -2.06809 0
M  V30 928 N 94.5984 0.214957 -1.56127 0
M  V30 929 C 96.0144 0.564948 -1.49267 0
M  V30 930 C 96.2144 1.86827 -0.754838 0
M  V30 931 O 95.2704 2.50745 -0.297198 0
M  V30 932 C 96.5834 0.638071 -2.93852 0
M  V30 933 C 98.1314 0.728253 -3.0441 0
M  V30 934 C 98.6064 0.832663 -4.50367 0
M  V30 935 N 100.097 0.896712 -4.54437 0
M  V30 936 C 100.832 0.997324 -5.6466 0
M  V30 937 N 100.328 1.06147 -6.8462 0
M  V30 938 N 102.121 1.03297 -5.52527 0
M  V30 939 H 94.2724 -0.640211 -2.02522 0
M  V30 940 H 96.5354 -0.225507 -0.920788 0
M  V30 941 H 96.2414 -0.250126 -3.50809 0
M  V30 942 H 96.1154 1.49947 -3.46115 0
M  V30 943 H 98.5024 1.60689 -2.47514 0
M  V30 944 H 98.5834 -0.158952 -2.55306 0
M  V30 945 H 98.2274 -0.0415417 -5.07883 0
M  V30 946 H 98.1574 1.73538 -4.97184 0
M  V30 947 H 100.648 0.857188 -3.6805 0
M  V30 948 H 100.961 1.1382 -7.64372 0
M  V30 949 H 99.3064 1.03049 -6.87318 0
M  V30 950 H 102.497 0.979558 -4.57736 0
M  V30 951 H 102.67 1.10793 -6.38458 0
M  V30 952 N 96.0765 1.50051 0.48192 0
M  V30 953 C 97.4925 1.37237 0.814756 0
M  V30 954 C 97.6925 0.420109 1.97072 0
M  V30 955 O 96.7485 -0.141246 2.52105 0
M  V30 956 C 98.0615 2.78375 1.13701 0
M  V30 957 C 99.6095 2.87213 1.2441 0
M  V30 958 C 100.084 4.29161 1.59954 0
M  V30 959 N 101.575 4.32061 1.66967 0
M  V30 960 C 102.31 5.38879 1.95952 0
M  V30 961 N 101.806 6.55918 2.23031 0
M  V30 962 N 103.599 5.26312 1.97363 0
M  V30 963 H 95.7505 2.10546 -0.28005 0
M  V30 964 H 98.0135 0.945921 -0.0627454 0
M  V30 965 H 97.7195 3.49845 0.360787 0
M  V30 966 H 97.5935 3.14941 2.07586 0
M  V30 967 H 99.9805 2.15969 2.01101 0
M  V30 968 H 100.061 2.54204 0.285299 0
M  V30 969 H 99.7055 5.00938 0.838067 0
M  V30 970 H 99.6355 4.59648 2.56966 0
M  V30 971 H 102.126 3.47661 1.48123 0
M  V30 972 H 102.439 7.33139 2.44391 0
M  V30 973 H 100.784 6.59112 2.20447 0
M  V30 974 H 103.975 4.33876 1.75697 0
M  V30 975 H 104.148 6.09649 2.19618 0
M  V30 976 N 97.5546 -0.734337 1.39446 0
M  V30 977 C 98.7826 -1.52358 1.39981 0
M  V30 978 C 99.1976 -1.88799 -0.0054975 0
M  V30 979 O 98.5546 -1.54146 -0.976998 0
M  V30 980 C 98.6056 -2.81072 2.27333 0
M  V30 981 O 98.3266 -2.46178 3.62392 0
M  V30 982 C 99.8276 -3.75096 2.36259 0
M  V30 983 H 97.0476 -0.470806 0.478103 0
M  V30 984 H 99.5916 -0.907339 1.83269 0
M  V30 985 H 97.7466 -3.39026 1.87457 0
M  V30 986 H 98.1606 -3.28866 4.08592 0
M  V30 987 H 99.6346 -4.62305 3.01626 0
M  V30 988 H 100.112 -4.16892 1.38194 0
M  V30 989 H 100.718 -3.23061 2.76608 0
M  V30 990 N 99.0327 -1.24633 -0.964593 0
M  V30 991 C 100.279 -1.09957 -1.71117 0
M  V30 992 C 100.634 0.357422 -1.89051 0
M  V30 993 O 99.9267 1.26029 -1.44317 0
M  V30 994 C 100.121 -1.7763 -3.10133 0
M  V30 995 C 99.9497 -3.29759 -3.05759 0
M  V30 996 C 98.7197 -3.98981 -3.10068 0
M  V30 997 C 100.918 -4.26305 -2.87695 0
M  V30 998 N 98.8997 -5.37966 -2.95747 0
M  V30 999 C 100.271 -5.52308 -2.81702 0
M  V30 1000 C 102.326 -4.16842 -2.72299 0
M  V30 1001 C 101.029 -6.69931 -2.61887 0
M  V30 1002 C 103.055 -5.34147 -2.53853 0
M  V30 1003 C 102.417 -6.59084 -2.48572 0
M  V30 1004 H 98.5157 -0.457003 -0.634564 0
M  V30 1005 H 101.1 -1.57592 -1.14337 0
M  V30 1006 H 99.2707 -1.32504 -3.65099 0
M  V30 1007 H 101.003 -1.55786 -3.73514 0
M  V30 1008 H 97.7577 -3.50169 -3.18871 0
M  V30 1009 H 98.1817 -6.10877 -2.91818 0
M  V30 1010 H 102.824 -3.21007 -2.75163 0
M  V30 1011 H 100.542 -7.65886 -2.57767 0
M  V30 1012 H 104.128 -5.28678 -2.4288 0
M  V30 1013 H 103.008 -7.48324 -2.34481 0
M  V30 1014 N 100.511 1.16574 -1.06058 0
M  V30 1015 C 101.421 2.2452 -0.680282 0
M  V30 1016 C 102.437 1.71348 0.302604 0
M  V30 1017 O 103.613 2.00822 0.152513 0
M  V30 1018 C 100.678 3.46629 -0.0700315 0
M  V30 1019 C 99.7388 4.14849 -1.10448 0
M  V30 1020 C 98.9718 5.31129 -0.523256 0
M  V30 1021 O 99.1948 5.66514 0.664709 0
M  V30 1022 O 98.1288 5.88526 -1.26179 0
M  V30 1023 H 101.955 2.59355 -1.58015 0
M  V30 1024 H 99.5398 1.24043 -0.832694 0
M  V30 1025 H 101.422 4.20543 0.268667 0
M  V30 1026 H 100.097 3.13573 0.803353 0
M  V30 1027 H 99.0038 3.42916 -1.49532 0
M  V30 1028 H 100.337 4.51954 -1.94931 0
M  V30 1029 N 101.989 0.842826 1.3317 0
M  V30 1030 C 102.919 0.294028 2.31641 0
M  V30 1031 C 103.9 -0.600401 1.59151 0
M  V30 1032 O 105.085 -0.523124 1.87022 0
M  V30 1033 C 102.215 -0.528416 3.43257 0
M  V30 1034 C 101.169 0.27056 4.27144 0
M  V30 1035 C 100.495 -0.675881 5.30411 0
M  V30 1036 C 101.795 1.48981 5.00602 0
M  V30 1037 H 103.489 1.11681 2.77791 0
M  V30 1038 H 101.035 0.538478 1.33553 0
M  V30 1039 H 102.988 -0.922674 4.11175 0
M  V30 1040 H 101.712 -1.38445 2.95805 0
M  V30 1041 H 100.371 0.646427 3.60856 0
M  V30 1042 H 100.019 -1.52842 4.79216 0
M  V30 1043 H 99.7189 -0.145374 5.8742 0
M  V30 1044 H 101.243 -1.06757 6.01195 0
M  V30 1045 H 102.657 1.16849 5.61266 0
M  V30 1046 H 101.054 1.95739 5.6728 0
M  V30 1047 H 102.124 2.25746 4.29147 0
M  V30 1048 N 103.467 -1.45747 0.599634 0
M  V30 1049 C 104.43 -2.28917 -0.113835 0
M  V30 1050 C 105.43 -1.3933 -0.802729 0
M  V30 1051 O 106.62 -1.61534 -0.652103 0
M  V30 1052 C 103.752 -3.20152 -1.17114 0
M  V30 1053 H 104.945 -2.93478 0.617289 0
M  V30 1054 H 102.498 -1.52137 0.358327 0
M  V30 1055 H 103.233 -2.60374 -1.93329 0
M  V30 1056 H 103.018 -3.86133 -0.681468 0
M  V30 1057 H 104.508 -3.82708 -1.67105 0
M  V30 1058 N 104.945 -0.338344 -1.53925 0
M  V30 1059 C 106.361 0.0137736 -1.59594 0
M  V30 1060 C 106.561 1.49186 -1.35447 0
M  V30 1061 O 105.617 2.24987 -1.14616 0
M  V30 1062 C 106.93 -0.41773 -2.97784 0
M  V30 1063 C 108.478 -0.369633 -3.1081 0
M  V30 1064 C 108.953 -0.776524 -4.51369 0
M  V30 1065 N 110.444 -0.730506 -4.57403 0
M  V30 1066 C 111.179 -1.01736 -5.64303 0
M  V30 1067 N 110.675 -1.3721 -6.79077 0
M  V30 1068 N 112.468 -0.941942 -5.54151 0
M  V30 1069 H 104.619 -1.3012 -1.67876 0
M  V30 1070 H 106.882 -0.530082 -0.78595 0
M  V30 1071 H 106.588 -1.44811 -3.20504 0
M  V30 1072 H 106.462 0.209729 -3.76616 0
M  V30 1073 H 108.849 0.651568 -2.87817 0
M  V30 1074 H 108.93 -1.03223 -2.34049 0
M  V30 1075 H 108.574 -1.79571 -4.75096 0
M  V30 1076 H 108.504 -0.0914649 -5.26521 0
M  V30 1077 H 110.995 -0.468783 -3.74981 0
M  V30 1078 H 111.308 -1.57597 -7.5656 0
M  V30 1079 H 109.653 -1.4105 -6.80536 0
M  V30 1080 H 112.844 -0.664184 -4.63364 0
M  V30 1081 H 113.017 -1.16884 -6.37371 0
M  V30 1082 N 106.423 1.57458 -0.0668435 0
M  V30 1083 C 107.648 1.9804 0.616027 0
M  V30 1084 C 108.073 0.944771 1.62652 0
M  V30 1085 O 107.431 -0.0902094 1.81075 0
M  V30 1086 C 107.479 3.37665 1.26549 0
M  V30 1087 O 106.583 3.36701 2.38131 0
M  V30 1088 H 105.924 0.644719 0.158849 0
M  V30 1089 H 108.454 2.04121 -0.139891 0
M  V30 1090 H 108.464 3.7474 1.6135 0
M  V30 1091 H 107.139 4.12573 0.525016 0
M  V30 1092 H 105.716 3.1139 2.0516 0
M  V30 1093 N 107.901 -0.206675 1.56239 0
M  V30 1094 C 108.831 -1.25909 1.96645 0
M  V30 1095 C 109.812 -1.48097 0.836734 0
M  V30 1096 O 110.997 -1.6003 1.10019 0
M  V30 1097 C 108.127 -2.6058 2.29599 0
M  V30 1098 C 107.081 -2.53024 3.452 0
M  V30 1099 C 106.407 -3.91861 3.63798 0
M  V30 1100 C 107.707 -2.06524 4.79734 0
M  V30 1101 H 109.401 -0.923369 2.84806 0
M  V30 1102 H 106.947 -0.442735 1.37025 0
M  V30 1103 H 108.9 -3.34375 2.56459 0
M  V30 1104 H 107.624 -2.95869 1.38307 0
M  V30 1105 H 106.283 -1.81684 3.18412 0
M  V30 1106 H 105.931 -4.24483 2.69857 0
M  V30 1107 H 105.631 -3.87683 4.4156 0
M  V30 1108 H 107.155 -4.67296 3.93022 0
M  V30 1109 H 108.569 -2.70072 5.05702 0
M  V30 1110 H 106.966 -2.13374 5.60885 0
M  V30 1111 H 108.036 -1.01802 4.74093 0
M  V30 1112 N 109.379 -1.50304 -0.473955 0
M  V30 1113 C 110.309 -1.71886 -1.58042 0
M  V30 1114 C 111.29 -0.567799 -1.60344 0
M  V30 1115 O 112.475 -0.806623 -1.76656 0
M  V30 1116 C 109.605 -1.81036 -2.96384 0
M  V30 1117 C 108.559 -2.962 -3.08949 0
M  V30 1118 C 107.885 -2.9049 -4.48909 0
M  V30 1119 C 109.185 -4.36752 -2.86434 0
M  V30 1120 H 110.879 -2.64527 -1.40234 0
M  V30 1121 H 108.425 -1.27295 -0.673201 0
M  V30 1122 H 110.378 -1.94719 -3.73714 0
M  V30 1123 H 109.102 -0.850147 -3.15341 0
M  V30 1124 H 107.761 -2.82164 -2.3405 0
M  V30 1125 H 107.409 -1.92321 -4.64781 0
M  V30 1126 H 107.109 -3.67802 -4.58253 0
M  V30 1127 H 108.633 -3.06218 -5.28264 0
M  V30 1128 H 110.047 -4.5133 -3.53517 0
M  V30 1129 H 108.444 -5.15493 -3.07225 0
M  V30 1130 H 109.514 -4.49321 -1.82316 0
M  V30 1131 N 110.857 0.726932 -1.39834 0
M  V30 1132 C 112.103 1.48884 -1.377 0
M  V30 1133 C 112.436 1.94185 0.0244852 0
M  V30 1134 O 111.711 1.67361 0.990986 0
M  V30 1135 C 111.994 2.72288 -2.3565 0
M  V30 1136 C 111.847 2.32956 -3.84775 0
M  V30 1137 C 113.166 3.74414 -2.31306 0
M  V30 1138 H 110.285 0.540062 -0.5015 0
M  V30 1139 H 112.927 0.830547 -1.70886 0
M  V30 1140 H 111.077 3.28457 -2.07481 0
M  V30 1141 H 112.749 1.82356 -4.23726 0
M  V30 1142 H 110.992 1.65088 -4.01159 0
M  V30 1143 H 111.663 3.21362 -4.4881 0
M  V30 1144 H 114.139 3.27849 -2.56231 0
M  V30 1145 H 113.015 4.58414 -3.01907 0
M  V30 1146 H 113.276 4.21909 -1.32081 0
M  V30 1147 N 112.336 1.25143 0.95797 0
M  V30 1148 C 113.266 1.07711 2.07173 0
M  V30 1149 C 114.247 -0.0128462 1.70095 0
M  V30 1150 O 115.432 0.156061 1.93572 0
M  V30 1151 C 112.562 0.691503 3.40346 0
M  V30 1152 C 111.516 1.73132 3.9142 0
M  V30 1153 C 110.842 1.20049 5.21049 0
M  V30 1154 C 112.142 3.1294 4.1817 0
M  V30 1155 H 113.836 2.00873 2.22014 0
M  V30 1156 H 111.382 0.967191 1.06684 0
M  V30 1157 H 113.335 0.556505 4.17709 0
M  V30 1158 H 112.059 -0.275819 3.25433 0
M  V30 1159 H 110.718 1.8547 3.16222 0
M  V30 1160 H 110.366 0.223499 5.02503 0
M  V30 1161 H 110.066 1.89545 5.56189 0
M  V30 1162 H 111.59 1.07782 6.01012 0
M  V30 1163 H 113.004 3.03775 4.86203 0
M  V30 1164 H 111.401 3.79875 4.64559 0
M  V30 1165 H 112.471 3.6025 3.24573 0
M  V30 1166 N 113.814 -1.1601 1.06675 0
M  V30 1167 C 115.23 -1.38622 0.790948 0
M  V30 1168 C 115.43 -1.92109 -0.607965 0
M  V30 1169 O 114.486 -2.12239 -1.36787 0
M  V30 1170 C 115.799 -2.36347 1.85905 0
M  V30 1171 C 117.347 -2.50023 1.88301 0
M  V30 1172 C 117.822 -3.51033 2.94176 0
M  V30 1173 N 119.313 -3.58563 2.93235 0
M  V30 1174 C 120.048 -4.36521 3.71803 0
M  V30 1175 N 119.544 -5.17869 4.602 0
M  V30 1176 N 121.337 -4.31541 3.60178 0
M  V30 1177 H 113.488 -0.796294 1.96908 0
M  V30 1178 H 115.751 -0.412597 0.853503 0
M  V30 1179 H 115.457 -2.04147 2.86386 0
M  V30 1180 H 115.331 -3.36042 1.71334 0
M  V30 1181 H 117.718 -2.81524 0.884769 0
M  V30 1182 H 117.799 -1.5035 2.06951 0
M  V30 1183 H 117.443 -3.20268 3.94196 0
M  V30 1184 H 117.373 -4.50445 2.72776 0
M  V30 1185 H 119.864 -3.00496 2.29152 0
M  V30 1186 H 120.177 -5.74578 5.16797 0
M  V30 1187 H 118.522 -5.17199 4.64253 0
M  V30 1188 H 121.713 -3.67051 2.90502 0
M  V30 1189 H 121.886 -4.9205 4.21653 0
M  V30 1190 N 115.292 -0.849877 -1.32721 0
M  V30 1191 C 116.222 -0.306308 -2.31482 0
M  V30 1192 C 117.203 0.591952 -1.59468 0
M  V30 1193 O 118.388 0.513199 -1.87296 0
M  V30 1194 C 115.518 0.510204 -3.43532 0
M  V30 1195 C 114.472 -0.293209 -4.26994 0
M  V30 1196 C 113.798 0.647743 -5.30762 0
M  V30 1197 C 115.098 -1.51634 -4.99804 0
M  V30 1198 H 116.792 -1.13153 -2.77195 0
M  V30 1199 H 114.338 -0.545553 -1.33266 0
M  V30 1200 H 116.291 0.900856 -4.11658 0
M  V30 1201 H 115.015 1.36874 -2.96535 0
M  V30 1202 H 113.674 -0.665555 -3.60508 0
M  V30 1203 H 113.322 1.50299 -4.8002 0
M  V30 1204 H 113.022 0.11422 -5.87489 0
M  V30 1205 H 114.546 1.03567 -6.01753 0
M  V30 1206 H 115.96 -1.19824 -5.60638 0
M  V30 1207 H 114.357 -1.98745 -5.66234 0
M  V30 1208 H 115.427 -2.28018 -4.27943 0
M  V30 1209 N 116.77 1.45427 -0.607355 0
M  V30 1210 C 118.01 2.04128 -0.105458 0
M  V30 1211 C 118.374 1.46555 1.24039 0
M  V30 1212 O 119.575 1.96608 1.833 0
M  V30 1213 C 117.846 3.57338 -0.0665324 0
M  V30 1214 S 119.405 4.37201 0.374207 0
M  V30 1215 H 116.223 0.709278 -0.0494575 0
M  V30 1216 H 118.825 1.78139 -0.805404 0
M  V30 1217 H 117.529 3.96752 -1.04957 0
M  V30 1218 H 117.06 3.87902 0.655415 0
M  V30 1219 H 119.075 4.6888 1.62377 0
M  V30 1220 N 118.248 0.346503 1.53744 0
M  V30 1221 C 119.211 -0.496439 2.23759 0
M  V30 1222 C 120.211 -1.0252 1.2388 0
M  V30 1223 O 121.401 -0.913974 1.48297 0
M  V30 1224 C 118.533 -1.69187 2.95954 0
M  V30 1225 H 119.726 0.115952 2.99676 0
M  V30 1226 H 117.279 0.0978939 1.55993 0
M  V30 1227 H 118.014 -2.34288 2.24231 0
M  V30 1228 H 117.799 -1.31989 3.69217 0
M  V30 1229 H 119.289 -2.28969 3.49232 0
M  V30 1230 N 119.726 -1.57421 0.075193 0
M  V30 1231 C 120.972 -1.94716 -0.587998 0
M  V30 1232 C 121.327 -0.955205 -1.67014 0
M  V30 1233 O 120.62 0.0219842 -1.91587 0
M  V30 1234 C 120.814 -3.36428 -1.20626 0
M  V30 1235 C 120.643 -4.49317 -0.185541 0
M  V30 1236 C 119.413 -5.04772 0.23099 0
M  V30 1237 C 121.611 -5.11036 0.57854 0
M  V30 1238 N 119.593 -6.01204 1.24206 0
M  V30 1239 C 120.964 -6.02998 1.44199 0
M  V30 1240 C 123.019 -4.93844 0.634237 0
M  V30 1241 C 121.722 -6.79614 2.3562 0
M  V30 1242 C 123.748 -5.71106 1.53597 0
M  V30 1243 C 123.11 -6.6272 2.38709 0
M  V30 1244 H 119.209 -0.759536 -0.186089 0
M  V30 1245 H 121.793 -1.94097 0.153128 0
M  V30 1246 H 119.964 -3.37778 -1.9173 0
M  V30 1247 H 121.696 -3.60951 -1.8302 0
M  V30 1248 H 118.451 -4.73353 -0.152807 0
M  V30 1249 H 118.875 -6.54119 1.74521 0
M  V30 1250 H 123.517 -4.22799 -0.00960004 0
M  V30 1251 H 121.235 -7.49934 3.01038 0
M  V30 1252 H 124.821 -5.59824 1.58394 0
M  V30 1253 H 123.701 -7.2146 3.07352 0
M  V30 1254 N 121.204 0.198386 -1.56346 0
M  V30 1255 C 122.615 0.763358 -1.70381 0
M  V30 1256 C 122.966 1.83995 -0.681203 0
M  V30 1257 O 122.091 2.15785 0.16305 0
M  V30 1258 C 122.686 1.39143 -3.08909 0
M  V30 1259 C 121.245 1.90352 -3.2472 0
M  V30 1260 C 120.392 0.772233 -2.6633 0
M  V30 1261 H 123.343 -0.0266377 -1.58678 0
M  V30 1262 H 123.364 2.26076 -3.06055 0
M  V30 1263 H 122.876 0.607638 -3.83314 0
M  V30 1264 H 120.977 2.71461 -2.55225 0
M  V30 1265 H 121.09 2.06757 -4.3219 0
M  V30 1266 H 119.454 1.18566 -2.2542 0
M  V30 1267 H 120.237 0.00073556 -3.433 0
M  V30 1268 N 122.682 1.50554 0.465978 0
M  V30 1269 C 123.645 1.69233 1.54574 0
M  V30 1270 C 124.645 0.562901 1.50626 0
M  V30 1271 O 125.835 0.830016 1.53155 0
M  V30 1272 C 122.967 1.7223 2.94193 0
M  V30 1273 H 124.16 2.65571 1.39327 0
M  V30 1274 H 121.713 1.40111 0.692711 0
M  V30 1275 H 122.448 0.77603 3.14878 0
M  V30 1276 H 122.233 2.54285 2.98466 0
M  V30 1277 H 123.723 1.88618 3.72576 0
M  V30 1278 N 124.16 -0.719506 1.40217 0
M  V30 1279 C 125.09 -1.8465 1.42922 0
M  V30 1280 C 126.071 -1.67599 0.29062 0
M  V30 1281 O 127.256 -1.87688 0.498677 0
M  V30 1282 C 124.386 -3.22565 1.28722 0
M  V30 1283 C 123.34 -3.54281 2.40144 0
M  V30 1284 C 122.666 -4.91298 2.11023 0
M  V30 1285 C 123.966 -3.55676 3.82481 0
M  V30 1286 H 125.66 -1.82644 2.37237 0
M  V30 1287 H 123.206 -0.877305 1.1419 0
M  V30 1288 H 125.159 -4.01095 1.29232 0
M  V30 1289 H 123.883 -3.25137 0.308811 0
M  V30 1290 H 122.542 -2.78088 2.38877 0
M  V30 1291 H 122.19 -4.90468 1.11582 0
M  V30 1292 H 121.89 -5.13485 2.8567 0
M  V30 1293 H 123.414 -5.72166 2.13209 0
M  V30 1294 H 124.828 -4.24254 3.85592 0
M  V30 1295 H 123.225 -3.89388 4.56614 0
M  V30 1296 H 124.295 -2.55144 4.12346 0
M  V30 1297 N 125.638 -1.25649 -0.95132 0
M  V30 1298 C 126.568 -1.08808 -2.06599 0
M  V30 1299 C 127.549 0.00382547 -1.701 0
M  V30 1300 O 128.734 -0.166325 -1.93486 0
M  V30 1301 C 125.864 -0.709542 -3.39975 0
M  V30 1302 C 124.818 -1.75206 -3.90496 0
M  V30 1303 C 124.144 -1.22811 -5.20405 0
M  V30 1304 C 125.444 -3.15153 -4.16504 0
M  V30 1305 H 127.138 -2.02048 -2.20946 0
M  V30 1306 H 124.684 -0.972835 -1.06169 0
M  V30 1307 H 126.637 -0.578649 -4.17408 0
M  V30 1308 H 125.361 0.258556 -3.25575 0
M  V30 1309 H 124.02 -1.87145 -3.15234 0
M  V30 1310 H 123.668 -0.250145 -5.02378 0
M  V30 1311 H 123.368 -1.92492 -5.55176 0
M  V30 1312 H 124.892 -1.10968 -6.00432 0
M  V30 1313 H 126.306 -3.06349 -4.84586 0
M  V30 1314 H 124.703 -3.82333 -4.62538 0
M  V30 1315 H 125.773 -3.61966 -3.22658 0
M  V30 1316 N 127.117 1.15442 -1.07289 0
M  V30 1317 C 128.08 2.18358 -0.696591 0
M  V30 1318 C 129.08 1.58637 0.262837 0
M  V30 1319 O 130.27 1.74145 0.0438809 0
M  V30 1320 C 127.402 3.4089 -0.0266151 0
M  V30 1321 H 128.595 2.53162 -1.60776 0
M  V30 1322 H 126.148 1.29893 -0.869342 0
M  V30 1323 H 126.883 3.11653 0.896822 0
M  V30 1324 H 126.668 3.85495 -0.716657 0
M  V30 1325 H 128.158 4.17009 0.222028 0
M  V30 1326 N 128.595 0.856903 1.32268 0
M  V30 1327 C 130.011 0.547061 1.49931 0
M  V30 1328 C 130.211 -0.921781 1.7918 0
M  V30 1329 O 129.267 -1.70469 1.8627 0
M  V30 1330 C 130.58 1.43599 2.64196 0
M  V30 1331 C 132.128 1.43665 2.78081 0
M  V30 1332 C 132.603 2.31085 3.95428 0
M  V30 1333 N 134.094 2.28893 4.02694 0
M  V30 1334 C 134.829 2.93262 4.92732 0
M  V30 1335 N 134.325 3.66751 5.87763 0
M  V30 1336 N 136.118 2.82638 4.85873 0
M  V30 1337 H 128.269 1.8075 1.11549 0
M  V30 1338 H 130.532 0.772144 0.549997 0
M  V30 1339 H 130.238 2.48058 2.49319 0
M  V30 1340 H 130.112 1.12502 3.60032 0
M  V30 1341 H 132.499 0.399701 2.92381 0
M  V30 1342 H 132.58 1.7878 1.82952 0
M  V30 1343 H 132.224 3.34849 3.81888 0
M  V30 1344 H 132.154 1.93302 4.89839 0
M  V30 1345 H 134.645 1.75466 3.34694 0
M  V30 1346 H 134.958 4.13027 6.53168 0
M  V30 1347 H 133.303 3.70859 5.87783 0
M  V30 1348 H 136.494 2.24774 4.10602 0
M  V30 1349 H 136.667 3.33084 5.55841 0
M  V30 1350 N 130.073 -1.45103 0.615059 0
M  V30 1351 C 131.023 -2.27679 -0.120966 0
M  V30 1352 C 132.007 -1.3775 -0.831491 0
M  V30 1353 O 133.199 -1.61683 -0.720249 0
M  V30 1354 C 130.328 -3.24767 -1.1127 0
M  V30 1355 C 129.414 -4.22184 -0.402627 0
M  V30 1356 N 129.805 -5.02692 0.559884 0
M  V30 1357 C 128.103 -4.4125 -0.649202 0
M  V30 1358 C 128.804 -5.73421 0.977942 0
M  V30 1359 N 127.78 -5.42657 0.320104 0
M  V30 1360 H 131.582 -2.87325 0.618181 0
M  V30 1361 H 129.096 -1.56345 0.439304 0
M  V30 1362 H 131.093 -3.82666 -1.65446 0
M  V30 1363 H 129.753 -2.66682 -1.85232 0
M  V30 1364 H 130.764 -5.09354 0.936976 0
M  V30 1365 H 127.441 -3.9428 -1.37293 0
M  V30 1366 H 128.831 -6.48107 1.77222 0
M  V30 1367 N 131.551 -0.354651 -1.53558 0
M  V30 1368 C 132.461 0.50515 -2.29097 0
M  V30 1369 C 133.477 1.10223 -1.34636 0
M  V30 1370 O 134.653 1.11553 -1.67684 0
M  V30 1371 C 131.718 1.63479 -3.05738 0
M  V30 1372 C 130.779 1.06636 -4.15845 0
M  V30 1373 C 130.012 2.14217 -4.88822 0
M  V30 1374 O 130.235 3.35137 -4.61562 0
M  V30 1375 O 129.169 1.77887 -5.75013 0
M  V30 1376 H 132.995 -0.109237 -3.03503 0
M  V30 1377 H 130.58 -0.119357 -1.48922 0
M  V30 1378 H 132.462 2.2918 -3.5363 0
M  V30 1379 H 131.137 2.23478 -2.34178 0
M  V30 1380 H 130.044 0.373565 -3.7223 0
M  V30 1381 H 131.377 0.511081 -4.89539 0
M  V30 1382 N 133.029 1.57378 -0.0835403 0
M  V30 1383 C 133.961 2.10389 0.909338 0
M  V30 1384 C 134.974 1.03858 1.25369 0
M  V30 1385 O 136.163 1.31338 1.20882 0
M  V30 1386 C 133.263 2.55908 2.2218 0
M  V30 1387 C 132.436 3.86145 2.05453 0
M  V30 1388 C 131.495 4.17633 3.20108 0
M  V30 1389 O 130.521 4.87043 2.94581 0
M  V30 1390 N 131.723 3.72113 4.45547 0
M  V30 1391 H 134.488 2.962 0.456657 0
M  V30 1392 H 132.049 1.61579 0.101877 0
M  V30 1393 H 134.041 2.74027 2.97811 0
M  V30 1394 H 132.611 1.75171 2.58909 0
M  V30 1395 H 131.831 3.7729 1.1422 0
M  V30 1396 H 133.119 4.7137 1.91541 0
M  V30 1397 H 132.517 3.16062 4.69171 0
M  V30 1398 H 131.074 3.95409 5.18165 0
M  V30 1399 N 134.507 -0.190092 1.56449 0
M  V30 1400 C 135.437 -1.23816 1.97969 0
M  V30 1401 C 136.418 -1.47201 0.852395 0
M  V30 1402 O 137.603 -1.58854 1.1171 0
M  V30 1403 C 134.733 -2.5813 2.3235 0
M  V30 1404 C 133.687 -2.49348 3.47864 0
M  V30 1405 C 133.013 -3.8798 3.67934 0
M  V30 1406 C 134.313 -2.01424 4.81898 0
M  V30 1407 H 136.007 -0.89311 2.85769 0
M  V30 1408 H 133.553 -0.428177 1.37487 0
M  V30 1409 H 135.506 -3.31637 2.59991 0
M  V30 1410 H 134.23 -2.94386 1.41438 0
M  V30 1411 H 132.889 -1.78297 3.20321 0
M  V30 1412 H 132.537 -4.21597 2.74344 0
M  V30 1413 H 132.237 -3.82978 4.45648 0
M  V30 1414 H 133.761 -4.63101 3.97957 0
M  V30 1415 H 135.175 -2.64693 5.08538 0
M  V30 1416 H 133.572 -2.07413 5.63116 0
M  V30 1417 H 134.642 -0.967677 4.75146 0
M  V30 1418 N 135.985 -1.50799 -0.457987 0
M  V30 1419 C 136.915 -1.73553 -1.5621 0
M  V30 1420 C 137.896 -0.584774 -1.59732 0
M  V30 1421 O 139.081 -0.825314 -1.7579 0
M  V30 1422 C 136.211 -1.84169 -2.94447 0
M  V30 1423 C 135.165 -2.99461 -3.0579 0
M  V30 1424 C 134.491 -2.95235 -4.45803 0
M  V30 1425 C 135.791 -4.39766 -2.81786 0
M  V30 1426 H 137.485 -2.66 -1.37421 0
M  V30 1427 H 135.031 -1.28002 -0.659662 0
M  V30 1428 H 136.984 -1.98672 -3.71628 0
M  V30 1429 H 135.708 -0.883545 -3.14422 0
M  V30 1430 H 134.367 -2.8463 -2.31044 0
M  V30 1431 H 134.015 -1.97239 -4.62715 0
M  V30 1432 H 133.715 -3.72642 -4.54326 0
M  V30 1433 H 135.239 -3.11803 -5.24987 0
M  V30 1434 H 136.653 -4.55054 -3.4871 0
M  V30 1435 H 135.05 -5.18722 -3.0174 0
M  V30 1436 H 136.12 -4.51229 -1.7754 0
M  V30 1437 N 137.463 0.71206 -1.40597 0
M  V30 1438 C 138.693 1.49894 -1.42181 0
M  V30 1439 C 139.101 1.89189 -0.0208078 0
M  V30 1440 O 138.444 1.56223 0.966436 0
M  V30 1441 C 138.506 2.80215 -2.25211 0
M  V30 1442 C 138.17 2.63221 -3.73582 0
M  V30 1443 C 139.167 2.30249 -4.66135 0
M  V30 1444 C 136.852 2.79376 -4.17438 0
M  V30 1445 C 138.846 2.13645 -6.00529 0
M  V30 1446 C 136.533 2.6239 -5.51901 0
M  V30 1447 C 137.531 2.29573 -6.43262 0
M  V30 1448 O 137.219 2.12719 -7.75246 0
M  V30 1449 H 136.951 0.469031 -0.486812 0
M  V30 1450 H 139.505 0.88564 -1.85326 0
M  V30 1451 H 137.735 3.4389 -1.76852 0
M  V30 1452 H 139.424 3.41947 -2.18694 0
M  V30 1453 H 140.19 2.17398 -4.33547 0
M  V30 1454 H 136.069 3.03906 -3.46644 0
M  V30 1455 H 139.613 1.87953 -6.71803 0
M  V30 1456 H 135.51 2.74826 -5.84073 0
M  V30 1457 H 136.278 2.27611 -7.86216 0
M  V30 1458 N 138.941 1.26152 0.944643 0
M  V30 1459 C 140.187 1.11657 1.69294 0
M  V30 1460 C 140.52 -0.339926 1.91202 0
M  V30 1461 O 139.795 -1.24994 1.49019 0
M  V30 1462 C 140.078 1.88236 3.06984 0
M  V30 1463 C 139.931 3.41772 2.92424 0
M  V30 1464 C 141.25 1.67343 4.07043 0
M  V30 1465 H 138.369 0.407004 0.614424 0
M  V30 1466 H 141.011 1.55106 1.09737 0
M  V30 1467 H 139.161 1.51308 3.57824 0
M  V30 1468 H 140.833 3.88433 2.48832 0
M  V30 1469 H 139.076 3.68974 2.28124 0
M  V30 1470 H 139.747 3.90579 3.90067 0
M  V30 1471 H 142.223 1.99509 3.65151 0
M  V30 1472 H 141.099 2.23346 5.01406 0
M  V30 1473 H 141.36 0.617158 4.37771 0
M  V30 1474 N 140.419 -1.14872 1.07899 0
M  V30 1475 C 141.644 -1.90202 0.826926 0
M  V30 1476 C 142.069 -1.77774 -0.614664 0
M  V30 1477 O 141.427 -1.11431 -1.43013 0
M  V30 1478 C 141.475 -3.38352 1.24702 0
M  V30 1479 O 140.579 -4.10497 0.39575 0
M  V30 1480 H 139.92 -0.591968 0.300782 0
M  V30 1481 H 142.45 -1.45437 1.43907 0
M  V30 1482 H 142.46 -3.89156 1.22563 0
M  V30 1483 H 141.135 -3.46715 2.29698 0
M  V30 1484 H 139.712 -3.69796 0.480117 0
M  V30 1485 N 141.898 -0.863906 -1.31812 0
M  V30 1486 C 143.314 -0.555004 -1.49639 0
M  V30 1487 C 143.514 0.912266 -1.79666 0
M  V30 1488 O 142.57 1.69479 -1.87171 0
M  V30 1489 C 143.883 -1.44998 -2.63431 0
M  V30 1490 C 145.431 -1.45138 -2.77316 0
M  V30 1491 C 145.906 -2.33179 -3.94197 0
M  V30 1492 N 147.397 -2.31025 -4.01474 0
M  V30 1493 C 148.132 -2.95871 -4.9117 0
M  V30 1494 N 147.628 -3.69863 -5.8581 0
M  V30 1495 N 149.421 -2.85211 -4.84367 0
M  V30 1496 H 141.572 -1.81339 -1.10589 0
M  V30 1497 H 143.835 -0.77505 -0.545895 0
M  V30 1498 H 143.541 -2.49377 -2.48 0
M  V30 1499 H 143.415 -1.14409 -3.59431 0
M  V30 1500 H 145.802 -0.415201 -2.92164 0
M  V30 1501 H 145.883 -1.79747 -1.82001 0
M  V30 1502 H 145.527 -3.3687 -3.80107 0
M  V30 1503 H 145.457 -1.95897 -4.88807 0
M  V30 1504 H 147.948 -1.77238 -3.33759 0
M  V30 1505 H 148.261 -4.16486 -6.50968 0
M  V30 1506 H 146.606 -3.73971 -5.85808 0
M  V30 1507 H 149.797 -2.26948 -4.09405 0
M  V30 1508 H 149.97 -3.36027 -5.54066 0
M  V30 1509 N 143.376 1.44774 -0.622745 0
M  V30 1510 C 144.323 2.30635 0.0871679 0
M  V30 1511 C 145.293 1.42994 0.845097 0
M  V30 1512 O 146.478 1.71907 0.827812 0
M  V30 1513 C 143.618 3.28144 1.06844 0
M  V30 1514 C 142.731 4.30888 0.309809 0
M  V30 1515 C 141.866 5.15494 1.28215 0
M  V30 1516 C 140.905 6.09953 0.512198 0
M  V30 1517 N 140.042 6.87287 1.43458 0
M  V30 1518 H 144.882 2.90803 -0.650974 0
M  V30 1519 H 142.419 1.43286 -0.33281 0
M  V30 1520 H 144.377 3.83157 1.65066 0
M  V30 1521 H 143.007 2.69695 1.77382 0
M  V30 1522 H 142.059 3.78414 -0.388181 0
M  V30 1523 H 143.371 4.97955 -0.290254 0
M  V30 1524 H 142.525 5.74983 1.93596 0
M  V30 1525 H 141.264 4.48481 1.91614 0
M  V30 1526 H 140.269 5.49581 -0.155151 0
M  V30 1527 H 141.494 6.78999 -0.116958 0
M  V30 1528 H 139.44 6.2295 2.05594 0
M  V30 1529 H 139.357 7.50763 0.888335 0
M  V30 1530 H 140.625 7.51306 2.07749 0
M  V30 1531 N 144.854 0.36279 1.53368 0
M  V30 1532 C 145.784 -0.476976 2.28576 0
M  V30 1533 C 146.765 -1.08631 1.30894 0
M  V30 1534 O 147.95 -1.10409 1.59761 0
M  V30 1535 C 145.08 -1.61828 3.07293 0
M  V30 1536 C 144.034 -1.13633 4.1264 0
M  V30 1537 C 143.36 -2.36766 4.79423 0
M  V30 1538 C 144.66 -0.223061 5.21823 0
M  V30 1539 H 146.354 0.150474 2.99022 0
M  V30 1540 H 143.9 0.0738103 1.43811 0
M  V30 1541 H 145.853 -2.21237 3.58653 0
M  V30 1542 H 144.577 -2.27292 2.34533 0
M  V30 1543 H 143.236 -0.564945 3.62221 0
M  V30 1544 H 142.884 -3.0068 4.03238 0
M  V30 1545 H 142.584 -2.05192 5.50609 0
M  V30 1546 H 144.108 -2.96865 5.33576 0
M  V30 1547 H 145.522 -0.724545 5.68703 0
M  V30 1548 H 143.919 0.001678 6.001 0
M  V30 1549 H 144.989 0.735553 4.79289 0
M  V30 1550 N 146.332 -1.57332 0.0918853 0
M  V30 1551 C 147.262 -2.16872 -0.865371 0
M  V30 1552 C 148.243 -1.10118 -1.29646 0
M  V30 1553 O 149.428 -1.38242 -1.36392 0
M  V30 1554 C 146.558 -2.74649 -2.12569 0
M  V30 1555 C 145.512 -3.86747 -1.83333 0
M  V30 1556 C 144.838 -4.31212 -3.16166 0
M  V30 1557 C 146.138 -5.10089 -1.1228 0
M  V30 1558 H 147.832 -2.97114 -0.369307 0
M  V30 1559 H 145.378 -1.42918 -0.176194 0
M  V30 1560 H 147.331 -3.14952 -2.7997 0
M  V30 1561 H 146.055 -1.91657 -2.64452 0
M  V30 1562 H 144.714 -3.46978 -1.18331 0
M  V30 1563 H 144.362 -3.45115 -3.6593 0
M  V30 1564 H 144.062 -5.06788 -2.97388 0
M  V30 1565 H 145.586 -4.74146 -3.84731 0
M  V30 1566 H 147 -5.47582 -1.69785 0
M  V30 1567 H 145.397 -5.91073 -1.03693 0
M  V30 1568 H 146.467 -4.84786 -0.105041 0
M  V30 1569 N 147.81 0.181792 -1.56548 0
M  V30 1570 C 149.058 0.89832 -1.81038 0
M  V30 1571 C 149.379 1.83232 -0.667164 0
M  V30 1572 O 148.649 1.93372 0.313673 0
M  V30 1573 H 147.229 0.33471 -0.667816 0
M  V30 1574 H 149.891 0.184116 -1.94028 0
M  V30 1575 H 148.987 1.4815 -2.74696 0
M  V30 1576 N 149.288 1.51039 0.449983 0
M  V30 1577 C 150.22 1.67617 1.56324 0
M  V30 1578 C 151.233 0.557083 1.52972 0
M  V30 1579 O 152.422 0.830989 1.57977 0
M  V30 1580 C 149.522 1.66402 2.95235 0
M  V30 1581 C 148.695 2.9469 3.23229 0
M  V30 1582 C 147.754 2.85832 4.41799 0
M  V30 1583 O 146.78 3.59785 4.41071 0
M  V30 1584 N 147.982 2.00821 5.44657 0
M  V30 1585 H 150.747 2.63648 1.42512 0
M  V30 1586 H 148.308 1.48767 0.638737 0
M  V30 1587 H 150.3 1.58062 3.72557 0
M  V30 1588 H 148.87 0.780182 3.02708 0
M  V30 1589 H 148.09 3.16996 2.34323 0
M  V30 1590 H 149.378 3.79636 3.38754 0
M  V30 1591 H 148.776 1.40091 5.48079 0
M  V30 1592 H 147.333 1.98368 6.20881 0
M  V30 1593 N 150.766 -0.704594 1.40972 0
M  V30 1594 C 152.182 -1.01406 1.23244 0
M  V30 1595 C 152.382 -2.01169 0.115399 0
M  V30 1596 O 151.438 -2.47021 -0.523147 0
M  V30 1597 C 152.751 -1.54728 2.57836 0
M  V30 1598 C 154.299 -1.66658 2.64942 0
M  V30 1599 C 154.774 -2.23383 3.9983 0
M  V30 1600 N 156.265 -2.30756 4.01629 0
M  V30 1601 C 157 -2.75655 5.02794 0
M  V30 1602 N 156.496 -3.20225 6.14352 0
M  V30 1603 N 158.289 -2.75138 4.90159 0
M  V30 1604 H 150.44 -0.0435285 2.12355 0
M  V30 1605 H 152.703 -0.0818951 0.944456 0
M  V30 1606 H 152.409 -0.888832 3.40283 0
M  V30 1607 H 152.283 -2.53084 2.79693 0
M  V30 1608 H 154.67 -2.31617 1.8286 0
M  V30 1609 H 154.751 -0.668717 2.46904 0
M  V30 1610 H 154.395 -1.59043 4.82357 0
M  V30 1611 H 154.325 -3.23904 4.15203 0
M  V30 1612 H 156.816 -1.99291 3.21079 0
M  V30 1613 H 157.129 -3.53084 6.87424 0
M  V30 1614 H 155.474 -3.18156 6.17901 0
M  V30 1615 H 158.665 -2.39661 4.02095 0
M  V30 1616 H 158.838 -3.09812 5.6914 0
M  V30 1617 N 152.244 -1.26651 -0.937939 0
M  V30 1618 C 153.174 -1.10993 -2.05433 0
M  V30 1619 C 154.155 -0.0142161 -1.70094 0
M  V30 1620 O 155.34 -0.186837 -1.93299 0
M  V30 1621 C 152.47 -0.745561 -3.39203 0
M  V30 1622 C 151.424 -1.79337 -3.88616 0
M  V30 1623 C 150.75 -1.28324 -5.19073 0
M  V30 1624 C 152.05 -3.19553 -4.13138 0
M  V30 1625 H 153.744 -2.0438 -2.1879 0
M  V30 1626 H 151.29 -0.984041 -1.05131 0
M  V30 1627 H 153.243 -0.622888 -4.16771 0
M  V30 1628 H 151.967 0.22401 -3.25831 0
M  V30 1629 H 150.626 -1.90477 -3.13231 0
M  V30 1630 H 150.274 -0.303414 -5.02084 0
M  V30 1631 H 149.974 -1.98369 -5.53103 0
M  V30 1632 H 151.498 -1.1733 -5.99221 0
M  V30 1633 H 152.912 -3.11471 -4.81309 0
M  V30 1634 H 151.309 -3.87218 -4.58457 0
M  V30 1635 H 152.379 -3.65368 -3.18801 0
M  V30 1636 N 153.722 1.14298 -1.08507 0
M  V30 1637 C 154.969 1.85359 -0.815373 0
M  V30 1638 C 155.297 1.83001 0.658865 0
M  V30 1639 O 154.552 1.25655 1.50031 0
M  V30 1640 C 154.851 3.33547 -1.28379 0
M  V30 1641 C 154.517 3.56093 -2.76602 0
M  V30 1642 C 153.179 3.61955 -3.17084 0
M  V30 1643 C 155.531 3.64834 -3.72217 0
M  V30 1644 C 152.859 3.74082 -4.51973 0
M  V30 1645 C 155.211 3.78487 -5.06883 0
M  V30 1646 C 153.875 3.82598 -5.46969 0
M  V30 1647 H 153.145 0.678276 -0.298366 0
M  V30 1648 H 155.792 1.35002 -1.35819 0
M  V30 1649 H 154.097 3.86191 -0.660593 0
M  V30 1650 H 155.794 3.86959 -1.05186 0
M  V30 1651 H 152.384 3.52179 -2.4427 0
M  V30 1652 H 156.568 3.59595 -3.42061 0
M  V30 1653 H 151.824 3.75527 -4.82483 0
M  V30 1654 H 155.998 3.84193 -5.80834 0
M  V30 1655 H 153.625 3.91747 -6.51489 0
M  V30 1656 N 155.201 0.870884 1.31352 0
M  V30 1657 C 156.149 0.316445 2.30437 0
M  V30 1658 C 157.143 -0.568965 1.59559 0
M  V30 1659 O 158.349 -0.454964 1.74155 0
M  V30 1660 H 154.724 0.0836521 0.747333 0
M  V30 1661 H 156.695 1.16606 2.74673 0
M  V30 1662 C 155.444 -0.46635 3.44558 0
M  V30 1663 H 154.767 0.205687 3.99271 0
M  V30 1664 H 156.207 -0.819614 4.16003 0
M  V30 1665 C 154.666 -1.65797 2.9328 0
M  V30 1666 O 155.196 -2.75728 2.92125 0
M  V30 1667 N 153.402 -1.49041 2.4947 0
M  V30 1668 H 152.949 -0.59612 2.50608 0
M  V30 1669 H 152.907 -2.28911 2.15516 0
M  V30 1670 N 156.679 -1.44442 0.630414 0
M  V30 1671 C 157.626 -2.30678 -0.0749355 0
M  V30 1672 C 158.596 -1.4344 -0.837502 0
M  V30 1673 O 159.781 -1.72343 -0.818684 0
M  V30 1674 C 156.921 -3.28706 -1.05103 0
M  V30 1675 C 156.034 -4.31046 -0.286954 0
M  V30 1676 C 155.169 -5.16167 -1.2548 0
M  V30 1677 C 154.208 -6.10216 -0.479843 0
M  V30 1678 N 153.345 -6.88039 -1.39811 0
M  V30 1679 H 158.185 -2.90454 0.666386 0
M  V30 1680 H 155.722 -1.43107 0.340404 0
M  V30 1681 H 157.68 -3.84027 -1.63031 0
M  V30 1682 H 156.31 -2.70632 -1.75949 0
M  V30 1683 H 155.362 -3.78203 0.408243 0
M  V30 1684 H 156.674 -4.97794 0.316657 0
M  V30 1685 H 155.828 -5.76002 -1.90544 0
M  V30 1686 H 154.567 -4.49491 -1.89233 0
M  V30 1687 H 153.572 -5.49491 0.184295 0
M  V30 1688 H 154.797 -6.78928 0.152965 0
M  V30 1689 H 152.743 -6.24032 -2.02287 0
M  V30 1690 H 152.66 -7.51223 -0.848508 0
M  V30 1691 H 153.928 -7.52397 -2.03762 0
M  V30 1692 N 158.157 -0.370918 -1.53173 0
M  V30 1693 C 159.087 0.464847 -2.28826 0
M  V30 1694 C 160.068 1.07936 -1.31468 0
M  V30 1695 O 161.253 1.0956 -1.60344 0
M  V30 1696 C 158.383 1.60196 -3.08147 0
M  V30 1697 C 157.337 1.11443 -4.13237 0
M  V30 1698 C 156.663 2.3422 -4.80672 0
M  V30 1699 C 157.963 0.195384 -5.21934 0
M  V30 1700 H 159.657 -0.166329 -2.98938 0
M  V30 1701 H 157.203 -0.0814359 -1.4377 0
M  V30 1702 H 159.156 2.19332 -3.59822 0
M  V30 1703 H 157.88 2.26045 -2.35735 0
M  V30 1704 H 156.539 0.545727 -3.62515 0
M  V30 1705 H 156.187 2.98537 -4.04827 0
M  V30 1706 H 155.887 2.02269 -5.51689 0
M  V30 1707 H 157.411 2.94032 -5.35143 0
M  V30 1708 H 158.825 0.694375 -5.69079 0
M  V30 1709 H 157.222 -0.0335027 -6.00091 0
M  V30 1710 H 158.292 -0.760961 -4.78892 0
M  V30 1711 N 159.635 1.57281 -0.100228 0
M  V30 1712 C 160.568 2.09976 0.893612 0
M  V30 1713 C 161.546 1.01155 1.27304 0
M  V30 1714 O 162.73 1.28687 1.37739 0
M  V30 1715 C 159.857 2.58098 2.19324 0
M  V30 1716 C 158.903 3.78626 1.96328 0
M  V30 1717 S 159.736 5.21959 1.19662 0
M  V30 1718 C 160.892 5.73435 2.50844 0
M  V30 1719 H 161.125 2.93946 0.44534 0
M  V30 1720 H 158.658 1.53985 0.113167 0
M  V30 1721 H 160.616 2.8648 2.94005 0
M  V30 1722 H 159.277 1.74344 2.61272 0
M  V30 1723 H 158.47 4.10382 2.92579 0
M  V30 1724 H 158.072 3.50763 1.29775 0
M  V30 1725 H 160.364 5.82015 3.46792 0
M  V30 1726 H 161.307 6.7185 2.23659 0
M  V30 1727 H 161.715 5.01395 2.59352 0
M  V30 1728 N 161.113 -0.173488 1.56642 0
M  V30 1729 C 162.06 -1.21482 1.96242 0
M  V30 1730 C 163.03 -1.44104 0.826027 0
M  V30 1731 O 164.215 -1.5688 1.08597 0
M  V30 1732 C 161.355 -2.54964 2.32567 0
M  V30 1733 C 160.468 -2.39739 3.59373 0
M  V30 1734 C 159.603 -3.66072 3.84921 0
M  V30 1735 C 158.642 -3.45771 5.05083 0
M  V30 1736 N 157.779 -4.64169 5.26775 0
M  V30 1737 H 162.619 -0.870123 2.85014 0
M  V30 1738 H 160.156 -0.418245 1.41029 0
M  V30 1739 H 162.114 -3.32758 2.5165 0
M  V30 1740 H 160.744 -2.87433 1.46908 0
M  V30 1741 H 159.796 -1.53131 3.48217 0
M  V30 1742 H 161.108 -2.20683 4.47326 0
M  V30 1743 H 160.262 -4.52303 4.0436 0
M  V30 1744 H 159.001 -3.88105 2.9534 0
M  V30 1745 H 158.006 -2.57927 4.85545 0
M  V30 1746 H 159.231 -3.25163 5.96193 0
M  V30 1747 H 157.177 -4.86425 4.40144 0
M  V30 1748 H 157.094 -4.48019 6.08946 0
M  V30 1749 H 158.362 -5.51689 5.5069 0
M  V30 1750 N 162.591 -1.51276 -0.441967 0
M  V30 1751 C 163.524 -1.66933 -1.55591 0
M  V30 1752 C 164.502 -0.516958 -1.54163 0
M  V30 1753 O 165.686 -0.740209 -1.73358 0
M  V30 1754 C 162.813 -1.67866 -2.94174 0
M  V30 1755 C 161.859 -2.89013 -3.13646 0
M  V30 1756 S 162.692 -4.49897 -2.90436 0
M  V30 1757 C 163.848 -4.53568 -4.31308 0
M  V30 1758 H 164.081 -2.61155 -1.42076 0
M  V30 1759 H 161.614 -1.40902 -0.631341 0
M  V30 1760 H 163.572 -1.69089 -3.74058 0
M  V30 1761 H 162.233 -0.748296 -3.05056 0
M  V30 1762 H 161.426 -2.86054 -4.14957 0
M  V30 1763 H 161.028 -2.85509 -2.4158 0
M  V30 1764 H 163.32 -4.28924 -5.24434 0
M  V30 1765 H 164.263 -5.55355 -4.39303 0
M  V30 1766 H 164.671 -3.82943 -4.14747 0
M  V30 1767 N 164.069 0.697108 -1.41344 0
M  V30 1768 C 165.297 1.48593 -1.43972 0
M  V30 1769 C 165.712 1.88747 -0.0445612 0
M  V30 1770 O 165.069 1.56682 0.935785 0
M  V30 1771 C 165.12 2.74946 -2.34706 0
M  V30 1772 O 164.841 2.36484 -3.68791 0
M  V30 1773 C 166.342 3.687 -2.46121 0
M  V30 1774 H 163.562 0.457964 -0.490418 0
M  V30 1775 H 166.106 0.858429 -1.8561 0
M  V30 1776 H 164.261 3.33937 -1.9638 0
M  V30 1777 H 164.675 3.17918 -4.17167 0
M  V30 1778 H 166.149 4.54145 -3.13777 0
M  V30 1779 H 166.626 4.13081 -1.49199 0
M  V30 1780 H 167.232 3.15613 -2.85076 0
M  V30 1781 N 165.547 1.27147 0.931209 0
M  V30 1782 C 166.794 1.13278 1.67852 0
M  V30 1783 C 167.122 -0.32204 1.91815 0
M  V30 1784 O 166.377 -1.25224 1.50391 0
M  V30 1785 C 166.676 1.8579 3.05314 0
M  V30 1786 C 166.342 3.35657 3.01073 0
M  V30 1787 C 165.004 3.76536 2.99623 0
M  V30 1788 C 167.356 4.31299 2.92627 0
M  V30 1789 C 164.684 5.11426 2.87506 0
M  V30 1790 C 167.036 5.66242 2.82051 0
M  V30 1791 C 165.7 6.06418 2.7895 0
M  V30 1792 H 164.97 0.414515 0.614214 0
M  V30 1793 H 167.617 1.57712 1.08624 0
M  V30 1794 H 165.922 1.33854 3.68226 0
M  V30 1795 H 167.619 1.72491 3.62005 0
M  V30 1796 H 164.209 3.03146 3.02986 0
M  V30 1797 H 168.393 4.00692 2.92848 0
M  V30 1798 H 163.649 5.41705 2.83489 0
M  V30 1799 H 167.823 6.40026 2.74481 0
M  V30 1800 H 165.45 7.10895 2.69318 0
M  V30 1801 N 167.025 -1.13721 1.09112 0
M  V30 1802 C 168.255 -1.88499 0.845671 0
M  V30 1803 C 168.663 -1.79218 -0.606432 0
M  V30 1804 O 168.006 -1.1544 -1.42896 0
M  V30 1805 C 168.068 -3.38954 1.19793 0
M  V30 1806 C 167.732 -3.72018 2.65428 0
M  V30 1807 C 168.729 -3.7153 3.63677 0
M  V30 1808 C 166.414 -4.01775 3.01467 0
M  V30 1809 C 168.408 -4.00336 4.95994 0
M  V30 1810 C 166.095 -4.30243 4.33975 0
M  V30 1811 C 167.093 -4.29508 5.31048 0
M  V30 1812 O 166.781 -4.5728 6.61173 0
M  V30 1813 H 166.513 -0.603702 0.304171 0
M  V30 1814 H 169.067 -1.44903 1.45576 0
M  V30 1815 H 167.297 -3.83039 0.530871 0
M  V30 1816 H 168.986 -3.95052 0.932146 0
M  V30 1817 H 169.752 -3.4862 3.37179 0
M  V30 1818 H 165.631 -4.01496 2.26544 0
M  V30 1819 H 169.175 -3.99678 5.71755 0
M  V30 1820 H 165.072 -4.52625 4.60219 0
M  V30 1821 H 165.84 -4.74964 6.66597 0
M  V30 1822 N 168.503 -0.877838 -1.30888 0
M  V30 1823 C 169.751 -0.491723 -1.96027 0
M  V30 1824 C 170.072 0.960827 -1.69685 0
M  V30 1825 O 169.342 1.67462 -1.01654 0
M  V30 1826 H 167.922 -0.17885 -0.725273 0
M  V30 1827 H 170.584 -1.11935 -1.59551 0
M  V30 1828 H 169.68 -0.656016 -3.05128 0
M  V30 1829 N 169.982 1.44106 -0.638065 0
M  V30 1830 C 170.932 2.27843 0.0847285 0
M  V30 1831 C 171.916 1.39055 0.809471 0
M  V30 1832 O 173.108 1.62808 0.694435 0
M  V30 1833 C 170.237 3.26497 1.06089 0
M  V30 1834 C 169.323 4.22772 0.33541 0
M  V30 1835 N 169.714 5.01737 -0.639787 0
M  V30 1836 C 168.012 4.42227 0.578921 0
M  V30 1837 C 168.713 5.71792 -1.06904 0
M  V30 1838 N 167.689 5.42079 -0.406395 0
M  V30 1839 H 171.491 2.86305 -0.663814 0
M  V30 1840 H 169.005 1.55627 -0.464122 0
M  V30 1841 H 171.002 3.8525 1.59337 0
M  V30 1842 H 169.662 2.69595 1.80966 0
M  V30 1843 H 170.673 5.07799 -1.01789 0
M  V30 1844 H 167.35 3.96415 1.31003 0
M  V30 1845 H 168.74 6.45205 -1.8751 0
M  V30 1846 N 171.46 0.379036 1.52974 0
M  V30 1847 C 172.707 -0.206421 2.01445 0
M  V30 1848 C 173.035 -1.47668 1.26587 0
M  V30 1849 O 172.29 -1.92514 0.351675 0
M  V30 1850 C 172.589 -0.53096 3.53434 0
M  V30 1851 C 172.255 0.646546 4.46241 0
M  V30 1852 C 170.917 0.969604 4.7133 0
M  V30 1853 C 173.269 1.43479 5.01062 0
M  V30 1854 C 170.597 2.08263 5.48492 0
M  V30 1855 C 172.949 2.53834 5.7944 0
M  V30 1856 C 171.613 2.86659 6.02812 0
M  V30 1857 H 170.883 -0.0755349 0.73714 0
M  V30 1858 H 173.53 0.514271 1.84465 0
M  V30 1859 H 171.835 -1.33285 3.68432 0
M  V30 1860 H 173.532 -0.996417 3.88423 0
M  V30 1861 H 170.122 0.384734 4.2687 0
M  V30 1862 H 174.306 1.19844 4.81613 0
M  V30 1863 H 169.562 2.34078 5.64816 0
M  V30 1864 H 173.736 3.15319 6.20924 0
M  V30 1865 H 171.363 3.73026 6.62387 0
M  V30 1866 N 172.938 -1.57226 0.108567 0
M  V30 1867 C 174.184 -1.95121 -0.552761 0
M  V30 1868 C 174.517 -0.991345 -1.66991 0
M  V30 1869 O 173.792 -0.0267211 -1.94482 0
M  V30 1870 C 174.075 -3.43039 -1.09528 0
M  V30 1871 C 173.928 -4.49797 0.0177332 0
M  V30 1872 C 175.247 -3.92567 -1.98945 0
M  V30 1873 H 172.366 -0.709496 -0.199461 0
M  V30 1874 H 175.008 -1.89126 0.182011 0
M  V30 1875 H 173.158 -3.48279 -1.72146 0
M  V30 1876 H 174.83 -4.56661 0.652584 0
M  V30 1877 H 173.073 -4.284 0.682309 0
M  V30 1878 H 173.744 -5.50528 -0.402919 0
M  V30 1879 H 176.22 -3.89565 -1.46214 0
M  V30 1880 H 175.096 -4.96605 -2.33827 0
M  V30 1881 H 175.357 -3.32648 -2.91201 0
M  V30 1882 N 174.416 0.165178 -1.56732 0
M  V30 1883 C 175.379 1.18822 -1.95995 0
M  V30 1884 C 176.379 1.3685 -0.84431 0
M  V30 1885 O 177.569 1.34152 -1.11126 0
M  V30 1886 C 174.701 2.5521 -2.26011 0
M  V30 1887 H 175.894 0.851825 -2.87548 0
M  V30 1888 H 173.447 0.407857 -1.50885 0
M  V30 1889 H 174.182 2.93852 -1.37191 0
M  V30 1890 H 173.967 2.43489 -3.07336 0
M  V30 1891 H 175.457 3.28927 -2.57288 0
M  V30 1892 N 175.894 1.51508 0.433938 0
M  V30 1893 C 177.142 1.6402 1.18075 0
M  V30 1894 C 177.463 0.360328 1.91642 0
M  V30 1895 O 176.733 -0.623945 1.85698 0
M  V30 1896 H 175.313 0.6045 0.43885 0
M  V30 1897 H 177.975 1.88452 0.497178 0
M  V30 1898 H 177.071 2.46949 1.90847 0
M  V30 1899 N 177.372 -0.689602 1.41712 0
M  V30 1900 C 178.282 -1.83314 1.46401 0
M  V30 1901 C 179.298 -1.7036 0.35405 0
M  V30 1902 O 180.474 -1.92171 0.602692 0
M  V30 1903 C 177.539 -3.19344 1.34982 0
M  V30 1904 C 176.6 -3.44363 2.56344 0
M  V30 1905 C 175.833 -4.73904 2.45461 0
M  V30 1906 O 176.056 -5.508 1.48241 0
M  V30 1907 O 174.99 -4.99839 3.35328 0
M  V30 1908 H 178.816 -1.82314 2.42889 0
M  V30 1909 H 176.401 -0.843438 1.23315 0
M  V30 1910 H 178.283 -4.00547 1.3092 0
M  V30 1911 H 176.958 -3.21014 0.41612 0
M  V30 1912 H 175.865 -2.63067 2.65982 0
M  V30 1913 H 177.198 -3.47512 3.48563 0
M  V30 1914 N 178.85 -1.27639 -0.924453 0
M  V30 1915 C 180.127 -1.04887 -1.651 0
M  V30 1916 C 180.507 0.415327 -2.06974 0
M  V30 1917 O 179.855 1.39923 -1.80648 0
M  V30 1918 C 180.065 -2.01348 -2.85061 0
M  V30 1919 C 181.413 -2.30899 -3.56329 0
M  V30 1920 O 182.437 -1.99348 -2.95193 0
M  V30 1921 O 181.296 -2.84699 -4.66485 0
M  V30 1922 H 178.39 -0.400083 -0.723784 0
M  V30 1923 H 180.936 -1.38916 -0.974703 0
M  V30 1924 H 179.708 -3.0008 -2.51133 0
M  V30 1925 H 179.331 -1.679 -3.6041 0
M  V30 1926 N 180.328 1.1314 -1.09713 0
M  V30 1927 C 181.26 2.18343 -0.697056 0
M  V30 1928 C 182.273 1.60669 0.262551 0
M  V30 1929 O 183.462 1.78435 0.0481527 0
M  V30 1930 C 180.562 3.38899 -0.00684728 0
M  V30 1931 C 179.735 4.26078 -0.988741 0
M  V30 1932 C 178.794 5.25155 -0.331394 0
M  V30 1933 O 177.82 5.60701 -0.979926 0
M  V30 1934 N 179.022 5.73271 0.913261 0
M  V30 1935 H 181.787 2.5328 -1.60216 0
M  V30 1936 H 179.348 1.28491 -0.984971 0
M  V30 1937 H 181.34 4.02255 0.444191 0
M  V30 1938 H 179.91 3.02175 0.800551 0
M  V30 1939 H 179.13 3.59453 -1.61826 0
M  V30 1940 H 180.418 4.81178 -1.65364 0
M  V30 1941 H 179.816 5.46544 1.45966 0
M  V30 1942 H 178.373 6.3855 1.30757 0
M  V30 1943 N 181.806 0.884767 1.30421 0
M  V30 1944 C 182.716 0.355398 2.31892 0
M  V30 1945 C 183.732 -0.542261 1.65335 0
M  V30 1946 O 184.908 -0.435432 1.96637 0
M  V30 1947 C 181.973 -0.421661 3.44126 0
M  V30 1948 C 181.034 0.505727 4.26311 0
M  V30 1949 C 180.267 -0.234343 5.33185 0
M  V30 1950 O 180.49 -1.46045 5.51386 0
M  V30 1951 O 179.424 0.415443 6.00465 0
M  V30 1952 H 183.25 1.19685 2.79122 0
M  V30 1953 H 180.835 0.648596 1.34587 0
M  V30 1954 H 182.717 -0.861641 4.12497 0
M  V30 1955 H 181.392 -1.23942 2.99032 0
M  V30 1956 H 180.299 0.994513 3.60639 0
M  V30 1957 H 181.632 1.28948 4.75009 0
M  V30 1958 N 183.284 -1.43765 0.645699 0
M  V30 1959 C 184.509 -2.06767 0.161883 0
M  V30 1960 C 184.934 -1.48034 -1.16049 0
M  V30 1961 O 184.292 -0.587369 -1.71522 0
M  V30 1962 C 184.34 -3.60519 0.0762003 0
M  V30 1963 O 183.444 -4.00982 -0.963721 0
M  V30 1964 H 182.785 -0.657675 0.091429 0
M  V30 1965 H 185.315 -1.84397 0.886499 0
M  V30 1966 H 185.325 -4.07853 -0.109604 0
M  V30 1967 H 184 -4.02646 1.04157 0
M  V30 1968 H 182.577 -3.65253 -0.751312 0
M  V30 1969 N 184.763 -0.387143 -1.52771 0
M  V30 1970 C 186.012 0.19697 -2.00736 0
M  V30 1971 C 186.325 1.48082 -1.27793 0
M  V30 1972 O 187.531 2.14485 -1.66458 0
M  V30 1973 C 185.987 0.401568 -3.57653 0
M  V30 1974 C 185.595 -0.868907 -4.39493 0
M  V30 1975 C 187.339 0.942164 -4.13912 0
M  V30 1976 C 185.246 -0.632705 -5.88006 0
M  V30 1977 H 184.176 0.0773827 -0.750019 0
M  V30 1978 H 186.827 -0.50921 -1.76293 0
M  V30 1979 H 185.209 1.16954 -3.78335 0
M  V30 1980 H 186.383 -1.64133 -4.30577 0
M  V30 1981 H 184.698 -1.33429 -3.94443 0
M  V30 1982 H 187.295 1.13455 -5.22525 0
M  V30 1983 H 187.638 1.9106 -3.69867 0
M  V30 1984 H 188.171 0.233814 -3.97112 0
M  V30 1985 H 184.91 -1.57208 -6.36369 0
M  V30 1986 H 184.43 0.100825 -5.99715 0
M  V30 1987 H 186.109 -0.26642 -6.46451 0
M  V30 1988 N 186.241 1.57166 -0.116904 0
M  V30 1989 C 187.173 2.12271 0.864507 0
M  V30 1990 C 188.186 1.06494 1.23138 0
M  V30 1991 O 189.375 1.33873 1.18069 0
M  V30 1992 C 186.475 2.60564 2.16702 0
M  V30 1993 C 185.648 3.90416 1.97216 0
M  V30 1994 C 184.707 4.24329 3.11178 0
M  V30 1995 O 183.733 4.93182 2.84184 0
M  V30 1996 N 184.935 3.8148 4.37554 0
M  V30 1997 H 187.7 2.97102 0.393726 0
M  V30 1998 H 185.261 1.61759 0.0675805 0
M  V30 1999 H 187.253 2.80282 2.91932 0
M  V30 2000 H 185.823 1.80623 2.55135 0
M  V30 2001 H 185.043 3.79627 1.06192 0
M  V30 2002 H 186.331 4.75327 1.81499 0
M  V30 2003 H 185.729 3.25943 4.62361 0
M  V30 2004 H 184.286 4.06311 5.09661 0
M  V30 2005 N 187.719 -0.156864 1.56817 0
M  V30 2006 C 189.13 -0.717916 1.72345 0
M  V30 2007 C 189.481 -1.82124 0.729747 0
M  V30 2008 O 188.606 -2.16141 -0.105781 0
M  V30 2009 C 189.201 -1.30904 3.12489 0
M  V30 2010 C 187.76 -1.81676 3.29653 0
M  V30 2011 C 186.907 -0.701349 2.68284 0
M  V30 2012 H 189.858 0.0686989 1.58551 0
M  V30 2013 H 189.879 -2.17882 3.11942 0
M  V30 2014 H 189.391 -0.505796 3.8479 0
M  V30 2015 H 187.492 -2.64598 2.62333 0
M  V30 2016 H 187.605 -1.95226 4.3752 0
M  V30 2017 H 185.969 -1.12548 2.28484 0
M  V30 2018 H 186.752 0.0902846 3.43181 0
M  V30 2019 N 189.197 -1.51736 -0.425897 0
M  V30 2020 C 190.127 -1.76827 -1.52494 0
M  V30 2021 C 191.108 -0.618524 -1.58456 0
M  V30 2022 O 192.293 -0.862416 -1.74 0
M  V30 2023 C 189.423 -1.90374 -2.90474 0
M  V30 2024 C 188.377 -3.0588 -2.99369 0
M  V30 2025 C 187.703 -3.04625 -4.3944 0
M  V30 2026 C 189.003 -4.45644 -2.72394 0
M  V30 2027 H 190.697 -2.68855 -1.31748 0
M  V30 2028 H 188.243 -1.29372 -0.632362 0
M  V30 2029 H 190.196 -2.0651 -3.6733 0
M  V30 2030 H 188.92 -0.95004 -3.12477 0
M  V30 2031 H 187.579 -2.89467 -2.24954 0
M  V30 2032 H 187.227 -2.0701 -4.58428 0
M  V30 2033 H 186.927 -3.82195 -4.46319 0
M  V30 2034 H 188.451 -3.22869 -5.18255 0
M  V30 2035 H 189.865 -4.62348 -3.38979 0
M  V30 2036 H 188.262 -5.25006 -2.9067 0
M  V30 2037 H 189.332 -4.54893 -1.67929 0
M  V30 2038 N 190.675 0.682077 -1.42076 0
M  V30 2039 C 191.605 1.80796 -1.47767 0
M  V30 2040 C 192.586 1.6677 -0.334954 0
M  V30 2041 O 193.771 1.863 -0.548264 0
M  V30 2042 C 190.901 3.19038 -1.37229 0
M  V30 2043 C 189.855 3.47789 -2.49453 0
M  V30 2044 C 189.181 4.8553 -2.23975 0
M  V30 2045 C 190.481 3.45411 -3.91776 0
M  V30 2046 H 192.175 1.7629 -2.41997 0
M  V30 2047 H 189.721 0.846721 -1.16476 0
M  V30 2048 H 191.674 3.97528 -1.39821 0
M  V30 2049 H 190.398 3.24204 -0.394907 0
M  V30 2050 H 189.057 2.71657 -2.46166 0
M  V30 2051 H 188.705 4.87337 -1.24547 0
M  V30 2052 H 188.405 5.0573 -2.99184 0
M  V30 2053 H 189.929 5.66312 -2.28304 0
M  V30 2054 H 191.343 4.13882 -3.96705 0
M  V30 2055 H 189.74 3.77145 -4.66778 0
M  V30 2056 H 190.81 2.44122 -4.18966 0
M  V30 2057 N 192.153 1.28127 0.917671 0
M  V30 2058 C 193.569 1.05749 1.19538 0
M  V30 2059 C 193.769 -0.202633 2.00479 0
M  V30 2060 O 192.825 -0.905382 2.3571 0
M  V30 2061 C 194.138 2.30273 1.93378 0
M  V30 2062 C 195.686 2.35412 2.06277 0
M  V30 2063 C 196.161 3.59692 2.83524 0
M  V30 2064 N 197.652 3.60309 2.91087 0
M  V30 2065 C 198.387 4.53147 3.51348 0
M  V30 2066 N 197.883 5.563 4.12919 0
M  V30 2067 N 199.676 4.40751 3.48849 0
M  V30 2068 H 191.827 2.09024 0.377184 0
M  V30 2069 H 194.09 0.919798 0.22951 0
M  V30 2070 H 193.796 3.22055 1.41328 0
M  V30 2071 H 193.67 2.36378 2.93947 0
M  V30 2072 H 196.057 1.4413 2.57508 0
M  V30 2073 H 196.138 2.33304 1.04895 0
M  V30 2074 H 195.782 4.51316 2.32973 0
M  V30 2075 H 195.712 3.59054 3.85211 0
M  V30 2076 H 198.203 2.85714 2.47338 0
M  V30 2077 H 198.516 6.2329 4.56869 0
M  V30 2078 H 196.861 5.60131 4.11435 0
M  V30 2079 H 200.052 3.59367 2.99955 0
M  V30 2080 H 200.225 5.13291 3.9552 0
M  V30 2081 N 193.631 -1.12557 1.10312 0
M  V30 2082 C 194.581 -2.16331 0.720076 0
M  V30 2083 C 195.565 -1.58616 -0.270115 0
M  V30 2084 O 196.757 -1.76823 -0.0790507 0
M  V30 2085 C 193.886 -3.42963 0.152113 0
M  V30 2086 C 192.972 -4.07663 1.16927 0
M  V30 2087 N 193.363 -4.47392 2.35953 0
M  V30 2088 C 191.661 -4.34425 1.0095 0
M  V30 2089 C 192.362 -4.97932 3.0073 0
M  V30 2090 N 191.338 -4.93358 2.28252 0
M  V30 2091 H 195.14 -2.44813 1.62616 0
M  V30 2092 H 192.654 -1.29449 0.980654 0
M  V30 2093 H 194.651 -4.16664 -0.14037 0
M  V30 2094 H 193.311 -3.1595 -0.748701 0
M  V30 2095 H 194.322 -4.39802 2.73486 0
M  V30 2096 H 190.999 -4.17177 0.164134 0
M  V30 2097 H 192.389 -5.38397 4.01969 0
M  V30 2098 N 195.109 -0.891671 -1.2995 0
M  V30 2099 C 196.339 -0.527893 -1.99742 0
M  V30 2100 C 196.747 0.88979 -1.66971 0
M  V30 2101 O 196.09 1.59766 -0.906667 0
M  V30 2102 C 196.152 -0.630804 -3.53922 0
M  V30 2103 C 195.816 -2.01401 -4.10228 0
M  V30 2104 C 196.813 -2.98422 -4.25724 0
M  V30 2105 C 194.498 -2.32121 -4.45449 0
M  V30 2106 C 196.492 -4.24293 -4.75662 0
M  V30 2107 C 194.179 -3.58237 -4.95086 0
M  V30 2108 C 195.177 -4.54137 -5.10146 0
M  V30 2109 O 194.865 -5.78014 -5.58708 0
M  V30 2110 H 194.597 -0.201953 -0.645129 0
M  V30 2111 H 197.151 -1.20076 -1.66646 0
M  V30 2112 H 195.381 0.0990616 -3.86573 0
M  V30 2113 H 197.07 -0.277338 -4.04951 0
M  V30 2114 H 197.836 -2.76001 -3.98809 0
M  V30 2115 H 193.715 -1.5824 -4.32991 0
M  V30 2116 H 197.259 -4.99153 -4.87332 0
M  V30 2117 H 193.156 -3.80491 -5.21437 0
M  V30 2118 H 193.924 -5.8049 -5.77039 0
M  V30 2119 N 196.587 1.43421 -0.653314 0
M  V30 2120 C 198.003 1.56341 -0.320886 0
M  V30 2121 C 198.203 1.63696 1.17499 0
M  V30 2122 O 197.259 1.59208 1.95982 0
M  V30 2123 C 198.572 2.82424 -1.03233 0
M  V30 2124 C 200.12 2.96168 -1.01259 0
M  V30 2125 C 200.595 4.25084 -1.70492 0
M  V30 2126 N 202.086 4.31948 -1.67257 0
M  V30 2127 C 202.821 5.30466 -2.17701 0
M  V30 2128 N 202.317 6.35261 -2.76434 0
M  V30 2129 N 204.11 5.2212 -2.082 0
M  V30 2130 H 196.261 1.3689 -1.62403 0
M  V30 2131 H 198.524 0.657455 -0.682977 0
M  V30 2132 H 198.23 2.83053 -2.08744 0
M  V30 2133 H 198.104 3.72653 -0.583948 0
M  V30 2134 H 200.491 2.9508 0.0341235 0
M  V30 2135 H 200.572 2.07229 -1.49966 0
M  V30 2136 H 200.216 4.26932 -2.7512 0
M  V30 2137 H 200.146 5.1292 -1.19251 0
M  V30 2138 H 202.637 3.56838 -1.24398 0
M  V30 2139 H 202.95 7.06754 -3.12601 0
M  V30 2140 H 201.295 6.35884 -2.80495 0
M  V30 2141 H 204.486 4.39166 -1.62021 0
M  V30 2142 H 204.659 5.98739 -2.47822 0
M  V30 2143 N 198.065 0.39524 1.52563 0
M  V30 2144 C 199.028 -0.425001 2.25225 0
M  V30 2145 C 200.028 -0.985266 1.27079 0
M  V30 2146 O 201.218 -0.866332 1.5113 0
M  V30 2147 C 198.35 -1.59686 3.01186 0
M  V30 2148 H 199.543 0.211233 2.99155 0
M  V30 2149 H 197.096 0.147472 1.55603 0
M  V30 2150 H 197.831 -2.27035 2.31572 0
M  V30 2151 H 197.616 -1.20176 3.73229 0
M  V30 2152 H 199.106 -2.17743 3.5634 0
M  V30 2153 N 199.544 -1.57102 0.125237 0
M  V30 2154 C 200.791 -1.95407 -0.531248 0
M  V30 2155 C 201.119 -1.0089 -1.66287 0
M  V30 2156 O 200.374 -0.0339431 -1.95671 0
M  V30 2157 C 200.673 -3.40096 -1.09862 0
M  V30 2158 C 200.339 -4.50815 -0.0876989 0
M  V30 2159 C 199.001 -4.80824 0.19026 0
M  V30 2160 C 201.353 -5.17724 0.600902 0
M  V30 2161 C 198.681 -5.75058 1.163 0
M  V30 2162 C 201.033 -6.13005 1.56231 0
M  V30 2163 C 199.697 -6.41403 1.8482 0
M  V30 2164 H 198.967 -0.715046 -0.194397 0
M  V30 2165 H 201.614 -1.90373 0.207463 0
M  V30 2166 H 199.919 -3.41855 -1.91422 0
M  V30 2167 H 201.616 -3.6705 -1.61478 0
M  V30 2168 H 198.206 -4.27444 -0.314528 0
M  V30 2169 H 202.39 -4.94691 0.399333 0
M  V30 2170 H 197.646 -5.95362 1.39117 0
M  V30 2171 H 201.82 -6.63934 2.10153 0
M  V30 2172 H 199.447 -7.14229 2.60349 0
M  V30 2173 N 201.022 0.148545 -1.56898 0
M  V30 2174 C 202.27 0.859717 -1.82902 0
M  V30 2175 C 202.591 1.81775 -0.70588 0
M  V30 2176 O 201.861 1.93994 0.272586 0
M  V30 2177 H 200.441 0.320469 -0.674766 0
M  V30 2178 H 203.103 0.142918 -1.94375 0
M  V30 2179 H 202.199 1.4229 -2.77777 0
M  V30 2180 N 202.5 1.5196 0.417844 0
M  V30 2181 C 203.746 1.65836 1.16732 0
M  V30 2182 C 204.079 0.382881 1.90388 0
M  V30 2183 O 203.354 -0.618368 1.84408 0
M  V30 2184 C 203.637 2.87466 2.16876 0
M  V30 2185 C 203.49 4.25041 1.47174 0
M  V30 2186 C 204.809 3.04613 3.17646 0
M  V30 2187 H 201.928 0.603515 0.423011 0
M  V30 2188 H 204.57 1.84494 0.454105 0
M  V30 2189 H 202.72 2.71689 2.777 0
M  V30 2190 H 204.392 4.52527 0.895376 0
M  V30 2191 H 202.635 4.26843 0.773806 0
M  V30 2192 H 203.306 5.06176 2.20204 0
M  V30 2193 H 205.782 3.1923 2.66892 0
M  V30 2194 H 204.658 3.91247 3.8499 0
M  V30 2195 H 204.919 2.17541 3.84874 0
M  V30 2196 N 203.978 -0.674533 1.42435 0
M  V30 2197 C 205.203 -1.46784 1.46524 0
M  V30 2198 C 205.628 -1.87938 0.078066 0
M  V30 2199 O 204.986 -1.56014 -0.92354 0
M  V30 2200 C 205.034 -2.69307 2.39805 0
M  V30 2201 O 204.138 -3.67587 1.86959 0
M  V30 2202 H 203.479 -0.440959 0.496439 0
M  V30 2203 H 206.009 -0.827326 1.87127 0
M  V30 2204 H 206.019 -3.17374 2.56393 0
M  V30 2205 H 204.694 -2.38692 3.40586 0
M  V30 2206 H 203.271 -3.2662 1.79927 0
M  V30 2207 N 205.456 -1.28612 -0.910864 0
M  V30 2208 C 206.419 -1.12803 -1.9952 0
M  V30 2209 C 207.419 -0.0668264 -1.60661 0
M  V30 2210 O 208.609 -0.312847 -1.71368 0
M  V30 2211 C 205.741 -0.72254 -3.33155 0
M  V30 2212 H 206.934 -2.09109 -2.14973 0
M  V30 2213 H 204.487 -1.11639 -1.09391 0
M  V30 2214 H 205.222 0.241152 -3.23402 0
M  V30 2215 H 205.007 -1.48916 -3.62721 0
M  V30 2216 H 206.497 -0.634666 -4.12749 0
M  V30 2217 N 206.934 1.1197 -1.10907 0
M  V30 2218 C 208.183 1.82947 -0.849302 0
M  V30 2219 C 208.496 1.85275 0.627112 0
M  V30 2220 O 209.702 2.52296 1.00295 0
M  V30 2221 C 208.158 3.28529 -1.46959 0
M  V30 2222 C 207.766 3.34546 -2.97965 0
M  V30 2223 C 209.51 4.04443 -1.28942 0
M  V30 2224 C 207.417 4.74491 -3.53004 0
M  V30 2225 H 206.347 0.685477 -0.314065 0
M  V30 2226 H 208.998 1.2604 -1.33365 0
M  V30 2227 H 207.38 3.85333 -0.912917 0
M  V30 2228 H 208.554 2.87654 -3.59989 0
M  V30 2229 H 206.869 2.72108 -3.15192 0
M  V30 2230 H 209.466 5.07787 -1.67502 0
M  V30 2231 H 209.809 4.15656 -0.231456 0
M  V30 2232 H 210.342 3.5401 -1.81443 0
M  V30 2233 H 207.081 4.68474 -4.58489 0
M  V30 2234 H 206.601 5.21816 -2.9575 0
M  V30 2235 H 208.28 5.4344 -3.51115 0
M  V30 2236 N 208.412 0.89855 1.29475 0
M  V30 2237 C 209.342 0.39201 2.30186 0
M  V30 2238 C 210.323 -0.532359 1.61555 0
M  V30 2239 O 211.508 -0.443331 1.89072 0
M  V30 2240 C 208.638 -0.382353 3.45189 0
M  V30 2241 C 207.592 0.451483 4.25612 0
M  V30 2242 C 206.918 -0.450307 5.328 0
M  V30 2243 C 208.218 1.70079 4.93832 0
M  V30 2244 H 209.912 1.23362 2.72804 0
M  V30 2245 H 207.458 0.594638 1.31149 0
M  V30 2246 H 209.411 -0.747451 4.14718 0
M  V30 2247 H 208.135 -1.25774 3.01411 0
M  V30 2248 H 206.794 0.798897 3.57789 0
M  V30 2249 H 206.442 -1.32379 4.85268 0
M  V30 2250 H 206.142 0.103902 5.87508 0
M  V30 2251 H 207.666 -0.811623 6.05182 0
M  V30 2252 H 209.08 1.40549 5.55805 0
M  V30 2253 H 207.477 2.19623 5.58467 0
M  V30 2254 H 208.547 2.43744 4.19186 0
M  V30 2255 N 209.89 -1.43072 0.660911 0
M  V30 2256 C 211.167 -1.95307 0.107017 0
M  V30 2257 C 211.547 -1.60192 -1.37484 0
M  V30 2258 O 210.895 -0.890949 -2.10415 0
M  V30 2259 C 211.105 -3.47124 0.361402 0
M  V30 2260 C 212.453 -4.23738 0.270455 0
M  V30 2261 O 213.477 -3.54981 0.294382 0
M  V30 2262 O 212.336 -5.46131 0.200737 0
M  V30 2263 H 209.43 -0.826984 -0.00517729 0
M  V30 2264 H 211.976 -1.52972 0.734681 0
M  V30 2265 H 210.748 -3.65837 1.38848 0
M  V30 2266 H 210.371 -3.96475 -0.298953 0
M  V30 2267 N 211.368 -0.403325 -1.52352 0
M  V30 2268 C 212.598 0.17376 -2.05868 0
M  V30 2269 C 213.006 1.39898 -1.27378 0
M  V30 2270 O 212.349 1.80939 -0.31729 0
M  V30 2271 C 212.411 0.594756 -3.54546 0
M  V30 2272 C 212.075 -0.518926 -4.54044 0
M  V30 2273 C 213.072 -1.3807 -5.01231 0
M  V30 2274 C 210.757 -0.689961 -4.97539 0
M  V30 2275 C 212.751 -2.39852 -5.90551 0
M  V30 2276 C 210.438 -1.71109 -5.86656 0
M  V30 2277 C 211.436 -2.56378 -6.33056 0
M  V30 2278 O 211.124 -3.56743 -7.20409 0
M  V30 2279 H 210.856 0.0264951 -0.675481 0
M  V30 2280 H 213.41 -0.571179 -1.97299 0
M  V30 2281 H 211.64 1.39189 -3.60782 0
M  V30 2282 H 213.329 1.0991 -3.90736 0
M  V30 2283 H 214.095 -1.25994 -4.68349 0
M  V30 2284 H 209.974 -0.035939 -4.60986 0
M  V30 2285 H 213.518 -3.06441 -6.26689 0
M  V30 2286 H 209.415 -1.83218 -6.18952 0
M  V30 2287 H 210.183 -3.52918 -7.38506 0
M  V30 2288 N 212.846 1.57033 -0.133567 0
M  V30 2289 C 214.094 1.953 0.519848 0
M  V30 2290 C 214.415 1.01866 1.66278 0
M  V30 2291 O 213.685 0.0776513 1.95746 0
M  V30 2292 H 212.265 0.721091 0.195032 0
M  V30 2293 H 214.927 1.93809 -0.205921 0
M  V30 2294 H 214.023 2.98695 0.904854 0
M  V30 2295 N 214.325 -0.140222 1.56975 0
M  V30 2296 C 215.571 -0.852949 1.83991 0
M  V30 2297 C 215.904 -1.80512 0.716187 0
M  V30 2298 O 215.179 -1.92479 -0.279681 0
M  V30 2299 C 215.462 -1.6215 3.21527 0
M  V30 2300 C 215.315 -0.690363 4.4447 0
M  V30 2301 C 216.634 -2.58247 3.56366 0
M  V30 2302 H 213.753 -0.308634 0.669264 0
M  V30 2303 H 216.395 -0.117898 1.89634 0
M  V30 2304 H 214.545 -2.24812 3.16847 0
M  V30 2305 H 216.217 -0.0742264 4.6124 0
M  V30 2306 H 214.46 -0.000396433 4.338 0
M  V30 2307 H 215.131 -1.2643 5.37326 0
M  V30 2308 H 217.607 -2.05701 3.61699 0
M  V30 2309 H 216.483 -3.09067 4.53617 0
M  V30 2310 H 216.744 -3.39923 2.82674 0
M  V30 2311 N 215.803 -1.52179 -0.40978 0
M  V30 2312 C 216.713 -1.78364 -1.52392 0
M  V30 2313 C 217.729 -0.669183 -1.60617 0
M  V30 2314 O 218.905 -0.954518 -1.77344 0
M  V30 2315 C 215.97 -1.92822 -2.88133 0
M  V30 2316 C 215.031 -3.16725 -2.898 0
M  V30 2317 C 214.264 -3.30483 -4.19067 0
M  V30 2318 O 214.487 -2.49522 -5.12928 0
M  V30 2319 O 213.421 -4.2363 -4.27576 0
M  V30 2320 H 217.247 -2.72931 -1.33201 0
M  V30 2321 H 214.832 -1.37016 -0.59557 0
M  V30 2322 H 216.714 -2.04157 -3.68643 0
M  V30 2323 H 215.389 -1.01444 -3.07393 0
M  V30 2324 H 214.296 -3.10848 -2.08146 0
M  V30 2325 H 215.629 -4.07881 -2.75489 0
M  V30 2326 N 217.281 0.66697 -1.42791 0
M  V30 2327 C 218.191 1.80962 -1.49299 0
M  V30 2328 C 219.207 1.69775 -0.381108 0
M  V30 2329 O 220.383 1.91188 -0.633188 0
M  V30 2330 C 217.448 3.17156 -1.40045 0
M  V30 2331 C 216.509 3.40242 -2.6179 0
M  V30 2332 C 215.742 4.69939 -2.52969 0
M  V30 2333 O 215.965 5.48372 -1.56985 0
M  V30 2334 O 214.899 4.94441 -3.43237 0
M  V30 2335 H 218.725 1.78427 -2.45759 0
M  V30 2336 H 216.31 0.823713 -1.24641 0
M  V30 2337 H 218.192 3.98413 -1.37276 0
M  V30 2338 H 216.867 3.20312 -0.467138 0
M  V30 2339 H 215.774 2.58802 -2.70134 0
M  V30 2340 H 217.107 3.41923 -3.54047 0
M  V30 2341 N 218.759 1.29093 0.90403 0
M  V30 2342 C 220.036 1.075 1.63411 0
M  V30 2343 C 220.416 -0.382346 2.07609 0
M  V30 2344 O 219.764 -1.37031 1.82851 0
M  V30 2345 C 219.974 2.05858 2.81822 0
M  V30 2346 C 221.322 2.36539 3.52611 0
M  V30 2347 O 222.346 2.04019 2.91984 0
M  V30 2348 O 221.205 2.92085 4.61897 0
M  V30 2349 H 218.299 0.411547 0.717327 0
M  V30 2350 H 220.845 1.40449 0.952479 0
M  V30 2351 H 219.617 3.04037 2.46327 0
M  V30 2352 H 219.24 1.73613 3.57693 0
M  V30 2353 N 220.237 -1.11381 1.11499 0
M  V30 2354 C 221.167 -2.19509 0.796125 0
M  V30 2355 C 222.148 -1.68458 -0.235796 0
M  V30 2356 O 223.333 -1.93947 -0.0991344 0
M  V30 2357 C 220.463 -3.46475 0.239205 0
M  V30 2358 C 219.417 -4.10744 1.20307 0
M  V30 2359 C 218.743 -5.32293 0.50683 0
M  V30 2360 C 220.043 -4.55597 2.55399 0
M  V30 2361 H 221.737 -2.46439 1.70024 0
M  V30 2362 H 219.283 -1.18446 0.818935 0
M  V30 2363 H 221.236 -4.214 0.00392006 0
M  V30 2364 H 219.96 -3.19006 -0.700206 0
M  V30 2365 H 218.619 -3.37813 1.42399 0
M  V30 2366 H 218.267 -5.01095 -0.437408 0
M  V30 2367 H 217.967 -5.76243 1.1497 0
M  V30 2368 H 219.491 -6.09956 0.280351 0
M  V30 2369 H 220.905 -5.21841 2.37391 0
M  V30 2370 H 219.302 -5.10363 3.15673 0
M  V30 2371 H 220.372 -3.69013 3.14575 0
M  V30 2372 N 221.715 -0.905404 -1.28997 0
M  V30 2373 C 222.94 -0.549175 -1.99997 0
M  V30 2374 C 223.365 0.860276 -1.67275 0
M  V30 2375 O 222.723 1.57355 -0.900502 0
M  V30 2376 C 222.771 -0.755185 -3.52604 0
M  V30 2377 O 221.875 0.189692 -4.11964 0
M  V30 2378 H 221.216 -0.213899 -0.628604 0
M  V30 2379 H 223.746 -1.21856 -1.64354 0
M  V30 2380 H 223.756 -0.662045 -4.02593 0
M  V30 2381 H 222.431 -1.78271 -3.75755 0
M  V30 2382 H 221.008 0.0485257 -3.72868 0
M  V30 2383 N 223.193 1.4272 -0.668489 0
M  V30 2384 C 224.604 1.84793 -0.266151 0
M  V30 2385 C 224.955 1.55959 1.19043 0
M  V30 2386 O 224.08 1.01622 1.91055 0
M  V30 2387 C 224.675 3.35436 -0.476271 0
M  V30 2388 C 223.234 3.76182 -0.128113 0
M  V30 2389 C 222.381 2.66344 -0.771777 0
M  V30 2390 H 225.332 1.32656 -0.871098 0
M  V30 2391 H 225.353 3.79515 0.273561 0
M  V30 2392 H 224.865 3.5639 -1.53647 0
M  V30 2393 H 222.966 3.60836 0.928891 0
M  V30 2394 H 223.079 4.75766 -0.564231 0
M  V30 2395 H 221.443 2.53885 -0.203652 0
M  V30 2396 H 222.226 2.90123 -1.83531 0
M  V30 2397 N 224.671 0.411399 1.52136 0
M  V30 2398 C 225.581 -0.419774 2.30814 0
M  V30 2399 C 226.597 -1.0515 1.38634 0
M  V30 2400 O 227.773 -1.05252 1.71709 0
M  V30 2401 C 224.838 -1.52019 3.11594 0
M  V30 2402 C 223.899 -0.91129 4.19516 0
M  V30 2403 C 223.132 -1.95927 4.96436 0
M  V30 2404 O 223.355 -3.17775 4.73683 0
M  V30 2405 O 222.289 -1.56423 5.81219 0
M  V30 2406 H 226.115 0.221805 3.02889 0
M  V30 2407 H 223.7 0.174547 1.48377 0
M  V30 2408 H 225.582 -2.15898 3.61892 0
M  V30 2409 H 224.257 -2.14633 2.42311 0
M  V30 2410 H 223.164 -0.235157 3.7336 0
M  V30 2411 H 224.497 -0.32904 4.91099 0
M  V30 2412 N 226.149 -1.5696 0.141893 0
M  V30 2413 C 227.059 -2.20066 -0.812905 0
M  V30 2414 C 228.075 -1.18344 -1.27557 0
M  V30 2415 O 229.251 -1.50902 -1.33381 0
M  V30 2416 C 226.316 -2.80583 -2.03652 0
M  V30 2417 C 225.377 -3.97414 -1.62359 0
M  V30 2418 C 224.61 -4.55036 -2.78887 0
M  V30 2419 O 224.833 -4.11538 -3.94959 0
M  V30 2420 O 223.767 -5.45376 -2.54653 0
M  V30 2421 H 227.593 -3.02157 -0.305746 0
M  V30 2422 H 225.178 -1.49159 -0.0848799 0
M  V30 2423 H 227.06 -3.19067 -2.75272 0
M  V30 2424 H 225.735 -2.01508 -2.5333 0
M  V30 2425 H 224.642 -3.63656 -0.877775 0
M  V30 2426 H 225.975 -4.77994 -1.17401 0
M  V30 2427 N 227.627 0.131896 -1.57047 0
M  V30 2428 C 228.59 1.14638 -1.98471 0
M  V30 2429 C 229.59 1.35029 -0.873148 0
M  V30 2430 O 230.78 1.31764 -1.13946 0
M  V30 2431 C 227.912 2.50358 -2.31373 0
M  V30 2432 H 229.105 0.79064 -2.8929 0
M  V30 2433 H 226.658 0.375761 -1.51716 0
M  V30 2434 H 227.393 2.90876 -1.43393 0
M  V30 2435 H 227.178 2.36915 -3.12432 0
M  V30 2436 H 228.668 3.23395 -2.64207 0
M  V30 2437 N 229.106 1.52395 0.401703 0
M  V30 2438 C 230.016 1.7917 1.51444 0
M  V30 2439 C 231.032 0.677691 1.6026 0
M  V30 2440 O 232.208 0.963909 1.76835 0
M  V30 2441 C 229.273 1.94347 2.87107 0
M  V30 2442 C 228.334 3.18257 2.88116 0
M  V30 2443 C 227.567 3.32701 4.17308 0
M  V30 2444 O 227.79 2.52238 5.11598 0
M  V30 2445 O 226.724 4.25891 4.25324 0
M  V30 2446 H 230.55 2.73633 1.31752 0
M  V30 2447 H 228.135 1.3733 0.588296 0
M  V30 2448 H 230.017 2.06109 3.67555 0
M  V30 2449 H 228.692 1.03073 3.06851 0
M  V30 2450 H 227.599 3.11947 2.06494 0
M  V30 2451 H 228.932 4.09336 2.73322 0
M  V30 2452 N 230.584 -0.659388 1.43143 0
M  V30 2453 C 231.534 -1.7655 1.44271 0
M  V30 2454 C 232.518 -1.57847 0.311961 0
M  V30 2455 O 233.71 -1.68064 0.555306 0
M  V30 2456 C 230.839 -3.15104 1.36251 0
M  V30 2457 C 229.925 -3.39377 2.54331 0
M  V30 2458 N 230.316 -3.34153 3.79704 0
M  V30 2459 C 228.614 -3.70072 2.48922 0
M  V30 2460 C 229.315 -3.58337 4.58225 0
M  V30 2461 N 228.291 -3.79851 3.88863 0
M  V30 2462 H 232.093 -1.70928 2.39083 0
M  V30 2463 H 229.607 -0.860823 1.37708 0
M  V30 2464 H 231.604 -3.94389 1.35141 0
M  V30 2465 H 230.264 -3.21913 0.424531 0
M  V30 2466 H 231.275 -3.13704 4.1208 0
M  V30 2467 H 227.952 -3.84034 1.63781 0
M  V30 2468 H 229.342 -3.60129 5.67236 0
M  V30 2469 N 232.062 -1.29571 -0.897171 0
M  V30 2470 C 233.009 -1.14916 -2.00158 0
M  V30 2471 C 233.979 -0.0418149 -1.66047 0
M  V30 2472 O 235.164 -0.209793 -1.89643 0
M  V30 2473 C 232.304 -0.834307 -3.34863 0
M  V30 2474 C 231.417 -2.02234 -3.8174 0
M  V30 2475 C 230.552 -1.64664 -5.05034 0
M  V30 2476 C 229.591 -2.80033 -5.44286 0
M  V30 2477 N 228.728 -2.42843 -6.58765 0
M  V30 2478 H 233.568 -2.09403 -2.12025 0
M  V30 2479 H 231.105 -1.042 -1.0383 0
M  V30 2480 H 233.063 -0.632436 -4.12379 0
M  V30 2481 H 231.693 0.0736656 -3.22716 0
M  V30 2482 H 230.745 -2.33583 -3.00238 0
M  V30 2483 H 232.057 -2.88673 -4.06779 0
M  V30 2484 H 231.211 -1.4078 -5.9014 0
M  V30 2485 H 229.95 -0.753766 -4.8184 0
M  V30 2486 H 228.955 -3.04596 -4.57713 0
M  V30 2487 H 230.18 -3.69989 -5.6946 0
M  V30 2488 H 228.126 -1.56046 -6.3717 0
M  V30 2489 H 228.043 -3.22815 -6.83613 0
M  V30 2490 H 229.311 -2.22285 -7.47134 0
M  V30 2491 N 233.54 1.10788 -1.12088 0
M  V30 2492 C 234.45 2.20599 -0.798338 0
M  V30 2493 C 235.466 1.72712 0.21135 0
M  V30 2494 O 236.642 2.01348 0.0458477 0
M  V30 2495 C 233.707 3.45771 -0.253674 0
M  V30 2496 C 232.768 4.08411 -1.32283 0
M  V30 2497 C 232.001 5.27608 -0.80406 0
M  V30 2498 O 232.224 5.69241 0.363478 0
M  V30 2499 O 231.158 5.8101 -1.57198 0
M  V30 2500 H 234.984 2.50614 -1.7154 0
M  V30 2501 H 232.569 1.19454 -0.897275 0
M  V30 2502 H 234.451 4.21376 0.0453691 0
M  V30 2503 H 233.126 3.1739 0.636005 0
M  V30 2504 H 232.033 3.34507 -1.67499 0
M  V30 2505 H 233.366 4.40986 -2.18614 0
M  V30 2506 N 235.018 0.912232 1.28515 0
M  V30 2507 C 235.951 0.343928 2.25593 0
M  V30 2508 C 236.929 -0.550994 1.5298 0
M  V30 2509 O 238.113 -0.494991 1.81885 0
M  V30 2510 C 235.24 -0.508525 3.34861 0
M  V30 2511 C 234.286 0.320808 4.25292 0
M  V30 2512 S 235.119 1.72658 5.06902 0
M  V30 2513 C 236.275 0.881394 6.19663 0
M  V30 2514 H 236.508 1.16674 2.73449 0
M  V30 2515 H 234.041 0.713384 1.36931 0
M  V30 2516 H 235.999 -0.994539 3.9827 0
M  V30 2517 H 234.66 -1.30571 2.85675 0
M  V30 2518 H 233.853 -0.330941 5.02912 0
M  V30 2519 H 233.455 0.74042 3.66598 0
M  V30 2520 H 235.747 0.110359 6.7741 0
M  V30 2521 H 236.69 1.63009 6.89082 0
M  V30 2522 H 237.098 0.430239 5.62858 0
M  V30 2523 N 236.496 -1.42363 0.676048 0
M  V30 2524 C 237.406 -2.346 -0.00153389 0
M  V30 2525 C 238.422 -1.5516 -0.787485 0
M  V30 2526 O 239.598 -1.87723 -0.729521 0
M  V30 2527 C 236.663 -3.33705 -0.940298 0
M  V30 2528 C 235.724 -4.29042 -0.148739 0
M  V30 2529 C 234.957 -5.23413 -1.04279 0
M  V30 2530 O 235.18 -5.22749 -2.28232 0
M  V30 2531 O 234.114 -5.99795 -0.502925 0
M  V30 2532 H 237.94 -2.94082 0.758268 0
M  V30 2533 H 235.525 -1.42888 0.436289 0
M  V30 2534 H 237.407 -3.94586 -1.47917 0
M  V30 2535 H 236.082 -2.76695 -1.67993 0
M  V30 2536 H 234.989 -3.71571 0.43427 0
M  V30 2537 H 236.322 -4.89097 0.551805 0
M  V30 2538 N 237.974 -0.419461 -1.51915 0
M  V30 2539 C 239.199 0.154572 -2.06823 0
M  V30 2540 C 239.624 1.3722 -1.28656 0
M  V30 2541 O 238.982 1.78461 -0.319583 0
M  V30 2542 C 239.03 0.473172 -3.57482 0
M  V30 2543 O 238.134 1.56255 -3.81652 0
M  V30 2544 H 237.475 0.0096924 -0.663929 0
M  V30 2545 H 240.005 -0.595642 -1.95738 0
M  V30 2546 H 240.015 0.728825 -4.01438 0
M  V30 2547 H 238.69 -0.416873 -4.13805 0
M  V30 2548 H 237.267 1.29825 -3.49571 0
M  V30 2549 N 239.452 1.56882 -0.150215 0
M  V30 2550 C 240.692 1.98119 0.502804 0
M  V30 2551 C 241.056 1.03327 1.61826 0
M  V30 2552 O 242.257 1.33621 2.33236 0
M  V30 2553 C 240.528 3.43329 0.992988 0
M  V30 2554 S 242.087 4.0659 1.65015 0
M  V30 2555 H 238.905 0.692189 0.162467 0
M  V30 2556 H 241.507 1.93988 -0.242689 0
M  V30 2557 H 240.211 4.10046 0.170436 0
M  V30 2558 H 239.742 3.5118 1.77303 0
M  V30 2559 H 241.757 3.99906 2.93752 0
M  V30 2560 N 240.93 -0.123565 1.57115 0
M  V30 2561 C 242.158 -0.846461 1.88793 0
M  V30 2562 C 242.573 -1.73652 0.740976 0
M  V30 2563 O 241.93 -1.80207 -0.288393 0
M  V30 2564 C 241.981 -1.6837 3.19897 0
M  V30 2565 O 241.702 -0.829477 4.30176 0
M  V30 2566 C 243.203 -2.51214 3.65248 0
M  V30 2567 H 240.423 -0.243573 0.625231 0
M  V30 2568 H 242.967 -0.109324 2.04208 0
M  V30 2569 H 241.122 -2.37364 3.06165 0
M  V30 2570 H 241.536 -1.40651 5.0529 0
M  V30 2571 H 243.01 -3.05497 4.59756 0
M  V30 2572 H 243.487 -3.28359 2.9168 0
M  V30 2573 H 244.093 -1.8747 3.81752 0
M  V30 2574 N 242.408 -1.52605 -0.393616 0
M  V30 2575 C 243.633 -1.71592 -1.16495 0
M  V30 2576 C 244.058 -0.43133 -1.83088 0
M  V30 2577 O 243.416 0.612523 -1.7064 0
M  V30 2578 C 243.464 -2.86318 -2.19213 0
M  V30 2579 O 242.568 -2.52969 -3.257 0
M  V30 2580 H 241.909 -0.570734 -0.33935 0
M  V30 2581 H 244.439 -1.99377 -0.459324 0
M  V30 2582 H 244.449 -3.1168 -2.63286 0
M  V30 2583 H 243.124 -3.79511 -1.7013 0
M  V30 2584 H 241.701 -2.38332 -2.86797 0
M  V30 2585 N 243.887 0.651787 -1.4349 0
M  V30 2586 C 244.85 1.74647 -1.48429 0
M  V30 2587 C 245.85 1.56513 -0.368817 0
M  V30 2588 O 247.04 1.62385 -0.630623 0
M  V30 2589 C 244.172 3.13533 -1.33827 0
M  V30 2590 H 245.365 1.71649 -2.4592 0
M  V30 2591 H 242.918 0.863573 -1.30277 0
M  V30 2592 H 243.653 3.22142 -0.37349 0
M  V30 2593 H 243.438 3.28101 -2.14691 0
M  V30 2594 H 244.928 3.93356 -1.40218 0
M  V30 2595 N 245.365 1.30045 0.890287 0
M  V30 2596 C 246.328 1.15963 1.977 0
M  V30 2597 C 247.328 0.0923777 1.60534 0
M  V30 2598 O 248.518 0.340071 1.70848 0
M  V30 2599 C 245.65 0.775451 3.31963 0
M  V30 2600 H 246.843 2.12502 2.11619 0
M  V30 2601 H 244.396 1.13366 1.07601 0
M  V30 2602 H 245.131 -0.189671 3.23745 0
M  V30 2603 H 244.916 1.54668 3.60306 0
M  V30 2604 H 246.406 0.700251 4.11687 0
M  V30 2605 N 246.843 -1.10192 1.12674 0
M  V30 2606 C 247.753 -2.20172 0.810026 0
M  V30 2607 C 248.769 -1.72821 -0.202188 0
M  V30 2608 O 249.945 -2.01369 -0.0351691 0
M  V30 2609 C 247.01 -3.45631 0.272007 0
M  V30 2610 C 246.071 -4.07704 1.34447 0
M  V30 2611 C 245.304 -5.27175 0.832029 0
M  V30 2612 O 245.527 -5.69425 -0.333284 0
M  V30 2613 O 244.461 -5.80168 1.60277 0
M  V30 2614 H 248.287 -2.49701 1.72867 0
M  V30 2615 H 245.872 -1.18977 0.903597 0
M  V30 2616 H 247.754 -4.21394 -0.0230219 0
M  V30 2617 H 246.429 -3.17723 -0.619164 0
M  V30 2618 H 245.336 -3.33614 1.6927 0
M  V30 2619 H 246.669 -4.3982 2.2095 0
M  V30 2620 N 248.321 -0.919034 -1.28029 0
M  V30 2621 C 249.737 -0.617972 -1.4715 0
M  V30 2622 C 249.937 0.835242 -1.83374 0
M  V30 2623 O 248.993 1.61388 -1.94191 0
M  V30 2624 C 250.306 -1.56041 -2.57044 0
M  V30 2625 C 251.854 -1.56769 -2.7091 0
M  V30 2626 C 252.329 -2.49688 -3.83953 0
M  V30 2627 N 253.82 -2.47845 -3.91314 0
M  V30 2628 C 254.555 -3.16437 -4.78179 0
M  V30 2629 N 254.051 -3.94376 -5.69596 0
M  V30 2630 N 255.844 -3.05498 -4.71834 0
M  V30 2631 H 247.995 -1.85866 -1.02798 0
M  V30 2632 H 250.258 -0.797506 -0.512531 0
M  V30 2633 H 249.964 -2.59671 -2.372 0
M  V30 2634 H 249.838 -1.29551 -3.54255 0
M  V30 2635 H 252.225 -0.538745 -2.90141 0
M  V30 2636 H 252.306 -1.87305 -1.74214 0
M  V30 2637 H 251.95 -3.52688 -3.65477 0
M  V30 2638 H 251.88 -2.16453 -4.80058 0
M  V30 2639 H 254.371 -1.91234 -3.25941 0
M  V30 2640 H 254.684 -4.43721 -6.32718 0
M  V30 2641 H 253.029 -3.98481 -5.69419 0
M  V30 2642 H 256.22 -2.44108 -3.99411 0
M  V30 2643 H 256.393 -3.59225 -5.39316 0
M  V30 2644 N 249.799 1.42003 -0.683588 0
M  V30 2645 C 251.076 1.95112 -0.138075 0
M  V30 2646 C 251.456 1.62359 1.34918 0
M  V30 2647 O 250.804 0.924311 2.08971 0
M  V30 2648 C 251.014 3.46505 -0.416581 0
M  V30 2649 C 252.362 4.23254 -0.337834 0
M  V30 2650 O 253.386 3.54468 -0.35082 0
M  V30 2651 O 252.245 5.45743 -0.287596 0
M  V30 2652 H 249.339 0.826961 -0.00797996 0
M  V30 2653 H 251.885 1.51784 -0.758924 0
M  V30 2654 H 250.657 3.63582 -1.4465 0
M  V30 2655 H 250.28 3.969 0.235839 0
M  V30 2656 N 251.277 0.427512 1.51691 0
M  V30 2657 C 252.525 -0.141948 2.01601 0
M  V30 2658 C 252.846 -1.44067 1.31414 0
M  V30 2659 O 252.116 -1.90763 0.445658 0
M  V30 2660 H 250.696 -0.0554468 0.744939 0
M  V30 2661 H 253.358 0.567968 1.86441 0
M  V30 2662 H 252.454 -0.324913 3.10404 0
M  V30 2663 N 252.755 -1.56801 0.158532 0
M  V30 2664 C 253.98 -2.01295 -0.499516 0
M  V30 2665 C 254.405 -1.03799 -1.56867 0
M  V30 2666 O 253.763 -0.0155162 -1.81293 0
M  V30 2667 C 253.811 -3.44469 -1.06647 0
M  V30 2668 O 252.915 -3.50012 -2.18095 0
M  V30 2669 H 252.256 -0.652884 -0.12099 0
M  V30 2670 H 254.786 -2.02958 0.258661 0
M  V30 2671 H 254.796 -3.8351 -1.39227 0
M  V30 2672 H 253.471 -4.14932 -0.283581 0
M  V30 2673 H 252.048 -3.22822 -1.86656 0
M  V30 2674 N 254.233 0.115231 -1.57178 0
M  V30 2675 C 255.481 0.820727 -1.84685 0
M  V30 2676 C 255.802 1.80237 -0.744279 0
M  V30 2677 O 255.072 1.94529 0.231375 0
M  V30 2678 H 253.652 0.306084 -0.681411 0
M  V30 2679 H 256.314 0.101656 -1.94635 0
M  V30 2680 H 255.41 1.36366 -2.80733 0
M  V30 2681 N 255.711 1.52812 0.385517 0
M  V30 2682 C 256.939 1.71907 1.15133 0
M  V30 2683 C 257.354 0.439004 1.83625 0
M  V30 2684 O 256.711 -0.586765 1.7281 0
M  V30 2685 C 256.762 2.87099 2.19673 0
M  V30 2686 O 256.483 4.10151 1.53973 0
M  V30 2687 C 257.984 3.17902 3.08955 0
M  V30 2688 H 255.204 0.575479 0.345057 0
M  V30 2689 H 257.748 1.99476 0.45052 0
M  V30 2690 H 255.903 2.61982 2.85384 0
M  V30 2691 H 256.317 4.74514 2.23465 0
M  V30 2692 H 257.791 4.01959 3.7833 0
M  V30 2693 H 258.268 2.3243 3.72657 0
M  V30 2694 H 258.874 3.44871 2.48885 0
M  V30 2695 N 257.189 -0.644168 1.43834 0
M  V30 2696 C 258.137 -1.77793 1.49974 0
M  V30 2697 C 259.131 -1.65253 0.372536 0
M  V30 2698 O 260.337 -1.7149 0.546924 0
M  V30 2699 H 256.712 -0.58675 0.47035 0
M  V30 2700 H 258.683 -1.69736 2.45423 0
M  V30 2701 C 257.432 -3.16087 1.4486 0
M  V30 2702 H 256.755 -3.26378 2.30905 0
M  V30 2703 H 258.195 -3.95349 1.53217 0
M  V30 2704 C 256.654 -3.36484 0.167463 0
M  V30 2705 O 257.184 -3.94298 -0.767609 0
M  V30 2706 N 255.39 -2.90504 0.0747556 0
M  V30 2707 H 254.937 -2.4364 0.836507 0
M  V30 2708 H 254.895 -3.04527 -0.781714 0
M  V30 2709 N 258.668 -1.30515 -0.883378 0
M  V30 2710 C 259.615 -1.17032 -1.98927 0
M  V30 2711 C 260.585 -0.0594241 -1.65994 0
M  V30 2712 O 261.77 -0.229895 -1.8941 0
M  V30 2713 C 258.91 -0.869777 -3.33959 0
M  V30 2714 C 258.023 -2.06271 -3.79574 0
M  V30 2715 C 257.158 -1.70011 -5.03259 0
M  V30 2716 C 256.197 -2.8579 -5.41286 0
M  V30 2717 N 255.334 -2.49816 -6.56153 0
M  V30 2718 H 260.174 -2.1164 -2.09792 0
M  V30 2719 H 257.711 -1.05296 -1.02719 0
M  V30 2720 H 259.669 -0.676138 -4.11685 0
M  V30 2721 H 258.299 0.0394332 -3.22776 0
M  V30 2722 H 257.351 -2.36755 -2.97744 0
M  V30 2723 H 258.663 -2.92971 -4.03694 0
M  V30 2724 H 257.817 -1.47032 -5.88614 0
M  V30 2725 H 256.556 -0.804829 -4.81013 0
M  V30 2726 H 255.561 -3.09434 -4.54456 0
M  V30 2727 H 256.786 -3.76008 -5.65504 0
M  V30 2728 H 254.732 -1.62795 -6.35479 0
M  V30 2729 H 254.649 -3.30048 -6.8015 0
M  V30 2730 H 255.917 -2.30197 -7.44735 0
M  V30 2731 N 260.146 1.09593 -1.13257 0
M  V30 2732 C 261.562 1.33775 -0.870423 0
M  V30 2733 C 261.762 1.95327 0.494926 0
M  V30 2734 O 260.818 2.19853 1.2418 0
M  V30 2735 C 262.131 2.25106 -1.99369 0
M  V30 2736 C 263.679 2.3862 -2.02558 0
M  V30 2737 C 264.154 3.33285 -3.14142 0
M  V30 2738 N 265.645 3.40857 -3.13641 0
M  V30 2739 C 266.38 4.14101 -3.96621 0
M  V30 2740 N 265.876 4.90157 -4.8961 0
M  V30 2741 N 267.669 4.09808 -3.84726 0
M  V30 2742 H 259.82 0.680136 -2.01216 0
M  V30 2743 H 262.083 0.362133 -0.876107 0
M  V30 2744 H 261.789 1.87103 -2.97801 0
M  V30 2745 H 261.663 3.25481 -1.90635 0
M  V30 2746 H 264.05 2.75887 -1.0474 0
M  V30 2747 H 264.131 1.38028 -2.15364 0
M  V30 2748 H 263.775 2.96741 -4.12198 0
M  V30 2749 H 263.705 4.33776 -2.98574 0
M  V30 2750 H 266.196 2.86624 -2.46282 0
M  V30 2751 H 266.509 5.4347 -5.49418 0
M  V30 2752 H 264.854 4.89251 -4.93617 0
M  V30 2753 H 268.045 3.4949 -3.11408 0
M  V30 2754 H 268.218 4.66629 -4.49623 0
M  V30 2755 N 261.624 0.925811 1.2754 0
M  V30 2756 C 262.901 0.483726 1.89524 0
M  V30 2757 C 263.281 -1.03809 1.83812 0
M  V30 2758 O 262.629 -1.89143 1.28207 0
M  V30 2759 C 262.839 1.02769 3.33526 0
M  V30 2760 C 264.187 1.08703 4.10449 0
M  V30 2761 O 265.211 0.977175 3.42534 0
M  V30 2762 O 264.07 1.25599 5.31871 0
M  V30 2763 H 261.164 0.15529 0.812289 0
M  V30 2764 H 263.71 1.01738 1.35822 0
M  V30 2765 H 262.482 2.07155 3.31967 0
M  V30 2766 H 262.105 0.475567 3.94746 0
M  V30 2767 N 263.102 -1.41638 0.69111 0
M  V30 2768 C 264.049 -2.30789 0.0229705 0
M  V30 2769 C 265.019 -1.46863 -0.775911 0
M  V30 2770 O 266.204 -1.75661 -0.74485 0
M  V30 2771 C 263.344 -3.32868 -0.910666 0
M  V30 2772 C 262.457 -4.31875 -0.103874 0
M  V30 2773 C 261.592 -5.21024 -1.03475 0
M  V30 2774 C 260.631 -6.11702 -0.220598 0
M  V30 2775 N 259.768 -6.93349 -1.10504 0
M  V30 2776 H 264.608 -2.87366 0.788978 0
M  V30 2777 H 262.145 -1.41535 0.400794 0
M  V30 2778 H 264.103 -3.90596 -1.46597 0
M  V30 2779 H 262.733 -2.77851 -1.64312 0
M  V30 2780 H 261.785 -3.76131 0.568285 0
M  V30 2781 H 263.097 -4.96003 0.527504 0
M  V30 2782 H 262.251 -5.83565 -1.65943 0
M  V30 2783 H 260.99 -4.57112 -1.69999 0
M  V30 2784 H 259.995 -5.48215 0.417187 0
M  V30 2785 H 261.22 -6.77668 0.440784 0
M  V30 2786 H 259.166 -6.3205 -1.75638 0
M  V30 2787 H 259.083 -7.54146 -0.529125 0
M  V30 2788 H 260.351 -7.60362 -1.71667 0
M  V30 2789 N 264.58 -0.43555 -1.51462 0
M  V30 2790 C 265.512 0.41257 -2.25456 0
M  V30 2791 C 266.525 0.987822 -1.29406 0
M  V30 2792 O 267.714 0.882266 -1.55172 0
M  V30 2793 C 264.814 1.58894 -2.99342 0
M  V30 2794 C 263.987 1.13288 -4.22474 0
M  V30 2795 C 263.046 2.17917 -4.78956 0
M  V30 2796 O 262.072 1.77425 -5.40841 0
M  V30 2797 N 263.274 3.50382 -4.62832 0
M  V30 2798 H 266.039 -0.221603 -2.9888 0
M  V30 2799 H 263.6 -0.264342 -1.59727 0
M  V30 2800 H 265.592 2.28508 -3.34015 0
M  V30 2801 H 264.162 2.12849 -2.28941 0
M  V30 2802 H 263.382 0.263881 -3.93316 0
M  V30 2803 H 264.67 0.805542 -5.02383 0
M  V30 2804 H 264.068 3.86013 -4.13534 0
M  V30 2805 H 262.625 4.15895 -5.01871 0
M  V30 2806 N 266.058 1.56714 -0.166846 0
M  V30 2807 C 267.288 2.00828 0.48494 0
M  V30 2808 C 267.696 1.04612 1.57648 0
M  V30 2809 O 267.039 0.0383201 1.8366 0
M  V30 2810 C 267.101 3.4137 1.12723 0
M  V30 2811 C 266.765 4.56654 0.177886 0
M  V30 2812 C 267.762 5.16402 -0.60207 0
M  V30 2813 C 265.447 5.02244 0.0750139 0
M  V30 2814 C 267.441 6.20167 -1.47215 0
M  V30 2815 C 265.128 6.05859 -0.798649 0
M  V30 2816 C 266.126 6.64691 -1.57082 0
M  V30 2817 O 265.814 7.66297 -2.42989 0
M  V30 2818 H 265.546 0.663587 0.128953 0
M  V30 2819 H 268.1 2.03692 -0.264365 0
M  V30 2820 H 266.33 3.35406 1.92457 0
M  V30 2821 H 268.019 3.69466 1.68076 0
M  V30 2822 H 268.785 4.82065 -0.53274 0
M  V30 2823 H 264.664 4.56167 0.665812 0
M  V30 2824 H 268.208 6.66016 -2.07531 0
M  V30 2825 H 264.105 6.39621 -0.869199 0
M  V30 2826 H 264.873 7.83601 -2.36455 0
M  V30 2827 N 267.536 -0.106894 1.57237 0
M  V30 2828 C 268.468 -1.15646 1.97885 0
M  V30 2829 C 269.481 -1.36981 0.879779 0
M  V30 2830 O 270.67 -1.35841 1.15799 0
M  V30 2831 C 267.77 -2.51425 2.27241 0
M  V30 2832 C 266.943 -2.50529 3.58545 0
M  V30 2833 C 266.002 -3.68145 3.75973 0
M  V30 2834 O 265.028 -3.51176 4.47956 0
M  V30 2835 N 266.23 -4.87177 3.15656 0
M  V30 2836 H 268.995 -0.81059 2.8853 0
M  V30 2837 H 266.556 -0.296024 1.59171 0
M  V30 2838 H 268.548 -3.28689 2.36105 0
M  V30 2839 H 267.118 -2.78147 1.42663 0
M  V30 2840 H 266.338 -1.58894 3.60758 0
M  V30 2841 H 267.626 -2.46997 4.44826 0
M  V30 2842 H 267.024 -5.03868 2.57165 0
M  V30 2843 H 265.581 -5.62075 3.30023 0
M  V30 2844 N 269.014 -1.53014 -0.377408 0
M  V30 2845 C 269.977 -1.77957 -1.44444 0
M  V30 2846 C 270.977 -0.649763 -1.47087 0
M  V30 2847 O 272.167 -0.917897 -1.48055 0
M  V30 2848 C 269.299 -1.89089 -2.83651 0
M  V30 2849 H 270.492 -2.73243 -1.23606 0
M  V30 2850 H 268.045 -1.43912 -0.609844 0
M  V30 2851 H 268.78 -0.958293 -3.09818 0
M  V30 2852 H 268.565 -2.71254 -2.83132 0
M  V30 2853 H 270.055 -2.1002 -3.60945 0
M  V30 2854 N 270.492 0.636531 -1.44174 0
M  V30 2855 C 271.442 1.74233 -1.47061 0
M  V30 2856 C 272.426 1.57331 -0.337034 0
M  V30 2857 O 273.618 1.67159 -0.581973 0
M  V30 2858 C 270.747 3.12897 -1.41246 0
M  V30 2859 C 269.833 3.35288 -2.59698 0
M  V30 2860 N 270.224 3.2807 -3.84972 0
M  V30 2861 C 268.522 3.66065 -2.54778 0
M  V30 2862 C 269.223 3.51001 -4.63867 0
M  V30 2863 N 268.199 3.73616 -3.94857 0
M  V30 2864 H 272.001 1.67103 -2.41773 0
M  V30 2865 H 269.515 0.838806 -1.3906 0
M  V30 2866 H 271.512 3.92189 -1.41398 0
M  V30 2867 H 270.172 3.21197 -0.47569 0
M  V30 2868 H 271.183 3.07109 -4.17019 0
M  V30 2869 H 267.86 3.81379 -1.6987 0
M  V30 2870 H 269.25 3.51059 -5.72894 0
M  V30 2871 N 271.97 1.30982 0.876444 0
M  V30 2872 C 273.386 1.09498 1.16113 0
M  V30 2873 C 273.586 -0.13875 2.01022 0
M  V30 2874 O 272.642 -0.829935 2.38471 0
M  V30 2875 C 273.955 2.36308 1.85954 0
M  V30 2876 C 275.503 2.41856 1.98683 0
M  V30 2877 C 275.978 3.6853 2.71937 0
M  V30 2878 N 277.469 3.69387 2.79477 0
M  V30 2879 C 278.204 4.64096 3.36753 0
M  V30 2880 N 277.7 5.69155 3.95012 0
M  V30 2881 N 279.493 4.51626 3.3465 0
M  V30 2882 H 271.644 2.10118 0.310494 0
M  V30 2883 H 273.907 0.926634 0.200131 0
M  V30 2884 H 273.613 3.26388 1.31011 0
M  V30 2885 H 273.487 2.4561 2.86278 0
M  V30 2886 H 275.874 1.52249 2.52793 0
M  V30 2887 H 275.955 2.36523 0.9742 0
M  V30 2888 H 275.599 4.58499 2.18496 0
M  V30 2889 H 275.529 3.71127 3.73593 0
M  V30 2890 H 278.02 2.93438 2.38123 0
M  V30 2891 H 278.333 6.3751 4.36808 0
M  V30 2892 H 276.678 5.72937 3.93406 0
M  V30 2893 H 279.869 3.68728 2.8837 0
M  V30 2894 H 280.042 5.25614 3.7899 0
M  V30 2895 N 273.449 -1.08991 1.13837 0
M  V30 2896 C 274.412 -2.13925 0.822715 0
M  V30 2897 C 275.412 -1.599 -0.1699 0
M  V30 2898 O 276.602 -1.74104 0.0577251 0
M  V30 2899 C 273.734 -3.40155 0.225318 0
M  V30 2900 H 274.927 -2.43358 1.75262 0
M  V30 2901 H 272.48 -1.24603 0.943594 0
M  V30 2902 H 273.215 -3.16352 -0.713594 0
M  V30 2903 H 273 -3.80661 0.940193 0
M  V30 2904 H 274.49 -4.17594 0.0214784 0
M  V30 2905 N 274.927 -0.932562 -1.27047 0
M  V30 2906 C 276.174 -0.575559 -1.94148 0
M  V30 2907 C 276.502 0.883984 -1.73251 0
M  V30 2908 O 275.757 1.64655 -1.0577 0
M  V30 2909 C 276.056 -0.853713 -3.47054 0
M  V30 2910 C 275.722 -2.29577 -3.88079 0
M  V30 2911 C 274.384 -2.68999 -3.9899 0
M  V30 2912 C 276.736 -3.23331 -4.08787 0
M  V30 2913 C 274.064 -4.01289 -4.28 0
M  V30 2914 C 276.416 -4.55207 -4.39282 0
M  V30 2915 C 275.08 -4.94457 -4.48407 0
M  V30 2916 H 274.35 -0.210612 -0.710439 0
M  V30 2917 H 276.997 -1.17744 -1.51025 0
M  V30 2918 H 275.302 -0.169204 -3.91434 0
M  V30 2919 H 276.999 -0.55639 -3.97121 0
M  V30 2920 H 273.589 -1.97994 -3.80127 0
M  V30 2921 H 277.773 -2.94074 -3.99793 0
M  V30 2922 H 273.029 -4.31374 -4.33275 0
M  V30 2923 H 277.203 -5.27852 -4.54252 0
M  V30 2924 H 274.83 -5.96994 -4.7064 0
M  V30 2925 N 276.405 1.4127 -0.698611 0
M  V30 2926 C 277.653 2.00782 -0.230409 0
M  V30 2927 C 277.974 1.5562 1.17505 0
M  V30 2928 O 277.244 0.78815 1.79346 0
M  V30 2929 H 275.824 0.742464 -0.0821944 0
M  V30 2930 H 278.486 1.72852 -0.90045 0
M  V30 2931 H 277.582 3.11095 -0.25021 0
M  V30 2932 N 277.883 0.443576 1.51229 0
M  V30 2933 C 279.16 -0.181038 1.9476 0
M  V30 2934 C 279.54 -1.59523 1.38259 0
M  V30 2935 O 278.888 -2.2122 0.572198 0
M  V30 2936 C 279.098 -0.152422 3.48667 0
M  V30 2937 C 280.446 -0.354923 4.23114 0
M  V30 2938 O 281.47 -0.230257 3.55455 0
M  V30 2939 O 280.329 -0.603674 5.43156 0
M  V30 2940 H 277.423 -0.1266 0.817252 0
M  V30 2941 H 279.969 0.502004 1.62105 0
M  V30 2942 H 278.741 0.836022 3.82265 0
M  V30 2943 H 278.364 -0.878107 3.87782 0
M  V30 2944 N 279.361 -1.56624 0.175154 0
M  V30 2945 C 280.777 -1.58571 -0.180966 0
M  V30 2946 C 280.977 -1.19065 -1.6256 0
M  V30 2947 O 280.033 -0.904044 -2.35761 0
M  V30 2948 C 281.346 -3.00522 0.103326 0
M  V30 2949 C 282.894 -3.12972 0.0418426 0
M  V30 2950 C 283.369 -4.57022 0.299175 0
M  V30 2951 N 284.86 -4.62541 0.247086 0
M  V30 2952 C 285.595 -5.71857 0.420318 0
M  V30 2953 N 285.091 -6.89717 0.652816 0
M  V30 2954 N 286.884 -5.60972 0.355957 0
M  V30 2955 H 279.035 -1.80589 1.11809 0
M  V30 2956 H 281.298 -0.837178 0.444788 0
M  V30 2957 H 281.004 -3.33916 1.10422 0
M  V30 2958 H 280.878 -3.72344 -0.603299 0
M  V30 2959 H 283.265 -2.79403 -0.949636 0
M  V30 2960 H 283.346 -2.43578 0.781238 0
M  V30 2961 H 282.99 -4.913 1.28788 0
M  V30 2962 H 282.92 -5.24579 -0.460876 0
M  V30 2963 H 285.411 -3.77829 0.0731895 0
M  V30 2964 H 285.724 -7.68911 0.774347 0
M  V30 2965 H 284.069 -6.91572 0.689476 0
M  V30 2966 H 287.26 -4.67773 0.174882 0
M  V30 2967 H 287.433 -6.46111 0.494388 0
M  V30 2968 N 280.839 0.0985539 -1.57292 0
M  V30 2969 C 282.255 0.45267 -1.53046 0
M  V30 2970 C 282.455 1.80713 -0.891342 0
M  V30 2971 O 281.511 2.4785 -0.482375 0
M  V30 2972 C 282.824 0.418341 -2.97776 0
M  V30 2973 C 284.372 0.500443 -3.08973 0
M  V30 2974 C 284.847 0.496297 -4.55303 0
M  V30 2975 N 286.338 0.557151 -4.59837 0
M  V30 2976 C 287.073 0.575726 -5.70502 0
M  V30 2977 N 286.569 0.550714 -6.90608 0
M  V30 2978 N 288.362 0.620277 -5.58667 0
M  V30 2979 H 280.513 -0.788673 -1.97215 0
M  V30 2980 H 282.776 -0.293188 -0.901524 0
M  V30 2981 H 282.482 -0.509659 -3.47988 0
M  V30 2982 H 282.356 1.2386 -3.56284 0
M  V30 2983 H 284.743 1.41886 -2.58751 0
M  V30 2984 H 284.824 -0.347894 -2.53423 0
M  V30 2985 H 284.468 -0.418162 -5.06176 0
M  V30 2986 H 284.398 1.3618 -5.08687 0
M  V30 2987 H 286.889 0.581816 -3.73394 0
M  V30 2988 H 287.202 0.568075 -7.70709 0
M  V30 2989 H 285.547 0.517816 -6.93068 0
M  V30 2990 H 288.738 0.637322 -4.63741 0
M  V30 2991 H 288.911 0.631283 -6.44918 0
M  V30 2992 N 282.317 1.53212 0.369288 0
M  V30 2993 C 283.265 1.80054 1.47253 0
M  V30 2994 C 284.259 0.669456 1.55611 0
M  V30 2995 O 285.465 0.852328 1.58541 0
M  V30 2996 H 281.84 0.570034 0.490475 0
M  V30 2997 H 283.811 2.72403 1.21817 0
M  V30 2998 C 282.56 2.00403 2.84137 0
M  V30 2999 H 281.883 2.86876 2.78464 0
M  V30 3000 H 283.323 2.23164 3.60519 0
M  V30 3001 C 281.782 0.782081 3.27697 0
M  V30 3002 O 282.312 -0.0310205 4.01688 0
M  V30 3003 N 280.518 0.606573 2.84199 0
M  V30 3004 H 280.065 1.26939 2.24152 0
M  V30 3005 H 280.023 -0.20962 3.137 0
M  V30 3006 N 283.795 -0.628877 1.44509 0
M  V30 3007 C 285.043 -1.38565 1.4712 0
M  V30 3008 C 285.364 -1.94712 0.105899 0
M  V30 3009 O 284.634 -1.75912 -0.862079 0
M  V30 3010 H 283.214 -0.514333 0.541729 0
M  V30 3011 H 285.876 -0.740018 1.80305 0
M  V30 3012 H 284.972 -2.21583 2.19789 0
M  V30 3013 N 285.273 -1.31445 -0.869486 0
M  V30 3014 C 286.519 -1.21337 -1.62496 0
M  V30 3015 C 286.852 0.227872 -1.92858 0
M  V30 3016 O 286.127 1.16094 -1.56053 0
M  V30 3017 C 286.41 -2.05814 -2.95487 0
M  V30 3018 C 286.263 -3.5824 -2.72 0
M  V30 3019 C 287.582 -1.9079 -3.96594 0
M  V30 3020 H 284.701 -0.442135 -0.589649 0
M  V30 3021 H 287.343 -1.6124 -1.00507 0
M  V30 3022 H 285.493 -1.71913 -3.48394 0
M  V30 3023 H 287.165 -4.0228 -2.25762 0
M  V30 3024 H 285.408 -3.81647 -2.06224 0
M  V30 3025 H 286.079 -4.12657 -3.66631 0
M  V30 3026 H 288.555 -2.20459 -3.52898 0
M  V30 3027 H 287.431 -2.52199 -4.87531 0
M  V30 3028 H 287.692 -0.871341 -4.33428 0
M  V30 3029 N 286.751 1.08385 -1.14413 0
M  V30 3030 C 288 1.80153 -0.907076 0
M  V30 3031 C 288.313 1.87176 0.567851 0
M  V30 3032 O 289.519 2.55359 0.922172 0
M  V30 3033 C 287.975 3.23687 -1.57336 0
M  V30 3034 C 287.583 3.24897 -3.08457 0
M  V30 3035 C 289.327 4.00136 -1.41744 0
M  V30 3036 C 287.234 4.6302 -3.67921 0
M  V30 3037 H 286.164 0.675139 -0.335714 0
M  V30 3038 H 288.815 1.21733 -1.37307 0
M  V30 3039 H 287.197 3.82234 -1.03505 0
M  V30 3040 H 288.371 2.76055 -3.68958 0
M  V30 3041 H 286.686 2.61943 -3.2369 0
M  V30 3042 H 289.283 5.02201 -1.83572 0
M  V30 3043 H 289.626 4.14709 -0.363576 0
M  V30 3044 H 290.159 3.48058 -1.92614 0
M  V30 3045 H 286.898 4.5365 -4.73161 0
M  V30 3046 H 286.418 5.12143 -3.12201 0
M  V30 3047 H 288.097 5.31994 -3.68227 0
M  V30 3048 N 288.23 0.939286 1.26551 0
M  V30 3049 C 289.455 0.602008 1.98471 0
M  V30 3050 C 289.88 -0.815624 1.69497 0
M  V30 3051 O 289.238 -1.54912 0.941905 0
M  V30 3052 C 289.286 0.848407 3.50477 0
M  V30 3053 O 288.39 -0.0804009 4.12322 0
M  V30 3054 H 287.731 0.23049 0.622712 0
M  V30 3055 H 290.261 1.2617 1.61066 0
M  V30 3056 H 290.271 0.768553 4.00696 0
M  V30 3057 H 288.946 1.88171 3.70897 0
M  V30 3058 H 287.523 0.0503508 3.72866 0
M  V30 3059 N 289.708 -1.40897 0.706093 0
M  V30 3060 C 290.671 -2.29131 0.0562841 0
M  V30 3061 C 291.671 -1.44901 -0.697166 0
M  V30 3062 O 292.861 -1.65926 -0.530484 0
M  V30 3063 C 289.993 -3.27957 -0.93043 0
M  V30 3064 H 291.186 -2.88091 0.833284 0
M  V30 3065 H 288.739 -1.4906 0.470192 0
M  V30 3066 H 289.474 -2.73997 -1.73482 0
M  V30 3067 H 289.259 -3.90124 -0.393166 0
M  V30 3068 H 290.749 -3.94049 -1.38256 0
M  V30 3069 N 291.186 -0.45159 -1.50991 0
M  V30 3070 C 292.602 -0.104647 -1.59257 0
M  V30 3071 C 292.802 1.38728 -1.4614 0
M  V30 3072 O 291.858 2.15866 -1.30989 0
M  V30 3073 C 293.171 -0.637468 -2.93865 0
M  V30 3074 C 294.719 -0.599166 -3.07212 0
M  V30 3075 C 295.194 -1.1092 -4.44366 0
M  V30 3076 N 296.685 -1.06778 -4.50725 0
M  V30 3077 C 297.42 -1.43314 -5.55201 0
M  V30 3078 N 296.916 -1.87204 -6.67028 0
M  V30 3079 N 298.709 -1.3504 -5.45638 0
M  V30 3080 H 290.86 -1.42214 -1.57762 0
M  V30 3081 H 293.123 -0.586921 -0.744465 0
M  V30 3082 H 292.829 -1.68187 -3.08879 0
M  V30 3083 H 292.703 -0.0702139 -3.77135 0
M  V30 3084 H 295.09 0.436277 -2.91857 0
M  V30 3085 H 295.171 -1.20299 -2.25747 0
M  V30 3086 H 294.815 -2.14318 -4.60467 0
M  V30 3087 H 294.745 -0.481773 -5.24392 0
M  V30 3088 H 297.236 -0.745643 -3.70471 0
M  V30 3089 H 297.549 -2.13282 -7.42786 0
M  V30 3090 H 295.894 -1.91142 -6.68199 0
M  V30 3091 H 299.085 -1.00607 -4.57161 0
M  V30 3092 H 299.258 -1.63841 -6.26945 0
M  V30 3093 N 292.664 1.56529 -0.183458 0
M  V30 3094 C 293.892 2.01623 0.464285 0
M  V30 3095 C 294.307 1.06366 1.55986 0
M  V30 3096 O 293.664 0.0665398 1.82379 0
M  V30 3097 C 293.715 3.46475 1.03139 0
M  V30 3098 O 293.436 4.38095 -0.0204675 0
M  V30 3099 C 294.937 4.0703 1.75617 0
M  V30 3100 H 292.157 0.660596 0.117704 0
M  V30 3101 H 294.701 2.02451 -0.288751 0
M  V30 3102 H 292.856 3.46383 1.73486 0
M  V30 3103 H 293.27 5.22973 0.399952 0
M  V30 3104 H 294.744 5.10271 2.10542 0
M  V30 3105 H 295.221 3.49819 2.65563 0
M  V30 3106 H 295.827 4.1086 1.09882 0
M  V30 3107 N 294.142 -0.090211 1.57342 0
M  V30 3108 C 295.372 -0.805055 1.90269 0
M  V30 3109 C 295.78 -1.72561 0.775842 0
M  V30 3110 O 295.123 -1.81839 -0.260843 0
M  V30 3111 C 295.185 -1.66734 3.18497 0
M  V30 3112 C 294.849 -0.918092 4.47683 0
M  V30 3113 C 295.846 -0.245674 5.19319 0
M  V30 3114 C 293.531 -0.890724 4.94339 0
M  V30 3115 C 295.525 0.444088 6.35851 0
M  V30 3116 C 293.212 -0.197179 6.10782 0
M  V30 3117 C 294.21 0.469044 6.81388 0
M  V30 3118 O 293.898 1.15146 7.95611 0
M  V30 3119 H 293.63 -0.235143 0.633785 0
M  V30 3120 H 296.184 -0.0703805 2.05279 0
M  V30 3121 H 294.414 -2.44437 2.99646 0
M  V30 3122 H 296.103 -2.25919 3.37217 0
M  V30 3123 H 296.869 -0.258246 4.84312 0
M  V30 3124 H 292.748 -1.39873 4.39268 0
M  V30 3125 H 296.292 0.964667 6.90898 0
M  V30 3126 H 292.189 -0.18247 6.45242 0
M  V30 3127 H 292.957 1.05885 8.11622 0
M  V30 3128 N 295.62 -1.53406 -0.361157 0
M  V30 3129 C 296.867 -1.69802 -1.10333 0
M  V30 3130 C 297.195 -0.452087 -1.89173 0
M  V30 3131 O 296.45 0.566017 -1.87336 0
M  V30 3132 C 296.749 -2.90211 -2.08596 0
M  V30 3133 C 296.415 -4.26539 -1.46203 0
M  V30 3134 C 295.077 -4.6361 -1.28915 0
M  V30 3135 C 297.429 -5.113 -1.01101 0
M  V30 3136 C 294.757 -5.83075 -0.651157 0
M  V30 3137 C 297.109 -6.31415 -0.387007 0
M  V30 3138 C 295.773 -6.67195 -0.201657 0
M  V30 3139 H 295.043 -0.621351 -0.403737 0
M  V30 3140 H 297.69 -1.87598 -0.384609 0
M  V30 3141 H 295.995 -2.66946 -2.86788 0
M  V30 3142 H 297.692 -3.00091 -2.65982 0
M  V30 3143 H 294.282 -3.97352 -1.60653 0
M  V30 3144 H 298.466 -4.83206 -1.13249 0
M  V30 3145 H 293.722 -6.09385 -0.496006 0
M  V30 3146 H 297.896 -6.96394 -0.0293563 0
M  V30 3147 H 295.523 -7.59628 0.294766 0
M  V30 3148 N 297.098 0.621204 -1.44841 0
M  V30 3149 C 298.328 1.40548 -1.51426 0
M  V30 3150 C 298.736 1.88673 -0.141083 0
M  V30 3151 O 298.079 1.62053 0.865128 0
M  V30 3152 C 298.141 2.65325 -2.42576 0
M  V30 3153 C 297.805 2.3893 -3.89566 0
M  V30 3154 C 298.802 2.00138 -4.79834 0
M  V30 3155 C 296.487 2.52263 -4.3436 0
M  V30 3156 C 298.481 1.75021 -6.129 0
M  V30 3157 C 296.168 2.2676 -5.67471 0
M  V30 3158 C 297.166 1.88199 -6.56559 0
M  V30 3159 O 296.854 1.62986 -7.87204 0
M  V30 3160 H 296.586 0.437122 -0.515655 0
M  V30 3161 H 299.14 0.765987 -1.90583 0
M  V30 3162 H 297.37 3.31947 -1.98364 0
M  V30 3163 H 299.059 3.27347 -2.39998 0
M  V30 3164 H 299.825 1.89386 -4.46495 0
M  V30 3165 H 295.704 2.81246 -3.65269 0
M  V30 3166 H 299.248 1.44848 -6.82396 0
M  V30 3167 H 295.145 2.37125 -6.00368 0
M  V30 3168 H 295.913 1.7715 -7.991 0
M  V30 3169 N 298.576 1.31904 0.862503 0
M  V30 3170 C 299.539 1.20131 1.95195 0
M  V30 3171 C 300.539 0.126409 1.60302 0
M  V30 3172 O 301.729 0.376234 1.70089 0
M  V30 3173 C 298.861 0.845691 3.30244 0
M  V30 3174 H 300.054 2.16943 2.07064 0
M  V30 3175 H 297.607 1.15622 1.05172 0
M  V30 3176 H 298.342 -0.120957 3.24074 0
M  V30 3177 H 298.127 1.62276 3.56944 0
M  V30 3178 H 299.617 0.787418 4.10109 0
M  V30 3179 N 300.054 -1.07777 1.14986 0
M  V30 3180 C 301.002 -2.16964 0.838406 0
M  V30 3181 C 301.996 -1.68372 -0.186386 0
M  V30 3182 O 303.202 -1.79951 -0.0418465 0
M  V30 3183 H 299.577 -0.708006 0.253439 0
M  V30 3184 H 301.548 -2.40454 1.76704 0
M  V30 3185 C 300.297 -3.4604 0.339335 0
M  V30 3186 H 299.62 -3.83813 1.11927 0
M  V30 3187 H 301.06 -4.23698 0.160021 0
M  V30 3188 C 299.519 -3.23569 -0.938325 0
M  V30 3189 O 300.049 -3.47752 -2.01077 0
M  V30 3190 N 298.255 -2.77079 -0.876117 0
M  V30 3191 H 297.802 -2.576 -0.00322037 0
M  V30 3192 H 297.76 -2.62422 -1.73153 0
M  V30 3193 N 301.532 -0.945985 -1.26051 0
M  V30 3194 C 302.442 -0.465633 -2.29933 0
M  V30 3195 C 303.458 0.462761 -1.67733 0
M  V30 3196 O 304.634 0.341118 -1.9849 0
M  V30 3197 C 301.699 0.256994 -3.45746 0
M  V30 3198 C 300.76 -0.708549 -4.23412 0
M  V30 3199 C 299.993 -0.0203135 -5.33696 0
M  V30 3200 O 300.216 1.19571 -5.57726 0
M  V30 3201 O 299.15 -0.701459 -5.97799 0
M  V30 3202 H 302.976 -1.32866 -2.73094 0
M  V30 3203 H 300.561 -0.712071 -1.31339 0
M  V30 3204 H 302.443 0.663852 -4.16138 0
M  V30 3205 H 301.118 1.09533 -3.04605 0
M  V30 3206 H 300.025 -1.16545 -3.55483 0
M  V30 3207 H 301.358 -1.51465 -4.68315 0
M  V30 3208 N 303.011 1.40521 -0.713556 0
M  V30 3209 C 303.974 2.29098 -0.0684347 0
M  V30 3210 C 304.974 1.45268 0.689472 0
M  V30 3211 O 306.164 1.66205 0.521677 0
M  V30 3212 C 303.296 3.28446 0.913024 0
M  V30 3213 H 304.489 2.87645 -0.84855 0
M  V30 3214 H 302.042 1.48809 -0.47809 0
M  V30 3215 H 302.777 2.74913 1.72027 0
M  V30 3216 H 302.562 3.90327 0.372472 0
M  V30 3217 H 304.052 3.94777 1.36165 0
M  V30 3218 N 304.489 0.459591 1.5075 0
M  V30 3219 C 305.436 -0.340524 2.28274 0
M  V30 3220 C 306.406 -0.997371 1.32822 0
M  V30 3221 O 307.591 -1.01202 1.61749 0
M  V30 3222 C 304.731 -1.42317 3.14388 0
M  V30 3223 C 303.844 -0.782251 4.24859 0
M  V30 3224 C 302.979 -1.84182 4.98247 0
M  V30 3225 C 302.018 -1.18053 6.00608 0
M  V30 3226 N 301.155 -2.18244 6.67319 0
M  V30 3227 H 305.995 0.326899 2.96202 0
M  V30 3228 H 303.532 0.173057 1.46078 0
M  V30 3229 H 305.49 -2.06241 3.62658 0
M  V30 3230 H 304.12 -2.05992 2.4853 0
M  V30 3231 H 303.172 -0.0307404 3.80388 0
M  V30 3232 H 304.484 -0.259663 4.98124 0
M  V30 3233 H 303.638 -2.55714 5.50177 0
M  V30 3234 H 302.377 -2.39819 4.24662 0
M  V30 3235 H 301.382 -0.450776 5.47949 0
M  V30 3236 H 302.607 -0.631202 6.7616 0
M  V30 3237 H 300.553 -2.72919 5.96533 0
M  V30 3238 H 300.47 -1.70938 7.36421 0
M  V30 3239 H 301.738 -2.89191 7.23871 0
M  V30 3240 N 305.967 -1.56429 0.191757 0
M  V30 3241 C 307.207 -1.99383 -0.450099 0
M  V30 3242 C 307.571 -1.07581 -1.59029 0
M  V30 3243 O 308.772 -1.39758 -2.29611 0
M  V30 3244 C 307.043 -3.45841 -0.901611 0
M  V30 3245 S 308.602 -4.10822 -1.54177 0
M  V30 3246 H 305.42 -0.696253 -0.144057 0
M  V30 3247 H 308.022 -1.93276 0.294036 0
M  V30 3248 H 306.726 -4.10354 -0.0616596 0
M  V30 3249 H 306.257 -3.55757 -1.67929 0
M  V30 3250 H 308.272 -4.07553 -2.83046 0
M  V30 3251 N 307.445 0.0818655 -1.57387 0
M  V30 3252 C 308.722 0.815343 -1.77796 0
M  V30 3253 C 309.102 1.96289 -0.77679 0
M  V30 3254 O 308.45 2.27691 0.192106 0
M  V30 3255 C 308.66 1.29765 -3.23978 0
M  V30 3256 C 310.008 1.7351 -3.8753 0
M  V30 3257 O 311.032 1.39356 -3.27808 0
M  V30 3258 O 309.891 2.36708 -4.92576 0
M  V30 3259 H 306.985 0.389914 -0.729312 0
M  V30 3260 H 309.531 0.0627213 -1.69584 0
M  V30 3261 H 308.303 0.47608 -3.88393 0
M  V30 3262 H 307.926 2.11189 -3.36875 0
M  V30 3263 N 308.923 1.53595 0.353017 0
M  V30 3264 C 310.148 1.7462 1.11904 0
M  V30 3265 C 310.573 0.479721 1.8188 0
M  V30 3266 O 309.931 -0.567066 1.72204 0
M  V30 3267 C 309.979 2.92029 2.11545 0
M  V30 3268 O 309.083 2.61516 3.18878 0
M  V30 3269 H 308.424 0.579531 0.324099 0
M  V30 3270 H 310.954 2.00525 0.406301 0
M  V30 3271 H 310.964 3.18551 2.5493 0
M  V30 3272 H 309.639 3.83888 1.60008 0
M  V30 3273 H 308.216 2.45852 2.80377 0
M  V30 3274 N 310.401 -0.613514 1.45168 0
M  V30 3275 C 311.351 -1.71871 1.49815 0
M  V30 3276 C 312.335 -1.56774 0.362021 0
M  V30 3277 O 313.527 -1.66212 0.608493 0
M  V30 3278 C 310.656 -3.1061 1.46207 0
M  V30 3279 C 309.742 -3.31114 2.64999 0
M  V30 3280 N 310.133 -3.21904 3.90143 0
M  V30 3281 C 308.431 -3.61966 2.6057 0
M  V30 3282 C 309.132 -3.43577 4.69393 0
M  V30 3283 N 308.108 -3.67287 4.00751 0
M  V30 3284 H 311.91 -1.63235 2.444 0
M  V30 3285 H 309.424 -0.816577 1.40377 0
M  V30 3286 H 311.421 -3.8989 1.4762 0
M  V30 3287 H 310.081 -3.20399 0.52673 0
M  V30 3288 H 311.092 -3.00436 4.21852 0
M  V30 3289 H 307.769 -3.78629 1.75916 0
M  V30 3290 H 309.159 -3.41901 5.78406 0
M  V30 3291 N 311.879 -1.3236 -0.855495 0
M  V30 3292 C 312.812 -1.15559 -1.96777 0
M  V30 3293 C 313.79 -0.0552681 -1.62506 0
M  V30 3294 O 314.974 -0.214419 -1.87277 0
M  V30 3295 C 312.101 -0.768851 -3.29858 0
M  V30 3296 C 311.147 -1.87429 -3.83109 0
M  V30 3297 S 311.98 -3.48243 -4.06801 0
M  V30 3298 C 313.136 -3.11539 -5.42858 0
M  V30 3299 H 313.369 -2.09717 -2.10727 0
M  V30 3300 H 310.902 -1.17011 -1.00737 0
M  V30 3301 H 312.86 -0.55248 -4.06765 0
M  V30 3302 H 311.521 0.153857 -3.13723 0
M  V30 3303 H 310.714 -1.55667 -4.79358 0
M  V30 3304 H 310.316 -2.04647 -3.13042 0
M  V30 3305 H 312.608 -2.61331 -6.2507 0
M  V30 3306 H 313.551 -4.06806 -5.79582 0
M  V30 3307 H 313.959 -2.48582 -5.06821 0
M  V30 3308 N 313.357 1.07166 -1.15556 0
M  V30 3309 C 314.267 2.17947 -0.868116 0
M  V30 3310 C 315.283 1.73297 0.156297 0
M  V30 3311 O 316.459 2.01392 -0.0182327 0
M  V30 3312 C 313.524 3.44789 -0.36355 0
M  V30 3313 C 312.585 4.03996 -1.45209 0
M  V30 3314 C 311.818 5.24783 -0.971508 0
M  V30 3315 O 312.041 5.70109 0.182194 0
M  V30 3316 O 310.975 5.75715 -1.75603 0
M  V30 3317 H 314.801 2.4503 -1.79427 0
M  V30 3318 H 312.386 1.16539 -0.934824 0
M  V30 3319 H 314.268 4.21307 -0.0887113 0
M  V30 3320 H 312.943 3.19253 0.534708 0
M  V30 3321 H 311.85 3.29009 -1.78056 0
M  V30 3322 H 313.183 4.33808 -2.32533 0
M  V30 3323 N 314.835 0.952656 1.25548 0
M  V30 3324 C 316.063 0.623496 1.97282 0
M  V30 3325 C 316.478 -0.803987 1.70826 0
M  V30 3326 O 315.835 -1.53755 0.983147 0
M  V30 3327 C 315.886 0.870209 3.5087 0
M  V30 3328 O 315.607 2.24156 3.76412 0
M  V30 3329 C 317.108 0.553164 4.39835 0
M  V30 3330 H 314.328 0.233931 0.628902 0
M  V30 3331 H 316.872 1.27649 1.59768 0
M  V30 3332 H 315.027 0.263652 3.86502 0
M  V30 3333 H 315.441 2.31021 4.70882 0
M  V30 3334 H 316.915 0.776342 5.46513 0
M  V30 3335 H 317.392 -0.512215 4.36203 0
M  V30 3336 H 317.998 1.13896 4.09766 0
M  V30 3337 N 316.313 -1.40141 0.720998 0
M  V30 3338 C 317.56 -2.00787 0.262842 0
M  V30 3339 C 317.888 -1.5718 -1.14563 0
M  V30 3340 O 317.143 -0.785391 -1.79249 0
M  V30 3341 C 317.442 -3.56165 0.296892 0
M  V30 3342 C 317.108 -4.19373 1.65641 0
M  V30 3343 C 315.77 -4.36352 2.02855 0
M  V30 3344 C 318.122 -4.54578 2.54968 0
M  V30 3345 C 315.45 -4.8582 3.28931 0
M  V30 3346 C 317.802 -5.05447 3.80402 0
M  V30 3347 C 316.466 -5.20635 4.17726 0
M  V30 3348 H 315.736 -0.734731 0.0961807 0
M  V30 3349 H 318.383 -1.67673 0.925093 0
M  V30 3350 H 316.688 -3.8922 -0.448932 0
M  V30 3351 H 318.385 -4.00929 -0.0755208 0
M  V30 3352 H 314.975 -4.06549 1.35704 0
M  V30 3353 H 319.159 -4.41091 2.27491 0
M  V30 3354 H 314.415 -4.95764 3.57811 0
M  V30 3355 H 318.589 -5.31663 4.49786 0
M  V30 3356 H 316.216 -5.58728 5.15487 0
M  V30 3357 N 317.792 -0.46758 -1.50504 0
M  V30 3358 C 318.722 0.318381 -2.31319 0
M  V30 3359 C 319.703 0.993564 -1.38066 0
M  V30 3360 O 320.888 0.991411 -1.66987 0
M  V30 3361 C 318.018 1.40275 -3.17711 0
M  V30 3362 C 316.972 0.849373 -4.19487 0
M  V30 3363 C 316.298 2.03177 -4.94594 0
M  V30 3364 C 317.598 -0.136942 -5.2212 0
M  V30 3365 H 319.292 -0.356106 -2.97275 0
M  V30 3366 H 316.838 -0.172703 -1.42961 0
M  V30 3367 H 318.791 1.96004 -3.73042 0
M  V30 3368 H 317.515 2.10596 -2.49634 0
M  V30 3369 H 316.174 0.314076 -3.65252 0
M  V30 3370 H 315.822 2.72187 -4.22993 0
M  V30 3371 H 315.522 1.66774 -5.63436 0
M  V30 3372 H 317.046 2.59403 -5.52759 0
M  V30 3373 H 318.46 0.331056 -5.72343 0
M  V30 3374 H 316.857 -0.41507 -5.98663 0
M  V30 3375 H 317.927 -1.06398 -4.73083 0
M  V30 3376 N 319.27 1.56325 -0.20005 0
M  V30 3377 C 320.686 1.58839 0.155716 0
M  V30 3378 C 320.886 1.21636 1.60645 0
M  V30 3379 O 319.942 0.941437 2.34293 0
M  V30 3380 C 321.255 3.0032 -0.151124 0
M  V30 3381 C 322.803 3.12866 -0.0916284 0
M  V30 3382 C 323.278 4.56488 -0.371845 0
M  V30 3383 N 324.769 4.62089 -0.320641 0
M  V30 3384 C 325.504 5.71116 -0.511243 0
M  V30 3385 N 325 6.88592 -0.762461 0
M  V30 3386 N 326.793 5.60335 -0.445157 0
M  V30 3387 H 318.944 1.78788 -1.14668 0
M  V30 3388 H 321.207 0.829996 -0.458051 0
M  V30 3389 H 320.913 3.32117 -1.15721 0
M  V30 3390 H 320.787 3.73257 0.543986 0
M  V30 3391 H 323.174 2.80878 0.905065 0
M  V30 3392 H 323.255 2.42304 -0.81989 0
M  V30 3393 H 322.899 4.89189 -1.36588 0
M  V30 3394 H 322.829 5.25246 0.377362 0
M  V30 3395 H 325.32 3.77665 -0.13329 0
M  V30 3396 H 325.633 7.67581 -0.896576 0
M  V30 3397 H 323.978 6.90387 -0.799412 0
M  V30 3398 H 327.169 4.67436 -0.249278 0
M  V30 3399 H 327.342 6.45243 -0.597116 0
M  V30 3400 N 320.748 -0.0735177 1.57428 0
M  V30 3401 C 321.988 -0.778363 1.89 0
M  V30 3402 C 322.352 -1.7483 0.793634 0
M  V30 3403 O 323.553 -2.49811 0.992367 0
M  V30 3404 C 321.824 -1.46929 3.25802 0
M  V30 3405 S 323.383 -2.20943 3.79117 0
M  V30 3406 H 320.201 -0.258874 0.662197 0
M  V30 3407 H 322.803 -0.0345338 1.95469 0
M  V30 3408 H 321.507 -0.749532 4.03497 0
M  V30 3409 H 321.038 -2.25258 3.22525 0
M  V30 3410 H 323.053 -3.47435 3.54265 0
M  V30 3411 N 322.226 -1.5378 -0.344866 0
M  V30 3412 C 323.475 -1.7018 -1.08267 0
M  V30 3413 C 323.788 -0.471 -1.89845 0
M  V30 3414 O 324.994 -0.515917 -2.66553 0
M  V30 3415 C 323.45 -3.00923 -1.97417 0
M  V30 3416 C 323.058 -4.31335 -1.21053 0
M  V30 3417 C 324.802 -3.26688 -2.71063 0
M  V30 3418 C 322.709 -5.53153 -2.09225 0
M  V30 3419 H 321.639 -0.634138 -0.407903 0
M  V30 3420 H 324.29 -1.8028 -0.342246 0
M  V30 3421 H 322.672 -2.84676 -2.75274 0
M  V30 3422 H 323.846 -4.58281 -0.481159 0
M  V30 3423 H 322.161 -4.12173 -0.591813 0
M  V30 3424 H 324.758 -4.1489 -3.37299 0
M  V30 3425 H 325.101 -2.43639 -3.37558 0
M  V30 3426 H 325.634 -3.43705 -2.0028 0
M  V30 3427 H 322.373 -6.38741 -1.47274 0
M  V30 3428 H 321.893 -5.30458 -2.79955 0
M  V30 3429 H 323.572 -5.88744 -2.68308 0
M  V30 3430 N 323.704 0.605807 -1.45491 0
M  V30 3431 C 324.614 1.74466 -1.56839 0
M  V30 3432 C 325.63 1.68006 -0.452772 0
M  V30 3433 O 326.806 1.8833 -0.713708 0
M  V30 3434 C 323.871 3.10931 -1.53371 0
M  V30 3435 C 322.932 3.28832 -2.75986 0
M  V30 3436 C 322.165 4.58787 -2.72673 0
M  V30 3437 O 322.388 5.4122 -1.80102 0
M  V30 3438 O 321.322 4.79438 -3.63899 0
M  V30 3439 H 325.148 1.67843 -2.53106 0
M  V30 3440 H 322.733 0.770108 -1.28022 0
M  V30 3441 H 324.615 3.92233 -1.54051 0
M  V30 3442 H 323.29 3.18042 -0.602572 0
M  V30 3443 H 322.197 2.47112 -2.80867 0
M  V30 3444 H 323.53 3.26599 -3.68231 0
M  V30 3445 N 325.182 1.32811 0.848464 0
M  V30 3446 C 326.145 1.22194 1.9391 0
M  V30 3447 C 327.145 0.143404 1.60159 0
M  V30 3448 O 328.335 0.394253 1.6968 0
M  V30 3449 C 325.467 0.88067 3.29328 0
M  V30 3450 H 326.66 2.19127 2.04752 0
M  V30 3451 H 324.213 1.16731 1.0394 0
M  V30 3452 H 324.948 -0.0865776 3.24184 0
M  V30 3453 H 324.733 1.66052 3.55203 0
M  V30 3454 H 326.223 0.830871 4.09251 0
M  V30 3455 N 326.66 -1.06551 1.16123 0
M  V30 3456 C 327.885 -1.83544 0.965735 0
M  V30 3457 C 328.31 -1.81843 -0.481102 0
M  V30 3458 O 327.668 -1.21732 -1.34354 0
M  V30 3459 C 327.716 -3.28169 1.49457 0
M  V30 3460 O 326.82 -4.0643 0.699157 0
M  V30 3461 H 326.161 -0.568026 0.343864 0
M  V30 3462 H 328.691 -1.34362 1.54299 0
M  V30 3463 H 328.701 -3.78992 1.51092 0
M  V30 3464 H 327.376 -3.28722 2.54784 0
M  V30 3465 H 325.953 -3.65216 0.7531 0
M  V30 3466 N 328.138 -0.959301 -1.25041 0
M  V30 3467 C 329.386 -0.615393 -1.92503 0
M  V30 3468 C 329.707 0.850969 -1.75452 0
M  V30 3469 O 328.977 1.60658 -1.12098 0
M  V30 3470 H 327.557 -0.224613 -0.712431 0
M  V30 3471 H 330.219 -1.21855 -1.5211 0
M  V30 3472 H 329.315 -0.848738 -3.00338 0
M  V30 3473 N 329.616 1.39756 -0.72842 0
M  V30 3474 C 331.032 1.5442 -0.403308 0
M  V30 3475 C 331.232 1.69694 1.08656 0
M  V30 3476 O 330.288 1.69373 1.87267 0
M  V30 3477 C 331.601 2.76555 -1.18058 0
M  V30 3478 C 333.149 2.90384 -1.16815 0
M  V30 3479 C 333.624 4.15449 -1.92785 0
M  V30 3480 N 335.115 4.22475 -1.89918 0
M  V30 3481 C 335.85 5.1818 -2.45514 0
M  V30 3482 N 335.346 6.19714 -3.09719 0
M  V30 3483 N 337.139 5.1035 -2.35584 0
M  V30 3484 H 329.29 1.28089 -1.69431 0
M  V30 3485 H 331.553 0.620327 -0.716867 0
M  V30 3486 H 331.259 2.7159 -2.23455 0
M  V30 3487 H 331.133 3.69033 -0.780662 0
M  V30 3488 H 333.52 2.94846 -0.12234 0
M  V30 3489 H 333.601 1.98988 -1.6074 0
M  V30 3490 H 333.245 4.11749 -2.97364 0
M  V30 3491 H 333.175 5.05877 -1.46272 0
M  V30 3492 H 335.666 3.49743 -1.43138 0
M  V30 3493 H 335.979 6.8919 -3.49625 0
M  V30 3494 H 334.324 6.20121 -3.13807 0
M  V30 3495 H 337.515 4.2996 -1.85072 0
M  V30 3496 H 337.688 5.84761 -2.79211 0
M  V30 3497 N 331.094 0.475555 1.50254 0
M  V30 3498 C 332.34 -0.0780073 2.0265 0
M  V30 3499 C 332.673 -1.38968 1.35652 0
M  V30 3500 O 331.948 -1.8839 0.483691 0
M  V30 3501 C 332.231 -0.257161 3.59181 0
M  V30 3502 C 332.084 1.07585 4.36744 0
M  V30 3503 C 333.403 -1.00965 4.28362 0
M  V30 3504 H 330.522 -0.0268758 0.73651 0
M  V30 3505 H 333.164 0.622015 1.7953 0
M  V30 3506 H 331.314 -0.853412 3.79011 0
M  V30 3507 H 332.986 1.70902 4.28474 0
M  V30 3508 H 331.229 1.6714 4.00308 0
M  V30 3509 H 331.9 0.904088 5.44546 0
M  V30 3510 H 334.376 -0.504214 4.13034 0
M  V30 3511 H 333.252 -1.10381 5.37687 0
M  V30 3512 H 333.513 -2.04731 3.91839 0
M  V30 3513 N 332.573 -1.56217 0.208337 0
M  V30 3514 C 333.798 -2.02782 -0.435222 0
M  V30 3515 C 334.223 -1.08738 -1.53485 0
M  V30 3516 O 333.581 -0.0731855 -1.81152 0
M  V30 3517 C 333.629 -3.47687 -0.956335 0
M  V30 3518 O 332.733 -3.56773 -2.06849 0
M  V30 3519 H 332.074 -0.656403 -0.100158 0
M  V30 3520 H 334.604 -2.02033 0.3231 0
M  V30 3521 H 334.614 -3.87745 -1.26955 0
M  V30 3522 H 333.289 -4.15624 -0.15143 0
M  V30 3523 H 331.866 -3.28597 -1.76292 0
M  V30 3524 N 334.051 0.0651679 -1.57465 0
M  V30 3525 C 335.328 0.79644 -1.78651 0
M  V30 3526 C 335.708 1.95454 -0.797566 0
M  V30 3527 O 335.056 2.27882 0.167946 0
M  V30 3528 C 335.266 1.26322 -3.25337 0
M  V30 3529 C 336.614 1.6939 -3.89348 0
M  V30 3530 O 337.638 1.35872 -3.29268 0
M  V30 3531 O 336.497 2.31471 -4.95059 0
M  V30 3532 H 333.591 0.382157 -0.733407 0
M  V30 3533 H 336.137 0.0447311 -1.69641 0
M  V30 3534 H 334.909 0.434859 -3.88876 0
M  V30 3535 H 334.532 2.07604 -3.39096 0
M  V30 3536 N 335.529 1.53961 0.336706 0
M  V30 3537 C 336.806 1.62171 1.09361 0
M  V30 3538 C 337.186 0.447263 2.06307 0
M  V30 3539 O 336.534 -0.559802 2.21537 0
M  V30 3540 C 336.744 2.98565 1.80721 0
M  V30 3541 C 338.092 3.54157 2.34218 0
M  V30 3542 O 339.116 3.00784 1.90807 0
M  V30 3543 O 337.975 4.47528 3.13657 0
M  V30 3544 H 335.069 0.6562 0.503319 0
M  V30 3545 H 337.615 1.66307 0.33765 0
M  V30 3546 H 336.387 3.75482 1.10132 0
M  V30 3547 H 336.01 2.9805 2.63158 0
M  V30 3548 N 337.007 -0.598083 1.45811 0
M  V30 3549 C 338.255 -1.35413 1.50026 0
M  V30 3550 C 338.576 -1.94444 0.147177 0
M  V30 3551 O 337.846 -1.77701 -0.824571 0
M  V30 3552 H 336.426 -0.502727 0.552517 0
M  V30 3553 H 339.088 -0.701606 1.81834 0
M  V30 3554 H 338.184 -2.16871 2.2444 0
M  V30 3555 N 338.485 -1.33259 -0.841409 0
M  V30 3556 C 339.732 -1.24572 -1.5965 0
M  V30 3557 C 340.06 0.189137 -1.93578 0
M  V30 3558 O 339.315 1.14566 -1.5866 0
M  V30 3559 C 339.614 -2.06381 -2.9179 0
M  V30 3560 C 339.28 -3.556 -2.77235 0
M  V30 3561 C 337.942 -3.96282 -2.72973 0
M  V30 3562 C 340.294 -4.50433 -2.62221 0
M  V30 3563 C 337.622 -5.30017 -2.51592 0
M  V30 3564 C 339.974 -5.84327 -2.42374 0
M  V30 3565 C 338.638 -6.24194 -2.36512 0
M  V30 3566 H 337.908 -0.455842 -0.5842 0
M  V30 3567 H 340.555 -1.6482 -0.975016 0
M  V30 3568 H 338.86 -1.58903 -3.5813 0
M  V30 3569 H 340.557 -1.97019 -3.49263 0
M  V30 3570 H 337.147 -3.23298 -2.81384 0
M  V30 3571 H 341.331 -4.19914 -2.64549 0
M  V30 3572 H 336.587 -5.59947 -2.45499 0
M  V30 3573 H 340.761 -6.57414 -2.29739 0
M  V30 3574 H 338.388 -7.27759 -2.19706 0
M  V30 3575 N 339.963 1.05934 -1.16686 0
M  V30 3576 C 341.212 1.78188 -0.945085 0
M  V30 3577 C 341.525 1.88338 0.528021 0
M  V30 3578 O 342.731 2.57258 0.867799 0
M  V30 3579 C 341.187 3.20277 -1.64167 0
M  V30 3580 C 340.795 3.18281 -3.15279 0
M  V30 3581 C 342.539 3.97039 -1.502 0
M  V30 3582 C 340.446 4.55112 -3.7766 0
M  V30 3583 H 339.376 0.667866 -0.349959 0
M  V30 3584 H 342.027 1.18794 -1.39858 0
M  V30 3585 H 340.409 3.79952 -1.11589 0
M  V30 3586 H 341.583 2.68167 -3.74731 0
M  V30 3587 H 339.898 2.55018 -3.29173 0
M  V30 3588 H 342.495 4.98194 -1.94183 0
M  V30 3589 H 342.838 4.13845 -0.451461 0
M  V30 3590 H 343.371 3.43894 -1.99954 0
M  V30 3591 H 340.11 4.43512 -4.82677 0
M  V30 3592 H 339.63 5.05406 -3.22994 0
M  V30 3593 H 341.309 5.24064 -3.79428 0
M  V30 3594 N 341.441 0.965919 1.2453 0
M  V30 3595 C 342.404 0.499547 2.2369 0
M  V30 3596 C 343.404 -0.40294 1.5567 0
M  V30 3597 O 344.594 -0.19865 1.73064 0
M  V30 3598 C 341.726 -0.276792 3.39774 0
M  V30 3599 H 342.919 1.37613 2.66463 0
M  V30 3600 H 340.472 0.750324 1.37112 0
M  V30 3601 H 341.207 -1.17055 3.02438 0
M  V30 3602 H 340.992 0.370826 3.90343 0
M  V30 3603 H 342.482 -0.592175 4.1338 0
M  V30 3604 N 342.919 -1.39368 0.735821 0
M  V30 3605 C 344.168 -1.99733 0.281004 0
M  V30 3606 C 344.481 -1.59055 -1.13846 0
M  V30 3607 O 345.687 -2.12262 -1.69284 0
M  V30 3608 C 344.143 -3.57057 0.451462 0
M  V30 3609 C 343.751 -4.06697 1.87886 0
M  V30 3610 C 345.495 -4.2446 0.0584616 0
M  V30 3611 C 343.402 -5.56598 1.99883 0
M  V30 3612 H 342.332 -0.747163 0.101311 0
M  V30 3613 H 344.983 -1.59357 0.909819 0
M  V30 3614 H 343.365 -3.95234 -0.246263 0
M  V30 3615 H 344.539 -3.79853 2.60861 0
M  V30 3616 H 342.854 -3.5196 2.22515 0
M  V30 3617 H 345.451 -5.34549 0.127099 0
M  V30 3618 H 345.794 -4.04444 -0.986433 0
M  V30 3619 H 346.327 -3.9146 0.707374 0
M  V30 3620 H 343.066 -5.81494 3.02564 0
M  V30 3621 H 342.586 -5.85242 1.31346 0
M  V30 3622 H 344.265 -6.22022 1.78039 0
M  V30 3623 N 344.397 -0.483516 -1.5 0
M  V30 3624 C 345.344 0.304164 -2.28787 0
M  V30 3625 C 346.314 0.976114 -1.34392 0
M  V30 3626 O 347.499 0.986156 -1.63339 0
M  V30 3627 C 344.639 1.37298 -3.16612 0
M  V30 3628 C 343.752 0.714561 -4.26049 0
M  V30 3629 C 342.887 1.76232 -5.01114 0
M  V30 3630 C 341.926 1.08483 -6.0241 0
M  V30 3631 N 341.063 2.076 -6.70706 0
M  V30 3632 H 345.903 -0.373981 -2.95644 0
M  V30 3633 H 343.44 -0.196275 -1.45785 0
M  V30 3634 H 345.398 2.00445 -3.65893 0
M  V30 3635 H 344.028 2.02012 -2.51776 0
M  V30 3636 H 343.08 -0.0297798 -3.80388 0
M  V30 3637 H 344.392 0.180383 -4.98474 0
M  V30 3638 H 343.546 2.46929 -5.54176 0
M  V30 3639 H 342.285 2.33033 -4.28424 0
M  V30 3640 H 341.29 0.363545 -5.48597 0
M  V30 3641 H 342.515 0.523551 -6.77079 0
M  V30 3642 H 340.461 2.63394 -6.00799 0
M  V30 3643 H 340.378 1.59201 -7.39047 0
M  V30 3644 H 341.646 2.77639 -7.2838 0
M  V30 3645 N 345.875 1.56104 -0.216619 0
M  V30 3646 C 346.805 2.23063 0.690296 0
M  V30 3647 C 347.786 1.20072 1.20485 0
M  V30 3648 O 348.971 1.48643 1.24976 0
M  V30 3649 C 346.101 2.90672 1.90072 0
M  V30 3650 C 345.055 4.00092 1.5202 0
M  V30 3651 C 344.381 4.54972 2.80899 0
M  V30 3652 C 345.681 5.17398 0.71391 0
M  V30 3653 H 347.375 2.99109 0.132038 0
M  V30 3654 H 344.921 1.43866 0.0620664 0
M  V30 3655 H 346.874 3.36204 2.54057 0
M  V30 3656 H 345.598 2.12066 2.48386 0
M  V30 3657 H 344.257 3.55283 0.903839 0
M  V30 3658 H 343.905 3.73102 3.37348 0
M  V30 3659 H 343.605 5.28817 2.56176 0
M  V30 3660 H 345.129 5.0322 3.45836 0
M  V30 3661 H 346.543 5.59342 1.25735 0
M  V30 3662 H 344.94 5.97444 0.563951 0
M  V30 3663 H 346.01 4.84088 -0.280527 0
M  V30 3664 N 347.353 -0.0568162 1.57498 0
M  V30 3665 C 348.581 -0.765626 1.92213 0
M  V30 3666 C 348.996 -1.70353 0.813961 0
M  V30 3667 O 348.353 -1.81268 -0.211701 0
M  V30 3668 C 348.404 -1.5465 3.2675 0
M  V30 3669 O 348.125 -0.646278 4.33307 0
M  V30 3670 C 349.626 -2.35497 3.75574 0
M  V30 3671 H 346.846 -0.216835 0.634999 0
M  V30 3672 H 349.39 -0.0226146 2.04487 0
M  V30 3673 H 347.545 -2.24165 3.15957 0
M  V30 3674 H 347.959 -1.19093 5.108 0
M  V30 3675 H 349.433 -2.85722 4.72299 0
M  V30 3676 H 349.91 -3.15692 3.05344 0
M  V30 3677 H 350.516 -1.7111 3.8936 0
M  V30 3678 N 348.832 -1.54138 -0.328536 0
M  V30 3679 C 349.795 -1.82462 -1.38709 0
M  V30 3680 C 350.795 -0.696229 -1.44946 0
M  V30 3681 O 351.985 -0.964535 -1.4506 0
M  V30 3682 C 349.117 -1.98018 -2.77492 0
M  V30 3683 H 350.31 -2.77037 -1.14851 0
M  V30 3684 H 347.863 -1.45779 -0.563751 0
M  V30 3685 H 348.598 -1.05637 -3.06613 0
M  V30 3686 H 348.383 -2.80124 -2.74359 0
M  V30 3687 H 349.873 -2.21396 -3.54081 0
M  V30 3688 N 350.31 0.590341 -1.46126 0
M  V30 3689 C 351.24 1.71032 -1.58966 0
M  V30 3690 C 352.221 1.64302 -0.440335 0
M  V30 3691 O 353.406 1.82436 -0.665634 0
M  V30 3692 C 350.536 3.09665 -1.57241 0
M  V30 3693 C 349.49 3.31221 -2.71066 0
M  V30 3694 C 348.816 4.70303 -2.54399 0
M  V30 3695 C 350.116 3.19796 -4.1295 0
M  V30 3696 H 351.81 1.60543 -2.52718 0
M  V30 3697 H 349.356 0.770933 -1.21625 0
M  V30 3698 H 351.309 3.87831 -1.64819 0
M  V30 3699 H 350.033 3.21036 -0.600289 0
M  V30 3700 H 348.692 2.55452 -2.62944 0
M  V30 3701 H 348.34 4.78429 -1.55288 0
M  V30 3702 H 348.04 4.85679 -3.30741 0
M  V30 3703 H 349.564 5.50647 -2.63857 0
M  V30 3704 H 350.978 3.87815 -4.22223 0
M  V30 3705 H 349.375 3.46696 -4.89818 0
M  V30 3706 H 350.445 2.16983 -4.33643 0
M  V30 3707 N 351.788 1.33704 0.83433 0
M  V30 3708 C 353.036 1.25169 1.58673 0
M  V30 3709 C 353.357 -0.18127 1.94156 0
M  V30 3710 O 352.627 -1.11113 1.6134 0
M  V30 3711 H 351.207 0.4603 0.58833 0
M  V30 3712 H 353.869 1.67478 0.996847 0
M  V30 3713 H 352.965 1.84856 2.51465 0
M  V30 3714 N 353.266 -1.05314 1.17247 0
M  V30 3715 C 354.682 -1.30452 0.919473 0
M  V30 3716 C 354.882 -1.9703 -0.42209 0
M  V30 3717 O 353.938 -2.24311 -1.15935 0
M  V30 3718 C 355.251 -2.17551 2.07586 0
M  V30 3719 C 356.799 -2.30937 2.11275 0
M  V30 3720 C 357.274 -3.21396 3.26296 0
M  V30 3721 N 358.765 -3.28981 3.26076 0
M  V30 3722 C 359.5 -3.99095 4.11716 0
M  V30 3723 N 358.996 -4.71648 5.07465 0
M  V30 3724 N 360.789 -3.95247 3.9967 0
M  V30 3725 H 352.94 -0.604988 2.03602 0
M  V30 3726 H 355.203 -0.329368 0.888944 0
M  V30 3727 H 354.909 -1.75921 3.0454 0
M  V30 3728 H 354.783 -3.18182 2.02584 0
M  V30 3729 H 357.17 -2.71809 1.14907 0
M  V30 3730 H 357.251 -1.2994 2.20339 0
M  V30 3731 H 356.895 -2.81238 4.22927 0
M  V30 3732 H 356.825 -4.22395 3.14467 0
M  V30 3733 H 359.316 -2.77286 2.5675 0
M  V30 3734 H 359.629 -5.22705 5.6921 0
M  V30 3735 H 357.974 -4.70594 5.11435 0
M  V30 3736 H 361.165 -3.37691 3.24164 0
M  V30 3737 H 361.338 -4.4962 4.66632 0
M  V30 3738 N 354.744 -0.972509 -1.24016 0
M  V30 3739 C 356.155 -0.67517 -1.74064 0
M  V30 3740 C 356.506 0.808939 -1.78747 0
M  V30 3741 O 355.631 1.63286 -1.42009 0
M  V30 3742 C 356.226 -1.21889 -3.16115 0
M  V30 3743 C 354.785 -0.971358 -3.6365 0
M  V30 3744 C 353.932 -1.35134 -2.42145 0
M  V30 3745 H 356.883 -1.14727 -1.09651 0
M  V30 3746 H 356.904 -0.587489 -3.75937 0
M  V30 3747 H 356.416 -2.29906 -3.12674 0
M  V30 3748 H 354.517 0.0930686 -3.72484 0
M  V30 3749 H 354.63 -1.62039 -4.50866 0
M  V30 3750 H 352.994 -0.769751 -2.4279 0
M  V30 3751 H 353.777 -2.4411 -2.41381 0
M  V30 3752 N 356.222 1.38976 -0.743202 0
M  V30 3753 C 357.154 2.29096 -0.0689228 0
M  V30 3754 C 358.167 1.47229 0.694791 0
M  V30 3755 O 359.356 1.70212 0.537597 0
M  V30 3756 C 356.456 3.25988 0.926548 0
M  V30 3757 C 355.629 4.36833 0.222647 0
M  V30 3758 C 354.688 5.13981 1.12739 0
M  V30 3759 O 353.714 5.6601 0.601795 0
M  V30 3760 N 354.916 5.25966 2.45641 0
M  V30 3761 H 357.681 2.87604 -0.842846 0
M  V30 3762 H 355.242 1.50645 -0.593109 0
M  V30 3763 H 357.234 3.74476 1.5346 0
M  V30 3764 H 355.804 2.68453 1.60162 0
M  V30 3765 H 355.024 3.90116 -0.565983 0
M  V30 3766 H 356.312 5.0811 -0.264841 0
M  V30 3767 H 355.71 4.85228 2.9081 0
M  V30 3768 H 354.267 5.77865 3.01522 0
M  V30 3769 N 357.7 0.491464 1.49741 0
M  V30 3770 C 358.947 -0.0564256 2.02421 0
M  V30 3771 C 359.275 -1.37872 1.37192 0
M  V30 3772 O 358.53 -1.89375 0.493508 0
M  V30 3773 C 358.829 -0.267329 3.56399 0
M  V30 3774 C 358.495 0.975775 4.40215 0
M  V30 3775 C 357.157 1.31655 4.62839 0
M  V30 3776 C 359.509 1.80251 4.89039 0
M  V30 3777 C 356.837 2.48375 5.31532 0
M  V30 3778 C 359.189 2.96116 5.59015 0
M  V30 3779 C 357.853 3.30585 5.79888 0
M  V30 3780 H 357.123 -0.0206476 0.740712 0
M  V30 3781 H 359.77 0.649686 1.80143 0
M  V30 3782 H 358.075 -1.05588 3.77304 0
M  V30 3783 H 359.772 -0.705549 3.94744 0
M  V30 3784 H 356.362 0.700315 4.2284 0
M  V30 3785 H 360.546 1.55239 4.71396 0
M  V30 3786 H 355.802 2.7533 5.45897 0
M  V30 3787 H 359.976 3.60509 5.95824 0
M  V30 3788 H 357.603 4.21132 6.32892 0
M  V30 3789 N 359.178 -1.55987 0.224894 0
M  V30 3790 C 360.108 -2.23426 -0.678457 0
M  V30 3791 C 361.089 -1.20709 -1.19847 0
M  V30 3792 O 362.274 -1.49304 -1.24186 0
M  V30 3793 C 359.404 -2.91676 -1.88527 0
M  V30 3794 C 358.358 -4.00893 -1.49896 0
M  V30 3795 C 357.684 -4.56455 -2.78483 0
M  V30 3796 C 358.984 -5.17769 -0.686461 0
M  V30 3797 H 360.678 -2.99175 -0.116173 0
M  V30 3798 H 358.224 -1.43897 -0.054436 0
M  V30 3799 H 360.177 -3.37547 -2.5227 0
M  V30 3800 H 358.901 -2.1338 -2.47258 0
M  V30 3801 H 357.56 -3.55758 -0.884985 0
M  V30 3802 H 357.208 -3.74886 -3.35365 0
M  V30 3803 H 356.908 -5.30169 -2.53368 0
M  V30 3804 H 358.432 -5.05047 -3.43162 0
M  V30 3805 H 359.846 -5.60001 -1.22767 0
M  V30 3806 H 358.243 -5.97735 -0.532259 0
M  V30 3807 H 359.313 -4.83932 0.306196 0
M  V30 3808 N 360.656 0.0484629 -1.57525 0
M  V30 3809 C 361.586 1.0549 -2.08313 0
M  V30 3810 C 362.567 1.38929 -0.981463 0
M  V30 3811 O 363.752 1.48151 -1.25558 0
M  V30 3812 C 360.882 2.36162 -2.54646 0
M  V30 3813 C 359.836 2.17016 -3.68901 0
M  V30 3814 C 359.162 3.53278 -4.01371 0
M  V30 3815 C 360.462 1.57219 -4.98076 0
M  V30 3816 H 362.156 0.632195 -2.92649 0
M  V30 3817 H 359.702 0.302654 -1.40784 0
M  V30 3818 H 361.655 3.06882 -2.88793 0
M  V30 3819 H 360.379 2.80456 -1.67368 0
M  V30 3820 H 359.038 1.48733 -3.35073 0
M  V30 3821 H 358.686 3.95185 -3.11188 0
M  V30 3822 H 358.386 3.41299 -4.78318 0
M  V30 3823 H 359.91 4.25391 -4.38035 0
M  V30 3824 H 361.324 2.17832 -5.30304 0
M  V30 3825 H 359.721 1.55871 -5.79503 0
M  V30 3826 H 360.791 0.535956 -4.81929 0
M  V30 3827 N 362.134 1.5431 0.320358 0
M  V30 3828 C 363.066 1.80262 1.41556 0
M  V30 3829 C 364.079 0.684723 1.477 0
M  V30 3830 O 365.268 0.961886 1.50366 0
M  V30 3831 C 362.368 1.90825 2.8007 0
M  V30 3832 C 361.541 3.21023 2.97091 0
M  V30 3833 C 360.6 3.22247 4.15985 0
M  V30 3834 O 359.626 3.95871 4.08992 0
M  V30 3835 N 360.828 2.46258 5.25678 0
M  V30 3836 H 363.593 2.74778 1.19655 0
M  V30 3837 H 361.154 1.53646 0.510358 0
M  V30 3838 H 363.146 1.89067 3.57821 0
M  V30 3839 H 361.716 1.03392 2.95006 0
M  V30 3840 H 360.936 3.35715 2.06614 0
M  V30 3841 H 362.224 4.0698 3.05361 0
M  V30 3842 H 361.622 1.86037 5.34235 0
M  V30 3843 H 360.179 2.50275 6.01835 0
M  V30 3844 N 363.613 -0.582584 1.46437 0
M  V30 3845 C 364.86 -1.34079 1.51753 0
M  V30 3846 C 365.188 -1.93762 0.169299 0
M  V30 3847 O 364.443 -1.76989 -0.835062 0
M  V30 3848 C 364.742 -2.48964 2.56421 0
M  V30 3849 C 364.408 -2.07273 4.00436 0
M  V30 3850 C 363.07 -1.95618 4.39644 0
M  V30 3851 C 365.422 -1.75111 4.90903 0
M  V30 3852 C 362.75 -1.5006 5.67185 0
M  V30 3853 C 365.102 -1.31032 6.18881 0
M  V30 3854 C 363.766 -1.17954 6.56996 0
M  V30 3855 H 363.036 -0.49063 0.555304 0
M  V30 3856 H 365.683 -0.656007 1.79913 0
M  V30 3857 H 363.988 -3.22889 2.21923 0
M  V30 3858 H 365.685 -3.07178 2.57765 0
M  V30 3859 H 362.275 -2.17279 3.69443 0
M  V30 3860 H 366.459 -1.83001 4.61329 0
M  V30 3861 H 361.715 -1.38577 5.95488 0
M  V30 3862 H 365.889 -1.052 6.88408 0
M  V30 3863 H 363.516 -0.824279 7.55718 0
M  V30 3864 N 365.091 -1.34144 -0.827227 0
M  V30 3865 C 366.316 -1.29476 -1.62021 0
M  V30 3866 C 366.741 0.129292 -1.87655 0
M  V30 3867 O 366.099 1.08967 -1.449 0
M  V30 3868 C 366.147 -2.08702 -2.94068 0
M  V30 3869 O 365.251 -1.45359 -3.85933 0
M  V30 3870 H 364.592 -0.444881 -0.492927 0
M  V30 3871 H 367.122 -1.76882 -1.02829 0
M  V30 3872 H 367.132 -2.19898 -3.43669 0
M  V30 3873 H 365.807 -3.12241 -2.74734 0
M  V30 3874 H 364.384 -1.42879 -3.44442 0
M  V30 3875 N 366.569 1.04691 -1.17803 0
M  V30 3876 C 367.479 2.16057 -0.914151 0
M  V30 3877 C 368.495 1.73589 0.119503 0
M  V30 3878 O 369.671 2.01308 -0.0609468 0
M  V30 3879 C 366.736 3.4394 -0.436603 0
M  V30 3880 C 365.797 4.00825 -1.53746 0
M  V30 3881 C 365.03 5.22604 -1.0826 0
M  V30 3882 O 365.253 5.70367 0.0612244 0
M  V30 3883 O 364.187 5.7186 -1.87775 0
M  V30 3884 H 368.013 2.41169 -1.84584 0
M  V30 3885 H 365.598 1.1453 -0.959334 0
M  V30 3886 H 367.48 4.21024 -0.178057 0
M  V30 3887 H 366.155 3.20316 0.466869 0
M  V30 3888 H 365.062 3.25158 -1.84995 0
M  V30 3889 H 366.395 4.28778 -2.41683 0
M  V30 3890 N 368.047 0.979072 1.23499 0
M  V30 3891 C 369.293 0.648178 1.92163 0
M  V30 3892 C 369.626 -0.816049 1.76222 0
M  V30 3893 O 368.901 -1.58849 1.12237 0
M  V30 3894 C 369.184 1.03773 3.44824 0
M  V30 3895 C 369.037 2.55948 3.69879 0
M  V30 3896 C 370.356 0.580653 4.36253 0
M  V30 3897 H 367.475 0.236952 0.69787 0
M  V30 3898 H 370.117 1.22012 1.45647 0
M  V30 3899 H 368.267 0.551058 3.84572 0
M  V30 3900 H 369.939 3.12179 3.3962 0
M  V30 3901 H 368.182 2.98641 3.14636 0
M  V30 3902 H 368.853 2.78255 4.76737 0
M  V30 3903 H 371.329 0.998465 4.03943 0
M  V30 3904 H 370.205 0.881663 5.41773 0
M  V30 3905 H 370.466 -0.519052 4.39042 0
M  V30 3906 N 369.525 -1.3858 0.750561 0
M  V30 3907 C 370.455 -2.33102 0.136237 0
M  V30 3908 C 371.436 -1.54713 -0.706965 0
M  V30 3909 O 372.621 -1.83043 -0.648769 0
M  V30 3910 C 369.751 -3.38882 -0.760017 0
M  V30 3911 C 368.705 -4.27995 -0.0197785 0
M  V30 3912 C 368.031 -5.24605 -1.03408 0
M  V30 3913 C 369.331 -5.09554 1.14684 0
M  V30 3914 H 371.025 -2.84726 0.925822 0
M  V30 3915 H 368.571 -1.36898 0.446654 0
M  V30 3916 H 370.524 -4.0397 -1.19943 0
M  V30 3917 H 369.248 -2.85734 -1.58189 0
M  V30 3918 H 367.907 -3.64409 0.400184 0
M  V30 3919 H 367.555 -4.67746 -1.84994 0
M  V30 3920 H 367.255 -5.85081 -0.543464 0
M  V30 3921 H 368.779 -5.9257 -1.47288 0
M  V30 3922 H 370.193 -5.67899 0.785118 0
M  V30 3923 H 368.59 -5.7925 1.56812 0
M  V30 3924 H 369.66 -4.4347 1.96118 0
M  V30 3925 N 371.003 -0.499398 -1.49478 0
M  V30 3926 C 371.966 0.268838 -2.27618 0
M  V30 3927 C 372.966 0.895383 -1.33565 0
M  V30 3928 O 374.156 0.760164 -1.56739 0
M  V30 3929 C 371.288 1.38559 -3.11471 0
M  V30 3930 H 372.481 -0.416812 -2.96989 0
M  V30 3931 H 370.034 -0.254313 -1.54217 0
M  V30 3932 H 370.769 2.10544 -2.46661 0
M  V30 3933 H 370.554 0.941797 -3.80621 0
M  V30 3934 H 372.044 1.92678 -3.70493 0
M  V30 3935 N 372.481 1.55866 -0.233164 0
M  V30 3936 C 373.428 2.20796 0.67215 0
M  V30 3937 C 374.398 1.16731 1.18166 0
M  V30 3938 O 375.583 1.45129 1.23864 0
M  V30 3939 C 372.723 2.90072 1.86955 0
M  V30 3940 C 371.836 4.08759 1.39786 0
M  V30 3941 C 370.971 4.65787 2.55374 0
M  V30 3942 C 370.01 5.76752 2.04998 0
M  V30 3943 N 369.147 6.28021 3.13901 0
M  V30 3944 H 373.987 2.9779 0.111749 0
M  V30 3945 H 371.524 1.47036 0.0434007 0
M  V30 3946 H 373.482 3.28428 2.57276 0
M  V30 3947 H 372.112 2.15575 2.40265 0
M  V30 3948 H 371.164 3.7581 0.589173 0
M  V30 3949 H 372.476 4.88906 0.98856 0
M  V30 3950 H 371.63 5.06646 3.33758 0
M  V30 3951 H 370.369 3.84828 2.99598 0
M  V30 3952 H 369.374 5.35383 1.25079 0
M  V30 3953 H 370.599 6.59553 1.61759 0
M  V30 3954 H 368.545 5.49971 3.57586 0
M  V30 3955 H 368.462 7.03323 2.7726 0
M  V30 3956 H 369.73 6.73538 3.92386 0
M  V30 3957 N 373.959 -0.0401083 1.57549 0
M  V30 3958 C 375.205 -0.728793 1.89895 0
M  V30 3959 C 375.56 -1.73551 0.830535 0
M  V30 3960 O 374.853 -1.90914 -0.162007 0
M  V30 3961 C 375.047 -1.44902 3.26708 0
M  V30 3962 C 374.876 -0.513568 4.46758 0
M  V30 3963 C 373.646 -0.138698 5.0511 0
M  V30 3964 C 375.844 0.203341 5.13898 0
M  V30 3965 N 373.826 0.799159 6.08676 0
M  V30 3966 C 375.197 0.997246 6.11927 0
M  V30 3967 C 377.252 0.271459 4.97159 0
M  V30 3968 C 375.955 1.85299 6.95023 0
M  V30 3969 C 377.981 1.11429 5.80808 0
M  V30 3970 C 377.343 1.89615 6.78399 0
M  V30 3971 H 373.442 -0.241125 0.743897 0
M  V30 3972 H 376.026 0.0108016 1.94697 0
M  V30 3973 H 374.197 -2.15914 3.22856 0
M  V30 3974 H 375.929 -2.08921 3.46603 0
M  V30 3975 H 372.684 -0.498496 4.70969 0
M  V30 3976 H 373.108 1.26227 6.65128 0
M  V30 3977 H 377.75 -0.318709 4.21597 0
M  V30 3978 H 375.468 2.454 7.69938 0
M  V30 3979 H 379.054 1.17038 5.69906 0
M  V30 3980 H 377.934 2.53779 7.42001 0
M  V30 3981 N 375.437 -1.54477 -0.31217 0
M  V30 3982 C 376.853 -1.45442 -0.657185 0
M  V30 3983 C 377.053 -0.63653 -1.91182 0
M  V30 3984 O 376.109 -0.139815 -2.52113 0
M  V30 3985 C 377.422 -2.89287 -0.82058 0
M  V30 3986 C 378.97 -2.9926 -0.917188 0
M  V30 3987 C 379.445 -4.44279 -1.11267 0
M  V30 3988 N 380.936 -4.4794 -1.17914 0
M  V30 3989 C 381.671 -5.57318 -1.34848 0
M  V30 3990 N 381.167 -6.76642 -1.48752 0
M  V30 3991 N 382.96 -5.44986 -1.37647 0
M  V30 3992 H 375.111 -2.06129 0.512313 0
M  V30 3993 H 377.374 -0.933088 0.167485 0
M  V30 3994 H 377.08 -3.51687 0.0302604 0
M  V30 3995 H 376.954 -3.36061 -1.71298 0
M  V30 3996 H 379.341 -2.36981 -1.75852 0
M  V30 3997 H 379.422 -2.558 -0.00101257 0
M  V30 3998 H 379.066 -5.07149 -0.27614 0
M  V30 3999 H 378.996 -4.85359 -2.04289 0
M  V30 4000 H 381.487 -3.61969 -1.08567 0
M  V30 4001 H 381.8 -7.55758 -1.61397 0
M  V30 4002 H 380.145 -6.79529 -1.45828 0
M  V30 4003 H 383.336 -4.50715 -1.26388 0
M  V30 4004 H 383.509 -6.3028 -1.50501 0
M  V30 4005 N 376.915 0.57481 -1.46744 0
M  V30 4006 C 378.155 1.34369 -1.54027 0
M  V30 4007 C 378.519 1.91051 -0.190642 0
M  V30 4008 O 379.72 2.68444 -0.138255 0
M  V30 4009 C 377.991 2.43706 -2.61423 0
M  V30 4010 S 379.55 3.30915 -2.88167 0
M  V30 4011 H 376.368 0.45768 -0.544105 0
M  V30 4012 H 378.97 0.659959 -1.84024 0
M  V30 4013 H 377.674 2.0047 -3.58106 0
M  V30 4014 H 377.205 3.16842 -2.33184 0
M  V30 4015 H 379.22 4.42742 -2.24039 0
M  V30 4016 N 378.394 1.34581 0.820102 0
M  V30 4017 C 379.641 1.27096 1.57648 0
M  V30 4018 C 379.969 -0.158317 1.93855 0
M  V30 4019 O 379.224 -1.12028 1.60463 0
M  V30 4020 C 379.523 2.10997 2.8847 0
M  V30 4021 C 379.189 3.59966 2.71543 0
M  V30 4022 C 377.851 4.00575 2.66634 0
M  V30 4023 C 380.203 4.54548 2.55021 0
M  V30 4024 C 377.531 5.33953 2.43128 0
M  V30 4025 C 379.883 5.88109 2.33047 0
M  V30 4026 C 378.547 6.27878 2.26552 0
M  V30 4027 H 377.817 0.465078 0.576874 0
M  V30 4028 H 380.464 1.6635 0.948671 0
M  V30 4029 H 378.769 1.6458 3.55557 0
M  V30 4030 H 380.466 2.0255 3.46084 0
M  V30 4031 H 377.056 3.27733 2.76205 0
M  V30 4032 H 381.24 4.24069 2.57835 0
M  V30 4033 H 376.496 5.63781 2.3656 0
M  V30 4034 H 380.67 6.60985 2.19251 0
M  V30 4035 H 378.297 7.31162 2.081 0
M  V30 4036 N 379.872 -1.04064 1.18357 0
M  V30 4037 C 381.119 -1.77265 0.978947 0
M  V30 4038 C 381.447 -1.88189 -0.491428 0
M  V30 4039 O 380.702 -1.38653 -1.38108 0
M  V30 4040 C 381.001 -3.20634 1.57888 0
M  V30 4041 C 380.667 -3.29743 3.07539 0
M  V30 4042 C 379.329 -3.31937 3.48384 0
M  V30 4043 C 381.681 -3.29841 4.03552 0
M  V30 4044 C 379.009 -3.3187 4.83818 0
M  V30 4045 C 381.361 -3.31313 5.38901 0
M  V30 4046 C 380.025 -3.31799 5.79194 0
M  V30 4047 H 379.295 -0.648659 0.358222 0
M  V30 4048 H 381.942 -1.22225 1.47422 0
M  V30 4049 H 380.247 -3.78675 1.00561 0
M  V30 4050 H 381.944 -3.75917 1.39598 0
M  V30 4051 H 378.534 -3.28757 2.74986 0
M  V30 4052 H 382.718 -3.27337 3.73047 0
M  V30 4053 H 377.974 -3.30562 5.14333 0
M  V30 4054 H 382.148 -3.30338 6.13066 0
M  V30 4055 H 379.775 -3.315 6.84114 0
M  V30 4056 N 381.35 -0.985608 -1.22978 0
M  V30 4057 C 382.3 -0.50118 -2.22423 0
M  V30 4058 C 383.284 0.426649 -1.5514 0
M  V30 4059 O 384.476 0.254656 -1.75159 0
M  V30 4060 C 381.605 0.190003 -3.42774 0
M  V30 4061 C 380.691 -0.757703 -4.17276 0
M  V30 4062 N 381.082 -1.90251 -4.68656 0
M  V30 4063 C 379.38 -0.57209 -4.42316 0
M  V30 4064 C 380.081 -2.49676 -5.25392 0
M  V30 4065 N 379.057 -1.78013 -5.13627 0
M  V30 4066 H 382.859 -1.37441 -2.59783 0
M  V30 4067 H 380.373 -0.846941 -1.38567 0
M  V30 4068 H 382.37 0.55439 -4.13197 0
M  V30 4069 H 381.03 1.05946 -3.06929 0
M  V30 4070 H 382.041 -2.28354 -4.64839 0
M  V30 4071 H 378.718 0.251909 -4.16739 0
M  V30 4072 H 380.108 -3.46384 -5.75732 0
M  V30 4073 N 382.828 1.3818 -0.7579 0
M  V30 4074 C 383.76 2.2901 -0.0932177 0
M  V30 4075 C 384.773 1.47958 0.679136 0
M  V30 4076 O 385.962 1.70773 0.519514 0
M  V30 4077 C 383.062 3.26953 0.89192 0
M  V30 4078 C 382.235 4.37045 0.176303 0
M  V30 4079 C 381.294 5.15148 1.07281 0
M  V30 4080 O 380.32 5.66616 0.541728 0
M  V30 4081 N 381.522 5.28542 2.40049 0
M  V30 4082 H 384.287 2.86694 -0.873303 0
M  V30 4083 H 381.848 1.50007 -0.609054 0
M  V30 4084 H 383.84 3.76083 1.49479 0
M  V30 4085 H 382.41 2.70136 1.57306 0
M  V30 4086 H 381.63 3.89493 -0.607328 0
M  V30 4087 H 382.918 5.07801 -0.318718 0
M  V30 4088 H 382.316 4.88285 2.85647 0
M  V30 4089 H 380.873 5.8103 2.95376 0
M  V30 4090 N 384.306 0.507319 1.49211 0
M  V30 4091 C 385.239 -0.314509 2.26022 0
M  V30 4092 C 386.217 -0.964849 1.30879 0
M  V30 4093 O 387.401 -0.993707 1.6018 0
M  V30 4094 C 384.528 -1.44346 3.06402 0
M  V30 4095 C 383.574 -0.90685 4.16748 0
M  V30 4096 S 384.407 0.207392 5.35098 0
M  V30 4097 C 385.563 -0.924573 6.19033 0
M  V30 4098 H 385.796 0.337416 2.95379 0
M  V30 4099 H 383.329 0.292718 1.516 0
M  V30 4100 H 385.287 -2.09029 3.53295 0
M  V30 4101 H 383.948 -2.06702 2.36502 0
M  V30 4102 H 383.141 -1.75309 4.72528 0
M  V30 4103 H 382.743 -0.33712 3.72478 0
M  V30 4104 H 385.035 -1.82839 6.52362 0
M  V30 4105 H 385.978 -0.405248 7.06939 0
M  V30 4106 H 386.386 -1.19476 5.51712 0
M  V30 4107 N 385.784 -1.5574 0.241426 0
M  V30 4108 C 386.747 -2.19877 -0.647063 0
M  V30 4109 C 387.747 -1.16642 -1.10686 0
M  V30 4110 O 388.937 -1.41757 -1.01245 0
M  V30 4111 C 386.069 -2.83797 -1.88871 0
M  V30 4112 H 387.262 -2.99772 -0.087574 0
M  V30 4113 H 384.815 -1.56298 -0.00813574 0
M  V30 4114 H 385.55 -2.07824 -2.48957 0
M  V30 4115 H 385.335 -3.59414 -1.56728 0
M  V30 4116 H 386.825 -3.32898 -2.52129 0
M  V30 4117 N 387.262 0.0317525 -1.57568 0
M  V30 4118 C 388.508 0.724175 -1.8943 0
M  V30 4119 C 388.841 1.75149 -0.838836 0
M  V30 4120 O 388.116 1.93948 0.146422 0
M  V30 4121 C 388.399 1.39615 -3.31933 0
M  V30 4122 C 388.252 0.382537 -4.4817 0
M  V30 4123 C 389.571 2.33084 -3.73309 0
M  V30 4124 H 386.69 0.261797 -0.688935 0
M  V30 4125 H 389.332 -0.013017 -1.89996 0
M  V30 4126 H 387.482 2.02451 -3.31581 0
M  V30 4127 H 389.154 -0.243689 -4.60656 0
M  V30 4128 H 387.397 -0.29844 -4.32772 0
M  V30 4129 H 388.068 0.891145 -5.44759 0
M  V30 4130 H 390.544 1.80295 -3.7501 0
M  V30 4131 H 389.42 2.77084 -4.73831 0
M  V30 4132 H 389.681 3.19643 -3.05419 0
M  V30 4133 N 388.74 1.54641 0.303973 0
M  V30 4134 C 389.65 1.88439 1.39743 0
M  V30 4135 C 390.666 0.778239 1.55626 0
M  V30 4136 O 391.842 1.07442 1.70347 0
M  V30 4137 C 388.907 2.12212 2.74166 0
M  V30 4138 C 387.968 3.35936 2.67293 0
M  V30 4139 C 387.201 3.58566 3.95305 0
M  V30 4140 O 387.424 2.84263 4.9452 0
M  V30 4141 O 386.358 4.52078 3.97378 0
M  V30 4142 H 390.184 2.81458 1.14083 0
M  V30 4143 H 387.769 1.40793 0.499768 0
M  V30 4144 H 389.651 2.29067 3.53704 0
M  V30 4145 H 388.326 1.22379 2.99675 0
M  V30 4146 H 387.233 3.24448 1.86237 0
M  V30 4147 H 388.566 4.2589 2.46736 0
M  V30 4148 N 390.218 -0.567019 1.47046 0
M  V30 4149 C 391.15 -1.68985 1.54844 0
M  V30 4150 C 392.163 -1.56869 0.435431 0
M  V30 4151 O 393.352 -1.64006 0.70457 0
M  V30 4152 C 390.452 -3.07373 1.42742 0
M  V30 4153 C 389.625 -3.45339 2.6844 0
M  V30 4154 C 388.684 -4.62849 2.50314 0
M  V30 4155 O 387.71 -4.67922 3.24095 0
M  V30 4156 N 388.912 -5.58726 1.57499 0
M  V30 4157 H 391.677 -1.62745 2.51663 0
M  V30 4158 H 389.238 -0.753411 1.43302 0
M  V30 4159 H 391.23 -3.83803 1.28365 0
M  V30 4160 H 389.8 -3.07893 0.540445 0
M  V30 4161 H 389.02 -2.58455 2.97648 0
M  V30 4162 H 390.308 -3.67476 3.51907 0
M  V30 4163 H 389.706 -5.57376 0.966876 0
M  V30 4164 H 388.263 -6.34523 1.49078 0
M  V30 4165 N 391.696 -1.35014 -0.812953 0
M  V30 4166 C 392.944 -1.27678 -1.56661 0
M  V30 4167 C 393.265 0.150359 -1.94419 0
M  V30 4168 O 392.535 1.08532 -1.63088 0
M  V30 4169 H 391.115 -0.469602 -0.580933 0
M  V30 4170 H 393.777 -1.69043 -0.970076 0
M  V30 4171 H 392.873 -1.88833 -2.48492 0
M  V30 4172 N 393.175 1.03435 -1.18907 0
M  V30 4173 C 394.107 2.1165 -0.879595 0
M  V30 4174 C 395.12 1.62316 0.125439 0
M  V30 4175 O 396.309 1.78201 -0.103245 0
M  V30 4176 C 393.409 3.37622 -0.294042 0
M  V30 4177 C 392.582 4.16166 -1.34629 0
M  V30 4178 C 391.641 5.20457 -0.775274 0
M  V30 4179 O 390.667 5.50379 -1.4516 0
M  V30 4180 N 391.869 5.78949 0.424126 0
M  V30 4181 H 394.634 2.38791 -1.81105 0
M  V30 4182 H 392.195 1.19681 -1.09032 0
M  V30 4183 H 394.187 4.04572 0.101679 0
M  V30 4184 H 392.757 3.07873 0.541575 0
M  V30 4185 H 391.977 3.44444 -1.91707 0
M  V30 4186 H 393.265 4.65432 -2.05549 0
M  V30 4187 H 392.663 5.56948 0.991209 0
M  V30 4188 H 391.22 6.47334 0.761691 0
M  V30 4189 N 394.653 0.992116 1.22453 0
M  V30 4190 C 395.616 0.546883 2.2258 0
M  V30 4191 C 396.616 -0.369829 1.56489 0
M  V30 4192 O 397.806 -0.161896 1.73446 0
M  V30 4193 C 394.938 -0.204659 3.40285 0
M  V30 4194 H 396.131 1.43234 2.63484 0
M  V30 4195 H 393.684 0.779239 1.3549 0
M  V30 4196 H 394.419 -1.10614 3.04853 0
M  V30 4197 H 394.204 0.45354 3.89468 0
M  V30 4198 H 395.694 -0.504358 4.14543 0
M  V30 4199 N 396.131 -1.37776 0.765217 0
M  V30 4200 C 397.379 -1.99454 0.325943 0
M  V30 4201 C 397.7 -1.61049 -1.09947 0
M  V30 4202 O 396.97 -0.872821 -1.75381 0
M  V30 4203 H 395.55 -0.737697 0.117525 0
M  V30 4204 H 398.212 -1.68359 0.981895 0
M  V30 4205 H 397.308 -3.09547 0.398353 0
M  V30 4206 N 397.609 -0.515225 -1.4894 0
M  V30 4207 C 398.539 0.244628 -2.32215 0
M  V30 4208 C 399.52 0.949136 -1.41157 0
M  V30 4209 O 400.705 0.937783 -1.70057 0
M  V30 4210 C 397.835 1.30096 -3.22013 0
M  V30 4211 C 396.789 0.715486 -4.21977 0
M  V30 4212 C 396.115 1.87339 -5.00808 0
M  V30 4213 C 397.415 -0.302982 -5.2142 0
M  V30 4214 H 399.109 -0.450501 -2.95991 0
M  V30 4215 H 396.655 -0.218098 -1.42339 0
M  V30 4216 H 398.608 1.84037 -3.79089 0
M  V30 4217 H 397.332 2.02547 -2.56207 0
M  V30 4218 H 395.991 0.197715 -3.66066 0
M  V30 4219 H 395.639 2.58592 -4.31438 0
M  V30 4220 H 395.339 1.48764 -5.68457 0
M  V30 4221 H 396.863 2.41686 -5.60732 0
M  V30 4222 H 398.277 0.148802 -5.73107 0
M  V30 4223 H 396.674 -0.60532 -5.97039 0
M  V30 4224 H 397.744 -1.21395 -4.69459 0
M  V30 4225 N 399.087 1.5561 -0.249682 0
M  V30 4226 C 400.05 2.20217 0.635394 0
M  V30 4227 C 401.05 1.17227 1.10066 0
M  V30 4228 O 402.24 1.42292 1.00492 0
M  V30 4229 C 399.372 2.84794 1.87363 0
M  V30 4230 H 400.565 2.99814 0.0716752 0
M  V30 4231 H 398.118 1.563 -0.000153234 0
M  V30 4232 H 398.853 2.09142 2.47851 0
M  V30 4233 H 398.638 3.60241 1.5482 0
M  V30 4234 H 400.128 3.3423 2.5036 0
M  V30 4235 N 400.565 -0.0233959 1.57583 0
M  V30 4236 C 401.528 -1.00693 2.05897 0
M  V30 4237 C 402.528 -1.28693 0.964092 0
M  V30 4238 O 403.718 -1.23602 1.22753 0
M  V30 4239 C 400.85 -2.33825 2.4807 0
M  V30 4240 H 402.043 -0.589476 2.9405 0
M  V30 4241 H 399.596 -0.270354 1.53944 0
M  V30 4242 H 400.331 -2.80307 1.6309 0
M  V30 4243 H 400.116 -2.1483 3.2801 0
M  V30 4244 H 401.606 -3.04426 2.85857 0
M  V30 4245 N 402.043 -1.548 -0.295768 0
M  V30 4246 C 402.976 -1.81003 -1.38972 0
M  V30 4247 C 403.954 -0.661544 -1.48534 0
M  V30 4248 O 405.138 -0.902074 -1.65514 0
M  V30 4249 C 402.265 -1.95141 -2.76835 0
M  V30 4250 C 401.311 -3.17592 -2.84671 0
M  V30 4251 S 402.144 -4.75531 -2.46232 0
M  V30 4252 C 403.3 -4.92613 -3.86114 0
M  V30 4253 H 403.533 -2.73507 -1.16537 0
M  V30 4254 H 401.066 -1.46278 -0.494168 0
M  V30 4255 H 403.024 -2.03972 -3.56238 0
M  V30 4256 H 401.685 -1.03565 -2.96535 0
M  V30 4257 H 400.878 -3.24303 -3.85803 0
M  V30 4258 H 400.48 -3.07235 -2.13267 0
M  V30 4259 H 402.772 -4.76957 -4.81164 0
M  V30 4260 H 403.715 -5.94698 -3.8437 0
M  V30 4261 H 404.123 -4.2073 -3.76359 0
M  V30 4262 N 403.521 0.559213 -1.47345 0
M  V30 4263 C 404.798 1.31997 -1.44348 0
M  V30 4264 C 405.178 2.1064 -0.139358 0
M  V30 4265 O 404.526 2.1091 0.879153 0
M  V30 4266 C 404.736 2.22618 -2.68779 0
M  V30 4267 C 406.084 2.83701 -3.1591 0
M  V30 4268 O 407.108 2.32921 -2.69493 0
M  V30 4269 O 405.967 3.75993 -3.966 0
M  V30 4270 H 403.061 0.594251 -0.575147 0
M  V30 4271 H 405.607 0.578282 -1.59543 0
M  V30 4272 H 404.379 1.64093 -3.55231 0
M  V30 4273 H 404.002 3.04085 -2.5616 0
M  V30 4274 N 404.999 1.35443 0.805782 0
M  V30 4275 C 406.227 1.31878 1.59423 0
M  V30 4276 C 406.642 -0.103562 1.88516 0
M  V30 4277 O 405.999 -1.05575 1.48863 0
M  V30 4278 C 406.05 2.12426 2.92502 0
M  V30 4279 O 405.771 3.49115 2.6467 0
M  V30 4280 C 407.272 2.16455 3.86862 0
M  V30 4281 H 404.492 0.453002 0.495005 0
M  V30 4282 H 407.036 1.78309 1.00131 0
M  V30 4283 H 405.191 1.69593 3.48306 0
M  V30 4284 H 405.605 3.90957 3.49647 0
M  V30 4285 H 407.079 2.77204 4.77349 0
M  V30 4286 H 407.556 1.16352 4.23508 0
M  V30 4287 H 408.162 2.59453 3.36993 0
M  V30 4288 N 406.477 -1.02803 1.19454 0
M  V30 4289 C 407.424 -2.11099 0.933046 0
M  V30 4290 C 408.394 -1.65571 -0.132447 0
M  V30 4291 O 409.579 -1.90797 0.00987576 0
M  V30 4292 C 406.719 -3.41763 0.478747 0
M  V30 4293 C 405.832 -4.00833 1.6111 0
M  V30 4294 C 404.967 -5.19511 1.10825 0
M  V30 4295 C 404.006 -5.70639 2.21445 0
M  V30 4296 N 403.143 -6.80589 1.72461 0
M  V30 4297 H 407.983 -2.32804 1.86028 0
M  V30 4298 H 405.52 -1.14179 0.927441 0
M  V30 4299 H 407.478 -4.16736 0.196745 0
M  V30 4300 H 406.108 -3.20166 -0.411493 0
M  V30 4301 H 405.16 -3.23066 2.00829 0
M  V30 4302 H 406.472 -4.34794 2.4445 0
M  V30 4303 H 405.626 -6.01645 0.781533 0
M  V30 4304 H 404.365 -4.87086 0.244606 0
M  V30 4305 H 403.37 -4.87116 2.54947 0
M  V30 4306 H 404.595 -6.05102 3.08267 0
M  V30 4307 H 402.541 -6.50016 0.884056 0
M  V30 4308 H 402.458 -7.13681 2.49389 0
M  V30 4309 H 403.726 -7.66317 1.42755 0
M  V30 4310 N 407.956 -0.998596 -1.21925 0
M  V30 4311 C 408.886 -0.573688 -2.26343 0
M  V30 4312 C 409.867 0.402296 -1.65274 0
M  V30 4313 O 411.052 0.291683 -1.91997 0
M  V30 4314 C 408.182 0.106839 -3.47136 0
M  V30 4315 C 407.136 -0.788269 -4.20678 0
M  V30 4316 C 406.462 0.0254927 -5.34694 0
M  V30 4317 C 407.762 -2.08784 -4.78755 0
M  V30 4318 H 409.456 -1.44651 -2.62138 0
M  V30 4319 H 407.002 -0.696975 -1.26009 0
M  V30 4320 H 408.955 0.415531 -4.19346 0
M  V30 4321 H 407.679 1.01424 -3.10452 0
M  V30 4322 H 406.338 -1.08069 -3.50309 0
M  V30 4323 H 405.986 0.933989 -4.94253 0
M  V30 4324 H 405.686 -0.570437 -5.84825 0
M  V30 4325 H 407.21 0.328147 -6.09718 0
M  V30 4326 H 408.624 -1.84272 -5.42878 0
M  V30 4327 H 407.021 -2.63307 -5.39249 0
M  V30 4328 H 408.091 -2.76284 -3.98491 0
M  V30 4329 N 409.434 1.37368 -0.772513 0
M  V30 4330 C 410.344 2.34053 -0.160081 0
M  V30 4331 C 411.36 1.60216 0.678728 0
M  V30 4332 O 412.536 1.92303 0.59847 0
M  V30 4333 C 409.601 3.3939 0.708182 0
M  V30 4334 C 408.662 4.29048 -0.147172 0
M  V30 4335 C 407.895 5.29354 0.679744 0
M  V30 4336 O 408.118 5.3723 1.91678 0
M  V30 4337 O 407.052 6.01835 0.0885444 0
M  V30 4338 H 410.878 2.88159 -0.959053 0
M  V30 4339 H 408.463 1.39543 -0.533685 0
M  V30 4340 H 410.345 4.03839 1.20384 0
M  V30 4341 H 409.02 2.8761 1.48533 0
M  V30 4342 H 407.927 3.67697 -0.689205 0
M  V30 4343 H 409.26 4.84134 -0.887423 0
M  V30 4344 N 410.912 0.523116 1.48665 0
M  V30 4345 C 412.158 -0.0134963 2.02796 0
M  V30 4346 C 412.491 -1.34582 1.40004 0
M  V30 4347 O 411.766 -1.86756 0.543381 0
M  V30 4348 C 412.049 -0.14276 3.59817 0
M  V30 4349 C 411.902 1.21425 4.331 0
M  V30 4350 C 413.221 -0.872856 4.31357 0
M  V30 4351 H 410.34 -0.00343074 0.736992 0
M  V30 4352 H 412.982 0.678816 1.7746 0
M  V30 4353 H 411.132 -0.732401 3.81534 0
M  V30 4354 H 412.804 1.84447 4.2282 0
M  V30 4355 H 411.047 1.79791 3.94788 0
M  V30 4356 H 411.718 1.07687 5.41394 0
M  V30 4357 H 414.194 -0.372555 4.14429 0
M  V30 4358 H 413.07 -0.932185 5.40927 0
M  V30 4359 H 413.331 -1.92161 3.98154 0
M  V30 4360 N 412.39 -1.55475 0.257931 0
M  V30 4361 C 413.353 -2.20551 -0.623706 0
M  V30 4362 C 414.353 -1.17809 -1.09443 0
M  V30 4363 O 415.543 -1.42823 -0.997362 0
M  V30 4364 C 412.675 -2.85784 -1.8585 0
M  V30 4365 H 413.868 -2.99848 -0.0557743 0
M  V30 4366 H 411.421 -1.56298 0.0084422 0
M  V30 4367 H 412.156 -2.10453 -2.46739 0
M  V30 4368 H 411.941 -3.61057 -1.52907 0
M  V30 4369 H 413.431 -3.35553 -2.48584 0
M  V30 4370 N 413.868 0.0150385 -1.57593 0
M  V30 4371 C 415.114 0.704043 -1.90187 0
M  V30 4372 C 415.447 1.74249 -0.857366 0
M  V30 4373 O 414.722 1.94092 0.125843 0
M  V30 4374 C 415.005 1.36087 -3.33395 0
M  V30 4375 C 414.858 0.334981 -4.48551 0
M  V30 4376 C 416.177 2.29112 -3.7576 0
M  V30 4377 H 413.296 0.254475 -0.691673 0
M  V30 4378 H 415.938 -0.0331678 -1.89971 0
M  V30 4379 H 414.088 1.98922 -3.3371 0
M  V30 4380 H 415.76 -0.292534 -4.60372 0
M  V30 4381 H 414.003 -0.344325 -4.32431 0
M  V30 4382 H 414.674 0.833316 -5.45674 0
M  V30 4383 H 417.15 1.76308 -3.76902 0
M  V30 4384 H 416.026 2.72043 -4.76743 0
M  V30 4385 H 416.287 3.16385 -3.08793 0
M  V30 4386 N 415.346 1.54954 0.287554 0
M  V30 4387 C 416.276 1.89839 1.35954 0
M  V30 4388 C 417.257 0.758675 1.52244 0
M  V30 4389 O 418.442 1.01557 1.65529 0
M  V30 4390 C 415.572 2.15753 2.72154 0
M  V30 4391 C 414.526 3.3159 2.70614 0
M  V30 4392 C 413.852 3.42952 4.10229 0
M  V30 4393 C 415.152 4.68359 2.31165 0
M  V30 4394 H 416.846 2.79625 1.07007 0
M  V30 4395 H 414.392 1.3454 0.513316 0
M  V30 4396 H 416.345 2.38743 3.47246 0
M  V30 4397 H 415.069 1.22752 3.02654 0
M  V30 4398 H 413.728 3.08545 1.97979 0
M  V30 4399 H 413.376 2.47443 4.37928 0
M  V30 4400 H 413.076 4.20826 4.10097 0
M  V30 4401 H 414.6 3.68218 4.87081 0
M  V30 4402 H 416.014 4.9099 2.95976 0
M  V30 4403 H 414.411 5.49044 2.42221 0
M  V30 4404 H 415.481 4.68165 1.26291 0
M  V30 4405 N 416.824 -0.551391 1.4764 0
M  V30 4406 C 417.756 -1.67333 1.56628 0
M  V30 4407 C 418.769 -1.56398 0.452045 0
M  V30 4408 O 419.958 -1.6325 0.721926 0
M  V30 4409 C 417.058 -3.05841 1.45994 0
M  V30 4410 C 416.231 -3.42472 2.72088 0
M  V30 4411 C 415.29 -4.60168 2.55209 0
M  V30 4412 O 414.316 -4.64458 3.2904 0
M  V30 4413 N 415.518 -5.57024 1.63416 0
M  V30 4414 H 418.283 -1.60066 2.53375 0
M  V30 4415 H 415.844 -0.738169 1.44093 0
M  V30 4416 H 417.836 -3.8242 1.32428 0
M  V30 4417 H 416.406 -3.07302 0.573071 0
M  V30 4418 H 415.626 -2.55284 3.00373 0
M  V30 4419 H 416.914 -3.63723 3.55785 0
M  V30 4420 H 416.312 -5.56319 1.02594 0
M  V30 4421 H 414.869 -6.32906 1.558 0
M  V30 4422 N 418.302 -1.35869 -0.798587 0
M  V30 4423 C 419.212 -1.31578 -1.94228 0
M  V30 4424 C 420.228 -0.21939 -1.72611 0
M  V30 4425 O 421.404 -0.450167 -1.96305 0
M  V30 4426 C 418.469 -1.09528 -3.28944 0
M  V30 4427 C 417.53 -2.28556 -3.63402 0
M  V30 4428 C 416.763 -2.07549 -4.9169 0
M  V30 4429 O 416.986 -1.046 -5.60727 0
M  V30 4430 O 415.92 -2.95106 -5.24591 0
M  V30 4431 H 419.746 -2.27847 -2.00796 0
M  V30 4432 H 417.331 -1.16322 -0.937526 0
M  V30 4433 H 419.213 -0.991127 -4.09579 0
M  V30 4434 H 417.888 -0.16315 -3.23289 0
M  V30 4435 H 416.795 -2.44538 -2.83112 0
M  V30 4436 H 418.128 -3.20244 -3.73771 0
M  V30 4437 N 419.78 1.02168 -1.19998 0
M  V30 4438 C 421.005 1.79833 -1.03319 0
M  V30 4439 C 421.43 1.83504 0.413281 0
M  V30 4440 O 420.788 1.26635 1.29743 0
M  V30 4441 C 420.836 3.22396 -1.61533 0
M  V30 4442 O 419.94 4.03555 -0.849519 0
M  V30 4443 H 419.281 0.554872 -0.364709 0
M  V30 4444 H 421.811 1.28542 -1.59179 0
M  V30 4445 H 421.821 3.73124 -1.65054 0
M  V30 4446 H 420.496 3.19039 -2.66809 0
M  V30 4447 H 419.073 3.62169 -0.888129 0
M  V30 4448 N 421.258 1.00505 1.21394 0
M  V30 4449 C 422.504 0.688793 1.90745 0
M  V30 4450 C 422.837 -0.778486 1.77914 0
M  V30 4451 O 422.112 -1.56433 1.15581 0
M  V30 4452 C 422.395 1.11063 3.42545 0
M  V30 4453 C 422.248 2.63737 3.64367 0
M  V30 4454 C 423.567 0.673059 4.34923 0
M  V30 4455 H 420.686 0.251702 0.692687 0
M  V30 4456 H 423.328 1.25074 1.43026 0
M  V30 4457 H 421.478 0.632508 3.83317 0
M  V30 4458 H 423.15 3.19313 3.32922 0
M  V30 4459 H 421.393 3.05248 3.08231 0
M  V30 4460 H 422.064 2.88305 4.70727 0
M  V30 4461 H 424.54 1.08392 4.01734 0
M  V30 4462 H 423.416 0.996383 5.39781 0
M  V30 4463 H 423.677 -0.425808 4.40045 0
M  V30 4464 N 422.737 -1.36956 0.779787 0
M  V30 4465 C 423.7 -2.2851 0.177662 0
M  V30 4466 C 424.7 -1.48393 -0.619377 0
M  V30 4467 O 425.89 -1.68505 -0.441785 0
M  V30 4468 C 423.022 -3.32428 -0.755279 0
M  V30 4469 H 424.215 -2.83269 0.984823 0
M  V30 4470 H 421.768 -1.46358 0.548544 0
M  V30 4471 H 422.503 -2.82808 -1.58714 0
M  V30 4472 H 422.288 -3.91659 -0.185817 0
M  V30 4473 H 423.778 -4.00824 -1.17174 0
M  V30 4474 N 424.215 -0.530993 -1.48385 0
M  V30 4475 C 425.162 0.231223 -2.29639 0
M  V30 4476 C 426.132 0.932864 -1.37429 0
M  V30 4477 O 427.317 0.933692 -1.66394 0
M  V30 4478 C 424.457 1.27155 -3.2082 0
M  V30 4479 C 423.57 0.578655 -4.28107 0
M  V30 4480 C 422.705 1.602 -5.06467 0
M  V30 4481 C 421.744 0.892625 -6.05556 0
M  V30 4482 N 420.881 1.86157 -6.76971 0
M  V30 4483 H 425.721 -0.467848 -2.94305 0
M  V30 4484 H 423.258 -0.242556 -1.45086 0
M  V30 4485 H 425.216 1.88703 -3.72085 0
M  V30 4486 H 423.846 1.939 -2.58075 0
M  V30 4487 H 422.898 -0.150782 -3.80101 0
M  V30 4488 H 424.21 0.0217065 -4.98795 0
M  V30 4489 H 423.364 2.29173 -5.61751 0
M  V30 4490 H 422.103 2.19285 -4.35621 0
M  V30 4491 H 421.108 0.188829 -5.49476 0
M  V30 4492 H 422.333 0.307878 -6.78402 0
M  V30 4493 H 420.279 2.44147 -6.08875 0
M  V30 4494 H 420.196 1.35608 -7.43738 0
M  V30 4495 H 421.464 2.54325 -7.36844 0
M  V30 4496 N 425.693 1.55336 -0.266172 0
M  V30 4497 C 426.623 2.25146 0.618981 0
M  V30 4498 C 427.604 1.23845 1.16604 0
M  V30 4499 O 428.789 1.52544 1.20183 0
M  V30 4500 C 425.919 2.96572 1.80728 0
M  V30 4501 C 424.873 4.04726 1.39215 0
M  V30 4502 C 424.199 4.63678 2.66283 0
M  V30 4503 C 425.499 5.19407 0.548942 0
M  V30 4504 H 427.193 2.99377 0.0368116 0
M  V30 4505 H 424.739 1.43991 0.0162651 0
M  V30 4506 H 426.692 3.44116 2.43232 0
M  V30 4507 H 425.416 2.19861 2.41514 0
M  V30 4508 H 424.075 3.57979 0.790351 0
M  V30 4509 H 423.723 3.83646 3.25308 0
M  V30 4510 H 423.423 5.367 2.39222 0
M  V30 4511 H 424.947 5.13967 3.29651 0
M  V30 4512 H 426.361 5.63059 1.07876 0
M  V30 4513 H 424.758 5.98936 0.373593 0
M  V30 4514 H 425.828 4.8295 -0.434394 0
M  V30 4515 N 427.171 -0.0066808 1.57599 0
M  V30 4516 C 428.419 -0.691552 1.899 0
M  V30 4517 C 428.74 -1.74682 0.866672 0
M  V30 4518 O 428.01 -1.95661 -0.0968189 0
M  V30 4519 H 426.59 -0.258416 0.700878 0
M  V30 4520 H 429.252 0.0326655 1.94873 0
M  V30 4521 H 428.348 -1.16702 2.8946 0
M  V30 4522 N 428.649 -1.55105 -0.279332 0
M  V30 4523 C 429.898 -1.74618 -1.00952 0
M  V30 4524 C 430.211 -0.551096 -1.87676 0
M  V30 4525 O 431.417 -0.628507 -2.64125 0
M  V30 4526 C 429.873 -3.09025 -1.84476 0
M  V30 4527 C 429.481 -4.36081 -1.0265 0
M  V30 4528 C 431.225 -3.37891 -2.56963 0
M  V30 4529 C 429.132 -5.6153 -1.85576 0
M  V30 4530 H 428.062 -0.650868 -0.38064 0
M  V30 4531 H 430.713 -1.81569 -0.265475 0
M  V30 4532 H 429.095 -2.96095 -2.62952 0
M  V30 4533 H 430.269 -4.59909 -0.286354 0
M  V30 4534 H 428.584 -4.14312 -0.416464 0
M  V30 4535 H 431.181 -4.28822 -3.19399 0
M  V30 4536 H 431.524 -2.57737 -3.26921 0
M  V30 4537 H 432.057 -3.5189 -1.85522 0
M  V30 4538 H 428.796 -6.44413 -1.2005 0
M  V30 4539 H 428.316 -5.41854 -2.57204 0
M  V30 4540 H 429.995 -5.99594 -2.43096 0
M  V30 4541 N 430.127 0.543554 -1.4793 0
M  V30 4542 C 431.09 1.63156 -1.60975 0
M  V30 4543 C 432.09 1.53346 -0.483899 0
M  V30 4544 O 433.28 1.5726 -0.749339 0
M  V30 4545 C 430.412 3.02743 -1.56716 0
M  V30 4546 H 431.605 1.52934 -2.57975 0
M  V30 4547 H 429.158 0.764557 -1.36324 0
M  V30 4548 H 429.893 3.18484 -0.611418 0
M  V30 4549 H 429.678 3.11272 -2.38438 0
M  V30 4550 H 431.168 3.81871 -1.6901 0
M  V30 4551 N 431.605 1.3629 0.791371 0
M  V30 4552 C 432.83 1.33726 1.58531 0
M  V30 4553 C 433.255 -0.0794933 1.87932 0
M  V30 4554 O 432.613 -1.05087 1.47738 0
M  V30 4555 C 432.661 2.16425 2.88431 0
M  V30 4556 O 431.765 1.5554 3.81944 0
M  V30 4557 H 431.106 0.457793 0.480959 0
M  V30 4558 H 433.636 1.79547 0.981031 0
M  V30 4559 H 433.646 2.28933 3.37718 0
M  V30 4560 H 432.321 3.19415 2.66359 0
M  V30 4561 H 430.898 1.51961 3.40532 0
M  V30 4562 N 433.083 -1.0153 1.20538 0
M  V30 4563 C 434.499 -1.27461 0.96051 0
M  V30 4564 C 434.699 -1.98273 -0.359193 0
M  V30 4565 O 433.755 -2.27886 -1.0874 0
M  V30 4566 C 435.068 -2.10837 2.14402 0
M  V30 4567 C 436.616 -2.24099 2.18515 0
M  V30 4568 C 437.091 -3.10852 3.36355 0
M  V30 4569 N 438.582 -3.18441 3.36377 0
M  V30 4570 C 439.317 -3.85795 4.24205 0
M  V30 4571 N 438.813 -4.55264 5.22213 0
M  V30 4572 N 440.606 -3.82331 4.12043 0
M  V30 4573 H 432.757 -0.539907 2.05423 0
M  V30 4574 H 435.02 -0.30092 0.898972 0
M  V30 4575 H 434.726 -1.66144 3.09983 0
M  V30 4576 H 434.6 -3.11576 2.12604 0
M  V30 4577 H 436.987 -2.68016 1.23497 0
M  V30 4578 H 437.068 -1.22865 2.24361 0
M  V30 4579 H 436.712 -2.6764 4.31661 0
M  V30 4580 H 436.642 -4.12177 3.27746 0
M  V30 4581 H 439.133 -2.68978 2.65442 0
M  V30 4582 H 439.446 -5.04331 5.85551 0
M  V30 4583 H 437.791 -4.54085 5.26148 0
M  V30 4584 H 440.982 -3.27207 3.34743 0
M  V30 4585 H 441.155 -4.34547 4.807 0
M  V30 4586 N 434.561 -1.01147 -1.20859 0
M  V30 4587 C 435.524 -0.582224 -2.21682 0
M  V30 4588 C 436.524 0.344887 -1.57058 0
M  V30 4589 O 437.714 0.134281 -1.73682 0
M  V30 4590 C 434.846 0.150496 -3.40568 0
M  V30 4591 H 436.039 -1.47408 -2.61172 0
M  V30 4592 H 433.592 -0.800695 -1.34233 0
M  V30 4593 H 434.327 1.0575 -3.06574 0
M  V30 4594 H 434.112 -0.515444 -3.88697 0
M  V30 4595 H 435.602 0.438344 -4.15293 0
M  V30 4596 N 436.039 1.36541 -0.78704 0
M  V30 4597 C 436.949 2.3387 -0.184896 0
M  V30 4598 C 437.965 1.60927 0.661697 0
M  V30 4599 O 439.141 1.92927 0.57804 0
M  V30 4600 C 436.206 3.40122 0.672145 0
M  V30 4601 C 435.267 4.28867 -0.19267 0
M  V30 4602 C 434.5 5.30045 0.623561 0
M  V30 4603 O 434.723 5.39232 1.8597 0
M  V30 4604 O 433.657 6.01895 0.0247068 0
M  V30 4605 H 437.483 2.87126 -0.989562 0
M  V30 4606 H 435.068 1.38969 -0.548455 0
M  V30 4607 H 436.95 4.05093 1.16094 0
M  V30 4608 H 435.625 2.89169 1.45474 0
M  V30 4609 H 434.532 3.66945 -0.728166 0
M  V30 4610 H 435.865 4.83165 -0.938722 0
M  V30 4611 N 437.518 0.538854 1.48102 0
M  V30 4612 C 438.767 0.0059532 2.01699 0
M  V30 4613 C 439.08 -1.34476 1.42041 0
M  V30 4614 O 440.286 -1.96653 1.87189 0
M  V30 4615 C 438.742 -0.0397627 3.59878 0
M  V30 4616 C 438.35 1.30659 4.28523 0
M  V30 4617 C 440.094 -0.521024 4.2129 0
M  V30 4618 C 438.001 1.22098 5.78659 0
M  V30 4619 H 436.931 -0.00154456 0.753998 0
M  V30 4620 H 439.582 0.683963 1.70277 0
M  V30 4621 H 437.964 -0.783037 3.88181 0
M  V30 4622 H 439.138 2.06613 4.11883 0
M  V30 4623 H 437.453 1.7243 3.79021 0
M  V30 4624 H 440.05 -0.603184 5.31287 0
M  V30 4625 H 440.393 -1.52885 3.8721 0
M  V30 4626 H 440.926 0.166834 3.9745 0
M  V30 4627 H 437.665 2.20424 6.17328 0
M  V30 4628 H 437.185 0.50295 5.97688 0
M  V30 4629 H 438.864 0.915345 6.40492 0
M  V30 4630 N 438.996 -1.55193 0.274407 0
M  V30 4631 C 439.906 -2.26164 -0.623473 0
M  V30 4632 C 440.922 -1.28729 -1.17068 0
M  V30 4633 O 442.098 -1.61663 -1.20112 0
M  V30 4634 C 439.163 -2.96833 -1.7914 0
M  V30 4635 C 438.224 -4.09745 -1.28093 0
M  V30 4636 C 437.457 -4.77034 -2.3932 0
M  V30 4637 O 437.68 -4.4353 -3.5866 0
M  V30 4638 O 436.614 -5.64996 -2.07516 0
M  V30 4639 H 440.44 -3.03661 -0.0485661 0
M  V30 4640 H 438.025 -1.49341 0.0418382 0
M  V30 4641 H 439.907 -3.41248 -2.4724 0
M  V30 4642 H 438.582 -2.22253 -2.35341 0
M  V30 4643 H 437.489 -3.69787 -0.566416 0
M  V30 4644 H 438.822 -4.86224 -0.764683 0
M  V30 4645 N 440.474 -0.00167713 -1.576 0
M  V30 4646 C 441.751 0.719951 -1.81868 0
M  V30 4647 C 442.131 1.91895 -0.879747 0
M  V30 4648 O 441.479 2.28389 0.0711423 0
M  V30 4649 C 441.689 1.12409 -3.30402 0
M  V30 4650 C 443.037 1.52724 -3.96182 0
M  V30 4651 O 444.061 1.21784 -3.34734 0
M  V30 4652 O 442.92 2.10265 -5.04431 0
M  V30 4653 H 440.014 0.350707 -0.748955 0
M  V30 4654 H 442.56 -0.0272597 -1.69678 0
M  V30 4655 H 441.332 0.269532 -3.90371 0
M  V30 4656 H 440.955 1.93035 -3.47596 0
M  V30 4657 N 441.952 1.55251 0.271103 0
M  V30 4658 C 443.198 1.7713 0.999832 0
M  V30 4659 C 443.553 0.56659 1.83868 0
M  V30 4660 O 442.846 -0.44069 1.86463 0
M  V30 4661 C 443.04 3.01879 1.91321 0
M  V30 4662 C 442.869 4.34368 1.16426 0
M  V30 4663 C 441.639 4.97593 0.879169 0
M  V30 4664 C 443.837 5.1131 0.553749 0
M  V30 4665 N 441.819 6.13813 0.103618 0
M  V30 4666 C 443.19 6.19938 -0.0875442 0
M  V30 4667 C 445.245 4.95754 0.461782 0
M  V30 4668 C 443.948 7.14703 -0.811942 0
M  V30 4669 C 445.974 5.90875 -0.249027 0
M  V30 4670 C 445.336 6.98893 -0.879051 0
M  V30 4671 H 441.435 0.700407 0.347784 0
M  V30 4672 H 444.019 1.92744 0.275314 0
M  V30 4673 H 442.19 2.87637 2.60997 0
M  V30 4674 H 443.922 3.12154 2.57569 0
M  V30 4675 H 440.677 4.58538 1.18491 0
M  V30 4676 H 441.101 6.76455 -0.271543 0
M  V30 4677 H 445.743 4.12342 0.934552 0
M  V30 4678 H 443.461 7.97634 -1.29639 0
M  V30 4679 H 447.047 5.80916 -0.320529 0
M  V30 4680 H 445.927 7.71231 -1.42031 0
M  V30 4681 N 443.43 -0.535701 1.48216 0
M  V30 4682 C 444.677 -1.29183 1.55942 0
M  V30 4683 C 445.005 -1.93125 0.230857 0
M  V30 4684 O 444.26 -1.79556 -0.778331 0
M  V30 4685 C 444.559 -2.4068 2.64212 0
M  V30 4686 C 444.225 -1.94428 4.06827 0
M  V30 4687 C 442.887 -1.81532 4.45645 0
M  V30 4688 C 445.239 -1.59405 4.96225 0
M  V30 4689 C 442.567 -1.31939 5.71672 0
M  V30 4690 C 444.919 -1.11276 6.22736 0
M  V30 4691 C 443.583 -0.969924 6.60416 0
M  V30 4692 H 442.853 -0.472715 0.570632 0
M  V30 4693 H 445.5 -0.598437 1.81909 0
M  V30 4694 H 443.805 -3.15666 2.32083 0
M  V30 4695 H 445.502 -2.98822 2.67407 0
M  V30 4696 H 442.092 -2.05415 3.76168 0
M  V30 4697 H 446.276 -1.68231 4.66917 0
M  V30 4698 H 441.532 -1.19562 5.99596 0
M  V30 4699 H 445.706 -0.832453 6.91407 0
M  V30 4700 H 443.333 -0.583436 7.57958 0
M  V30 4701 N 444.908 -1.36708 -0.784132 0
M  V30 4702 C 446.136 -1.34398 -1.57305 0
M  V30 4703 C 446.551 0.0735577 -1.88657 0
M  V30 4704 O 445.908 1.03193 -1.50524 0
M  V30 4705 C 445.959 -2.17053 -2.89085 0
M  V30 4706 O 445.68 -3.53281 -2.59083 0
M  V30 4707 C 447.181 -2.22583 -3.83369 0
M  V30 4708 H 444.401 -0.460819 -0.487736 0
M  V30 4709 H 446.945 -1.79879 -0.972819 0
M  V30 4710 H 445.1 -1.75113 -3.45564 0
M  V30 4711 H 445.514 -3.9647 -3.43383 0
M  V30 4712 H 446.988 -2.84763 -4.72878 0
M  V30 4713 H 447.465 -1.23075 -4.21603 0
M  V30 4714 H 448.071 -2.64781 -3.32823 0
M  V30 4715 N 446.386 1.0089 -1.21074 0
M  V30 4716 C 447.349 2.0775 -0.968129 0
M  V30 4717 C 448.349 1.6069 0.0593445 0
M  V30 4718 O 449.539 1.73293 -0.177525 0
M  V30 4719 C 446.671 3.37794 -0.459108 0
M  V30 4720 H 447.864 2.30707 -1.9161 0
M  V30 4721 H 445.417 1.17807 -1.02719 0
M  V30 4722 H 446.152 3.20516 0.49397 0
M  V30 4723 H 445.937 3.7328 -1.20019 0
M  V30 4724 H 447.427 4.16454 -0.309099 0
M  V30 4725 N 447.864 1.01787 1.20321 0
M  V30 4726 C 448.774 0.598898 2.26827 0
M  V30 4727 C 449.79 -0.36418 1.70146 0
M  V30 4728 O 450.966 -0.224812 2.00141 0
M  V30 4729 C 448.031 -0.0549769 3.46656 0
M  V30 4730 C 447.092 0.954205 4.18561 0
M  V30 4731 C 446.325 0.331439 5.3267 0
M  V30 4732 O 446.548 -0.86851 5.63749 0
M  V30 4733 O 445.482 1.0488 5.92692 0
M  V30 4734 H 449.308 1.48562 2.64883 0
M  V30 4735 H 446.893 0.787434 1.26964 0
M  V30 4736 H 448.775 -0.420102 4.19301 0
M  V30 4737 H 447.45 -0.915876 3.10473 0
M  V30 4738 H 446.357 1.37072 3.48083 0
M  V30 4739 H 447.69 1.78511 4.58688 0
M  V30 4740 N 449.342 -1.36122 0.79427 0
M  V30 4741 C 450.57 -2.03362 0.380989 0
M  V30 4742 C 450.985 -1.59881 -1.00416 0
M  V30 4743 O 450.342 -0.790515 -1.6449 0
M  V30 4744 C 450.393 -3.58804 0.440649 0
M  V30 4745 O 450.114 -4.007 1.77118 0
M  V30 4746 C 451.615 -4.43296 0.0186117 0
M  V30 4747 H 448.835 -0.652526 0.156367 0
M  V30 4748 H 451.379 -1.73998 1.07447 0
M  V30 4749 H 449.534 -3.8686 -0.204458 0
M  V30 4750 H 449.948 -4.95309 1.72538 0
M  V30 4751 H 451.422 -5.51887 0.111488 0
M  V30 4752 H 451.899 -4.2684 -1.03461 0
M  V30 4753 H 452.505 -4.20512 0.636395 0
M  V30 4754 N 450.82 -0.546701 -1.47814 0
M  V30 4755 C 451.75 0.195317 -2.32682 0
M  V30 4756 C 452.731 0.918981 -1.43139 0
M  V30 4757 O 453.916 0.901501 -1.72008 0
M  V30 4758 C 451.046 1.23237 -3.247 0
M  V30 4759 C 450 0.625818 -4.234 0
M  V30 4760 C 449.326 1.76674 -5.04669 0
M  V30 4761 C 450.626 -0.413515 -5.2066 0
M  V30 4762 H 452.32 -0.513184 -2.94969 0
M  V30 4763 H 449.866 -0.248241 -1.41844 0
M  V30 4764 H 451.819 1.75955 -3.82907 0
M  V30 4765 H 450.543 1.97067 -2.60446 0
M  V30 4766 H 449.202 0.120023 -3.66403 0
M  V30 4767 H 448.85 2.49383 -4.36826 0
M  V30 4768 H 448.55 1.36673 -5.71484 0
M  V30 4769 H 450.074 2.29738 -5.65732 0
M  V30 4770 H 451.488 0.0272042 -5.73294 0
M  V30 4771 H 449.885 -0.731825 -5.95621 0
M  V30 4772 H 450.955 -1.31325 -4.66778 0
M  V30 4773 N 452.299 1.55045 -0.282633 0
M  V30 4774 C 453.547 1.99365 0.331334 0
M  V30 4775 C 453.868 1.1725 1.55812 0
M  V30 4776 O 453.138 0.263871 1.94115 0
M  V30 4777 H 451.718 0.736397 0.125414 0
M  V30 4778 H 454.38 1.90964 -0.389711 0
M  V30 4779 H 453.476 3.0596 0.616036 0
M  V30 4780 N 453.777 0.010035 1.57597 0
M  V30 4781 C 455.023 -0.673697 1.91283 0
M  V30 4782 C 455.356 -1.72863 0.884979 0
M  V30 4783 O 454.631 -1.94268 -0.0949487 0
M  V30 4784 C 454.914 -1.30766 3.35518 0
M  V30 4785 C 454.767 -0.263578 4.49027 0
M  V30 4786 C 456.086 -2.23105 3.79358 0
M  V30 4787 H 453.205 -0.243439 0.695634 0
M  V30 4788 H 455.847 0.0633864 1.89894 0
M  V30 4789 H 453.997 -1.93588 3.36832 0
M  V30 4790 H 455.669 0.365738 4.59848 0
M  V30 4791 H 453.912 0.413077 4.31829 0
M  V30 4792 H 454.583 -0.746398 5.4693 0
M  V30 4793 H 457.059 -1.70289 3.79659 0
M  V30 4794 H 455.935 -2.64424 4.81011 0
M  V30 4795 H 456.196 -3.11433 3.13787 0
M  V30 4796 N 455.255 -1.55392 -0.262866 0
M  V30 4797 C 456.48 -1.80847 -1.01533 0
M  V30 4798 C 456.905 -0.584946 -1.78774 0
M  V30 4799 O 456.263 0.465701 -1.75217 0
M  V30 4800 C 456.311 -3.03866 -1.94159 0
M  V30 4801 O 455.415 -2.79662 -3.03089 0
M  V30 4802 H 454.756 -0.597441 -0.289759 0
M  V30 4803 H 457.286 -2.02553 -0.288698 0
M  V30 4804 H 457.296 -3.32872 -2.35924 0
M  V30 4805 H 455.971 -3.92564 -1.37354 0
M  V30 4806 H 454.548 -2.61781 -2.65566 0
M  V30 4807 N 456.733 0.527833 -1.48498 0
M  V30 4808 C 457.981 1.28101 -1.56316 0
M  V30 4809 C 458.302 1.9352 -0.239781 0
M  V30 4810 O 457.572 1.81433 0.738849 0
M  V30 4811 H 456.152 0.475793 -0.575873 0
M  V30 4812 H 458.814 0.614052 -1.84974 0
M  V30 4813 H 457.91 2.05916 -2.34532 0
M  V30 4814 N 458.211 1.37122 0.776871 0
M  V30 4815 C 459.439 1.3523 1.5659 0
M  V30 4816 C 459.854 -0.0635518 1.88693 0
M  V30 4817 O 459.211 -1.02394 1.51069 0
M  V30 4818 C 459.262 2.18583 2.8793 0
M  V30 4819 O 458.983 3.5465 2.57206 0
M  V30 4820 C 460.484 2.24612 3.82183 0
M  V30 4821 H 457.704 0.4634 0.485285 0
M  V30 4822 H 460.248 1.80392 0.963266 0
M  V30 4823 H 458.403 1.76943 3.4463 0
M  V30 4824 H 458.817 3.98286 3.41275 0
M  V30 4825 H 460.291 2.87267 4.71361 0
M  V30 4826 H 460.768 1.25309 4.20944 0
M  V30 4827 H 461.374 2.66543 3.31414 0
M  V30 4828 N 459.689 -1.00246 1.21608 0
M  V30 4829 C 460.622 -2.08794 0.920892 0
M  V30 4830 C 461.6 -1.62059 -0.132552 0
M  V30 4831 O 462.784 -1.885 -0.0030366 0
M  V30 4832 C 459.911 -3.36525 0.383226 0
M  V30 4833 C 458.957 -4.02172 1.41987 0
M  V30 4834 S 459.79 -4.44256 2.98994 0
M  V30 4835 C 460.946 -5.7517 2.4684 0
M  V30 4836 H 461.179 -2.33511 1.8401 0
M  V30 4837 H 458.712 -1.13562 1.04609 0
M  V30 4838 H 460.67 -4.10423 0.0795871 0
M  V30 4839 H 459.331 -3.09854 -0.514711 0
M  V30 4840 H 458.524 -4.94114 0.993335 0
M  V30 4841 H 458.126 -3.34559 1.67171 0
M  V30 4842 H 460.418 -6.51042 1.87484 0
M  V30 4843 H 461.361 -6.22638 3.37235 0
M  V30 4844 H 461.769 -5.32112 1.88461 0
M  V30 4845 N 461.167 -1.02423 -1.1978 0
M  V30 4846 C 462.444 -0.632802 -1.85081 0
M  V30 4847 C 462.824 0.888745 -1.9148 0
M  V30 4848 O 462.172 1.78357 -1.42832 0
M  V30 4849 C 462.382 -1.28947 -3.24305 0
M  V30 4850 C 463.73 -1.40976 -4.00513 0
M  V30 4851 O 464.754 -1.24628 -3.33686 0
M  V30 4852 O 463.613 -1.67467 -5.20209 0
M  V30 4853 H 460.707 -0.219348 -0.79738 0
M  V30 4854 H 463.253 -1.12209 -1.27307 0
M  V30 4855 H 462.025 -2.3288 -3.14456 0
M  V30 4856 H 461.648 -0.787748 -3.89718 0
M  V30 4857 N 462.645 1.35699 -0.801477 0
M  V30 4858 C 463.575 2.32436 -0.222658 0
M  V30 4859 C 464.556 1.5723 0.649057 0
M  V30 4860 O 465.741 1.85324 0.580387 0
M  V30 4861 C 462.871 3.41469 0.633719 0
M  V30 4862 C 461.825 4.27774 -0.139083 0
M  V30 4863 C 461.151 5.28082 0.838666 0
M  V30 4864 C 462.451 5.04946 -1.33517 0
M  V30 4865 H 464.145 2.81094 -1.03086 0
M  V30 4866 H 461.691 1.35146 -0.497155 0
M  V30 4867 H 463.644 4.08143 1.04868 0
M  V30 4868 H 462.368 2.91408 1.47475 0
M  V30 4869 H 461.027 3.62673 -0.535156 0
M  V30 4870 H 460.675 4.7429 1.67506 0
M  V30 4871 H 460.375 5.86695 0.32594 0
M  V30 4872 H 461.899 5.97628 1.25194 0
M  V30 4873 H 463.313 5.64593 -0.995349 0
M  V30 4874 H 461.71 5.7303 -1.78202 0
M  V30 4875 H 462.78 4.35886 -2.12442 0
M  V30 4876 N 464.123 0.554532 1.47522 0
M  V30 4877 C 465.053 -0.182974 2.32782 0
M  V30 4878 C 466.034 -0.911377 1.43624 0
M  V30 4879 O 467.219 -0.892366 1.72483 0
M  V30 4880 C 464.349 -1.21513 3.25349 0
M  V30 4881 C 463.303 -0.603355 4.23726 0
M  V30 4882 C 462.629 -1.73995 5.05598 0
M  V30 4883 C 463.929 0.441121 5.20434 0
M  V30 4884 H 465.623 0.52882 2.94693 0
M  V30 4885 H 463.169 0.255759 1.41711 0
M  V30 4886 H 465.122 -1.73922 3.83835 0
M  V30 4887 H 463.846 -1.95683 2.61487 0
M  V30 4888 H 462.505 -0.10059 3.66462 0
M  V30 4889 H 462.153 -2.47063 4.38143 0
M  V30 4890 H 461.853 -1.3364 5.72201 0
M  V30 4891 H 463.377 -2.26735 5.66942 0
M  V30 4892 H 464.791 0.00319931 5.733 0
M  V30 4893 H 463.188 0.763402 5.95224 0
M  V30 4894 H 464.258 1.33799 4.66075 0
M  V30 4895 N 465.601 -1.54893 0.290851 0
M  V30 4896 C 466.878 -1.91991 -0.373989 0
M  V30 4897 C 467.258 -1.21694 -1.72493 0
M  V30 4898 O 466.606 -0.34917 -2.25816 0
M  V30 4899 C 466.816 -3.45419 -0.498703 0
M  V30 4900 C 468.164 -4.1748 -0.774298 0
M  V30 4901 O 469.188 -3.51398 -0.582908 0
M  V30 4902 O 468.047 -5.3445 -1.14129 0
M  V30 4903 H 465.141 -0.800593 -0.207315 0
M  V30 4904 H 467.687 -1.66297 0.338164 0
M  V30 4905 H 466.459 -3.88688 0.451392 0
M  V30 4906 H 466.082 -3.77117 -1.25972 0
M  V30 4907 N 467.08 -0.0183926 -1.57589 0
M  V30 4908 C 468.326 0.657813 -1.92469 0
M  V30 4909 C 468.681 1.70349 -0.894375 0
M  V30 4910 O 467.974 1.91384 0.0910389 0
M  V30 4911 C 468.168 1.32676 -3.31861 0
M  V30 4912 C 467.997 0.347403 -4.48356 0
M  V30 4913 C 466.767 -0.0488653 -5.05276 0
M  V30 4914 C 468.965 -0.393931 -5.12789 0
M  V30 4915 N 466.947 -1.02451 -6.05291 0
M  V30 4916 C 468.318 -1.22367 -6.07804 0
M  V30 4917 C 470.373 -0.455789 -4.95809 0
M  V30 4918 C 469.076 -2.10966 -6.87667 0
M  V30 4919 C 471.102 -1.32908 -5.76272 0
M  V30 4920 C 470.464 -2.14662 -6.70894 0
M  V30 4921 H 466.563 0.21335 -0.752334 0
M  V30 4922 H 469.147 -0.0830547 -1.94523 0
M  V30 4923 H 467.318 2.03782 -3.30647 0
M  V30 4924 H 469.05 1.95913 -3.54119 0
M  V30 4925 H 465.805 0.323356 -4.72495 0
M  V30 4926 H 466.229 -1.50826 -6.59985 0
M  V30 4927 H 470.871 0.162017 -4.22489 0
M  V30 4928 H 468.589 -2.73807 -7.603 0
M  V30 4929 H 472.175 -1.38109 -5.6517 0
M  V30 4930 H 471.055 -2.81143 -7.32071 0
M  V30 4931 N 468.558 1.5553 0.254621 0
M  V30 4932 C 469.783 1.81383 1.00573 0
M  V30 4933 C 470.208 0.594419 1.78461 0
M  V30 4934 O 469.566 -0.456403 1.75461 0
M  V30 4935 C 469.614 3.04892 1.92545 0
M  V30 4936 O 468.718 2.81266 3.01601 0
M  V30 4937 H 468.059 0.598969 0.286587 0
M  V30 4938 H 470.589 2.02703 0.277952 0
M  V30 4939 H 470.599 3.34119 2.34155 0
M  V30 4940 H 469.274 3.93287 1.3527 0
M  V30 4941 H 467.851 2.63185 2.64174 0
M  V30 4942 N 470.036 -0.519951 1.48776 0
M  V30 4943 C 471.261 -1.30447 1.6124 0
M  V30 4944 C 471.686 -1.86055 0.276591 0
M  V30 4945 O 471.044 -1.64915 -0.753183 0
M  V30 4946 C 471.092 -2.42406 2.66967 0
M  V30 4947 O 470.196 -3.45728 2.24824 0
M  V30 4948 H 469.537 -0.385924 0.540332 0
M  V30 4949 H 472.067 -0.624572 1.94834 0
M  V30 4950 H 472.077 -2.88447 2.88552 0
M  V30 4951 H 470.752 -2.01294 3.63941 0
M  V30 4952 H 469.329 -3.05737 2.13494 0
M  V30 4953 N 471.514 -1.37532 -0.769588 0
M  V30 4954 C 472.444 -1.36172 -1.89682 0
M  V30 4955 C 473.425 -0.23001 -1.68538 0
M  V30 4956 O 474.61 -0.43069 -1.89364 0
M  V30 4957 C 471.74 -1.1701 -3.26995 0
M  V30 4958 C 470.694 -2.27216 -3.62708 0
M  V30 4959 C 470.02 -1.93174 -4.98586 0
M  V30 4960 C 471.32 -3.6941 -3.69234 0
M  V30 4961 H 473.014 -2.30499 -1.91078 0
M  V30 4962 H 470.56 -1.10953 -0.917902 0
M  V30 4963 H 472.513 -1.14688 -4.05493 0
M  V30 4964 H 471.237 -0.191395 -3.26039 0
M  V30 4965 H 469.896 -2.28697 -2.86519 0
M  V30 4966 H 469.544 -0.938281 -4.94171 0
M  V30 4967 H 469.244 -2.66973 -5.23449 0
M  V30 4968 H 470.768 -1.92443 -5.79481 0
M  V30 4969 H 472.182 -3.70047 -4.37879 0
M  V30 4970 H 470.579 -4.4228 -4.05597 0
M  V30 4971 H 471.649 -4.0288 -2.69844 0
M  V30 4972 N 472.992 0.995999 -1.22138 0
M  V30 4973 C 474.241 1.72928 -1.03821 0
M  V30 4974 C 474.554 1.90872 0.427444 0
M  V30 4975 O 475.76 2.61496 0.730212 0
M  V30 4976 C 474.216 3.11124 -1.80913 0
M  V30 4977 C 473.824 3.01122 -3.31707 0
M  V30 4978 C 475.568 3.8852 -1.71035 0
M  V30 4979 C 473.475 4.34453 -4.01253 0
M  V30 4980 H 472.405 0.648376 -0.384869 0
M  V30 4981 H 475.056 1.11213 -1.45959 0
M  V30 4982 H 473.438 3.73503 -1.31573 0
M  V30 4983 H 474.612 2.47926 -3.88419 0
M  V30 4984 H 472.927 2.3721 -3.42228 0
M  V30 4985 H 475.524 4.872 -2.20318 0
M  V30 4986 H 475.867 4.1087 -0.670196 0
M  V30 4987 H 476.4 3.32812 -2.17902 0
M  V30 4988 H 473.139 4.17303 -5.05508 0
M  V30 4989 H 472.659 4.87574 -3.49331 0
M  V30 4990 H 474.338 5.03215 -4.06674 0
M  V30 4991 N 474.47 1.03057 1.19235 0
M  V30 4992 C 475.747 0.642608 1.84743 0
M  V30 4993 C 476.127 -0.878577 1.91948 0
M  V30 4994 O 475.475 -1.77597 1.43776 0
M  V30 4995 C 475.685 1.30665 3.23616 0
M  V30 4996 C 477.033 1.43098 3.9976 0
M  V30 4997 O 478.057 1.26396 3.3302 0
M  V30 4998 O 476.916 1.70223 5.19313 0
M  V30 4999 H 474.01 0.223573 0.796206 0
M  V30 5000 H 476.556 1.12883 1.26711 0
M  V30 5001 H 475.328 2.34544 3.13217 0
M  V30 5002 H 474.951 0.808405 3.89295 0
M  V30 5003 N 475.948 -1.35272 0.808662 0
M  V30 5004 C 477.173 -2.03477 0.401475 0
M  V30 5005 C 477.598 -1.60537 -0.980279 0
M  V30 5006 O 476.956 -0.78304 -1.63518 0
M  V30 5007 C 477.004 -3.57181 0.495354 0
M  V30 5008 O 476.108 -4.09474 -0.490397 0
M  V30 5009 H 475.449 -0.642561 0.167366 0
M  V30 5010 H 477.979 -1.72824 1.09512 0
M  V30 5011 H 477.989 -4.06356 0.365912 0
M  V30 5012 H 476.664 -3.87784 1.5032 0
M  V30 5013 H 475.241 -3.71516 -0.321023 0
M  V30 5014 N 477.426 -0.562348 -1.47226 0
M  V30 5015 C 478.842 -0.222492 -1.58042 0
M  V30 5016 C 479.042 1.27505 -1.56028 0
M  V30 5017 O 478.098 2.05555 -1.46641 0
M  V30 5018 C 479.411 -0.853694 -2.88327 0
M  V30 5019 C 480.959 -0.825397 -3.01921 0
M  V30 5020 C 481.434 -1.43576 -4.34914 0
M  V30 5021 N 482.925 -1.39918 -4.41562 0
M  V30 5022 C 483.66 -1.84103 -5.43041 0
M  V30 5023 N 483.156 -2.36167 -6.51304 0
M  V30 5024 N 484.949 -1.75142 -5.34118 0
M  V30 5025 H 477.1 -1.53525 -1.46778 0
M  V30 5026 H 479.363 -0.640527 -0.698877 0
M  V30 5027 H 479.069 -1.90635 -2.95552 0
M  V30 5028 H 478.943 -0.34977 -3.75575 0
M  V30 5029 H 481.33 0.218583 -2.94289 0
M  V30 5030 H 481.411 -1.36713 -2.16202 0
M  V30 5031 H 481.055 -2.47884 -4.43301 0
M  V30 5032 H 480.985 -0.869427 -5.19373 0
M  V30 5033 H 483.476 -1.0184 -3.63919 0
M  V30 5034 H 483.789 -2.67793 -7.24919 0
M  V30 5035 H 482.134 -2.40181 -6.52179 0
M  V30 5036 H 485.325 -1.34241 -4.48439 0
M  V30 5037 H 485.498 -2.09895 -6.13065 0
M  V30 5038 N 478.904 1.54736 -0.299062 0
M  V30 5039 C 480.132 2.04512 0.313447 0
M  V30 5040 C 480.547 1.17643 1.47667 0
M  V30 5041 O 479.904 0.20164 1.81383 0
M  V30 5042 C 479.955 3.53171 0.771542 0
M  V30 5043 O 479.676 4.36736 -0.345379 0
M  V30 5044 C 481.177 4.18936 1.4494 0
M  V30 5045 H 478.397 0.667507 0.0683784 0
M  V30 5046 H 480.941 1.99752 -0.438129 0
M  V30 5047 H 479.096 3.58298 1.47314 0
M  V30 5048 H 479.51 5.24499 0.0109219 0
M  V30 5049 H 480.984 5.24482 1.72111 0
M  V30 5050 H 481.461 3.68554 2.38883 0
M  V30 5051 H 482.067 4.17879 0.791028 0
M  V30 5052 N 480.382 0.0267497 1.57577 0
M  V30 5053 C 481.329 -0.955894 2.10075 0
M  V30 5054 C 482.299 -1.32453 1.00226 0
M  V30 5055 O 483.484 -1.41826 1.27632 0
M  V30 5056 C 480.624 -2.2338 2.6305 0
M  V30 5057 C 479.737 -1.92183 3.86898 0
M  V30 5058 C 478.872 -3.14251 4.28275 0
M  V30 5059 C 477.911 -2.78862 5.44888 0
M  V30 5060 N 477.048 -3.93548 5.81433 0
M  V30 5061 H 481.888 -0.501303 2.93753 0
M  V30 5062 H 479.425 -0.235847 1.45197 0
M  V30 5063 H 481.383 -2.98124 2.91853 0
M  V30 5064 H 480.013 -2.6646 1.82205 0
M  V30 5065 H 479.065 -1.07692 3.64838 0
M  V30 5066 H 480.377 -1.62117 4.7172 0
M  V30 5067 H 479.531 -3.97317 4.58502 0
M  V30 5068 H 478.27 -3.47476 3.42215 0
M  V30 5069 H 477.275 -1.94208 5.14357 0
M  V30 5070 H 478.5 -2.46855 6.32645 0
M  V30 5071 H 476.446 -4.2662 4.98328 0
M  V30 5072 H 476.363 -3.67098 6.6089 0
M  V30 5073 H 477.631 -4.77325 6.16264 0
M  V30 5074 N 481.861 -1.55662 -0.24637 0
M  V30 5075 C 482.791 -1.93377 -1.30873 0
M  V30 5076 C 483.772 -0.798773 -1.50179 0
M  V30 5077 O 484.957 -1.0591 -1.62778 0
M  V30 5078 C 482.087 -2.22893 -2.66338 0
M  V30 5079 C 481.041 -3.38649 -2.61727 0
M  V30 5080 C 480.367 -3.53708 -4.00992 0
M  V30 5081 C 481.667 -4.74323 -2.18666 0
M  V30 5082 H 483.361 -2.82363 -0.995552 0
M  V30 5083 H 480.907 -1.35854 -0.477464 0
M  V30 5084 H 482.86 -2.47866 -3.40794 0
M  V30 5085 H 481.584 -1.30733 -2.99293 0
M  V30 5086 H 480.243 -3.13685 -1.89729 0
M  V30 5087 H 479.891 -2.58967 -4.31214 0
M  V30 5088 H 479.591 -4.31551 -3.98795 0
M  V30 5089 H 481.115 -3.81003 -4.77147 0
M  V30 5090 H 482.529 -4.98665 -2.82854 0
M  V30 5091 H 480.926 -5.55273 -2.27579 0
M  V30 5092 H 481.996 -4.71349 -1.13834 0
M  V30 5093 N 483.339 0.512053 -1.4905 0
M  V30 5094 C 484.564 1.2959 -1.6193 0
M  V30 5095 C 484.989 1.85906 -0.286454 0
M  V30 5096 O 484.347 1.65312 0.744426 0
M  V30 5097 C 484.395 2.40987 -2.68249 0
M  V30 5098 O 483.499 3.44531 -2.26654 0
M  V30 5099 H 482.84 0.383053 -0.542371 0
M  V30 5100 H 485.37 0.614231 -1.95162 0
M  V30 5101 H 485.38 2.86913 -2.90078 0
M  V30 5102 H 484.055 1.99361 -3.65004 0
M  V30 5103 H 482.632 3.046 -2.15112 0
M  V30 5104 N 484.817 1.37938 0.762283 0
M  V30 5105 C 485.764 1.34467 1.87583 0
M  V30 5106 C 486.734 0.208633 1.64785 0
M  V30 5107 O 487.919 0.399494 1.86571 0
M  V30 5108 C 485.059 1.16692 3.24772 0
M  V30 5109 C 484.172 2.39608 3.59461 0
M  V30 5110 C 483.307 2.14631 4.85908 0
M  V30 5111 C 482.346 3.33364 5.13357 0
M  V30 5112 N 481.483 3.07877 6.30996 0
M  V30 5113 H 486.323 2.29669 1.89885 0
M  V30 5114 H 483.86 1.14116 0.928219 0
M  V30 5115 H 485.818 1.04405 4.03925 0
M  V30 5116 H 484.448 0.251333 3.2182 0
M  V30 5117 H 483.5 2.626 2.75219 0
M  V30 5118 H 484.812 3.28128 3.75678 0
M  V30 5119 H 483.966 1.99429 5.72986 0
M  V30 5120 H 482.705 1.23463 4.71814 0
M  V30 5121 H 481.71 3.49094 4.24751 0
M  V30 5122 H 482.935 4.25395 5.29354 0
M  V30 5123 H 480.881 2.19348 6.18241 0
M  V30 5124 H 480.798 3.89944 6.47673 0
M  V30 5125 H 482.066 2.96313 7.20985 0
M  V30 5126 N 486.295 -0.989507 1.22664 0
M  V30 5127 C 487.245 -2.06478 0.967005 0
M  V30 5128 C 488.229 -1.60682 -0.0836374 0
M  V30 5129 O 489.421 -1.76541 0.127322 0
M  V30 5130 C 486.55 -3.38861 0.550313 0
M  V30 5131 C 485.636 -3.9128 1.63587 0
M  V30 5132 N 486.027 -4.16884 2.86429 0
M  V30 5133 C 484.325 -4.1972 1.50834 0
M  V30 5134 C 485.026 -4.5954 3.56648 0
M  V30 5135 N 484.002 -4.63434 2.84131 0
M  V30 5136 H 487.804 -2.24219 1.90008 0
M  V30 5137 H 485.318 -1.17153 1.12467 0
M  V30 5138 H 487.315 -4.15465 0.345612 0
M  V30 5139 H 485.975 -3.22518 -0.375822 0
M  V30 5140 H 486.986 -4.04976 3.22823 0
M  V30 5141 H 483.663 -4.1243 0.648643 0
M  V30 5142 H 485.053 -4.87944 4.61909 0
M  V30 5143 N 487.773 -1.03688 -1.18687 0
M  V30 5144 C 488.703 -0.645407 -2.24403 0
M  V30 5145 C 489.684 0.349511 -1.66471 0
M  V30 5146 O 490.869 0.230453 -1.92828 0
M  V30 5147 C 487.999 -0.00365337 -3.473 0
M  V30 5148 C 486.953 -0.921705 -4.17958 0
M  V30 5149 C 486.279 -0.144629 -5.34504 0
M  V30 5150 C 487.579 -2.23909 -4.71871 0
M  V30 5151 H 489.273 -1.52917 -2.57404 0
M  V30 5152 H 486.819 -0.736711 -1.23728 0
M  V30 5153 H 488.772 0.281908 -4.20456 0
M  V30 5154 H 487.496 0.914963 -3.13522 0
M  V30 5155 H 486.155 -1.19159 -3.46694 0
M  V30 5156 H 485.803 0.776274 -4.96974 0
M  V30 5157 H 485.503 -0.756206 -5.82714 0
M  V30 5158 H 487.027 0.134004 -6.10453 0
M  V30 5159 H 488.441 -2.0145 -5.36741 0
M  V30 5160 H 486.838 -2.8033 -5.30599 0
M  V30 5161 H 487.908 -2.88822 -3.895 0
M  V30 5162 N 489.251 1.34841 -0.815825 0
M  V30 5163 C 490.497 1.98793 -0.401129 0
M  V30 5164 C 490.83 1.64548 1.03139 0
M  V30 5165 O 490.105 0.913487 1.71714 0
M  V30 5166 C 490.388 3.55143 -0.595409 0
M  V30 5167 C 490.241 3.99155 -2.07352 0
M  V30 5168 C 491.56 4.40092 -0.0268823 0
M  V30 5169 H 488.679 0.722146 -0.14722 0
M  V30 5170 H 491.321 1.59847 -1.02707 0
M  V30 5171 H 489.471 3.8845 -0.0625779 0
M  V30 5172 H 491.143 3.76216 -2.66945 0
M  V30 5173 H 489.386 3.49726 -2.56659 0
M  V30 5174 H 490.057 5.07971 -2.1603 0
M  V30 5175 H 492.533 4.13298 -0.482042 0
M  V30 5176 H 491.409 5.48562 -0.19267 0
M  V30 5177 H 491.67 4.29016 1.06759 0
M  V30 5178 N 490.729 0.570148 1.46925 0
M  V30 5179 C 491.975 0.0510284 2.02736 0
M  V30 5180 C 492.308 -1.3006 1.44215 0
M  V30 5181 O 491.583 -1.84932 0.602521 0
M  V30 5182 C 491.866 -0.028215 3.60089 0
M  V30 5183 C 491.719 1.35142 4.29018 0
M  V30 5184 C 493.038 -0.735181 4.33916 0
M  V30 5185 H 490.157 0.0200178 0.736728 0
M  V30 5186 H 492.799 0.73493 1.75211 0
M  V30 5187 H 490.949 -0.610648 3.83671 0
M  V30 5188 H 492.621 1.97806 4.16738 0
M  V30 5189 H 490.864 1.9226 3.88868 0
M  V30 5190 H 491.535 1.24857 5.37694 0
M  V30 5191 H 494.011 -0.240519 4.15404 0
M  V30 5192 H 492.887 -0.759622 5.43618 0
M  V30 5193 H 493.148 -1.79397 4.04066 0
M  V30 5194 N 492.207 -1.54576 0.307264 0
M  V30 5195 C 493.618 -1.8579 -0.184121 0
M  V30 5196 C 493.969 -1.22914 -1.52927 0
M  V30 5197 O 493.094 -0.529126 -2.09831 0
M  V30 5198 C 493.689 -3.37081 -0.340862 0
M  V30 5199 C 492.248 -3.68304 -0.776465 0
M  V30 5200 C 491.395 -2.77076 0.111503 0
M  V30 5201 H 494.346 -1.49656 0.528078 0
M  V30 5202 H 494.367 -3.61922 -1.17443 0
M  V30 5203 H 493.879 -3.82815 0.638309 0
M  V30 5204 H 491.98 -3.28092 -1.76596 0
M  V30 5205 H 492.093 -4.75434 -0.591512 0
M  V30 5206 H 490.457 -2.51374 -0.410256 0
M  V30 5207 H 491.24 -3.25632 1.08714 0
M  V30 5208 N 493.685 -0.035106 -1.57561 0
M  V30 5209 C 494.633 0.962707 -2.11742 0
M  V30 5210 C 495.627 1.33296 -1.0454 0
M  V30 5211 O 496.833 1.31449 -1.22968 0
M  V30 5212 H 493.208 0.32826 -0.676572 0
M  V30 5213 H 495.179 0.48048 -2.94506 0
M  V30 5214 C 493.928 2.23388 -2.66445 0
M  V30 5215 H 493.251 1.95774 -3.48587 0
M  V30 5216 H 494.691 2.91402 -3.07995 0
M  V30 5217 C 493.15 2.96769 -1.59467 0
M  V30 5218 O 493.68 3.89105 -0.998 0
M  V30 5219 N 491.886 2.59212 -1.31369 0
M  V30 5220 H 491.433 1.84202 -1.80076 0
M  V30 5221 H 491.391 3.08618 -0.600173 0
M  V30 5222 N 495.163 1.55791 0.238111 0
M  V30 5223 C 496.126 1.90239 1.27835 0
M  V30 5224 C 497.126 0.779552 1.4064 0
M  V30 5225 O 498.316 1.04747 1.3919 0
M  V30 5226 C 495.448 2.13859 2.65475 0
M  V30 5227 H 496.641 2.83262 0.985034 0
M  V30 5228 H 494.194 1.48818 0.477799 0
M  V30 5229 H 494.929 1.23334 2.99932 0
M  V30 5230 H 494.714 2.95643 2.57561 0
M  V30 5231 H 496.204 2.41664 3.40571 0
M  V30 5232 N 496.642 -0.504142 1.49319 0
M  V30 5233 C 497.574 -1.62265 1.61872 0
M  V30 5234 C 498.587 -1.54881 0.501573 0
M  V30 5235 O 499.776 -1.6087 0.773497 0
M  V30 5236 C 496.876 -3.01042 1.55651 0
M  V30 5237 C 496.049 -3.33642 2.82845 0
M  V30 5238 C 495.108 -4.51816 2.69719 0
M  V30 5239 O 494.134 -4.53755 3.4365 0
M  V30 5240 N 495.336 -5.51543 1.81055 0
M  V30 5241 H 498.101 -1.51924 2.58339 0
M  V30 5242 H 495.662 -0.691954 1.46368 0
M  V30 5243 H 497.654 -3.78013 1.44528 0
M  V30 5244 H 496.224 -3.05323 0.670546 0
M  V30 5245 H 495.444 -2.45598 3.08343 0
M  V30 5246 H 496.732 -3.5222 3.67177 0
M  V30 5247 H 496.13 -5.52774 1.20241 0
M  V30 5248 H 494.687 -6.27629 1.75856 0
M  V30 5249 N 498.12 -1.38341 -0.754957 0
M  V30 5250 C 499.348 -1.37704 -1.54419 0
M  V30 5251 C 499.763 0.0335243 -1.8877 0
M  V30 5252 O 499.12 0.999773 -1.52679 0
M  V30 5253 C 499.171 -2.23136 -2.84416 0
M  V30 5254 O 498.892 -3.58697 -2.51531 0
M  V30 5255 C 500.393 -2.30664 -3.78562 0
M  V30 5256 H 497.613 -0.471061 -0.477852 0
M  V30 5257 H 500.157 -1.81902 -0.934446 0
M  V30 5258 H 498.312 -1.82403 -3.41772 0
M  V30 5259 H 498.726 -4.03665 -3.34896 0
M  V30 5260 H 500.2 -2.9473 -4.66732 0
M  V30 5261 H 500.677 -1.3199 -4.18898 0
M  V30 5262 H 501.283 -2.71781 -3.27131 0
M  V30 5263 N 499.598 0.982988 -1.23187 0
M  V30 5264 C 500.846 1.72052 -1.06031 0
M  V30 5265 C 501.167 1.90769 0.404019 0
M  V30 5266 O 500.437 1.47446 1.28982 0
M  V30 5267 H 499.017 0.637499 -0.389363 0
M  V30 5268 H 501.679 1.18338 -1.54862 0
M  V30 5269 H 500.775 2.7111 -1.54615 0
M  V30 5270 N 501.076 1.04316 1.18135 0
M  V30 5271 C 502.008 0.594444 2.21357 0
M  V30 5272 C 503.021 -0.337215 1.59269 0
M  V30 5273 O 504.21 -0.131337 1.78016 0
M  V30 5274 C 501.31 -0.151251 3.38562 0
M  V30 5275 C 500.483 0.788907 4.30227 0
M  V30 5276 C 499.542 0.0860572 5.2613 0
M  V30 5277 O 498.568 0.717302 5.64662 0
M  V30 5278 N 499.77 -1.17969 5.68387 0
M  V30 5279 H 502.535 1.48227 2.60478 0
M  V30 5280 H 500.096 0.92396 1.32946 0
M  V30 5281 H 502.088 -0.631352 3.99745 0
M  V30 5282 H 500.658 -0.940639 2.98112 0
M  V30 5283 H 499.878 1.44882 3.6661 0
M  V30 5284 H 501.166 1.42738 4.88368 0
M  V30 5285 H 500.564 -1.71302 5.3914 0
M  V30 5286 H 499.121 -1.60402 6.31755 0
M  V30 5287 N 502.554 -1.34406 0.822964 0
M  V30 5288 C 503.484 -2.32052 0.259608 0
M  V30 5289 C 504.465 -1.58243 -0.623961 0
M  V30 5290 O 505.65 -1.86224 -0.55083 0
M  V30 5291 C 502.78 -3.42434 -0.579314 0
M  V30 5292 C 501.734 -4.27499 0.20712 0
M  V30 5293 C 501.06 -5.29349 -0.754547 0
M  V30 5294 C 502.36 -5.02758 1.41533 0
M  V30 5295 H 504.054 -2.79418 1.07545 0
M  V30 5296 H 501.6 -1.34338 0.518593 0
M  V30 5297 H 503.553 -4.0976 -0.983612 0
M  V30 5298 H 502.277 -2.93717 -1.4282 0
M  V30 5299 H 500.936 -3.61776 0.592787 0
M  V30 5300 H 500.584 -4.76895 -1.59939 0
M  V30 5301 H 500.284 -5.8714 -0.232561 0
M  V30 5302 H 501.808 -5.99544 -1.1567 0
M  V30 5303 H 503.222 -5.62938 1.08504 0
M  V30 5304 H 501.619 -5.70123 1.87296 0
M  V30 5305 H 502.689 -4.32451 2.1935 0
M  V30 5306 N 504.032 -0.577932 -1.46621 0
M  V30 5307 C 504.942 0.160651 -2.34049 0
M  V30 5308 C 505.958 0.890911 -1.49462 0
M  V30 5309 O 507.134 0.855166 -1.82343 0
M  V30 5310 C 504.199 1.16447 -3.26559 0
M  V30 5311 C 503.26 0.4394 -4.27045 0
M  V30 5312 C 502.493 1.3954 -5.15135 0
M  V30 5313 O 502.716 2.63162 -5.06065 0
M  V30 5314 O 501.65 0.908585 -5.95003 0
M  V30 5315 H 505.476 -0.557057 -2.98547 0
M  V30 5316 H 503.061 -0.338369 -1.45518 0
M  V30 5317 H 504.943 1.7434 -3.83645 0
M  V30 5318 H 503.618 1.86373 -2.64663 0
M  V30 5319 H 502.525 -0.181247 -3.73661 0
M  V30 5320 H 503.858 -0.218799 -4.91713 0
M  V30 5321 N 505.51 1.54411 -0.315457 0
M  V30 5322 C 506.921 1.85885 0.174265 0
M  V30 5323 C 507.272 1.23723 1.52273 0
M  V30 5324 O 506.397 0.540246 2.09548 0
M  V30 5325 C 506.992 3.37257 0.322981 0
M  V30 5326 C 505.551 3.68711 0.756922 0
M  V30 5327 C 504.698 2.77013 -0.126195 0
M  V30 5328 H 507.649 1.49374 -0.536007 0
M  V30 5329 H 507.67 3.62539 1.15522 0
M  V30 5330 H 507.182 3.82471 -0.658602 0
M  V30 5331 H 505.283 3.29024 1.74854 0
M  V30 5332 H 505.396 4.75741 0.566291 0
M  V30 5333 H 503.76 2.51588 0.39692 0
M  V30 5334 H 504.543 3.25051 -1.1044 0
M  V30 5335 N 506.988 0.0434614 1.5754 0
M  V30 5336 C 507.918 -0.931651 2.14109 0
M  V30 5337 C 508.899 -1.32971 1.06079 0
M  V30 5338 O 510.084 -1.40579 1.33982 0
M  V30 5339 C 507.214 -2.20914 2.67982 0
M  V30 5340 C 506.168 -1.95139 3.80926 0
M  V30 5341 C 505.494 -3.29276 4.21285 0
M  V30 5342 C 506.794 -1.27913 5.06395 0
M  V30 5343 H 508.488 -0.460497 2.95837 0
M  V30 5344 H 506.034 -0.220058 1.42309 0
M  V30 5345 H 507.987 -2.89522 3.06194 0
M  V30 5346 H 506.711 -2.70221 1.83434 0
M  V30 5347 H 505.37 -1.28945 3.43175 0
M  V30 5348 H 505.018 -3.76369 3.33699 0
M  V30 5349 H 504.718 -3.12831 4.97404 0
M  V30 5350 H 506.242 -3.99129 4.62091 0
M  V30 5351 H 507.656 -1.86544 5.42102 0
M  V30 5352 H 506.053 -1.2182 5.87605 0
M  V30 5353 H 507.123 -0.254066 4.84234 0
M  V30 5354 N 508.466 -1.55915 -0.229846 0
M  V30 5355 C 509.396 -1.94754 -1.28815 0
M  V30 5356 C 510.377 -0.814657 -1.49323 0
M  V30 5357 O 511.562 -1.07631 -1.61645 0
M  V30 5358 C 508.692 -2.25705 -2.63959 0
M  V30 5359 C 507.646 -3.41406 -2.5812 0
M  V30 5360 C 506.972 -3.57941 -3.97218 0
M  V30 5361 C 508.272 -4.76616 -2.13623 0
M  V30 5362 H 509.966 -2.83404 -0.965547 0
M  V30 5363 H 507.512 -1.36353 -0.463028 0
M  V30 5364 H 509.465 -2.51467 -3.38146 0
M  V30 5365 H 508.189 -1.339 -2.9789 0
M  V30 5366 H 506.848 -3.1568 -1.86391 0
M  V30 5367 H 506.496 -2.63526 -4.28443 0
M  V30 5368 H 506.196 -4.35757 -3.94195 0
M  V30 5369 H 507.72 -3.86042 -4.73079 0
M  V30 5370 H 509.134 -5.01637 -2.77549 0
M  V30 5371 H 507.531 -5.57655 -2.21677 0
M  V30 5372 H 508.601 -4.7253 -1.08829 0
M  V30 5373 N 509.944 0.496216 -1.49584 0
M  V30 5374 C 511.169 1.27865 -1.63295 0
M  V30 5375 C 511.594 1.85592 -0.306156 0
M  V30 5376 O 510.952 1.66092 0.726851 0
M  V30 5377 C 511 2.38128 -2.7079 0
M  V30 5378 O 510.104 3.42108 -2.30296 0
M  V30 5379 H 509.445 0.377279 -0.546403 0
M  V30 5380 H 511.975 0.593497 -1.95803 0
M  V30 5381 H 511.985 2.8382 -2.93104 0
M  V30 5382 H 510.66 1.95479 -3.67098 0
M  V30 5383 H 509.237 3.02301 -2.18331 0
M  V30 5384 N 511.423 1.38739 0.74761 0
M  V30 5385 C 512.839 1.20067 1.05148 0
M  V30 5386 C 513.039 0.0534835 2.01429 0
M  V30 5387 O 512.095 -0.59886 2.45296 0
M  V30 5388 C 513.408 2.52957 1.62584 0
M  V30 5389 C 514.956 2.59692 1.74726 0
M  V30 5390 C 515.431 3.92772 2.35573 0
M  V30 5391 N 516.922 3.94343 2.42997 0
M  V30 5392 C 517.657 4.9408 2.90985 0
M  V30 5393 N 517.153 6.04214 3.38965 0
M  V30 5394 N 518.946 4.81466 2.9008 0
M  V30 5395 H 511.097 2.12121 0.108808 0
M  V30 5396 H 513.36 0.941491 0.110899 0
M  V30 5397 H 513.066 3.37389 0.993051 0
M  V30 5398 H 512.94 2.71779 2.61565 0
M  V30 5399 H 515.327 1.75651 2.3713 0
M  V30 5400 H 515.408 2.44731 0.744326 0
M  V30 5401 H 515.052 4.77238 1.738 0
M  V30 5402 H 514.982 4.05046 3.36519 0
M  V30 5403 H 517.473 3.14799 2.0907 0
M  V30 5404 H 517.786 6.76241 3.74056 0
M  V30 5405 H 516.131 6.07825 3.37007 0
M  V30 5406 H 519.322 3.94535 2.51912 0
M  V30 5407 H 519.495 5.59344 3.27166 0
M  V30 5408 N 512.901 -0.976442 1.23707 0
M  V30 5409 C 514.148 -1.71827 1.07153 0
M  V30 5410 C 514.476 -1.9053 -0.390982 0
M  V30 5411 O 513.731 -1.45779 -1.30564 0
M  V30 5412 C 514.03 -3.11814 1.74662 0
M  V30 5413 C 513.696 -3.12978 3.24585 0
M  V30 5414 C 512.358 -3.13003 3.6549 0
M  V30 5415 C 514.71 -3.07986 4.20469 0
M  V30 5416 C 512.038 -3.05757 5.00729 0
M  V30 5417 C 514.39 -3.02282 5.55705 0
M  V30 5418 C 513.054 -3.00631 5.95968 0
M  V30 5419 H 512.324 -0.628758 0.392102 0
M  V30 5420 H 514.971 -1.14239 1.53693 0
M  V30 5421 H 513.276 -3.72812 1.20492 0
M  V30 5422 H 514.973 -3.67989 1.59328 0
M  V30 5423 H 511.563 -3.13718 2.92026 0
M  V30 5424 H 515.747 -3.07103 3.89874 0
M  V30 5425 H 511.003 -3.02834 5.31132 0
M  V30 5426 H 515.177 -2.97376 6.29714 0
M  V30 5427 H 512.804 -2.94771 7.00724 0
M  V30 5428 N 514.379 -1.04941 -1.1758 0
M  V30 5429 C 515.607 -0.778294 -1.91703 0
M  V30 5430 C 516.022 0.665697 -1.76675 0
M  V30 5431 O 515.379 1.45456 -1.10222 0
M  V30 5432 C 515.43 -1.14628 -3.42845 0
M  V30 5433 O 515.151 -2.53359 -3.57409 0
M  V30 5434 C 516.652 -0.900931 -4.34049 0
M  V30 5435 H 513.872 -0.283167 -0.608323 0
M  V30 5436 H 516.416 -1.39942 -1.49119 0
M  V30 5437 H 514.571 -0.569953 -3.83184 0
M  V30 5438 H 514.985 -2.67709 -4.51035 0
M  V30 5439 H 516.459 -1.20817 -5.38616 0
M  V30 5440 H 516.936 0.163966 -4.38894 0
M  V30 5441 H 517.542 -1.46097 -3.99419 0
M  V30 5442 N 515.857 1.33968 -0.830081 0
M  V30 5443 C 516.767 2.33164 -0.259207 0
M  V30 5444 C 517.783 1.62951 0.610164 0
M  V30 5445 O 518.959 1.94668 0.516369 0
M  V30 5446 C 516.024 3.42088 0.563598 0
M  V30 5447 C 515.085 4.28037 -0.329014 0
M  V30 5448 C 514.318 5.3176 0.454616 0
M  V30 5449 O 514.541 5.44876 1.6872 0
M  V30 5450 O 513.475 6.01669 -0.166794 0
M  V30 5451 H 517.301 2.83832 -1.08041 0
M  V30 5452 H 514.886 1.37154 -0.59239 0
M  V30 5453 H 516.768 4.08581 1.03147 0
M  V30 5454 H 515.443 2.93651 1.36201 0
M  V30 5455 H 514.35 3.64443 -0.844538 0
M  V30 5456 H 515.683 4.79934 -1.09196 0
M  V30 5457 N 517.335 0.585699 1.46312 0
M  V30 5458 C 518.245 -0.148236 2.34131 0
M  V30 5459 C 519.261 -0.882972 1.49932 0
M  V30 5460 O 520.437 -0.845484 1.82794 0
M  V30 5461 C 517.502 -1.14714 3.27172 0
M  V30 5462 C 516.563 -0.416746 4.27272 0
M  V30 5463 C 515.796 -1.36806 5.15868 0
M  V30 5464 O 516.019 -2.60475 5.07454 0
M  V30 5465 O 514.953 -0.877018 5.95476 0
M  V30 5466 H 518.779 0.572882 2.98248 0
M  V30 5467 H 516.364 0.346082 1.45336 0
M  V30 5468 H 518.246 -1.72303 3.84564 0
M  V30 5469 H 516.921 -1.84967 2.65648 0
M  V30 5470 H 515.828 0.201061 3.73559 0
M  V30 5471 H 517.161 0.244872 4.9159 0
M  V30 5472 N 518.813 -1.54241 0.323641 0
M  V30 5473 C 519.723 -2.28033 -0.551205 0
M  V30 5474 C 520.739 -1.32388 -1.12913 0
M  V30 5475 O 521.915 -1.65403 -1.14908 0
M  V30 5476 C 518.98 -3.02382 -1.69606 0
M  V30 5477 C 518.041 -4.13612 -1.14993 0
M  V30 5478 C 517.274 -4.84407 -2.24022 0
M  V30 5479 O 517.497 -4.54716 -3.44368 0
M  V30 5480 O 516.431 -5.71312 -1.89436 0
M  V30 5481 H 520.257 -3.03662 0.048066 0
M  V30 5482 H 517.842 -1.49133 0.0893289 0
M  V30 5483 H 519.724 -3.48941 -2.36259 0
M  V30 5484 H 518.399 -2.29628 -2.28151 0
M  V30 5485 H 517.306 -3.71402 -0.448484 0
M  V30 5486 H 518.639 -4.8841 -0.609608 0
M  V30 5487 N 520.291 -0.0518155 -1.57515 0
M  V30 5488 C 521.201 0.937539 -2.15052 0
M  V30 5489 C 522.217 1.34121 -1.10849 0
M  V30 5490 O 523.393 1.418 -1.4302 0
M  V30 5491 C 520.458 2.19379 -2.68466 0
M  V30 5492 C 519.519 1.84841 -3.87469 0
M  V30 5493 C 518.752 3.04477 -4.38326 0
M  V30 5494 O 518.975 4.17868 -3.88256 0
M  V30 5495 O 517.909 2.85453 -5.29906 0
M  V30 5496 H 521.735 0.478201 -2.99912 0
M  V30 5497 H 519.32 0.17012 -1.48428 0
M  V30 5498 H 521.202 2.93084 -3.02787 0
M  V30 5499 H 519.877 2.64449 -1.86677 0
M  V30 5500 H 518.784 1.08449 -3.58036 0
M  V30 5501 H 520.117 1.44569 -4.7049 0
M  V30 5502 N 521.769 1.56035 0.221574 0
M  V30 5503 C 522.699 1.95434 1.2778 0
M  V30 5504 C 523.68 0.822564 1.48889 0
M  V30 5505 O 524.865 1.08486 1.61072 0
M  V30 5506 C 521.995 2.27102 2.62759 0
M  V30 5507 C 520.949 3.4277 2.56306 0
M  V30 5508 C 520.275 3.60043 3.95314 0
M  V30 5509 C 521.575 4.77742 2.11093 0
M  V30 5510 H 523.269 2.83912 0.950504 0
M  V30 5511 H 520.815 1.36596 0.455791 0
M  V30 5512 H 522.768 2.53256 3.36807 0
M  V30 5513 H 521.492 1.35478 2.97176 0
M  V30 5514 H 520.151 3.16664 1.84715 0
M  V30 5515 H 519.799 2.65794 4.27039 0
M  V30 5516 H 519.499 4.37841 3.91879 0
M  V30 5517 H 521.023 3.88545 4.71025 0
M  V30 5518 H 522.437 5.03102 2.74885 0
M  V30 5519 H 520.834 5.58823 2.18716 0
M  V30 5520 H 521.904 4.731 1.06321 0
M  V30 5521 N 523.247 -0.488276 1.49845 0
M  V30 5522 C 524.179 -1.60539 1.63584 0
M  V30 5523 C 525.192 -1.5434 0.517972 0
M  V30 5524 O 526.381 -1.60041 0.790516 0
M  V30 5525 C 523.481 -2.99374 1.58835 0
M  V30 5526 C 522.654 -3.30624 2.86368 0
M  V30 5527 C 521.713 -4.4893 2.74496 0
M  V30 5528 O 520.739 -4.50085 3.48443 0
M  V30 5529 N 521.941 -5.49591 1.86894 0
M  V30 5530 H 524.706 -1.49176 2.59936 0
M  V30 5531 H 522.267 -0.67639 1.47094 0
M  V30 5532 H 524.259 -3.76459 1.48529 0
M  V30 5533 H 522.829 -3.04595 0.702892 0
M  V30 5534 H 522.049 -2.42314 3.1093 0
M  V30 5535 H 523.337 -3.48305 3.70892 0
M  V30 5536 H 522.735 -5.51467 1.26097 0
M  V30 5537 H 521.292 -6.25728 1.82503 0
M  V30 5538 N 524.725 -1.39134 -0.740242 0
M  V30 5539 C 525.658 -1.3182 -1.86276 0
M  V30 5540 C 526.636 -0.192794 -1.61453 0
M  V30 5541 O 527.82 -0.372365 -1.84786 0
M  V30 5542 C 524.947 -1.04564 -3.22155 0
M  V30 5543 C 523.993 -2.19224 -3.65846 0
M  V30 5544 S 524.826 -3.81466 -3.75824 0
M  V30 5545 C 525.982 -3.56425 -5.14502 0
M  V30 5546 H 526.215 -2.26822 -1.92195 0
M  V30 5547 H 523.748 -1.25127 -0.904576 0
M  V30 5548 H 525.706 -0.895228 -4.00619 0
M  V30 5549 H 524.367 -0.112578 -3.13898 0
M  V30 5550 H 523.56 -1.95732 -4.6444 0
M  V30 5551 H 523.162 -2.30441 -2.94572 0
M  V30 5552 H 525.454 -3.13366 -6.00673 0
M  V30 5553 H 526.397 -4.54462 -5.43019 0
M  V30 5554 H 526.805 -2.90641 -4.8393 0
M  V30 5555 N 526.204 0.969867 -1.24223 0
M  V30 5556 C 527.432 1.74756 -1.10761 0
M  V30 5557 C 527.847 1.85713 0.340041 0
M  V30 5558 O 527.204 1.34389 1.23474 0
M  V30 5559 C 527.255 3.16915 -1.73917 0
M  V30 5560 O 526.976 3.06511 -3.13021 0
M  V30 5561 C 528.477 4.11032 -1.66036 0
M  V30 5562 H 525.697 0.548092 -0.387087 0
M  V30 5563 H 528.241 1.2178 -1.64286 0
M  V30 5564 H 526.396 3.66884 -1.244 0
M  V30 5565 H 526.81 3.96079 -3.43834 0
M  V30 5566 H 528.284 5.08446 -2.14911 0
M  V30 5567 H 528.761 4.34785 -0.621159 0
M  V30 5568 H 529.367 3.66972 -2.14969 0
M  V30 5569 N 527.682 1.05563 1.17022 0
M  V30 5570 C 529.098 0.777684 1.39371 0
M  V30 5571 C 529.298 -0.626269 1.91521 0
M  V30 5572 O 528.354 -1.38806 2.10924 0
M  V30 5573 C 529.667 1.83642 2.3811 0
M  V30 5574 C 531.215 1.85907 2.51809 0
M  V30 5575 C 531.69 2.90813 3.53824 0
M  V30 5576 N 533.181 2.898 3.61345 0
M  V30 5577 C 533.916 3.6762 4.40049 0
M  V30 5578 N 533.412 4.55237 5.22237 0
M  V30 5579 N 535.205 3.56044 4.34959 0
M  V30 5580 H 527.356 1.9614 0.815047 0
M  V30 5581 H 529.619 0.849527 0.420722 0
M  V30 5582 H 529.325 2.84425 2.06871 0
M  V30 5583 H 529.199 1.6812 3.37662 0
M  V30 5584 H 531.586 0.857865 2.82356 0
M  V30 5585 H 531.667 2.05506 1.52318 0
M  V30 5586 H 531.311 3.91122 3.24015 0
M  V30 5587 H 531.241 2.68465 4.53028 0
M  V30 5588 H 533.732 2.26274 3.02669 0
M  V30 5589 H 534.045 5.11291 5.79484 0
M  V30 5590 H 532.39 4.59296 5.21605 0
M  V30 5591 H 535.581 2.86986 3.69806 0
M  V30 5592 H 535.754 4.16938 4.96051 0
M  V30 5593 N 529.16 -1.33526 0.837174 0
M  V30 5594 C 530.093 -2.27192 0.214233 0
M  V30 5595 C 531.071 -1.49575 -0.637657 0
M  V30 5596 O 532.255 -1.78753 -0.598291 0
M  V30 5597 C 529.382 -3.31401 -0.699367 0
M  V30 5598 C 528.428 -4.26431 0.0768429 0
M  V30 5599 S 529.261 -5.15954 1.4336 0
M  V30 5600 C 530.417 -6.23692 0.525251 0
M  V30 5601 H 530.65 -2.79679 1.00831 0
M  V30 5602 H 528.183 -1.4079 0.633834 0
M  V30 5603 H 530.141 -3.91924 -1.22088 0
M  V30 5604 H 528.802 -2.77732 -1.46709 0
M  V30 5605 H 527.995 -5.00193 -0.618268 0
M  V30 5606 H 527.597 -3.70235 0.529364 0
M  V30 5607 H 529.889 -6.76931 -0.277575 0
M  V30 5608 H 530.832 -6.97283 1.23299 0
M  V30 5609 H 531.24 -5.64398 0.107351 0
M  V30 5610 N 530.638 -0.59345 -1.46 0
M  V30 5611 C 531.568 0.121192 -2.33185 0
M  V30 5612 C 532.549 0.872977 -1.4599 0
M  V30 5613 O 533.734 0.846321 -1.74789 0
M  V30 5614 C 530.864 1.12844 -3.28456 0
M  V30 5615 C 529.818 0.4908 -4.25177 0
M  V30 5616 C 529.144 1.60529 -5.10034 0
M  V30 5617 C 530.444 -0.578949 -5.19081 0
M  V30 5618 H 532.138 -0.606767 -2.93187 0
M  V30 5619 H 529.684 -0.293242 -1.40983 0
M  V30 5620 H 531.637 1.63684 -3.88311 0
M  V30 5621 H 530.361 1.88681 -2.66584 0
M  V30 5622 H 529.02 0.00339328 -3.666 0
M  V30 5623 H 528.668 2.35359 -4.44539 0
M  V30 5624 H 528.368 1.18422 -5.75543 0
M  V30 5625 H 529.892 2.11623 -5.72755 0
M  V30 5626 H 531.306 -0.155199 -5.7309 0
M  V30 5627 H 529.703 -0.920947 -5.92991 0
M  V30 5628 H 530.773 -1.46109 -4.62364 0
M  V30 5629 N 532.116 1.54067 -0.331816 0
M  V30 5630 C 533.048 2.22139 0.564538 0
M  V30 5631 C 534.061 1.22408 1.07332 0
M  V30 5632 O 535.25 1.4883 0.985481 0
M  V30 5633 C 532.35 2.87876 1.78831 0
M  V30 5634 C 531.523 4.13817 1.41682 0
M  V30 5635 C 530.582 4.63072 2.49901 0
M  V30 5636 O 529.608 5.27562 2.13699 0
M  V30 5637 N 530.81 4.38001 3.80967 0
M  V30 5638 H 533.575 2.99694 -0.0183736 0
M  V30 5639 H 531.136 1.61153 -0.155396 0
M  V30 5640 H 533.128 3.17747 2.50637 0
M  V30 5641 H 531.698 2.13977 2.27887 0
M  V30 5642 H 530.918 3.9062 0.530044 0
M  V30 5643 H 532.206 4.95762 1.14443 0
M  V30 5644 H 531.604 3.864 4.13173 0
M  V30 5645 H 530.161 4.72507 4.48977 0
M  V30 5646 N 533.594 0.0601682 1.57485 0
M  V30 5647 C 535.01 -0.296422 1.56823 0
M  V30 5648 C 535.21 -1.70831 1.0686 0
M  V30 5649 O 534.266 -2.4174 0.729245 0
M  V30 5650 C 535.579 -0.116681 3.00474 0
M  V30 5651 C 537.127 -0.187103 3.1244 0
M  V30 5652 C 537.602 -0.035783 4.57986 0
M  V30 5653 N 539.093 -0.0917676 4.63109 0
M  V30 5654 C 539.828 0.00107251 5.734 0
M  V30 5655 N 539.324 0.146773 6.92645 0
M  V30 5656 N 541.117 -0.0551577 5.62073 0
M  V30 5657 H 533.268 0.983055 1.88281 0
M  V30 5658 H 535.531 0.382386 0.867459 0
M  V30 5659 H 535.237 0.85712 3.41096 0
M  V30 5660 H 535.111 -0.873929 3.66936 0
M  V30 5661 H 537.498 -1.15138 2.71712 0
M  V30 5662 H 537.579 0.601052 2.48638 0
M  V30 5663 H 537.223 0.925212 4.99402 0
M  V30 5664 H 537.153 -0.843196 5.19806 0
M  V30 5665 H 539.644 -0.203261 3.77353 0
M  V30 5666 H 539.957 0.210076 7.72514 0
M  V30 5667 H 538.302 0.181979 6.94762 0
M  V30 5668 H 541.493 -0.167605 4.678 0
M  V30 5669 H 541.666 0.020652 6.47997 0
M  V30 5670 N 535.072 -1.5615 -0.213296 0
M  V30 5671 C 536.005 -1.88115 -1.29182 0
M  V30 5672 C 536.983 -0.739348 -1.44819 0
M  V30 5673 O 538.167 -0.988541 -1.605 0
M  V30 5674 C 535.294 -2.09541 -2.66102 0
M  V30 5675 C 534.34 -3.32236 -2.67436 0
M  V30 5676 S 535.173 -4.87915 -2.20679 0
M  V30 5677 C 536.329 -5.12387 -3.59458 0
M  V30 5678 H 536.562 -2.793 -1.01876 0
M  V30 5679 H 534.095 -1.48692 -0.415934 0
M  V30 5680 H 536.053 -2.22568 -3.44925 0
M  V30 5681 H 534.714 -1.19138 -2.90628 0
M  V30 5682 H 533.907 -3.44297 -3.6807 0
M  V30 5683 H 533.509 -3.18108 -1.96681 0
M  V30 5684 H 535.801 -5.01791 -4.55205 0
M  V30 5685 H 536.744 -6.14236 -3.52306 0
M  V30 5686 H 537.152 -4.40089 -3.53528 0
M  V30 5687 N 536.55 0.480323 -1.50102 0
M  V30 5688 C 537.827 1.24159 -1.51142 0
M  V30 5689 C 538.207 2.09605 -0.250818 0
M  V30 5690 O 537.555 2.15274 0.766118 0
M  V30 5691 C 537.765 2.08057 -2.80202 0
M  V30 5692 C 539.113 2.66556 -3.30504 0
M  V30 5693 O 540.137 2.18308 -2.81461 0
M  V30 5694 O 538.996 3.54442 -4.15973 0
M  V30 5695 H 536.09 0.562928 -0.605839 0
M  V30 5696 H 538.636 0.492899 -1.62384 0
M  V30 5697 H 537.408 1.45032 -3.6343 0
M  V30 5698 H 537.031 2.90079 -2.71919 0
M  V30 5699 N 538.028 1.39524 0.732853 0
M  V30 5700 C 539.274 1.37068 1.49467 0
M  V30 5701 C 539.607 -0.0327166 1.94172 0
M  V30 5702 O 538.882 -0.998071 1.66939 0
M  V30 5703 C 539.165 2.34494 2.73285 0
M  V30 5704 C 539.018 3.83784 2.34585 0
M  V30 5705 C 540.337 2.29717 3.75391 0
M  V30 5706 H 537.456 0.499206 0.542183 0
M  V30 5707 H 540.098 1.70532 0.837783 0
M  V30 5708 H 538.248 2.06087 3.29333 0
M  V30 5709 H 539.92 4.22949 1.84151 0
M  V30 5710 H 538.163 4.00455 1.66787 0
M  V30 5711 H 538.834 4.47444 3.23262 0
M  V30 5712 H 541.31 2.54839 3.28932 0
M  V30 5713 H 540.186 2.99962 4.59689 0
M  V30 5714 H 540.447 1.30291 4.22465 0
M  V30 5715 N 539.506 -0.963266 1.24736 0
M  V30 5716 C 540.436 -2.07628 1.06832 0
M  V30 5717 C 541.417 -1.70088 -0.0200566 0
M  V30 5718 O 542.602 -1.93636 0.147854 0
M  V30 5719 C 539.732 -3.40636 0.677069 0
M  V30 5720 C 538.686 -3.9215 1.71471 0
M  V30 5721 C 538.012 -5.21553 1.1784 0
M  V30 5722 C 539.312 -4.19493 3.11164 0
M  V30 5723 H 541.006 -2.22864 1.9993 0
M  V30 5724 H 538.552 -1.07093 0.96266 0
M  V30 5725 H 540.505 -4.17941 0.538792 0
M  V30 5726 H 539.229 -3.25313 -0.289612 0
M  V30 5727 H 537.888 -3.17005 1.84128 0
M  V30 5728 H 537.536 -5.02593 0.202195 0
M  V30 5729 H 537.236 -5.56988 1.87185 0
M  V30 5730 H 538.76 -6.01463 1.05233 0
M  V30 5731 H 540.174 -4.87487 3.01711 0
M  V30 5732 H 538.571 -4.66165 3.77902 0
M  V30 5733 H 539.641 -3.26097 3.58871 0
M  V30 5734 N 540.985 -1.06182 -1.16461 0
M  V30 5735 C 541.948 -0.675723 -2.19013 0
M  V30 5736 C 542.948 0.277963 -1.58379 0
M  V30 5737 O 544.138 0.0604962 -1.74095 0
M  V30 5738 C 541.27 0.00591459 -3.40899 0
M  V30 5739 H 542.463 -1.58353 -2.54685 0
M  V30 5740 H 540.016 -0.856908 -1.30716 0
M  V30 5741 H 540.751 0.92652 -3.10783 0
M  V30 5742 H 540.536 -0.67984 -3.86161 0
M  V30 5743 H 542.026 0.26181 -4.16778 0
M  V30 5744 N 542.463 1.3308 -0.844243 0
M  V30 5745 C 543.41 2.29104 -0.279323 0
M  V30 5746 C 544.38 1.54577 0.607882 0
M  V30 5747 O 545.565 1.8285 0.545009 0
M  V30 5748 C 542.705 3.40927 0.53508 0
M  V30 5749 C 541.818 4.30354 -0.376749 0
M  V30 5750 C 540.953 5.29297 0.449276 0
M  V30 5751 C 539.992 6.10365 -0.460606 0
M  V30 5752 N 539.129 7.01335 0.327612 0
M  V30 5753 H 543.969 2.76817 -1.10346 0
M  V30 5754 H 541.506 1.36203 -0.555611 0
M  V30 5755 H 543.464 4.04469 1.02278 0
M  V30 5756 H 542.094 2.94391 1.32414 0
M  V30 5757 H 541.146 3.67485 -0.982791 0
M  V30 5758 H 542.458 4.87067 -1.07549 0
M  V30 5759 H 541.612 5.98392 1.00058 0
M  V30 5760 H 540.351 4.73174 1.18143 0
M  V30 5761 H 539.356 5.40182 -1.02388 0
M  V30 5762 H 540.581 6.68571 -1.1912 0
M  V30 5763 H 538.527 6.47655 1.04305 0
M  V30 5764 H 538.444 7.55355 -0.3123 0
M  V30 5765 H 539.712 7.74731 0.86098 0
M  V30 5766 N 543.941 0.601185 1.45683 0
M  V30 5767 C 544.888 -0.121396 2.30481 0
M  V30 5768 C 545.858 -0.866232 1.41724 0
M  V30 5769 O 547.043 -0.85324 1.70659 0
M  V30 5770 C 544.183 -1.11704 3.26521 0
M  V30 5771 C 543.296 -0.373741 4.3038 0
M  V30 5772 C 542.431 -1.35854 5.13534 0
M  V30 5773 C 541.47 -0.602689 6.09126 0
M  V30 5774 N 540.607 -1.53645 6.85082 0
M  V30 5775 H 545.447 0.607732 2.91737 0
M  V30 5776 H 542.984 0.311502 1.43764 0
M  V30 5777 H 544.942 -1.70735 3.80664 0
M  V30 5778 H 543.572 -1.81366 2.67032 0
M  V30 5779 H 542.624 0.331962 3.78949 0
M  V30 5780 H 543.936 0.2163 4.98331 0
M  V30 5781 H 543.09 -2.02111 5.72046 0
M  V30 5782 H 541.829 -1.98251 4.45587 0
M  V30 5783 H 540.834 0.0735482 5.49751 0
M  V30 5784 H 542.059 0.0161467 6.79098 0
M  V30 5785 H 540.005 -2.14819 6.1983 0
M  V30 5786 H 539.922 -0.999688 7.49361 0
M  V30 5787 H 541.19 -2.1888 7.48139 0
M  V30 5788 N 545.419 -1.53889 0.339982 0
M  V30 5789 C 546.382 -2.23547 -0.50592 0
M  V30 5790 C 547.382 -1.23445 -1.03044 0
M  V30 5791 O 548.572 -1.47909 -0.920253 0
M  V30 5792 C 545.704 -2.95234 -1.7044 0
M  V30 5793 H 546.897 -2.99722 0.103247 0
M  V30 5794 H 544.45 -1.56033 0.0912804 0
M  V30 5795 H 545.185 -2.23236 -2.35236 0
M  V30 5796 H 544.97 -3.68654 -1.33553 0
M  V30 5797 H 546.46 -3.48258 -2.30447 0
M  V30 5798 N 546.897 -0.0685191 -1.57451 0
M  V30 5799 C 548.125 0.610462 -1.97689 0
M  V30 5800 C 548.54 1.63346 -0.946758 0
M  V30 5801 O 547.897 1.82377 0.0669868 0
M  V30 5802 C 547.948 1.28196 -3.38006 0
M  V30 5803 O 547.669 0.299906 -4.37072 0
M  V30 5804 C 549.17 2.04907 -3.931 0
M  V30 5805 H 546.39 0.165689 -0.650222 0
M  V30 5806 H 548.934 -0.139953 -2.04021 0
M  V30 5807 H 547.089 1.98348 -3.32771 0
M  V30 5808 H 547.503 0.78126 -5.18649 0
M  V30 5809 H 548.977 2.47287 -4.93511 0
M  V30 5810 H 549.454 2.9043 -3.29465 0
M  V30 5811 H 550.06 1.39629 -4.01726 0
M  V30 5812 N 548.375 1.56261 0.205012 0
M  V30 5813 C 549.285 1.96944 1.27476 0
M  V30 5814 C 550.301 0.875636 1.50362 0
M  V30 5815 O 551.477 1.18058 1.6317 0
M  V30 5816 C 548.542 2.29219 2.60115 0
M  V30 5817 C 547.603 3.52255 2.45387 0
M  V30 5818 C 546.836 3.8298 3.71701 0
M  V30 5819 O 547.059 3.15138 4.75441 0
M  V30 5820 O 545.993 4.76435 3.67823 0
M  V30 5821 H 549.819 2.88144 0.959527 0
M  V30 5822 H 547.404 1.43686 0.409217 0
M  V30 5823 H 549.286 2.51098 3.3842 0
M  V30 5824 H 547.961 1.4119 2.91285 0
M  V30 5825 H 546.868 3.35635 1.65227 0
M  V30 5826 H 548.201 4.40719 2.19152 0
M  V30 5827 N 549.853 -0.472356 1.50355 0
M  V30 5828 C 550.786 -1.58923 1.63764 0
M  V30 5829 C 551.764 -1.55173 0.485793 0
M  V30 5830 O 552.948 -1.74815 0.705132 0
M  V30 5831 C 550.075 -2.97497 1.61905 0
M  V30 5832 C 549.121 -3.19405 2.82635 0
M  V30 5833 S 549.954 -2.99441 4.43954 0
M  V30 5834 C 551.11 -4.40359 4.44786 0
M  V30 5835 H 551.343 -1.47309 2.58239 0
M  V30 5836 H 548.876 -0.659601 1.39602 0
M  V30 5837 H 550.834 -3.77389 1.61518 0
M  V30 5838 H 549.495 -3.06502 0.686683 0
M  V30 5839 H 548.688 -4.20636 2.77636 0
M  V30 5840 H 548.29 -2.47283 2.80583 0
M  V30 5841 H 550.582 -5.32969 4.1827 0
M  V30 5842 H 551.525 -4.50403 5.46391 0
M  V30 5843 H 551.933 -4.22378 3.74509 0
M  V30 5844 N 551.331 -1.39911 -0.725443 0
M  V30 5845 C 552.579 -1.37382 -1.48224 0
M  V30 5846 C 552.9 0.0264107 -1.94982 0
M  V30 5847 O 552.17 0.979408 -1.6966 0
M  V30 5848 H 550.75 -0.505596 -0.549892 0
M  V30 5849 H 553.412 -1.7487 -0.860608 0
M  V30 5850 H 552.508 -2.04254 -2.3598 0
M  V30 5851 N 552.809 0.956637 -1.25245 0
M  V30 5852 C 554.055 1.70352 -1.10036 0
M  V30 5853 C 554.388 1.90869 0.358156 0
M  V30 5854 O 553.663 1.47819 1.26411 0
M  V30 5855 C 553.946 3.08766 -1.85298 0
M  V30 5856 C 553.799 2.95672 -3.38966 0
M  V30 5857 C 555.118 4.08622 -1.63451 0
M  V30 5858 H 552.237 0.618279 -0.401123 0
M  V30 5859 H 554.879 1.11212 -1.54051 0
M  V30 5860 H 553.029 3.59252 -1.47887 0
M  V30 5861 H 554.701 2.52527 -3.86041 0
M  V30 5862 H 552.944 2.31634 -3.6678 0
M  V30 5863 H 553.615 3.93776 -3.86839 0
M  V30 5864 H 556.091 3.67038 -1.96015 0
M  V30 5865 H 554.967 5.03514 -2.18551 0
M  V30 5866 H 555.228 4.3834 -0.575357 0
M  V30 5867 N 554.287 1.06798 1.15896 0
M  V30 5868 C 555.703 0.792423 1.38538 0
M  V30 5869 C 555.903 -0.60592 1.92174 0
M  V30 5870 O 554.959 -1.36561 2.12385 0
M  V30 5871 C 556.272 1.86157 2.36149 0
M  V30 5872 C 557.82 1.88567 2.49823 0
M  V30 5873 C 558.295 2.9455 3.5072 0
M  V30 5874 N 559.786 2.93616 3.58251 0
M  V30 5875 C 560.521 3.72267 4.36125 0
M  V30 5876 N 560.017 4.60751 5.17379 0
M  V30 5877 N 561.81 3.60637 4.31158 0
M  V30 5878 H 553.961 1.96993 0.794198 0
M  V30 5879 H 556.224 0.853942 0.411688 0
M  V30 5880 H 555.93 2.86603 2.03843 0
M  V30 5881 H 555.804 1.71692 3.3586 0
M  V30 5882 H 558.191 0.887765 2.8143 0
M  V30 5883 H 558.272 2.0711 1.5013 0
M  V30 5884 H 557.916 3.94537 3.19849 0
M  V30 5885 H 557.846 2.73255 4.50155 0
M  V30 5886 H 560.337 2.29472 3.00252 0
M  V30 5887 H 560.65 5.17408 5.74028 0
M  V30 5888 H 558.995 4.64803 5.16704 0
M  V30 5889 H 562.186 2.90892 3.66742 0
M  V30 5890 H 562.359 4.22176 4.91601 0
M  V30 5891 N 555.766 -1.3263 0.851289 0
M  V30 5892 C 556.696 -2.31449 0.308771 0
M  V30 5893 C 557.677 -1.59531 -0.590255 0
M  V30 5894 O 558.862 -1.87351 -0.511205 0
M  V30 5895 C 555.992 -3.43586 -0.506548 0
M  V30 5896 C 554.946 -4.26963 0.297753 0
M  V30 5897 C 554.272 -5.30831 -0.642094 0
M  V30 5898 C 555.572 -4.99643 1.52166 0
M  V30 5899 H 557.266 -2.77074 1.13447 0
M  V30 5900 H 554.812 -1.33207 0.546971 0
M  V30 5901 H 556.765 -4.11754 -0.896474 0
M  V30 5902 H 555.489 -2.96681 -1.36558 0
M  V30 5903 H 554.148 -3.60437 0.669391 0
M  V30 5904 H 553.796 -4.8018 -1.49788 0
M  V30 5905 H 553.496 -5.87501 -0.107968 0
M  V30 5906 H 555.02 -6.01862 -1.02927 0
M  V30 5907 H 556.434 -5.6051 1.20421 0
M  V30 5908 H 554.831 -5.66022 1.99347 0
M  V30 5909 H 555.901 -4.27701 2.28474 0
M  V30 5910 N 557.244 -0.608902 -1.45362 0
M  V30 5911 C 558.177 0.158059 -2.27652 0
M  V30 5912 C 559.155 0.872397 -1.37215 0
M  V30 5913 O 560.339 0.881002 -1.66645 0
M  V30 5914 C 557.466 1.22896 -3.15617 0
M  V30 5915 C 556.512 0.617607 -4.22005 0
M  V30 5916 S 557.345 -0.575518 -5.32398 0
M  V30 5917 C 558.501 0.495938 -6.23932 0
M  V30 5918 H 558.734 -0.540095 -2.92353 0
M  V30 5919 H 556.267 -0.396456 -1.49223 0
M  V30 5920 H 558.225 1.84195 -3.66855 0
M  V30 5921 H 556.886 1.89919 -2.50179 0
M  V30 5922 H 556.079 1.42341 -4.83482 0
M  V30 5923 H 555.681 0.0797273 -3.73915 0
M  V30 5924 H 557.973 1.37465 -6.63408 0
M  V30 5925 H 558.916 -0.0827108 -7.08052 0
M  V30 5926 H 559.324 0.811856 -5.58631 0
M  V30 5927 N 558.722 1.53707 -0.348139 0
M  V30 5928 C 559.968 2.01286 0.247332 0
M  V30 5929 C 560.301 1.23546 1.49834 0
M  V30 5930 O 559.576 0.324331 1.91777 0
M  V30 5931 C 559.859 3.55768 0.556858 0
M  V30 5932 C 559.712 4.44216 -0.706564 0
M  V30 5933 C 561.031 4.1841 1.3646 0
M  V30 5934 H 558.15 0.731677 0.0884201 0
M  V30 5935 H 560.792 1.84106 -0.469584 0
M  V30 5936 H 558.942 3.70539 1.16761 0
M  V30 5937 H 560.614 4.41274 -1.34444 0
M  V30 5938 H 558.857 4.12892 -1.33052 0
M  V30 5939 H 559.528 5.50202 -0.445186 0
M  V30 5940 H 562.004 4.07365 0.848113 0
M  V30 5941 H 560.88 5.26563 1.54992 0
M  V30 5942 H 561.141 3.7333 2.36805 0
M  V30 5943 N 560.2 0.0768682 1.57412 0
M  V30 5944 C 561.477 -0.632359 1.85096 0
M  V30 5945 C 561.857 -1.87479 0.9703 0
M  V30 5946 O 561.205 -2.28469 0.0379062 0
M  V30 5947 C 561.415 -0.965174 3.35388 0
M  V30 5948 C 562.763 -1.33648 4.03018 0
M  V30 5949 O 563.787 -1.05675 3.40164 0
M  V30 5950 O 562.646 -1.85959 5.13889 0
M  V30 5951 H 559.74 -0.314574 0.764835 0
M  V30 5952 H 562.286 0.108184 1.69355 0
M  V30 5953 H 561.058 -0.0829745 3.91212 0
M  V30 5954 H 560.681 -1.76231 3.5641 0
M  V30 5955 N 561.678 -1.56367 -0.196722 0
M  V30 5956 C 562.641 -1.93561 -1.22746 0
M  V30 5957 C 563.641 -0.816566 -1.38524 0
M  V30 5958 O 564.831 -1.084 -1.36363 0
M  V30 5959 C 561.963 -2.20823 -2.59712 0
M  V30 5960 H 563.156 -2.85774 -0.909586 0
M  V30 5961 H 560.709 -1.50032 -0.438174 0
M  V30 5962 H 561.444 -1.31243 -2.96557 0
M  V30 5963 H 561.229 -3.02368 -2.49632 0
M  V30 5964 H 562.719 -2.50608 -3.34044 0
M  V30 5965 N 563.156 0.464375 -1.50603 0
M  V30 5966 C 564.066 1.58723 -1.72754 0
M  V30 5967 C 565.082 1.62925 -0.610844 0
M  V30 5968 O 566.258 1.8067 -0.889963 0
M  V30 5969 C 563.323 2.94897 -1.82309 0
M  V30 5970 C 562.384 3.0103 -3.06071 0
M  V30 5971 C 561.617 4.30708 -3.1516 0
M  V30 5972 O 561.84 5.2159 -2.30868 0
M  V30 5973 O 560.774 4.42571 -4.0794 0
M  V30 5974 H 564.6 1.42954 -2.67951 0
M  V30 5975 H 562.185 0.644579 -1.3478 0
M  V30 5976 H 564.067 3.75764 -1.90735 0
M  V30 5977 H 562.742 3.10851 -0.902967 0
M  V30 5978 H 561.649 2.19217 -3.03142 0
M  V30 5979 H 562.982 2.90014 -3.97684 0
M  V30 5980 N 564.634 1.40294 0.718013 0
M  V30 5981 C 565.566 1.36281 1.84283 0
M  V30 5982 C 566.579 0.268621 1.60569 0
M  V30 5983 O 567.768 0.528798 1.70487 0
M  V30 5984 C 564.868 1.09741 3.2064 0
M  V30 5985 C 564.041 2.30767 3.71571 0
M  V30 5986 C 563.1 2.00424 4.86535 0
M  V30 5987 O 562.126 2.73268 4.99313 0
M  V30 5988 N 563.328 0.980724 5.72156 0
M  V30 5989 H 566.093 2.3322 1.88225 0
M  V30 5990 H 563.654 1.34616 0.899453 0
M  V30 5991 H 565.646 0.874322 3.95143 0
M  V30 5992 H 564.216 0.214771 3.11861 0
M  V30 5993 H 563.436 2.68921 2.88228 0
M  V30 5994 H 564.724 3.11455 4.02335 0
M  V30 5995 H 564.122 0.377375 5.6444 0
M  V30 5996 H 562.679 0.817538 6.46653 0
M  V30 5997 N 566.112 -0.949982 1.2575 0
M  V30 5998 C 567.34 -1.72972 1.13527 0
M  V30 5999 C 567.755 -1.8623 -0.310453 0
M  V30 6000 O 567.112 -1.36336 -1.2132 0
M  V30 6001 C 567.163 -3.14108 1.78936 0
M  V30 6002 O 566.884 -3.01493 3.17858 0
M  V30 6003 C 568.385 -4.08338 1.72554 0
M  V30 6004 H 565.605 -0.541864 0.395758 0
M  V30 6005 H 568.149 -1.19151 1.66202 0
M  V30 6006 H 566.304 -3.64858 1.30221 0
M  V30 6007 H 566.718 -3.90559 3.50092 0
M  V30 6008 H 568.192 -5.04963 2.22973 0
M  V30 6009 H 568.669 -4.33742 0.690251 0
M  V30 6010 H 569.275 -3.63506 2.2078 0
M  V30 6011 N 567.59 -1.07411 -1.15328 0
M  V30 6012 C 568.82 -0.817595 -1.89734 0
M  V30 6013 C 569.228 0.63297 -1.78298 0
M  V30 6014 O 568.571 1.44594 -1.13306 0
M  V30 6015 C 568.633 -1.14748 -3.40695 0
M  V30 6016 C 568.297 -2.59876 -3.75917 0
M  V30 6017 C 569.294 -3.58122 -3.76888 0
M  V30 6018 C 566.979 -2.95469 -4.06206 0
M  V30 6019 C 568.973 -4.89996 -4.07655 0
M  V30 6020 C 566.66 -4.2754 -4.36638 0
M  V30 6021 C 567.658 -5.24614 -4.37344 0
M  V30 6022 O 567.346 -6.54312 -4.67045 0
M  V30 6023 H 567.078 -0.295175 -0.608151 0
M  V30 6024 H 569.632 -1.43409 -1.47048 0
M  V30 6025 H 567.862 -0.47395 -3.83785 0
M  V30 6026 H 569.551 -0.873397 -3.96392 0
M  V30 6027 H 570.317 -3.31966 -3.53587 0
M  V30 6028 H 566.196 -2.20558 -4.04815 0
M  V30 6029 H 569.74 -5.65759 -4.08121 0
M  V30 6030 H 565.637 -4.53449 -4.59407 0
M  V30 6031 H 566.405 -6.59473 -4.84807 0
M  V30 6032 N 569.068 1.32177 -0.85831 0
M  V30 6033 C 570.315 1.97125 -0.463484 0
M  V30 6034 C 570.643 1.67907 0.981705 0
M  V30 6035 O 569.898 0.961717 1.70439 0
M  V30 6036 C 570.197 3.51372 -0.653658 0
M  V30 6037 C 569.863 4.00584 -2.06987 0
M  V30 6038 C 568.525 4.13733 -2.4572 0
M  V30 6039 C 570.877 4.26624 -2.99402 0
M  V30 6040 C 568.205 4.50268 -3.76132 0
M  V30 6041 C 570.557 4.64618 -4.29316 0
M  V30 6042 C 569.221 4.75975 -4.67979 0
M  V30 6043 H 568.491 0.72133 -0.169601 0
M  V30 6044 H 571.138 1.57517 -1.08907 0
M  V30 6045 H 569.443 3.91761 0.0551328 0
M  V30 6046 H 571.14 3.99655 -0.328163 0
M  V30 6047 H 567.73 3.90837 -1.75911 0
M  V30 6048 H 571.914 4.1597 -2.70708 0
M  V30 6049 H 567.17 4.57256 -4.05865 0
M  V30 6050 H 571.344 4.83722 -5.00985 0
M  V30 6051 H 568.971 5.04041 -5.69076 0
M  V30 6052 N 570.547 0.616602 1.45037 0
M  V30 6053 C 571.479 -0.135186 2.28801 0
M  V30 6054 C 572.492 -0.82303 1.40464 0
M  V30 6055 O 573.681 -0.686909 1.64754 0
M  V30 6056 C 570.781 -1.21292 3.16451 0
M  V30 6057 C 569.954 -0.61043 4.3312 0
M  V30 6058 C 569.013 -1.58022 5.01912 0
M  V30 6059 O 568.039 -1.10301 5.58411 0
M  V30 6060 N 569.241 -2.91464 5.02025 0
M  V30 6061 H 572.006 0.583612 2.93963 0
M  V30 6062 H 569.567 0.456723 1.55324 0
M  V30 6063 H 571.559 -1.86169 3.59337 0
M  V30 6064 H 570.129 -1.83412 2.53138 0
M  V30 6065 H 569.349 0.216638 3.93604 0
M  V30 6066 H 570.637 -0.188293 5.08451 0
M  V30 6067 H 570.035 -3.32829 4.57429 0
M  V30 6068 H 568.592 -3.51741 5.48745 0
M  V30 6069 N 572.025 -1.5352 0.356285 0
M  V30 6070 C 573.436 -1.86282 -0.12492 0
M  V30 6071 C 573.787 -1.27717 -1.48939 0
M  V30 6072 O 572.912 -0.595614 -2.08042 0
M  V30 6073 C 573.507 -3.37995 -0.23345 0
M  V30 6074 C 572.066 -3.70588 -0.658899 0
M  V30 6075 C 571.213 -2.76581 0.199596 0
M  V30 6076 H 574.164 -1.47901 0.575423 0
M  V30 6077 H 574.185 -3.65475 -1.0587 0
M  V30 6078 H 573.697 -3.8059 0.759776 0
M  V30 6079 H 571.798 -3.33544 -1.66069 0
M  V30 6080 H 571.911 -4.77076 -0.439957 0
M  V30 6081 H 570.275 -2.52552 -0.330076 0
M  V30 6082 H 571.058 -3.22008 1.19019 0
M  V30 6083 N 573.503 -0.0852151 -1.57369 0
M  V30 6084 C 574.466 0.8627 -2.12344 0
M  V30 6085 C 575.466 1.21746 -1.05046 0
M  V30 6086 O 576.656 1.14852 -1.30976 0
M  V30 6087 C 573.788 2.1618 -2.63589 0
M  V30 6088 H 574.981 0.385511 -2.97412 0
M  V30 6089 H 572.534 0.163663 -1.55441 0
M  V30 6090 H 573.269 2.68406 -1.82013 0
M  V30 6091 H 573.054 1.91723 -3.4203 0
M  V30 6092 H 574.544 2.84011 -3.06149 0
M  V30 6093 N 574.981 1.5647 0.188427 0
M  V30 6094 C 576.23 1.80207 0.905995 0
M  V30 6095 C 576.543 0.659579 1.84144 0
M  V30 6096 O 577.749 0.781431 2.60011 0
M  V30 6097 C 576.205 3.19255 1.66145 0
M  V30 6098 C 575.813 4.41324 0.770504 0
M  V30 6099 C 577.557 3.52298 2.36826 0
M  V30 6100 C 575.464 5.71394 1.52521 0
M  V30 6101 H 574.394 0.671953 0.342045 0
M  V30 6102 H 577.045 1.82808 0.159164 0
M  V30 6103 H 575.427 3.10922 2.45242 0
M  V30 6104 H 576.601 4.60797 0.0177261 0
M  V30 6105 H 574.916 4.16035 0.174199 0
M  V30 6106 H 577.513 4.46715 2.93854 0
M  V30 6107 H 577.856 2.76359 3.11338 0
M  V30 6108 H 578.389 3.62108 1.6469 0
M  V30 6109 H 575.128 6.50316 0.82275 0
M  V30 6110 H 574.648 5.55928 2.25175 0
M  V30 6111 H 576.327 6.12747 2.07725 0
M  V30 6112 N 576.459 -0.456382 1.50847 0
M  V30 6113 C 577.684 -1.2349 1.66628 0
M  V30 6114 C 578.109 -1.84715 0.355254 0
M  V30 6115 O 577.467 -1.67961 -0.682559 0
M  V30 6116 C 577.515 -2.30865 2.77009 0
M  V30 6117 O 576.619 -3.35882 2.39285 0
M  V30 6118 H 575.96 -0.36266 0.556214 0
M  V30 6119 H 578.49 -0.541374 1.97308 0
M  V30 6120 H 578.5 -2.75949 3.00526 0
M  V30 6121 H 577.175 -1.85677 3.72152 0
M  V30 6122 H 575.752 -2.96406 2.26269 0
M  V30 6123 N 577.937 -1.40673 -0.710563 0
M  V30 6124 C 579.353 -1.22813 -1.01928 0
M  V30 6125 C 579.553 -0.10687 -2.01216 0
M  V30 6126 O 578.609 0.533614 -2.46797 0
M  V30 6127 C 579.922 -2.57178 -1.5582 0
M  V30 6128 C 581.47 -2.64233 -1.67779 0
M  V30 6129 C 581.945 -3.98879 -2.25076 0
M  V30 6130 N 583.436 -4.00647 -2.32456 0
M  V30 6131 C 584.171 -5.01621 -2.77784 0
M  V30 6132 N 583.667 -6.12989 -3.22826 0
M  V30 6133 N 585.46 -4.88988 -2.77213 0
M  V30 6134 H 577.611 -2.12335 -0.05253 0
M  V30 6135 H 579.874 -0.9441 -0.085898 0
M  V30 6136 H 579.58 -3.39903 -0.903249 0
M  V30 6137 H 579.454 -2.78618 -2.54267 0
M  V30 6138 H 581.841 -1.81876 -2.3239 0
M  V30 6139 H 581.922 -2.46619 -0.679178 0
M  V30 6140 H 581.566 -4.81678 -1.61086 0
M  V30 6141 H 581.496 -4.13826 -3.25661 0
M  V30 6142 H 583.987 -3.20231 -2.0065 0
M  V30 6143 H 584.3 -6.85921 -3.55995 0
M  V30 6144 H 582.645 -6.16547 -3.20773 0
M  V30 6145 H 585.836 -4.01075 -2.41363 0
M  V30 6146 H 586.009 -5.67822 -3.12221 0
M  V30 6147 N 579.415 0.9433 -1.26252 0
M  V30 6148 C 580.345 2.05902 -1.10122 0
M  V30 6149 C 581.326 1.70099 -0.00700552 0
M  V30 6150 O 582.511 1.93377 -0.178641 0
M  V30 6151 C 579.641 3.39516 -0.731175 0
M  V30 6152 C 578.595 3.89372 -1.77688 0
M  V30 6153 C 577.921 5.19613 -1.26122 0
M  V30 6154 C 579.221 4.14489 -3.17799 0
M  V30 6155 H 580.915 2.19655 -2.03451 0
M  V30 6156 H 578.461 1.05548 -0.979576 0
M  V30 6157 H 580.414 4.17031 -0.605215 0
M  V30 6158 H 579.138 3.25733 0.23782 0
M  V30 6159 H 577.797 3.14036 -1.89148 0
M  V30 6160 H 577.445 5.02208 -0.282128 0
M  V30 6161 H 577.145 5.53939 -1.96023 0
M  V30 6162 H 578.669 5.99713 -1.14789 0
M  V30 6163 H 580.083 4.82625 -3.09428 0
M  V30 6164 H 578.48 4.60094 -3.85271 0
M  V30 6165 H 579.55 3.20347 -3.64014 0
M  V30 6166 N 580.893 1.08022 1.14757 0
M  V30 6167 C 582.121 0.828847 1.89572 0
M  V30 6168 C 582.536 -0.618621 1.78377 0
M  V30 6169 O 581.893 -1.42482 1.1404 0
M  V30 6170 C 581.944 1.23677 3.39685 0
M  V30 6171 O 581.665 2.62746 3.50566 0
M  V30 6172 C 583.166 1.01569 4.31507 0
M  V30 6173 H 580.386 0.299196 0.600602 0
M  V30 6174 H 582.93 1.43846 1.45357 0
M  V30 6175 H 581.085 0.671347 3.81539 0
M  V30 6176 H 581.499 2.79573 4.43778 0
M  V30 6177 H 582.973 1.35055 5.35223 0
M  V30 6178 H 583.45 -0.0475433 4.39174 0
M  V30 6179 H 584.056 1.56636 3.95405 0
M  V30 6180 N 582.371 -1.3172 0.865308 0
M  V30 6181 C 583.301 -2.31109 0.333302 0
M  V30 6182 C 584.282 -1.60148 -0.573301 0
M  V30 6183 O 585.467 -1.87882 -0.491305 0
M  V30 6184 C 582.597 -3.44104 -0.470078 0
M  V30 6185 C 581.551 -4.26623 0.343021 0
M  V30 6186 C 580.877 -5.31482 -0.585756 0
M  V30 6187 C 582.177 -4.98001 1.57456 0
M  V30 6188 H 583.871 -2.75855 1.1638 0
M  V30 6189 H 581.417 -1.3262 0.561069 0
M  V30 6190 H 583.37 -4.12682 -0.852752 0
M  V30 6191 H 582.094 -2.98112 -1.33404 0
M  V30 6192 H 580.753 -3.59707 0.707583 0
M  V30 6193 H 580.401 -4.81741 -1.44686 0
M  V30 6194 H 580.101 -5.87582 -0.0456494 0
M  V30 6195 H 581.625 -6.0292 -0.965375 0
M  V30 6196 H 583.039 -5.59201 1.26359 0
M  V30 6197 H 581.436 -5.63876 2.05339 0
M  V30 6198 H 582.506 -4.25253 2.32997 0
M  V30 6199 N 583.85 -0.624285 -1.44708 0
M  V30 6200 C 584.76 0.0861083 -2.34442 0
M  V30 6201 C 585.776 0.84291 -1.5222 0
M  V30 6202 O 586.952 0.796723 -1.84971 0
M  V30 6203 C 584.017 1.05999 -3.30099 0
M  V30 6204 C 583.077 0.303316 -4.28227 0
M  V30 6205 C 582.311 1.23081 -5.19314 0
M  V30 6206 O 582.534 2.46929 -5.14181 0
M  V30 6207 O 581.468 0.71883 -5.97592 0
M  V30 6208 H 585.293 -0.651756 -2.96624 0
M  V30 6209 H 582.879 -0.384493 -1.44368 0
M  V30 6210 H 584.76 1.62046 -3.88997 0
M  V30 6211 H 583.436 1.77859 -2.70459 0
M  V30 6212 H 582.343 -0.300033 -3.72895 0
M  V30 6213 H 583.676 -0.375123 -4.90768 0
M  V30 6214 N 585.328 1.53329 -0.364422 0
M  V30 6215 C 586.261 2.22052 0.526145 0
M  V30 6216 C 587.239 1.21203 1.08391 0
M  V30 6217 O 588.423 1.50101 1.14026 0
M  V30 6218 C 585.55 2.91432 1.72583 0
M  V30 6219 C 584.596 4.06345 1.29562 0
M  V30 6220 S 585.429 5.34671 0.297885 0
M  V30 6221 C 586.585 6.07563 1.50392 0
M  V30 6222 H 586.818 2.97244 -0.0575055 0
M  V30 6223 H 584.351 1.53684 -0.148525 0
M  V30 6224 H 586.309 3.3202 2.41398 0
M  V30 6225 H 584.97 2.15966 2.28073 0
M  V30 6226 H 584.163 4.53901 2.19067 0
M  V30 6227 H 583.765 3.67642 0.686696 0
M  V30 6228 H 586.057 6.32224 2.43513 0
M  V30 6229 H 587 6.99973 1.06977 0
M  V30 6230 H 587.408 5.37994 1.70945 0
M  V30 6231 N 586.806 0.0935595 1.57322 0
M  V30 6232 C 587.738 -0.895923 2.10964 0
M  V30 6233 C 588.751 -1.24705 1.04654 0
M  V30 6234 O 589.94 -1.20044 1.32105 0
M  V30 6235 C 587.04 -2.20546 2.57318 0
M  V30 6236 C 586.213 -2.0299 3.87445 0
M  V30 6237 C 585.272 -3.17443 4.19662 0
M  V30 6238 O 584.298 -2.91474 4.88909 0
M  V30 6239 N 585.5 -4.43168 3.74943 0
M  V30 6240 H 588.265 -0.437788 2.96485 0
M  V30 6241 H 585.826 -0.0915863 1.61641 0
M  V30 6242 H 587.818 -2.9606 2.75917 0
M  V30 6243 H 586.388 -2.57789 1.76816 0
M  V30 6244 H 585.608 -1.11815 3.78009 0
M  V30 6245 H 586.896 -1.88535 4.7258 0
M  V30 6246 H 586.294 -4.67149 3.19043 0
M  V30 6247 H 584.851 -5.15637 3.987 0
M  V30 6248 N 588.284 -1.56567 -0.180126 0
M  V30 6249 C 589.7 -1.50488 -0.531559 0
M  V30 6250 C 589.9 -0.796267 -1.851 0
M  V30 6251 O 588.956 -0.352978 -2.50021 0
M  V30 6252 C 590.269 -2.95201 -0.572456 0
M  V30 6253 C 591.817 -3.05957 -0.660264 0
M  V30 6254 C 592.292 -4.5211 -0.732135 0
M  V30 6255 N 593.783 -4.56322 -0.795262 0
M  V30 6256 C 594.518 -5.66742 -0.871296 0
M  V30 6257 N 594.014 -6.86815 -0.908708 0
M  V30 6258 N 595.807 -5.54691 -0.909639 0
M  V30 6259 H 587.958 -2.01045 0.685165 0
M  V30 6260 H 590.221 -0.915536 0.245962 0
M  V30 6261 H 589.927 -3.50165 0.328208 0
M  V30 6262 H 589.801 -3.49369 -1.422 0
M  V30 6263 H 592.188 -2.51032 -1.55136 0
M  V30 6264 H 592.269 -2.54888 0.215783 0
M  V30 6265 H 591.913 -5.07664 0.154664 0
M  V30 6266 H 591.843 -5.00926 -1.6242 0
M  V30 6267 H 594.334 -3.69868 -0.77499 0
M  V30 6268 H 594.647 -7.66718 -0.967654 0
M  V30 6269 H 592.992 -6.89443 -0.877132 0
M  V30 6270 H 596.183 -4.59804 -0.877353 0
M  V30 6271 H 596.356 -6.40768 -0.965434 0
M  V30 6272 N 589.762 0.448376 -1.51087 0
M  V30 6273 C 590.709 1.54341 -1.71603 0
M  V30 6274 C 591.679 1.56463 -0.557536 0
M  V30 6275 O 592.864 1.73644 -0.79072 0
M  V30 6276 C 590.004 2.92148 -1.83695 0
M  V30 6277 C 589.117 2.99639 -3.11192 0
M  V30 6278 C 588.252 4.285 -3.13944 0
M  V30 6279 C 587.291 4.29819 -4.35801 0
M  V30 6280 N 586.428 5.50186 -4.36164 0
M  V30 6281 H 591.268 1.36151 -2.65079 0
M  V30 6282 H 588.805 0.661585 -1.31383 0
M  V30 6283 H 590.763 3.72093 -1.88687 0
M  V30 6284 H 589.393 3.0892 -0.936374 0
M  V30 6285 H 588.445 2.12425 -3.15562 0
M  V30 6286 H 589.757 2.96474 -4.01129 0
M  V30 6287 H 588.911 5.16811 -3.17791 0
M  V30 6288 H 587.65 4.34307 -2.21876 0
M  V30 6289 H 586.655 3.39902 -4.32142 0
M  V30 6290 H 587.88 4.25685 -5.29121 0
M  V30 6291 H 585.826 5.56735 -3.46961 0
M  V30 6292 H 585.743 5.48856 -5.19897 0
M  V30 6293 H 587.011 6.40559 -4.44189 0
M  V30 6294 N 591.24 1.41047 0.703093 0
M  V30 6295 C 592.487 1.4 1.46309 0
M  V30 6296 C 592.815 0.00654574 1.94499 0
M  V30 6297 O 592.07 -0.980255 1.6938 0
M  V30 6298 C 592.369 2.34686 2.6955 0
M  V30 6299 C 592.035 3.81684 2.40058 0
M  V30 6300 C 590.697 4.21731 2.31725 0
M  V30 6301 C 593.049 4.74525 2.15581 0
M  V30 6302 C 590.377 5.52637 1.97001 0
M  V30 6303 C 592.729 6.05744 1.82366 0
M  V30 6304 C 591.393 6.44819 1.72524 0
M  V30 6305 H 590.663 0.512295 0.535382 0
M  V30 6306 H 593.31 1.73792 0.804275 0
M  V30 6307 H 591.615 1.94122 3.40329 0
M  V30 6308 H 593.312 2.31152 3.27673 0
M  V30 6309 H 589.902 3.49963 2.47435 0
M  V30 6310 H 594.086 4.44395 2.20968 0
M  V30 6311 H 589.342 5.81802 1.87928 0
M  V30 6312 H 593.516 6.77189 1.62444 0
M  V30 6313 H 591.143 7.46168 1.45385 0
M  V30 6314 N 592.718 -0.936591 1.26751 0
M  V30 6315 C 593.666 -2.0573 1.08527 0
M  V30 6316 C 594.66 -1.69397 0.0108784 0
M  V30 6317 O 595.866 -1.79215 0.167915 0
M  V30 6318 H 592.241 -0.673691 0.334133 0
M  V30 6319 H 594.212 -2.1825 2.03493 0
M  V30 6320 C 592.961 -3.39738 0.739845 0
M  V30 6321 H 592.284 -3.68174 1.55845 0
M  V30 6322 H 593.724 -4.18955 0.652149 0
M  V30 6323 C 592.183 -3.32292 -0.555288 0
M  V30 6324 O 592.713 -3.68794 -1.59229 0
M  V30 6325 N 590.919 -2.85394 -0.54762 0
M  V30 6326 H 590.466 -2.55886 0.296667 0
M  V30 6327 H 590.424 -2.80795 -1.41427 0
M  V30 6328 N 594.196 -1.08629 -1.14182 0
M  V30 6329 C 595.442 -0.818556 -1.85546 0
M  V30 6330 C 595.775 0.654076 -1.82854 0
M  V30 6331 O 595.05 1.48099 -1.26083 0
M  V30 6332 C 595.333 -1.34397 -3.3408 0
M  V30 6333 C 595.186 -2.8821 -3.45333 0
M  V30 6334 C 596.505 -0.971069 -4.29253 0
M  V30 6335 H 593.624 -0.298821 -0.673702 0
M  V30 6336 H 596.266 -1.34629 -1.34071 0
M  V30 6337 H 594.416 -0.895064 -3.78049 0
M  V30 6338 H 596.088 -3.41488 -3.10134 0
M  V30 6339 H 594.331 -3.25756 -2.86471 0
M  V30 6340 H 595.002 -3.20047 -4.49749 0
M  V30 6341 H 597.478 -1.35809 -3.93313 0
M  V30 6342 H 596.354 -1.36586 -5.31635 0
M  V30 6343 H 596.615 0.121659 -4.41933 0
M  V30 6344 N 595.674 1.31259 -0.872281 0
M  V30 6345 C 596.584 2.32221 -0.333255 0
M  V30 6346 C 597.6 1.6481 0.558013 0
M  V30 6347 O 598.776 1.96212 0.454175 0
M  V30 6348 C 595.841 3.43708 0.454479 0
M  V30 6349 C 594.902 4.26774 -0.465024 0
M  V30 6350 C 594.135 5.32937 0.28521 0
M  V30 6351 O 594.358 5.49968 1.513 0
M  V30 6352 O 593.292 6.00834 -0.358126 0
M  V30 6353 H 597.118 2.80252 -1.17016 0
M  V30 6354 H 594.703 1.352 -0.635724 0
M  V30 6355 H 596.585 4.11656 0.900963 0
M  V30 6356 H 595.26 2.97836 1.26789 0
M  V30 6357 H 594.167 3.61571 -0.960055 0
M  V30 6358 H 595.5 4.76217 -1.2441 0
M  V30 6359 N 597.152 0.631951 1.44375 0
M  V30 6360 C 598.099 -0.0724807 2.30686 0
M  V30 6361 C 599.069 -0.835975 1.43529 0
M  V30 6362 O 600.254 -0.816849 1.7243 0
M  V30 6363 C 597.394 -1.04753 3.28817 0
M  V30 6364 C 596.507 -0.282367 4.31076 0
M  V30 6365 C 595.642 -1.2493 5.163 0
M  V30 6366 C 594.681 -0.473349 6.10267 0
M  V30 6367 N 593.818 -1.39079 6.88187 0
M  V30 6368 H 598.658 0.669477 2.90383 0
M  V30 6369 H 596.195 0.341927 1.43071 0
M  V30 6370 H 598.153 -1.62623 3.842 0
M  V30 6371 H 596.783 -1.75661 2.70819 0
M  V30 6372 H 595.835 0.412268 3.78159 0
M  V30 6373 H 597.147 0.321955 4.9776 0
M  V30 6374 H 596.301 -1.89931 5.76204 0
M  V30 6375 H 595.04 -1.88755 4.49692 0
M  V30 6376 H 594.045 0.190142 5.49471 0
M  V30 6377 H 595.27 0.16019 6.78911 0
M  V30 6378 H 593.216 -2.01623 6.24247 0
M  V30 6379 H 593.133 -0.840513 7.51313 0
M  V30 6380 H 594.401 -2.02961 7.52613 0
M  V30 6381 N 598.631 -1.53133 0.372548 0
M  V30 6382 C 600.042 -1.86404 -0.105155 0
M  V30 6383 C 600.393 -1.29289 -1.47576 0
M  V30 6384 O 599.518 -0.617646 -2.07398 0
M  V30 6385 C 600.113 -3.38223 -0.197588 0
M  V30 6386 C 598.672 -3.71266 -0.619556 0
M  V30 6387 C 597.819 -2.76353 0.228919 0
M  V30 6388 H 600.77 -1.47282 0.591077 0
M  V30 6389 H 600.791 -3.66577 -1.01987 0
M  V30 6390 H 600.303 -3.79763 0.800099 0
M  V30 6391 H 598.404 -3.35287 -1.62522 0
M  V30 6392 H 598.517 -4.77515 -0.389332 0
M  V30 6393 H 596.881 -2.52888 -0.303271 0
M  V30 6394 H 597.664 -3.20728 1.22428 0
M  V30 6395 N 600.109 -0.101901 -1.5727 0
M  V30 6396 C 601.039 0.851544 -2.17419 0
M  V30 6397 C 602.02 1.28942 -1.10941 0
M  V30 6398 O 603.205 1.35509 -1.39107 0
M  V30 6399 C 600.335 2.10816 -2.75996 0
M  V30 6400 C 599.289 1.80867 -3.87906 0
M  V30 6401 C 598.615 3.13413 -4.33216 0
M  V30 6402 C 599.915 1.0903 -5.10793 0
M  V30 6403 H 601.609 0.350381 -2.97343 0
M  V30 6404 H 599.155 0.16709 -1.43027 0
M  V30 6405 H 601.108 2.77959 -3.16729 0
M  V30 6406 H 599.832 2.63227 -1.93337 0
M  V30 6407 H 598.491 1.16119 -3.47724 0
M  V30 6408 H 598.139 3.63725 -3.47438 0
M  V30 6409 H 597.839 2.94155 -5.08671 0
M  V30 6410 H 599.363 3.81704 -4.76586 0
M  V30 6411 H 600.777 1.66295 -5.48652 0
M  V30 6412 H 599.174 0.99927 -5.91722 0
M  V30 6413 H 600.244 0.0741704 -4.84843 0
M  V30 6414 N 601.587 1.56661 0.17182 0
M  V30 6415 C 602.836 1.81158 0.886831 0
M  V30 6416 C 603.149 0.679072 1.83434 0
M  V30 6417 O 604.355 0.808964 2.59168 0
M  V30 6418 C 602.811 3.20999 1.6275 0
M  V30 6419 C 602.419 4.42117 0.723652 0
M  V30 6420 C 604.163 3.5479 2.33076 0
M  V30 6421 C 602.07 5.7298 1.46452 0
M  V30 6422 H 601 0.675543 0.334899 0
M  V30 6423 H 603.651 1.82967 0.139765 0
M  V30 6424 H 602.033 3.13506 2.4193 0
M  V30 6425 H 603.207 4.60789 -0.0311485 0
M  V30 6426 H 601.522 4.16197 0.130063 0
M  V30 6427 H 604.119 4.49806 2.89099 0
M  V30 6428 H 604.462 2.79646 3.08389 0
M  V30 6429 H 604.995 3.63834 1.6084 0
M  V30 6430 H 601.734 6.51152 0.753729 0
M  V30 6431 H 601.254 5.58285 2.19266 0
M  V30 6432 H 602.933 6.14916 2.01214 0
M  V30 6433 N 603.065 -0.440357 1.51323 0
M  V30 6434 C 604.312 -1.19004 1.63842 0
M  V30 6435 C 604.64 -1.91266 0.35321 0
M  V30 6436 O 603.895 -1.84143 -0.662565 0
M  V30 6437 C 604.194 -2.2339 2.78984 0
M  V30 6438 C 603.86 -1.68162 4.18369 0
M  V30 6439 C 602.522 -1.52823 4.56288 0
M  V30 6440 C 604.874 -1.27524 5.05358 0
M  V30 6441 C 602.202 -0.953157 5.78906 0
M  V30 6442 C 604.554 -0.714474 6.28552 0
M  V30 6443 C 603.218 -0.547961 6.65247 0
M  V30 6444 H 602.488 -0.435468 0.59954 0
M  V30 6445 H 605.135 -0.481538 1.85347 0
M  V30 6446 H 603.44 -3.00267 2.51688 0
M  V30 6447 H 605.137 -2.81211 2.85869 0
M  V30 6448 H 601.727 -1.81077 3.8847 0
M  V30 6449 H 605.911 -1.38197 4.76671 0
M  V30 6450 H 601.167 -0.811882 6.05986 0
M  V30 6451 H 605.341 -0.391059 6.95301 0
M  V30 6452 H 602.968 -0.100222 7.60134 0
M  V30 6453 N 604.543 -1.41418 -0.695603 0
M  V30 6454 C 605.491 -1.43467 -1.83084 0
M  V30 6455 C 606.485 -0.312719 -1.66489 0
M  V30 6456 O 607.691 -0.484744 -1.7335 0
M  V30 6457 H 604.066 -0.448891 -0.603325 0
M  V30 6458 H 606.037 -2.39144 -1.78473 0
M  V30 6459 C 604.786 -1.3337 -3.21104 0
M  V30 6460 H 604.109 -2.18989 -3.3449 0
M  V30 6461 H 605.549 -1.38865 -4.00615 0
M  V30 6462 C 604.008 -0.0460484 -3.36869 0
M  V30 6463 O 604.538 0.909258 -3.91274 0
M  V30 6464 N 602.744 0.0300222 -2.90584 0
M  V30 6465 H 602.291 -0.748129 -2.46497 0
M  V30 6466 H 602.249 0.890991 -3.01511 0
M  V30 6467 N 606.021 0.929856 -1.27246 0
M  V30 6468 C 607.249 1.71144 -1.16265 0
M  V30 6469 C 607.664 1.867 0.280786 0
M  V30 6470 O 607.021 1.38249 1.19136 0
M  V30 6471 C 607.072 3.11222 -1.83911 0
M  V30 6472 O 606.793 2.96398 -3.22614 0
M  V30 6473 C 608.294 4.05541 -1.79028 0
M  V30 6474 H 605.514 0.535499 -0.404328 0
M  V30 6475 H 608.058 1.16492 -1.68077 0
M  V30 6476 H 606.213 3.6274 -1.36009 0
M  V30 6477 H 606.627 3.8494 -3.56261 0
M  V30 6478 H 608.101 5.01351 -2.30978 0
M  V30 6479 H 608.578 4.32589 -0.759168 0
M  V30 6480 H 609.184 3.59947 -2.26535 0
M  V30 6481 N 607.499 1.09233 1.13605 0
M  V30 6482 C 608.729 0.847677 1.88409 0
M  V30 6483 C 609.137 -0.604524 1.79282 0
M  V30 6484 O 608.48 -1.42773 1.15592 0
M  V30 6485 C 608.542 1.20153 3.38827 0
M  V30 6486 C 608.206 2.65824 3.71735 0
M  V30 6487 C 609.203 3.64072 3.71143 0
M  V30 6488 C 606.888 3.01894 4.01454 0
M  V30 6489 C 608.882 4.96419 3.99808 0
M  V30 6490 C 606.569 4.34433 4.29781 0
M  V30 6491 C 607.567 5.31505 4.28942 0
M  V30 6492 O 607.255 6.61659 4.56576 0
M  V30 6493 H 606.987 0.304813 0.603378 0
M  V30 6494 H 609.541 1.4573 1.44748 0
M  V30 6495 H 607.771 0.534946 3.82982 0
M  V30 6496 H 609.46 0.936349 3.94952 0
M  V30 6497 H 610.226 3.37549 3.4826 0
M  V30 6498 H 606.105 2.26971 4.01255 0
M  V30 6499 H 609.649 5.7218 3.99069 0
M  V30 6500 H 605.546 4.607 4.52135 0
M  V30 6501 H 606.314 6.67102 4.74254 0
M  V30 6502 N 608.977 -1.30795 0.87923 0
M  V30 6503 C 609.909 -2.27241 0.299025 0
M  V30 6504 C 610.922 -1.53472 -0.543166 0
M  V30 6505 O 612.111 -1.74756 -0.363651 0
M  V30 6506 C 609.211 -3.33655 -0.593931 0
M  V30 6507 C 608.384 -4.36857 0.2179 0
M  V30 6508 C 607.443 -5.22715 -0.604646 0
M  V30 6509 O 606.469 -5.69192 -0.0293838 0
M  V30 6510 N 607.671 -5.48008 -1.91488 0
M  V30 6511 H 610.436 -2.77667 1.12788 0
M  V30 6512 H 607.997 -1.43914 0.741637 0
M  V30 6513 H 609.989 -3.88013 -1.15012 0
M  V30 6514 H 608.559 -2.83202 -1.32346 0
M  V30 6515 H 607.779 -3.82444 0.955536 0
M  V30 6516 H 609.067 -5.02869 0.774614 0
M  V30 6517 H 608.465 -5.1202 -2.40525 0
M  V30 6518 H 607.022 -6.05264 -2.41864 0
M  V30 6519 N 610.455 -0.639598 -1.44038 0
M  V30 6520 C 611.695 -0.150902 -2.03842 0
M  V30 6521 C 612.059 1.20744 -1.49281 0
M  V30 6522 O 613.26 1.78875 -2.00642 0
M  V30 6523 C 611.531 -0.146114 -3.57101 0
M  V30 6524 S 613.09 0.276725 -4.37927 0
M  V30 6525 H 609.908 -0.0652447 -0.708 0
M  V30 6526 H 612.51 -0.844886 -1.76301 0
M  V30 6527 H 611.214 -1.13769 -3.94316 0
M  V30 6528 H 610.745 0.568846 -3.89266 0
M  V30 6529 H 612.76 1.51893 -4.7238 0
M  V30 6530 N 611.933 1.52934 -0.380664 0
M  V30 6531 C 613.163 2.05587 0.204302 0
M  V30 6532 C 613.571 1.25288 1.41773 0
M  V30 6533 O 612.914 0.290394 1.8139 0
M  V30 6534 C 612.976 3.53624 0.647324 0
M  V30 6535 C 612.64 4.54765 -0.451465 0
M  V30 6536 C 613.637 5.03226 -1.30614 0
M  V30 6537 C 611.322 4.98508 -0.616025 0
M  V30 6538 C 613.316 5.94046 -2.31058 0
M  V30 6539 C 611.003 5.89131 -1.62381 0
M  V30 6540 C 612.001 6.36792 -2.46952 0
M  V30 6541 O 611.689 7.25626 -3.46009 0
M  V30 6542 H 611.421 0.675013 0.0365198 0
M  V30 6543 H 613.975 1.98125 -0.541827 0
M  V30 6544 H 612.205 3.58676 1.44529 0
M  V30 6545 H 613.894 3.89061 1.15698 0
M  V30 6546 H 614.66 4.70167 -1.19027 0
M  V30 6547 H 610.539 4.60989 0.0324987 0
M  V30 6548 H 614.083 6.3117 -2.97104 0
M  V30 6549 H 609.98 6.21603 -1.7401 0
M  V30 6550 H 610.748 7.43664 -3.41916 0
M  V30 6551 N 613.412 0.11024 1.57214 0
M  V30 6552 C 614.342 -0.840002 2.17867 0
M  V30 6553 C 615.323 -1.28352 1.11624 0
M  V30 6554 O 616.508 -1.3477 1.39824 0
M  V30 6555 C 613.638 -2.09349 2.77111 0
M  V30 6556 C 612.592 -1.78807 3.8886 0
M  V30 6557 C 611.918 -3.11112 4.34872 0
M  V30 6558 C 613.218 -1.0632 5.11364 0
M  V30 6559 H 614.912 -0.334608 2.97524 0
M  V30 6560 H 612.458 -0.159502 1.43114 0
M  V30 6561 H 614.411 -2.76275 3.18198 0
M  V30 6562 H 613.135 -2.62198 1.9473 0
M  V30 6563 H 611.794 -1.14273 3.48335 0
M  V30 6564 H 611.442 -3.61877 3.49362 0
M  V30 6565 H 611.142 -2.91453 5.10224 0
M  V30 6566 H 612.666 -3.79171 4.78604 0
M  V30 6567 H 614.08 -1.63383 5.49526 0
M  V30 6568 H 612.477 -0.967876 5.92243 0
M  V30 6569 H 613.547 -0.0484569 4.84876 0
M  V30 6570 N 614.89 -1.56749 -0.16351 0
M  V30 6571 C 615.837 -1.97011 -1.2023 0
M  V30 6572 C 616.807 -0.835186 -1.43575 0
M  V30 6573 O 617.992 -1.09594 -1.56185 0
M  V30 6574 C 615.132 -2.34186 -2.53478 0
M  V30 6575 C 614.245 -3.60893 -2.37446 0
M  V30 6576 C 613.38 -3.87245 -3.63614 0
M  V30 6577 C 612.419 -5.07274 -3.42548 0
M  V30 6578 N 611.556 -5.29719 -4.60806 0
M  V30 6579 H 616.396 -2.85562 -0.851958 0
M  V30 6580 H 613.933 -1.41292 -0.409257 0
M  V30 6581 H 615.891 -2.53764 -3.31149 0
M  V30 6582 H 614.521 -1.48736 -2.86492 0
M  V30 6583 H 613.573 -3.49185 -1.50911 0
M  V30 6584 H 614.885 -4.48722 -2.1783 0
M  V30 6585 H 614.039 -4.07232 -4.49719 0
M  V30 6586 H 612.778 -2.97806 -3.86216 0
M  V30 6587 H 611.783 -4.87177 -2.5483 0
M  V30 6588 H 613.008 -5.98251 -3.2136 0
M  V30 6589 H 610.954 -4.43233 -4.83612 0
M  V30 6590 H 610.871 -6.11786 -4.44132 0
M  V30 6591 H 612.139 -5.54192 -5.48171 0
M  V30 6592 N 616.368 0.432326 -1.51554 0
M  V30 6593 C 617.645 1.19288 -1.55015 0
M  V30 6594 C 618.025 2.08701 -0.317375 0
M  V30 6595 O 617.373 2.17602 0.697243 0
M  V30 6596 C 617.583 1.99037 -2.86679 0
M  V30 6597 C 618.931 2.55907 -3.38817 0
M  V30 6598 O 619.955 2.09243 -2.88263 0
M  V30 6599 O 618.814 3.41029 -4.27038 0
M  V30 6600 H 615.908 0.543369 -0.623441 0
M  V30 6601 H 618.454 0.440988 -1.6387 0
M  V30 6602 H 617.226 1.33397 -3.6786 0
M  V30 6603 H 616.849 2.81281 -2.8101 0
M  V30 6604 N 617.846 1.41785 0.688094 0
M  V30 6605 C 618.809 1.43936 1.78368 0
M  V30 6606 C 619.809 0.328866 1.57401 0
M  V30 6607 O 620.999 0.589093 1.63937 0
M  V30 6608 C 618.131 1.25804 3.16838 0
M  V30 6609 H 619.324 2.41472 1.77852 0
M  V30 6610 H 616.877 1.28037 0.896448 0
M  V30 6611 H 617.612 0.291386 3.22988 0
M  V30 6612 H 617.397 2.06272 3.33458 0
M  V30 6613 H 618.887 1.30162 3.96797 0
M  V30 6614 N 619.324 -0.923095 1.27737 0
M  V30 6615 C 620.554 -1.70277 1.17001 0
M  V30 6616 C 620.962 -1.87188 -0.275199 0
M  V30 6617 O 620.305 -1.39195 -1.19877 0
M  V30 6618 C 620.367 -3.11976 1.78637 0
M  V30 6619 C 620.031 -3.18386 3.27841 0
M  V30 6620 C 621.028 -3.00287 4.2441 0
M  V30 6621 C 618.713 -3.41198 3.68632 0
M  V30 6622 C 620.707 -3.04896 5.59747 0
M  V30 6623 C 618.394 -3.4544 5.04097 0
M  V30 6624 C 619.392 -3.27309 5.99465 0
M  V30 6625 O 619.08 -3.31295 7.32461 0
M  V30 6626 H 618.812 -0.539366 0.407505 0
M  V30 6627 H 621.366 -1.16446 1.69202 0
M  V30 6628 H 619.596 -3.67308 1.20919 0
M  V30 6629 H 621.285 -3.7193 1.6255 0
M  V30 6630 H 622.051 -2.825 3.94232 0
M  V30 6631 H 617.93 -3.54359 2.94873 0
M  V30 6632 H 621.474 -2.90662 6.34162 0
M  V30 6633 H 617.371 -3.62753 5.33929 0
M  V30 6634 H 618.139 -3.47719 7.40968 0
M  V30 6635 N 620.802 -1.09834 -1.13024 0
M  V30 6636 C 622.079 -0.749225 -1.80682 0
M  V30 6637 C 622.459 0.765171 -1.96744 0
M  V30 6638 O 621.807 1.68912 -1.53886 0
M  V30 6639 C 622.017 -1.49311 -3.15448 0
M  V30 6640 C 623.365 -1.66162 -3.90737 0
M  V30 6641 O 624.389 -1.45597 -3.25085 0
M  V30 6642 O 623.248 -2.00211 -5.08505 0
M  V30 6643 H 620.342 -0.269614 -0.781817 0
M  V30 6644 H 622.888 -1.20078 -1.19914 0
M  V30 6645 H 621.66 -2.52407 -2.99009 0
M  V30 6646 H 621.283 -1.034 -3.8392 0
M  V30 6647 N 622.28 1.30327 -0.886154 0
M  V30 6648 C 623.228 2.30052 -0.343317 0
M  V30 6649 C 624.222 1.60212 0.550305 0
M  V30 6650 O 625.428 1.74674 0.434609 0
M  V30 6651 H 621.803 0.746306 -0.0923681 0
M  V30 6652 H 623.774 2.73294 -1.19804 0
M  V30 6653 C 622.523 3.45079 0.426107 0
M  V30 6654 H 621.846 3.99003 -0.25227 0
M  V30 6655 H 623.286 4.16931 0.771009 0
M  V30 6656 C 621.745 2.95195 1.62363 0
M  V30 6657 O 622.275 2.95323 2.723 0
M  V30 6658 N 620.481 2.51192 1.4612 0
M  V30 6659 H 620.028 2.51286 0.566832 0
M  V30 6660 H 619.986 2.18173 2.2638 0
M  V30 6661 N 623.758 0.647228 1.43697 0
M  V30 6662 C 625.004 0.158422 2.0218 0
M  V30 6663 C 625.337 -1.22233 1.50907 0
M  V30 6664 O 624.612 -1.81478 0.699702 0
M  V30 6665 C 624.895 0.1627 3.59732 0
M  V30 6666 C 624.748 1.57694 4.21251 0
M  V30 6667 C 626.067 -0.504138 4.37203 0
M  V30 6668 H 623.186 0.059042 0.734631 0
M  V30 6669 H 625.828 0.826772 1.71069 0
M  V30 6670 H 623.978 -0.406414 3.86368 0
M  V30 6671 H 625.65 2.19618 4.05667 0
M  V30 6672 H 623.893 2.12603 3.7813 0
M  V30 6673 H 624.564 1.53183 5.3032 0
M  V30 6674 H 627.04 -0.0199841 4.16095 0
M  V30 6675 H 625.916 -0.470394 5.46881 0
M  V30 6676 H 626.177 -1.57726 4.13007 0
M  V30 6677 N 625.236 -1.5273 0.388769 0
M  V30 6678 C 626.464 -2.05992 -0.193677 0
M  V30 6679 C 626.879 -1.26053 -1.40557 0
M  V30 6680 O 626.236 -0.307049 -1.79898 0
M  V30 6681 C 626.287 -3.57068 -0.564321 0
M  V30 6682 O 626.008 -4.3398 0.599422 0
M  V30 6683 C 627.509 -4.26674 -1.20269 0
M  V30 6684 H 624.729 -0.670358 -0.0293445 0
M  V30 6685 H 627.273 -1.96857 0.553844 0
M  V30 6686 H 625.428 -3.66277 -1.26174 0
M  V30 6687 H 625.842 -5.2367 0.294895 0
M  V30 6688 H 627.316 -5.33625 -1.4124 0
M  V30 6689 H 627.793 -3.81854 -2.16989 0
M  V30 6690 H 628.399 -4.2178 -0.546047 0
M  V30 6691 N 626.714 -0.118576 -1.57153 0
M  V30 6692 C 627.644 0.828436 -2.1831 0
M  V30 6693 C 628.625 1.27758 -1.12303 0
M  V30 6694 O 629.81 1.34026 -1.40537 0
M  V30 6695 C 626.94 2.07876 -2.78217 0
M  V30 6696 C 625.894 1.76742 -3.89803 0
M  V30 6697 C 625.22 3.08801 -4.36516 0
M  V30 6698 C 626.52 1.03606 -5.11921 0
M  V30 6699 H 628.214 0.318824 -2.97698 0
M  V30 6700 H 625.76 0.151911 -1.43196 0
M  V30 6701 H 627.713 2.74584 -3.19659 0
M  V30 6702 H 626.437 2.61161 -1.96118 0
M  V30 6703 H 625.096 1.12424 -3.48936 0
M  V30 6704 H 624.744 3.6002 -3.51276 0
M  V30 6705 H 624.444 2.88743 -5.11763 0
M  V30 6706 H 625.968 3.76627 -4.80608 0
M  V30 6707 H 627.382 1.60467 -5.50385 0
M  V30 6708 H 625.779 0.936454 -5.92748 0
M  V30 6709 H 626.849 0.0227421 -4.84895 0
M  V30 6710 N 628.193 1.56834 0.155195 0
M  V30 6711 C 629.47 1.73799 0.897395 0
M  V30 6712 C 629.85 0.684379 1.99698 0
M  V30 6713 O 629.198 -0.298111 2.26547 0
M  V30 6714 C 629.408 3.17572 1.44737 0
M  V30 6715 C 630.756 3.79014 1.91399 0
M  V30 6716 O 631.78 3.20951 1.54496 0
M  V30 6717 O 630.639 4.80998 2.59429 0
M  V30 6718 H 627.733 0.710329 0.423511 0
M  V30 6719 H 630.279 1.69107 0.141761 0
M  V30 6720 H 629.051 3.85749 0.656741 0
M  V30 6721 H 628.674 3.26657 2.26674 0
M  V30 6722 N 629.671 -0.424282 1.51781 0
M  V30 6723 C 630.917 -1.17434 1.6534 0
M  V30 6724 C 631.25 -1.90549 0.374806 0
M  V30 6725 O 630.525 -1.84145 -0.626179 0
M  V30 6726 C 630.808 -2.18093 2.86544 0
M  V30 6727 C 630.661 -1.48975 4.24413 0
M  V30 6728 C 631.98 -3.18934 3.03264 0
M  V30 6729 H 629.099 -0.425566 0.601716 0
M  V30 6730 H 631.741 -0.461921 1.84299 0
M  V30 6731 H 629.891 -2.78849 2.7051 0
M  V30 6732 H 631.563 -0.914551 4.52143 0
M  V30 6733 H 629.806 -0.791893 4.26511 0
M  V30 6734 H 630.477 -2.22347 5.05238 0
M  V30 6735 H 632.953 -2.68243 3.18096 0
M  V30 6736 H 631.829 -3.86645 3.89611 0
M  V30 6737 H 632.09 -3.85793 2.15908 0
M  V30 6738 N 631.149 -1.42148 -0.680565 0
M  V30 6739 C 632.059 -1.47565 -1.82378 0
M  V30 6740 C 633.075 -0.36489 -1.70131 0
M  V30 6741 O 634.251 -0.614916 -1.91783 0
M  V30 6742 C 631.316 -1.37013 -3.18478 0
M  V30 6743 C 630.377 -2.58532 -3.42724 0
M  V30 6744 C 629.61 -2.48473 -4.72331 0
M  V30 6745 O 629.833 -1.51745 -5.49845 0
M  V30 6746 O 628.767 -3.38503 -4.97694 0
M  V30 6747 H 632.593 -2.44045 -1.80764 0
M  V30 6748 H 630.178 -1.23849 -0.835569 0
M  V30 6749 H 632.06 -1.33468 -3.99705 0
M  V30 6750 H 630.735 -0.436552 -3.20743 0
M  V30 6751 H 629.642 -2.67652 -2.61368 0
M  V30 6752 H 630.975 -3.50769 -3.45286 0
M  V30 6753 N 632.627 0.916307 -1.28225 0
M  V30 6754 C 633.557 2.0352 -1.14464 0
M  V30 6755 C 634.538 1.70045 -0.0430844 0
M  V30 6756 O 635.723 1.92954 -0.219619 0
M  V30 6757 C 632.853 3.37889 -0.803027 0
M  V30 6758 C 631.807 3.85516 -1.85908 0
M  V30 6759 C 631.133 5.1682 -1.37116 0
M  V30 6760 C 632.433 4.07655 -3.26519 0
M  V30 6761 H 634.127 2.1529 -2.08064 0
M  V30 6762 H 631.673 1.03446 -1.00174 0
M  V30 6763 H 633.626 4.15654 -0.693537 0
M  V30 6764 H 632.35 3.26164 0.168674 0
M  V30 6765 H 631.009 3.09953 -1.95767 0
M  V30 6766 H 630.657 5.01497 -0.38859 0
M  V30 6767 H 630.357 5.49657 -2.07728 0
M  V30 6768 H 631.881 5.97143 -1.27484 0
M  V30 6769 H 633.295 4.75953 -3.19596 0
M  V30 6770 H 631.692 4.51818 -3.94943 0
M  V30 6771 H 632.762 3.12553 -3.70727 0
M  V30 6772 N 634.105 1.10431 1.1244 0
M  V30 6773 C 635.068 0.756542 2.16354 0
M  V30 6774 C 636.068 -0.21899 1.59302 0
M  V30 6775 O 637.258 0.00415969 1.742 0
M  V30 6776 C 634.39 0.120612 3.40687 0
M  V30 6777 H 635.583 1.67696 2.48632 0
M  V30 6778 H 633.136 0.904832 1.27446 0
M  V30 6779 H 633.871 -0.810536 3.14008 0
M  V30 6780 H 633.656 0.822693 3.83372 0
M  V30 6781 H 635.146 -0.106945 4.17463 0
M  V30 6782 N 635.583 -1.29855 0.893053 0
M  V30 6783 C 636.999 -1.48366 0.588199 0
M  V30 6784 C 637.199 -1.81654 -0.872018 0
M  V30 6785 O 636.255 -1.909 -1.65268 0
M  V30 6786 C 637.568 -2.60136 1.5083 0
M  V30 6787 C 639.116 -2.74014 1.51279 0
M  V30 6788 C 639.591 -3.88905 2.41902 0
M  V30 6789 N 641.082 -3.96228 2.39911 0
M  V30 6790 C 641.817 -4.84458 3.06738 0
M  V30 6791 N 641.313 -5.77426 3.8282 0
M  V30 6792 N 643.106 -4.77894 2.95929 0
M  V30 6793 H 635.257 -1.06522 1.83757 0
M  V30 6794 H 637.52 -0.528495 0.787018 0
M  V30 6795 H 637.226 -2.42383 2.54839 0
M  V30 6796 H 637.1 -3.56793 1.22388 0
M  V30 6797 H 639.487 -2.91167 0.480179 0
M  V30 6798 H 639.568 -1.77952 1.83757 0
M  V30 6799 H 639.212 -3.72508 3.45253 0
M  V30 6800 H 639.142 -4.84322 2.06737 0
M  V30 6801 H 641.633 -3.29728 1.84629 0
M  V30 6802 H 641.946 -6.41529 4.30883 0
M  V30 6803 H 640.291 -5.77332 3.86927 0
M  V30 6804 H 643.482 -4.04248 2.36012 0
M  V30 6805 H 643.655 -5.46444 3.48286 0
M  V30 6806 N 637.061 -0.65484 -1.43351 0
M  V30 6807 C 638.477 -0.32255 -1.56307 0
M  V30 6808 C 638.677 1.17324 -1.63821 0
M  V30 6809 O 637.733 1.95813 -1.59417 0
M  V30 6810 C 639.046 -1.03533 -2.82314 0
M  V30 6811 C 640.594 -1.01574 -2.9606 0
M  V30 6812 C 641.069 -1.70945 -4.24902 0
M  V30 6813 N 642.56 -1.67716 -4.3177 0
M  V30 6814 C 643.295 -2.18265 -5.30234 0
M  V30 6815 N 642.791 -2.7711 -6.34966 0
M  V30 6816 N 644.584 -2.08756 -5.21898 0
M  V30 6817 H 636.735 -1.62549 -1.36717 0
M  V30 6818 H 638.998 -0.683676 -0.656727 0
M  V30 6819 H 638.704 -2.09045 -2.8283 0
M  V30 6820 H 638.578 -0.587913 -3.7259 0
M  V30 6821 H 640.965 0.0309834 -2.95084 0
M  V30 6822 H 641.046 -1.50186 -2.07069 0
M  V30 6823 H 640.69 -2.75574 -4.26639 0
M  V30 6824 H 640.62 -1.19797 -5.12793 0
M  V30 6825 H 643.111 -1.24777 -3.56706 0
M  V30 6826 H 643.424 -3.13353 -7.06421 0
M  V30 6827 H 641.769 -2.81171 -6.35585 0
M  V30 6828 H 644.96 -1.62488 -4.38994 0
M  V30 6829 H 645.133 -2.48459 -5.98475 0
M  V30 6830 N 638.539 1.52521 -0.396863 0
M  V30 6831 C 639.449 2.30403 0.44178 0
M  V30 6832 C 640.465 1.37625 1.06468 0
M  V30 6833 O 641.641 1.70697 1.06886 0
M  V30 6834 C 638.706 3.1013 1.54986 0
M  V30 6835 C 637.767 4.18628 0.951279 0
M  V30 6836 C 637 4.94543 2.00655 0
M  V30 6837 O 637.223 4.70629 3.22281 0
M  V30 6838 O 636.157 5.797 1.61962 0
M  V30 6839 H 639.983 3.03087 -0.192892 0
M  V30 6840 H 637.568 1.48537 -0.16038 0
M  V30 6841 H 639.45 3.59816 2.19341 0
M  V30 6842 H 638.125 2.40251 2.16935 0
M  V30 6843 H 637.032 3.73119 0.270773 0
M  V30 6844 H 638.365 4.90763 0.375887 0
M  V30 6845 N 640.017 0.126909 1.57088 0
M  V30 6846 C 641.265 -0.528123 1.95078 0
M  V30 6847 C 641.586 -1.66708 1.0116 0
M  V30 6848 O 640.856 -1.95777 0.0693527 0
M  V30 6849 H 639.436 -0.198087 0.720257 0
M  V30 6850 H 642.098 0.197703 1.93895 0
M  V30 6851 H 641.194 -0.917507 2.98309 0
M  V30 6852 N 641.495 -1.56914 -0.146875 0
M  V30 6853 C 642.741 -1.84515 -0.855914 0
M  V30 6854 C 643.096 -0.710909 -1.78784 0
M  V30 6855 O 642.389 0.291123 -1.89375 0
M  V30 6856 C 642.583 -3.16128 -1.66727 0
M  V30 6857 C 642.412 -4.42246 -0.815405 0
M  V30 6858 C 641.182 -5.03006 -0.480976 0
M  V30 6859 C 643.38 -5.14094 -0.145684 0
M  V30 6860 N 641.362 -6.12695 0.384476 0
M  V30 6861 C 642.733 -6.17282 0.579902 0
M  V30 6862 C 644.788 -4.97856 -0.0663705 0
M  V30 6863 C 643.491 -7.0599 1.37731 0
M  V30 6864 C 645.517 -5.87028 0.71778 0
M  V30 6865 C 644.879 -6.89698 1.43165 0
M  V30 6866 H 640.978 -0.725829 -0.291026 0
M  V30 6867 H 643.562 -1.94322 -0.121279 0
M  V30 6868 H 641.733 -3.07468 -2.37315 0
M  V30 6869 H 643.465 -3.31635 -2.31949 0
M  V30 6870 H 640.22 -4.66504 -0.816789 0
M  V30 6871 H 640.644 -6.72158 0.80823 0
M  V30 6872 H 645.286 -4.18465 -0.603929 0
M  V30 6873 H 643.004 -7.84809 1.92613 0
M  V30 6874 H 646.59 -5.76532 0.781141 0
M  V30 6875 H 645.47 -7.57505 2.02868 0
M  V30 6876 N 642.974 0.416227 -1.52004 0
M  V30 6877 C 644.214 1.17307 -1.67387 0
M  V30 6878 C 644.578 1.87959 -0.39183 0
M  V30 6879 O 645.779 2.65472 -0.421671 0
M  V30 6880 C 644.05 2.14661 -2.85754 0
M  V30 6881 S 645.609 2.98549 -3.21581 0
M  V30 6882 H 642.427 0.397505 -0.5895 0
M  V30 6883 H 645.029 0.461431 -1.89976 0
M  V30 6884 H 643.733 1.61431 -3.77317 0
M  V30 6885 H 643.264 2.90375 -2.65417 0
M  V30 6886 H 645.279 4.16536 -2.69652 0
M  V30 6887 N 644.452 1.42507 0.673017 0
M  V30 6888 C 645.699 1.43072 1.43306 0
M  V30 6889 C 646.027 0.0478004 1.94441 0
M  V30 6890 O 645.282 -0.944106 1.71421 0
M  V30 6891 C 645.581 2.40351 2.64511 0
M  V30 6892 C 645.247 3.8669 2.31908 0
M  V30 6893 C 643.909 4.26551 2.22728 0
M  V30 6894 C 646.261 4.78991 2.05467 0
M  V30 6895 C 643.589 5.56691 1.85234 0
M  V30 6896 C 645.941 6.09476 1.69477 0
M  V30 6897 C 644.605 6.48334 1.58808 0
M  V30 6898 H 643.875 0.523536 0.524395 0
M  V30 6899 H 646.522 1.75459 0.76723 0
M  V30 6900 H 644.827 2.01297 3.36135 0
M  V30 6901 H 646.524 2.38051 3.22696 0
M  V30 6902 H 643.114 3.55132 2.39956 0
M  V30 6903 H 647.298 4.48982 2.11492 0
M  V30 6904 H 642.554 5.85657 1.75545 0
M  V30 6905 H 646.728 6.80482 1.48043 0
M  V30 6906 H 644.355 7.49084 1.29525 0
M  V30 6907 N 645.93 -0.909495 1.28709 0
M  V30 6908 C 647.178 -1.65577 1.15882 0
M  V30 6909 C 647.499 -1.928 -0.292108 0
M  V30 6910 O 646.769 -1.54716 -1.20166 0
M  V30 6911 H 645.349 -0.613714 0.425869 0
M  V30 6912 H 648.011 -1.09108 1.61498 0
M  V30 6913 H 647.107 -2.61634 1.70159 0
M  V30 6914 N 647.408 -1.11026 -1.11852 0
M  V30 6915 C 648.371 -0.768006 -2.1595 0
M  V30 6916 C 649.371 0.210538 -1.59416 0
M  V30 6917 O 650.561 -0.0133978 -1.74195 0
M  V30 6918 C 647.693 -0.138678 -3.40618 0
M  V30 6919 H 648.886 -1.69012 -2.4774 0
M  V30 6920 H 646.439 -0.911578 -1.26964 0
M  V30 6921 H 647.174 0.793872 -3.14433 0
M  V30 6922 H 646.959 -0.843012 -3.8293 0
M  V30 6923 H 648.449 0.0848039 -4.17514 0
M  V30 6924 N 648.886 1.2938 -0.899927 0
M  V30 6925 C 649.833 2.27713 -0.376243 0
M  V30 6926 C 650.803 1.57016 0.541774 0
M  V30 6927 O 651.988 1.84997 0.466966 0
M  V30 6928 C 649.128 3.42889 0.39 0
M  V30 6929 C 648.241 4.28369 -0.558938 0
M  V30 6930 C 647.376 5.30726 0.224379 0
M  V30 6931 C 646.415 6.07862 -0.719068 0
M  V30 6932 N 645.552 7.02094 0.0298569 0
M  V30 6933 H 650.392 2.71888 -1.21988 0
M  V30 6934 H 647.929 1.33724 -0.612879 0
M  V30 6935 H 649.887 4.08443 0.850314 0
M  V30 6936 H 648.517 2.99743 1.19809 0
M  V30 6937 H 647.569 3.62986 -1.13777 0
M  V30 6938 H 648.881 4.82068 -1.2811 0
M  V30 6939 H 648.035 6.02098 0.745881 0
M  V30 6940 H 646.774 4.77759 0.979674 0
M  V30 6941 H 645.779 5.35353 -1.25207 0
M  V30 6942 H 647.004 6.62917 -1.4737 0
M  V30 6943 H 644.95 6.51496 0.767415 0
M  V30 6944 H 644.867 7.5335 -0.632391 0
M  V30 6945 H 646.135 7.77685 0.531615 0
M  V30 6946 N 650.364 0.662433 1.43002 0
M  V30 6947 C 651.294 -0.00979809 2.33498 0
M  V30 6948 C 652.275 -0.802329 1.49989 0
M  V30 6949 O 653.46 -0.761964 1.78627 0
M  V30 6950 C 650.59 -0.970446 3.33466 0
M  V30 6951 C 649.544 -0.287383 4.27034 0
M  V30 6952 C 648.87 -1.36012 5.17112 0
M  V30 6953 C 650.17 0.82595 5.15728 0
M  V30 6954 H 651.864 0.745959 2.89958 0
M  V30 6955 H 649.41 0.360172 1.39423 0
M  V30 6956 H 651.363 -1.44971 3.95679 0
M  V30 6957 H 650.087 -1.75748 2.75282 0
M  V30 6958 H 648.746 0.17152 3.66199 0
M  V30 6959 H 648.394 -2.13882 4.55262 0
M  V30 6960 H 648.094 -0.908276 5.80538 0
M  V30 6961 H 649.618 -1.84056 5.82199 0
M  V30 6962 H 651.032 0.42845 5.71697 0
M  V30 6963 H 649.429 1.20282 5.87922 0
M  V30 6964 H 650.499 1.68003 4.54866 0
M  V30 6965 N 651.842 -1.52309 0.404946 0
M  V30 6966 C 653.088 -2.02065 -0.172455 0
M  V30 6967 C 653.421 -1.29022 -1.45145 0
M  V30 6968 O 652.696 -0.395284 -1.90441 0
M  V30 6969 C 652.979 -3.5759 -0.424433 0
M  V30 6970 C 652.832 -4.41287 0.870945 0
M  V30 6971 C 654.151 -4.23186 -1.20837 0
M  V30 6972 H 651.27 -0.734454 -0.0612035 0
M  V30 6973 H 653.912 -1.82236 0.53759 0
M  V30 6974 H 652.062 -3.74617 -1.02929 0
M  V30 6975 H 653.734 -4.3598 1.50729 0
M  V30 6976 H 651.977 -4.07669 1.48284 0
M  V30 6977 H 652.648 -5.48171 0.649083 0
M  V30 6978 H 655.124 -4.10232 -0.696338 0
M  V30 6979 H 654 -5.31953 -1.35343 0
M  V30 6980 H 654.261 -3.81862 -2.22786 0
M  V30 6981 N 653.32 -0.135238 -1.57019 0
M  V30 6982 C 654.736 0.221262 -1.58059 0
M  V30 6983 C 654.936 1.65538 -1.14889 0
M  V30 6984 O 653.992 2.37985 -0.843751 0
M  V30 6985 C 655.305 -0.0268114 -3.00688 0
M  V30 6986 C 656.853 0.0378206 -3.12977 0
M  V30 6987 C 657.328 -0.182769 -4.57635 0
M  V30 6988 N 658.819 -0.129292 -4.6302 0
M  V30 6989 C 659.554 -0.274648 -5.72742 0
M  V30 6990 N 659.05 -0.477075 -6.91155 0
M  V30 6991 N 660.843 -0.213077 -5.61696 0
M  V30 6992 H 652.994 -1.07177 -1.83376 0
M  V30 6993 H 655.257 -0.423338 -0.848227 0
M  V30 6994 H 654.963 -1.01889 -3.36618 0
M  V30 6995 H 654.837 0.697863 -3.70688 0
M  V30 6996 H 657.224 1.02043 -2.76896 0
M  V30 6997 H 657.305 -0.718996 -2.45487 0
M  V30 6998 H 656.949 -1.16243 -4.94419 0
M  V30 6999 H 656.879 0.59423 -5.23237 0
M  V30 7000 H 659.37 0.0229896 -3.77893 0
M  V30 7001 H 659.683 -0.578413 -7.70632 0
M  V30 7002 H 658.028 -0.513252 -6.93102 0
M  V30 7003 H 661.219 -0.0557796 -4.68067 0
M  V30 7004 H 661.392 -0.329796 -6.4716 0
M  V30 7005 N 654.798 1.5699 0.138552 0
M  V30 7006 C 656.046 1.83446 0.848053 0
M  V30 7007 C 656.367 0.71744 1.81322 0
M  V30 7008 O 655.637 -0.260228 1.94164 0
M  V30 7009 H 654.217 0.676792 0.316166 0
M  V30 7010 H 656.879 1.94462 0.130538 0
M  V30 7011 H 655.975 2.78677 1.40518 0
M  V30 7012 N 656.276 -0.40816 1.52223 0
M  V30 7013 C 657.239 -1.48 1.7501 0
M  V30 7014 C 658.239 -1.48367 0.619996 0
M  V30 7015 O 659.429 -1.49874 0.887881 0
M  V30 7016 C 656.561 -2.87403 1.83336 0
M  V30 7017 H 657.754 -1.29086 2.70697 0
M  V30 7018 H 655.307 -0.638715 1.42654 0
M  V30 7019 H 656.042 -3.11686 0.895677 0
M  V30 7020 H 655.827 -2.8854 2.65494 0
M  V30 7021 H 657.317 -3.65103 2.02705 0
M  V30 7022 N 657.755 -1.42862 -0.66545 0
M  V30 7023 C 658.985 -1.47032 -1.45138 0
M  V30 7024 C 659.393 -0.0829977 -1.89018 0
M  V30 7025 O 658.736 0.914551 -1.59316 0
M  V30 7026 C 658.798 -2.34302 -2.72659 0
M  V30 7027 C 658.462 -3.82034 -2.50796 0
M  V30 7028 C 659.459 -4.73453 -2.14799 0
M  V30 7029 C 657.144 -4.26397 -2.655 0
M  V30 7030 C 659.138 -6.07228 -1.93785 0
M  V30 7031 C 656.825 -5.6023 -2.44103 0
M  V30 7032 C 657.823 -6.50462 -2.08299 0
M  V30 7033 O 657.511 -7.8182 -1.87116 0
M  V30 7034 H 657.243 -0.501969 -0.452772 0
M  V30 7035 H 659.797 -1.88137 -0.82423 0
M  V30 7036 H 658.027 -1.88063 -3.37889 0
M  V30 7037 H 659.716 -2.29818 -3.34572 0
M  V30 7038 H 660.482 -4.4046 -2.03026 0
M  V30 7039 H 656.361 -3.56448 -2.92345 0
M  V30 7040 H 659.905 -6.7762 -1.65763 0
M  V30 7041 H 655.802 -5.92793 -2.55475 0
M  V30 7042 H 656.57 -7.93274 -2.01639 0
M  V30 7043 N 659.233 0.902656 -1.29189 0
M  V30 7044 C 660.163 2.02294 -1.16616 0
M  V30 7045 C 661.144 1.6999 -0.0611175 0
M  V30 7046 O 662.329 1.9271 -0.240072 0
M  V30 7047 C 659.459 3.37018 -0.83882 0
M  V30 7048 C 658.413 3.83522 -1.89986 0
M  V30 7049 C 657.739 5.15337 -1.42589 0
M  V30 7050 C 659.039 4.04169 -3.30824 0
M  V30 7051 H 660.733 2.13071 -2.10336 0
M  V30 7052 H 658.279 1.02378 -1.01266 0
M  V30 7053 H 660.232 4.14895 -0.737584 0
M  V30 7054 H 658.956 3.26325 0.134071 0
M  V30 7055 H 657.615 3.07859 -1.99043 0
M  V30 7056 H 657.263 5.01056 -0.441759 0
M  V30 7057 H 656.963 5.47423 -2.13547 0
M  V30 7058 H 658.487 5.95758 -1.3381 0
M  V30 7059 H 659.901 4.72537 -3.24626 0
M  V30 7060 H 658.298 4.47604 -3.99713 0
M  V30 7061 H 659.368 3.08604 -3.74021 0
M  V30 7062 N 660.711 1.11618 1.11262 0
M  V30 7063 C 661.674 0.779447 2.15539 0
M  V30 7064 C 662.674 -0.202081 1.59525 0
M  V30 7065 O 663.864 0.0226356 1.74185 0
M  V30 7066 C 660.996 0.15674 3.40539 0
M  V30 7067 H 662.189 1.70324 2.4684 0
M  V30 7068 H 659.742 0.918298 1.26479 0
M  V30 7069 H 660.477 -0.777186 3.1485 0
M  V30 7070 H 660.262 0.863308 3.82478 0
M  V30 7071 H 661.752 -0.062661 4.17553 0
M  V30 7072 N 662.189 -1.289 0.906776 0
M  V30 7073 C 663.121 -2.26556 0.347159 0
M  V30 7074 C 664.134 -1.54589 -0.51049 0
M  V30 7075 O 665.323 -1.75489 -0.326501 0
M  V30 7076 C 662.423 -3.3484 -0.523024 0
M  V30 7077 C 661.596 -4.36296 0.310515 0
M  V30 7078 C 660.655 -5.23879 -0.493634 0
M  V30 7079 O 659.681 -5.69127 0.0913569 0
M  V30 7080 N 660.883 -5.51946 -1.7982 0
M  V30 7081 H 663.648 -2.75212 1.18652 0
M  V30 7082 H 661.209 -1.42309 0.771996 0
M  V30 7083 H 663.201 -3.90366 -1.06756 0
M  V30 7084 H 661.771 -2.85946 -1.26309 0
M  V30 7085 H 660.991 -3.80331 1.03644 0
M  V30 7086 H 662.279 -5.01113 0.881106 0
M  V30 7087 H 661.677 -5.17006 -2.2961 0
M  V30 7088 H 660.234 -6.10258 -2.28971 0
M  V30 7089 N 663.667 -0.670007 -1.42649 0
M  V30 7090 C 664.577 0.0114788 -2.34597 0
M  V30 7091 C 665.593 0.794055 -1.54825 0
M  V30 7092 O 666.769 0.737472 -1.87412 0
M  V30 7093 C 663.834 0.954436 -3.33304 0
M  V30 7094 C 662.895 0.166925 -4.28975 0
M  V30 7095 C 662.128 1.06497 -5.22967 0
M  V30 7096 O 662.351 2.30446 -5.21777 0
M  V30 7097 O 661.285 0.528347 -5.99577 0
M  V30 7098 H 665.111 -0.745794 -2.944 0
M  V30 7099 H 662.696 -0.430228 -1.43071 0
M  V30 7100 H 664.578 1.49589 -3.93956 0
M  V30 7101 H 663.253 1.69164 -2.7598 0
M  V30 7102 H 662.16 -0.418515 -3.71752 0
M  V30 7103 H 663.493 -0.531067 -4.89327 0
M  V30 7104 N 665.145 1.52092 -0.413018 0
M  V30 7105 C 666.561 1.59471 -0.0640836 0
M  V30 7106 C 666.761 1.42562 1.42402 0
M  V30 7107 O 665.817 1.25453 2.19129 0
M  V30 7108 C 667.13 2.95392 -0.562474 0
M  V30 7109 C 668.678 3.08637 -0.520788 0
M  V30 7110 C 669.153 4.47044 -0.995752 0
M  V30 7111 N 670.644 4.53296 -0.952732 0
M  V30 7112 C 671.379 5.58669 -1.29138 0
M  V30 7113 N 670.875 6.71576 -1.70168 0
M  V30 7114 N 672.668 5.48898 -1.2111 0
M  V30 7115 H 664.819 1.6133 -1.38153 0
M  V30 7116 H 667.082 0.75916 -0.567785 0
M  V30 7117 H 666.788 3.13059 -1.60271 0
M  V30 7118 H 666.662 3.77191 0.0257875 0
M  V30 7119 H 669.049 2.90652 0.510412 0
M  V30 7120 H 669.13 2.28735 -1.14515 0
M  V30 7121 H 668.774 4.65773 -2.0253 0
M  V30 7122 H 668.704 5.25448 -0.348162 0
M  V30 7123 H 671.195 3.72248 -0.651119 0
M  V30 7124 H 671.508 7.47973 -1.9431 0
M  V30 7125 H 669.853 6.72847 -1.74075 0
M  V30 7126 H 673.044 4.59573 -0.889396 0
M  V30 7127 H 673.217 6.30912 -1.47833 0
M  V30 7128 N 666.623 0.143563 1.56945 0
M  V30 7129 C 667.586 -0.783295 2.154 0
M  V30 7130 C 668.586 -1.17763 1.09492 0
M  V30 7131 O 669.776 -1.09912 1.35148 0
M  V30 7132 C 666.908 -2.06248 2.7143 0
M  V30 7133 H 668.101 -0.274863 2.98638 0
M  V30 7134 H 665.654 -0.105859 1.55941 0
M  V30 7135 H 666.389 -2.61466 1.91849 0
M  V30 7136 H 666.174 -1.78897 3.4891 0
M  V30 7137 H 667.664 -2.72453 3.16479 0
M  V30 7138 N 668.101 -1.57061 -0.130224 0
M  V30 7139 C 669.517 -1.52103 -0.483413 0
M  V30 7140 C 669.717 -0.854752 -1.82473 0
M  V30 7141 O 668.773 -0.432342 -2.48771 0
M  V30 7142 C 670.086 -2.96872 -0.47825 0
M  V30 7143 C 671.634 -3.07902 -0.562592 0
M  V30 7144 C 672.109 -4.54211 -0.587929 0
M  V30 7145 N 673.6 -4.58621 -0.649684 0
M  V30 7146 C 674.335 -5.69227 -0.690551 0
M  V30 7147 N 673.831 -6.89358 -0.689743 0
M  V30 7148 N 675.624 -5.57304 -0.732708 0
M  V30 7149 H 667.775 -1.98764 0.748779 0
M  V30 7150 H 670.038 -0.907248 0.274965 0
M  V30 7151 H 669.744 -3.48944 0.439444 0
M  V30 7152 H 669.618 -3.53716 -1.31013 0
M  V30 7153 H 672.005 -2.5584 -1.47071 0
M  V30 7154 H 672.086 -2.54073 0.296764 0
M  V30 7155 H 671.73 -5.06915 0.316096 0
M  V30 7156 H 671.66 -5.0584 -1.46401 0
M  V30 7157 H 674.151 -3.72146 -0.656927 0
M  V30 7158 H 674.464 -7.69408 -0.723239 0
M  V30 7159 H 672.809 -6.91884 -0.657347 0
M  V30 7160 H 676 -4.62363 -0.730625 0
M  V30 7161 H 676.173 -6.43515 -0.76109 0
M  V30 7162 N 669.579 0.400081 -1.52437 0
M  V30 7163 C 670.542 1.4707 -1.75793 0
M  V30 7164 C 671.542 1.48036 -0.627856 0
M  V30 7165 O 672.732 1.49401 -0.895817 0
M  V30 7166 C 669.864 2.86427 -1.84858 0
M  V30 7167 H 671.057 1.27649 -2.71377 0
M  V30 7168 H 668.61 0.631141 -1.42991 0
M  V30 7169 H 669.345 3.11207 -0.912194 0
M  V30 7170 H 669.13 2.87128 -2.6702 0
M  V30 7171 H 670.62 3.64023 -2.04638 0
M  V30 7172 N 671.057 1.43213 0.657864 0
M  V30 7173 C 672.02 1.47687 1.75275 0
M  V30 7174 C 673.02 0.362179 1.56668 0
M  V30 7175 O 674.21 0.623734 1.62651 0
M  V30 7176 C 671.342 1.32497 3.14098 0
M  V30 7177 H 672.535 2.4519 1.7269 0
M  V30 7178 H 670.088 1.2991 0.869087 0
M  V30 7179 H 670.823 0.359831 3.22298 0
M  V30 7180 H 670.608 2.13299 3.29008 0
M  V30 7181 H 672.098 1.38549 3.93946 0
M  V30 7182 N 672.536 -0.895792 1.29666 0
M  V30 7183 C 673.446 -2.03329 1.17024 0
M  V30 7184 C 674.462 -1.73753 0.0925962 0
M  V30 7185 O 675.638 -1.99071 0.305431 0
M  V30 7186 C 672.703 -3.36072 0.851841 0
M  V30 7187 C 671.764 -3.7914 2.01373 0
M  V30 7188 C 670.997 -5.05549 1.71043 0
M  V30 7189 O 671.22 -5.66874 0.633213 0
M  V30 7190 O 670.154 -5.44764 2.5596 0
M  V30 7191 H 673.98 -2.16918 2.12556 0
M  V30 7192 H 671.565 -1.02007 1.09156 0
M  V30 7193 H 673.447 -4.15729 0.689006 0
M  V30 7194 H 672.122 -3.23616 -0.0736634 0
M  V30 7195 H 671.029 -3.00233 2.23183 0
M  V30 7196 H 672.362 -3.96186 2.92058 0
M  V30 7197 N 674.014 -1.12206 -1.10668 0
M  V30 7198 C 675.263 -0.870595 -1.81944 0
M  V30 7199 C 675.576 0.605447 -1.85994 0
M  V30 7200 O 676.782 0.973433 -2.53449 0
M  V30 7201 C 675.238 -1.50783 -3.26791 0
M  V30 7202 C 674.846 -3.01849 -3.31046 0
M  V30 7203 C 676.59 -1.33653 -4.02911 0
M  V30 7204 C 674.497 -3.58518 -4.70339 0
M  V30 7205 H 673.427 -0.322043 -0.681765 0
M  V30 7206 H 676.078 -1.34827 -1.24475 0
M  V30 7207 H 674.46 -0.957825 -3.84242 0
M  V30 7208 H 675.634 -3.63321 -2.83433 0
M  V30 7209 H 673.949 -3.18346 -2.68411 0
M  V30 7210 H 676.546 -1.73416 -5.05797 0
M  V30 7211 H 676.889 -0.279949 -4.15358 0
M  V30 7212 H 677.422 -1.85562 -3.51868 0
M  V30 7213 H 674.161 -4.63925 -4.63091 0
M  V30 7214 H 673.681 -3.01819 -5.18329 0
M  V30 7215 H 675.36 -3.57434 -5.39305 0
M  V30 7216 N 675.492 1.28418 -0.913599 0
M  V30 7217 C 676.74 1.94596 -0.545594 0
M  V30 7218 C 677.061 1.7227 0.913668 0
M  V30 7219 O 676.331 1.06233 1.64595 0
M  V30 7220 H 674.911 0.720065 -0.198783 0
M  V30 7221 H 677.573 1.56404 -1.16292 0
M  V30 7222 H 676.669 3.03202 -0.739911 0
M  V30 7223 N 676.97 0.677563 1.42291 0
M  V30 7224 C 678.2 0.209155 2.05539 0
M  V30 7225 C 678.608 -1.13987 1.51009 0
M  V30 7226 O 677.951 -1.71976 0.645764 0
M  V30 7227 C 678.013 0.0697758 3.59432 0
M  V30 7228 C 677.677 1.34795 4.36668 0
M  V30 7229 C 678.674 2.28201 4.67141 0
M  V30 7230 C 676.359 1.59632 4.76259 0
M  V30 7231 C 678.353 3.44718 5.36142 0
M  V30 7232 C 676.04 2.76437 5.45 0
M  V30 7233 C 677.038 3.68805 5.74867 0
M  V30 7234 O 676.726 4.83567 6.42198 0
M  V30 7235 H 676.458 0.0986202 0.668768 0
M  V30 7236 H 679.012 0.925483 1.83368 0
M  V30 7237 H 677.242 -0.702157 3.80272 0
M  V30 7238 H 678.931 -0.359115 4.04308 0
M  V30 7239 H 679.697 2.10264 4.37052 0
M  V30 7240 H 675.576 0.886073 4.52404 0
M  V30 7241 H 679.12 4.16833 5.59371 0
M  V30 7242 H 675.017 2.94299 5.74507 0
M  V30 7243 H 675.785 4.83147 6.6069 0
M  V30 7244 N 678.448 -1.51871 0.421078 0
M  V30 7245 C 679.358 -2.31077 -0.405069 0
M  V30 7246 C 680.374 -1.39301 -1.04265 0
M  V30 7247 O 681.55 -1.72376 -1.04157 0
M  V30 7248 C 678.615 -3.12556 -1.50032 0
M  V30 7249 C 677.676 -4.20088 -0.884559 0
M  V30 7250 C 676.909 -4.97673 -1.92762 0
M  V30 7251 O 677.132 -4.75696 -3.14753 0
M  V30 7252 O 676.066 -5.82203 -1.52719 0
M  V30 7253 H 679.892 -3.02742 0.241086 0
M  V30 7254 H 677.477 -1.48263 0.183991 0
M  V30 7255 H 679.359 -3.6326 -2.13589 0
M  V30 7256 H 678.034 -2.43672 -2.13086 0
M  V30 7257 H 676.941 -3.73502 -0.211379 0
M  V30 7258 H 678.274 -4.91298 -0.297763 0
M  V30 7259 N 679.926 -0.151884 -1.56866 0
M  V30 7260 C 681.203 0.543328 -1.87902 0
M  V30 7261 C 681.583 1.82636 -1.05864 0
M  V30 7262 O 680.931 2.28028 -0.146868 0
M  V30 7263 C 681.141 0.804056 -3.39611 0
M  V30 7264 C 682.489 1.14267 -4.08935 0
M  V30 7265 O 683.513 0.893248 -3.44818 0
M  V30 7266 O 682.372 1.61229 -5.22176 0
M  V30 7267 H 679.466 0.277724 -0.778973 0
M  V30 7268 H 682.012 -0.188862 -1.68646 0
M  V30 7269 H 680.784 -0.103772 -3.91162 0
M  V30 7270 H 680.407 1.59025 -3.64413 0
M  V30 7271 N 681.404 1.57128 0.121893 0
M  V30 7272 C 682.815 1.73902 0.679348 0
M  V30 7273 C 683.166 0.770135 1.80453 0
M  V30 7274 O 682.291 -0.0576083 2.16323 0
M  V30 7275 C 682.886 3.15328 1.2391 0
M  V30 7276 C 681.445 3.33618 1.74288 0
M  V30 7277 C 680.592 2.6978 0.641414 0
M  V30 7278 H 683.543 1.58359 -0.104 0
M  V30 7279 H 683.564 3.16718 2.10879 0
M  V30 7280 H 683.076 3.85821 0.419957 0
M  V30 7281 H 681.177 2.68162 2.58689 0
M  V30 7282 H 681.29 4.4176 1.85432 0
M  V30 7283 H 679.654 2.30935 1.0743 0
M  V30 7284 H 680.437 3.42895 -0.166707 0
M  V30 7285 N 682.882 -0.391992 1.52647 0
M  V30 7286 C 684.131 -1.13449 1.6677 0
M  V30 7287 C 684.444 -1.91203 0.412399 0
M  V30 7288 O 685.65 -2.68013 0.433707 0
M  V30 7289 C 684.106 -2.06577 2.9471 0
M  V30 7290 C 683.714 -1.3426 4.27409 0
M  V30 7291 C 685.458 -2.80981 3.18198 0
M  V30 7292 C 683.365 -2.26136 5.46458 0
M  V30 7293 H 682.295 -0.427211 0.621295 0
M  V30 7294 H 684.946 -0.397522 1.79142 0
M  V30 7295 H 683.328 -2.83898 2.76076 0
M  V30 7296 H 684.502 -0.621856 4.56585 0
M  V30 7297 H 682.817 -0.718279 4.10158 0
M  V30 7298 H 685.414 -3.49898 4.04321 0
M  V30 7299 H 685.757 -3.44891 2.33144 0
M  V30 7300 H 686.29 -2.10754 3.37383 0
M  V30 7301 H 683.029 -1.66846 6.33911 0
M  V30 7302 H 682.549 -2.96134 5.21598 0
M  V30 7303 H 684.228 -2.86286 5.80215 0
M  V30 7304 N 684.36 -1.4356 -0.65026 0
M  V30 7305 C 685.308 -1.49219 -1.78427 0
M  V30 7306 C 686.302 -0.365528 -1.65409 0
M  V30 7307 O 687.508 -0.539649 -1.7172 0
M  V30 7308 H 683.883 -0.467858 -0.588738 0
M  V30 7309 H 685.854 -2.44701 -1.70774 0
M  V30 7310 C 684.603 -1.43519 -3.16698 0
M  V30 7311 H 683.926 -2.2952 -3.27354 0
M  V30 7312 H 685.366 -1.5154 -3.95995 0
M  V30 7313 C 683.825 -0.153197 -3.36552 0
M  V30 7314 O 684.355 0.784317 -3.93969 0
M  V30 7315 N 682.561 -0.0624402 -2.90533 0
M  V30 7316 H 682.108 -0.826172 -2.43992 0
M  V30 7317 H 682.066 0.794616 -3.04193 0
M  V30 7318 N 685.838 0.888903 -1.30139 0
M  V30 7319 C 687.249 1.45578 -1.16893 0
M  V30 7320 C 687.6 1.94825 0.231866 0
M  V30 7321 O 686.725 1.84661 1.12824 0
M  V30 7322 C 687.32 2.646 -2.11595 0
M  V30 7323 C 685.879 3.17389 -2.02339 0
M  V30 7324 C 685.026 1.90081 -2.01902 0
M  V30 7325 H 687.977 0.69921 -1.42467 0
M  V30 7326 H 687.998 3.40687 -1.69449 0
M  V30 7327 H 687.51 2.28726 -3.13538 0
M  V30 7328 H 685.611 3.5793 -1.03523 0
M  V30 7329 H 685.724 3.80955 -2.90534 0
M  V30 7330 H 684.088 2.08246 -1.46648 0
M  V30 7331 H 684.871 1.5647 -3.05568 0
M  V30 7332 N 687.317 1.12792 1.10072 0
M  V30 7333 C 688.545 0.908506 1.85886 0
M  V30 7334 C 688.96 -0.542408 1.80841 0
M  V30 7335 O 688.317 -1.37517 1.1998 0
M  V30 7336 C 688.368 1.37973 3.34134 0
M  V30 7337 O 688.089 2.77378 3.39106 0
M  V30 7338 C 689.59 1.1978 4.26811 0
M  V30 7339 H 686.81 0.3244 0.587372 0
M  V30 7340 H 689.354 1.49882 1.39125 0
M  V30 7341 H 687.509 0.832566 3.78348 0
M  V30 7342 H 687.923 2.98144 4.31521 0
M  V30 7343 H 689.397 1.57635 5.29014 0
M  V30 7344 H 689.874 0.138768 4.38981 0
M  V30 7345 H 690.48 1.73266 3.88406 0
M  V30 7346 N 688.795 -1.27931 0.920396 0
M  V30 7347 C 690.025 -1.98516 0.572256 0
M  V30 7348 C 690.433 -1.68912 -0.852375 0
M  V30 7349 O 689.776 -0.94203 -1.57707 0
M  V30 7350 C 689.838 -3.5243 0.709485 0
M  V30 7351 C 689.502 -4.0564 2.10489 0
M  V30 7352 C 690.499 -4.1897 3.07831 0
M  V30 7353 C 688.184 -4.40168 2.41986 0
M  V30 7354 C 690.178 -4.66093 4.34783 0
M  V30 7355 C 687.865 -4.86983 3.69176 0
M  V30 7356 C 688.863 -4.99903 4.65388 0
M  V30 7357 O 688.551 -5.45694 5.90316 0
M  V30 7358 H 688.283 -0.64047 0.216274 0
M  V30 7359 H 690.837 -1.6393 1.23758 0
M  V30 7360 H 689.067 -3.86698 -0.0129263 0
M  V30 7361 H 690.756 -4.04233 0.367474 0
M  V30 7362 H 691.522 -3.92562 2.84816 0
M  V30 7363 H 687.401 -4.29358 1.67846 0
M  V30 7364 H 690.945 -4.76092 5.09884 0
M  V30 7365 H 686.842 -5.12832 3.92012 0
M  V30 7366 H 687.61 -5.63965 5.932 0
M  V30 7367 N 690.273 -0.685099 -1.4193 0
M  V30 7368 C 691.183 -0.013404 -2.34596 0
M  V30 7369 C 692.199 0.777589 -1.55658 0
M  V30 7370 O 693.375 0.717553 -1.88184 0
M  V30 7371 C 690.44 0.919031 -3.34297 0
M  V30 7372 C 689.501 0.121417 -4.29128 0
M  V30 7373 C 688.734 1.00944 -5.24067 0
M  V30 7374 O 688.957 2.24898 -5.24192 0
M  V30 7375 O 687.891 0.464724 -6.00103 0
M  V30 7376 H 691.717 -0.776978 -2.93593 0
M  V30 7377 H 689.302 -0.445379 -1.42607 0
M  V30 7378 H 691.184 1.45402 -3.9552 0
M  V30 7379 H 689.859 1.66228 -2.77759 0
M  V30 7380 H 688.766 -0.45792 -3.71287 0
M  V30 7381 H 690.099 -0.582937 -4.88736 0
M  V30 7382 N 691.751 1.51645 -0.429126 0
M  V30 7383 C 692.714 2.26116 0.374726 0
M  V30 7384 C 693.714 1.29242 0.956714 0
M  V30 7385 O 694.904 1.53022 0.832452 0
M  V30 7386 C 692.036 3.04669 1.52937 0
M  V30 7387 H 693.229 2.9861 -0.277818 0
M  V30 7388 H 690.782 1.55236 -0.182097 0
M  V30 7389 H 691.517 2.36571 2.21821 0
M  V30 7390 H 691.302 3.75814 1.11833 0
M  V30 7391 H 692.792 3.61102 2.09751 0
M  V30 7392 N 693.229 0.160201 1.56784 0
M  V30 7393 C 694.457 -0.494165 2.00912 0
M  V30 7394 C 694.872 -1.57548 1.04038 0
M  V30 7395 O 694.229 -1.82457 0.0394581 0
M  V30 7396 C 694.28 -1.08271 3.44905 0
M  V30 7397 O 694.001 -0.0445704 4.38077 0
M  V30 7398 C 695.502 -1.8164 4.04378 0
M  V30 7399 H 692.722 -0.127498 0.658776 0
M  V30 7400 H 695.266 0.258665 2.02858 0
M  V30 7401 H 693.421 -1.78609 3.4377 0
M  V30 7402 H 693.835 -0.477544 5.22322 0
M  V30 7403 H 695.309 -2.18094 5.07089 0
M  V30 7404 H 695.786 -2.70727 3.45838 0
M  V30 7405 H 696.392 -1.15969 4.09184 0
M  V30 7406 N 694.707 -1.5719 -0.113559 0
M  V30 7407 C 695.655 -2.01725 -1.158 0
M  V30 7408 C 696.649 -0.915105 -1.42556 0
M  V30 7409 O 697.855 -1.10031 -1.42454 0
M  V30 7410 H 694.23 -0.64262 -0.390569 0
M  V30 7411 H 696.201 -2.88666 -0.755926 0
M  V30 7412 C 694.95 -2.44203 -2.47507 0
M  V30 7413 H 694.273 -3.28582 -2.27758 0
M  V30 7414 H 695.713 -2.79158 -3.19135 0
M  V30 7415 C 694.172 -1.30785 -3.10478 0
M  V30 7416 O 694.702 -0.626807 -3.9678 0
M  V30 7417 N 692.908 -1.06352 -2.7044 0
M  V30 7418 H 692.455 -1.61913 -2.00355 0
M  V30 7419 H 692.413 -0.306614 -3.12901 0
M  V30 7420 N 696.185 0.383891 -1.52853 0
M  V30 7421 C 697.148 1.45197 -1.77343 0
M  V30 7422 C 698.148 1.47362 -0.643522 0
M  V30 7423 O 699.338 1.48443 -0.911613 0
M  V30 7424 C 696.47 2.8445 -1.87885 0
M  V30 7425 H 697.663 1.24764 -2.72716 0
M  V30 7426 H 695.216 0.615939 -1.43652 0
M  V30 7427 H 695.951 3.10222 -0.94515 0
M  V30 7428 H 695.736 2.8428 -2.70051 0
M  V30 7429 H 697.226 3.61832 -2.08488 0
M  V30 7430 N 697.663 1.43903 0.642637 0
M  V30 7431 C 698.596 1.44339 1.76753 0
M  V30 7432 C 699.574 0.303558 1.59741 0
M  V30 7433 O 700.758 0.498775 1.81781 0
M  V30 7434 C 697.885 1.26508 3.14187 0
M  V30 7435 C 696.931 2.43905 3.49875 0
M  V30 7436 S 697.764 4.0645 3.48653 0
M  V30 7437 C 698.92 3.91021 4.88726 0
M  V30 7438 H 699.153 2.39523 1.76113 0
M  V30 7439 H 696.686 1.31061 0.81623 0
M  V30 7440 H 698.644 1.16908 3.93501 0
M  V30 7441 H 697.305 0.328548 3.12377 0
M  V30 7442 H 696.498 2.27262 4.49853 0
M  V30 7443 H 696.1 2.50186 2.77998 0
M  V30 7444 H 698.392 3.54 5.77659 0
M  V30 7445 H 699.335 4.9079 5.10423 0
M  V30 7446 H 699.743 3.23287 4.62759 0
M  V30 7447 N 699.141 -0.881989 1.30609 0
M  V30 7448 C 700.371 -1.66469 1.22359 0
M  V30 7449 C 700.779 -1.87969 -0.215507 0
M  V30 7450 O 700.122 -1.42938 -1.15388 0
M  V30 7451 C 700.184 -3.06135 1.88472 0
M  V30 7452 C 699.848 -3.07795 3.37804 0
M  V30 7453 C 700.845 -2.86633 4.33749 0
M  V30 7454 C 698.53 -3.29297 3.793 0
M  V30 7455 C 700.524 -2.86934 5.69164 0
M  V30 7456 C 698.211 -3.29228 5.14832 0
M  V30 7457 C 699.209 -3.08071 6.09574 0
M  V30 7458 O 698.897 -3.07824 7.4263 0
M  V30 7459 H 698.629 -0.526129 0.424458 0
M  V30 7460 H 701.183 -1.11004 1.72821 0
M  V30 7461 H 699.413 -3.63276 1.32543 0
M  V30 7462 H 701.102 -3.66571 1.74301 0
M  V30 7463 H 701.868 -2.69814 4.0302 0
M  V30 7464 H 697.747 -3.44799 3.05998 0
M  V30 7465 H 701.291 -2.70339 6.43088 0
M  V30 7466 H 697.188 -3.45583 5.452 0
M  V30 7467 H 697.956 -3.2397 7.51656 0
M  V30 7468 N 700.619 -1.13374 -1.09472 0
M  V30 7469 C 701.569 -0.77946 -2.14263 0
M  V30 7470 C 702.553 0.226271 -1.59301 0
M  V30 7471 O 703.745 0.0302581 -1.76974 0
M  V30 7472 C 700.874 -0.246635 -3.42413 0
M  V30 7473 C 699.96 -1.28124 -4.04283 0
M  V30 7474 N 700.351 -2.48201 -4.40715 0
M  V30 7475 C 698.649 -1.12892 -4.31476 0
M  V30 7476 C 699.35 -3.14347 -4.8945 0
M  V30 7477 N 698.326 -2.41771 -4.86876 0
M  V30 7478 H 702.128 -1.69305 -2.40235 0
M  V30 7479 H 699.642 -1.01598 -1.26695 0
M  V30 7480 H 701.639 0.0254131 -4.16892 0
M  V30 7481 H 700.299 0.661287 -3.17895 0
M  V30 7482 H 701.31 -2.85511 -4.32093 0
M  V30 7483 H 697.987 -0.279117 -4.16566 0
M  V30 7484 H 699.377 -4.16663 -5.27107 0
M  V30 7485 N 702.098 1.27442 -0.927168 0
M  V30 7486 C 703.514 1.46754 -0.627329 0
M  V30 7487 C 703.714 1.83902 0.823549 0
M  V30 7488 O 702.77 1.95215 1.60148 0
M  V30 7489 C 704.083 2.56045 -1.57674 0
M  V30 7490 C 705.631 2.69906 -1.58491 0
M  V30 7491 C 706.106 3.82355 -2.52128 0
M  V30 7492 N 707.597 3.89728 -2.50332 0
M  V30 7493 C 708.332 4.76155 -3.19475 0
M  V30 7494 N 707.828 5.67073 -3.97995 0
M  V30 7495 N 709.621 4.6988 -3.08496 0
M  V30 7496 H 701.772 1.01613 -1.86517 0
M  V30 7497 H 704.035 0.507443 -0.800753 0
M  V30 7498 H 703.741 2.35542 -2.61176 0
M  V30 7499 H 703.615 3.53423 -1.31804 0
M  V30 7500 H 706.002 2.89792 -0.557208 0
M  V30 7501 H 706.083 1.73018 -1.8841 0
M  V30 7502 H 705.727 3.63224 -3.55008 0
M  V30 7503 H 705.657 4.7867 -2.19505 0
M  V30 7504 H 708.148 3.24717 -1.93306 0
M  V30 7505 H 708.461 6.2988 -4.4774 0
M  V30 7506 H 706.806 5.6687 -4.02098 0
M  V30 7507 H 709.997 3.97848 -2.46646 0
M  V30 7508 H 710.17 5.37017 -3.62652 0
M  V30 7509 N 703.576 0.692616 1.41565 0
M  V30 7510 C 704.816 0.226453 2.03142 0
M  V30 7511 C 705.18 -1.1512 1.5366 0
M  V30 7512 O 706.381 -1.71305 2.07143 0
M  V30 7513 C 704.652 0.27855 3.56313 0
M  V30 7514 S 706.211 -0.114001 4.38652 0
M  V30 7515 H 703.029 0.0914767 0.705091 0
M  V30 7516 H 705.631 0.909737 1.73043 0
M  V30 7517 H 704.335 1.28325 3.89821 0
M  V30 7518 H 703.866 -0.423981 3.91109 0
M  V30 7519 H 705.881 -1.34256 4.77692 0
M  V30 7520 N 705.054 -1.51416 0.437162 0
M  V30 7521 C 705.984 -2.30631 -0.364922 0
M  V30 7522 C 706.965 -1.36037 -1.02118 0
M  V30 7523 O 708.15 -1.64956 -1.02485 0
M  V30 7524 C 705.28 -3.1482 -1.46648 0
M  V30 7525 C 704.234 -4.17691 -0.933717 0
M  V30 7526 C 703.56 -4.904 -2.13101 0
M  V30 7527 C 704.86 -5.2229 0.0317201 0
M  V30 7528 H 706.554 -2.97932 0.29614 0
M  V30 7529 H 704.1 -1.4328 0.143865 0
M  V30 7530 H 706.053 -3.69017 -2.03481 0
M  V30 7531 H 704.777 -2.4534 -2.15583 0
M  V30 7532 H 703.436 -3.64545 -0.387602 0
M  V30 7533 H 703.084 -4.17423 -2.80654 0
M  V30 7534 H 702.784 -5.59962 -1.78092 0
M  V30 7535 H 704.308 -5.4742 -2.70487 0
M  V30 7536 H 705.722 -5.7156 -0.446302 0
M  V30 7537 H 704.119 -5.99378 0.29437 0
M  V30 7538 H 705.189 -4.75131 0.968447 0
M  V30 7539 N 706.532 -0.168513 -1.56696 0
M  V30 7540 C 707.809 0.523367 -1.88468 0
M  V30 7541 C 708.189 1.81503 -1.07796 0
M  V30 7542 O 707.537 2.27859 -0.171045 0
M  V30 7543 C 707.747 0.767991 -3.40445 0
M  V30 7544 C 709.095 1.09924 -4.10124 0
M  V30 7545 O 710.119 0.856625 -3.45746 0
M  V30 7546 O 708.978 1.55681 -5.23856 0
M  V30 7547 H 706.072 0.269447 -0.781874 0
M  V30 7548 H 708.618 -0.206739 -1.68436 0
M  V30 7549 H 707.39 -0.145254 -3.9103 0
M  V30 7550 H 707.013 1.55151 -3.66079 0
M  V30 7551 N 708.01 1.57248 0.105221 0
M  V30 7552 C 709.24 1.89492 0.823175 0
M  V30 7553 C 709.648 0.75934 1.73294 0
M  V30 7554 O 708.991 -0.278182 1.81581 0
M  V30 7555 C 709.053 3.16891 1.69765 0
M  V30 7556 C 708.717 4.46787 0.960769 0
M  V30 7557 C 709.714 5.19061 0.295218 0
M  V30 7558 C 707.399 4.93467 0.937854 0
M  V30 7559 C 709.393 6.36246 -0.383393 0
M  V30 7560 C 707.08 6.10566 0.255452 0
M  V30 7561 C 708.078 6.81804 -0.404003 0
M  V30 7562 O 707.766 7.96673 -1.07549 0
M  V30 7563 H 707.498 0.631512 0.24118 0
M  V30 7564 H 710.052 2.05203 0.0899655 0
M  V30 7565 H 708.282 2.973 2.47285 0
M  V30 7566 H 709.971 3.35046 2.29126 0
M  V30 7567 H 710.737 4.84044 0.304448 0
M  V30 7568 H 706.616 4.37913 1.44058 0
M  V30 7569 H 710.16 6.91787 -0.898696 0
M  V30 7570 H 706.057 6.45039 0.244032 0
M  V30 7571 H 706.825 8.12596 -0.981355 0
M  V30 7572 N 709.488 -0.375779 1.53054 0
M  V30 7573 C 710.734 -1.12114 1.68992 0
M  V30 7574 C 711.067 -1.8926 0.435238 0
M  V30 7575 O 710.342 -1.86044 -0.567278 0
M  V30 7576 C 710.625 -2.08867 2.93337 0
M  V30 7577 C 710.478 -1.35397 4.28938 0
M  V30 7578 C 711.797 -3.09124 3.13257 0
M  V30 7579 H 708.916 -0.406207 0.614951 0
M  V30 7580 H 711.558 -0.403054 1.85676 0
M  V30 7581 H 709.708 -2.70102 2.79244 0
M  V30 7582 H 711.38 -0.770242 4.54824 0
M  V30 7583 H 709.623 -0.655801 4.28814 0
M  V30 7584 H 710.294 -2.06161 5.12056 0
M  V30 7585 H 712.77 -2.57987 3.26469 0
M  V30 7586 H 711.646 -3.74054 4.01715 0
M  V30 7587 H 711.907 -3.78729 2.28072 0
M  V30 7588 N 710.966 -1.44241 -0.634997 0
M  V30 7589 C 711.896 -1.53632 -1.7584 0
M  V30 7590 C 712.877 -0.389603 -1.65578 0
M  V30 7591 O 714.062 -0.609219 -1.84397 0
M  V30 7592 C 711.192 -1.47644 -3.14354 0
M  V30 7593 C 710.146 -2.60752 -3.394 0
M  V30 7594 C 709.472 -2.39817 -4.77904 0
M  V30 7595 C 710.772 -4.02921 -3.32343 0
M  V30 7596 H 712.466 -2.47662 -1.68238 0
M  V30 7597 H 710.012 -1.19197 -0.807969 0
M  V30 7598 H 711.965 -1.52815 -3.92716 0
M  V30 7599 H 710.689 -0.501284 -3.2273 0
M  V30 7600 H 709.348 -2.54965 -2.63417 0
M  V30 7601 H 708.996 -1.40502 -4.82978 0
M  V30 7602 H 708.696 -3.15649 -4.9562 0
M  V30 7603 H 710.22 -2.46799 -5.585 0
M  V30 7604 H 711.634 -4.10098 -4.00615 0
M  V30 7605 H 710.031 -4.78925 -3.61595 0
M  V30 7606 H 711.101 -4.26766 -2.30215 0
M  V30 7607 N 712.444 0.87505 -1.31075 0
M  V30 7608 C 713.354 2.01441 -1.20244 0
M  V30 7609 C 714.37 1.73584 -0.120227 0
M  V30 7610 O 715.546 1.98559 -0.337063 0
M  V30 7611 C 712.611 3.34675 -0.905199 0
M  V30 7612 C 711.672 3.75889 -2.0738 0
M  V30 7613 C 710.905 5.02764 -1.79064 0
M  V30 7614 O 711.128 5.65795 -0.723318 0
M  V30 7615 O 710.062 5.40623 -2.64594 0
M  V30 7616 H 713.888 2.13509 -2.1598 0
M  V30 7617 H 711.473 1.00257 -1.10765 0
M  V30 7618 H 713.355 4.1458 -0.755057 0
M  V30 7619 H 712.03 3.23692 0.0221695 0
M  V30 7620 H 710.937 2.96645 -2.27931 0
M  V30 7621 H 712.27 3.91489 -2.98324 0
M  V30 7622 N 713.922 1.13953 1.08869 0
M  V30 7623 C 714.832 0.835666 2.19212 0
M  V30 7624 C 715.848 -0.182005 1.73045 0
M  V30 7625 O 717.024 -0.0116661 2.01397 0
M  V30 7626 C 714.089 0.312325 3.4529 0
M  V30 7627 C 713.15 1.39196 4.06107 0
M  V30 7628 C 712.383 0.893496 5.26168 0
M  V30 7629 O 712.606 -0.266807 5.69776 0
M  V30 7630 O 711.54 1.67037 5.78258 0
M  V30 7631 H 715.366 1.75769 2.47667 0
M  V30 7632 H 712.951 0.917421 1.17914 0
M  V30 7633 H 714.833 0.0261582 4.21392 0
M  V30 7634 H 713.508 -0.582042 3.18424 0
M  V30 7635 H 712.415 1.73152 3.31616 0
M  V30 7636 H 713.748 2.26068 4.37212 0
M  V30 7637 N 715.4 -1.26948 0.933913 0
M  V30 7638 C 716.33 -2.29017 0.45534 0
M  V30 7639 C 717.311 -1.62961 -0.487605 0
M  V30 7640 O 718.496 -1.90223 -0.391022 0
M  V30 7641 C 715.626 -3.46112 -0.287015 0
M  V30 7642 C 714.58 -4.24205 0.568682 0
M  V30 7643 C 713.906 -5.3384 -0.303206 0
M  V30 7644 C 715.206 -4.88954 1.83633 0
M  V30 7645 H 716.9 -2.69298 1.30839 0
M  V30 7646 H 714.446 -1.29459 0.630579 0
M  V30 7647 H 716.399 -4.16622 -0.6328 0
M  V30 7648 H 715.123 -3.04765 -1.17414 0
M  V30 7649 H 713.782 -3.5545 0.897261 0
M  V30 7650 H 713.43 -4.88734 -1.18947 0
M  V30 7651 H 713.13 -5.86998 0.265879 0
M  V30 7652 H 714.654 -6.0719 -0.644423 0
M  V30 7653 H 716.068 -5.51717 1.55823 0
M  V30 7654 H 714.465 -5.52198 2.34941 0
M  V30 7655 H 715.535 -4.12305 2.55211 0
M  V30 7656 N 716.879 -0.700114 -1.41195 0
M  V30 7657 C 717.826 -0.0376652 -2.30769 0
M  V30 7658 C 718.796 0.766544 -1.47354 0
M  V30 7659 O 719.981 0.73365 -1.76131 0
M  V30 7660 C 717.121 0.889452 -3.33441 0
M  V30 7661 C 716.234 0.076373 -4.31932 0
M  V30 7662 C 715.369 1.00155 -5.21673 0
M  V30 7663 C 714.408 0.181644 -6.1183 0
M  V30 7664 N 713.545 1.06087 -6.94039 0
M  V30 7665 H 718.385 -0.80726 -2.86858 0
M  V30 7666 H 715.922 -0.409798 -1.41277 0
M  V30 7667 H 717.88 1.44107 -3.91522 0
M  V30 7668 H 716.51 1.6254 -2.78892 0
M  V30 7669 H 715.562 -0.592223 -3.75762 0
M  V30 7670 H 716.874 -0.559076 -4.95657 0
M  V30 7671 H 716.028 1.62223 -5.8461 0
M  V30 7672 H 714.767 1.67085 -4.58186 0
M  V30 7673 H 713.772 -0.452085 -5.47938 0
M  V30 7674 H 714.997 -0.483925 -6.77374 0
M  V30 7675 H 712.943 1.7161 -6.33156 0
M  V30 7676 H 712.86 0.481094 -7.54468 0
M  V30 7677 H 714.128 1.66822 -7.6144 0
M  V30 7678 N 718.357 1.51182 -0.445186 0
M  V30 7679 C 719.307 2.24804 0.380394 0
M  V30 7680 C 720.291 1.27344 0.983482 0
M  V30 7681 O 721.483 1.52392 0.900322 0
M  V30 7682 C 718.612 3.09922 1.4766 0
M  V30 7683 C 717.698 4.14816 0.882517 0
M  V30 7684 N 718.089 5.05797 0.0183278 0
M  V30 7685 C 716.387 4.30938 1.14927 0
M  V30 7686 C 717.088 5.8084 -0.316152 0
M  V30 7687 N 716.064 5.42759 0.302214 0
M  V30 7688 H 719.866 2.92508 -0.285737 0
M  V30 7689 H 717.38 1.60342 -0.257733 0
M  V30 7690 H 719.377 3.61249 2.08098 0
M  V30 7691 H 718.037 2.43763 2.14498 0
M  V30 7692 H 719.048 5.16725 -0.348679 0
M  V30 7693 H 715.725 3.76005 1.81457 0
M  V30 7694 H 717.115 6.64115 -1.01986 0
M  V30 7695 N 719.835 0.176821 1.56605 0
M  V30 7696 C 720.783 -0.768159 2.1955 0
M  V30 7697 C 721.777 -1.23343 1.16116 0
M  V30 7698 O 722.983 -1.19844 1.34303 0
M  V30 7699 H 719.358 -0.266013 0.703378 0
M  V30 7700 H 721.329 -0.213374 2.97636 0
M  V30 7701 C 720.078 -1.98492 2.85475 0
M  V30 7702 H 719.401 -1.63595 3.64797 0
M  V30 7703 H 720.841 -2.62489 3.3298 0
M  V30 7704 C 719.3 -2.81207 1.85538 0
M  V30 7705 O 719.83 -3.7854 1.34427 0
M  V30 7706 N 718.036 -2.46331 1.54173 0
M  V30 7707 H 717.583 -1.67241 1.95929 0
M  V30 7708 H 717.541 -3.01961 0.875595 0
M  V30 7709 N 721.313 -1.57302 -0.09688 0
M  V30 7710 C 722.276 -2.00976 -1.10188 0
M  V30 7711 C 723.276 -0.903009 -1.3305 0
M  V30 7712 O 724.466 -1.16853 -1.29194 0
M  V30 7713 C 721.598 -2.36893 -2.45142 0
M  V30 7714 H 722.791 -2.9098 -0.726003 0
M  V30 7715 H 720.344 -1.52515 -0.341872 0
M  V30 7716 H 721.079 -1.49837 -2.8761 0
M  V30 7717 H 720.864 -3.17632 -2.29897 0
M  V30 7718 H 722.354 -2.71345 -3.1743 0
M  V30 7719 N 722.791 0.367657 -1.53252 0
M  V30 7720 C 723.738 1.45028 -1.79543 0
M  V30 7721 C 724.708 1.53288 -0.63969 0
M  V30 7722 O 725.893 1.69209 -0.881653 0
M  V30 7723 C 723.033 2.82 -1.98923 0
M  V30 7724 C 722.146 2.82722 -3.26638 0
M  V30 7725 C 721.281 4.11257 -3.36216 0
M  V30 7726 C 720.32 4.06113 -4.57972 0
M  V30 7727 N 719.457 5.26293 -4.64715 0
M  V30 7728 H 724.297 1.21908 -2.71923 0
M  V30 7729 H 721.834 0.591011 -1.34705 0
M  V30 7730 H 723.792 3.61568 -2.08146 0
M  V30 7731 H 722.422 3.03523 -1.09881 0
M  V30 7732 H 721.474 1.95399 -3.26379 0
M  V30 7733 H 722.786 2.74794 -4.16281 0
M  V30 7734 H 721.94 4.99239 -3.44739 0
M  V30 7735 H 720.679 4.21935 -2.44586 0
M  V30 7736 H 719.684 3.16517 -4.49552 0
M  V30 7737 H 720.909 3.97039 -5.50942 0
M  V30 7738 H 718.855 5.37561 -3.75985 0
M  V30 7739 H 718.772 5.20526 -5.4826 0
M  V30 7740 H 720.04 6.16113 -4.77519 0
M  V30 7741 N 724.269 1.44576 0.627338 0
M  V30 7742 C 725.232 1.51372 1.72102 0
M  V30 7743 C 726.232 0.395329 1.55865 0
M  V30 7744 O 727.422 0.658094 1.61291 0
M  V30 7745 C 724.554 1.39129 3.11217 0
M  V30 7746 H 725.747 2.48798 1.6745 0
M  V30 7747 H 723.3 1.31724 0.841336 0
M  V30 7748 H 724.035 0.428114 3.21462 0
M  V30 7749 H 723.82 2.20229 3.24409 0
M  V30 7750 H 725.31 1.46874 3.90919 0
M  V30 7751 N 725.747 -0.868086 1.31537 0
M  V30 7752 C 726.694 -1.97548 1.19346 0
M  V30 7753 C 727.664 -1.65913 0.0787922 0
M  V30 7754 O 728.849 -1.89129 0.251985 0
M  V30 7755 C 725.989 -3.32922 0.908692 0
M  V30 7756 C 725.102 -3.77141 2.10687 0
M  V30 7757 C 724.237 -5.01241 1.75873 0
M  V30 7758 C 723.276 -5.37914 2.92088 0
M  V30 7759 N 722.413 -6.53192 2.57457 0
M  V30 7760 H 727.253 -2.07307 2.14074 0
M  V30 7761 H 724.79 -1.01483 1.06487 0
M  V30 7762 H 726.748 -4.10867 0.724138 0
M  V30 7763 H 725.378 -3.228 -0.0017611 0
M  V30 7764 H 724.43 -2.94961 2.40213 0
M  V30 7765 H 725.742 -4.00248 2.97663 0
M  V30 7766 H 724.896 -5.86858 1.53891 0
M  V30 7767 H 723.635 -4.80041 0.86091 0
M  V30 7768 H 722.64 -4.50814 3.14717 0
M  V30 7769 H 723.865 -5.61077 3.82582 0
M  V30 7770 H 721.811 -6.33536 1.702 0
M  V30 7771 H 721.728 -6.76252 3.37963 0
M  V30 7772 H 722.996 -7.41997 2.38873 0
M  V30 7773 N 727.225 -1.14528 -1.08264 0
M  V30 7774 C 728.471 -0.91576 -1.80947 0
M  V30 7775 C 728.804 0.55623 -1.86064 0
M  V30 7776 O 728.079 1.41207 -1.33756 0
M  V30 7777 C 728.362 -1.51917 -3.26486 0
M  V30 7778 C 728.215 -3.06111 -3.2957 0
M  V30 7779 C 729.534 -1.19724 -4.23502 0
M  V30 7780 H 726.653 -0.334113 -0.656915 0
M  V30 7781 H 729.295 -1.41547 -1.26746 0
M  V30 7782 H 727.445 -1.0942 -3.72773 0
M  V30 7783 H 729.117 -3.57448 -2.91597 0
M  V30 7784 H 727.36 -3.40483 -2.688 0
M  V30 7785 H 728.031 -3.43438 -4.32151 0
M  V30 7786 H 730.507 -1.56467 -3.85561 0
M  V30 7787 H 729.383 -1.64575 -5.23647 0
M  V30 7788 H 729.644 -0.112771 -4.41956 0
M  V30 7789 N 728.703 1.26451 -0.940633 0
M  V30 7790 C 729.636 2.24771 -0.394094 0
M  V30 7791 C 730.614 1.54169 0.516781 0
M  V30 7792 O 731.798 1.82942 0.454352 0
M  V30 7793 C 728.925 3.3591 0.433807 0
M  V30 7794 C 727.971 4.24472 -0.415464 0
M  V30 7795 S 728.804 5.0293 -1.83907 0
M  V30 7796 C 729.96 6.17546 -1.01921 0
M  V30 7797 H 730.193 2.70782 -1.22737 0
M  V30 7798 H 727.726 1.35308 -0.743709 0
M  V30 7799 H 729.684 4.00387 0.905576 0
M  V30 7800 H 728.345 2.88512 1.24175 0
M  V30 7801 H 727.538 5.03525 0.218833 0
M  V30 7802 H 727.14 3.64857 -0.821897 0
M  V30 7803 H 729.432 6.76996 -0.261227 0
M  V30 7804 H 730.375 6.8528 -1.78318 0
M  V30 7805 H 730.783 5.6176 -0.555511 0
M  V30 7806 N 730.181 0.707592 1.40822 0
M  V30 7807 C 731.427 0.244031 2.01326 0
M  V30 7808 C 731.76 -1.15722 1.55955 0
M  V30 7809 O 731.035 -1.78347 0.776044 0
M  V30 7810 C 731.318 0.315128 3.58718 0
M  V30 7811 C 731.171 1.75419 4.14184 0
M  V30 7812 C 732.49 -0.318251 4.38948 0
M  V30 7813 H 729.609 0.0901471 0.731466 0
M  V30 7814 H 732.251 0.898584 1.67408 0
M  V30 7815 H 730.401 -0.242176 3.87744 0
M  V30 7816 H 732.073 2.36626 3.95987 0
M  V30 7817 H 730.316 2.28449 3.68773 0
M  V30 7818 H 730.987 1.75538 5.23345 0
M  V30 7819 H 733.463 0.156514 4.15806 0
M  V30 7820 H 732.339 -0.238019 5.48384 0
M  V30 7821 H 732.6 -1.40067 4.19325 0
M  V30 7822 N 731.66 -1.50943 0.453197 0
M  V30 7823 C 732.623 -2.26684 -0.338705 0
M  V30 7824 C 733.623 -1.30748 -0.936032 0
M  V30 7825 O 734.813 -1.54327 -0.808002 0
M  V30 7826 C 731.945 -3.07063 -1.48071 0
M  V30 7827 H 733.138 -2.98131 0.325289 0
M  V30 7828 H 730.691 -1.54926 0.206771 0
M  V30 7829 H 731.426 -2.4007 -2.18029 0
M  V30 7830 H 731.211 -3.77545 -1.0584 0
M  V30 7831 H 732.701 -3.64393 -2.0398 0
M  V30 7832 N 733.138 -0.185124 -1.56509 0
M  V30 7833 C 734.363 0.465278 -2.02114 0
M  V30 7834 C 734.788 1.55083 -1.06447 0
M  V30 7835 O 734.146 1.81241 -0.0462852 0
M  V30 7836 C 734.194 1.00784 -3.46229 0
M  V30 7837 O 733.298 2.12123 -3.53663 0
M  V30 7838 H 732.639 0.109891 -0.654843 0
M  V30 7839 H 735.169 -0.293072 -2.0249 0
M  V30 7840 H 735.179 1.32697 -3.85818 0
M  V30 7841 H 733.854 0.213113 -4.15354 0
M  V30 7842 H 732.431 1.8115 -3.25943 0
M  V30 7843 N 734.616 1.57351 0.0885366 0
M  V30 7844 C 735.566 1.98963 1.11346 0
M  V30 7845 C 736.55 0.869065 1.35411 0
M  V30 7846 O 737.742 1.13292 1.35992 0
M  V30 7847 C 734.871 2.4231 2.43189 0
M  V30 7848 C 733.957 3.61065 2.22469 0
M  V30 7849 N 734.348 4.75789 1.71635 0
M  V30 7850 C 732.646 3.6729 2.5301 0
M  V30 7851 C 733.347 5.57708 1.65339 0
M  V30 7852 N 732.323 5.01067 2.1079 0
M  V30 7853 H 736.125 2.85109 0.713465 0
M  V30 7854 H 733.639 1.59682 0.295868 0
M  V30 7855 H 735.636 2.70352 3.17357 0
M  V30 7856 H 734.296 1.57544 2.83919 0
M  V30 7857 H 735.307 4.98411 1.40738 0
M  V30 7858 H 731.984 2.932 2.9722 0
M  V30 7859 H 733.374 6.59782 1.27031 0
M  V30 7860 N 736.094 -0.359525 1.53444 0
M  V30 7861 C 737.042 -1.46104 1.80987 0
M  V30 7862 C 738.036 -1.55181 0.679351 0
M  V30 7863 O 739.242 -1.57995 0.862405 0
M  V30 7864 H 735.617 -0.486835 0.573145 0
M  V30 7865 H 737.588 -1.2008 2.73173 0
M  V30 7866 C 736.337 -2.82855 2.02208 0
M  V30 7867 H 735.66 -2.76631 2.88644 0
M  V30 7868 H 737.1 -3.59091 2.25455 0
M  V30 7869 C 735.559 -3.27192 0.802931 0
M  V30 7870 O 736.089 -4.017 -0.00544286 0
M  V30 7871 N 734.295 -2.83807 0.624657 0
M  V30 7872 H 733.842 -2.23339 1.28364 0
M  V30 7873 H 733.8 -3.13828 -0.189641 0
M  V30 7874 N 737.572 -1.44907 -0.619662 0
M  V30 7875 C 738.482 -1.55168 -1.75955 0
M  V30 7876 C 739.498 -0.43672 -1.6843 0
M  V30 7877 O 740.674 -0.695704 -1.89002 0
M  V30 7878 C 737.739 -1.50397 -3.12381 0
M  V30 7879 C 736.8 -2.72835 -3.31451 0
M  V30 7880 C 736.033 -2.68283 -4.61368 0
M  V30 7881 O 736.256 -1.74929 -5.42914 0
M  V30 7882 O 735.19 -3.59308 -4.82889 0
M  V30 7883 H 739.016 -2.51493 -1.7025 0
M  V30 7884 H 736.601 -1.27282 -0.782289 0
M  V30 7885 H 738.483 -1.50301 -3.93685 0
M  V30 7886 H 737.158 -0.572197 -3.18603 0
M  V30 7887 H 736.065 -2.78496 -2.49781 0
M  V30 7888 H 737.398 -3.65098 -3.30098 0
M  V30 7889 N 739.05 0.861098 -1.31996 0
M  V30 7890 C 740.327 1.59788 -1.12814 0
M  V30 7891 C 740.707 2.08753 0.313882 0
M  V30 7892 O 740.055 1.87258 1.30946 0
M  V30 7893 C 740.265 2.74901 -2.15012 0
M  V30 7894 C 741.613 3.44643 -2.48004 0
M  V30 7895 O 742.637 2.85119 -2.13508 0
M  V30 7896 O 741.496 4.52044 -3.07113 0
M  V30 7897 H 738.59 0.703408 -0.434909 0
M  V30 7898 H 741.136 0.905788 -1.43505 0
M  V30 7899 H 739.908 2.36198 -3.11971 0
M  V30 7900 H 739.531 3.51792 -1.85279 0
M  V30 7901 N 740.528 1.15101 1.07655 0
M  V30 7902 C 741.756 0.947731 1.83918 0
M  V30 7903 C 742.171 -0.503927 1.81951 0
M  V30 7904 O 741.528 -1.34941 1.2287 0
M  V30 7905 C 741.579 1.4503 3.31132 0
M  V30 7906 O 741.3 2.84508 3.33146 0
M  V30 7907 C 742.801 1.28806 4.24174 0
M  V30 7908 H 740.021 0.336786 0.580358 0
M  V30 7909 H 742.565 1.52799 1.35914 0
M  V30 7910 H 740.72 0.912632 3.76497 0
M  V30 7911 H 741.134 3.0723 4.251 0
M  V30 7912 H 742.608 1.6882 5.25551 0
M  V30 7913 H 743.085 0.231851 4.38588 0
M  V30 7914 H 743.691 1.81465 3.84643 0
M  V30 7915 N 742.006 -1.2595 0.947325 0
M  V30 7916 C 743.252 -1.9375 0.599064 0
M  V30 7917 C 743.585 -1.74088 -0.860632 0
M  V30 7918 O 742.86 -1.08158 -1.61654 0
M  V30 7919 C 743.143 -3.47353 0.949634 0
M  V30 7920 C 742.996 -3.76273 2.46452 0
M  V30 7921 C 744.315 -4.37589 0.469442 0
M  V30 7922 H 741.434 -0.703674 0.219115 0
M  V30 7923 H 744.076 -1.48705 1.18266 0
M  V30 7924 H 742.226 -3.8585 0.453008 0
M  V30 7925 H 743.898 -3.47455 3.03435 0
M  V30 7926 H 742.141 -3.22135 2.90537 0
M  V30 7927 H 742.812 -4.83664 2.66032 0
M  V30 7928 H 745.288 -4.06353 0.89534 0
M  V30 7929 H 744.164 -5.43841 0.7435 0
M  V30 7930 H 744.425 -4.37579 -0.630618 0
M  V30 7931 N 743.484 -0.715051 -1.40445 0
M  V30 7932 C 744.9 -0.388555 -1.54798 0
M  V30 7933 C 745.1 1.10271 -1.68649 0
M  V30 7934 O 744.156 1.88875 -1.67578 0
M  V30 7935 C 745.469 -1.15414 -2.77669 0
M  V30 7936 C 747.017 -1.14039 -2.91486 0
M  V30 7937 C 747.492 -1.88812 -4.1727 0
M  V30 7938 N 748.983 -1.85878 -4.24268 0
M  V30 7939 C 749.718 -2.40558 -5.20499 0
M  V30 7940 N 749.214 -3.03791 -6.22642 0
M  V30 7941 N 751.007 -2.30703 -5.12574 0
M  V30 7942 H 743.158 -1.68201 -1.297 0
M  V30 7943 H 745.421 -0.710915 -0.627139 0
M  V30 7944 H 745.127 -2.20853 -2.7371 0
M  V30 7945 H 745.001 -0.745412 -3.69761 0
M  V30 7946 H 747.388 -0.0941996 -2.9495 0
M  V30 7947 H 747.469 -1.58834 -2.00513 0
M  V30 7948 H 747.113 -2.93422 -4.14568 0
M  V30 7949 H 747.043 -1.41438 -5.0725 0
M  V30 7950 H 749.534 -1.39794 -3.51093 0
M  V30 7951 H 749.847 -3.43032 -6.92495 0
M  V30 7952 H 748.192 -3.07875 -6.23087 0
M  V30 7953 H 751.383 -1.80961 -4.31707 0
M  V30 7954 H 751.556 -2.73618 -5.87398 0
M  V30 7955 N 744.962 1.50701 -0.461195 0
M  V30 7956 C 746.209 2.02267 0.0971971 0
M  V30 7957 C 746.537 1.34387 1.40608 0
M  V30 7958 O 745.792 0.455254 1.90331 0
M  V30 7959 C 746.091 3.55788 0.33908 0
M  V30 7960 C 745.757 4.42092 -0.886885 0
M  V30 7961 C 744.419 4.65398 -1.22304 0
M  V30 7962 C 746.771 4.92571 -1.70361 0
M  V30 7963 C 744.099 5.36429 -2.37616 0
M  V30 7964 C 746.451 5.64868 -2.84793 0
M  V30 7965 C 745.115 5.86431 -3.18834 0
M  V30 7966 H 744.385 0.740146 0.0355669 0
M  V30 7967 H 747.032 1.81415 -0.61326 0
M  V30 7968 H 745.337 3.751 1.13168 0
M  V30 7969 H 747.034 3.93243 0.784937 0
M  V30 7970 H 743.624 4.24165 -0.614981 0
M  V30 7971 H 747.808 4.74428 -1.4571 0
M  V30 7972 H 743.064 5.51333 -2.64276 0
M  V30 7973 H 747.238 6.02966 -3.48432 0
M  V30 7974 H 744.865 6.41248 -4.08296 0
M  V30 7975 N 746.441 0.193421 1.56409 0
M  V30 7976 C 747.404 -0.714371 2.17783 0
M  V30 7977 C 748.404 -1.1422 1.13183 0
M  V30 7978 O 749.594 -1.05557 1.38576 0
M  V30 7979 C 746.726 -1.97509 2.77855 0
M  V30 7980 H 747.919 -0.179714 2.99361 0
M  V30 7981 H 745.472 -0.0561944 1.56199 0
M  V30 7982 H 746.207 -2.5523 2.0007 0
M  V30 7983 H 745.992 -1.67706 3.54425 0
M  V30 7984 H 747.482 -2.62246 3.24987 0
M  V30 7985 N 747.919 -1.57396 -0.0801906 0
M  V30 7986 C 748.849 -2.06145 -1.09665 0
M  V30 7987 C 749.83 -0.953273 -1.40878 0
M  V30 7988 O 751.015 -1.22548 -1.50651 0
M  V30 7989 C 748.145 -2.49836 -2.41245 0
M  V30 7990 C 747.099 -3.64454 -2.24405 0
M  V30 7991 C 746.425 -3.94172 -3.61293 0
M  V30 7992 C 747.725 -4.94807 -1.67223 0
M  V30 7993 H 749.419 -2.91316 -0.691028 0
M  V30 7994 H 746.965 -1.40145 -0.330957 0
M  V30 7995 H 748.918 -2.82552 -3.12638 0
M  V30 7996 H 747.642 -1.61683 -2.83771 0
M  V30 7997 H 746.301 -3.32008 -1.55454 0
M  V30 7998 H 745.949 -3.03163 -4.01374 0
M  V30 7999 H 745.649 -4.71345 -3.50867 0
M  V30 8000 H 747.173 -4.29376 -4.3413 0
M  V30 8001 H 748.587 -5.25807 -2.28472 0
M  V30 8002 H 746.984 -5.76245 -1.67515 0
M  V30 8003 H 748.054 -4.80751 -0.632944 0
M  V30 8004 N 749.397 0.351382 -1.53633 0
M  V30 8005 C 750.813 0.693987 -1.43722 0
M  V30 8006 C 751.013 1.9274 -0.587669 0
M  V30 8007 O 750.069 2.52387 -0.0756082 0
M  V30 8008 C 751.382 0.893937 -2.87105 0
M  V30 8009 C 752.93 0.993051 -2.96829 0
M  V30 8010 C 753.405 1.22537 -4.41303 0
M  V30 8011 N 754.896 1.29275 -4.44795 0
M  V30 8012 C 755.631 1.48988 -5.53706 0
M  V30 8013 N 755.127 1.65924 -6.72637 0
M  V30 8014 N 756.92 1.51472 -5.41306 0
M  V30 8015 H 749.071 -0.459688 -2.07366 0
M  V30 8016 H 751.334 -0.143684 -0.937048 0
M  V30 8017 H 751.04 0.0592517 -3.5165 0
M  V30 8018 H 750.914 1.79795 -3.31592 0
M  V30 8019 H 753.301 1.81827 -2.32429 0
M  V30 8020 H 753.382 0.0661119 -2.55715 0
M  V30 8021 H 753.026 0.405117 -5.06282 0
M  V30 8022 H 752.956 2.16575 -4.80003 0
M  V30 8023 H 755.447 1.17743 -3.59089 0
M  V30 8024 H 755.76 1.80578 -7.51406 0
M  V30 8025 H 754.105 1.63075 -6.75597 0
M  V30 8026 H 757.296 1.37818 -4.47352 0
M  V30 8027 H 757.469 1.66493 -6.26246 0
M  V30 8028 N 750.875 1.45233 0.611969 0
M  V30 8029 C 752.291 1.29542 0.932251 0
M  V30 8030 C 752.491 0.24523 2.00002 0
M  V30 8031 O 751.547 -0.362333 2.49887 0
M  V30 8032 C 752.86 2.67301 1.37733 0
M  V30 8033 C 754.408 2.75163 1.49178 0
M  V30 8034 C 754.883 4.13437 1.97064 0
M  V30 8035 N 756.374 4.15709 2.04304 0
M  V30 8036 C 757.109 5.19566 2.42568 0
M  V30 8037 N 756.605 6.33771 2.79832 0
M  V30 8038 N 758.398 5.06923 2.42869 0
M  V30 8039 H 750.549 2.12192 -0.0938679 0
M  V30 8040 H 752.812 0.947775 0.0206569 0
M  V30 8041 H 752.518 3.45318 0.666951 0
M  V30 8042 H 752.392 2.95472 2.3447 0
M  V30 8043 H 754.779 1.97453 2.19309 0
M  V30 8044 H 754.86 2.50712 0.507674 0
M  V30 8045 H 754.504 4.91631 1.27521 0
M  V30 8046 H 754.434 4.35277 2.9638 0
M  V30 8047 H 756.925 3.33293 1.78113 0
M  V30 8048 H 757.238 7.08815 3.07898 0
M  V30 8049 H 755.583 6.37179 2.77538 0
M  V30 8050 H 758.774 4.1675 2.1316 0
M  V30 8051 H 758.947 5.87981 2.72364 0
M  V30 8052 N 752.353 -0.854086 1.3245 0
M  V30 8053 C 753.286 -1.96654 1.15768 0
M  V30 8054 C 754.264 -1.625 0.0569975 0
M  V30 8055 O 755.448 -1.87254 0.216412 0
M  V30 8056 C 752.575 -3.29776 0.772361 0
M  V30 8057 C 751.621 -3.82909 1.87837 0
M  V30 8058 S 752.454 -4.0643 3.48675 0
M  V30 8059 C 753.61 -5.42526 3.12116 0
M  V30 8060 H 753.843 -2.10504 2.09942 0
M  V30 8061 H 751.376 -1.00612 1.17118 0
M  V30 8062 H 753.334 -4.06706 0.556809 0
M  V30 8063 H 751.995 -3.13739 -0.150519 0
M  V30 8064 H 751.188 -4.79192 1.56177 0
M  V30 8065 H 750.79 -3.12825 2.0498 0
M  V30 8066 H 753.082 -6.24792 2.61996 0
M  V30 8067 H 754.025 -5.79148 4.07422 0
M  V30 8068 H 754.433 -5.06556 2.49121 0
M  V30 8069 N 753.831 -1.1567 -1.07043 0
M  V30 8070 C 754.741 -0.870435 -2.17855 0
M  V30 8071 C 755.757 0.154452 -1.73313 0
M  V30 8072 O 756.933 -0.0203759 -2.0139 0
M  V30 8073 C 753.998 -0.367219 -3.4475 0
M  V30 8074 C 753.059 -1.45639 -4.03841 0
M  V30 8075 C 752.292 -0.977092 -5.2468 0
M  V30 8076 O 752.515 0.176127 -5.70128 0
M  V30 8077 O 751.449 -1.76215 -5.75527 0
M  V30 8078 H 755.275 -1.79687 -2.44839 0
M  V30 8079 H 752.86 -0.936064 -1.1644 0
M  V30 8080 H 754.742 -0.0931947 -4.21297 0
M  V30 8081 H 753.417 0.53131 -3.1931 0
M  V30 8082 H 752.324 -1.78406 -3.28819 0
M  V30 8083 H 753.657 -2.32995 -4.3356 0
M  V30 8084 N 755.309 1.25446 -0.953992 0
M  V30 8085 C 756.219 2.29632 -0.480264 0
M  V30 8086 C 757.235 1.68025 0.452071 0
M  V30 8087 O 758.411 1.98703 0.328472 0
M  V30 8088 C 755.476 3.45903 0.234974 0
M  V30 8089 C 754.537 4.22953 -0.735495 0
M  V30 8090 C 753.77 5.33672 -0.0542957 0
M  V30 8091 O 753.993 5.58477 1.16018 0
M  V30 8092 O 752.927 5.9734 -0.739509 0
M  V30 8093 H 756.753 2.72242 -1.34602 0
M  V30 8094 H 754.338 1.30883 -0.720419 0
M  V30 8095 H 756.22 4.16552 0.637341 0
M  V30 8096 H 754.895 3.05296 1.07592 0
M  V30 8097 H 753.802 3.54734 -1.18806 0
M  V30 8098 H 755.135 4.67341 -1.54444 0
M  V30 8099 N 756.787 0.722489 1.40064 0
M  V30 8100 C 757.717 0.0892452 2.33329 0
M  V30 8101 C 758.698 -0.737992 1.53257 0
M  V30 8102 O 759.883 -0.685516 1.81698 0
M  V30 8103 C 757.013 -0.828139 3.37282 0
M  V30 8104 C 755.967 -0.106005 4.27869 0
M  V30 8105 C 755.293 -1.13957 5.22415 0
M  V30 8106 C 756.593 1.04395 5.11761 0
M  V30 8107 H 758.287 0.868269 2.86534 0
M  V30 8108 H 755.833 0.418982 1.3777 0
M  V30 8109 H 757.786 -1.28058 4.01471 0
M  V30 8110 H 756.51 -1.63914 2.82489 0
M  V30 8111 H 755.169 0.326683 3.65142 0
M  V30 8112 H 754.817 -1.9438 4.63924 0
M  V30 8113 H 754.517 -0.661233 5.83868 0
M  V30 8114 H 756.041 -1.59197 5.89482 0
M  V30 8115 H 757.455 0.670541 5.69365 0
M  V30 8116 H 755.852 1.4511 5.82291 0
M  V30 8117 H 756.922 1.87144 4.47331 0
M  V30 8118 N 758.265 -1.50454 0.469181 0
M  V30 8119 C 759.513 -2.01916 -0.0862982 0
M  V30 8120 C 759.834 -1.35337 -1.40388 0
M  V30 8121 O 759.104 -0.498096 -1.89462 0
M  V30 8122 H 757.684 -0.746185 -0.0348825 0
M  V30 8123 H 760.346 -1.84804 0.619167 0
M  V30 8124 H 759.442 -3.11182 -0.239189 0
M  V30 8125 N 759.743 -0.201713 -1.56304 0
M  V30 8126 C 760.673 0.71155 -2.22394 0
M  V30 8127 C 761.654 1.21625 -1.18917 0
M  V30 8128 O 762.839 1.26388 -1.47444 0
M  V30 8129 C 759.969 1.92837 -2.88845 0
M  V30 8130 C 758.923 1.55831 -3.98623 0
M  V30 8131 C 758.249 2.85228 -4.52271 0
M  V30 8132 C 759.549 0.763249 -5.16693 0
M  V30 8133 H 761.243 0.160573 -2.98969 0
M  V30 8134 H 758.789 0.0757916 -1.438 0
M  V30 8135 H 760.742 2.57253 -3.33764 0
M  V30 8136 H 759.466 2.50398 -2.09686 0
M  V30 8137 H 758.125 0.9377 -3.54405 0
M  V30 8138 H 757.773 3.40893 -3.69866 0
M  V30 8139 H 757.473 2.6121 -5.26349 0
M  V30 8140 H 758.997 3.50622 -4.99897 0
M  V30 8141 H 760.411 1.31066 -5.58117 0
M  V30 8142 H 758.808 0.620935 -5.96879 0
M  V30 8143 H 759.878 -0.234322 -4.84334 0
M  V30 8144 N 761.222 1.57436 0.0718424 0
M  V30 8145 C 762.172 2.00132 1.09229 0
M  V30 8146 C 763.156 0.883379 1.34481 0
M  V30 8147 O 764.348 1.14728 1.34783 0
M  V30 8148 C 761.477 2.44876 2.40605 0
M  V30 8149 C 760.563 3.63405 2.18627 0
M  V30 8150 N 760.954 4.77583 1.66579 0
M  V30 8151 C 759.252 3.69953 2.491 0
M  V30 8152 C 759.953 5.5943 1.59415 0
M  V30 8153 N 758.929 5.03275 2.05464 0
M  V30 8154 H 762.731 2.85849 0.683185 0
M  V30 8155 H 760.245 1.59987 0.278914 0
M  V30 8156 H 762.242 2.73703 3.14471 0
M  V30 8157 H 760.902 1.60546 2.82232 0
M  V30 8158 H 761.913 4.99875 1.35443 0
M  V30 8159 H 758.59 2.96336 2.94094 0
M  V30 8160 H 759.98 6.61093 1.20026 0
M  V30 8161 N 762.7 -0.34323 1.53817 0
M  V30 8162 C 764.111 -0.918823 1.62525 0
M  V30 8163 C 764.462 -1.89542 0.506765 0
M  V30 8164 O 763.587 -2.13326 -0.363441 0
M  V30 8165 C 764.182 -1.67326 2.94597 0
M  V30 8166 C 762.741 -2.19786 3.05567 0
M  V30 8167 C 761.888 -1.01708 2.57974 0
M  V30 8168 H 764.839 -0.121358 1.58235 0
M  V30 8169 H 764.86 -2.53615 2.83654 0
M  V30 8170 H 764.372 -0.962223 3.75983 0
M  V30 8171 H 762.473 -2.94065 2.28816 0
M  V30 8172 H 762.586 -2.46135 4.1104 0
M  V30 8173 H 760.95 -1.39058 2.13389 0
M  V30 8174 H 761.733 -0.320671 3.41799 0
M  V30 8175 N 764.178 -1.45556 -0.604258 0
M  V30 8176 C 765.141 -1.54091 -1.69672 0
M  V30 8177 C 766.141 -0.420076 -1.55216 0
M  V30 8178 O 767.331 -0.683671 -1.60224 0
M  V30 8179 C 764.463 -1.44063 -3.08964 0
M  V30 8180 H 765.656 -2.51431 -1.6347 0
M  V30 8181 H 763.209 -1.33046 -0.820273 0
M  V30 8182 H 763.944 -0.479201 -3.2074 0
M  V30 8183 H 763.729 -2.25362 -3.20865 0
M  V30 8184 H 765.219 -1.53075 -3.88533 0
M  V30 8185 N 765.656 0.84705 -1.32902 0
M  V30 8186 C 766.933 1.58583 -1.14503 0
M  V30 8187 C 767.313 2.09075 0.291724 0
M  V30 8188 O 766.661 1.88636 1.28952 0
M  V30 8189 C 766.871 2.72605 -2.17916 0
M  V30 8190 C 768.219 3.41993 -2.51646 0
M  V30 8191 O 769.243 2.82838 -2.1652 0
M  V30 8192 O 768.102 4.48761 -3.1189 0
M  V30 8193 H 765.196 0.698756 -0.442345 0
M  V30 8194 H 767.742 0.890516 -1.44457 0
M  V30 8195 H 766.514 2.32876 -3.14459 0
M  V30 8196 H 766.137 3.49807 -1.89 0
M  V30 8197 N 767.134 1.16236 1.06428 0
M  V30 8198 C 768.084 0.835994 2.12121 0
M  V30 8199 C 769.068 -0.183955 1.59845 0
M  V30 8200 O 770.26 0.0166741 1.76992 0
M  V30 8201 C 767.389 0.337333 3.41639 0
M  V30 8202 C 766.475 1.38798 4.00744 0
M  V30 8203 N 766.866 2.59799 4.3398 0
M  V30 8204 C 765.164 1.24292 4.28331 0
M  V30 8205 C 765.865 3.27213 4.80943 0
M  V30 8206 N 764.841 2.54594 4.80294 0
M  V30 8207 H 768.643 1.75615 2.35662 0
M  V30 8208 H 766.157 1.04921 1.23957 0
M  V30 8209 H 768.154 0.0851274 4.16813 0
M  V30 8210 H 766.814 -0.57677 3.19536 0
M  V30 8211 H 767.825 2.96867 4.24371 0
M  V30 8212 H 764.502 0.389464 4.15679 0
M  V30 8213 H 765.892 4.30492 5.15874 0
M  V30 8214 N 768.612 -1.24939 0.960631 0
M  V30 8215 C 769.544 -2.24879 0.442937 0
M  V30 8216 C 770.557 -1.56615 -0.444464 0
M  V30 8217 O 771.746 -1.76715 -0.251776 0
M  V30 8218 C 768.846 -3.36757 -0.380537 0
M  V30 8219 C 768.019 -4.34587 0.495283 0
M  V30 8220 C 767.078 -5.25502 -0.270995 0
M  V30 8221 O 766.104 -5.68227 0.332661 0
M  V30 8222 N 767.306 -5.59077 -1.56249 0
M  V30 8223 H 770.071 -2.69932 1.30218 0
M  V30 8224 H 767.632 -1.38907 0.83166 0
M  V30 8225 H 769.624 -3.94542 -0.90103 0
M  V30 8226 H 768.194 -2.91045 -1.14067 0
M  V30 8227 H 767.414 -3.75593 1.19682 0
M  V30 8228 H 768.702 -4.96925 1.09285 0
M  V30 8229 H 768.1 -5.2628 -2.07476 0
M  V30 8230 H 766.657 -6.19421 -2.02882 0
M  V30 8231 N 770.09 -0.729906 -1.39679 0
M  V30 8232 C 771.336 -0.27603 -2.00913 0
M  V30 8233 C 771.669 1.13227 -1.57776 0
M  V30 8234 O 770.944 1.7709 -0.804319 0
M  V30 8235 C 771.227 -0.372157 -3.58172 0
M  V30 8236 C 771.08 -1.81986 -4.11341 0
M  V30 8237 C 772.399 0.248378 -4.39399 0
M  V30 8238 H 769.518 -0.101773 -0.729939 0
M  V30 8239 H 772.16 -0.925104 -1.65957 0
M  V30 8240 H 770.31 0.180459 -3.88081 0
M  V30 8241 H 771.982 -2.42896 -3.92172 0
M  V30 8242 H 770.225 -2.34287 -3.65092 0
M  V30 8243 H 770.896 -1.83842 -5.20486 0
M  V30 8244 H 773.372 -0.222645 -4.15504 0
M  V30 8245 H 772.248 0.150746 -5.48693 0
M  V30 8246 H 772.509 1.33378 -4.21501 0
M  V30 8247 N 771.568 1.50203 -0.477153 0
M  V30 8248 C 772.798 2.0647 0.0731427 0
M  V30 8249 C 773.206 1.3405 1.33518 0
M  V30 8250 O 772.549 0.405164 1.79176 0
M  V30 8251 C 772.611 3.57025 0.421121 0
M  V30 8252 C 772.275 4.50973 -0.739765 0
M  V30 8253 C 773.272 4.939 -1.62353 0
M  V30 8254 C 770.957 4.93581 -0.93181 0
M  V30 8255 C 772.951 5.78149 -2.6837 0
M  V30 8256 C 770.638 5.77612 -1.99519 0
M  V30 8257 C 771.636 6.19798 -2.86949 0
M  V30 8258 O 771.324 7.02152 -3.91456 0
M  V30 8259 H 771.056 0.675969 -0.00648243 0
M  V30 8260 H 773.61 1.94278 -0.66673 0
M  V30 8261 H 771.84 3.67141 1.21426 0
M  V30 8262 H 773.529 3.95632 0.907213 0
M  V30 8263 H 774.295 4.61646 -1.48687 0
M  V30 8264 H 770.174 4.60262 -0.260739 0
M  V30 8265 H 773.718 6.10997 -3.36643 0
M  V30 8266 H 769.615 6.09279 -2.13189 0
M  V30 8267 H 770.383 7.20414 -3.88518 0
M  V30 8268 N 773.046 0.209999 1.56195 0
M  V30 8269 C 774.293 -0.424813 1.97994 0
M  V30 8270 C 774.621 -1.60589 1.09733 0
M  V30 8271 O 773.876 -1.95201 0.139693 0
M  V30 8272 C 774.175 -0.91312 3.45539 0
M  V30 8273 C 773.841 0.156187 4.50629 0
M  V30 8274 C 772.503 0.449966 4.79092 0
M  V30 8275 C 774.855 0.879959 5.13718 0
M  V30 8276 C 772.183 1.47223 5.67928 0
M  V30 8277 C 774.535 1.89148 6.0366 0
M  V30 8278 C 773.199 2.1923 6.30472 0
M  V30 8279 H 772.469 -0.15545 0.724511 0
M  V30 8280 H 775.116 0.310095 1.88973 0
M  V30 8281 H 773.421 -1.72658 3.51705 0
M  V30 8282 H 775.118 -1.41395 3.75245 0
M  V30 8283 H 771.708 -0.0829466 4.2852 0
M  V30 8284 H 775.892 0.66623 4.91808 0
M  V30 8285 H 771.148 1.71105 5.86969 0
M  V30 8286 H 775.322 2.45745 6.516 0
M  V30 8287 H 772.949 2.98587 6.99107 0
M  V30 8288 N 774.524 -1.57472 -0.0634922 0
M  V30 8289 C 775.772 -1.87283 -0.759563 0
M  V30 8290 C 776.093 -0.803135 -1.77693 0
M  V30 8291 O 775.363 0.167293 -1.95184 0
M  V30 8292 H 773.943 -0.691106 -0.283516 0
M  V30 8293 H 776.605 -1.94864 -0.0376091 0
M  V30 8294 H 775.701 -2.85064 -1.27062 0
M  V30 8295 N 776.003 0.335068 -1.53997 0
M  V30 8296 C 776.935 1.4327 -1.78903 0
M  V30 8297 C 777.948 1.48347 -0.670598 0
M  V30 8298 O 779.137 1.51277 -0.947494 0
M  V30 8299 C 776.237 2.81878 -1.88144 0
M  V30 8300 C 775.41 3.00141 -3.18174 0
M  V30 8301 C 774.469 4.19041 -3.18263 0
M  V30 8302 O 773.495 4.12751 -3.9195 0
M  V30 8303 N 774.697 5.28004 -2.41231 0
M  V30 8304 H 777.462 1.22272 -2.73623 0
M  V30 8305 H 775.023 0.524996 -1.53152 0
M  V30 8306 H 777.015 3.59609 -1.85644 0
M  V30 8307 H 775.585 2.9598 -1.00572 0
M  V30 8308 H 774.805 2.09808 -3.33728 0
M  V30 8309 H 776.093 3.0923 -4.04047 0
M  V30 8310 H 775.491 5.35986 -1.8093 0
M  V30 8311 H 774.048 6.04196 -2.44521 0
M  V30 8312 N 777.481 1.45874 0.596531 0
M  V30 8313 C 778.411 1.5824 1.71705 0
M  V30 8314 C 779.392 0.433366 1.64487 0
M  V30 8315 O 780.577 0.657895 1.82717 0
M  V30 8316 C 777.707 1.55927 3.10329 0
M  V30 8317 C 776.661 2.69659 3.32367 0
M  V30 8318 C 775.987 2.52403 4.71377 0
M  V30 8319 C 777.287 4.11591 3.21544 0
M  V30 8320 H 778.981 2.52035 1.61613 0
M  V30 8321 H 776.527 1.21297 0.776082 0
M  V30 8322 H 778.48 1.63173 3.88526 0
M  V30 8323 H 777.204 0.586674 3.21288 0
M  V30 8324 H 775.863 2.61859 2.56564 0
M  V30 8325 H 775.511 1.53258 4.79083 0
M  V30 8326 H 775.211 3.28679 4.87077 0
M  V30 8327 H 776.735 2.6152 5.5176 0
M  V30 8328 H 778.149 4.20576 3.89601 0
M  V30 8329 H 776.546 4.88344 3.4877 0
M  V30 8330 H 777.616 4.32719 2.1882 0
M  V30 8331 N 778.959 -0.83999 1.33349 0
M  V30 8332 C 779.889 -1.965 1.26135 0
M  V30 8333 C 780.87 -1.69505 0.142152 0
M  V30 8334 O 782.055 -1.91346 0.331743 0
M  V30 8335 C 779.185 -3.32632 0.99866 0
M  V30 8336 C 778.139 -3.74021 2.08068 0
M  V30 8337 C 777.465 -5.07947 1.67014 0
M  V30 8338 C 778.765 -3.87925 3.49731 0
M  V30 8339 H 780.459 -2.02793 2.20262 0
M  V30 8340 H 778.005 -0.974297 1.06035 0
M  V30 8341 H 779.958 -4.10903 0.934696 0
M  V30 8342 H 778.682 -3.26593 0.0217759 0
M  V30 8343 H 777.341 -2.98012 2.13505 0
M  V30 8344 H 776.989 -4.98378 0.680316 0
M  V30 8345 H 776.689 -5.36611 2.39422 0
M  V30 8346 H 778.213 -5.88695 1.62082 0
M  V30 8347 H 779.627 -4.5651 3.46802 0
M  V30 8348 H 778.024 -4.28023 4.20614 0
M  V30 8349 H 779.094 -2.90407 3.88319 0
M  V30 8350 N 780.437 -1.16799 -1.0581 0
M  V30 8351 C 781.685 -0.950642 -1.78346 0
M  V30 8352 C 782.006 0.522524 -1.87869 0
M  V30 8353 O 781.276 1.3795 -1.39092 0
M  V30 8354 H 779.856 -0.348736 -0.6606 0
M  V30 8355 H 782.518 -1.47158 -1.27791 0
M  V30 8356 H 781.614 -1.37359 -2.80248 0
M  V30 8357 N 781.915 1.24427 -0.967243 0
M  V30 8358 C 782.848 2.23885 -0.441683 0
M  V30 8359 C 783.826 1.55231 0.483963 0
M  V30 8360 O 785.01 1.83865 0.415445 0
M  V30 8361 C 782.137 3.36755 0.362458 0
M  V30 8362 C 781.183 4.23495 -0.505407 0
M  V30 8363 S 782.016 4.98916 -1.94534 0
M  V30 8364 C 783.172 6.15245 -1.14997 0
M  V30 8365 H 783.405 2.68118 -1.28453 0
M  V30 8366 H 780.938 1.337 -0.772243 0
M  V30 8367 H 782.896 4.02218 0.820445 0
M  V30 8368 H 781.557 2.91081 1.18027 0
M  V30 8369 H 780.75 5.03876 0.111979 0
M  V30 8370 H 780.352 3.63032 -0.899104 0
M  V30 8371 H 782.644 6.7629 -0.404769 0
M  V30 8372 H 783.587 6.81343 -1.92814 0
M  V30 8373 H 783.995 5.60455 -0.674543 0
M  V30 8374 N 783.393 0.737304 1.3929 0
M  V30 8375 C 784.633 0.290966 2.02318 0
M  V30 8376 C 784.997 -1.10174 1.57244 0
M  V30 8377 O 786.198 -1.64628 2.12488 0
M  V30 8378 C 784.469 0.391767 3.55246 0
M  V30 8379 S 786.028 0.0256103 4.38793 0
M  V30 8380 H 782.846 0.113862 0.701824 0
M  V30 8381 H 785.448 0.964329 1.70062 0
M  V30 8382 H 784.152 1.40662 3.85542 0
M  V30 8383 H 783.683 -0.299338 3.9226 0
M  V30 8384 H 785.698 -1.18991 4.81722 0
M  V30 8385 N 784.871 -1.49948 0.485112 0
M  V30 8386 C 786.148 -1.95186 -0.12726 0
M  V30 8387 C 786.528 -1.42605 -1.5565 0
M  V30 8388 O 785.876 -0.632986 -2.19558 0
M  V30 8389 C 786.086 -3.48955 -0.0562117 0
M  V30 8390 C 787.434 -4.23932 -0.238106 0
M  V30 8391 O 788.458 -3.55955 -0.132145 0
M  V30 8392 O 787.317 -5.44614 -0.453658 0
M  V30 8393 H 784.411 -0.820433 -0.104014 0
M  V30 8394 H 786.957 -1.60659 0.546517 0
M  V30 8395 H 785.729 -3.79814 0.941122 0
M  V30 8396 H 785.352 -3.90056 -0.770834 0
M  V30 8397 N 786.349 -0.21828 -1.56081 0
M  V30 8398 C 787.281 0.725447 -2.17416 0
M  V30 8399 C 788.294 1.15995 -1.14233 0
M  V30 8400 O 789.483 1.09166 -1.41227 0
M  V30 8401 C 786.583 1.99401 -2.7403 0
M  V30 8402 C 785.756 1.7156 -4.02351 0
M  V30 8403 C 784.815 2.8309 -4.43561 0
M  V30 8404 O 783.841 2.51701 -5.10525 0
M  V30 8405 N 785.043 4.11972 -4.08973 0
M  V30 8406 H 787.808 0.200801 -2.99027 0
M  V30 8407 H 785.369 -0.0371514 -1.61857 0
M  V30 8408 H 787.361 2.73198 -2.98571 0
M  V30 8409 H 785.931 2.42923 -1.96742 0
M  V30 8410 H 785.151 0.814233 -3.85699 0
M  V30 8411 H 786.439 1.50385 -4.86068 0
M  V30 8412 H 785.837 4.40319 -3.55156 0
M  V30 8413 H 784.394 4.82323 -4.38415 0
M  V30 8414 N 787.827 1.57504 0.0551401 0
M  V30 8415 C 789.076 1.87237 0.750009 0
M  V30 8416 C 789.389 0.813268 1.77891 0
M  V30 8417 O 790.595 0.99898 2.52453 0
M  V30 8418 C 789.051 3.32187 1.38491 0
M  V30 8419 C 788.659 4.46267 0.393707 0
M  V30 8420 C 790.403 3.71101 2.06117 0
M  V30 8421 C 788.31 5.82265 1.03547 0
M  V30 8422 H 787.24 0.698524 0.283866 0
M  V30 8423 H 789.891 1.835 0.00365997 0
M  V30 8424 H 788.273 3.30588 2.18008 0
M  V30 8425 H 789.447 4.59289 -0.372865 0
M  V30 8426 H 787.762 4.16015 -0.17902 0
M  V30 8427 H 790.359 4.70012 2.54937 0
M  V30 8428 H 790.702 3.01751 2.86796 0
M  V30 8429 H 791.235 3.74762 1.33409 0
M  V30 8430 H 787.974 6.54949 0.268644 0
M  V30 8431 H 787.494 5.73012 1.7725 0
M  V30 8432 H 789.173 6.28148 1.55047 0
M  V30 8433 N 789.305 -0.326896 1.54172 0
M  V30 8434 C 790.53 -1.08924 1.76494 0
M  V30 8435 C 790.955 -1.81039 0.510523 0
M  V30 8436 O 790.313 -1.73141 -0.537756 0
M  V30 8437 C 790.361 -2.06558 2.95578 0
M  V30 8438 O 789.465 -3.14394 2.6689 0
M  V30 8439 H 788.806 -0.314216 0.584948 0
M  V30 8440 H 791.336 -0.372207 2.01186 0
M  V30 8441 H 791.346 -2.49487 3.22832 0
M  V30 8442 H 790.021 -1.53469 3.86549 0
M  V30 8443 H 788.598 -2.76164 2.50576 0
M  V30 8444 N 790.784 -1.46188 -0.588786 0
M  V30 8445 C 792.031 -1.51184 -1.34721 0
M  V30 8446 C 792.359 -0.161084 -1.93832 0
M  V30 8447 O 791.614 0.842557 -1.76634 0
M  V30 8448 C 791.913 -2.55364 -2.50048 0
M  V30 8449 C 791.579 -3.99553 -2.08969 0
M  V30 8450 C 790.241 -4.38811 -1.9748 0
M  V30 8451 C 792.593 -4.90156 -1.77191 0
M  V30 8452 C 789.921 -5.66544 -1.52463 0
M  V30 8453 C 792.273 -6.1832 -1.33654 0
M  V30 8454 C 790.937 -6.5649 -1.20738 0
M  V30 8455 H 790.207 -0.55322 -0.49298 0
M  V30 8456 H 792.854 -1.79634 -0.663627 0
M  V30 8457 H 791.159 -2.20552 -3.23827 0
M  V30 8458 H 792.856 -2.5646 -3.08268 0
M  V30 8459 H 789.446 -3.68518 -2.18843 0
M  V30 8460 H 793.63 -4.60549 -1.84955 0
M  V30 8461 H 788.886 -5.94895 -1.411 0
M  V30 8462 H 793.06 -6.87956 -1.08117 0
M  V30 8463 H 790.687 -7.55362 -0.856307 0
M  V30 8464 N 792.262 0.832906 -1.33792 0
M  V30 8465 C 793.673 1.40489 -1.22963 0
M  V30 8466 C 794.024 1.95633 0.149026 0
M  V30 8467 O 793.149 1.8928 1.04891 0
M  V30 8468 C 793.744 2.55387 -2.22627 0
M  V30 8469 C 792.303 3.08522 -2.15618 0
M  V30 8470 C 791.45 1.81347 -2.09782 0
M  V30 8471 H 794.401 0.638156 -1.45304 0
M  V30 8472 H 794.422 3.33193 -1.83746 0
M  V30 8473 H 793.934 2.15222 -3.22957 0
M  V30 8474 H 792.035 3.53217 -1.18611 0
M  V30 8475 H 792.148 3.6829 -3.0643 0
M  V30 8476 H 790.512 2.01839 -1.55349 0
M  V30 8477 H 791.295 1.43369 -3.1193 0
M  V30 8478 N 793.74 1.17359 1.05189 0
M  V30 8479 C 794.67 0.91365 2.14883 0
M  V30 8480 C 795.651 -0.144365 1.69486 0
M  V30 8481 O 796.836 0.00587861 1.94199 0
M  V30 8482 C 793.966 0.426196 3.44675 0
M  V30 8483 C 792.92 1.4234 4.03638 0
M  V30 8484 C 792.246 0.793902 5.28773 0
M  V30 8485 C 793.546 2.7966 4.41121 0
M  V30 8486 H 795.24 1.831 2.36885 0
M  V30 8487 H 792.786 0.881781 1.13845 0
M  V30 8488 H 794.739 0.231767 4.20762 0
M  V30 8489 H 793.463 -0.526693 3.22325 0
M  V30 8490 H 792.122 1.60457 3.2962 0
M  V30 8491 H 791.77 -0.165824 5.02727 0
M  V30 8492 H 791.47 1.45959 5.69183 0
M  V30 8493 H 792.994 0.609747 6.07548 0
M  V30 8494 H 794.408 2.6526 5.08242 0
M  V30 8495 H 792.805 3.42807 4.92548 0
M  V30 8496 H 793.875 3.34068 3.51464 0
M  V30 8497 N 795.218 -1.23913 0.973828 0
M  V30 8498 C 796.466 -1.91771 0.637817 0
M  V30 8499 C 796.787 -1.76434 -0.830435 0
M  V30 8500 O 796.057 -1.13965 -1.59339 0
M  V30 8501 H 794.637 -0.709761 0.232912 0
M  V30 8502 H 797.299 -1.50677 1.23622 0
M  V30 8503 H 796.395 -2.99327 0.883731 0
M  V30 8504 N 796.696 -0.74468 -1.38897 0
M  V30 8505 C 797.628 -0.0713608 -2.29089 0
M  V30 8506 C 798.641 0.693224 -1.47303 0
M  V30 8507 O 799.83 0.535785 -1.70269 0
M  V30 8508 C 796.93 0.923078 -3.26087 0
M  V30 8509 C 796.103 0.217998 -4.36856 0
M  V30 8510 C 795.162 1.12192 -5.14101 0
M  V30 8511 O 794.188 0.595771 -5.66073 0
M  V30 8512 N 795.39 2.45082 -5.26227 0
M  V30 8513 H 798.155 -0.845906 -2.87514 0
M  V30 8514 H 795.716 -0.594712 -1.50581 0
M  V30 8515 H 797.708 1.53061 -3.74639 0
M  V30 8516 H 796.278 1.59876 -2.68623 0
M  V30 8517 H 795.498 -0.570134 -3.90055 0
M  V30 8518 H 796.786 -0.270248 -5.08082 0
M  V30 8519 H 796.184 2.90294 -4.85537 0
M  V30 8520 H 794.741 3.00907 -5.78185 0
M  V30 8521 N 798.174 1.49689 -0.493057 0
M  V30 8522 C 799.137 2.27502 0.278485 0
M  V30 8523 C 800.137 1.33184 0.901037 0
M  V30 8524 O 801.327 1.56415 0.766801 0
M  V30 8525 C 798.459 3.10881 1.39878 0
M  V30 8526 H 799.652 2.97163 -0.404219 0
M  V30 8527 H 797.205 1.54324 -0.247774 0
M  V30 8528 H 797.94 2.45767 2.11587 0
M  V30 8529 H 797.725 3.80219 0.957924 0
M  V30 8530 H 799.215 3.69673 1.94247 0
M  V30 8531 N 799.652 0.226554 1.55963 0
M  V30 8532 C 800.9 -0.402991 1.98041 0
M  V30 8533 C 801.221 -1.59938 1.11557 0
M  V30 8534 O 800.491 -1.9494 0.193719 0
M  V30 8535 H 799.071 -0.15188 0.731397 0
M  V30 8536 H 801.733 0.320613 1.92245 0
M  V30 8537 H 800.829 -0.725937 3.0354 0
M  V30 8538 N 801.13 -1.57531 -0.0467866 0
M  V30 8539 C 802.36 -1.92417 -0.752279 0
M  V30 8540 C 802.768 -0.823134 -1.70356 0
M  V30 8541 O 802.111 0.210598 -1.82489 0
M  V30 8542 C 802.173 -3.22974 -1.57887 0
M  V30 8543 C 801.837 -4.50045 -0.794285 0
M  V30 8544 C 802.834 -5.19799 -0.102368 0
M  V30 8545 C 800.519 -4.96608 -0.754061 0
M  V30 8546 C 802.513 -6.34385 0.619267 0
M  V30 8547 C 800.2 -6.11093 -0.0286682 0
M  V30 8548 C 801.198 -6.79835 0.656772 0
M  V30 8549 O 800.886 -7.92133 1.37042 0
M  V30 8550 H 800.618 -0.640029 -0.217576 0
M  V30 8551 H 803.172 -2.05395 -0.0137438 0
M  V30 8552 H 801.402 -3.06273 -2.3608 0
M  V30 8553 H 803.091 -3.43319 -2.16533 0
M  V30 8554 H 803.857 -4.8484 -0.124589 0
M  V30 8555 H 799.736 -4.42958 -1.27706 0
M  V30 8556 H 803.28 -6.87975 1.15483 0
M  V30 8557 H 799.177 -6.455 -0.00446214 0
M  V30 8558 H 799.945 -8.08394 1.28227 0
M  V30 8559 N 802.608 0.318715 -1.54344 0
M  V30 8560 C 804.019 0.89285 -1.63967 0
M  V30 8561 C 804.37 1.88712 -0.536855 0
M  V30 8562 O 803.495 2.13877 0.329457 0
M  V30 8563 C 804.09 1.62618 -2.97222 0
M  V30 8564 C 802.649 2.14897 -3.09025 0
M  V30 8565 C 801.796 0.975909 -2.5956 0
M  V30 8566 H 804.747 0.0961687 -1.58408 0
M  V30 8567 H 804.768 2.4907 -2.87653 0
M  V30 8568 H 804.28 0.902286 -3.77466 0
M  V30 8569 H 802.381 2.90387 -2.33465 0
M  V30 8570 H 802.494 2.39565 -4.14904 0
M  V30 8571 H 800.858 1.35646 -2.15574 0
M  V30 8572 H 801.641 0.266253 -3.42266 0
M  V30 8573 N 804.086 1.46499 0.581025 0
M  V30 8574 C 805.332 1.52121 1.34116 0
M  V30 8575 C 805.665 0.173031 1.93428 0
M  V30 8576 O 804.94 -0.815729 1.76568 0
M  V30 8577 C 805.223 2.62108 2.46924 0
M  V30 8578 C 805.076 4.06462 1.92636 0
M  V30 8579 C 806.395 2.68167 3.48962 0
M  V30 8580 H 803.514 0.5538 0.486287 0
M  V30 8581 H 806.156 1.78443 0.652538 0
M  V30 8582 H 804.306 2.39794 3.05665 0
M  V30 8583 H 805.978 4.40068 1.3834 0
M  V30 8584 H 804.221 4.15862 1.23455 0
M  V30 8585 H 804.892 4.79152 2.74076 0
M  V30 8586 H 807.368 2.8823 3.00104 0
M  V30 8587 H 806.244 3.46942 4.2535 0
M  V30 8588 H 806.505 1.74284 4.06297 0
M  V30 8589 N 805.565 -0.825799 1.34232 0
M  V30 8590 C 806.795 -1.61129 1.29309 0
M  V30 8591 C 807.203 -1.88714 -0.135589 0
M  V30 8592 O 806.546 -1.47703 -1.09222 0
M  V30 8593 C 806.608 -2.97866 2.01287 0
M  V30 8594 C 806.272 -2.9319 3.50555 0
M  V30 8595 C 807.269 -2.67978 4.45515 0
M  V30 8596 C 804.954 -3.12913 3.92926 0
M  V30 8597 C 806.948 -2.62536 5.80822 0
M  V30 8598 C 804.635 -3.07096 5.28333 0
M  V30 8599 C 805.633 -2.8194 6.22092 0
M  V30 8600 O 805.321 -2.7605 7.55018 0
M  V30 8601 H 805.053 -0.507652 0.446391 0
M  V30 8602 H 807.607 -1.03575 1.77374 0
M  V30 8603 H 805.837 -3.57327 1.47832 0
M  V30 8604 H 807.526 -3.58848 1.89691 0
M  V30 8605 H 808.292 -2.52478 4.14101 0
M  V30 8606 H 804.171 -3.3151 3.20347 0
M  V30 8607 H 807.715 -2.42821 6.53975 0
M  V30 8608 H 803.612 -3.22148 5.59367 0
M  V30 8609 H 804.38 -2.91798 7.6472 0
M  V30 8610 N 807.043 -1.17915 -1.04565 0
M  V30 8611 C 807.99 -0.901605 -2.12461 0
M  V30 8612 C 808.96 0.157011 -1.65356 0
M  V30 8613 O 810.145 0.0184494 -1.90791 0
M  V30 8614 C 807.285 -0.42796 -3.42436 0
M  V30 8615 C 806.398 -1.55142 -4.03181 0
M  V30 8616 C 805.533 -1.03101 -5.21098 0
M  V30 8617 C 804.572 -2.1295 -5.73863 0
M  V30 8618 N 803.709 -1.62339 -6.83074 0
M  V30 8619 H 808.549 -1.82551 -2.3554 0
M  V30 8620 H 806.086 -0.910389 -1.15544 0
M  V30 8621 H 808.044 -0.134859 -4.16982 0
M  V30 8622 H 806.674 0.458977 -3.1952 0
M  V30 8623 H 805.726 -1.96011 -3.26012 0
M  V30 8624 H 807.038 -2.37968 -4.38375 0
M  V30 8625 H 806.192 -0.692132 -6.02739 0
M  V30 8626 H 804.931 -0.17227 -4.87396 0
M  V30 8627 H 803.936 -2.47687 -4.90847 0
M  V30 8628 H 805.161 -2.9925 -6.09611 0
M  V30 8629 H 803.107 -0.787464 -6.51256 0
M  V30 8630 H 803.024 -2.38767 -7.17305 0
M  V30 8631 H 804.292 -1.31363 -7.68351 0
M  V30 8632 N 808.521 1.23394 -0.980386 0
M  V30 8633 C 809.751 1.9556 -0.666319 0
M  V30 8634 C 810.159 1.72786 0.770815 0
M  V30 8635 O 809.502 1.0162 1.53033 0
M  V30 8636 C 809.564 3.48643 -0.876825 0
M  V30 8637 C 809.228 3.95135 -2.29602 0
M  V30 8638 C 810.225 4.03806 -3.2747 0
M  V30 8639 C 807.91 4.28122 -2.62711 0
M  V30 8640 C 809.904 4.44818 -4.56526 0
M  V30 8641 C 807.591 4.68814 -3.9199 0
M  V30 8642 C 808.589 4.77129 -4.88709 0
M  V30 8643 O 808.277 5.16908 -6.15679 0
M  V30 8644 H 808.009 0.629422 -0.246585 0
M  V30 8645 H 810.563 1.57839 -1.31438 0
M  V30 8646 H 808.793 3.86319 -0.171587 0
M  V30 8647 H 810.482 4.0202 -0.55992 0
M  V30 8648 H 811.248 3.78526 -3.03222 0
M  V30 8649 H 807.127 4.20861 -1.8814 0
M  V30 8650 H 810.671 4.51223 -5.32018 0
M  V30 8651 H 806.568 4.93545 -4.16033 0
M  V30 8652 H 807.336 5.3502 -6.19432 0
M  V30 8653 N 809.999 0.752036 1.385 0
M  V30 8654 C 811.245 0.307958 2.00448 0
M  V30 8655 C 811.578 -1.10702 1.59558 0
M  V30 8656 O 810.853 -1.75788 0.832391 0
M  V30 8657 C 811.136 0.429092 3.57534 0
M  V30 8658 C 810.989 1.88507 4.08393 0
M  V30 8659 C 812.308 -0.178442 4.39738 0
M  V30 8660 H 809.427 0.113373 0.728228 0
M  V30 8661 H 812.069 0.951389 1.64465 0
M  V30 8662 H 810.219 -0.118695 3.88319 0
M  V30 8663 H 811.891 2.49104 3.88259 0
M  V30 8664 H 810.134 2.40066 3.61318 0
M  V30 8665 H 810.805 1.92099 5.17496 0
M  V30 8666 H 813.281 0.28872 4.15097 0
M  V30 8667 H 812.157 -0.0634349 5.48863 0
M  V30 8668 H 812.418 -1.26655 4.23569 0
M  V30 8669 N 811.477 -1.49425 0.500989 0
M  V30 8670 C 812.888 -1.86624 0.0532011 0
M  V30 8671 C 813.239 -1.41331 -1.36088 0
M  V30 8672 O 812.364 -0.791195 -2.01418 0
M  V30 8673 C 812.959 -3.38681 0.0897693 0
M  V30 8674 C 811.518 -3.75181 -0.302677 0
M  V30 8675 C 810.665 -2.73419 0.462307 0
M  V30 8676 H 813.616 -1.41743 0.713773 0
M  V30 8677 H 813.637 -3.73902 -0.705528 0
M  V30 8678 H 813.149 -3.71616 1.11907 0
M  V30 8679 H 811.25 -3.47855 -1.33521 0
M  V30 8680 H 811.363 -4.79097 0.0167653 0
M  V30 8681 H 809.727 -2.54548 -0.0878557 0
M  V30 8682 H 810.51 -3.09198 1.49169 0
M  V30 8683 N 812.955 -0.234822 -1.55841 0
M  V30 8684 C 814.185 0.397168 -2.02746 0
M  V30 8685 C 814.593 1.52951 -1.11367 0
M  V30 8686 O 813.936 1.8332 -0.118133 0
M  V30 8687 C 813.998 0.977748 -3.45948 0
M  V30 8688 C 813.662 -0.0208193 -4.56995 0
M  V30 8689 C 814.659 -0.826015 -5.13296 0
M  V30 8690 C 812.344 -0.143416 -5.02095 0
M  V30 8691 C 814.338 -1.74038 -6.1318 0
M  V30 8692 C 812.025 -1.0613 -6.01814 0
M  V30 8693 C 813.023 -1.85832 -6.57233 0
M  V30 8694 O 812.711 -2.76075 -7.55008 0
M  V30 8695 H 812.443 0.0999802 -0.668566 0
M  V30 8696 H 814.997 -0.352673 -2.0235 0
M  V30 8697 H 813.227 1.77693 -3.43456 0
M  V30 8698 H 814.916 1.51854 -3.76424 0
M  V30 8699 H 815.682 -0.741822 -4.79293 0
M  V30 8700 H 811.561 0.466857 -4.5863 0
M  V30 8701 H 815.105 -2.36291 -6.56363 0
M  V30 8702 H 811.002 -1.14646 -6.35237 0
M  V30 8703 H 811.77 -2.703 -7.7258 0
M  V30 8704 N 814.433 1.57553 0.0384317 0
M  V30 8705 C 815.681 1.88468 0.729672 0
M  V30 8706 C 816.002 0.831302 1.76393 0
M  V30 8707 O 815.272 -0.13622 1.95426 0
M  V30 8708 H 813.852 0.695529 0.272485 0
M  V30 8709 H 816.514 1.94899 0.0066032 0
M  V30 8710 H 815.61 2.8705 1.22511 0
M  V30 8711 N 815.911 -0.310526 1.54511 0
M  V30 8712 C 817.322 -0.884142 1.64438 0
M  V30 8713 C 817.673 -1.88425 0.546855 0
M  V30 8714 O 816.798 -2.14049 -0.31811 0
M  V30 8715 C 817.393 -1.6104 2.9808 0
M  V30 8716 C 815.952 -2.13255 3.1016 0
M  V30 8717 C 815.099 -0.96213 2.60074 0
M  V30 8718 H 818.05 -0.0877666 1.58457 0
M  V30 8719 H 818.071 -2.47541 2.8897 0
M  V30 8720 H 817.583 -0.882255 3.77939 0
M  V30 8721 H 815.684 -2.89145 2.35002 0
M  V30 8722 H 815.797 -2.37361 4.16169 0
M  V30 8723 H 814.161 -1.34501 2.16291 0
M  V30 8724 H 814.944 -0.248098 3.42402 0
M  V30 8725 N 817.389 -1.46805 -0.573248 0
M  V30 8726 C 818.635 -1.5283 -1.33307 0
M  V30 8727 C 818.968 -0.183287 -1.93333 0
M  V30 8728 O 818.243 0.806354 -1.76998 0
M  V30 8729 C 818.526 -2.63414 -2.45531 0
M  V30 8730 C 818.379 -4.07478 -1.90478 0
M  V30 8731 C 819.698 -2.70014 -3.47535 0
M  V30 8732 H 816.817 -0.556371 -0.483343 0
M  V30 8733 H 819.459 -1.78787 -0.643066 0
M  V30 8734 H 817.609 -2.41412 -3.04389 0
M  V30 8735 H 819.281 -4.40795 -1.36004 0
M  V30 8736 H 817.524 -4.16511 -1.21248 0
M  V30 8737 H 818.195 -4.80598 -2.71531 0
M  V30 8738 H 820.671 -2.89817 -2.98572 0
M  V30 8739 H 819.547 -3.49192 -4.23504 0
M  V30 8740 H 819.808 -1.76436 -4.05367 0
M  V30 8741 N 818.867 0.818669 -1.34668 0
M  V30 8742 C 819.8 1.93516 -1.20941 0
M  V30 8743 C 820.778 1.62292 -0.100061 0
M  V30 8744 O 821.962 1.86614 -0.265983 0
M  V30 8745 C 819.089 3.27612 -0.859524 0
M  V30 8746 C 818.135 3.77794 -1.97923 0
M  V30 8747 S 818.968 3.97043 -3.59329 0
M  V30 8748 C 820.124 5.3406 -3.2639 0
M  V30 8749 H 820.357 2.04864 -2.15449 0
M  V30 8750 H 817.89 0.974716 -1.19744 0
M  V30 8751 H 819.848 4.05087 -0.664444 0
M  V30 8752 H 818.509 3.14028 0.0672835 0
M  V30 8753 H 817.702 4.74883 -1.68827 0
M  V30 8754 H 817.304 3.0728 -2.13202 0
M  V30 8755 H 819.596 6.17626 -2.78469 0
M  V30 8756 H 820.539 5.68143 -4.22634 0
M  V30 8757 H 820.947 4.99773 -2.62464 0
M  V30 8758 N 820.346 1.18468 1.03938 0
M  V30 8759 C 821.256 0.927889 2.1547 0
M  V30 8760 C 822.272 -0.108447 1.73662 0
M  V30 8761 O 823.448 0.0737636 2.01265 0
M  V30 8762 C 820.513 0.458494 3.43655 0
M  V30 8763 C 819.574 1.56295 3.99838 0
M  V30 8764 C 818.807 1.11586 5.21904 0
M  V30 8765 O 819.03 -0.0249057 5.70395 0
M  V30 8766 O 817.964 1.91412 5.70653 0
M  V30 8767 H 821.79 1.86116 2.39989 0
M  V30 8768 H 819.375 0.966607 1.13917 0
M  V30 8769 H 821.257 0.204861 4.20902 0
M  V30 8770 H 819.932 -0.446464 3.20606 0
M  V30 8771 H 818.839 1.87061 3.23974 0
M  V30 8772 H 820.172 2.44408 4.2723 0
M  V30 8773 N 821.824 -1.22873 0.986916 0
M  V30 8774 C 823.07 -1.91746 0.660401 0
M  V30 8775 C 823.403 -1.76738 -0.804812 0
M  V30 8776 O 822.678 -1.13246 -1.58131 0
M  V30 8777 C 822.961 -3.44156 1.05966 0
M  V30 8778 C 822.814 -3.68242 2.58298 0
M  V30 8779 C 824.133 -4.35874 0.60842 0
M  V30 8780 H 821.252 -0.696347 0.241391 0
M  V30 8781 H 823.894 -1.44867 1.22937 0
M  V30 8782 H 822.044 -3.84213 0.575534 0
M  V30 8783 H 823.716 -3.37626 3.14335 0
M  V30 8784 H 821.959 -3.12728 3.00638 0
M  V30 8785 H 822.63 -4.74956 2.81285 0
M  V30 8786 H 825.106 -4.03299 1.02417 0
M  V30 8787 H 823.982 -5.41201 0.916142 0
M  V30 8788 H 824.243 -4.39364 -0.491086 0
M  V30 8789 N 823.302 -0.75937 -1.38099 0
M  V30 8790 C 824.232 -0.151077 -2.33011 0
M  V30 8791 C 825.213 0.697099 -1.5516 0
M  V30 8792 O 826.398 0.637101 -1.83452 0
M  V30 8793 C 823.528 0.738423 -3.39359 0
M  V30 8794 C 822.482 -0.0074741 -4.27999 0
M  V30 8795 C 821.808 1.00066 -5.25253 0
M  V30 8796 C 823.108 -1.17926 -5.08813 0
M  V30 8797 H 824.802 -0.943933 -2.84131 0
M  V30 8798 H 822.348 -0.455362 -1.36611 0
M  V30 8799 H 824.301 1.17369 -4.04725 0
M  V30 8800 H 823.025 1.56366 -2.86735 0
M  V30 8801 H 821.684 -0.423379 -3.64147 0
M  V30 8802 H 821.332 1.82012 -4.68914 0
M  V30 8803 H 821.032 0.506199 -5.85416 0
M  V30 8804 H 822.556 1.43512 -5.93495 0
M  V30 8805 H 823.97 -0.821262 -5.67387 0
M  V30 8806 H 822.367 -1.60497 -5.78239 0
M  V30 8807 H 823.437 -1.98938 -4.42212 0
M  V30 8808 N 824.78 1.49157 -0.508906 0
M  V30 8809 C 826.191 1.86593 -0.0630975 0
M  V30 8810 C 826.542 1.42051 1.35337 0
M  V30 8811 O 825.667 0.801866 2.00995 0
M  V30 8812 C 826.262 3.38629 -0.107729 0
M  V30 8813 C 824.821 3.75336 0.282776 0
M  V30 8814 C 823.968 2.7317 -0.4768 0
M  V30 8815 H 826.919 1.41362 -0.72128 0
M  V30 8816 H 826.94 3.74271 0.685689 0
M  V30 8817 H 826.452 3.71017 -1.13876 0
M  V30 8818 H 824.553 3.48558 1.31675 0
M  V30 8819 H 824.666 4.79081 -0.0421728 0
M  V30 8820 H 823.03 2.54591 0.0743552 0
M  V30 8821 H 823.813 3.08403 -1.50807 0
M  V30 8822 N 826.258 0.243083 1.55714 0
M  V30 8823 C 827.488 -0.38641 2.02954 0
M  V30 8824 C 827.896 -1.52358 1.12177 0
M  V30 8825 O 827.239 -1.83255 0.127853 0
M  V30 8826 C 827.301 -0.959388 3.46462 0
M  V30 8827 C 826.965 0.0450546 4.56978 0
M  V30 8828 C 827.962 0.853224 5.12851 0
M  V30 8829 C 825.647 0.170041 5.02012 0
M  V30 8830 C 827.641 1.77288 6.12248 0
M  V30 8831 C 825.328 1.0932 6.01242 0
M  V30 8832 C 826.326 1.89315 6.56238 0
M  V30 8833 O 826.014 2.80075 7.53534 0
M  V30 8834 H 825.746 -0.0964333 0.669086 0
M  V30 8835 H 828.3 0.363399 2.0216 0
M  V30 8836 H 826.53 -1.75869 3.44394 0
M  V30 8837 H 828.219 -1.49856 3.77224 0
M  V30 8838 H 828.985 0.767229 4.78893 0
M  V30 8839 H 824.864 -0.442528 4.58871 0
M  V30 8840 H 828.408 2.39768 6.55101 0
M  V30 8841 H 824.305 1.18013 6.3462 0
M  V30 8842 H 825.073 2.74393 7.71136 0
M  V30 8843 N 827.736 -1.57571 -0.0300757 0
M  V30 8844 C 828.666 -2.0953 -1.03051 0
M  V30 8845 C 829.647 -0.99761 -1.37774 0
M  V30 8846 O 830.832 -1.27279 -1.46676 0
M  V30 8847 C 827.962 -2.57385 -2.33174 0
M  V30 8848 C 826.916 -3.71409 -2.12696 0
M  V30 8849 C 826.242 -4.05467 -3.4857 0
M  V30 8850 C 827.542 -4.99877 -1.51396 0
M  V30 8851 H 829.236 -2.93367 -0.597999 0
M  V30 8852 H 826.782 -1.41127 -0.286203 0
M  V30 8853 H 828.735 -2.92355 -3.03491 0
M  V30 8854 H 827.459 -1.70629 -2.78484 0
M  V30 8855 H 826.118 -3.36786 -1.44813 0
M  V30 8856 H 825.766 -3.15779 -3.91526 0
M  V30 8857 H 825.466 -4.82269 -3.35694 0
M  V30 8858 H 826.99 -4.4297 -4.2025 0
M  V30 8859 H 828.404 -5.3281 -2.11629 0
M  V30 8860 H 826.801 -5.81283 -1.49098 0
M  V30 8861 H 827.871 -4.82522 -0.479676 0
M  V30 8862 N 829.214 0.302327 -1.54673 0
M  V30 8863 C 830.439 1.06103 -1.78205 0
M  V30 8864 C 830.864 1.80204 -0.53926 0
M  V30 8865 O 830.222 1.73975 0.510142 0
M  V30 8866 C 830.27 2.01829 -2.98827 0
M  V30 8867 O 829.374 3.10108 -2.71858 0
M  V30 8868 H 828.715 0.30487 -0.589873 0
M  V30 8869 H 831.245 0.340153 -2.01753 0
M  V30 8870 H 831.255 2.44319 -3.2676 0
M  V30 8871 H 829.93 1.473 -3.88942 0
M  V30 8872 H 828.507 2.72142 -2.54937 0
M  V30 8873 N 830.692 1.47107 0.565454 0
M  V30 8874 C 832.108 1.32443 0.890566 0
M  V30 8875 C 832.308 0.308735 1.99121 0
M  V30 8876 O 831.364 -0.28265 2.50913 0
M  V30 8877 C 832.677 2.71548 1.2916 0
M  V30 8878 C 834.225 2.7977 1.40349 0
M  V30 8879 C 834.7 4.19497 1.83811 0
M  V30 8880 N 836.191 4.21998 1.90975 0
M  V30 8881 C 836.926 5.2702 2.25916 0
M  V30 8882 N 836.422 6.42353 2.59527 0
M  V30 8883 N 838.215 5.14393 2.26619 0
M  V30 8884 H 830.366 2.11786 -0.161328 0
M  V30 8885 H 832.629 0.947952 -0.00950631 0
M  V30 8886 H 832.335 3.47265 0.556753 0
M  V30 8887 H 832.209 3.02782 2.24951 0
M  V30 8888 H 834.596 2.0433 2.12916 0
M  V30 8889 H 834.677 2.522 0.427655 0
M  V30 8890 H 834.321 4.95439 1.11816 0
M  V30 8891 H 834.251 4.44486 2.82382 0
M  V30 8892 H 836.742 3.38791 1.6742 0
M  V30 8893 H 837.055 7.18252 2.85191 0
M  V30 8894 H 835.4 6.45687 2.57126 0
M  V30 8895 H 838.591 4.2332 1.99794 0
M  V30 8896 H 838.764 5.96349 2.5352 0
M  V30 8897 N 832.17 -0.811516 1.35101 0
M  V30 8898 C 833.586 -1.10634 1.15031 0
M  V30 8899 C 833.786 -2.01459 -0.0405379 0
M  V30 8900 O 832.842 -2.42235 -0.712635 0
M  V30 8901 C 834.155 -1.74207 2.45097 0
M  V30 8902 C 835.703 -1.8665 2.51258 0
M  V30 8903 C 836.178 -2.53638 3.81355 0
M  V30 8904 N 837.669 -2.61128 3.82579 0
M  V30 8905 C 838.404 -3.13717 4.79968 0
M  V30 8906 N 837.9 -3.66782 5.87744 0
M  V30 8907 N 839.693 -3.12224 4.67411 0
M  V30 8908 H 831.844 -0.207641 2.11383 0
M  V30 8909 H 834.107 -0.154697 0.935293 0
M  V30 8910 H 833.813 -1.14936 3.32389 0
M  V30 8911 H 833.687 -2.73958 2.59281 0
M  V30 8912 H 836.074 -2.45066 1.64398 0
M  V30 8913 H 836.155 -0.857678 2.40993 0
M  V30 8914 H 835.799 -1.95873 4.68611 0
M  V30 8915 H 835.729 -3.55047 3.88907 0
M  V30 8916 H 838.22 -2.23527 3.04703 0
M  V30 8917 H 838.533 -4.05194 6.58056 0
M  V30 8918 H 836.878 -3.64994 5.91443 0
M  V30 8919 H 840.069 -2.70042 3.82354 0
M  V30 8920 H 840.242 -3.52903 5.43474 0
M  V30 8921 N 833.648 -1.19017 -1.03309 0
M  V30 8922 C 834.611 -0.926076 -2.09658 0
M  V30 8923 C 835.611 0.0917077 -1.60538 0
M  V30 8924 O 836.801 -0.142574 -1.73616 0
M  V30 8925 C 833.933 -0.390958 -3.38651 0
M  V30 8926 H 835.126 -1.86923 -2.3452 0
M  V30 8927 H 832.679 -1.00325 -1.19853 0
M  V30 8928 H 833.414 0.558446 -3.19456 0
M  V30 8929 H 833.199 -1.12474 -3.75622 0
M  V30 8930 H 834.689 -0.225131 -4.16993 0
M  V30 8931 N 835.127 1.22348 -0.993418 0
M  V30 8932 C 836.057 2.26584 -0.564088 0
M  V30 8933 C 837.038 1.65102 0.409298 0
M  V30 8934 O 838.223 1.91872 0.299819 0
M  V30 8935 C 835.353 3.47087 0.121554 0
M  V30 8936 C 834.307 4.21009 -0.770429 0
M  V30 8937 C 833.633 5.34678 0.0481586 0
M  V30 8938 C 834.933 4.79636 -2.06752 0
M  V30 8939 H 836.627 2.62749 -1.43538 0
M  V30 8940 H 834.173 1.26303 -0.691628 0
M  V30 8941 H 836.126 4.19166 0.433303 0
M  V30 8942 H 834.85 3.1002 1.0274 0
M  V30 8943 H 833.509 3.50764 -1.06583 0
M  V30 8944 H 833.157 4.93852 0.954933 0
M  V30 8945 H 832.857 5.85061 -0.545641 0
M  V30 8946 H 834.381 6.09573 0.353991 0
M  V30 8947 H 835.795 5.43654 -1.81969 0
M  V30 8948 H 834.192 5.4036 -2.61019 0
M  V30 8949 H 835.262 3.99659 -2.74592 0
M  V30 8950 N 836.605 0.766683 1.37694 0
M  V30 8951 C 837.515 0.150158 2.34119 0
M  V30 8952 C 838.531 -0.685513 1.59927 0
M  V30 8953 O 839.707 -0.606616 1.92047 0
M  V30 8954 C 836.772 -0.722562 3.39087 0
M  V30 8955 C 835.833 0.128983 4.29106 0
M  V30 8956 C 835.066 -0.702178 5.29061 0
M  V30 8957 O 835.289 -1.93954 5.36412 0
M  V30 8958 O 834.223 -0.114056 6.01792 0
M  V30 8959 H 838.049 0.946829 2.88563 0
M  V30 8960 H 835.634 0.527765 1.39768 0
M  V30 8961 H 837.516 -1.22095 4.03325 0
M  V30 8962 H 836.191 -1.49751 2.86978 0
M  V30 8963 H 835.098 0.673612 3.67985 0
M  V30 8964 H 836.431 0.866892 4.84506 0
M  V30 8965 N 838.083 -1.48885 0.516809 0
M  V30 8966 C 839.031 -2.31066 -0.266656 0
M  V30 8967 C 840.025 -1.40393 -0.94795 0
M  V30 8968 O 841.231 -1.57366 -0.873836 0
M  V30 8969 H 837.606 -0.744654 -0.104858 0
M  V30 8970 H 839.577 -2.95045 0.446236 0
M  V30 8971 C 838.326 -3.22131 -1.3087 0
M  V30 8972 H 837.649 -3.91839 -0.793865 0
M  V30 8973 H 839.089 -3.82544 -1.82856 0
M  V30 8974 C 837.548 -2.42825 -2.33533 0
M  V30 8975 O 838.078 -2.14364 -3.39722 0
M  V30 8976 N 836.284 -2.04559 -2.06407 0
M  V30 8977 H 835.831 -2.27905 -1.20071 0
M  V30 8978 H 835.789 -1.51807 -2.75322 0
M  V30 8979 N 839.561 -0.251338 -1.55583 0
M  V30 8980 C 840.786 0.379136 -2.03905 0
M  V30 8981 C 841.211 1.50428 -1.12929 0
M  V30 8982 O 840.569 1.80882 -0.123114 0
M  V30 8983 C 840.617 0.86009 -3.50193 0
M  V30 8984 O 839.721 1.96932 -3.62342 0
M  V30 8985 H 839.062 0.0820183 -0.658915 0
M  V30 8986 H 841.592 -0.378692 -2.01065 0
M  V30 8987 H 841.602 1.16214 -3.91099 0
M  V30 8988 H 840.277 0.0367559 -4.15884 0
M  V30 8989 H 838.854 1.67163 -3.33333 0
M  V30 8990 N 841.039 1.57585 0.0217189 0
M  V30 8991 C 842.264 1.94267 0.726309 0
M  V30 8992 C 842.689 0.851904 1.67703 0
M  V30 8993 O 842.047 -0.191792 1.80283 0
M  V30 8994 C 842.095 3.30023 1.45318 0
M  V30 8995 O 841.199 3.22791 2.5667 0
M  V30 8996 H 840.54 0.634777 0.194818 0
M  V30 8997 H 843.07 2.04585 -0.0249985 0
M  V30 8998 H 843.08 3.65084 1.82147 0
M  V30 8999 H 841.755 4.08972 0.755962 0
M  V30 9000 H 840.332 2.99373 2.2233 0
M  V30 9001 N 842.517 -0.29412 1.54831 0
M  V30 9002 C 843.447 -1.36757 1.89261 0
M  V30 9003 C 844.428 -1.52564 0.752214 0
M  V30 9004 O 845.613 -1.65958 1.00855 0
M  V30 9005 C 842.743 -2.73066 2.14597 0
M  V30 9006 C 841.697 -2.72017 3.3044 0
M  V30 9007 C 841.023 -4.11679 3.4121 0
M  V30 9008 C 842.323 -2.33149 4.67375 0
M  V30 9009 H 844.017 -1.08191 2.79169 0
M  V30 9010 H 841.563 -0.519014 1.34321 0
M  V30 9011 H 843.516 -3.48255 2.37269 0
M  V30 9012 H 842.24 -3.03172 1.21467 0
M  V30 9013 H 840.899 -1.99285 3.07703 0
M  V30 9014 H 840.547 -4.38973 2.45584 0
M  V30 9015 H 840.247 -4.11877 4.19084 0
M  V30 9016 H 841.771 -4.88637 3.6615 0
M  V30 9017 H 843.185 -2.98054 4.89731 0
M  V30 9018 H 841.582 -2.44546 5.48012 0
M  V30 9019 H 842.652 -1.28275 4.67626 0
M  V30 9020 N 843.995 -1.47404 -0.557645 0
M  V30 9021 C 844.928 -1.54399 -1.68036 0
M  V30 9022 C 845.906 -0.396175 -1.577 0
M  V30 9023 O 847.09 -0.603911 -1.78564 0
M  V30 9024 C 844.217 -1.44611 -3.06277 0
M  V30 9025 C 843.263 -2.63889 -3.35059 0
M  V30 9026 S 844.096 -4.26086 -3.24362 0
M  V30 9027 C 845.252 -4.1885 -4.65097 0
M  V30 9028 H 845.485 -2.49384 -1.61849 0
M  V30 9029 H 843.018 -1.35597 -0.738429 0
M  V30 9030 H 844.976 -1.39651 -3.86015 0
M  V30 9031 H 843.637 -0.510114 -3.0993 0
M  V30 9032 H 842.83 -2.53103 -4.35838 0
M  V30 9033 H 842.432 -2.65969 -2.62938 0
M  V30 9034 H 844.724 -3.87077 -5.56037 0
M  V30 9035 H 845.667 -5.19714 -4.8094 0
M  V30 9036 H 846.075 -3.49717 -4.43123 0
M  V30 9037 N 845.473 0.80434 -1.35529 0
M  V30 9038 C 846.42 1.91629 -1.28635 0
M  V30 9039 C 847.39 1.65348 -0.157862 0
M  V30 9040 O 848.575 1.87711 -0.341934 0
M  V30 9041 C 845.715 3.28207 -1.0665 0
M  V30 9042 C 844.828 3.66659 -2.28441 0
M  V30 9043 C 843.963 4.92279 -1.99588 0
M  V30 9044 C 843.002 5.23365 -3.1742 0
M  V30 9045 N 842.139 6.40165 -2.88328 0
M  V30 9046 H 846.979 1.96858 -2.23721 0
M  V30 9047 H 844.516 0.962871 -1.11208 0
M  V30 9048 H 846.474 4.06945 -0.919343 0
M  V30 9049 H 845.104 3.22441 -0.152253 0
M  V30 9050 H 844.156 2.83164 -2.54013 0
M  V30 9051 H 845.468 3.8559 -3.1642 0
M  V30 9052 H 844.622 5.78847 -1.81715 0
M  V30 9053 H 843.361 4.75387 -1.08896 0
M  V30 9054 H 842.366 4.35285 -3.35867 0
M  V30 9055 H 843.591 5.42185 -4.08916 0
M  V30 9056 H 841.537 6.24694 -2.00233 0
M  V30 9057 H 841.454 6.59357 -3.69843 0
M  V30 9058 H 842.722 7.29755 -2.74002 0
M  V30 9059 N 846.951 1.19563 1.02676 0
M  V30 9060 C 848.199 0.997593 1.75763 0
M  V30 9061 C 848.52 -0.47253 1.89188 0
M  V30 9062 O 847.79 -1.34214 1.42701 0
M  V30 9063 H 846.37 0.366128 0.651122 0
M  V30 9064 H 849.032 1.50495 1.23844 0
M  V30 9065 H 848.128 1.44741 2.76508 0
M  V30 9066 N 848.429 -1.21819 0.999893 0
M  V30 9067 C 849.657 -1.94758 0.698359 0
M  V30 9068 C 850.072 -1.73771 -0.738183 0
M  V30 9069 O 849.429 -1.04113 -1.49889 0
M  V30 9070 C 849.48 -3.47292 1.00353 0
M  V30 9071 O 849.201 -3.67579 2.38363 0
M  V30 9072 C 850.702 -4.37403 0.72068 0
M  V30 9073 H 847.922 -0.619512 0.257771 0
M  V30 9074 H 850.466 -1.54778 1.33656 0
M  V30 9075 H 848.621 -3.85213 0.411018 0
M  V30 9076 H 849.035 -4.61719 2.48829 0
M  V30 9077 H 850.509 -5.43151 0.984422 0
M  V30 9078 H 850.986 -4.3784 -0.345309 0
M  V30 9079 H 851.592 -4.05119 1.29456 0
M  V30 9080 N 849.908 -0.773975 -1.37286 0
M  V30 9081 C 850.858 -0.135245 -2.27599 0
M  V30 9082 C 851.842 0.671691 -1.46209 0
M  V30 9083 O 853.034 0.534299 -1.68743 0
M  V30 9084 C 850.163 0.741298 -3.35201 0
M  V30 9085 C 849.249 -0.0735896 -4.24036 0
M  V30 9086 N 849.64 -1.12035 -4.93236 0
M  V30 9087 C 847.938 0.150038 -4.45748 0
M  V30 9088 C 848.639 -1.61512 -5.58828 0
M  V30 9089 N 847.615 -0.926922 -5.35639 0
M  V30 9090 H 851.417 -0.936646 -2.78575 0
M  V30 9091 H 848.931 -0.611944 -1.50429 0
M  V30 9092 H 850.928 1.21468 -3.98812 0
M  V30 9093 H 849.588 1.54142 -2.8578 0
M  V30 9094 H 850.599 -1.50253 -4.95625 0
M  V30 9095 H 847.276 0.921891 -4.07195 0
M  V30 9096 H 848.666 -2.48818 -6.24131 0
M  V30 9097 N 851.386 1.48609 -0.524698 0
M  V30 9098 C 852.802 1.58557 -0.182199 0
M  V30 9099 C 853.002 1.52732 1.31435 0
M  V30 9100 O 852.058 1.41362 2.0922 0
M  V30 9101 C 853.371 2.90406 -0.78004 0
M  V30 9102 C 854.919 3.03924 -0.748293 0
M  V30 9103 C 855.394 4.38427 -1.32462 0
M  V30 9104 N 856.885 4.4498 -1.28635 0
M  V30 9105 C 857.62 5.47551 -1.70223 0
M  V30 9106 N 857.116 6.57103 -2.19515 0
M  V30 9107 N 858.909 5.38402 -1.61493 0
M  V30 9108 H 851.06 1.50638 -1.4974 0
M  V30 9109 H 853.323 0.714952 -0.622533 0
M  V30 9110 H 853.029 3.00308 -1.83052 0
M  V30 9111 H 852.903 3.76343 -0.254075 0
M  V30 9112 H 855.29 2.93638 0.293407 0
M  V30 9113 H 855.371 2.19611 -1.31167 0
M  V30 9114 H 855.015 4.49466 -2.36522 0
M  V30 9115 H 854.945 5.21418 -0.736967 0
M  V30 9116 H 857.436 3.66393 -0.92545 0
M  V30 9117 H 857.749 7.31499 -2.49257 0
M  V30 9118 H 856.094 6.58081 -2.23506 0
M  V30 9119 H 859.285 4.5171 -1.22785 0
M  V30 9120 H 859.458 6.18208 -1.94225 0
M  V30 9121 N 852.864 0.259585 1.55447 0
M  V30 9122 C 853.774 -0.645026 2.25558 0
M  V30 9123 C 854.79 -1.18291 1.27606 0
M  V30 9124 O 855.966 -1.21649 1.6051 0
M  V30 9125 C 853.031 -1.81964 2.9511 0
M  V30 9126 C 852.092 -1.31997 4.08504 0
M  V30 9127 C 851.325 -2.43861 4.74729 0
M  V30 9128 O 851.548 -3.62876 4.40088 0
M  V30 9129 O 850.482 -2.12898 5.6299 0
M  V30 9130 H 854.308 -0.0775399 3.03601 0
M  V30 9131 H 851.893 0.0275859 1.49375 0
M  V30 9132 H 853.775 -2.50485 3.38873 0
M  V30 9133 H 852.45 -2.37451 2.19997 0
M  V30 9134 H 851.357 -0.601676 3.6923 0
M  V30 9135 H 852.69 -0.811045 4.85472 0
M  V30 9136 N 854.342 -1.57594 -0.0133615 0
M  V30 9137 C 855.758 -1.5527 -0.369255 0
M  V30 9138 C 855.958 -0.987751 -1.7563 0
M  V30 9139 O 855.014 -0.615683 -2.44879 0
M  V30 9140 C 856.327 -2.99602 -0.25672 0
M  V30 9141 C 857.875 -3.11227 -0.332647 0
M  V30 9142 C 858.35 -4.57321 -0.249387 0
M  V30 9143 N 859.841 -4.62177 -0.3077 0
M  V30 9144 C 860.576 -5.72781 -0.26641 0
M  V30 9145 N 860.072 -6.92575 -0.176494 0
M  V30 9146 N 861.865 -5.61204 -0.317295 0
M  V30 9147 H 854.016 -1.92662 0.894154 0
M  V30 9148 H 856.279 -0.884352 0.341505 0
M  V30 9149 H 855.985 -3.44723 0.697072 0
M  V30 9150 H 855.859 -3.6246 -1.04415 0
M  V30 9151 H 858.246 -2.66045 -1.27688 0
M  V30 9152 H 858.327 -2.51171 0.484412 0
M  V30 9153 H 857.971 -5.03174 0.691242 0
M  V30 9154 H 857.901 -5.15306 -1.08476 0
M  V30 9155 H 860.392 -3.75994 -0.379069 0
M  V30 9156 H 860.705 -7.72653 -0.150518 0
M  V30 9157 H 859.05 -6.94854 -0.142314 0
M  V30 9158 H 862.241 -4.66509 -0.385643 0
M  V30 9159 H 862.414 -6.47388 -0.28165 0
M  V30 9160 N 855.82 0.285905 -1.54985 0
M  V30 9161 C 856.752 1.37505 -1.83371 0
M  V30 9162 C 857.765 1.46138 -0.717454 0
M  V30 9163 O 858.954 1.48186 -0.995142 0
M  V30 9164 C 856.054 2.7575 -1.97016 0
M  V30 9165 C 855.227 2.89866 -3.27561 0
M  V30 9166 C 854.286 4.08704 -3.31433 0
M  V30 9167 O 853.312 4.00073 -4.04883 0
M  V30 9168 N 854.514 5.20062 -2.57907 0
M  V30 9169 H 857.279 1.13505 -2.77375 0
M  V30 9170 H 854.84 0.476006 -1.54744 0
M  V30 9171 H 856.832 3.5352 -1.96991 0
M  V30 9172 H 855.402 2.9263 -1.09938 0
M  V30 9173 H 854.622 1.99085 -3.40234 0
M  V30 9174 H 855.91 2.96219 -4.13681 0
M  V30 9175 H 855.308 5.29958 -1.97891 0
M  V30 9176 H 853.865 5.96111 -2.63619 0
M  V30 9177 N 857.298 1.47698 0.54982 0
M  V30 9178 C 858.228 1.63622 1.66583 0
M  V30 9179 C 859.209 0.485477 1.63025 0
M  V30 9180 O 860.394 0.715692 1.80531 0
M  V30 9181 C 857.524 1.65721 3.05211 0
M  V30 9182 C 856.478 2.80097 3.2362 0
M  V30 9183 C 855.804 2.67272 4.63109 0
M  V30 9184 C 857.104 4.21612 3.08286 0
M  V30 9185 H 858.798 2.57049 1.53512 0
M  V30 9186 H 856.344 1.23705 0.737099 0
M  V30 9187 H 858.297 1.75451 3.83138 0
M  V30 9188 H 857.021 0.688593 3.19258 0
M  V30 9189 H 855.68 2.69889 2.48104 0
M  V30 9190 H 855.328 1.68422 4.73965 0
M  V30 9191 H 855.028 3.44008 4.76374 0
M  V30 9192 H 856.552 2.78942 5.43161 0
M  V30 9193 H 857.966 4.32758 3.76024 0
M  V30 9194 H 856.363 4.99193 3.33057 0
M  V30 9195 H 857.433 4.39462 2.04942 0
M  V30 9196 N 858.776 -0.797141 1.35954 0
M  V30 9197 C 859.706 -1.92387 1.32323 0
M  V30 9198 C 860.687 -1.68967 0.196007 0
M  V30 9199 O 861.872 -1.90193 0.39245 0
M  V30 9200 C 859.002 -3.29286 1.10398 0
M  V30 9201 C 857.956 -3.67212 2.19862 0
M  V30 9202 C 857.282 -5.02377 1.8309 0
M  V30 9203 C 858.582 -3.76602 3.61896 0
M  V30 9204 H 860.276 -1.95683 2.26602 0
M  V30 9205 H 857.822 -0.94007 1.09081 0
M  V30 9206 H 859.775 -4.07721 1.06495 0
M  V30 9207 H 858.499 -3.26358 0.125668 0
M  V30 9208 H 857.158 -2.91069 2.22878 0
M  V30 9209 H 856.806 -4.95961 0.838527 0
M  V30 9210 H 856.506 -5.28722 2.56372 0
M  V30 9211 H 858.03 -5.8324 1.80729 0
M  V30 9212 H 859.444 -4.45246 3.6115 0
M  V30 9213 H 857.841 -4.14425 4.34018 0
M  V30 9214 H 858.911 -2.77906 3.97361 0
M  V30 9215 N 860.254 -1.20106 -1.0204 0
M  V30 9216 C 861.5 -1.02042 -1.75951 0
M  V30 9217 C 861.855 0.443229 -1.87225 0
M  V30 9218 O 861.148 1.32477 -1.38421 0
M  V30 9219 C 861.342 -1.63308 -3.17908 0
M  V30 9220 C 861.171 -3.15478 -3.20474 0
M  V30 9221 C 859.941 -3.84432 -3.27933 0
M  V30 9222 C 862.139 -4.12747 -3.06829 0
M  V30 9223 N 860.121 -5.23925 -3.19963 0
M  V30 9224 C 861.492 -5.38892 -3.06586 0
M  V30 9225 C 863.547 -4.03996 -2.91018 0
M  V30 9226 C 862.25 -6.57296 -2.92154 0
M  V30 9227 C 864.276 -5.22019 -2.77938 0
M  V30 9228 C 863.638 -6.47067 -2.78358 0
M  V30 9229 H 859.737 -0.427602 -0.654737 0
M  V30 9230 H 862.321 -1.52216 -1.21402 0
M  V30 9231 H 860.492 -1.15723 -3.7076 0
M  V30 9232 H 862.224 -1.38597 -3.80227 0
M  V30 9233 H 858.979 -3.35269 -3.34502 0
M  V30 9234 H 859.403 -5.9694 -3.19362 0
M  V30 9235 H 864.045 -3.0813 -2.8951 0
M  V30 9236 H 861.763 -7.5334 -2.92412 0
M  V30 9237 H 865.349 -5.17057 -2.66728 0
M  V30 9238 H 864.229 -7.36857 -2.6835 0
M  V30 9239 N 861.732 1.21287 -1.00634 0
M  V30 9240 C 862.662 2.25973 -0.588089 0
M  V30 9241 C 863.643 1.65527 0.391764 0
M  V30 9242 O 864.828 1.92179 0.279452 0
M  V30 9243 C 861.958 3.47197 0.0847336 0
M  V30 9244 C 860.912 4.20168 -0.815039 0
M  V30 9245 C 860.238 5.34699 -0.00855393 0
M  V30 9246 C 861.538 4.77416 -2.11828 0
M  V30 9247 H 863.232 2.61212 -1.46317 0
M  V30 9248 H 860.778 1.25563 -0.704985 0
M  V30 9249 H 862.731 4.19602 0.388821 0
M  V30 9250 H 861.455 3.11092 0.994456 0
M  V30 9251 H 860.114 3.49614 -1.10297 0
M  V30 9252 H 859.762 4.94837 0.902499 0
M  V30 9253 H 859.462 5.84449 -0.607664 0
M  V30 9254 H 860.986 6.09914 0.289317 0
M  V30 9255 H 862.4 5.41694 -1.87725 0
M  V30 9256 H 860.797 5.37561 -2.66736 0
M  V30 9257 H 861.867 3.96724 -2.78816 0
M  V30 9258 N 863.21 0.781244 1.36873 0
M  V30 9259 C 864.12 0.174981 2.33947 0
M  V30 9260 C 865.136 -0.668512 1.60645 0
M  V30 9261 O 866.312 -0.586213 1.9268 0
M  V30 9262 C 863.377 -0.686557 3.39834 0
M  V30 9263 C 862.438 0.174489 4.28945 0
M  V30 9264 C 861.671 -0.646024 5.29776 0
M  V30 9265 O 861.894 -1.88254 5.38439 0
M  V30 9266 O 860.828 -0.0502214 6.01879 0
M  V30 9267 H 864.654 0.977382 2.87543 0
M  V30 9268 H 862.239 0.542559 1.392 0
M  V30 9269 H 864.121 -1.1781 4.04597 0
M  V30 9270 H 862.796 -1.46699 2.8855 0
M  V30 9271 H 861.703 0.712604 3.6725 0
M  V30 9272 H 863.036 0.918232 4.83559 0
M  V30 9273 N 864.689 -1.48329 0.532571 0
M  V30 9274 C 865.619 -2.32485 -0.217511 0
M  V30 9275 C 866.6 -1.42255 -0.932598 0
M  V30 9276 O 867.785 -1.7114 -0.917873 0
M  V30 9277 C 864.915 -3.23509 -1.26329 0
M  V30 9278 C 863.869 -4.22784 -0.666191 0
M  V30 9279 C 863.195 -5.0296 -1.81482 0
M  V30 9280 C 864.495 -5.21031 0.363813 0
M  V30 9281 H 866.189 -2.95445 0.485014 0
M  V30 9282 H 863.735 -1.42075 0.234694 0
M  V30 9283 H 865.688 -3.81211 -1.79601 0
M  V30 9284 H 864.412 -2.58554 -1.99543 0
M  V30 9285 H 863.071 -3.66272 -0.15498 0
M  V30 9286 H 862.719 -4.34427 -2.5354 0
M  V30 9287 H 862.419 -5.70154 -1.4212 0
M  V30 9288 H 863.943 -5.63514 -2.35126 0
M  V30 9289 H 865.357 -5.73241 -0.0819079 0
M  V30 9290 H 863.754 -5.96292 0.674956 0
M  V30 9291 H 864.824 -4.6801 1.26865 0
M  V30 9292 N 866.167 -0.267825 -1.55308 0
M  V30 9293 C 867.097 0.616585 -2.25212 0
M  V30 9294 C 868.078 1.16472 -1.23969 0
M  V30 9295 O 869.263 1.20021 -1.52672 0
M  V30 9296 C 866.393 1.80412 -2.96764 0
M  V30 9297 C 865.347 1.38784 -4.04874 0
M  V30 9298 C 864.673 2.65789 -4.63961 0
M  V30 9299 C 865.973 0.543415 -5.19465 0
M  V30 9300 H 867.667 0.0336257 -2.99381 0
M  V30 9301 H 865.213 0.0147328 -1.43992 0
M  V30 9302 H 867.166 2.42866 -3.44375 0
M  V30 9303 H 865.89 2.4128 -2.20118 0
M  V30 9304 H 864.549 0.786541 -3.58063 0
M  V30 9305 H 864.197 3.24899 -3.83992 0
M  V30 9306 H 863.897 2.38651 -5.36954 0
M  V30 9307 H 865.421 3.29104 -5.14318 0
M  V30 9308 H 866.835 1.07277 -5.63174 0
M  V30 9309 H 865.232 0.367219 -5.98975 0
M  V30 9310 H 866.302 -0.439534 -4.82904 0
M  V30 9311 N 867.645 1.57599 0.00500368 0
M  V30 9312 C 869.061 1.55463 0.361015 0
M  V30 9313 C 869.261 0.997051 1.75103 0
M  V30 9314 O 868.317 0.628661 2.44549 0
M  V30 9315 C 869.63 2.99734 0.240828 0
M  V30 9316 C 871.178 3.11399 0.316138 0
M  V30 9317 C 871.653 4.57446 0.22513 0
M  V30 9318 N 873.144 4.62334 0.283186 0
M  V30 9319 C 873.879 5.72914 0.23603 0
M  V30 9320 N 873.375 6.92659 0.139762 0
M  V30 9321 N 875.168 5.61364 0.287529 0
M  V30 9322 H 867.319 1.92185 -0.904359 0
M  V30 9323 H 869.582 0.882529 -0.34619 0
M  V30 9324 H 869.288 3.44348 -0.715343 0
M  V30 9325 H 869.162 3.63009 1.02491 0
M  V30 9326 H 871.549 2.66718 1.26275 0
M  V30 9327 H 871.63 2.50911 -0.497725 0
M  V30 9328 H 871.274 5.02801 -0.717917 0
M  V30 9329 H 871.204 5.15874 1.05742 0
M  V30 9330 H 873.695 3.7619 0.359123 0
M  V30 9331 H 874.008 7.72722 0.10954 0
M  V30 9332 H 872.353 6.9492 0.105462 0
M  V30 9333 H 875.544 4.66707 0.360897 0
M  V30 9334 H 875.717 6.47528 0.247313 0
M  V30 9335 N 869.123 -0.277682 1.55134 0
M  V30 9336 C 870.539 -0.624625 1.46869 0
M  V30 9337 C 870.739 -1.89717 0.678958 0
M  V30 9338 O 869.795 -2.51739 0.195939 0
M  V30 9339 C 871.108 -0.755937 2.91043 0
M  V30 9340 C 872.656 -0.850299 3.01229 0
M  V30 9341 C 873.131 -1.01343 4.46647 0
M  V30 9342 N 874.622 -1.07906 4.50456 0
M  V30 9343 C 875.357 -1.224 5.60184 0
M  V30 9344 N 874.853 -1.33642 6.79788 0
M  V30 9345 N 876.646 -1.25473 5.47917 0
M  V30 9346 H 868.797 0.558102 2.04937 0
M  V30 9347 H 871.06 0.188228 0.929125 0
M  V30 9348 H 870.766 0.108593 3.51532 0
M  V30 9349 H 870.64 -1.6377 3.39793 0
M  V30 9350 H 873.027 -1.7053 2.40839 0
M  V30 9351 H 873.108 0.0559681 2.55739 0
M  V30 9352 H 872.752 -0.163102 5.07638 0
M  V30 9353 H 872.682 -1.93427 4.89789 0
M  V30 9354 H 875.173 -1.00477 3.64298 0
M  V30 9355 H 875.486 -1.44522 7.59166 0
M  V30 9356 H 873.831 -1.30655 6.82608 0
M  V30 9357 H 877.022 -1.16317 4.53418 0
M  V30 9358 H 877.195 -1.36424 6.33476 0
M  V30 9359 N 870.601 -1.47988 -0.541979 0
M  V30 9360 C 871.531 -1.64503 -1.65713 0
M  V30 9361 C 872.512 -0.494116 -1.62765 0
M  V30 9362 O 873.697 -0.725256 -1.80149 0
M  V30 9363 C 870.827 -1.67337 -3.04328 0
M  V30 9364 C 869.781 -2.81809 -3.2213 0
M  V30 9365 C 869.107 -2.69724 -4.61685 0
M  V30 9366 C 870.407 -4.23241 -3.06046 0
M  V30 9367 H 872.101 -2.5786 -1.52147 0
M  V30 9368 H 869.647 -1.24094 -0.730529 0
M  V30 9369 H 871.6 -1.77481 -3.82202 0
M  V30 9370 H 870.324 -0.705514 -3.18889 0
M  V30 9371 H 868.983 -2.71201 -2.46669 0
M  V30 9372 H 868.631 -1.70934 -4.73065 0
M  V30 9373 H 868.331 -3.4653 -4.74543 0
M  V30 9374 H 869.855 -2.81818 -5.41674 0
M  V30 9375 H 871.269 -4.34746 -3.73723 0
M  V30 9376 H 869.666 -5.00952 -3.30405 0
M  V30 9377 H 870.736 -4.40543 -2.02609 0
M  V30 9378 N 872.079 0.78992 -1.36375 0
M  V30 9379 C 873.495 1.0879 -1.16777 0
M  V30 9380 C 873.695 2.01498 0.00848236 0
M  V30 9381 O 872.751 2.43338 0.674007 0
M  V30 9382 C 874.064 1.70285 -2.47837 0
M  V30 9383 C 875.612 1.82629 -2.54196 0
M  V30 9384 C 876.087 2.47539 -3.85342 0
M  V30 9385 N 877.578 2.55008 -3.86685 0
M  V30 9386 C 878.313 3.06041 -4.84898 0
M  V30 9387 N 877.809 3.57385 -5.93505 0
M  V30 9388 N 879.602 3.04748 -4.72319 0
M  V30 9389 H 871.753 0.173985 -2.11686 0
M  V30 9390 H 874.016 0.139798 -0.937636 0
M  V30 9391 H 873.722 1.09633 -3.34176 0
M  V30 9392 H 873.596 2.69799 -2.63607 0
M  V30 9393 H 875.983 2.42419 -1.68276 0
M  V30 9394 H 876.064 0.81923 -2.42327 0
M  V30 9395 H 875.708 1.88393 -4.71668 0
M  V30 9396 H 875.638 3.48815 -3.94507 0
M  V30 9397 H 878.129 2.18651 -3.08221 0
M  V30 9398 H 878.442 3.94674 -6.64419 0
M  V30 9399 H 876.787 3.55538 -5.97175 0
M  V30 9400 H 879.978 2.63925 -3.86602 0
M  V30 9401 H 880.151 3.44212 -5.49019 0
M  V30 9402 N 873.557 1.20646 1.01402 0
M  V30 9403 C 874.785 1.04389 1.78635 0
M  V30 9404 C 875.2 -0.406771 1.84366 0
M  V30 9405 O 874.557 -1.28239 1.2985 0
M  V30 9406 C 874.608 1.62378 3.22979 0
M  V30 9407 O 874.329 3.01768 3.17597 0
M  V30 9408 C 875.83 1.5111 4.1675 0
M  V30 9409 H 873.05 0.367077 0.56169 0
M  V30 9410 H 875.594 1.59789 1.27624 0
M  V30 9411 H 873.749 1.11092 3.7113 0
M  V30 9412 H 874.163 3.29331 4.08217 0
M  V30 9413 H 875.637 1.96441 5.15863 0
M  V30 9414 H 876.114 0.464011 4.36742 0
M  V30 9415 H 876.72 2.01599 3.74483 0
M  V30 9416 N 875.035 -1.20752 1.01276 0
M  V30 9417 C 876.283 -1.89645 0.698505 0
M  V30 9418 C 876.604 -1.78986 -0.773883 0
M  V30 9419 O 875.874 -1.18977 -1.55632 0
M  V30 9420 H 874.454 -0.701992 0.255375 0
M  V30 9421 H 877.116 -1.46668 1.28353 0
M  V30 9422 H 876.212 -2.96364 0.978512 0
M  V30 9423 N 876.513 -0.788492 -1.36457 0
M  V30 9424 C 877.461 -0.174192 -2.31947 0
M  V30 9425 C 878.455 0.665974 -1.5576 0
M  V30 9426 O 879.661 0.561161 -1.71029 0
M  V30 9427 H 876.036 -0.0375538 -0.751062 0
M  V30 9428 H 878.007 -0.995011 -2.81322 0
M  V30 9429 C 876.756 0.677276 -3.4104 0
M  V30 9430 H 876.079 0.0401418 -3.9978 0
M  V30 9431 H 877.519 1.07379 -4.10178 0
M  V30 9432 C 875.978 1.83512 -2.82533 0
M  V30 9433 O 876.508 2.93164 -2.74623 0
M  V30 9434 N 874.714 1.64095 -2.39836 0
M  V30 9435 H 874.261 0.749046 -2.46469 0
M  V30 9436 H 874.219 2.41726 -2.01037 0
M  V30 9437 N 877.991 1.48044 -0.54043 0
M  V30 9438 C 878.921 2.32597 0.205178 0
M  V30 9439 C 879.902 1.42748 0.925041 0
M  V30 9440 O 881.087 1.71624 0.908784 0
M  V30 9441 C 878.217 3.24175 1.24612 0
M  V30 9442 C 877.171 4.23131 0.64376 0
M  V30 9443 C 876.497 5.03915 1.78812 0
M  V30 9444 C 877.797 5.20831 -0.39144 0
M  V30 9445 H 879.491 2.95184 -0.500676 0
M  V30 9446 H 877.037 1.41948 -0.242225 0
M  V30 9447 H 878.99 3.82158 1.77576 0
M  V30 9448 H 877.714 2.59608 1.98169 0
M  V30 9449 H 876.373 3.66349 0.135554 0
M  V30 9450 H 876.021 4.35765 2.51232 0
M  V30 9451 H 875.721 5.709 1.39094 0
M  V30 9452 H 877.245 5.64753 2.32134 0
M  V30 9453 H 878.659 5.73277 0.0515064 0
M  V30 9454 H 877.056 5.95926 -0.706569 0
M  V30 9455 H 878.126 4.6733 -1.29345 0
M  V30 9456 N 879.47 0.276058 1.55163 0
M  V30 9457 C 880.717 -0.340455 1.99618 0
M  V30 9458 C 881.045 -1.5579 1.16446 0
M  V30 9459 O 880.3 -1.94433 0.222359 0
M  V30 9460 C 880.599 -0.765744 3.491 0
M  V30 9461 C 880.265 0.347174 4.49561 0
M  V30 9462 C 878.927 0.65276 4.76752 0
M  V30 9463 C 881.279 1.09705 5.09523 0
M  V30 9464 C 878.607 1.71179 5.61173 0
M  V30 9465 C 880.959 2.14581 5.95095 0
M  V30 9466 C 879.623 2.45773 6.20606 0
M  V30 9467 H 878.893 -0.124581 0.730452 0
M  V30 9468 H 881.54 0.389966 1.87487 0
M  V30 9469 H 879.845 -1.57585 3.58712 0
M  V30 9470 H 881.542 -1.25352 3.80904 0
M  V30 9471 H 878.132 0.0988779 4.28486 0
M  V30 9472 H 882.316 0.874223 4.8854 0
M  V30 9473 H 877.572 1.95846 5.79184 0
M  V30 9474 H 881.746 2.7316 6.40591 0
M  V30 9475 H 879.373 3.27969 6.85813 0
M  V30 9476 N 880.948 -1.576 0.00335426 0
M  V30 9477 C 881.898 -2.05116 -0.995562 0
M  V30 9478 C 882.882 -0.946535 -1.30113 0
M  V30 9479 O 884.074 -1.21028 -1.29156 0
M  V30 9480 C 881.203 -2.56077 -2.28648 0
M  V30 9481 C 880.289 -3.73422 -2.0104 0
M  V30 9482 N 880.68 -4.84986 -1.43603 0
M  V30 9483 C 878.978 -3.81416 -2.31166 0
M  V30 9484 C 879.679 -5.66399 -1.32542 0
M  V30 9485 N 878.655 -5.12505 -1.81218 0
M  V30 9486 H 882.457 -2.88783 -0.546025 0
M  V30 9487 H 879.971 -1.61135 -0.202265 0
M  V30 9488 H 881.968 -2.88395 -3.01055 0
M  V30 9489 H 880.628 -1.73829 -2.74251 0
M  V30 9490 H 881.639 -5.05768 -1.11439 0
M  V30 9491 H 878.316 -3.1003 -2.7962 0
M  V30 9492 H 879.706 -6.66066 -0.88348 0
M  V30 9493 N 882.426 0.269451 -1.5528 0
M  V30 9494 C 883.842 0.616827 -1.47199 0
M  V30 9495 C 884.042 1.89354 -0.68901 0
M  V30 9496 O 883.098 2.51631 -0.209287 0
M  V30 9497 C 884.411 0.740492 -2.9144 0
M  V30 9498 C 885.959 0.834312 -3.01676 0
M  V30 9499 C 886.434 0.989725 -4.47178 0
M  V30 9500 N 887.925 1.05516 -4.51022 0
M  V30 9501 C 888.66 1.19427 -5.60825 0
M  V30 9502 N 888.156 1.30035 -6.80487 0
M  V30 9503 N 889.949 1.22566 -5.48575 0
M  V30 9504 H 882.1 -0.568962 -2.04638 0
M  V30 9505 H 884.363 -0.193153 -0.928114 0
M  V30 9506 H 884.069 -0.127234 -3.5147 0
M  V30 9507 H 883.943 1.61965 -3.40657 0
M  V30 9508 H 886.33 1.6925 -2.4174 0
M  V30 9509 H 886.411 -0.0695298 -2.55705 0
M  V30 9510 H 886.055 0.136179 -5.07717 0
M  V30 9511 H 885.985 1.90827 -4.90808 0
M  V30 9512 H 888.476 0.985434 -3.64825 0
M  V30 9513 H 888.789 1.40494 -7.59922 0
M  V30 9514 H 887.134 1.27033 -6.83292 0
M  V30 9515 H 890.325 1.13911 -4.54029 0
M  V30 9516 H 890.498 1.33063 -6.34191 0
M  V30 9517 N 883.904 1.48273 0.534124 0
M  V30 9518 C 885.315 1.49667 1.1161 0
M  V30 9519 C 885.666 0.264139 1.94414 0
M  V30 9520 O 884.791 -0.629084 2.07054 0
M  V30 9521 C 885.386 2.71191 2.03079 0
M  V30 9522 C 883.945 2.7547 2.56502 0
M  V30 9523 C 883.092 2.43119 1.33373 0
M  V30 9524 H 886.043 1.55449 0.319578 0
M  V30 9525 H 886.064 2.49473 2.87304 0
M  V30 9526 H 885.576 3.60879 1.42785 0
M  V30 9527 H 883.677 1.89979 3.20529 0
M  V30 9528 H 883.79 3.76787 2.95919 0
M  V30 9529 H 882.154 1.94187 1.64813 0
M  V30 9530 H 882.937 3.35044 0.748375 0
M  V30 9531 N 885.382 -0.782676 1.36792 0
M  V30 9532 C 886.345 -1.8772 1.31507 0
M  V30 9533 C 887.345 -1.59269 0.221349 0
M  V30 9534 O 888.535 -1.67555 0.476544 0
M  V30 9535 C 885.667 -3.24641 1.04025 0
M  V30 9536 H 886.86 -1.9382 2.28853 0
M  V30 9537 H 884.413 -0.981226 1.21662 0
M  V30 9538 H 885.148 -3.24221 0.0716439 0
M  V30 9539 H 884.933 -3.46681 1.8318 0
M  V30 9540 H 886.423 -4.04711 1.02949 0
M  V30 9541 O 886.899 -1.32567 -0.922407 0
M  V30 9542 H 887.59 -1.15504 -1.55494 0
M  V30 END ATOM
M  V30 BEGIN BOND
M  V30 END BOND
M  V30 END CTAB
M  END
$$$$
