drugbank_target|O43399 Tumor protein D54 (DB12695)
 OpenBabel12092121073D

  0  0  0     0  0            999 V3000
M  V30 BEGIN CTAB
M  V30 COUNTS 3113 3130 0 0 0
M  V30 BEGIN ATOM
M  V30 1 H -0.908 1.98254 -0.117106 0
M  V30 2 N 0 1.576 0 0
M  V30 3 C 0.933 2.03868 1.02534 0
M  V30 4 C 1.911 0.928543 1.3348 0
M  V30 5 O 3.095 1.19667 1.45644 0
M  V30 6 C 0.222 2.43627 2.35294 0
M  V30 7 C -0.732 3.65373 2.2001 0
M  V30 8 S 0.101 5.13292 1.52614 0
M  V30 9 C 1.257 5.56322 2.86805 0
M  V30 10 H 1.49 2.90518 0.631377 0
M  V30 11 H -0.977 1.52953 0.210867 0
M  V30 12 H 0.981 2.67203 3.11629 0
M  V30 13 H -0.358 1.57376 2.7183 0
M  V30 14 H -1.165 3.90944 3.18086 0
M  V30 15 H -1.563 3.418 1.51819 0
M  V30 16 H 0.729 5.58782 3.83104 0
M  V30 17 H 1.672 6.56266 2.65933 0
M  V30 18 H 2.08 4.83886 2.90714 0
M  V30 19 N 1.4781 -0.272755 1.55222 0
M  V30 20 C 2.7551 -1.02562 1.66555 0
M  V30 21 C 3.1351 -2.04282 0.532189 0
M  V30 22 O 2.4831 -2.23662 -0.467717 0
M  V30 23 C 2.6931 -1.6822 3.05782 0
M  V30 24 C 4.0411 -2.19373 3.63539 0
M  V30 25 O 5.0651 -1.78206 3.08417 0
M  V30 26 O 3.9241 -2.94883 4.60115 0
M  V30 27 H 1.0181 -0.475755 0.676451 0
M  V30 28 H 3.5641 -0.268593 1.67561 0
M  V30 29 H 2.3361 -0.945112 3.79715 0
M  V30 30 H 1.9591 -2.50609 3.08676 0
M  V30 31 N 2.9562 -1.48159 -0.537278 0
M  V30 32 C 4.1812 -1.59707 -1.32319 0
M  V30 33 C 4.6062 -0.254859 -1.86365 0
M  V30 34 O 3.9642 0.772378 -1.64024 0
M  V30 35 C 4.0122 -2.6412 -2.45505 0
M  V30 36 O 3.1162 -2.20774 -3.48328 0
M  V30 37 H 2.4572 -0.535791 -0.392204 0
M  V30 38 H 4.9872 -1.94092 -0.647268 0
M  V30 39 H 4.9972 -2.85166 -2.91795 0
M  V30 40 H 3.6722 -3.61567 -2.05528 0
M  V30 41 H 2.2492 -2.09911 -3.08207 0
M  V30 42 N 4.4343 0.785586 -1.36625 0
M  V30 43 C 5.3973 1.87999 -1.31107 0
M  V30 44 C 6.3973 1.59316 -0.217959 0
M  V30 45 O 7.5873 1.67656 -0.472977 0
M  V30 46 C 4.7193 3.24861 -1.03334 0
M  V30 47 H 5.9123 1.94307 -2.2844 0
M  V30 48 H 3.4653 0.983813 -1.21453 0
M  V30 49 H 4.2003 3.24235 -0.0647432 0
M  V30 50 H 3.9853 3.4707 -1.82441 0
M  V30 51 H 5.4753 4.04929 -1.02088 0
M  V30 52 N 5.9124 1.20967 1.01018 0
M  V30 53 C 7.1604 1.02172 1.74371 0
M  V30 54 C 7.4814 -0.446414 1.89821 0
M  V30 55 O 6.7514 -1.32234 1.44537 0
M  V30 56 H 5.3314 0.375066 0.646014 0
M  V30 57 H 7.9934 1.52187 1.21758 0
M  V30 58 H 7.0894 1.48538 2.74487 0
M  V30 59 N 7.3905 -1.2043 1.01659 0
M  V30 60 C 8.3225 -2.22626 0.544988 0
M  V30 61 C 9.3355 -1.58479 -0.372609 0
M  V30 62 O 10.5245 -1.77679 -0.170958 0
M  V30 63 C 7.6245 -3.38141 -0.22663 0
M  V30 64 C 6.7975 -4.31877 0.692876 0
M  V30 65 C 5.8565 -5.26191 -0.0311616 0
M  V30 66 O 4.8825 -5.6612 0.591343 0
M  V30 67 N 6.0845 -5.65618 -1.30601 0
M  V30 68 H 8.8495 -2.63716 1.42388 0
M  V30 69 H 6.4105 -1.34971 0.894116 0
M  V30 70 H 8.4025 -3.98239 -0.72024 0
M  V30 71 H 6.9725 -2.95943 -1.00681 0
M  V30 72 H 6.1925 -3.69746 1.36679 0
M  V30 73 H 7.4805 -4.91426 1.31824 0
M  V30 74 H 6.8785 -5.3519 -1.83269 0
M  V30 75 H 5.4355 -6.28025 -1.74435 0
M  V30 76 N 8.8686 -0.792821 -1.36206 0
M  V30 77 C 10.1456 -0.290627 -1.93429 0
M  V30 78 C 10.5256 1.21773 -1.72437 0
M  V30 79 O 9.8736 2.0108 -1.08531 0
M  V30 80 C 10.0836 -0.686973 -3.42172 0
M  V30 81 C 11.4316 -0.668643 -4.19302 0
M  V30 82 O 12.4556 -0.627658 -3.50626 0
M  V30 83 O 11.3146 -0.714597 -5.41808 0
M  V30 84 H 8.4086 -0.0727927 -0.82379 0
M  V30 85 H 10.9546 -0.875593 -1.45367 0
M  V30 86 H 9.7266 -1.72711 -3.51122 0
M  V30 87 H 9.3496 -0.0760733 -3.97527 0
M  V30 88 N 10.3467 1.47872 -0.545128 0
M  V30 89 C 11.5957 2.01695 -0.0145033 0
M  V30 90 C 11.9087 1.42609 1.33873 0
M  V30 91 O 13.1147 1.88021 1.95858 0
M  V30 92 C 11.5707 3.59892 0.0245068 0
M  V30 93 C 11.1787 4.27966 -1.32475 0
M  V30 94 C 12.9227 4.21507 0.50316 0
M  V30 95 C 10.8297 5.78136 -1.2455 0
M  V30 96 H 9.7597 0.753998 -0.00165172 0
M  V30 97 H 12.4107 1.69985 -0.691175 0
M  V30 98 H 10.7927 3.88509 0.766575 0
M  V30 99 H 11.9667 4.11003 -2.08357 0
M  V30 100 H 10.2817 3.78286 -1.74036 0
M  V30 101 H 12.8787 5.31538 0.580656 0
M  V30 102 H 13.2217 3.87855 1.51243 0
M  V30 103 H 13.7547 3.97376 -0.183681 0
M  V30 104 H 10.4937 6.16388 -2.23039 0
M  V30 105 H 10.0137 5.97469 -0.528282 0
M  V30 106 H 11.6927 6.40099 -0.942488 0
M  V30 107 N 11.8248 0.280983 1.55075 0
M  V30 108 C 12.7728 -0.619864 2.24188 0
M  V30 109 C 13.7668 -1.15315 1.24092 0
M  V30 110 O 14.9728 -1.1061 1.42005 0
M  V30 111 H 11.3478 -0.218459 0.719569 0
M  V30 112 H 13.3188 -0.0141831 2.98397 0
M  V30 113 C 12.0678 -1.7899 2.98091 0
M  V30 114 H 11.3908 -1.38874 3.74905 0
M  V30 115 H 12.8308 -2.39672 3.49762 0
M  V30 116 C 11.2898 -2.68192 2.03899 0
M  V30 117 O 11.8198 -3.6872 1.594 0
M  V30 118 N 10.0258 -2.35488 1.70275 0
M  V30 119 H 9.5728 -1.53787 2.06658 0
M  V30 120 H 9.5308 -2.95442 1.07524 0
M  V30 121 N 13.3029 -1.57598 0.00835791 0
M  V30 122 C 14.2329 -2.1198 -0.979113 0
M  V30 123 C 15.2139 -1.03091 -1.35301 0
M  V30 124 O 16.3989 -1.30818 -1.43528 0
M  V30 125 C 13.5289 -2.62995 -2.26828 0
M  V30 126 C 12.4829 -3.76485 -2.03576 0
M  V30 127 C 11.8089 -4.13846 -3.38579 0
M  V30 128 C 13.1089 -5.0342 -1.39161 0
M  V30 129 H 14.8029 -2.94738 -0.526281 0
M  V30 130 H 12.3489 -1.41783 -0.251704 0
M  V30 131 H 14.3019 -2.99669 -2.96271 0
M  V30 132 H 13.0259 -1.7737 -2.7424 0
M  V30 133 H 11.6849 -3.40217 -1.36557 0
M  V30 134 H 11.3329 -3.25232 -3.83709 0
M  V30 135 H 11.0329 -4.90312 -3.23834 0
M  V30 136 H 12.5569 -4.53086 -4.09323 0
M  V30 137 H 13.9709 -5.37812 -1.98573 0
M  V30 138 H 12.3679 -5.84746 -1.34878 0
M  V30 139 H 13.4379 -4.83548 -0.361868 0
M  V30 140 N 14.781 0.264519 -1.55364 0
M  V30 141 C 15.729 1.34702 -1.89626 0
M  V30 142 C 16.723 1.50712 -0.773459 0
M  V30 143 O 17.929 1.52395 -0.957897 0
M  V30 144 H 14.304 0.450682 -0.601988 0
M  V30 145 H 16.275 1.0306 -2.80038 0
M  V30 146 C 15.024 2.6989 -2.19214 0
M  V30 147 H 14.347 2.58365 -3.05103 0
M  V30 148 H 15.787 3.44553 -2.47102 0
M  V30 149 C 14.246 3.21637 -1.00254 0
M  V30 150 O 14.776 4.00973 -0.241501 0
M  V30 151 N 12.982 2.7943 -0.797938 0
M  V30 152 H 12.529 2.15026 -1.4185 0
M  V30 153 H 12.487 3.144 -0.00363422 0
M  V30 154 N 16.2591 1.48442 0.529413 0
M  V30 155 C 17.4841 1.60406 1.31471 0
M  V30 156 C 17.9091 0.264738 1.86228 0
M  V30 157 O 17.2671 -0.763668 1.64432 0
M  V30 158 C 17.3151 2.65419 2.44101 0
M  V30 159 O 16.4191 2.22618 3.47153 0
M  V30 160 H 15.7601 0.537863 0.389357 0
M  V30 161 H 18.2901 1.94432 0.636965 0
M  V30 162 H 18.3001 2.86709 2.90279 0
M  V30 163 H 16.9751 3.62652 2.03608 0
M  V30 164 H 15.5521 2.11543 3.0709 0
M  V30 165 N 17.7372 -0.778329 1.37039 0
M  V30 166 C 19.1482 -1.35421 1.28523 0
M  V30 167 C 19.4992 -1.96075 -0.0700901 0
M  V30 168 O 18.6242 -1.93352 -0.971801 0
M  V30 169 C 19.2192 -2.46211 2.32735 0
M  V30 170 C 17.7782 -2.99585 2.27873 0
M  V30 171 C 16.9252 -1.72748 2.16918 0
M  V30 172 H 19.8762 -0.5791 1.47757 0
M  V30 173 H 19.8972 -3.2552 1.9702 0
M  V30 174 H 19.4092 -2.02036 3.31365 0
M  V30 175 H 17.5102 -3.48152 1.32745 0
M  V30 176 H 17.6232 -3.55646 3.21018 0
M  V30 177 H 15.9872 -1.95416 1.63354 0
M  V30 178 H 16.7702 -1.30686 3.17452 0
M  V30 179 N 19.2153 -1.21501 -1.00376 0
M  V30 180 C 20.1633 -0.972442 -2.11297 0
M  V30 181 C 21.1573 0.080731 -1.69208 0
M  V30 182 O 22.3633 -0.0707666 -1.79861 0
M  V30 183 H 18.7383 -0.297218 -0.690772 0
M  V30 184 H 20.7093 -1.91394 -2.28934 0
M  V30 185 C 19.4583 -0.555065 -3.43241 0
M  V30 186 H 18.7813 -1.35709 -3.76062 0
M  V30 187 H 20.2213 -0.424664 -4.21868 0
M  V30 188 C 18.6803 0.734147 -3.28804 0
M  V30 189 O 19.2103 1.78937 -3.59645 0
M  V30 190 N 17.4163 0.701133 -2.82015 0
M  V30 191 H 16.9633 -0.157874 -2.57116 0
M  V30 192 H 16.9213 1.56403 -2.72737 0
M  V30 193 N 20.6934 1.19889 -1.02296 0
M  V30 194 C 21.6404 2.22901 -0.598651 0
M  V30 195 C 22.6104 1.61588 0.384521 0
M  V30 196 O 23.7954 1.88697 0.282522 0
M  V30 197 C 20.9354 3.45063 0.0504476 0
M  V30 198 C 20.0484 4.20783 -0.978053 0
M  V30 199 C 19.1834 5.30356 -0.299338 0
M  V30 200 C 18.2224 5.97826 -1.31416 0
M  V30 201 N 17.3594 6.98975 -0.661667 0
M  V30 202 H 22.1994 2.58554 -1.48169 0
M  V30 203 H 19.7364 1.27039 -0.741584 0
M  V30 204 H 21.6944 4.14831 0.443971 0
M  V30 205 H 20.3244 3.10084 0.897097 0
M  V30 206 H 19.3764 3.50018 -1.48969 0
M  V30 207 H 20.6884 4.67109 -1.74958 0
M  V30 208 H 19.8424 6.06516 0.149347 0
M  V30 209 H 18.5814 4.85084 0.504445 0
M  V30 210 H 17.5864 5.20422 -1.77317 0
M  V30 211 H 18.8114 6.45183 -2.11933 0
M  V30 212 H 16.7574 6.55886 0.122132 0
M  V30 213 H 16.6744 7.43461 -1.37117 0
M  V30 214 H 17.9424 7.7914 -0.236785 0
M  V30 215 N 22.1715 0.800033 1.35784 0
M  V30 216 C 23.4195 0.376597 1.9856 0
M  V30 217 C 23.7405 -1.05812 1.63795 0
M  V30 218 O 23.0105 -1.73103 0.917171 0
M  V30 219 H 21.5905 0.136261 0.734467 0
M  V30 220 H 24.2525 1.02442 1.65806 0
M  V30 221 H 23.3485 0.477002 3.08433 0
M  V30 222 N 23.6496 -1.47581 0.552962 0
M  V30 223 C 24.5796 -2.32762 -0.185451 0
M  V30 224 C 25.5606 -1.43527 -0.912905 0
M  V30 225 O 26.7456 -1.72388 -0.894201 0
M  V30 226 C 23.8756 -3.25219 -1.21859 0
M  V30 227 C 22.8296 -4.23661 -0.607864 0
M  V30 228 C 22.1556 -5.05413 -1.74533 0
M  V30 229 C 23.4556 -5.20481 0.435582 0
M  V30 230 H 25.1496 -2.94749 0.525684 0
M  V30 231 H 22.6956 -1.41738 0.254251 0
M  V30 232 H 24.6486 -3.8365 -1.7433 0
M  V30 233 H 23.3726 -2.61279 -1.95961 0
M  V30 234 H 22.0316 -3.66451 -0.104489 0
M  V30 235 H 21.6796 -4.3788 -2.47529 0
M  V30 236 H 21.3796 -5.72059 -1.34249 0
M  V30 237 H 22.9036 -5.66701 -2.27338 0
M  V30 238 H 24.3176 -5.733 -0.00290157 0
M  V30 239 H 22.7146 -5.95305 0.757067 0
M  V30 240 H 23.7846 -4.66217 1.33303 0
M  V30 241 N 25.1277 -0.289203 -1.54924 0
M  V30 242 C 26.0577 0.58549 -2.2604 0
M  V30 243 C 27.0387 1.14753 -1.25562 0
M  V30 244 O 28.2237 1.17906 -1.54311 0
M  V30 245 C 25.3537 1.76305 -2.99222 0
M  V30 246 C 24.3077 1.33191 -4.06748 0
M  V30 247 C 23.6337 2.5937 -4.6758 0
M  V30 248 C 24.9337 0.471775 -5.20165 0
M  V30 249 H 26.6277 -0.00763532 -2.99399 0
M  V30 250 H 24.1737 -0.00511229 -1.43999 0
M  V30 251 H 26.1267 2.38097 -3.47689 0
M  V30 252 H 24.8507 2.38223 -2.23422 0
M  V30 253 H 23.5097 0.737121 -3.59113 0
M  V30 254 H 23.1577 3.19576 -3.88433 0
M  V30 255 H 22.8577 2.31228 -5.40192 0
M  V30 256 H 24.3817 3.21985 -5.18804 0
M  V30 257 H 25.7957 0.995056 -5.64599 0
M  V30 258 H 24.1927 0.284639 -5.99425 0
M  V30 259 H 25.2627 -0.506041 -4.82252 0
M  V30 260 N 26.6058 1.57591 -0.0167156 0
M  V30 261 C 27.8308 1.9598 0.67872 0
M  V30 262 C 28.2558 0.892546 1.65575 0
M  V30 263 O 27.6138 -0.147772 1.80697 0
M  V30 264 C 27.6618 3.33468 1.37227 0
M  V30 265 O 26.7658 3.28954 2.48722 0
M  V30 266 H 26.1068 0.639339 0.17928 0
M  V30 267 H 28.6368 2.04463 -0.0748802 0
M  V30 268 H 28.6468 3.69417 1.7319 0
M  V30 269 H 27.3218 4.10694 0.656007 0
M  V30 270 H 25.8988 3.04705 2.14963 0
M  V30 271 N 28.0839 -0.256276 1.55502 0
M  V30 272 C 29.3609 -1.00789 1.67633 0
M  V30 273 C 29.7409 -2.03706 0.553826 0
M  V30 274 O 29.0889 -2.24145 -0.443969 0
M  V30 275 C 29.2989 -1.64968 3.07549 0
M  V30 276 C 30.6469 -2.15505 3.65845 0
M  V30 277 O 31.6709 -1.74925 3.1029 0
M  V30 278 O 30.5299 -2.89986 4.63217 0
M  V30 279 H 27.6239 -0.468553 0.681459 0
M  V30 280 H 30.1699 -0.250806 1.67836 0
M  V30 281 H 28.9419 -0.904785 3.80696 0
M  V30 282 H 28.5649 -2.47321 3.11317 0
M  V30 283 N 29.562 -1.4872 -0.521534 0
M  V30 284 C 30.787 -1.61101 -1.30618 0
M  V30 285 C 31.212 -0.274611 -1.86085 0
M  V30 286 O 30.57 0.754937 -1.64834 0
M  V30 287 C 30.618 -2.66709 -2.4269 0
M  V30 288 O 29.722 -2.24456 -3.45967 0
M  V30 289 H 29.063 -0.539921 -0.386499 0
M  V30 290 H 31.593 -1.94767 -0.626645 0
M  V30 291 H 31.603 -2.88245 -2.88754 0
M  V30 292 H 30.278 -3.63727 -2.01682 0
M  V30 293 H 28.855 -2.13168 -3.05964 0
M  V30 294 N 31.0401 0.771051 -1.3745 0
M  V30 295 C 31.9731 1.89166 -1.27638 0
M  V30 296 C 32.9511 1.61842 -0.156782 0
M  V30 297 O 34.1351 1.85569 -0.331111 0
M  V30 298 C 31.2621 3.24405 -0.973621 0
M  V30 299 C 30.3081 3.70638 -2.1102 0
M  V30 300 S 31.1411 3.84228 -3.73 0
M  V30 301 C 32.2971 5.22313 -3.44876 0
M  V30 302 H 32.5301 1.972 -2.22485 0
M  V30 303 H 30.0631 0.932224 -1.23081 0
M  V30 304 H 32.0211 4.02514 -0.805766 0
M  V30 305 H 30.6821 3.14071 -0.0426279 0
M  V30 306 H 29.8751 4.68685 -1.85338 0
M  V30 307 H 29.4771 2.99632 -2.23822 0
M  V30 308 H 31.7691 6.07505 -2.99908 0
M  V30 309 H 32.7121 5.53008 -4.42253 0
M  V30 310 H 33.1201 4.90284 -2.79789 0
M  V30 311 N 32.5182 1.22032 0.997298 0
M  V30 312 C 33.7462 1.06841 1.7718 0
M  V30 313 C 34.1612 -0.381325 1.84909 0
M  V30 314 O 33.5182 -1.26437 1.31605 0
M  V30 315 C 33.5692 1.66814 3.20711 0
M  V30 316 O 33.2902 3.06116 3.13408 0
M  V30 317 C 34.7912 1.56838 4.14628 0
M  V30 318 H 32.0112 0.374782 0.556578 0
M  V30 319 H 34.5552 1.61532 1.2541 0
M  V30 320 H 32.7102 1.16196 3.69564 0
M  V30 321 H 33.1242 3.34926 4.0364 0
M  V30 322 H 34.5982 2.03532 5.13107 0
M  V30 323 H 35.0752 0.524155 4.36061 0
M  V30 324 H 35.6812 2.06741 3.7167 0
M  V30 325 N 33.9963 -1.19345 1.0293 0
M  V30 326 C 35.2733 -1.84811 0.640642 0
M  V30 327 C 35.6533 -1.91855 -0.88062 0
M  V30 328 O 35.0013 -1.43587 -1.7775 0
M  V30 329 C 35.2113 -3.23755 1.30321 0
M  V30 330 C 36.5593 -3.99912 1.42673 0
M  V30 331 O 37.5833 -3.33155 1.26041 0
M  V30 332 O 36.4423 -5.19494 1.6967 0
M  V30 333 H 33.5363 -0.796443 0.222726 0
M  V30 334 H 36.0823 -1.26831 1.12748 0
M  V30 335 H 34.8543 -3.13466 2.34211 0
M  V30 336 H 34.4773 -3.89381 0.804261 0
M  V30 337 N 35.4744 -0.807222 -1.35358 0
M  V30 338 C 36.7204 -0.388463 -1.99045 0
M  V30 339 C 37.0534 1.04184 -1.63888 0
M  V30 340 O 36.3284 1.72292 -0.902535 0
M  V30 341 C 36.6114 -0.572783 -3.55515 0
M  V30 342 C 36.4644 -2.04807 -4.00468 0
M  V30 343 C 37.7834 0.00114064 -4.401 0
M  V30 344 H 34.9024 -0.142619 -0.723069 0
M  V30 345 H 37.5444 -1.01687 -1.60498 0
M  V30 346 H 35.6944 -0.0378425 -3.88482 0
M  V30 347 H 37.3664 -2.64544 -3.77908 0
M  V30 348 H 35.6094 -2.54427 -3.51353 0
M  V30 349 H 36.2804 -2.12792 -5.09337 0
M  V30 350 H 38.7564 -0.455716 -4.13597 0
M  V30 351 H 37.6324 -0.157737 -5.48673 0
M  V30 352 H 37.8934 1.09488 -4.28328 0
M  V30 353 N 36.9525 1.47285 -0.560781 0
M  V30 354 C 38.3635 1.86258 -0.128343 0
M  V30 355 C 38.7145 1.46699 1.30284 0
M  V30 356 O 37.8395 0.871698 1.98067 0
M  V30 357 C 38.4345 3.38044 -0.22614 0
M  V30 358 C 36.9935 3.76096 0.151283 0
M  V30 359 C 36.1405 2.71335 -0.572084 0
M  V30 360 H 39.0915 1.38752 -0.770297 0
M  V30 361 H 39.1125 3.76441 0.554322 0
M  V30 362 H 38.6245 3.66806 -1.26788 0
M  V30 363 H 36.7255 3.52951 1.19399 0
M  V30 364 H 36.8385 4.78641 -0.209765 0
M  V30 365 H 35.2025 2.54696 -0.0147653 0
M  V30 366 H 35.9855 3.02938 -1.61504 0
M  V30 367 N 38.4306 0.297415 1.54768 0
M  V30 368 C 39.6766 -0.313376 2.00364 0
M  V30 369 C 40.0096 -1.53815 1.18553 0
M  V30 370 O 39.2846 -1.92739 0.261103 0
M  V30 371 C 39.5676 -0.673525 3.53745 0
M  V30 372 C 39.4206 0.560133 4.46299 0
M  V30 373 C 40.7396 -1.50143 4.13697 0
M  V30 374 H 37.8586 -0.112428 0.728374 0
M  V30 375 H 40.5006 0.4088 1.8555 0
M  V30 376 H 38.6506 -1.28881 3.665 0
M  V30 377 H 40.3226 1.19863 4.45455 0
M  V30 378 H 38.5656 1.19405 4.17043 0
M  V30 379 H 39.2366 0.26405 5.51368 0
M  V30 380 H 41.7126 -0.981588 4.04356 0
M  V30 381 H 40.5886 -1.72221 5.21182 0
M  V30 382 H 40.8496 -2.48952 3.65343 0
M  V30 383 N 39.9087 -1.5758 0.0250728 0
M  V30 384 C 41.1857 -1.82917 -0.692873 0
M  V30 385 C 41.5657 -0.908137 -1.90568 0
M  V30 386 O 40.9137 0.0372298 -2.2847 0
M  V30 387 C 41.1237 -3.32034 -1.07492 0
M  V30 388 C 42.4717 -3.98406 -1.46826 0
M  V30 389 O 43.4957 -3.36505 -1.16801 0
M  V30 390 O 42.3547 -5.07497 -2.02754 0
M  V30 391 H 39.4487 -0.754079 -0.33955 0
M  V30 392 H 41.9947 -1.69619 0.0524456 0
M  V30 393 H 40.7667 -3.90728 -0.211552 0
M  V30 394 H 40.3897 -3.50424 -1.87854 0
M  V30 395 N 41.3868 0.248026 -1.55636 0
M  V30 396 C 42.6148 0.993808 -1.81469 0
M  V30 397 C 43.0298 1.78991 -0.60064 0
M  V30 398 O 42.3868 1.77345 0.430682 0
M  V30 399 C 42.4378 1.93258 -3.05506 0
M  V30 400 O 42.1588 1.16869 -4.22224 0
M  V30 401 C 43.6598 2.79444 -3.4413 0
M  V30 402 H 40.8798 0.292486 -0.603898 0
M  V30 403 H 43.4238 0.271253 -2.02693 0
M  V30 404 H 41.5788 2.60943 -2.86335 0
M  V30 405 H 41.9928 1.80359 -4.92515 0
M  V30 406 H 43.4668 3.41066 -4.34026 0
M  V30 407 H 43.9438 3.50499 -2.64665 0
M  V30 408 H 44.5498 2.17214 -3.65648 0
M  V30 409 N 42.8649 1.48995 0.513639 0
M  V30 410 C 44.1129 1.57531 1.26604 0
M  V30 411 C 44.4339 0.258236 1.93283 0
M  V30 412 O 43.7039 -0.721502 1.8213 0
M  V30 413 H 42.2839 0.580387 0.470276 0
M  V30 414 H 44.9459 1.85552 0.596373 0
M  V30 415 H 44.0419 2.36486 2.03669 0
M  V30 416 N 44.343 -0.763751 1.37857 0
M  V30 417 C 45.589 -1.52483 1.33704 0
M  V30 418 C 45.922 -1.94051 -0.0759612 0
M  V30 419 O 45.197 -1.64675 -1.03501 0
M  V30 420 C 45.48 -2.78441 2.28348 0
M  V30 421 C 45.333 -2.43075 3.78463 0
M  V30 422 C 46.652 -3.80415 2.21298 0
M  V30 423 H 43.771 -0.553169 0.487005 0
M  V30 424 H 46.413 -0.875562 1.68624 0
M  V30 425 H 44.563 -3.33842 1.987 0
M  V30 426 H 46.235 -1.93527 4.18742 0
M  V30 427 H 44.478 -1.75666 3.96641 0
M  V30 428 H 45.149 -3.33149 4.40132 0
M  V30 429 H 47.625 -3.34527 2.47449 0
M  V30 430 H 46.501 -4.66257 2.89647 0
M  V30 431 H 46.762 -4.25262 1.20849 0
M  V30 432 N 45.8211 -1.22559 -0.990812 0
M  V30 433 C 46.7841 -0.998863 -2.0629 0
M  V30 434 C 47.7841 0.0354834 -1.60761 0
M  V30 435 O 48.9741 -0.203231 -1.7301 0
M  V30 436 C 46.1061 -0.509203 -3.37076 0
M  V30 437 H 47.2991 -1.95014 -2.27837 0
M  V30 438 H 44.8521 -1.04456 -1.16269 0
M  V30 439 H 45.5871 0.446335 -3.21214 0
M  V30 440 H 45.3721 -1.25547 -3.71457 0
M  V30 441 H 46.8621 -0.370888 -4.1595 0
M  V30 442 N 47.2992 1.18797 -1.03562 0
M  V30 443 C 48.2622 2.20464 -0.626769 0
M  V30 444 C 49.2622 1.57721 0.313173 0
M  V30 445 O 50.4522 1.73917 0.0992615 0
M  V30 446 C 47.5842 3.40802 0.0818498 0
M  V30 447 H 48.7772 2.58149 -1.5264 0
M  V30 448 H 46.3302 1.32593 -0.827578 0
M  V30 449 H 47.0652 3.08642 0.995518 0
M  V30 450 H 46.8502 3.8758 -0.593652 0
M  V30 451 H 48.3402 4.16092 0.354584 0
M  V30 452 N 48.7773 0.814389 1.34928 0
M  V30 453 C 50.1933 0.499084 1.51596 0
M  V30 454 C 50.3933 -0.978319 1.76157 0
M  V30 455 O 49.4493 -1.76309 1.80752 0
M  V30 456 C 50.7623 1.35121 2.68631 0
M  V30 457 C 52.3103 1.34746 2.82511 0
M  V30 458 C 52.7853 2.18388 4.0258 0
M  V30 459 N 54.2763 2.15966 4.09772 0
M  V30 460 C 55.0113 2.77437 5.01813 0
M  V30 461 N 54.5073 3.47866 5.99134 0
M  V30 462 N 56.3003 2.67037 4.94619 0
M  V30 463 H 48.4513 1.7711 1.17243 0
M  V30 464 H 50.7143 0.754256 0.574284 0
M  V30 465 H 50.4203 2.40001 2.57085 0
M  V30 466 H 50.2943 1.00991 3.63429 0
M  V30 467 H 52.6813 0.30648 2.93504 0
M  V30 468 H 52.7623 1.72869 1.88547 0
M  V30 469 H 52.4063 3.2253 3.92347 0
M  V30 470 H 52.3363 1.77621 4.9574 0
M  V30 471 H 54.8273 1.64729 3.40107 0
M  V30 472 H 55.1403 3.92038 6.65977 0
M  V30 473 H 53.4853 3.51972 5.99284 0
M  V30 474 H 56.6763 2.11597 4.17546 0
M  V30 475 H 56.8493 3.15232 5.66156 0
M  V30 476 N 50.2554 -1.46986 0.568584 0
M  V30 477 C 51.4834 -2.0683 0.0539956 0
M  V30 478 C 51.8984 -1.41953 -1.24478 0
M  V30 479 O 51.2554 -0.519933 -1.74937 0
M  V30 480 C 51.3064 -3.61254 -0.133362 0
M  V30 481 O 51.0274 -4.237 1.11399 0
M  V30 482 C 52.5284 -4.37992 -0.683927 0
M  V30 483 H 49.7484 -0.669058 0.0510141 0
M  V30 484 H 52.2924 -1.88824 0.785234 0
M  V30 485 H 50.4474 -3.78735 -0.81477 0
M  V30 486 H 50.8614 -5.16388 0.91888 0
M  V30 487 H 52.3354 -5.46684 -0.764263 0
M  V30 488 H 52.8124 -4.05058 -1.69778 0
M  V30 489 H 53.4184 -4.25283 -0.0378494 0
M  V30 490 N 51.7335 -0.305618 -1.54608 0
M  V30 491 C 53.1445 0.186098 -1.8577 0
M  V30 492 C 53.4955 1.53058 -1.22751 0
M  V30 493 O 52.6205 2.09888 -0.526893 0
M  V30 494 C 53.2155 0.344449 -3.37044 0
M  V30 495 C 51.7745 0.780384 -3.68221 0
M  V30 496 C 50.9215 -0.108554 -2.77087 0
M  V30 497 H 53.8725 -0.526485 -1.49712 0
M  V30 498 H 53.8935 1.17828 -3.61796 0
M  V30 499 H 53.4055 -0.634235 -3.82883 0
M  V30 500 H 51.5065 1.76945 -3.27904 0
M  V30 501 H 51.6195 0.596572 -4.75371 0
M  V30 502 H 49.9835 0.412931 -2.5133 0
M  V30 503 H 50.7665 -1.08368 -3.25747 0
M  V30 504 N 53.2116 1.57565 -0.0334293 0
M  V30 505 C 54.1746 2.09393 0.932048 0
M  V30 506 C 55.1746 1.00986 1.25134 0
M  V30 507 O 56.3646 1.27129 1.19096 0
M  V30 508 C 53.4966 2.56338 2.2473 0
M  V30 509 H 54.6896 2.95984 0.483085 0
M  V30 510 H 52.2426 1.54819 0.21468 0
M  V30 511 H 52.9776 1.7309 2.74245 0
M  V30 512 H 52.7626 3.35542 2.02865 0
M  V30 513 H 54.2526 2.96646 2.93923 0
M  V30 514 N 54.6897 -0.239769 1.55765 0
M  V30 515 C 55.9357 -0.968234 1.78194 0
M  V30 516 C 56.2687 -1.84701 0.599938 0
M  V30 517 O 55.5437 -1.9031 -0.401524 0
M  V30 518 C 55.8267 -1.8227 3.10564 0
M  V30 519 C 55.6797 -0.971633 4.3918 0
M  V30 520 C 56.9987 -2.80388 3.39221 0
M  V30 521 H 54.1177 -0.350572 0.648281 0
M  V30 522 H 56.7597 -0.238259 1.885 0
M  V30 523 H 54.9097 -2.44507 3.01908 0
M  V30 524 H 56.5817 -0.367408 4.59835 0
M  V30 525 H 54.8247 -0.276276 4.32919 0
M  V30 526 H 55.4957 -1.60346 5.28198 0
M  V30 527 H 57.9717 -2.28287 3.47885 0
M  V30 528 H 56.8477 -3.3729 4.33044 0
M  V30 529 H 57.1087 -3.57212 2.60484 0
M  V30 530 N 56.1678 -1.49265 -0.50573 0
M  V30 531 C 57.0778 -1.68312 -1.63427 0
M  V30 532 C 58.0938 -0.565682 -1.64548 0
M  V30 533 O 59.2698 -0.839801 -1.83055 0
M  V30 534 C 56.3348 -1.74107 -2.99813 0
M  V30 535 C 55.3958 -2.97653 -3.09356 0
M  V30 536 C 54.6288 -3.03163 -4.39236 0
M  V30 537 O 54.8518 -2.16396 -5.27758 0
M  V30 538 O 53.7858 -3.9558 -4.53652 0
M  V30 539 H 57.6118 -2.63907 -1.50289 0
M  V30 540 H 55.1968 -1.32951 -0.681502 0
M  V30 541 H 57.0788 -1.803 -3.80881 0
M  V30 542 H 55.7538 -0.816901 -3.13223 0
M  V30 543 H 54.6608 -2.96981 -2.27493 0
M  V30 544 H 55.9938 -3.89535 -3.00871 0
M  V30 545 N 57.6459 0.756429 -1.3826 0
M  V30 546 C 58.8939 1.51248 -1.34047 0
M  V30 547 C 59.2149 1.94875 0.0698372 0
M  V30 548 O 58.4849 1.67436 1.01696 0
M  V30 549 H 57.0649 0.561018 -0.493222 0
M  V30 550 H 59.7269 0.899347 -1.7291 0
M  V30 551 H 58.8229 2.40472 -1.98947 0
M  V30 552 N 59.124 1.23083 0.984299 0
M  V30 553 C 60.054 1.03292 2.09411 0
M  V30 554 C 61.035 -0.048923 1.7003 0
M  V30 555 O 62.22 0.114967 1.93859 0
M  V30 556 C 59.35 0.619155 3.41736 0
M  V30 557 C 58.304 1.64791 3.95004 0
M  V30 558 C 57.63 1.0897 5.23478 0
M  V30 559 C 58.93 3.03999 4.24714 0
M  V30 560 H 60.624 1.96119 2.26225 0
M  V30 561 H 58.17 0.944344 1.08711 0
M  V30 562 H 60.123 0.467777 4.18796 0
M  V30 563 H 58.847 -0.344786 3.24775 0
M  V30 564 H 57.506 1.78721 3.20085 0
M  V30 565 H 57.154 0.11686 5.02864 0
M  V30 566 H 56.854 1.77704 5.60085 0
M  V30 567 H 58.378 0.950093 6.03163 0
M  V30 568 H 59.792 2.93393 4.92538 0
M  V30 569 H 58.189 3.69936 4.72512 0
M  V30 570 H 59.259 3.53285 3.32142 0
M  V30 571 N 60.6021 -1.18246 1.0419 0
M  V30 572 C 61.8301 -1.92195 0.766072 0
M  V30 573 C 62.2451 -1.76247 -0.676933 0
M  V30 574 O 61.6021 -1.09293 -1.46155 0
M  V30 575 C 61.6531 -3.43568 1.12442 0
M  V30 576 O 61.3741 -3.59015 2.51078 0
M  V30 577 C 62.8751 -4.34613 0.873275 0
M  V30 578 H 60.0951 -0.610114 0.279288 0
M  V30 579 H 62.6391 -1.50007 1.38989 0
M  V30 580 H 60.7941 -3.8354 0.545542 0
M  V30 581 H 61.2081 -4.5273 2.64831 0
M  V30 582 H 62.6821 -5.39374 1.17385 0
M  V30 583 H 63.1591 -4.38781 -0.191909 0
M  V30 584 H 63.7651 -4.00341 1.43551 0
M  V30 585 N 62.0802 -0.821533 -1.34494 0
M  V30 586 C 62.9902 -0.244355 -2.33324 0
M  V30 587 C 64.0062 0.620527 -1.62559 0
M  V30 588 O 65.1822 0.528754 -1.94335 0
M  V30 589 C 62.2472 0.585368 -3.41723 0
M  V30 590 C 61.3082 -0.301752 -4.28238 0
M  V30 591 C 60.5412 0.488466 -5.3146 0
M  V30 592 O 60.7642 1.72186 -5.4379 0
M  V30 593 O 59.6982 -0.12848 -6.01763 0
M  V30 594 H 63.5242 -1.06231 -2.84515 0
M  V30 595 H 61.1092 -0.583645 -1.37528 0
M  V30 596 H 62.9912 1.05747 -4.07916 0
M  V30 597 H 61.6662 1.38068 -2.92778 0
M  V30 598 H 60.5732 -0.821315 -3.64973 0
M  V30 599 H 61.9062 -1.06138 -4.8062 0
M  V30 600 N 63.5583 1.46682 -0.576371 0
M  V30 601 C 64.5213 2.28707 0.150239 0
M  V30 602 C 65.5213 1.38035 0.824794 0
M  V30 603 O 66.7113 1.60476 0.677719 0
M  V30 604 C 63.8433 3.18248 1.22192 0
M  V30 605 H 65.0363 2.94423 -0.570521 0
M  V30 606 H 62.5893 1.52688 -0.334078 0
M  V30 607 H 63.3243 2.57265 1.97447 0
M  V30 608 H 63.1093 3.85 0.742812 0
M  V30 609 H 64.5993 3.80001 1.73172 0
M  V30 610 N 65.0364 0.313813 1.54444 0
M  V30 611 C 65.9464 -0.565714 2.27677 0
M  V30 612 C 66.9624 -1.13754 1.31666 0
M  V30 613 O 68.1384 -1.15959 1.64668 0
M  V30 614 C 65.2034 -1.71528 3.01296 0
M  V30 615 C 64.2644 -1.17624 4.12872 0
M  V30 616 C 63.4974 -2.27102 4.8297 0
M  V30 617 O 63.7204 -3.47256 4.52514 0
M  V30 618 O 62.6544 -1.9307 5.70094 0
M  V30 619 H 66.4804 0.0287296 3.03686 0
M  V30 620 H 64.0654 0.0798312 1.49187 0
M  V30 621 H 65.9474 -2.38476 3.4743 0
M  V30 622 H 64.6224 -2.29608 2.2817 0
M  V30 623 H 63.5294 -0.472124 3.71109 0
M  V30 624 H 64.8624 -0.640695 4.88012 0
M  V30 625 N 66.5145 -1.57545 0.0417849 0
M  V30 626 C 67.4245 -2.14451 -0.951213 0
M  V30 627 C 68.4405 -1.09992 -1.34825 0
M  V30 628 O 69.6165 -1.42114 -1.42708 0
M  V30 629 C 66.6815 -2.67063 -2.21084 0
M  V30 630 C 65.7425 -3.86284 -1.87304 0
M  V30 631 C 64.9755 -4.36378 -3.07261 0
M  V30 632 O 65.1985 -3.85587 -4.20332 0
M  V30 633 O 64.1325 -5.28077 -2.88822 0
M  V30 634 H 67.9585 -2.99601 -0.497287 0
M  V30 635 H 65.5435 -1.48317 -0.179567 0
M  V30 636 H 67.4255 -3.00914 -2.95006 0
M  V30 637 H 66.1005 -1.84989 -2.65633 0
M  V30 638 H 65.0075 -3.57338 -1.10727 0
M  V30 639 H 66.3405 -4.6956 -1.47562 0
M  V30 640 N 67.9926 0.231505 -1.5589 0
M  V30 641 C 68.9026 1.308 -1.94752 0
M  V30 642 C 69.9186 1.51826 -0.849989 0
M  V30 643 O 71.0946 1.6515 -1.15271 0
M  V30 644 C 68.1596 2.63968 -2.24771 0
M  V30 645 C 67.2206 2.51331 -3.48039 0
M  V30 646 C 66.4536 3.78148 -3.76616 0
M  V30 647 O 66.6766 4.80722 -3.07022 0
M  V30 648 O 65.6106 3.75857 -4.70123 0
M  V30 649 H 69.4366 1.0083 -2.86474 0
M  V30 650 H 67.0216 0.433547 -1.42971 0
M  V30 651 H 68.9036 3.42633 -2.45318 0
M  V30 652 H 67.5786 2.9364 -1.36225 0
M  V30 653 H 66.4856 1.709 -3.32782 0
M  V30 654 H 67.8186 2.26601 -4.36936 0
M  V30 655 N 69.4707 1.49531 0.497807 0
M  V30 656 C 70.3807 1.69176 1.62532 0
M  V30 657 C 71.3967 0.5744 1.64246 0
M  V30 658 O 72.5727 0.849497 1.82608 0
M  V30 659 C 69.6377 1.75695 2.98885 0
M  V30 660 C 68.6987 2.9929 3.07773 0
M  V30 661 C 67.9317 3.05488 4.37622 0
M  V30 662 O 68.1547 2.19192 5.26603 0
M  V30 663 O 67.0887 3.9798 4.51548 0
M  V30 664 H 70.9147 2.647 1.48887 0
M  V30 665 H 68.4997 1.3331 0.674441 0
M  V30 666 H 70.3817 1.82317 3.79919 0
M  V30 667 H 69.0567 0.8335 3.12785 0
M  V30 668 H 67.9637 2.98183 2.25915 0
M  V30 669 H 69.2967 3.91125 2.98801 0
M  V30 670 N 70.9488 -0.749086 1.3866 0
M  V30 671 C 71.8788 -1.8764 1.38973 0
M  V30 672 C 72.8598 -1.68178 0.255004 0
M  V30 673 O 74.0448 -1.88704 0.458754 0
M  V30 674 C 71.1748 -3.25222 1.21851 0
M  V30 675 C 70.1288 -3.59295 2.32575 0
M  V30 676 C 69.4548 -4.95663 2.00555 0
M  V30 677 C 70.7548 -3.63709 3.7485 0
M  V30 678 H 72.4488 -1.87635 2.3331 0
M  V30 679 H 69.9948 -0.901329 1.12303 0
M  V30 680 H 71.9478 -4.03746 1.20695 0
M  V30 681 H 70.6718 -3.25719 0.239775 0
M  V30 682 H 69.3308 -2.83093 2.32925 0
M  V30 683 H 68.9788 -4.92724 1.01154 0
M  V30 684 H 68.6788 -5.19429 2.74714 0
M  V30 685 H 70.2028 -5.7656 2.01024 0
M  V30 686 H 71.6168 -4.32338 3.76506 0
M  V30 687 H 70.0138 -3.98986 4.48252 0
M  V30 688 H 71.0838 -2.63834 4.06841 0
M  V30 689 N 72.4269 -1.23603 -0.977757 0
M  V30 690 C 73.8429 -0.999251 -1.24447 0
M  V30 691 C 74.0429 0.298053 -1.99283 0
M  V30 692 O 73.0989 1.01681 -2.31122 0
M  V30 693 C 74.4119 -2.20784 -2.04144 0
M  V30 694 C 75.9599 -2.25303 -2.17273 0
M  V30 695 C 76.4349 -3.45755 -3.00362 0
M  V30 696 N 77.9259 -3.4601 -3.07947 0
M  V30 697 C 78.6609 -4.35868 -3.72568 0
M  V30 698 N 78.1569 -5.35966 -4.38991 0
M  V30 699 N 79.9499 -4.23605 -3.6948 0
M  V30 700 H 72.1009 -2.06986 -0.476483 0
M  V30 701 H 74.3639 -0.907801 -0.273134 0
M  V30 702 H 74.0699 -3.14945 -1.56533 0
M  V30 703 H 73.9439 -2.22085 -3.04891 0
M  V30 704 H 76.3309 -1.3168 -2.64092 0
M  V30 705 H 76.4119 -2.28033 -1.15907 0
M  V30 706 H 76.0559 -4.39687 -2.5424 0
M  V30 707 H 75.9859 -3.40266 -4.01904 0
M  V30 708 H 78.4769 -2.73588 -2.60688 0
M  V30 709 H 78.7899 -6.00783 -4.86086 0
M  V30 710 H 77.1349 -5.39863 -4.37691 0
M  V30 711 H 80.3259 -3.44647 -3.16759 0
M  V30 712 H 80.4989 -4.93836 -4.1956 0
M  V30 713 N 73.905 1.17692 -1.04816 0
M  V30 714 C 74.868 2.19787 -0.650117 0
M  V30 715 C 75.868 1.58044 0.296427 0
M  V30 716 O 77.058 1.74012 0.0808097 0
M  V30 717 C 74.19 3.40869 0.0456987 0
M  V30 718 H 75.383 2.56516 -1.5537 0
M  V30 719 H 72.936 1.31708 -0.841594 0
M  V30 720 H 73.671 3.09681 0.962726 0
M  V30 721 H 73.456 3.86928 -0.634727 0
M  V30 722 H 74.946 4.16445 0.310432 0
M  V30 723 N 75.3831 0.828654 1.34056 0
M  V30 724 C 76.2931 0.256725 2.33191 0
M  V30 725 C 77.3091 -0.611898 1.62886 0
M  V30 726 O 78.4851 -0.51844 1.94613 0
M  V30 727 C 75.5501 -0.567238 3.42028 0
M  V30 728 C 74.6111 0.324458 4.28072 0
M  V30 729 C 73.8441 -0.460274 5.31712 0
M  V30 730 O 74.0671 -1.693 5.44696 0
M  V30 731 O 73.0011 0.160391 6.01686 0
M  V30 732 H 76.8271 1.07739 2.83947 0
M  V30 733 H 74.4121 0.59093 1.37217 0
M  V30 734 H 76.2941 -1.03582 4.08471 0
M  V30 735 H 74.9691 -1.36513 2.93506 0
M  V30 736 H 73.8761 0.840659 3.64532 0
M  V30 737 H 75.2091 1.08685 4.8005 0
M  V30 738 N 76.8612 -1.46375 0.584142 0
M  V30 739 C 77.7912 -2.33103 -0.136037 0
M  V30 740 C 78.7722 -1.45431 -0.882255 0
M  V30 741 O 79.9572 -1.74246 -0.857434 0
M  V30 742 C 77.0872 -3.27731 -1.14933 0
M  V30 743 C 76.0412 -4.24855 -0.517862 0
M  V30 744 C 75.3672 -5.09001 -1.63773 0
M  V30 745 C 76.6672 -5.19439 0.545886 0
M  V30 746 H 78.3612 -2.93568 0.588086 0
M  V30 747 H 75.9072 -1.41166 0.284259 0
M  V30 748 H 77.8602 -3.87261 -1.66153 0
M  V30 749 H 76.5842 -2.65377 -1.90375 0
M  V30 750 H 75.2432 -3.6659 -0.0267361 0
M  V30 751 H 74.8912 -4.43031 -2.38185 0
M  V30 752 H 74.5912 -5.74777 -1.22085 0
M  V30 753 H 76.1152 -5.71396 -2.15266 0
M  V30 754 H 77.5292 -5.73177 0.118704 0
M  V30 755 H 75.9262 -5.93566 0.88317 0
M  V30 756 H 76.9962 -4.63285 1.43162 0
M  V30 757 N 78.3393 -0.321999 -1.54275 0
M  V30 758 C 79.5673 0.283052 -2.04955 0
M  V30 759 C 79.9823 1.45904 -1.19823 0
M  V30 760 O 79.3393 1.81063 -0.228545 0
M  V30 761 C 79.3903 0.719028 -3.54277 0
M  V30 762 O 79.1113 -0.410175 -4.36176 0
M  V30 763 C 80.6123 1.38705 -4.21041 0
M  V30 764 H 77.8323 0.0584616 -0.668448 0
M  V30 765 H 80.3763 -0.467734 -1.99079 0
M  V30 766 H 78.5313 1.41979 -3.60445 0
M  V30 767 H 78.9453 -0.0669416 -5.24457 0
M  V30 768 H 80.4193 1.64306 -5.2698 0
M  V30 769 H 80.8963 2.33385 -3.72059 0
M  V30 770 H 81.5023 0.728906 -4.19007 0
M  V30 771 N 79.8174 1.5752 -0.0501392 0
M  V30 772 C 80.7644 2.1147 0.924603 0
M  V30 773 C 81.7344 1.02182 1.30951 0
M  V30 774 O 82.9194 1.29723 1.39916 0
M  V30 775 C 80.0594 2.66337 2.19451 0
M  V30 776 C 79.1724 3.89708 1.86418 0
M  V30 777 C 78.3074 4.32893 3.07859 0
M  V30 778 C 77.3464 5.48967 2.70742 0
M  V30 779 N 76.4834 5.87211 3.84874 0
M  V30 780 H 81.3234 2.94465 0.457639 0
M  V30 781 H 78.8604 1.45531 0.214266 0
M  V30 782 H 80.8184 2.96247 2.93758 0
M  V30 783 H 79.4484 1.86141 2.63726 0
M  V30 784 H 78.5004 3.66396 1.02264 0
M  V30 785 H 79.8124 4.74074 1.55096 0
M  V30 786 H 78.9664 4.6435 3.90466 0
M  V30 787 H 77.7054 3.47336 3.42358 0
M  V30 788 H 76.7104 5.17183 1.86551 0
M  V30 789 H 77.9354 6.3624 2.37436 0
M  V30 790 H 75.8814 5.04607 4.19175 0
M  V30 791 H 75.7984 6.66266 3.57247 0
M  V30 792 H 77.0664 6.23282 4.68123 0
M  V30 793 N 81.2955 -0.223234 1.56011 0
M  V30 794 C 82.5415 -0.949279 1.79211 0
M  V30 795 C 82.8745 -1.84054 0.619494 0
M  V30 796 O 82.1495 -1.90726 -0.381317 0
M  V30 797 C 82.4325 -1.78965 3.12479 0
M  V30 798 C 82.2855 -0.924997 4.40186 0
M  V30 799 C 83.6045 -2.76774 3.42175 0
M  V30 800 H 80.7235 -0.343676 0.651963 0
M  V30 801 H 83.3655 -0.218253 1.88742 0
M  V30 802 H 81.5155 -2.41291 3.04485 0
M  V30 803 H 83.1875 -0.318615 4.60198 0
M  V30 804 H 81.4305 -0.230344 4.33188 0
M  V30 805 H 82.1015 -1.54735 5.29869 0
M  V30 806 H 84.5775 -2.24584 3.50287 0
M  V30 807 H 83.4535 -3.32678 4.36597 0
M  V30 808 H 83.7145 -3.54429 2.64258 0
M  V30 809 N 82.7736 -1.49793 -0.48987 0
M  V30 810 C 83.6836 -1.70036 -1.61632 0
M  V30 811 C 84.6996 -0.583102 -1.63939 0
M  V30 812 O 85.8756 -0.859169 -1.82154 0
M  V30 813 C 82.9406 -1.77277 -2.97949 0
M  V30 814 C 82.0016 -3.00918 -3.06181 0
M  V30 815 C 81.2346 -3.07804 -4.35996 0
M  V30 816 O 81.4576 -2.21982 -5.25433 0
M  V30 817 O 80.3916 -4.00369 -4.49431 0
M  V30 818 H 84.2176 -2.65486 -1.47482 0
M  V30 819 H 81.8026 -1.33666 -0.667362 0
M  V30 820 H 83.6846 -1.84329 -3.78947 0
M  V30 821 H 82.3596 -0.850076 -3.12339 0
M  V30 822 H 81.2666 -2.99377 -2.2433 0
M  V30 823 H 82.5996 -3.92704 -2.96723 0
M  V30 824 N 84.2517 0.741722 -1.39055 0
M  V30 825 C 85.1617 1.88621 -1.39496 0
M  V30 826 C 86.1777 1.71557 -0.290578 0
M  V30 827 O 87.3537 1.94275 -0.530954 0
M  V30 828 C 84.4187 3.24134 -1.23037 0
M  V30 829 C 83.4797 3.5364 -2.43387 0
M  V30 830 C 82.7127 4.82687 -2.27703 0
M  V30 831 O 82.9357 5.55922 -1.27696 0
M  V30 832 O 81.8697 5.1194 -3.16545 0
M  V30 833 H 85.6957 1.91203 -2.35956 0
M  V30 834 H 83.2807 0.888625 -1.20099 0
M  V30 835 H 85.1627 4.0513 -1.15964 0
M  V30 836 H 83.8377 3.22337 -0.296691 0
M  V30 837 H 82.7447 2.72758 -2.56035 0
M  V30 838 H 84.0777 3.60209 -3.35425 0
M  V30 839 N 85.7298 1.2412 0.971189 0
M  V30 840 C 86.6398 1.04747 2.09917 0
M  V30 841 C 87.6558 -0.0107162 1.73997 0
M  V30 842 O 88.8318 0.186714 2.00533 0
M  V30 843 C 85.8968 0.650828 3.40537 0
M  V30 844 C 84.9578 1.7851 3.90426 0
M  V30 845 C 84.1908 1.40729 5.14812 0
M  V30 846 O 84.4138 0.29557 5.69634 0
M  V30 847 O 83.3478 2.23168 5.58999 0
M  V30 848 H 87.1738 1.99304 2.29154 0
M  V30 849 H 84.7588 1.02908 1.08307 0
M  V30 850 H 86.6408 0.440992 4.19086 0
M  V30 851 H 85.3158 -0.265649 3.22608 0
M  V30 852 H 84.2228 2.04966 3.12953 0
M  V30 853 H 85.5558 2.68023 4.12825 0
M  V30 854 N 87.2079 -1.17134 1.05439 0
M  V30 855 C 88.4569 -1.86791 0.761049 0
M  V30 856 C 88.7699 -1.82072 -0.714795 0
M  V30 857 O 89.9759 -2.47223 -1.12218 0
M  V30 858 C 88.4319 -3.35166 1.31117 0
M  V30 859 C 88.0399 -3.48381 2.81664 0
M  V30 860 C 89.7839 -4.10134 1.09499 0
M  V30 861 C 87.6909 -4.90793 3.29964 0
M  V30 862 H 86.6209 -0.699681 0.281002 0
M  V30 863 H 89.2719 -1.3226 1.27199 0
M  V30 864 H 87.6539 -3.8925 0.72803 0
M  V30 865 H 88.8279 -3.04502 3.45855 0
M  V30 866 H 87.1429 -2.86836 3.01851 0
M  V30 867 H 89.7399 -5.152 1.43084 0
M  V30 868 H 90.0829 -4.16287 0.0328772 0
M  V30 869 H 90.6159 -3.62264 1.64346 0
M  V30 870 H 87.3549 -4.89816 4.35616 0
M  V30 871 H 86.8749 -5.35333 2.70516 0
M  V30 872 H 88.5539 -5.59573 3.24787 0
M  V30 873 N 88.686 -0.835752 -1.33615 0
M  V30 874 C 89.932 -0.430596 -1.98176 0
M  V30 875 C 90.265 1.00684 -1.66061 0
M  V30 876 O 89.54 1.70339 -0.938877 0
M  V30 877 C 89.823 -0.648065 -3.5422 0
M  V30 878 C 89.676 -2.13255 -3.96033 0
M  V30 879 C 90.995 -0.0922113 -4.40003 0
M  V30 880 H 88.114 -0.157924 -0.719881 0
M  V30 881 H 90.756 -1.05069 -1.58305 0
M  V30 882 H 88.906 -0.120237 -3.88314 0
M  V30 883 H 90.578 -2.725 -3.72211 0
M  V30 884 H 88.821 -2.61823 -3.45878 0
M  V30 885 H 89.492 -2.23547 -5.04708 0
M  V30 886 H 91.968 -0.543343 -4.12537 0
M  V30 887 H 90.844 -0.274083 -5.48215 0
M  V30 888 H 91.105 1.00378 -4.30554 0
M  V30 889 N 90.1641 1.46063 -0.591896 0
M  V30 890 C 91.3921 2.06717 -0.0868936 0
M  V30 891 C 91.8071 1.43916 1.22203 0
M  V30 892 O 91.1641 0.547698 1.74088 0
M  V30 893 C 91.2151 3.6142 0.0758725 0
M  V30 894 O 90.9361 4.21874 -1.18126 0
M  V30 895 C 92.4371 4.39025 0.61416 0
M  V30 896 H 89.6571 0.668162 -0.0616518 0
M  V30 897 H 92.2011 1.8755 -0.815175 0
M  V30 898 H 90.3561 3.79983 0.754413 0
M  V30 899 H 90.7701 5.14861 -1.00092 0
M  V30 900 H 92.2441 5.4783 0.677193 0
M  V30 901 H 92.7211 4.07708 1.63312 0
M  V30 902 H 93.3271 4.2529 -0.0298142 0
M  V30 903 N 91.6422 0.330177 1.54103 0
M  V30 904 C 92.5722 -0.525353 2.27513 0
M  V30 905 C 93.5532 -1.11383 1.2856 0
M  V30 906 O 94.7382 -1.13773 1.57383 0
M  V30 907 C 91.8682 -1.6831 3.03791 0
M  V30 908 C 90.8222 -1.2236 4.10137 0
M  V30 909 C 90.1482 -2.46882 4.74293 0
M  V30 910 C 91.4482 -0.333697 5.21233 0
M  V30 911 H 93.1422 0.087013 2.99274 0
M  V30 912 H 90.6882 0.0432893 1.43935 0
M  V30 913 H 92.6412 -2.28795 3.5388 0
M  V30 914 H 91.3652 -2.32216 2.29659 0
M  V30 915 H 90.0242 -0.64165 3.60941 0
M  V30 916 H 89.6722 -3.09165 3.96769 0
M  V30 917 H 89.3722 -2.16825 5.46133 0
M  V30 918 H 90.8962 -3.08117 5.27159 0
M  V30 919 H 92.3102 -0.845013 5.67038 0
M  V30 920 H 90.7072 -0.125612 5.99969 0
M  V30 921 H 91.7772 0.633724 4.80741 0
M  V30 922 N 93.1203 -1.57491 0.0584922 0
M  V30 923 C 94.5363 -1.56792 -0.298091 0
M  V30 924 C 94.7363 -1.06679 -1.70944 0
M  V30 925 O 93.7923 -0.726672 -2.41818 0
M  V30 926 C 95.1053 -3.00461 -0.119879 0
M  V30 927 C 96.6533 -3.1242 -0.190428 0
M  V30 928 C 97.1283 -4.57982 -0.0406567 0
M  V30 929 N 98.6193 -4.63099 -0.0966958 0
M  V30 930 C 99.3543 -5.734 -0.00502943 0
M  V30 931 N 98.8503 -6.9266 0.139402 0
M  V30 932 N 100.643 -5.62067 -0.0611391 0
M  V30 933 H 92.7943 -1.88386 0.98105 0
M  V30 934 H 95.0573 -0.867865 0.381463 0
M  V30 935 H 94.7633 -3.41187 0.85349 0
M  V30 936 H 94.6373 -3.66843 -0.877833 0
M  V30 937 H 97.0243 -2.71589 -1.15427 0
M  V30 938 H 97.1053 -2.48702 0.598405 0
M  V30 939 H 96.7493 -4.995 0.919897 0
M  V30 940 H 96.6793 -5.19715 -0.848727 0
M  V30 941 H 99.1703 -3.77331 -0.207277 0
M  V30 942 H 99.4833 -7.72536 0.201855 0
M  V30 943 H 97.8283 -6.94781 0.174586 0
M  V30 944 H 101.019 -4.67782 -0.172583 0
M  V30 945 H 101.192 -6.47999 0.0137562 0
M  V30 946 N 94.5984 0.214957 -1.56127 0
M  V30 947 C 95.5304 1.29004 -1.89448 0
M  V30 948 C 96.5434 1.42716 -0.783326 0
M  V30 949 O 97.7324 1.43496 -1.06166 0
M  V30 950 C 94.8324 2.66482 -2.09381 0
M  V30 951 C 94.0054 2.74633 -3.40434 0
M  V30 952 C 93.0644 3.9317 -3.49719 0
M  V30 953 O 92.0904 3.812 -4.227 0
M  V30 954 N 93.2924 5.07765 -2.81346 0
M  V30 955 H 96.0574 1.00743 -2.82261 0
M  V30 956 H 93.6184 0.40497 -1.56753 0
M  V30 957 H 95.6104 3.44173 -2.12901 0
M  V30 958 H 94.1804 2.87314 -1.23163 0
M  V30 959 H 93.4004 1.83368 -3.48955 0
M  V30 960 H 94.6884 2.77054 -4.26754 0
M  V30 961 H 94.0864 5.20386 -2.21843 0
M  V30 962 H 92.6434 5.83474 -2.90519 0
M  V30 963 N 96.0765 1.50051 0.48192 0
M  V30 964 C 97.3225 1.60736 1.2366 0
M  V30 965 C 97.6555 0.301786 1.91841 0
M  V30 966 O 96.9305 -0.696025 1.8162 0
M  V30 967 C 97.2135 2.78009 2.28874 0
M  V30 968 C 97.0665 4.18416 1.65069 0
M  V30 969 C 98.3855 2.90867 3.30279 0
M  V30 970 H 95.5045 0.585031 0.448228 0
M  V30 971 H 98.1465 1.82402 0.531946 0
M  V30 972 H 96.2965 2.59667 2.88973 0
M  V30 973 H 97.9685 4.48322 1.0865 0
M  V30 974 H 96.2115 4.23177 0.954148 0
M  V30 975 H 96.8825 4.96381 2.41474 0
M  V30 976 H 99.3585 3.07623 2.80191 0
M  V30 977 H 98.2345 3.74566 4.01238 0
M  V30 978 H 98.4955 2.01021 3.93755 0
M  V30 979 N 97.5546 -0.734337 1.39446 0
M  V30 980 C 98.4846 -1.86155 1.40955 0
M  V30 981 C 99.4656 -1.67898 0.272827 0
M  V30 982 O 100.651 -1.88207 0.478743 0
M  V30 983 C 97.7806 -3.23912 1.25294 0
M  V30 984 C 96.7346 -3.56808 2.36373 0
M  V30 985 C 96.0606 -4.93508 2.058 0
M  V30 986 C 97.3606 -3.59713 3.78687 0
M  V30 987 H 99.0546 -1.8515 2.35287 0
M  V30 988 H 96.6006 -0.889367 1.13253 0
M  V30 989 H 98.5536 -4.02443 1.2497 0
M  V30 990 H 97.2776 -3.25446 0.274308 0
M  V30 991 H 95.9366 -2.80606 2.35914 0
M  V30 992 H 95.5846 -4.91623 1.06374 0
M  V30 993 H 95.2846 -5.16486 2.80208 0
M  V30 994 H 96.8086 -5.74396 2.07128 0
M  V30 995 H 98.2226 -4.2832 3.81071 0
M  V30 996 H 96.6196 -3.94209 4.52459 0
M  V30 997 H 97.6896 -2.59504 4.09617 0
M  V30 998 N 99.0327 -1.24633 -0.964593 0
M  V30 999 C 99.9957 -1.0424 -2.04124 0
M  V30 1000 C 100.996 0.00137563 -1.608 0
M  V30 1001 O 102.186 -0.239883 -1.7254 0
M  V30 1002 C 99.3177 -0.580588 -3.3592 0
M  V30 1003 H 100.511 -1.99803 -2.23649 0
M  V30 1004 H 98.0637 -1.06899 -1.14027 0
M  V30 1005 H 98.7987 0.3781 -3.22088 0
M  V30 1006 H 98.5837 -1.33398 -3.6871 0
M  V30 1007 H 100.074 -0.459034 -4.15069 0
M  V30 1008 N 100.511 1.16574 -1.06058 0
M  V30 1009 C 101.474 2.19085 -0.673392 0
M  V30 1010 C 102.474 1.5835 0.279648 0
M  V30 1011 O 103.664 1.74088 0.0623488 0
M  V30 1012 C 100.796 3.40899 0.00954234 0
M  V30 1013 H 101.989 2.54853 -1.58081 0
M  V30 1014 H 99.5418 1.30808 -0.855516 0
M  V30 1015 H 100.277 3.10684 0.929826 0
M  V30 1016 H 100.062 3.86233 -0.67573 0
M  V30 1017 H 101.552 4.1675 0.266245 0
M  V30 1018 N 101.989 0.842826 1.3317 0
M  V30 1019 C 102.936 0.276885 2.29133 0
M  V30 1020 C 103.906 -0.609527 1.54512 0
M  V30 1021 O 105.091 -0.546955 1.82792 0
M  V30 1022 C 102.231 -0.538707 3.40869 0
M  V30 1023 C 101.344 0.372169 4.30394 0
M  V30 1024 C 100.479 -0.454908 5.29249 0
M  V30 1025 C 99.5179 0.45411 6.10413 0
M  V30 1026 N 98.6549 -0.335075 7.013 0
M  V30 1027 H 103.495 1.10052 2.76934 0
M  V30 1028 H 101.032 0.554161 1.36262 0
M  V30 1029 H 102.99 -1.02709 4.0436 0
M  V30 1030 H 101.62 -1.32727 2.9425 0
M  V30 1031 H 100.672 0.97888 3.6759 0
M  V30 1032 H 101.984 1.0703 4.87182 0
M  V30 1033 H 101.138 -1.00695 5.98285 0
M  V30 1034 H 99.8769 -1.18646 4.73048 0
M  V30 1035 H 98.8819 1.01813 5.40291 0
M  V30 1036 H 100.107 1.18409 6.68697 0
M  V30 1037 H 98.0529 -1.04994 6.47543 0
M  V30 1038 H 97.9699 0.304262 7.55387 0
M  V30 1039 H 99.2379 -0.869224 7.74638 0
M  V30 1040 N 103.467 -1.45747 0.599634 0
M  V30 1041 C 104.377 -2.34262 -0.125888 0
M  V30 1042 C 105.393 -1.50768 -0.868625 0
M  V30 1043 O 106.569 -1.83592 -0.828003 0
M  V30 1044 C 103.634 -3.28252 -1.11587 0
M  V30 1045 C 102.695 -4.27651 -0.375956 0
M  V30 1046 C 101.928 -5.1715 -1.31877 0
M  V30 1047 O 102.151 -5.09916 -2.55621 0
M  V30 1048 O 101.085 -5.96286 -0.820157 0
M  V30 1049 H 104.911 -2.97688 0.601315 0
M  V30 1050 H 102.496 -1.44999 0.359934 0
M  V30 1051 H 104.378 -3.86191 -1.68626 0
M  V30 1052 H 103.053 -2.67401 -1.82424 0
M  V30 1053 H 101.96 -3.7335 0.236698 0
M  V30 1054 H 103.293 -4.91334 0.29177 0
M  V30 1055 N 104.945 -0.338344 -1.53925 0
M  V30 1056 C 106.361 0.0137736 -1.59594 0
M  V30 1057 C 106.561 1.49186 -1.35447 0
M  V30 1058 O 105.617 2.24987 -1.14616 0
M  V30 1059 C 106.93 -0.41773 -2.97784 0
M  V30 1060 C 108.478 -0.369633 -3.1081 0
M  V30 1061 C 108.953 -0.776524 -4.51369 0
M  V30 1062 N 110.444 -0.730506 -4.57403 0
M  V30 1063 C 111.179 -1.01736 -5.64303 0
M  V30 1064 N 110.675 -1.3721 -6.79077 0
M  V30 1065 N 112.468 -0.941942 -5.54151 0
M  V30 1066 H 104.619 -1.3012 -1.67876 0
M  V30 1067 H 106.882 -0.530082 -0.78595 0
M  V30 1068 H 106.588 -1.44811 -3.20504 0
M  V30 1069 H 106.462 0.209729 -3.76616 0
M  V30 1070 H 108.849 0.651568 -2.87817 0
M  V30 1071 H 108.93 -1.03223 -2.34049 0
M  V30 1072 H 108.574 -1.79571 -4.75096 0
M  V30 1073 H 108.504 -0.0914649 -5.26521 0
M  V30 1074 H 110.995 -0.468783 -3.74981 0
M  V30 1075 H 111.308 -1.57597 -7.5656 0
M  V30 1076 H 109.653 -1.4105 -6.80536 0
M  V30 1077 H 112.844 -0.664184 -4.63364 0
M  V30 1078 H 113.017 -1.16884 -6.37371 0
M  V30 1079 N 106.423 1.57458 -0.0668435 0
M  V30 1080 C 107.373 2.0896 0.912119 0
M  V30 1081 C 108.357 0.998186 1.26195 0
M  V30 1082 O 109.549 1.26133 1.24175 0
M  V30 1083 C 106.678 2.6508 2.18145 0
M  V30 1084 C 105.764 3.81218 1.85832 0
M  V30 1085 N 106.155 4.90378 1.23948 0
M  V30 1086 C 104.453 3.9042 2.15612 0
M  V30 1087 C 105.154 5.71279 1.09616 0
M  V30 1088 N 104.13 5.19389 1.60423 0
M  V30 1089 H 107.932 2.90749 0.42924 0
M  V30 1090 H 105.446 1.6182 0.137184 0
M  V30 1091 H 107.443 3.0029 2.89192 0
M  V30 1092 H 106.103 1.84736 2.67025 0
M  V30 1093 H 107.114 5.09847 0.909731 0
M  V30 1094 H 103.791 3.21043 2.66903 0
M  V30 1095 H 105.181 6.69085 0.614425 0
M  V30 1096 N 107.901 -0.206675 1.56239 0
M  V30 1097 C 109.141 -0.93574 1.81723 0
M  V30 1098 C 109.505 -1.80927 0.642609 0
M  V30 1099 O 110.706 -2.57323 0.777081 0
M  V30 1100 C 108.977 -1.74012 3.12177 0
M  V30 1101 S 110.536 -2.52279 3.59028 0
M  V30 1102 H 107.354 -0.314065 0.637875 0
M  V30 1103 H 109.956 -0.200071 1.94474 0
M  V30 1104 H 108.66 -1.0888 3.95693 0
M  V30 1105 H 108.191 -2.51782 3.02274 0
M  V30 1106 H 110.206 -3.76209 3.23545 0
M  V30 1107 N 109.379 -1.50304 -0.473955 0
M  V30 1108 C 110.627 -1.60832 -1.22382 0
M  V30 1109 C 110.948 -0.30939 -1.9253 0
M  V30 1110 O 110.218 0.67296 -1.83978 0
M  V30 1111 H 108.798 -0.592652 -0.454723 0
M  V30 1112 H 111.46 -1.87068 -0.546968 0
M  V30 1113 H 110.556 -2.41803 -1.97327 0
M  V30 1114 N 110.857 0.726932 -1.39834 0
M  V30 1115 C 111.767 1.87131 -1.41489 0
M  V30 1116 C 112.783 1.71239 -0.308757 0
M  V30 1117 O 113.959 1.93701 -0.551529 0
M  V30 1118 C 111.024 3.22811 -1.26468 0
M  V30 1119 C 110.085 3.51039 -2.47124 0
M  V30 1120 C 109.318 4.80245 -2.3281 0
M  V30 1121 O 109.541 5.54537 -1.33585 0
M  V30 1122 O 108.475 5.08554 -3.21957 0
M  V30 1123 H 112.301 1.8869 -2.3797 0
M  V30 1124 H 109.886 0.875837 -1.21035 0
M  V30 1125 H 111.768 4.03877 -1.20255 0
M  V30 1126 H 110.443 3.22005 -0.330862 0
M  V30 1127 H 109.35 2.70027 -2.58914 0
M  V30 1128 H 110.683 3.56632 -3.39227 0
M  V30 1129 N 112.336 1.25143 0.95797 0
M  V30 1130 C 113.266 1.07711 2.07173 0
M  V30 1131 C 114.247 -0.0128462 1.70095 0
M  V30 1132 O 115.432 0.156061 1.93572 0
M  V30 1133 C 112.562 0.691503 3.40346 0
M  V30 1134 C 111.516 1.73132 3.9142 0
M  V30 1135 C 110.842 1.20049 5.21049 0
M  V30 1136 C 112.142 3.1294 4.1817 0
M  V30 1137 H 113.836 2.00873 2.22014 0
M  V30 1138 H 111.382 0.967191 1.06684 0
M  V30 1139 H 113.335 0.556505 4.17709 0
M  V30 1140 H 112.059 -0.275819 3.25433 0
M  V30 1141 H 110.718 1.8547 3.16222 0
M  V30 1142 H 110.366 0.223499 5.02503 0
M  V30 1143 H 110.066 1.89545 5.56189 0
M  V30 1144 H 111.59 1.07782 6.01012 0
M  V30 1145 H 113.004 3.03775 4.86203 0
M  V30 1146 H 111.401 3.79875 4.64559 0
M  V30 1147 H 112.471 3.6025 3.24573 0
M  V30 1148 N 113.814 -1.1601 1.06675 0
M  V30 1149 C 114.761 -2.20525 0.680967 0
M  V30 1150 C 115.731 -1.62904 -0.324283 0
M  V30 1151 O 116.916 -1.89615 -0.212294 0
M  V30 1152 C 114.056 -3.45013 0.0776551 0
M  V30 1153 C 113.169 -4.16863 1.13355 0
M  V30 1154 C 112.304 -5.2888 0.49597 0
M  V30 1155 C 111.343 -5.92537 1.53513 0
M  V30 1156 N 110.48 -6.96038 0.920631 0
M  V30 1157 H 115.32 -2.52876 1.57663 0
M  V30 1158 H 112.857 -1.24199 0.788223 0
M  V30 1159 H 114.815 -4.16193 -0.289704 0
M  V30 1160 H 113.445 -3.132 -0.781393 0
M  V30 1161 H 112.497 -3.44248 1.61857 0
M  V30 1162 H 113.809 -4.60294 1.92174 0
M  V30 1163 H 112.963 -6.06653 0.0758604 0
M  V30 1164 H 111.702 -4.86622 -0.324062 0
M  V30 1165 H 110.707 -5.13482 1.9651 0
M  V30 1166 H 111.932 -6.36873 2.35733 0
M  V30 1167 H 109.878 -6.55888 0.12138 0
M  V30 1168 H 109.795 -7.3786 1.64616 0
M  V30 1169 H 111.063 -7.77725 0.525795 0
M  V30 1170 N 115.292 -0.849877 -1.32721 0
M  V30 1171 C 116.708 -0.539102 -1.50219 0
M  V30 1172 C 116.908 0.931271 -1.78689 0
M  V30 1173 O 115.964 1.71455 -1.85363 0
M  V30 1174 C 117.277 -1.42196 -2.64954 0
M  V30 1175 C 118.825 -1.42189 -2.78839 0
M  V30 1176 C 119.3 -2.28985 -3.96648 0
M  V30 1177 N 120.791 -2.26754 -4.03902 0
M  V30 1178 C 121.526 -2.90644 -4.94281 0
M  V30 1179 N 121.022 -3.63629 -5.897 0
M  V30 1180 N 122.815 -2.80057 -4.87365 0
M  V30 1181 H 114.966 -1.80156 -1.12506 0
M  V30 1182 H 117.229 -0.769217 -0.554085 0
M  V30 1183 H 116.935 -2.46733 -2.50631 0
M  V30 1184 H 116.809 -1.10591 -3.60624 0
M  V30 1185 H 119.196 -0.38419 -2.92588 0
M  V30 1186 H 119.277 -1.77807 -1.83898 0
M  V30 1187 H 118.921 -3.32819 -3.83658 0
M  V30 1188 H 118.851 -1.90702 -4.90857 0
M  V30 1189 H 121.342 -1.73688 -3.3562 0
M  V30 1190 H 121.655 -4.09558 -6.55349 0
M  V30 1191 H 120 -3.67737 -5.89741 0
M  V30 1192 H 123.191 -2.22593 -4.11789 0
M  V30 1193 H 123.364 -3.30132 -5.57599 0
M  V30 1194 N 116.77 1.45427 -0.607355 0
M  V30 1195 C 118.186 1.57283 -0.270985 0
M  V30 1196 C 118.386 1.59875 1.22647 0
M  V30 1197 O 117.442 1.52893 2.00948 0
M  V30 1198 C 118.755 2.85566 -0.941952 0
M  V30 1199 C 120.303 2.9924 -0.917849 0
M  V30 1200 C 120.778 4.30293 -1.56882 0
M  V30 1201 N 122.269 4.37051 -1.5343 0
M  V30 1202 C 123.004 5.37123 -2.00715 0
M  V30 1203 N 122.5 6.43734 -2.56084 0
M  V30 1204 N 124.293 5.28479 -1.91484 0
M  V30 1205 H 116.444 1.41988 -1.57966 0
M  V30 1206 H 118.707 0.67885 -0.661715 0
M  V30 1207 H 118.413 2.8955 -1.99633 0
M  V30 1208 H 118.287 3.74322 -0.465096 0
M  V30 1209 H 120.674 2.94822 0.127984 0
M  V30 1210 H 120.755 2.11895 -1.43297 0
M  V30 1211 H 120.399 4.35469 -2.61398 0
M  V30 1212 H 120.329 5.16454 -1.02873 0
M  V30 1213 H 122.82 3.60615 -1.12982 0
M  V30 1214 H 123.133 7.16341 -2.89958 0
M  V30 1215 H 121.478 6.44485 -2.60122 0
M  V30 1216 H 124.669 4.44098 -1.47967 0
M  V30 1217 H 124.842 6.0632 -2.28648 0
M  V30 1218 N 118.248 0.346503 1.53744 0
M  V30 1219 C 119.178 -0.501193 2.28058 0
M  V30 1220 C 120.159 -1.10014 1.29734 0
M  V30 1221 O 121.344 -1.12097 1.58581 0
M  V30 1222 C 118.474 -1.65078 3.05559 0
M  V30 1223 C 117.428 -1.18003 4.11411 0
M  V30 1224 C 116.754 -2.41837 4.76884 0
M  V30 1225 C 118.054 -0.278394 5.21558 0
M  V30 1226 H 119.748 0.11875 2.99164 0
M  V30 1227 H 117.294 0.0585531 1.43881 0
M  V30 1228 H 119.247 -2.25028 3.56287 0
M  V30 1229 H 117.971 -2.29767 2.32109 0
M  V30 1230 H 116.63 -0.603331 3.61601 0
M  V30 1231 H 116.278 -3.0494 4.00026 0
M  V30 1232 H 115.978 -2.1102 5.48402 0
M  V30 1233 H 117.502 -3.02508 5.30397 0
M  V30 1234 H 118.916 -0.784823 5.67903 0
M  V30 1235 H 117.313 -0.0619707 6.00068 0
M  V30 1236 H 118.383 0.684677 4.80042 0
M  V30 1237 N 119.726 -1.57421 0.075193 0
M  V30 1238 C 120.974 -1.93236 -0.591974 0
M  V30 1239 C 121.295 -0.956241 -1.69944 0
M  V30 1240 O 120.565 -0.00494792 -1.95899 0
M  V30 1241 H 119.145 -0.713355 -0.22166 0
M  V30 1242 H 121.807 -1.9444 0.133848 0
M  V30 1243 H 120.903 -2.95131 -1.01509 0
M  V30 1244 N 121.204 0.198386 -1.56346 0
M  V30 1245 C 122.134 1.24865 -1.9731 0
M  V30 1246 C 123.115 1.47651 -0.844576 0
M  V30 1247 O 124.3 1.59444 -1.10866 0
M  V30 1248 C 121.43 2.59358 -2.30977 0
M  V30 1249 C 120.384 2.5119 -3.46537 0
M  V30 1250 C 119.71 3.89926 -3.65871 0
M  V30 1251 C 121.01 2.03977 -4.80823 0
M  V30 1252 H 122.704 0.908252 -2.85291 0
M  V30 1253 H 120.25 0.435462 -1.37258 0
M  V30 1254 H 122.203 3.33011 -2.58228 0
M  V30 1255 H 120.927 2.95132 -1.39874 0
M  V30 1256 H 119.586 1.79993 -3.19371 0
M  V30 1257 H 119.234 4.23046 -2.72105 0
M  V30 1258 H 118.934 3.85336 -4.4361 0
M  V30 1259 H 120.458 4.65205 -3.95495 0
M  V30 1260 H 121.872 2.67386 -5.07127 0
M  V30 1261 H 120.269 2.10397 -5.62008 0
M  V30 1262 H 121.339 0.992861 -4.74626 0
M  V30 1263 N 122.682 1.50554 0.465978 0
M  V30 1264 C 123.907 1.65838 1.24549 0
M  V30 1265 C 124.332 0.343486 1.84937 0
M  V30 1266 O 123.69 -0.69324 1.67523 0
M  V30 1267 C 123.738 2.75533 2.32624 0
M  V30 1268 O 122.842 2.37142 3.37398 0
M  V30 1269 H 122.183 0.553893 0.366194 0
M  V30 1270 H 124.713 1.96959 0.553927 0
M  V30 1271 H 124.723 2.98763 2.77857 0
M  V30 1272 H 123.398 3.70962 1.88043 0
M  V30 1273 H 121.975 2.24377 2.97841 0
M  V30 1274 N 124.16 -0.719506 1.40217 0
M  V30 1275 C 125.388 -1.50864 1.41589 0
M  V30 1276 C 125.803 -1.88794 0.0145275 0
M  V30 1277 O 125.16 -1.55174 -0.960594 0
M  V30 1278 C 125.211 -2.78646 2.30302 0
M  V30 1279 O 124.932 -2.42321 3.64983 0
M  V30 1280 C 126.433 -3.72569 2.40224 0
M  V30 1281 H 123.653 -0.465709 0.48307 0
M  V30 1282 H 126.197 -0.88785 1.84221 0
M  V30 1283 H 124.352 -3.37019 1.91042 0
M  V30 1284 H 124.766 -3.24514 4.12057 0
M  V30 1285 H 126.24 -4.5908 3.06512 0
M  V30 1286 H 126.717 -4.15403 1.42608 0
M  V30 1287 H 127.323 -3.20109 2.80019 0
M  V30 1288 N 125.638 -1.25649 -0.95132 0
M  V30 1289 C 126.568 -1.08808 -2.06599 0
M  V30 1290 C 127.549 0.00382547 -1.701 0
M  V30 1291 O 128.734 -0.166325 -1.93486 0
M  V30 1292 C 125.864 -0.709542 -3.39975 0
M  V30 1293 C 124.818 -1.75206 -3.90496 0
M  V30 1294 C 124.144 -1.22811 -5.20405 0
M  V30 1295 C 125.444 -3.15153 -4.16504 0
M  V30 1296 H 127.138 -2.02048 -2.20946 0
M  V30 1297 H 124.684 -0.972835 -1.06169 0
M  V30 1298 H 126.637 -0.578649 -4.17408 0
M  V30 1299 H 125.361 0.258556 -3.25575 0
M  V30 1300 H 124.02 -1.87145 -3.15234 0
M  V30 1301 H 123.668 -0.250145 -5.02378 0
M  V30 1302 H 123.368 -1.92492 -5.55176 0
M  V30 1303 H 124.892 -1.10968 -6.00432 0
M  V30 1304 H 126.306 -3.06349 -4.84586 0
M  V30 1305 H 124.703 -3.82333 -4.62538 0
M  V30 1306 H 125.773 -3.61966 -3.22658 0
M  V30 1307 N 127.117 1.15442 -1.07289 0
M  V30 1308 C 128.365 1.85845 -0.794096 0
M  V30 1309 C 128.686 1.82692 0.681809 0
M  V30 1310 O 127.956 1.26741 1.49377 0
M  V30 1311 H 126.536 0.688089 -0.290763 0
M  V30 1312 H 129.198 1.39947 -1.3565 0
M  V30 1313 H 128.294 2.91001 -1.12804 0
M  V30 1314 N 128.595 0.856903 1.32268 0
M  V30 1315 C 129.505 0.306131 2.32594 0
M  V30 1316 C 130.521 -0.577209 1.64147 0
M  V30 1317 O 131.697 -0.477043 1.95669 0
M  V30 1318 C 128.762 -0.494561 3.43154 0
M  V30 1319 C 127.823 0.415186 4.27288 0
M  V30 1320 C 127.056 -0.347387 5.32568 0
M  V30 1321 O 127.279 -1.57708 5.48165 0
M  V30 1322 O 126.213 0.287982 6.01211 0
M  V30 1323 H 130.039 1.13737 2.81598 0
M  V30 1324 H 127.624 0.619902 1.35932 0
M  V30 1325 H 129.506 -0.948944 4.10576 0
M  V30 1326 H 128.181 -1.30257 2.96336 0
M  V30 1327 H 127.088 0.917793 3.62667 0
M  V30 1328 H 128.421 1.18844 4.77637 0
M  V30 1329 N 130.073 -1.45103 0.615059 0
M  V30 1330 C 131.003 -2.33339 -0.0865619 0
M  V30 1331 C 131.984 -1.4727 -0.851209 0
M  V30 1332 O 133.169 -1.76026 -0.820281 0
M  V30 1333 C 130.299 -3.30095 -1.07956 0
M  V30 1334 C 129.253 -4.25858 -0.427628 0
M  V30 1335 C 128.579 -5.12361 -1.5294 0
M  V30 1336 C 129.879 -5.18165 0.655944 0
M  V30 1337 H 131.573 -2.92254 0.650224 0
M  V30 1338 H 129.119 -1.40532 0.314138 0
M  V30 1339 H 131.072 -3.90698 -1.57901 0
M  V30 1340 H 129.796 -2.69355 -1.84703 0
M  V30 1341 H 128.455 -3.66564 0.0510292 0
M  V30 1342 H 128.103 -4.47984 -2.28734 0
M  V30 1343 H 127.803 -5.77238 -1.09865 0
M  V30 1344 H 129.327 -5.75833 -2.03098 0
M  V30 1345 H 130.741 -5.72796 0.240257 0
M  V30 1346 H 129.138 -5.91559 1.00888 0
M  V30 1347 H 130.208 -4.60144 1.52957 0
M  V30 1348 N 131.551 -0.354651 -1.53558 0
M  V30 1349 C 132.498 0.496968 -2.25386 0
M  V30 1350 C 133.468 1.0865 -1.25636 0
M  V30 1351 O 134.653 1.12104 -1.54394 0
M  V30 1352 C 131.793 1.63637 -3.03837 0
M  V30 1353 C 130.906 1.07307 -4.18461 0
M  V30 1354 C 130.041 2.18068 -4.84376 0
M  V30 1355 C 129.08 1.59147 -5.91049 0
M  V30 1356 N 128.217 2.63695 -6.50699 0
M  V30 1357 H 133.057 -0.122075 -2.9775 0
M  V30 1358 H 130.594 -0.0720154 -1.46924 0
M  V30 1359 H 132.552 2.30734 -3.47589 0
M  V30 1360 H 131.182 2.22623 -2.33749 0
M  V30 1361 H 130.234 0.292708 -3.79272 0
M  V30 1362 H 131.546 0.602193 -4.95152 0
M  V30 1363 H 130.7 2.93007 -5.31255 0
M  V30 1364 H 129.439 2.68504 -4.07133 0
M  V30 1365 H 128.444 0.827175 -5.43542 0
M  V30 1366 H 129.669 1.09549 -6.70206 0
M  V30 1367 H 127.615 3.13365 -5.76315 0
M  V30 1368 H 127.532 2.21263 -7.22896 0
M  V30 1369 H 128.8 3.3837 -7.02229 0
M  V30 1370 N 133.029 1.57378 -0.0835403 0
M  V30 1371 C 133.961 2.10389 0.909338 0
M  V30 1372 C 134.974 1.03858 1.25369 0
M  V30 1373 O 136.163 1.31338 1.20882 0
M  V30 1374 C 133.263 2.55908 2.2218 0
M  V30 1375 C 132.436 3.86145 2.05453 0
M  V30 1376 C 131.495 4.17633 3.20108 0
M  V30 1377 O 130.521 4.87043 2.94581 0
M  V30 1378 N 131.723 3.72113 4.45547 0
M  V30 1379 H 134.488 2.962 0.456657 0
M  V30 1380 H 132.049 1.61579 0.101877 0
M  V30 1381 H 134.041 2.74027 2.97811 0
M  V30 1382 H 132.611 1.75171 2.58909 0
M  V30 1383 H 131.831 3.7729 1.1422 0
M  V30 1384 H 133.119 4.7137 1.91541 0
M  V30 1385 H 132.517 3.16062 4.69171 0
M  V30 1386 H 131.074 3.95409 5.18165 0
M  V30 1387 N 134.507 -0.190092 1.56449 0
M  V30 1388 C 135.455 -1.25501 1.95837 0
M  V30 1389 C 136.449 -1.4685 0.844485 0
M  V30 1390 O 137.655 -1.47651 1.02952 0
M  V30 1391 H 134.03 -0.421447 0.622805 0
M  V30 1392 H 136.001 -0.895821 2.84636 0
M  V30 1393 C 134.75 -2.59124 2.31841 0
M  V30 1394 H 134.073 -2.43514 3.17082 0
M  V30 1395 H 135.513 -3.32371 2.6326 0
M  V30 1396 C 133.972 -3.16488 1.15486 0
M  V30 1397 O 134.502 -3.99365 0.432535 0
M  V30 1398 N 132.708 -2.75305 0.930349 0
M  V30 1399 H 132.255 -2.08013 1.51948 0
M  V30 1400 H 132.213 -3.14024 0.153634 0
M  V30 1401 N 135.985 -1.50799 -0.457987 0
M  V30 1402 C 136.915 -1.73553 -1.5621 0
M  V30 1403 C 137.896 -0.584774 -1.59732 0
M  V30 1404 O 139.081 -0.825314 -1.7579 0
M  V30 1405 C 136.211 -1.84169 -2.94447 0
M  V30 1406 C 135.165 -2.99461 -3.0579 0
M  V30 1407 C 134.491 -2.95235 -4.45803 0
M  V30 1408 C 135.791 -4.39766 -2.81786 0
M  V30 1409 H 137.485 -2.66 -1.37421 0
M  V30 1410 H 135.031 -1.28002 -0.659662 0
M  V30 1411 H 136.984 -1.98672 -3.71628 0
M  V30 1412 H 135.708 -0.883545 -3.14422 0
M  V30 1413 H 134.367 -2.8463 -2.31044 0
M  V30 1414 H 134.015 -1.97239 -4.62715 0
M  V30 1415 H 133.715 -3.72642 -4.54326 0
M  V30 1416 H 135.239 -3.11803 -5.24987 0
M  V30 1417 H 136.653 -4.55054 -3.4871 0
M  V30 1418 H 135.05 -5.18722 -3.0174 0
M  V30 1419 H 136.12 -4.51229 -1.7754 0
M  V30 1420 N 137.463 0.71206 -1.40597 0
M  V30 1421 C 138.688 1.50617 -1.42581 0
M  V30 1422 C 139.113 1.88079 -0.0282102 0
M  V30 1423 O 138.471 1.53511 0.964579 0
M  V30 1424 C 138.519 2.7557 -2.3258 0
M  V30 1425 O 137.623 3.72414 -1.77148 0
M  V30 1426 H 136.964 0.453966 -0.484573 0
M  V30 1427 H 139.494 0.876649 -1.84868 0
M  V30 1428 H 139.504 3.2406 -2.47889 0
M  V30 1429 H 138.179 2.47639 -3.34138 0
M  V30 1430 H 136.756 3.31276 -1.71204 0
M  V30 1431 N 138.941 1.26152 0.944643 0
M  V30 1432 C 140.357 1.03189 1.21754 0
M  V30 1433 C 140.557 -0.245112 2.00004 0
M  V30 1434 O 139.613 -0.955176 2.33736 0
M  V30 1435 C 140.926 2.26119 1.98219 0
M  V30 1436 C 142.474 2.30984 2.11224 0
M  V30 1437 C 142.949 3.53597 2.91089 0
M  V30 1438 N 144.44 3.54053 2.98664 0
M  V30 1439 C 145.175 4.45593 3.60881 0
M  V30 1440 N 144.671 5.47416 4.24626 0
M  V30 1441 N 146.464 4.33252 3.58119 0
M  V30 1442 H 138.615 2.08177 0.421437 0
M  V30 1443 H 140.878 0.914723 0.248969 0
M  V30 1444 H 140.584 3.18984 1.48128 0
M  V30 1445 H 140.458 2.3009 2.98895 0
M  V30 1446 H 142.845 1.38635 2.60508 0
M  V30 1447 H 142.926 2.31026 1.09821 0
M  V30 1448 H 142.57 4.46273 2.42493 0
M  V30 1449 H 142.5 3.50802 3.92741 0
M  V30 1450 H 144.991 2.80403 2.53343 0
M  V30 1451 H 145.304 6.13459 4.69987 0
M  V30 1452 H 143.649 5.51278 4.23223 0
M  V30 1453 H 146.84 3.52924 3.0751 0
M  V30 1454 H 147.013 5.04786 4.06319 0
M  V30 1455 N 140.419 -1.14872 1.07899 0
M  V30 1456 C 141.644 -1.90202 0.826926 0
M  V30 1457 C 142.069 -1.77774 -0.614664 0
M  V30 1458 O 141.427 -1.11431 -1.43013 0
M  V30 1459 C 141.475 -3.38352 1.24702 0
M  V30 1460 O 140.579 -4.10497 0.39575 0
M  V30 1461 H 139.92 -0.591968 0.300782 0
M  V30 1462 H 142.45 -1.45437 1.43907 0
M  V30 1463 H 142.46 -3.89156 1.22563 0
M  V30 1464 H 141.135 -3.46715 2.29698 0
M  V30 1465 H 139.712 -3.69796 0.480117 0
M  V30 1466 N 141.898 -0.863906 -1.31812 0
M  V30 1467 C 143.144 -0.481841 -1.9761 0
M  V30 1468 C 143.499 0.954048 -1.6708 0
M  V30 1469 O 142.792 1.66182 -0.953624 0
M  V30 1470 C 142.986 -0.668547 -3.51091 0
M  V30 1471 C 142.815 -2.12103 -3.96538 0
M  V30 1472 C 141.585 -2.76141 -4.23171 0
M  V30 1473 C 143.783 -3.09265 -4.10925 0
M  V30 1474 N 141.765 -4.12205 -4.54929 0
M  V30 1475 C 143.136 -4.30341 -4.46326 0
M  V30 1476 C 145.191 -3.05337 -3.93286 0
M  V30 1477 C 143.894 -5.48 -4.65928 0
M  V30 1478 C 145.92 -4.22248 -4.14078 0
M  V30 1479 C 145.282 -5.42085 -4.49804 0
M  V30 1480 H 141.381 -0.225238 -0.74886 0
M  V30 1481 H 143.965 -1.11723 -1.59455 0
M  V30 1482 H 142.136 -0.0627898 -3.88349 0
M  V30 1483 H 143.868 -0.255467 -4.03893 0
M  V30 1484 H 140.623 -2.27125 -4.15585 0
M  V30 1485 H 141.047 -4.82416 -4.74978 0
M  V30 1486 H 145.689 -2.138 -3.64759 0
M  V30 1487 H 143.407 -6.40059 -4.93305 0
M  V30 1488 H 146.993 -4.20654 -4.01922 0
M  V30 1489 H 145.873 -6.31044 -4.65567 0
M  V30 1490 N 143.376 1.44774 -0.622745 0
M  V30 1491 C 144.326 2.2774 0.108889 0
M  V30 1492 C 145.31 1.38189 0.824175 0
M  V30 1493 O 146.502 1.62063 0.711664 0
M  V30 1494 C 143.631 3.25353 1.09546 0
M  V30 1495 C 142.717 4.22392 0.380232 0
M  V30 1496 N 143.108 5.02388 -0.586535 0
M  V30 1497 C 141.406 4.41588 0.625792 0
M  V30 1498 C 142.107 5.72894 -1.00834 0
M  V30 1499 N 141.083 5.42479 -0.348878 0
M  V30 1500 H 144.885 2.86993 -0.63341 0
M  V30 1501 H 142.399 1.5611 -0.447589 0
M  V30 1502 H 144.396 3.83538 1.63414 0
M  V30 1503 H 143.056 2.6766 1.83815 0
M  V30 1504 H 144.067 5.0885 -0.963975 0
M  V30 1505 H 140.744 3.95003 1.352 0
M  V30 1506 H 142.134 6.47158 -1.80656 0
M  V30 1507 N 144.854 0.36279 1.53368 0
M  V30 1508 C 146.131 -0.284021 1.93527 0
M  V30 1509 C 146.511 -1.66628 1.29608 0
M  V30 1510 O 145.859 -2.23942 0.45413 0
M  V30 1511 C 146.069 -0.337028 3.47369 0
M  V30 1512 C 147.417 -0.578708 4.20638 0
M  V30 1513 O 148.441 -0.418352 3.53735 0
M  V30 1514 O 147.3 -0.89074 5.39192 0
M  V30 1515 H 144.394 -0.169743 0.809393 0
M  V30 1516 H 146.94 0.41537 1.64538 0
M  V30 1517 H 145.712 0.632217 3.86159 0
M  V30 1518 H 145.335 -1.08243 3.82582 0
M  V30 1519 N 146.332 -1.57332 0.0918853 0
M  V30 1520 C 147.578 -1.94524 -0.573425 0
M  V30 1521 C 147.911 -0.973578 -1.68033 0
M  V30 1522 O 147.186 -0.00609226 -1.94499 0
M  V30 1523 C 147.469 -3.41858 -1.13161 0
M  V30 1524 C 147.322 -4.4979 -0.0299747 0
M  V30 1525 C 148.641 -3.90435 -2.03098 0
M  V30 1526 H 145.76 -0.70734 -0.206975 0
M  V30 1527 H 148.402 -1.89309 0.161942 0
M  V30 1528 H 146.552 -3.46433 -1.7583 0
M  V30 1529 H 148.224 -4.57327 0.604112 0
M  V30 1530 H 146.467 -4.291 0.636833 0
M  V30 1531 H 147.138 -5.50069 -0.461287 0
M  V30 1532 H 149.614 -3.87992 -1.50338 0
M  V30 1533 H 148.49 -4.94097 -2.39081 0
M  V30 1534 H 148.751 -3.29541 -2.94712 0
M  V30 1535 N 147.81 0.181792 -1.56548 0
M  V30 1536 C 148.742 1.24956 -1.92142 0
M  V30 1537 C 149.755 1.41022 -0.813422 0
M  V30 1538 O 150.944 1.41212 -1.09186 0
M  V30 1539 C 148.044 2.61981 -2.14987 0
M  V30 1540 C 147.217 2.6735 -3.46183 0
M  V30 1541 C 146.276 3.85664 -3.5798 0
M  V30 1542 O 145.302 3.72148 -4.30691 0
M  V30 1543 N 146.504 5.01683 -2.92053 0
M  V30 1544 H 149.269 0.947329 -2.84334 0
M  V30 1545 H 146.83 0.371629 -1.57577 0
M  V30 1546 H 148.822 3.3958 -2.20154 0
M  V30 1547 H 147.392 2.84637 -1.2923 0
M  V30 1548 H 146.612 1.75925 -3.52766 0
M  V30 1549 H 147.9 2.67939 -4.32534 0
M  V30 1550 H 147.298 5.15564 -2.32832 0
M  V30 1551 H 145.855 5.77181 -3.0283 0
M  V30 1552 N 149.288 1.51039 0.449983 0
M  V30 1553 C 150.534 1.63322 1.20223 0
M  V30 1554 C 150.867 0.34241 1.91158 0
M  V30 1555 O 150.142 -0.657344 1.83055 0
M  V30 1556 C 150.425 2.82801 2.22925 0
M  V30 1557 C 150.278 4.21823 1.56157 0
M  V30 1558 C 151.597 2.97807 3.24035 0
M  V30 1559 H 148.716 0.594407 0.435718 0
M  V30 1560 H 151.358 1.83489 0.493136 0
M  V30 1561 H 149.508 2.65738 2.834 0
M  V30 1562 H 151.18 4.50526 0.991162 0
M  V30 1563 H 149.423 4.25105 0.864172 0
M  V30 1564 H 150.094 5.01391 2.30891 0
M  V30 1565 H 152.57 3.13497 2.73603 0
M  V30 1566 H 151.446 3.82992 3.93202 0
M  V30 1567 H 151.707 2.09328 3.89402 0
M  V30 1568 N 150.766 -0.704594 1.40972 0
M  V30 1569 C 151.991 -1.49858 1.43378 0
M  V30 1570 C 152.416 -1.88061 0.038184 0
M  V30 1571 O 151.774 -1.5402 -0.956425 0
M  V30 1572 C 151.822 -2.74333 2.34038 0
M  V30 1573 O 150.926 -3.7147 1.7912 0
M  V30 1574 H 150.267 -0.45139 0.486974 0
M  V30 1575 H 152.797 -0.866832 1.8533 0
M  V30 1576 H 152.807 -3.22741 2.49604 0
M  V30 1577 H 151.482 -2.45863 3.35446 0
M  V30 1578 H 150.059 -3.30363 1.72958 0
M  V30 1579 N 152.244 -1.26651 -0.937939 0
M  V30 1580 C 153.469 -1.15279 -1.72411 0
M  V30 1581 C 153.894 0.287866 -1.85884 0
M  V30 1582 O 153.252 1.20855 -1.35143 0
M  V30 1583 C 153.3 -1.83028 -3.10698 0
M  V30 1584 O 152.404 -1.12128 -3.96864 0
M  V30 1585 H 151.745 -0.401504 -0.528858 0
M  V30 1586 H 154.275 -1.67531 -1.1745 0
M  V30 1587 H 154.285 -1.89981 -3.6107 0
M  V30 1588 H 152.96 -2.87833 -3.00208 0
M  V30 1589 H 151.537 -1.13173 -3.55312 0
M  V30 1590 N 153.722 1.14298 -1.08507 0
M  V30 1591 C 154.685 2.17607 -0.719711 0
M  V30 1592 C 155.685 1.58907 0.245997 0
M  V30 1593 O 156.875 1.74181 0.0254081 0
M  V30 1594 C 154.007 3.40842 -0.0627695 0
M  V30 1595 H 155.2 2.51443 -1.63452 0
M  V30 1596 H 152.753 1.28963 -0.88307 0
M  V30 1597 H 153.488 3.12587 0.863716 0
M  V30 1598 H 153.273 3.84713 -0.757504 0
M  V30 1599 H 154.763 4.17221 0.177786 0
M  V30 1600 N 155.201 0.870884 1.31352 0
M  V30 1601 C 156.431 0.496049 2.00557 0
M  V30 1602 C 156.839 -0.916241 1.65534 0
M  V30 1603 O 156.182 -1.61188 0.881134 0
M  V30 1604 C 156.244 0.574418 3.54881 0
M  V30 1605 C 155.908 1.94849 4.1338 0
M  V30 1606 C 156.905 2.91611 4.30417 0
M  V30 1607 C 154.59 2.25005 4.49086 0
M  V30 1608 C 156.584 4.16672 4.82352 0
M  V30 1609 C 154.271 3.50315 5.00722 0
M  V30 1610 C 155.269 4.45964 5.17306 0
M  V30 1611 O 154.957 5.69052 5.67833 0
M  V30 1612 H 154.689 0.191664 0.64826 0
M  V30 1613 H 157.243 1.17409 1.68536 0
M  V30 1614 H 155.473 -0.160549 3.86367 0
M  V30 1615 H 157.162 0.212879 4.05341 0
M  V30 1616 H 157.928 2.69622 4.03149 0
M  V30 1617 H 153.807 1.51332 4.35453 0
M  V30 1618 H 157.351 4.91336 4.95211 0
M  V30 1619 H 153.248 3.72147 5.27424 0
M  V30 1620 H 154.016 5.71236 5.86201 0
M  V30 1621 N 156.679 -1.44442 0.630414 0
M  V30 1622 C 157.925 -2.02351 0.134816 0
M  V30 1623 C 158.258 -1.4947 -1.23986 0
M  V30 1624 O 157.533 -0.678475 -1.82283 0
M  V30 1625 C 157.816 -3.59898 0.120707 0
M  V30 1626 C 157.669 -4.23063 1.52767 0
M  V30 1627 C 158.988 -4.36585 -0.555127 0
M  V30 1628 H 156.107 -0.73527 0.0504646 0
M  V30 1629 H 158.749 -1.72022 0.806751 0
M  V30 1630 H 156.899 -3.85868 -0.451477 0
M  V30 1631 H 158.571 -4.08202 2.14869 0
M  V30 1632 H 156.814 -3.80586 2.08175 0
M  V30 1633 H 157.485 -5.32071 1.46984 0
M  V30 1634 H 159.961 -4.16044 -0.0685429 0
M  V30 1635 H 158.837 -5.46294 -0.534185 0
M  V30 1636 H 159.098 -4.11138 -1.62535 0
M  V30 1637 N 158.157 -0.370918 -1.53173 0
M  V30 1638 C 159.104 0.473035 -2.259 0
M  V30 1639 C 160.074 1.07311 -1.26781 0
M  V30 1640 O 161.259 1.1046 -1.55574 0
M  V30 1641 C 158.399 1.60405 -3.05556 0
M  V30 1642 C 157.512 1.02863 -4.19575 0
M  V30 1643 C 156.647 2.12918 -4.86661 0
M  V30 1644 C 155.686 1.52869 -5.92704 0
M  V30 1645 N 154.823 2.56779 -6.53459 0
M  V30 1646 H 159.663 -0.153649 -2.97604 0
M  V30 1647 H 157.2 -0.0875946 -1.46839 0
M  V30 1648 H 159.158 2.27034 -3.50016 0
M  V30 1649 H 157.788 2.20131 -2.36097 0
M  V30 1650 H 156.84 0.252465 -3.79561 0
M  V30 1651 H 158.152 0.549642 -4.95762 0
M  V30 1652 H 157.306 2.87356 -5.34333 0
M  V30 1653 H 156.045 2.6417 -4.09958 0
M  V30 1654 H 155.05 0.769479 -5.44389 0
M  V30 1655 H 156.275 1.02435 -6.7133 0
M  V30 1656 H 154.221 3.07235 -5.79606 0
M  V30 1657 H 154.138 2.13583 -7.25202 0
M  V30 1658 H 155.406 3.30903 -7.05779 0
M  V30 1659 N 159.635 1.57281 -0.100228 0
M  V30 1660 C 160.863 1.98879 0.570509 0
M  V30 1661 C 161.278 0.979476 1.61405 0
M  V30 1662 O 160.635 -0.0302288 1.82475 0
M  V30 1663 C 160.686 3.4052 1.2136 0
M  V30 1664 O 160.407 4.37588 0.211786 0
M  V30 1665 C 161.908 3.97149 1.96945 0
M  V30 1666 H 159.128 0.653428 0.152555 0
M  V30 1667 H 161.672 2.03697 -0.18103 0
M  V30 1668 H 159.827 3.367 1.91603 0
M  V30 1669 H 160.241 5.20118 0.676607 0
M  V30 1670 H 161.715 4.98393 2.37294 0
M  V30 1671 H 162.192 3.3525 2.83733 0
M  V30 1672 H 162.798 4.04458 1.31506 0
M  V30 1673 N 161.113 -0.173488 1.56642 0
M  V30 1674 C 162.338 -0.910149 1.86363 0
M  V30 1675 C 162.763 -1.75132 0.686318 0
M  V30 1676 O 162.121 -1.77595 -0.364643 0
M  V30 1677 C 162.169 -1.76447 3.14482 0
M  V30 1678 O 161.273 -2.86584 2.96553 0
M  V30 1679 H 160.614 -0.255086 0.613047 0
M  V30 1680 H 163.144 -0.172283 2.03873 0
M  V30 1681 H 163.154 -2.16483 3.45831 0
M  V30 1682 H 161.829 -1.14658 3.99783 0
M  V30 1683 H 160.406 -2.50146 2.76553 0
M  V30 1684 N 162.591 -1.51276 -0.441967 0
M  V30 1685 C 163.501 -1.75092 -1.56141 0
M  V30 1686 C 164.517 -0.634963 -1.62001 0
M  V30 1687 O 165.693 -0.916686 -1.79329 0
M  V30 1688 C 162.758 -1.86666 -2.92158 0
M  V30 1689 C 161.819 -3.10506 -2.96453 0
M  V30 1690 C 161.052 -3.21519 -4.25982 0
M  V30 1691 O 161.275 -2.38586 -5.18105 0
M  V30 1692 O 160.209 -4.14465 -4.36466 0
M  V30 1693 H 164.035 -2.70044 -1.38961 0
M  V30 1694 H 161.62 -1.35722 -0.624499 0
M  V30 1695 H 163.502 -1.96292 -3.72891 0
M  V30 1696 H 162.177 -0.949014 -3.09476 0
M  V30 1697 H 161.084 -3.06363 -2.14692 0
M  V30 1698 H 162.417 -4.01945 -2.84079 0
M  V30 1699 N 164.069 0.697108 -1.41344 0
M  V30 1700 C 165.016 1.81106 -1.43071 0
M  V30 1701 C 165.986 1.63632 -0.285275 0
M  V30 1702 O 167.171 1.84504 -0.486091 0
M  V30 1703 C 164.311 3.18975 -1.31715 0
M  V30 1704 C 163.424 3.47892 -2.56115 0
M  V30 1705 C 162.559 4.75367 -2.37064 0
M  V30 1706 C 161.598 4.97247 -3.56948 0
M  V30 1707 N 160.735 6.15947 -3.36977 0
M  V30 1708 H 165.575 1.78965 -2.38276 0
M  V30 1709 H 163.112 0.873975 -1.18322 0
M  V30 1710 H 165.07 3.98615 -1.23133 0
M  V30 1711 H 163.7 3.20297 -0.401183 0
M  V30 1712 H 162.752 2.62669 -2.75153 0
M  V30 1713 H 164.064 3.59962 -3.45295 0
M  V30 1714 H 163.218 5.63059 -2.25941 0
M  V30 1715 H 161.957 4.65541 -1.45338 0
M  V30 1716 H 160.962 4.08004 -3.68527 0
M  V30 1717 H 162.187 5.08934 -4.49626 0
M  V30 1718 H 160.133 6.07336 -2.47949 0
M  V30 1719 H 160.05 6.28777 -4.19732 0
M  V30 1720 H 161.318 7.06377 -3.29623 0
M  V30 1721 N 165.547 1.27147 0.931209 0
M  V30 1722 C 166.477 1.12081 2.04842 0
M  V30 1723 C 167.458 0.0232364 1.70084 0
M  V30 1724 O 168.643 0.197085 1.93197 0
M  V30 1725 C 165.773 0.76354 3.38803 0
M  V30 1726 C 164.727 1.81396 3.87659 0
M  V30 1727 C 164.053 1.31075 5.18385 0
M  V30 1728 C 165.353 3.21739 4.11438 0
M  V30 1729 H 167.047 2.05537 2.17703 0
M  V30 1730 H 164.593 0.989603 1.04608 0
M  V30 1731 H 166.546 0.644982 4.16435 0
M  V30 1732 H 165.27 -0.206727 3.25945 0
M  V30 1733 H 163.929 1.92136 3.12217 0
M  V30 1734 H 163.577 0.330037 5.01916 0
M  V30 1735 H 163.277 2.013 5.52044 0
M  V30 1736 H 164.801 1.20506 5.98591 0
M  V30 1737 H 166.215 3.14019 4.79651 0
M  V30 1738 H 164.612 3.89644 4.56397 0
M  V30 1739 H 165.682 3.67054 3.16859 0
M  V30 1740 N 167.025 -1.13721 1.09112 0
M  V30 1741 C 168.273 -1.84559 0.823562 0
M  V30 1742 C 168.594 -1.83754 -0.652658 0
M  V30 1743 O 167.864 -1.29102 -1.47342 0
M  V30 1744 H 166.444 -0.683376 0.301673 0
M  V30 1745 H 169.106 -1.37771 1.37859 0
M  V30 1746 H 168.202 -2.8917 1.17419 0
M  V30 1747 N 168.503 -0.877838 -1.30888 0
M  V30 1748 C 169.413 -0.343096 -2.32078 0
M  V30 1749 C 170.429 0.551022 -1.65045 0
M  V30 1750 O 171.605 0.445854 -1.96403 0
M  V30 1751 C 168.67 0.439905 -3.43898 0
M  V30 1752 C 167.731 -0.483111 -4.26573 0
M  V30 1753 C 166.964 0.262616 -5.33053 0
M  V30 1754 O 167.187 1.48967 -5.50604 0
M  V30 1755 O 166.121 -0.383593 -6.00676 0
M  V30 1756 H 169.947 -1.18203 -2.79753 0
M  V30 1757 H 167.532 -0.64145 -1.34929 0
M  V30 1758 H 169.414 0.883504 -4.12034 0
M  V30 1759 H 168.089 1.25526 -2.98371 0
M  V30 1760 H 166.996 -0.975374 -3.61161 0
M  V30 1761 H 168.329 -1.26427 -4.75686 0
M  V30 1762 N 169.982 1.44106 -0.638065 0
M  V30 1763 C 171.228 2.02815 -0.15409 0
M  V30 1764 C 171.583 1.49342 1.21304 0
M  V30 1765 O 170.876 0.670699 1.79478 0
M  V30 1766 C 171.07 3.5729 -0.0887327 0
M  V30 1767 C 170.899 4.2575 -1.44799 0
M  V30 1768 C 169.669 4.62443 -2.03653 0
M  V30 1769 C 171.867 4.55746 -2.38327 0
M  V30 1770 N 169.849 5.15903 -3.32741 0
M  V30 1771 C 171.22 5.10364 -3.52036 0
M  V30 1772 C 173.275 4.37703 -2.3732 0
M  V30 1773 C 171.978 5.48837 -4.64941 0
M  V30 1774 C 174.004 4.77229 -3.49294 0
M  V30 1775 C 173.366 5.31966 -4.61726 0
M  V30 1776 H 169.465 0.775519 -0.100466 0
M  V30 1777 H 172.049 1.755 -0.843071 0
M  V30 1778 H 170.22 3.84201 0.569548 0
M  V30 1779 H 171.952 4.02671 0.404711 0
M  V30 1780 H 168.707 4.46987 -1.56523 0
M  V30 1781 H 169.131 5.47102 -3.98758 0
M  V30 1782 H 173.773 3.94671 -1.51641 0
M  V30 1783 H 171.491 5.9082 -5.51323 0
M  V30 1784 H 175.077 4.64976 -3.49698 0
M  V30 1785 H 173.957 5.61986 -5.46939 0
M  V30 1786 N 171.46 0.379036 1.52974 0
M  V30 1787 C 172.408 -0.476033 2.27677 0
M  V30 1788 C 173.402 -1.0719 1.31174 0
M  V30 1789 O 174.608 -1.01355 1.48752 0
M  V30 1790 H 170.983 -0.172255 0.732006 0
M  V30 1791 H 172.954 0.175615 2.97883 0
M  V30 1792 C 171.703 -1.5967 3.0887 0
M  V30 1793 H 171.026 -1.1475 3.82978 0
M  V30 1794 H 172.466 -2.16943 3.64296 0
M  V30 1795 C 170.925 -2.54682 2.20542 0
M  V30 1796 O 171.455 -3.57836 1.82527 0
M  V30 1797 N 169.661 -2.24183 1.84907 0
M  V30 1798 H 169.208 -1.40333 2.1602 0
M  V30 1799 H 169.166 -2.88006 1.26096 0
M  V30 1800 N 172.938 -1.57226 0.108567 0
M  V30 1801 C 173.848 -2.18292 -0.859401 0
M  V30 1802 C 174.864 -1.15612 -1.30038 0
M  V30 1803 O 176.04 -1.48039 -1.36552 0
M  V30 1804 C 173.105 -2.762 -2.09558 0
M  V30 1805 C 172.166 -3.93881 -1.70752 0
M  V30 1806 C 171.399 -4.49018 -2.88477 0
M  V30 1807 O 171.622 -4.03068 -4.036 0
M  V30 1808 O 170.556 -5.39852 -2.66164 0
M  V30 1809 H 174.382 -3.01441 -0.369769 0
M  V30 1810 H 171.967 -1.48945 -0.1165 0
M  V30 1811 H 173.849 -3.13156 -2.81978 0
M  V30 1812 H 172.524 -1.96089 -2.57548 0
M  V30 1813 H 171.431 -3.61713 -0.954714 0
M  V30 1814 H 172.764 -4.75396 -1.27513 0
M  V30 1815 N 174.416 0.165178 -1.56732 0
M  V30 1816 C 175.363 1.2044 -1.96883 0
M  V30 1817 C 176.333 1.43664 -0.833657 0
M  V30 1818 O 177.518 1.56302 -1.09427 0
M  V30 1819 C 174.658 2.53727 -2.33916 0
M  V30 1820 C 173.771 2.3783 -3.6064 0
M  V30 1821 C 172.906 3.64026 -3.86857 0
M  V30 1822 C 171.945 3.43088 -5.06909 0
M  V30 1823 N 171.082 4.61369 -5.29229 0
M  V30 1824 H 175.922 0.854996 -2.85471 0
M  V30 1825 H 173.459 0.41076 -1.41249 0
M  V30 1826 H 175.417 3.31419 -2.53411 0
M  V30 1827 H 174.047 2.8665 -1.48431 0
M  V30 1828 H 173.099 1.51282 -3.49024 0
M  V30 1829 H 174.411 2.18308 -4.4849 0
M  V30 1830 H 173.565 4.50152 -4.06753 0
M  V30 1831 H 172.304 3.86533 -2.97394 0
M  V30 1832 H 171.309 2.55349 -4.86906 0
M  V30 1833 H 172.534 3.21997 -5.97909 0
M  V30 1834 H 170.48 4.84084 -4.42718 0
M  V30 1835 H 170.397 4.44783 -6.11313 0
M  V30 1836 H 171.665 5.48761 -5.53608 0
M  V30 1837 N 175.894 1.51508 0.433938 0
M  V30 1838 C 177.14 1.64588 1.18484 0
M  V30 1839 C 177.473 0.362666 1.90784 0
M  V30 1840 O 176.748 -0.637892 1.83742 0
M  V30 1841 C 177.031 2.85149 2.19913 0
M  V30 1842 C 176.884 4.23456 1.51674 0
M  V30 1843 C 178.203 3.01227 3.20858 0
M  V30 1844 H 175.322 0.598994 0.429389 0
M  V30 1845 H 177.964 1.84002 0.473647 0
M  V30 1846 H 176.114 2.68729 2.80566 0
M  V30 1847 H 177.786 4.51552 0.943322 0
M  V30 1848 H 176.029 4.25998 0.819035 0
M  V30 1849 H 176.7 5.03812 2.2556 0
M  V30 1850 H 179.176 3.16382 2.70263 0
M  V30 1851 H 178.052 3.87141 3.89118 0
M  V30 1852 H 178.313 2.13447 3.8716 0
M  V30 1853 N 177.372 -0.689602 1.41712 0
M  V30 1854 C 178.6 -1.47827 1.44758 0
M  V30 1855 C 179.015 -1.88721 0.0545703 0
M  V30 1856 O 178.372 -1.57176 -0.927463 0
M  V30 1857 C 178.423 -2.73698 2.3616 0
M  V30 1858 O 178.144 -2.34524 3.7004 0
M  V30 1859 C 179.645 -3.67389 2.48072 0
M  V30 1860 H 176.865 -0.455357 0.49284 0
M  V30 1861 H 179.409 -0.848574 1.86063 0
M  V30 1862 H 177.564 -3.32891 1.98148 0
M  V30 1863 H 177.978 -3.15701 4.18847 0
M  V30 1864 H 179.452 -4.52475 3.16181 0
M  V30 1865 H 179.929 -4.12284 1.51388 0
M  V30 1866 H 180.535 -3.14097 2.86746 0
M  V30 1867 N 178.85 -1.27639 -0.924453 0
M  V30 1868 C 179.782 -1.06442 -2.02985 0
M  V30 1869 C 180.795 -0.0194771 -1.62788 0
M  V30 1870 O 181.984 -0.261388 -1.76576 0
M  V30 1871 C 179.084 -0.59327 -3.33667 0
M  V30 1872 C 178.257 -1.71123 -4.02537 0
M  V30 1873 C 177.316 -1.23527 -5.11495 0
M  V30 1874 O 176.342 -1.93553 -5.35281 0
M  V30 1875 N 177.544 -0.0926678 -5.80426 0
M  V30 1876 H 180.309 -2.01633 -2.2173 0
M  V30 1877 H 177.87 -1.19248 -1.09505 0
M  V30 1878 H 179.862 -0.258686 -4.03872 0
M  V30 1879 H 178.432 0.265502 -3.1147 0
M  V30 1880 H 177.652 -2.21593 -3.26022 0
M  V30 1881 H 178.94 -2.46145 -4.45298 0
M  V30 1882 H 178.338 0.491741 -5.63559 0
M  V30 1883 H 176.895 0.182714 -6.51544 0
M  V30 1884 N 180.328 1.1314 -1.09713 0
M  V30 1885 C 181.553 1.88862 -0.857081 0
M  V30 1886 C 181.978 1.78729 0.586304 0
M  V30 1887 O 181.336 1.13692 1.41222 0
M  V30 1888 C 181.384 3.36325 -1.30069 0
M  V30 1889 O 180.488 4.09815 -0.461007 0
M  V30 1890 H 179.829 0.587108 -0.310162 0
M  V30 1891 H 182.359 1.43129 -1.46203 0
M  V30 1892 H 182.369 3.87157 -1.28738 0
M  V30 1893 H 181.044 3.43017 -2.35185 0
M  V30 1894 H 179.621 3.68986 -0.538888 0
M  V30 1895 N 181.806 0.884767 1.30421 0
M  V30 1896 C 183.083 0.423185 1.90967 0
M  V30 1897 C 183.463 -1.09605 1.80416 0
M  V30 1898 O 182.811 -1.93126 1.22125 0
M  V30 1899 C 183.021 0.921056 3.36627 0
M  V30 1900 C 184.369 0.955903 4.137 0
M  V30 1901 O 185.393 0.867706 3.4547 0
M  V30 1902 O 184.252 1.08614 5.35598 0
M  V30 1903 H 181.346 0.129369 0.816819 0
M  V30 1904 H 183.892 0.973653 1.3899 0
M  V30 1905 H 182.664 1.96489 3.3839 0
M  V30 1906 H 182.287 0.349741 3.96059 0
M  V30 1907 N 183.284 -1.43765 0.645699 0
M  V30 1908 C 184.214 -2.33471 -0.0370477 0
M  V30 1909 C 185.195 -1.49042 -0.819779 0
M  V30 1910 O 186.38 -1.77726 -0.782758 0
M  V30 1911 C 183.51 -3.32311 -1.0093 0
M  V30 1912 C 182.464 -4.2667 -0.337201 0
M  V30 1913 C 181.79 -5.1549 -1.42037 0
M  V30 1914 C 183.09 -5.16657 0.765706 0
M  V30 1915 H 184.784 -2.90809 0.712069 0
M  V30 1916 H 182.33 -1.39834 0.343876 0
M  V30 1917 H 184.283 -3.9396 -1.49578 0
M  V30 1918 H 183.007 -2.73213 -1.78948 0
M  V30 1919 H 181.666 -3.66374 0.128771 0
M  V30 1920 H 181.314 -4.52735 -2.1918 0
M  V30 1921 H 181.014 -5.79438 -0.975966 0
M  V30 1922 H 182.538 -5.80012 -1.90838 0
M  V30 1923 H 183.952 -5.72158 0.361702 0
M  V30 1924 H 182.349 -5.89286 1.13413 0
M  V30 1925 H 183.419 -4.56796 1.62683 0
M  V30 1926 N 184.763 -0.387143 -1.52771 0
M  V30 1927 C 185.993 0.195585 -2.05672 0
M  V30 1928 C 186.401 1.41241 -1.25887 0
M  V30 1929 O 185.744 1.81265 -0.298081 0
M  V30 1930 C 185.806 0.632327 -3.53895 0
M  V30 1931 C 185.47 -0.470739 -4.54569 0
M  V30 1932 C 186.467 -1.32746 -5.02667 0
M  V30 1933 C 184.152 -0.637151 -4.98243 0
M  V30 1934 C 186.146 -2.33574 -5.93061 0
M  V30 1935 C 183.833 -1.64877 -5.88438 0
M  V30 1936 C 184.831 -2.49649 -6.35739 0
M  V30 1937 O 184.519 -3.49082 -7.24153 0
M  V30 1938 H 184.251 0.033658 -0.675162 0
M  V30 1939 H 186.805 -0.550221 -1.97893 0
M  V30 1940 H 185.035 1.43008 -3.59285 0
M  V30 1941 H 186.724 1.14048 -3.89548 0
M  V30 1942 H 187.49 -1.21019 -4.69659 0
M  V30 1943 H 183.369 0.0129567 -4.60998 0
M  V30 1944 H 186.913 -2.99777 -6.29904 0
M  V30 1945 H 182.81 -1.76643 -6.2086 0
M  V30 1946 H 183.578 -3.45065 -7.42208 0
M  V30 1947 N 186.241 1.57166 -0.116904 0
M  V30 1948 C 187.188 2.15202 0.83408 0
M  V30 1949 C 188.158 1.07644 1.26499 0
M  V30 1950 O 189.343 1.35541 1.34288 0
M  V30 1951 C 186.483 2.75405 2.07957 0
M  V30 1952 C 185.596 3.97264 1.69721 0
M  V30 1953 C 184.731 4.45561 2.89221 0
M  V30 1954 C 183.77 5.59956 2.47215 0
M  V30 1955 N 182.907 6.03006 3.59622 0
M  V30 1956 H 187.747 2.96141 0.332335 0
M  V30 1957 H 185.284 1.46309 0.152349 0
M  V30 1958 H 187.242 3.08439 2.80929 0
M  V30 1959 H 185.872 1.97159 2.55594 0
M  V30 1960 H 184.924 3.70404 0.866316 0
M  V30 1961 H 186.236 4.80226 1.34849 0
M  V30 1962 H 185.39 4.80493 3.7042 0
M  V30 1963 H 184.129 3.61544 3.27318 0
M  V30 1964 H 183.134 5.2463 1.64448 0
M  V30 1965 H 184.359 6.45738 2.10238 0
M  V30 1966 H 182.305 5.21931 3.97396 0
M  V30 1967 H 182.222 6.80819 3.28667 0
M  V30 1968 H 183.49 6.42576 4.41267 0
M  V30 1969 N 187.719 -0.156864 1.56817 0
M  V30 1970 C 188.666 -1.19394 1.97519 0
M  V30 1971 C 189.636 -1.4322 0.841265 0
M  V30 1972 O 190.821 -1.55719 1.10255 0
M  V30 1973 C 187.961 -2.52483 2.35258 0
M  V30 1974 C 187.074 -2.35914 3.61896 0
M  V30 1975 C 186.209 -3.61969 3.88782 0
M  V30 1976 C 185.248 -3.40395 5.08722 0
M  V30 1977 N 184.385 -4.58556 5.31668 0
M  V30 1978 H 189.225 -0.839845 2.85921 0
M  V30 1979 H 186.762 -0.403264 1.41464 0
M  V30 1980 H 188.72 -3.30071 2.55165 0
M  V30 1981 H 187.35 -2.85859 1.49949 0
M  V30 1982 H 186.402 -1.49429 3.49821 0
M  V30 1983 H 187.714 -2.15926 4.49641 0
M  V30 1984 H 186.868 -4.47989 4.09135 0
M  V30 1985 H 185.607 -3.84951 2.9944 0
M  V30 1986 H 184.612 -2.52763 4.88253 0
M  V30 1987 H 185.837 -3.18822 5.99608 0
M  V30 1988 H 183.783 -4.81729 4.45279 0
M  V30 1989 H 183.7 -4.41535 6.13664 0
M  V30 1990 H 184.968 -5.45817 5.5651 0
M  V30 1991 N 189.197 -1.51736 -0.425897 0
M  V30 1992 C 190.425 -1.68794 -1.1965 0
M  V30 1993 C 190.84 -0.390164 -1.84725 0
M  V30 1994 O 190.197 0.632376 -1.71194 0
M  V30 1995 C 190.248 -2.81174 -2.27208 0
M  V30 1996 O 189.969 -4.05925 -1.64793 0
M  V30 1997 C 191.47 -3.09599 -3.17275 0
M  V30 1998 H 188.69 -0.566128 -0.360194 0
M  V30 1999 H 191.234 -1.98211 -0.503249 0
M  V30 2000 H 189.389 -2.54324 -2.9223 0
M  V30 2001 H 189.803 -4.68423 -2.35967 0
M  V30 2002 H 191.277 -3.91786 -3.88854 0
M  V30 2003 H 191.754 -2.22468 -3.78688 0
M  V30 2004 H 192.36 -3.38151 -2.57941 0
M  V30 2005 N 190.675 0.682077 -1.42076 0
M  V30 2006 C 191.607 1.80755 -1.40926 0
M  V30 2007 C 192.62 1.59833 -0.309398 0
M  V30 2008 O 193.809 1.69087 -0.572014 0
M  V30 2009 C 190.909 3.17744 -1.17865 0
M  V30 2010 C 190.082 3.65578 -2.40149 0
M  V30 2011 C 189.141 4.81277 -2.12742 0
M  V30 2012 O 188.167 4.92197 -2.85887 0
M  V30 2013 N 189.369 5.69474 -1.12602 0
M  V30 2014 H 192.134 1.82229 -2.37935 0
M  V30 2015 H 189.695 0.864903 -1.36861 0
M  V30 2016 H 191.687 3.9279 -0.9746 0
M  V30 2017 H 190.257 3.11214 -0.294068 0
M  V30 2018 H 189.477 2.81291 -2.76169 0
M  V30 2019 H 190.765 3.94278 -3.21593 0
M  V30 2020 H 190.163 5.63297 -0.520899 0
M  V30 2021 H 188.72 6.44363 -0.981842 0
M  V30 2022 N 192.153 1.28127 0.917671 0
M  V30 2023 C 193.063 1.13556 2.05286 0
M  V30 2024 C 194.079 0.0630914 1.73886 0
M  V30 2025 O 195.255 0.271598 1.9956 0
M  V30 2026 C 192.32 0.794676 3.3747 0
M  V30 2027 C 191.381 1.94909 3.82504 0
M  V30 2028 C 190.614 1.62437 5.0838 0
M  V30 2029 O 190.837 0.536905 5.67867 0
M  V30 2030 O 189.771 2.46677 5.4903 0
M  V30 2031 H 193.597 2.08844 2.20495 0
M  V30 2032 H 191.182 1.07409 1.03845 0
M  V30 2033 H 193.064 0.618344 4.16839 0
M  V30 2034 H 191.739 -0.128581 3.23445 0
M  V30 2035 H 190.646 2.18055 3.03978 0
M  V30 2036 H 191.979 2.85291 4.01086 0
M  V30 2037 N 193.631 -1.12557 1.10312 0
M  V30 2038 C 194.859 -1.87864 0.866873 0
M  V30 2039 C 195.274 -1.79588 -0.582557 0
M  V30 2040 O 194.631 -1.16887 -1.40156 0
M  V30 2041 C 194.682 -3.37125 1.30496 0
M  V30 2042 O 194.403 -3.45201 2.69755 0
M  V30 2043 C 195.904 -4.29373 1.10243 0
M  V30 2044 H 193.124 -0.594452 0.311236 0
M  V30 2045 H 195.668 -1.42429 1.46745 0
M  V30 2046 H 193.823 -3.80109 0.748081 0
M  V30 2047 H 194.237 -4.38056 2.88457 0
M  V30 2048 H 195.711 -5.32394 1.45811 0
M  V30 2049 H 196.188 -4.39181 0.0409492 0
M  V30 2050 H 196.794 -3.92169 1.64571 0
M  V30 2051 N 195.109 -0.891671 -1.2995 0
M  V30 2052 C 196.039 -0.379797 -2.30391 0
M  V30 2053 C 197.02 0.540919 -1.6127 0
M  V30 2054 O 198.205 0.453352 -1.88834 0
M  V30 2055 C 195.335 0.400654 -3.44981 0
M  V30 2056 C 194.289 -0.428905 -4.25846 0
M  V30 2057 C 193.615 0.478557 -5.32554 0
M  V30 2058 C 194.915 -1.67458 -4.94727 0
M  V30 2059 H 196.609 -1.21914 -2.73454 0
M  V30 2060 H 194.155 -0.587675 -1.31462 0
M  V30 2061 H 196.108 0.769434 -4.14316 0
M  V30 2062 H 194.832 1.27371 -3.0074 0
M  V30 2063 H 193.491 -0.779911 -3.58208 0
M  V30 2064 H 193.139 1.34951 -4.84559 0
M  V30 2065 H 192.839 -0.0727433 -5.87555 0
M  V30 2066 H 194.363 0.843705 -6.04743 0
M  V30 2067 H 195.777 -1.376 -5.56542 0
M  V30 2068 H 194.174 -2.16659 -5.59624 0
M  V30 2069 H 195.244 -2.41518 -4.20473 0
M  V30 2070 N 196.587 1.43421 -0.653314 0
M  V30 2071 C 197.812 2.06678 -0.172846 0
M  V30 2072 C 198.237 1.48648 1.15262 0
M  V30 2073 O 197.595 0.596457 1.71208 0
M  V30 2074 C 197.643 3.60474 -0.0953184 0
M  V30 2075 O 196.747 4.01487 0.942442 0
M  V30 2076 H 196.088 0.657181 -0.0949155 0
M  V30 2077 H 198.618 1.83925 -0.896265 0
M  V30 2078 H 198.628 4.07905 0.0879728 0
M  V30 2079 H 197.303 4.02088 -1.06291 0
M  V30 2080 H 195.88 3.65646 0.731932 0
M  V30 2081 N 198.065 0.39524 1.52563 0
M  V30 2082 C 198.997 -0.472201 2.24283 0
M  V30 2083 C 200.01 -1.02178 1.26742 0
M  V30 2084 O 201.199 -0.923097 1.52778 0
M  V30 2085 C 198.299 -1.66775 2.95024 0
M  V30 2086 C 197.472 -1.2445 4.19322 0
M  V30 2087 C 196.531 -2.30539 4.7301 0
M  V30 2088 O 195.557 -1.91702 5.35947 0
M  V30 2089 N 196.759 -3.6253 4.53379 0
M  V30 2090 H 199.524 0.142282 2.99362 0
M  V30 2091 H 197.085 0.2219 1.60372 0
M  V30 2092 H 199.077 -2.37283 3.27839 0
M  V30 2093 H 197.647 -2.18845 2.23217 0
M  V30 2094 H 196.867 -0.368069 3.92478 0
M  V30 2095 H 198.155 -0.938457 5.0007 0
M  V30 2096 H 197.553 -3.96841 4.03154 0
M  V30 2097 H 196.11 -4.29055 4.90668 0
M  V30 2098 N 199.544 -1.57102 0.125237 0
M  V30 2099 C 200.507 -2.14471 -0.80838 0
M  V30 2100 C 201.507 -1.0811 -1.19033 0
M  V30 2101 O 202.697 -1.33856 -1.11482 0
M  V30 2102 C 199.829 -2.69005 -2.09402 0
M  V30 2103 H 201.022 -2.98297 -0.309696 0
M  V30 2104 H 198.575 -1.55807 -0.124051 0
M  V30 2105 H 199.31 -1.88785 -2.63687 0
M  V30 2106 H 199.095 -3.46799 -1.82957 0
M  V30 2107 H 200.585 -3.13278 -2.76128 0
M  V30 2108 N 201.022 0.148545 -1.56898 0
M  V30 2109 C 202.27 0.859717 -1.82902 0
M  V30 2110 C 202.591 1.81775 -0.70588 0
M  V30 2111 O 201.861 1.93994 0.272586 0
M  V30 2112 H 200.441 0.320469 -0.674766 0
M  V30 2113 H 203.103 0.142918 -1.94375 0
M  V30 2114 H 202.199 1.4229 -2.77777 0
M  V30 2115 N 202.5 1.5196 0.417844 0
M  V30 2116 C 203.432 1.70895 1.52733 0
M  V30 2117 C 204.445 0.589405 1.51756 0
M  V30 2118 O 205.634 0.864312 1.56179 0
M  V30 2119 C 202.734 1.72627 2.91639 0
M  V30 2120 C 201.907 3.01479 3.16905 0
M  V30 2121 C 200.966 2.95139 4.35637 0
M  V30 2122 O 199.992 3.69059 4.3334 0
M  V30 2123 N 201.194 2.12328 5.40275 0
M  V30 2124 H 203.959 2.66612 1.36888 0
M  V30 2125 H 201.52 1.50089 0.607037 0
M  V30 2126 H 203.512 1.65928 3.6912 0
M  V30 2127 H 202.082 0.844216 3.00985 0
M  V30 2128 H 201.302 3.21895 2.27546 0
M  V30 2129 H 202.59 3.86736 3.30625 0
M  V30 2130 H 201.988 1.51685 5.44985 0
M  V30 2131 H 200.545 2.11494 6.16534 0
M  V30 2132 N 203.978 -0.674533 1.42435 0
M  V30 2133 C 204.925 -1.78807 1.45934 0
M  V30 2134 C 205.895 -1.63157 0.311271 0
M  V30 2135 O 207.08 -1.83707 0.515383 0
M  V30 2136 C 204.22 -3.16839 1.36773 0
M  V30 2137 C 203.333 -3.43774 2.61617 0
M  V30 2138 C 202.468 -4.71536 2.44597 0
M  V30 2139 C 201.507 -4.91505 3.64814 0
M  V30 2140 N 200.644 -6.10508 3.46734 0
M  V30 2141 H 205.484 -1.75151 2.41093 0
M  V30 2142 H 203.021 -0.85504 1.19697 0
M  V30 2143 H 204.979 -3.96606 1.29459 0
M  V30 2144 H 203.609 -3.19619 0.452089 0
M  V30 2145 H 202.661 -2.58259 2.79297 0
M  V30 2146 H 203.973 -3.54423 3.50978 0
M  V30 2147 H 203.127 -5.59393 2.3487 0
M  V30 2148 H 201.866 -4.6317 1.52726 0
M  V30 2149 H 200.871 -4.0209 3.74972 0
M  V30 2150 H 202.096 -5.01716 4.57665 0
M  V30 2151 H 200.042 -6.03315 2.5758 0
M  V30 2152 H 199.959 -6.2202 4.29682 0
M  V30 2153 H 201.227 -7.01044 3.40819 0
M  V30 2154 N 205.456 -1.28612 -0.910864 0
M  V30 2155 C 206.684 -1.18792 -1.69399 0
M  V30 2156 C 207.099 0.253039 -1.87097 0
M  V30 2157 O 206.456 1.17071 -1.40003 0
M  V30 2158 C 206.507 -1.88511 -3.08457 0
M  V30 2159 O 206.228 -3.26979 -2.91576 0
M  V30 2160 C 207.729 -1.85029 -4.02839 0
M  V30 2161 H 204.949 -0.412233 -0.529438 0
M  V30 2162 H 207.493 -1.69788 -1.13984 0
M  V30 2163 H 205.648 -1.41379 -3.60681 0
M  V30 2164 H 206.062 -3.61936 -3.79608 0
M  V30 2165 H 207.536 -2.38395 -4.97867 0
M  V30 2166 H 208.013 -0.823303 -4.31414 0
M  V30 2167 H 208.619 -2.31853 -3.56545 0
M  V30 2168 N 206.934 1.1197 -1.10907 0
M  V30 2169 C 208.159 1.87942 -0.877064 0
M  V30 2170 C 208.584 1.79341 0.567314 0
M  V30 2171 O 207.942 1.15184 1.40009 0
M  V30 2172 C 207.99 3.34926 -1.33629 0
M  V30 2173 O 207.094 4.09303 -0.504447 0
M  V30 2174 H 206.435 0.583785 -0.316371 0
M  V30 2175 H 208.965 1.4157 -1.47712 0
M  V30 2176 H 208.975 3.8577 -1.32837 0
M  V30 2177 H 207.65 3.40504 -2.3881 0
M  V30 2178 H 206.227 3.68393 -0.577993 0
M  V30 2179 N 208.412 0.89855 1.29475 0
M  V30 2180 C 209.375 0.380272 2.26023 0
M  V30 2181 C 210.375 -0.484891 1.53315 0
M  V30 2182 O 211.565 -0.290108 1.71767 0
M  V30 2183 C 208.697 -0.45651 3.3783 0
M  V30 2184 H 209.89 1.23295 2.73383 0
M  V30 2185 H 207.443 0.676589 1.40897 0
M  V30 2186 H 208.178 -1.32922 2.95808 0
M  V30 2187 H 207.963 0.163393 3.91759 0
M  V30 2188 H 209.453 -0.810466 4.0966 0
M  V30 2189 N 209.89 -1.43072 0.660911 0
M  V30 2190 C 210.853 -2.29194 -0.0166406 0
M  V30 2191 C 211.853 -1.42609 -0.742912 0
M  V30 2192 O 213.043 -1.64155 -0.583004 0
M  V30 2193 C 210.175 -3.24831 -1.0343 0
M  V30 2194 H 211.368 -2.90596 0.741208 0
M  V30 2195 H 208.921 -1.5048 0.422532 0
M  V30 2196 H 209.656 -2.68339 -1.82111 0
M  V30 2197 H 209.441 -3.88676 -0.517082 0
M  V30 2198 H 210.931 -3.89451 -1.50723 0
M  V30 2199 N 211.368 -0.403325 -1.52352 0
M  V30 2200 C 212.298 0.416205 -2.29761 0
M  V30 2201 C 213.279 1.05123 -1.33728 0
M  V30 2202 O 214.464 1.06134 -1.62632 0
M  V30 2203 C 211.594 1.53624 -3.11475 0
M  V30 2204 C 210.548 1.02653 -4.15507 0
M  V30 2205 C 209.874 2.23971 -4.85532 0
M  V30 2206 C 211.174 0.08463 -5.22231 0
M  V30 2207 H 212.868 -0.229701 -2.98518 0
M  V30 2208 H 210.414 -0.111913 -1.43564 0
M  V30 2209 H 212.367 2.1165 -3.64393 0
M  V30 2210 H 211.091 2.20994 -2.40477 0
M  V30 2211 H 209.75 0.46871 -3.63591 0
M  V30 2212 H 209.398 2.89883 -4.11068 0
M  V30 2213 H 209.098 1.90521 -5.55856 0
M  V30 2214 H 210.622 2.82614 -5.41259 0
M  V30 2215 H 212.036 0.573509 -5.70424 0
M  V30 2216 H 210.433 -0.160783 -5.99885 0
M  V30 2217 H 211.503 -0.86237 -4.7717 0
M  V30 2218 N 212.846 1.57033 -0.133567 0
M  V30 2219 C 214.071 2.00475 0.531477 0
M  V30 2220 C 214.496 1.01291 1.58499 0
M  V30 2221 O 213.854 -0.0133279 1.81295 0
M  V30 2222 C 213.902 3.42729 1.12113 0
M  V30 2223 O 213.006 3.46498 2.23636 0
M  V30 2224 H 212.347 0.650876 0.131362 0
M  V30 2225 H 214.877 2.03344 -0.22634 0
M  V30 2226 H 214.887 3.81246 1.4531 0
M  V30 2227 H 213.562 4.14428 0.349557 0
M  V30 2228 H 212.139 3.19811 1.91769 0
M  V30 2229 N 214.325 -0.140222 1.56975 0
M  V30 2230 C 215.553 -0.866437 1.87884 0
M  V30 2231 C 215.968 -1.74428 0.722517 0
M  V30 2232 O 215.325 -1.79891 -0.30749 0
M  V30 2233 C 215.376 -1.71753 3.18093 0
M  V30 2234 O 215.097 -0.875056 4.29272 0
M  V30 2235 C 216.598 -2.55074 3.62563 0
M  V30 2236 H 213.818 -0.25019 0.622612 0
M  V30 2237 H 216.362 -0.130977 2.0408 0
M  V30 2238 H 214.517 -2.40598 3.03631 0
M  V30 2239 H 214.931 -1.46002 5.03769 0
M  V30 2240 H 216.405 -3.10356 4.5649 0
M  V30 2241 H 216.882 -3.31434 2.88181 0
M  V30 2242 H 217.488 -1.91509 3.79743 0
M  V30 2243 N 215.803 -1.52179 -0.40978 0
M  V30 2244 C 217.049 -1.66453 -1.15851 0
M  V30 2245 C 217.382 -0.392972 -1.90182 0
M  V30 2246 O 216.657 0.608579 -1.84734 0
M  V30 2247 C 216.94 -2.88612 -2.15349 0
M  V30 2248 C 216.793 -4.25815 -1.44918 0
M  V30 2249 C 218.112 -3.06294 -3.16026 0
M  V30 2250 H 215.231 -0.60575 -0.419805 0
M  V30 2251 H 217.873 -1.84732 -0.444314 0
M  V30 2252 H 216.023 -2.73158 -2.76255 0
M  V30 2253 H 217.695 -4.52995 -0.871365 0
M  V30 2254 H 215.938 -4.27247 -0.751159 0
M  V30 2255 H 216.609 -5.07337 -2.17516 0
M  V30 2256 H 219.085 -3.20641 -2.65195 0
M  V30 2257 H 217.961 -3.93283 -3.8291 0
M  V30 2258 H 218.222 -2.19579 -3.83715 0
M  V30 2259 N 217.281 0.66697 -1.42791 0
M  V30 2260 C 218.529 1.42417 -1.43394 0
M  V30 2261 C 218.85 1.94925 -0.0542373 0
M  V30 2262 O 218.12 1.73564 0.908415 0
M  V30 2263 H 216.7 0.528515 -0.527902 0
M  V30 2264 H 219.362 0.787562 -1.78279 0
M  V30 2265 H 218.458 2.27333 -2.13837 0
M  V30 2266 N 218.759 1.29093 0.90403 0
M  V30 2267 C 219.984 1.19809 1.69294 0
M  V30 2268 C 220.409 -0.238481 1.86582 0
M  V30 2269 O 219.767 -1.1723 1.383 0
M  V30 2270 C 219.815 1.91202 3.05736 0
M  V30 2271 O 218.919 1.22611 3.93752 0
M  V30 2272 H 218.26 0.415385 0.518027 0
M  V30 2273 H 220.79 1.70586 1.12967 0
M  V30 2274 H 220.8 1.99487 3.55906 0
M  V30 2275 H 219.475 2.95692 2.92471 0
M  V30 2276 H 218.052 1.22554 3.52186 0
M  V30 2277 N 220.237 -1.11381 1.11499 0
M  V30 2278 C 221.2 -2.15622 0.777153 0
M  V30 2279 C 222.2 -1.59504 -0.203779 0
M  V30 2280 O 223.39 -1.74188 0.020782 0
M  V30 2281 C 220.522 -3.40556 0.153116 0
M  V30 2282 H 221.715 -2.47021 1.70061 0
M  V30 2283 H 219.268 -1.26577 0.916952 0
M  V30 2284 H 220.003 -3.14767 -0.780536 0
M  V30 2285 H 219.788 -3.8257 0.859238 0
M  V30 2286 H 221.278 -4.17546 -0.0671044 0
M  V30 2287 N 221.715 -0.905404 -1.28997 0
M  V30 2288 C 222.964 -0.530191 -1.94607 0
M  V30 2289 C 223.277 0.929185 -1.72121 0
M  V30 2290 O 224.483 1.41218 -2.31883 0
M  V30 2291 C 222.939 -0.897333 -3.48534 0
M  V30 2292 C 222.547 -2.37587 -3.79811 0
M  V30 2293 C 224.291 -0.592304 -4.20347 0
M  V30 2294 C 222.198 -2.68357 -5.27009 0
M  V30 2295 H 221.128 -0.194558 -0.728466 0
M  V30 2296 H 223.779 -1.10318 -1.46636 0
M  V30 2297 H 222.161 -0.253214 -3.9519 0
M  V30 2298 H 223.335 -3.06602 -3.43994 0
M  V30 2299 H 221.65 -2.6505 -3.2115 0
M  V30 2300 H 224.247 -0.798975 -5.28697 0
M  V30 2301 H 224.59 0.469474 -4.13644 0
M  V30 2302 H 225.123 -1.19452 -3.79442 0
M  V30 2303 H 221.862 -3.73355 -5.38782 0
M  V30 2304 H 221.382 -2.03971 -5.64053 0
M  V30 2305 H 223.061 -2.54922 -5.94663 0
M  V30 2306 N 223.193 1.4272 -0.668489 0
M  V30 2307 C 224.418 2.06484 -0.194758 0
M  V30 2308 C 224.843 1.49862 1.13679 0
M  V30 2309 O 224.201 0.614582 1.70565 0
M  V30 2310 C 224.249 3.60353 -0.133546 0
M  V30 2311 O 223.353 4.02464 0.899806 0
M  V30 2312 H 222.694 0.656137 -0.10188 0
M  V30 2313 H 225.224 1.82964 -0.915722 0
M  V30 2314 H 225.234 4.07976 0.0447041 0
M  V30 2315 H 223.909 4.00938 -1.1055 0
M  V30 2316 H 222.486 3.66402 0.693109 0
M  V30 2317 N 224.671 0.411399 1.52136 0
M  V30 2318 C 226.087 0.0623865 1.59478 0
M  V30 2319 C 226.287 -1.42554 1.4241 0
M  V30 2320 O 225.343 -2.19263 1.2522 0
M  V30 2321 C 226.656 0.559331 2.95452 0
M  V30 2322 C 228.204 0.517503 3.08692 0
M  V30 2323 C 228.679 0.990994 4.4715 0
M  V30 2324 N 230.17 0.947908 4.53397 0
M  V30 2325 C 230.905 1.28544 5.58806 0
M  V30 2326 N 230.401 1.69454 6.71757 0
M  V30 2327 N 232.194 1.20526 5.49026 0
M  V30 2328 H 224.345 1.37982 1.61477 0
M  V30 2329 H 226.608 0.566977 0.759764 0
M  V30 2330 H 226.314 1.59938 3.1323 0
M  V30 2331 H 226.188 -0.0298014 3.77188 0
M  V30 2332 H 228.575 -0.513505 2.90598 0
M  V30 2333 H 228.656 1.14272 2.28857 0
M  V30 2334 H 228.3 2.02034 4.65988 0
M  V30 2335 H 228.23 0.34257 5.25485 0
M  V30 2336 H 230.721 0.647157 3.72317 0
M  V30 2337 H 231.034 1.93513 7.48179 0
M  V30 2338 H 229.379 1.73359 6.73032 0
M  V30 2339 H 232.57 0.884505 4.59667 0
M  V30 2340 H 232.743 1.47161 6.31069 0
M  V30 2341 N 226.149 -1.5696 0.141893 0
M  V30 2342 C 227.096 -2.16501 -0.799737 0
M  V30 2343 C 228.066 -1.09643 -1.24771 0
M  V30 2344 O 229.251 -1.3766 -1.32115 0
M  V30 2345 C 226.391 -2.78679 -2.03549 0
M  V30 2346 C 225.504 -3.99914 -1.6338 0
M  V30 2347 C 224.639 -4.50106 -2.82096 0
M  V30 2348 C 223.678 -5.63819 -2.38275 0
M  V30 2349 N 222.815 -6.08651 -3.49983 0
M  V30 2350 H 227.655 -2.96632 -0.285179 0
M  V30 2351 H 225.192 -1.46533 -0.129053 0
M  V30 2352 H 227.15 -3.1287 -2.75986 0
M  V30 2353 H 225.78 -2.012 -2.52425 0
M  V30 2354 H 224.832 -3.71735 -0.807279 0
M  V30 2355 H 226.144 -4.82311 -1.27192 0
M  V30 2356 H 225.298 -4.86325 -3.62729 0
M  V30 2357 H 224.037 -3.66706 -3.21525 0
M  V30 2358 H 223.042 -5.2718 -1.56081 0
M  V30 2359 H 224.267 -6.49 -1.99938 0
M  V30 2360 H 222.213 -5.28188 -3.89042 0
M  V30 2361 H 222.13 -6.85961 -3.17794 0
M  V30 2362 H 223.398 -6.49515 -4.30988 0
M  V30 2363 N 227.627 0.131896 -1.57047 0
M  V30 2364 C 228.557 1.16384 -2.02428 0
M  V30 2365 C 229.538 1.43936 -0.90644 0
M  V30 2366 O 230.723 1.54599 -1.17528 0
M  V30 2367 C 227.853 2.49328 -2.4177 0
M  V30 2368 C 226.807 2.36266 -3.56879 0
M  V30 2369 C 226.133 3.74057 -3.8208 0
M  V30 2370 C 227.433 1.834 -4.89042 0
M  V30 2371 H 229.127 0.786433 -2.88887 0
M  V30 2372 H 226.673 0.376855 -1.38981 0
M  V30 2373 H 228.626 3.21759 -2.7212 0
M  V30 2374 H 227.35 2.88934 -1.52266 0
M  V30 2375 H 226.009 1.66286 -3.26718 0
M  V30 2376 H 225.657 4.11125 -2.89803 0
M  V30 2377 H 225.357 3.66174 -4.59554 0
M  V30 2378 H 226.881 4.48012 -4.1487 0
M  V30 2379 H 228.295 2.45636 -5.18011 0
M  V30 2380 H 226.692 1.8637 -5.70426 0
M  V30 2381 H 227.762 0.790662 -4.7841 0
M  V30 2382 N 229.106 1.52395 0.401703 0
M  V30 2383 C 230.354 1.66488 1.14569 0
M  V30 2384 C 230.675 0.400897 1.90835 0
M  V30 2385 O 229.945 -0.584415 1.8698 0
M  V30 2386 H 228.525 0.613672 0.425929 0
M  V30 2387 H 231.187 1.89464 0.457093 0
M  V30 2388 H 230.283 2.50942 1.85566 0
M  V30 2389 N 230.584 -0.659388 1.43143 0
M  V30 2390 C 231.861 -1.41627 1.34912 0
M  V30 2391 C 232.241 -2.11099 -0.00607785 0
M  V30 2392 O 231.589 -2.04353 -1.02236 0
M  V30 2393 C 231.799 -2.40604 2.52805 0
M  V30 2394 C 233.147 -3.04789 2.95616 0
M  V30 2395 O 234.171 -2.50932 2.52807 0
M  V30 2396 O 233.03 -4.02421 3.69756 0
M  V30 2397 H 230.124 -0.63246 0.532844 0
M  V30 2398 H 232.67 -0.686814 1.5518 0
M  V30 2399 H 231.442 -1.88174 3.43083 0
M  V30 2400 H 231.065 -3.21009 2.34604 0
M  V30 2401 N 232.062 -1.29571 -0.897171 0
M  V30 2402 C 232.995 -1.0924 -2.00354 0
M  V30 2403 C 233.973 -0.00354011 -1.626 0
M  V30 2404 O 235.157 -0.15473 -1.87864 0
M  V30 2405 C 232.284 -0.66352 -3.32137 0
M  V30 2406 C 231.33 -1.75146 -3.88878 0
M  V30 2407 S 232.163 -3.35124 -4.17674 0
M  V30 2408 C 233.319 -2.9411 -5.52494 0
M  V30 2409 H 233.552 -2.02907 -2.17292 0
M  V30 2410 H 231.085 -1.13746 -1.04408 0
M  V30 2411 H 233.043 -0.422791 -4.08317 0
M  V30 2412 H 231.704 0.253588 -3.13075 0
M  V30 2413 H 230.897 -1.40337 -4.84068 0
M  V30 2414 H 230.499 -1.94584 -3.19395 0
M  V30 2415 H 232.791 -2.41312 -6.33068 0
M  V30 2416 H 233.734 -3.88161 -5.9223 0
M  V30 2417 H 234.142 -2.32332 -5.14473 0
M  V30 2418 N 233.54 1.10788 -1.12088 0
M  V30 2419 C 234.956 1.34691 -0.856186 0
M  V30 2420 C 235.156 1.94791 0.515615 0
M  V30 2421 O 234.212 2.18524 1.26505 0
M  V30 2422 C 235.525 2.27208 -1.9697 0
M  V30 2423 C 237.073 2.40755 -2.00016 0
M  V30 2424 C 237.548 3.36598 -3.1059 0
M  V30 2425 N 239.039 3.44164 -3.10008 0
M  V30 2426 C 239.774 4.18284 -3.92206 0
M  V30 2427 N 239.27 4.95322 -4.84384 0
M  V30 2428 N 241.063 4.13865 -3.80357 0
M  V30 2429 H 233.214 0.70144 -2.00483 0
M  V30 2430 H 235.477 0.371405 -0.872217 0
M  V30 2431 H 235.183 1.90251 -2.958 0
M  V30 2432 H 235.057 3.27485 -1.87172 0
M  V30 2433 H 237.444 2.76982 -1.01808 0
M  V30 2434 H 237.525 1.40305 -2.13888 0
M  V30 2435 H 237.169 3.01096 -4.09028 0
M  V30 2436 H 237.099 4.36918 -2.93956 0
M  V30 2437 H 239.59 2.8922 -2.43228 0
M  V30 2438 H 239.903 5.49267 -5.43623 0
M  V30 2439 H 238.248 4.94459 -4.884 0
M  V30 2440 H 241.439 3.52773 -3.07683 0
M  V30 2441 H 241.612 4.71372 -4.44649 0
M  V30 2442 N 235.018 0.912232 1.28515 0
M  V30 2443 C 235.966 0.389597 2.29314 0
M  V30 2444 C 236.96 -0.517915 1.61289 0
M  V30 2445 O 238.166 -0.399328 1.75515 0
M  V30 2446 H 234.541 0.107386 0.744293 0
M  V30 2447 H 236.512 1.25286 2.70825 0
M  V30 2448 C 235.261 -0.356496 3.45868 0
M  V30 2449 H 234.584 0.332608 3.98414 0
M  V30 2450 H 236.024 -0.686851 4.184 0
M  V30 2451 C 234.483 -1.56383 2.98406 0
M  V30 2452 O 235.013 -2.66294 3.00749 0
M  V30 2453 N 233.219 -1.41029 2.54085 0
M  V30 2454 H 232.766 -0.516089 2.52377 0
M  V30 2455 H 232.724 -2.21939 2.22689 0
M  V30 2456 N 236.496 -1.42363 0.676048 0
M  V30 2457 C 237.721 -2.06377 0.205705 0
M  V30 2458 C 238.146 -1.50463 -1.12883 0
M  V30 2459 O 237.504 -0.623619 -1.70237 0
M  V30 2460 C 237.552 -3.60277 0.152655 0
M  V30 2461 O 236.656 -4.02935 -0.87845 0
M  V30 2462 H 235.997 -0.655588 0.105359 0
M  V30 2463 H 238.527 -1.82475 0.925412 0
M  V30 2464 H 238.537 -4.07993 -0.0230675 0
M  V30 2465 H 237.212 -4.00346 1.12675 0
M  V30 2466 H 235.789 -3.66764 -0.673668 0
M  V30 2467 N 237.974 -0.419461 -1.51915 0
M  V30 2468 C 238.937 0.389116 -2.25873 0
M  V30 2469 C 239.937 0.964924 -1.28631 0
M  V30 2470 O 241.127 0.842179 -1.52489 0
M  V30 2471 C 238.259 1.54874 -3.03689 0
M  V30 2472 H 239.452 -0.258799 -2.98781 0
M  V30 2473 H 237.005 -0.172209 -1.55348 0
M  V30 2474 H 237.74 2.23323 -2.35154 0
M  V30 2475 H 237.525 1.14223 -3.75094 0
M  V30 2476 H 239.015 2.12046 -3.59759 0
M  V30 2477 N 239.452 1.56882 -0.150215 0
M  V30 2478 C 240.68 2.00593 0.506948 0
M  V30 2479 C 241.095 1.03033 1.58208 0
M  V30 2480 O 240.452 0.0278396 1.82479 0
M  V30 2481 C 240.503 3.44209 1.10465 0
M  V30 2482 O 240.224 4.3804 0.0724636 0
M  V30 2483 C 241.725 4.03214 1.84211 0
M  V30 2484 H 238.945 0.65795 0.13169 0
M  V30 2485 H 241.489 2.03018 -0.245743 0
M  V30 2486 H 239.644 3.42625 1.80795 0
M  V30 2487 H 240.058 5.22007 0.510793 0
M  V30 2488 H 241.532 5.0569 2.21318 0
M  V30 2489 H 242.009 3.44107 2.72923 0
M  V30 2490 H 242.615 4.08437 1.18572 0
M  V30 2491 N 240.93 -0.123565 1.57115 0
M  V30 2492 C 242.177 -0.832153 1.84612 0
M  V30 2493 C 242.505 -1.80093 0.734627 0
M  V30 2494 O 241.76 -1.93766 -0.27442 0
M  V30 2495 C 242.059 -1.62016 3.18568 0
M  V30 2496 C 241.725 -0.796084 4.43817 0
M  V30 2497 C 240.387 -0.568816 4.77826 0
M  V30 2498 C 242.739 -0.221364 5.2073 0
M  V30 2499 C 240.067 0.243499 5.86194 0
M  V30 2500 C 242.419 0.578117 6.29953 0
M  V30 2501 C 241.083 0.815744 6.62497 0
M  V30 2502 H 240.353 -0.304507 0.675542 0
M  V30 2503 H 243 -0.0947248 1.91266 0
M  V30 2504 H 241.305 -2.42837 3.0747 0
M  V30 2505 H 243.002 -2.17231 3.37064 0
M  V30 2506 H 239.592 -0.983307 4.17168 0
M  V30 2507 H 243.776 -0.384173 4.94811 0
M  V30 2508 H 239.032 0.436871 6.09837 0
M  V30 2509 H 243.206 1.03046 6.88734 0
M  V30 2510 H 240.833 1.44701 7.46301 0
M  V30 2511 N 242.408 -1.52605 -0.393616 0
M  V30 2512 C 243.355 -1.77055 -1.48054 0
M  V30 2513 C 244.325 -0.61358 -1.54352 0
M  V30 2514 O 245.51 -0.852806 -1.70681 0
M  V30 2515 C 242.65 -1.94108 -2.85335 0
M  V30 2516 C 241.763 -3.21792 -2.88226 0
M  V30 2517 C 240.898 -3.29188 -4.16904 0
M  V30 2518 C 239.937 -4.51013 -4.13828 0
M  V30 2519 N 239.074 -4.55716 -5.34105 0
M  V30 2520 H 243.914 -2.69815 -1.26506 0
M  V30 2521 H 241.451 -1.33683 -0.61379 0
M  V30 2522 H 243.409 -2.01979 -3.65049 0
M  V30 2523 H 242.039 -1.04713 -3.05344 0
M  V30 2524 H 241.091 -3.23015 -2.00911 0
M  V30 2525 H 242.403 -4.11557 -2.8182 0
M  V30 2526 H 241.557 -3.36216 -5.05018 0
M  V30 2527 H 240.296 -2.37389 -4.26026 0
M  V30 2528 H 239.301 -4.44115 -3.24102 0
M  V30 2529 H 240.526 -5.44123 -4.06333 0
M  V30 2530 H 238.472 -3.66807 -5.43865 0
M  V30 2531 H 238.389 -5.39346 -5.29756 0
M  V30 2532 H 239.657 -4.66993 -6.2413 0
M  V30 2533 N 243.887 0.651787 -1.4349 0
M  V30 2534 C 245.112 1.44434 -1.48841 0
M  V30 2535 C 245.537 1.8779 -0.107955 0
M  V30 2536 O 244.895 1.57464 0.898602 0
M  V30 2537 C 244.943 2.65458 -2.44059 0
M  V30 2538 O 244.047 3.64566 -1.92784 0
M  V30 2539 H 243.388 0.433005 -0.503391 0
M  V30 2540 H 245.918 0.797451 -1.88419 0
M  V30 2541 H 245.928 3.13255 -2.6141 0
M  V30 2542 H 244.603 2.33244 -3.4434 0
M  V30 2543 H 243.18 3.23716 -1.851 0
M  V30 2544 N 245.365 1.30045 0.890287 0
M  V30 2545 C 246.612 1.18561 1.64163 0
M  V30 2546 C 246.94 -0.260852 1.92743 0
M  V30 2547 O 246.195 -1.20376 1.54299 0
M  V30 2548 C 246.494 1.95409 2.99249 0
M  V30 2549 C 246.16 3.45066 2.90242 0
M  V30 2550 C 244.822 3.85878 2.87492 0
M  V30 2551 C 247.174 4.4039 2.78758 0
M  V30 2552 C 244.502 5.20314 2.7109 0
M  V30 2553 C 246.854 5.74928 2.63894 0
M  V30 2554 C 245.518 6.14986 2.59516 0
M  V30 2555 H 244.788 0.433846 0.600715 0
M  V30 2556 H 247.435 1.61088 1.03552 0
M  V30 2557 H 245.74 1.45501 3.63781 0
M  V30 2558 H 247.437 1.8392 3.56334 0
M  V30 2559 H 244.027 3.12631 2.93189 0
M  V30 2560 H 248.211 4.09806 2.79952 0
M  V30 2561 H 243.467 5.50449 2.66112 0
M  V30 2562 H 247.641 6.48434 2.53981 0
M  V30 2563 H 245.268 7.19104 2.46565 0
M  V30 2564 N 246.843 -1.10192 1.12674 0
M  V30 2565 C 247.753 -2.20172 0.810026 0
M  V30 2566 C 248.769 -1.72821 -0.202188 0
M  V30 2567 O 249.945 -2.01369 -0.0351691 0
M  V30 2568 C 247.01 -3.45631 0.272007 0
M  V30 2569 C 246.071 -4.07704 1.34447 0
M  V30 2570 C 245.304 -5.27175 0.832029 0
M  V30 2571 O 245.527 -5.69425 -0.333284 0
M  V30 2572 O 244.461 -5.80168 1.60277 0
M  V30 2573 H 248.287 -2.49701 1.72867 0
M  V30 2574 H 245.872 -1.18977 0.903597 0
M  V30 2575 H 247.754 -4.21394 -0.0230219 0
M  V30 2576 H 246.429 -3.17723 -0.619164 0
M  V30 2577 H 245.336 -3.33614 1.6927 0
M  V30 2578 H 246.669 -4.3982 2.2095 0
M  V30 2579 N 248.321 -0.919034 -1.28029 0
M  V30 2580 C 249.598 -0.473668 -1.89778 0
M  V30 2581 C 249.978 1.04783 -1.83259 0
M  V30 2582 O 249.326 1.8982 -1.27202 0
M  V30 2583 C 249.536 -1.00998 -3.34066 0
M  V30 2584 C 250.884 -1.06525 -4.1102 0
M  V30 2585 O 251.908 -0.958996 -3.43048 0
M  V30 2586 O 250.767 -1.22776 -5.3253 0
M  V30 2587 H 247.861 -0.15098 -0.813101 0
M  V30 2588 H 250.407 -1.01016 -1.36359 0
M  V30 2589 H 249.179 -2.05392 -3.33061 0
M  V30 2590 H 248.802 -0.454626 -3.94992 0
M  V30 2591 N 249.799 1.42003 -0.683588 0
M  V30 2592 C 251.215 1.55625 -0.353976 0
M  V30 2593 C 251.415 1.66151 1.14 0
M  V30 2594 O 250.471 1.63329 1.92561 0
M  V30 2595 C 251.784 2.80171 -1.092 0
M  V30 2596 C 253.332 2.93954 -1.07518 0
M  V30 2597 C 253.807 4.21372 -1.79471 0
M  V30 2598 N 255.298 4.28303 -1.76381 0
M  V30 2599 C 256.033 5.25729 -2.28904 0
M  V30 2600 N 255.529 6.29254 -2.89846 0
M  V30 2601 N 257.322 5.17586 -2.19228 0
M  V30 2602 H 249.473 1.33415 -1.6527 0
M  V30 2603 H 251.736 0.64282 -0.696769 0
M  V30 2604 H 251.442 2.78561 -2.14701 0
M  V30 2605 H 251.316 3.7133 -0.662862 0
M  V30 2606 H 253.703 2.95086 -0.028475 0
M  V30 2607 H 253.784 2.04002 -1.54328 0
M  V30 2608 H 253.428 4.21001 -2.84114 0
M  V30 2609 H 253.358 5.10275 -1.30104 0
M  V30 2610 H 255.849 3.54119 -1.31939 0
M  V30 2611 H 256.162 6.99964 -3.27522 0
M  V30 2612 H 254.507 6.29791 -2.93919 0
M  V30 2613 H 257.698 4.35631 -1.71299 0
M  V30 2614 H 257.871 5.93348 -2.60466 0
M  V30 2615 N 251.277 0.427512 1.51691 0
M  V30 2616 C 252.523 -0.142439 2.02299 0
M  V30 2617 C 252.856 -1.43214 1.31162 0
M  V30 2618 O 252.131 -1.89833 0.423511 0
M  V30 2619 C 252.414 -0.371301 3.58181 0
M  V30 2620 C 252.267 0.936358 4.39946 0
M  V30 2621 C 253.586 -1.14542 4.24933 0
M  V30 2622 H 250.705 -0.0502937 0.735282 0
M  V30 2623 H 253.347 0.564584 1.81418 0
M  V30 2624 H 251.497 -0.973559 3.76104 0
M  V30 2625 H 253.169 1.57184 4.33694 0
M  V30 2626 H 251.412 1.5432 4.05423 0
M  V30 2627 H 252.083 0.730388 5.47147 0
M  V30 2628 H 254.559 -0.635362 4.11221 0
M  V30 2629 H 253.435 -1.27431 5.33903 0
M  V30 2630 H 253.696 -2.17093 3.85127 0
M  V30 2631 N 252.755 -1.56801 0.158532 0
M  V30 2632 C 254.003 -1.96102 -0.488712 0
M  V30 2633 C 254.324 -1.04498 -1.64636 0
M  V30 2634 O 253.594 -0.108783 -1.95598 0
M  V30 2635 H 252.174 -0.724102 -0.183535 0
M  V30 2636 H 254.836 -1.93457 0.236728 0
M  V30 2637 H 253.932 -3.00097 -0.857219 0
M  V30 2638 N 254.233 0.115231 -1.57178 0
M  V30 2639 C 255.461 0.836437 -1.89239 0
M  V30 2640 C 255.876 1.73256 -0.750175 0
M  V30 2641 O 255.233 1.80357 0.278832 0
M  V30 2642 C 255.284 1.66671 -3.20785 0
M  V30 2643 O 255.005 0.806652 -4.3061 0
M  V30 2644 C 256.506 2.49274 -3.66575 0
M  V30 2645 H 253.726 0.240253 -0.626514 0
M  V30 2646 H 256.27 0.0984932 -2.04263 0
M  V30 2647 H 254.425 2.35737 -3.0742 0
M  V30 2648 H 254.839 1.37969 -5.06028 0
M  V30 2649 H 256.313 3.03055 -4.6137 0
M  V30 2650 H 256.79 3.26807 -2.93417 0
M  V30 2651 H 257.396 1.85443 -3.82741 0
M  V30 2652 N 255.711 1.52812 0.385517 0
M  V30 2653 C 256.96 1.67249 1.12741 0
M  V30 2654 C 257.273 0.4205 1.91027 0
M  V30 2655 O 258.479 0.445064 2.67827 0
M  V30 2656 C 256.935 2.95583 2.05326 0
M  V30 2657 C 256.543 4.27974 1.32447 0
M  V30 2658 C 258.287 3.19386 2.7963 0
M  V30 2659 C 256.194 5.47412 2.23818 0
M  V30 2660 H 255.124 0.6231 0.424573 0
M  V30 2661 H 257.775 1.79309 0.389924 0
M  V30 2662 H 256.157 2.77277 2.82725 0
M  V30 2663 H 257.331 4.56844 0.602495 0
M  V30 2664 H 255.646 4.10459 0.700885 0
M  V30 2665 H 258.243 4.05801 3.48181 0
M  V30 2666 H 258.586 2.34604 3.43899 0
M  V30 2667 H 259.119 3.38274 2.09322 0
M  V30 2668 H 255.858 6.34612 1.64157 0
M  V30 2669 H 255.378 5.22849 2.93921 0
M  V30 2670 H 257.057 5.81423 2.83824 0
M  V30 2671 N 257.189 -0.644168 1.43834 0
M  V30 2672 C 258.136 -1.75671 1.49694 0
M  V30 2673 C 259.106 -1.6246 0.345809 0
M  V30 2674 O 260.291 -1.82573 0.554234 0
M  V30 2675 C 257.431 -3.13867 1.43463 0
M  V30 2676 C 256.544 -3.38147 2.6885 0
M  V30 2677 C 255.679 -4.66241 2.54544 0
M  V30 2678 C 254.718 -4.83657 3.75157 0
M  V30 2679 N 253.855 -6.03016 3.59605 0
M  V30 2680 H 258.695 -1.69998 2.44754 0
M  V30 2681 H 256.232 -0.829458 1.21484 0
M  V30 2682 H 258.19 -3.9377 1.37843 0
M  V30 2683 H 256.82 -3.18588 0.519783 0
M  V30 2684 H 255.872 -2.52276 2.84712 0
M  V30 2685 H 257.184 -3.46899 3.58417 0
M  V30 2686 H 256.338 -5.54285 2.46683 0
M  V30 2687 H 255.077 -4.59826 1.62516 0
M  V30 2688 H 254.082 -3.94046 3.83416 0
M  V30 2689 H 255.307 -4.91896 4.68204 0
M  V30 2690 H 253.253 -5.97715 2.7032 0
M  V30 2691 H 253.17 -6.12766 4.42779 0
M  V30 2692 H 254.438 -6.93657 3.55613 0
M  V30 2693 N 258.668 -1.30515 -0.883378 0
M  V30 2694 C 259.893 -1.22487 -1.67367 0
M  V30 2695 C 260.318 0.208767 -1.86938 0
M  V30 2696 O 259.676 1.15015 -1.40148 0
M  V30 2697 C 259.724 -1.96041 -3.02655 0
M  V30 2698 O 258.828 -1.28859 -3.91751 0
M  V30 2699 H 258.169 -0.423573 -0.511353 0
M  V30 2700 H 260.699 -1.72362 -1.10239 0
M  V30 2701 H 260.709 -2.05124 -3.52687 0
M  V30 2702 H 259.384 -3.00307 -2.8773 0
M  V30 2703 H 257.961 -1.28141 -3.50192 0
M  V30 2704 N 260.146 1.09593 -1.13257 0
M  V30 2705 C 261.093 2.1618 -0.808381 0
M  V30 2706 C 262.063 1.64517 0.228754 0
M  V30 2707 O 263.248 1.9053 0.101381 0
M  V30 2708 C 260.388 3.43973 -0.278675 0
M  V30 2709 C 259.501 4.09545 -1.37466 0
M  V30 2710 C 258.636 5.25088 -0.803479 0
M  V30 2711 C 257.675 5.82579 -1.87799 0
M  V30 2712 N 256.812 6.89486 -1.32488 0
M  V30 2713 H 261.652 2.43254 -1.72138 0
M  V30 2714 H 259.189 1.19392 -0.859294 0
M  V30 2715 H 261.147 4.17174 0.0465583 0
M  V30 2716 H 259.777 3.17223 0.597459 0
M  V30 2717 H 258.829 3.34226 -1.81652 0
M  V30 2718 H 260.141 4.48307 -2.18684 0
M  V30 2719 H 259.295 6.05178 -0.429427 0
M  V30 2720 H 258.034 4.87684 0.0397956 0
M  V30 2721 H 257.039 5.01152 -2.26113 0
M  V30 2722 H 258.264 6.22045 -2.72463 0
M  V30 2723 H 256.21 6.54064 -0.503575 0
M  V30 2724 H 256.127 7.27007 -2.07355 0
M  V30 2725 H 257.395 7.73336 -0.978336 0
M  V30 2726 N 261.624 0.925811 1.2754 0
M  V30 2727 C 262.87 0.566092 1.94739 0
M  V30 2728 C 263.203 -0.890057 1.72603 0
M  V30 2729 O 262.478 -1.63467 1.05399 0
M  V30 2730 C 262.761 0.89054 3.48915 0
M  V30 2731 C 262.614 2.4003 3.80402 0
M  V30 2732 C 263.933 0.395101 4.38323 0
M  V30 2733 H 261.052 0.20714 0.707292 0
M  V30 2734 H 263.694 1.15725 1.50691 0
M  V30 2735 H 261.844 0.387452 3.86563 0
M  V30 2736 H 263.516 2.97494 3.52555 0
M  V30 2737 H 261.759 2.85028 3.2702 0
M  V30 2738 H 262.43 2.57785 4.8811 0
M  V30 2739 H 264.906 0.826241 4.07814 0
M  V30 2740 H 263.782 0.651086 5.45025 0
M  V30 2741 H 264.043 -0.704798 4.36446 0
M  V30 2742 N 263.102 -1.41638 0.69111 0
M  V30 2743 C 264.348 -2.01598 0.220519 0
M  V30 2744 C 264.681 -1.54594 -1.17535 0
M  V30 2745 O 263.956 -0.755177 -1.79241 0
M  V30 2746 C 264.239 -3.59062 0.273243 0
M  V30 2747 C 264.092 -4.16203 1.70573 0
M  V30 2748 C 265.411 -4.38546 -0.369457 0
M  V30 2749 H 262.53 -0.732468 0.0816045 0
M  V30 2750 H 265.172 -1.68445 0.878986 0
M  V30 2751 H 263.322 -3.87435 -0.287411 0
M  V30 2752 H 264.994 -3.98722 2.31989 0
M  V30 2753 H 263.237 -3.71414 2.2413 0
M  V30 2754 H 263.908 -5.25358 1.69419 0
M  V30 2755 H 266.384 -4.1596 0.107977 0
M  V30 2756 H 265.26 -5.48069 -0.302002 0
M  V30 2757 H 265.521 -4.17662 -1.44951 0
M  V30 2758 N 264.58 -0.43555 -1.51462 0
M  V30 2759 C 265.828 0.131254 -2.01673 0
M  V30 2760 C 266.149 1.43368 -1.32177 0
M  V30 2761 O 265.419 1.90524 -0.455769 0
M  V30 2762 H 263.999 0.0514954 -0.745223 0
M  V30 2763 H 266.661 -0.577847 -1.86137 0
M  V30 2764 H 265.757 0.308446 -3.10572 0
M  V30 2765 N 266.058 1.56714 -0.166846 0
M  V30 2766 C 267.335 1.88412 0.525373 0
M  V30 2767 C 267.715 1.07602 1.81618 0
M  V30 2768 O 267.063 0.168621 2.27877 0
M  V30 2769 C 267.273 3.40363 0.771613 0
M  V30 2770 C 268.621 4.10007 1.1036 0
M  V30 2771 O 269.645 3.45655 0.860304 0
M  V30 2772 O 268.504 5.2369 1.56239 0
M  V30 2773 H 265.598 0.781587 0.270278 0
M  V30 2774 H 268.144 1.68458 -0.204946 0
M  V30 2775 H 266.916 3.91046 -0.141093 0
M  V30 2776 H 266.539 3.65914 1.55541 0
M  V30 2777 N 267.536 -0.106894 1.57237 0
M  V30 2778 C 268.952 -0.46078 1.52804 0
M  V30 2779 C 269.152 -1.81184 0.881746 0
M  V30 2780 O 268.208 -2.48102 0.469224 0
M  V30 2781 C 269.521 -0.434127 2.9755 0
M  V30 2782 C 271.069 -0.516821 3.08704 0
M  V30 2783 C 271.544 -0.520436 4.55033 0
M  V30 2784 N 273.035 -0.58153 4.59535 0
M  V30 2785 C 273.77 -0.605973 5.70189 0
M  V30 2786 N 273.266 -0.587331 6.90306 0
M  V30 2787 N 275.059 -0.649895 5.5833 0
M  V30 2788 H 267.21 0.778203 1.9763 0
M  V30 2789 H 269.473 0.288403 0.903066 0
M  V30 2790 H 269.179 0.491197 3.48253 0
M  V30 2791 H 269.053 -1.25748 3.55622 0
M  V30 2792 H 271.44 -1.43256 2.57995 0
M  V30 2793 H 271.521 0.334449 2.53604 0
M  V30 2794 H 271.165 0.391313 5.0639 0
M  V30 2795 H 271.095 -1.38876 5.07958 0
M  V30 2796 H 273.586 -0.60161 3.73081 0
M  V30 2797 H 273.899 -0.60894 7.70397 0
M  V30 2798 H 272.244 -0.554564 6.92784 0
M  V30 2799 H 275.435 -0.661907 4.63397 0
M  V30 2800 H 275.608 -0.665476 6.44574 0
M  V30 2801 N 269.014 -1.53014 -0.377408 0
M  V30 2802 C 269.924 -1.81557 -1.48574 0
M  V30 2803 C 270.94 -0.703102 -1.59162 0
M  V30 2804 O 272.116 -0.99192 -1.75279 0
M  V30 2805 C 269.181 -1.9889 -2.83978 0
M  V30 2806 C 268.242 -3.22801 -2.83016 0
M  V30 2807 C 267.475 -3.39298 -4.11962 0
M  V30 2808 O 267.698 -2.60345 -5.0752 0
M  V30 2809 O 266.632 -4.32604 -4.18494 0
M  V30 2810 H 270.458 -2.75695 -1.27382 0
M  V30 2811 H 268.043 -1.38248 -0.566373 0
M  V30 2812 H 269.925 -2.11931 -3.6423 0
M  V30 2813 H 268.6 -1.07942 -3.05172 0
M  V30 2814 H 267.507 -3.15193 -2.01505 0
M  V30 2815 H 268.84 -4.13632 -2.66775 0
M  V30 2816 N 270.492 0.636531 -1.44174 0
M  V30 2817 C 271.44 1.76995 -1.50915 0
M  V30 2818 C 272.434 1.65053 -0.381295 0
M  V30 2819 O 273.64 1.71197 -0.55601 0
M  V30 2820 H 270.015 0.584247 -0.473455 0
M  V30 2821 H 271.986 1.68432 -2.4632 0
M  V30 2822 C 270.735 3.15314 -1.46534 0
M  V30 2823 H 270.058 3.25149 -2.32633 0
M  V30 2824 H 271.498 3.9453 -1.55312 0
M  V30 2825 C 269.957 3.3639 -0.185305 0
M  V30 2826 O 270.487 3.94699 0.746688 0
M  V30 2827 N 268.693 2.9046 -0.0901606 0
M  V30 2828 H 268.24 2.43193 -0.849416 0
M  V30 2829 H 268.198 3.04937 0.765553 0
M  V30 2830 N 271.97 1.30982 0.876444 0
M  V30 2831 C 273.218 1.20058 1.62575 0
M  V30 2832 C 273.539 -0.242947 1.93481 0
M  V30 2833 O 272.809 -1.1619 1.57724 0
M  V30 2834 H 271.389 0.44135 0.602677 0
M  V30 2835 H 274.051 1.64222 1.04962 0
M  V30 2836 H 273.147 1.76762 2.57219 0
M  V30 2837 N 273.449 -1.08991 1.13837 0
M  V30 2838 C 274.674 -1.85551 0.926585 0
M  V30 2839 C 275.099 -1.80782 -0.519566 0
M  V30 2840 O 274.457 -1.18855 -1.36906 0
M  V30 2841 C 274.505 -3.31266 1.42462 0
M  V30 2842 O 273.609 -4.07822 0.612789 0
M  V30 2843 H 272.95 -0.575192 0.331738 0
M  V30 2844 H 275.48 -1.37604 1.51414 0
M  V30 2845 H 275.49 -3.82112 1.43019 0
M  V30 2846 H 274.165 -3.34052 2.47754 0
M  V30 2847 H 272.742 -3.66731 0.675463 0
M  V30 2848 N 274.927 -0.932562 -1.27047 0
M  V30 2849 C 276.204 -0.49377 -1.89265 0
M  V30 2850 C 276.584 1.02833 -1.8436 0
M  V30 2851 O 275.932 1.88461 -1.29209 0
M  V30 2852 C 276.142 -1.04536 -3.32976 0
M  V30 2853 C 277.49 -1.10879 -4.09867 0
M  V30 2854 O 278.514 -0.995327 -3.42011 0
M  V30 2855 O 277.373 -1.28417 -5.31198 0
M  V30 2856 H 274.467 -0.159596 -0.811454 0
M  V30 2857 H 277.013 -1.02457 -1.3528 0
M  V30 2858 H 275.785 -2.08913 -3.30864 0
M  V30 2859 H 275.408 -0.496494 -3.94488 0
M  V30 2860 N 276.405 1.4127 -0.698611 0
M  V30 2861 C 277.353 2.32588 -0.023855 0
M  V30 2862 C 278.347 1.51128 0.765292 0
M  V30 2863 O 279.553 1.67043 0.670571 0
M  V30 2864 H 275.928 0.751918 0.0110871 0
M  V30 2865 H 277.899 2.87167 -0.811031 0
M  V30 2866 C 276.648 3.35947 0.896369 0
M  V30 2867 H 275.971 3.98684 0.298548 0
M  V30 2868 H 277.411 4.02376 1.33676 0
M  V30 2869 C 275.87 2.70076 2.01396 0
M  V30 2870 O 276.4 2.55093 3.10307 0
M  V30 2871 N 274.606 2.28724 1.79259 0
M  V30 2872 H 274.153 2.4111 0.906841 0
M  V30 2873 H 274.111 1.84986 2.54219 0
M  V30 2874 N 277.883 0.443576 1.51229 0
M  V30 2875 C 278.813 -0.355142 2.30783 0
M  V30 2876 C 279.794 -1.0154 1.36468 0
M  V30 2877 O 280.979 -1.01785 1.65389 0
M  V30 2878 C 278.109 -1.45312 3.15439 0
M  V30 2879 C 277.063 -0.916002 4.18083 0
M  V30 2880 C 276.389 -2.1102 4.91299 0
M  V30 2881 C 277.689 0.0538602 5.22272 0
M  V30 2882 H 279.383 0.308767 2.97804 0
M  V30 2883 H 276.929 0.149937 1.43217 0
M  V30 2884 H 278.882 -2.01914 3.69876 0
M  V30 2885 H 277.606 -2.14541 2.46252 0
M  V30 2886 H 276.265 -0.372145 3.64706 0
M  V30 2887 H 275.913 -2.78882 4.18609 0
M  V30 2888 H 275.613 -1.75717 5.60712 0
M  V30 2889 H 277.137 -2.68164 5.48562 0
M  V30 2890 H 278.551 -0.422069 5.71744 0
M  V30 2891 H 276.948 0.319776 5.99247 0
M  V30 2892 H 278.018 0.98858 4.74716 0
M  V30 2893 N 279.361 -1.56624 0.175154 0
M  V30 2894 C 280.772 -1.83561 -0.340916 0
M  V30 2895 C 281.123 -1.09511 -1.62794 0
M  V30 2896 O 280.248 -0.349389 -2.13561 0
M  V30 2897 C 280.843 -3.32979 -0.625313 0
M  V30 2898 C 279.402 -3.60399 -1.08581 0
M  V30 2899 C 278.549 -2.77024 -0.123722 0
M  V30 2900 H 281.5 -1.53593 0.399344 0
M  V30 2901 H 281.521 -3.50666 -1.47694 0
M  V30 2902 H 281.033 -3.86847 0.311575 0
M  V30 2903 H 279.134 -3.11945 -2.03767 0
M  V30 2904 H 279.247 -4.68711 -0.992317 0
M  V30 2905 H 277.611 -2.46993 -0.621821 0
M  V30 2906 H 278.394 -3.33674 0.807256 0
M  V30 2907 N 280.839 0.0985539 -1.57292 0
M  V30 2908 C 282.064 0.820196 -1.90493 0
M  V30 2909 C 282.489 1.71658 -0.769094 0
M  V30 2910 O 281.847 1.79133 0.279495 0
M  V30 2911 C 281.895 1.61242 -3.22542 0
M  V30 2912 O 280.999 2.72108 -3.09888 0
M  V30 2913 H 280.34 0.225547 -0.62452 0
M  V30 2914 H 282.87 0.0748159 -2.04463 0
M  V30 2915 H 282.88 1.99737 -3.55766 0
M  V30 2916 H 281.555 0.954535 -4.04798 0
M  V30 2917 H 280.132 2.36667 -2.88172 0
M  V30 2918 N 282.317 1.53212 0.369288 0
M  V30 2919 C 283.542 1.73423 1.1375 0
M  V30 2920 C 283.967 0.460404 1.82378 0
M  V30 2921 O 283.325 -0.585298 1.71592 0
M  V30 2922 C 283.373 2.89769 2.1463 0
M  V30 2923 O 282.477 2.58119 3.21634 0
M  V30 2924 H 281.818 0.576061 0.330227 0
M  V30 2925 H 284.348 2.00083 0.427547 0
M  V30 2926 H 284.358 3.15829 2.58294 0
M  V30 2927 H 283.033 3.8217 1.64071 0
M  V30 2928 H 281.61 2.42864 2.82969 0
M  V30 2929 N 283.795 -0.628877 1.44509 0
M  V30 2930 C 284.758 -1.72263 1.51188 0
M  V30 2931 C 285.758 -1.55907 0.39367 0
M  V30 2932 O 286.948 -1.61361 0.656377 0
M  V30 2933 C 284.08 -3.11365 1.38798 0
M  V30 2934 H 285.273 -1.67714 2.4862 0
M  V30 2935 H 282.826 -0.842737 1.31634 0
M  V30 2936 H 283.561 -3.21507 0.424693 0
M  V30 2937 H 283.346 -3.24644 2.19884 0
M  V30 2938 H 284.836 -3.91075 1.46458 0
M  V30 2939 N 285.273 -1.31445 -0.869486 0
M  V30 2940 C 286.521 -1.20918 -1.61936 0
M  V30 2941 C 286.842 0.232683 -1.93607 0
M  V30 2942 O 286.112 1.15352 -1.58338 0
M  V30 2943 H 284.692 -0.44454 -0.600328 0
M  V30 2944 H 287.354 -1.64776 -1.0409 0
M  V30 2945 H 286.45 -1.78124 -2.56278 0
M  V30 2946 N 286.751 1.08385 -1.14413 0
M  V30 2947 C 287.976 1.85057 -0.936413 0
M  V30 2948 C 288.401 1.81055 0.509971 0
M  V30 2949 O 287.759 1.1958 1.36273 0
M  V30 2950 C 287.807 3.30505 -1.44217 0
M  V30 2951 O 286.911 4.07491 -0.634409 0
M  V30 2952 H 286.252 0.573425 -0.334784 0
M  V30 2953 H 288.782 1.36799 -1.52142 0
M  V30 2954 H 288.792 3.81348 -1.45043 0
M  V30 2955 H 287.467 3.32734 -2.49522 0
M  V30 2956 H 286.044 3.66368 -0.694902 0
M  V30 2957 N 288.23 0.939286 1.26551 0
M  V30 2958 C 289.478 0.58469 1.93457 0
M  V30 2959 C 289.799 -0.878774 1.74076 0
M  V30 2960 O 289.069 -1.62421 1.09528 0
M  V30 2961 H 287.649 0.21325 0.715914 0
M  V30 2962 H 290.311 1.1942 1.54029 0
M  V30 2963 H 289.407 0.800849 3.0165 0
M  V30 2964 N 289.708 -1.40897 0.706093 0
M  V30 2965 C 290.985 -1.94868 0.169099 0
M  V30 2966 C 291.365 -1.64485 -1.32318 0
M  V30 2967 O 290.713 -0.95744 -2.07474 0
M  V30 2968 C 290.923 -3.45798 0.471654 0
M  V30 2969 C 292.271 -4.22663 0.405127 0
M  V30 2970 O 293.295 -3.53865 0.407168 0
M  V30 2971 O 292.154 -5.45216 0.374383 0
M  V30 2972 H 289.248 -0.82673 0.0211352 0
M  V30 2973 H 291.794 -1.50558 0.782976 0
M  V30 2974 H 290.566 -3.61235 1.50416 0
M  V30 2975 H 290.189 -3.97225 -0.172666 0
M  V30 2976 N 291.186 -0.45159 -1.50991 0
M  V30 2977 C 292.133 0.352625 -2.2809 0
M  V30 2978 C 293.103 1.0044 -1.32291 0
M  V30 2979 O 294.288 1.02058 -1.6121 0
M  V30 2980 C 291.428 1.43983 -3.13629 0
M  V30 2981 C 290.541 0.804772 -4.24438 0
M  V30 2982 C 289.676 1.86822 -4.97263 0
M  V30 2983 C 288.715 1.21236 -5.99973 0
M  V30 2984 N 287.852 2.2178 -6.66152 0
M  V30 2985 H 292.692 -0.311186 -2.96371 0
M  V30 2986 H 290.229 -0.165308 -1.46168 0
M  V30 2987 H 292.187 2.08161 -3.61559 0
M  V30 2988 H 290.817 2.07307 -2.47434 0
M  V30 2989 H 289.869 0.0509129 -3.80366 0
M  V30 2990 H 291.181 0.286076 -4.97979 0
M  V30 2991 H 290.335 2.58628 -5.48813 0
M  V30 2992 H 289.074 2.42068 -4.23385 0
M  V30 2993 H 288.079 0.479828 -5.47702 0
M  V30 2994 H 289.304 0.667051 -6.75816 0
M  V30 2995 H 287.25 2.76079 -5.95077 0
M  V30 2996 H 287.167 1.74841 -7.35504 0
M  V30 2997 H 288.435 2.93026 -7.22327 0
M  V30 2998 N 292.664 1.56529 -0.183458 0
M  V30 2999 C 294.075 1.83739 0.331177 0
M  V30 3000 C 294.426 1.10373 1.62211 0
M  V30 3001 O 293.551 0.36071 2.13373 0
M  V30 3002 C 294.146 3.33306 0.607646 0
M  V30 3003 C 292.705 3.60969 1.06668 0
M  V30 3004 C 291.852 2.77086 0.109029 0
M  V30 3005 H 294.803 1.53379 -0.407484 0
M  V30 3006 H 294.824 3.51444 1.45832 0
M  V30 3007 H 294.336 3.86677 -0.332086 0
M  V30 3008 H 292.437 3.13021 2.0211 0
M  V30 3009 H 292.55 4.69231 0.967447 0
M  V30 3010 H 290.914 2.47319 0.608714 0
M  V30 3011 H 291.697 3.33241 -0.82494 0
M  V30 3012 N 294.142 -0.090211 1.57342 0
M  V30 3013 C 295.072 -1.10976 2.05443 0
M  V30 3014 C 296.053 -1.41482 0.944284 0
M  V30 3015 O 297.238 -1.51428 1.21586 0
M  V30 3016 C 294.368 -2.42831 2.48295 0
M  V30 3017 C 293.322 -2.26721 3.63018 0
M  V30 3018 C 292.648 -3.63796 3.91863 0
M  V30 3019 C 293.948 -1.7037 4.93732 0
M  V30 3020 H 295.642 -0.709564 2.9087 0
M  V30 3021 H 293.188 -0.339874 1.39932 0
M  V30 3022 H 295.141 -3.14431 2.80555 0
M  V30 3023 H 293.865 -2.84795 1.59873 0
M  V30 3024 H 292.524 -1.57565 3.31012 0
M  V30 3025 H 292.172 -4.03297 3.00601 0
M  V30 3026 H 291.872 -3.53861 4.69101 0
M  V30 3027 H 293.396 -4.36855 4.26603 0
M  V30 3028 H 294.81 -2.31816 5.24342 0
M  V30 3029 H 293.207 -1.71181 5.75167 0
M  V30 3030 H 294.277 -0.663542 4.80339 0
M  V30 3031 N 295.62 -1.53406 -0.361157 0
M  V30 3032 C 296.845 -1.74024 -1.12829 0
M  V30 3033 C 297.27 -0.470069 -1.82132 0
M  V30 3034 O 296.628 0.57619 -1.719 0
M  V30 3035 C 296.676 -2.90903 -2.13091 0
M  V30 3036 O 295.78 -2.59821 -3.20261 0
M  V30 3037 H 295.121 -0.577804 -0.327168 0
M  V30 3038 H 297.651 -2.00307 -0.41693 0
M  V30 3039 H 297.661 -3.17194 -2.56616 0
M  V30 3040 H 296.336 -3.83034 -1.62042 0
M  V30 3041 H 294.913 -2.44362 -2.81677 0
M  V30 3042 N 297.098 0.621204 -1.44841 0
M  V30 3043 C 298.375 1.38 -1.38619 0
M  V30 3044 C 298.755 2.11041 -0.0498935 0
M  V30 3045 O 298.103 2.06992 0.967816 0
M  V30 3046 C 298.313 2.33817 -2.59096 0
M  V30 3047 C 299.661 2.96844 -3.03593 0
M  V30 3048 O 300.685 2.44141 -2.59371 0
M  V30 3049 O 299.544 3.92476 -3.80296 0
M  V30 3050 H 296.638 0.61811 -0.549426 0
M  V30 3051 H 299.184 0.645429 -1.56947 0
M  V30 3052 H 297.956 1.79012 -3.47952 0
M  V30 3053 H 297.579 3.14676 -2.43032 0
M  V30 3054 N 298.576 1.31904 0.862503 0
M  V30 3055 C 299.987 1.19803 1.43193 0
M  V30 3056 C 300.338 -0.192567 1.95253 0
M  V30 3057 O 299.463 -1.09081 1.86896 0
M  V30 3058 C 300.058 2.16883 2.60283 0
M  V30 3059 C 298.617 2.08692 3.13248 0
M  V30 3060 C 297.764 2.05691 1.85975 0
M  V30 3061 H 300.715 1.43846 0.670365 0
M  V30 3062 H 300.736 1.76278 3.37204 0
M  V30 3063 H 300.248 3.18083 2.22363 0
M  V30 3064 H 298.349 1.10713 3.55771 0
M  V30 3065 H 298.462 2.9815 3.75025 0
M  V30 3066 H 296.826 1.50814 2.05249 0
M  V30 3067 H 297.609 3.08659 1.50282 0
M  V30 3068 N 300.054 -1.07777 1.14986 0
M  V30 3069 C 301.017 -2.13041 0.845358 0
M  V30 3070 C 302.017 -1.60071 -0.152931 0
M  V30 3071 O 303.207 -1.74033 0.0761879 0
M  V30 3072 C 300.339 -3.39896 0.261383 0
M  V30 3073 H 301.532 -2.41485 1.77834 0
M  V30 3074 H 299.085 -1.23595 0.956757 0
M  V30 3075 H 299.82 -3.17091 -0.68 0
M  V30 3076 H 299.605 -3.79642 0.980514 0
M  V30 3077 H 301.095 -4.17548 0.0657687 0
M  V30 3078 N 301.532 -0.945985 -1.26051 0
M  V30 3079 C 302.943 -0.638096 -1.75457 0
M  V30 3080 C 303.294 0.846672 -1.76991 0
M  V30 3081 O 302.419 1.66262 -1.38513 0
M  V30 3082 C 303.014 -1.15157 -3.18629 0
M  V30 3083 C 301.573 -0.894004 -3.65629 0
M  V30 3084 C 300.72 -1.29967 -2.44957 0
M  V30 3085 H 303.671 -1.12376 -1.1206 0
M  V30 3086 H 303.692 -0.507615 -3.77099 0
M  V30 3087 H 303.204 -2.23222 -3.1748 0
M  V30 3088 H 301.305 0.172057 -3.72203 0
M  V30 3089 H 301.418 -1.52439 -4.54202 0
M  V30 3090 H 299.782 -0.718078 -2.44368 0
M  V30 3091 H 300.565 -2.38935 -2.46505 0
M  V30 3092 N 303.011 1.40521 -0.713556 0
M  V30 3093 C 304.258 2.00923 -0.25219 0
M  V30 3094 C 304.586 1.56571 1.15395 0
M  V30 3095 O 303.841 0.775874 1.79663 0
M  V30 3096 C 304.14 3.56317 -0.278 0
M  V30 3097 C 303.806 4.20246 -1.63415 0
M  V30 3098 C 302.468 4.37422 -2.00538 0
M  V30 3099 C 304.82 4.55923 -2.52554 0
M  V30 3100 C 302.148 4.87558 -3.2635 0
M  V30 3101 C 304.5 5.07458 -3.77716 0
M  V30 3102 C 303.164 5.22843 -4.14959 0
M  V30 3103 H 302.434 0.735231 -0.0922829 0
M  V30 3104 H 305.081 1.68161 -0.916188 0
M  V30 3105 H 303.386 3.88976 0.469567 0
M  V30 3106 H 305.083 4.00883 0.0967819 0
M  V30 3107 H 301.673 4.07263 -1.33546 0
M  V30 3108 H 305.857 4.42291 -2.25149 0
M  V30 3109 H 301.113 4.97654 -3.55176 0
M  V30 3110 H 305.287 5.34041 -4.4696 0
M  V30 3111 H 302.914 5.61454 -5.12516 0
M  V30 3112 O 304.528 0.601524 1.4988 0
M  V30 3113 H 305.219 0.111623 1.93378 0
M  V30 END ATOM
M  V30 BEGIN BOND
M  V30 END BOND
M  V30 END CTAB
M  END
$$$$
