drugbank_target|O43353 Receptor-interacting serine/threonine-protein kinase 2 (DB12010)
 OpenBabel12092121183D

  0  0  0     0  0            999 V3000
M  V30 BEGIN CTAB
M  V30 COUNTS 8594 8692 0 0 0
M  V30 BEGIN ATOM
M  V30 1 H -0.908 1.98254 -0.117106 0
M  V30 2 N 0 1.576 0 0
M  V30 3 C 0.933 2.03868 1.02534 0
M  V30 4 C 1.911 0.928543 1.3348 0
M  V30 5 O 3.095 1.19667 1.45644 0
M  V30 6 C 0.222 2.43627 2.35294 0
M  V30 7 C -0.732 3.65373 2.2001 0
M  V30 8 S 0.101 5.13292 1.52614 0
M  V30 9 C 1.257 5.56322 2.86805 0
M  V30 10 H 1.49 2.90518 0.631377 0
M  V30 11 H -0.977 1.52953 0.210867 0
M  V30 12 H 0.981 2.67203 3.11629 0
M  V30 13 H -0.358 1.57376 2.7183 0
M  V30 14 H -1.165 3.90944 3.18086 0
M  V30 15 H -1.563 3.418 1.51819 0
M  V30 16 H 0.729 5.58782 3.83104 0
M  V30 17 H 1.672 6.56266 2.65933 0
M  V30 18 H 2.08 4.83886 2.90714 0
M  V30 19 N 1.4781 -0.272755 1.55222 0
M  V30 20 C 2.4261 -1.35705 1.88909 0
M  V30 21 C 3.4201 -1.5112 0.765456 0
M  V30 22 O 4.6261 -1.52901 0.949802 0
M  V30 23 H 1.0011 -0.453868 0.59959 0
M  V30 24 H 2.9721 -1.04544 2.79487 0
M  V30 25 C 1.7211 -2.71049 2.17779 0
M  V30 26 H 1.0441 -2.59979 3.03728 0
M  V30 27 H 2.4841 -3.45858 2.45272 0
M  V30 28 C 0.9431 -3.22165 0.985473 0
M  V30 29 O 1.4731 -4.01096 0.220233 0
M  V30 30 N -0.3209 -2.7985 0.783108 0
M  V30 31 H -0.7739 -2.15775 1.40708 0
M  V30 32 H -0.8159 -3.14397 -0.0130392 0
M  V30 33 N 2.9562 -1.48159 -0.537278 0
M  V30 34 C 4.2042 -1.55497 -1.29094 0
M  V30 35 C 4.5252 -0.227454 -1.93669 0
M  V30 36 O 3.7952 0.750386 -1.80959 0
M  V30 37 H 2.3752 -0.572832 -0.47945 0
M  V30 38 H 5.0372 -1.84579 -0.625818 0
M  V30 39 H 4.1332 -2.33216 -2.07405 0
M  V30 40 N 4.4343 0.785586 -1.36625 0
M  V30 41 C 5.3443 1.92964 -1.33425 0
M  V30 42 C 6.3603 1.72394 -0.235851 0
M  V30 43 O 7.5363 1.95866 -0.468878 0
M  V30 44 C 4.6013 3.27884 -1.12662 0
M  V30 45 C 3.6623 3.61204 -2.32013 0
M  V30 46 C 2.8953 4.89687 -2.12231 0
M  V30 47 O 3.1183 5.59704 -1.09945 0
M  V30 48 O 2.0523 5.21752 -3.00098 0
M  V30 49 H 5.8783 1.98613 -2.29753 0
M  V30 50 H 3.4633 0.926384 -1.17211 0
M  V30 51 H 5.3453 4.08614 -1.03016 0
M  V30 52 H 4.0203 3.23118 -0.193991 0
M  V30 53 H 2.9273 2.80765 -2.47228 0
M  V30 54 H 4.2603 3.70698 -3.23796 0
M  V30 55 N 5.9124 1.20967 1.01018 0
M  V30 56 C 6.8754 0.965918 2.07853 0
M  V30 57 C 7.8754 -0.0610545 1.60684 0
M  V30 58 O 9.0654 0.175681 1.73312 0
M  V30 59 C 6.1974 0.455513 3.37843 0
M  V30 60 H 7.3904 1.91365 2.3091 0
M  V30 61 H 4.9434 1.02594 1.17916 0
M  V30 62 H 5.6784 -0.497381 3.20463 0
M  V30 63 H 5.4634 1.19622 3.73407 0
M  V30 64 H 6.9534 0.304667 4.16487 0
M  V30 65 N 7.3905 -1.2043 1.01659 0
M  V30 66 C 8.6395 -1.89118 0.701237 0
M  V30 67 C 8.9525 -1.79705 -0.772358 0
M  V30 68 O 10.1585 -2.43528 -1.20026 0
M  V30 69 C 8.6145 -3.39168 1.20388 0
M  V30 70 C 8.2225 -3.57166 2.70438 0
M  V30 71 C 9.9665 -4.1341 0.963953 0
M  V30 72 C 7.8735 -5.01042 3.14183 0
M  V30 73 H 6.8035 -0.708267 0.2586 0
M  V30 74 H 9.4545 -1.36239 1.22927 0
M  V30 75 H 7.8365 -3.91369 0.603824 0
M  V30 76 H 9.0105 -3.15351 3.35992 0
M  V30 77 H 7.3255 -2.96294 2.92572 0
M  V30 78 H 9.9225 -5.19491 1.26621 0
M  V30 79 H 10.2655 -4.16181 -0.099578 0
M  V30 80 H 10.7985 -3.67309 1.52738 0
M  V30 81 H 7.5375 -5.03426 4.19812 0
M  V30 82 H 7.0575 -5.43668 2.53348 0
M  V30 83 H 8.7365 -5.69623 3.0682 0
M  V30 84 N 8.8686 -0.792821 -1.36206 0
M  V30 85 C 10.1086 -0.372238 -2.00982 0
M  V30 86 C 10.4726 1.03749 -1.61555 0
M  V30 87 O 11.6736 1.55934 -2.18948 0
M  V30 88 C 9.9446 -0.534566 -3.5338 0
M  V30 89 S 11.5036 -0.202365 -4.38333 0
M  V30 90 H 8.3216 -0.142044 -0.696667 0
M  V30 91 H 10.9236 -1.03206 -1.66039 0
M  V30 92 H 9.6276 -1.5608 -3.79562 0
M  V30 93 H 9.1586 0.141065 -3.93147 0
M  V30 94 H 11.1736 0.994869 -4.86124 0
M  V30 95 N 10.3467 1.47872 -0.545128 0
M  V30 96 C 11.5717 2.07391 -0.0190611 0
M  V30 97 C 11.9967 1.39688 1.25971 0
M  V30 98 O 11.3547 0.467816 1.7516 0
M  V30 99 C 11.4027 3.60188 0.172335 0
M  V30 100 O 10.5067 3.9339 1.23766 0
M  V30 101 H 9.8477 0.662411 -0.0459059 0
M  V30 102 H 12.3777 1.90066 -0.757365 0
M  V30 103 H 12.3877 4.06129 0.390305 0
M  V30 104 H 11.0627 4.08865 -0.761725 0
M  V30 105 H 9.6397 3.5921 1.00114 0
M  V30 106 N 11.8248 0.280983 1.55075 0
M  V30 107 C 12.7878 -0.590896 2.21452 0
M  V30 108 C 13.7878 -1.07682 1.19421 0
M  V30 109 O 14.9778 -0.97605 1.44288 0
M  V30 110 C 12.1098 -1.81587 2.88511 0
M  V30 111 H 13.3028 -0.0112554 2.99898 0
M  V30 112 H 10.8558 0.0316438 1.56268 0
M  V30 113 H 11.5908 -2.43587 2.14093 0
M  V30 114 H 11.3758 -1.4753 3.63287 0
M  V30 115 H 12.8658 -2.43575 3.39206 0
M  V30 116 N 13.3029 -1.57598 0.00835791 0
M  V30 117 C 14.2329 -2.1198 -0.979113 0
M  V30 118 C 15.2139 -1.03091 -1.35301 0
M  V30 119 O 16.3989 -1.30818 -1.43528 0
M  V30 120 C 13.5289 -2.62995 -2.26828 0
M  V30 121 C 12.4829 -3.76485 -2.03576 0
M  V30 122 C 11.8089 -4.13846 -3.38579 0
M  V30 123 C 13.1089 -5.0342 -1.39161 0
M  V30 124 H 14.8029 -2.94738 -0.526281 0
M  V30 125 H 12.3489 -1.41783 -0.251704 0
M  V30 126 H 14.3019 -2.99669 -2.96271 0
M  V30 127 H 13.0259 -1.7737 -2.7424 0
M  V30 128 H 11.6849 -3.40217 -1.36557 0
M  V30 129 H 11.3329 -3.25232 -3.83709 0
M  V30 130 H 11.0329 -4.90312 -3.23834 0
M  V30 131 H 12.5569 -4.53086 -4.09323 0
M  V30 132 H 13.9709 -5.37812 -1.98573 0
M  V30 133 H 12.3679 -5.84746 -1.34878 0
M  V30 134 H 13.4379 -4.83548 -0.361868 0
M  V30 135 N 14.781 0.264519 -1.55364 0
M  V30 136 C 16.192 0.834936 -1.6699 0
M  V30 137 C 16.543 1.86718 -0.602552 0
M  V30 138 O 15.668 2.14899 0.254425 0
M  V30 139 C 16.263 1.5212 -3.02729 0
M  V30 140 C 14.822 2.03954 -3.16354 0
M  V30 141 C 13.969 0.884498 -2.62815 0
M  V30 142 H 16.92 0.0406869 -1.58648 0
M  V30 143 H 16.941 2.38853 -2.96191 0
M  V30 144 H 16.453 0.769668 -3.80392 0
M  V30 145 H 14.554 2.82041 -2.43482 0
M  V30 146 H 14.667 2.24902 -4.23032 0
M  V30 147 H 13.031 1.2802 -2.20188 0
M  V30 148 H 13.814 0.14634 -3.42988 0
M  V30 149 N 16.2591 1.48442 0.529413 0
M  V30 150 C 17.4871 1.60151 1.30994 0
M  V30 151 C 17.9021 0.261985 1.86973 0
M  V30 152 O 17.2591 -0.748805 1.66431 0
M  V30 153 C 17.3101 2.64854 2.46038 0
M  V30 154 O 17.0311 3.93608 1.92365 0
M  V30 155 C 18.5321 2.87007 3.37849 0
M  V30 156 H 15.7521 0.539971 0.398338 0
M  V30 157 H 18.2961 1.94273 0.638597 0
M  V30 158 H 16.4511 2.33589 3.09055 0
M  V30 159 H 16.8651 4.51055 2.67675 0
M  V30 160 H 18.3391 3.64068 4.14919 0
M  V30 161 H 18.8161 1.95852 3.93114 0
M  V30 162 H 19.4221 3.19579 2.80623 0
M  V30 163 N 17.7372 -0.778329 1.37039 0
M  V30 164 C 18.9862 -1.53189 1.3121 0
M  V30 165 C 19.2992 -1.95328 -0.103095 0
M  V30 166 O 20.5052 -2.70012 -0.283826 0
M  V30 167 C 18.9612 -2.76591 2.30272 0
M  V30 168 C 18.5692 -2.41577 3.77286 0
M  V30 169 C 20.3132 -3.5455 2.33441 0
M  V30 170 C 18.2202 -3.61441 4.68096 0
M  V30 171 H 17.1502 -0.5751 0.487622 0
M  V30 172 H 19.8012 -0.853101 1.62464 0
M  V30 173 H 18.1832 -3.46326 1.92027 0
M  V30 174 H 19.3572 -1.79668 4.2433 0
M  V30 175 H 17.6722 -1.76806 3.76999 0
M  V30 176 H 20.2692 -4.43628 2.98493 0
M  V30 177 H 20.6122 -3.93936 1.34611 0
M  V30 178 H 21.1452 -2.91805 2.7036 0
M  V30 179 H 17.8842 -3.27142 5.6803 0
M  V30 180 H 17.4042 -4.22478 4.25761 0
M  V30 181 H 19.0832 -4.28335 4.8491 0
M  V30 182 N 19.2153 -1.21501 -1.00376 0
M  V30 183 C 20.6263 -1.03146 -1.55621 0
M  V30 184 C 20.9773 0.408375 -1.91903 0
M  V30 185 O 20.1023 1.29177 -1.73616 0
M  V30 186 C 20.6973 -1.86612 -2.82775 0
M  V30 187 C 19.2563 -1.72586 -3.34501 0
M  V30 188 C 18.4033 -1.83747 -2.07683 0
M  V30 189 H 21.3543 -1.35505 -0.826081 0
M  V30 190 H 21.3753 -1.3771 -3.54706 0
M  V30 191 H 20.8873 -2.91399 -2.56336 0
M  V30 192 H 18.9883 -0.704877 -3.65872 0
M  V30 193 H 19.1013 -2.54623 -4.05837 0
M  V30 194 H 17.4653 -1.27069 -2.20739 0
M  V30 195 H 18.2483 -2.90044 -1.83655 0
M  V30 196 N 20.6934 1.19889 -1.02296 0
M  V30 197 C 21.9234 1.93109 -0.734332 0
M  V30 198 C 22.3314 1.75377 0.709889 0
M  V30 199 O 21.6744 1.06912 1.49384 0
M  V30 200 C 21.7364 3.45362 -0.99827 0
M  V30 201 C 21.4004 3.8686 -2.43287 0
M  V30 202 C 22.3974 3.92102 -3.41397 0
M  V30 203 C 20.0824 4.18668 -2.77529 0
M  V30 204 C 22.0764 4.28573 -4.71809 0
M  V30 205 C 19.7634 4.54813 -4.08153 0
M  V30 206 C 20.7614 4.59739 -5.05103 0
M  V30 207 O 20.4494 4.95051 -6.33388 0
M  V30 208 H 20.1814 0.620409 -0.268456 0
M  V30 209 H 22.7354 1.53144 -1.3688 0
M  V30 210 H 20.9654 3.85482 -0.306645 0
M  V30 211 H 22.6544 3.99814 -0.700234 0
M  V30 212 H 23.4204 3.67685 -3.1628 0
M  V30 213 H 19.2994 4.14021 -2.0275 0
M  V30 214 H 22.8434 4.32333 -5.4748 0
M  V30 215 H 18.7404 4.78687 -4.33047 0
M  V30 216 H 19.5084 5.1302 -6.37772 0
M  V30 217 N 22.1715 0.800033 1.35784 0
M  V30 218 C 23.1215 0.178654 2.27299 0
M  V30 219 C 24.1055 -0.643667 1.47464 0
M  V30 220 O 25.2975 -0.502 1.69732 0
M  V30 221 C 22.4265 -0.677194 3.36555 0
M  V30 222 C 21.5125 0.154497 4.23818 0
M  V30 223 N 21.9035 1.21427 4.91008 0
M  V30 224 C 20.2015 -0.0649462 4.45953 0
M  V30 225 C 20.9025 1.72147 5.55644 0
M  V30 226 N 19.8785 1.02897 5.33773 0
M  V30 227 H 23.6805 0.989637 2.76737 0
M  V30 228 H 21.1945 0.64054 1.49234 0
M  V30 229 H 23.1915 -1.13835 4.01058 0
M  V30 230 H 21.8515 -1.4866 2.8867 0
M  V30 231 H 22.8625 1.59684 4.92668 0
M  V30 232 H 19.5395 -0.844016 4.0888 0
M  V30 233 H 20.9295 2.60683 6.19269 0
M  V30 234 N 23.6496 -1.47581 0.552962 0
M  V30 235 C 24.5966 -2.29957 -0.197108 0
M  V30 236 C 25.5666 -1.38799 -0.912359 0
M  V30 237 O 26.7516 -1.67761 -0.908888 0
M  V30 238 C 23.8916 -3.22672 -1.22379 0
M  V30 239 C 23.0046 -4.28919 -0.515038 0
M  V30 240 C 22.1396 -5.0879 -1.52664 0
M  V30 241 C 21.1786 -6.06815 -0.802631 0
M  V30 242 N 20.3156 -6.7966 -1.76086 0
M  V30 243 H 25.1556 -2.93578 0.511486 0
M  V30 244 H 22.6926 -1.4471 0.264067 0
M  V30 245 H 24.6506 -3.74845 -1.83159 0
M  V30 246 H 23.2806 -2.60925 -1.90047 0
M  V30 247 H 22.3326 -3.79835 0.207192 0
M  V30 248 H 23.6446 -4.98773 0.0523425 0
M  V30 249 H 22.7986 -5.65091 -2.20809 0
M  V30 250 H 21.5376 -4.38828 -2.12794 0
M  V30 251 H 20.5426 -5.49695 -0.107238 0
M  V30 252 H 21.7676 -6.78784 -0.207135 0
M  V30 253 H 19.7136 -6.12432 -2.35081 0
M  V30 254 H 19.6306 -7.45669 -1.24552 0
M  V30 255 H 20.8986 -7.40538 -2.43359 0
M  V30 256 N 25.1277 -0.289203 -1.54924 0
M  V30 257 C 26.0577 0.58549 -2.2604 0
M  V30 258 C 27.0387 1.14753 -1.25562 0
M  V30 259 O 28.2237 1.17906 -1.54311 0
M  V30 260 C 25.3537 1.76305 -2.99222 0
M  V30 261 C 24.3077 1.33191 -4.06748 0
M  V30 262 C 23.6337 2.5937 -4.6758 0
M  V30 263 C 24.9337 0.471775 -5.20165 0
M  V30 264 H 26.6277 -0.00763532 -2.99399 0
M  V30 265 H 24.1737 -0.00511229 -1.43999 0
M  V30 266 H 26.1267 2.38097 -3.47689 0
M  V30 267 H 24.8507 2.38223 -2.23422 0
M  V30 268 H 23.5097 0.737121 -3.59113 0
M  V30 269 H 23.1577 3.19576 -3.88433 0
M  V30 270 H 22.8577 2.31228 -5.40192 0
M  V30 271 H 24.3817 3.21985 -5.18804 0
M  V30 272 H 25.7957 0.995056 -5.64599 0
M  V30 273 H 24.1927 0.284639 -5.99425 0
M  V30 274 H 25.2627 -0.506041 -4.82252 0
M  V30 275 N 26.6058 1.57591 -0.0167156 0
M  V30 276 C 27.5688 2.08393 0.954204 0
M  V30 277 C 28.5688 0.996531 1.26198 0
M  V30 278 O 29.7588 1.25858 1.20438 0
M  V30 279 C 26.8908 2.5394 2.27436 0
M  V30 280 H 28.0838 2.95455 0.514451 0
M  V30 281 H 25.6368 1.54582 0.231089 0
M  V30 282 H 26.3718 1.70171 2.76066 0
M  V30 283 H 26.1568 3.33371 2.06412 0
M  V30 284 H 27.6468 2.93512 2.97053 0
M  V30 285 N 28.0839 -0.256276 1.55502 0
M  V30 286 C 29.3609 -1.00789 1.67633 0
M  V30 287 C 29.7409 -2.03706 0.553826 0
M  V30 288 O 29.0889 -2.24145 -0.443969 0
M  V30 289 C 29.2989 -1.64968 3.07549 0
M  V30 290 C 30.6469 -2.15505 3.65845 0
M  V30 291 O 31.6709 -1.74925 3.1029 0
M  V30 292 O 30.5299 -2.89986 4.63217 0
M  V30 293 H 27.6239 -0.468553 0.681459 0
M  V30 294 H 30.1699 -0.250806 1.67836 0
M  V30 295 H 28.9419 -0.904785 3.80696 0
M  V30 296 H 28.5649 -2.47321 3.11317 0
M  V30 297 N 29.562 -1.4872 -0.521534 0
M  V30 298 C 30.492 -1.66771 -1.63431 0
M  V30 299 C 31.473 -0.516499 -1.62069 0
M  V30 300 O 32.658 -0.750013 -1.79132 0
M  V30 301 C 29.788 -1.71515 -3.01993 0
M  V30 302 C 28.742 -2.86222 -3.18216 0
M  V30 303 C 28.068 -2.76061 -4.57924 0
M  V30 304 C 29.368 -4.27419 -3.00184 0
M  V30 305 H 31.062 -2.59932 -1.48579 0
M  V30 306 H 28.608 -1.25089 -0.713358 0
M  V30 307 H 30.561 -1.82731 -3.7972 0
M  V30 308 H 29.285 -0.749393 -3.17886 0
M  V30 309 H 27.944 -2.74575 -2.42908 0
M  V30 310 H 27.592 -1.77437 -4.70665 0
M  V30 311 H 27.292 -3.53037 -4.69722 0
M  V30 312 H 28.816 -2.89256 -5.37739 0
M  V30 313 H 30.23 -4.39855 -3.67697 0
M  V30 314 H 28.627 -5.05458 -3.2347 0
M  V30 315 H 29.697 -4.43293 -1.96518 0
M  V30 316 N 31.0401 0.771051 -1.3745 0
M  V30 317 C 32.4561 1.07171 -1.18265 0
M  V30 318 C 32.6561 2.01491 -0.019287 0
M  V30 319 O 31.7121 2.44244 0.640408 0
M  V30 320 C 33.0251 1.66854 -2.50161 0
M  V30 321 C 34.5731 1.79109 -2.56689 0
M  V30 322 C 35.0481 2.42205 -3.88717 0
M  V30 323 N 36.5391 2.49655 -3.90162 0
M  V30 324 C 37.2741 2.9933 -4.8907 0
M  V30 325 N 36.7701 3.49172 -5.98374 0
M  V30 326 N 38.5631 2.9821 -4.76474 0
M  V30 327 H 30.7141 0.144796 -2.11906 0
M  V30 328 H 32.9771 0.126863 -0.939473 0
M  V30 329 H 32.6831 1.05017 -3.35655 0
M  V30 330 H 32.5571 2.6614 -2.673 0
M  V30 331 H 34.9441 2.40077 -1.71601 0
M  V30 332 H 35.0251 0.785757 -2.43433 0
M  V30 333 H 34.6691 1.81875 -4.74219 0
M  V30 334 H 34.5991 3.43345 -3.99276 0
M  V30 335 H 37.0901 2.14383 -3.11205 0
M  V30 336 H 37.4031 3.8548 -6.69795 0
M  V30 337 H 35.7481 3.47275 -6.02018 0
M  V30 338 H 38.9391 2.58572 -3.90203 0
M  V30 339 H 39.1121 3.36613 -5.53711 0
M  V30 340 N 32.5182 1.22032 0.997298 0
M  V30 341 C 33.7482 1.06686 1.76923 0
M  V30 342 C 34.1562 -0.385838 1.85224 0
M  V30 343 O 33.4992 -1.27929 1.31833 0
M  V30 344 C 33.5612 1.59802 3.22031 0
M  V30 345 C 33.2252 3.08362 3.37286 0
M  V30 346 C 34.2222 4.05835 3.24952 0
M  V30 347 C 31.9072 3.47727 3.6248 0
M  V30 348 C 33.9012 5.4066 3.37588 0
M  V30 349 C 31.5882 4.82701 3.74757 0
M  V30 350 C 32.5862 5.78977 3.62319 0
M  V30 351 O 32.2742 7.11502 3.74193 0
M  V30 352 H 32.0062 0.374767 0.562606 0
M  V30 353 H 34.5602 1.61991 1.26286 0
M  V30 354 H 32.7902 0.989003 3.73839 0
M  V30 355 H 34.4792 1.40184 3.80924 0
M  V30 356 H 35.2452 3.76766 3.05405 0
M  V30 357 H 31.1242 2.73317 3.7124 0
M  V30 358 H 34.6682 6.15788 3.27796 0
M  V30 359 H 30.5652 5.11453 3.9381 0
M  V30 360 H 31.3332 7.19019 3.91093 0
M  V30 361 N 33.9963 -1.19345 1.0293 0
M  V30 362 C 34.9263 -2.2481 0.631105 0
M  V30 363 C 35.9073 -1.66245 -0.360104 0
M  V30 364 O 37.0923 -1.92677 -0.242726 0
M  V30 365 C 34.2223 -3.47295 -0.0184607 0
M  V30 366 C 33.1763 -4.18536 0.895073 0
M  V30 367 C 32.5023 -5.34586 0.110592 0
M  V30 368 C 33.8023 -4.73287 2.209 0
M  V30 369 H 35.4963 -2.58372 1.51275 0
M  V30 370 H 33.0423 -1.24194 0.728818 0
M  V30 371 H 34.9953 -4.20268 -0.308675 0
M  V30 372 H 33.7193 -3.12933 -0.934907 0
M  V30 373 H 32.3783 -3.47446 1.16949 0
M  V30 374 H 32.0263 -4.96469 -0.807902 0
M  V30 375 H 31.7263 -5.83183 0.719087 0
M  V30 376 H 33.2503 -6.10355 -0.172871 0
M  V30 377 H 34.6643 -5.38013 1.98028 0
M  V30 378 H 33.0613 -5.32373 2.76946 0
M  V30 379 H 34.1313 -3.91331 2.86336 0
M  V30 380 N 35.4744 -0.807222 -1.35358 0
M  V30 381 C 36.6994 -0.399309 -2.0352 0
M  V30 382 C 37.1244 0.981986 -1.60433 0
M  V30 383 O 36.4824 1.63601 -0.781299 0
M  V30 384 C 36.5304 -0.491552 -3.57234 0
M  V30 385 O 35.6344 0.494754 -4.09421 0
M  V30 386 H 34.9754 -0.166682 -0.642739 0
M  V30 387 H 37.5054 -1.09328 -1.72941 0
M  V30 388 H 37.5154 -0.361588 -4.06395 0
M  V30 389 H 36.1904 -1.49907 -3.87944 0
M  V30 390 H 34.7674 0.324977 -3.71481 0
M  V30 391 N 36.9525 1.47285 -0.560781 0
M  V30 392 C 38.3685 1.58065 -0.22081 0
M  V30 393 C 38.5685 1.55892 1.27671 0
M  V30 394 O 37.6245 1.46422 2.0571 0
M  V30 395 C 38.9375 2.88418 -0.850625 0
M  V30 396 C 40.4855 3.02009 -0.822184 0
M  V30 397 C 40.9605 4.35066 -1.43113 0
M  V30 398 N 42.4515 4.41711 -1.39448 0
M  V30 399 C 43.1865 5.43237 -1.83525 0
M  V30 400 N 42.6825 6.51555 -2.35474 0
M  V30 401 N 44.4755 5.34304 -1.74574 0
M  V30 402 H 36.6265 1.46941 -1.53369 0
M  V30 403 H 38.8895 0.699558 -0.639783 0
M  V30 404 H 38.5955 2.95755 -1.9032 0
M  V30 405 H 38.4695 3.75612 -0.345773 0
M  V30 406 H 40.8565 2.94266 0.221714 0
M  V30 407 H 40.9375 2.16347 -1.36483 0
M  V30 408 H 40.5815 4.43565 -2.47412 0
M  V30 409 H 40.5115 5.19465 -0.863899 0
M  V30 410 H 43.0025 3.64027 -1.01452 0
M  V30 411 H 43.3155 7.25203 -2.67021 0
M  V30 412 H 41.6605 6.52435 -2.39487 0
M  V30 413 H 44.8515 4.48581 -1.33763 0
M  V30 414 H 45.0245 6.13288 -2.09242 0
M  V30 415 N 38.4306 0.297415 1.54768 0
M  V30 416 C 39.6786 -0.312295 1.99673 0
M  V30 417 C 39.9996 -1.54686 1.18732 0
M  V30 418 O 39.2696 -1.93854 0.282382 0
M  V30 419 H 37.8496 -0.118381 0.73756 0
M  V30 420 H 40.5116 0.407915 1.90583 0
M  V30 421 H 39.6076 -0.586813 3.06534 0
M  V30 422 N 39.9087 -1.5758 0.0250728 0
M  V30 423 C 40.8717 -2.08896 -0.943139 0
M  V30 424 C 41.8717 -1.00321 -1.25668 0
M  V30 425 O 43.0617 -1.26495 -1.19769 0
M  V30 426 C 40.1937 -2.55143 -2.26086 0
M  V30 427 H 41.3867 -2.95723 -0.498775 0
M  V30 428 H 38.9397 -1.54703 -0.222888 0
M  V30 429 H 39.6747 -1.71633 -2.75159 0
M  V30 430 H 39.4597 -3.34461 -2.04641 0
M  V30 431 H 40.9497 -2.95083 -2.95492 0
M  V30 432 N 41.3868 0.248026 -1.55636 0
M  V30 433 C 42.6118 0.998028 -1.81808 0
M  V30 434 C 43.0368 1.78207 -0.601979 0
M  V30 435 O 42.3948 1.75653 0.448961 0
M  V30 436 C 42.4428 1.9125 -3.05705 0
M  V30 437 O 41.5468 3.00406 -2.82542 0
M  V30 438 H 40.8878 0.284045 -0.600179 0
M  V30 439 H 43.4178 0.269357 -2.02819 0
M  V30 440 H 43.4278 2.32737 -3.35108 0
M  V30 441 H 42.1028 1.33602 -3.93857 0
M  V30 442 H 40.6798 2.63056 -2.64303 0
M  V30 443 N 42.8649 1.48995 0.513639 0
M  V30 444 C 44.1129 1.57531 1.26604 0
M  V30 445 C 44.4339 0.258236 1.93283 0
M  V30 446 O 43.7039 -0.721502 1.8213 0
M  V30 447 H 42.2839 0.580387 0.470276 0
M  V30 448 H 44.9459 1.85552 0.596373 0
M  V30 449 H 44.0419 2.36486 2.03669 0
M  V30 450 N 44.343 -0.763751 1.37857 0
M  V30 451 C 45.571 -1.55293 1.36718 0
M  V30 452 C 45.986 -1.88745 -0.0455434 0
M  V30 453 O 45.343 -1.52039 -1.00947 0
M  V30 454 C 45.394 -2.85831 2.2132 0
M  V30 455 O 45.115 -2.5381 3.57089 0
M  V30 456 C 46.616 -3.80023 2.28249 0
M  V30 457 H 43.836 -0.480841 0.468009 0
M  V30 458 H 46.38 -0.946009 1.81303 0
M  V30 459 H 44.535 -3.42926 1.80223 0
M  V30 460 H 44.949 -3.37459 4.01524 0
M  V30 461 H 46.423 -4.68599 2.91752 0
M  V30 462 H 46.9 -4.1973 1.2932 0
M  V30 463 H 47.506 -3.28855 2.69693 0
M  V30 464 N 45.8211 -1.22559 -0.990812 0
M  V30 465 C 47.0671 -1.05297 -1.73322 0
M  V30 466 C 47.4001 0.410655 -1.89808 0
M  V30 467 O 46.6751 1.30439 -1.44277 0
M  V30 468 C 46.9581 -1.76713 -3.13759 0
M  V30 469 C 46.8111 -3.30684 -3.04907 0
M  V30 470 C 48.1301 -1.52121 -4.12974 0
M  V30 471 H 45.2491 -0.38392 -0.629106 0
M  V30 472 H 47.8911 -1.50926 -1.15418 0
M  V30 473 H 46.0411 -1.37924 -3.63193 0
M  V30 474 H 47.7131 -3.7893 -2.63077 0
M  V30 475 H 45.9561 -3.60253 -2.41661 0
M  V30 476 H 46.6271 -3.75833 -4.04294 0
M  V30 477 H 49.1031 -1.85819 -3.72304 0
M  V30 478 H 47.9791 -2.04582 -5.0935 0
M  V30 479 H 48.2401 -0.454257 -4.3976 0
M  V30 480 N 47.2992 1.18797 -1.03562 0
M  V30 481 C 48.5242 1.9314 -0.755764 0
M  V30 482 C 48.9492 1.7537 0.68022 0
M  V30 483 O 48.3072 1.06046 1.47051 0
M  V30 484 C 48.3552 3.42747 -1.12058 0
M  V30 485 O 47.4592 4.11683 -0.243124 0
M  V30 486 H 46.8002 0.602724 -0.278604 0
M  V30 487 H 49.3302 1.50678 -1.3841 0
M  V30 488 H 49.3402 3.93437 -1.08035 0
M  V30 489 H 48.0152 3.55002 -2.16672 0
M  V30 490 H 46.5922 3.71323 -0.342539 0
M  V30 491 N 48.7773 0.814389 1.34928 0
M  V30 492 C 50.0023 0.410097 2.03305 0
M  V30 493 C 50.4273 -0.973464 1.60951 0
M  V30 494 O 49.7853 -1.63185 0.789964 0
M  V30 495 C 49.8333 0.51049 3.56968 0
M  V30 496 O 48.9373 -0.473035 4.09678 0
M  V30 497 H 48.2783 0.170088 0.641846 0
M  V30 498 H 50.8083 1.10244 1.72358 0
M  V30 499 H 50.8183 0.383135 4.06197 0
M  V30 500 H 49.4933 1.51963 3.87144 0
M  V30 501 H 48.0703 -0.305272 3.71648 0
M  V30 502 N 50.2554 -1.46986 0.568584 0
M  V30 503 C 51.2184 -2.28624 -0.162366 0
M  V30 504 C 52.2184 -1.37596 -0.832103 0
M  V30 505 O 53.4084 -1.60115 -0.68622 0
M  V30 506 C 50.5404 -3.17596 -1.23878 0
M  V30 507 H 51.7334 -2.94722 0.554899 0
M  V30 508 H 49.2864 -1.52863 0.325976 0
M  V30 509 H 50.0214 -2.56214 -1.98808 0
M  V30 510 H 49.8064 -3.846 -0.763219 0
M  V30 511 H 51.2964 -3.79078 -1.75185 0
M  V30 512 N 51.7335 -0.305618 -1.54608 0
M  V30 513 C 53.1495 0.0476228 -1.59529 0
M  V30 514 C 53.3495 1.52025 -1.32252 0
M  V30 515 O 52.4055 2.27368 -1.09818 0
M  V30 516 C 53.7185 -0.354471 -2.98603 0
M  V30 517 C 55.2665 -0.303622 -3.11524 0
M  V30 518 C 55.7415 -0.680608 -4.52915 0
M  V30 519 N 57.2325 -0.63332 -4.5885 0
M  V30 520 C 57.9675 -0.897432 -5.66334 0
M  V30 521 N 57.4635 -1.22775 -6.81834 0
M  V30 522 N 59.2565 -0.824186 -5.56025 0
M  V30 523 H 51.4075 -1.2653 -1.70599 0
M  V30 524 H 53.6705 -0.513291 -0.797017 0
M  V30 525 H 53.3765 -1.3798 -3.23503 0
M  V30 526 H 53.2505 0.289568 -3.76087 0
M  V30 527 H 55.6375 0.712472 -2.8637 0
M  V30 528 H 55.7185 -0.982348 -2.36185 0
M  V30 529 H 55.3625 -1.69453 -4.78799 0
M  V30 530 H 55.2925 0.0202385 -5.26596 0
M  V30 531 H 57.7835 -0.389138 -3.75891 0
M  V30 532 H 58.0965 -1.41513 -7.59733 0
M  V30 533 H 56.4415 -1.26583 -6.83375 0
M  V30 534 H 59.6325 -0.565748 -4.64669 0
M  V30 535 H 59.8055 -1.03338 -6.39707 0
M  V30 536 N 53.2116 1.57565 -0.0334293 0
M  V30 537 C 54.1616 2.06978 0.956237 0
M  V30 538 C 55.1456 0.971193 1.28283 0
M  V30 539 O 56.3376 1.23471 1.26822 0
M  V30 540 C 53.4666 2.60393 2.23719 0
M  V30 541 C 52.5526 3.7719 1.93877 0
M  V30 542 N 52.9436 4.87639 1.34321 0
M  V30 543 C 51.2416 3.85758 2.23845 0
M  V30 544 C 51.9426 5.68825 1.21709 0
M  V30 545 N 50.9186 5.1587 1.71404 0
M  V30 546 H 54.7206 2.89773 0.490815 0
M  V30 547 H 52.2346 1.61492 0.171478 0
M  V30 548 H 54.2316 2.94088 2.95496 0
M  V30 549 H 52.8916 1.79031 2.70884 0
M  V30 550 H 53.9026 5.07803 1.01767 0
M  V30 551 H 50.5796 3.1531 2.73653 0
M  V30 552 H 51.9696 6.67631 0.75621 0
M  V30 553 N 54.6897 -0.239769 1.55765 0
M  V30 554 C 55.6527 -1.28038 1.90103 0
M  V30 555 C 56.6527 -1.40723 0.778055 0
M  V30 556 O 57.8427 -1.39301 1.04599 0
M  V30 557 C 54.9747 -2.65702 2.13577 0
M  V30 558 H 56.1677 -0.988048 2.83157 0
M  V30 559 H 53.7207 -0.479382 1.48767 0
M  V30 560 H 54.4557 -3.00063 1.23015 0
M  V30 561 H 54.2407 -2.57875 2.95369 0
M  V30 562 H 55.7307 -3.40828 2.41301 0
M  V30 563 N 56.1678 -1.49265 -0.50573 0
M  V30 564 C 57.4448 -1.49012 -1.26707 0
M  V30 565 C 57.8248 -0.215205 -2.1 0
M  V30 566 O 57.1728 0.802547 -2.13943 0
M  V30 567 C 57.3828 -2.7663 -2.12783 0
M  V30 568 C 58.7308 -3.25932 -2.72127 0
M  V30 569 O 59.7548 -2.77715 -2.23054 0
M  V30 570 O 58.6138 -4.09897 -3.61451 0
M  V30 571 H 55.7078 -0.596197 -0.57313 0
M  V30 572 H 58.2538 -1.61524 -0.52039 0
M  V30 573 H 57.0258 -3.60916 -1.5118 0
M  V30 574 H 56.6488 -2.66956 -2.94653 0
M  V30 575 N 57.6459 0.756429 -1.3826 0
M  V30 576 C 58.8919 1.5168 -1.35517 0
M  V30 577 C 59.2469 1.9232 0.0554451 0
M  V30 578 O 58.5399 1.62352 1.01746 0
M  V30 579 C 58.7339 2.78313 -2.24224 0
M  V30 580 C 58.5629 2.50053 -3.7377 0
M  V30 581 C 57.3329 2.43414 -4.42807 0
M  V30 582 C 59.5309 2.1702 -4.66269 0
M  V30 583 N 57.5129 2.07398 -5.77805 0
M  V30 584 C 58.8839 1.91271 -5.89759 0
M  V30 585 C 60.9389 2.03305 -4.54501 0
M  V30 586 C 59.6419 1.53192 -7.02798 0
M  V30 587 C 61.6679 1.66627 -5.67441 0
M  V30 588 C 61.0299 1.4175 -6.8999 0
M  V30 589 H 57.1289 0.554735 -0.551174 0
M  V30 590 H 59.7129 0.881106 -1.73622 0
M  V30 591 H 57.8839 3.39696 -1.88311 0
M  V30 592 H 59.6159 3.44343 -2.12627 0
M  V30 593 H 56.3709 2.59789 -3.95988 0
M  V30 594 H 56.7949 1.92044 -6.4919 0
M  V30 595 H 61.4369 2.21215 -3.60311 0
M  V30 596 H 59.1549 1.34022 -7.96909 0
M  V30 597 H 62.7409 1.56652 -5.60314 0
M  V30 598 H 61.6209 1.1379 -7.759 0
M  V30 599 N 59.124 1.23083 0.984299 0
M  V30 600 C 60.54 0.992637 1.24975 0
M  V30 601 C 60.74 -0.308618 1.99123 0
M  V30 602 O 59.796 -1.02905 2.30579 0
M  V30 603 C 61.109 2.19698 2.05312 0
M  V30 604 C 62.657 2.24147 2.18465 0
M  V30 605 C 63.132 3.44157 3.02192 0
M  V30 606 N 64.623 3.44372 3.09777 0
M  V30 607 C 65.358 4.33886 3.74874 0
M  V30 608 N 64.854 5.3363 4.41827 0
M  V30 609 N 66.647 4.21639 3.71721 0
M  V30 610 H 58.798 2.06731 0.487453 0
M  V30 611 H 61.061 0.906339 0.277944 0
M  V30 612 H 60.767 3.1411 1.58201 0
M  V30 613 H 60.641 2.20465 3.06064 0
M  V30 614 H 63.028 1.30277 2.64786 0
M  V30 615 H 63.109 2.27415 1.17115 0
M  V30 616 H 62.753 4.38332 2.56568 0
M  V30 617 H 62.683 3.3813 4.03702 0
M  V30 618 H 65.174 2.72201 2.62135 0
M  V30 619 H 65.487 5.98196 4.89266 0
M  V30 620 H 63.832 5.37534 4.40548 0
M  V30 621 H 67.023 3.42962 3.18582 0
M  V30 622 H 67.196 4.91604 4.22173 0
M  V30 623 N 60.6021 -1.18246 1.0419 0
M  V30 624 C 61.8481 -1.88536 0.747122 0
M  V30 625 C 62.1811 -1.80223 -0.723409 0
M  V30 626 O 61.4561 -1.20337 -1.52804 0
M  V30 627 C 61.7391 -3.38968 1.21544 0
M  V30 628 C 61.5921 -3.56084 2.74816 0
M  V30 629 C 62.9111 -4.32648 0.806482 0
M  V30 630 H 60.0301 -0.684619 0.272883 0
M  V30 631 H 62.6721 -1.39113 1.29413 0
M  V30 632 H 60.8221 -3.8119 0.750081 0
M  V30 633 H 62.4941 -3.22946 3.29399 0
M  V30 634 H 60.7371 -2.98699 3.14582 0
M  V30 635 H 61.4081 -4.61639 3.02644 0
M  V30 636 H 63.8841 -3.98211 1.20695 0
M  V30 637 H 62.7601 -5.36462 1.1619 0
M  V30 638 H 63.0211 -4.41146 -0.29029 0
M  V30 639 N 62.0802 -0.821533 -1.34494 0
M  V30 640 C 63.0122 -0.199946 -2.28326 0
M  V30 641 C 64.0252 0.609377 -1.50965 0
M  V30 642 O 65.2142 0.439285 -1.7301 0
M  V30 643 C 62.3142 0.738431 -3.30757 0
M  V30 644 C 61.4872 -0.0277632 -4.37391 0
M  V30 645 C 60.5462 0.831332 -5.19591 0
M  V30 646 O 59.5722 0.276822 -5.68526 0
M  V30 647 N 60.7742 2.15132 -5.39165 0
M  V30 648 H 63.5392 -1.00609 -2.82308 0
M  V30 649 H 61.1002 -0.678366 -1.47003 0
M  V30 650 H 63.0922 1.31773 -3.82646 0
M  V30 651 H 61.6622 1.44533 -2.7718 0
M  V30 652 H 60.8822 -0.788359 -3.86236 0
M  V30 653 H 62.1702 -0.555251 -5.05761 0
M  V30 654 H 61.5682 2.62559 -5.01078 0
M  V30 655 H 60.1252 2.6795 -5.94177 0
M  V30 656 N 63.5583 1.46682 -0.576371 0
M  V30 657 C 64.8043 2.02712 -0.0596221 0
M  V30 658 C 65.1373 1.44765 1.29448 0
M  V30 659 O 64.4123 0.610355 1.84675 0
M  V30 660 C 64.6953 3.60098 0.0129503 0
M  V30 661 C 64.5483 4.28441 -1.3696 0
M  V30 662 C 65.8673 4.34224 0.71678 0
M  V30 663 H 62.9863 0.736637 -0.0231407 0
M  V30 664 H 65.6283 1.74898 -0.742351 0
M  V30 665 H 63.7783 3.83926 0.594378 0
M  V30 666 H 65.4503 4.15896 -1.9957 0
M  V30 667 H 63.6933 3.8805 -1.93907 0
M  V30 668 H 64.3643 5.3716 -1.27135 0
M  V30 669 H 66.8403 4.15503 0.222908 0
M  V30 670 H 65.7163 5.43936 0.73657 0
M  V30 671 H 65.9773 4.04823 1.77682 0
M  V30 672 N 65.0364 0.313813 1.54444 0
M  V30 673 C 65.9994 -0.54379 2.22656 0
M  V30 674 C 66.9994 -1.05124 1.21678 0
M  V30 675 O 68.1894 -0.945225 1.46325 0
M  V30 676 C 65.3214 -1.75427 2.92298 0
M  V30 677 H 66.5144 0.0523599 2.99854 0
M  V30 678 H 64.0674 0.0647834 1.56166 0
M  V30 679 H 64.8024 -2.38991 2.19211 0
M  V30 680 H 64.5874 -1.39791 3.66334 0
M  V30 681 H 66.0774 -2.36325 3.44297 0
M  V30 682 N 66.5145 -1.57545 0.0417849 0
M  V30 683 C 67.7605 -1.92601 -0.635021 0
M  V30 684 C 68.0935 -0.919627 -1.71045 0
M  V30 685 O 67.3685 0.0557892 -1.9442 0
M  V30 686 C 67.6515 -3.38085 -1.23979 0
M  V30 687 C 67.5045 -4.49467 -0.173057 0
M  V30 688 C 68.8235 -3.83776 -2.15416 0
M  V30 689 H 65.9425 -0.700397 -0.229374 0
M  V30 690 H 68.5845 -1.89728 0.101633 0
M  V30 691 H 66.7345 -3.40664 -1.86762 0
M  V30 692 H 68.4065 -4.59018 0.458312 0
M  V30 693 H 66.6495 -4.30909 0.499996 0
M  V30 694 H 67.3205 -5.48323 -0.636054 0
M  V30 695 H 69.7965 -3.83013 -1.62605 0
M  V30 696 H 68.6725 -4.8624 -2.54679 0
M  V30 697 H 68.9335 -3.19998 -3.05047 0
M  V30 698 N 67.9926 0.231505 -1.5589 0
M  V30 699 C 68.9396 1.28682 -1.91598 0
M  V30 700 C 69.9096 1.47071 -0.771974 0
M  V30 701 O 71.0946 1.60802 -1.027 0
M  V30 702 C 68.2346 2.6342 -2.22944 0
M  V30 703 C 67.3476 2.52912 -3.50228 0
M  V30 704 C 66.4826 3.80106 -3.7107 0
M  V30 705 C 65.5216 3.64279 -4.91902 0
M  V30 706 N 64.6586 4.834 -5.09184 0
M  V30 707 H 69.4986 0.975305 -2.81588 0
M  V30 708 H 67.0356 0.470299 -1.39379 0
M  V30 709 H 68.9936 3.41869 -2.39126 0
M  V30 710 H 67.6236 2.92687 -1.36139 0
M  V30 711 H 66.6756 1.6595 -3.42294 0
M  V30 712 H 67.9876 2.37133 -4.38827 0
M  V30 713 H 67.1416 4.66999 -3.87295 0
M  V30 714 H 65.8806 3.98799 -2.80733 0
M  V30 715 H 64.8856 2.7577 -4.75637 0
M  V30 716 H 66.1106 3.47067 -5.83714 0
M  V30 717 H 64.0566 5.02425 -4.21788 0
M  V30 718 H 63.9736 4.70311 -5.91898 0
M  V30 719 H 65.2416 5.71747 -5.29835 0
M  V30 720 N 69.4707 1.49531 0.497807 0
M  V30 721 C 70.4207 1.62829 1.59596 0
M  V30 722 C 71.4047 0.483824 1.53453 0
M  V30 723 O 72.5967 0.736937 1.60929 0
M  V30 724 C 69.7257 1.7011 2.98191 0
M  V30 725 C 68.8117 2.90144 3.09317 0
M  V30 726 N 69.2027 4.1418 2.90324 0
M  V30 727 C 67.5007 2.88148 3.40422 0
M  V30 728 C 68.2017 4.94886 3.05717 0
M  V30 729 N 67.1777 4.28314 3.34736 0
M  V30 730 H 70.9797 2.56446 1.4357 0
M  V30 731 H 68.4937 1.46347 0.704001 0
M  V30 732 H 70.4907 1.77735 3.77115 0
M  V30 733 H 69.1507 0.776315 3.15283 0
M  V30 734 H 70.1617 4.44109 2.66436 0
M  V30 735 H 66.8387 2.05061 3.63671 0
M  V30 736 H 68.2287 6.03432 2.95499 0
M  V30 737 N 70.9488 -0.749086 1.3866 0
M  V30 738 C 71.8788 -1.8764 1.38973 0
M  V30 739 C 72.8598 -1.68178 0.255004 0
M  V30 740 O 74.0448 -1.88704 0.458754 0
M  V30 741 C 71.1748 -3.25222 1.21851 0
M  V30 742 C 70.1288 -3.59295 2.32575 0
M  V30 743 C 69.4548 -4.95663 2.00555 0
M  V30 744 C 70.7548 -3.63709 3.7485 0
M  V30 745 H 72.4488 -1.87635 2.3331 0
M  V30 746 H 69.9948 -0.901329 1.12303 0
M  V30 747 H 71.9478 -4.03746 1.20695 0
M  V30 748 H 70.6718 -3.25719 0.239775 0
M  V30 749 H 69.3308 -2.83093 2.32925 0
M  V30 750 H 68.9788 -4.92724 1.01154 0
M  V30 751 H 68.6788 -5.19429 2.74714 0
M  V30 752 H 70.2028 -5.7656 2.01024 0
M  V30 753 H 71.6168 -4.32338 3.76506 0
M  V30 754 H 70.0138 -3.98986 4.48252 0
M  V30 755 H 71.0838 -2.63834 4.06841 0
M  V30 756 N 72.4269 -1.23603 -0.977757 0
M  V30 757 C 73.3769 -0.986664 -2.05545 0
M  V30 758 C 74.3609 0.0683009 -1.60755 0
M  V30 759 O 75.5529 -0.144162 -1.76412 0
M  V30 760 C 72.6819 -0.582623 -3.3832 0
M  V30 761 C 71.7679 -1.67313 -3.89701 0
M  V30 762 N 72.1589 -2.90394 -4.14132 0
M  V30 763 C 70.4569 -1.54832 -4.18262 0
M  V30 764 C 71.1579 -3.61017 -4.56116 0
M  V30 765 N 70.1339 -2.8854 -4.60701 0
M  V30 766 H 73.9359 -1.92139 -2.22396 0
M  V30 767 H 71.4499 -1.1358 -1.16074 0
M  V30 768 H 73.4469 -0.38524 -4.15116 0
M  V30 769 H 72.1069 0.34503 -3.22862 0
M  V30 770 H 73.1179 -3.26673 -4.01877 0
M  V30 771 H 69.7949 -0.687969 -4.11793 0
M  V30 772 H 71.1849 -4.66544 -4.83514 0
M  V30 773 N 73.905 1.17692 -1.04816 0
M  V30 774 C 75.154 1.87192 -0.751132 0
M  V30 775 C 75.467 1.8169 0.724441 0
M  V30 776 O 76.673 2.46625 1.13527 0
M  V30 777 C 75.129 3.35857 -1.29338 0
M  V30 778 C 74.737 3.4987 -2.79812 0
M  V30 779 C 76.481 4.10709 -1.07322 0
M  V30 780 C 74.388 4.92536 -3.27356 0
M  V30 781 H 73.318 0.701162 -0.277288 0
M  V30 782 H 75.969 1.32932 -1.26496 0
M  V30 783 H 74.351 3.89631 -0.707376 0
M  V30 784 H 75.525 3.06332 -3.44235 0
M  V30 785 H 73.84 2.88433 -3.00325 0
M  V30 786 H 76.437 5.15952 -1.4035 0
M  V30 787 H 76.78 4.16299 -0.0108001 0
M  V30 788 H 77.313 3.6313 -1.62423 0
M  V30 789 H 74.052 4.92119 -4.33012 0
M  V30 790 H 73.572 5.3676 -2.67673 0
M  V30 791 H 75.251 5.61288 -3.21815 0
M  V30 792 N 75.3831 0.828654 1.34056 0
M  V30 793 C 76.3331 0.226828 2.26869 0
M  V30 794 C 77.3171 -0.612243 1.48796 0
M  V30 795 O 78.5091 -0.465884 1.70759 0
M  V30 796 C 75.6381 -0.605654 3.37915 0
M  V30 797 C 74.7241 0.244361 4.23395 0
M  V30 798 N 75.1151 1.31815 4.88322 0
M  V30 799 C 73.4131 0.0296616 4.4599 0
M  V30 800 C 74.1141 1.83895 5.51867 0
M  V30 801 N 73.0901 1.14196 5.3147 0
M  V30 802 H 76.8921 1.04811 2.74576 0
M  V30 803 H 74.4061 0.67205 1.47842 0
M  V30 804 H 76.4031 -1.05302 4.03382 0
M  V30 805 H 75.0631 -1.42504 2.91758 0
M  V30 806 H 76.0741 1.70099 4.8917 0
M  V30 807 H 72.7511 -0.757097 4.10578 0
M  V30 808 H 74.1411 2.7376 6.136 0
M  V30 809 N 76.8612 -1.46375 0.584142 0
M  V30 810 C 78.0892 -2.06761 0.0759296 0
M  V30 811 C 78.5042 -1.43266 -1.22965 0
M  V30 812 O 77.8612 -0.538458 -1.74376 0
M  V30 813 C 77.9122 -3.61375 -0.0950384 0
M  V30 814 O 77.6332 -4.22495 1.15887 0
M  V30 815 C 79.1342 -4.38693 -0.637434 0
M  V30 816 H 76.3542 -0.668479 0.0581075 0
M  V30 817 H 78.8982 -1.8798 0.805218 0
M  V30 818 H 77.0532 -3.79578 -0.774554 0
M  V30 819 H 77.4672 -5.15385 0.973598 0
M  V30 820 H 78.9412 -5.47464 -0.706237 0
M  V30 821 H 79.4182 -4.06836 -1.65472 0
M  V30 822 H 80.0242 -4.25299 0.00725967 0
M  V30 823 N 78.3393 -0.321999 -1.54275 0
M  V30 824 C 79.7503 0.166384 -1.85957 0
M  V30 825 C 80.1013 1.51747 -1.24367 0
M  V30 826 O 79.2263 2.09317 -0.549124 0
M  V30 827 C 79.8213 0.308681 -3.37391 0
M  V30 828 C 78.3803 0.741286 -3.69028 0
M  V30 829 C 77.5273 -0.137937 -2.76957 0
M  V30 830 H 80.4783 -0.542335 -1.49146 0
M  V30 831 H 80.4993 1.13984 -3.63026 0
M  V30 832 H 80.0113 -0.674809 -3.82188 0
M  V30 833 H 78.1123 1.73458 -3.29762 0
M  V30 834 H 78.2253 0.546118 -4.75977 0
M  V30 835 H 76.5893 0.386251 -2.51754 0
M  V30 836 H 77.3723 -1.11816 -3.2458 0
M  V30 837 N 79.8174 1.5752 -0.0501392 0
M  V30 838 C 80.7474 2.14502 0.922566 0
M  V30 839 C 81.7284 1.06642 1.3252 0
M  V30 840 O 82.9134 1.34577 1.4001 0
M  V30 841 C 80.0434 2.68916 2.19776 0
M  V30 842 C 78.9974 3.8175 1.93523 0
M  V30 843 C 78.3234 4.22677 3.27487 0
M  V30 844 C 79.6234 5.06932 1.25765 0
M  V30 845 H 81.3174 2.9603 0.447952 0
M  V30 846 H 78.8634 1.42401 0.214024 0
M  V30 847 H 80.8164 3.07419 2.88222 0
M  V30 848 H 79.5404 1.84578 2.69441 0
M  V30 849 H 78.1994 3.43718 1.27489 0
M  V30 850 H 77.8474 3.35291 3.74952 0
M  V30 851 H 77.5474 4.98725 3.1072 0
M  V30 852 H 79.0714 4.63779 3.97166 0
M  V30 853 H 80.4854 5.42888 1.84244 0
M  V30 854 H 78.8824 5.88116 1.19328 0
M  V30 855 H 79.9524 4.84337 0.233536 0
M  V30 856 N 81.2955 -0.223234 1.56011 0
M  V30 857 C 82.2255 -1.27988 1.95298 0
M  V30 858 C 83.2065 -1.48976 0.820979 0
M  V30 859 O 84.3915 -1.61188 1.08315 0
M  V30 860 C 81.5215 -2.63 2.26822 0
M  V30 861 C 80.4755 -2.56671 3.42497 0
M  V30 862 C 79.8015 -3.95697 3.59622 0
M  V30 863 C 81.1015 -2.11601 4.77517 0
M  V30 864 H 82.7955 -0.953525 2.8381 0
M  V30 865 H 80.3415 -0.457244 1.36548 0
M  V30 866 H 82.2945 -3.37077 2.52898 0
M  V30 867 H 81.0185 -2.9732 1.35161 0
M  V30 868 H 79.6775 -1.85051 3.16467 0
M  V30 869 H 79.3255 -4.27322 2.6534 0
M  V30 870 H 79.0255 -3.92345 4.37424 0
M  V30 871 H 80.5495 -4.71438 3.88044 0
M  V30 872 H 81.9635 -2.7542 5.02809 0
M  V30 873 H 80.3605 -2.19311 5.5859 0
M  V30 874 H 81.4305 -1.06824 4.72987 0
M  V30 875 N 82.7736 -1.49793 -0.48987 0
M  V30 876 C 84.0506 -1.50348 -1.25119 0
M  V30 877 C 84.4306 -0.237466 -2.0976 0
M  V30 878 O 83.7786 0.77981 -2.14782 0
M  V30 879 C 83.9886 -2.78872 -2.09837 0
M  V30 880 C 85.3366 -3.288 -2.68655 0
M  V30 881 O 86.3606 -2.80065 -2.20096 0
M  V30 882 O 85.2196 -4.13707 -3.57083 0
M  V30 883 H 82.3136 -0.602242 -0.566775 0
M  V30 884 H 84.8596 -1.62067 -0.503229 0
M  V30 885 H 83.6316 -3.62499 -1.47343 0
M  V30 886 H 83.2546 -2.70066 -2.91805 0
M  V30 887 N 84.2517 0.741722 -1.39055 0
M  V30 888 C 85.4767 1.53607 -1.39354 0
M  V30 889 C 85.9017 1.88096 0.0116905 0
M  V30 890 O 85.2597 1.5143 0.996924 0
M  V30 891 C 85.3077 2.80441 -2.26682 0
M  V30 892 O 84.4117 3.76088 -1.69208 0
M  V30 893 H 83.7527 0.464142 -0.474835 0
M  V30 894 H 86.2827 0.915665 -1.82967 0
M  V30 895 H 86.2927 3.29246 -2.40959 0
M  V30 896 H 84.9677 2.5467 -3.2881 0
M  V30 897 H 83.5447 3.34833 -1.64138 0
M  V30 898 N 85.7298 1.2412 0.971189 0
M  V30 899 C 86.6398 1.04747 2.09917 0
M  V30 900 C 87.6558 -0.0107162 1.73997 0
M  V30 901 O 88.8318 0.186714 2.00533 0
M  V30 902 C 85.8968 0.650828 3.40537 0
M  V30 903 C 84.9578 1.7851 3.90426 0
M  V30 904 C 84.1908 1.40729 5.14812 0
M  V30 905 O 84.4138 0.29557 5.69634 0
M  V30 906 O 83.3478 2.23168 5.58999 0
M  V30 907 H 87.1738 1.99304 2.29154 0
M  V30 908 H 84.7588 1.02908 1.08307 0
M  V30 909 H 86.6408 0.440992 4.19086 0
M  V30 910 H 85.3158 -0.265649 3.22608 0
M  V30 911 H 84.2228 2.04966 3.12953 0
M  V30 912 H 85.5558 2.68023 4.12825 0
M  V30 913 N 87.2079 -1.17134 1.05439 0
M  V30 914 C 88.6239 -1.39454 0.776201 0
M  V30 915 C 88.8239 -1.91454 -0.628307 0
M  V30 916 O 87.8799 -2.10777 -1.39031 0
M  V30 917 C 89.1929 -2.38305 1.83388 0
M  V30 918 C 90.7409 -2.52006 1.85639 0
M  V30 919 C 91.2159 -3.54133 2.90437 0
M  V30 920 N 92.7069 -3.61653 2.89415 0
M  V30 921 C 93.4419 -4.4044 3.67152 0
M  V30 922 N 92.9379 -5.22721 4.54681 0
M  V30 923 N 94.7309 -4.35337 3.55581 0
M  V30 924 H 86.8819 -0.817134 1.96053 0
M  V30 925 H 89.1449 -0.421626 0.849079 0
M  V30 926 H 88.8509 -2.07173 2.84204 0
M  V30 927 H 88.7249 -3.37841 1.67761 0
M  V30 928 H 91.1119 -2.82447 0.85486 0
M  V30 929 H 91.1929 -1.52537 2.05344 0
M  V30 930 H 90.8369 -3.24431 3.90777 0
M  V30 931 H 90.7669 -4.53313 2.67983 0
M  V30 932 H 93.2579 -3.02909 2.25952 0
M  V30 933 H 93.5709 -5.80027 5.10674 0
M  V30 934 H 91.9159 -5.22093 4.58741 0
M  V30 935 H 95.1069 -3.70112 2.86592 0
M  V30 936 H 95.2799 -4.96494 4.1641 0
M  V30 937 N 88.686 -0.835752 -1.33615 0
M  V30 938 C 89.633 -0.26473 -2.29277 0
M  V30 939 C 90.603 0.617712 -1.54187 0
M  V30 940 O 91.788 0.556641 -1.825 0
M  V30 941 C 88.928 0.556777 -3.40579 0
M  V30 942 C 88.041 -0.349339 -4.30585 0
M  V30 943 C 87.176 0.482969 -5.29 0
M  V30 944 C 86.215 -0.421732 -6.10645 0
M  V30 945 N 85.352 0.372262 -7.01112 0
M  V30 946 H 90.192 -1.08582 -2.77514 0
M  V30 947 H 87.729 -0.546927 -1.36554 0
M  V30 948 H 89.687 1.04852 -4.03809 0
M  V30 949 H 88.317 1.34286 -2.93542 0
M  V30 950 H 87.369 -0.959372 -3.68104 0
M  V30 951 H 88.681 -1.04445 -4.87742 0
M  V30 952 H 87.835 1.03866 -5.97743 0
M  V30 953 H 86.574 1.21153 -4.72412 0
M  V30 954 H 85.579 -0.989464 -5.40823 0
M  V30 955 H 86.804 -1.14861 -6.69316 0
M  V30 956 H 84.75 1.08426 -6.46977 0
M  V30 957 H 84.667 -0.264198 -7.55538 0
M  V30 958 H 85.935 0.910293 -7.74167 0
M  V30 959 N 90.1641 1.46063 -0.591896 0
M  V30 960 C 91.4411 1.95595 -0.0137119 0
M  V30 961 C 91.8211 1.5345 1.4497 0
M  V30 962 O 91.1691 0.789543 2.14426 0
M  V30 963 C 91.3791 3.48453 -0.195373 0
M  V30 964 C 92.7271 4.24546 -0.0679765 0
M  V30 965 O 93.7511 3.55982 -0.124681 0
M  V30 966 O 92.6101 5.46467 0.0600579 0
M  V30 967 H 89.7041 0.825795 0.0446279 0
M  V30 968 H 92.2501 1.56303 -0.660859 0
M  V30 969 H 91.0221 3.72045 -1.21235 0
M  V30 970 H 90.6451 3.94597 0.487775 0
M  V30 971 N 91.6422 0.330177 1.54103 0
M  V30 972 C 92.8882 -0.270806 2.00984 0
M  V30 973 C 93.2212 -1.51265 1.21789 0
M  V30 974 O 92.4962 -1.92142 0.301927 0
M  V30 975 C 92.7792 -0.598339 3.55094 0
M  V30 976 C 92.6322 0.654674 4.4501 0
M  V30 977 C 93.9512 -1.41334 4.16789 0
M  V30 978 H 91.0702 -0.0969531 0.730595 0
M  V30 979 H 93.7122 0.448066 1.84641 0
M  V30 980 H 91.8622 -1.21078 3.69151 0
M  V30 981 H 93.5342 1.29285 4.42813 0
M  V30 982 H 91.7772 1.28224 4.14416 0
M  V30 983 H 92.4482 0.380944 5.50684 0
M  V30 984 H 94.9242 -0.895597 4.06347 0
M  V30 985 H 93.8002 -1.61127 5.24718 0
M  V30 986 H 94.0612 -2.41146 3.70541 0
M  V30 987 N 93.1203 -1.57491 0.0584922 0
M  V30 988 C 94.0503 -2.14988 -0.911178 0
M  V30 989 C 95.0313 -1.07343 -1.31952 0
M  V30 990 O 96.2163 -1.35318 -1.39294 0
M  V30 991 C 93.3463 -2.70078 -2.18347 0
M  V30 992 C 92.3003 -3.82771 -1.91495 0
M  V30 993 C 91.6263 -4.24408 -3.25241 0
M  V30 994 C 92.9263 -5.07592 -1.23075 0
M  V30 995 H 94.6203 -2.96263 -0.432246 0
M  V30 996 H 92.1663 -1.42512 -0.206469 0
M  V30 997 H 94.1193 -3.08943 -2.86587 0
M  V30 998 H 92.8433 -1.86005 -2.68458 0
M  V30 999 H 91.5023 -3.44389 -1.25664 0
M  V30 1000 H 91.1503 -3.37275 -3.73168 0
M  V30 1001 H 90.8503 -5.00366 -3.08071 0
M  V30 1002 H 92.3743 -4.65879 -3.94701 0
M  V30 1003 H 93.7883 -5.43857 -1.81362 0
M  V30 1004 H 92.1853 -5.88741 -1.16207 0
M  V30 1005 H 93.2553 -4.84454 -0.207847 0
M  V30 1006 N 94.5984 0.214957 -1.56127 0
M  V30 1007 C 96.0144 0.564948 -1.49267 0
M  V30 1008 C 96.2144 1.86827 -0.754838 0
M  V30 1009 O 95.2704 2.50745 -0.297198 0
M  V30 1010 C 96.5834 0.638071 -2.93852 0
M  V30 1011 C 98.1314 0.728253 -3.0441 0
M  V30 1012 C 98.6064 0.832663 -4.50367 0
M  V30 1013 N 100.097 0.896712 -4.54437 0
M  V30 1014 C 100.832 0.997324 -5.6466 0
M  V30 1015 N 100.328 1.06147 -6.8462 0
M  V30 1016 N 102.121 1.03297 -5.52527 0
M  V30 1017 H 94.2724 -0.640211 -2.02522 0
M  V30 1018 H 96.5354 -0.225507 -0.920788 0
M  V30 1019 H 96.2414 -0.250126 -3.50809 0
M  V30 1020 H 96.1154 1.49947 -3.46115 0
M  V30 1021 H 98.5024 1.60689 -2.47514 0
M  V30 1022 H 98.5834 -0.158952 -2.55306 0
M  V30 1023 H 98.2274 -0.0415417 -5.07883 0
M  V30 1024 H 98.1574 1.73538 -4.97184 0
M  V30 1025 H 100.648 0.857188 -3.6805 0
M  V30 1026 H 100.961 1.1382 -7.64372 0
M  V30 1027 H 99.3064 1.03049 -6.87318 0
M  V30 1028 H 102.497 0.979558 -4.57736 0
M  V30 1029 H 102.67 1.10793 -6.38458 0
M  V30 1030 N 96.0765 1.50051 0.48192 0
M  V30 1031 C 96.9865 1.7089 1.60728 0
M  V30 1032 C 98.0025 0.591788 1.63627 0
M  V30 1033 O 99.1785 0.868817 1.81696 0
M  V30 1034 C 96.2435 1.78855 2.97005 0
M  V30 1035 C 95.3045 3.02537 3.04581 0
M  V30 1036 C 94.5375 3.10112 4.34357 0
M  V30 1037 O 94.7605 2.24765 5.24249 0
M  V30 1038 O 93.6945 4.02747 4.47301 0
M  V30 1039 H 97.5205 2.66264 1.46072 0
M  V30 1040 H 95.1055 1.34018 0.660264 0
M  V30 1041 H 96.9875 1.86336 3.77964 0
M  V30 1042 H 95.6625 0.866628 3.11883 0
M  V30 1043 H 94.5695 3.00563 2.22739 0
M  V30 1044 H 95.9025 3.94272 2.94636 0
M  V30 1045 N 97.5546 -0.734337 1.39446 0
M  V30 1046 C 98.5176 -1.83004 1.37994 0
M  V30 1047 C 99.5176 -1.58397 0.276938 0
M  V30 1048 O 100.708 -1.65785 0.534875 0
M  V30 1049 C 97.8396 -3.20802 1.1532 0
M  V30 1050 H 99.0326 -1.85694 2.35494 0
M  V30 1051 H 96.5856 -0.938059 1.25021 0
M  V30 1052 H 97.3206 -3.23772 0.185036 0
M  V30 1053 H 97.1056 -3.4006 1.95197 0
M  V30 1054 H 98.5956 -4.00862 1.17046 0
M  V30 1055 N 99.0327 -1.24633 -0.964593 0
M  V30 1056 C 99.9427 -1.05859 -2.09359 0
M  V30 1057 C 100.959 0.00148855 -1.74 0
M  V30 1058 O 102.135 -0.197346 -2.00431 0
M  V30 1059 C 99.1997 -0.668879 -3.40187 0
M  V30 1060 C 98.2607 -1.80578 -3.89474 0
M  V30 1061 C 97.4937 -1.43457 -5.14058 0
M  V30 1062 O 97.7167 -0.325775 -5.69469 0
M  V30 1063 O 96.6507 -2.2613 -5.57807 0
M  V30 1064 H 100.477 -2.00516 -2.28094 0
M  V30 1065 H 98.0617 -1.03481 -1.0776 0
M  V30 1066 H 99.9437 -0.463211 -4.18846 0
M  V30 1067 H 98.6187 0.248536 -3.22744 0
M  V30 1068 H 97.5257 -2.06623 -3.11862 0
M  V30 1069 H 98.8587 -2.70208 -4.11398 0
M  V30 1070 N 100.511 1.16574 -1.06058 0
M  V30 1071 C 101.76 1.86385 -0.770944 0
M  V30 1072 C 102.073 1.82448 0.705129 0
M  V30 1073 O 103.279 2.47815 1.10905 0
M  V30 1074 C 101.735 3.34466 -1.32893 0
M  V30 1075 C 101.343 3.46883 -2.83507 0
M  V30 1076 C 103.087 4.09548 -1.11672 0
M  V30 1077 C 100.994 4.89036 -3.32562 0
M  V30 1078 H 99.9238 0.698181 -0.284709 0
M  V30 1079 H 102.575 1.31583 -1.27899 0
M  V30 1080 H 100.957 3.88859 -0.748662 0
M  V30 1081 H 102.131 3.02663 -3.47465 0
M  V30 1082 H 100.446 2.85232 -3.03368 0
M  V30 1083 H 103.043 5.14434 -1.45814 0
M  V30 1084 H 103.386 4.16264 -0.0549535 0
M  V30 1085 H 103.919 3.61387 -1.66265 0
M  V30 1086 H 100.658 4.87499 -4.38207 0
M  V30 1087 H 100.178 5.3389 -2.73351 0
M  V30 1088 H 101.857 5.57843 -3.2775 0
M  V30 1089 N 101.989 0.842826 1.3317 0
M  V30 1090 C 102.919 0.294028 2.31641 0
M  V30 1091 C 103.9 -0.600401 1.59151 0
M  V30 1092 O 105.085 -0.523124 1.87022 0
M  V30 1093 C 102.215 -0.528416 3.43257 0
M  V30 1094 C 101.169 0.27056 4.27144 0
M  V30 1095 C 100.495 -0.675881 5.30411 0
M  V30 1096 C 101.795 1.48981 5.00602 0
M  V30 1097 H 103.489 1.11681 2.77791 0
M  V30 1098 H 101.035 0.538478 1.33553 0
M  V30 1099 H 102.988 -0.922674 4.11175 0
M  V30 1100 H 101.712 -1.38445 2.95805 0
M  V30 1101 H 100.371 0.646427 3.60856 0
M  V30 1102 H 100.019 -1.52842 4.79216 0
M  V30 1103 H 99.7189 -0.145374 5.8742 0
M  V30 1104 H 101.243 -1.06757 6.01195 0
M  V30 1105 H 102.657 1.16849 5.61266 0
M  V30 1106 H 101.054 1.95739 5.6728 0
M  V30 1107 H 102.124 2.25746 4.29147 0
M  V30 1108 N 103.467 -1.45747 0.599634 0
M  V30 1109 C 104.417 -2.27538 -0.145107 0
M  V30 1110 C 105.401 -1.3686 -0.846055 0
M  V30 1111 O 106.593 -1.6091 -0.737357 0
M  V30 1112 C 103.722 -3.23569 -1.14708 0
M  V30 1113 C 102.808 -4.21734 -0.447383 0
M  V30 1114 N 103.199 -5.03257 0.506535 0
M  V30 1115 C 101.497 -4.40536 -0.695966 0
M  V30 1116 C 102.198 -5.74426 0.917068 0
M  V30 1117 N 101.174 -5.42966 0.26253 0
M  V30 1118 H 104.976 -2.87965 0.587672 0
M  V30 1119 H 102.49 -1.56803 0.422697 0
M  V30 1120 H 104.487 -3.8089 -1.69495 0
M  V30 1121 H 103.147 -2.64702 -1.8805 0
M  V30 1122 H 104.158 -5.10319 0.882899 0
M  V30 1123 H 100.835 -3.92802 -1.41467 0
M  V30 1124 H 102.225 -6.4995 1.70338 0
M  V30 1125 N 104.945 -0.338344 -1.53925 0
M  V30 1126 C 105.892 0.520845 -2.24846 0
M  V30 1127 C 106.862 1.09976 -1.24477 0
M  V30 1128 O 108.047 1.13735 -1.53196 0
M  V30 1129 C 105.187 1.6685 -3.02084 0
M  V30 1130 C 104.3 1.11739 -4.17299 0
M  V30 1131 C 103.435 2.23193 -4.82036 0
M  V30 1132 C 102.474 1.65407 -5.89328 0
M  V30 1133 N 101.611 2.70582 -6.47866 0
M  V30 1134 H 106.451 -0.0904881 -2.97863 0
M  V30 1135 H 103.988 -0.0564282 -1.46992 0
M  V30 1136 H 105.946 2.34407 -3.45122 0
M  V30 1137 H 104.576 2.2509 -2.31375 0
M  V30 1138 H 103.628 0.332919 -3.7894 0
M  V30 1139 H 104.94 0.654677 -4.94485 0
M  V30 1140 H 104.094 2.98626 -5.28117 0
M  V30 1141 H 102.833 2.72807 -4.04262 0
M  V30 1142 H 101.838 0.884779 -5.42634 0
M  V30 1143 H 103.063 1.16652 -6.69006 0
M  V30 1144 H 101.009 3.1946 -5.72959 0
M  V30 1145 H 100.926 2.28917 -7.20509 0
M  V30 1146 H 102.194 3.45799 -6.98601 0
M  V30 1147 N 106.423 1.57458 -0.0668435 0
M  V30 1148 C 107.386 2.11323 0.887422 0
M  V30 1149 C 108.386 1.03618 1.22964 0
M  V30 1150 O 109.576 1.29626 1.16373 0
M  V30 1151 C 106.708 2.61048 2.19242 0
M  V30 1152 H 107.901 2.96942 0.420194 0
M  V30 1153 H 105.454 1.55239 0.181793 0
M  V30 1154 H 106.189 1.78868 2.70512 0
M  V30 1155 H 105.974 3.39769 1.95702 0
M  V30 1156 H 107.464 3.02814 2.87565 0
M  V30 1157 N 107.901 -0.206675 1.56239 0
M  V30 1158 C 109.317 -0.557025 1.49564 0
M  V30 1159 C 109.517 -1.86424 0.764735 0
M  V30 1160 O 108.573 -2.50584 0.310491 0
M  V30 1161 C 109.886 -0.622478 2.94186 0
M  V30 1162 C 111.434 -0.712099 3.04792 0
M  V30 1163 C 111.909 -0.808767 4.50803 0
M  V30 1164 N 113.4 -0.8726 4.54907 0
M  V30 1165 C 114.135 -0.967365 5.65181 0
M  V30 1166 N 113.631 -1.02515 6.85173 0
M  V30 1167 N 115.424 -1.00366 5.53067 0
M  V30 1168 H 107.575 0.650943 2.02179 0
M  V30 1169 H 109.838 0.230387 0.919579 0
M  V30 1170 H 109.544 0.268727 3.50672 0
M  V30 1171 H 109.418 -1.4811 3.46905 0
M  V30 1172 H 111.805 -1.59374 2.48363 0
M  V30 1173 H 111.886 0.172489 2.55218 0
M  V30 1174 H 111.53 0.0684754 5.07854 0
M  V30 1175 H 111.46 -1.70899 4.98098 0
M  V30 1176 H 113.951 -0.837657 3.68499 0
M  V30 1177 H 114.264 -1.09765 7.64965 0
M  V30 1178 H 112.609 -0.994026 6.87855 0
M  V30 1179 H 115.8 -0.95527 4.58249 0
M  V30 1180 H 115.973 -1.07405 6.39037 0
M  V30 1181 N 109.379 -1.50304 -0.473955 0
M  V30 1182 C 110.626 -1.6115 -1.22625 0
M  V30 1183 C 110.954 -0.310517 -1.92005 0
M  V30 1184 O 110.209 0.703419 -1.82621 0
M  V30 1185 C 110.508 -2.73938 -2.29549 0
M  V30 1186 C 110.174 -4.14519 -1.7744 0
M  V30 1187 C 108.836 -4.5277 -1.62949 0
M  V30 1188 C 111.188 -5.02392 -1.3875 0
M  V30 1189 C 108.516 -5.76639 -1.08187 0
M  V30 1190 C 110.868 -6.26805 -0.854309 0
M  V30 1191 C 109.532 -6.63861 -0.696011 0
M  V30 1192 H 108.802 -0.589691 -0.448715 0
M  V30 1193 H 111.449 -1.84228 -0.522705 0
M  V30 1194 H 109.754 -2.44937 -3.05799 0
M  V30 1195 H 111.451 -2.79534 -2.87509 0
M  V30 1196 H 108.041 -3.8434 -1.89685 0
M  V30 1197 H 112.225 -4.73474 -1.4878 0
M  V30 1198 H 107.481 -6.04027 -0.946666 0
M  V30 1199 H 111.655 -6.94258 -0.545843 0
M  V30 1200 H 109.282 -7.59722 -0.26952 0
M  V30 1201 N 110.857 0.726932 -1.39834 0
M  V30 1202 C 112.082 1.52121 -1.40976 0
M  V30 1203 C 112.507 1.88098 -0.00826029 0
M  V30 1204 O 111.865 1.52479 0.980807 0
M  V30 1205 C 111.913 2.78021 -2.29644 0
M  V30 1206 O 111.017 3.74272 -1.73188 0
M  V30 1207 H 110.358 0.45908 -0.479731 0
M  V30 1208 H 112.888 0.896207 -1.83927 0
M  V30 1209 H 112.898 3.26671 -2.44438 0
M  V30 1210 H 111.573 2.51169 -3.31492 0
M  V30 1211 H 110.15 3.33073 -1.6768 0
M  V30 1212 N 112.336 1.25143 0.95797 0
M  V30 1213 C 113.566 1.12261 1.73439 0
M  V30 1214 C 113.974 -0.326715 1.86358 0
M  V30 1215 O 113.317 -1.2367 1.35836 0
M  V30 1216 C 113.379 1.69966 3.16784 0
M  V30 1217 C 113.043 3.18936 3.27305 0
M  V30 1218 C 114.04 4.15968 3.11877 0
M  V30 1219 C 111.725 3.59083 3.51234 0
M  V30 1220 C 113.719 5.51126 3.20217 0
M  V30 1221 C 111.406 4.9438 3.5921 0
M  V30 1222 C 112.404 5.90211 3.43716 0
M  V30 1223 O 112.092 7.23046 3.51368 0
M  V30 1224 H 111.824 0.392476 0.550399 0
M  V30 1225 H 114.378 1.65927 1.21068 0
M  V30 1226 H 112.608 1.10744 3.70503 0
M  V30 1227 H 114.297 1.52232 3.76272 0
M  V30 1228 H 115.063 3.86292 2.93264 0
M  V30 1229 H 110.942 2.84989 3.62356 0
M  V30 1230 H 114.486 6.25905 3.0804 0
M  V30 1231 H 110.383 5.23723 3.77339 0
M  V30 1232 H 111.151 7.31097 3.6802 0
M  V30 1233 N 113.814 -1.1601 1.06675 0
M  V30 1234 C 115.063 -1.85973 0.780818 0
M  V30 1235 C 115.376 -1.82819 -0.695444 0
M  V30 1236 O 116.582 -2.484 -1.09589 0
M  V30 1237 C 115.038 -3.33757 1.34665 0
M  V30 1238 C 114.646 -3.45374 2.85343 0
M  V30 1239 C 116.39 -4.0895 1.13843 0
M  V30 1240 C 114.297 -4.87266 3.35151 0
M  V30 1241 H 113.227 -0.696661 0.288407 0
M  V30 1242 H 115.878 -1.30903 1.28595 0
M  V30 1243 H 114.26 -3.88456 0.769274 0
M  V30 1244 H 115.434 -3.00816 3.49065 0
M  V30 1245 H 113.749 -2.83619 3.04876 0
M  V30 1246 H 116.346 -5.13654 1.4854 0
M  V30 1247 H 116.689 -4.16229 0.0770282 0
M  V30 1248 H 117.222 -3.605 1.68179 0
M  V30 1249 H 113.961 -4.85168 4.40786 0
M  V30 1250 H 113.481 -5.32433 2.76179 0
M  V30 1251 H 115.16 -5.56097 3.30704 0
M  V30 1252 N 115.292 -0.849877 -1.32721 0
M  V30 1253 C 116.222 -0.306308 -2.31482 0
M  V30 1254 C 117.203 0.591952 -1.59468 0
M  V30 1255 O 118.388 0.513199 -1.87296 0
M  V30 1256 C 115.518 0.510204 -3.43532 0
M  V30 1257 C 114.472 -0.293209 -4.26994 0
M  V30 1258 C 113.798 0.647743 -5.30762 0
M  V30 1259 C 115.098 -1.51634 -4.99804 0
M  V30 1260 H 116.792 -1.13153 -2.77195 0
M  V30 1261 H 114.338 -0.545553 -1.33266 0
M  V30 1262 H 116.291 0.900856 -4.11658 0
M  V30 1263 H 115.015 1.36874 -2.96535 0
M  V30 1264 H 113.674 -0.665555 -3.60508 0
M  V30 1265 H 113.322 1.50299 -4.8002 0
M  V30 1266 H 113.022 0.11422 -5.87489 0
M  V30 1267 H 114.546 1.03567 -6.01753 0
M  V30 1268 H 115.96 -1.19824 -5.60638 0
M  V30 1269 H 114.357 -1.98745 -5.66234 0
M  V30 1270 H 115.427 -2.28018 -4.27943 0
M  V30 1271 N 116.77 1.45427 -0.607355 0
M  V30 1272 C 118.181 1.85756 -0.187535 0
M  V30 1273 C 118.532 1.5077 1.25551 0
M  V30 1274 O 117.657 0.93427 1.95193 0
M  V30 1275 C 118.252 3.37154 -0.333572 0
M  V30 1276 C 116.811 3.76387 0.0315542 0
M  V30 1277 C 115.958 2.69377 -0.658117 0
M  V30 1278 H 118.909 1.36231 -0.81405 0
M  V30 1279 H 118.93 3.78014 0.43428 0
M  V30 1280 H 118.442 3.62586 -1.38393 0
M  V30 1281 H 116.543 3.56571 1.0811 0
M  V30 1282 H 116.656 4.77731 -0.361935 0
M  V30 1283 H 115.02 2.5452 -0.0957873 0
M  V30 1284 H 115.803 2.97646 -1.7106 0
M  V30 1285 N 118.248 0.346503 1.53744 0
M  V30 1286 C 119.497 -0.250122 2.00143 0
M  V30 1287 C 119.81 -1.51418 1.23822 0
M  V30 1288 O 121.016 -2.18823 1.60713 0
M  V30 1289 C 119.472 -0.496252 3.56462 0
M  V30 1290 C 119.08 0.752077 4.41642 0
M  V30 1291 C 120.824 -1.05157 4.11269 0
M  V30 1292 C 118.731 0.476583 5.89477 0
M  V30 1293 H 117.661 -0.0972409 0.747703 0
M  V30 1294 H 120.312 0.46229 1.77581 0
M  V30 1295 H 118.694 -1.26944 3.75102 0
M  V30 1296 H 119.868 1.5266 4.34778 0
M  V30 1297 H 118.183 1.22925 3.97842 0
M  V30 1298 H 120.78 -1.27269 5.19333 0
M  V30 1299 H 121.123 -2.00799 3.64672 0
M  V30 1300 H 121.656 -0.339019 3.96353 0
M  V30 1301 H 118.395 1.4028 6.40314 0
M  V30 1302 H 117.915 -0.259794 5.99237 0
M  V30 1303 H 119.594 0.0949315 6.4693 0
M  V30 1304 N 119.726 -1.57421 0.075193 0
M  V30 1305 C 120.656 -2.15942 -0.888324 0
M  V30 1306 C 121.637 -1.08737 -1.30806 0
M  V30 1307 O 122.822 -1.36787 -1.37851 0
M  V30 1308 C 119.952 -2.72379 -2.1547 0
M  V30 1309 C 118.906 -3.8478 -1.87425 0
M  V30 1310 C 118.232 -4.27834 -3.20721 0
M  V30 1311 C 119.532 -5.08869 -1.17684 0
M  V30 1312 H 121.226 -2.96705 -0.400799 0
M  V30 1313 H 118.772 -1.42723 -0.191342 0
M  V30 1314 H 120.725 -3.11965 -2.83295 0
M  V30 1315 H 119.449 -1.88841 -2.6647 0
M  V30 1316 H 118.108 -3.45703 -1.22004 0
M  V30 1317 H 117.756 -3.41214 -3.6957 0
M  V30 1318 H 117.456 -5.03605 -3.02746 0
M  V30 1319 H 118.98 -4.70039 -3.89738 0
M  V30 1320 H 120.394 -5.4575 -1.75584 0
M  V30 1321 H 118.791 -5.8994 -1.09956 0
M  V30 1322 H 119.861 -4.84648 -0.156453 0
M  V30 1323 N 121.204 0.198386 -1.56346 0
M  V30 1324 C 122.452 0.91747 -1.80075 0
M  V30 1325 C 122.773 1.83929 -0.647692 0
M  V30 1326 O 122.043 1.93029 0.334166 0
M  V30 1327 H 120.623 0.341774 -0.664228 0
M  V30 1328 H 123.285 0.204684 -1.93822 0
M  V30 1329 H 122.381 1.51055 -2.7311 0
M  V30 1330 N 122.682 1.50554 0.465978 0
M  V30 1331 C 123.931 1.61038 1.21448 0
M  V30 1332 C 124.244 0.31865 1.92987 0
M  V30 1333 O 125.45 0.302469 2.6981 0
M  V30 1334 C 123.906 2.84283 2.20706 0
M  V30 1335 C 123.514 4.20352 1.54946 0
M  V30 1336 C 125.258 3.04115 2.96166 0
M  V30 1337 C 123.165 5.34778 2.5252 0
M  V30 1338 H 122.095 0.599718 0.457005 0
M  V30 1339 H 124.746 1.7699 0.484424 0
M  V30 1340 H 123.128 2.61901 2.97025 0
M  V30 1341 H 124.302 4.53008 0.843811 0
M  V30 1342 H 122.617 4.06167 0.917475 0
M  V30 1343 H 125.214 3.86774 3.69202 0
M  V30 1344 H 125.557 2.16045 3.55852 0
M  V30 1345 H 126.09 3.26702 2.26959 0
M  V30 1346 H 122.829 6.25018 1.97566 0
M  V30 1347 H 122.349 5.06534 3.21222 0
M  V30 1348 H 124.028 5.65561 3.14245 0
M  V30 1349 N 124.16 -0.719506 1.40217 0
M  V30 1350 C 125.4 -1.49181 1.39729 0
M  V30 1351 C 125.764 -1.92 -0.00250614 0
M  V30 1352 O 126.965 -2.68473 -0.132479 0
M  V30 1353 C 125.236 -2.68767 2.35582 0
M  V30 1354 S 126.795 -3.58224 2.53418 0
M  V30 1355 H 123.613 -0.510091 0.495307 0
M  V30 1356 H 126.215 -0.841724 1.76452 0
M  V30 1357 H 124.919 -2.35475 3.36124 0
M  V30 1358 H 124.45 -3.38691 2.0013 0
M  V30 1359 H 126.465 -4.63033 1.78367 0
M  V30 1360 N 125.638 -1.25649 -0.95132 0
M  V30 1361 C 126.586 -1.06118 -2.06982 0
M  V30 1362 C 127.58 0.00889169 -1.69398 0
M  V30 1363 O 128.786 -0.146988 -1.79399 0
M  V30 1364 H 125.161 -0.326248 -0.677544 0
M  V30 1365 H 127.132 -2.00932 -2.2061 0
M  V30 1366 C 125.881 -0.700145 -3.40578 0
M  V30 1367 H 125.204 -1.51537 -3.69968 0
M  V30 1368 H 126.644 -0.603211 -4.19687 0
M  V30 1369 C 125.103 0.59403 -3.31622 0
M  V30 1370 O 125.633 1.63522 -3.66911 0
M  V30 1371 N 123.839 0.58089 -2.84735 0
M  V30 1372 H 123.386 -0.266783 -2.56215 0
M  V30 1373 H 123.344 1.44695 -2.79125 0
M  V30 1374 N 127.117 1.15442 -1.07289 0
M  V30 1375 C 128.027 2.23786 -0.704057 0
M  V30 1376 C 129.043 1.7166 0.284413 0
M  V30 1377 O 130.219 2.00972 0.131205 0
M  V30 1378 C 127.284 3.46535 -0.106792 0
M  V30 1379 C 126.345 4.13654 -1.14842 0
M  V30 1380 C 125.578 5.30544 -0.57956 0
M  V30 1381 O 125.801 5.67187 0.604585 0
M  V30 1382 O 124.735 5.87154 -1.32414 0
M  V30 1383 H 128.561 2.57664 -1.60757 0
M  V30 1384 H 126.146 1.23152 -0.845803 0
M  V30 1385 H 128.028 4.20804 0.224048 0
M  V30 1386 H 126.703 3.14407 0.770049 0
M  V30 1387 H 125.61 3.4131 -1.5316 0
M  V30 1388 H 126.943 4.49861 -1.99714 0
M  V30 1389 N 128.595 0.856903 1.32268 0
M  V30 1390 C 130.006 0.515711 1.79436 0
M  V30 1391 C 130.357 -0.966586 1.70738 0
M  V30 1392 O 129.482 -1.75409 1.26731 0
M  V30 1393 C 130.077 0.929335 3.25805 0
M  V30 1394 C 128.636 0.640006 3.70919 0
M  V30 1395 C 127.783 1.12784 2.53328 0
M  V30 1396 H 130.734 1.04389 1.19535 0
M  V30 1397 H 130.755 0.246633 3.797 0
M  V30 1398 H 130.267 2.00821 3.32103 0
M  V30 1399 H 128.368 -0.428051 3.70133 0
M  V30 1400 H 128.481 1.20788 4.63624 0
M  V30 1401 H 126.845 0.548033 2.48734 0
M  V30 1402 H 127.628 2.21387 2.62379 0
M  V30 1403 N 130.073 -1.45103 0.615059 0
M  V30 1404 C 130.983 -2.34382 -0.101034 0
M  V30 1405 C 131.999 -1.51681 -0.852585 0
M  V30 1406 O 133.175 -1.8446 -0.808484 0
M  V30 1407 C 130.24 -3.29417 -1.08099 0
M  V30 1408 C 129.301 -4.28025 -0.330577 0
M  V30 1409 C 128.534 -5.1852 -1.26385 0
M  V30 1410 O 128.757 -5.12598 -2.50198 0
M  V30 1411 O 127.691 -5.97122 -0.756866 0
M  V30 1412 H 131.517 -2.97033 0.632855 0
M  V30 1413 H 129.102 -1.4461 0.375293 0
M  V30 1414 H 130.984 -3.87958 -1.6452 0
M  V30 1415 H 129.659 -2.69321 -1.79577 0
M  V30 1416 H 128.566 -3.73078 0.276283 0
M  V30 1417 H 129.899 -4.90997 0.343866 0
M  V30 1418 N 131.551 -0.354651 -1.53558 0
M  V30 1419 C 132.798 0.238443 -2.01091 0
M  V30 1420 C 133.126 1.49663 -1.24222 0
M  V30 1421 O 132.381 1.93049 -0.321003 0
M  V30 1422 C 132.68 0.587121 -3.52545 0
M  V30 1423 C 132.346 -0.575472 -4.47213 0
M  V30 1424 C 131.008 -0.894497 -4.72813 0
M  V30 1425 C 133.36 -1.35489 -5.03281 0
M  V30 1426 C 130.688 -1.99511 -5.51736 0
M  V30 1427 C 133.04 -2.44583 -5.83405 0
M  V30 1428 C 131.704 -2.77033 -6.07296 0
M  V30 1429 H 130.974 0.0872526 -0.735845 0
M  V30 1430 H 133.621 -0.484859 -1.8526 0
M  V30 1431 H 131.926 1.39129 -3.66265 0
M  V30 1432 H 133.623 1.05809 -3.86789 0
M  V30 1433 H 130.213 -0.316774 -4.27428 0
M  V30 1434 H 134.397 -1.12167 -4.83459 0
M  V30 1435 H 129.653 -2.25063 -5.68469 0
M  V30 1436 H 133.827 -3.05401 -6.25862 0
M  V30 1437 H 131.454 -3.6244 -6.68237 0
M  V30 1438 N 133.029 1.57378 -0.0835403 0
M  V30 1439 C 133.959 2.1641 0.87686 0
M  V30 1440 C 134.94 1.09429 1.30228 0
M  V30 1441 O 136.125 1.37516 1.37124 0
M  V30 1442 C 133.255 2.73517 2.14022 0
M  V30 1443 C 132.209 3.85769 1.85381 0
M  V30 1444 C 131.535 4.29529 3.18448 0
M  V30 1445 C 132.835 5.09486 1.14984 0
M  V30 1446 H 134.529 2.96914 0.385059 0
M  V30 1447 H 132.075 1.42823 0.18377 0
M  V30 1448 H 134.028 3.13463 2.81636 0
M  V30 1449 H 132.752 1.90252 2.65465 0
M  V30 1450 H 131.411 3.46345 1.20169 0
M  V30 1451 H 131.059 3.43169 3.67755 0
M  V30 1452 H 130.759 5.05204 3.00071 0
M  V30 1453 H 132.283 4.72099 3.8724 0
M  V30 1454 H 133.697 5.46674 1.72687 0
M  V30 1455 H 132.094 5.90515 1.06826 0
M  V30 1456 H 133.164 4.84724 0.130749 0
M  V30 1457 N 134.507 -0.190092 1.56449 0
M  V30 1458 C 135.755 -0.907908 1.80559 0
M  V30 1459 C 136.076 -1.83583 0.657438 0
M  V30 1460 O 135.346 -1.93203 -0.323924 0
M  V30 1461 H 133.926 -0.338247 0.666032 0
M  V30 1462 H 136.588 -0.194403 1.93928 0
M  V30 1463 H 135.684 -1.49604 2.73907 0
M  V30 1464 N 135.985 -1.50799 -0.457987 0
M  V30 1465 C 137.234 -1.6168 -1.20593 0
M  V30 1466 C 137.547 -0.32888 -1.92815 0
M  V30 1467 O 138.753 -0.316773 -2.69646 0
M  V30 1468 C 137.209 -2.8545 -2.19195 0
M  V30 1469 C 136.817 -4.21168 -1.52715 0
M  V30 1470 C 138.561 -3.05681 -2.94549 0
M  V30 1471 C 136.468 -5.3611 -2.4968 0
M  V30 1472 H 135.398 -0.602134 -0.453818 0
M  V30 1473 H 138.049 -1.77245 -0.475031 0
M  V30 1474 H 136.431 -2.63472 -2.95632 0
M  V30 1475 H 137.605 -4.53449 -0.819775 0
M  V30 1476 H 135.92 -4.06648 -0.895922 0
M  V30 1477 H 138.517 -3.88727 -3.67145 0
M  V30 1478 H 138.86 -2.17929 -3.54701 0
M  V30 1479 H 139.393 -3.27901 -2.25223 0
M  V30 1480 H 136.132 -6.26057 -1.94249 0
M  V30 1481 H 135.652 -5.0823 -3.18532 0
M  V30 1482 H 137.331 -5.6722 -3.11241 0
M  V30 1483 N 137.463 0.71206 -1.40597 0
M  V30 1484 C 138.709 1.47416 -1.39271 0
M  V30 1485 C 139.042 1.942 0.00388791 0
M  V30 1486 O 138.317 1.68403 0.973179 0
M  V30 1487 C 138.6 2.69774 -2.38525 0
M  V30 1488 C 138.453 2.28861 -3.87224 0
M  V30 1489 C 139.772 3.71939 -2.35264 0
M  V30 1490 H 136.891 0.534713 -0.5072 0
M  V30 1491 H 139.533 0.812375 -1.71757 0
M  V30 1492 H 137.683 3.26238 -2.10953 0
M  V30 1493 H 139.355 1.77852 -4.25636 0
M  V30 1494 H 137.598 1.60824 -4.02887 0
M  V30 1495 H 138.269 3.16584 -4.52193 0
M  V30 1496 H 140.745 3.25113 -2.59694 0
M  V30 1497 H 139.621 4.55186 -3.06753 0
M  V30 1498 H 139.882 4.20484 -1.36549 0
M  V30 1499 N 138.941 1.26152 0.944643 0
M  V30 1500 C 140.169 1.14259 1.72489 0
M  V30 1501 C 140.584 -0.302555 1.8636 0
M  V30 1502 O 139.941 -1.20741 1.36849 0
M  V30 1503 C 139.992 1.80266 3.13347 0
M  V30 1504 O 139.713 3.19133 3.00143 0
M  V30 1505 C 141.214 1.74283 4.07603 0
M  V30 1506 H 138.434 0.398051 0.540181 0
M  V30 1507 H 140.978 1.66706 1.18446 0
M  V30 1508 H 139.133 1.31766 3.64303 0
M  V30 1509 H 139.547 3.51744 3.89071 0
M  V30 1510 H 141.021 2.25111 5.04013 0
M  V30 1511 H 141.498 0.708631 4.33446 0
M  V30 1512 H 142.104 2.22319 3.62567 0
M  V30 1513 N 140.419 -1.14872 1.07899 0
M  V30 1514 C 141.329 -2.2341 0.715915 0
M  V30 1515 C 142.345 -1.71808 -0.275306 0
M  V30 1516 O 143.521 -2.01039 -0.120545 0
M  V30 1517 C 140.586 -3.46474 0.125168 0
M  V30 1518 C 139.647 -4.13039 1.17034 0
M  V30 1519 C 138.88 -5.30229 0.607688 0
M  V30 1520 O 139.103 -5.675 -0.574497 0
M  V30 1521 O 138.037 -5.86444 1.35526 0
M  V30 1522 H 141.863 -2.56808 1.62121 0
M  V30 1523 H 139.448 -1.22702 0.852322 0
M  V30 1524 H 141.33 -4.20917 -0.201729 0
M  V30 1525 H 140.005 -3.14811 -0.753364 0
M  V30 1526 H 138.912 -3.40493 1.54968 0
M  V30 1527 H 140.245 -4.48796 2.02097 0
M  V30 1528 N 141.898 -0.863906 -1.31812 0
M  V30 1529 C 143.128 -0.485406 -2.00817 0
M  V30 1530 C 143.536 0.925007 -1.65046 0
M  V30 1531 O 142.879 1.61653 -0.872574 0
M  V30 1532 C 142.941 -0.555589 -3.55181 0
M  V30 1533 C 142.605 -1.92654 -4.14407 0
M  V30 1534 C 143.602 -2.89324 -4.31958 0
M  V30 1535 C 141.287 -2.2262 -4.50273 0
M  V30 1536 C 143.281 -4.14108 -4.84555 0
M  V30 1537 C 140.968 -3.47654 -5.02573 0
M  V30 1538 C 141.966 -4.43214 -5.19664 0
M  V30 1539 O 141.654 -5.66033 -5.70843 0
M  V30 1540 H 141.386 -0.188224 -0.649267 0
M  V30 1541 H 143.94 -1.16514 -1.69156 0
M  V30 1542 H 142.17 0.181037 -3.86276 0
M  V30 1543 H 143.859 -0.19138 -4.05449 0
M  V30 1544 H 144.625 -2.6748 -4.04573 0
M  V30 1545 H 140.504 -1.4902 -4.3625 0
M  V30 1546 H 144.048 -4.88703 -4.9781 0
M  V30 1547 H 139.945 -3.69345 -5.29391 0
M  V30 1548 H 140.713 -5.6812 -5.89222 0
M  V30 1549 N 143.376 1.44774 -0.622745 0
M  V30 1550 C 144.309 2.27792 0.136329 0
M  V30 1551 C 145.287 1.38041 0.859264 0
M  V30 1552 O 146.471 1.67478 0.86506 0
M  V30 1553 C 143.598 3.16776 1.19878 0
M  V30 1554 C 142.644 4.22575 0.57731 0
M  V30 1555 S 143.477 5.31825 -0.626294 0
M  V30 1556 C 144.633 6.24377 0.436378 0
M  V30 1557 H 144.866 2.91824 -0.567967 0
M  V30 1558 H 142.399 1.48838 -0.410677 0
M  V30 1559 H 144.357 3.68596 1.80686 0
M  V30 1560 H 143.018 2.5198 1.87523 0
M  V30 1561 H 142.211 4.84818 1.37721 0
M  V30 1562 H 141.813 3.73974 0.0440439 0
M  V30 1563 H 144.105 6.64689 1.31128 0
M  V30 1564 H 145.048 7.07941 -0.150271 0
M  V30 1565 H 145.456 5.59381 0.758513 0
M  V30 1566 N 144.854 0.36279 1.53368 0
M  V30 1567 C 146.265 -0.117022 1.86333 0
M  V30 1568 C 146.616 -1.48397 1.28347 0
M  V30 1569 O 145.741 -2.07787 0.604428 0
M  V30 1570 C 146.336 -0.21912 3.38091 0
M  V30 1571 C 144.895 -0.643184 3.70864 0
M  V30 1572 C 144.042 0.211318 2.76494 0
M  V30 1573 H 146.993 0.581687 1.47655 0
M  V30 1574 H 147.014 -1.04319 3.6592 0
M  V30 1575 H 146.526 0.775902 3.80265 0
M  V30 1576 H 144.627 -1.64654 3.34245 0
M  V30 1577 H 144.74 -0.41973 4.77258 0
M  V30 1578 H 143.104 -0.319367 2.5269 0
M  V30 1579 H 143.887 1.20383 3.21501 0
M  V30 1580 N 146.332 -1.57332 0.0918853 0
M  V30 1581 C 147.28 -2.15075 -0.885747 0
M  V30 1582 C 148.274 -1.09277 -1.29441 0
M  V30 1583 O 149.48 -1.27627 -1.26931 0
M  V30 1584 H 145.855 -0.687966 -0.303656 0
M  V30 1585 H 147.826 -2.96047 -0.373995 0
M  V30 1586 C 146.575 -2.74325 -2.13638 0
M  V30 1587 H 145.898 -3.55418 -1.8308 0
M  V30 1588 H 147.338 -3.183 -2.80109 0
M  V30 1589 C 145.797 -1.70062 -2.90827 0
M  V30 1590 O 146.327 -1.13763 -3.85254 0
M  V30 1591 N 144.533 -1.40628 -2.54307 0
M  V30 1592 H 144.08 -1.866 -1.7759 0
M  V30 1593 H 144.038 -0.711043 -3.06254 0
M  V30 1594 N 147.81 0.181792 -1.56548 0
M  V30 1595 C 149.058 0.89832 -1.81038 0
M  V30 1596 C 149.379 1.83232 -0.667164 0
M  V30 1597 O 148.649 1.93372 0.313673 0
M  V30 1598 H 147.229 0.33471 -0.667816 0
M  V30 1599 H 149.891 0.184116 -1.94028 0
M  V30 1600 H 148.987 1.4815 -2.74696 0
M  V30 1601 N 149.288 1.51039 0.449983 0
M  V30 1602 C 150.513 1.6715 1.22783 0
M  V30 1603 C 150.938 0.363081 1.84563 0
M  V30 1604 O 150.296 -0.675433 1.68249 0
M  V30 1605 C 150.344 2.77985 2.29689 0
M  V30 1606 O 149.448 2.40707 3.34864 0
M  V30 1607 H 148.789 0.557746 0.360299 0
M  V30 1608 H 151.319 1.97535 0.533005 0
M  V30 1609 H 151.329 3.01693 2.74673 0
M  V30 1610 H 150.004 3.72935 1.84098 0
M  V30 1611 H 148.581 2.27523 2.95445 0
M  V30 1612 N 150.766 -0.704594 1.40972 0
M  V30 1613 C 151.696 -1.83124 1.44872 0
M  V30 1614 C 152.677 -1.67281 0.30838 0
M  V30 1615 O 153.862 -1.87149 0.518556 0
M  V30 1616 C 150.992 -3.21181 1.32136 0
M  V30 1617 C 149.946 -3.51714 2.43888 0
M  V30 1618 C 149.272 -4.89032 2.16222 0
M  V30 1619 C 150.572 -3.516 3.86232 0
M  V30 1620 H 152.266 -1.80117 2.39161 0
M  V30 1621 H 149.812 -0.865145 1.15114 0
M  V30 1622 H 151.765 -3.99702 1.33479 0
M  V30 1623 H 150.489 -3.24791 0.343279 0
M  V30 1624 H 149.148 -2.75539 2.41813 0
M  V30 1625 H 148.796 -4.89256 1.16778 0
M  V30 1626 H 148.496 -5.10426 2.911 0
M  V30 1627 H 150.02 -5.69873 2.19265 0
M  V30 1628 H 151.434 -4.2014 3.9007 0
M  V30 1629 H 149.831 -3.84523 4.60719 0
M  V30 1630 H 150.901 -2.50757 4.15029 0
M  V30 1631 N 152.244 -1.26651 -0.937939 0
M  V30 1632 C 153.192 -1.08308 -2.05845 0
M  V30 1633 C 154.186 -0.0090757 -1.69398 0
M  V30 1634 O 155.392 -0.166007 -1.79233 0
M  V30 1635 H 151.767 -0.333416 -0.674046 0
M  V30 1636 H 153.738 -2.03261 -2.18467 0
M  V30 1637 C 152.487 -0.736229 -3.39816 0
M  V30 1638 H 151.81 -1.55453 -3.6834 0
M  V30 1639 H 153.25 -0.64769 -4.19024 0
M  V30 1640 C 151.709 0.558824 -3.32233 0
M  V30 1641 O 152.239 1.59621 -3.68624 0
M  V30 1642 N 150.445 0.550657 -2.85335 0
M  V30 1643 H 149.992 -0.293943 -2.55917 0
M  V30 1644 H 149.95 1.41726 -2.80644 0
M  V30 1645 N 153.722 1.14298 -1.08507 0
M  V30 1646 C 154.632 2.23027 -0.727753 0
M  V30 1647 C 155.648 1.71952 0.26619 0
M  V30 1648 O 156.824 2.011 0.109882 0
M  V30 1649 C 153.889 3.46403 -0.143541 0
M  V30 1650 C 152.95 4.12413 -1.19223 0
M  V30 1651 C 152.183 5.29899 -0.635798 0
M  V30 1652 O 152.406 5.67796 0.544393 0
M  V30 1653 O 151.34 5.85717 -1.38634 0
M  V30 1654 H 155.166 2.55945 -1.63481 0
M  V30 1655 H 152.751 1.22248 -0.858817 0
M  V30 1656 H 154.633 4.21018 0.179404 0
M  V30 1657 H 153.308 3.15206 0.736659 0
M  V30 1658 H 152.215 3.39667 -1.56772 0
M  V30 1659 H 153.548 4.47718 -2.04474 0
M  V30 1660 N 155.201 0.870884 1.31352 0
M  V30 1661 C 156.131 0.343096 2.30966 0
M  V30 1662 C 157.112 -0.566507 1.60389 0
M  V30 1663 O 158.297 -0.483336 1.88089 0
M  V30 1664 C 155.427 -0.455487 3.443 0
M  V30 1665 C 154.381 0.361103 4.26474 0
M  V30 1666 C 153.707 -0.563221 5.31725 0
M  V30 1667 C 155.007 1.59566 4.97329 0
M  V30 1668 H 156.701 1.17548 2.75359 0
M  V30 1669 H 154.247 0.566686 1.32381 0
M  V30 1670 H 156.2 -0.83525 4.13039 0
M  V30 1671 H 154.924 -1.32139 2.98675 0
M  V30 1672 H 153.583 0.722825 3.59403 0
M  V30 1673 H 153.231 -1.42643 4.82351 0
M  V30 1674 H 152.931 -0.0207409 5.87596 0
M  V30 1675 H 154.455 -0.939808 6.03324 0
M  V30 1676 H 155.869 1.28728 5.58661 0
M  V30 1677 H 154.266 2.07728 5.63 0
M  V30 1678 H 155.336 2.34798 4.24262 0
M  V30 1679 N 156.679 -1.44442 0.630414 0
M  V30 1680 C 157.609 -2.33418 -0.0618083 0
M  V30 1681 C 158.59 -1.48165 -0.835541 0
M  V30 1682 O 159.775 -1.76886 -0.801564 0
M  V30 1683 C 156.905 -3.31222 -1.04449 0
M  V30 1684 C 155.859 -4.26288 -0.382436 0
M  V30 1685 C 155.185 -5.13954 -1.47497 0
M  V30 1686 C 156.485 -5.1744 0.710865 0
M  V30 1687 H 158.179 -2.91548 0.681184 0
M  V30 1688 H 155.725 -1.40191 0.329026 0
M  V30 1689 H 157.678 -3.92351 -1.53748 0
M  V30 1690 H 156.402 -2.71299 -1.81836 0
M  V30 1691 H 155.061 -3.6649 0.0899054 0
M  V30 1692 H 154.709 -4.50385 -2.2397 0
M  V30 1693 H 154.409 -5.7837 -1.03737 0
M  V30 1694 H 155.933 -5.77955 -1.96979 0
M  V30 1695 H 157.347 -5.72509 0.300996 0
M  V30 1696 H 155.744 -5.90455 1.07156 0
M  V30 1697 H 156.814 -4.58496 1.57829 0
M  V30 1698 N 158.157 -0.370918 -1.53173 0
M  V30 1699 C 159.107 0.489588 -2.22681 0
M  V30 1700 C 160.091 1.04442 -1.22395 0
M  V30 1701 O 161.283 0.973578 -1.47819 0
M  V30 1702 C 158.412 1.626 -3.02351 0
M  V30 1703 C 157.498 1.08379 -4.10018 0
M  V30 1704 N 157.889 0.265004 -5.05105 0
M  V30 1705 C 156.187 1.35809 -4.2482 0
M  V30 1706 C 156.888 -0.0324755 -5.81691 0
M  V30 1707 N 155.864 0.566581 -5.40639 0
M  V30 1708 H 159.666 -0.142729 -2.93553 0
M  V30 1709 H 157.18 -0.179221 -1.61408 0
M  V30 1710 H 159.177 2.2547 -3.50669 0
M  V30 1711 H 157.837 2.26132 -2.33011 0
M  V30 1712 H 158.848 -0.0962352 -5.17811 0
M  V30 1713 H 155.525 1.9958 -3.66707 0
M  V30 1714 H 156.915 -0.69473 -6.68299 0
M  V30 1715 N 159.635 1.57281 -0.100228 0
M  V30 1716 C 161.051 1.57527 0.256416 0
M  V30 1717 C 161.251 1.11173 1.68056 0
M  V30 1718 O 160.307 0.79053 2.39806 0
M  V30 1719 C 161.62 3.00673 0.0401747 0
M  V30 1720 C 163.168 3.12815 0.107528 0
M  V30 1721 C 163.643 4.57929 -0.0807834 0
M  V30 1722 N 165.134 4.63193 -0.0261207 0
M  V30 1723 C 165.869 5.73212 -0.146999 0
M  V30 1724 N 165.365 6.92047 -0.322999 0
M  V30 1725 N 167.158 5.62031 -0.0879044 0
M  V30 1726 H 159.309 1.85718 -1.03065 0
M  V30 1727 H 161.572 0.857446 -0.404339 0
M  V30 1728 H 161.278 3.38804 -0.943649 0
M  V30 1729 H 161.152 3.69042 0.780262 0
M  V30 1730 H 163.539 2.74554 1.08186 0
M  V30 1731 H 163.62 2.47028 -0.664134 0
M  V30 1732 H 163.264 4.96886 -1.05201 0
M  V30 1733 H 163.194 5.21783 0.710635 0
M  V30 1734 H 165.685 3.77748 0.107161 0
M  V30 1735 H 165.998 7.7173 -0.406608 0
M  V30 1736 H 164.343 6.94074 -0.358733 0
M  V30 1737 H 167.534 4.68075 0.048498 0
M  V30 1738 H 167.707 6.47734 -0.185557 0
M  V30 1739 N 161.113 -0.173488 1.56642 0
M  V30 1740 C 162.06 -1.21482 1.96242 0
M  V30 1741 C 163.03 -1.44104 0.826027 0
M  V30 1742 O 164.215 -1.5688 1.08597 0
M  V30 1743 C 161.355 -2.54964 2.32567 0
M  V30 1744 C 160.468 -2.39739 3.59373 0
M  V30 1745 C 159.603 -3.66072 3.84921 0
M  V30 1746 C 158.642 -3.45771 5.05083 0
M  V30 1747 N 157.779 -4.64169 5.26775 0
M  V30 1748 H 162.619 -0.870123 2.85014 0
M  V30 1749 H 160.156 -0.418245 1.41029 0
M  V30 1750 H 162.114 -3.32758 2.5165 0
M  V30 1751 H 160.744 -2.87433 1.46908 0
M  V30 1752 H 159.796 -1.53131 3.48217 0
M  V30 1753 H 161.108 -2.20683 4.47326 0
M  V30 1754 H 160.262 -4.52303 4.0436 0
M  V30 1755 H 159.001 -3.88105 2.9534 0
M  V30 1756 H 158.006 -2.57927 4.85545 0
M  V30 1757 H 159.231 -3.25163 5.96193 0
M  V30 1758 H 157.177 -4.86425 4.40144 0
M  V30 1759 H 157.094 -4.48019 6.08946 0
M  V30 1760 H 158.362 -5.51689 5.5069 0
M  V30 1761 N 162.591 -1.51276 -0.441967 0
M  V30 1762 C 163.819 -1.67516 -1.21434 0
M  V30 1763 C 164.234 -0.37055 -1.85128 0
M  V30 1764 O 163.591 0.650498 -1.70513 0
M  V30 1765 C 163.642 -2.78748 -2.30177 0
M  V30 1766 O 163.363 -4.04154 -1.69089 0
M  V30 1767 C 164.864 -3.06217 -3.20541 0
M  V30 1768 H 162.084 -0.562276 -0.366178 0
M  V30 1769 H 164.628 -1.97666 -0.524244 0
M  V30 1770 H 162.783 -2.5121 -2.94911 0
M  V30 1771 H 163.197 -4.65894 -2.40922 0
M  V30 1772 H 164.671 -3.8764 -3.92987 0
M  V30 1773 H 165.148 -2.18439 -3.81026 0
M  V30 1774 H 165.754 -3.35397 -2.61513 0
M  V30 1775 N 164.069 0.697108 -1.41344 0
M  V30 1776 C 164.979 1.84088 -1.45427 0
M  V30 1777 C 165.995 1.70545 -0.34501 0
M  V30 1778 O 167.171 1.92488 -0.592492 0
M  V30 1779 C 164.236 3.20056 -1.33286 0
M  V30 1780 C 163.297 3.45718 -2.54514 0
M  V30 1781 C 162.53 4.75199 -2.42944 0
M  V30 1782 O 162.753 5.51579 -1.45318 0
M  V30 1783 O 161.687 5.0161 -3.32672 0
M  V30 1784 H 165.513 1.836 -2.41919 0
M  V30 1785 H 163.098 0.849966 -1.22866 0
M  V30 1786 H 164.98 4.01236 -1.28794 0
M  V30 1787 H 163.655 3.2123 -0.39909 0
M  V30 1788 H 162.562 2.64474 -2.64583 0
M  V30 1789 H 163.895 3.49356 -3.46715 0
M  V30 1790 N 165.547 1.27147 0.931209 0
M  V30 1791 C 166.777 1.15914 1.71019 0
M  V30 1792 C 167.185 -0.287112 1.87009 0
M  V30 1793 O 166.528 -1.20761 1.38429 0
M  V30 1794 C 166.59 1.76647 3.13107 0
M  V30 1795 C 166.254 3.25807 3.20467 0
M  V30 1796 C 167.251 4.22489 3.02983 0
M  V30 1797 C 164.936 3.66452 3.43538 0
M  V30 1798 C 166.93 5.57794 3.08454 0
M  V30 1799 C 164.617 5.01888 3.48643 0
M  V30 1800 C 165.615 5.97369 3.31119 0
M  V30 1801 O 165.303 7.30337 3.35952 0
M  V30 1802 H 165.035 0.404062 0.54195 0
M  V30 1803 H 167.589 1.68457 1.17521 0
M  V30 1804 H 165.819 1.18578 3.68071 0
M  V30 1805 H 167.508 1.60179 3.72958 0
M  V30 1806 H 168.274 3.92425 2.85004 0
M  V30 1807 H 164.153 2.92611 3.5623 0
M  V30 1808 H 167.697 6.32298 2.94694 0
M  V30 1809 H 163.594 5.31609 3.66145 0
M  V30 1810 H 164.362 7.38739 3.5243 0
M  V30 1811 N 167.025 -1.13721 1.09112 0
M  V30 1812 C 168.436 -1.6648 0.845068 0
M  V30 1813 C 168.787 -1.85911 -0.62701 0
M  V30 1814 O 167.912 -1.57556 -1.48341 0
M  V30 1815 C 168.507 -3.02413 1.52748 0
M  V30 1816 C 167.066 -3.52176 1.32849 0
M  V30 1817 C 166.213 -2.27492 1.58564 0
M  V30 1818 H 169.164 -0.976872 1.25072 0
M  V30 1819 H 169.185 -3.68223 0.958752 0
M  V30 1820 H 168.697 -2.88238 2.59885 0
M  V30 1821 H 166.798 -3.7156 0.278137 0
M  V30 1822 H 166.911 -4.32499 2.0611 0
M  V30 1823 H 165.275 -2.33923 1.00758 0
M  V30 1824 H 166.058 -2.15886 2.66924 0
M  V30 1825 N 168.503 -0.877838 -1.30888 0
M  V30 1826 C 169.78 -0.413052 -1.91189 0
M  V30 1827 C 170.16 1.1056 -1.79832 0
M  V30 1828 O 169.508 1.93771 -1.21099 0
M  V30 1829 C 169.718 -0.903191 -3.3711 0
M  V30 1830 C 171.066 -0.93395 -4.14201 0
M  V30 1831 O 172.09 -0.849373 -3.45925 0
M  V30 1832 O 170.949 -1.05772 -5.36167 0
M  V30 1833 H 168.043 -0.125035 -0.817493 0
M  V30 1834 H 170.589 -0.966269 -1.39504 0
M  V30 1835 H 169.361 -1.94692 -3.39427 0
M  V30 1836 H 168.984 -0.328732 -3.96239 0
M  V30 1837 N 169.982 1.44106 -0.638065 0
M  V30 1838 C 171.228 2.02277 -0.145546 0
M  V30 1839 C 171.561 1.50125 1.23191 0
M  V30 1840 O 170.836 0.688133 1.8192 0
M  V30 1841 C 171.119 3.59829 -0.139791 0
M  V30 1842 C 170.972 4.22247 -1.55008 0
M  V30 1843 C 172.291 4.36873 0.531966 0
M  V30 1844 H 169.41 0.734992 -0.0543632 0
M  V30 1845 H 172.052 1.71592 -0.815863 0
M  V30 1846 H 170.202 3.86102 0.431007 0
M  V30 1847 H 171.874 4.07057 -2.1703 0
M  V30 1848 H 170.117 3.79476 -2.10191 0
M  V30 1849 H 170.788 5.31284 -1.49804 0
M  V30 1850 H 173.264 4.16074 0.0464781 0
M  V30 1851 H 172.14 5.4657 0.505206 0
M  V30 1852 H 172.401 4.11995 1.60352 0
M  V30 1853 N 171.46 0.379036 1.52974 0
M  V30 1854 C 172.423 -0.448865 2.24762 0
M  V30 1855 C 173.423 -0.998689 1.26027 0
M  V30 1856 O 174.613 -0.882313 1.50203 0
M  V30 1857 C 171.745 -1.62872 2.99476 0
M  V30 1858 H 172.938 0.179491 2.99362 0
M  V30 1859 H 170.491 0.13096 1.5575 0
M  V30 1860 H 171.226 -2.29479 2.29151 0
M  V30 1861 H 171.011 -1.24128 3.71934 0
M  V30 1862 H 172.501 -2.2151 3.5401 0
M  V30 1863 N 172.938 -1.57226 0.108567 0
M  V30 1864 C 174.184 -1.95919 -0.546564 0
M  V30 1865 C 174.539 -0.990417 -1.6495 0
M  V30 1866 O 173.832 -0.0186593 -1.91591 0
M  V30 1867 C 174.026 -3.38911 -1.13463 0
M  V30 1868 C 173.855 -4.4961 -0.0901926 0
M  V30 1869 C 172.625 -5.04168 0.338008 0
M  V30 1870 C 174.823 -5.09693 0.686808 0
M  V30 1871 N 172.805 -5.98434 1.36931 0
M  V30 1872 C 174.176 -5.99804 1.56958 0
M  V30 1873 C 176.231 -4.92388 0.738846 0
M  V30 1874 C 174.934 -6.74463 2.49983 0
M  V30 1875 C 176.96 -5.67719 1.65676 0
M  V30 1876 C 176.322 -6.57507 2.52713 0
M  V30 1877 H 172.421 -0.763312 -0.169936 0
M  V30 1878 H 175.005 -1.93728 0.194264 0
M  V30 1879 H 173.176 -3.41769 -1.84522 0
M  V30 1880 H 174.908 -3.64752 -1.75322 0
M  V30 1881 H 171.663 -4.73571 -0.0523673 0
M  V30 1882 H 172.087 -6.5027 1.88356 0
M  V30 1883 H 176.729 -4.22724 0.080084 0
M  V30 1884 H 174.447 -7.4338 3.16878 0
M  V30 1885 H 178.033 -5.56338 1.70233 0
M  V30 1886 H 176.913 -7.14778 3.22586 0
M  V30 1887 N 174.416 0.165178 -1.56732 0
M  V30 1888 C 175.827 0.727046 -1.71962 0
M  V30 1889 C 176.178 1.82508 -0.720078 0
M  V30 1890 O 175.303 2.16082 0.117242 0
M  V30 1891 C 175.898 1.32559 -3.11791 0
M  V30 1892 C 174.457 1.83422 -3.28684 0
M  V30 1893 C 173.604 0.715567 -2.67908 0
M  V30 1894 H 176.555 -0.0602896 -1.58585 0
M  V30 1895 H 176.576 2.19533 -3.10782 0
M  V30 1896 H 176.088 0.526195 -3.84516 0
M  V30 1897 H 174.189 2.65986 -2.60926 0
M  V30 1898 H 174.302 1.97543 -4.36478 0
M  V30 1899 H 172.666 1.13758 -2.27884 0
M  V30 1900 H 173.449 -0.0720836 -3.43224 0
M  V30 1901 N 175.894 1.51508 0.433938 0
M  V30 1902 C 176.824 1.76016 1.53429 0
M  V30 1903 C 177.805 0.610112 1.58782 0
M  V30 1904 O 178.99 0.853177 1.74455 0
M  V30 1905 C 176.12 1.88831 2.9148 0
M  V30 1906 C 175.074 3.04288 3.00987 0
M  V30 1907 C 174.4 3.0229 4.4105 0
M  V30 1908 C 175.7 4.44193 2.74754 0
M  V30 1909 H 177.394 2.68152 1.33171 0
M  V30 1910 H 174.94 1.29035 0.639214 0
M  V30 1911 H 176.893 2.04559 3.6842 0
M  V30 1912 H 175.617 0.933455 3.12976 0
M  V30 1913 H 174.276 2.8827 2.26486 0
M  V30 1914 H 173.924 2.04576 4.59519 0
M  V30 1915 H 173.624 3.79822 4.4834 0
M  V30 1916 H 175.148 3.20116 5.1996 0
M  V30 1917 H 176.562 4.60544 3.41426 0
M  V30 1918 H 174.959 5.23457 2.9345 0
M  V30 1919 H 176.029 4.53996 1.70339 0
M  V30 1920 N 177.372 -0.689602 1.41712 0
M  V30 1921 C 178.788 -1.00093 1.24312 0
M  V30 1922 C 178.988 -2.01036 0.136729 0
M  V30 1923 O 178.044 -2.47562 -0.496918 0
M  V30 1924 C 179.357 -1.51985 2.59463 0
M  V30 1925 C 180.905 -1.63838 2.66695 0
M  V30 1926 C 181.38 -2.1913 4.02177 0
M  V30 1927 N 182.871 -2.26483 4.04054 0
M  V30 1928 C 183.606 -2.70306 5.0569 0
M  V30 1929 N 183.102 -3.13691 6.17713 0
M  V30 1930 N 184.895 -2.69923 4.9305 0
M  V30 1931 H 177.046 -0.0210029 2.1239 0
M  V30 1932 H 179.309 -0.0718733 0.945272 0
M  V30 1933 H 179.015 -0.85269 3.41207 0
M  V30 1934 H 178.889 -2.50103 2.82362 0
M  V30 1935 H 181.276 -2.29664 1.85306 0
M  V30 1936 H 181.357 -0.642492 2.476 0
M  V30 1937 H 181.001 -1.53918 4.84016 0
M  V30 1938 H 180.931 -3.19482 4.18615 0
M  V30 1939 H 183.422 -1.95874 3.23174 0
M  V30 1940 H 183.735 -3.45773 6.9113 0
M  V30 1941 H 182.08 -3.11585 6.21241 0
M  V30 1942 H 185.271 -2.35382 4.04614 0
M  V30 1943 H 185.444 -3.03758 5.72394 0
M  V30 1944 N 178.85 -1.27639 -0.924453 0
M  V30 1945 C 180.097 -1.14167 -1.67249 0
M  V30 1946 C 180.425 0.311863 -1.91984 0
M  V30 1947 O 179.68 1.24425 -1.51053 0
M  V30 1948 C 179.979 -1.87407 -3.04325 0
M  V30 1949 C 179.645 -3.37249 -2.99289 0
M  V30 1950 C 178.307 -3.7812 -2.97622 0
M  V30 1951 C 180.659 -4.32845 -2.90336 0
M  V30 1952 C 177.987 -5.12944 -2.8479 0
M  V30 1953 C 180.339 -5.6773 -2.79045 0
M  V30 1954 C 179.003 -6.07889 -2.7573 0
M  V30 1955 H 178.273 -0.417766 -0.612007 0
M  V30 1956 H 180.92 -1.58286 -1.07786 0
M  V30 1957 H 179.225 -1.35805 -3.67511 0
M  V30 1958 H 180.922 -1.74408 -3.61086 0
M  V30 1959 H 177.512 -3.04748 -3.01374 0
M  V30 1960 H 181.696 -4.02239 -2.90719 0
M  V30 1961 H 176.952 -5.432 -2.80612 0
M  V30 1962 H 181.126 -6.41472 -2.71083 0
M  V30 1963 H 178.753 -7.12314 -2.65544 0
M  V30 1964 N 180.328 1.1314 -1.09713 0
M  V30 1965 C 181.744 1.36477 -0.827423 0
M  V30 1966 C 181.944 1.93654 0.556817 0
M  V30 1967 O 181 2.15791 1.31112 0
M  V30 1968 C 182.313 2.31334 -1.92106 0
M  V30 1969 C 183.861 2.44943 -1.94864 0
M  V30 1970 C 184.336 3.4311 -3.0338 0
M  V30 1971 N 185.827 3.50662 -3.02639 0
M  V30 1972 C 186.562 4.2651 -3.83246 0
M  V30 1973 N 186.058 5.05485 -4.73768 0
M  V30 1974 N 187.851 4.2184 -3.71493 0
M  V30 1975 H 180.002 0.743807 -1.9895 0
M  V30 1976 H 182.265 0.389823 -0.864143 0
M  V30 1977 H 181.971 1.96483 -2.91698 0
M  V30 1978 H 181.845 3.31381 -1.80184 0
M  V30 1979 H 184.232 2.79079 -0.959099 0
M  V30 1980 H 184.313 1.4481 -2.10864 0
M  V30 1981 H 183.957 3.09704 -4.02549 0
M  V30 1982 H 183.887 4.43055 -2.84622 0
M  V30 1983 H 186.378 2.94315 -2.37039 0
M  V30 1984 H 186.691 5.60675 -5.3185 0
M  V30 1985 H 185.036 5.04708 -4.77802 0
M  V30 1986 H 188.227 3.5922 -3.00131 0
M  V30 1987 H 188.4 4.80697 -4.3455 0
M  V30 1988 N 181.806 0.884767 1.30421 0
M  V30 1989 C 183.055 0.499164 1.95426 0
M  V30 1990 C 183.368 -0.95645 1.70621 0
M  V30 1991 O 184.574 -1.44889 2.29607 0
M  V30 1992 C 183.03 0.84177 3.49917 0
M  V30 1993 C 182.638 2.31514 3.83543 0
M  V30 1994 C 184.382 0.525355 4.21237 0
M  V30 1995 C 182.289 2.59939 5.31212 0
M  V30 1996 H 181.219 0.182944 0.73147 0
M  V30 1997 H 183.87 1.07971 1.48373 0
M  V30 1998 H 182.252 0.190311 3.95542 0
M  V30 1999 H 183.426 3.0109 3.48829 0
M  V30 2000 H 181.741 2.59907 3.25326 0
M  V30 2001 H 184.338 0.714762 5.29901 0
M  V30 2002 H 184.681 -0.535222 4.12845 0
M  V30 2003 H 185.214 1.134 3.81294 0
M  V30 2004 H 181.953 3.64736 5.44654 0
M  V30 2005 H 181.473 1.94972 5.67227 0
M  V30 2006 H 183.152 2.45429 5.98643 0
M  V30 2007 N 183.284 -1.43765 0.645699 0
M  V30 2008 C 184.214 -2.33471 -0.0370477 0
M  V30 2009 C 185.195 -1.49042 -0.819779 0
M  V30 2010 O 186.38 -1.77726 -0.782758 0
M  V30 2011 C 183.51 -3.32311 -1.0093 0
M  V30 2012 C 182.464 -4.2667 -0.337201 0
M  V30 2013 C 181.79 -5.1549 -1.42037 0
M  V30 2014 C 183.09 -5.16657 0.765706 0
M  V30 2015 H 184.784 -2.90809 0.712069 0
M  V30 2016 H 182.33 -1.39834 0.343876 0
M  V30 2017 H 184.283 -3.9396 -1.49578 0
M  V30 2018 H 183.007 -2.73213 -1.78948 0
M  V30 2019 H 181.666 -3.66374 0.128771 0
M  V30 2020 H 181.314 -4.52735 -2.1918 0
M  V30 2021 H 181.014 -5.79438 -0.975966 0
M  V30 2022 H 182.538 -5.80012 -1.90838 0
M  V30 2023 H 183.952 -5.72158 0.361702 0
M  V30 2024 H 182.349 -5.89286 1.13413 0
M  V30 2025 H 183.419 -4.56796 1.62683 0
M  V30 2026 N 184.763 -0.387143 -1.52771 0
M  V30 2027 C 185.713 0.465942 -2.23188 0
M  V30 2028 C 186.697 1.03138 -1.23496 0
M  V30 2029 O 187.889 0.957845 -1.48843 0
M  V30 2030 C 185.018 1.59384 -3.04059 0
M  V30 2031 C 184.104 1.04024 -4.11144 0
M  V30 2032 N 184.495 0.211416 -5.05358 0
M  V30 2033 C 182.793 1.31295 -4.26237 0
M  V30 2034 C 183.494 -0.0941698 -5.81624 0
M  V30 2035 N 182.47 0.509207 -5.4121 0
M  V30 2036 H 186.272 -0.173856 -2.93385 0
M  V30 2037 H 183.786 -0.19633 -1.61209 0
M  V30 2038 H 185.783 2.21738 -3.53041 0
M  V30 2039 H 184.443 2.23648 -2.35397 0
M  V30 2040 H 185.454 -0.151151 -5.17679 0
M  V30 2041 H 182.131 1.95679 -3.68803 0
M  V30 2042 H 183.521 -0.765572 -6.67524 0
M  V30 2043 N 186.241 1.57166 -0.116904 0
M  V30 2044 C 187.151 2.18745 0.847812 0
M  V30 2045 C 188.167 1.163 1.29423 0
M  V30 2046 O 189.343 1.48761 1.35765 0
M  V30 2047 C 186.408 2.77307 2.0809 0
M  V30 2048 C 185.469 3.94781 1.68661 0
M  V30 2049 C 184.702 4.50541 2.86091 0
M  V30 2050 O 184.925 4.05202 4.01456 0
M  V30 2051 O 183.859 5.41256 2.63298 0
M  V30 2052 H 187.685 3.01632 0.353778 0
M  V30 2053 H 185.27 1.49005 0.108599 0
M  V30 2054 H 187.152 3.14647 2.80313 0
M  V30 2055 H 185.827 1.97452 2.56504 0
M  V30 2056 H 184.734 3.62214 0.935518 0
M  V30 2057 H 186.067 4.76065 1.24991 0
M  V30 2058 N 187.719 -0.156864 1.56817 0
M  V30 2059 C 188.968 -0.869504 1.81996 0
M  V30 2060 C 189.281 -1.82777 0.696545 0
M  V30 2061 O 190.487 -2.58384 0.833658 0
M  V30 2062 C 188.943 -1.59679 3.22538 0
M  V30 2063 C 188.551 -0.681431 4.42787 0
M  V30 2064 C 190.295 -2.2968 3.56997 0
M  V30 2065 C 188.202 -1.40978 5.74351 0
M  V30 2066 H 187.132 -0.328438 0.678708 0
M  V30 2067 H 189.783 -0.1223 1.83092 0
M  V30 2068 H 188.165 -2.38927 3.158 0
M  V30 2069 H 189.339 0.0751166 4.60739 0
M  V30 2070 H 187.654 -0.0903431 4.16302 0
M  V30 2071 H 190.251 -2.84794 4.52544 0
M  V30 2072 H 190.594 -3.05707 2.82576 0
M  V30 2073 H 191.127 -1.57361 3.65352 0
M  V30 2074 H 187.866 -0.691561 6.51842 0
M  V30 2075 H 187.386 -2.13929 5.60352 0
M  V30 2076 H 189.065 -1.95337 6.16808 0
M  V30 2077 N 189.197 -1.51736 -0.425897 0
M  V30 2078 C 190.16 -1.73271 -1.50032 0
M  V30 2079 C 191.16 -0.602639 -1.4908 0
M  V30 2080 O 192.35 -0.87033 -1.509 0
M  V30 2081 C 189.482 -1.79969 -2.89523 0
M  V30 2082 H 190.675 -2.69172 -1.32237 0
M  V30 2083 H 188.228 -1.41899 -0.65532 0
M  V30 2084 H 188.963 -0.859241 -3.1271 0
M  V30 2085 H 188.748 -2.62109 -2.91619 0
M  V30 2086 H 190.238 -1.9843 -3.67444 0
M  V30 2087 N 190.675 0.682077 -1.42076 0
M  V30 2088 C 191.605 1.80796 -1.47767 0
M  V30 2089 C 192.586 1.6677 -0.334954 0
M  V30 2090 O 193.771 1.863 -0.548264 0
M  V30 2091 C 190.901 3.19038 -1.37229 0
M  V30 2092 C 189.855 3.47789 -2.49453 0
M  V30 2093 C 189.181 4.8553 -2.23975 0
M  V30 2094 C 190.481 3.45411 -3.91776 0
M  V30 2095 H 192.175 1.7629 -2.41997 0
M  V30 2096 H 189.721 0.846721 -1.16476 0
M  V30 2097 H 191.674 3.97528 -1.39821 0
M  V30 2098 H 190.398 3.24204 -0.394907 0
M  V30 2099 H 189.057 2.71657 -2.46166 0
M  V30 2100 H 188.705 4.87337 -1.24547 0
M  V30 2101 H 188.405 5.0573 -2.99184 0
M  V30 2102 H 189.929 5.66312 -2.28304 0
M  V30 2103 H 191.343 4.13882 -3.96705 0
M  V30 2104 H 189.74 3.77145 -4.66778 0
M  V30 2105 H 190.81 2.44122 -4.18966 0
M  V30 2106 N 192.153 1.28127 0.917671 0
M  V30 2107 C 193.401 1.14825 1.66312 0
M  V30 2108 C 193.722 -0.304379 1.9261 0
M  V30 2109 O 192.992 -1.21149 1.53947 0
M  V30 2110 H 191.572 0.421953 0.616413 0
M  V30 2111 H 194.234 1.608 1.10134 0
M  V30 2112 H 193.33 1.68489 2.62712 0
M  V30 2113 N 193.631 -1.12557 1.10312 0
M  V30 2114 C 194.877 -1.84311 0.846011 0
M  V30 2115 C 195.21 -1.83805 -0.626859 0
M  V30 2116 O 194.485 -1.28268 -1.46211 0
M  V30 2117 C 194.768 -3.32048 1.39341 0
M  V30 2118 C 194.621 -3.41016 2.93305 0
M  V30 2119 C 195.94 -4.27764 1.03468 0
M  V30 2120 H 193.059 -0.669192 0.30879 0
M  V30 2121 H 195.701 -1.32057 1.36605 0
M  V30 2122 H 193.851 -3.76678 0.951087 0
M  V30 2123 H 195.523 -3.05031 3.46055 0
M  V30 2124 H 193.766 -2.81603 3.29973 0
M  V30 2125 H 194.437 -4.44948 3.26689 0
M  V30 2126 H 196.913 -3.91253 1.41633 0
M  V30 2127 H 195.789 -5.29549 1.44463 0
M  V30 2128 H 196.05 -4.42064 -0.0560404 0
M  V30 2129 N 195.109 -0.891671 -1.2995 0
M  V30 2130 C 196.057 -0.353066 -2.29905 0
M  V30 2131 C 197.051 0.543509 -1.60444 0
M  V30 2132 O 198.257 0.4272 -1.74857 0
M  V30 2133 H 194.632 -0.095531 -0.745907 0
M  V30 2134 H 196.603 -1.20961 -2.72784 0
M  V30 2135 C 195.352 0.411475 -3.45257 0
M  V30 2136 H 194.675 -0.269182 -3.98893 0
M  V30 2137 H 196.115 0.753328 -4.17254 0
M  V30 2138 C 194.574 1.6111 -2.9588 0
M  V30 2139 O 195.104 2.71045 -2.96475 0
M  V30 2140 N 193.31 1.45054 -2.51809 0
M  V30 2141 H 192.857 0.556175 -2.51524 0
M  V30 2142 H 192.815 2.25453 -2.1913 0
M  V30 2143 N 196.587 1.43421 -0.653314 0
M  V30 2144 C 197.817 2.05864 -0.174238 0
M  V30 2145 C 198.225 1.49052 1.16534 0
M  V30 2146 O 197.568 0.616481 1.73047 0
M  V30 2147 C 197.63 3.59499 -0.00875873 0
M  V30 2148 C 197.294 4.38893 -1.27364 0
M  V30 2149 C 198.291 4.70947 -2.20239 0
M  V30 2150 C 195.976 4.789 -1.51525 0
M  V30 2151 C 197.97 5.41916 -3.35568 0
M  V30 2152 C 195.657 5.49614 -2.67147 0
M  V30 2153 C 196.655 5.81044 -3.58994 0
M  V30 2154 O 196.343 6.50313 -4.72597 0
M  V30 2155 H 196.075 0.670345 -0.0872549 0
M  V30 2156 H 198.629 1.84913 -0.894226 0
M  V30 2157 H 196.859 3.79025 0.7666 0
M  V30 2158 H 198.548 4.0364 0.427687 0
M  V30 2159 H 199.314 4.40558 -2.02815 0
M  V30 2160 H 195.193 4.53843 -0.809158 0
M  V30 2161 H 198.737 5.66365 -4.07279 0
M  V30 2162 H 194.634 5.79419 -2.84505 0
M  V30 2163 H 195.402 6.68795 -4.71864 0
M  V30 2164 N 198.065 0.39524 1.52563 0
M  V30 2165 C 198.995 -0.428384 2.29537 0
M  V30 2166 C 199.976 -1.05831 1.33169 0
M  V30 2167 O 201.161 -1.06995 1.62067 0
M  V30 2168 C 198.291 -1.55274 3.10656 0
M  V30 2169 C 197.245 -1.04855 4.14957 0
M  V30 2170 C 196.571 -2.26543 4.84337 0
M  V30 2171 C 197.871 -0.112324 5.22179 0
M  V30 2172 H 199.565 0.213867 2.98635 0
M  V30 2173 H 197.111 0.104298 1.43622 0
M  V30 2174 H 199.064 -2.1358 3.63265 0
M  V30 2175 H 197.788 -2.22266 2.39302 0
M  V30 2176 H 196.447 -0.487985 3.63338 0
M  V30 2177 H 196.095 -2.92059 4.09525 0
M  V30 2178 H 195.795 -1.93466 5.54837 0
M  V30 2179 H 197.319 -2.85481 5.39753 0
M  V30 2180 H 198.733 -0.603752 5.70112 0
M  V30 2181 H 197.13 0.128968 5.99961 0
M  V30 2182 H 198.2 0.837052 4.77621 0
M  V30 2183 N 199.544 -1.57102 0.125237 0
M  V30 2184 C 200.494 -2.12202 -0.833936 0
M  V30 2185 C 201.478 -1.04433 -1.22403 0
M  V30 2186 O 202.67 -1.30655 -1.19408 0
M  V30 2187 C 199.799 -2.72994 -2.08157 0
M  V30 2188 C 198.885 -3.87852 -1.71556 0
M  V30 2189 N 199.276 -4.9464 -1.05662 0
M  V30 2190 C 197.574 -3.98153 -2.00973 0
M  V30 2191 C 198.275 -5.74953 -0.883376 0
M  V30 2192 N 197.251 -5.24985 -1.41036 0
M  V30 2193 H 201.053 -2.92141 -0.321035 0
M  V30 2194 H 198.567 -1.62217 -0.0770315 0
M  V30 2195 H 200.564 -3.10816 -2.77847 0
M  V30 2196 H 199.224 -1.9452 -2.59985 0
M  V30 2197 H 200.235 -5.12872 -0.719878 0
M  V30 2198 H 196.912 -3.30728 -2.54804 0
M  V30 2199 H 198.302 -6.70904 -0.365675 0
M  V30 2200 N 201.022 0.148545 -1.56898 0
M  V30 2201 C 201.97 1.20265 -1.99096 0
M  V30 2202 C 202.964 1.44559 -0.883123 0
M  V30 2203 O 204.17 1.4487 -1.0683 0
M  V30 2204 H 200.545 0.404786 -0.63376 0
M  V30 2205 H 202.516 0.82004 -2.86911 0
M  V30 2206 C 201.265 2.52886 -2.3863 0
M  V30 2207 H 200.588 2.35021 -3.23427 0
M  V30 2208 H 202.028 3.25274 -2.7198 0
M  V30 2209 C 200.487 3.13315 -1.23837 0
M  V30 2210 O 201.017 3.98077 -0.538268 0
M  V30 2211 N 199.223 2.72742 -1.00301 0
M  V30 2212 H 198.77 2.03912 -1.5741 0
M  V30 2213 H 198.728 3.13507 -0.236838 0
M  V30 2214 N 202.5 1.5196 0.417844 0
M  V30 2215 C 203.433 1.69387 1.52916 0
M  V30 2216 C 204.411 0.541419 1.53321 0
M  V30 2217 O 205.595 0.767695 1.72159 0
M  V30 2218 C 202.722 1.72525 2.91467 0
M  V30 2219 C 201.768 2.93967 3.09008 0
M  V30 2220 S 202.601 4.54461 2.83242 0
M  V30 2221 C 203.757 4.60372 4.24038 0
M  V30 2222 H 203.99 2.63382 1.37903 0
M  V30 2223 H 201.523 1.41889 0.608845 0
M  V30 2224 H 203.481 1.75018 3.7132 0
M  V30 2225 H 202.142 0.796733 3.03827 0
M  V30 2226 H 201.335 2.92619 4.10353 0
M  V30 2227 H 200.937 2.89316 2.37007 0
M  V30 2228 H 203.229 4.37213 5.17544 0
M  V30 2229 H 204.172 5.62273 4.30412 0
M  V30 2230 H 204.58 3.89492 4.08602 0
M  V30 2231 N 203.978 -0.674533 1.42435 0
M  V30 2232 C 205.206 -1.46283 1.46317 0
M  V30 2233 C 205.621 -1.88653 0.0745836 0
M  V30 2234 O 204.978 -1.58151 -0.91074 0
M  V30 2235 C 205.029 -2.71178 2.3905 0
M  V30 2236 O 204.75 -2.30586 3.72507 0
M  V30 2237 C 206.251 -3.64738 2.51955 0
M  V30 2238 H 203.471 -0.450104 0.497642 0
M  V30 2239 H 206.015 -0.828792 1.86953 0
M  V30 2240 H 204.17 -3.3077 2.01667 0
M  V30 2241 H 204.584 -3.11241 4.22172 0
M  V30 2242 H 206.058 -4.49096 3.20962 0
M  V30 2243 H 206.535 -4.10656 1.55752 0
M  V30 2244 H 207.141 -3.11038 2.90061 0
M  V30 2245 N 205.456 -1.28612 -0.910864 0
M  V30 2246 C 206.867 -1.14406 -1.47541 0
M  V30 2247 C 207.218 0.264901 -1.94403 0
M  V30 2248 O 206.343 1.15942 -1.82719 0
M  V30 2249 C 206.938 -2.07073 -2.68153 0
M  V30 2250 C 205.497 -1.96923 -3.20778 0
M  V30 2251 C 204.644 -1.98646 -1.93481 0
M  V30 2252 H 207.595 -1.41259 -0.723291 0
M  V30 2253 H 207.616 -1.63642 -3.43514 0
M  V30 2254 H 207.128 -3.09611 -2.34015 0
M  V30 2255 H 205.229 -0.97433 -3.59635 0
M  V30 2256 H 205.342 -2.84026 -3.85832 0
M  V30 2257 H 203.706 -1.43093 -2.10705 0
M  V30 2258 H 204.489 -3.02868 -1.61634 0
M  V30 2259 N 206.934 1.1197 -1.10907 0
M  V30 2260 C 208.345 1.65114 -0.871446 0
M  V30 2261 C 208.696 1.86885 0.597353 0
M  V30 2262 O 207.821 1.59896 1.45816 0
M  V30 2263 C 208.416 2.99944 -1.5754 0
M  V30 2264 C 206.975 3.50018 -1.38435 0
M  V30 2265 C 206.122 2.24941 -1.62164 0
M  V30 2266 H 209.073 0.956851 -1.2661 0
M  V30 2267 H 209.094 3.66651 -1.01721 0
M  V30 2268 H 208.606 2.84067 -2.64438 0
M  V30 2269 H 206.707 3.71071 -0.337214 0
M  V30 2270 H 206.82 4.29165 -2.12965 0
M  V30 2271 H 205.184 2.3229 -1.04467 0
M  V30 2272 H 205.967 2.11612 -2.70324 0
M  V30 2273 N 208.412 0.89855 1.29475 0
M  V30 2274 C 209.342 0.39201 2.30186 0
M  V30 2275 C 210.323 -0.532359 1.61555 0
M  V30 2276 O 211.508 -0.443331 1.89072 0
M  V30 2277 C 208.638 -0.382353 3.45189 0
M  V30 2278 C 207.592 0.451483 4.25612 0
M  V30 2279 C 206.918 -0.450307 5.328 0
M  V30 2280 C 208.218 1.70079 4.93832 0
M  V30 2281 H 209.912 1.23362 2.72804 0
M  V30 2282 H 207.458 0.594638 1.31149 0
M  V30 2283 H 209.411 -0.747451 4.14718 0
M  V30 2284 H 208.135 -1.25774 3.01411 0
M  V30 2285 H 206.794 0.798897 3.57789 0
M  V30 2286 H 206.442 -1.32379 4.85268 0
M  V30 2287 H 206.142 0.103902 5.87508 0
M  V30 2288 H 207.666 -0.811623 6.05182 0
M  V30 2289 H 209.08 1.40549 5.55805 0
M  V30 2290 H 207.477 2.19623 5.58467 0
M  V30 2291 H 208.547 2.43744 4.19186 0
M  V30 2292 N 209.89 -1.43072 0.660911 0
M  V30 2293 C 210.82 -2.33497 -0.0122829 0
M  V30 2294 C 211.801 -1.49903 -0.803925 0
M  V30 2295 O 212.986 -1.78546 -0.763864 0
M  V30 2296 C 210.116 -3.33363 -0.973994 0
M  V30 2297 C 209.07 -4.27003 -0.291928 0
M  V30 2298 C 208.396 -5.16967 -1.36562 0
M  V30 2299 C 209.696 -5.15816 0.820462 0
M  V30 2300 H 211.39 -2.90038 0.742873 0
M  V30 2301 H 208.936 -1.39461 0.358688 0
M  V30 2302 H 210.889 -3.95524 -1.45392 0
M  V30 2303 H 209.613 -2.75095 -1.7604 0
M  V30 2304 H 208.272 -3.66217 0.167623 0
M  V30 2305 H 207.92 -4.55034 -2.14366 0
M  V30 2306 H 207.62 -5.80441 -0.914454 0
M  V30 2307 H 209.144 -5.82003 -1.84675 0
M  V30 2308 H 210.558 -5.71742 0.422366 0
M  V30 2309 H 208.955 -5.8805 1.19656 0
M  V30 2310 H 210.025 -4.55045 1.67518 0
M  V30 2311 N 211.368 -0.403325 -1.52352 0
M  V30 2312 C 212.318 0.442244 -2.2367 0
M  V30 2313 C 213.302 1.01823 -1.24583 0
M  V30 2314 O 214.494 0.942005 -1.49851 0
M  V30 2315 C 211.623 1.5615 -3.05732 0
M  V30 2316 C 210.709 0.996575 -4.12225 0
M  V30 2317 N 211.1 0.157804 -5.05554 0
M  V30 2318 C 209.398 1.26767 -4.27605 0
M  V30 2319 C 210.099 -0.155853 -5.81491 0
M  V30 2320 N 209.075 0.451775 -5.41719 0
M  V30 2321 H 212.877 -0.204964 -2.93184 0
M  V30 2322 H 210.391 -0.213418 -1.60992 0
M  V30 2323 H 212.388 2.17981 -3.55373 0
M  V30 2324 H 211.048 2.21139 -2.37755 0
M  V30 2325 H 212.059 -0.206049 -5.1749 0
M  V30 2326 H 208.736 1.91757 -3.70858 0
M  V30 2327 H 210.126 -0.836329 -6.66675 0
M  V30 2328 N 212.846 1.57033 -0.133567 0
M  V30 2329 C 213.796 2.12641 0.822671 0
M  V30 2330 C 214.78 1.05081 1.21847 0
M  V30 2331 O 215.972 1.31287 1.18713 0
M  V30 2332 C 213.101 2.74094 2.06706 0
M  V30 2333 C 212.187 3.88757 1.69497 0
M  V30 2334 N 212.578 4.95194 1.03037 0
M  V30 2335 C 210.876 3.99213 1.98859 0
M  V30 2336 C 211.577 5.75414 0.852873 0
M  V30 2337 N 210.553 5.25726 1.3825 0
M  V30 2338 H 214.355 2.92308 0.305537 0
M  V30 2339 H 211.869 1.62256 0.0684276 0
M  V30 2340 H 213.866 3.12285 2.76195 0
M  V30 2341 H 212.526 1.95896 2.5895 0
M  V30 2342 H 213.537 5.13247 0.692669 0
M  V30 2343 H 210.214 3.32075 2.53047 0
M  V30 2344 H 211.604 6.71089 0.330091 0
M  V30 2345 N 214.325 -0.140222 1.56975 0
M  V30 2346 C 215.602 -0.880769 1.74648 0
M  V30 2347 C 215.982 -1.99036 0.703404 0
M  V30 2348 O 215.33 -2.26821 -0.27648 0
M  V30 2349 C 215.54 -1.417 3.18939 0
M  V30 2350 C 216.888 -1.87774 3.80823 0
M  V30 2351 O 217.912 -1.51427 3.2241 0
M  V30 2352 O 216.771 -2.54827 4.83452 0
M  V30 2353 H 213.865 -0.416713 0.714338 0
M  V30 2354 H 216.411 -0.125618 1.69234 0
M  V30 2355 H 215.183 -0.619902 3.86359 0
M  V30 2356 H 214.806 -2.23546 3.28805 0
M  V30 2357 N 215.803 -1.52179 -0.40978 0
M  V30 2358 C 216.733 -1.78435 -1.5061 0
M  V30 2359 C 217.714 -0.635295 -1.57791 0
M  V30 2360 O 218.899 -0.880823 -1.73076 0
M  V30 2361 C 216.029 -1.93444 -2.88439 0
M  V30 2362 C 214.983 -3.09038 -2.96108 0
M  V30 2363 C 214.309 -3.09268 -4.36185 0
M  V30 2364 C 215.609 -4.48508 -2.67652 0
M  V30 2365 H 217.303 -2.70237 -1.28889 0
M  V30 2366 H 214.849 -1.30036 -0.618605 0
M  V30 2367 H 216.802 -2.10394 -3.65119 0
M  V30 2368 H 215.526 -0.983129 -3.11452 0
M  V30 2369 H 214.185 -2.91837 -2.21872 0
M  V30 2370 H 213.833 -2.11861 -4.56206 0
M  V30 2371 H 213.533 -3.86907 -4.42241 0
M  V30 2372 H 215.057 -3.28348 -5.14801 0
M  V30 2373 H 216.471 -4.65918 -3.34056 0
M  V30 2374 H 214.868 -5.28059 -2.85085 0
M  V30 2375 H 215.938 -4.56649 -1.63095 0
M  V30 2376 N 217.281 0.66697 -1.42791 0
M  V30 2377 C 218.228 1.7803 -1.4688 0
M  V30 2378 C 219.198 1.6299 -0.319919 0
M  V30 2379 O 220.383 1.83432 -0.525118 0
M  V30 2380 C 217.523 3.1611 -1.38451 0
M  V30 2381 C 216.636 3.42381 -2.63437 0
M  V30 2382 C 215.771 4.70232 -2.47094 0
M  V30 2383 C 214.81 4.89564 -3.67415 0
M  V30 2384 N 213.947 6.08661 -3.49966 0
M  V30 2385 H 218.787 1.7387 -2.42019 0
M  V30 2386 H 216.324 0.84868 -1.20149 0
M  V30 2387 H 218.282 3.95914 -1.31561 0
M  V30 2388 H 216.912 3.19374 -0.469033 0
M  V30 2389 H 215.964 2.56774 -2.80662 0
M  V30 2390 H 217.276 3.52557 -3.52853 0
M  V30 2391 H 216.43 5.5814 -2.37834 0
M  V30 2392 H 215.169 4.62353 -1.5518 0
M  V30 2393 H 214.174 4.00096 -3.77099 0
M  V30 2394 H 215.399 4.99282 -4.6032 0
M  V30 2395 H 213.345 6.0194 -2.60776 0
M  V30 2396 H 213.262 6.19733 -4.32975 0
M  V30 2397 H 214.53 6.99226 -3.44532 0
M  V30 2398 N 218.759 1.29093 0.90403 0
M  V30 2399 C 219.987 1.19689 1.68766 0
M  V30 2400 C 220.402 -0.243113 1.87228 0
M  V30 2401 O 219.759 -1.16326 1.40621 0
M  V30 2402 C 219.81 1.90144 3.07453 0
M  V30 2403 O 219.531 3.2852 2.89838 0
M  V30 2404 C 221.032 1.87162 4.01852 0
M  V30 2405 H 218.252 0.415035 0.527244 0
M  V30 2406 H 220.796 1.7039 1.13082 0
M  V30 2407 H 218.951 1.43289 3.59926 0
M  V30 2408 H 219.365 3.63944 3.77684 0
M  V30 2409 H 220.839 2.41032 4.96596 0
M  V30 2410 H 221.316 0.84617 4.30972 0
M  V30 2411 H 221.922 2.33741 3.5531 0
M  V30 2412 N 220.237 -1.11381 1.11499 0
M  V30 2413 C 221.169 -2.17207 0.731704 0
M  V30 2414 C 222.182 -1.61066 -0.236957 0
M  V30 2415 O 223.371 -1.78489 -0.0197591 0
M  V30 2416 C 220.471 -3.38846 0.0607624 0
M  V30 2417 C 219.644 -4.24451 1.0564 0
M  V30 2418 C 218.703 -5.24562 0.4149 0
M  V30 2419 O 217.729 -5.59071 1.069 0
M  V30 2420 N 218.931 -5.74651 -0.821943 0
M  V30 2421 H 221.696 -2.50699 1.64225 0
M  V30 2422 H 219.257 -1.26908 1.00529 0
M  V30 2423 H 221.249 -4.02911 -0.380139 0
M  V30 2424 H 219.819 -3.03411 -0.752376 0
M  V30 2425 H 219.039 -3.56833 1.67524 0
M  V30 2426 H 220.327 -4.78486 1.72998 0
M  V30 2427 H 219.725 -5.48797 -1.37252 0
M  V30 2428 H 218.282 -6.40549 -1.20582 0
M  V30 2429 N 221.715 -0.905404 -1.28997 0
M  V30 2430 C 222.663 -0.377431 -2.29517 0
M  V30 2431 C 223.657 0.526461 -1.61012 0
M  V30 2432 O 224.863 0.40863 -1.753 0
M  V30 2433 H 221.238 -0.103437 -0.744852 0
M  V30 2434 H 223.209 -1.23848 -2.71485 0
M  V30 2435 C 221.958 0.374833 -3.45674 0
M  V30 2436 H 221.281 -0.311474 -3.98585 0
M  V30 2437 H 222.721 0.70903 -4.1803 0
M  V30 2438 C 221.18 1.57963 -2.97572 0
M  V30 2439 O 221.71 2.67886 -2.99333 0
M  V30 2440 N 219.916 1.42375 -2.53333 0
M  V30 2441 H 219.463 0.529466 -2.521 0
M  V30 2442 H 219.421 2.23117 -2.21509 0
M  V30 2443 N 223.193 1.4272 -0.668489 0
M  V30 2444 C 224.442 2.00846 -0.185389 0
M  V30 2445 C 224.755 1.53442 1.21305 0
M  V30 2446 O 225.961 2.03944 1.79218 0
M  V30 2447 C 224.417 3.58805 -0.280591 0
M  V30 2448 C 224.025 4.15198 -1.68268 0
M  V30 2449 C 225.769 4.24255 0.14412 0
M  V30 2450 C 223.676 5.655 -1.73099 0
M  V30 2451 H 222.606 0.751145 -0.0655475 0
M  V30 2452 H 225.257 1.63516 -0.832752 0
M  V30 2453 H 223.639 3.93608 0.434553 0
M  V30 2454 H 224.813 3.91866 -2.42441 0
M  V30 2455 H 223.128 3.62176 -2.05469 0
M  V30 2456 H 225.725 5.34547 0.128086 0
M  V30 2457 H 226.068 3.99277 1.17827 0
M  V30 2458 H 226.601 3.94389 -0.519798 0
M  V30 2459 H 223.34 5.95268 -2.74475 0
M  V30 2460 H 222.86 5.90842 -1.03274 0
M  V30 2461 H 224.539 6.29808 -1.48158 0
M  V30 2462 N 224.671 0.411399 1.52136 0
M  V30 2463 C 225.601 -0.404015 2.29978 0
M  V30 2464 C 226.582 -1.04412 1.34284 0
M  V30 2465 O 227.767 -1.0527 1.63192 0
M  V30 2466 C 224.897 -1.5197 3.12286 0
M  V30 2467 C 223.851 -1.00448 4.16046 0
M  V30 2468 C 223.177 -2.21393 4.86712 0
M  V30 2469 C 224.477 -0.0569336 5.22269 0
M  V30 2470 H 226.171 0.245529 2.98392 0
M  V30 2471 H 223.717 0.119525 1.43503 0
M  V30 2472 H 225.67 -2.09715 3.6551 0
M  V30 2473 H 224.394 -2.19716 2.41646 0
M  V30 2474 H 223.053 -0.449421 3.63835 0
M  V30 2475 H 222.701 -2.87699 4.12599 0
M  V30 2476 H 222.401 -1.87571 5.56858 0
M  V30 2477 H 223.925 -2.7974 5.4275 0
M  V30 2478 H 225.339 -0.54325 5.7072 0
M  V30 2479 H 223.736 0.192594 5.99791 0
M  V30 2480 H 224.806 0.887663 4.76706 0
M  V30 2481 N 226.149 -1.5696 0.141893 0
M  V30 2482 C 227.079 -2.19516 -0.795936 0
M  V30 2483 C 228.06 -1.14187 -1.26077 0
M  V30 2484 O 229.245 -1.42511 -1.31925 0
M  V30 2485 C 226.375 -2.81272 -2.03723 0
M  V30 2486 C 225.329 -3.92384 -1.70936 0
M  V30 2487 C 224.655 -4.41052 -3.02287 0
M  V30 2488 C 225.955 -5.13403 -0.959954 0
M  V30 2489 H 227.649 -2.98138 -0.274596 0
M  V30 2490 H 225.195 -1.43406 -0.130636 0
M  V30 2491 H 227.148 -3.237 -2.69808 0
M  V30 2492 H 225.872 -1.99973 -2.58221 0
M  V30 2493 H 224.531 -3.50566 -1.07232 0
M  V30 2494 H 224.179 -3.56582 -3.54765 0
M  V30 2495 H 223.879 -5.15993 -2.81114 0
M  V30 2496 H 225.403 -4.86146 -3.69451 0
M  V30 2497 H 226.817 -5.52706 -1.52279 0
M  V30 2498 H 225.214 -5.94073 -0.848357 0
M  V30 2499 H 226.284 -4.84875 0.0492434 0
M  V30 2500 N 227.627 0.131896 -1.57047 0
M  V30 2501 C 228.904 0.871495 -1.75112 0
M  V30 2502 C 229.284 1.9866 -0.713949 0
M  V30 2503 O 228.632 2.26965 0.264447 0
M  V30 2504 C 228.842 1.40007 -3.19686 0
M  V30 2505 C 230.19 1.85752 -3.81813 0
M  V30 2506 O 231.214 1.49715 -3.23209 0
M  V30 2507 O 230.073 2.5226 -4.84796 0
M  V30 2508 H 227.167 0.412919 -0.716538 0
M  V30 2509 H 229.713 0.116641 -1.69299 0
M  V30 2510 H 228.485 0.599404 -3.86682 0
M  V30 2511 H 228.108 2.218 -3.29986 0
M  V30 2512 N 229.106 1.52395 0.401703 0
M  V30 2513 C 230.054 1.7689 1.51039 0
M  V30 2514 C 231.048 0.636298 1.56996 0
M  V30 2515 O 232.254 0.818507 1.60314 0
M  V30 2516 H 228.629 0.559502 0.502456 0
M  V30 2517 H 230.6 2.69757 1.27568 0
M  V30 2518 C 229.349 1.94331 2.88324 0
M  V30 2519 H 228.672 2.80905 2.84486 0
M  V30 2520 H 230.112 2.15466 3.65172 0
M  V30 2521 C 228.571 0.712396 3.29282 0
M  V30 2522 O 229.101 -0.116218 4.01532 0
M  V30 2523 N 227.307 0.546154 2.85422 0
M  V30 2524 H 226.854 1.22156 2.26794 0
M  V30 2525 H 226.812 -0.276113 3.13185 0
M  V30 2526 N 230.584 -0.659388 1.43143 0
M  V30 2527 C 231.494 -1.80167 1.50256 0
M  V30 2528 C 232.51 -1.69571 0.390106 0
M  V30 2529 O 233.686 -1.90849 0.643319 0
M  V30 2530 C 230.751 -3.16409 1.41725 0
M  V30 2531 C 229.812 -3.38848 2.63591 0
M  V30 2532 C 229.045 -4.68591 2.55458 0
M  V30 2533 O 229.268 -5.47532 1.59891 0
M  V30 2534 O 228.202 -4.92614 3.45854 0
M  V30 2535 H 232.028 -1.77121 2.46702 0
M  V30 2536 H 229.613 -0.817092 1.25076 0
M  V30 2537 H 231.495 -3.9768 1.39387 0
M  V30 2538 H 230.17 -3.20059 0.484118 0
M  V30 2539 H 229.077 -2.57366 2.71502 0
M  V30 2540 H 230.41 -3.4004 3.55856 0
M  V30 2541 N 232.062 -1.29571 -0.897171 0
M  V30 2542 C 233.309 -1.17689 -1.6479 0
M  V30 2543 C 233.637 0.27107 -1.92602 0
M  V30 2544 O 232.892 1.21193 -1.53658 0
M  V30 2545 C 233.191 -1.9382 -3.00281 0
M  V30 2546 C 232.857 -3.43522 -2.92068 0
M  V30 2547 C 231.519 -3.84348 -2.89535 0
M  V30 2548 C 233.871 -4.38906 -2.81089 0
M  V30 2549 C 231.199 -5.18869 -2.73846 0
M  V30 2550 C 233.551 -5.73521 -2.66939 0
M  V30 2551 C 232.215 -6.13601 -2.62774 0
M  V30 2552 H 231.485 -0.430654 -0.603008 0
M  V30 2553 H 234.132 -1.60536 -1.04404 0
M  V30 2554 H 232.437 -1.4357 -3.64547 0
M  V30 2555 H 234.134 -1.82028 -3.57305 0
M  V30 2556 H 230.724 -3.11072 -2.94842 0
M  V30 2557 H 234.908 -4.08315 -2.82121 0
M  V30 2558 H 230.164 -5.4903 -2.69027 0
M  V30 2559 H 234.338 -6.47078 -2.57416 0
M  V30 2560 H 231.965 -7.17786 -2.50375 0
M  V30 2561 N 233.54 1.10788 -1.12088 0
M  V30 2562 C 234.49 2.15158 -0.754401 0
M  V30 2563 C 235.474 1.59026 0.244846 0
M  V30 2564 O 236.666 1.76927 0.0509097 0
M  V30 2565 C 233.795 3.42677 -0.206657 0
M  V30 2566 C 232.881 4.05751 -1.23398 0
M  V30 2567 N 233.272 4.43582 -2.43041 0
M  V30 2568 C 231.57 4.32764 -1.07848 0
M  V30 2569 C 232.271 4.93085 -3.08613 0
M  V30 2570 N 231.247 4.89664 -2.36072 0
M  V30 2571 H 235.049 2.42195 -1.6649 0
M  V30 2572 H 232.563 1.27872 -1.00112 0
M  V30 2573 H 234.56 4.16834 0.0740646 0
M  V30 2574 H 233.22 3.17101 0.698342 0
M  V30 2575 H 234.231 4.35395 -2.80449 0
M  V30 2576 H 230.908 4.16863 -0.230483 0
M  V30 2577 H 232.298 5.31933 -4.10483 0
M  V30 2578 N 235.018 0.912232 1.28515 0
M  V30 2579 C 236.264 0.545405 1.95328 0
M  V30 2580 C 236.597 -0.908313 1.71649 0
M  V30 2581 O 235.872 -1.64575 1.03659 0
M  V30 2582 C 236.155 0.853483 3.4984 0
M  V30 2583 C 236.008 2.35982 3.82926 0
M  V30 2584 C 237.327 0.348589 4.38717 0
M  V30 2585 H 234.446 0.199626 0.709449 0
M  V30 2586 H 237.088 1.1412 1.5191 0
M  V30 2587 H 235.238 0.34643 3.86952 0
M  V30 2588 H 236.91 2.93738 3.55691 0
M  V30 2589 H 235.153 2.81543 3.30024 0
M  V30 2590 H 235.824 2.52593 4.90816 0
M  V30 2591 H 238.3 0.78294 4.08668 0
M  V30 2592 H 237.176 0.593242 5.45685 0
M  V30 2593 H 237.437 -0.751049 4.35674 0
M  V30 2594 N 236.496 -1.42363 0.676048 0
M  V30 2595 C 237.443 -2.308 -0.00150904 0
M  V30 2596 C 238.413 -1.46032 -0.791444 0
M  V30 2597 O 239.598 -1.74861 -0.76344 0
M  V30 2598 C 236.738 -3.31883 -0.945919 0
M  V30 2599 C 235.851 -4.31741 -0.149675 0
M  V30 2600 C 234.986 -5.19898 -1.08995 0
M  V30 2601 C 234.025 -6.11434 -0.285465 0
M  V30 2602 N 233.162 -6.92138 -1.17851 0
M  V30 2603 H 238.002 -2.88187 0.758455 0
M  V30 2604 H 235.539 -1.41952 0.38576 0
M  V30 2605 H 237.497 -3.89019 -1.50731 0
M  V30 2606 H 236.127 -2.76093 -1.6725 0
M  V30 2607 H 235.179 -3.76713 0.528359 0
M  V30 2608 H 236.491 -4.96534 0.474866 0
M  V30 2609 H 235.645 -5.81772 -1.72123 0
M  V30 2610 H 234.384 -4.55284 -1.74837 0
M  V30 2611 H 233.389 -5.48627 0.359018 0
M  V30 2612 H 234.614 -6.78097 0.368883 0
M  V30 2613 H 232.56 -6.30152 -1.82332 0
M  V30 2614 H 232.477 -7.53542 -0.609082 0
M  V30 2615 H 233.745 -7.58499 -1.79722 0
M  V30 2616 N 237.974 -0.419461 -1.51915 0
M  V30 2617 C 239.223 0.154346 -2.01109 0
M  V30 2618 C 239.536 1.45338 -1.30905 0
M  V30 2619 O 240.742 2.10906 -1.7097 0
M  V30 2620 C 239.198 0.325615 -3.58424 0
M  V30 2621 C 238.806 -0.961934 -4.37551 0
M  V30 2622 C 240.55 0.854155 -4.15818 0
M  V30 2623 C 238.457 -0.757287 -5.86531 0
M  V30 2624 H 237.387 0.0614563 -0.751491 0
M  V30 2625 H 240.038 -0.54649 -1.75173 0
M  V30 2626 H 238.42 1.08903 -3.80731 0
M  V30 2627 H 239.594 -1.7323 -4.26999 0
M  V30 2628 H 237.909 -1.41766 -3.91524 0
M  V30 2629 H 240.506 1.02346 -5.24814 0
M  V30 2630 H 240.849 1.83172 -3.73837 0
M  V30 2631 H 241.382 0.149528 -3.97519 0
M  V30 2632 H 238.121 -1.70671 -6.32892 0
M  V30 2633 H 237.641 -0.0264061 -5.99794 0
M  V30 2634 H 239.32 -0.403482 -6.45741 0
M  V30 2635 N 239.452 1.56882 -0.150215 0
M  V30 2636 C 240.415 2.1573 0.774157 0
M  V30 2637 C 241.415 1.0999 1.17298 0
M  V30 2638 O 242.605 1.35613 1.09338 0
M  V30 2639 C 239.737 2.72302 2.05096 0
M  V30 2640 H 240.93 2.98752 0.262201 0
M  V30 2641 H 238.483 1.55985 0.099248 0
M  V30 2642 H 239.218 1.92956 2.6065 0
M  V30 2643 H 239.003 3.49665 1.77416 0
M  V30 2644 H 240.493 3.17632 2.71109 0
M  V30 2645 N 240.93 -0.123565 1.57115 0
M  V30 2646 C 242.207 -0.862196 1.75572 0
M  V30 2647 C 242.587 -1.98279 0.724475 0
M  V30 2648 O 241.935 -2.27102 -0.252407 0
M  V30 2649 C 242.145 -1.38309 3.20424 0
M  V30 2650 C 243.493 -1.83724 3.82793 0
M  V30 2651 O 244.517 -1.47999 3.23998 0
M  V30 2652 O 243.376 -2.49685 4.86127 0
M  V30 2653 H 240.47 -0.409113 0.718718 0
M  V30 2654 H 243.016 -0.107661 1.69358 0
M  V30 2655 H 241.788 -0.578889 3.86994 0
M  V30 2656 H 241.411 -2.20046 3.31158 0
M  V30 2657 N 242.408 -1.52605 -0.393616 0
M  V30 2658 C 243.655 -1.67424 -1.1391 0
M  V30 2659 C 243.983 -0.411859 -1.90089 0
M  V30 2660 O 243.238 0.605626 -1.86093 0
M  V30 2661 C 243.537 -2.85721 -2.14705 0
M  V30 2662 C 243.203 -4.23342 -1.55218 0
M  V30 2663 C 241.865 -4.60771 -1.3872 0
M  V30 2664 C 244.217 -5.09041 -1.11924 0
M  V30 2665 C 241.545 -5.81563 -0.774689 0
M  V30 2666 C 243.897 -6.30452 -0.520853 0
M  V30 2667 C 242.561 -6.66617 -0.343134 0
M  V30 2668 H 241.831 -0.612648 -0.416826 0
M  V30 2669 H 244.478 -1.8674 -0.424315 0
M  V30 2670 H 242.783 -2.60803 -2.92385 0
M  V30 2671 H 244.48 -2.94382 -2.72288 0
M  V30 2672 H 241.07 -3.93855 -1.69045 0
M  V30 2673 H 245.254 -4.80695 -1.23473 0
M  V30 2674 H 240.51 -6.08196 -0.625154 0
M  V30 2675 H 244.684 -6.96175 -0.177065 0
M  V30 2676 H 242.311 -7.60083 0.133571 0
M  V30 2677 N 243.887 0.651787 -1.4349 0
M  V30 2678 C 245.135 1.40888 -1.44897 0
M  V30 2679 C 245.456 1.94856 -0.0749086 0
M  V30 2680 O 244.726 1.74518 0.889956 0
M  V30 2681 H 243.306 0.522887 -0.533478 0
M  V30 2682 H 245.968 0.768609 -1.79104 0
M  V30 2683 H 245.064 2.25052 -2.16236 0
M  V30 2684 N 245.365 1.30045 0.890287 0
M  V30 2685 C 246.295 1.18541 2.01172 0
M  V30 2686 C 247.276 0.0773356 1.69924 0
M  V30 2687 O 248.461 0.25845 1.92473 0
M  V30 2688 C 245.591 0.870941 3.36202 0
M  V30 2689 C 244.545 1.93637 3.81692 0
M  V30 2690 C 243.871 1.475 5.13953 0
M  V30 2691 C 245.171 3.34666 4.00994 0
M  V30 2692 H 246.865 2.12359 2.11054 0
M  V30 2693 H 244.411 1.02238 1.01407 0
M  V30 2694 H 246.364 0.777141 4.14172 0
M  V30 2695 H 245.088 -0.102926 3.26438 0
M  V30 2696 H 243.747 2.01972 3.05946 0
M  V30 2697 H 243.395 0.489551 5.00612 0
M  V30 2698 H 243.095 2.1876 5.4536 0
M  V30 2699 H 244.619 1.39489 5.94454 0
M  V30 2700 H 246.033 3.2912 4.69417 0
M  V30 2701 H 244.43 4.03966 4.43769 0
M  V30 2702 H 245.5 3.76949 3.05021 0
M  V30 2703 N 246.843 -1.10192 1.12674 0
M  V30 2704 C 248.068 -1.86523 0.906853 0
M  V30 2705 C 248.493 -1.80221 -0.538711 0
M  V30 2706 O 247.851 -1.17396 -1.38158 0
M  V30 2707 C 247.899 -3.32758 1.3894 0
M  V30 2708 O 247.003 -4.08449 0.5695 0
M  V30 2709 H 246.344 -0.578678 0.325619 0
M  V30 2710 H 248.874 -1.39203 1.49946 0
M  V30 2711 H 248.884 -3.83608 1.38958 0
M  V30 2712 H 247.559 -3.36661 2.44197 0
M  V30 2713 H 246.136 -3.67427 0.636528 0
M  V30 2714 N 248.321 -0.919034 -1.28029 0
M  V30 2715 C 249.268 -0.410005 -2.27129 0
M  V30 2716 C 250.238 0.518405 -1.57803 0
M  V30 2717 O 251.423 0.439451 -1.8567 0
M  V30 2718 C 248.563 0.339054 -3.4343 0
M  V30 2719 C 247.676 -0.622468 -4.27492 0
M  V30 2720 C 246.811 0.145567 -5.31001 0
M  V30 2721 C 245.85 -0.809226 -6.06727 0
M  V30 2722 N 244.987 -0.0743728 -7.02061 0
M  V30 2723 H 249.827 -1.26011 -2.70047 0
M  V30 2724 H 247.364 -0.632663 -1.328 0
M  V30 2725 H 249.322 0.789586 -4.0966 0
M  V30 2726 H 247.952 1.15346 -3.01488 0
M  V30 2727 H 247.004 -1.19153 -3.61257 0
M  V30 2728 H 248.316 -1.35252 -4.80113 0
M  V30 2729 H 247.47 0.656417 -6.03139 0
M  V30 2730 H 246.209 0.908643 -4.79161 0
M  V30 2731 H 245.214 -1.3314 -5.33436 0
M  V30 2732 H 246.439 -1.57194 -6.60656 0
M  V30 2733 H 244.385 0.670616 -6.52563 0
M  V30 2734 H 244.302 -0.744157 -7.52329 0
M  V30 2735 H 245.57 0.416109 -7.78389 0
M  V30 2736 N 249.799 1.42003 -0.683588 0
M  V30 2737 C 251.045 2.02223 -0.218536 0
M  V30 2738 C 251.4 1.53126 1.16492 0
M  V30 2739 O 250.693 0.727459 1.77253 0
M  V30 2740 C 250.887 3.56827 -0.202357 0
M  V30 2741 C 250.716 4.20928 -1.5827 0
M  V30 2742 C 249.486 4.5573 -2.18262 0
M  V30 2743 C 251.684 4.47933 -2.52706 0
M  V30 2744 N 249.666 5.05056 -3.48986 0
M  V30 2745 C 251.037 4.98906 -3.68094 0
M  V30 2746 C 253.092 4.29931 -2.51125 0
M  V30 2747 C 251.795 5.33768 -4.82166 0
M  V30 2748 C 253.821 4.65875 -3.643 0
M  V30 2749 C 253.183 5.17008 -4.78417 0
M  V30 2750 H 249.282 0.771931 -0.125088 0
M  V30 2751 H 251.866 1.72729 -0.898479 0
M  V30 2752 H 250.037 3.85819 0.447029 0
M  V30 2753 H 251.769 4.03755 0.276399 0
M  V30 2754 H 248.524 4.41781 -1.70665 0
M  V30 2755 H 248.948 5.34139 -4.15962 0
M  V30 2756 H 253.59 3.89647 -1.6412 0
M  V30 2757 H 251.308 5.72981 -5.6984 0
M  V30 2758 H 254.894 4.53615 -3.64314 0
M  V30 2759 H 253.774 5.44301 -5.64541 0
M  V30 2760 N 251.277 0.427512 1.51691 0
M  V30 2761 C 252.693 0.0792977 1.59403 0
M  V30 2762 C 252.893 -1.41035 1.43914 0
M  V30 2763 O 251.949 -2.17922 1.27539 0
M  V30 2764 C 253.262 0.590636 2.94842 0
M  V30 2765 C 254.81 0.550215 3.08126 0
M  V30 2766 C 255.285 1.03836 4.46074 0
M  V30 2767 N 256.776 0.995943 4.52366 0
M  V30 2768 C 257.511 1.34463 5.57411 0
M  V30 2769 N 257.007 1.76569 6.69922 0
M  V30 2770 N 258.8 1.26343 5.47717 0
M  V30 2771 H 250.951 1.39687 1.60004 0
M  V30 2772 H 253.214 0.575003 0.753708 0
M  V30 2773 H 252.92 1.63251 3.11516 0
M  V30 2774 H 252.794 0.0102061 3.77199 0
M  V30 2775 H 255.181 -0.482654 2.91126 0
M  V30 2776 H 255.262 1.16693 2.27632 0
M  V30 2777 H 254.906 2.06965 4.63819 0
M  V30 2778 H 254.836 0.398286 5.25092 0
M  V30 2779 H 257.327 0.68661 3.7161 0
M  V30 2780 H 257.64 2.01438 7.46085 0
M  V30 2781 H 255.985 1.80488 6.71155 0
M  V30 2782 H 259.176 0.933209 4.58703 0
M  V30 2783 H 259.349 1.53846 6.29472 0
M  V30 2784 N 252.755 -1.56801 0.158532 0
M  V30 2785 C 253.688 -2.13148 -0.815065 0
M  V30 2786 C 254.666 -1.0581 -1.23462 0
M  V30 2787 O 255.85 -1.3371 -1.32868 0
M  V30 2788 C 252.977 -2.6606 -2.09594 0
M  V30 2789 C 252.023 -3.85651 -1.82141 0
M  V30 2790 S 252.856 -5.26041 -1.00207 0
M  V30 2791 C 254.012 -5.8235 -2.29389 0
M  V30 2792 H 254.245 -2.95396 -0.335937 0
M  V30 2793 H 251.778 -1.54299 -0.0559391 0
M  V30 2794 H 253.736 -2.97195 -2.8317 0
M  V30 2795 H 252.397 -1.83921 -2.54621 0
M  V30 2796 H 251.59 -4.20958 -2.77147 0
M  V30 2797 H 251.192 -3.55338 -1.16667 0
M  V30 2798 H 253.484 -5.94485 -3.24952 0
M  V30 2799 H 254.427 -6.79688 -1.9857 0
M  V30 2800 H 254.835 -5.10675 -2.40564 0
M  V30 2801 N 254.233 0.115231 -1.57178 0
M  V30 2802 C 255.166 1.17166 -1.95825 0
M  V30 2803 C 256.144 1.39912 -0.828463 0
M  V30 2804 O 257.328 1.54004 -1.08697 0
M  V30 2805 C 254.455 2.52478 -2.25771 0
M  V30 2806 C 253.501 2.46136 -3.48309 0
M  V30 2807 S 254.334 1.89736 -5.0076 0
M  V30 2808 C 255.49 3.26713 -5.33863 0
M  V30 2809 H 255.723 0.842103 -2.85124 0
M  V30 2810 H 253.256 0.322136 -1.51002 0
M  V30 2811 H 255.214 3.30332 -2.43702 0
M  V30 2812 H 253.875 2.82609 -1.37079 0
M  V30 2813 H 253.068 3.45819 -3.66641 0
M  V30 2814 H 252.67 1.76404 -3.29784 0
M  V30 2815 H 254.962 4.22935 -5.29275 0
M  V30 2816 H 255.905 3.13205 -6.35065 0
M  V30 2817 H 256.313 3.25316 -4.61335 0
M  V30 2818 N 255.711 1.52812 0.385517 0
M  V30 2819 C 256.936 1.72207 1.15583 0
M  V30 2820 C 257.361 0.441034 1.82857 0
M  V30 2821 O 256.719 -0.603465 1.70962 0
M  V30 2822 C 256.767 2.87476 2.17692 0
M  V30 2823 O 255.871 2.54693 3.24354 0
M  V30 2824 H 255.212 0.572526 0.336319 0
M  V30 2825 H 257.742 1.99618 0.448744 0
M  V30 2826 H 257.752 3.13072 2.6163 0
M  V30 2827 H 256.427 3.80408 1.68115 0
M  V30 2828 H 255.004 2.3985 2.85529 0
M  V30 2829 N 257.189 -0.644168 1.43834 0
M  V30 2830 C 258.119 -1.76814 1.52509 0
M  V30 2831 C 259.1 -1.65823 0.379052 0
M  V30 2832 O 260.285 -1.84781 0.597466 0
M  V30 2833 C 257.415 -3.15288 1.4564 0
M  V30 2834 C 256.369 -3.41053 2.58586 0
M  V30 2835 C 255.695 -4.79421 2.36769 0
M  V30 2836 C 256.995 -3.34902 4.00797 0
M  V30 2837 H 258.689 -1.69812 2.46586 0
M  V30 2838 H 256.235 -0.815542 1.1868 0
M  V30 2839 H 258.188 -3.93681 1.50311 0
M  V30 2840 H 256.912 -3.23043 0.480725 0
M  V30 2841 H 255.571 -2.65035 2.53282 0
M  V30 2842 H 255.219 -4.83863 1.37424 0
M  V30 2843 H 254.919 -4.9762 3.12487 0
M  V30 2844 H 256.443 -5.6006 2.43238 0
M  V30 2845 H 257.857 -4.03218 4.07539 0
M  V30 2846 H 256.254 -3.64637 4.76613 0
M  V30 2847 H 257.324 -2.32928 4.25291 0
M  V30 2848 N 258.668 -1.30515 -0.883378 0
M  V30 2849 C 259.893 -1.22487 -1.67367 0
M  V30 2850 C 260.318 0.208767 -1.86938 0
M  V30 2851 O 259.676 1.15015 -1.40148 0
M  V30 2852 C 259.724 -1.96041 -3.02655 0
M  V30 2853 O 258.828 -1.28859 -3.91751 0
M  V30 2854 H 258.169 -0.423573 -0.511353 0
M  V30 2855 H 260.699 -1.72362 -1.10239 0
M  V30 2856 H 260.709 -2.05124 -3.52687 0
M  V30 2857 H 259.384 -3.00307 -2.8773 0
M  V30 2858 H 257.961 -1.28141 -3.50192 0
M  V30 2859 N 260.146 1.09593 -1.13257 0
M  V30 2860 C 261.078 2.16015 -0.766167 0
M  V30 2861 C 262.091 1.61423 0.211303 0
M  V30 2862 O 263.28 1.78498 -0.00863946 0
M  V30 2863 C 260.38 3.38706 -0.114662 0
M  V30 2864 C 259.553 4.22717 -1.12379 0
M  V30 2865 C 258.612 5.23835 -0.498301 0
M  V30 2866 O 257.638 5.573 -1.15781 0
M  V30 2867 N 258.84 5.75886 0.730417 0
M  V30 2868 H 261.605 2.48055 -1.68193 0
M  V30 2869 H 259.166 1.25292 -1.02535 0
M  V30 2870 H 261.158 4.03464 0.315991 0
M  V30 2871 H 259.728 3.04569 0.704011 0
M  V30 2872 H 258.948 3.54122 -1.73179 0
M  V30 2873 H 260.236 4.75673 -1.80589 0
M  V30 2874 H 259.634 5.50911 1.28504 0
M  V30 2875 H 258.191 6.42387 1.10376 0
M  V30 2876 N 261.624 0.925811 1.2754 0
M  V30 2877 C 262.849 0.580924 1.99098 0
M  V30 2878 C 263.274 -0.833555 1.68622 0
M  V30 2879 O 262.632 -1.55903 0.925422 0
M  V30 2880 C 262.68 0.811186 3.51358 0
M  V30 2881 O 261.784 -0.124129 4.12213 0
M  V30 2882 H 261.125 0.223873 0.625122 0
M  V30 2883 H 263.655 1.24455 1.62395 0
M  V30 2884 H 263.665 0.72601 4.01489 0
M  V30 2885 H 262.34 1.84227 3.72872 0
M  V30 2886 H 260.917 0.0108006 3.72898 0
M  V30 2887 N 263.102 -1.41638 0.69111 0
M  V30 2888 C 264.518 -1.55435 0.362224 0
M  V30 2889 C 264.718 -1.66754 -1.13117 0
M  V30 2890 O 263.774 -1.64348 -1.91692 0
M  V30 2891 C 265.087 -2.79588 1.10684 0
M  V30 2892 C 266.635 -2.9338 1.09075 0
M  V30 2893 C 267.11 -4.20414 1.81703 0
M  V30 2894 N 268.601 -4.27362 1.7865 0
M  V30 2895 C 269.336 -5.24507 2.31689 0
M  V30 2896 N 268.832 -6.27708 2.93179 0
M  V30 2897 N 270.625 -5.16416 2.2197 0
M  V30 2898 H 262.776 -1.32536 1.65976 0
M  V30 2899 H 265.039 -0.639115 0.700168 0
M  V30 2900 H 264.745 -2.77419 2.16175 0
M  V30 2901 H 264.619 -3.70973 0.682545 0
M  V30 2902 H 267.006 -2.95067 0.0441238 0
M  V30 2903 H 267.087 -2.0318 1.55407 0
M  V30 2904 H 266.731 -4.19488 2.86343 0
M  V30 2905 H 266.661 -5.09578 1.32808 0
M  V30 2906 H 269.152 -3.53415 1.33815 0
M  V30 2907 H 269.465 -6.98217 3.31229 0
M  V30 2908 H 267.81 -6.28223 2.97255 0
M  V30 2909 H 271.001 -4.34716 1.73607 0
M  V30 2910 H 271.174 -5.91958 2.63609 0
M  V30 2911 N 264.58 -0.43555 -1.51462 0
M  V30 2912 C 265.805 0.132627 -2.06976 0
M  V30 2913 C 266.23 1.35848 -1.30104 0
M  V30 2914 O 265.588 1.78112 -0.338493 0
M  V30 2915 C 265.636 0.43523 -3.57964 0
M  V30 2916 O 264.74 1.52198 -3.83288 0
M  V30 2917 H 264.081 0.00265 -0.663995 0
M  V30 2918 H 266.611 -0.616369 -1.95095 0
M  V30 2919 H 266.621 0.686206 -4.02188 0
M  V30 2920 H 265.296 -0.460739 -4.1334 0
M  V30 2921 H 263.873 1.2611 -3.50928 0
M  V30 2922 N 266.058 1.56714 -0.166846 0
M  V30 2923 C 267.283 2.01557 0.488833 0
M  V30 2924 C 267.708 1.0463 1.56314 0
M  V30 2925 O 267.066 0.0251304 1.81283 0
M  V30 2926 C 267.114 3.4503 1.04818 0
M  V30 2927 O 266.218 3.51163 2.16236 0
M  V30 2928 H 265.559 0.653516 0.117526 0
M  V30 2929 H 268.089 2.02818 -0.269421 0
M  V30 2930 H 268.099 3.84243 1.37191 0
M  V30 2931 H 266.774 4.15077 0.261572 0
M  V30 2932 H 265.351 3.23807 1.84942 0
M  V30 2933 N 267.536 -0.106894 1.57237 0
M  V30 2934 C 268.483 -1.13049 2.01217 0
M  V30 2935 C 269.453 -1.40471 0.886403 0
M  V30 2936 O 270.638 -1.52133 1.15153 0
M  V30 2937 C 267.778 -2.4487 2.43172 0
M  V30 2938 C 266.891 -2.24281 3.69218 0
M  V30 2939 C 266.026 -3.49417 4.00101 0
M  V30 2940 C 265.065 -3.24038 5.19294 0
M  V30 2941 N 264.202 -4.41409 5.45988 0
M  V30 2942 H 269.042 -0.748456 2.88448 0
M  V30 2943 H 266.579 -0.358054 1.42676 0
M  V30 2944 H 268.537 -3.21786 2.65537 0
M  V30 2945 H 267.167 -2.80944 1.58967 0
M  V30 2946 H 266.219 -1.38224 3.54398 0
M  V30 2947 H 267.531 -2.01512 4.56283 0
M  V30 2948 H 266.685 -4.34746 4.2318 0
M  V30 2949 H 265.424 -3.75229 3.11535 0
M  V30 2950 H 264.429 -2.37102 4.96047 0
M  V30 2951 H 265.654 -2.99584 6.09447 0
M  V30 2952 H 263.6 -4.67319 4.60379 0
M  V30 2953 H 263.517 -4.21788 6.274 0
M  V30 2954 H 264.785 -5.27836 5.73593 0
M  V30 2955 N 269.014 -1.53014 -0.377408 0
M  V30 2956 C 270.239 -1.72818 -1.14668 0
M  V30 2957 C 270.664 -0.450725 -1.8262 0
M  V30 2958 O 270.022 0.59439 -1.7128 0
M  V30 2959 C 270.07 -2.88627 -2.16164 0
M  V30 2960 O 269.174 -2.56409 -3.22998 0
M  V30 2961 H 268.515 -0.574301 -0.333278 0
M  V30 2962 H 271.045 -1.99853 -0.438152 0
M  V30 2963 H 271.055 -3.14455 -2.59966 0
M  V30 2964 H 269.73 -3.81294 -1.66095 0
M  V30 2965 H 268.307 -2.4136 -2.84253 0
M  V30 2966 N 270.492 0.636531 -1.44174 0
M  V30 2967 C 271.455 1.73063 -1.50273 0
M  V30 2968 C 272.455 1.56113 -0.385397 0
M  V30 2969 O 273.645 1.61707 -0.64781 0
M  V30 2970 C 270.777 3.12096 -1.37145 0
M  V30 2971 H 271.97 1.69031 -2.47727 0
M  V30 2972 H 269.523 0.849706 -1.31186 0
M  V30 2973 H 270.258 3.21728 -0.407636 0
M  V30 2974 H 270.043 3.25805 -2.18159 0
M  V30 2975 H 271.533 3.91846 -1.44382 0
M  V30 2976 N 271.97 1.30982 0.876444 0
M  V30 2977 C 273.381 1.18277 1.44456 0
M  V30 2978 C 273.732 -0.213265 1.95037 0
M  V30 2979 O 272.857 -1.11057 1.85729 0
M  V30 2980 C 273.452 2.1411 2.62569 0
M  V30 2981 C 272.011 2.05358 3.15444 0
M  V30 2982 C 271.158 2.03706 1.88146 0
M  V30 2983 H 274.109 1.43127 0.685584 0
M  V30 2984 H 274.13 1.72692 3.39054 0
M  V30 2985 H 273.642 3.15706 2.25724 0
M  V30 2986 H 271.743 1.06934 3.56926 0
M  V30 2987 H 271.856 2.94156 3.78166 0
M  V30 2988 H 270.22 1.48629 2.06837 0
M  V30 2989 H 271.003 3.07047 1.53547 0
M  V30 2990 N 273.449 -1.08991 1.13837 0
M  V30 2991 C 274.359 -2.19301 0.833333 0
M  V30 2992 C 275.375 -1.73026 -0.183847 0
M  V30 2993 O 276.551 -2.01395 -0.0138092 0
M  V30 2994 C 273.616 -3.45323 0.308651 0
M  V30 2995 C 272.677 -4.06255 1.38764 0
M  V30 2996 C 271.91 -5.26262 0.887896 0
M  V30 2997 O 272.133 -5.69747 -0.27287 0
M  V30 2998 O 271.067 -5.78435 1.66421 0
M  V30 2999 H 274.893 -2.47854 1.75506 0
M  V30 3000 H 272.478 -1.18012 0.916166 0
M  V30 3001 H 274.36 -4.21394 0.0216739 0
M  V30 3002 H 273.035 -3.18362 -0.585431 0
M  V30 3003 H 271.942 -3.318 1.72799 0
M  V30 3004 H 273.275 -4.37452 2.25602 0
M  V30 3005 N 274.927 -0.932562 -1.27047 0
M  V30 3006 C 276.175 -0.574422 -1.93765 0
M  V30 3007 C 276.496 0.887993 -1.73608 0
M  V30 3008 O 275.766 1.62999 -1.08665 0
M  V30 3009 H 274.346 -0.209451 -0.717035 0
M  V30 3010 H 277.008 -1.18601 -1.5466 0
M  V30 3011 H 276.104 -0.784841 -3.02071 0
M  V30 3012 N 276.405 1.4127 -0.698611 0
M  V30 3013 C 277.653 2.00782 -0.230409 0
M  V30 3014 C 277.974 1.5562 1.17505 0
M  V30 3015 O 277.244 0.78815 1.79346 0
M  V30 3016 H 275.824 0.742464 -0.0821944 0
M  V30 3017 H 278.486 1.72852 -0.90045 0
M  V30 3018 H 277.582 3.11095 -0.25021 0
M  V30 3019 N 277.883 0.443576 1.51229 0
M  V30 3020 C 279.111 -0.11929 2.06556 0
M  V30 3021 C 279.526 -1.35921 1.31038 0
M  V30 3022 O 278.883 -1.78675 0.371704 0
M  V30 3023 C 278.934 -0.435228 3.5887 0
M  V30 3024 O 278.655 0.755486 4.31537 0
M  V30 3025 C 280.156 -1.04808 4.30732 0
M  V30 3026 H 277.376 -0.0051584 0.67098 0
M  V30 3027 H 279.92 0.624453 1.94733 0
M  V30 3028 H 278.075 -1.12887 3.70588 0
M  V30 3029 H 278.489 0.483491 5.22267 0
M  V30 3030 H 279.963 -1.2191 5.3837 0
M  V30 3031 H 280.44 -2.03081 3.89429 0
M  V30 3032 H 281.046 -0.393637 4.23474 0
M  V30 3033 N 279.361 -1.56624 0.175154 0
M  V30 3034 C 280.61 -1.96173 -0.468921 0
M  V30 3035 C 280.923 -1.06401 -1.64128 0
M  V30 3036 O 282.129 -1.35648 -2.35185 0
M  V30 3037 C 280.585 -3.48833 -0.885633 0
M  V30 3038 C 280.193 -4.47237 0.261343 0
M  V30 3039 C 281.937 -3.97194 -1.49791 0
M  V30 3040 C 279.844 -5.9114 -0.175214 0
M  V30 3041 H 278.774 -0.732455 -0.178958 0
M  V30 3042 H 281.425 -1.81591 0.263997 0
M  V30 3043 H 279.807 -3.58848 -1.67464 0
M  V30 3044 H 280.981 -4.4894 1.03871 0
M  V30 3045 H 279.296 -4.08956 0.783827 0
M  V30 3046 H 281.893 -5.02167 -1.83665 0
M  V30 3047 H 282.236 -3.40351 -2.39722 0
M  V30 3048 H 282.769 -3.90212 -0.773267 0
M  V30 3049 H 279.508 -6.51865 0.689414 0
M  V30 3050 H 279.028 -5.92735 -0.91786 0
M  V30 3051 H 280.707 -6.44044 -0.617792 0
M  V30 3052 N 280.839 0.0985539 -1.57292 0
M  V30 3053 C 282.088 0.801358 -1.85098 0
M  V30 3054 C 282.401 1.80066 -0.763902 0
M  V30 3055 O 283.607 2.55112 -0.928981 0
M  V30 3056 C 282.063 1.47599 -3.28242 0
M  V30 3057 C 281.671 0.516624 -4.45011 0
M  V30 3058 C 283.415 2.16272 -3.65276 0
M  V30 3059 C 281.322 1.19564 -5.79188 0
M  V30 3060 H 280.252 0.303022 -0.69043 0
M  V30 3061 H 282.903 0.0542623 -1.8342 0
M  V30 3062 H 281.285 2.27042 -3.2445 0
M  V30 3063 H 282.459 -0.246065 -4.60143 0
M  V30 3064 H 280.774 -0.064227 -4.1635 0
M  V30 3065 H 283.371 2.67802 -4.62803 0
M  V30 3066 H 283.714 2.95009 -2.93727 0
M  V30 3067 H 284.247 1.43693 -3.70941 0
M  V30 3068 H 280.986 0.449157 -6.53959 0
M  V30 3069 H 280.506 1.92984 -5.67906 0
M  V30 3070 H 282.185 1.7231 -6.23633 0
M  V30 3071 N 282.317 1.53212 0.369288 0
M  V30 3072 C 283.547 1.72868 1.13139 0
M  V30 3073 C 283.955 0.455754 1.83629 0
M  V30 3074 O 283.298 -0.580861 1.74275 0
M  V30 3075 C 283.36 2.83667 2.20847 0
M  V30 3076 C 283.024 4.24142 1.70155 0
M  V30 3077 C 284.021 5.06619 1.16763 0
M  V30 3078 C 281.706 4.70539 1.7578 0
M  V30 3079 C 283.7 6.33581 0.696678 0
M  V30 3080 C 281.387 5.97481 1.28297 0
M  V30 3081 C 282.385 6.78833 0.753307 0
M  V30 3082 O 282.073 8.03393 0.285475 0
M  V30 3083 H 281.805 0.581707 0.344373 0
M  V30 3084 H 284.359 2.00736 0.435243 0
M  V30 3085 H 282.589 2.51265 2.93944 0
M  V30 3086 H 284.278 2.91536 2.82421 0
M  V30 3087 H 285.044 4.71948 1.11758 0
M  V30 3088 H 280.923 4.07293 2.15949 0
M  V30 3089 H 284.467 6.97027 0.282581 0
M  V30 3090 H 280.364 6.31651 1.32994 0
M  V30 3091 H 281.132 8.17497 0.405145 0
M  V30 3092 N 283.795 -0.628877 1.44509 0
M  V30 3093 C 284.728 -1.75367 1.46019 0
M  V30 3094 C 285.706 -1.59444 0.318787 0
M  V30 3095 O 286.89 -1.81297 0.516099 0
M  V30 3096 C 284.017 -3.12965 1.29501 0
M  V30 3097 C 283.063 -3.47532 2.47233 0
M  V30 3098 S 283.896 -3.44758 4.09758 0
M  V30 3099 C 285.052 -4.84973 3.95667 0
M  V30 3100 H 285.285 -1.7382 2.41193 0
M  V30 3101 H 282.818 -0.803686 1.31834 0
M  V30 3102 H 284.776 -3.92367 1.20658 0
M  V30 3103 H 283.437 -3.12049 0.358341 0
M  V30 3104 H 282.63 -4.47664 2.31544 0
M  V30 3105 H 282.232 -2.75598 2.52828 0
M  V30 3106 H 284.524 -5.74255 3.59496 0
M  V30 3107 H 285.467 -5.05716 4.95638 0
M  V30 3108 H 285.875 -4.59653 3.27688 0
M  V30 3109 N 285.273 -1.31445 -0.869486 0
M  V30 3110 C 286.684 -1.19042 -1.43826 0
M  V30 3111 C 287.035 0.202919 -1.95148 0
M  V30 3112 O 286.16 1.10071 -1.86315 0
M  V30 3113 C 286.755 -2.15499 -2.6143 0
M  V30 3114 C 285.314 -2.07028 -3.14351 0
M  V30 3115 C 284.461 -2.04701 -1.87063 0
M  V30 3116 H 287.412 -1.43489 -0.677984 0
M  V30 3117 H 287.433 -1.74488 -3.38134 0
M  V30 3118 H 286.945 -3.16899 -2.24046 0
M  V30 3119 H 285.046 -1.08825 -3.56354 0
M  V30 3120 H 285.159 -2.96157 -3.766 0
M  V30 3121 H 283.523 -1.49724 -2.06046 0
M  V30 3122 H 284.306 -3.07857 -1.51917 0
M  V30 3123 N 286.751 1.08385 -1.14413 0
M  V30 3124 C 288.162 1.62258 -0.923535 0
M  V30 3125 C 288.513 1.88691 0.537595 0
M  V30 3126 O 287.638 1.64454 1.40655 0
M  V30 3127 C 288.233 2.94781 -1.67002 0
M  V30 3128 C 286.792 3.45437 -1.495 0
M  V30 3129 C 285.939 2.19668 -1.69238 0
M  V30 3130 H 288.89 0.916086 -1.2959 0
M  V30 3131 H 288.911 3.63229 -1.13334 0
M  V30 3132 H 288.423 2.7551 -2.73342 0
M  V30 3133 H 286.524 3.6981 -0.455097 0
M  V30 3134 H 286.637 4.22173 -2.2651 0
M  V30 3135 H 285.001 2.28849 -1.11804 0
M  V30 3136 H 285.784 2.02905 -2.7692 0
M  V30 3137 N 288.23 0.939286 1.26551 0
M  V30 3138 C 289.14 0.453432 2.30176 0
M  V30 3139 C 290.156 -0.471649 1.67486 0
M  V30 3140 O 291.332 -0.35164 1.98306 0
M  V30 3141 C 288.397 -0.275326 3.45605 0
M  V30 3142 C 287.458 0.686084 4.23782 0
M  V30 3143 C 286.691 -0.00798994 5.33699 0
M  V30 3144 O 286.914 -1.22528 5.57085 0
M  V30 3145 O 285.848 0.669746 5.98162 0
M  V30 3146 H 289.674 1.31416 2.73795 0
M  V30 3147 H 287.259 0.705095 1.31715 0
M  V30 3148 H 289.141 -0.685911 4.1578 0
M  V30 3149 H 287.816 -1.11147 3.0402 0
M  V30 3150 H 286.723 1.14658 3.56096 0
M  V30 3151 H 288.056 1.48979 4.69112 0
M  V30 3152 N 289.708 -1.40897 0.706093 0
M  V30 3153 C 290.656 -2.32572 0.0361893 0
M  V30 3154 C 291.65 -1.51532 -0.757266 0
M  V30 3155 O 292.856 -1.67396 -0.661703 0
M  V30 3156 H 289.231 -0.751966 -0.00709935 0
M  V30 3157 H 291.202 -2.86733 0.826249 0
M  V30 3158 C 289.951 -3.36418 -0.87854 0
M  V30 3159 H 289.274 -3.98836 -0.277401 0
M  V30 3160 H 290.714 -4.0308 -1.3154 0
M  V30 3161 C 289.173 -2.71141 -1.99961 0
M  V30 3162 O 289.703 -2.56735 -3.0895 0
M  V30 3163 N 287.909 -2.29671 -1.78043 0
M  V30 3164 H 287.456 -2.41588 -0.894042 0
M  V30 3165 H 287.414 -1.86332 -2.53235 0
M  V30 3166 N 291.186 -0.45159 -1.50991 0
M  V30 3167 C 292.416 0.108177 -2.06317 0
M  V30 3168 C 292.824 1.35774 -1.31765 0
M  V30 3169 O 292.167 1.79838 -0.374694 0
M  V30 3170 C 292.229 0.481659 -3.56259 0
M  V30 3171 C 291.893 -0.663114 -4.52163 0
M  V30 3172 C 292.89 -1.53947 -4.96585 0
M  V30 3173 C 290.575 -0.8479 -4.95092 0
M  V30 3174 C 292.569 -2.58518 -5.82621 0
M  V30 3175 C 290.256 -1.89686 -5.80915 0
M  V30 3176 C 291.254 -2.76388 -6.24579 0
M  V30 3177 O 290.942 -3.79482 -7.08695 0
M  V30 3178 H 290.674 0.00499183 -0.675982 0
M  V30 3179 H 293.228 -0.633659 -1.95381 0
M  V30 3180 H 291.458 1.27641 -3.65027 0
M  V30 3181 H 293.147 0.974233 -3.94035 0
M  V30 3182 H 293.913 -1.4083 -4.64103 0
M  V30 3183 H 289.792 -0.18258 -4.60638 0
M  V30 3184 H 293.336 -3.26224 -6.16623 0
M  V30 3185 H 289.233 -2.02817 -6.12809 0
M  V30 3186 H 290.001 -3.76234 -7.26905 0
M  V30 3187 N 292.664 1.56529 -0.183458 0
M  V30 3188 C 293.574 2.22144 0.754272 0
M  V30 3189 C 294.59 1.21684 1.24374 0
M  V30 3190 O 295.766 1.54385 1.29333 0
M  V30 3191 C 292.831 2.85884 1.96141 0
M  V30 3192 C 291.892 4.01579 1.51765 0
M  V30 3193 C 291.125 4.6227 2.66725 0
M  V30 3194 O 291.348 4.21865 3.83909 0
M  V30 3195 O 290.282 5.51936 2.40104 0
M  V30 3196 H 294.108 3.02861 0.225527 0
M  V30 3197 H 291.693 1.49331 0.0453032 0
M  V30 3198 H 293.575 3.26253 2.66715 0
M  V30 3199 H 292.25 2.08154 2.47899 0
M  V30 3200 H 291.157 3.65856 0.781049 0
M  V30 3201 H 292.49 4.80938 1.04686 0
M  V30 3202 N 294.142 -0.090211 1.57342 0
M  V30 3203 C 295.553 -0.644173 1.75235 0
M  V30 3204 C 295.904 -1.78865 0.806335 0
M  V30 3205 O 295.029 -2.16395 -0.0140128 0
M  V30 3206 C 295.624 -1.17532 3.1776 0
M  V30 3207 C 294.183 -1.67531 3.37061 0
M  V30 3208 C 293.33 -0.58693 2.71017 0
M  V30 3209 H 296.281 0.135884 1.58117 0
M  V30 3210 H 296.302 -2.04455 3.20902 0
M  V30 3211 H 295.814 -0.342138 3.86589 0
M  V30 3212 H 293.915 -2.53234 2.73319 0
M  V30 3213 H 294.028 -1.76493 4.45406 0
M  V30 3214 H 292.392 -1.02756 2.33052 0
M  V30 3215 H 293.175 0.235758 3.4249 0
M  V30 3216 N 295.62 -1.53406 -0.361157 0
M  V30 3217 C 296.868 -1.69467 -1.10115 0
M  V30 3218 C 297.189 -0.451352 -1.89705 0
M  V30 3219 O 296.459 0.534636 -1.88463 0
M  V30 3220 H 295.039 -0.624749 -0.409508 0
M  V30 3221 H 297.701 -1.90609 -0.406699 0
M  V30 3222 H 296.797 -2.55774 -1.78847 0
M  V30 3223 N 297.098 0.621204 -1.44841 0
M  V30 3224 C 298.03 1.74615 -1.48466 0
M  V30 3225 C 299.043 1.58377 -0.37691 0
M  V30 3226 O 300.232 1.66508 -0.643215 0
M  V30 3227 C 297.332 3.12459 -1.31236 0
M  V30 3228 C 296.505 3.55064 -2.55438 0
M  V30 3229 C 295.564 4.71821 -2.32963 0
M  V30 3230 O 294.59 4.79628 -3.06505 0
M  V30 3231 N 295.792 5.64186 -1.36654 0
M  V30 3232 H 298.557 1.71973 -2.45449 0
M  V30 3233 H 296.118 0.806077 -1.40407 0
M  V30 3234 H 298.11 3.88302 -1.14032 0
M  V30 3235 H 296.68 3.09686 -0.4258 0
M  V30 3236 H 295.9 2.69324 -2.87851 0
M  V30 3237 H 297.188 3.80284 -3.38026 0
M  V30 3238 H 296.586 5.6058 -0.759344 0
M  V30 3239 H 295.143 6.39618 -1.25425 0
M  V30 3240 N 298.576 1.31904 0.862503 0
M  V30 3241 C 299.523 1.20182 1.9704 0
M  V30 3242 C 300.493 0.0858247 1.65878 0
M  V30 3243 O 301.678 0.26 1.8902 0
M  V30 3244 C 298.818 0.922797 3.32533 0
M  V30 3245 C 297.931 2.12284 3.76244 0
M  V30 3246 C 297.066 1.77996 5.00491 0
M  V30 3247 C 296.105 2.94366 5.36671 0
M  V30 3248 N 295.242 2.60223 6.52095 0
M  V30 3249 H 300.082 2.14951 2.06398 0
M  V30 3250 H 297.619 1.06917 1.01031 0
M  V30 3251 H 299.577 0.741548 4.10557 0
M  V30 3252 H 298.207 0.0119227 3.22798 0
M  V30 3253 H 297.259 2.41461 2.9394 0
M  V30 3254 H 298.571 2.99357 3.98982 0
M  V30 3255 H 297.725 1.56377 5.862 0
M  V30 3256 H 296.464 0.881252 4.79672 0
M  V30 3257 H 295.469 3.16625 4.49476 0
M  V30 3258 H 296.694 3.84957 5.59451 0
M  V30 3259 H 294.64 1.72884 6.32809 0
M  V30 3260 H 294.557 3.40827 6.74814 0
M  V30 3261 H 295.825 2.42016 7.40978 0
M  V30 3262 N 300.054 -1.07777 1.14986 0
M  V30 3263 C 301.279 -1.84558 0.946213 0
M  V30 3264 C 301.704 -1.81323 -0.500362 0
M  V30 3265 O 301.062 -1.20301 -1.35637 0
M  V30 3266 C 301.11 -3.29736 1.45968 0
M  V30 3267 O 300.214 -4.07149 0.65601 0
M  V30 3268 H 299.555 -0.571641 0.33782 0
M  V30 3269 H 302.085 -1.35991 1.52865 0
M  V30 3270 H 302.095 -3.80574 1.47063 0
M  V30 3271 H 300.77 -3.31406 2.51283 0
M  V30 3272 H 299.347 -3.65994 0.714322 0
M  V30 3273 N 301.532 -0.945985 -1.26051 0
M  V30 3274 C 302.948 -0.649045 -1.45807 0
M  V30 3275 C 303.148 0.796158 -1.85104 0
M  V30 3276 O 302.204 1.57233 -1.97571 0
M  V30 3277 C 303.517 -1.61458 -2.53677 0
M  V30 3278 C 305.065 -1.62481 -2.67524 0
M  V30 3279 C 305.54 -2.57776 -3.7857 0
M  V30 3280 N 307.031 -2.5609 -3.85969 0
M  V30 3281 C 307.766 -3.26508 -4.7136 0
M  V30 3282 N 307.262 -4.0637 -5.61102 0
M  V30 3283 N 309.055 -3.15437 -4.65248 0
M  V30 3284 H 301.206 -1.88005 -0.988328 0
M  V30 3285 H 303.469 -0.808198 -0.4955 0
M  V30 3286 H 303.175 -2.64644 -2.31638 0
M  V30 3287 H 303.049 -1.37036 -3.51427 0
M  V30 3288 H 305.436 -0.600167 -2.88933 0
M  V30 3289 H 305.517 -1.90958 -1.70202 0
M  V30 3290 H 305.161 -3.60361 -3.57913 0
M  V30 3291 H 305.091 -2.26587 -4.75359 0
M  V30 3292 H 307.582 -1.98105 -3.21812 0
M  V30 3293 H 307.895 -4.57042 -6.23164 0
M  V30 3294 H 306.24 -4.10469 -5.60839 0
M  V30 3295 H 309.431 -2.52525 -3.94143 0
M  V30 3296 H 309.604 -3.70584 -5.31575 0
M  V30 3297 N 303.011 1.40521 -0.713556 0
M  V30 3298 C 303.974 2.29098 -0.0684347 0
M  V30 3299 C 304.974 1.45268 0.689472 0
M  V30 3300 O 306.164 1.66205 0.521677 0
M  V30 3301 C 303.296 3.28446 0.913024 0
M  V30 3302 H 304.489 2.87645 -0.84855 0
M  V30 3303 H 302.042 1.48809 -0.47809 0
M  V30 3304 H 302.777 2.74913 1.72027 0
M  V30 3305 H 302.562 3.90327 0.372472 0
M  V30 3306 H 304.052 3.94777 1.36165 0
M  V30 3307 N 304.489 0.459591 1.5075 0
M  V30 3308 C 305.714 -0.0996819 2.0716 0
M  V30 3309 C 306.139 -1.33761 1.32249 0
M  V30 3310 O 305.497 -1.77551 0.366786 0
M  V30 3311 C 305.545 -0.378226 3.58611 0
M  V30 3312 O 304.649 -1.46081 3.85661 0
M  V30 3313 H 303.99 0.00791392 0.663953 0
M  V30 3314 H 306.52 0.647329 1.9409 0
M  V30 3315 H 306.53 -0.622135 4.03229 0
M  V30 3316 H 305.205 0.526439 4.12555 0
M  V30 3317 H 303.782 -1.20511 3.5289 0
M  V30 3318 N 305.967 -1.56429 0.191757 0
M  V30 3319 C 307.216 -1.9666 -0.448088 0
M  V30 3320 C 307.529 -1.08136 -1.62991 0
M  V30 3321 O 308.735 -1.38135 -2.33733 0
M  V30 3322 C 307.191 -3.49753 -0.848585 0
M  V30 3323 C 306.799 -4.46935 0.308764 0
M  V30 3324 C 308.543 -3.9876 -1.4557 0
M  V30 3325 C 306.45 -5.91293 -0.112506 0
M  V30 3326 H 305.38 -0.734312 -0.171179 0
M  V30 3327 H 308.031 -1.81301 0.283242 0
M  V30 3328 H 306.413 -3.60604 -1.63649 0
M  V30 3329 H 307.587 -4.47813 1.08627 0
M  V30 3330 H 305.902 -4.08102 0.827158 0
M  V30 3331 H 308.499 -5.04086 -1.78328 0
M  V30 3332 H 308.842 -3.42875 -2.36099 0
M  V30 3333 H 309.375 -3.9101 -0.731836 0
M  V30 3334 H 306.114 -6.51097 0.758514 0
M  V30 3335 H 305.634 -5.93676 -0.854941 0
M  V30 3336 H 307.313 -6.44663 -0.549448 0
M  V30 3337 N 307.445 0.0818655 -1.57387 0
M  V30 3338 C 308.392 1.09834 -2.0299 0
M  V30 3339 C 309.362 1.39043 -0.908639 0
M  V30 3340 O 310.547 1.50282 -1.17559 0
M  V30 3341 C 307.687 2.40971 -2.47037 0
M  V30 3342 C 306.8 2.18379 -3.7274 0
M  V30 3343 C 305.935 3.43008 -4.0561 0
M  V30 3344 C 304.974 3.15736 -5.24383 0
M  V30 3345 N 304.111 4.32667 -5.52941 0
M  V30 3346 H 308.951 0.702472 -2.89602 0
M  V30 3347 H 306.488 0.33531 -1.43227 0
M  V30 3348 H 308.446 3.1752 -2.70623 0
M  V30 3349 H 307.076 2.78379 -1.63417 0
M  V30 3350 H 306.128 1.32569 -3.56552 0
M  V30 3351 H 307.44 1.94227 -4.59431 0
M  V30 3352 H 306.594 4.27958 -4.30043 0
M  V30 3353 H 305.333 3.70225 -3.17466 0
M  V30 3354 H 304.338 2.2918 -4.99757 0
M  V30 3355 H 305.563 2.8985 -6.14136 0
M  V30 3356 H 303.509 4.59935 -4.67756 0
M  V30 3357 H 303.426 4.11753 -6.34031 0
M  V30 3358 H 304.694 5.18644 -5.81918 0
M  V30 3359 N 308.923 1.53595 0.353017 0
M  V30 3360 C 309.873 1.77299 1.43349 0
M  V30 3361 C 310.857 0.627884 1.48143 0
M  V30 3362 O 312.049 0.88697 1.53173 0
M  V30 3363 C 309.178 1.97757 2.80619 0
M  V30 3364 C 308.264 3.18305 2.80254 0
M  V30 3365 N 308.655 4.39967 2.49526 0
M  V30 3366 C 306.953 3.19283 3.11407 0
M  V30 3367 C 307.654 5.21772 2.57156 0
M  V30 3368 N 306.63 4.58269 2.92388 0
M  V30 3369 H 310.432 2.68963 1.18474 0
M  V30 3370 H 307.946 1.52391 0.561306 0
M  V30 3371 H 309.943 2.1287 3.58458 0
M  V30 3372 H 308.603 1.07329 3.06448 0
M  V30 3373 H 309.614 4.67482 2.22893 0
M  V30 3374 H 306.291 2.3879 3.4247 0
M  V30 3375 H 307.681 6.2885 2.36638 0
M  V30 3376 N 310.401 -0.613514 1.45168 0
M  V30 3377 C 311.678 -1.37263 1.39349 0
M  V30 3378 C 312.058 -2.11012 0.0610848 0
M  V30 3379 O 311.406 -2.07502 -0.956825 0
M  V30 3380 C 311.616 -2.3244 2.60332 0
M  V30 3381 C 312.964 -2.9523 3.05163 0
M  V30 3382 O 313.988 -2.42762 2.60663 0
M  V30 3383 O 312.847 -3.90454 3.82372 0
M  V30 3384 H 309.941 -0.615188 0.552696 0
M  V30 3385 H 312.487 -0.637097 1.57287 0
M  V30 3386 H 311.259 -1.77164 3.48896 0
M  V30 3387 H 310.882 -3.13383 2.44698 0
M  V30 3388 N 311.879 -1.3236 -0.855495 0
M  V30 3389 C 313.128 -1.22226 -1.60448 0
M  V30 3390 C 313.441 0.214733 -1.94418 0
M  V30 3391 O 314.647 0.437917 -2.67945 0
M  V30 3392 C 313.103 -2.14063 -2.89318 0
M  V30 3393 C 312.711 -3.62839 -2.62777 0
M  V30 3394 C 314.455 -2.12764 -3.67331 0
M  V30 3395 C 312.362 -4.4664 -3.87643 0
M  V30 3396 H 311.292 -0.453904 -0.602069 0
M  V30 3397 H 313.943 -1.57314 -0.944698 0
M  V30 3398 H 312.325 -1.71889 -3.5675 0
M  V30 3399 H 313.499 -4.1335 -2.03662 0
M  V30 3400 H 311.814 -3.66261 -1.98096 0
M  V30 3401 H 314.411 -2.72611 -4.59987 0
M  V30 3402 H 314.754 -1.11841 -4.00995 0
M  V30 3403 H 315.287 -2.53214 -3.06802 0
M  V30 3404 H 312.026 -5.48373 -3.5912 0
M  V30 3405 H 311.546 -4.0088 -4.46156 0
M  V30 3406 H 313.225 -4.59597 -4.55389 0
M  V30 3407 N 313.357 1.07166 -1.15556 0
M  V30 3408 C 314.587 1.83248 -0.954133 0
M  V30 3409 C 314.995 1.82449 0.500911 0
M  V30 3410 O 314.338 1.23575 1.35923 0
M  V30 3411 C 314.4 3.31393 -1.39351 0
M  V30 3412 C 314.064 3.5591 -2.86666 0
M  V30 3413 C 315.061 3.49695 -3.8472 0
M  V30 3414 C 312.746 3.83515 -3.24379 0
M  V30 3415 C 314.74 3.70737 -5.18491 0
M  V30 3416 C 312.427 4.04209 -4.58321 0
M  V30 3417 C 313.425 3.97815 -5.55186 0
M  V30 3418 O 313.113 4.17954 -6.86709 0
M  V30 3419 H 312.845 0.584941 -0.338851 0
M  V30 3420 H 315.399 1.36169 -1.53777 0
M  V30 3421 H 313.629 3.79292 -0.75329 0
M  V30 3422 H 315.318 3.88945 -1.16089 0
M  V30 3423 H 316.084 3.28368 -3.56931 0
M  V30 3424 H 311.963 3.87605 -2.49567 0
M  V30 3425 H 315.507 3.65663 -5.94085 0
M  V30 3426 H 311.404 4.25023 -4.85825 0
M  V30 3427 H 312.172 4.35291 -6.93155 0
M  V30 3428 N 314.835 0.952656 1.25548 0
M  V30 3429 C 316.06 0.623025 1.97821 0
M  V30 3430 C 316.485 -0.7976 1.70352 0
M  V30 3431 O 315.843 -1.53905 0.958283 0
M  V30 3432 C 315.891 0.885532 3.49558 0
M  V30 3433 O 314.995 -0.0366641 4.12384 0
M  V30 3434 H 314.336 0.237082 0.620232 0
M  V30 3435 H 316.866 1.27871 1.59719 0
M  V30 3436 H 316.876 0.811009 3.99858 0
M  V30 3437 H 315.551 1.92094 3.6888 0
M  V30 3438 H 314.128 0.0898954 3.72792 0
M  V30 3439 N 316.313 -1.40141 0.720998 0
M  V30 3440 C 317.543 -2.04798 0.27226 0
M  V30 3441 C 317.951 -1.54442 -1.09289 0
M  V30 3442 O 317.294 -0.698342 -1.69908 0
M  V30 3443 C 317.356 -3.59048 0.18027 0
M  V30 3444 C 317.02 -4.32317 1.48159 0
M  V30 3445 C 318.017 -4.59902 2.42458 0
M  V30 3446 C 315.702 -4.71125 1.74202 0
M  V30 3447 C 317.696 -5.25288 3.61042 0
M  V30 3448 C 315.383 -5.36242 2.93066 0
M  V30 3449 C 316.381 -5.63254 3.86308 0
M  V30 3450 O 316.069 -6.27024 5.03086 0
M  V30 3451 H 315.801 -0.665419 0.119139 0
M  V30 3452 H 318.355 -1.80436 0.981432 0
M  V30 3453 H 316.585 -3.82251 -0.58489 0
M  V30 3454 H 318.274 -4.05221 -0.234618 0
M  V30 3455 H 319.04 -4.30379 2.23604 0
M  V30 3456 H 314.919 -4.49466 1.02477 0
M  V30 3457 H 318.463 -5.46289 4.33837 0
M  V30 3458 H 314.36 -5.65185 3.11826 0
M  V30 3459 H 315.128 -6.4552 5.03235 0
M  V30 3460 N 317.792 -0.46758 -1.50504 0
M  V30 3461 C 318.755 0.317059 -2.26996 0
M  V30 3462 C 319.755 0.923513 -1.31635 0
M  V30 3463 O 320.945 0.793239 -1.55091 0
M  V30 3464 C 318.077 1.45134 -3.08462 0
M  V30 3465 H 319.27 -0.353723 -2.97807 0
M  V30 3466 H 316.823 -0.221545 -1.54722 0
M  V30 3467 H 317.558 2.15728 -2.4214 0
M  V30 3468 H 317.343 1.02232 -3.78538 0
M  V30 3469 H 318.833 2.00493 -3.66323 0
M  V30 3470 N 319.27 1.56325 -0.20005 0
M  V30 3471 C 320.516 1.98012 0.438059 0
M  V30 3472 C 320.849 1.08702 1.60927 0
M  V30 3473 O 320.124 0.140064 1.93995 0
M  V30 3474 C 320.407 3.48841 0.893419 0
M  V30 3475 C 320.26 4.48928 -0.279947 0
M  V30 3476 C 321.579 4.03498 1.75719 0
M  V30 3477 H 318.698 0.719918 0.157757 0
M  V30 3478 H 321.34 1.87743 -0.291968 0
M  V30 3479 H 319.49 3.57723 1.51547 0
M  V30 3480 H 321.162 4.52079 -0.91772 0
M  V30 3481 H 319.405 4.23694 -0.930919 0
M  V30 3482 H 320.076 5.5194 0.0812601 0
M  V30 3483 H 322.552 3.97427 1.23253 0
M  V30 3484 H 321.428 5.09393 2.04476 0
M  V30 3485 H 321.689 3.4906 2.71311 0
M  V30 3486 N 320.748 -0.0735177 1.57428 0
M  V30 3487 C 321.997 -0.771809 1.86349 0
M  V30 3488 C 322.31 -1.78828 0.792452 0
M  V30 3489 O 323.516 -2.53602 0.96945 0
M  V30 3490 C 321.972 -1.42358 3.30548 0
M  V30 3491 C 321.58 -0.445761 4.45777 0
M  V30 3492 C 323.324 -2.10434 3.6867 0
M  V30 3493 C 321.231 -1.10335 5.81016 0
M  V30 3494 H 320.161 -0.291999 0.695164 0
M  V30 3495 H 322.812 -0.0250749 1.83483 0
M  V30 3496 H 321.194 -2.21852 3.28021 0
M  V30 3497 H 322.368 0.319239 4.59693 0
M  V30 3498 H 320.683 0.130457 4.16196 0
M  V30 3499 H 323.28 -2.60405 4.67004 0
M  V30 3500 H 323.623 -2.90298 2.98383 0
M  V30 3501 H 324.156 -1.37773 3.7318 0
M  V30 3502 H 320.895 -0.345061 6.54591 0
M  V30 3503 H 320.415 -1.83925 5.70904 0
M  V30 3504 H 322.094 -1.62367 6.26295 0
M  V30 3505 N 322.226 -1.5378 -0.344866 0
M  V30 3506 C 323.454 -1.74899 -1.10534 0
M  V30 3507 C 323.869 -0.487534 -1.82397 0
M  V30 3508 O 323.226 0.540741 -1.74305 0
M  V30 3509 C 323.277 -2.92822 -2.11984 0
M  V30 3510 O 322.998 -4.14089 -1.43044 0
M  V30 3511 C 324.499 -3.25982 -3.00417 0
M  V30 3512 H 321.719 -0.584426 -0.329678 0
M  V30 3513 H 324.263 -2.006 -0.397474 0
M  V30 3514 H 322.418 -2.69457 -2.78338 0
M  V30 3515 H 322.832 -4.80272 -2.10805 0
M  V30 3516 H 324.306 -4.11848 -3.67539 0
M  V30 3517 H 324.783 -2.42228 -3.66363 0
M  V30 3518 H 325.389 -3.51349 -2.39654 0
M  V30 3519 N 323.704 0.605807 -1.45491 0
M  V30 3520 C 324.95 1.36481 -1.50813 0
M  V30 3521 C 325.305 1.91826 -0.148469 0
M  V30 3522 O 324.598 1.72211 0.839869 0
M  V30 3523 C 324.792 2.53012 -2.52428 0
M  V30 3524 C 324.621 2.09078 -3.98141 0
M  V30 3525 C 323.391 1.95167 -4.66088 0
M  V30 3526 C 325.589 1.66438 -4.86624 0
M  V30 3527 N 323.571 1.45062 -5.96515 0
M  V30 3528 C 324.942 1.27761 -6.06694 0
M  V30 3529 C 326.997 1.54046 -4.7347 0
M  V30 3530 C 325.7 0.779286 -7.15066 0
M  V30 3531 C 327.726 1.05618 -5.81892 0
M  V30 3532 C 327.088 0.67906 -7.01119 0
M  V30 3533 H 323.187 0.493267 -0.606805 0
M  V30 3534 H 325.771 0.692347 -1.81974 0
M  V30 3535 H 323.942 3.17851 -2.23215 0
M  V30 3536 H 325.674 3.19897 -2.47887 0
M  V30 3537 H 322.429 2.16407 -4.21266 0
M  V30 3538 H 322.853 1.22237 -6.65873 0
M  V30 3539 H 327.495 1.81827 -3.81705 0
M  V30 3540 H 325.213 0.489026 -8.06619 0
M  V30 3541 H 328.799 0.964529 -5.73749 0
M  V30 3542 H 327.679 0.310091 -7.83587 0
M  V30 3543 N 325.182 1.32811 0.848464 0
M  V30 3544 C 326.092 1.24278 1.98978 0
M  V30 3545 C 327.108 0.155176 1.73307 0
M  V30 3546 O 328.284 0.376999 1.9784 0
M  V30 3547 C 325.349 0.972444 3.32783 0
M  V30 3548 C 324.41 2.14911 3.71634 0
M  V30 3549 C 323.643 1.89157 4.99054 0
M  V30 3550 O 323.866 0.837165 5.64223 0
M  V30 3551 O 322.8 2.75433 5.35183 0
M  V30 3552 H 326.626 2.20238 2.09115 0
M  V30 3553 H 324.211 1.12762 0.980052 0
M  V30 3554 H 326.093 0.838432 4.12975 0
M  V30 3555 H 324.768 0.043051 3.23671 0
M  V30 3556 H 323.675 2.33862 2.91992 0
M  V30 3557 H 325.008 3.06151 3.85399 0
M  V30 3558 N 326.66 -1.06551 1.16123 0
M  V30 3559 C 327.906 -1.79567 0.94252 0
M  V30 3560 C 328.239 -1.86869 -0.528547 0
M  V30 3561 O 327.514 -1.35838 -1.39206 0
M  V30 3562 C 327.797 -3.24195 1.56747 0
M  V30 3563 C 327.65 -3.24989 3.10969 0
M  V30 3564 C 328.969 -4.21678 1.25998 0
M  V30 3565 H 326.088 -0.651883 0.343828 0
M  V30 3566 H 328.73 -1.2463 1.43413 0
M  V30 3567 H 326.88 -3.71107 1.14942 0
M  V30 3568 H 328.552 -2.86258 3.61737 0
M  V30 3569 H 326.795 -2.63716 3.44436 0
M  V30 3570 H 327.466 -4.27005 3.49815 0
M  V30 3571 H 329.942 -3.83196 1.62174 0
M  V30 3572 H 328.818 -5.21146 1.7233 0
M  V30 3573 H 329.079 -4.4174 0.178367 0
M  V30 3574 N 328.138 -0.959301 -1.25041 0
M  V30 3575 C 329.068 -0.501388 -2.28053 0
M  V30 3576 C 330.049 0.454673 -1.63911 0
M  V30 3577 O 331.234 0.352618 -1.90972 0
M  V30 3578 C 328.364 0.217224 -3.4662 0
M  V30 3579 C 327.318 -0.654034 -4.22973 0
M  V30 3580 C 326.644 0.195589 -5.34342 0
M  V30 3581 C 327.944 -1.93447 -4.85155 0
M  V30 3582 H 329.638 -1.36238 -2.66608 0
M  V30 3583 H 327.184 -0.656534 -1.28163 0
M  V30 3584 H 329.137 0.548732 -4.17812 0
M  V30 3585 H 327.861 1.1125 -3.07068 0
M  V30 3586 H 326.52 -0.968693 -3.5357 0
M  V30 3587 H 326.168 1.09076 -4.91031 0
M  V30 3588 H 325.868 -0.384091 -5.86343 0
M  V30 3589 H 327.392 0.521958 -6.08365 0
M  V30 3590 H 328.806 -1.66908 -5.48466 0
M  V30 3591 H 327.203 -2.46018 -5.47353 0
M  V30 3592 H 328.273 -2.63466 -4.07079 0
M  V30 3593 N 329.616 1.39756 -0.72842 0
M  V30 3594 C 330.841 2.05472 -0.282159 0
M  V30 3595 C 331.266 1.54549 1.07221 0
M  V30 3596 O 330.624 0.686372 1.67805 0
M  V30 3597 C 330.672 3.59462 -0.286264 0
M  V30 3598 O 329.776 4.05918 0.728298 0
M  V30 3599 H 329.117 0.651226 -0.129618 0
M  V30 3600 H 331.647 1.78915 -0.992499 0
M  V30 3601 H 331.657 4.07798 -0.128373 0
M  V30 3602 H 330.332 3.95889 -1.27456 0
M  V30 3603 H 328.909 3.69012 0.537081 0
M  V30 3604 N 331.094 0.475555 1.50254 0
M  V30 3605 C 332.51 0.12997 1.5907 0
M  V30 3606 C 332.71 -1.36385 1.48328 0
M  V30 3607 O 331.766 -2.13754 1.34407 0
M  V30 3608 C 333.079 0.684139 2.92814 0
M  V30 3609 C 334.627 0.647965 3.0622 0
M  V30 3610 C 335.102 1.17975 4.42545 0
M  V30 3611 N 336.593 1.13936 4.48969 0
M  V30 3612 C 337.328 1.52129 5.52851 0
M  V30 3613 N 336.824 1.97793 6.63965 0
M  V30 3614 N 338.617 1.43704 5.4342 0
M  V30 3615 H 330.768 1.44706 1.55479 0
M  V30 3616 H 333.031 0.598691 0.735033 0
M  V30 3617 H 332.737 1.73079 3.06164 0
M  V30 3618 H 332.611 0.130204 3.76975 0
M  V30 3619 H 334.998 -0.38979 2.92514 0
M  V30 3620 H 335.079 1.23876 2.23805 0
M  V30 3621 H 334.723 2.21616 4.57 0
M  V30 3622 H 334.653 0.565138 5.23559 0
M  V30 3623 H 337.144 0.804488 3.69238 0
M  V30 3624 H 337.457 2.25072 7.39299 0
M  V30 3625 H 335.802 2.01749 6.65073 0
M  V30 3626 H 338.993 1.07867 4.55502 0
M  V30 3627 H 339.166 1.73794 6.24259 0
M  V30 3628 N 332.573 -1.56217 0.208337 0
M  V30 3629 C 333.52 -2.19699 -0.707192 0
M  V30 3630 C 334.49 -1.14836 -1.20008 0
M  V30 3631 O 335.675 -1.4314 -1.26157 0
M  V30 3632 C 332.815 -2.87061 -1.91546 0
M  V30 3633 C 331.928 -4.06483 -1.46271 0
M  V30 3634 C 331.063 -4.61665 -2.62752 0
M  V30 3635 C 330.102 -5.73417 -2.14147 0
M  V30 3636 N 329.239 -6.22948 -3.23853 0
M  V30 3637 H 334.079 -2.97575 -0.159111 0
M  V30 3638 H 331.616 -1.46948 -0.0667874 0
M  V30 3639 H 333.574 -3.24294 -2.62468 0
M  V30 3640 H 332.204 -2.11725 -2.43664 0
M  V30 3641 H 331.256 -3.74825 -0.648886 0
M  V30 3642 H 332.568 -4.87271 -1.06622 0
M  V30 3643 H 331.722 -5.01272 -3.41776 0
M  V30 3644 H 330.461 -3.80013 -3.05682 0
M  V30 3645 H 329.466 -5.33326 -1.33581 0
M  V30 3646 H 330.691 -6.56897 -1.72232 0
M  V30 3647 H 328.637 -5.44213 -3.6629 0
M  V30 3648 H 328.554 -6.98823 -2.88414 0
M  V30 3649 H 329.822 -6.6721 -4.03052 0
M  V30 3650 N 334.051 0.0651679 -1.57465 0
M  V30 3651 C 334.983 1.10359 -2.00882 0
M  V30 3652 C 335.996 1.346 -0.915788 0
M  V30 3653 O 337.185 1.32723 -1.1936 0
M  V30 3654 C 334.285 2.45312 -2.33828 0
M  V30 3655 C 333.458 2.40934 -3.65061 0
M  V30 3656 C 332.517 3.58047 -3.85602 0
M  V30 3657 O 331.543 3.39175 -4.57109 0
M  V30 3658 N 332.745 4.78637 -3.28462 0
M  V30 3659 H 335.51 0.733807 -2.90578 0
M  V30 3660 H 333.071 0.253719 -1.599 0
M  V30 3661 H 335.063 3.22314 -2.44737 0
M  V30 3662 H 333.633 2.74267 -1.49988 0
M  V30 3663 H 332.853 1.49273 -3.64844 0
M  V30 3664 H 334.141 2.35117 -4.51218 0
M  V30 3665 H 333.539 4.96872 -2.70433 0
M  V30 3666 H 332.096 5.53127 -3.44809 0
M  V30 3667 N 335.529 1.53961 0.336706 0
M  V30 3668 C 336.94 1.62914 0.911925 0
M  V30 3669 C 337.291 0.514795 1.89326 0
M  V30 3670 O 336.416 -0.354395 2.13478 0
M  V30 3671 C 337.011 2.95304 1.66076 0
M  V30 3672 C 335.57 3.06496 2.18489 0
M  V30 3673 C 334.717 2.58403 1.00613 0
M  V30 3674 H 337.668 1.58285 0.114649 0
M  V30 3675 H 337.689 2.84727 2.5241 0
M  V30 3676 H 337.201 3.76387 0.946276 0
M  V30 3677 H 335.302 2.3006 2.93092 0
M  V30 3678 H 335.415 4.1208 2.44391 0
M  V30 3679 H 333.779 2.13977 1.38152 0
M  V30 3680 H 334.562 3.41932 0.306179 0
M  V30 3681 N 337.007 -0.598083 1.45811 0
M  V30 3682 C 338.254 -1.35681 1.50323 0
M  V30 3683 C 338.582 -1.9393 0.148739 0
M  V30 3684 O 337.837 -1.76094 -0.853787 0
M  V30 3685 C 338.136 -2.51669 2.53766 0
M  V30 3686 C 337.802 -2.11508 3.98215 0
M  V30 3687 C 336.464 -2.0027 4.37545 0
M  V30 3688 C 338.816 -1.80308 4.89018 0
M  V30 3689 C 336.144 -1.56067 5.65562 0
M  V30 3690 C 338.496 -1.37589 6.17456 0
M  V30 3691 C 337.16 -1.24916 6.55708 0
M  V30 3692 H 336.43 -0.496492 0.550069 0
M  V30 3693 H 339.077 -0.675052 1.79207 0
M  V30 3694 H 337.382 -3.25225 2.18486 0
M  V30 3695 H 339.079 -3.09895 2.54492 0
M  V30 3696 H 335.669 -2.21185 3.67117 0
M  V30 3697 H 339.853 -1.87884 4.59362 0
M  V30 3698 H 335.109 -1.44886 5.93985 0
M  V30 3699 H 339.283 -1.12495 6.87254 0
M  V30 3700 H 336.91 -0.904386 7.54801 0
M  V30 3701 N 338.485 -1.33259 -0.841409 0
M  V30 3702 C 339.395 -1.25332 -1.98316 0
M  V30 3703 C 340.411 -0.164364 -1.73222 0
M  V30 3704 O 341.587 -0.387486 -1.97637 0
M  V30 3705 C 338.652 -0.990078 -3.32262 0
M  V30 3706 C 337.713 -2.16879 -3.70489 0
M  V30 3707 C 336.946 -1.91801 -4.98044 0
M  V30 3708 O 337.169 -0.867075 -5.63771 0
M  V30 3709 O 336.103 -2.78267 -5.33714 0
M  V30 3710 H 339.929 -2.21344 -2.07944 0
M  V30 3711 H 337.514 -1.1328 -0.974058 0
M  V30 3712 H 339.396 -0.860321 -4.12524 0
M  V30 3713 H 338.071 -0.0602155 -3.23644 0
M  V30 3714 H 336.978 -2.35407 -2.90748 0
M  V30 3715 H 338.311 -3.0819 -3.8377 0
M  V30 3716 N 339.963 1.05934 -1.16686 0
M  V30 3717 C 341.24 1.75643 -0.860747 0
M  V30 3718 C 341.62 2.01144 0.640641 0
M  V30 3719 O 340.968 1.64147 1.58959 0
M  V30 3720 C 341.178 3.05493 -1.68745 0
M  V30 3721 C 342.526 3.79581 -1.90271 0
M  V30 3722 O 343.55 3.15344 -1.65641 0
M  V30 3723 O 342.409 4.9499 -2.31618 0
M  V30 3724 H 339.503 0.763426 -0.317977 0
M  V30 3725 H 342.049 1.1217 -1.27342 0
M  V30 3726 H 340.821 2.8264 -2.70611 0
M  V30 3727 H 340.444 3.76702 -1.27206 0
M  V30 3728 N 341.441 0.965919 1.2453 0
M  V30 3729 C 342.687 0.62776 1.92839 0
M  V30 3730 C 343.02 -0.834694 1.75347 0
M  V30 3731 O 342.295 -1.60031 1.10546 0
M  V30 3732 C 342.578 1.00109 3.45905 0
M  V30 3733 C 342.431 2.52011 3.72573 0
M  V30 3734 C 343.75 0.53435 4.36844 0
M  V30 3735 H 340.869 0.229537 0.700344 0
M  V30 3736 H 343.511 1.2046 1.46933 0
M  V30 3737 H 341.661 0.510238 3.85135 0
M  V30 3738 H 343.333 3.08559 3.42912 0
M  V30 3739 H 341.576 2.95287 3.17786 0
M  V30 3740 H 342.247 2.73183 4.79661 0
M  V30 3741 H 344.723 0.955565 4.04979 0
M  V30 3742 H 343.599 0.824152 5.42678 0
M  V30 3743 H 343.86 -0.565589 4.38467 0
M  V30 3744 N 342.919 -1.39368 0.735821 0
M  V30 3745 C 344.147 -2.04795 0.294393 0
M  V30 3746 C 344.562 -1.55478 -1.07107 0
M  V30 3747 O 343.919 -0.720038 -1.67695 0
M  V30 3748 C 343.97 -3.6035 0.288071 0
M  V30 3749 O 343.691 -4.07852 1.59963 0
M  V30 3750 C 345.192 -4.42976 -0.169422 0
M  V30 3751 H 342.412 -0.658571 0.128551 0
M  V30 3752 H 344.956 -1.78399 0.999701 0
M  V30 3753 H 343.111 -3.85645 -0.368355 0
M  V30 3754 H 343.525 -5.02181 1.51375 0
M  V30 3755 H 344.999 -5.51864 -0.122687 0
M  V30 3756 H 345.476 -4.22068 -1.21472 0
M  V30 3757 H 346.082 -4.22832 0.457469 0
M  V30 3758 N 344.397 -0.483516 -1.5 0
M  V30 3759 C 345.345 0.318061 -2.30415 0
M  V30 3760 C 346.339 0.978988 -1.38247 0
M  V30 3761 O 347.545 0.908673 -1.55381 0
M  V30 3762 H 343.92 0.121419 -0.742133 0
M  V30 3763 H 345.891 -0.380403 -2.95965 0
M  V30 3764 C 344.64 1.38013 -3.19136 0
M  V30 3765 H 343.963 0.880952 -3.89973 0
M  V30 3766 H 345.403 1.91332 -3.78375 0
M  V30 3767 C 343.862 2.38884 -2.37563 0
M  V30 3768 O 344.392 3.44412 -2.06744 0
M  V30 3769 N 342.598 2.10912 -1.99911 0
M  V30 3770 H 342.145 1.25118 -2.25174 0
M  V30 3771 H 342.103 2.78635 -1.45636 0
M  V30 3772 N 345.875 1.56104 -0.216619 0
M  V30 3773 C 347.286 1.844 0.292128 0
M  V30 3774 C 347.637 1.13788 1.59833 0
M  V30 3775 O 346.762 0.405888 2.12559 0
M  V30 3776 C 347.357 3.3452 0.53681 0
M  V30 3777 C 345.916 3.63151 0.989876 0
M  V30 3778 C 345.063 2.77255 0.0502302 0
M  V30 3779 H 348.014 1.52481 -0.439926 0
M  V30 3780 H 348.035 3.54459 1.38345 0
M  V30 3781 H 347.547 3.85885 -0.414031 0
M  V30 3782 H 345.648 3.17238 1.95425 0
M  V30 3783 H 345.761 4.71177 0.867698 0
M  V30 3784 H 344.125 2.48555 0.556117 0
M  V30 3785 H 344.908 3.31416 -0.89544 0
M  V30 3786 N 347.353 -0.0568162 1.57498 0
M  V30 3787 C 348.283 -1.06593 2.0775 0
M  V30 3788 C 349.264 -1.39448 0.974082 0
M  V30 3789 O 350.449 -1.48815 1.24771 0
M  V30 3790 C 347.579 -2.37509 2.5339 0
M  V30 3791 C 346.533 -2.1897 3.67745 0
M  V30 3792 C 345.859 -3.55402 3.99492 0
M  V30 3793 C 347.159 -1.59859 4.97235 0
M  V30 3794 H 348.853 -0.647706 2.9231 0
M  V30 3795 H 346.399 -0.310116 1.40621 0
M  V30 3796 H 348.352 -3.08409 2.87162 0
M  V30 3797 H 347.076 -2.8134 1.65878 0
M  V30 3798 H 345.735 -1.50508 3.3428 0
M  V30 3799 H 345.383 -3.9683 3.09088 0
M  V30 3800 H 345.083 -3.43831 4.76502 0
M  V30 3801 H 346.607 -4.27708 4.35773 0
M  V30 3802 H 348.021 -2.20642 5.29141 0
M  V30 3803 H 346.418 -1.58942 5.78669 0
M  V30 3804 H 347.488 -0.561506 4.81638 0
M  V30 3805 N 348.832 -1.54138 -0.328536 0
M  V30 3806 C 349.764 -1.79509 -1.4251 0
M  V30 3807 C 350.777 -0.67688 -1.48061 0
M  V30 3808 O 351.966 -0.953898 -1.50874 0
M  V30 3809 C 349.066 -1.89337 -2.81078 0
M  V30 3810 C 348.239 -3.19443 -2.98789 0
M  V30 3811 C 347.298 -3.20036 -4.17688 0
M  V30 3812 O 346.324 -3.93697 -4.11086 0
M  V30 3813 N 347.526 -2.43467 -5.26976 0
M  V30 3814 H 350.291 -2.74139 -1.21111 0
M  V30 3815 H 347.852 -1.53373 -0.518499 0
M  V30 3816 H 349.844 -1.87167 -3.58818 0
M  V30 3817 H 348.414 -1.01826 -2.95551 0
M  V30 3818 H 347.634 -3.34614 -2.08391 0
M  V30 3819 H 348.922 -4.05354 -3.07515 0
M  V30 3820 H 348.32 -1.83201 -5.35214 0
M  V30 3821 H 346.877 -2.4708 -6.03154 0
M  V30 3822 N 350.31 0.590341 -1.46126 0
M  V30 3823 C 351.559 1.34499 -1.50309 0
M  V30 3824 C 351.872 1.94977 -0.156021 0
M  V30 3825 O 353.078 2.71395 -0.0756037 0
M  V30 3826 C 351.534 2.43723 -2.64815 0
M  V30 3827 C 351.142 1.89582 -4.0591 0
M  V30 3828 C 352.886 3.20579 -2.78262 0
M  V30 3829 C 350.793 2.9639 -5.11769 0
M  V30 3830 H 349.723 0.505593 -0.559368 0
M  V30 3831 H 352.374 0.630848 -1.72315 0
M  V30 3832 H 350.756 3.17902 -2.36124 0
M  V30 3833 H 351.93 1.21997 -4.44357 0
M  V30 3834 H 350.245 1.25418 -3.97063 0
M  V30 3835 H 352.842 4.00276 -3.54519 0
M  V30 3836 H 353.185 3.72684 -1.85505 0
M  V30 3837 H 353.718 2.53505 -3.06562 0
M  V30 3838 H 350.457 2.49181 -6.06291 0
M  V30 3839 H 349.977 3.62487 -4.77873 0
M  V30 3840 H 351.656 3.60474 -5.37278 0
M  V30 3841 N 351.788 1.33704 0.83433 0
M  V30 3842 C 352.721 1.18675 1.94914 0
M  V30 3843 C 353.699 0.0811145 1.62398 0
M  V30 3844 O 354.883 0.244186 1.86912 0
M  V30 3845 C 352.01 0.821231 3.28593 0
M  V30 3846 C 351.056 1.93501 3.80079 0
M  V30 3847 S 351.889 3.54671 4.01209 0
M  V30 3848 C 353.045 3.20136 5.37833 0
M  V30 3849 H 353.278 2.13043 2.07364 0
M  V30 3850 H 350.811 1.18598 0.988624 0
M  V30 3851 H 352.769 0.617123 4.05835 0
M  V30 3852 H 351.43 -0.103927 3.13928 0
M  V30 3853 H 350.623 1.63273 4.76821 0
M  V30 3854 H 350.225 2.09601 3.09747 0
M  V30 3855 H 352.517 2.71242 6.20833 0
M  V30 3856 H 353.46 4.15975 5.73036 0
M  V30 3857 H 353.868 2.56613 5.02802 0
M  V30 3858 N 353.266 -1.05314 1.17247 0
M  V30 3859 C 354.496 -1.81707 0.983166 0
M  V30 3860 C 354.904 -1.83222 -0.471822 0
M  V30 3861 O 354.247 -1.25721 -1.3394 0
M  V30 3862 C 354.309 -3.29134 1.44606 0
M  V30 3863 C 353.973 -3.51304 2.92292 0
M  V30 3864 C 354.97 -3.4353 3.90235 0
M  V30 3865 C 352.655 -3.78306 3.30439 0
M  V30 3866 C 354.649 -3.62442 5.24323 0
M  V30 3867 C 352.336 -3.96866 4.64694 0
M  V30 3868 C 353.334 -3.88933 5.61445 0
M  V30 3869 O 353.022 -4.06976 6.93272 0
M  V30 3870 H 352.754 -0.579476 0.348114 0
M  V30 3871 H 355.308 -1.33705 1.55924 0
M  V30 3872 H 353.538 -3.78046 0.813537 0
M  V30 3873 H 355.227 -3.87049 1.22262 0
M  V30 3874 H 355.993 -3.22648 3.62109 0
M  V30 3875 H 351.872 -3.83585 2.55702 0
M  V30 3876 H 355.416 -3.56165 5.99827 0
M  V30 3877 H 351.313 -4.1724 4.92525 0
M  V30 3878 H 352.081 -4.24209 6.99992 0
M  V30 3879 N 354.744 -0.972509 -1.24016 0
M  V30 3880 C 355.969 -0.654417 -1.96805 0
M  V30 3881 C 356.394 0.770398 -1.716 0
M  V30 3882 O 355.752 1.52361 -0.982647 0
M  V30 3883 C 355.8 -0.941031 -3.48105 0
M  V30 3884 O 354.904 -0.0289472 -4.1239 0
M  V30 3885 H 354.245 -0.24692 -0.616382 0
M  V30 3886 H 356.775 -1.30396 -1.57664 0
M  V30 3887 H 356.785 -0.87452 -3.98517 0
M  V30 3888 H 355.46 -1.97939 -3.65777 0
M  V30 3889 H 354.037 -0.149192 -3.72601 0
M  V30 3890 N 356.222 1.38976 -0.743202 0
M  V30 3891 C 357.468 2.0064 -0.295189 0
M  V30 3892 C 357.801 1.5885 1.11716 0
M  V30 3893 O 357.076 0.821181 1.76315 0
M  V30 3894 C 357.359 3.578 -0.406318 0
M  V30 3895 C 357.212 4.09586 -1.85903 0
M  V30 3896 C 358.531 4.39616 0.206439 0
M  V30 3897 H 355.65 0.728935 -0.108733 0
M  V30 3898 H 358.292 1.65067 -0.940897 0
M  V30 3899 H 356.442 3.88235 0.143419 0
M  V30 3900 H 358.114 3.89837 -2.46627 0
M  V30 3901 H 356.357 3.6284 -2.3776 0
M  V30 3902 H 357.028 5.18708 -1.888 0
M  V30 3903 H 359.504 4.15273 -0.262283 0
M  V30 3904 H 358.38 5.48812 0.0983819 0
M  V30 3905 H 358.641 4.22754 1.2935 0
M  V30 3906 N 357.7 0.491464 1.49741 0
M  V30 3907 C 358.925 -0.0557177 2.07325 0
M  V30 3908 C 359.35 -1.30925 1.35056 0
M  V30 3909 O 358.708 -1.76733 0.404365 0
M  V30 3910 C 358.756 -0.302074 3.59333 0
M  V30 3911 O 357.86 -1.37868 3.88672 0
M  V30 3912 H 357.201 0.0219956 0.663636 0
M  V30 3913 H 359.731 0.688352 1.92673 0
M  V30 3914 H 359.741 -0.536464 4.04458 0
M  V30 3915 H 358.416 0.61383 4.11345 0
M  V30 3916 H 356.993 -1.12999 3.55367 0
M  V30 3917 N 359.178 -1.55987 0.224894 0
M  V30 3918 C 360.11 -2.17722 -0.716224 0
M  V30 3919 C 361.123 -1.14723 -1.15509 0
M  V30 3920 O 362.312 -1.41688 -1.08567 0
M  V30 3921 C 359.412 -2.74873 -1.98238 0
M  V30 3922 C 358.585 -4.03074 -1.69853 0
M  V30 3923 C 357.644 -4.44757 -2.81208 0
M  V30 3924 O 356.67 -5.11587 -2.49534 0
M  V30 3925 N 357.872 -4.10716 -4.10235 0
M  V30 3926 H 360.637 -2.99109 -0.188123 0
M  V30 3927 H 358.198 -1.6184 0.0440123 0
M  V30 3928 H 360.19 -2.99727 -2.7193 0
M  V30 3929 H 358.76 -1.9777 -2.42086 0
M  V30 3930 H 357.98 -3.86041 -0.797875 0
M  V30 3931 H 359.268 -4.86701 -1.48324 0
M  V30 3932 H 358.666 -3.57019 -4.38809 0
M  V30 3933 H 357.223 -4.40455 -4.80461 0
M  V30 3934 N 360.656 0.0484629 -1.57525 0
M  V30 3935 C 361.904 0.741657 -1.88 0
M  V30 3936 C 362.225 1.76918 -0.820054 0
M  V30 3937 O 361.495 1.95335 0.148661 0
M  V30 3938 H 360.075 0.276908 -0.69378 0
M  V30 3939 H 362.737 0.019013 -1.94891 0
M  V30 3940 H 361.833 1.24336 -2.86264 0
M  V30 3941 N 362.134 1.5431 0.320358 0
M  V30 3942 C 363.084 1.803 1.39556 0
M  V30 3943 C 364.068 0.659166 1.46778 0
M  V30 3944 O 365.26 0.91926 1.51257 0
M  V30 3945 C 362.389 2.03665 2.76361 0
M  V30 3946 C 361.475 3.24178 2.73439 0
M  V30 3947 N 361.866 4.4516 2.40137 0
M  V30 3948 C 360.164 3.25816 3.04565 0
M  V30 3949 C 360.865 5.27109 2.4603 0
M  V30 3950 N 359.841 4.64368 2.82601 0
M  V30 3951 H 363.643 2.71416 1.12742 0
M  V30 3952 H 361.157 1.53548 0.528856 0
M  V30 3953 H 363.154 2.20425 3.53862 0
M  V30 3954 H 361.814 1.13805 3.04103 0
M  V30 3955 H 362.825 4.72104 2.12927 0
M  V30 3956 H 359.502 2.46001 3.37328 0
M  V30 3957 H 360.892 6.33728 2.23246 0
M  V30 3958 N 363.613 -0.582584 1.46437 0
M  V30 3959 C 365.029 -0.905962 1.31394 0
M  V30 3960 C 365.229 -1.99468 0.285476 0
M  V30 3961 O 364.285 -2.50566 -0.311914 0
M  V30 3962 C 365.598 -1.3232 2.70022 0
M  V30 3963 C 367.146 -1.43604 2.78113 0
M  V30 3964 C 367.621 -1.88694 4.17323 0
M  V30 3965 N 369.112 -1.95887 4.19741 0
M  V30 3966 C 369.847 -2.32051 5.24347 0
M  V30 3967 N 369.343 -2.67006 6.39281 0
M  V30 3968 N 371.136 -2.32606 5.11713 0
M  V30 3969 H 363.287 0.1366 2.1196 0
M  V30 3970 H 365.55 -0.00155736 0.947999 0
M  V30 3971 H 365.256 -0.597242 3.46592 0
M  V30 3972 H 365.13 -2.28469 3.00136 0
M  V30 3973 H 367.517 -2.15286 2.01832 0
M  V30 3974 H 367.598 -0.457059 2.51684 0
M  V30 3975 H 367.242 -1.1759 4.941 0
M  V30 3976 H 367.172 -2.8755 4.4116 0
M  V30 3977 H 369.663 -1.71362 3.36814 0
M  V30 3978 H 369.976 -2.93554 7.14875 0
M  V30 3979 H 368.321 -2.64644 6.42642 0
M  V30 3980 H 371.512 -2.04721 4.2096 0
M  V30 3981 H 371.685 -2.60462 5.93349 0
M  V30 3982 N 365.091 -1.34144 -0.827227 0
M  V30 3983 C 366.502 -1.23557 -1.39966 0
M  V30 3984 C 366.853 0.140731 -1.95695 0
M  V30 3985 O 365.978 1.04087 -1.89723 0
M  V30 3986 C 366.573 -2.23708 -2.54441 0
M  V30 3987 C 365.132 -2.16924 -3.07605 0
M  V30 3988 C 364.279 -2.10549 -1.80456 0
M  V30 3989 H 367.23 -1.45573 -0.631991 0
M  V30 3990 H 367.251 -1.85157 -3.32411 0
M  V30 3991 H 366.763 -3.23866 -2.13851 0
M  V30 3992 H 364.864 -1.20107 -3.52711 0
M  V30 3993 H 364.977 -3.07988 -3.66988 0
M  V30 3994 H 363.341 -1.56203 -2.01178 0
M  V30 3995 H 364.124 -3.12535 -1.42046 0
M  V30 3996 N 366.569 1.04691 -1.17803 0
M  V30 3997 C 367.815 1.78045 -0.970969 0
M  V30 3998 C 368.148 1.87686 0.498751 0
M  V30 3999 O 367.423 1.38035 1.37027 0
M  V30 4000 C 367.706 3.2166 -1.61884 0
M  V30 4001 C 367.559 3.20001 -3.161 0
M  V30 4002 C 368.878 4.1962 -1.3269 0
M  V30 4003 H 365.997 0.64633 -0.354155 0
M  V30 4004 H 368.639 1.22333 -1.45378 0
M  V30 4005 H 366.789 3.69232 -1.20831 0
M  V30 4006 H 368.461 2.80467 -3.66246 0
M  V30 4007 H 366.704 2.58203 -3.48588 0
M  V30 4008 H 367.375 4.21386 -3.56564 0
M  V30 4009 H 369.851 3.80567 -1.68249 0
M  V30 4010 H 368.727 5.18339 -1.80599 0
M  V30 4011 H 368.988 4.414 -0.248622 0
M  V30 4012 N 368.047 0.979072 1.23499 0
M  V30 4013 C 369.296 0.642751 1.91185 0
M  V30 4014 C 369.609 -0.827253 1.77245 0
M  V30 4015 O 370.815 -1.27458 2.39722 0
M  V30 4016 C 369.271 1.09901 3.42709 0
M  V30 4017 C 368.879 2.59327 3.65313 0
M  V30 4018 C 370.623 0.836371 4.16179 0
M  V30 4019 C 368.53 2.98627 5.10467 0
M  V30 4020 H 367.46 0.236698 0.715884 0
M  V30 4021 H 370.111 1.1868 1.39955 0
M  V30 4022 H 368.493 0.48319 3.93041 0
M  V30 4023 H 369.667 3.26136 3.25533 0
M  V30 4024 H 367.982 2.83323 3.05151 0
M  V30 4025 H 370.579 1.10586 5.23139 0
M  V30 4026 H 370.922 -0.227509 4.15678 0
M  V30 4027 H 371.455 1.41371 3.71832 0
M  V30 4028 H 368.194 4.04133 5.16098 0
M  V30 4029 H 367.714 2.3651 5.51201 0
M  V30 4030 H 369.393 2.89159 5.78788 0
M  V30 4031 N 369.525 -1.3858 0.750561 0
M  V30 4032 C 370.473 -2.32339 0.110162 0
M  V30 4033 C 371.467 -1.53864 -0.708674 0
M  V30 4034 O 372.673 -1.69417 -0.608112 0
M  V30 4035 H 369.048 -0.751812 0.0168275 0
M  V30 4036 H 371.019 -2.83959 0.917053 0
M  V30 4037 C 369.768 -3.39043 -0.771067 0
M  V30 4038 H 369.091 -3.99517 -0.150374 0
M  V30 4039 H 370.531 -4.07061 -1.1865 0
M  V30 4040 C 368.99 -2.77365 -1.91234 0
M  V30 4041 O 369.52 -2.66434 -3.00626 0
M  V30 4042 N 367.726 -2.35219 -1.70646 0
M  V30 4043 H 367.273 -2.4431 -0.81673 0
M  V30 4044 H 367.231 -1.94294 -2.47178 0
M  V30 4045 N 371.003 -0.499398 -1.49478 0
M  V30 4046 C 371.913 0.284489 -2.32869 0
M  V30 4047 C 372.929 0.968885 -1.44529 0
M  V30 4048 O 374.105 0.95062 -1.77553 0
M  V30 4049 C 371.17 1.33594 -3.19928 0
M  V30 4050 C 370.231 0.665149 -4.24116 0
M  V30 4051 C 369.464 1.6665 -5.07014 0
M  V30 4052 O 369.687 2.89618 -4.91404 0
M  V30 4053 O 368.621 1.22271 -5.8935 0
M  V30 4054 H 372.447 -0.39802 -3.01081 0
M  V30 4055 H 370.032 -0.260758 -1.47107 0
M  V30 4056 H 371.914 1.94431 -3.73864 0
M  V30 4057 H 370.589 2.0014 -2.54412 0
M  V30 4058 H 369.496 0.0170769 -3.74096 0
M  V30 4059 H 370.829 0.0421555 -4.92182 0
M  V30 4060 N 372.481 1.55866 -0.233164 0
M  V30 4061 C 373.391 2.24431 0.683217 0
M  V30 4062 C 374.407 1.2558 1.2044 0
M  V30 4063 O 375.583 1.58422 1.24356 0
M  V30 4064 C 372.648 2.91979 1.86947 0
M  V30 4065 C 371.709 4.06204 1.38912 0
M  V30 4066 C 370.942 4.70522 2.51883 0
M  V30 4067 O 371.165 4.33865 3.70293 0
M  V30 4068 O 370.099 5.59296 2.22423 0
M  V30 4069 H 373.925 3.03426 0.129059 0
M  V30 4070 H 371.51 1.494 -0.0022283 0
M  V30 4071 H 373.392 3.34573 2.56201 0
M  V30 4072 H 372.067 2.15935 2.41151 0
M  V30 4073 H 370.974 3.68155 0.664259 0
M  V30 4074 H 372.307 4.84025 0.893328 0
M  V30 4075 N 373.959 -0.0401083 1.57549 0
M  V30 4076 C 375.184 -0.748931 1.93406 0
M  V30 4077 C 375.609 -1.68686 0.832274 0
M  V30 4078 O 374.967 -1.80047 -0.212818 0
M  V30 4079 C 375.015 -1.4916 3.28304 0
M  V30 4080 O 374.119 -2.6042 3.19774 0
M  V30 4081 H 373.46 -0.202212 0.63246 0
M  V30 4082 H 375.99 0.00112086 2.046 0
M  V30 4083 H 376 -1.86395 3.62934 0
M  V30 4084 H 374.675 -0.80364 4.08062 0
M  V30 4085 H 373.252 -2.25808 2.96758 0
M  V30 4086 N 375.437 -1.54477 -0.31217 0
M  V30 4087 C 376.367 -1.87652 -1.38957 0
M  V30 4088 C 377.348 -0.734358 -1.53431 0
M  V30 4089 O 378.533 -0.98911 -1.67123 0
M  V30 4090 C 375.663 -2.11396 -2.75552 0
M  V30 4091 C 374.617 -3.27243 -2.75855 0
M  V30 4092 C 373.943 -3.36382 -4.15633 0
M  V30 4093 C 375.243 -4.64622 -2.38587 0
M  V30 4094 H 376.937 -2.77887 -1.11442 0
M  V30 4095 H 374.483 -1.33707 -0.534655 0
M  V30 4096 H 376.436 -2.33189 -3.51 0
M  V30 4097 H 375.16 -1.17921 -3.04569 0
M  V30 4098 H 373.819 -3.05356 -2.02863 0
M  V30 4099 H 373.467 -2.40445 -4.41809 0
M  V30 4100 H 373.167 -4.14249 -4.1674 0
M  V30 4101 H 374.691 -3.60422 -4.92877 0
M  V30 4102 H 376.105 -4.86219 -3.03749 0
M  V30 4103 H 374.502 -5.45121 -2.50925 0
M  V30 4104 H 375.572 -4.66097 -1.33723 0
M  V30 4105 N 376.915 0.57481 -1.46744 0
M  V30 4106 C 378.326 1.15695 -1.46532 0
M  V30 4107 C 378.677 1.95068 -0.210425 0
M  V30 4108 O 377.802 2.05241 0.685944 0
M  V30 4109 C 378.397 2.1048 -2.65487 0
M  V30 4110 C 376.956 2.64002 -2.68291 0
M  V30 4111 C 376.103 1.40026 -2.39349 0
M  V30 4112 H 379.054 0.362325 -1.54509 0
M  V30 4113 H 379.075 2.94074 -2.41455 0
M  V30 4114 H 378.587 1.52683 -3.56805 0
M  V30 4115 H 376.688 3.25646 -1.81067 0
M  V30 4116 H 376.801 3.06197 -3.68483 0
M  V30 4117 H 375.165 1.70106 -1.89568 0
M  V30 4118 H 375.948 0.840485 -3.32852 0
M  V30 4119 N 378.394 1.34581 0.820102 0
M  V30 4120 C 379.624 1.29991 1.6058 0
M  V30 4121 C 380.032 -0.127588 1.88769 0
M  V30 4122 O 379.375 -1.08595 1.48165 0
M  V30 4123 C 379.437 2.02548 2.9701 0
M  V30 4124 C 379.101 3.51794 2.91701 0
M  V30 4125 C 380.098 4.46647 2.66087 0
M  V30 4126 C 377.783 3.94249 3.11245 0
M  V30 4127 C 379.777 5.81929 2.60071 0
M  V30 4128 C 377.464 5.2963 3.04853 0
M  V30 4129 C 378.462 6.23282 2.793 0
M  V30 4130 O 378.15 7.56181 2.72847 0
M  V30 4131 H 377.882 0.448539 0.505756 0
M  V30 4132 H 380.436 1.77811 1.02822 0
M  V30 4133 H 378.666 1.49345 3.56697 0
M  V30 4134 H 380.355 1.91211 3.58041 0
M  V30 4135 H 381.121 4.15168 2.5072 0
M  V30 4136 H 377 3.21749 3.30149 0
M  V30 4137 H 380.544 6.54999 2.40046 0
M  V30 4138 H 376.441 5.60727 3.19774 0
M  V30 4139 H 377.209 7.6595 2.88553 0
M  V30 4140 N 379.872 -1.04064 1.18357 0
M  V30 4141 C 381.149 -1.74252 0.888581 0
M  V30 4142 C 381.529 -2.02138 -0.60856 0
M  V30 4143 O 380.877 -1.66656 -1.56327 0
M  V30 4144 C 381.087 -3.0277 1.73584 0
M  V30 4145 C 382.435 -3.76506 1.96286 0
M  V30 4146 O 383.459 -3.12668 1.70637 0
M  V30 4147 O 382.318 -4.91243 2.39464 0
M  V30 4148 H 379.412 -0.758271 0.330082 0
M  V30 4149 H 381.958 -1.1013 1.2911 0
M  V30 4150 H 380.73 -2.78299 2.75073 0
M  V30 4151 H 380.353 -3.74631 1.33183 0
M  V30 4152 N 381.35 -0.985608 -1.22978 0
M  V30 4153 C 382.599 -0.652881 -1.90841 0
M  V30 4154 C 382.912 0.817842 -1.77681 0
M  V30 4155 O 384.118 1.26185 -2.40395 0
M  V30 4156 C 382.574 -1.11717 -3.42122 0
M  V30 4157 C 382.182 -2.6126 -3.63933 0
M  V30 4158 C 383.926 -0.85843 -4.1573 0
M  V30 4159 C 381.833 -3.0133 -5.08876 0
M  V30 4160 H 380.763 -0.240491 -0.714619 0
M  V30 4161 H 383.414 -1.1942 -1.39324 0
M  V30 4162 H 381.796 -0.504027 -3.92779 0
M  V30 4163 H 382.97 -3.27858 -3.23799 0
M  V30 4164 H 381.285 -2.84937 -3.03644 0
M  V30 4165 H 383.882 -1.13359 -5.22546 0
M  V30 4166 H 384.225 0.205461 -4.15793 0
M  V30 4167 H 384.758 -1.43341 -3.71077 0
M  V30 4168 H 381.497 -4.06864 -5.13947 0
M  V30 4169 H 381.017 -2.3943 -5.49939 0
M  V30 4170 H 382.696 -2.92224 -5.77247 0
M  V30 4171 N 382.828 1.3818 -0.7579 0
M  V30 4172 C 384.239 1.82726 -0.383134 0
M  V30 4173 C 384.59 1.63214 1.08884 0
M  V30 4174 O 383.715 1.13566 1.84205 0
M  V30 4175 C 384.31 3.31728 -0.688631 0
M  V30 4176 C 382.869 3.74606 -0.367091 0
M  V30 4177 C 382.016 2.60896 -0.939599 0
M  V30 4178 H 384.967 1.26847 -0.953699 0
M  V30 4179 H 384.988 3.80487 0.0316492 0
M  V30 4180 H 384.5 3.45898 -1.76001 0
M  V30 4181 H 382.601 3.66013 0.697532 0
M  V30 4182 H 382.714 4.71215 -0.865658 0
M  V30 4183 H 381.078 2.52075 -0.3647 0
M  V30 4184 H 381.861 2.77864 -2.0161 0
M  V30 4185 N 384.306 0.507319 1.49211 0
M  V30 4186 C 385.256 -0.287112 2.26185 0
M  V30 4187 C 386.24 -0.929983 1.31302 0
M  V30 4188 O 387.432 -0.836538 1.55984 0
M  V30 4189 C 384.561 -1.34718 3.15763 0
M  V30 4190 C 383.647 -0.710235 4.18111 0
M  V30 4191 N 384.038 0.190836 5.0544 0
M  V30 4192 C 382.336 -0.97009 4.35322 0
M  V30 4193 C 383.037 0.55606 5.79036 0
M  V30 4194 N 382.013 -0.0775232 5.43545 0
M  V30 4195 H 385.815 0.406445 2.91076 0
M  V30 4196 H 383.329 0.323814 1.59139 0
M  V30 4197 H 385.326 -1.92982 3.69545 0
M  V30 4198 H 383.986 -2.04235 2.52424 0
M  V30 4199 H 384.997 0.562047 5.14841 0
M  V30 4200 H 381.674 -1.65753 3.83187 0
M  V30 4201 H 383.064 1.2936 6.5933 0
M  V30 4202 N 385.784 -1.5574 0.241426 0
M  V30 4203 C 387.2 -1.59196 -0.113548 0
M  V30 4204 C 387.4 -1.25852 -1.57364 0
M  V30 4205 O 386.456 -1.00322 -2.31715 0
M  V30 4206 C 387.769 -2.99814 0.230695 0
M  V30 4207 C 389.317 -3.12513 0.174547 0
M  V30 4208 C 389.792 -4.55342 0.492744 0
M  V30 4209 N 391.283 -4.61076 0.443043 0
M  V30 4210 C 392.018 -5.6956 0.662484 0
M  V30 4211 N 391.514 -6.86328 0.944761 0
M  V30 4212 N 393.307 -5.58957 0.593564 0
M  V30 4213 H 385.458 -1.75685 1.19368 0
M  V30 4214 H 387.721 -0.81756 0.479896 0
M  V30 4215 H 387.427 -3.28932 1.24485 0
M  V30 4216 H 387.301 -3.74568 -0.444833 0
M  V30 4217 H 389.688 -2.83179 -0.830277 0
M  V30 4218 H 389.769 -2.40045 0.883845 0
M  V30 4219 H 389.413 -4.85396 1.4951 0
M  V30 4220 H 389.343 -5.26062 -0.23797 0
M  V30 4221 H 391.834 -3.77179 0.233374 0
M  V30 4222 H 392.147 -7.64935 1.09977 0
M  V30 4223 H 390.492 -6.88025 0.982175 0
M  V30 4224 H 393.683 -4.66611 0.373123 0
M  V30 4225 H 393.856 -6.43433 0.767981 0
M  V30 4226 N 387.262 0.0317525 -1.57568 0
M  V30 4227 C 388.225 1.01783 -2.0536 0
M  V30 4228 C 389.225 1.29203 -0.957253 0
M  V30 4229 O 390.415 1.24251 -1.22095 0
M  V30 4230 C 387.547 2.35137 -2.46827 0
M  V30 4231 H 388.74 0.605062 -2.93733 0
M  V30 4232 H 386.293 0.278514 -1.53799 0
M  V30 4233 H 387.028 2.81168 -1.61602 0
M  V30 4234 H 386.813 2.16566 -3.26866 0
M  V30 4235 H 388.303 3.05938 -2.84239 0
M  V30 4236 N 388.74 1.54641 0.303973 0
M  V30 4237 C 390.156 1.45788 0.649463 0
M  V30 4238 C 390.356 0.64666 1.90842 0
M  V30 4239 O 389.412 0.153183 2.52035 0
M  V30 4240 C 390.725 2.89718 0.805227 0
M  V30 4241 C 392.273 2.99742 0.901305 0
M  V30 4242 C 392.748 4.44863 1.08909 0
M  V30 4243 N 394.239 4.48559 1.15536 0
M  V30 4244 C 394.974 5.58026 1.3189 0
M  V30 4245 N 394.47 6.77422 1.45161 0
M  V30 4246 N 396.263 5.45708 1.34755 0
M  V30 4247 H 388.414 2.05854 -0.523237 0
M  V30 4248 H 390.677 0.932186 -0.172431 0
M  V30 4249 H 390.383 3.51666 -0.0489108 0
M  V30 4250 H 390.257 3.36964 1.69513 0
M  V30 4251 H 392.644 2.3791 1.74593 0
M  V30 4252 H 392.725 2.55797 -0.0125531 0
M  V30 4253 H 392.369 5.07288 0.249241 0
M  V30 4254 H 392.299 4.86436 2.01713 0
M  V30 4255 H 394.79 3.6254 1.06646 0
M  V30 4256 H 395.103 7.56604 1.57387 0
M  V30 4257 H 393.448 6.80292 1.42223 0
M  V30 4258 H 396.639 4.51378 1.23996 0
M  V30 4259 H 396.812 6.3107 1.47157 0
M  V30 4260 N 390.218 -0.567019 1.47046 0
M  V30 4261 C 391.151 -1.69016 1.53326 0
M  V30 4262 C 392.129 -1.57949 0.386126 0
M  V30 4263 O 393.313 -1.78945 0.592529 0
M  V30 4264 C 390.44 -3.07191 1.42658 0
M  V30 4265 C 389.486 -3.36733 2.6175 0
M  V30 4266 S 390.319 -3.27069 4.24012 0
M  V30 4267 C 391.475 -4.67755 4.1588 0
M  V30 4268 H 391.708 -1.63434 2.48348 0
M  V30 4269 H 389.241 -0.747048 1.35124 0
M  V30 4270 H 391.199 -3.86897 1.37191 0
M  V30 4271 H 389.86 -3.10249 0.490369 0
M  V30 4272 H 389.053 -4.37441 2.50323 0
M  V30 4273 H 388.655 -2.64627 2.64289 0
M  V30 4274 H 390.947 -5.58491 3.83529 0
M  V30 4275 H 391.89 -4.84239 5.16641 0
M  V30 4276 H 392.298 -4.45341 3.46889 0
M  V30 4277 N 391.696 -1.35014 -0.812953 0
M  V30 4278 C 392.945 -1.27269 -1.56479 0
M  V30 4279 C 393.258 0.152771 -1.95002 0
M  V30 4280 O 394.464 0.352451 -2.69203 0
M  V30 4281 C 392.92 -2.23159 -2.82362 0
M  V30 4282 C 392.528 -3.71016 -2.511 0
M  V30 4283 C 394.272 -2.24342 -3.60376 0
M  V30 4284 C 392.179 -4.58746 -3.73237 0
M  V30 4285 H 391.109 -0.472829 -0.587324 0
M  V30 4286 H 393.76 -1.6024 -0.894171 0
M  V30 4287 H 392.142 -1.83151 -3.51101 0
M  V30 4288 H 393.316 -4.1962 -1.90409 0
M  V30 4289 H 391.631 -3.72378 -1.86343 0
M  V30 4290 H 394.228 -2.87107 -4.51081 0
M  V30 4291 H 394.571 -1.24542 -3.97234 0
M  V30 4292 H 395.104 -2.62846 -2.98591 0
M  V30 4293 H 391.843 -5.59521 -3.41492 0
M  V30 4294 H 391.363 -4.14871 -4.33176 0
M  V30 4295 H 393.042 -4.73852 -4.40537 0
M  V30 4296 N 393.175 1.03435 -1.18907 0
M  V30 4297 C 394.4 1.80919 -1.01406 0
M  V30 4298 C 394.825 1.83055 0.432721 0
M  V30 4299 O 394.183 1.25252 1.31079 0
M  V30 4300 C 394.231 3.24091 -1.58105 0
M  V30 4301 O 393.335 4.04434 -0.806669 0
M  V30 4302 H 392.676 0.558709 -0.358803 0
M  V30 4303 H 395.206 1.30223 -1.57807 0
M  V30 4304 H 395.216 3.74853 -1.61087 0
M  V30 4305 H 393.891 3.21851 -2.6341 0
M  V30 4306 H 392.468 3.63091 -0.849666 0
M  V30 4307 N 394.653 0.992116 1.22453 0
M  V30 4308 C 395.583 0.561677 2.26644 0
M  V30 4309 C 396.564 -0.411055 1.65059 0
M  V30 4310 O 397.749 -0.301861 1.9184 0
M  V30 4311 C 394.879 -0.125247 3.47074 0
M  V30 4312 C 393.833 0.765948 4.21091 0
M  V30 4313 C 393.159 -0.0538484 5.34673 0
M  V30 4314 C 394.459 2.06242 4.79856 0
M  V30 4315 H 396.153 1.43259 2.62902 0
M  V30 4316 H 393.699 0.690283 1.26377 0
M  V30 4317 H 395.652 -0.437764 4.1912 0
M  V30 4318 H 394.376 -1.03069 3.0991 0
M  V30 4319 H 393.035 1.0621 3.50878 0
M  V30 4320 H 392.683 -0.960188 4.9375 0
M  V30 4321 H 392.383 0.539415 5.85119 0
M  V30 4322 H 393.907 -0.360477 6.09535 0
M  V30 4323 H 395.321 1.8139 5.43848 0
M  V30 4324 H 393.718 2.60444 5.40638 0
M  V30 4325 H 394.788 2.74167 3.99951 0
M  V30 4326 N 396.131 -1.37776 0.765217 0
M  V30 4327 C 397.38 -1.99092 0.323307 0
M  V30 4328 C 397.693 -1.61434 -1.10446 0
M  V30 4329 O 398.899 -2.15805 -1.64743 0
M  V30 4330 C 397.355 -3.56019 0.527098 0
M  V30 4331 C 396.963 -4.0262 1.96471 0
M  V30 4332 C 398.707 -4.2424 0.148483 0
M  V30 4333 C 396.614 -5.52233 2.11644 0
M  V30 4334 H 395.544 -0.744846 0.117137 0
M  V30 4335 H 398.195 -1.57391 0.943417 0
M  V30 4336 H 396.577 -3.95667 -0.162372 0
M  V30 4337 H 397.751 -3.74234 2.68859 0
M  V30 4338 H 396.066 -3.47161 2.29931 0
M  V30 4339 H 398.663 -5.34159 0.240456 0
M  V30 4340 H 399.006 -4.06446 -0.900422 0
M  V30 4341 H 399.539 -3.89872 0.79025 0
M  V30 4342 H 396.278 -5.74945 3.1483 0
M  V30 4343 H 395.798 -5.82324 1.4373 0
M  V30 4344 H 397.477 -6.18106 1.91193 0
M  V30 4345 N 397.609 -0.515225 -1.4894 0
M  V30 4346 C 398.519 0.259774 -2.33157 0
M  V30 4347 C 399.535 0.953501 -1.45548 0
M  V30 4348 O 400.711 0.931735 -1.78552 0
M  V30 4349 C 397.776 1.30193 -3.21326 0
M  V30 4350 C 396.837 0.620129 -4.24797 0
M  V30 4351 C 396.07 1.61263 -5.08753 0
M  V30 4352 O 396.293 2.84389 -4.94448 0
M  V30 4353 O 395.227 1.16013 -5.90614 0
M  V30 4354 H 399.053 -0.429932 -3.00641 0
M  V30 4355 H 396.638 -0.276346 -1.46822 0
M  V30 4356 H 398.52 1.90455 -3.75905 0
M  V30 4357 H 397.195 1.97431 -2.56521 0
M  V30 4358 H 396.102 -0.0226019 -3.74093 0
M  V30 4359 H 397.435 -0.0100493 -4.92199 0
M  V30 4360 N 399.087 1.5561 -0.249682 0
M  V30 4361 C 400.312 2.03865 0.381305 0
M  V30 4362 C 400.737 1.12769 1.50548 0
M  V30 4363 O 400.095 0.121189 1.80895 0
M  V30 4364 C 400.143 3.50101 0.863816 0
M  V30 4365 O 399.247 3.62132 1.97318 0
M  V30 4366 H 398.588 0.658827 0.0827194 0
M  V30 4367 H 401.118 2.01105 -0.376552 0
M  V30 4368 H 401.128 3.90975 1.1663 0
M  V30 4369 H 399.803 4.1588 0.0411816 0
M  V30 4370 H 398.38 3.33155 1.67517 0
M  V30 4371 N 400.565 -0.0233959 1.57583 0
M  V30 4372 C 401.813 -0.711654 1.89156 0
M  V30 4373 C 402.134 -1.75591 0.848096 0
M  V30 4374 O 401.404 -1.95547 -0.117566 0
M  V30 4375 H 399.984 -0.265835 0.698098 0
M  V30 4376 H 402.646 0.0119948 1.94896 0
M  V30 4377 H 401.742 -1.19766 2.88206 0
M  V30 4378 N 402.043 -1.548 -0.295768 0
M  V30 4379 C 403.289 -1.75517 -1.02789 0
M  V30 4380 C 403.644 -0.537266 -1.84746 0
M  V30 4381 O 402.937 0.470299 -1.85738 0
M  V30 4382 C 403.131 -2.98797 -1.961 0
M  V30 4383 C 402.96 -4.3246 -1.23321 0
M  V30 4384 C 401.73 -4.96131 -0.95822 0
M  V30 4385 C 403.928 -5.10365 -0.635024 0
M  V30 4386 N 401.91 -6.1357 -0.201257 0
M  V30 4387 C 403.281 -6.19999 -0.0110937 0
M  V30 4388 C 405.336 -4.94957 -0.540594 0
M  V30 4389 C 404.039 -7.15904 0.698136 0
M  V30 4390 C 406.065 -5.91197 0.154992 0
M  V30 4391 C 405.427 -7.00203 0.767752 0
M  V30 4392 H 401.526 -0.694786 -0.358882 0
M  V30 4393 H 404.11 -1.92281 -0.305943 0
M  V30 4394 H 402.281 -2.83448 -2.6554 0
M  V30 4395 H 404.013 -3.08017 -2.62502 0
M  V30 4396 H 400.768 -4.56595 -1.25771 0
M  V30 4397 H 401.192 -6.76802 0.16389 0
M  V30 4398 H 405.834 -4.10803 -1.00003 0
M  V30 4399 H 403.552 -7.99595 1.16933 0
M  V30 4400 H 407.138 -5.81353 0.228069 0
M  V30 4401 H 406.018 -7.73393 1.29743 0
M  V30 4402 N 403.521 0.559213 -1.47345 0
M  V30 4403 C 404.484 1.64854 -1.59235 0
M  V30 4404 C 405.484 1.53851 -0.467607 0
M  V30 4405 O 406.674 1.58045 -0.732617 0
M  V30 4406 C 403.806 3.04388 -1.53496 0
M  V30 4407 H 404.999 1.55662 -2.56339 0
M  V30 4408 H 402.552 0.778973 -1.35505 0
M  V30 4409 H 403.287 3.19115 -0.577604 0
M  V30 4410 H 403.072 3.13783 -2.35123 0
M  V30 4411 H 404.562 3.83642 -1.6495 0
M  V30 4412 N 404.999 1.35443 0.805782 0
M  V30 4413 C 405.931 1.24285 1.92577 0
M  V30 4414 C 406.944 0.165962 1.61952 0
M  V30 4415 O 408.133 0.419303 1.73505 0
M  V30 4416 C 405.233 0.891272 3.2697 0
M  V30 4417 C 404.406 2.06669 3.85495 0
M  V30 4418 C 403.465 1.69077 4.98297 0
M  V30 4419 O 402.491 2.4096 5.15681 0
M  V30 4420 N 403.693 0.614869 5.77234 0
M  V30 4421 H 406.458 2.20777 2.02676 0
M  V30 4422 H 404.019 1.28623 0.983243 0
M  V30 4423 H 406.011 0.621256 3.99903 0
M  V30 4424 H 404.581 0.016004 3.12596 0
M  V30 4425 H 403.801 2.50046 3.04747 0
M  V30 4426 H 405.089 2.85237 4.21328 0
M  V30 4427 H 404.487 0.017648 5.65697 0
M  V30 4428 H 403.044 0.404636 6.50543 0
M  V30 4429 N 406.477 -1.02803 1.19454 0
M  V30 4430 C 407.425 -2.13213 0.929673 0
M  V30 4431 C 408.419 -1.69011 -0.114806 0
M  V30 4432 O 409.625 -1.79967 0.0345147 0
M  V30 4433 H 406 -0.69662 0.28324 0
M  V30 4434 H 407.971 -2.32744 1.86743 0
M  V30 4435 C 406.72 -3.4429 0.485797 0
M  V30 4436 H 406.043 -3.7872 1.28105 0
M  V30 4437 H 407.483 -4.22638 0.339582 0
M  V30 4438 C 405.942 -3.27258 -0.800244 0
M  V30 4439 O 406.472 -3.55967 -1.86146 0
M  V30 4440 N 404.678 -2.80545 -0.75781 0
M  V30 4441 H 404.225 -2.57382 0.106039 0
M  V30 4442 H 404.183 -2.6953 -1.61867 0
M  V30 4443 N 407.956 -0.998596 -1.21925 0
M  V30 4444 C 409.367 -0.711939 -1.72593 0
M  V30 4445 C 409.718 0.770842 -1.80423 0
M  V30 4446 O 408.843 1.60237 -1.4544 0
M  V30 4447 C 409.438 -1.28567 -3.13458 0
M  V30 4448 C 407.997 -1.04828 -3.61508 0
M  V30 4449 C 407.144 -1.4024 -2.39224 0
M  V30 4450 H 410.095 -1.17027 -1.07193 0
M  V30 4451 H 410.116 -0.667098 -3.74607 0
M  V30 4452 H 409.628 -2.36486 -3.07727 0
M  V30 4453 H 407.729 0.0140383 -3.72597 0
M  V30 4454 H 407.842 -1.71566 -4.47328 0
M  V30 4455 H 406.206 -0.821077 -2.41103 0
M  V30 4456 H 406.989 -2.49176 -2.36149 0
M  V30 4457 N 409.434 1.37368 -0.772513 0
M  V30 4458 C 410.711 1.93839 -0.26188 0
M  V30 4459 C 411.091 1.7061 1.24319 0
M  V30 4460 O 410.439 1.05534 2.02669 0
M  V30 4461 C 410.649 3.43154 -0.636102 0
M  V30 4462 C 411.997 4.20249 -0.606324 0
M  V30 4463 O 413.021 3.5152 -0.575538 0
M  V30 4464 O 411.88 5.42809 -0.634086 0
M  V30 4465 H 408.974 0.82478 -0.0605555 0
M  V30 4466 H 411.52 1.4665 -0.853917 0
M  V30 4467 H 410.292 3.53647 -1.6748 0
M  V30 4468 H 409.915 3.97596 -0.0170516 0
M  V30 4469 N 410.912 0.523116 1.48665 0
M  V30 4470 C 411.822 -0.247406 2.33292 0
M  V30 4471 C 412.838 -0.945769 1.46052 0
M  V30 4472 O 414.014 -0.922253 1.79043 0
M  V30 4473 C 411.079 -1.28487 3.22012 0
M  V30 4474 C 410.14 -0.597592 4.2512 0
M  V30 4475 C 409.373 -1.58563 5.09601 0
M  V30 4476 O 409.596 -2.81763 4.95949 0
M  V30 4477 O 408.53 -1.12879 5.91221 0
M  V30 4478 H 412.356 0.445869 3.00409 0
M  V30 4479 H 409.941 0.284128 1.46673 0
M  V30 4480 H 411.823 -1.88459 3.7691 0
M  V30 4481 H 410.498 -1.96068 2.57564 0
M  V30 4482 H 409.405 0.0424407 3.74076 0
M  V30 4483 H 410.738 0.0361517 4.92187 0
M  V30 4484 N 412.39 -1.55475 0.257931 0
M  V30 4485 C 413.806 -1.59307 -0.0966563 0
M  V30 4486 C 414.006 -1.27514 -1.5602 0
M  V30 4487 O 413.062 -1.02774 -2.30637 0
M  V30 4488 C 414.375 -2.99552 0.262481 0
M  V30 4489 C 415.923 -3.1231 0.207683 0
M  V30 4490 C 416.398 -4.54793 0.541012 0
M  V30 4491 N 417.889 -4.6058 0.491921 0
M  V30 4492 C 418.624 -5.68825 0.722857 0
M  V30 4493 N 418.12 -6.85287 1.0175 0
M  V30 4494 N 419.913 -5.58296 0.652815 0
M  V30 4495 H 412.064 -1.74409 1.21224 0
M  V30 4496 H 414.327 -0.812424 0.48854 0
M  V30 4497 H 414.033 -3.27593 1.27967 0
M  V30 4498 H 413.907 -3.75019 -0.40508 0
M  V30 4499 H 416.294 -2.84044 -0.800195 0
M  V30 4500 H 416.375 -2.39095 0.909255 0
M  V30 4501 H 416.019 -4.83783 1.5465 0
M  V30 4502 H 415.949 -5.26285 -0.18216 0
M  V30 4503 H 418.44 -3.7691 0.273366 0
M  V30 4504 H 418.753 -7.63725 1.18084 0
M  V30 4505 H 417.098 -6.86945 1.05509 0
M  V30 4506 H 420.289 -4.66189 0.422592 0
M  V30 4507 H 420.462 -6.42582 0.836182 0
M  V30 4508 N 413.868 0.0150385 -1.57593 0
M  V30 4509 C 415.279 0.559832 -1.78109 0
M  V30 4510 C 415.63 1.74814 -0.890756 0
M  V30 4511 O 414.755 2.16216 -0.0892482 0
M  V30 4512 C 415.35 1.02238 -3.23006 0
M  V30 4513 C 413.909 1.51258 -3.44671 0
M  V30 4514 C 413.056 0.456955 -2.73509 0
M  V30 4515 H 416.007 -0.211169 -1.57289 0
M  V30 4516 H 416.028 1.88912 -3.30292 0
M  V30 4517 H 415.54 0.157302 -3.87781 0
M  V30 4518 H 413.641 2.39905 -2.8509 0
M  V30 4519 H 413.754 1.55042 -4.5332 0
M  V30 4520 H 412.118 0.915196 -2.37689 0
M  V30 4521 H 412.901 -0.398896 -3.40975 0
M  V30 4522 N 415.346 1.54954 0.287554 0
M  V30 4523 C 416.571 1.79209 1.04397 0
M  V30 4524 C 416.996 0.556431 1.79682 0
M  V30 4525 O 416.354 -0.493518 1.74454 0
M  V30 4526 C 416.402 3.00739 1.98969 0
M  V30 4527 O 415.506 2.74805 3.075 0
M  V30 4528 H 414.847 0.592755 0.299227 0
M  V30 4529 H 417.377 2.02068 0.320886 0
M  V30 4530 H 417.387 3.29077 2.4119 0
M  V30 4531 H 416.062 3.90329 1.43582 0
M  V30 4532 H 414.639 2.57523 2.69697 0
M  V30 4533 N 416.824 -0.551391 1.4764 0
M  V30 4534 C 418.071 -1.3083 1.54563 0
M  V30 4535 C 418.399 -1.93359 0.210361 0
M  V30 4536 O 417.654 -1.78721 -0.797332 0
M  V30 4537 C 417.953 -2.43469 2.61644 0
M  V30 4538 C 417.619 -1.98732 4.04742 0
M  V30 4539 C 416.281 -1.86248 4.43695 0
M  V30 4540 C 418.633 -1.64659 4.94507 0
M  V30 4541 C 415.961 -1.37995 5.70241 0
M  V30 4542 C 418.313 -1.17875 6.21521 0
M  V30 4543 C 416.977 -1.03992 6.5935 0
M  V30 4544 H 416.247 -0.478741 0.565587 0
M  V30 4545 H 418.894 -0.617697 1.81264 0
M  V30 4546 H 417.199 -3.18109 2.28722 0
M  V30 4547 H 418.896 -3.01642 2.64222 0
M  V30 4548 H 415.486 -2.09393 3.73968 0
M  V30 4549 H 419.67 -1.73174 4.65107 0
M  V30 4550 H 414.926 -1.25915 5.98294 0
M  V30 4551 H 419.1 -0.905739 6.90485 0
M  V30 4552 H 416.727 -0.663794 7.57296 0
M  V30 4553 N 418.302 -1.35869 -0.798587 0
M  V30 4554 C 419.232 -1.32118 -1.92528 0
M  V30 4555 C 420.213 -0.194209 -1.68988 0
M  V30 4556 O 421.398 -0.390426 -1.90235 0
M  V30 4557 C 418.528 -1.10047 -3.29404 0
M  V30 4558 C 417.482 -2.19471 -3.67446 0
M  V30 4559 C 416.808 -1.82555 -5.02571 0
M  V30 4560 C 418.108 -3.61495 -3.76987 0
M  V30 4561 H 419.802 -2.26394 -1.95924 0
M  V30 4562 H 417.348 -1.08981 -0.94123 0
M  V30 4563 H 419.301 -1.06061 -4.07835 0
M  V30 4564 H 418.025 -0.122195 -3.26371 0
M  V30 4565 H 416.684 -2.22568 -2.91306 0
M  V30 4566 H 416.332 -0.833249 -4.9605 0
M  V30 4567 H 416.032 -2.5581 -5.28995 0
M  V30 4568 H 417.556 -1.80108 -5.83432 0
M  V30 4569 H 418.97 -3.60676 -4.4563 0
M  V30 4570 H 417.367 -4.33577 -4.14887 0
M  V30 4571 H 418.437 -3.97065 -2.78329 0
M  V30 4572 N 419.78 1.02168 -1.19998 0
M  V30 4573 C 420.727 2.10601 -0.944228 0
M  V30 4574 C 421.697 1.65639 0.123664 0
M  V30 4575 O 422.882 1.9079 -0.0199941 0
M  V30 4576 C 420.022 3.41504 -0.496865 0
M  V30 4577 C 419.135 3.99973 -1.63234 0
M  V30 4578 C 418.27 5.18915 -1.13579 0
M  V30 4579 C 417.309 5.69456 -2.24468 0
M  V30 4580 N 416.446 6.79665 -1.76068 0
M  V30 4581 H 421.286 2.31814 -1.8726 0
M  V30 4582 H 418.823 1.13686 -0.933483 0
M  V30 4583 H 420.781 4.16626 -0.218843 0
M  V30 4584 H 419.411 3.2038 0.394508 0
M  V30 4585 H 418.463 3.21997 -2.0254 0
M  V30 4586 H 419.775 4.33492 -2.46752 0
M  V30 4587 H 418.929 6.01222 -0.813429 0
M  V30 4588 H 417.668 4.8695 -0.270434 0
M  V30 4589 H 416.673 4.85757 -2.57526 0
M  V30 4590 H 417.898 6.03459 -3.11472 0
M  V30 4591 H 415.844 6.49538 -0.918516 0
M  V30 4592 H 415.761 7.12349 -2.5317 0
M  V30 4593 H 417.029 7.65549 -1.46817 0
M  V30 4594 N 421.258 1.00505 1.21394 0
M  V30 4595 C 422.498 0.696149 1.9218 0
M  V30 4596 C 422.862 -0.759099 1.76357 0
M  V30 4597 O 424.063 -1.17998 2.41516 0
M  V30 4598 C 422.334 1.10571 3.39866 0
M  V30 4599 S 423.893 0.91702 4.29111 0
M  V30 4600 H 420.711 0.254147 0.664026 0
M  V30 4601 H 423.313 1.28988 1.46909 0
M  V30 4602 H 422.017 2.16096 3.489 0
M  V30 4603 H 421.548 0.504268 3.90155 0
M  V30 4604 H 423.563 -0.185855 4.95852 0
M  V30 4605 N 422.737 -1.36956 0.779787 0
M  V30 4606 C 423.667 -2.32761 0.185651 0
M  V30 4607 C 424.648 -1.56177 -0.673989 0
M  V30 4608 O 425.833 -1.84378 -0.609797 0
M  V30 4609 C 422.963 -3.40418 -0.687964 0
M  V30 4610 C 421.917 -4.27941 0.0710102 0
M  V30 4611 C 421.243 -5.26681 -0.922573 0
M  V30 4612 C 422.543 -5.07006 1.25467 0
M  V30 4613 H 424.237 -2.82698 0.986008 0
M  V30 4614 H 421.783 -1.3592 0.475592 0
M  V30 4615 H 423.736 -4.06423 -1.11348 0
M  V30 4616 H 422.46 -2.89025 -1.52093 0
M  V30 4617 H 421.119 -3.63478 0.47739 0
M  V30 4618 H 420.767 -4.71565 -1.7503 0
M  V30 4619 H 420.467 -5.86103 -0.419237 0
M  V30 4620 H 421.991 -5.9556 -1.34686 0
M  V30 4621 H 423.405 -5.66105 0.905401 0
M  V30 4622 H 421.802 -5.75793 1.69063 0
M  V30 4623 H 422.872 -4.3921 2.05481 0
M  V30 4624 N 424.215 -0.530993 -1.48385 0
M  V30 4625 C 425.464 0.00474348 -2.01699 0
M  V30 4626 C 425.777 1.35227 -1.41325 0
M  V30 4627 O 426.983 1.97643 -1.86144 0
M  V30 4628 C 425.439 0.0588473 -3.59852 0
M  V30 4629 C 425.047 -1.28385 -4.2921 0
M  V30 4630 C 426.791 0.543358 -4.21008 0
M  V30 4631 C 424.698 -1.19028 -5.79298 0
M  V30 4632 H 423.628 0.00554317 -0.75398 0
M  V30 4633 H 426.279 -0.674924 -1.70637 0
M  V30 4634 H 424.661 0.803612 -3.8776 0
M  V30 4635 H 425.835 -2.04426 -4.12973 0
M  V30 4636 H 424.15 -1.70418 -3.7993 0
M  V30 4637 H 426.747 0.631351 -5.3096 0
M  V30 4638 H 427.09 1.54937 -3.86394 0
M  V30 4639 H 427.623 -0.145754 -3.97533 0
M  V30 4640 H 424.362 -2.17147 -6.18488 0
M  V30 4641 H 423.882 -0.471246 -5.97946 0
M  V30 4642 H 425.561 -0.881365 -6.40969 0
M  V30 4643 N 425.693 1.55336 -0.266172 0
M  V30 4644 C 426.603 2.2583 0.635458 0
M  V30 4645 C 427.619 1.28106 1.17749 0
M  V30 4646 O 428.795 1.61024 1.20968 0
M  V30 4647 C 425.86 2.95879 1.80712 0
M  V30 4648 C 424.921 4.09059 1.30265 0
M  V30 4649 C 424.154 4.75759 2.41846 0
M  V30 4650 O 424.377 4.41622 3.61007 0
M  V30 4651 O 423.311 5.63888 2.1051 0
M  V30 4652 H 427.137 3.03631 0.0646693 0
M  V30 4653 H 424.722 1.49361 -0.0339177 0
M  V30 4654 H 426.604 3.39932 2.49047 0
M  V30 4655 H 425.279 2.21002 2.36516 0
M  V30 4656 H 424.186 3.69482 0.586019 0
M  V30 4657 H 425.519 4.85811 0.790458 0
M  V30 4658 N 427.171 -0.0066808 1.57599 0
M  V30 4659 C 428.101 -0.999296 2.11036 0
M  V30 4660 C 429.082 -1.36278 1.01795 0
M  V30 4661 O 430.267 -1.4477 1.29442 0
M  V30 4662 C 427.397 -2.29328 2.60818 0
M  V30 4663 C 426.351 -2.07159 3.74525 0
M  V30 4664 C 425.677 -3.42512 4.10596 0
M  V30 4665 C 426.977 -1.43959 5.02069 0
M  V30 4666 H 428.671 -0.554382 2.94223 0
M  V30 4667 H 426.217 -0.265221 1.41536 0
M  V30 4668 H 428.17 -2.99117 2.96828 0
M  V30 4669 H 426.894 -2.7592 1.74745 0
M  V30 4670 H 425.553 -1.39797 3.38899 0
M  V30 4671 H 425.201 -3.86795 3.21556 0
M  V30 4672 H 424.901 -3.28498 4.87199 0
M  V30 4673 H 426.425 -4.13628 4.4916 0
M  V30 4674 H 427.839 -2.03696 5.35893 0
M  V30 4675 H 426.236 -1.40452 5.83432 0
M  V30 4676 H 427.306 -0.407992 4.83181 0
M  V30 4677 N 428.649 -1.55105 -0.279332 0
M  V30 4678 C 429.559 -1.90638 -1.36727 0
M  V30 4679 C 430.575 -0.802899 -1.54368 0
M  V30 4680 O 431.751 -1.10138 -1.68616 0
M  V30 4681 C 428.816 -2.16547 -2.70755 0
M  V30 4682 C 427.877 -3.40146 -2.61915 0
M  V30 4683 C 427.11 -3.6481 -3.8955 0
M  V30 4684 O 427.333 -2.92095 -4.89935 0
M  V30 4685 O 426.267 -4.58343 -3.90135 0
M  V30 4686 H 430.093 -2.83237 -1.09591 0
M  V30 4687 H 427.678 -1.4157 -0.477306 0
M  V30 4688 H 429.56 -2.34665 -3.50014 0
M  V30 4689 H 428.235 -1.27131 -2.9769 0
M  V30 4690 H 427.142 -3.2737 -1.81052 0
M  V30 4691 H 428.475 -4.29761 -2.3993 0
M  V30 4692 N 430.127 0.543554 -1.4793 0
M  V30 4693 C 431.538 1.12561 -1.48953 0
M  V30 4694 C 431.889 1.94578 -0.251754 0
M  V30 4695 O 431.014 2.0665 0.642255 0
M  V30 4696 C 431.609 2.04801 -2.69892 0
M  V30 4697 C 430.168 2.58251 -2.73831 0
M  V30 4698 C 429.315 1.34918 -2.42265 0
M  V30 4699 H 432.266 0.32947 -1.55242 0
M  V30 4700 H 432.287 2.88886 -2.47639 0
M  V30 4701 H 431.799 1.4508 -3.59963 0
M  V30 4702 H 429.9 3.21732 -1.87934 0
M  V30 4703 H 430.013 2.98312 -3.74895 0
M  V30 4704 H 428.377 1.66046 -1.93134 0
M  V30 4705 H 429.16 0.769693 -3.3456 0
M  V30 4706 N 431.605 1.3629 0.791371 0
M  V30 4707 C 432.851 1.30605 1.55146 0
M  V30 4708 C 433.184 -0.115042 1.93859 0
M  V30 4709 O 432.459 -1.06798 1.62556 0
M  V30 4710 C 432.742 2.22692 2.82985 0
M  V30 4711 C 432.595 3.73489 2.50651 0
M  V30 4712 C 433.914 2.13588 3.84796 0
M  V30 4713 H 431.033 0.475761 0.562868 0
M  V30 4714 H 433.675 1.66825 0.909358 0
M  V30 4715 H 431.825 1.91933 3.37778 0
M  V30 4716 H 433.497 4.14758 2.01924 0
M  V30 4717 H 431.74 3.93021 1.83622 0
M  V30 4718 H 432.411 4.3333 3.41949 0
M  V30 4719 H 434.887 2.40659 3.39445 0
M  V30 4720 H 433.763 2.80195 4.71998 0
M  V30 4721 H 434.024 1.12256 4.27611 0
M  V30 4722 N 433.083 -1.0153 1.20538 0
M  V30 4723 C 434.013 -2.11972 0.979295 0
M  V30 4724 C 434.994 -1.6985 -0.0921787 0
M  V30 4725 O 436.179 -1.94089 0.0655932 0
M  V30 4726 C 433.309 -3.43201 0.531984 0
M  V30 4727 C 432.263 -3.9907 1.54685 0
M  V30 4728 C 431.589 -5.26082 0.956127 0
M  V30 4729 C 432.889 -4.32313 2.93092 0
M  V30 4730 H 434.583 -2.31143 1.90298 0
M  V30 4731 H 432.129 -1.11079 0.916372 0
M  V30 4732 H 434.082 -4.1985 0.361044 0
M  V30 4733 H 432.806 -3.23792 -0.427327 0
M  V30 4734 H 431.465 -3.2453 1.70517 0
M  V30 4735 H 431.113 -5.02999 -0.0111538 0
M  V30 4736 H 430.813 -5.64426 1.63393 0
M  V30 4737 H 432.337 -6.05386 0.796284 0
M  V30 4738 H 433.751 -4.99845 2.80763 0
M  V30 4739 H 432.148 -4.81774 3.57791 0
M  V30 4740 H 433.218 -3.41025 3.44717 0
M  V30 4741 N 434.561 -1.01147 -1.20859 0
M  V30 4742 C 435.977 -0.725422 -1.42161 0
M  V30 4743 C 436.177 0.696919 -1.89064 0
M  V30 4744 O 435.233 1.46539 -2.05627 0
M  V30 4745 C 436.546 -1.74678 -2.44761 0
M  V30 4746 C 438.094 -1.76433 -2.58535 0
M  V30 4747 C 438.569 -2.77481 -3.64374 0
M  V30 4748 N 440.06 -2.76189 -3.71852 0
M  V30 4749 C 440.795 -3.51035 -4.53389 0
M  V30 4750 N 440.291 -4.35541 -5.38773 0
M  V30 4751 N 442.084 -3.39655 -4.47873 0
M  V30 4752 H 434.235 -1.92979 -0.887282 0
M  V30 4753 H 436.498 -0.833327 -0.451962 0
M  V30 4754 H 436.204 -2.76551 -2.17285 0
M  V30 4755 H 436.078 -1.55472 -3.43669 0
M  V30 4756 H 438.465 -0.75248 -2.85345 0
M  V30 4757 H 438.546 -1.99712 -1.5984 0
M  V30 4758 H 438.19 -3.78827 -3.38308 0
M  V30 4759 H 438.12 -2.51466 -4.6268 0
M  V30 4760 H 440.611 -2.14885 -3.10858 0
M  V30 4761 H 440.924 -4.89432 -5.98061 0
M  V30 4762 H 439.269 -4.39621 -5.38292 0
M  V30 4763 H 442.46 -2.73063 -3.80203 0
M  V30 4764 H 442.633 -3.9824 -5.11184 0
M  V30 4765 N 436.039 1.36541 -0.78704 0
M  V30 4766 C 437.267 2.03561 -0.370199 0
M  V30 4767 C 437.682 1.59347 1.01263 0
M  V30 4768 O 437.039 0.781781 1.64907 0
M  V30 4769 C 437.09 3.59033 -0.421614 0
M  V30 4770 O 436.811 4.01634 -1.7499 0
M  V30 4771 C 438.312 4.433 0.00489763 0
M  V30 4772 H 435.532 0.653346 -0.152904 0
M  V30 4773 H 438.076 1.74566 -1.06522 0
M  V30 4774 H 436.231 3.86746 0.224971 0
M  V30 4775 H 436.645 4.96217 -1.69909 0
M  V30 4776 H 438.119 5.51939 -0.0822184 0
M  V30 4777 H 438.596 4.26285 1.05723 0
M  V30 4778 H 439.202 4.20843 -0.614085 0
M  V30 4779 N 437.518 0.538854 1.48102 0
M  V30 4780 C 438.765 0.0080018 2.02498 0
M  V30 4781 C 439.093 -1.33437 1.41509 0
M  V30 4782 O 438.348 -1.87709 0.553507 0
M  V30 4783 C 438.647 -0.153808 3.57069 0
M  V30 4784 C 438.313 1.11533 4.36888 0
M  V30 4785 C 436.975 1.46314 4.58417 0
M  V30 4786 C 439.327 1.95718 4.83057 0
M  V30 4787 C 436.655 2.6516 5.23361 0
M  V30 4788 C 439.007 3.13751 5.49312 0
M  V30 4789 C 437.671 3.48866 5.69077 0
M  V30 4790 H 436.941 0.00292807 0.740994 0
M  V30 4791 H 439.588 0.706668 1.77984 0
M  V30 4792 H 437.893 -0.935309 3.80472 0
M  V30 4793 H 439.59 -0.579607 3.96789 0
M  V30 4794 H 436.18 0.834484 4.20398 0
M  V30 4795 H 440.364 1.70158 4.66219 0
M  V30 4796 H 435.62 2.92558 5.36861 0
M  V30 4797 H 439.794 3.79282 5.84053 0
M  V30 4798 H 437.421 4.41054 6.19173 0
M  V30 4799 N 438.996 -1.55193 0.274407 0
M  V30 4800 C 439.906 -2.26164 -0.623473 0
M  V30 4801 C 440.922 -1.28729 -1.17068 0
M  V30 4802 O 442.098 -1.61663 -1.20112 0
M  V30 4803 C 439.163 -2.96833 -1.7914 0
M  V30 4804 C 438.224 -4.09745 -1.28093 0
M  V30 4805 C 437.457 -4.77034 -2.3932 0
M  V30 4806 O 437.68 -4.4353 -3.5866 0
M  V30 4807 O 436.614 -5.64996 -2.07516 0
M  V30 4808 H 440.44 -3.03661 -0.0485661 0
M  V30 4809 H 438.025 -1.49341 0.0418382 0
M  V30 4810 H 439.907 -3.41248 -2.4724 0
M  V30 4811 H 438.582 -2.22253 -2.35341 0
M  V30 4812 H 437.489 -3.69787 -0.566416 0
M  V30 4813 H 438.822 -4.86224 -0.764683 0
M  V30 4814 N 440.474 -0.00167713 -1.576 0
M  V30 4815 C 441.384 1.00548 -2.1196 0
M  V30 4816 C 442.4 1.3758 -1.06526 0
M  V30 4817 O 443.576 1.46278 -1.38436 0
M  V30 4818 C 440.641 2.27809 -2.6135 0
M  V30 4819 C 439.702 1.97074 -3.81393 0
M  V30 4820 C 438.935 3.18267 -4.28417 0
M  V30 4821 O 439.158 4.30009 -3.74765 0
M  V30 4822 O 438.092 3.02167 -5.20556 0
M  V30 4823 H 441.918 0.573373 -2.98238 0
M  V30 4824 H 439.503 0.217255 -1.47812 0
M  V30 4825 H 441.385 3.02568 -2.93309 0
M  V30 4826 H 440.06 2.70254 -1.78169 0
M  V30 4827 H 438.967 1.19785 -3.54404 0
M  V30 4828 H 440.3 1.59464 -4.65652 0
M  V30 4829 N 441.952 1.55251 0.271103 0
M  V30 4830 C 443.201 1.75151 1.00025 0
M  V30 4831 C 443.514 0.561041 1.87381 0
M  V30 4832 O 444.72 0.642506 2.63788 0
M  V30 4833 C 443.176 3.09999 1.82835 0
M  V30 4834 C 442.784 4.3662 1.00336 0
M  V30 4835 C 444.528 3.39249 2.55168 0
M  V30 4836 C 442.435 5.62506 1.82595 0
M  V30 4837 H 441.365 0.652877 0.377183 0
M  V30 4838 H 444.016 1.81708 0.255843 0
M  V30 4839 H 442.398 2.97485 2.61378 0
M  V30 4840 H 443.572 4.60055 0.261959 0
M  V30 4841 H 441.887 4.14527 0.394486 0
M  V30 4842 H 444.484 4.3051 3.1712 0
M  V30 4843 H 444.827 2.59467 3.2555 0
M  V30 4844 H 445.36 3.52869 1.83653 0
M  V30 4845 H 442.099 6.45041 1.16631 0
M  V30 4846 H 441.619 5.43211 2.54327 0
M  V30 4847 H 443.298 6.00875 2.39913 0
M  V30 4848 N 443.43 -0.535701 1.48216 0
M  V30 4849 C 444.658 -1.31671 1.59594 0
M  V30 4850 C 445.073 -1.87083 0.254056 0
M  V30 4851 O 444.43 -1.66112 -0.755854 0
M  V30 4852 C 444.481 -2.47158 2.63809 0
M  V30 4853 O 444.202 -1.94032 3.92789 0
M  V30 4854 C 445.703 -3.39062 2.85573 0
M  V30 4855 H 442.923 -0.400623 0.538277 0
M  V30 4856 H 445.467 -0.646827 1.94001 0
M  V30 4857 H 443.622 -3.10043 2.32276 0
M  V30 4858 H 444.036 -2.69585 4.49916 0
M  V30 4859 H 445.51 -4.16459 3.62306 0
M  V30 4860 H 445.987 -3.93941 1.94184 0
M  V30 4861 H 446.593 -2.81975 3.18387 0
M  V30 4862 N 444.908 -1.36708 -0.784132 0
M  V30 4863 C 446.155 -1.31231 -1.54222 0
M  V30 4864 C 446.483 0.106864 -1.94206 0
M  V30 4865 O 445.738 1.07734 -1.63376 0
M  V30 4866 C 446.037 -2.18571 -2.82774 0
M  V30 4867 C 445.703 -3.67039 -2.61903 0
M  V30 4868 C 444.365 -4.07503 -2.55919 0
M  V30 4869 C 446.717 -4.61149 -2.4288 0
M  V30 4870 C 444.045 -5.40211 -2.28886 0
M  V30 4871 C 446.397 -5.94081 -2.17373 0
M  V30 4872 C 445.061 -6.33664 -2.09825 0
M  V30 4873 H 444.331 -0.48021 -0.56434 0
M  V30 4874 H 446.978 -1.68807 -0.904233 0
M  V30 4875 H 445.283 -1.73949 -3.51068 0
M  V30 4876 H 446.98 -2.11655 -3.40592 0
M  V30 4877 H 443.57 -3.34941 -2.67418 0
M  V30 4878 H 447.754 -4.30756 -2.46501 0
M  V30 4879 H 443.01 -5.69855 -2.21529 0
M  V30 4880 H 447.184 -6.66566 -2.01649 0
M  V30 4881 H 444.811 -7.36423 -1.88641 0
M  V30 4882 N 446.386 1.0089 -1.21074 0
M  V30 4883 C 447.316 2.1145 -0.990523 0
M  V30 4884 C 448.297 1.69897 0.0831699 0
M  V30 4885 O 449.482 1.94052 -0.0758853 0
M  V30 4886 C 446.612 3.42914 -0.550177 0
M  V30 4887 C 445.566 3.98244 -1.56799 0
M  V30 4888 C 444.892 5.25568 -0.984013 0
M  V30 4889 C 446.192 4.30752 -2.95381 0
M  V30 4890 H 447.886 2.3013 -1.91521 0
M  V30 4891 H 445.432 1.10592 -0.92225 0
M  V30 4892 H 447.385 4.19653 -0.383305 0
M  V30 4893 H 446.109 3.24014 0.41015 0
M  V30 4894 H 444.768 3.23621 -1.72236 0
M  V30 4895 H 444.416 5.02998 -0.0155216 0
M  V30 4896 H 444.116 5.63551 -1.66384 0
M  V30 4897 H 445.64 6.04955 -0.828378 0
M  V30 4898 H 447.054 4.98349 -2.8341 0
M  V30 4899 H 445.451 4.79869 -3.60341 0
M  V30 4900 H 446.521 3.39192 -3.46521 0
M  V30 4901 N 447.864 1.01787 1.20321 0
M  V30 4902 C 448.774 0.598898 2.26827 0
M  V30 4903 C 449.79 -0.36418 1.70146 0
M  V30 4904 O 450.966 -0.224812 2.00141 0
M  V30 4905 C 448.031 -0.0549769 3.46656 0
M  V30 4906 C 447.092 0.954205 4.18561 0
M  V30 4907 C 446.325 0.331439 5.3267 0
M  V30 4908 O 446.548 -0.86851 5.63749 0
M  V30 4909 O 445.482 1.0488 5.92692 0
M  V30 4910 H 449.308 1.48562 2.64883 0
M  V30 4911 H 446.893 0.787434 1.26964 0
M  V30 4912 H 448.775 -0.420102 4.19301 0
M  V30 4913 H 447.45 -0.915876 3.10473 0
M  V30 4914 H 446.357 1.37072 3.48083 0
M  V30 4915 H 447.69 1.78511 4.58688 0
M  V30 4916 N 449.342 -1.36122 0.79427 0
M  V30 4917 C 450.305 -2.28309 0.201889 0
M  V30 4918 C 451.305 -1.49041 -0.603603 0
M  V30 4919 O 452.495 -1.68964 -0.423888 0
M  V30 4920 C 449.627 -3.3321 -0.719978 0
M  V30 4921 H 450.82 -2.82208 1.01481 0
M  V30 4922 H 448.373 -1.45768 0.564037 0
M  V30 4923 H 449.108 -2.84475 -1.55706 0
M  V30 4924 H 448.893 -3.91835 -0.144266 0
M  V30 4925 H 450.383 -4.02044 -1.12916 0
M  V30 4926 N 450.82 -0.546701 -1.47814 0
M  V30 4927 C 452.066 -0.0187684 -2.02791 0
M  V30 4928 C 452.399 1.32338 -1.42128 0
M  V30 4929 O 451.674 1.85867 -0.573023 0
M  V30 4930 C 451.957 0.0854985 -3.59998 0
M  V30 4931 C 451.81 -1.283 -4.31114 0
M  V30 4932 C 453.129 0.80412 -4.32691 0
M  V30 4933 H 450.248 -0.0082946 -0.736953 0
M  V30 4934 H 452.89 -0.706962 -1.76358 0
M  V30 4935 H 451.04 0.671609 -3.82651 0
M  V30 4936 H 452.712 -1.91151 -4.19832 0
M  V30 4937 H 450.955 -1.86049 -3.91878 0
M  V30 4938 H 451.626 -1.16287 -5.39612 0
M  V30 4939 H 454.102 0.306576 -4.14969 0
M  V30 4940 H 452.978 0.846011 -5.42341 0
M  V30 4941 H 453.239 1.85802 -4.01161 0
M  V30 4942 N 452.299 1.55045 -0.282633 0
M  V30 4943 C 453.548 1.98938 0.332667 0
M  V30 4944 C 453.861 1.17455 1.56409 0
M  V30 4945 O 455.067 1.51527 2.25282 0
M  V30 4946 C 453.523 3.54105 0.643226 0
M  V30 4947 C 453.131 4.44374 -0.568814 0
M  V30 4948 C 454.875 4.06569 1.22074 0
M  V30 4949 C 452.782 5.90943 -0.232426 0
M  V30 4950 H 451.712 0.743043 0.128075 0
M  V30 4951 H 454.363 1.79341 -0.388464 0
M  V30 4952 H 452.745 3.69532 1.42346 0
M  V30 4953 H 453.919 4.40718 -1.34551 0
M  V30 4954 H 452.234 4.02585 -1.06369 0
M  V30 4955 H 454.831 5.13626 1.48635 0
M  V30 4956 H 455.174 3.56057 2.15707 0
M  V30 4957 H 455.707 3.94612 0.502621 0
M  V30 4958 H 452.446 6.45567 -1.13683 0
M  V30 4959 H 451.966 5.9765 0.507357 0
M  V30 4960 H 453.645 6.4677 0.172657 0
M  V30 4961 N 453.777 0.010035 1.57597 0
M  V30 4962 C 454.709 -1.00649 2.05918 0
M  V30 4963 C 455.722 -1.30077 0.978964 0
M  V30 4964 O 456.911 -1.26878 1.25556 0
M  V30 4965 C 454.011 -2.33876 2.45265 0
M  V30 4966 C 453.184 -2.23242 3.7614 0
M  V30 4967 C 452.243 -3.39242 4.02245 0
M  V30 4968 O 451.269 -3.1698 4.72771 0
M  V30 4969 N 452.471 -4.6242 3.50924 0
M  V30 4970 H 455.236 -0.594333 2.93748 0
M  V30 4971 H 452.797 -0.17714 1.60928 0
M  V30 4972 H 454.789 -3.1027 2.59836 0
M  V30 4973 H 453.359 -2.66799 1.62902 0
M  V30 4974 H 452.579 -1.31696 3.71551 0
M  V30 4975 H 453.867 -2.13321 4.61922 0
M  V30 4976 H 453.265 -4.83404 2.93832 0
M  V30 4977 H 451.822 -5.36046 3.70807 0
M  V30 4978 N 455.255 -1.55392 -0.262866 0
M  V30 4979 C 456.185 -1.91978 -1.32917 0
M  V30 4980 C 457.166 -0.7828 -1.51017 0
M  V30 4981 O 458.351 -1.04178 -1.63892 0
M  V30 4982 C 455.481 -2.20055 -2.68687 0
M  V30 4983 C 454.435 -3.35854 -2.65304 0
M  V30 4984 C 453.761 -3.49435 -4.04721 0
M  V30 4985 C 455.061 -4.71977 -2.23685 0
M  V30 4986 H 456.755 -2.81292 -1.02544 0
M  V30 4987 H 454.301 -1.3534 -0.491846 0
M  V30 4988 H 456.254 -2.44237 -3.43404 0
M  V30 4989 H 454.978 -1.27551 -3.00663 0
M  V30 4990 H 453.637 -3.11655 -1.93045 0
M  V30 4991 H 453.285 -2.54379 -4.33936 0
M  V30 4992 H 452.985 -4.27297 -4.0335 0
M  V30 4993 H 454.509 -3.7592 -4.81161 0
M  V30 4994 H 455.923 -4.95637 -2.88127 0
M  V30 4995 H 454.32 -5.52828 -2.33456 0
M  V30 4996 H 455.39 -4.70115 -1.18827 0
M  V30 4997 N 456.733 0.527833 -1.48498 0
M  V30 4998 C 457.68 1.6322 -1.6318 0
M  V30 4999 C 458.65 1.59199 -0.473815 0
M  V30 5000 O 459.835 1.77591 -0.697563 0
M  V30 5001 C 456.975 3.01474 -1.67951 0
M  V30 5002 C 456.088 3.15713 -2.94871 0
M  V30 5003 C 455.223 4.44539 -2.90789 0
M  V30 5004 C 454.262 4.52315 -4.12404 0
M  V30 5005 N 453.399 5.72533 -4.06387 0
M  V30 5006 H 458.239 1.50011 -2.57489 0
M  V30 5007 H 455.776 0.730298 -1.27691 0
M  V30 5008 H 457.734 3.81572 -1.68698 0
M  V30 5009 H 456.364 3.1345 -0.771306 0
M  V30 5010 H 455.416 2.28854 -3.03859 0
M  V30 5011 H 456.728 3.1732 -3.8485 0
M  V30 5012 H 455.882 5.3293 -2.89949 0
M  V30 5013 H 454.621 4.45457 -1.98542 0
M  V30 5014 H 453.626 3.62331 -4.13517 0
M  V30 5015 H 454.851 4.53134 -5.05812 0
M  V30 5016 H 452.797 5.74344 -3.16962 0
M  V30 5017 H 452.714 5.75643 -4.90073 0
M  V30 5018 H 453.982 6.63204 -4.0961 0
M  V30 5019 N 458.211 1.37122 0.776871 0
M  V30 5020 C 459.158 1.3247 1.88998 0
M  V30 5021 C 460.128 0.191143 1.64997 0
M  V30 5022 O 461.313 0.379683 1.86984 0
M  V30 5023 C 458.453 1.13241 3.25992 0
M  V30 5024 C 457.566 2.35782 3.61982 0
M  V30 5025 C 456.701 2.09465 4.88158 0
M  V30 5026 C 455.74 3.279 5.16864 0
M  V30 5027 N 454.877 3.01167 6.34226 0
M  V30 5028 H 459.717 2.27642 1.9231 0
M  V30 5029 H 457.254 1.13125 0.94027 0
M  V30 5030 H 459.212 1.00115 4.0501 0
M  V30 5031 H 457.842 0.217186 3.22069 0
M  V30 5032 H 456.894 2.59666 2.77989 0
M  V30 5033 H 458.206 3.24125 3.79137 0
M  V30 5034 H 457.36 1.93341 5.75069 0
M  V30 5035 H 456.099 1.18452 4.73097 0
M  V30 5036 H 455.104 3.44569 4.2843 0
M  V30 5037 H 456.329 4.19757 5.33836 0
M  V30 5038 H 454.275 2.12779 6.20533 0
M  V30 5039 H 454.192 3.83052 6.51772 0
M  V30 5040 H 455.46 2.88649 7.24087 0
M  V30 5041 N 459.689 -1.00246 1.21608 0
M  V30 5042 C 460.917 -1.77631 1.06089 0
M  V30 5043 C 461.332 -1.84746 -0.38916 0
M  V30 5044 O 460.689 -1.31068 -1.26994 0
M  V30 5045 C 460.74 -3.21415 1.65453 0
M  V30 5046 O 460.461 -3.14703 3.04785 0
M  V30 5047 C 461.962 -4.15289 1.55079 0
M  V30 5048 H 459.182 -0.558162 0.37242 0
M  V30 5049 H 461.726 -1.26093 1.60999 0
M  V30 5050 H 459.881 -3.70053 1.14629 0
M  V30 5051 H 460.295 -4.05056 3.33212 0
M  V30 5052 H 461.769 -5.13965 2.01355 0
M  V30 5053 H 462.246 -4.36279 0.505665 0
M  V30 5054 H 462.852 -3.72543 2.05163 0
M  V30 5055 N 461.167 -1.02423 -1.1978 0
M  V30 5056 C 462.114 -0.601023 -2.22837 0
M  V30 5057 C 463.084 0.382801 -1.61629 0
M  V30 5058 O 464.269 0.280514 -1.88727 0
M  V30 5059 C 461.409 0.0467755 -3.45068 0
M  V30 5060 C 460.522 -0.98253 -4.20678 0
M  V30 5061 C 459.657 -0.304982 -5.30324 0
M  V30 5062 C 458.696 -1.32052 -5.97686 0
M  V30 5063 N 457.833 -0.669105 -6.98904 0
M  V30 5064 H 462.673 -1.48444 -2.58396 0
M  V30 5065 H 460.21 -0.742936 -1.2696 0
M  V30 5066 H 462.168 0.439556 -4.14878 0
M  V30 5067 H 460.798 0.893796 -3.10179 0
M  V30 5068 H 459.85 -1.49341 -3.49859 0
M  V30 5069 H 461.162 -1.75455 -4.66923 0
M  V30 5070 H 460.316 0.142893 -6.06532 0
M  V30 5071 H 459.055 0.499283 -4.85138 0
M  V30 5072 H 458.06 -1.7787 -5.20233 0
M  V30 5073 H 459.285 -2.1262 -6.44957 0
M  V30 5074 H 457.231 0.115152 -6.55899 0
M  V30 5075 H 457.148 -1.37908 -7.43315 0
M  V30 5076 H 458.416 -0.245076 -7.79115 0
M  V30 5077 N 462.645 1.35699 -0.801477 0
M  V30 5078 C 463.575 2.32436 -0.222658 0
M  V30 5079 C 464.556 1.5723 0.649057 0
M  V30 5080 O 465.741 1.85324 0.580387 0
M  V30 5081 C 462.871 3.41469 0.633719 0
M  V30 5082 C 461.825 4.27774 -0.139083 0
M  V30 5083 C 461.151 5.28082 0.838666 0
M  V30 5084 C 462.451 5.04946 -1.33517 0
M  V30 5085 H 464.145 2.81094 -1.03086 0
M  V30 5086 H 461.691 1.35146 -0.497155 0
M  V30 5087 H 463.644 4.08143 1.04868 0
M  V30 5088 H 462.368 2.91408 1.47475 0
M  V30 5089 H 461.027 3.62673 -0.535156 0
M  V30 5090 H 460.675 4.7429 1.67506 0
M  V30 5091 H 460.375 5.86695 0.32594 0
M  V30 5092 H 461.899 5.97628 1.25194 0
M  V30 5093 H 463.313 5.64593 -0.995349 0
M  V30 5094 H 461.71 5.7303 -1.78202 0
M  V30 5095 H 462.78 4.35886 -2.12442 0
M  V30 5096 N 464.123 0.554532 1.47522 0
M  V30 5097 C 465.055 -0.232106 2.28022 0
M  V30 5098 C 466.068 -0.881865 1.36847 0
M  V30 5099 O 467.257 -0.756168 1.61692 0
M  V30 5100 C 464.357 -1.34604 3.11022 0
M  V30 5101 C 463.53 -0.793582 4.30141 0
M  V30 5102 C 462.589 -1.79168 4.94758 0
M  V30 5103 O 461.615 -1.33886 5.5323 0
M  V30 5104 N 462.817 -3.12495 4.89211 0
M  V30 5105 H 465.582 0.458407 2.96173 0
M  V30 5106 H 463.143 0.390433 1.57122 0
M  V30 5107 H 465.135 -2.01243 3.51118 0
M  V30 5108 H 463.705 -1.93983 2.45131 0
M  V30 5109 H 462.925 0.0495025 3.94169 0
M  V30 5110 H 464.213 -0.403776 5.07195 0
M  V30 5111 H 463.611 -3.51931 4.42901 0
M  V30 5112 H 462.168 -3.74698 5.33333 0
M  V30 5113 N 465.601 -1.54893 0.290851 0
M  V30 5114 C 466.826 -2.04804 -0.32712 0
M  V30 5115 C 467.251 -1.16721 -1.47506 0
M  V30 5116 O 466.609 -0.169107 -1.8051 0
M  V30 5117 C 466.657 -3.52268 -0.770689 0
M  V30 5118 O 465.761 -3.67236 -1.87647 0
M  V30 5119 H 465.102 -0.660789 -0.0652227 0
M  V30 5120 H 467.632 -2.00036 0.429739 0
M  V30 5121 H 467.642 -3.9393 -1.06223 0
M  V30 5122 H 466.317 -4.15843 0.069096 0
M  V30 5123 H 464.894 -3.37479 -1.58626 0
M  V30 5124 N 467.08 -0.0183926 -1.57589 0
M  V30 5125 C 468.326 0.663543 -1.91638 0
M  V30 5126 C 468.659 1.72392 -0.894134 0
M  V30 5127 O 467.934 1.94316 0.0846449 0
M  V30 5128 C 468.217 1.28984 -3.36207 0
M  V30 5129 C 468.07 0.239761 -4.49161 0
M  V30 5130 C 469.389 2.2109 -3.80536 0
M  V30 5131 H 466.508 0.239746 -0.696915 0
M  V30 5132 H 469.15 -0.073456 -1.89858 0
M  V30 5133 H 467.3 1.91799 -3.37854 0
M  V30 5134 H 468.972 -0.390119 -4.59647 0
M  V30 5135 H 467.215 -0.435972 -4.31604 0
M  V30 5136 H 467.886 0.717383 -5.47319 0
M  V30 5137 H 470.362 1.68273 -3.80557 0
M  V30 5138 H 469.238 2.61869 -4.82406 0
M  V30 5139 H 469.499 3.09764 -3.15434 0
M  V30 5140 N 468.558 1.5553 0.254621 0
M  V30 5141 C 469.783 1.81383 1.00573 0
M  V30 5142 C 470.208 0.594419 1.78461 0
M  V30 5143 O 469.566 -0.456403 1.75461 0
M  V30 5144 C 469.614 3.04892 1.92545 0
M  V30 5145 O 468.718 2.81266 3.01601 0
M  V30 5146 H 468.059 0.598969 0.286587 0
M  V30 5147 H 470.589 2.02703 0.277952 0
M  V30 5148 H 470.599 3.34119 2.34155 0
M  V30 5149 H 469.274 3.93287 1.3527 0
M  V30 5150 H 467.851 2.63185 2.64174 0
M  V30 5151 N 470.036 -0.519951 1.48776 0
M  V30 5152 C 471.261 -1.30447 1.6124 0
M  V30 5153 C 471.686 -1.86055 0.276591 0
M  V30 5154 O 471.044 -1.64915 -0.753183 0
M  V30 5155 C 471.092 -2.42406 2.66967 0
M  V30 5156 O 470.196 -3.45728 2.24824 0
M  V30 5157 H 469.537 -0.385924 0.540332 0
M  V30 5158 H 472.067 -0.624572 1.94834 0
M  V30 5159 H 472.077 -2.88447 2.88552 0
M  V30 5160 H 470.752 -2.01294 3.63941 0
M  V30 5161 H 469.329 -3.05737 2.13494 0
M  V30 5162 N 471.514 -1.37532 -0.769588 0
M  V30 5163 C 472.477 -1.33292 -1.86456 0
M  V30 5164 C 473.477 -0.236537 -1.59051 0
M  V30 5165 O 474.667 -0.492511 -1.67093 0
M  V30 5166 C 471.799 -1.07118 -3.23633 0
M  V30 5167 H 472.992 -2.30692 -1.91628 0
M  V30 5168 H 470.545 -1.22593 -0.969572 0
M  V30 5169 H 471.28 -0.102578 -3.24138 0
M  V30 5170 H 471.065 -1.86479 -3.44917 0
M  V30 5171 H 472.555 -1.06806 -4.03711 0
M  V30 5172 N 472.992 0.995999 -1.22138 0
M  V30 5173 C 474.241 1.72928 -1.03821 0
M  V30 5174 C 474.554 1.90872 0.427444 0
M  V30 5175 O 475.76 2.61496 0.730212 0
M  V30 5176 C 474.216 3.11124 -1.80913 0
M  V30 5177 C 473.824 3.01122 -3.31707 0
M  V30 5178 C 475.568 3.8852 -1.71035 0
M  V30 5179 C 473.475 4.34453 -4.01253 0
M  V30 5180 H 472.405 0.648376 -0.384869 0
M  V30 5181 H 475.056 1.11213 -1.45959 0
M  V30 5182 H 473.438 3.73503 -1.31573 0
M  V30 5183 H 474.612 2.47926 -3.88419 0
M  V30 5184 H 472.927 2.3721 -3.42228 0
M  V30 5185 H 475.524 4.872 -2.20318 0
M  V30 5186 H 475.867 4.1087 -0.670196 0
M  V30 5187 H 476.4 3.32812 -2.17902 0
M  V30 5188 H 473.139 4.17303 -5.05508 0
M  V30 5189 H 472.659 4.87574 -3.49331 0
M  V30 5190 H 474.338 5.03215 -4.06674 0
M  V30 5191 N 474.47 1.03057 1.19235 0
M  V30 5192 C 475.42 0.583386 2.2041 0
M  V30 5193 C 476.404 -0.368776 1.56617 0
M  V30 5194 O 477.596 -0.189471 1.75983 0
M  V30 5195 C 474.725 -0.0626534 3.43243 0
M  V30 5196 C 473.811 0.91205 4.14177 0
M  V30 5197 N 474.202 2.07514 4.61272 0
M  V30 5198 C 472.5 0.735859 4.39888 0
M  V30 5199 C 473.201 2.69003 5.15764 0
M  V30 5200 N 472.177 1.96954 5.06666 0
M  V30 5201 H 475.979 1.46988 2.54503 0
M  V30 5202 H 473.493 0.897785 1.35328 0
M  V30 5203 H 475.49 -0.400653 4.1497 0
M  V30 5204 H 474.15 -0.944813 3.1065 0
M  V30 5205 H 475.161 2.45448 4.56043 0
M  V30 5206 H 471.838 -0.0970656 4.17387 0
M  V30 5207 H 473.228 3.67514 5.6248 0
M  V30 5208 N 475.948 -1.35272 0.808662 0
M  V30 5209 C 476.878 -2.32315 0.234981 0
M  V30 5210 C 477.859 -1.57572 -0.64071 0
M  V30 5211 O 479.044 -1.8563 -0.570551 0
M  V30 5212 C 476.174 -3.41801 -0.615601 0
M  V30 5213 C 475.128 -4.27694 0.161767 0
M  V30 5214 C 474.454 -5.28519 -0.810649 0
M  V30 5215 C 475.754 -5.04231 1.36193 0
M  V30 5216 H 477.448 -2.80543 1.04575 0
M  V30 5217 H 474.994 -1.3488 0.504315 0
M  V30 5218 H 476.947 -4.08693 -1.02702 0
M  V30 5219 H 475.671 -2.92186 -1.45928 0
M  V30 5220 H 474.33 -3.62384 0.554382 0
M  V30 5221 H 473.978 -4.75171 -1.64988 0
M  V30 5222 H 473.678 -5.8686 -0.294822 0
M  V30 5223 H 475.202 -5.98283 -1.22023 0
M  V30 5224 H 476.616 -5.64058 1.02528 0
M  V30 5225 H 475.013 -5.72077 1.81239 0
M  V30 5226 H 476.083 -4.34753 2.14751 0
M  V30 5227 N 477.426 -0.562348 -1.47226 0
M  V30 5228 C 478.666 -0.0426374 -2.04356 0
M  V30 5229 C 479.03 1.28487 -1.42671 0
M  V30 5230 O 480.231 1.89259 -1.90878 0
M  V30 5231 C 478.502 0.0433826 -3.57374 0
M  V30 5232 S 480.061 0.508472 -4.35844 0
M  V30 5233 H 476.879 -0.0276234 -0.710463 0
M  V30 5234 H 479.481 -0.750245 -1.80531 0
M  V30 5235 H 478.185 -0.927072 -3.99792 0
M  V30 5236 H 477.716 0.774387 -3.85703 0
M  V30 5237 H 479.731 1.76719 -4.63665 0
M  V30 5238 N 478.904 1.54736 -0.299062 0
M  V30 5239 C 480.181 1.92187 0.363802 0
M  V30 5240 C 480.561 1.22607 1.71845 0
M  V30 5241 O 479.909 0.361141 2.25628 0
M  V30 5242 C 480.119 3.45678 0.480377 0
M  V30 5243 C 481.467 4.17885 0.752147 0
M  V30 5244 O 482.491 3.51702 0.564264 0
M  V30 5245 O 481.35 5.35048 1.11294 0
M  V30 5246 H 478.444 0.801681 0.203066 0
M  V30 5247 H 480.99 1.66115 -0.346978 0
M  V30 5248 H 479.762 3.88443 -0.471999 0
M  V30 5249 H 479.385 3.77779 1.2397 0
M  V30 5250 N 480.382 0.0267497 1.57577 0
M  V30 5251 C 481.329 -0.955894 2.10075 0
M  V30 5252 C 482.299 -1.32453 1.00226 0
M  V30 5253 O 483.484 -1.41826 1.27632 0
M  V30 5254 C 480.624 -2.2338 2.6305 0
M  V30 5255 C 479.737 -1.92183 3.86898 0
M  V30 5256 C 478.872 -3.14251 4.28275 0
M  V30 5257 C 477.911 -2.78862 5.44888 0
M  V30 5258 N 477.048 -3.93548 5.81433 0
M  V30 5259 H 481.888 -0.501303 2.93753 0
M  V30 5260 H 479.425 -0.235847 1.45197 0
M  V30 5261 H 481.383 -2.98124 2.91853 0
M  V30 5262 H 480.013 -2.6646 1.82205 0
M  V30 5263 H 479.065 -1.07692 3.64838 0
M  V30 5264 H 480.377 -1.62117 4.7172 0
M  V30 5265 H 479.531 -3.97317 4.58502 0
M  V30 5266 H 478.27 -3.47476 3.42215 0
M  V30 5267 H 477.275 -1.94208 5.14357 0
M  V30 5268 H 478.5 -2.46855 6.32645 0
M  V30 5269 H 476.446 -4.2662 4.98328 0
M  V30 5270 H 476.363 -3.67098 6.6089 0
M  V30 5271 H 477.631 -4.77325 6.16264 0
M  V30 5272 N 481.861 -1.55662 -0.24637 0
M  V30 5273 C 482.808 -1.90361 -1.30504 0
M  V30 5274 C 483.778 -0.757905 -1.47801 0
M  V30 5275 O 484.963 -1.01161 -1.61775 0
M  V30 5276 C 482.103 -2.2042 -2.65535 0
M  V30 5277 C 481.216 -3.47799 -2.56242 0
M  V30 5278 C 480.351 -3.67426 -3.8363 0
M  V30 5279 C 479.39 -4.88403 -3.68956 0
M  V30 5280 N 478.527 -5.04548 -4.88237 0
M  V30 5281 H 483.367 -2.80645 -1.00213 0
M  V30 5282 H 480.904 -1.38924 -0.483577 0
M  V30 5283 H 482.862 -2.35853 -3.44135 0
M  V30 5284 H 481.492 -1.3334 -2.93973 0
M  V30 5285 H 480.544 -3.40694 -1.69208 0
M  V30 5286 H 481.856 -4.36544 -2.4131 0
M  V30 5287 H 481.01 -3.82821 -4.70673 0
M  V30 5288 H 479.749 -2.76914 -4.01459 0
M  V30 5289 H 478.754 -4.72984 -2.80296 0
M  V30 5290 H 479.979 -5.80375 -3.52621 0
M  V30 5291 H 477.925 -4.16974 -5.06427 0
M  V30 5292 H 477.842 -5.87384 -4.75937 0
M  V30 5293 H 479.11 -5.24355 -5.76777 0
M  V30 5294 N 483.339 0.512053 -1.4905 0
M  V30 5295 C 484.286 1.6148 -1.64902 0
M  V30 5296 C 485.256 1.58687 -0.490673 0
M  V30 5297 O 486.441 1.76842 -0.71636 0
M  V30 5298 C 483.581 2.99676 -1.71139 0
M  V30 5299 C 482.694 3.12568 -2.98203 0
M  V30 5300 C 481.829 4.4143 -2.95487 0
M  V30 5301 C 480.868 4.47916 -4.17179 0
M  V30 5302 N 480.005 5.68191 -4.12437 0
M  V30 5303 H 484.845 1.47271 -2.59066 0
M  V30 5304 H 482.382 0.716713 -1.28459 0
M  V30 5305 H 484.34 3.79761 -1.72736 0
M  V30 5306 H 482.97 3.12614 -0.804508 0
M  V30 5307 H 482.022 2.25618 -3.06269 0
M  V30 5308 H 483.334 3.1322 -3.88194 0
M  V30 5309 H 482.488 5.29825 -2.95585 0
M  V30 5310 H 481.227 4.43326 -2.03256 0
M  V30 5311 H 480.232 3.57925 -4.17337 0
M  V30 5312 H 481.457 4.47744 -5.1059 0
M  V30 5313 H 479.403 5.7095 -3.23036 0
M  V30 5314 H 479.32 5.70413 -4.96151 0
M  V30 5315 H 480.588 6.58823 -4.16621 0
M  V30 5316 N 484.817 1.37938 0.762283 0
M  V30 5317 C 485.75 1.2884 1.88349 0
M  V30 5318 C 486.728 0.167084 1.61739 0
M  V30 5319 O 487.912 0.34292 1.85355 0
M  V30 5320 C 485.039 0.994257 3.23778 0
M  V30 5321 C 484.085 2.13376 3.69287 0
M  V30 5322 S 484.918 3.75439 3.81845 0
M  V30 5323 C 486.074 3.48195 5.20107 0
M  V30 5324 H 486.307 2.23736 1.95779 0
M  V30 5325 H 483.84 1.23672 0.924368 0
M  V30 5326 H 485.798 0.83138 4.01993 0
M  V30 5327 H 484.459 0.0626251 3.14038 0
M  V30 5328 H 483.652 1.88319 4.67495 0
M  V30 5329 H 483.254 2.25726 2.98201 0
M  V30 5330 H 485.546 3.0377 6.05583 0
M  V30 5331 H 486.489 4.45765 5.50181 0
M  V30 5332 H 486.897 2.82905 4.88493 0
M  V30 5333 N 486.295 -0.989507 1.22664 0
M  V30 5334 C 487.205 -2.11449 1.01619 0
M  V30 5335 C 488.221 -1.73962 -0.036545 0
M  V30 5336 O 489.397 -2.00788 0.156924 0
M  V30 5337 C 486.462 -3.41465 0.600204 0
M  V30 5338 C 485.523 -3.93033 1.72695 0
M  V30 5339 C 484.756 -5.16844 1.33071 0
M  V30 5340 O 484.979 -5.7001 0.210975 0
M  V30 5341 O 483.913 -5.6225 2.14845 0
M  V30 5342 H 487.739 -2.32088 1.9588 0
M  V30 5343 H 485.324 -1.09823 1.01289 0
M  V30 5344 H 487.206 -4.19695 0.37873 0
M  V30 5345 H 485.881 -3.22178 -0.313511 0
M  V30 5346 H 484.788 -3.15961 2.00298 0
M  V30 5347 H 486.121 -4.16758 2.61865 0
M  V30 5348 N 487.773 -1.03688 -1.18687 0
M  V30 5349 C 488.703 -0.645407 -2.24403 0
M  V30 5350 C 489.684 0.349511 -1.66471 0
M  V30 5351 O 490.869 0.230453 -1.92828 0
M  V30 5352 C 487.999 -0.00365337 -3.473 0
M  V30 5353 C 486.953 -0.921705 -4.17958 0
M  V30 5354 C 486.279 -0.144629 -5.34504 0
M  V30 5355 C 487.579 -2.23909 -4.71871 0
M  V30 5356 H 489.273 -1.52917 -2.57404 0
M  V30 5357 H 486.819 -0.736711 -1.23728 0
M  V30 5358 H 488.772 0.281908 -4.20456 0
M  V30 5359 H 487.496 0.914963 -3.13522 0
M  V30 5360 H 486.155 -1.19159 -3.46694 0
M  V30 5361 H 485.803 0.776274 -4.96974 0
M  V30 5362 H 485.503 -0.756206 -5.82714 0
M  V30 5363 H 487.027 0.134004 -6.10453 0
M  V30 5364 H 488.441 -2.0145 -5.36741 0
M  V30 5365 H 486.838 -2.8033 -5.30599 0
M  V30 5366 H 487.908 -2.88822 -3.895 0
M  V30 5367 N 489.251 1.34841 -0.815825 0
M  V30 5368 C 490.476 2.03261 -0.41226 0
M  V30 5369 C 490.901 1.61055 0.971751 0
M  V30 5370 O 490.259 0.7917 1.63101 0
M  V30 5371 C 490.307 3.56914 -0.514289 0
M  V30 5372 O 489.411 4.09728 0.468675 0
M  V30 5373 H 488.752 0.641664 -0.170771 0
M  V30 5374 H 491.282 1.72241 -1.10427 0
M  V30 5375 H 491.292 4.06156 -0.387457 0
M  V30 5376 H 489.967 3.86982 -1.52375 0
M  V30 5377 H 488.544 3.71681 0.301316 0
M  V30 5378 N 490.729 0.570148 1.46925 0
M  V30 5379 C 491.659 -0.158274 2.32963 0
M  V30 5380 C 492.64 -0.896093 1.44583 0
M  V30 5381 O 493.825 -0.874022 1.7342 0
M  V30 5382 C 490.955 -1.18055 3.26619 0
M  V30 5383 C 489.909 -0.558379 4.24342 0
M  V30 5384 C 489.235 -1.68623 5.07415 0
M  V30 5385 C 490.535 0.496295 5.19937 0
M  V30 5386 H 492.229 0.560046 2.94115 0
M  V30 5387 H 489.775 0.270775 1.41431 0
M  V30 5388 H 491.728 -1.69841 3.85658 0
M  V30 5389 H 490.452 -1.92899 2.63548 0
M  V30 5390 H 489.111 -0.0617157 3.66548 0
M  V30 5391 H 488.759 -2.42402 4.40738 0
M  V30 5392 H 488.459 -1.27564 5.73586 0
M  V30 5393 H 489.983 -2.20709 5.69315 0
M  V30 5394 H 491.397 0.0640052 5.73264 0
M  V30 5395 H 489.794 0.82649 5.94381 0
M  V30 5396 H 490.864 1.38735 4.6463 0
M  V30 5397 N 492.207 -1.54576 0.307264 0
M  V30 5398 C 493.155 -2.25208 -0.581723 0
M  V30 5399 C 494.149 -1.26031 -1.13192 0
M  V30 5400 O 495.355 -1.43862 -1.08184 0
M  V30 5401 H 491.73 -0.723173 -0.206214 0
M  V30 5402 H 493.701 -2.98378 0.0364663 0
M  V30 5403 C 492.45 -3.01086 -1.73904 0
M  V30 5404 H 491.773 -3.77208 -1.32491 0
M  V30 5405 H 493.213 -3.5378 -2.33701 0
M  V30 5406 C 491.672 -2.08422 -2.64692 0
M  V30 5407 O 492.202 -1.65636 -3.65961 0
M  V30 5408 N 490.408 -1.74247 -2.32564 0
M  V30 5409 H 489.955 -2.09238 -1.50257 0
M  V30 5410 H 489.913 -1.12524 -2.93574 0
M  V30 5411 N 493.685 -0.035106 -1.57561 0
M  V30 5412 C 494.934 0.641604 -1.91223 0
M  V30 5413 C 495.247 1.72944 -0.913761 0
M  V30 5414 O 496.453 2.46321 -1.14185 0
M  V30 5415 C 494.909 1.19249 -3.3957 0
M  V30 5416 C 494.517 0.137616 -4.47789 0
M  V30 5417 C 496.261 1.84537 -3.82291 0
M  V30 5418 C 494.168 0.700478 -5.87237 0
M  V30 5419 H 493.098 0.243417 -0.713627 0
M  V30 5420 H 495.749 -0.101382 -1.8322 0
M  V30 5421 H 494.131 1.98728 -3.42525 0
M  V30 5422 H 495.305 -0.635153 -4.56402 0
M  V30 5423 H 493.62 -0.416855 -4.14308 0
M  V30 5424 H 496.217 2.27616 -4.83834 0
M  V30 5425 H 496.56 2.69054 -3.17672 0
M  V30 5426 H 497.093 1.11739 -3.81784 0
M  V30 5427 H 493.832 -0.106693 -6.55413 0
M  V30 5428 H 493.352 1.4416 -5.82218 0
M  V30 5429 H 495.031 1.18837 -6.35993 0
M  V30 5430 N 495.163 1.55791 0.238111 0
M  V30 5431 C 496.574 1.68383 0.806472 0
M  V30 5432 C 496.925 0.634157 1.85669 0
M  V30 5433 O 496.05 -0.217913 2.153 0
M  V30 5434 C 496.645 3.05268 1.46959 0
M  V30 5435 C 495.204 3.1977 1.98555 0
M  V30 5436 C 494.351 2.64279 0.839763 0
M  V30 5437 H 497.302 1.58694 0.0137535 0
M  V30 5438 H 497.323 3.00203 2.33792 0
M  V30 5439 H 496.835 3.81643 0.704993 0
M  V30 5440 H 494.936 2.48234 2.77868 0
M  V30 5441 H 495.049 4.26788 2.17689 0
M  V30 5442 H 493.413 2.22329 1.24265 0
M  V30 5443 H 494.196 3.43187 0.0881032 0
M  V30 5444 N 496.642 -0.504142 1.49319 0
M  V30 5445 C 497.888 -1.26033 1.58882 0
M  V30 5446 C 498.221 -1.92268 0.273274 0
M  V30 5447 O 497.496 -1.80567 -0.72291 0
M  V30 5448 C 497.779 -2.32976 2.7458 0
M  V30 5449 C 497.632 -1.71263 4.1592 0
M  V30 5450 C 498.951 -3.34561 2.85932 0
M  V30 5451 H 496.07 -0.456863 0.578312 0
M  V30 5452 H 498.712 -0.558965 1.81592 0
M  V30 5453 H 496.862 -2.92796 2.55348 0
M  V30 5454 H 498.534 -1.15294 4.4666 0
M  V30 5455 H 496.777 -1.01686 4.21714 0
M  V30 5456 H 497.448 -2.48816 4.92742 0
M  V30 5457 H 499.924 -2.84727 3.0343 0
M  V30 5458 H 498.8 -4.06754 3.68568 0
M  V30 5459 H 499.061 -3.96695 1.95154 0
M  V30 5460 N 498.12 -1.38341 -0.754957 0
M  V30 5461 C 499.068 -1.35573 -1.89005 0
M  V30 5462 C 500.062 -0.241824 -1.67665 0
M  V30 5463 O 501.268 -0.410785 -1.7525 0
M  V30 5464 H 497.643 -0.422898 -0.621821 0
M  V30 5465 H 499.614 -2.31359 -1.88455 0
M  V30 5466 C 498.363 -1.19631 -3.26471 0
M  V30 5467 H 497.686 -2.04605 -3.43477 0
M  V30 5468 H 499.126 -1.21748 -4.06144 0
M  V30 5469 C 497.585 0.0968705 -3.36761 0
M  V30 5470 O 498.115 1.07439 -3.87066 0
M  V30 5471 N 496.321 0.153242 -2.90196 0
M  V30 5472 H 495.868 -0.642908 -2.49448 0
M  V30 5473 H 495.826 1.01807 -2.9746 0
M  V30 5474 N 499.598 0.982988 -1.23187 0
M  V30 5475 C 500.548 2.05962 -0.977942 0
M  V30 5476 C 501.532 1.60725 0.0751148 0
M  V30 5477 O 502.724 1.76471 -0.136683 0
M  V30 5478 C 499.853 3.38564 -0.568276 0
M  V30 5479 C 498.939 3.90407 -1.6566 0
M  V30 5480 N 499.33 4.15359 -2.88635 0
M  V30 5481 C 497.628 4.18915 -1.53058 0
M  V30 5482 C 498.329 4.57642 -3.5908 0
M  V30 5483 N 497.305 4.6192 -2.86584 0
M  V30 5484 H 501.107 2.23208 -1.91195 0
M  V30 5485 H 498.621 1.16555 -1.13087 0
M  V30 5486 H 500.618 4.15276 -0.36764 0
M  V30 5487 H 499.278 3.22712 0.358713 0
M  V30 5488 H 500.289 4.03258 -3.24966 0
M  V30 5489 H 496.966 4.12081 -0.670506 0
M  V30 5490 H 498.356 4.85488 -4.6449 0
M  V30 5491 N 501.076 1.04316 1.18135 0
M  V30 5492 C 502.324 0.746542 1.87806 0
M  V30 5493 C 502.645 -0.728082 1.80898 0
M  V30 5494 O 501.915 -1.52554 1.22899 0
M  V30 5495 H 500.495 0.273157 0.695265 0
M  V30 5496 H 503.157 1.32044 1.43354 0
M  V30 5497 H 502.253 1.05362 2.93778 0
M  V30 5498 N 502.554 -1.34406 0.822964 0
M  V30 5499 C 503.965 -1.8069 0.469879 0
M  V30 5500 C 504.316 -1.68223 -1.00972 0
M  V30 5501 O 503.441 -1.22226 -1.78577 0
M  V30 5502 C 504.036 -3.28064 0.846118 0
M  V30 5503 C 502.595 -3.72428 0.545402 0
M  V30 5504 C 501.742 -2.56116 1.06301 0
M  V30 5505 H 504.693 -1.22153 1.01313 0
M  V30 5506 H 504.714 -3.80205 0.149922 0
M  V30 5507 H 504.226 -3.37107 1.92304 0
M  V30 5508 H 502.327 -3.68924 -0.522109 0
M  V30 5509 H 502.44 -4.66548 1.0895 0
M  V30 5510 H 500.804 -2.50048 0.484554 0
M  V30 5511 H 501.587 -2.67928 2.14638 0
M  V30 5512 N 504.032 -0.577932 -1.46621 0
M  V30 5513 C 504.964 0.195801 -2.28362 0
M  V30 5514 C 505.977 0.859983 -1.38232 0
M  V30 5515 O 507.166 0.730349 -1.62875 0
M  V30 5516 C 504.266 1.29639 -3.13124 0
M  V30 5517 C 503.439 0.725049 -4.31349 0
M  V30 5518 C 502.498 1.71274 -4.97546 0
M  V30 5519 O 501.524 1.25067 -5.5529 0
M  V30 5520 N 502.726 3.04672 -4.94121 0
M  V30 5521 H 505.491 -0.505468 -2.95407 0
M  V30 5522 H 503.052 -0.415381 -1.56481 0
M  V30 5523 H 505.044 1.95631 -3.54275 0
M  V30 5524 H 503.614 1.90059 -2.48186 0
M  V30 5525 H 502.834 -0.112205 -3.9404 0
M  V30 5526 H 504.122 0.323034 -5.07774 0
M  V30 5527 H 503.52 3.4484 -4.48444 0
M  V30 5528 H 502.077 3.66166 -5.39227 0
M  V30 5529 N 505.51 1.54411 -0.315457 0
M  V30 5530 C 506.42 2.27737 0.56329 0
M  V30 5531 C 507.436 1.31787 1.13614 0
M  V30 5532 O 508.612 1.64791 1.15784 0
M  V30 5533 C 505.677 3.01478 1.71207 0
M  V30 5534 C 504.738 4.12997 1.17185 0
M  V30 5535 C 503.971 4.83212 2.26588 0
M  V30 5536 O 504.194 4.52884 3.46775 0
M  V30 5537 O 503.128 5.70299 1.92463 0
M  V30 5538 H 506.954 3.03683 -0.0319614 0
M  V30 5539 H 504.539 1.49178 -0.0814188 0
M  V30 5540 H 506.421 3.47683 2.38106 0
M  V30 5541 H 505.096 2.28414 2.29366 0
M  V30 5542 H 504.003 3.71159 0.468174 0
M  V30 5543 H 505.336 4.8808 0.635501 0
M  V30 5544 N 506.988 0.0434614 1.5754 0
M  V30 5545 C 507.898 -0.94893 2.14552 0
M  V30 5546 C 508.914 -1.34707 1.10136 0
M  V30 5547 O 510.09 -1.42557 1.42266 0
M  V30 5548 C 507.155 -2.208 2.67298 0
M  V30 5549 C 506.216 -1.86893 3.86484 0
M  V30 5550 C 505.449 -3.06797 4.36705 0
M  V30 5551 O 505.672 -4.19921 3.86034 0
M  V30 5552 O 504.606 -2.8826 5.28384 0
M  V30 5553 H 508.432 -0.494099 2.99654 0
M  V30 5554 H 506.017 -0.177989 1.48336 0
M  V30 5555 H 507.899 -2.94686 3.01228 0
M  V30 5556 H 506.574 -2.65436 1.85272 0
M  V30 5557 H 505.481 -1.10347 3.57455 0
M  V30 5558 H 506.814 -1.47062 4.69716 0
M  V30 5559 N 508.466 -1.55915 -0.229846 0
M  V30 5560 C 509.691 -1.8296 -0.976743 0
M  V30 5561 C 510.116 -0.622735 -1.77493 0
M  V30 5562 O 509.474 0.428431 -1.76165 0
M  V30 5563 C 509.522 -3.07916 -1.8767 0
M  V30 5564 O 508.626 -2.86028 -2.97088 0
M  V30 5565 H 507.967 -0.603453 -0.277021 0
M  V30 5566 H 510.497 -2.0312 -0.245669 0
M  V30 5567 H 510.507 -3.37802 -2.2881 0
M  V30 5568 H 509.182 -3.95389 -1.28996 0
M  V30 5569 H 507.759 -2.67355 -2.59954 0
M  V30 5570 N 509.944 0.496216 -1.49584 0
M  V30 5571 C 511.184 1.26015 -1.60933 0
M  V30 5572 C 511.548 1.89772 -0.291646 0
M  V30 5573 O 512.749 2.67334 -0.280357 0
M  V30 5574 C 511.02 2.29506 -2.73974 0
M  V30 5575 S 512.579 3.15175 -3.05303 0
M  V30 5576 H 509.397 0.428194 -0.567601 0
M  V30 5577 H 511.999 0.561484 -1.87263 0
M  V30 5578 H 510.703 1.81205 -3.68229 0
M  V30 5579 H 510.234 3.04036 -2.49651 0
M  V30 5580 H 512.249 4.30244 -2.47193 0
M  V30 5581 N 511.423 1.38739 0.74761 0
M  V30 5582 C 512.671 1.35007 1.50391 0
M  V30 5583 C 512.992 -0.0574274 1.94915 0
M  V30 5584 O 512.262 -1.00628 1.6808 0
M  V30 5585 H 510.842 0.496784 0.557866 0
M  V30 5586 H 513.504 1.73479 0.888319 0
M  V30 5587 H 512.6 2.00474 2.392 0
M  V30 5588 N 512.901 -0.976442 1.23707 0
M  V30 5589 C 514.126 -1.75875 1.09922 0
M  V30 5590 C 514.551 -1.84911 -0.34489 0
M  V30 5591 O 513.909 -1.31363 -1.24954 0
M  V30 5592 C 513.957 -3.16179 1.73388 0
M  V30 5593 O 513.061 -4.00124 0.99871 0
M  V30 5594 H 512.402 -0.540954 0.385052 0
M  V30 5595 H 514.932 -1.22546 1.6384 0
M  V30 5596 H 514.942 -3.66741 1.78788 0
M  V30 5597 H 513.617 -3.08917 2.78466 0
M  V30 5598 H 512.194 -3.58624 1.02193 0
M  V30 5599 N 514.379 -1.04941 -1.1758 0
M  V30 5600 C 515.604 -0.778253 -1.92245 0
M  V30 5601 C 516.029 0.659707 -1.76152 0
M  V30 5602 O 515.387 1.45803 -1.07755 0
M  V30 5603 C 515.435 -1.16051 -3.41416 0
M  V30 5604 O 514.539 -0.291153 -4.11371 0
M  V30 5605 H 513.88 -0.285619 -0.599431 0
M  V30 5606 H 516.41 -1.40159 -1.49052 0
M  V30 5607 H 516.42 -1.12619 -3.92149 0
M  V30 5608 H 515.095 -2.208 -3.52449 0
M  V30 5609 H 513.672 -0.385851 -3.70898 0
M  V30 5610 N 515.857 1.33968 -0.830081 0
M  V30 5611 C 516.789 2.28194 -0.21448 0
M  V30 5612 C 517.802 1.5135 0.599752 0
M  V30 5613 O 518.991 1.73286 0.42826 0
M  V30 5614 C 516.091 3.31221 0.717356 0
M  V30 5615 C 515.264 4.37365 -0.055613 0
M  V30 5616 C 514.323 5.2011 0.798231 0
M  V30 5617 O 513.349 5.68691 0.240616 0
M  V30 5618 N 514.551 5.40523 2.11695 0
M  V30 5619 H 517.316 2.81662 -1.02405 0
M  V30 5620 H 514.877 1.46568 -0.687713 0
M  V30 5621 H 516.869 3.83477 1.29334 0
M  V30 5622 H 515.439 2.78095 1.42765 0
M  V30 5623 H 514.659 3.85727 -0.812936 0
M  V30 5624 H 515.947 5.05397 -0.587444 0
M  V30 5625 H 515.345 5.0274 2.59363 0
M  V30 5626 H 513.902 5.95871 2.64162 0
M  V30 5627 N 517.335 0.585699 1.46312 0
M  V30 5628 C 518.265 -0.133556 2.33118 0
M  V30 5629 C 519.246 -0.880707 1.45525 0
M  V30 5630 O 520.431 -0.855579 1.74337 0
M  V30 5631 C 517.561 -1.14585 3.27853 0
M  V30 5632 C 516.515 -0.513341 4.2491 0
M  V30 5633 C 515.841 -1.63231 5.09175 0
M  V30 5634 C 517.141 0.551413 5.19381 0
M  V30 5635 H 518.835 0.59121 2.93505 0
M  V30 5636 H 516.381 0.285761 1.41136 0
M  V30 5637 H 518.334 -1.65741 3.87438 0
M  V30 5638 H 517.058 -1.90093 2.65579 0
M  V30 5639 H 515.717 -0.0228349 3.66593 0
M  V30 5640 H 515.365 -2.37713 4.43285 0
M  V30 5641 H 515.065 -1.21473 5.74907 0
M  V30 5642 H 516.589 -2.14658 5.71624 0
M  V30 5643 H 518.003 0.124804 5.73164 0
M  V30 5644 H 516.4 0.889486 5.93471 0
M  V30 5645 H 517.47 1.43655 4.63132 0
M  V30 5646 N 518.813 -1.54241 0.323641 0
M  V30 5647 C 519.763 -2.21071 -0.557833 0
M  V30 5648 C 520.747 -1.19126 -1.08157 0
M  V30 5649 O 521.939 -1.44755 -1.01857 0
M  V30 5650 C 519.068 -2.97208 -1.71821 0
M  V30 5651 C 518.154 -4.06491 -1.20936 0
M  V30 5652 N 518.545 -5.04052 -0.420202 0
M  V30 5653 C 516.843 -4.20443 -1.48808 0
M  V30 5654 C 517.544 -5.81516 -0.146413 0
M  V30 5655 N 516.52 -5.38641 -0.732562 0
M  V30 5656 H 520.322 -2.93853 0.0523921 0
M  V30 5657 H 517.836 -1.61883 0.129502 0
M  V30 5658 H 519.833 -3.4357 -2.36146 0
M  V30 5659 H 518.493 -2.25947 -2.33191 0
M  V30 5660 H 519.504 -5.17862 -0.0630401 0
M  V30 5661 H 516.181 -3.60396 -2.10762 0
M  V30 5662 H 517.571 -6.70119 0.488895 0
M  V30 5663 N 520.291 -0.0518155 -1.57515 0
M  V30 5664 C 521.201 0.937539 -2.15052 0
M  V30 5665 C 522.217 1.34121 -1.10849 0
M  V30 5666 O 523.393 1.418 -1.4302 0
M  V30 5667 C 520.458 2.19379 -2.68466 0
M  V30 5668 C 519.519 1.84841 -3.87469 0
M  V30 5669 C 518.752 3.04477 -4.38326 0
M  V30 5670 O 518.975 4.17868 -3.88256 0
M  V30 5671 O 517.909 2.85453 -5.29906 0
M  V30 5672 H 521.735 0.478201 -2.99912 0
M  V30 5673 H 519.32 0.17012 -1.48428 0
M  V30 5674 H 521.202 2.93084 -3.02787 0
M  V30 5675 H 519.877 2.64449 -1.86677 0
M  V30 5676 H 518.784 1.08449 -3.58036 0
M  V30 5677 H 520.117 1.44569 -4.7049 0
M  V30 5678 N 521.769 1.56035 0.221574 0
M  V30 5679 C 522.717 1.93269 1.29421 0
M  V30 5680 C 523.711 0.814727 1.48521 0
M  V30 5681 O 524.917 0.999559 1.49696 0
M  V30 5682 H 521.292 0.614188 0.43391 0
M  V30 5683 H 523.263 2.82773 0.952987 0
M  V30 5684 C 522.012 2.26573 2.63742 0
M  V30 5685 H 521.335 3.12112 2.49853 0
M  V30 5686 H 522.775 2.5651 3.37607 0
M  V30 5687 C 521.234 1.09086 3.1875 0
M  V30 5688 O 521.764 0.351985 4.00155 0
M  V30 5689 N 519.97 0.874693 2.77124 0
M  V30 5690 H 519.517 1.47726 2.11033 0
M  V30 5691 H 519.475 0.0903349 3.1427 0
M  V30 5692 N 523.247 -0.488276 1.49845 0
M  V30 5693 C 524.472 -1.26997 1.63971 0
M  V30 5694 C 524.897 -1.85427 0.315994 0
M  V30 5695 O 524.255 -1.66475 -0.718032 0
M  V30 5696 C 524.303 -2.36689 2.72049 0
M  V30 5697 O 523.407 -3.40882 2.32107 0
M  V30 5698 H 522.748 -0.374376 0.548396 0
M  V30 5699 H 525.278 -0.583104 1.96115 0
M  V30 5700 H 525.288 -2.82262 2.94605 0
M  V30 5701 H 523.963 -1.93529 3.68129 0
M  V30 5702 H 522.54 -3.01139 2.19931 0
M  V30 5703 N 524.725 -1.39134 -0.740242 0
M  V30 5704 C 525.973 -1.35803 -1.49673 0
M  V30 5705 C 526.294 0.0470897 -1.94943 0
M  V30 5706 O 525.564 0.997347 -1.68611 0
M  V30 5707 H 524.144 -0.499736 -0.555224 0
M  V30 5708 H 526.806 -1.73947 -0.879107 0
M  V30 5709 H 525.902 -2.0174 -2.38133 0
M  V30 5710 N 526.204 0.969867 -1.24223 0
M  V30 5711 C 527.429 1.75289 -1.10853 0
M  V30 5712 C 527.854 1.85091 0.335079 0
M  V30 5713 O 527.212 1.32024 1.24255 0
M  V30 5714 C 527.26 3.15255 -1.75062 0
M  V30 5715 O 526.364 3.99589 -1.01992 0
M  V30 5716 H 525.705 0.538904 -0.387915 0
M  V30 5717 H 528.235 1.21675 -1.64488 0
M  V30 5718 H 528.245 3.65787 -1.80731 0
M  V30 5719 H 526.92 3.07436 -2.801 0
M  V30 5720 H 525.497 3.58077 -1.04094 0
M  V30 5721 N 527.682 1.05563 1.17022 0
M  V30 5722 C 529.093 0.793475 1.69 0
M  V30 5723 C 529.444 -0.683882 1.83895 0
M  V30 5724 O 528.569 -1.53116 1.5292 0
M  V30 5725 C 529.164 1.43376 3.06967 0
M  V30 5726 C 527.723 1.21956 3.56095 0
M  V30 5727 C 526.87 1.51494 2.3226 0
M  V30 5728 H 529.821 1.22008 1.01487 0
M  V30 5729 H 529.842 0.845068 3.70997 0
M  V30 5730 H 529.354 2.50899 2.96093 0
M  V30 5731 H 527.455 0.163749 3.7224 0
M  V30 5732 H 527.568 1.92713 4.38633 0
M  V30 5733 H 525.932 0.935175 2.3691 0
M  V30 5734 H 526.715 2.60159 2.23992 0
M  V30 5735 N 529.16 -1.33526 0.837174 0
M  V30 5736 C 530.07 -2.33023 0.271568 0
M  V30 5737 C 531.086 -1.63272 -0.601514 0
M  V30 5738 O 532.262 -1.94939 -0.506038 0
M  V30 5739 C 529.327 -3.42382 -0.545448 0
M  V30 5740 C 528.388 -4.27857 0.351709 0
M  V30 5741 C 527.621 -5.31994 -0.426409 0
M  V30 5742 O 527.844 -5.45763 -1.65828 0
M  V30 5743 O 526.778 -6.01572 0.1987 0
M  V30 5744 H 530.604 -2.83256 1.09545 0
M  V30 5745 H 528.189 -1.36837 0.599655 0
M  V30 5746 H 530.071 -4.09122 -1.00979 0
M  V30 5747 H 528.746 -2.94369 -1.34641 0
M  V30 5748 H 527.653 -3.6399 0.863853 0
M  V30 5749 H 528.986 -4.79349 1.1174 0
M  V30 5750 N 530.638 -0.59345 -1.46 0
M  V30 5751 C 531.866 -0.0890934 -2.06708 0
M  V30 5752 C 532.281 1.2205 -1.44046 0
M  V30 5753 O 531.638 1.74029 -0.549551 0
M  V30 5754 C 531.689 0.0720263 -3.61428 0
M  V30 5755 O 531.41 -1.18574 -4.21748 0
M  V30 5756 C 532.911 0.609487 -4.3909 0
M  V30 5757 H 530.131 -0.0623628 -0.668096 0
M  V30 5758 H 532.675 -0.817171 -1.87464 0
M  V30 5759 H 530.83 0.750369 -3.80063 0
M  V30 5760 H 531.244 -1.0064 -5.14754 0
M  V30 5761 H 532.718 0.671363 -5.47902 0
M  V30 5762 H 533.195 1.62878 -4.07882 0
M  V30 5763 H 533.801 -0.03434 -4.25286 0
M  V30 5764 N 532.116 1.54067 -0.331816 0
M  V30 5765 C 533.341 2.05599 0.272705 0
M  V30 5766 C 533.766 1.2059 1.44359 0
M  V30 5767 O 533.124 0.216907 1.79998 0
M  V30 5768 C 533.172 3.54188 0.677021 0
M  V30 5769 O 532.276 3.72082 1.77844 0
M  V30 5770 H 531.617 0.662286 0.0476801 0
M  V30 5771 H 534.147 1.98826 -0.482624 0
M  V30 5772 H 534.157 3.96608 0.957415 0
M  V30 5773 H 532.832 4.15513 -0.179325 0
M  V30 5774 H 531.409 3.41566 1.49622 0
M  V30 5775 N 533.594 0.0601682 1.57485 0
M  V30 5776 C 535.01 -0.296422 1.56823 0
M  V30 5777 C 535.21 -1.70831 1.0686 0
M  V30 5778 O 534.266 -2.4174 0.729245 0
M  V30 5779 C 535.579 -0.116681 3.00474 0
M  V30 5780 C 537.127 -0.187103 3.1244 0
M  V30 5781 C 537.602 -0.035783 4.57986 0
M  V30 5782 N 539.093 -0.0917676 4.63109 0
M  V30 5783 C 539.828 0.00107251 5.734 0
M  V30 5784 N 539.324 0.146773 6.92645 0
M  V30 5785 N 541.117 -0.0551577 5.62073 0
M  V30 5786 H 533.268 0.983055 1.88281 0
M  V30 5787 H 535.531 0.382386 0.867459 0
M  V30 5788 H 535.237 0.85712 3.41096 0
M  V30 5789 H 535.111 -0.873929 3.66936 0
M  V30 5790 H 537.498 -1.15138 2.71712 0
M  V30 5791 H 537.579 0.601052 2.48638 0
M  V30 5792 H 537.223 0.925212 4.99402 0
M  V30 5793 H 537.153 -0.843196 5.19806 0
M  V30 5794 H 539.644 -0.203261 3.77353 0
M  V30 5795 H 539.957 0.210076 7.72514 0
M  V30 5796 H 538.302 0.181979 6.94762 0
M  V30 5797 H 541.493 -0.167605 4.678 0
M  V30 5798 H 541.666 0.020652 6.47997 0
M  V30 5799 N 535.072 -1.5615 -0.213296 0
M  V30 5800 C 536.297 -1.83986 -0.957282 0
M  V30 5801 C 536.722 -0.641526 -1.76822 0
M  V30 5802 O 536.08 0.409722 -1.7661 0
M  V30 5803 C 536.128 -3.09889 -1.84393 0
M  V30 5804 O 535.232 -2.89163 -2.94038 0
M  V30 5805 H 534.573 -0.606357 -0.270605 0
M  V30 5806 H 537.103 -2.03369 -0.224111 0
M  V30 5807 H 537.113 -3.40209 -2.25215 0
M  V30 5808 H 535.788 -3.96735 -1.24795 0
M  V30 5809 H 534.365 -2.70097 -2.57103 0
M  V30 5810 N 536.55 0.480323 -1.50102 0
M  V30 5811 C 537.48 1.58769 -1.71215 0
M  V30 5812 C 538.461 1.60583 -0.560997 0
M  V30 5813 O 539.646 1.76996 -0.799127 0
M  V30 5814 C 536.776 2.97148 -1.79778 0
M  V30 5815 C 535.73 3.10201 -2.94888 0
M  V30 5816 C 535.056 4.50137 -2.88584 0
M  V30 5817 C 536.356 2.88283 -4.35534 0
M  V30 5818 H 538.05 1.41354 -2.6393 0
M  V30 5819 H 535.596 0.678591 -1.27008 0
M  V30 5820 H 537.549 3.74536 -1.93133 0
M  V30 5821 H 536.273 3.15699 -0.836772 0
M  V30 5822 H 534.932 2.35244 -2.81169 0
M  V30 5823 H 534.58 4.65593 -1.90349 0
M  V30 5824 H 534.28 4.59808 -3.65856 0
M  V30 5825 H 535.804 5.29558 -3.03976 0
M  V30 5826 H 537.218 3.55427 -4.49827 0
M  V30 5827 H 535.615 3.09408 -5.14186 0
M  V30 5828 H 536.685 1.84219 -4.48544 0
M  V30 5829 N 538.028 1.39524 0.732853 0
M  V30 5830 C 539.439 1.32905 1.31122 0
M  V30 5831 C 539.79 -0.00558708 1.96199 0
M  V30 5832 O 538.915 -0.907706 1.96443 0
M  V30 5833 C 539.51 2.40704 2.38426 0
M  V30 5834 C 538.069 2.37599 2.91931 0
M  V30 5835 C 537.216 2.2248 1.65523 0
M  V30 5836 H 540.167 1.49581 0.530207 0
M  V30 5837 H 540.188 2.07616 3.18867 0
M  V30 5838 H 539.7 3.37829 1.91033 0
M  V30 5839 H 537.801 1.44119 3.43599 0
M  V30 5840 H 537.914 3.32538 3.44899 0
M  V30 5841 H 536.278 1.69691 1.8994 0
M  V30 5842 H 537.061 3.21577 1.20178 0
M  V30 5843 N 539.506 -0.963266 1.24736 0
M  V30 5844 C 540.469 -2.04013 1.04457 0
M  V30 5845 C 541.469 -1.608 0.000335555 0
M  V30 5846 O 542.659 -1.72515 0.241719 0
M  V30 5847 C 539.791 -3.35858 0.584162 0
M  V30 5848 H 540.984 -2.23436 2.00041 0
M  V30 5849 H 538.537 -1.13914 1.07021 0
M  V30 5850 H 539.272 -3.22128 -0.374673 0
M  V30 5851 H 539.057 -3.68568 1.3379 0
M  V30 5852 H 540.547 -4.1502 0.463451 0
M  V30 5853 N 540.985 -1.06182 -1.16461 0
M  V30 5854 C 542.396 -0.802426 -1.68576 0
M  V30 5855 C 542.747 0.67412 -1.84255 0
M  V30 5856 O 541.872 1.52303 -1.5373 0
M  V30 5857 C 542.467 -1.45002 -3.06202 0
M  V30 5858 C 541.026 -1.23843 -3.55443 0
M  V30 5859 C 540.173 -1.52724 -2.31454 0
M  V30 5860 H 543.124 -1.22545 -1.00839 0
M  V30 5861 H 543.145 -0.864731 -3.70544 0
M  V30 5862 H 542.657 -2.52466 -2.94759 0
M  V30 5863 H 540.758 -0.183487 -3.72148 0
M  V30 5864 H 540.871 -1.95036 -4.37604 0
M  V30 5865 H 539.235 -0.947726 -2.36411 0
M  V30 5866 H 540.018 -2.61343 -2.22609 0
M  V30 5867 N 542.463 1.3308 -0.844243 0
M  V30 5868 C 543.395 2.27954 -0.238671 0
M  V30 5869 C 544.408 1.51978 0.583665 0
M  V30 5870 O 545.597 1.73731 0.409857 0
M  V30 5871 C 542.697 3.31963 0.682185 0
M  V30 5872 C 541.87 4.37281 -0.101998 0
M  V30 5873 C 540.929 5.20928 0.743022 0
M  V30 5874 O 539.955 5.68914 0.180285 0
M  V30 5875 N 541.157 5.42738 2.0595 0
M  V30 5876 H 543.922 2.8056 -1.05386 0
M  V30 5877 H 541.483 1.4583 -0.70322 0
M  V30 5878 H 543.475 3.84828 1.25259 0
M  V30 5879 H 542.045 2.79594 1.39808 0
M  V30 5880 H 541.265 3.84843 -0.853802 0
M  V30 5881 H 542.553 5.04746 -0.641015 0
M  V30 5882 H 541.951 5.05463 2.54016 0
M  V30 5883 H 540.508 5.98639 2.57827 0
M  V30 5884 N 543.941 0.601185 1.45683 0
M  V30 5885 C 545.218 0.0261659 1.95582 0
M  V30 5886 C 545.598 -1.4399 1.5437 0
M  V30 5887 O 544.946 -2.13919 0.80318 0
M  V30 5888 C 545.156 0.217557 3.48321 0
M  V30 5889 C 546.504 0.0950076 4.24494 0
M  V30 5890 O 547.528 0.147345 3.55895 0
M  V30 5891 O 546.387 -0.025261 5.46494 0
M  V30 5892 H 543.481 -0.0393688 0.826062 0
M  V30 5893 H 546.027 0.670798 1.55879 0
M  V30 5894 H 544.799 1.23601 3.71266 0
M  V30 5895 H 544.422 -0.46264 3.94899 0
M  V30 5896 N 545.419 -1.53889 0.339982 0
M  V30 5897 C 546.367 -2.26391 -0.533822 0
M  V30 5898 C 547.361 -1.28404 -1.10493 0
M  V30 5899 O 548.567 -1.46124 -1.05108 0
M  V30 5900 H 544.942 -0.727385 -0.190828 0
M  V30 5901 H 546.913 -2.98233 0.0997484 0
M  V30 5902 C 545.662 -3.04707 -1.67479 0
M  V30 5903 H 544.985 -3.79934 -1.2446 0
M  V30 5904 H 546.425 -3.58657 -2.26144 0
M  V30 5905 C 544.884 -2.13989 -2.60212 0
M  V30 5906 O 545.414 -1.73361 -3.62366 0
M  V30 5907 N 543.62 -1.79141 -2.28816 0
M  V30 5908 H 543.167 -2.12378 -1.45785 0
M  V30 5909 H 543.125 -1.18725 -2.91121 0
M  V30 5910 N 546.897 -0.0685191 -1.57451 0
M  V30 5911 C 548.174 0.642167 -1.84758 0
M  V30 5912 C 548.554 1.87991 -0.960344 0
M  V30 5913 O 547.902 2.28485 -0.0257894 0
M  V30 5914 C 548.112 0.982946 -3.34872 0
M  V30 5915 C 549.46 1.35784 -4.02303 0
M  V30 5916 O 550.484 1.07477 -3.39598 0
M  V30 5917 O 549.343 1.88681 -5.12895 0
M  V30 5918 H 546.437 0.318625 -0.763156 0
M  V30 5919 H 548.983 -0.0992015 -1.6941 0
M  V30 5920 H 547.755 0.10372 -3.91163 0
M  V30 5921 H 547.378 1.78119 -3.55471 0
M  V30 5922 N 548.375 1.56261 0.205012 0
M  V30 5923 C 549.622 1.8004 0.926927 0
M  V30 5924 C 549.95 0.640086 1.83666 0
M  V30 5925 O 549.205 -0.374702 1.92079 0
M  V30 5926 C 549.504 3.09722 1.78345 0
M  V30 5927 C 549.17 4.39082 1.02555 0
M  V30 5928 C 547.832 4.74226 0.816256 0
M  V30 5929 C 550.184 5.18877 0.491559 0
M  V30 5930 C 547.512 5.86668 0.0613287 0
M  V30 5931 C 549.864 6.32105 -0.250107 0
M  V30 5932 C 548.528 6.6584 -0.470508 0
M  V30 5933 H 547.798 0.658812 0.339187 0
M  V30 5934 H 550.445 1.90515 0.19395 0
M  V30 5935 H 548.75 2.9444 2.5848 0
M  V30 5936 H 550.447 3.25324 2.34446 0
M  V30 5937 H 547.037 4.11497 1.19868 0
M  V30 5938 H 551.221 4.92147 0.640684 0
M  V30 5939 H 546.477 6.11283 -0.119501 0
M  V30 5940 H 550.651 6.93157 -0.671307 0
M  V30 5941 H 548.278 7.5281 -1.05739 0
M  V30 5942 N 549.853 -0.472356 1.50355 0
M  V30 5943 C 550.783 -1.57859 1.72055 0
M  V30 5944 C 551.764 -1.60283 0.569505 0
M  V30 5945 O 552.949 -1.7657 0.808503 0
M  V30 5946 C 550.079 -2.96191 1.81351 0
M  V30 5947 C 549.033 -3.08633 2.96529 0
M  V30 5948 C 548.359 -4.486 2.90968 0
M  V30 5949 C 549.659 -2.85969 4.37057 0
M  V30 5950 H 551.353 -1.39953 2.64676 0
M  V30 5951 H 548.899 -0.671846 1.27367 0
M  V30 5952 H 550.852 -3.73507 1.95117 0
M  V30 5953 H 549.576 -3.15251 0.853502 0
M  V30 5954 H 548.235 -2.33749 2.82413 0
M  V30 5955 H 547.883 -4.64577 1.92815 0
M  V30 5956 H 547.583 -4.57861 3.68289 0
M  V30 5957 H 549.107 -5.27938 3.0678 0
M  V30 5958 H 550.521 -3.53036 4.51706 0
M  V30 5959 H 548.918 -3.06677 5.15819 0
M  V30 5960 H 549.988 -1.81838 4.49514 0
M  V30 5961 N 551.331 -1.39911 -0.725443 0
M  V30 5962 C 552.556 -1.41137 -1.5197 0
M  V30 5963 C 552.981 -0.010262 -1.88097 0
M  V30 5964 O 552.339 0.979184 -1.52583 0
M  V30 5965 C 552.387 -2.2994 -2.77777 0
M  V30 5966 O 551.491 -1.73586 -3.74088 0
M  V30 5967 H 550.832 -0.480219 -0.458569 0
M  V30 5968 H 553.362 -1.84023 -0.894249 0
M  V30 5969 H 553.372 -2.44785 -3.26411 0
M  V30 5970 H 552.047 -3.31759 -2.50816 0
M  V30 5971 H 550.624 -1.68035 -3.32894 0
M  V30 5972 N 552.809 0.956637 -1.25245 0
M  V30 5973 C 554.225 1.22733 -1.02023 0
M  V30 5974 C 554.425 1.99761 0.264186 0
M  V30 5975 O 553.481 2.32814 0.977436 0
M  V30 5976 C 554.794 2.00367 -2.24217 0
M  V30 5977 C 556.342 2.13418 -2.28958 0
M  V30 5978 C 556.817 2.9445 -3.50803 0
M  V30 5979 N 558.308 3.02029 -3.51187 0
M  V30 5980 C 559.043 3.65116 -4.42129 0
M  V30 5981 N 558.539 4.2983 -5.43339 0
M  V30 5982 N 560.332 3.62237 -4.29815 0
M  V30 5983 H 552.483 0.441282 -2.07765 0
M  V30 5984 H 554.746 0.257686 -0.912306 0
M  V30 5985 H 554.452 1.51165 -3.17556 0
M  V30 5986 H 554.326 3.01077 -2.27228 0
M  V30 5987 H 556.713 2.61819 -1.36143 0
M  V30 5988 H 556.794 1.1202 -2.29968 0
M  V30 5989 H 556.438 2.46741 -4.43939 0
M  V30 5990 H 556.368 3.9607 -3.47039 0
M  V30 5991 H 558.859 2.56007 -2.77973 0
M  V30 5992 H 559.172 4.75819 -6.08947 0
M  V30 5993 H 557.517 4.28465 -5.47214 0
M  V30 5994 H 560.708 3.10863 -3.49974 0
M  V30 5995 H 560.881 4.11117 -5.00886 0
M  V30 5996 N 554.287 1.06798 1.15896 0
M  V30 5997 C 555.234 0.683314 2.20453 0
M  V30 5998 C 556.204 -0.32255 1.62938 0
M  V30 5999 O 557.389 -0.210276 1.89638 0
M  V30 6000 C 554.529 0.0813266 3.45004 0
M  V30 6001 C 553.642 1.13799 4.16742 0
M  V30 6002 C 552.777 0.501598 5.28826 0
M  V30 6003 C 551.816 1.54144 5.92373 0
M  V30 6004 N 550.953 0.928038 6.9594 0
M  V30 6005 H 555.793 1.57932 2.52708 0
M  V30 6006 H 553.33 0.789544 1.24115 0
M  V30 6007 H 555.288 -0.285274 4.16224 0
M  V30 6008 H 553.918 -0.77806 3.13283 0
M  V30 6009 H 552.97 1.62223 3.44075 0
M  V30 6010 H 554.282 1.92664 4.60089 0
M  V30 6011 H 553.436 0.0823162 6.06644 0
M  V30 6012 H 552.175 -0.318883 4.86656 0
M  V30 6013 H 551.18 1.97056 5.13273 0
M  V30 6014 H 552.405 2.3641 6.36621 0
M  V30 6015 H 550.351 0.12836 6.55874 0
M  V30 6016 H 550.268 1.65401 7.37685 0
M  V30 6017 H 551.536 0.534071 7.77668 0
M  V30 6018 N 555.766 -1.3263 0.851289 0
M  V30 6019 C 556.729 -2.27247 0.298541 0
M  V30 6020 C 557.729 -1.51467 -0.539847 0
M  V30 6021 O 558.919 -1.7061 -0.351843 0
M  V30 6022 C 556.051 -3.35964 -0.578004 0
M  V30 6023 H 557.244 -2.7765 1.13359 0
M  V30 6024 H 554.797 -1.43245 0.625354 0
M  V30 6025 H 555.532 -2.90823 -1.435 0
M  V30 6026 H 555.317 -3.92094 0.0220539 0
M  V30 6027 H 556.807 -4.06472 -0.957626 0
M  V30 6028 N 557.244 -0.608902 -1.45362 0
M  V30 6029 C 558.176 0.147318 -2.28726 0
M  V30 6030 C 559.189 0.830468 -1.40025 0
M  V30 6031 O 560.378 0.695636 -1.64387 0
M  V30 6032 C 557.478 1.22968 -3.15804 0
M  V30 6033 C 556.651 0.633391 -4.3279 0
M  V30 6034 C 555.71 1.60682 -5.01067 0
M  V30 6035 O 554.736 1.13261 -5.57818 0
M  V30 6036 N 555.938 2.94123 -5.00472 0
M  V30 6037 H 558.703 -0.568014 -2.94268 0
M  V30 6038 H 556.264 -0.448479 -1.55564 0
M  V30 6039 H 558.256 1.88072 -3.58345 0
M  V30 6040 H 556.826 1.84752 -2.52162 0
M  V30 6041 H 556.046 -0.195762 -3.93714 0
M  V30 6042 H 557.334 0.215255 -5.08344 0
M  V30 6043 H 556.732 3.3525 -4.55657 0
M  V30 6044 H 555.289 3.54646 -5.46872 0
M  V30 6045 N 558.722 1.53707 -0.348139 0
M  V30 6046 C 559.999 1.93247 0.302475 0
M  V30 6047 C 560.379 1.28012 1.67857 0
M  V30 6048 O 559.727 0.43274 2.24365 0
M  V30 6049 C 559.937 3.47031 0.370159 0
M  V30 6050 C 561.285 4.20066 0.61882 0
M  V30 6051 O 562.309 3.53319 0.452087 0
M  V30 6052 O 561.168 5.38318 0.94215 0
M  V30 6053 H 558.262 0.807736 0.177458 0
M  V30 6054 H 560.808 1.64927 -0.399651 0
M  V30 6055 H 559.58 3.86745 -0.59534 0
M  V30 6056 H 559.203 3.81532 1.11888 0
M  V30 6057 N 560.2 0.0768682 1.57412 0
M  V30 6058 C 561.44 -0.594676 1.95558 0
M  V30 6059 C 561.804 -1.66469 0.956658 0
M  V30 6060 O 563.005 -2.39215 1.22595 0
M  V30 6061 C 561.276 -1.15206 3.38323 0
M  V30 6062 S 562.835 -1.83803 3.9845 0
M  V30 6063 H 559.653 -0.194579 0.683857 0
M  V30 6064 H 562.255 0.151933 1.94909 0
M  V30 6065 H 560.959 -0.36153 4.08805 0
M  V30 6066 H 560.49 -1.93491 3.42527 0
M  V30 6067 H 562.505 -3.12087 3.85767 0
M  V30 6068 N 561.678 -1.56367 -0.196722 0
M  V30 6069 C 562.908 -1.84371 -0.932254 0
M  V30 6070 C 563.316 -0.657013 -1.77426 0
M  V30 6071 O 562.659 0.383576 -1.79651 0
M  V30 6072 C 562.721 -3.06454 -1.87952 0
M  V30 6073 C 562.385 -4.40425 -1.21962 0
M  V30 6074 C 563.382 -5.16457 -0.597343 0
M  V30 6075 C 561.067 -4.8716 -1.22396 0
M  V30 6076 C 563.061 -6.37399 0.0117913 0
M  V30 6077 C 560.748 -6.08038 -0.610995 0
M  V30 6078 C 561.746 -6.83 0.00580487 0
M  V30 6079 O 561.434 -8.01589 0.609173 0
M  V30 6080 H 561.166 -0.616377 -0.277589 0
M  V30 6081 H 563.72 -2.04329 -0.209452 0
M  V30 6082 H 561.95 -2.82377 -2.64197 0
M  V30 6083 H 563.639 -3.21118 -2.48271 0
M  V30 6084 H 564.405 -4.81445 -0.586142 0
M  V30 6085 H 560.284 -4.2877 -1.69345 0
M  V30 6086 H 563.828 -6.9585 0.493836 0
M  V30 6087 H 559.725 -6.42519 -0.619693 0
M  V30 6088 H 560.493 -8.16935 0.505919 0
M  V30 6089 N 563.156 0.464375 -1.50603 0
M  V30 6090 C 564.403 1.21596 -1.61928 0
M  V30 6091 C 564.731 1.91804 -0.322737 0
M  V30 6092 O 563.986 1.83065 0.691776 0
M  V30 6093 C 564.285 2.278 -2.75394 0
M  V30 6094 C 563.951 1.74797 -4.1564 0
M  V30 6095 C 562.613 1.60063 -4.53799 0
M  V30 6096 C 564.965 1.35548 -5.03266 0
M  V30 6097 C 562.293 1.04514 -5.77316 0
M  V30 6098 C 564.645 0.814381 -6.27336 0
M  V30 6099 C 563.309 0.653726 -6.64291 0
M  V30 6100 H 562.579 0.444951 -0.592536 0
M  V30 6101 H 565.226 0.510964 -1.84557 0
M  V30 6102 H 563.531 3.04233 -2.46879 0
M  V30 6103 H 565.228 2.85723 -2.81359 0
M  V30 6104 H 561.818 1.87234 -3.8554 0
M  V30 6105 H 566.002 1.45763 -4.74412 0
M  V30 6106 H 561.258 0.908186 -6.04617 0
M  V30 6107 H 565.432 0.501626 -6.94591 0
M  V30 6108 H 563.059 0.22114 -7.59878 0
M  V30 6109 N 564.634 1.40294 0.718013 0
M  V30 6110 C 565.567 1.34767 1.84155 0
M  V30 6111 C 566.545 0.218455 1.61126 0
M  V30 6112 O 567.729 0.401716 1.8417 0
M  V30 6113 C 564.856 1.09676 3.20451 0
M  V30 6114 C 563.902 2.25016 3.62312 0
M  V30 6115 S 564.735 3.87397 3.69707 0
M  V30 6116 C 565.891 3.64565 5.08766 0
M  V30 6117 H 566.124 2.29851 1.88562 0
M  V30 6118 H 563.657 1.2655 0.884555 0
M  V30 6119 H 565.615 0.95885 3.99144 0
M  V30 6120 H 564.276 0.162502 3.13679 0
M  V30 6121 H 563.469 2.03097 4.61268 0
M  V30 6122 H 563.071 2.35098 2.90869 0
M  V30 6123 H 565.363 3.22882 5.95612 0
M  V30 6124 H 566.306 4.63043 5.35721 0
M  V30 6125 H 566.714 2.98303 4.79245 0
M  V30 6126 N 566.112 -0.949982 1.2575 0
M  V30 6127 C 567.059 -2.04738 1.06541 0
M  V30 6128 C 568.029 -1.66078 -0.0268818 0
M  V30 6129 O 569.214 -1.90348 0.131196 0
M  V30 6130 C 566.354 -3.38027 0.695127 0
M  V30 6131 C 565.467 -3.89776 1.86276 0
M  V30 6132 C 564.602 -5.11411 1.4364 0
M  V30 6133 C 563.641 -5.554 2.57287 0
M  V30 6134 N 562.778 -6.68244 2.15395 0
M  V30 6135 H 567.618 -2.20502 2.00457 0
M  V30 6136 H 565.155 -1.0805 0.998178 0
M  V30 6137 H 567.113 -4.14641 0.461375 0
M  V30 6138 H 565.743 -3.22135 -0.207046 0
M  V30 6139 H 564.795 -3.0964 2.20969 0
M  V30 6140 H 566.107 -4.18368 2.71606 0
M  V30 6141 H 565.261 -5.95457 1.16257 0
M  V30 6142 H 564 -4.84545 0.553879 0
M  V30 6143 H 563.005 -4.69916 2.85409 0
M  V30 6144 H 564.23 -5.84272 3.46125 0
M  V30 6145 H 562.176 -6.43078 1.29565 0
M  V30 6146 H 562.093 -6.96377 2.94272 0
M  V30 6147 H 563.361 -7.55687 1.91201 0
M  V30 6148 N 567.59 -1.07411 -1.15328 0
M  V30 6149 C 568.52 -0.716472 -2.22236 0
M  V30 6150 C 569.501 0.296373 -1.67498 0
M  V30 6151 O 570.686 0.168989 -1.93463 0
M  V30 6152 C 567.816 -0.114142 -3.47112 0
M  V30 6153 C 566.77 -1.05421 -4.14814 0
M  V30 6154 C 566.096 -0.314604 -5.33774 0
M  V30 6155 C 567.396 -2.38808 -4.64508 0
M  V30 6156 H 569.09 -1.61029 -2.52408 0
M  V30 6157 H 566.636 -0.775702 -1.21321 0
M  V30 6158 H 568.589 0.148001 -4.2114 0
M  V30 6159 H 567.313 0.814755 -3.16274 0
M  V30 6160 H 565.972 -1.30128 -3.42728 0
M  V30 6161 H 565.62 0.617772 -4.99192 0
M  V30 6162 H 565.32 -0.941209 -5.80013 0
M  V30 6163 H 566.844 -0.0602747 -6.1057 0
M  V30 6164 H 568.258 -2.18424 -5.3006 0
M  V30 6165 H 566.655 -2.97069 -5.21412 0
M  V30 6166 H 567.725 -3.01067 -3.80114 0
M  V30 6167 N 569.068 1.32177 -0.85831 0
M  V30 6168 C 570.018 2.26307 -0.277307 0
M  V30 6169 C 571.002 1.50123 0.578946 0
M  V30 6170 O 572.194 1.71754 0.427731 0
M  V30 6171 C 569.323 3.39181 0.530232 0
M  V30 6172 C 568.409 4.22746 -0.338613 0
M  V30 6173 N 568.8 4.85265 -1.4266 0
M  V30 6174 C 567.098 4.45813 -0.129 0
M  V30 6175 C 567.799 5.47634 -1.96142 0
M  V30 6176 N 566.775 5.28794 -1.26007 0
M  V30 6177 H 570.577 2.72173 -1.10902 0
M  V30 6178 H 568.091 1.46308 -0.704816 0
M  V30 6179 H 570.088 4.05628 0.962904 0
M  V30 6180 H 568.748 2.9486 1.35969 0
M  V30 6181 H 569.759 4.85259 -1.80953 0
M  V30 6182 H 566.436 4.12163 0.665451 0
M  V30 6183 H 567.826 6.0735 -2.8736 0
M  V30 6184 N 570.547 0.616602 1.45037 0
M  V30 6185 C 571.497 -0.118543 2.27692 0
M  V30 6186 C 572.481 -0.830025 1.37838 0
M  V30 6187 O 573.673 -0.718528 1.6176 0
M  V30 6188 C 570.802 -1.10924 3.24886 0
M  V30 6189 C 569.888 -0.398134 4.22227 0
M  V30 6190 N 570.279 0.565233 5.02632 0
M  V30 6191 C 568.577 -0.644506 4.41319 0
M  V30 6192 C 569.278 0.984043 5.73316 0
M  V30 6193 N 568.254 0.325879 5.42622 0
M  V30 6194 H 572.056 0.621239 2.87259 0
M  V30 6195 H 569.57 0.440968 1.56299 0
M  V30 6196 H 571.567 -1.65038 3.82842 0
M  V30 6197 H 570.227 -1.84948 2.66879 0
M  V30 6198 H 571.238 0.942395 5.09254 0
M  V30 6199 H 567.915 -1.36873 3.94426 0
M  V30 6200 H 569.305 1.77911 6.47918 0
M  V30 6201 N 572.025 -1.5352 0.356285 0
M  V30 6202 C 573.265 -2.03027 -0.23649 0
M  V30 6203 C 573.629 -1.23813 -1.46746 0
M  V30 6204 O 574.83 -1.63281 -2.13525 0
M  V30 6205 C 573.101 -3.53442 -0.530415 0
M  V30 6206 S 574.66 -4.24836 -1.09819 0
M  V30 6207 H 571.478 -0.707591 -0.0695378 0
M  V30 6208 H 574.08 -1.89077 0.496999 0
M  V30 6209 H 572.784 -4.087 0.373114 0
M  V30 6210 H 572.315 -3.71536 -1.29323 0
M  V30 6211 H 574.33 -4.35228 -2.38309 0
M  V30 6212 N 573.503 -0.0852151 -1.57369 0
M  V30 6213 C 574.914 0.445428 -1.81309 0
M  V30 6214 C 575.265 1.68795 -1.00013 0
M  V30 6215 O 574.39 2.15211 -0.226573 0
M  V30 6216 C 574.985 0.814887 -3.28854 0
M  V30 6217 C 573.544 1.29032 -3.53592 0
M  V30 6218 C 572.691 0.282089 -2.75861 0
M  V30 6219 H 575.642 -0.310771 -1.55627 0
M  V30 6220 H 575.663 1.67524 -3.41637 0
M  V30 6221 H 575.175 -0.0896309 -3.87996 0
M  V30 6222 H 573.276 2.21289 -2.9977 0
M  V30 6223 H 573.389 1.25898 -4.62262 0
M  V30 6224 H 571.753 0.762182 -2.43029 0
M  V30 6225 H 572.536 -0.614936 -3.37748 0
M  V30 6226 N 574.981 1.5647 0.188427 0
M  V30 6227 C 576.229 1.80655 0.905986 0
M  V30 6228 C 576.55 0.659391 1.83513 0
M  V30 6229 O 575.82 -0.321868 1.93238 0
M  V30 6230 H 574.4 0.666391 0.337538 0
M  V30 6231 H 577.062 1.93949 0.192339 0
M  V30 6232 H 576.158 2.74066 1.49313 0
M  V30 6233 N 576.459 -0.456382 1.50847 0
M  V30 6234 C 577.407 -1.57318 1.71329 0
M  V30 6235 C 578.401 -1.59187 0.579287 0
M  V30 6236 O 579.607 -1.6316 0.76018 0
M  V30 6237 H 575.982 -0.5223 0.541024 0
M  V30 6238 H 577.953 -1.3721 2.64983 0
M  V30 6239 C 576.702 -2.95142 1.83811 0
M  V30 6240 H 576.025 -2.94428 2.70467 0
M  V30 6241 H 577.465 -3.72702 2.02161 0
M  V30 6242 C 575.924 -3.31636 0.593224 0
M  V30 6243 O 576.454 -4.00852 -0.260898 0
M  V30 6244 N 574.66 -2.87205 0.442902 0
M  V30 6245 H 574.207 -2.31051 1.13901 0
M  V30 6246 H 574.165 -3.11986 -0.38884 0
M  V30 6247 N 577.937 -1.40673 -0.710563 0
M  V30 6248 C 578.887 -1.37812 -1.81636 0
M  V30 6249 C 579.871 -0.254853 -1.58869 0
M  V30 6250 O 581.063 -0.494356 -1.69956 0
M  V30 6251 C 578.192 -1.24802 -3.19811 0
M  V30 6252 C 577.278 -2.41931 -3.48325 0
M  V30 6253 N 577.669 -3.67411 -3.47625 0
M  V30 6254 C 575.967 -2.35419 -3.78806 0
M  V30 6255 C 576.668 -4.45008 -3.74623 0
M  V30 6256 N 575.644 -3.74916 -3.93623 0
M  V30 6257 H 579.446 -2.32766 -1.79436 0
M  V30 6258 H 576.96 -1.34516 -0.909909 0
M  V30 6259 H 578.957 -1.20835 -3.99004 0
M  V30 6260 H 577.617 -0.308202 -3.23234 0
M  V30 6261 H 578.628 -4.00503 -3.28356 0
M  V30 6262 H 575.305 -1.4983 -3.89689 0
M  V30 6263 H 576.695 -5.53884 -3.80344 0
M  V30 6264 N 579.415 0.9433 -1.26252 0
M  V30 6265 C 580.64 1.72898 -1.14547 0
M  V30 6266 C 581.065 1.85761 0.295743 0
M  V30 6267 O 580.423 1.3463 1.21427 0
M  V30 6268 C 580.471 3.11471 -1.8171 0
M  V30 6269 O 579.575 3.97336 -1.10445 0
M  V30 6270 H 578.916 0.530555 -0.399259 0
M  V30 6271 H 581.446 1.18159 -1.67032 0
M  V30 6272 H 581.456 3.61872 -1.88449 0
M  V30 6273 H 580.131 3.01425 -2.86558 0
M  V30 6274 H 578.708 3.55788 -1.11666 0
M  V30 6275 N 580.893 1.08022 1.14757 0
M  V30 6276 C 582.139 0.818552 1.86202 0
M  V30 6277 C 582.494 -0.648563 1.81139 0
M  V30 6278 O 581.787 -1.4704 1.22841 0
M  V30 6279 C 581.981 1.26964 3.34088 0
M  V30 6280 C 581.81 2.77907 3.5355 0
M  V30 6281 C 580.58 3.45604 3.68627 0
M  V30 6282 C 582.778 3.7609 3.50801 0
M  V30 6283 N 580.76 4.85119 3.76209 0
M  V30 6284 C 582.131 5.0148 3.64579 0
M  V30 6285 C 584.186 3.6915 3.34115 0
M  V30 6286 C 582.889 6.20755 3.63395 0
M  V30 6287 C 584.915 4.87896 3.34233 0
M  V30 6288 C 584.277 6.12123 3.48547 0
M  V30 6289 H 580.376 0.352186 0.698204 0
M  V30 6290 H 582.96 1.37781 1.37567 0
M  V30 6291 H 581.131 0.738008 3.81324 0
M  V30 6292 H 582.863 0.954806 3.93275 0
M  V30 6293 H 579.618 2.96016 3.69691 0
M  V30 6294 H 580.042 5.57748 3.83726 0
M  V30 6295 H 584.684 2.74045 3.21961 0
M  V30 6296 H 582.402 7.16175 3.74326 0
M  V30 6297 H 585.988 4.8421 3.2254 0
M  V30 6298 H 584.868 7.02468 3.48581 0
M  V30 6299 N 582.371 -1.3172 0.865308 0
M  V30 6300 C 583.648 -1.91574 0.394789 0
M  V30 6301 C 584.028 -1.78769 -1.12271 0
M  V30 6302 O 583.376 -1.19245 -1.94918 0
M  V30 6303 C 583.586 -3.37957 0.870982 0
M  V30 6304 C 584.934 -4.15073 0.894384 0
M  V30 6305 O 585.958 -3.4672 0.816325 0
M  V30 6306 O 584.817 -5.37151 1.00651 0
M  V30 6307 H 581.911 -0.818649 0.117229 0
M  V30 6308 H 584.457 -1.4042 0.952913 0
M  V30 6309 H 583.229 -3.41269 1.91444 0
M  V30 6310 H 582.852 -3.96534 0.290907 0
M  V30 6311 N 583.85 -0.624285 -1.44708 0
M  V30 6312 C 585.075 -0.131171 -2.06985 0
M  V30 6313 C 585.5 1.18234 -1.46295 0
M  V30 6314 O 584.858 1.72375 -0.561842 0
M  V30 6315 C 584.906 -0.0226724 -3.60593 0
M  V30 6316 O 584.01 1.02314 -3.99507 0
M  V30 6317 H 583.351 -0.0816556 -0.65896 0
M  V30 6318 H 585.88 -0.859027 -1.85693 0
M  V30 6319 H 585.891 0.170138 -4.07645 0
M  V30 6320 H 584.566 -0.981685 -4.04148 0
M  V30 6321 H 583.143 0.805452 -3.64097 0
M  V30 6322 N 585.328 1.53329 -0.364422 0
M  V30 6323 C 586.556 2.05657 0.226424 0
M  V30 6324 C 586.971 1.23801 1.42544 0
M  V30 6325 O 586.328 0.27839 1.80364 0
M  V30 6326 C 586.379 3.56125 0.621056 0
M  V30 6327 O 586.1 4.34879 -0.530304 0
M  V30 6328 C 587.601 4.24706 1.27041 0
M  V30 6329 H 584.821 0.669806 0.0400056 0
M  V30 6330 H 587.365 1.97714 -0.522456 0
M  V30 6331 H 585.52 3.64223 1.31985 0
M  V30 6332 H 585.934 5.24073 -0.211546 0
M  V30 6333 H 587.408 5.3131 1.49711 0
M  V30 6334 H 587.885 3.78354 2.23036 0
M  V30 6335 H 588.491 4.20858 0.613079 0
M  V30 6336 N 586.806 0.0935595 1.57322 0
M  V30 6337 C 588.055 -0.570191 1.93473 0
M  V30 6338 C 588.368 -1.69434 0.977318 0
M  V30 6339 O 589.574 -2.41914 1.23248 0
M  V30 6340 C 588.03 -1.06564 3.43762 0
M  V30 6341 C 587.638 0.0286723 4.47991 0
M  V30 6342 C 589.382 -1.70221 3.88877 0
M  V30 6343 C 587.289 -0.482046 5.89432 0
M  V30 6344 H 586.219 -0.216764 0.72217 0
M  V30 6345 H 588.87 0.169313 1.82717 0
M  V30 6346 H 587.252 -1.85878 3.49664 0
M  V30 6347 H 588.426 0.804106 4.5373 0
M  V30 6348 H 586.741 0.570336 4.12476 0
M  V30 6349 H 589.338 -2.09502 4.91948 0
M  V30 6350 H 589.681 -2.57078 3.27439 0
M  V30 6351 H 590.214 -0.974919 3.85668 0
M  V30 6352 H 586.953 0.349871 6.54566 0
M  V30 6353 H 586.473 -1.22452 5.87167 0
M  V30 6354 H 588.152 -0.951508 6.39965 0
M  V30 6355 N 588.284 -1.56567 -0.180126 0
M  V30 6356 C 589.509 -1.85975 -0.918041 0
M  V30 6357 C 589.934 -0.678888 -1.75422 0
M  V30 6358 O 589.292 0.372168 -1.77439 0
M  V30 6359 C 589.34 -3.13731 -1.77779 0
M  V30 6360 O 588.444 -2.95335 -2.87838 0
M  V30 6361 H 587.785 -0.61196 -0.257683 0
M  V30 6362 H 590.315 -2.03798 -0.180923 0
M  V30 6363 H 590.325 -3.4491 -2.17948 0
M  V30 6364 H 589 -3.99293 -1.16352 0
M  V30 6365 H 587.577 -2.7549 -2.51316 0
M  V30 6366 N 589.762 0.448376 -1.51087 0
M  V30 6367 C 591.01 1.19635 -1.62886 0
M  V30 6368 C 591.331 1.91977 -0.342024 0
M  V30 6369 O 590.601 1.85094 0.641636 0
M  V30 6370 H 589.181 0.444598 -0.600285 0
M  V30 6371 H 591.843 0.515138 -1.87969 0
M  V30 6372 H 590.939 1.93194 -2.45117 0
M  V30 6373 N 591.24 1.41047 0.703093 0
M  V30 6374 C 592.465 1.43537 1.49706 0
M  V30 6375 C 592.89 0.0401853 1.88057 0
M  V30 6376 O 592.248 -0.954785 1.54122 0
M  V30 6377 C 592.296 2.3433 2.74084 0
M  V30 6378 O 591.4 1.79515 3.71279 0
M  V30 6379 H 590.741 0.487454 0.450871 0
M  V30 6380 H 593.271 1.85422 0.86486 0
M  V30 6381 H 593.281 2.49947 3.22476 0
M  V30 6382 H 591.956 3.35708 2.45506 0
M  V30 6383 H 590.533 1.7331 3.30179 0
M  V30 6384 N 592.718 -0.936591 1.26751 0
M  V30 6385 C 593.65 -2.03991 1.045 0
M  V30 6386 C 594.663 -1.628 0.00394261 0
M  V30 6387 O 595.852 -1.76817 0.244526 0
M  V30 6388 C 592.952 -3.34218 0.561403 0
M  V30 6389 C 592.125 -4.04151 1.67274 0
M  V30 6390 C 591.184 -5.12651 1.1864 0
M  V30 6391 O 590.21 -5.37104 1.88437 0
M  V30 6392 N 591.412 -5.80488 0.037278 0
M  V30 6393 H 594.177 -2.23644 1.99508 0
M  V30 6394 H 591.738 -1.10638 1.18198 0
M  V30 6395 H 593.73 -4.04101 0.220136 0
M  V30 6396 H 592.3 -3.11203 -0.295211 0
M  V30 6397 H 591.52 -3.28121 2.18472 0
M  V30 6398 H 592.808 -4.47626 2.41885 0
M  V30 6399 H 592.206 -5.63064 -0.545494 0
M  V30 6400 H 590.763 -6.5134 -0.244877 0
M  V30 6401 N 594.196 -1.08629 -1.14182 0
M  V30 6402 C 595.612 -0.814363 -1.3726 0
M  V30 6403 C 595.812 0.575271 -1.93114 0
M  V30 6404 O 594.868 1.33165 -2.1453 0
M  V30 6405 C 596.181 -1.8989 -2.33157 0
M  V30 6406 C 597.729 -1.92518 -2.46791 0
M  V30 6407 C 598.204 -3.00092 -3.45989 0
M  V30 6408 N 599.695 -2.99279 -3.53534 0
M  V30 6409 C 600.43 -3.79158 -4.30147 0
M  V30 6410 N 599.926 -4.68923 -5.09983 0
M  V30 6411 N 601.719 -3.67451 -4.25366 0
M  V30 6412 H 593.87 -1.98232 -0.762758 0
M  V30 6413 H 596.133 -0.860383 -0.398051 0
M  V30 6414 H 595.839 -2.89809 -1.99257 0
M  V30 6415 H 595.713 -1.77013 -3.33086 0
M  V30 6416 H 598.1 -0.932425 -2.79982 0
M  V30 6417 H 598.181 -2.09473 -1.46816 0
M  V30 6418 H 597.825 -3.99575 -3.13532 0
M  V30 6419 H 597.755 -2.80382 -4.45751 0
M  V30 6420 H 600.246 -2.3422 -2.96563 0
M  V30 6421 H 600.559 -5.26475 -5.65724 0
M  V30 6422 H 598.904 -4.72964 -5.09244 0
M  V30 6423 H 602.095 -2.9669 -3.62067 0
M  V30 6424 H 602.268 -4.29944 -4.84822 0
M  V30 6425 N 595.674 1.31259 -0.872281 0
M  V30 6426 C 596.637 2.26744 -0.334656 0
M  V30 6427 C 597.637 1.52307 0.515681 0
M  V30 6428 O 598.827 1.71148 0.324656 0
M  V30 6429 C 595.959 3.36841 0.524482 0
M  V30 6430 H 597.152 2.75812 -1.17762 0
M  V30 6431 H 594.705 1.42232 -0.648064 0
M  V30 6432 H 595.44 2.93069 1.38855 0
M  V30 6433 H 595.225 3.92009 -0.0844299 0
M  V30 6434 H 596.715 4.07944 0.892838 0
M  V30 6435 N 597.152 0.631951 1.44375 0
M  V30 6436 C 598.115 -0.0628142 2.29114 0
M  V30 6437 C 599.115 -0.771494 1.41084 0
M  V30 6438 O 600.305 -0.615959 1.62947 0
M  V30 6439 C 597.437 -1.09953 3.22681 0
M  V30 6440 H 598.63 0.682509 2.92031 0
M  V30 6441 H 596.183 0.392128 1.51301 0
M  V30 6442 H 596.918 -1.87481 2.64616 0
M  V30 6443 H 596.703 -0.595286 3.87555 0
M  V30 6444 H 598.193 -1.58538 3.86336 0
M  V30 6445 N 598.631 -1.53133 0.372548 0
M  V30 6446 C 599.878 -2.01356 -0.214959 0
M  V30 6447 C 600.206 -1.2596 -1.48204 0
M  V30 6448 O 599.461 -0.343511 -1.92662 0
M  V30 6449 C 599.76 -3.53206 -0.545938 0
M  V30 6450 C 599.426 -4.46511 0.627624 0
M  V30 6451 C 598.088 -4.71737 0.949615 0
M  V30 6452 C 600.44 -5.01666 1.41353 0
M  V30 6453 C 597.768 -5.4937 2.05936 0
M  V30 6454 C 600.12 -5.80511 2.51375 0
M  V30 6455 C 598.784 -6.04022 2.84101 0
M  V30 6456 H 598.054 -0.736813 -0.078659 0
M  V30 6457 H 600.701 -1.84682 0.506447 0
M  V30 6458 H 599.006 -3.67864 -1.34845 0
M  V30 6459 H 600.703 -3.87997 -1.01287 0
M  V30 6460 H 597.293 -4.27029 0.366635 0
M  V30 6461 H 601.477 -4.82117 1.17802 0
M  V30 6462 H 596.733 -5.65803 2.31682 0
M  V30 6463 H 600.907 -6.22255 3.12684 0
M  V30 6464 H 598.534 -6.63962 3.70214 0
M  V30 6465 N 600.109 -0.101901 -1.5727 0
M  V30 6466 C 601.349 0.563489 -1.96479 0
M  V30 6467 C 601.713 1.64926 -0.983021 0
M  V30 6468 O 602.914 2.37234 -1.26386 0
M  V30 6469 C 601.185 1.09809 -3.40113 0
M  V30 6470 S 602.744 1.7744 -4.01323 0
M  V30 6471 H 599.562 0.183675 -0.686866 0
M  V30 6472 H 602.164 -0.182922 -1.94642 0
M  V30 6473 H 600.868 0.296447 -4.09328 0
M  V30 6474 H 600.399 1.88018 -3.45562 0
M  V30 6475 H 602.414 3.0591 -3.90683 0
M  V30 6476 N 601.587 1.56661 0.17182 0
M  V30 6477 C 602.864 1.72838 0.915778 0
M  V30 6478 C 603.244 0.66316 2.00413 0
M  V30 6479 O 602.592 -0.322123 2.26218 0
M  V30 6480 C 602.802 3.16019 1.48097 0
M  V30 6481 C 604.15 3.76962 1.95408 0
M  V30 6482 O 605.174 3.19294 1.57892 0
M  V30 6483 O 604.033 4.78219 2.64516 0
M  V30 6484 H 601.127 0.705797 0.431021 0
M  V30 6485 H 603.673 1.68947 0.159689 0
M  V30 6486 H 602.445 3.85031 0.697618 0
M  V30 6487 H 602.068 3.24234 2.30126 0
M  V30 6488 N 603.065 -0.440357 1.51323 0
M  V30 6489 C 604.015 -1.53263 1.68803 0
M  V30 6490 C 604.999 -1.51494 0.542057 0
M  V30 6491 O 606.191 -1.57999 0.797839 0
M  V30 6492 C 603.32 -2.91479 1.8137 0
M  V30 6493 C 602.406 -2.98015 3.01742 0
M  V30 6494 N 602.797 -2.743 4.24962 0
M  V30 6495 C 601.095 -3.29173 3.00934 0
M  V30 6496 C 601.796 -2.86601 5.06197 0
M  V30 6497 N 600.772 -3.1814 4.40781 0
M  V30 6498 H 604.574 -1.33675 2.61741 0
M  V30 6499 H 602.088 -0.647616 1.48929 0
M  V30 6500 H 604.085 -3.70055 1.92002 0
M  V30 6501 H 602.745 -3.12089 0.896117 0
M  V30 6502 H 603.756 -2.49287 4.53957 0
M  V30 6503 H 600.433 -3.55577 2.18796 0
M  V30 6504 H 601.823 -2.72246 6.14274 0
M  V30 6505 N 604.543 -1.41418 -0.695603 0
M  V30 6506 C 605.49 -1.43264 -1.80954 0
M  V30 6507 C 606.46 -0.287016 -1.63601 0
M  V30 6508 O 607.645 -0.488054 -1.84452 0
M  V30 6509 C 604.785 -1.32054 -3.18835 0
M  V30 6510 C 603.898 -2.56485 -3.4762 0
M  V30 6511 C 603.033 -2.3757 -4.75115 0
M  V30 6512 C 602.072 -3.57477 -4.96867 0
M  V30 6513 N 601.209 -3.37632 -6.15588 0
M  V30 6514 H 606.049 -2.38467 -1.78711 0
M  V30 6515 H 603.586 -1.18415 -0.872715 0
M  V30 6516 H 605.544 -1.23558 -3.98484 0
M  V30 6517 H 604.174 -0.404592 -3.20254 0
M  V30 6518 H 603.226 -2.75432 -2.62376 0
M  V30 6519 H 604.538 -3.45678 -3.59594 0
M  V30 6520 H 603.692 -2.2654 -5.62818 0
M  V30 6521 H 602.431 -1.45834 -4.65386 0
M  V30 6522 H 601.436 -3.68961 -4.07612 0
M  V30 6523 H 602.661 -4.50167 -5.08455 0
M  V30 6524 H 600.607 -2.48596 -6.07072 0
M  V30 6525 H 600.524 -4.20401 -6.2833 0
M  V30 6526 H 601.792 -3.30375 -7.06026 0
M  V30 6527 N 606.021 0.929856 -1.27246 0
M  V30 6528 C 607.249 1.71144 -1.16265 0
M  V30 6529 C 607.664 1.867 0.280786 0
M  V30 6530 O 607.021 1.38249 1.19136 0
M  V30 6531 C 607.072 3.11222 -1.83911 0
M  V30 6532 O 606.793 2.96398 -3.22614 0
M  V30 6533 C 608.294 4.05541 -1.79028 0
M  V30 6534 H 605.514 0.535499 -0.404328 0
M  V30 6535 H 608.058 1.16492 -1.68077 0
M  V30 6536 H 606.213 3.6274 -1.36009 0
M  V30 6537 H 606.627 3.8494 -3.56261 0
M  V30 6538 H 608.101 5.01351 -2.30978 0
M  V30 6539 H 608.578 4.32589 -0.759168 0
M  V30 6540 H 609.184 3.59947 -2.26535 0
M  V30 6541 N 607.499 1.09233 1.13605 0
M  V30 6542 C 608.727 0.848908 1.88683 0
M  V30 6543 C 609.142 -0.599667 1.79024 0
M  V30 6544 O 608.499 -1.41265 1.15544 0
M  V30 6545 C 608.55 1.27273 3.38355 0
M  V30 6546 O 608.271 2.66449 3.47759 0
M  V30 6547 C 609.772 1.0614 4.30406 0
M  V30 6548 H 606.992 0.305549 0.597395 0
M  V30 6549 H 609.536 1.4538 1.43823 0
M  V30 6550 H 607.691 0.711776 3.80805 0
M  V30 6551 H 608.105 2.84264 4.40788 0
M  V30 6552 H 609.579 1.40725 5.33761 0
M  V30 6553 H 610.056 -0.000960332 4.392 0
M  V30 6554 H 610.662 1.60821 3.93722 0
M  V30 6555 N 608.977 -1.30795 0.87923 0
M  V30 6556 C 610.388 -1.78535 0.546093 0
M  V30 6557 C 610.739 -1.72354 -0.937467 0
M  V30 6558 O 609.864 -1.2969 -1.73233 0
M  V30 6559 C 610.459 -3.24181 0.9845 0
M  V30 6560 C 609.018 -3.69779 0.702871 0
M  V30 6561 C 608.165 -2.51377 1.17068 0
M  V30 6562 H 611.116 -1.17746 1.06403 0
M  V30 6563 H 611.137 -3.79227 0.311045 0
M  V30 6564 H 610.649 -3.28647 2.06429 0
M  V30 6565 H 608.75 -3.70806 -0.365166 0
M  V30 6566 H 608.863 -4.61507 1.28639 0
M  V30 6567 H 607.227 -2.47768 0.590172 0
M  V30 6568 H 608.01 -2.58584 2.25808 0
M  V30 6569 N 610.455 -0.639598 -1.44038 0
M  V30 6570 C 611.695 -0.150902 -2.03842 0
M  V30 6571 C 612.059 1.20744 -1.49281 0
M  V30 6572 O 613.26 1.78875 -2.00642 0
M  V30 6573 C 611.531 -0.146114 -3.57101 0
M  V30 6574 S 613.09 0.276725 -4.37927 0
M  V30 6575 H 609.908 -0.0652447 -0.708 0
M  V30 6576 H 612.51 -0.844886 -1.76301 0
M  V30 6577 H 611.214 -1.13769 -3.94316 0
M  V30 6578 H 610.745 0.568846 -3.89266 0
M  V30 6579 H 612.76 1.51893 -4.7238 0
M  V30 6580 N 611.933 1.52934 -0.380664 0
M  V30 6581 C 613.158 2.06363 0.207157 0
M  V30 6582 C 613.583 1.25122 1.4045 0
M  V30 6583 O 612.941 0.274062 1.79217 0
M  V30 6584 C 612.989 3.56162 0.563996 0
M  V30 6585 O 612.093 3.77552 1.65917 0
M  V30 6586 H 611.434 0.663468 0.0265859 0
M  V30 6587 H 613.964 1.9719 -0.545635 0
M  V30 6588 H 613.974 3.99453 0.830752 0
M  V30 6589 H 612.649 4.14732 -0.311427 0
M  V30 6590 H 611.226 3.46154 1.3868 0
M  V30 6591 N 613.412 0.11024 1.57214 0
M  V30 6592 C 614.637 -0.561179 1.99664 0
M  V30 6593 C 615.062 -1.59985 0.989266 0
M  V30 6594 O 614.42 -1.81255 -0.0402399 0
M  V30 6595 C 614.468 -1.17189 3.41027 0
M  V30 6596 O 613.572 -2.28755 3.4314 0
M  V30 6597 H 612.913 -0.14101 0.648855 0
M  V30 6598 H 615.443 0.196128 2.03658 0
M  V30 6599 H 615.453 -1.50954 3.79047 0
M  V30 6600 H 614.128 -0.411041 4.13864 0
M  V30 6601 H 612.705 -1.96495 3.16929 0
M  V30 6602 N 614.89 -1.56749 -0.16351 0
M  V30 6603 C 615.853 -1.96121 -1.18613 0
M  V30 6604 C 616.853 -0.845765 -1.36761 0
M  V30 6605 O 618.043 -1.11268 -1.34033 0
M  V30 6606 C 615.175 -2.26282 -2.54969 0
M  V30 6607 H 616.368 -2.87639 -0.848764 0
M  V30 6608 H 613.921 -1.50928 -0.406251 0
M  V30 6609 H 614.656 -1.37504 -2.93706 0
M  V30 6610 H 614.441 -3.07595 -2.43162 0
M  V30 6611 H 615.931 -2.57638 -3.28653 0
M  V30 6612 N 616.368 0.432326 -1.51554 0
M  V30 6613 C 617.617 1.17831 -1.63703 0
M  V30 6614 C 617.93 1.92229 -0.36156 0
M  V30 6615 O 619.136 2.69069 -0.362495 0
M  V30 6616 C 617.592 2.14318 -2.89129 0
M  V30 6617 C 617.2 1.45544 -4.23699 0
M  V30 6618 C 618.944 2.89319 -3.10636 0
M  V30 6619 C 616.851 2.40545 -5.4027 0
M  V30 6620 H 615.781 0.443533 -0.60975 0
M  V30 6621 H 618.432 0.444878 -1.78026 0
M  V30 6622 H 616.814 2.91117 -2.68452 0
M  V30 6623 H 617.988 0.742693 -4.54775 0
M  V30 6624 H 616.303 0.826772 -4.0811 0
M  V30 6625 H 618.9 3.60495 -3.94902 0
M  V30 6626 H 619.243 3.50951 -2.23918 0
M  V30 6627 H 619.776 2.19625 -3.31677 0
M  V30 6628 H 616.515 1.83594 -6.29264 0
M  V30 6629 H 616.035 3.09859 -5.13563 0
M  V30 6630 H 617.714 3.01569 -5.72421 0
M  V30 6631 N 617.846 1.41785 0.688094 0
M  V30 6632 C 619.095 1.4084 1.44385 0
M  V30 6633 C 619.408 0.0234166 1.95586 0
M  V30 6634 O 620.614 -0.108647 2.71283 0
M  V30 6635 C 619.07 2.47675 2.61123 0
M  V30 6636 C 618.678 3.92116 2.16677 0
M  V30 6637 C 620.422 2.55877 3.38714 0
M  V30 6638 C 618.329 4.90487 3.30419 0
M  V30 6639 H 617.259 0.523787 0.542368 0
M  V30 6640 H 619.91 1.6764 0.74627 0
M  V30 6641 H 618.292 2.14018 3.33185 0
M  V30 6642 H 619.466 4.35059 1.51856 0
M  V30 6643 H 617.781 3.87642 1.5206 0
M  V30 6644 H 620.378 3.26553 4.234 0
M  V30 6645 H 620.721 1.59801 3.84408 0
M  V30 6646 H 621.254 2.88662 2.73714 0
M  V30 6647 H 617.993 5.87994 2.89729 0
M  V30 6648 H 617.513 4.52187 3.94065 0
M  V30 6649 H 619.192 5.11591 3.96085 0
M  V30 6650 N 619.324 -0.923095 1.27737 0
M  V30 6651 C 620.272 -2.04567 1.10703 0
M  V30 6652 C 621.266 -1.69375 0.0288445 0
M  V30 6653 O 622.472 -1.79027 0.186913 0
M  V30 6654 H 618.847 -0.670109 0.34126 0
M  V30 6655 H 620.818 -2.1608 2.05796 0
M  V30 6656 C 619.567 -3.38934 0.775837 0
M  V30 6657 H 618.89 -3.66501 1.59741 0
M  V30 6658 H 620.33 -4.18239 0.696548 0
M  V30 6659 C 618.789 -3.32863 -0.520012 0
M  V30 6660 O 619.319 -3.70462 -1.55308 0
M  V30 6661 N 617.525 -2.85958 -0.51732 0
M  V30 6662 H 617.072 -2.55557 0.32379 0
M  V30 6663 H 617.03 -2.82279 -1.38441 0
M  V30 6664 N 620.802 -1.09834 -1.13024 0
M  V30 6665 C 622.213 -0.855651 -1.65938 0
M  V30 6666 C 622.564 0.615159 -1.86307 0
M  V30 6667 O 621.689 1.47335 -1.58497 0
M  V30 6668 C 622.284 -1.5467 -3.01434 0
M  V30 6669 C 620.843 -1.35088 -3.51323 0
M  V30 6670 C 619.99 -1.6001 -2.26478 0
M  V30 6671 H 622.941 -1.25691 -0.968889 0
M  V30 6672 H 622.962 -0.982179 -3.67605 0
M  V30 6673 H 622.474 -2.61715 -2.86578 0
M  V30 6674 H 620.575 -0.30179 -3.71376 0
M  V30 6675 H 620.688 -2.0886 -4.31178 0
M  V30 6676 H 619.052 -1.02246 -2.33276 0
M  V30 6677 H 619.835 -2.68293 -2.14182 0
M  V30 6678 N 622.28 1.30327 -0.886154 0
M  V30 6679 C 623.21 2.30549 -0.370028 0
M  V30 6680 C 624.191 1.61039 0.547751 0
M  V30 6681 O 625.376 1.8864 0.461353 0
M  V30 6682 C 622.506 3.44808 0.415275 0
M  V30 6683 C 621.46 4.26024 -0.41085 0
M  V30 6684 C 620.786 5.32347 0.501128 0
M  V30 6685 C 622.086 4.95433 -1.65359 0
M  V30 6686 H 623.78 2.73969 -1.20754 0
M  V30 6687 H 621.326 1.3171 -0.582097 0
M  V30 6688 H 623.279 4.13986 0.78699 0
M  V30 6689 H 622.003 3.00197 1.28644 0
M  V30 6690 H 620.662 3.58535 -0.764719 0
M  V30 6691 H 620.31 4.83982 1.37004 0
M  V30 6692 H 620.01 5.87581 -0.0478356 0
M  V30 6693 H 621.534 6.0438 0.869333 0
M  V30 6694 H 622.948 5.5712 -1.35239 0
M  V30 6695 H 621.345 5.60537 -2.14284 0
M  V30 6696 H 622.415 4.21493 -2.39733 0
M  V30 6697 N 623.758 0.647228 1.43697 0
M  V30 6698 C 624.983 0.164083 2.0675 0
M  V30 6699 C 625.408 -1.15892 1.48158 0
M  V30 6700 O 624.766 -1.71459 0.589194 0
M  V30 6701 C 624.814 0.0800368 3.60511 0
M  V30 6702 O 623.918 -0.959453 4.01084 0
M  V30 6703 H 623.259 0.0921288 0.657578 0
M  V30 6704 H 625.789 0.88846 1.84303 0
M  V30 6705 H 625.799 -0.105263 4.07864 0
M  V30 6706 H 624.474 1.04586 4.02535 0
M  V30 6707 H 623.051 -0.747425 3.65333 0
M  V30 6708 N 625.236 -1.5273 0.388769 0
M  V30 6709 C 626.464 -2.05992 -0.193677 0
M  V30 6710 C 626.879 -1.26053 -1.40557 0
M  V30 6711 O 626.236 -0.307049 -1.79898 0
M  V30 6712 C 626.287 -3.57068 -0.564321 0
M  V30 6713 O 626.008 -4.3398 0.599422 0
M  V30 6714 C 627.509 -4.26674 -1.20269 0
M  V30 6715 H 624.729 -0.670358 -0.0293445 0
M  V30 6716 H 627.273 -1.96857 0.553844 0
M  V30 6717 H 625.428 -3.66277 -1.26174 0
M  V30 6718 H 625.842 -5.2367 0.294895 0
M  V30 6719 H 627.316 -5.33625 -1.4124 0
M  V30 6720 H 627.793 -3.81854 -2.16989 0
M  V30 6721 H 628.399 -4.2178 -0.546047 0
M  V30 6722 N 626.714 -0.118576 -1.57153 0
M  V30 6723 C 627.677 0.817464 -2.14127 0
M  V30 6724 C 628.677 1.1949 -1.07604 0
M  V30 6725 O 629.867 1.12048 -1.33382 0
M  V30 6726 C 626.999 2.10541 -2.68115 0
M  V30 6727 H 628.192 0.322339 -2.98163 0
M  V30 6728 H 625.745 0.130655 -1.55753 0
M  V30 6729 H 626.48 2.64485 -1.87665 0
M  V30 6730 H 626.265 1.84425 -3.4602 0
M  V30 6731 H 627.755 2.77453 -3.12105 0
M  V30 6732 N 628.193 1.56834 0.155195 0
M  V30 6733 C 629.441 1.82536 0.867462 0
M  V30 6734 C 629.762 0.698168 1.82073 0
M  V30 6735 O 629.032 -0.280807 1.93877 0
M  V30 6736 H 627.612 0.673401 0.323327 0
M  V30 6737 H 630.274 1.94313 0.151156 0
M  V30 6738 H 629.37 2.77171 1.43466 0
M  V30 6739 N 629.671 -0.424282 1.51781 0
M  V30 6740 C 630.619 -1.53649 1.74628 0
M  V30 6741 C 631.613 -1.57923 0.612922 0
M  V30 6742 O 632.819 -1.61511 0.794618 0
M  V30 6743 H 629.194 -0.510706 0.551981 0
M  V30 6744 H 631.165 -1.31558 2.67834 0
M  V30 6745 C 629.914 -2.91177 1.9003 0
M  V30 6746 H 629.237 -2.88625 2.76651 0
M  V30 6747 H 630.677 -3.6833 2.10021 0
M  V30 6748 C 629.136 -3.30303 0.663435 0
M  V30 6749 O 629.666 -4.01315 -0.175812 0
M  V30 6750 N 627.872 -2.86201 0.503723 0
M  V30 6751 H 627.419 -2.28583 1.18776 0
M  V30 6752 H 627.377 -3.12741 -0.322575 0
M  V30 6753 N 631.149 -1.42148 -0.680565 0
M  V30 6754 C 632.374 -1.45901 -1.47403 0
M  V30 6755 C 632.799 -0.0700985 -1.87969 0
M  V30 6756 O 632.157 0.930145 -1.55621 0
M  V30 6757 C 632.205 -2.38661 -2.70321 0
M  V30 6758 O 631.309 -1.85399 -3.68376 0
M  V30 6759 H 630.65 -0.494565 -0.443059 0
M  V30 6760 H 633.18 -1.86774 -0.835251 0
M  V30 6761 H 633.19 -2.55046 -3.18458 0
M  V30 6762 H 631.865 -3.39571 -2.40134 0
M  V30 6763 H 630.442 -1.78541 -3.2738 0
M  V30 6764 N 632.627 0.916307 -1.28225 0
M  V30 6765 C 633.537 2.05165 -1.13775 0
M  V30 6766 C 634.553 1.73879 -0.0649418 0
M  V30 6767 O 635.729 1.99531 -0.273722 0
M  V30 6768 C 632.794 3.37385 -0.798267 0
M  V30 6769 C 631.855 3.82296 -1.95316 0
M  V30 6770 C 631.088 5.08206 -1.62978 0
M  V30 6771 O 631.311 5.6781 -0.542948 0
M  V30 6772 O 630.245 5.48768 -2.47261 0
M  V30 6773 H 634.071 2.20273 -2.09078 0
M  V30 6774 H 631.656 1.0373 -1.07519 0
M  V30 6775 H 633.538 4.16773 -0.62278 0
M  V30 6776 H 632.213 3.23458 0.125139 0
M  V30 6777 H 631.12 3.03746 -2.18378 0
M  V30 6778 H 632.453 4.00782 -2.85718 0
M  V30 6779 N 634.105 1.10431 1.1244 0
M  V30 6780 C 635.521 0.836096 1.35947 0
M  V30 6781 C 635.721 -0.544475 1.94004 0
M  V30 6782 O 634.777 -1.29735 2.16622 0
M  V30 6783 C 636.09 1.93575 2.30107 0
M  V30 6784 C 637.638 1.9642 2.43697 0
M  V30 6785 C 638.113 3.05559 3.41171 0
M  V30 6786 N 639.604 3.04865 3.48728 0
M  V30 6787 C 640.339 3.85954 4.24061 0
M  V30 6788 N 639.835 4.76977 5.02458 0
M  V30 6789 N 641.628 3.74172 4.19466 0
M  V30 6790 H 633.779 1.9942 0.731124 0
M  V30 6791 H 636.042 0.866607 0.384312 0
M  V30 6792 H 635.748 2.92943 1.94621 0
M  V30 6793 H 635.622 1.8229 3.30227 0
M  V30 6794 H 638.009 0.97685 2.78463 0
M  V30 6795 H 638.09 2.11782 1.43465 0
M  V30 6796 H 637.734 4.04513 3.07135 0
M  V30 6797 H 637.664 2.87438 4.41234 0
M  V30 6798 H 640.155 2.38908 2.92799 0
M  V30 6799 H 640.468 5.35409 5.57277 0
M  V30 6800 H 638.813 4.81006 5.01655 0
M  V30 6801 H 642.004 3.02412 3.57302 0
M  V30 6802 H 642.177 4.37602 4.77921 0
M  V30 6803 N 635.583 -1.29855 0.893053 0
M  V30 6804 C 636.513 -2.3035 0.382249 0
M  V30 6805 C 637.494 -1.61328 -0.539203 0
M  V30 6806 O 638.679 -1.88882 -0.451342 0
M  V30 6807 C 635.809 -3.45024 -0.396983 0
M  V30 6808 C 634.763 -4.258 0.433437 0
M  V30 6809 C 634.089 -5.32605 -0.472889 0
M  V30 6810 C 635.389 -4.94549 1.67984 0
M  V30 6811 H 637.083 -2.73325 1.22205 0
M  V30 6812 H 634.629 -1.314 0.589073 0
M  V30 6813 H 636.582 -4.14398 -0.765024 0
M  V30 6814 H 635.306 -3.00875 -1.2705 0
M  V30 6815 H 633.965 -3.58125 0.783723 0
M  V30 6816 H 633.613 -4.84702 -1.34435 0
M  V30 6817 H 633.313 -5.87547 0.0789958 0
M  V30 6818 H 634.837 -6.04832 -0.837269 0
M  V30 6819 H 636.251 -5.56395 1.38192 0
M  V30 6820 H 634.648 -5.59393 2.17254 0
M  V30 6821 H 635.718 -4.20215 2.41965 0
M  V30 6822 N 637.061 -0.65484 -1.43351 0
M  V30 6823 C 637.993 0.0744757 -2.29079 0
M  V30 6824 C 639.006 0.7855 -1.42596 0
M  V30 6825 O 640.195 0.642986 -1.66517 0
M  V30 6826 C 637.295 1.12859 -3.19556 0
M  V30 6827 C 636.468 0.495381 -4.34586 0
M  V30 6828 C 635.527 1.44659 -5.05925 0
M  V30 6829 O 634.553 0.954567 -5.61139 0
M  V30 6830 N 635.755 2.78051 -5.09576 0
M  V30 6831 H 638.52 -0.661346 -2.92312 0
M  V30 6832 H 636.081 -0.497744 -1.54059 0
M  V30 6833 H 638.073 1.76577 -3.64147 0
M  V30 6834 H 636.643 1.76636 -2.57912 0
M  V30 6835 H 635.863 -0.32092 -3.92892 0
M  V30 6836 H 637.151 0.0534203 -5.08772 0
M  V30 6837 H 636.549 3.20584 -4.66093 0
M  V30 6838 H 635.106 3.37068 -5.57878 0
M  V30 6839 N 638.539 1.52521 -0.396863 0
M  V30 6840 C 639.95 1.86547 0.0754868 0
M  V30 6841 C 640.301 1.31621 1.45501 0
M  V30 6842 O 639.426 0.650563 2.0639 0
M  V30 6843 C 640.021 3.38495 0.143754 0
M  V30 6844 C 638.58 3.72205 0.560413 0
M  V30 6845 C 637.727 2.75954 -0.272856 0
M  V30 6846 H 640.678 1.46323 -0.614434 0
M  V30 6847 H 640.699 3.68153 0.961425 0
M  V30 6848 H 640.211 3.78442 -0.860415 0
M  V30 6849 H 638.312 3.3783 1.57167 0
M  V30 6850 H 638.425 4.78074 0.313314 0
M  V30 6851 H 636.789 2.53339 0.263 0
M  V30 6852 H 637.572 3.1874 -1.27515 0
M  V30 6853 N 640.017 0.126909 1.57088 0
M  V30 6854 C 641.265 -0.528123 1.95078 0
M  V30 6855 C 641.586 -1.66708 1.0116 0
M  V30 6856 O 640.856 -1.95777 0.0693527 0
M  V30 6857 H 639.436 -0.198087 0.720257 0
M  V30 6858 H 642.098 0.197703 1.93895 0
M  V30 6859 H 641.194 -0.917507 2.98309 0
M  V30 6860 N 641.495 -1.56914 -0.146875 0
M  V30 6861 C 642.744 -1.82546 -0.857898 0
M  V30 6862 C 643.057 -0.708169 -1.8233 0
M  V30 6863 O 644.263 -0.850093 -2.57848 0
M  V30 6864 C 642.719 -3.23548 -1.57623 0
M  V30 6865 C 642.327 -4.43212 -0.653224 0
M  V30 6866 C 644.071 -3.58453 -2.27402 0
M  V30 6867 C 641.978 -5.75237 -1.37318 0
M  V30 6868 H 640.908 -0.680786 -0.32411 0
M  V30 6869 H 643.559 -1.83166 -0.110639 0
M  V30 6870 H 641.941 -3.17315 -2.36912 0
M  V30 6871 H 643.115 -4.60682 0.104452 0
M  V30 6872 H 641.43 -4.16351 -0.0638336 0
M  V30 6873 H 644.027 -4.54349 -2.81907 0
M  V30 6874 H 644.37 -2.84516 -3.03901 0
M  V30 6875 H 644.903 -3.66347 -1.55032 0
M  V30 6876 H 641.642 -6.52269 -0.650041 0
M  V30 6877 H 641.162 -5.61703 -2.10357 0
M  V30 6878 H 642.841 -6.18039 -1.91406 0
M  V30 6879 N 642.974 0.416227 -1.52004 0
M  V30 6880 C 643.937 1.48926 -1.74223 0
M  V30 6881 C 644.937 1.48693 -0.612119 0
M  V30 6882 O 646.127 1.50343 -0.879921 0
M  V30 6883 C 643.259 2.88372 -1.81809 0
M  V30 6884 H 644.452 1.3052 -2.70008 0
M  V30 6885 H 642.005 0.646271 -1.42313 0
M  V30 6886 H 642.74 3.12157 -0.879135 0
M  V30 6887 H 642.525 2.89944 -2.6396 0
M  V30 6888 H 644.015 3.66173 -2.00766 0
M  V30 6889 N 644.452 1.42507 0.673017 0
M  V30 6890 C 645.384 1.42074 1.79854 0
M  V30 6891 C 646.397 0.319569 1.59633 0
M  V30 6892 O 647.586 0.582769 1.68719 0
M  V30 6893 C 644.686 1.19886 3.16987 0
M  V30 6894 C 643.859 2.42471 3.64042 0
M  V30 6895 C 642.918 2.15802 4.79913 0
M  V30 6896 O 641.944 2.89015 4.90366 0
M  V30 6897 N 643.146 1.16225 5.68746 0
M  V30 6898 H 645.911 2.3909 1.8071 0
M  V30 6899 H 643.472 1.37409 0.856171 0
M  V30 6900 H 645.464 0.999591 3.92161 0
M  V30 6901 H 644.034 0.313879 3.1102 0
M  V30 6902 H 643.254 2.77954 2.79526 0
M  V30 6903 H 644.542 3.24097 3.92223 0
M  V30 6904 H 643.94 0.556756 5.62954 0
M  V30 6905 H 642.497 1.02285 6.43724 0
M  V30 6906 N 645.93 -0.909495 1.28709 0
M  V30 6907 C 646.862 -2.01729 1.08804 0
M  V30 6908 C 647.875 -1.62755 0.0384739 0
M  V30 6909 O 649.064 -1.76259 0.281977 0
M  V30 6910 C 646.164 -3.32952 0.63217 0
M  V30 6911 C 645.337 -4.00512 1.75809 0
M  V30 6912 C 644.396 -5.10019 1.29488 0
M  V30 6913 O 643.422 -5.32986 1.99787 0
M  V30 6914 N 644.624 -5.80278 0.1604 0
M  V30 6915 H 647.389 -2.19362 2.04207 0
M  V30 6916 H 644.95 -1.08106 1.20518 0
M  V30 6917 H 646.942 -4.03543 0.305802 0
M  V30 6918 H 645.512 -3.11759 -0.229134 0
M  V30 6919 H 644.732 -3.23413 2.25383 0
M  V30 6920 H 646.02 -4.42395 2.51325 0
M  V30 6921 H 645.418 -5.64094 -0.425937 0
M  V30 6922 H 643.975 -6.51713 -0.106663 0
M  V30 6923 N 647.408 -1.11026 -1.11852 0
M  V30 6924 C 648.654 -0.867633 -1.83967 0
M  V30 6925 C 649.009 0.600309 -1.82795 0
M  V30 6926 O 648.302 1.43731 -1.26696 0
M  V30 6927 C 648.496 -1.35777 -3.30604 0
M  V30 6928 C 648.325 -2.87183 -3.46058 0
M  V30 6929 C 647.095 -3.55256 -3.59334 0
M  V30 6930 C 649.293 -3.85258 -3.40706 0
M  V30 6931 N 647.275 -4.94923 -3.63215 0
M  V30 6932 C 648.646 -5.1097 -3.51155 0
M  V30 6933 C 650.701 -3.77879 -3.2421 0
M  V30 6934 C 649.404 -6.30171 -3.46809 0
M  V30 6935 C 651.43 -4.96586 -3.2118 0
M  V30 6936 C 650.792 -6.21149 -3.32196 0
M  V30 6937 H 646.891 -0.370574 -0.688621 0
M  V30 6938 H 649.475 -1.41379 -1.33865 0
M  V30 6939 H 647.646 -0.83885 -3.79233 0
M  V30 6940 H 649.378 -1.05874 -3.90606 0
M  V30 6941 H 646.133 -3.05714 -3.61713 0
M  V30 6942 H 646.557 -5.67726 -3.68804 0
M  V30 6943 H 651.199 -2.82485 -3.14582 0
M  V30 6944 H 648.917 -7.25847 -3.55206 0
M  V30 6945 H 652.503 -4.92591 -3.09589 0
M  V30 6946 H 651.383 -7.11463 -3.29834 0
M  V30 6947 N 648.886 1.2938 -0.899927 0
M  V30 6948 C 650.135 1.9483 -0.521937 0
M  V30 6949 C 650.448 1.71725 0.936473 0
M  V30 6950 O 651.654 2.31282 1.42199 0
M  V30 6951 C 650.11 3.48911 -0.88255 0
M  V30 6952 C 649.718 3.80815 -2.35974 0
M  V30 6953 C 651.462 4.20595 -0.57448 0
M  V30 6954 C 649.369 5.28142 -2.66121 0
M  V30 6955 H 648.299 0.729285 -0.191468 0
M  V30 6956 H 650.95 1.47103 -1.09695 0
M  V30 6957 H 649.332 3.95293 -0.236459 0
M  V30 6958 H 650.506 3.45291 -3.05141 0
M  V30 6959 H 648.821 3.22271 -2.63686 0
M  V30 6960 H 651.418 5.29031 -0.776556 0
M  V30 6961 H 651.761 4.13442 0.487005 0
M  V30 6962 H 652.294 3.79945 -1.17842 0
M  V30 6963 H 649.033 5.4036 -3.71068 0
M  V30 6964 H 648.553 5.64913 -2.01578 0
M  V30 6965 H 650.232 5.95738 -2.52399 0
M  V30 6966 N 650.364 0.662433 1.43002 0
M  V30 6967 C 651.296 -0.062326 2.29115 0
M  V30 6968 C 652.309 -0.777926 1.43011 0
M  V30 6969 O 653.498 -0.634146 1.66856 0
M  V30 6970 C 650.598 -1.11163 3.2015 0
M  V30 6971 C 649.771 -0.472327 4.34842 0
M  V30 6972 C 648.83 -1.41974 5.06685 0
M  V30 6973 O 647.856 -0.924795 5.61637 0
M  V30 6974 N 649.058 -2.75345 5.11043 0
M  V30 6975 H 651.823 0.676838 2.91957 0
M  V30 6976 H 649.384 0.505907 1.53793 0
M  V30 6977 H 651.376 -1.74643 3.65078 0
M  V30 6978 H 649.946 -1.75266 2.58845 0
M  V30 6979 H 649.166 0.341751 3.92716 0
M  V30 6980 H 650.454 -0.0264381 5.08793 0
M  V30 6981 H 649.852 -3.18108 4.67786 0
M  V30 6982 H 648.409 -3.34105 5.59658 0
M  V30 6983 N 651.842 -1.52309 0.404946 0
M  V30 6984 C 653.067 -2.06666 -0.1743 0
M  V30 6985 C 653.492 -1.27341 -1.38441 0
M  V30 6986 O 652.85 -0.302539 -1.78758 0
M  V30 6987 C 652.898 -3.57014 -0.507262 0
M  V30 6988 O 652.002 -3.80144 -1.59889 0
M  V30 6989 H 651.343 -0.663807 -0.0160273 0
M  V30 6990 H 653.873 -1.96297 0.576937 0
M  V30 6991 H 653.883 -4.00724 -0.767098 0
M  V30 6992 H 652.558 -4.14184 0.377368 0
M  V30 6993 H 651.135 -3.48316 -1.33155 0
M  V30 6994 N 653.32 -0.135238 -1.57019 0
M  V30 6995 C 654.267 0.808908 -2.1616 0
M  V30 6996 C 655.237 1.25234 -1.09113 0
M  V30 6997 O 656.422 1.32697 -1.37099 0
M  V30 6998 C 653.562 2.04729 -2.77813 0
M  V30 6999 C 652.675 1.65074 -3.99218 0
M  V30 7000 C 651.81 2.84002 -4.48906 0
M  V30 7001 C 650.849 2.40663 -5.62803 0
M  V30 7002 N 649.986 3.5256 -6.07162 0
M  V30 7003 H 654.826 0.297751 -2.96509 0
M  V30 7004 H 652.363 0.135264 -1.46477 0
M  V30 7005 H 654.321 2.7731 -3.11697 0
M  V30 7006 H 652.951 2.53275 -2.00128 0
M  V30 7007 H 652.003 0.823029 -3.7139 0
M  V30 7008 H 653.315 1.29236 -4.81767 0
M  V30 7009 H 652.469 3.64788 -4.84783 0
M  V30 7010 H 651.208 3.23076 -3.65339 0
M  V30 7011 H 650.213 1.58314 -5.26514 0
M  V30 7012 H 651.438 2.02687 -6.48147 0
M  V30 7013 H 649.384 3.91278 -5.26534 0
M  V30 7014 H 649.301 3.20699 -6.84608 0
M  V30 7015 H 650.569 4.33738 -6.47682 0
M  V30 7016 N 654.798 1.5699 0.138552 0
M  V30 7017 C 656.214 1.51844 0.491472 0
M  V30 7018 C 656.414 0.845063 1.82923 0
M  V30 7019 O 655.47 0.419143 2.48997 0
M  V30 7020 C 656.783 2.96615 0.493987 0
M  V30 7021 C 658.331 3.076 0.578913 0
M  V30 7022 C 658.806 4.53893 0.612009 0
M  V30 7023 N 660.297 4.5827 0.673997 0
M  V30 7024 C 661.032 5.68852 0.720729 0
M  V30 7025 N 660.528 6.88982 0.726292 0
M  V30 7026 N 662.321 5.56908 0.762253 0
M  V30 7027 H 654.472 1.99158 -0.738228 0
M  V30 7028 H 656.735 0.908693 -0.270149 0
M  V30 7029 H 656.441 3.49172 -0.420933 0
M  V30 7030 H 656.315 3.53017 1.32887 0
M  V30 7031 H 658.702 2.55057 1.48425 0
M  V30 7032 H 658.783 2.54227 -0.283286 0
M  V30 7033 H 658.427 5.07076 -0.289208 0
M  V30 7034 H 658.357 5.05057 1.49082 0
M  V30 7035 H 660.848 3.71793 0.676654 0
M  V30 7036 H 661.161 7.69014 0.764032 0
M  V30 7037 H 659.506 6.91526 0.69403 0
M  V30 7038 H 662.697 4.61969 0.755135 0
M  V30 7039 H 662.87 6.43102 0.795207 0
M  V30 7040 N 656.276 -0.40816 1.52223 0
M  V30 7041 C 657.186 -1.52202 1.78526 0
M  V30 7042 C 658.202 -1.60546 0.670892 0
M  V30 7043 O 659.378 -1.77242 0.956404 0
M  V30 7044 C 656.443 -2.87928 1.93128 0
M  V30 7045 C 655.504 -2.89463 3.17033 0
M  V30 7046 C 654.737 -4.18715 3.30929 0
M  V30 7047 O 654.96 -5.12662 2.50067 0
M  V30 7048 O 653.894 -4.27125 4.24084 0
M  V30 7049 H 657.72 -1.32911 2.73072 0
M  V30 7050 H 655.305 -0.594112 1.37079 0
M  V30 7051 H 657.187 -3.68426 2.04549 0
M  V30 7052 H 655.862 -3.07285 1.01772 0
M  V30 7053 H 654.769 -2.07815 3.11069 0
M  V30 7054 H 656.102 -2.75055 4.08174 0
M  V30 7055 N 657.755 -1.42862 -0.66545 0
M  V30 7056 C 659.032 -1.3431 -1.42197 0
M  V30 7057 C 659.412 0.0150265 -2.11095 0
M  V30 7058 O 658.76 1.03101 -2.03918 0
M  V30 7059 C 658.97 -2.51783 -2.41674 0
M  V30 7060 C 660.318 -2.94321 -3.0604 0
M  V30 7061 O 661.342 -2.51741 -2.52001 0
M  V30 7062 O 660.201 -3.68047 -4.03985 0
M  V30 7063 H 657.295 -0.530159 -0.634713 0
M  V30 7064 H 659.841 -1.54888 -0.693386 0
M  V30 7065 H 658.613 -3.42282 -1.89627 0
M  V30 7066 H 658.236 -2.33241 -3.22001 0
M  V30 7067 N 659.233 0.902656 -1.29189 0
M  V30 7068 C 660.482 1.6475 -1.16362 0
M  V30 7069 C 660.795 1.93517 0.284682 0
M  V30 7070 O 662.001 2.66192 0.534229 0
M  V30 7071 C 660.457 2.96848 -2.03493 0
M  V30 7072 C 660.065 2.75687 -3.5313 0
M  V30 7073 C 661.809 3.74762 -1.99383 0
M  V30 7074 C 659.716 4.03492 -4.32375 0
M  V30 7075 H 658.646 0.618041 -0.431904 0
M  V30 7076 H 661.297 1.0008 -1.53806 0
M  V30 7077 H 659.679 3.62715 -1.58916 0
M  V30 7078 H 660.853 2.18431 -4.05739 0
M  V30 7079 H 659.168 2.11171 -3.58881 0
M  V30 7080 H 661.765 4.69515 -2.5585 0
M  V30 7081 H 662.108 4.04767 -0.973123 0
M  V30 7082 H 662.641 3.15732 -2.41988 0
M  V30 7083 H 659.38 3.78656 -5.3507 0
M  V30 7084 H 658.9 4.60318 -3.84535 0
M  V30 7085 H 660.579 4.71662 -4.42881 0
M  V30 7086 N 660.711 1.11618 1.11262 0
M  V30 7087 C 661.957 0.867463 1.83311 0
M  V30 7088 C 662.29 -0.605366 1.84524 0
M  V30 7089 O 661.565 -1.44704 1.29965 0
M  V30 7090 C 661.848 1.43207 3.30399 0
M  V30 7091 C 661.701 2.97265 3.3757 0
M  V30 7092 C 663.02 1.08454 4.26528 0
M  V30 7093 H 660.139 0.316578 0.665543 0
M  V30 7094 H 662.781 1.38137 1.30454 0
M  V30 7095 H 660.931 0.994982 3.75543 0
M  V30 7096 H 662.603 3.49591 3.00971 0
M  V30 7097 H 660.846 3.33237 2.77733 0
M  V30 7098 H 661.517 3.31859 4.41105 0
M  V30 7099 H 663.993 1.4619 3.89574 0
M  V30 7100 H 662.869 1.50633 5.27826 0
M  V30 7101 H 663.13 -0.00444568 4.421 0
M  V30 7102 N 662.189 -1.289 0.906776 0
M  V30 7103 C 663.137 -2.29477 0.379873 0
M  V30 7104 C 664.131 -1.61068 -0.524747 0
M  V30 7105 O 665.337 -1.75344 -0.406765 0
M  V30 7106 H 661.712 -0.744742 0.10423 0
M  V30 7107 H 663.683 -2.71353 1.24137 0
M  V30 7108 C 662.432 -3.45713 -0.371154 0
M  V30 7109 H 661.755 -3.98551 0.315716 0
M  V30 7110 H 663.195 -4.18105 -0.704581 0
M  V30 7111 C 661.654 -2.9774 -1.57646 0
M  V30 7112 O 662.184 -2.99618 -2.67567 0
M  V30 7113 N 660.39 -2.53485 -1.42105 0
M  V30 7114 H 659.937 -2.52156 -0.526783 0
M  V30 7115 H 659.895 -2.21747 -2.22881 0
M  V30 7116 N 663.667 -0.670007 -1.42649 0
M  V30 7117 C 664.599 0.0501746 -2.29145 0
M  V30 7118 C 665.612 0.770331 -1.43422 0
M  V30 7119 O 666.801 0.625288 -1.6719 0
M  V30 7120 C 663.901 1.09463 -3.20735 0
M  V30 7121 C 663.074 0.44926 -4.35087 0
M  V30 7122 C 662.133 1.39285 -5.07431 0
M  V30 7123 O 661.159 0.894997 -5.6212 0
M  V30 7124 N 662.361 2.72631 -5.12496 0
M  V30 7125 H 665.126 -0.692312 -2.91594 0
M  V30 7126 H 662.687 -0.514056 -1.53522 0
M  V30 7127 H 664.679 1.72705 -3.65999 0
M  V30 7128 H 663.249 1.73891 -2.59771 0
M  V30 7129 H 662.469 -0.362573 -3.92529 0
M  V30 7130 H 663.757 -0.000544776 -5.088 0
M  V30 7131 H 663.155 3.15623 -4.69467 0
M  V30 7132 H 661.712 3.31132 -5.61422 0
M  V30 7133 N 665.145 1.52092 -0.413018 0
M  V30 7134 C 666.078 2.23613 0.455234 0
M  V30 7135 C 667.056 1.2459 1.04481 0
M  V30 7136 O 668.24 1.53653 1.09193 0
M  V30 7137 C 665.367 2.96775 1.63224 0
M  V30 7138 C 664.413 4.10261 1.16568 0
M  V30 7139 S 665.246 5.35348 0.127633 0
M  V30 7140 C 666.402 6.1204 1.30987 0
M  V30 7141 H 666.635 2.96911 -0.152042 0
M  V30 7142 H 664.168 1.53134 -0.197343 0
M  V30 7143 H 666.126 3.39532 2.30713 0
M  V30 7144 H 664.787 2.23113 2.21087 0
M  V30 7145 H 663.98 4.6064 2.04515 0
M  V30 7146 H 663.582 3.6964 0.569386 0
M  V30 7147 H 665.874 6.39651 2.23276 0
M  V30 7148 H 666.817 7.03022 0.846533 0
M  V30 7149 H 667.225 5.43161 1.53743 0
M  V30 7150 N 666.623 0.143563 1.56945 0
M  V30 7151 C 667.851 -0.515447 2.00377 0
M  V30 7152 C 668.266 -1.58643 1.02361 0
M  V30 7153 O 667.623 -1.82489 0.0201039 0
M  V30 7154 C 667.674 -1.11923 3.43737 0
M  V30 7155 O 667.395 -0.0910318 4.38005 0
M  V30 7156 C 668.896 -1.85918 4.02429 0
M  V30 7157 H 666.116 -0.134478 0.657386 0
M  V30 7158 H 668.66 0.237135 2.0312 0
M  V30 7159 H 666.815 -1.82245 3.41856 0
M  V30 7160 H 667.229 -0.532916 5.21786 0
M  V30 7161 H 668.703 -2.2346 5.04747 0
M  V30 7162 H 669.18 -2.7438 3.42947 0
M  V30 7163 H 669.786 -1.20303 4.07931 0
M  V30 7164 N 668.101 -1.57061 -0.130224 0
M  V30 7165 C 669.011 -2.02802 -1.17934 0
M  V30 7166 C 670.027 -0.946378 -1.46013 0
M  V30 7167 O 671.203 -1.25708 -1.57351 0
M  V30 7168 C 668.268 -2.41368 -2.48882 0
M  V30 7169 C 667.329 -3.63561 -2.28301 0
M  V30 7170 C 666.562 -4.00279 -3.53005 0
M  V30 7171 O 666.785 -3.37463 -4.59864 0
M  V30 7172 O 665.719 -4.93441 -3.44673 0
M  V30 7173 H 669.545 -2.92394 -0.820958 0
M  V30 7174 H 667.13 -1.45475 -0.340197 0
M  V30 7175 H 669.012 -2.66958 -3.26054 0
M  V30 7176 H 667.687 -1.54926 -2.84217 0
M  V30 7177 H 666.594 -3.43136 -1.49025 0
M  V30 7178 H 667.927 -4.50673 -1.97875 0
M  V30 7179 N 669.579 0.400081 -1.52437 0
M  V30 7180 C 670.542 1.4707 -1.75793 0
M  V30 7181 C 671.542 1.48036 -0.627856 0
M  V30 7182 O 672.732 1.49401 -0.895817 0
M  V30 7183 C 669.864 2.86427 -1.84858 0
M  V30 7184 H 671.057 1.27649 -2.71377 0
M  V30 7185 H 668.61 0.631141 -1.42991 0
M  V30 7186 H 669.345 3.11207 -0.912194 0
M  V30 7187 H 669.13 2.87128 -2.6702 0
M  V30 7188 H 670.62 3.64023 -2.04638 0
M  V30 7189 N 671.057 1.43213 0.657864 0
M  V30 7190 C 672.297 1.46083 1.42965 0
M  V30 7191 C 672.661 0.0809712 1.91829 0
M  V30 7192 O 673.862 -0.0156305 2.68795 0
M  V30 7193 C 672.133 2.47044 2.58271 0
M  V30 7194 S 673.692 2.68753 3.46868 0
M  V30 7195 H 670.51 0.517015 0.488074 0
M  V30 7196 H 673.112 1.79945 0.764213 0
M  V30 7197 H 671.816 3.46044 2.20639 0
M  V30 7198 H 671.347 2.14665 3.2967 0
M  V30 7199 H 673.362 1.98329 4.54841 0
M  V30 7200 N 672.536 -0.895792 1.29666 0
M  V30 7201 C 673.466 -2.01673 1.17688 0
M  V30 7202 C 674.447 -1.69955 0.0701317 0
M  V30 7203 O 675.632 -1.9258 0.250289 0
M  V30 7204 C 672.762 -3.36568 0.856681 0
M  V30 7205 C 671.716 -3.82509 1.92017 0
M  V30 7206 C 671.042 -5.14574 1.4532 0
M  V30 7207 C 672.342 -4.02409 3.32963 0
M  V30 7208 H 674.036 -2.11953 2.11463 0
M  V30 7209 H 671.582 -1.01839 1.01807 0
M  V30 7210 H 673.535 -4.14498 0.759577 0
M  V30 7211 H 672.259 -3.26391 -0.116763 0
M  V30 7212 H 670.918 -3.068 2.00673 0
M  V30 7213 H 670.566 -5.00815 0.468325 0
M  V30 7214 H 670.266 -5.46283 2.16447 0
M  V30 7215 H 671.79 -5.9504 1.36968 0
M  V30 7216 H 673.204 -4.70808 3.27127 0
M  V30 7217 H 671.601 -4.45478 4.02082 0
M  V30 7218 H 672.671 -3.06616 3.75652 0
M  V30 7219 N 674.014 -1.12206 -1.10668 0
M  V30 7220 C 674.962 -0.782918 -2.19028 0
M  V30 7221 C 675.956 0.229175 -1.67843 0
M  V30 7222 O 677.162 0.0876295 -1.79787 0
M  V30 7223 H 673.537 -0.235339 -0.714227 0
M  V30 7224 H 675.508 -1.70527 -2.44874 0
M  V30 7225 C 674.257 -0.25116 -3.46792 0
M  V30 7226 H 673.58 -1.02123 -3.86537 0
M  V30 7227 H 675.02 -0.0521409 -4.23968 0
M  V30 7228 C 673.479 1.02037 -3.21076 0
M  V30 7229 O 674.009 2.09862 -3.42522 0
M  V30 7230 N 672.215 0.946348 -2.74759 0
M  V30 7231 H 671.762 0.068777 -2.57508 0
M  V30 7232 H 671.72 1.79775 -2.57931 0
M  V30 7233 N 675.492 1.28418 -0.913599 0
M  V30 7234 C 676.424 2.26368 -0.359169 0
M  V30 7235 C 677.437 1.54858 0.502285 0
M  V30 7236 O 678.626 1.75659 0.31719 0
M  V30 7237 C 675.726 3.35112 0.50526 0
M  V30 7238 C 674.899 4.36126 -0.333648 0
M  V30 7239 C 673.958 5.24134 0.465845 0
M  V30 7240 O 672.984 5.6907 -0.121538 0
M  V30 7241 N 674.186 5.52892 1.76891 0
M  V30 7242 H 676.951 2.74579 -1.2011 0
M  V30 7243 H 674.512 1.41898 -0.779532 0
M  V30 7244 H 676.504 3.90926 1.04684 0
M  V30 7245 H 675.074 2.86611 1.2479 0
M  V30 7246 H 674.294 3.79776 -1.0566 0
M  V30 7247 H 675.582 5.00638 -0.907669 0
M  V30 7248 H 674.98 5.18217 2.26865 0
M  V30 7249 H 673.537 6.11464 2.25732 0
M  V30 7250 N 676.97 0.677563 1.42291 0
M  V30 7251 C 678.195 0.207901 2.06355 0
M  V30 7252 C 678.62 -1.12723 1.50583 0
M  V30 7253 O 677.978 -1.70171 0.62543 0
M  V30 7254 C 678.026 0.156489 3.6026 0
M  V30 7255 O 677.13 -0.874162 4.03029 0
M  V30 7256 H 676.471 0.106056 0.655475 0
M  V30 7257 H 679.001 0.927354 1.82377 0
M  V30 7258 H 679.011 -0.0187258 4.07996 0
M  V30 7259 H 677.686 1.13101 4.00226 0
M  V30 7260 H 676.263 -0.669764 3.66836 0
M  V30 7261 N 678.448 -1.51871 0.421078 0
M  V30 7262 C 679.378 -2.30231 -0.389363 0
M  V30 7263 C 680.359 -1.34946 -1.03555 0
M  V30 7264 O 681.544 -1.63859 -1.04229 0
M  V30 7265 C 678.674 -3.13247 -1.49979 0
M  V30 7266 C 677.628 -4.16677 -0.977966 0
M  V30 7267 C 676.954 -4.88112 -2.1829 0
M  V30 7268 C 678.254 -5.22295 -0.0236775 0
M  V30 7269 H 679.948 -2.98229 0.264524 0
M  V30 7270 H 677.494 -1.43424 0.12866 0
M  V30 7271 H 679.447 -3.66838 -2.07383 0
M  V30 7272 H 678.171 -2.4304 -2.18173 0
M  V30 7273 H 676.83 -3.64114 -0.426245 0
M  V30 7274 H 676.478 -4.14423 -2.85066 0
M  V30 7275 H 676.178 -5.58041 -1.84021 0
M  V30 7276 H 677.702 -5.44521 -2.76278 0
M  V30 7277 H 679.116 -5.71055 -0.506899 0
M  V30 7278 H 677.513 -5.99656 0.230782 0
M  V30 7279 H 678.583 -4.76131 0.917999 0
M  V30 7280 N 679.926 -0.151884 -1.56866 0
M  V30 7281 C 681.203 0.543328 -1.87902 0
M  V30 7282 C 681.583 1.82636 -1.05864 0
M  V30 7283 O 680.931 2.28028 -0.146868 0
M  V30 7284 C 681.141 0.804056 -3.39611 0
M  V30 7285 C 682.489 1.14267 -4.08935 0
M  V30 7286 O 683.513 0.893248 -3.44818 0
M  V30 7287 O 682.372 1.61229 -5.22176 0
M  V30 7288 H 679.466 0.277724 -0.778973 0
M  V30 7289 H 682.012 -0.188862 -1.68646 0
M  V30 7290 H 680.784 -0.103772 -3.91162 0
M  V30 7291 H 680.407 1.59025 -3.64413 0
M  V30 7292 N 681.404 1.57128 0.121893 0
M  V30 7293 C 682.367 1.99197 1.13372 0
M  V30 7294 C 683.367 0.881728 1.3447 0
M  V30 7295 O 684.557 1.14783 1.31036 0
M  V30 7296 C 681.689 2.32963 2.4888 0
M  V30 7297 H 682.882 2.89788 0.772204 0
M  V30 7298 H 680.435 1.51952 0.366093 0
M  V30 7299 H 681.17 1.45243 2.89957 0
M  V30 7300 H 680.955 3.13934 2.34921 0
M  V30 7301 H 682.445 2.66261 3.21706 0
M  V30 7302 N 682.882 -0.391992 1.52647 0
M  V30 7303 C 683.812 -1.48517 1.8018 0
M  V30 7304 C 684.793 -1.57039 0.653667 0
M  V30 7305 O 685.978 -1.72036 0.900962 0
M  V30 7306 C 683.108 -2.86161 1.96797 0
M  V30 7307 C 682.062 -2.92481 3.12472 0
M  V30 7308 C 681.388 -4.32546 3.14338 0
M  V30 7309 C 682.688 -2.624 4.51601 0
M  V30 7310 H 684.382 -1.25726 2.71723 0
M  V30 7311 H 681.928 -0.603387 1.30749 0
M  V30 7312 H 683.881 -3.62639 2.14641 0
M  V30 7313 H 682.605 -3.10283 1.01941 0
M  V30 7314 H 681.264 -2.18451 2.94406 0
M  V30 7315 H 680.912 -4.53703 2.1717 0
M  V30 7316 H 680.612 -4.37695 3.92042 0
M  V30 7317 H 682.136 -5.10934 3.34333 0
M  V30 7318 H 683.55 -3.28596 4.69785 0
M  V30 7319 H 681.947 -2.78903 5.3135 0
M  V30 7320 H 683.017 -1.57754 4.58521 0
M  V30 7321 N 684.36 -1.4356 -0.65026 0
M  V30 7322 C 685.29 -1.51758 -1.77459 0
M  V30 7323 C 686.271 -0.372019 -1.65982 0
M  V30 7324 O 687.456 -0.589627 -1.85033 0
M  V30 7325 C 684.586 -1.44302 -3.15902 0
M  V30 7326 C 683.54 -2.57138 -3.42146 0
M  V30 7327 C 682.866 -2.34735 -4.8042 0
M  V30 7328 C 684.166 -3.99373 -3.36598 0
M  V30 7329 H 685.86 -2.45863 -1.70855 0
M  V30 7330 H 683.406 -1.18333 -0.820566 0
M  V30 7331 H 685.359 -1.48641 -3.94314 0
M  V30 7332 H 684.083 -0.467026 -3.23244 0
M  V30 7333 H 682.742 -2.52157 -2.66106 0
M  V30 7334 H 682.39 -1.35372 -4.84441 0
M  V30 7335 H 682.09 -3.10375 -4.9894 0
M  V30 7336 H 683.614 -2.40862 -5.61086 0
M  V30 7337 H 685.028 -4.05826 -4.04942 0
M  V30 7338 H 683.425 -4.75063 -3.66654 0
M  V30 7339 H 684.495 -4.243 -2.34729 0
M  V30 7340 N 685.838 0.888903 -1.30139 0
M  V30 7341 C 687.063 1.67884 -1.21777 0
M  V30 7342 C 687.488 1.86848 0.216689 0
M  V30 7343 O 686.846 1.39659 1.15608 0
M  V30 7344 C 686.894 3.03483 -1.94757 0
M  V30 7345 O 685.998 3.92294 -1.27198 0
M  V30 7346 H 685.339 0.513144 -0.421402 0
M  V30 7347 H 687.869 1.10968 -1.71893 0
M  V30 7348 H 687.879 3.53553 -2.03627 0
M  V30 7349 H 686.554 2.89 -2.99085 0
M  V30 7350 H 685.131 3.50732 -1.26655 0
M  V30 7351 N 687.317 1.12792 1.10072 0
M  V30 7352 C 688.733 0.864745 1.34143 0
M  V30 7353 C 688.933 -0.503201 1.95116 0
M  V30 7354 O 687.989 -1.25111 2.19325 0
M  V30 7355 C 689.302 1.98413 2.25949 0
M  V30 7356 C 690.85 2.01545 2.39476 0
M  V30 7357 C 691.325 3.12727 3.34613 0
M  V30 7358 N 692.816 3.12194 3.42183 0
M  V30 7359 C 693.551 3.94862 4.15779 0
M  V30 7360 N 693.047 4.87528 4.92228 0
M  V30 7361 N 694.84 3.82985 4.11435 0
M  V30 7362 H 686.991 2.00926 0.68866 0
M  V30 7363 H 689.254 0.874564 0.365844 0
M  V30 7364 H 688.96 2.97005 1.88364 0
M  V30 7365 H 688.834 1.89254 3.26287 0
M  V30 7366 H 691.221 1.0357 2.76328 0
M  V30 7367 H 691.302 2.14777 1.3894 0
M  V30 7368 H 690.946 4.10936 2.98486 0
M  V30 7369 H 690.876 2.96732 4.35037 0
M  V30 7370 H 693.367 2.45065 2.87666 0
M  V30 7371 H 693.68 5.47109 5.45794 0
M  V30 7372 H 692.025 4.91539 4.9134 0
M  V30 7373 H 695.216 3.09923 3.50807 0
M  V30 7374 H 695.389 4.47641 4.68531 0
M  V30 7375 N 688.795 -1.27931 0.920396 0
M  V30 7376 C 690.072 -1.89728 0.475687 0
M  V30 7377 C 690.452 -1.8337 -1.04588 0
M  V30 7378 O 689.8 -1.27404 -1.89685 0
M  V30 7379 C 690.01 -3.33959 1.01354 0
M  V30 7380 C 691.358 -4.10907 1.06963 0
M  V30 7381 O 692.382 -3.42945 0.962646 0
M  V30 7382 O 691.241 -5.32399 1.23343 0
M  V30 7383 H 688.335 -0.81294 0.151845 0
M  V30 7384 H 690.881 -1.36252 1.01161 0
M  V30 7385 H 689.653 -3.32843 2.05746 0
M  V30 7386 H 689.276 -3.94944 0.458829 0
M  V30 7387 N 690.273 -0.685099 -1.4193 0
M  V30 7388 C 691.203 -0.0273506 -2.33484 0
M  V30 7389 C 692.184 0.778366 -1.51246 0
M  V30 7390 O 693.369 0.733449 -1.79817 0
M  V30 7391 C 690.499 0.917272 -3.34968 0
M  V30 7392 C 689.453 0.21941 -4.27437 0
M  V30 7393 C 688.779 1.27768 -5.1921 0
M  V30 7394 C 690.079 -0.907894 -5.14349 0
M  V30 7395 H 691.773 -0.791994 -2.88735 0
M  V30 7396 H 689.319 -0.382308 -1.38832 0
M  V30 7397 H 691.272 1.38657 -3.97935 0
M  V30 7398 H 689.996 1.71346 -2.78043 0
M  V30 7399 H 688.655 -0.229757 -3.65879 0
M  V30 7400 H 688.303 2.06612 -4.58607 0
M  V30 7401 H 688.003 0.815803 -5.81909 0
M  V30 7402 H 689.527 1.7477 -5.85054 0
M  V30 7403 H 690.941 -0.519348 -5.70943 0
M  V30 7404 H 689.338 -1.2962 -5.85934 0
M  V30 7405 H 690.408 -1.75218 -4.52136 0
M  V30 7406 N 691.751 1.51645 -0.429126 0
M  V30 7407 C 693 2.01203 0.141538 0
M  V30 7408 C 693.313 1.31828 1.44502 0
M  V30 7409 O 694.519 1.7231 2.09813 0
M  V30 7410 C 692.975 3.58624 0.302786 0
M  V30 7411 C 692.583 4.3693 -0.989775 0
M  V30 7412 C 694.327 4.16353 0.827661 0
M  V30 7413 C 692.234 5.86037 -0.794619 0
M  V30 7414 H 691.164 0.751867 0.05667 0
M  V30 7415 H 693.815 1.74822 -0.557633 0
M  V30 7416 H 692.197 3.81417 1.06476 0
M  V30 7417 H 693.371 4.25887 -1.75945 0
M  V30 7418 H 691.686 3.90614 -1.44256 0
M  V30 7419 H 694.283 5.25455 0.990026 0
M  V30 7420 H 694.626 3.74995 1.80787 0
M  V30 7421 H 695.159 3.97606 0.124213 0
M  V30 7422 H 691.898 6.31792 -1.74697 0
M  V30 7423 H 691.418 5.99765 -0.0645968 0
M  V30 7424 H 693.097 6.45471 -0.444591 0
M  V30 7425 N 693.229 0.160201 1.56784 0
M  V30 7426 C 694.162 -0.812797 2.13234 0
M  V30 7427 C 695.14 -1.2335 1.05942 0
M  V30 7428 O 696.324 -1.32725 1.33852 0
M  V30 7429 C 693.451 -2.09311 2.66283 0
M  V30 7430 C 692.497 -1.8173 3.85845 0
M  V30 7431 S 693.33 -0.996473 5.26147 0
M  V30 7432 C 694.486 -2.28769 5.82594 0
M  V30 7433 H 694.719 -0.332794 2.95432 0
M  V30 7434 H 692.252 -0.0542971 1.54304 0
M  V30 7435 H 694.21 -2.82854 2.97496 0
M  V30 7436 H 692.871 -2.54425 1.84192 0
M  V30 7437 H 692.064 -2.76699 4.21253 0
M  V30 7438 H 691.666 -1.16289 3.55462 0
M  V30 7439 H 693.958 -3.24319 5.9483 0
M  V30 7440 H 694.901 -1.97846 6.79899 0
M  V30 7441 H 695.309 -2.40021 5.10931 0
M  V30 7442 N 694.707 -1.5719 -0.113559 0
M  V30 7443 C 695.654 -2.00736 -1.13901 0
M  V30 7444 C 696.624 -0.88044 -1.40846 0
M  V30 7445 O 697.809 -1.14507 -1.5262 0
M  V30 7446 C 694.949 -2.42132 -2.45899 0
M  V30 7447 C 694.062 -3.68264 -2.25844 0
M  V30 7448 C 693.197 -3.98617 -3.5111 0
M  V30 7449 C 692.236 -5.17915 -3.26236 0
M  V30 7450 N 691.373 -5.44111 -4.4372 0
M  V30 7451 H 696.213 -2.88128 -0.760677 0
M  V30 7452 H 693.75 -1.42523 -0.364099 0
M  V30 7453 H 695.708 -2.6417 -3.22908 0
M  V30 7454 H 694.338 -1.57775 -2.81615 0
M  V30 7455 H 693.39 -3.53809 -1.39726 0
M  V30 7456 H 694.702 -4.55425 -2.03444 0
M  V30 7457 H 693.856 -4.21333 -4.36536 0
M  V30 7458 H 692.595 -3.09942 -3.76546 0
M  V30 7459 H 691.6 -4.95038 -2.39202 0
M  V30 7460 H 692.825 -6.08172 -3.02165 0
M  V30 7461 H 690.771 -4.58394 -4.69266 0
M  V30 7462 H 690.688 -6.25606 -4.24444 0
M  V30 7463 H 691.956 -5.71351 -5.30263 0
M  V30 7464 N 696.185 0.383891 -1.52853 0
M  V30 7465 C 697.095 1.49343 -1.80925 0
M  V30 7466 C 698.111 1.59458 -0.696348 0
M  V30 7467 O 699.287 1.75698 -0.984481 0
M  V30 7468 C 696.352 2.84819 -1.97684 0
M  V30 7469 C 695.413 2.84382 -3.21598 0
M  V30 7470 C 694.646 4.13397 -3.37548 0
M  V30 7471 O 694.869 5.08619 -2.58192 0
M  V30 7472 O 693.803 4.20325 -4.30826 0
M  V30 7473 H 697.629 1.2855 -2.75152 0
M  V30 7474 H 695.214 0.572229 -1.38007 0
M  V30 7475 H 697.096 3.65125 -2.10385 0
M  V30 7476 H 695.771 3.05627 -1.06647 0
M  V30 7477 H 694.678 2.0284 -3.14336 0
M  V30 7478 H 696.011 2.68526 -4.12498 0
M  V30 7479 N 697.663 1.43903 0.642637 0
M  V30 7480 C 698.94 1.36556 1.40043 0
M  V30 7481 C 699.32 0.0185588 2.11092 0
M  V30 7482 O 698.668 -0.998438 2.05532 0
M  V30 7483 C 698.878 2.55596 2.37638 0
M  V30 7484 C 700.226 2.99153 3.01318 0
M  V30 7485 O 701.25 2.55719 2.47965 0
M  V30 7486 O 700.109 3.74427 3.98078 0
M  V30 7487 H 697.203 0.540189 0.626198 0
M  V30 7488 H 699.749 1.55971 0.668657 0
M  V30 7489 H 698.521 3.45256 1.84158 0
M  V30 7490 H 698.144 2.38334 3.18249 0
M  V30 7491 N 699.141 -0.881989 1.30609 0
M  V30 7492 C 700.371 -1.66469 1.22359 0
M  V30 7493 C 700.779 -1.87969 -0.215507 0
M  V30 7494 O 700.122 -1.42938 -1.15388 0
M  V30 7495 C 700.184 -3.06135 1.88472 0
M  V30 7496 C 699.848 -3.07795 3.37804 0
M  V30 7497 C 700.845 -2.86633 4.33749 0
M  V30 7498 C 698.53 -3.29297 3.793 0
M  V30 7499 C 700.524 -2.86934 5.69164 0
M  V30 7500 C 698.211 -3.29228 5.14832 0
M  V30 7501 C 699.209 -3.08071 6.09574 0
M  V30 7502 O 698.897 -3.07824 7.4263 0
M  V30 7503 H 698.629 -0.526129 0.424458 0
M  V30 7504 H 701.183 -1.11004 1.72821 0
M  V30 7505 H 699.413 -3.63276 1.32543 0
M  V30 7506 H 701.102 -3.66571 1.74301 0
M  V30 7507 H 701.868 -2.69814 4.0302 0
M  V30 7508 H 697.747 -3.44799 3.05998 0
M  V30 7509 H 701.291 -2.70339 6.43088 0
M  V30 7510 H 697.188 -3.45583 5.452 0
M  V30 7511 H 697.956 -3.2397 7.51656 0
M  V30 7512 N 700.619 -1.13374 -1.09472 0
M  V30 7513 C 701.529 -0.824029 -2.19652 0
M  V30 7514 C 702.545 0.19118 -1.72947 0
M  V30 7515 O 703.721 0.0223464 -2.01388 0
M  V30 7516 C 700.786 -0.294009 -3.45451 0
M  V30 7517 C 699.847 -1.3704 -4.0684 0
M  V30 7518 C 699.08 -0.86558 -5.26634 0
M  V30 7519 O 699.303 0.29702 -5.69626 0
M  V30 7520 O 698.237 -1.63968 -5.79136 0
M  V30 7521 H 702.063 -1.74454 -2.48595 0
M  V30 7522 H 699.648 -0.911155 -1.18399 0
M  V30 7523 H 701.53 -0.00381039 -4.214 0
M  V30 7524 H 700.205 0.598921 -3.18111 0
M  V30 7525 H 699.112 -1.71391 -3.3253 0
M  V30 7526 H 700.445 -2.23746 -4.38405 0
M  V30 7527 N 702.098 1.27442 -0.927168 0
M  V30 7528 C 703.028 2.29256 -0.443188 0
M  V30 7529 C 704.009 1.62701 0.49624 0
M  V30 7530 O 705.194 1.90013 0.401105 0
M  V30 7531 C 702.324 3.45955 0.305366 0
M  V30 7532 C 701.278 4.24501 -0.546178 0
M  V30 7533 C 700.604 5.33671 0.331512 0
M  V30 7534 C 701.904 4.89921 -1.81037 0
M  V30 7535 H 703.598 2.69988 -1.29409 0
M  V30 7536 H 701.144 1.29792 -0.623705 0
M  V30 7537 H 703.097 4.1628 0.654885 0
M  V30 7538 H 701.821 3.04138 1.19029 0
M  V30 7539 H 700.48 3.55921 -0.878398 0
M  V30 7540 H 700.128 4.88096 1.21537 0
M  V30 7541 H 699.828 5.87131 -0.234746 0
M  V30 7542 H 701.352 6.0684 0.676614 0
M  V30 7543 H 702.766 5.52536 -1.52895 0
M  V30 7544 H 701.163 5.53436 -2.32009 0
M  V30 7545 H 702.233 4.13652 -2.53021 0
M  V30 7546 N 703.576 0.692616 1.41565 0
M  V30 7547 C 704.822 0.222664 2.01574 0
M  V30 7548 C 705.155 -1.1737 1.54719 0
M  V30 7549 O 704.43 -1.79161 0.757084 0
M  V30 7550 C 704.713 0.277064 3.59033 0
M  V30 7551 C 704.566 1.71016 4.16021 0
M  V30 7552 C 705.885 -0.36479 4.38586 0
M  V30 7553 H 703.004 0.0823839 0.732381 0
M  V30 7554 H 705.646 0.880778 1.68352 0
M  V30 7555 H 703.796 -0.283288 3.87466 0
M  V30 7556 H 705.468 2.32413 3.98475 0
M  V30 7557 H 703.711 2.24525 3.71175 0
M  V30 7558 H 704.382 1.69978 5.25178 0
M  V30 7559 H 706.858 0.112404 4.15948 0
M  V30 7560 H 705.734 -0.296169 5.481 0
M  V30 7561 H 705.995 -1.44506 4.17816 0
M  V30 7562 N 705.054 -1.51416 0.437162 0
M  V30 7563 C 706.279 -2.0699 -0.130424 0
M  V30 7564 C 706.704 -1.30249 -1.35709 0
M  V30 7565 O 706.062 -0.340388 -1.78076 0
M  V30 7566 C 706.11 -3.5801 -0.43142 0
M  V30 7567 O 705.214 -3.8345 -1.5179 0
M  V30 7568 H 704.555 -0.663997 -0.00194339 0
M  V30 7569 H 707.085 -1.95029 0.618445 0
M  V30 7570 H 707.095 -4.02261 -0.681926 0
M  V30 7571 H 705.77 -4.13291 0.465137 0
M  V30 7572 H 704.347 -3.51062 -1.25737 0
M  V30 7573 N 706.532 -0.168513 -1.56696 0
M  V30 7574 C 707.76 0.483503 -2.01171 0
M  V30 7575 C 708.175 1.56994 -1.04872 0
M  V30 7576 O 707.532 1.82434 -0.0491337 0
M  V30 7577 C 707.583 1.0644 -3.45475 0
M  V30 7578 O 707.304 0.0213375 -4.38095 0
M  V30 7579 C 708.805 1.79493 -4.05336 0
M  V30 7580 H 706.025 0.124002 -0.659443 0
M  V30 7581 H 708.569 -0.269419 -2.02717 0
M  V30 7582 H 706.724 1.76784 -3.44712 0
M  V30 7583 H 707.138 0.449837 -5.22567 0
M  V30 7584 H 708.612 2.15401 -5.08238 0
M  V30 7585 H 709.089 2.68889 -3.47269 0
M  V30 7586 H 709.695 1.13798 -4.09793 0
M  V30 7587 N 708.01 1.57248 0.105221 0
M  V30 7588 C 708.957 2.01338 1.12835 0
M  V30 7589 C 709.927 0.887897 1.40377 0
M  V30 7590 O 711.112 1.15315 1.5201 0
M  V30 7591 C 708.252 2.43432 2.44611 0
M  V30 7592 C 707.365 3.69457 2.23888 0
M  V30 7593 C 706.5 4.00473 3.48991 0
M  V30 7594 C 705.539 5.19638 3.23485 0
M  V30 7595 N 704.676 5.46457 4.40828 0
M  V30 7596 H 709.516 2.88527 0.745386 0
M  V30 7597 H 707.053 1.42714 0.356535 0
M  V30 7598 H 709.011 2.65879 3.21503 0
M  V30 7599 H 707.641 1.59266 2.80774 0
M  V30 7600 H 706.693 3.54545 1.37847 0
M  V30 7601 H 708.005 4.56497 2.01026 0
M  V30 7602 H 707.159 4.23642 4.34295 0
M  V30 7603 H 705.898 3.11935 3.74897 0
M  V30 7604 H 704.903 4.96299 2.36574 0
M  V30 7605 H 706.128 6.09766 2.98935 0
M  V30 7606 H 704.074 4.60876 4.66829 0
M  V30 7607 H 703.991 6.27849 4.2112 0
M  V30 7608 H 705.259 5.74155 5.27225 0
M  V30 7609 N 709.488 -0.375779 1.53054 0
M  V30 7610 C 710.899 -0.95309 1.6054 0
M  V30 7611 C 711.25 -1.90575 0.466446 0
M  V30 7612 O 710.375 -2.12507 -0.408609 0
M  V30 7613 C 710.97 -1.73537 2.90982 0
M  V30 7614 C 709.529 -2.26218 3.00836 0
M  V30 7615 C 708.676 -1.07157 2.55759 0
M  V30 7616 H 711.627 -0.154895 1.57942 0
M  V30 7617 H 711.648 -2.59574 2.78211 0
M  V30 7618 H 711.16 -1.04176 3.73857 0
M  V30 7619 H 709.261 -2.98852 2.22527 0
M  V30 7620 H 709.374 -2.54799 4.05727 0
M  V30 7621 H 707.738 -1.43553 2.10391 0
M  V30 7622 H 708.521 -0.393099 3.41042 0
M  V30 7623 N 710.966 -1.44241 -0.634997 0
M  V30 7624 C 712.194 -1.50296 -1.42193 0
M  V30 7625 C 712.609 -0.12658 -1.88375 0
M  V30 7626 O 711.966 0.86678 -1.60603 0
M  V30 7627 C 712.017 -2.46437 -2.64482 0
M  V30 7628 O 711.738 -3.78724 -2.20226 0
M  V30 7629 C 713.239 -2.61918 -3.57651 0
M  V30 7630 H 710.459 -0.509865 -0.43621 0
M  V30 7631 H 713.003 -1.89167 -0.776921 0
M  V30 7632 H 711.158 -2.10712 -3.25083 0
M  V30 7633 H 711.572 -4.30595 -2.9948 0
M  V30 7634 H 713.046 -3.33225 -4.40074 0
M  V30 7635 H 713.523 -1.67017 -4.06204 0
M  V30 7636 H 714.129 -2.98528 -3.02921 0
M  V30 7637 N 712.444 0.87505 -1.31075 0
M  V30 7638 C 713.86 1.15997 -1.09622 0
M  V30 7639 C 714.06 2.01036 0.136611 0
M  V30 7640 O 713.116 2.38559 0.827397 0
M  V30 7641 C 714.429 1.85702 -2.36506 0
M  V30 7642 C 715.977 1.98425 -2.42067 0
M  V30 7643 C 716.452 2.71544 -3.68819 0
M  V30 7644 N 717.943 2.79084 -3.69684 0
M  V30 7645 C 718.678 3.36259 -4.64454 0
M  V30 7646 N 718.174 3.94406 -5.69575 0
M  V30 7647 N 719.967 3.34169 -4.51982 0
M  V30 7648 H 712.118 0.308258 -2.10151 0
M  V30 7649 H 714.381 0.199145 -0.926847 0
M  V30 7650 H 714.087 1.30663 -3.26527 0
M  V30 7651 H 713.961 2.86017 -2.45915 0
M  V30 7652 H 716.348 2.5263 -1.52518 0
M  V30 7653 H 716.429 0.971682 -2.36626 0
M  V30 7654 H 716.073 2.18008 -4.58732 0
M  V30 7655 H 716.003 3.73198 -3.71525 0
M  V30 7656 H 718.494 2.3781 -2.93691 0
M  V30 7657 H 718.807 4.36129 -6.37974 0
M  V30 7658 H 717.152 3.92797 -5.73355 0
M  V30 7659 H 720.343 2.87977 -3.69035 0
M  V30 7660 H 720.516 3.78431 -5.26017 0
M  V30 7661 N 713.922 1.13953 1.08869 0
M  V30 7662 C 715.15 0.92817 1.84912 0
M  V30 7663 C 715.565 -0.523197 1.81406 0
M  V30 7664 O 714.922 -1.36237 1.21432 0
M  V30 7665 C 714.973 1.41509 3.32652 0
M  V30 7666 O 714.694 2.80959 3.36145 0
M  V30 7667 C 716.195 1.243 4.25517 0
M  V30 7668 H 713.415 0.330612 0.583898 0
M  V30 7669 H 715.959 1.51349 1.37527 0
M  V30 7670 H 714.114 0.872648 3.77444 0
M  V30 7671 H 714.528 3.02704 4.28335 0
M  V30 7672 H 716.002 1.63237 5.27312 0
M  V30 7673 H 716.479 0.18532 4.38809 0
M  V30 7674 H 717.085 1.77375 3.86546 0
M  V30 7675 N 715.4 -1.26948 0.933913 0
M  V30 7676 C 716.625 -1.98724 0.593589 0
M  V30 7677 C 717.05 -1.6915 -0.822801 0
M  V30 7678 O 716.408 -0.93533 -1.5531 0
M  V30 7679 C 716.456 -3.50834 0.833542 0
M  V30 7680 O 715.56 -4.12284 -0.0978788 0
M  V30 7681 H 714.901 -0.623683 0.227849 0
M  V30 7682 H 717.431 -1.61599 1.25486 0
M  V30 7683 H 717.441 -4.01018 0.75156 0
M  V30 7684 H 716.116 -3.71691 1.86597 0
M  V30 7685 H 714.693 -3.72884 0.0345443 0
M  V30 7686 N 716.879 -0.700114 -1.41195 0
M  V30 7687 C 717.826 -0.0376652 -2.30769 0
M  V30 7688 C 718.796 0.766544 -1.47354 0
M  V30 7689 O 719.981 0.73365 -1.76131 0
M  V30 7690 C 717.121 0.889452 -3.33441 0
M  V30 7691 C 716.234 0.076373 -4.31932 0
M  V30 7692 C 715.369 1.00155 -5.21673 0
M  V30 7693 C 714.408 0.181644 -6.1183 0
M  V30 7694 N 713.545 1.06087 -6.94039 0
M  V30 7695 H 718.385 -0.80726 -2.86858 0
M  V30 7696 H 715.922 -0.409798 -1.41277 0
M  V30 7697 H 717.88 1.44107 -3.91522 0
M  V30 7698 H 716.51 1.6254 -2.78892 0
M  V30 7699 H 715.562 -0.592223 -3.75762 0
M  V30 7700 H 716.874 -0.559076 -4.95657 0
M  V30 7701 H 716.028 1.62223 -5.8461 0
M  V30 7702 H 714.767 1.67085 -4.58186 0
M  V30 7703 H 713.772 -0.452085 -5.47938 0
M  V30 7704 H 714.997 -0.483925 -6.77374 0
M  V30 7705 H 712.943 1.7161 -6.33156 0
M  V30 7706 H 712.86 0.481094 -7.54468 0
M  V30 7707 H 714.128 1.66822 -7.6144 0
M  V30 7708 N 718.357 1.51182 -0.445186 0
M  V30 7709 C 719.603 2.02452 0.11882 0
M  V30 7710 C 719.936 1.32824 1.41673 0
M  V30 7711 O 719.211 0.445637 1.89326 0
M  V30 7712 C 719.494 3.5859 0.329475 0
M  V30 7713 C 719.347 4.38823 -0.987638 0
M  V30 7714 C 720.666 4.26241 1.09575 0
M  V30 7715 H 717.785 0.735819 0.0417092 0
M  V30 7716 H 720.427 1.80747 -0.585718 0
M  V30 7717 H 718.577 3.77214 0.9296 0
M  V30 7718 H 720.249 4.3183 -1.62235 0
M  V30 7719 H 718.492 4.03594 -1.59041 0
M  V30 7720 H 719.163 5.46257 -0.794192 0
M  V30 7721 H 721.639 4.11934 0.587328 0
M  V30 7722 H 720.515 5.35354 1.21191 0
M  V30 7723 H 720.776 3.87635 2.12584 0
M  V30 7724 N 719.835 0.176821 1.56605 0
M  V30 7725 C 721.251 -0.179278 1.5859 0
M  V30 7726 C 721.451 -1.62433 1.19238 0
M  V30 7727 O 720.507 -2.35665 0.906552 0
M  V30 7728 C 721.82 0.106524 3.00511 0
M  V30 7729 C 723.368 0.0451731 3.12967 0
M  V30 7730 C 723.843 0.304038 4.5699 0
M  V30 7731 N 725.334 0.252008 4.62514 0
M  V30 7732 C 726.069 0.426404 5.71812 0
M  V30 7733 N 725.565 0.660155 6.89648 0
M  V30 7734 N 727.358 0.361926 5.60934 0
M  V30 7735 H 719.509 1.12001 1.8047 0
M  V30 7736 H 721.772 0.445679 0.836704 0
M  V30 7737 H 721.478 1.10778 3.33798 0
M  V30 7738 H 721.352 -0.599337 3.72408 0
M  V30 7739 H 723.739 -0.946662 2.79504 0
M  V30 7740 H 723.82 0.78383 2.43495 0
M  V30 7741 H 723.464 1.29311 4.91163 0
M  V30 7742 H 723.394 -0.455294 5.24628 0
M  V30 7743 H 725.885 0.0772102 3.77821 0
M  V30 7744 H 726.198 0.782529 7.68828 0
M  V30 7745 H 724.543 0.696835 6.91498 0
M  V30 7746 H 727.734 0.17986 4.67754 0
M  V30 7747 H 727.907 0.501263 6.46058 0
M  V30 7748 N 721.313 -1.57302 -0.09688 0
M  V30 7749 C 722.245 -1.98618 -1.14384 0
M  V30 7750 C 723.258 -0.888483 -1.36418 0
M  V30 7751 O 724.447 -1.16661 -1.35101 0
M  V30 7752 C 721.547 -2.28838 -2.49973 0
M  V30 7753 C 720.72 -3.60132 -2.48241 0
M  V30 7754 C 719.779 -3.7831 -3.65743 0
M  V30 7755 O 718.805 -4.50183 -3.48316 0
M  V30 7756 N 720.007 -3.18752 -4.85157 0
M  V30 7757 H 722.772 -2.8904 -0.792202 0
M  V30 7758 H 720.333 -1.59356 -0.285883 0
M  V30 7759 H 722.325 -2.38193 -3.27179 0
M  V30 7760 H 720.895 -1.44431 -2.77233 0
M  V30 7761 H 720.115 -3.61763 -1.56593 0
M  V30 7762 H 721.403 -4.46389 -2.4416 0
M  V30 7763 H 720.801 -2.60368 -5.0222 0
M  V30 7764 H 719.358 -3.33595 -5.59962 0
M  V30 7765 N 722.791 0.367657 -1.53252 0
M  V30 7766 C 723.721 1.45632 -1.8252 0
M  V30 7767 C 724.702 1.55979 -0.678568 0
M  V30 7768 O 725.887 1.70581 -0.928217 0
M  V30 7769 C 723.017 2.82994 -2.01325 0
M  V30 7770 C 721.971 2.87473 -3.17086 0
M  V30 7771 C 721.297 4.2749 -3.21179 0
M  V30 7772 C 722.597 2.55182 -4.55719 0
M  V30 7773 H 724.291 1.21387 -2.73689 0
M  V30 7774 H 721.837 0.58251 -1.31692 0
M  V30 7775 H 723.79 3.59179 -2.20383 0
M  V30 7776 H 722.514 3.08622 -1.06864 0
M  V30 7777 H 721.173 2.13739 -2.97844 0
M  V30 7778 H 720.821 4.5019 -2.24361 0
M  V30 7779 H 720.521 4.31403 -3.98955 0
M  V30 7780 H 722.045 5.0555 -3.42419 0
M  V30 7781 H 723.459 3.21081 -4.74953 0
M  V30 7782 H 721.856 2.70414 -5.3572 0
M  V30 7783 H 722.926 1.5044 -4.60973 0
M  V30 7784 N 724.269 1.44576 0.627338 0
M  V30 7785 C 725.199 1.54562 1.75022 0
M  V30 7786 C 726.18 0.398378 1.65369 0
M  V30 7787 O 727.365 0.61899 1.84071 0
M  V30 7788 C 724.495 1.49309 3.13567 0
M  V30 7789 C 723.449 2.62549 3.38012 0
M  V30 7790 C 722.775 2.42348 4.76625 0
M  V30 7791 C 724.075 4.04678 3.30202 0
M  V30 7792 H 725.769 2.4855 1.66922 0
M  V30 7793 H 723.315 1.19624 0.801636 0
M  V30 7794 H 725.268 1.54895 3.919 0
M  V30 7795 H 723.992 0.518392 3.2246 0
M  V30 7796 H 722.651 2.56358 2.62061 0
M  V30 7797 H 722.299 1.43062 4.82226 0
M  V30 7798 H 721.999 3.18273 4.93939 0
M  V30 7799 H 723.523 2.49758 5.57183 0
M  V30 7800 H 724.937 4.12217 3.98435 0
M  V30 7801 H 723.334 4.80836 3.5905 0
M  V30 7802 H 724.404 4.2798 2.27949 0
M  V30 7803 N 725.747 -0.868086 1.31537 0
M  V30 7804 C 727.024 -1.60384 1.11965 0
M  V30 7805 C 727.404 -2.08584 -0.324949 0
M  V30 7806 O 726.752 -1.86561 -1.31937 0
M  V30 7807 C 726.962 -2.76038 2.13551 0
M  V30 7808 C 728.31 -3.45954 2.46173 0
M  V30 7809 O 729.334 -2.86247 2.11993 0
M  V30 7810 O 728.193 -4.53666 3.04711 0
M  V30 7811 H 725.287 -0.705705 0.431172 0
M  V30 7812 H 727.833 -0.913385 1.43022 0
M  V30 7813 H 726.605 -2.37849 3.10714 0
M  V30 7814 H 726.228 -3.52769 1.83411 0
M  V30 7815 N 727.225 -1.14528 -1.08264 0
M  V30 7816 C 728.453 -0.937964 -1.84418 0
M  V30 7817 C 728.868 0.51357 -1.81681 0
M  V30 7818 O 728.225 1.35591 -1.22153 0
M  V30 7819 C 728.276 -1.43272 -3.31897 0
M  V30 7820 O 727.997 -2.82738 -3.34651 0
M  V30 7821 C 729.498 -1.26555 -4.24851 0
M  V30 7822 H 726.718 -0.333704 -0.582136 0
M  V30 7823 H 729.262 -1.52076 -1.36723 0
M  V30 7824 H 727.417 -0.892653 -3.76975 0
M  V30 7825 H 727.831 -3.04971 -4.26724 0
M  V30 7826 H 729.305 -1.66031 -5.26439 0
M  V30 7827 H 729.782 -0.208589 -4.38704 0
M  V30 7828 H 730.388 -1.79423 -3.856 0
M  V30 7829 N 728.703 1.26451 -0.940633 0
M  V30 7830 C 729.931 1.97868 -0.604642 0
M  V30 7831 C 730.346 1.70051 0.820251 0
M  V30 7832 O 729.703 0.96843 1.54686 0
M  V30 7833 C 729.754 3.51684 -0.836689 0
M  V30 7834 O 729.475 3.78533 -2.20554 0
M  V30 7835 C 730.976 4.40343 -0.511169 0
M  V30 7836 H 728.196 0.631105 -0.227919 0
M  V30 7837 H 730.74 1.60979 -1.26119 0
M  V30 7838 H 728.895 3.86736 -0.226759 0
M  V30 7839 H 729.309 4.73065 -2.26517 0
M  V30 7840 H 730.783 5.47229 -0.724157 0
M  V30 7841 H 731.26 4.35694 0.553815 0
M  V30 7842 H 731.866 4.10834 -1.0998 0
M  V30 7843 N 730.181 0.707592 1.40822 0
M  V30 7844 C 731.458 0.171172 1.9485 0
M  V30 7845 C 731.838 -1.32143 1.64625 0
M  V30 7846 O 731.186 -2.07372 0.959647 0
M  V30 7847 C 731.396 0.475334 3.45748 0
M  V30 7848 C 732.744 0.409625 4.22619 0
M  V30 7849 O 733.768 0.410934 3.53822 0
M  V30 7850 O 732.627 0.380185 5.45176 0
M  V30 7851 H 729.721 0.022015 0.826707 0
M  V30 7852 H 732.267 0.784577 1.50474 0
M  V30 7853 H 731.039 1.50801 3.61075 0
M  V30 7854 H 730.662 -0.168439 3.97243 0
M  V30 7855 N 731.66 -1.50943 0.453197 0
M  V30 7856 C 732.909 -2.01402 -0.10951 0
M  V30 7857 C 733.222 -1.3411 -1.42386 0
M  V30 7858 O 734.428 -1.75626 -2.07045 0
M  V30 7859 C 732.884 -3.5906 -0.245693 0
M  V30 7860 C 732.492 -4.353 1.05916 0
M  V30 7861 C 734.236 -4.17617 -0.761318 0
M  V30 7862 C 732.143 -5.84699 0.887752 0
M  V30 7863 H 731.073 -0.752674 -0.0447013 0
M  V30 7864 H 733.724 -1.73913 0.585375 0
M  V30 7865 H 732.106 -3.83062 -1.00395 0
M  V30 7866 H 733.28 -4.23034 1.82698 0
M  V30 7867 H 731.595 -3.88269 1.50452 0
M  V30 7868 H 734.192 -5.26963 -0.906306 0
M  V30 7869 H 734.535 -3.77824 -1.74799 0
M  V30 7870 H 735.068 -3.97753 -0.0609416 0
M  V30 7871 H 731.807 -6.28933 1.84726 0
M  V30 7872 H 731.327 -5.99587 0.160006 0
M  V30 7873 H 733.006 -6.44682 0.547223 0
M  V30 7874 N 733.138 -0.185124 -1.56509 0
M  V30 7875 C 734.07 0.771401 -2.15829 0
M  V30 7876 C 735.083 1.18392 -1.11747 0
M  V30 7877 O 736.272 1.12137 -1.38879 0
M  V30 7878 C 733.372 2.05169 -2.69739 0
M  V30 7879 C 732.545 1.80056 -3.98621 0
M  V30 7880 C 731.604 2.92435 -4.37456 0
M  V30 7881 O 730.63 2.62473 -5.05071 0
M  V30 7882 N 731.832 4.20554 -4.00143 0
M  V30 7883 H 734.597 0.264184 -2.98533 0
M  V30 7884 H 732.158 -0.00281069 -1.619 0
M  V30 7885 H 734.15 2.7947 -2.92709 0
M  V30 7886 H 732.72 2.47041 -1.91545 0
M  V30 7887 H 731.94 0.895862 -3.83885 0
M  V30 7888 H 733.228 1.60662 -4.82768 0
M  V30 7889 H 732.626 4.47753 -3.45736 0
M  V30 7890 H 731.183 4.91514 -4.28085 0
M  V30 7891 N 734.616 1.57351 0.0885366 0
M  V30 7892 C 735.864 1.86051 0.789262 0
M  V30 7893 C 736.185 0.774763 1.78948 0
M  V30 7894 O 735.455 -0.198324 1.94894 0
M  V30 7895 H 734.035 0.686508 0.294475 0
M  V30 7896 H 736.697 1.94779 0.0686055 0
M  V30 7897 H 735.793 2.83007 1.31581 0
M  V30 7898 N 736.094 -0.359525 1.53444 0
M  V30 7899 C 737.004 -1.46445 1.83278 0
M  V30 7900 C 738.02 -1.5833 0.721629 0
M  V30 7901 O 739.196 -1.7411 1.01231 0
M  V30 7902 C 736.261 -2.81638 2.02191 0
M  V30 7903 C 735.322 -2.7923 3.26082 0
M  V30 7904 C 734.555 -4.07974 3.44082 0
M  V30 7905 O 734.778 -5.04447 2.66251 0
M  V30 7906 O 733.712 -4.13417 4.37458 0
M  V30 7907 H 737.538 -1.24156 2.77162 0
M  V30 7908 H 735.123 -0.550201 1.389 0
M  V30 7909 H 737.005 -3.61732 2.16167 0
M  V30 7910 H 735.68 -3.03892 1.11496 0
M  V30 7911 H 734.587 -1.97813 3.17523 0
M  V30 7912 H 735.92 -2.6193 4.16718 0
M  V30 7913 N 737.572 -1.44907 -0.619662 0
M  V30 7914 C 738.482 -1.55168 -1.75955 0
M  V30 7915 C 739.498 -0.43672 -1.6843 0
M  V30 7916 O 740.674 -0.695704 -1.89002 0
M  V30 7917 C 737.739 -1.50397 -3.12381 0
M  V30 7918 C 736.8 -2.72835 -3.31451 0
M  V30 7919 C 736.033 -2.68283 -4.61368 0
M  V30 7920 O 736.256 -1.74929 -5.42914 0
M  V30 7921 O 735.19 -3.59308 -4.82889 0
M  V30 7922 H 739.016 -2.51493 -1.7025 0
M  V30 7923 H 736.601 -1.27282 -0.782289 0
M  V30 7924 H 738.483 -1.50301 -3.93685 0
M  V30 7925 H 737.158 -0.572197 -3.18603 0
M  V30 7926 H 736.065 -2.78496 -2.49781 0
M  V30 7927 H 737.398 -3.65098 -3.30098 0
M  V30 7928 N 739.05 0.861098 -1.31996 0
M  V30 7929 C 740.297 1.61481 -1.22188 0
M  V30 7930 C 740.625 1.93276 0.217853 0
M  V30 7931 O 739.88 1.56942 1.16909 0
M  V30 7932 C 740.179 2.94822 -2.02027 0
M  V30 7933 C 739.845 2.82483 -3.51446 0
M  V30 7934 C 738.507 2.78825 -3.92186 0
M  V30 7935 C 740.859 2.68878 -4.46491 0
M  V30 7936 C 738.187 2.59433 -5.26224 0
M  V30 7937 C 740.539 2.51022 -5.80664 0
M  V30 7938 C 739.203 2.45753 -6.20614 0
M  V30 7939 H 738.473 0.590902 -0.447119 0
M  V30 7940 H 741.12 0.999376 -1.63355 0
M  V30 7941 H 739.425 3.6045 -1.53569 0
M  V30 7942 H 741.122 3.52149 -1.91812 0
M  V30 7943 H 737.712 2.86152 -3.19085 0
M  V30 7944 H 741.896 2.70754 -4.1594 0
M  V30 7945 H 737.152 2.53784 -5.5624 0
M  V30 7946 H 741.326 2.39473 -6.53931 0
M  V30 7947 H 738.953 2.30485 -7.24417 0
M  V30 7948 N 740.528 1.15101 1.07655 0
M  V30 7949 C 741.491 0.847625 2.12951 0
M  V30 7950 C 742.491 -0.151227 1.60087 0
M  V30 7951 O 743.681 0.0780399 1.74025 0
M  V30 7952 C 740.813 0.265 3.39868 0
M  V30 7953 H 742.006 1.7809 2.41296 0
M  V30 7954 H 739.559 0.958072 1.23494 0
M  V30 7955 H 740.294 -0.676625 3.17163 0
M  V30 7956 H 740.079 0.984554 3.79538 0
M  V30 7957 H 741.569 0.0702121 4.17541 0
M  V30 7958 N 742.006 -1.2595 0.947325 0
M  V30 7959 C 742.953 -2.26159 0.460497 0
M  V30 7960 C 743.923 -1.58919 -0.483125 0
M  V30 7961 O 745.108 -1.86603 -0.397983 0
M  V30 7962 C 742.248 -3.441 -0.26247 0
M  V30 7963 C 741.361 -4.25999 0.717539 0
M  V30 7964 C 740.496 -5.31193 -0.0272486 0
M  V30 7965 C 739.535 -6.04774 0.944177 0
M  V30 7966 N 738.672 -7.01721 0.230741 0
M  V30 7967 H 743.512 -2.67173 1.31995 0
M  V30 7968 H 741.049 -1.31358 0.662088 0
M  V30 7969 H 743.007 -4.11317 -0.698137 0
M  V30 7970 H 741.637 -3.03983 -1.08602 0
M  V30 7971 H 740.689 -3.58513 1.27171 0
M  V30 7972 H 742.001 -4.76981 1.45913 0
M  V30 7973 H 741.155 -6.04451 -0.521903 0
M  V30 7974 H 739.894 -4.81066 -0.801682 0
M  V30 7975 H 738.899 -5.30338 1.4499 0
M  V30 7976 H 740.124 -6.56991 1.71872 0
M  V30 7977 H 738.07 -6.53895 -0.525088 0
M  V30 7978 H 737.987 -7.50484 0.911556 0
M  V30 7979 H 739.255 -7.79122 -0.242616 0
M  V30 7980 N 743.484 -0.715051 -1.40445 0
M  V30 7981 C 744.73 -0.254705 -2.01194 0
M  V30 7982 C 745.063 1.14894 -1.56567 0
M  V30 7983 O 744.338 1.77933 -0.785491 0
M  V30 7984 C 744.621 -0.334148 -3.58546 0
M  V30 7985 C 744.474 -1.77613 -4.13248 0
M  V30 7986 C 745.793 0.294968 -4.3911 0
M  V30 7987 H 742.912 -0.094025 -0.730978 0
M  V30 7988 H 745.554 -0.907449 -1.66929 0
M  V30 7989 H 743.704 0.221609 -3.87867 0
M  V30 7990 H 745.376 -2.38723 -3.94727 0
M  V30 7991 H 743.619 -2.30402 -3.67556 0
M  V30 7992 H 744.29 -1.78311 -5.22407 0
M  V30 7993 H 746.766 -0.178563 -4.15717 0
M  V30 7994 H 745.642 0.208934 -5.48502 0
M  V30 7995 H 745.903 1.37841 -4.20062 0
M  V30 7996 N 744.962 1.50701 -0.461195 0
M  V30 7997 C 746.211 2.01458 0.0988277 0
M  V30 7998 C 746.524 1.34863 1.41673 0
M  V30 7999 O 747.73 1.76721 2.06111 0
M  V30 8000 C 746.186 3.59186 0.226648 0
M  V30 8001 C 745.794 4.34732 -1.08223 0
M  V30 8002 C 747.538 4.18015 0.73916 0
M  V30 8003 C 745.445 5.8422 -0.918747 0
M  V30 8004 H 744.375 0.7529 0.040709 0
M  V30 8005 H 747.026 1.736 -0.594589 0
M  V30 8006 H 745.408 3.83589 0.983621 0
M  V30 8007 H 746.582 4.22059 -1.84939 0
M  V30 8008 H 744.897 3.87466 -1.52509 0
M  V30 8009 H 747.494 5.27436 0.878347 0
M  V30 8010 H 747.837 3.78746 1.72793 0
M  V30 8011 H 748.37 3.9778 0.0398469 0
M  V30 8012 H 745.109 6.27944 -1.88059 0
M  V30 8013 H 744.629 5.99493 -0.191801 0
M  V30 8014 H 746.308 6.44382 -0.581405 0
M  V30 8015 N 746.441 0.193421 1.56409 0
M  V30 8016 C 747.687 -0.446449 1.97825 0
M  V30 8017 C 748.02 -1.61386 1.08019 0
M  V30 8018 O 747.295 -1.94053 0.131839 0
M  V30 8019 C 747.578 -0.908199 3.48459 0
M  V30 8020 C 747.431 0.260914 4.49043 0
M  V30 8021 C 748.75 -1.77428 4.0275 0
M  V30 8022 H 745.869 -0.160807 0.719243 0
M  V30 8023 H 748.511 0.284006 1.87865 0
M  V30 8024 H 746.661 -1.53062 3.57077 0
M  V30 8025 H 748.333 0.898548 4.52464 0
M  V30 8026 H 746.576 0.912949 4.24085 0
M  V30 8027 H 747.247 -0.104657 5.51901 0
M  V30 8028 H 749.723 -1.24936 3.96901 0
M  V30 8029 H 748.599 -2.06633 5.08521 0
M  V30 8030 H 748.86 -2.72788 3.47907 0
M  V30 8031 N 747.919 -1.57396 -0.0801906 0
M  V30 8032 C 748.851 -1.9982 -1.12271 0
M  V30 8033 C 749.864 -0.902902 -1.35468 0
M  V30 8034 O 751.053 -1.18088 -1.33856 0
M  V30 8035 C 748.153 -2.31476 -2.47532 0
M  V30 8036 C 747.326 -3.62745 -2.44407 0
M  V30 8037 C 746.385 -3.82168 -3.6171 0
M  V30 8038 O 745.411 -4.53852 -3.43522 0
M  V30 8039 N 746.613 -3.2388 -4.81749 0
M  V30 8040 H 749.378 -2.89864 -0.761501 0
M  V30 8041 H 746.939 -1.5965 -0.268965 0
M  V30 8042 H 748.931 -2.4165 -3.24634 0
M  V30 8043 H 747.501 -1.47364 -2.75686 0
M  V30 8044 H 746.721 -3.63403 -1.52747 0
M  V30 8045 H 748.009 -4.48954 -2.39412 0
M  V30 8046 H 747.407 -2.6568 -4.9943 0
M  V30 8047 H 745.964 -3.39515 -5.56392 0
M  V30 8048 N 749.397 0.351382 -1.53633 0
M  V30 8049 C 750.344 1.43115 -1.81071 0
M  V30 8050 C 751.314 1.52601 -0.655913 0
M  V30 8051 O 752.499 1.68264 -0.89955 0
M  V30 8052 C 749.639 2.79874 -2.01903 0
M  V30 8053 C 748.752 2.79242 -3.29618 0
M  V30 8054 C 747.887 4.07667 -3.40559 0
M  V30 8055 C 746.926 4.01233 -4.62254 0
M  V30 8056 N 746.063 5.21334 -4.70271 0
M  V30 8057 H 750.903 1.19017 -2.73201 0
M  V30 8058 H 748.44 0.576691 -1.35324 0
M  V30 8059 H 750.398 3.5934 -2.11969 0
M  V30 8060 H 749.028 3.0234 -1.13094 0
M  V30 8061 H 748.08 1.91927 -3.28433 0
M  V30 8062 H 749.392 2.70363 -4.19172 0
M  V30 8063 H 748.546 4.95555 -3.50015 0
M  V30 8064 H 747.285 4.19317 -2.49047 0
M  V30 8065 H 746.29 3.11732 -4.52884 0
M  V30 8066 H 747.515 3.91173 -5.55122 0
M  V30 8067 H 745.461 5.33543 -3.81665 0
M  V30 8068 H 745.378 5.14681 -5.5375 0
M  V30 8069 H 746.646 6.11014 -4.84027 0
M  V30 8070 N 750.875 1.45233 0.611969 0
M  V30 8071 C 751.805 1.5641 1.73373 0
M  V30 8072 C 752.786 0.415896 1.64937 0
M  V30 8073 O 753.971 0.638478 1.83404 0
M  V30 8074 C 751.101 1.52627 3.11965 0
M  V30 8075 C 750.055 2.66119 3.35208 0
M  V30 8076 C 749.381 2.4739 4.74028 0
M  V30 8077 C 750.681 4.08157 3.25891 0
M  V30 8078 H 752.375 2.50307 1.64277 0
M  V30 8079 H 749.921 1.20467 0.788904 0
M  V30 8080 H 751.874 1.59043 3.90235 0
M  V30 8081 H 750.598 0.552564 3.21892 0
M  V30 8082 H 749.257 2.59123 2.59327 0
M  V30 8083 H 748.905 1.48168 4.80682 0
M  V30 8084 H 748.605 3.23494 4.90536 0
M  V30 8085 H 750.129 2.55653 5.54503 0
M  V30 8086 H 751.543 4.1642 3.9404 0
M  V30 8087 H 749.94 4.84617 3.5393 0
M  V30 8088 H 751.01 4.30374 2.23397 0
M  V30 8089 N 752.353 -0.854086 1.3245 0
M  V30 8090 C 753.3 -1.96271 1.21434 0
M  V30 8091 C 754.27 -1.6582 0.0963851 0
M  V30 8092 O 755.455 -1.88851 0.27203 0
M  V30 8093 C 752.595 -3.31939 0.943952 0
M  V30 8094 C 751.708 -3.74885 2.14675 0
M  V30 8095 C 750.843 -4.99347 1.81179 0
M  V30 8096 C 749.882 -5.34785 2.97777 0
M  V30 8097 N 749.019 -6.50425 2.6437 0
M  V30 8098 H 753.859 -2.05025 2.16261 0
M  V30 8099 H 751.396 -1.00348 1.07558 0
M  V30 8100 H 753.354 -4.10076 0.767675 0
M  V30 8101 H 751.984 -3.22784 0.0324763 0
M  V30 8102 H 751.036 -2.92396 2.43328 0
M  V30 8103 H 752.348 -3.97068 3.01891 0
M  V30 8104 H 751.502 -5.85193 1.60107 0
M  V30 8105 H 750.241 -4.79101 0.911777 0
M  V30 8106 H 749.246 -4.47451 3.1948 0
M  V30 8107 H 750.471 -5.56988 3.88511 0
M  V30 8108 H 748.417 -6.31695 1.7691 0
M  V30 8109 H 748.334 -6.7263 3.45116 0
M  V30 8110 H 749.602 -7.39422 2.46729 0
M  V30 8111 N 753.831 -1.1567 -1.07043 0
M  V30 8112 C 755.108 -0.843948 -1.76456 0
M  V30 8113 C 755.488 0.659806 -2.00524 0
M  V30 8114 O 754.836 1.60518 -1.62623 0
M  V30 8115 C 755.046 -1.65822 -3.0709 0
M  V30 8116 C 756.394 -1.8664 -3.8138 0
M  V30 8117 O 757.418 -1.62624 -3.1691 0
M  V30 8118 O 756.277 -2.26884 -4.97178 0
M  V30 8119 H 753.371 -0.310677 -0.766426 0
M  V30 8120 H 755.917 -1.26266 -1.1338 0
M  V30 8121 H 754.689 -2.67902 -2.85209 0
M  V30 8122 H 754.312 -1.23605 -3.77899 0
M  V30 8123 N 755.309 1.25446 -0.953992 0
M  V30 8124 C 756.257 2.27909 -0.46478 0
M  V30 8125 C 757.251 1.62904 0.464607 0
M  V30 8126 O 758.457 1.76733 0.341407 0
M  V30 8127 H 754.832 0.74036 -0.131798 0
M  V30 8128 H 756.803 2.66559 -1.34122 0
M  V30 8129 C 755.552 3.46853 0.242589 0
M  V30 8130 H 754.875 3.97105 -0.463418 0
M  V30 8131 H 756.315 4.20432 0.548919 0
M  V30 8132 C 754.774 3.03386 1.46487 0
M  V30 8133 O 755.304 3.09342 2.56262 0
M  V30 8134 N 753.51 2.58584 1.32599 0
M  V30 8135 H 753.057 2.53938 0.432834 0
M  V30 8136 H 753.015 2.29866 2.14497 0
M  V30 8137 N 756.787 0.722489 1.40064 0
M  V30 8138 C 757.734 0.0743738 2.3068 0
M  V30 8139 C 758.704 -0.743004 1.48555 0
M  V30 8140 O 759.889 -0.705536 1.77276 0
M  V30 8141 C 757.029 -0.836292 3.34814 0
M  V30 8142 C 756.142 -0.00764663 4.31999 0
M  V30 8143 C 755.277 -0.918428 5.232 0
M  V30 8144 C 754.316 -0.0842838 6.12042 0
M  V30 8145 N 753.453 -0.950316 6.95639 0
M  V30 8146 H 758.293 0.852794 2.85537 0
M  V30 8147 H 755.83 0.432222 1.40607 0
M  V30 8148 H 757.788 -1.3786 3.93765 0
M  V30 8149 H 756.418 -1.58082 2.81443 0
M  V30 8150 H 755.47 0.651928 3.74772 0
M  V30 8151 H 756.782 0.63786 4.94705 0
M  V30 8152 H 755.936 -1.52902 5.87116 0
M  V30 8153 H 754.675 -1.59774 4.60786 0
M  V30 8154 H 753.68 0.5392 5.4715 0
M  V30 8155 H 754.905 0.591628 6.76518 0
M  V30 8156 H 752.851 -1.61515 6.35806 0
M  V30 8157 H 752.768 -0.361004 7.55138 0
M  V30 8158 H 754.036 -1.54687 7.63997 0
M  V30 8159 N 758.265 -1.50454 0.469181 0
M  V30 8160 C 759.197 -2.26319 -0.362247 0
M  V30 8161 C 760.21 -1.31574 -0.958751 0
M  V30 8162 O 761.399 -1.57099 -0.847482 0
M  V30 8163 C 758.499 -3.02808 -1.52187 0
M  V30 8164 C 757.672 -4.24893 -1.03849 0
M  V30 8165 C 756.731 -4.83691 -2.07194 0
M  V30 8166 O 755.757 -5.44659 -1.65333 0
M  V30 8167 N 756.959 -4.70522 -3.39985 0
M  V30 8168 H 759.724 -2.98312 0.288124 0
M  V30 8169 H 757.285 -1.59099 0.299856 0
M  V30 8170 H 759.277 -3.39023 -2.21011 0
M  V30 8171 H 757.847 -2.33625 -2.07697 0
M  V30 8172 H 757.067 -3.93806 -0.176203 0
M  V30 8173 H 758.355 -5.04053 -0.693435 0
M  V30 8174 H 757.753 -4.2203 -3.76706 0
M  V30 8175 H 756.31 -5.11011 -4.04612 0
M  V30 8176 N 759.743 -0.201713 -1.56304 0
M  V30 8177 C 760.676 0.755976 -2.15314 0
M  V30 8178 C 761.654 1.20497 -1.09175 0
M  V30 8179 O 762.838 1.2913 -1.37323 0
M  V30 8180 C 759.965 2.02177 -2.71739 0
M  V30 8181 C 759.011 1.71436 -3.90528 0
M  V30 8182 S 759.844 0.856624 -5.28604 0
M  V30 8183 C 761 2.13242 -5.88455 0
M  V30 8184 H 761.233 0.254348 -2.9621 0
M  V30 8185 H 758.766 0.0133669 -1.54394 0
M  V30 8186 H 760.724 2.74867 -3.04891 0
M  V30 8187 H 759.385 2.49452 -1.90873 0
M  V30 8188 H 758.578 2.65433 -4.28441 0
M  V30 8189 H 758.18 1.06823 -3.5842 0
M  V30 8190 H 760.472 3.08435 -6.0322 0
M  V30 8191 H 761.415 1.7975 -6.84905 0
M  V30 8192 H 761.823 2.2639 -5.17115 0
M  V30 8193 N 761.222 1.57436 0.0718424 0
M  V30 8194 C 762.47 1.86878 0.769484 0
M  V30 8195 C 762.791 0.7937 1.78116 0
M  V30 8196 O 762.061 -0.177642 1.95093 0
M  V30 8197 H 760.641 0.689593 0.287177 0
M  V30 8198 H 763.303 1.94841 0.0479427 0
M  V30 8199 H 762.399 2.84387 1.28572 0
M  V30 8200 N 762.7 -0.34323 1.53817 0
M  V30 8201 C 763.63 -1.42709 1.84814 0
M  V30 8202 C 764.611 -1.5488 0.703297 0
M  V30 8203 O 765.796 -1.69082 0.955237 0
M  V30 8204 C 762.926 -2.79756 2.05801 0
M  V30 8205 C 761.88 -2.82392 3.21619 0
M  V30 8206 C 761.206 -4.22326 3.2794 0
M  V30 8207 C 762.506 -2.479 4.59721 0
M  V30 8208 H 764.2 -1.17018 2.75585 0
M  V30 8209 H 761.746 -0.561485 1.32602 0
M  V30 8210 H 763.699 -3.55627 2.26069 0
M  V30 8211 H 762.423 -3.06883 1.11761 0
M  V30 8212 H 761.082 -2.08974 3.01207 0
M  V30 8213 H 760.73 -4.46564 2.31494 0
M  V30 8214 H 760.43 -4.25001 4.05768 0
M  V30 8215 H 761.954 -5.00039 3.50419 0
M  V30 8216 H 763.368 -3.13484 4.80001 0
M  V30 8217 H 761.765 -2.61857 5.39954 0
M  V30 8218 H 762.835 -1.43087 4.63308 0
M  V30 8219 N 764.178 -1.45556 -0.604258 0
M  V30 8220 C 765.11 -1.50494 -1.72871 0
M  V30 8221 C 766.123 -0.395368 -1.57926 0
M  V30 8222 O 767.312 -0.662603 -1.65746 0
M  V30 8223 C 764.412 -1.34874 -3.10906 0
M  V30 8224 C 763.585 -2.59564 -3.52058 0
M  V30 8225 C 762.644 -2.38453 -4.6907 0
M  V30 8226 O 761.67 -3.12082 -4.76018 0
M  V30 8227 N 762.872 -1.43229 -5.62553 0
M  V30 8228 H 765.637 -2.4744 -1.69097 0
M  V30 8229 H 763.198 -1.41338 -0.789636 0
M  V30 8230 H 765.19 -1.18556 -3.86945 0
M  V30 8231 H 763.76 -0.461913 -3.09168 0
M  V30 8232 H 762.98 -2.90974 -2.65946 0
M  V30 8233 H 764.268 -3.42441 -3.76313 0
M  V30 8234 H 763.666 -0.824714 -5.59656 0
M  V30 8235 H 762.223 -1.32882 -6.38111 0
M  V30 8236 N 765.656 0.84705 -1.32902 0
M  V30 8237 C 767.067 1.41785 -1.21466 0
M  V30 8238 C 767.418 1.95464 0.169767 0
M  V30 8239 O 766.543 1.88157 1.06892 0
M  V30 8240 C 767.138 2.57734 -2.19906 0
M  V30 8241 C 765.697 3.10791 -2.12334 0
M  V30 8242 C 764.844 1.83562 -2.07847 0
M  V30 8243 H 767.795 0.653532 -1.44619 0
M  V30 8244 H 767.816 3.35123 -1.80202 0
M  V30 8245 H 767.328 2.18635 -3.20656 0
M  V30 8246 H 765.429 3.54455 -1.14858 0
M  V30 8247 H 765.542 3.71519 -3.02506 0
M  V30 8248 H 763.906 2.03475 -1.53199 0
M  V30 8249 H 764.689 1.4667 -3.10392 0
M  V30 8250 N 767.134 1.16236 1.06428 0
M  V30 8251 C 768.364 0.965782 1.82637 0
M  V30 8252 C 768.772 -0.489284 1.82764 0
M  V30 8253 O 768.115 -1.35133 1.24438 0
M  V30 8254 C 768.177 1.41458 3.30499 0
M  V30 8255 C 767.841 2.88926 3.54077 0
M  V30 8256 C 768.838 3.86939 3.47238 0
M  V30 8257 C 766.523 3.26814 3.81442 0
M  V30 8258 C 768.517 5.20841 3.67428 0
M  V30 8259 C 766.204 4.60886 4.01282 0
M  V30 8260 C 767.202 5.57708 3.94272 0
M  V30 8261 O 766.89 6.89357 4.13573 0
M  V30 8262 H 766.622 0.342569 0.582772 0
M  V30 8263 H 769.176 1.54641 1.35187 0
M  V30 8264 H 767.406 0.777426 3.78805 0
M  V30 8265 H 769.095 1.18563 3.88198 0
M  V30 8266 H 769.861 3.59014 3.26089 0
M  V30 8267 H 765.74 2.5203 3.86008 0
M  V30 8268 H 769.284 5.96401 3.61873 0
M  V30 8269 H 765.181 4.88522 4.21921 0
M  V30 8270 H 765.949 6.95913 4.30869 0
M  V30 8271 N 768.612 -1.24939 0.960631 0
M  V30 8272 C 770.023 -1.74701 0.658529 0
M  V30 8273 C 770.374 -1.77967 -0.825959 0
M  V30 8274 O 769.499 -1.40444 -1.64634 0
M  V30 8275 C 770.094 -3.17263 1.18867 0
M  V30 8276 C 768.653 -3.64561 0.936614 0
M  V30 8277 C 767.8 -2.43423 1.32817 0
M  V30 8278 H 770.751 -1.10741 1.13676 0
M  V30 8279 H 770.772 -3.76481 0.551589 0
M  V30 8280 H 770.284 -3.14854 2.26912 0
M  V30 8281 H 768.385 -3.72378 -0.128608 0
M  V30 8282 H 768.498 -4.52392 1.57729 0
M  V30 8283 H 766.862 -2.43513 0.746548 0
M  V30 8284 H 767.645 -2.437 2.41796 0
M  V30 8285 N 770.09 -0.729906 -1.39679 0
M  V30 8286 C 771 -0.0880322 -2.34435 0
M  V30 8287 C 772.016 0.727674 -1.58053 0
M  V30 8288 O 773.192 0.657321 -1.90371 0
M  V30 8289 C 770.257 0.812211 -3.37052 0
M  V30 8290 C 769.318 -0.0151681 -4.29297 0
M  V30 8291 C 768.551 0.842202 -5.27013 0
M  V30 8292 O 768.774 2.08108 -5.31081 0
M  V30 8293 O 767.708 0.27357 -6.01278 0
M  V30 8294 H 771.534 -0.869989 -2.90972 0
M  V30 8295 H 769.119 -0.490522 -1.41118 0
M  V30 8296 H 771.001 1.32745 -3.99946 0
M  V30 8297 H 769.676 1.57307 -2.82907 0
M  V30 8298 H 768.583 -0.575811 -3.69642 0
M  V30 8299 H 769.916 -0.738129 -4.86634 0
M  V30 8300 N 771.568 1.50203 -0.477153 0
M  V30 8301 C 772.817 2.01551 0.0774548 0
M  V30 8302 C 773.13 1.36359 1.40234 0
M  V30 8303 O 774.336 1.78898 2.04225 0
M  V30 8304 C 772.792 3.59406 0.188539 0
M  V30 8305 C 772.4 4.3356 -1.12828 0
M  V30 8306 C 774.144 4.18776 0.694782 0
M  V30 8307 C 772.051 5.83213 -0.98066 0
M  V30 8308 H 770.981 0.75329 0.0327212 0
M  V30 8309 H 773.632 1.72959 -0.612969 0
M  V30 8310 H 772.014 3.84611 0.942881 0
M  V30 8311 H 773.188 4.20074 -1.89405 0
M  V30 8312 H 771.503 3.85827 -1.5661 0
M  V30 8313 H 774.1 5.28338 0.822356 0
M  V30 8314 H 774.443 3.80557 1.68766 0
M  V30 8315 H 774.976 3.978 -0.00234519 0
M  V30 8316 H 771.715 6.25914 -1.94709 0
M  V30 8317 H 771.235 5.99256 -0.255375 0
M  V30 8318 H 772.914 6.4373 -0.649717 0
M  V30 8319 N 773.046 0.209999 1.56195 0
M  V30 8320 C 773.976 -0.699746 2.22769 0
M  V30 8321 C 774.957 -1.20993 1.1956 0
M  V30 8322 O 776.142 -1.25605 1.48112 0
M  V30 8323 C 773.272 -1.91302 2.89863 0
M  V30 8324 C 772.226 -1.53715 3.99444 0
M  V30 8325 C 771.552 -2.82826 4.53777 0
M  V30 8326 C 772.852 -0.735836 5.17091 0
M  V30 8327 H 774.546 -0.144716 2.9905 0
M  V30 8328 H 772.092 -0.0681645 1.43839 0
M  V30 8329 H 774.045 -2.5548 3.35124 0
M  V30 8330 H 772.769 -2.49283 2.11011 0
M  V30 8331 H 771.428 -0.918892 3.54897 0
M  V30 8332 H 771.076 -3.38927 3.71669 0
M  V30 8333 H 770.776 -2.58415 5.27727 0
M  V30 8334 H 772.3 -3.47966 5.01749 0
M  V30 8335 H 773.714 -1.28105 5.58804 0
M  V30 8336 H 772.111 -0.589272 5.972 0
M  V30 8337 H 773.181 0.260004 4.84202 0
M  V30 8338 N 774.524 -1.57472 -0.0634922 0
M  V30 8339 C 775.77 -1.87932 -0.762194 0
M  V30 8340 C 776.103 -0.803377 -1.76804 0
M  V30 8341 O 775.378 0.185468 -1.93614 0
M  V30 8342 C 775.661 -3.29053 -1.46275 0
M  V30 8343 C 775.514 -4.47309 -0.472755 0
M  V30 8344 C 776.833 -3.68537 -2.40558 0
M  V30 8345 H 773.952 -0.683521 -0.275624 0
M  V30 8346 H 776.594 -1.89983 -0.0252651 0
M  V30 8347 H 774.744 -3.27435 -2.0909 0
M  V30 8348 H 776.416 -4.61053 0.150828 0
M  V30 8349 H 774.659 -4.33286 0.211187 0
M  V30 8350 H 775.33 -5.42853 -1.00072 0
M  V30 8351 H 777.806 -3.71302 -1.87814 0
M  V30 8352 H 776.682 -4.68152 -2.86574 0
M  V30 8353 H 776.943 -2.98917 -3.25731 0
M  V30 8354 N 776.003 0.335068 -1.53997 0
M  V30 8355 C 777.249 1.07594 -1.71905 0
M  V30 8356 C 777.582 1.88039 -0.485264 0
M  V30 8357 O 776.857 1.87482 0.517752 0
M  V30 8358 C 777.14 2.01016 -2.98772 0
M  V30 8359 C 776.993 1.23977 -4.32377 0
M  V30 8360 C 778.312 3.0071 -3.21343 0
M  V30 8361 H 775.431 0.38976 -0.625505 0
M  V30 8362 H 778.073 0.353684 -1.86679 0
M  V30 8363 H 776.223 2.62603 -2.86307 0
M  V30 8364 H 777.895 0.649383 -4.56706 0
M  V30 8365 H 776.138 0.541878 -4.30402 0
M  V30 8366 H 776.809 1.92512 -5.17342 0
M  V30 8367 H 779.285 2.4924 -3.33194 0
M  V30 8368 H 778.161 3.63272 -4.11491 0
M  V30 8369 H 778.422 3.72549 -2.38033 0
M  V30 8370 N 777.481 1.45874 0.596531 0
M  V30 8371 C 778.706 1.54247 1.38646 0
M  V30 8372 C 779.131 0.179571 1.87241 0
M  V30 8373 O 778.489 -0.837831 1.6078 0
M  V30 8374 C 778.537 2.54015 2.55946 0
M  V30 8375 O 777.641 2.06561 3.5694 0
M  V30 8376 H 776.982 0.519555 0.413471 0
M  V30 8377 H 779.512 1.91327 0.724936 0
M  V30 8378 H 779.522 2.73179 3.03047 0
M  V30 8379 H 778.197 3.52994 2.19928 0
M  V30 8380 H 776.774 1.97324 3.16414 0
M  V30 8381 N 778.959 -0.83999 1.33349 0
M  V30 8382 C 780.375 -1.13049 1.12659 0
M  V30 8383 C 780.575 -2.01328 -0.0832613 0
M  V30 8384 O 779.631 -2.40669 -0.763856 0
M  V30 8385 C 780.944 -1.79366 2.41347 0
M  V30 8386 C 782.492 -1.91937 2.47243 0
M  V30 8387 C 782.967 -2.6167 3.75889 0
M  V30 8388 N 784.458 -2.69184 3.76954 0
M  V30 8389 C 785.193 -3.23827 4.73206 0
M  V30 8390 N 784.689 -3.79166 5.79832 0
M  V30 8391 N 786.482 -3.22068 4.60683 0
M  V30 8392 H 778.633 -0.252432 2.10895 0
M  V30 8393 H 780.896 -0.174501 0.931801 0
M  V30 8394 H 780.602 -1.2196 3.29877 0
M  V30 8395 H 780.476 -2.79396 2.53412 0
M  V30 8396 H 782.863 -2.48498 1.59163 0
M  V30 8397 H 782.944 -0.908604 2.39119 0
M  V30 8398 H 782.588 -2.05769 4.64351 0
M  V30 8399 H 782.518 -3.63217 3.81289 0
M  V30 8400 H 785.009 -2.2994 2.99893 0
M  V30 8401 H 785.322 -4.19061 6.49313 0
M  V30 8402 H 783.667 -3.77457 5.83568 0
M  V30 8403 H 786.858 -2.78092 3.7654 0
M  V30 8404 H 787.031 -3.64351 5.35866 0
M  V30 8405 N 780.437 -1.16799 -1.0581 0
M  V30 8406 C 781.662 -0.977402 -1.82925 0
M  V30 8407 C 782.087 0.469514 -1.82146 0
M  V30 8408 O 781.445 1.33576 -1.22585 0
M  V30 8409 C 781.493 -1.51543 -3.27211 0
M  V30 8410 O 780.597 -0.725021 -4.05977 0
M  V30 8411 H 779.938 -0.347474 -0.565825 0
M  V30 8412 H 782.468 -1.55151 -1.33376 0
M  V30 8413 H 782.478 -1.53502 -3.78023 0
M  V30 8414 H 781.153 -2.56872 -3.27093 0
M  V30 8415 H 779.73 -0.77634 -3.64729 0
M  V30 8416 N 781.915 1.24427 -0.967243 0
M  V30 8417 C 783.326 1.74349 -0.667785 0
M  V30 8418 C 783.677 1.78403 0.816509 0
M  V30 8419 O 782.802 1.41315 1.63887 0
M  V30 8420 C 783.397 3.16628 -1.20548 0
M  V30 8421 C 781.956 3.64059 -0.955934 0
M  V30 8422 C 781.103 2.42715 -1.34106 0
M  V30 8423 H 784.054 1.10136 -1.14262 0
M  V30 8424 H 784.075 3.76183 -0.571547 0
M  V30 8425 H 783.587 3.13646 -2.28578 0
M  V30 8426 H 781.688 3.72441 0.108858 0
M  V30 8427 H 781.801 4.51549 -1.60126 0
M  V30 8428 H 780.165 2.43114 -0.759452 0
M  V30 8429 H 780.948 2.42414 -2.43085 0
M  V30 8430 N 783.393 0.737304 1.3929 0
M  V30 8431 C 784.618 0.295237 2.05288 0
M  V30 8432 C 785.043 -1.06235 1.55228 0
M  V30 8433 O 784.401 -1.67365 0.697043 0
M  V30 8434 C 784.449 0.309146 3.59272 0
M  V30 8435 O 783.553 -0.702437 4.06374 0
M  V30 8436 H 782.894 0.133762 0.650387 0
M  V30 8437 H 785.424 1.00387 1.78279 0
M  V30 8438 H 785.434 0.154336 4.07708 0
M  V30 8439 H 784.109 1.29974 3.95069 0
M  V30 8440 H 782.686 -0.513574 3.69346 0
M  V30 8441 N 784.871 -1.49948 0.485112 0
M  V30 8442 C 785.801 -2.31675 -0.291364 0
M  V30 8443 C 786.782 -1.39216 -0.977383 0
M  V30 8444 O 787.967 -1.68133 -0.971855 0
M  V30 8445 C 785.097 -3.19326 -1.36558 0
M  V30 8446 C 784.051 -4.2045 -0.800359 0
M  V30 8447 C 783.377 -4.96931 -1.97391 0
M  V30 8448 C 784.677 -5.21925 0.197867 0
M  V30 8449 H 786.371 -2.96839 0.390775 0
M  V30 8450 H 783.917 -1.42749 0.189375 0
M  V30 8451 H 785.87 -3.75304 -1.91638 0
M  V30 8452 H 784.594 -2.52074 -2.07668 0
M  V30 8453 H 783.253 -3.65594 -0.271428 0
M  V30 8454 H 782.901 -4.26141 -2.67232 0
M  V30 8455 H 782.601 -5.65344 -1.60187 0
M  V30 8456 H 784.125 -5.55749 -2.52935 0
M  V30 8457 H 785.539 -5.72691 -0.264239 0
M  V30 8458 H 783.936 -5.98138 0.484908 0
M  V30 8459 H 785.006 -4.71809 1.11912 0
M  V30 8460 N 786.349 -0.21828 -1.56081 0
M  V30 8461 C 787.297 0.709679 -2.21509 0
M  V30 8462 C 788.291 1.20221 -1.19346 0
M  V30 8463 O 789.497 1.16241 -1.37433 0
M  V30 8464 H 785.872 0.247271 -0.710184 0
M  V30 8465 H 787.843 0.134386 -2.98097 0
M  V30 8466 C 786.592 1.90853 -2.90638 0
M  V30 8467 H 785.915 1.53865 -3.69006 0
M  V30 8468 H 787.355 2.53568 -3.39822 0
M  V30 8469 C 785.814 2.76189 -1.92929 0
M  V30 8470 O 786.344 3.74842 -1.44416 0
M  V30 8471 N 784.55 2.42157 -1.6065 0
M  V30 8472 H 784.097 1.61987 -2.00294 0
M  V30 8473 H 784.055 2.99534 -0.955347 0
M  V30 8474 N 787.827 1.57504 0.0551401 0
M  V30 8475 C 788.757 2.07864 1.06372 0
M  V30 8476 C 789.738 0.975565 1.39344 0
M  V30 8477 O 790.923 1.24929 1.48682 0
M  V30 8478 C 788.053 2.53643 2.3724 0
M  V30 8479 C 787.007 3.67978 2.18578 0
M  V30 8480 C 786.333 3.9987 3.54976 0
M  V30 8481 C 787.633 4.97405 1.59329 0
M  V30 8482 H 789.327 2.92379 0.644595 0
M  V30 8483 H 786.873 1.40654 0.308619 0
M  V30 8484 H 788.826 2.8749 3.08103 0
M  V30 8485 H 787.55 1.66177 2.81163 0
M  V30 8486 H 786.209 3.3444 1.50152 0
M  V30 8487 H 785.857 3.0951 3.965 0
M  V30 8488 H 785.557 4.76867 3.43324 0
M  V30 8489 H 787.081 4.36228 4.27244 0
M  V30 8490 H 788.495 5.29375 2.20078 0
M  V30 8491 H 786.892 5.78837 1.58327 0
M  V30 8492 H 787.962 4.81697 0.55638 0
M  V30 8493 N 789.305 -0.326896 1.54172 0
M  V30 8494 C 790.235 -1.40741 1.86317 0
M  V30 8495 C 791.216 -1.54125 0.719684 0
M  V30 8496 O 792.401 -1.6806 0.973117 0
M  V30 8497 C 789.531 -2.77557 2.08757 0
M  V30 8498 C 788.485 -2.78965 3.24596 0
M  V30 8499 C 787.811 -4.18824 3.32401 0
M  V30 8500 C 789.111 -2.4301 4.62324 0
M  V30 8501 H 790.805 -1.14088 2.76811 0
M  V30 8502 H 788.351 -0.547389 1.3319 0
M  V30 8503 H 790.304 -3.53209 2.29829 0
M  V30 8504 H 789.028 -3.0568 1.15009 0
M  V30 8505 H 787.687 -2.05767 3.03406 0
M  V30 8506 H 787.335 -4.44083 2.36218 0
M  V30 8507 H 787.035 -4.20673 4.10253 0
M  V30 8508 H 788.559 -4.96294 3.55703 0
M  V30 8509 H 789.973 -3.08375 4.83299 0
M  V30 8510 H 788.37 -2.56116 5.42701 0
M  V30 8511 H 789.44 -1.38165 4.64799 0
M  V30 8512 N 790.784 -1.46188 -0.588786 0
M  V30 8513 C 791.716 -1.52319 -1.71265 0
M  V30 8514 C 792.729 -0.412096 -1.57498 0
M  V30 8515 O 793.918 -0.680146 -1.65034 0
M  V30 8516 C 791.018 -1.38164 -3.09458 0
M  V30 8517 C 790.191 -2.63284 -3.49286 0
M  V30 8518 C 789.25 -2.43415 -4.66514 0
M  V30 8519 O 788.276 -3.17113 -4.72682 0
M  V30 8520 N 789.478 -1.49187 -5.61002 0
M  V30 8521 H 792.243 -2.49219 -1.66463 0
M  V30 8522 H 789.804 -1.42167 -0.774601 0
M  V30 8523 H 791.796 -1.22653 -3.85666 0
M  V30 8524 H 790.366 -0.494678 -3.08661 0
M  V30 8525 H 789.586 -2.93779 -2.62845 0
M  V30 8526 H 790.874 -3.46413 -3.7266 0
M  V30 8527 H 790.272 -0.884027 -5.5875 0
M  V30 8528 H 788.829 -1.39642 -6.36666 0
M  V30 8529 N 792.262 0.832906 -1.33792 0
M  V30 8530 C 793.21 1.96455 -1.24532 0
M  V30 8531 C 794.204 1.68774 -0.145455 0
M  V30 8532 O 795.41 1.77314 -0.309797 0
M  V30 8533 H 791.785 0.645008 -0.386611 0
M  V30 8534 H 793.756 2.01389 -2.20193 0
M  V30 8535 C 792.505 3.32784 -1.00748 0
M  V30 8536 H 791.828 3.54626 -1.84609 0
M  V30 8537 H 793.268 4.12447 -0.98301 0
M  V30 8538 C 791.727 3.35654 0.289475 0
M  V30 8539 O 792.257 3.80281 1.29419 0
M  V30 8540 N 790.463 2.88843 0.3191 0
M  V30 8541 H 790.01 2.52719 -0.499069 0
M  V30 8542 H 789.968 2.91145 1.18667 0
M  V30 8543 N 793.74 1.17359 1.05189 0
M  V30 8544 C 794.687 0.890325 2.12936 0
M  V30 8545 C 795.657 -0.165779 1.65271 0
M  V30 8546 O 796.842 -0.0285672 1.90779 0
M  V30 8547 C 793.982 0.409793 3.42658 0
M  V30 8548 C 793.095 1.53002 4.03998 0
M  V30 8549 C 792.23 1.00336 5.21638 0
M  V30 8550 C 791.269 2.09903 5.74984 0
M  V30 8551 N 790.406 1.58714 6.83926 0
M  V30 8552 H 795.246 1.81299 2.36505 0
M  V30 8553 H 792.783 0.904249 1.16025 0
M  V30 8554 H 794.741 0.112743 4.17048 0
M  V30 8555 H 793.371 -0.475915 3.19272 0
M  V30 8556 H 792.423 1.9428 3.27047 0
M  V30 8557 H 793.735 2.3564 4.39631 0
M  V30 8558 H 792.889 0.660158 6.03098 0
M  V30 8559 H 791.628 0.14642 4.8748 0
M  V30 8560 H 790.633 2.45081 4.92154 0
M  V30 8561 H 791.858 2.96013 6.1119 0
M  V30 8562 H 789.804 0.752915 6.51665 0
M  V30 8563 H 789.721 2.34959 7.18561 0
M  V30 8564 H 790.989 1.27287 7.69037 0
M  V30 8565 N 795.218 -1.23913 0.973828 0
M  V30 8566 C 796.443 -1.96735 0.656511 0
M  V30 8567 C 796.868 -1.71682 -0.768571 0
M  V30 8568 O 796.226 -0.984267 -1.52256 0
M  V30 8569 C 796.274 -3.48004 0.944735 0
M  V30 8570 O 795.378 -4.12387 0.0333357 0
M  V30 8571 H 794.719 -0.616119 0.247575 0
M  V30 8572 H 797.249 -1.57525 1.30564 0
M  V30 8573 H 797.259 -3.98424 0.87876 0
M  V30 8574 H 795.934 -3.65567 1.98328 0
M  V30 8575 H 794.511 -3.72585 0.153157 0
M  V30 8576 N 796.696 -0.74468 -1.38897 0
M  V30 8577 C 797.629 -0.0596441 -2.28122 0
M  V30 8578 C 798.607 0.73764 -1.44906 0
M  V30 8579 O 799.791 0.718155 -1.74284 0
M  V30 8580 C 796.918 0.922533 -3.25894 0
M  V30 8581 C 795.964 0.212566 -4.2597 0
M  V30 8582 S 796.797 -1.08035 -5.24489 0
M  V30 8583 C 797.953 -0.101014 -6.25818 0
M  V30 8584 H 798.186 -0.816289 -2.85874 0
M  V30 8585 H 795.719 -0.536882 -1.44765 0
M  V30 8586 H 797.677 1.4839 -3.82741 0
M  V30 8587 H 796.338 1.65209 -2.67142 0
M  V30 8588 H 795.531 0.956106 -4.94848 0
M  V30 8589 H 795.133 -0.277029 -3.72973 0
M  V30 8590 H 797.425 0.736072 -6.7349 0
M  V30 8591 H 798.368 -0.757206 -7.0404 0
M  V30 8592 H 798.776 0.275706 -5.63826 0
M  V30 8593 O 798.213 1.48503 -0.634761 0
M  V30 8594 H 798.904 1.93081 -0.154671 0
M  V30 END ATOM
M  V30 BEGIN BOND
M  V30 END BOND
M  V30 END CTAB
M  END
$$$$
