drugbank_target|O43451 Maltase-glucoamylase, intestinal (DB00284; DB00491; DB04878)
 OpenBabel12092119413D

  0  0  0     0  0            999 V3000
M  V30 BEGIN CTAB
M  V30 COUNTS 29067 29502 0 0 0
M  V30 BEGIN ATOM
M  V30 1 H -0.908 1.98254 -0.117106 0
M  V30 2 N 0 1.576 0 0
M  V30 3 C 0.933 2.03868 1.02534 0
M  V30 4 C 1.911 0.928543 1.3348 0
M  V30 5 O 3.095 1.19667 1.45644 0
M  V30 6 C 0.222 2.43627 2.35294 0
M  V30 7 C -0.732 3.65373 2.2001 0
M  V30 8 S 0.101 5.13292 1.52614 0
M  V30 9 C 1.257 5.56322 2.86805 0
M  V30 10 H 1.49 2.90518 0.631377 0
M  V30 11 H -0.977 1.52953 0.210867 0
M  V30 12 H 0.981 2.67203 3.11629 0
M  V30 13 H -0.358 1.57376 2.7183 0
M  V30 14 H -1.165 3.90944 3.18086 0
M  V30 15 H -1.563 3.418 1.51819 0
M  V30 16 H 0.729 5.58782 3.83104 0
M  V30 17 H 1.672 6.56266 2.65933 0
M  V30 18 H 2.08 4.83886 2.90714 0
M  V30 19 N 1.4781 -0.272755 1.55222 0
M  V30 20 C 2.4411 -1.32041 1.87344 0
M  V30 21 C 3.4411 -1.42342 0.74803 0
M  V30 22 O 4.6311 -1.41488 1.0162 0
M  V30 23 C 1.7631 -2.70173 2.07893 0
M  V30 24 H 2.9561 -1.04789 2.80997 0
M  V30 25 H 0.5091 -0.51083 1.47717 0
M  V30 26 H 1.2441 -3.02605 1.16622 0
M  V30 27 H 1.0291 -2.64082 2.89833 0
M  V30 28 H 2.5191 -3.45869 2.34017 0
M  V30 29 N 2.9562 -1.48159 -0.537278 0
M  V30 30 C 4.3722 -1.34118 -0.865129 0
M  V30 31 C 4.5722 -0.346678 -1.98495 0
M  V30 32 O 3.6282 0.234715 -2.51407 0
M  V30 33 C 4.9412 -2.73963 -1.23954 0
M  V30 34 C 6.4892 -2.82397 -1.34984 0
M  V30 35 C 6.9642 -4.22928 -1.75772 0
M  V30 36 N 8.4552 -4.25566 -1.82887 0
M  V30 37 C 9.1902 -5.31235 -2.15817 0
M  V30 38 N 8.6862 -6.47189 -2.47222 0
M  V30 39 N 10.4792 -5.18624 -2.16761 0
M  V30 40 H 2.6302 -2.1144 0.201715 0
M  V30 41 H 4.8932 -0.947598 0.0275949 0
M  V30 42 H 4.5992 -3.48264 -0.490381 0
M  V30 43 H 4.4732 -3.0702 -2.19132 0
M  V30 44 H 6.8602 -2.08356 -2.08978 0
M  V30 45 H 6.9412 -2.5297 -0.379448 0
M  V30 46 H 6.5852 -4.97482 -1.02341 0
M  V30 47 H 6.5152 -4.49794 -2.73848 0
M  V30 48 H 9.0062 -3.41924 -1.60924 0
M  V30 49 H 9.3192 -7.23564 -2.71433 0
M  V30 50 H 7.6642 -6.50476 -2.44757 0
M  V30 51 H 10.8552 -4.27056 -1.91679 0
M  V30 52 H 11.0282 -6.01078 -2.42093 0
M  V30 53 N 4.4343 0.785586 -1.36625 0
M  V30 54 C 5.3813 1.89838 -1.31264 0
M  V30 55 C 6.3513 1.65115 -0.180633 0
M  V30 56 O 7.5363 1.87222 -0.36777 0
M  V30 57 C 4.6763 3.26706 -1.11163 0
M  V30 58 C 3.7893 3.63476 -2.33472 0
M  V30 59 C 2.9243 4.89481 -2.06353 0
M  V30 60 C 1.9633 5.18941 -3.24602 0
M  V30 61 N 1.1003 6.36131 -2.97123 0
M  V30 62 H 5.9403 1.93756 -2.26413 0
M  V30 63 H 3.4773 0.947454 -1.12524 0
M  V30 64 H 5.4353 4.05639 -0.975337 0
M  V30 65 H 4.0653 3.222 -0.196674 0
M  V30 66 H 3.1173 2.79636 -2.57891 0
M  V30 67 H 4.4293 3.81193 -3.21704 0
M  V30 68 H 3.5833 5.76288 -1.89675 0
M  V30 69 H 2.3223 4.73841 -1.15437 0
M  V30 70 H 1.3273 4.30615 -3.41834 0
M  V30 71 H 2.5523 5.36498 -4.16349 0
M  V30 72 H 0.4983 6.21875 -2.08823 0
M  V30 73 H 0.4153 6.54198 -3.78894 0
M  V30 74 H 1.6833 7.2591 -2.84033 0
M  V30 75 N 5.9124 1.20967 1.01018 0
M  V30 76 C 6.8594 0.964281 2.09691 0
M  V30 77 C 7.8294 -0.107853 1.65749 0
M  V30 78 O 9.0144 0.0381987 1.90762 0
M  V30 79 C 6.1544 0.52943 3.41015 0
M  V30 80 C 5.2674 1.67043 3.98398 0
M  V30 81 C 4.4024 1.18525 5.17808 0
M  V30 82 C 3.4414 2.29892 5.67288 0
M  V30 83 N 2.5784 1.82546 6.77954 0
M  V30 84 H 7.4184 1.89463 2.30017 0
M  V30 85 H 4.9554 0.944289 1.1279 0
M  V30 86 H 6.9134 0.258588 4.16398 0
M  V30 87 H 5.5434 -0.363919 3.20742 0
M  V30 88 H 4.5954 2.05603 3.20049 0
M  V30 89 H 5.9074 2.50877 4.31117 0
M  V30 90 H 5.0614 0.870762 6.00419 0
M  V30 91 H 3.8004 0.316887 4.86669 0
M  V30 92 H 2.8054 2.6215 4.83278 0
M  V30 93 H 4.0304 3.17216 6.00459 0
M  V30 94 H 1.9764 0.980454 6.48632 0
M  V30 95 H 1.8934 2.59956 7.09901 0
M  V30 96 H 3.1614 1.54115 7.64113 0
M  V30 97 N 7.3905 -1.2043 1.01659 0
M  V30 98 C 8.3205 -2.25466 0.607226 0
M  V30 99 C 9.3015 -1.65853 -0.377716 0
M  V30 100 O 10.4865 -1.92409 -0.263149 0
M  V30 101 C 7.6165 -3.47256 -0.0552949 0
M  V30 102 C 6.5705 -4.19462 0.850632 0
M  V30 103 C 5.8965 -5.34673 0.0538859 0
M  V30 104 C 7.1965 -4.75603 2.15868 0
M  V30 105 H 8.8905 -2.59962 1.48526 0
M  V30 106 H 6.4365 -1.2496 0.715605 0
M  V30 107 H 8.3895 -4.19917 -0.353233 0
M  V30 108 H 7.1135 -3.11924 -0.968045 0
M  V30 109 H 5.7725 -3.48667 1.13257 0
M  V30 110 H 5.4205 -4.95585 -0.860514 0
M  V30 111 H 5.1205 -5.83913 0.657192 0
M  V30 112 H 6.6445 -6.10138 -0.237598 0
M  V30 113 H 8.0585 -5.40083 1.92311 0
M  V30 114 H 6.4555 -5.3528 2.71284 0
M  V30 115 H 7.5255 -3.94346 2.82169 0
M  V30 116 N 8.8686 -0.792821 -1.36206 0
M  V30 117 C 9.8156 -0.191653 -2.30003 0
M  V30 118 C 10.7856 0.666453 -1.52143 0
M  V30 119 O 11.9706 0.61442 -1.80636 0
M  V30 120 C 9.1106 0.664848 -3.38635 0
M  V30 121 C 8.2236 -0.212175 -4.31479 0
M  V30 122 C 7.3586 0.651022 -5.27196 0
M  V30 123 C 6.3976 -0.227247 -6.11678 0
M  V30 124 N 5.5346 0.595127 -6.99573 0
M  V30 125 H 10.3746 -0.996978 -2.80828 0
M  V30 126 H 7.9116 -0.503206 -1.38225 0
M  V30 127 H 9.8696 1.17645 -4.00269 0
M  V30 128 H 8.4996 1.43557 -2.89122 0
M  V30 129 H 7.5516 -0.841777 -3.70969 0
M  V30 130 H 8.8636 -0.888751 -4.90818 0
M  V30 131 H 8.0176 1.2283 -5.94136 0
M  V30 132 H 6.7566 1.36121 -4.68319 0
M  V30 133 H 5.7616 -0.816904 -5.43697 0
M  V30 134 H 6.9866 -0.93509 -6.72631 0
M  V30 135 H 4.9326 1.28955 -6.432 0
M  V30 136 H 4.8496 -0.0236952 -7.55996 0
M  V30 137 H 6.1176 1.15613 -7.70879 0
M  V30 138 N 10.3467 1.47872 -0.545128 0
M  V30 139 C 11.2937 2.29849 0.2093 0
M  V30 140 C 12.2637 1.38313 0.919707 0
M  V30 141 O 13.4487 1.67277 0.917772 0
M  V30 142 C 10.5887 3.22019 1.24088 0
M  V30 143 C 9.7017 4.2864 0.537778 0
M  V30 144 C 8.8367 5.07973 1.5536 0
M  V30 145 C 7.8757 6.06381 0.8348 0
M  V30 146 N 7.0127 6.78717 1.79688 0
M  V30 147 H 11.8527 2.93845 -0.49591 0
M  V30 148 H 9.3897 1.44848 -0.256389 0
M  V30 149 H 11.3477 3.73868 1.85144 0
M  V30 150 H 9.9777 2.59914 1.91428 0
M  V30 151 H 9.0297 3.7994 -0.187046 0
M  V30 152 H 10.3417 4.98793 -0.0258907 0
M  V30 153 H 9.4957 5.63912 2.23803 0
M  V30 154 H 8.2347 4.37693 2.15118 0
M  V30 155 H 7.2397 5.49631 0.136388 0
M  V30 156 H 8.4647 6.78665 0.24313 0
M  V30 157 H 6.4107 6.11177 2.38326 0
M  V30 158 H 6.3277 7.44998 1.28505 0
M  V30 159 H 7.5957 7.39237 2.47282 0
M  V30 160 N 11.8248 0.280983 1.55075 0
M  V30 161 C 13.0718 -0.334115 1.99725 0
M  V30 162 C 13.3998 -1.5542 1.1694 0
M  V30 163 O 12.6548 -1.94361 0.228531 0
M  V30 164 C 12.9538 -0.754656 3.49342 0
M  V30 165 C 12.6198 0.361445 4.49449 0
M  V30 166 C 11.2818 0.667893 4.76542 0
M  V30 167 C 13.6338 1.11322 5.09173 0
M  V30 168 C 10.9618 1.7296 5.60626 0
M  V30 169 C 13.3138 2.1647 5.9441 0
M  V30 170 C 11.9778 2.47742 6.19822 0
M  V30 171 H 11.2478 -0.122261 0.730844 0
M  V30 172 H 13.8948 0.395917 1.87363 0
M  V30 173 H 12.1998 -1.56446 3.5921 0
M  V30 174 H 13.8968 -1.24142 3.813 0
M  V30 175 H 10.4868 0.112481 4.28452 0
M  V30 176 H 14.6708 0.88973 4.8826 0
M  V30 177 H 9.9268 1.97684 5.78559 0
M  V30 178 H 14.1008 2.75193 6.3972 0
M  V30 179 H 11.7278 3.30145 6.84769 0
M  V30 180 N 13.3029 -1.57598 0.00835791 0
M  V30 181 C 14.5309 -1.95214 -0.68549 0
M  V30 182 C 14.9459 -0.883706 -1.66841 0
M  V30 183 O 14.3029 0.136565 -1.81988 0
M  V30 184 C 14.3539 -3.32865 -1.41007 0
M  V30 185 O 14.0749 -4.35609 -0.466552 0
M  V30 186 C 15.5759 -3.84991 -2.19765 0
M  V30 187 H 12.7959 -0.643422 -0.190392 0
M  V30 188 H 15.3399 -2.04406 0.0619607 0
M  V30 189 H 13.4949 -3.24956 -2.10908 0
M  V30 190 H 13.9089 -5.15288 -0.978699 0
M  V30 191 H 15.3829 -4.8371 -2.65948 0
M  V30 192 H 15.8599 -3.18137 -3.02796 0
M  V30 193 H 16.4659 -3.96103 -1.54864 0
M  V30 194 N 14.781 0.264519 -1.55364 0
M  V30 195 C 16.009 1.013 -1.80405 0
M  V30 196 C 16.424 1.79618 -0.581622 0
M  V30 197 O 15.781 1.76879 0.449468 0
M  V30 198 C 15.832 1.96487 -3.03439 0
M  V30 199 O 15.553 1.21341 -4.20961 0
M  V30 200 C 17.054 2.83079 -3.41147 0
M  V30 201 H 14.274 0.298875 -0.600762 0
M  V30 202 H 16.818 0.292736 -2.02394 0
M  V30 203 H 14.973 2.63965 -2.83551 0
M  V30 204 H 15.387 1.85573 -4.90574 0
M  V30 205 H 16.861 3.4565 -4.30384 0
M  V30 206 H 17.338 3.53286 -2.60932 0
M  V30 207 H 17.944 2.2108 -3.63323 0
M  V30 208 N 16.2591 1.48442 0.529413 0
M  V30 209 C 17.1891 1.65902 1.64313 0
M  V30 210 C 18.1701 0.507897 1.6234 0
M  V30 211 O 19.3551 0.740503 1.79528 0
M  V30 212 C 16.4851 1.69911 3.02898 0
M  V30 213 C 15.4391 2.8453 3.19729 0
M  V30 214 C 14.7651 2.73629 4.59381 0
M  V30 215 C 16.0651 4.25821 3.02447 0
M  V30 216 H 17.7591 2.5914 1.49955 0
M  V30 217 H 15.3051 1.24709 0.719982 0
M  V30 218 H 17.2581 1.80715 3.80684 0
M  V30 219 H 15.9821 0.732524 3.18279 0
M  V30 220 H 14.6411 2.73283 2.44361 0
M  V30 221 H 14.2891 1.74938 4.71599 0
M  V30 222 H 13.9891 3.50541 4.71588 0
M  V30 223 H 15.5131 2.86401 5.39265 0
M  V30 224 H 16.9271 4.37898 3.70024 0
M  V30 225 H 15.3241 5.03735 3.26146 0
M  V30 226 H 16.3941 4.42244 1.98867 0
M  V30 227 N 17.7372 -0.778329 1.37039 0
M  V30 228 C 18.6472 -1.92253 1.34446 0
M  V30 229 C 19.6632 -1.72267 0.244991 0
M  V30 230 O 20.8392 -1.95615 0.479258 0
M  V30 231 C 17.9042 -3.27282 1.144 0
M  V30 232 C 16.9652 -3.59969 2.33925 0
M  V30 233 C 16.1982 -4.88555 2.14825 0
M  V30 234 O 16.4212 -5.59113 1.12912 0
M  V30 235 O 15.3552 -5.20153 3.02861 0
M  V30 236 H 19.1812 -1.97392 2.30803 0
M  V30 237 H 16.7662 -0.920154 1.17701 0
M  V30 238 H 18.6482 -4.08062 1.05182 0
M  V30 239 H 17.3232 -3.23011 0.211124 0
M  V30 240 H 16.2302 -2.7945 2.48714 0
M  V30 241 H 17.5632 -3.68976 3.25757 0
M  V30 242 N 19.2153 -1.21501 -1.00376 0
M  V30 243 C 20.4643 -1.02718 -1.73586 0
M  V30 244 C 20.7773 0.439589 -1.90596 0
M  V30 245 O 21.9833 0.746848 -2.61026 0
M  V30 246 C 20.4393 -1.78929 -3.1227 0
M  V30 247 C 20.0473 -3.29783 -3.03228 0
M  V30 248 C 21.7913 -1.68557 -3.89601 0
M  V30 249 C 19.6983 -3.98479 -4.36999 0
M  V30 250 H 18.6283 -0.380733 -0.650814 0
M  V30 251 H 21.2793 -1.45248 -1.1214 0
M  V30 252 H 19.6613 -1.29192 -3.74333 0
M  V30 253 H 20.8353 -3.86832 -2.50395 0
M  V30 254 H 19.1503 -3.40711 -2.39385 0
M  V30 255 H 21.7473 -2.17211 -4.88593 0
M  V30 256 H 22.0903 -0.644021 -4.11288 0
M  V30 257 H 22.6233 -2.15778 -3.34193 0
M  V30 258 H 19.3623 -5.02841 -4.20513 0
M  V30 259 H 18.8823 -3.46219 -4.89788 0
M  V30 260 H 20.5613 -4.03462 -5.05794 0
M  V30 261 N 20.6934 1.19889 -1.02296 0
M  V30 262 C 21.9394 1.89701 -0.717033 0
M  V30 263 C 22.2724 1.7905 0.751989 0
M  V30 264 O 21.5474 1.17891 1.547 0
M  V30 265 C 21.8304 3.40858 -1.16136 0
M  V30 266 C 21.6834 3.60411 -2.69117 0
M  V30 267 C 23.0024 4.33876 -0.737549 0
M  V30 268 H 20.1214 0.688874 -0.261957 0
M  V30 269 H 22.7634 1.41154 -1.27183 0
M  V30 270 H 20.9134 3.82335 -0.689342 0
M  V30 271 H 22.5854 3.28145 -3.2422 0
M  V30 272 H 20.8284 3.03665 -3.0979 0
M  V30 273 H 21.4994 4.66396 -2.95261 0
M  V30 274 H 23.9754 4.00081 -1.14344 0
M  V30 275 H 22.8514 5.38242 -1.0764 0
M  V30 276 H 23.1124 4.40628 0.360436 0
M  V30 277 N 22.1715 0.800033 1.35784 0
M  V30 278 C 23.1015 0.220184 2.3246 0
M  V30 279 C 24.0825 -0.65073 1.57161 0
M  V30 280 O 25.2675 -0.582359 1.85263 0
M  V30 281 C 22.3975 -0.637353 3.41402 0
M  V30 282 C 21.3515 0.134531 4.27789 0
M  V30 283 C 20.6775 -0.844285 5.27992 0
M  V30 284 C 21.9775 1.32979 5.05088 0
M  V30 285 H 23.6715 1.02787 2.81203 0
M  V30 286 H 21.2175 0.495717 1.35199 0
M  V30 287 H 23.1705 -1.05302 4.08031 0
M  V30 288 H 21.8945 -1.47785 2.91251 0
M  V30 289 H 20.5535 0.531296 3.6273 0
M  V30 290 H 20.2015 -1.68011 4.74111 0
M  V30 291 H 19.9015 -0.332184 5.8666 0
M  V30 292 H 21.4255 -1.2583 5.97494 0
M  V30 293 H 22.8395 0.98934 5.64699 0
M  V30 294 H 21.2365 1.77593 5.7322 0
M  V30 295 H 22.3065 2.11978 4.36111 0
M  V30 296 N 23.6496 -1.47581 0.552962 0
M  V30 297 C 24.8746 -2.07378 0.0300593 0
M  V30 298 C 25.2996 -1.40355 -1.25229 0
M  V30 299 O 24.6576 -0.477099 -1.7491 0
M  V30 300 C 24.7056 -3.60274 -0.153231 0
M  V30 301 O 23.8096 -3.94041 -1.21678 0
M  V30 302 H 23.1506 -0.662158 0.0494182 0
M  V30 303 H 25.6806 -1.89662 0.767434 0
M  V30 304 H 25.6906 -4.0633 -0.368761 0
M  V30 305 H 24.3656 -4.08455 0.783397 0
M  V30 306 H 22.9426 -3.59735 -0.982079 0
M  V30 307 N 25.1277 -0.289203 -1.54924 0
M  V30 308 C 26.3737 0.323998 -2.00195 0
M  V30 309 C 26.7067 1.54441 -1.17735 0
M  V30 310 O 25.9817 1.92875 -0.250878 0
M  V30 311 C 26.2647 0.692276 -3.53383 0
M  V30 312 C 26.1177 -0.536457 -4.46589 0
M  V30 313 C 27.4367 1.52335 -4.12895 0
M  V30 314 H 24.5557 0.116289 -0.727768 0
M  V30 315 H 27.1977 -0.398954 -1.85764 0
M  V30 316 H 25.3477 1.30822 -3.65811 0
M  V30 317 H 27.0197 -1.17499 -4.46085 0
M  V30 318 H 25.2627 -1.17192 -4.1767 0
M  V30 319 H 25.9337 -0.234806 -5.515 0
M  V30 320 H 28.4097 1.00302 -4.0383 0
M  V30 321 H 27.2857 1.74982 -5.20262 0
M  V30 322 H 27.5467 2.50886 -3.64018 0
M  V30 323 N 26.6058 1.57591 -0.0167156 0
M  V30 324 C 27.5358 2.12496 0.967858 0
M  V30 325 C 28.5168 1.03807 1.34752 0
M  V30 326 O 29.7018 1.31577 1.42833 0
M  V30 327 C 26.8318 2.64194 2.25431 0
M  V30 328 C 25.7858 3.77559 2.01576 0
M  V30 329 C 25.1118 4.15636 3.36379 0
M  V30 330 C 26.4118 5.04151 1.36489 0
M  V30 331 H 28.1058 2.95013 0.510643 0
M  V30 332 H 25.6518 1.41915 0.244181 0
M  V30 333 H 27.6048 3.01236 2.94678 0
M  V30 334 H 26.3288 1.78821 2.73296 0
M  V30 335 H 24.9878 3.40937 1.34751 0
M  V30 336 H 24.6358 3.27263 3.81979 0
M  V30 337 H 24.3358 4.92022 3.21229 0
M  V30 338 H 25.8598 4.5525 4.06915 0
M  V30 339 H 27.2738 5.38857 1.95718 0
M  V30 340 H 25.6708 5.85453 1.31776 0
M  V30 341 H 26.7408 4.83733 0.336219 0
M  V30 342 N 28.0839 -0.256276 1.55502 0
M  V30 343 C 29.0139 -1.32102 1.92539 0
M  V30 344 C 29.9949 -1.50684 0.789194 0
M  V30 345 O 31.1799 -1.63449 1.04872 0
M  V30 346 C 28.3099 -2.67752 2.21192 0
M  V30 347 C 27.2639 -2.63878 3.36975 0
M  V30 348 C 26.5899 -4.03236 3.51147 0
M  V30 349 C 27.8899 -2.21682 4.72921 0
M  V30 350 H 29.5839 -1.01351 2.81724 0
M  V30 351 H 27.1299 -0.486105 1.35547 0
M  V30 352 H 29.0829 -3.42365 2.45691 0
M  V30 353 H 27.8069 -3.0012 1.28824 0
M  V30 354 H 26.4659 -1.91722 3.12471 0
M  V30 355 H 26.1139 -4.32854 2.56216 0
M  V30 356 H 25.8139 -4.01535 4.29003 0
M  V30 357 H 27.3379 -4.79563 3.77957 0
M  V30 358 H 28.7519 -2.86023 4.96854 0
M  V30 359 H 27.1489 -2.3111 5.53812 0
M  V30 360 H 28.2189 -1.16833 4.70615 0
M  V30 361 N 29.562 -1.4872 -0.521534 0
M  V30 362 C 30.492 -1.66771 -1.63431 0
M  V30 363 C 31.473 -0.516499 -1.62069 0
M  V30 364 O 32.658 -0.750013 -1.79132 0
M  V30 365 C 29.788 -1.71515 -3.01993 0
M  V30 366 C 28.742 -2.86222 -3.18216 0
M  V30 367 C 28.068 -2.76061 -4.57924 0
M  V30 368 C 29.368 -4.27419 -3.00184 0
M  V30 369 H 31.062 -2.59932 -1.48579 0
M  V30 370 H 28.608 -1.25089 -0.713358 0
M  V30 371 H 30.561 -1.82731 -3.7972 0
M  V30 372 H 29.285 -0.749393 -3.17886 0
M  V30 373 H 27.944 -2.74575 -2.42908 0
M  V30 374 H 27.592 -1.77437 -4.70665 0
M  V30 375 H 27.292 -3.53037 -4.69722 0
M  V30 376 H 28.816 -2.89256 -5.37739 0
M  V30 377 H 30.23 -4.39855 -3.67697 0
M  V30 378 H 28.627 -5.05458 -3.2347 0
M  V30 379 H 29.697 -4.43293 -1.96518 0
M  V30 380 N 31.0401 0.771051 -1.3745 0
M  V30 381 C 32.2861 1.5319 -1.32894 0
M  V30 382 C 32.6191 1.94008 0.0862511 0
M  V30 383 O 31.8941 1.64124 1.04373 0
M  V30 384 C 32.1771 2.79648 -2.26868 0
M  V30 385 C 32.0301 2.45079 -3.77169 0
M  V30 386 C 33.3491 3.81583 -2.19277 0
M  V30 387 H 30.4681 0.555744 -0.484064 0
M  V30 388 H 33.1101 0.884492 -1.68157 0
M  V30 389 H 31.2601 3.34891 -1.96926 0
M  V30 390 H 32.9321 1.95745 -4.1771 0
M  V30 391 H 31.1751 1.77767 -3.95704 0
M  V30 392 H 31.8461 3.35478 -4.38359 0
M  V30 393 H 34.3221 3.35835 -2.45671 0
M  V30 394 H 33.1981 4.67787 -2.87171 0
M  V30 395 H 33.4591 4.25897 -1.18592 0
M  V30 396 N 32.5182 1.22032 0.997298 0
M  V30 397 C 33.4482 1.01065 2.10495 0
M  V30 398 C 34.4292 -0.0669542 1.69968 0
M  V30 399 O 35.6142 0.0943987 1.9397 0
M  V30 400 C 32.7442 0.582874 3.42374 0
M  V30 401 C 31.6982 1.60592 3.96729 0
M  V30 402 C 31.0242 1.03412 5.24605 0
M  V30 403 C 32.3242 2.99478 4.27914 0
M  V30 404 H 34.0182 1.93708 2.28292 0
M  V30 405 H 31.5642 0.932761 1.09707 0
M  V30 406 H 33.5172 0.423332 4.19268 0
M  V30 407 H 32.2412 -0.379213 3.24391 0
M  V30 408 H 30.9002 1.75316 3.21963 0
M  V30 409 H 30.5482 0.063518 5.0296 0
M  V30 410 H 30.2482 1.71754 5.61938 0
M  V30 411 H 31.7722 0.886066 6.04137 0
M  V30 412 H 33.1862 2.88153 4.95622 0
M  V30 413 H 31.5832 3.64903 4.76409 0
M  V30 414 H 32.6532 3.49742 3.3587 0
M  V30 415 N 33.9963 -1.19345 1.0293 0
M  V30 416 C 35.2433 -1.89038 0.726008 0
M  V30 417 C 35.5713 -1.79649 -0.745427 0
M  V30 418 O 34.8263 -1.18354 -1.55855 0
M  V30 419 C 35.1253 -3.39292 1.12319 0
M  V30 420 C 34.7913 -3.68885 2.59297 0
M  V30 421 C 33.4533 -3.76671 2.99453 0
M  V30 422 C 35.8053 -3.82178 3.54386 0
M  V30 423 C 33.1333 -3.9522 4.33611 0
M  V30 424 C 35.4853 -4.0224 4.88248 0
M  V30 425 C 34.1493 -4.08259 5.28092 0
M  V30 426 H 33.4193 -0.691739 0.265665 0
M  V30 427 H 36.0663 -1.41328 1.29223 0
M  V30 428 H 34.3713 -3.88903 0.475584 0
M  V30 429 H 36.0683 -3.91536 0.866037 0
M  V30 430 H 32.6583 -3.63433 2.27189 0
M  V30 431 H 36.8423 -3.75505 3.24514 0
M  V30 432 H 32.0983 -3.98119 4.64016 0
M  V30 433 H 36.2723 -4.11468 5.61843 0
M  V30 434 H 33.8993 -4.22384 6.32057 0
M  V30 435 N 35.4744 -0.807222 -1.35358 0
M  V30 436 C 36.7234 -0.384376 -1.98004 0
M  V30 437 C 37.0364 1.0543 -1.64754 0
M  V30 438 O 38.2424 1.58029 -2.20769 0
M  V30 439 C 36.6984 -0.636326 -3.5423 0
M  V30 440 C 36.3064 -2.08759 -3.96388 0
M  V30 441 C 38.0504 -0.278869 -4.23583 0
M  V30 442 C 35.9574 -2.28525 -5.45463 0
M  V30 443 H 34.8874 -0.139986 -0.740891 0
M  V30 444 H 37.5384 -0.991369 -1.54415 0
M  V30 445 H 35.9204 0.0406256 -3.95979 0
M  V30 446 H 37.0944 -2.8024 -3.6579 0
M  V30 447 H 35.4094 -2.40497 -3.39926 0
M  V30 448 H 38.0064 -0.404599 -5.33167 0
M  V30 449 H 38.3494 0.775012 -4.09022 0
M  V30 450 H 38.8824 -0.909764 -3.87257 0
M  V30 451 H 35.6214 -3.32361 -5.64992 0
M  V30 452 H 35.1414 -1.61569 -5.77629 0
M  V30 453 H 36.8204 -2.10109 -6.11934 0
M  V30 454 N 36.9525 1.47285 -0.560781 0
M  V30 455 C 38.2015 2.01668 -0.035895 0
M  V30 456 C 38.5145 1.44021 1.32353 0
M  V30 457 O 39.7205 1.90088 1.93853 0
M  V30 458 C 38.1765 3.59897 -0.0136659 0
M  V30 459 C 37.7845 4.26536 -1.37006 0
M  V30 460 C 39.5285 4.22017 0.458425 0
M  V30 461 C 37.4355 5.76782 -1.30675 0
M  V30 462 H 36.3655 0.753938 -0.00964879 0
M  V30 463 H 39.0165 1.69243 -0.709166 0
M  V30 464 H 37.3985 3.89301 0.725325 0
M  V30 465 H 38.5725 4.0877 -2.12705 0
M  V30 466 H 36.8875 3.76419 -1.78038 0
M  V30 467 H 39.4845 5.32124 0.524247 0
M  V30 468 H 39.8275 3.89437 1.4712 0
M  V30 469 H 40.3605 3.97159 -0.225818 0
M  V30 470 H 37.0995 6.13988 -2.29564 0
M  V30 471 H 36.6195 5.96875 -0.591622 0
M  V30 472 H 38.2985 6.39063 -1.01033 0
M  V30 473 N 38.4306 0.297415 1.54768 0
M  V30 474 C 39.6556 -0.318435 2.04941 0
M  V30 475 C 40.0806 -1.4701 1.17345 0
M  V30 476 O 39.4386 -1.80436 0.176758 0
M  V30 477 C 39.4866 -0.755749 3.52592 0
M  V30 478 O 38.5906 -1.86088 3.68028 0
M  V30 479 H 37.9316 -0.062421 0.661059 0
M  V30 480 H 40.4616 0.438215 1.99852 0
M  V30 481 H 40.4716 -1.04552 3.94376 0
M  V30 482 H 39.1466 0.0867233 4.1581 0
M  V30 483 H 37.7236 -1.57193 3.38149 0
M  V30 484 N 39.9087 -1.5758 0.0250728 0
M  V30 485 C 41.1577 -1.90811 -0.653767 0
M  V30 486 C 41.4707 -0.90273 -1.73523 0
M  V30 487 O 42.6767 -1.12614 -2.47043 0
M  V30 488 C 41.1327 -3.38804 -1.21409 0
M  V30 489 C 40.7407 -4.47692 -0.166126 0
M  V30 490 C 42.4847 -3.81108 -1.86967 0
M  V30 491 C 40.3917 -5.86779 -0.737856 0
M  V30 492 H 39.3217 -0.712063 -0.247956 0
M  V30 493 H 41.9727 -1.83281 0.0897137 0
M  V30 494 H 40.3547 -3.41252 -2.00905 0
M  V30 495 H 41.5287 -4.56797 0.606079 0
M  V30 496 H 39.8437 -4.14565 0.390466 0
M  V30 497 H 42.4407 -4.82375 -2.30692 0
M  V30 498 H 42.7837 -3.15953 -2.71071 0
M  V30 499 H 43.3167 -3.81065 -1.14167 0
M  V30 500 H 40.0557 -6.55468 0.0649577 0
M  V30 501 H 39.5757 -5.81288 -1.47864 0
M  V30 502 H 41.2547 -6.35223 -1.22884 0
M  V30 503 N 41.3868 0.248026 -1.55636 0
M  V30 504 C 42.6328 0.97767 -1.77678 0
M  V30 505 C 42.9658 1.85016 -0.590135 0
M  V30 506 O 42.2408 1.90095 0.411611 0
M  V30 507 C 42.5238 1.83914 -3.09593 0
M  V30 508 C 42.3768 0.99491 -4.38659 0
M  V30 509 C 43.6958 2.82183 -3.37729 0
M  V30 510 H 40.8148 0.354005 -0.646413 0
M  V30 511 H 43.4568 0.248253 -1.88371 0
M  V30 512 H 41.6068 2.46104 -3.00608 0
M  V30 513 H 43.2788 0.391789 -4.59633 0
M  V30 514 H 41.5218 0.299231 -4.32767 0
M  V30 515 H 42.1928 1.63145 -5.2734 0
M  V30 516 H 44.6688 2.30129 -3.4667 0
M  V30 517 H 43.5448 3.39582 -4.31249 0
M  V30 518 H 43.8058 3.58588 -2.58586 0
M  V30 519 N 42.8649 1.48995 0.513639 0
M  V30 520 C 43.7949 1.67636 1.62544 0
M  V30 521 C 44.7759 0.525087 1.61793 0
M  V30 522 O 45.9609 0.759502 1.78732 0
M  V30 523 C 43.0909 1.73114 3.01079 0
M  V30 524 C 42.0449 2.87905 3.16693 0
M  V30 525 C 41.3709 2.78486 4.56453 0
M  V30 526 C 42.6709 4.29005 2.97913 0
M  V30 527 H 44.3649 2.60716 1.47198 0
M  V30 528 H 41.9109 1.25465 0.706714 0
M  V30 529 H 43.8639 1.84742 3.78746 0
M  V30 530 H 42.5879 0.766241 3.17484 0
M  V30 531 H 41.2469 2.75859 2.41448 0
M  V30 532 H 40.8949 1.7993 4.69717 0
M  V30 533 H 40.5949 3.55523 4.67843 0
M  V30 534 H 42.1189 2.92104 5.36197 0
M  V30 535 H 43.5329 4.41798 3.65359 0
M  V30 536 H 41.9299 5.07166 3.20785 0
M  V30 537 H 42.9999 4.44329 1.94165 0
M  V30 538 N 44.343 -0.763751 1.37857 0
M  V30 539 C 45.592 -1.51789 1.32827 0
M  V30 540 C 45.905 -1.95426 -0.0823719 0
M  V30 541 O 47.111 -2.70298 -0.255172 0
M  V30 542 C 45.567 -2.74133 2.33193 0
M  V30 543 C 45.175 -2.37562 3.79827 0
M  V30 544 C 46.919 -3.52054 2.37188 0
M  V30 545 C 44.826 -3.56456 4.71904 0
M  V30 546 H 43.756 -0.569896 0.493695 0
M  V30 547 H 46.407 -0.835822 1.63359 0
M  V30 548 H 44.789 -3.4427 1.9569 0
M  V30 549 H 45.963 -1.75157 4.26212 0
M  V30 550 H 44.278 -1.72798 3.78853 0
M  V30 551 H 46.875 -4.40437 3.03182 0
M  V30 552 H 47.218 -3.92486 1.38782 0
M  V30 553 H 47.751 -2.88921 2.7344 0
M  V30 554 H 44.49 -3.21099 5.71468 0
M  V30 555 H 44.01 -4.17938 4.30218 0
M  V30 556 H 45.689 -4.23168 4.89426 0
M  V30 557 N 45.8211 -1.22559 -0.990812 0
M  V30 558 C 47.0671 -1.05297 -1.73322 0
M  V30 559 C 47.4001 0.410655 -1.89808 0
M  V30 560 O 46.6751 1.30439 -1.44277 0
M  V30 561 C 46.9581 -1.76713 -3.13759 0
M  V30 562 C 46.8111 -3.30684 -3.04907 0
M  V30 563 C 48.1301 -1.52121 -4.12974 0
M  V30 564 H 45.2491 -0.38392 -0.629106 0
M  V30 565 H 47.8911 -1.50926 -1.15418 0
M  V30 566 H 46.0411 -1.37924 -3.63193 0
M  V30 567 H 47.7131 -3.7893 -2.63077 0
M  V30 568 H 45.9561 -3.60253 -2.41661 0
M  V30 569 H 46.6271 -3.75833 -4.04294 0
M  V30 570 H 49.1031 -1.85819 -3.72304 0
M  V30 571 H 47.9791 -2.04582 -5.0935 0
M  V30 572 H 48.2401 -0.454257 -4.3976 0
M  V30 573 N 47.2992 1.18797 -1.03562 0
M  V30 574 C 48.2292 2.24472 -0.643019 0
M  V30 575 C 49.2102 1.66433 0.351283 0
M  V30 576 O 50.3952 1.92803 0.232505 0
M  V30 577 C 47.5252 3.473 4.24935e-05 0
M  V30 578 C 46.4792 4.18055 -0.917257 0
M  V30 579 C 45.8052 5.34519 -0.138941 0
M  V30 580 C 47.1052 4.72109 -2.23407 0
M  V30 581 H 48.7992 2.57566 -1.52643 0
M  V30 582 H 46.3452 1.23806 -0.735394 0
M  V30 583 H 48.2982 4.20426 0.286383 0
M  V30 584 H 47.0222 3.13424 0.918299 0
M  V30 585 H 45.6812 3.46821 -1.1879 0
M  V30 586 H 45.3292 4.96891 0.781562 0
M  V30 587 H 45.0292 5.82794 -0.750005 0
M  V30 588 H 46.5532 6.10438 0.1405 0
M  V30 589 H 47.9672 5.36955 -2.00879 0
M  V30 590 H 46.3642 5.30897 -2.79765 0
M  V30 591 H 47.4342 3.89807 -2.88407 0
M  V30 592 N 48.7773 0.814389 1.34928 0
M  V30 593 C 49.7073 0.244827 2.32213 0
M  V30 594 C 50.6883 -0.634024 1.57842 0
M  V30 595 O 51.8733 -0.562676 1.8587 0
M  V30 596 C 49.0033 -0.601106 3.42058 0
M  V30 597 C 47.9573 0.179896 4.27622 0
M  V30 598 C 47.2833 -0.788237 5.28858 0
M  V30 599 C 48.5833 1.38329 5.03649 0
M  V30 600 H 50.2773 1.05763 2.80097 0
M  V30 601 H 47.8233 0.510029 1.34665 0
M  V30 602 H 49.7763 -1.00968 4.09125 0
M  V30 603 H 48.5003 -1.44688 2.92802 0
M  V30 604 H 47.1593 0.569739 3.62146 0
M  V30 605 H 46.8073 -1.62973 4.75866 0
M  V30 606 H 46.5073 -0.269942 5.8698 0
M  V30 607 H 48.0313 -1.19485 5.98795 0
M  V30 608 H 49.4453 1.04918 5.63618 0
M  V30 609 H 47.8423 1.83662 5.71304 0
M  V30 610 H 48.9123 2.16592 4.33839 0
M  V30 611 N 50.2554 -1.46986 0.568584 0
M  V30 612 C 51.2184 -2.28624 -0.162366 0
M  V30 613 C 52.2184 -1.37596 -0.832103 0
M  V30 614 O 53.4084 -1.60115 -0.68622 0
M  V30 615 C 50.5404 -3.17596 -1.23878 0
M  V30 616 H 51.7334 -2.94722 0.554899 0
M  V30 617 H 49.2864 -1.52863 0.325976 0
M  V30 618 H 50.0214 -2.56214 -1.98808 0
M  V30 619 H 49.8064 -3.846 -0.763219 0
M  V30 620 H 51.2964 -3.79078 -1.75185 0
M  V30 621 N 51.7335 -0.305618 -1.54608 0
M  V30 622 C 52.6805 0.568421 -2.23691 0
M  V30 623 C 53.6505 1.12592 -1.22116 0
M  V30 624 O 54.8355 1.16959 -1.50749 0
M  V30 625 C 51.9755 1.7322 -2.98477 0
M  V30 626 C 51.0885 1.20566 -4.14835 0
M  V30 627 C 50.2235 2.33368 -4.77193 0
M  V30 628 C 49.2625 1.7787 -5.85686 0
M  V30 629 N 48.3995 2.84263 -6.4198 0
M  V30 630 H 53.2395 -0.0272867 -2.97988 0
M  V30 631 H 50.7765 -0.0252363 -1.47078 0
M  V30 632 H 52.7345 2.41675 -3.40072 0
M  V30 633 H 51.3645 2.29947 -2.26548 0
M  V30 634 H 50.4165 0.413223 -3.78149 0
M  V30 635 H 51.7285 0.759417 -4.92985 0
M  V30 636 H 50.8825 3.09761 -5.21664 0
M  V30 637 H 49.6215 2.8132 -3.98385 0
M  V30 638 H 48.6265 0.99968 -5.40635 0
M  V30 639 H 49.8515 1.30816 -6.66381 0
M  V30 640 H 47.7975 3.31541 -5.66053 0
M  V30 641 H 47.7145 2.44149 -7.15491 0
M  V30 642 H 48.9825 3.6054 -6.91109 0
M  V30 643 N 53.2116 1.57565 -0.0334293 0
M  V30 644 C 54.1216 2.13943 0.962572 0
M  V30 645 C 55.1376 1.09276 1.35406 0
M  V30 646 O 56.3136 1.41355 1.4346 0
M  V30 647 C 53.3786 2.65887 2.22497 0
M  V30 648 C 52.4396 3.85286 1.8935 0
M  V30 649 C 51.6726 4.34743 3.09571 0
M  V30 650 O 51.8956 3.83352 4.22371 0
M  V30 651 O 50.8296 5.26538 2.91618 0
M  V30 652 H 54.6556 2.99333 0.513169 0
M  V30 653 H 52.2406 1.4822 0.18743 0
M  V30 654 H 54.1226 2.99346 2.96598 0
M  V30 655 H 52.7976 1.83578 2.6661 0
M  V30 656 H 51.7046 3.56746 1.1262 0
M  V30 657 H 53.0376 4.68771 1.5005 0
M  V30 658 N 54.6897 -0.239769 1.55765 0
M  V30 659 C 55.9147 -0.988373 1.82335 0
M  V30 660 C 56.3397 -1.77886 0.611421 0
M  V30 661 O 55.6977 -1.75889 -0.439639 0
M  V30 662 C 55.7457 -1.89627 3.06715 0
M  V30 663 O 54.8497 -2.98904 2.84131 0
M  V30 664 H 54.1907 -0.280858 0.601677 0
M  V30 665 H 56.7207 -0.258597 2.02959 0
M  V30 666 H 56.7307 -2.30957 3.36338 0
M  V30 667 H 55.4057 -1.31511 3.9456 0
M  V30 668 H 53.9827 -2.61651 2.65694 0
M  V30 669 N 56.1678 -1.49265 -0.50573 0
M  V30 670 C 57.0978 -1.68495 -1.61653 0
M  V30 671 C 58.0788 -0.53366 -1.61512 0
M  V30 672 O 59.2638 -0.76897 -1.78327 0
M  V30 673 C 56.3938 -1.74709 -3.00157 0
M  V30 674 C 55.3478 -2.89581 -3.15162 0
M  V30 675 C 54.6738 -2.80903 -4.5497 0
M  V30 676 C 55.9738 -4.30578 -2.95634 0
M  V30 677 H 57.6678 -2.61493 -1.45814 0
M  V30 678 H 55.2138 -1.25838 -0.70005 0
M  V30 679 H 57.1668 -1.86748 -3.77761 0
M  V30 680 H 55.8908 -0.783067 -3.17074 0
M  V30 681 H 54.5498 -2.77136 -2.39982 0
M  V30 682 H 54.1978 -1.82419 -4.68756 0
M  V30 683 H 53.8978 -3.57999 -4.65951 0
M  V30 684 H 55.4218 -2.94944 -5.34641 0
M  V30 685 H 56.8358 -4.4373 -3.63011 0
M  V30 686 H 55.2328 -5.0886 -3.18091 0
M  V30 687 H 56.3028 -4.45352 -1.91806 0
M  V30 688 N 57.6459 0.756429 -1.3826 0
M  V30 689 C 58.5929 1.87011 -1.35261 0
M  V30 690 C 59.5629 1.64695 -0.215616 0
M  V30 691 O 60.7479 1.864 -0.407399 0
M  V30 692 C 57.8879 3.24275 -1.18068 0
M  V30 693 C 57.0009 3.58442 -2.41129 0
M  V30 694 C 56.1359 4.84994 -2.16689 0
M  V30 695 C 55.1749 5.11939 -3.35537 0
M  V30 696 N 54.3119 6.29685 -3.10549 0
M  V30 697 H 59.1519 1.8891 -2.30472 0
M  V30 698 H 56.6889 0.923373 -1.14509 0
M  V30 699 H 58.6469 4.03479 -1.06116 0
M  V30 700 H 57.2769 3.21711 -0.264973 0
M  V30 701 H 56.3289 2.74103 -2.63764 0
M  V30 702 H 57.6409 3.74283 -3.29717 0
M  V30 703 H 56.7949 5.72135 -2.01857 0
M  V30 704 H 55.5339 4.71286 -1.25462 0
M  V30 705 H 54.5389 4.23268 -3.50891 0
M  V30 706 H 55.7639 5.27546 -4.27635 0
M  V30 707 H 53.7099 6.17306 -2.21967 0
M  V30 708 H 53.6269 6.46014 -3.92686 0
M  V30 709 H 54.8949 7.19722 -2.99367 0
M  V30 710 N 59.124 1.23083 0.984299 0
M  V30 711 C 60.349 1.088 1.76571 0
M  V30 712 C 60.774 -0.356657 1.84688 0
M  V30 713 O 60.132 -1.25788 1.30565 0
M  V30 714 C 60.18 1.71371 3.17277 0
M  V30 715 O 59.284 0.973213 4.00752 0
M  V30 716 H 58.625 0.381599 0.543395 0
M  V30 717 H 61.155 1.63057 1.23587 0
M  V30 718 H 61.165 1.76449 3.67872 0
M  V30 719 H 59.84 2.76493 3.10684 0
M  V30 720 H 58.417 0.999078 3.59267 0
M  V30 721 N 60.6021 -1.18246 1.0419 0
M  V30 722 C 61.8301 -1.92195 0.766072 0
M  V30 723 C 62.2451 -1.76247 -0.676933 0
M  V30 724 O 61.6021 -1.09293 -1.46155 0
M  V30 725 C 61.6531 -3.43568 1.12442 0
M  V30 726 O 61.3741 -3.59015 2.51078 0
M  V30 727 C 62.8751 -4.34613 0.873275 0
M  V30 728 H 60.0951 -0.610114 0.279288 0
M  V30 729 H 62.6391 -1.50007 1.38989 0
M  V30 730 H 60.7941 -3.8354 0.545542 0
M  V30 731 H 61.2081 -4.5273 2.64831 0
M  V30 732 H 62.6821 -5.39374 1.17385 0
M  V30 733 H 63.1591 -4.38781 -0.191909 0
M  V30 734 H 63.7651 -4.00341 1.43551 0
M  V30 735 N 62.0802 -0.821533 -1.34494 0
M  V30 736 C 63.0432 -0.247847 -2.27856 0
M  V30 737 C 64.0432 0.573453 -1.50227 0
M  V30 738 O 65.2332 0.389759 -1.69784 0
M  V30 739 C 62.3652 0.652698 -3.34593 0
M  V30 740 H 63.5582 -1.07146 -2.80107 0
M  V30 741 H 61.1112 -0.593291 -1.44602 0
M  V30 742 H 61.8462 1.49943 -2.87555 0
M  V30 743 H 61.6312 0.065292 -3.92046 0
M  V30 744 H 63.1212 1.04793 -4.04238 0
M  V30 745 N 63.5583 1.46682 -0.576371 0
M  V30 746 C 64.9693 1.86112 -0.148091 0
M  V30 747 C 65.3203 1.48073 1.2872 0
M  V30 748 O 64.4453 0.892656 1.97131 0
M  V30 749 C 65.0403 3.37786 -0.261982 0
M  V30 750 C 63.5993 3.76235 0.111384 0
M  V30 751 C 62.7463 2.70713 -0.60083 0
M  V30 752 H 65.6973 1.37927 -0.78497 0
M  V30 753 H 65.7183 3.77007 0.514364 0
M  V30 754 H 65.2303 3.6544 -1.30671 0
M  V30 755 H 63.3313 3.54198 1.15649 0
M  V30 756 H 63.4443 4.78391 -0.26052 0
M  V30 757 H 61.8083 2.54666 -0.0417783 0
M  V30 758 H 62.5913 3.01208 -1.64708 0
M  V30 759 N 65.0364 0.313813 1.54444 0
M  V30 760 C 66.3134 -0.345447 1.92525 0
M  V30 761 C 66.6934 -1.70667 1.24242 0
M  V30 762 O 66.0414 -2.25273 0.382654 0
M  V30 763 C 66.2514 -0.44737 3.46121 0
M  V30 764 C 67.5994 -0.712238 4.18584 0
M  V30 765 O 68.6234 -0.530678 3.52225 0
M  V30 766 O 67.4824 -1.06183 5.36085 0
M  V30 767 H 64.5764 -0.195407 0.803583 0
M  V30 768 H 67.1224 0.362813 1.65776 0
M  V30 769 H 65.8944 0.509043 3.87975 0
M  V30 770 H 65.5174 -1.20359 3.78945 0
M  V30 771 N 66.5145 -1.57545 0.0417849 0
M  V30 772 C 67.9255 -1.80011 -0.495259 0
M  V30 773 C 68.2765 -0.953199 -1.71489 0
M  V30 774 O 67.4015 -0.167138 -2.15754 0
M  V30 775 C 67.9965 -3.26482 -0.905265 0
M  V30 776 C 66.5555 -3.499 -1.38734 0
M  V30 777 C 65.7025 -2.74979 -0.358056 0
M  V30 778 H 68.6535 -1.56425 0.267736 0
M  V30 779 H 68.6745 -3.36887 -1.76882 0
M  V30 780 H 68.1865 -3.88096 -0.017401 0
M  V30 781 H 66.2875 -2.93553 -2.29471 0
M  V30 782 H 66.4005 -4.58615 -1.38598 0
M  V30 783 H 64.7645 -2.40834 -0.828912 0
M  V30 784 H 65.5475 -3.39315 0.521561 0
M  V30 785 N 67.9926 0.231505 -1.5589 0
M  V30 786 C 69.2406 0.955461 -1.78088 0
M  V30 787 C 69.5616 1.85262 -0.608533 0
M  V30 788 O 68.8316 1.92277 0.375035 0
M  V30 789 H 67.4116 0.355787 -0.656829 0
M  V30 790 H 70.0736 0.245751 -1.93344 0
M  V30 791 H 69.1696 1.56814 -2.69844 0
M  V30 792 N 69.4707 1.49531 0.497807 0
M  V30 793 C 70.6987 1.62893 1.27567 0
M  V30 794 C 71.1137 0.301585 1.86376 0
M  V30 795 O 70.4707 -0.713335 1.67982 0
M  V30 796 C 70.5217 2.70013 2.40364 0
M  V30 797 O 70.2427 3.976 1.83972 0
M  V30 798 C 71.7437 2.94109 3.31685 0
M  V30 799 H 68.9637 0.548298 0.386794 0
M  V30 800 H 71.5077 1.95584 0.597245 0
M  V30 801 H 69.6627 2.40092 3.04031 0
M  V30 802 H 70.0767 4.56631 2.58047 0
M  V30 803 H 71.5507 3.72788 4.07104 0
M  V30 804 H 72.0277 2.04147 3.88871 0
M  V30 805 H 72.6337 3.2546 2.73781 0
M  V30 806 N 70.9488 -0.749086 1.3866 0
M  V30 807 C 72.1768 -1.53834 1.38358 0
M  V30 808 C 72.5918 -1.88783 -0.0255219 0
M  V30 809 O 71.9488 -1.53101 -0.993292 0
M  V30 810 C 71.9998 -2.83468 2.2434 0
M  V30 811 O 71.7208 -2.50008 3.5976 0
M  V30 812 C 73.2218 -3.7758 2.32267 0
M  V30 813 H 70.4418 -0.47585 0.473083 0
M  V30 814 H 72.9858 -0.926726 1.82297 0
M  V30 815 H 71.1408 -3.40995 1.83851 0
M  V30 816 H 71.5548 -3.33182 4.05081 0
M  V30 817 H 73.0288 -4.65478 2.96706 0
M  V30 818 H 73.5058 -4.18334 1.33765 0
M  V30 819 H 74.1118 -3.25976 2.73166 0
M  V30 820 N 72.4269 -1.23603 -0.977757 0
M  V30 821 C 73.6749 -1.06759 -1.71601 0
M  V30 822 C 73.9959 0.395929 -1.90938 0
M  V30 823 O 73.2659 1.28356 -1.47992 0
M  V30 824 H 71.8459 -0.392062 -0.635843 0
M  V30 825 H 74.5079 -1.55362 -1.1768 0
M  V30 826 H 73.6039 -1.55763 -2.70452 0
M  V30 827 N 73.905 1.17692 -1.04816 0
M  V30 828 C 75.133 1.91786 -0.776254 0
M  V30 829 C 75.548 1.76604 0.667577 0
M  V30 830 O 74.905 1.10067 1.45573 0
M  V30 831 C 74.956 3.42967 -1.14263 0
M  V30 832 O 74.677 3.57678 -2.52978 0
M  V30 833 C 76.178 4.34144 -0.896311 0
M  V30 834 H 73.398 0.608624 -0.282519 0
M  V30 835 H 75.942 1.49268 -1.39783 0
M  V30 836 H 74.097 3.83245 -0.565874 0
M  V30 837 H 74.511 4.51319 -2.67229 0
M  V30 838 H 75.985 5.38744 -1.20244 0
M  V30 839 H 76.462 4.38876 0.168636 0
M  V30 840 H 77.068 3.99574 -1.45672 0
M  V30 841 N 75.3831 0.828654 1.34056 0
M  V30 842 C 76.7941 0.477534 1.8049 0
M  V30 843 C 77.1451 -1.00258 1.6865 0
M  V30 844 O 76.2701 -1.78057 1.22982 0
M  V30 845 C 76.8651 0.860018 3.27703 0
M  V30 846 C 75.4241 0.561185 3.72193 0
M  V30 847 C 74.5711 1.07385 2.55663 0
M  V30 848 H 77.5221 1.0183 1.21722 0
M  V30 849 H 77.5431 0.166038 3.80138 0
M  V30 850 H 77.0551 1.93731 3.36288 0
M  V30 851 H 75.1561 -0.506465 3.69142 0
M  V30 852 H 75.2691 1.10926 4.66082 0
M  V30 853 H 73.6331 0.495149 2.49841 0
M  V30 854 H 74.4161 2.15771 2.67016 0
M  V30 855 N 76.8612 -1.46375 0.584142 0
M  V30 856 C 78.1382 -1.956 0.0033388 0
M  V30 857 C 78.5182 -1.52679 -1.45782 0
M  V30 858 O 77.8662 -0.77816 -2.14842 0
M  V30 859 C 78.0762 -3.48551 0.176891 0
M  V30 860 C 79.4242 -4.24576 0.0454609 0
M  V30 861 O 80.4482 -3.56043 0.105801 0
M  V30 862 O 79.3072 -5.46427 -0.0890376 0
M  V30 863 H 76.4012 -0.825547 -0.0490066 0
M  V30 864 H 78.9472 -1.56652 0.65256 0
M  V30 865 H 77.7192 -3.72683 1.1926 0
M  V30 866 H 77.3422 -3.94332 -0.508695 0
M  V30 867 N 78.3393 -0.321999 -1.54275 0
M  V30 868 C 79.7503 0.166384 -1.85957 0
M  V30 869 C 80.1013 1.51747 -1.24367 0
M  V30 870 O 79.2263 2.09317 -0.549124 0
M  V30 871 C 79.8213 0.308681 -3.37391 0
M  V30 872 C 78.3803 0.741286 -3.69028 0
M  V30 873 C 77.5273 -0.137937 -2.76957 0
M  V30 874 H 80.4783 -0.542335 -1.49146 0
M  V30 875 H 80.4993 1.13984 -3.63026 0
M  V30 876 H 80.0113 -0.674809 -3.82188 0
M  V30 877 H 78.1123 1.73458 -3.29762 0
M  V30 878 H 78.2253 0.546118 -4.75977 0
M  V30 879 H 76.5893 0.386251 -2.51754 0
M  V30 880 H 77.3723 -1.11816 -3.2458 0
M  V30 881 N 79.8174 1.5752 -0.0501392 0
M  V30 882 C 81.0654 1.9227 0.622642 0
M  V30 883 C 81.3864 0.929083 1.71444 0
M  V30 884 O 80.6564 -0.0262186 1.95882 0
M  V30 885 H 79.2364 0.709739 0.232981 0
M  V30 886 H 81.8984 1.94628 -0.102898 0
M  V30 887 H 80.9944 2.93479 1.06191 0
M  V30 888 N 81.2955 -0.223234 1.56011 0
M  V30 889 C 82.5235 -0.964812 1.83027 0
M  V30 890 C 82.9385 -1.78013 0.62904 0
M  V30 891 O 82.2955 -1.78008 -0.402414 0
M  V30 892 C 82.3465 -1.88373 3.08542 0
M  V30 893 O 82.0675 -1.10137 4.2403 0
M  V30 894 C 83.5685 -2.73934 3.48533 0
M  V30 895 H 80.7885 -0.282842 0.608475 0
M  V30 896 H 83.3325 -0.238971 2.03099 0
M  V30 897 H 81.4875 -2.56354 2.9045 0
M  V30 898 H 81.9015 -1.72501 4.95322 0
M  V30 899 H 83.3755 -3.34117 4.39397 0
M  V30 900 H 83.8525 -3.46244 2.70207 0
M  V30 901 H 84.4585 -2.11369 3.69057 0
M  V30 902 N 82.7736 -1.49793 -0.48987 0
M  V30 903 C 84.0016 -1.63568 -1.26701 0
M  V30 904 C 84.4166 -0.311465 -1.86213 0
M  V30 905 O 83.7736 0.704416 -1.68357 0
M  V30 906 C 83.8246 -2.71284 -2.38929 0
M  V30 907 O 83.5456 -3.9857 -1.81861 0
M  V30 908 C 85.0466 -2.95864 -3.3012 0
M  V30 909 H 82.2666 -0.550342 -0.383881 0
M  V30 910 H 84.8106 -1.95898 -0.586864 0
M  V30 911 H 82.9656 -2.417 -3.02753 0
M  V30 912 H 83.3796 -4.57993 -2.55622 0
M  V30 913 H 84.8536 -3.74941 -4.05121 0
M  V30 914 H 85.3306 -2.06206 -3.87783 0
M  V30 915 H 85.9366 -3.26907 -2.72051 0
M  V30 916 N 84.2517 0.741722 -1.39055 0
M  V30 917 C 85.4997 1.49818 -1.35643 0
M  V30 918 C 85.8207 1.94938 0.0491642 0
M  V30 919 O 85.0907 1.68505 0.999141 0
M  V30 920 H 83.6707 0.555755 -0.499144 0
M  V30 921 H 86.3327 0.880957 -1.73854 0
M  V30 922 H 85.4287 2.38348 -2.01486 0
M  V30 923 N 85.7298 1.2412 0.971189 0
M  V30 924 C 86.9578 1.10575 1.74874 0
M  V30 925 C 87.3728 -0.342017 1.85676 0
M  V30 926 O 86.7298 -1.23617 1.34258 0
M  V30 927 C 86.7808 1.73579 3.171 0
M  V30 928 O 86.5018 3.12695 3.06844 0
M  V30 929 C 88.0028 1.65598 4.11208 0
M  V30 930 H 85.2228 0.386504 0.548503 0
M  V30 931 H 87.7668 1.64156 1.21955 0
M  V30 932 H 85.9218 1.24009 3.67016 0
M  V30 933 H 86.3358 3.43412 3.96445 0
M  V30 934 H 87.8098 2.1437 5.08674 0
M  V30 935 H 88.2868 0.616532 4.34851 0
M  V30 936 H 88.8928 2.14578 3.67201 0
M  V30 937 N 87.2079 -1.17134 1.05439 0
M  V30 938 C 88.6189 -1.69084 0.791676 0
M  V30 939 C 88.9699 -1.83822 -0.685839 0
M  V30 940 O 88.0949 -1.52757 -1.53278 0
M  V30 941 C 88.6899 -3.07119 1.4305 0
M  V30 942 C 87.2489 -3.56225 1.21577 0
M  V30 943 C 86.3959 -2.32421 1.51247 0
M  V30 944 H 89.3469 -1.01617 1.219 0
M  V30 945 H 89.3679 -3.71087 0.84112 0
M  V30 946 H 88.8799 -2.9636 2.50584 0
M  V30 947 H 86.9809 -3.72257 0.159787 0
M  V30 948 H 87.0939 -4.38837 1.92246 0
M  V30 949 H 85.4579 -2.3701 0.932653 0
M  V30 950 H 86.2409 -2.24268 2.5992 0
M  V30 951 N 88.686 -0.835752 -1.33615 0
M  V30 952 C 89.963 -0.352017 -1.92406 0
M  V30 953 C 90.343 1.16225 -1.76224 0
M  V30 954 O 89.691 1.97526 -1.14873 0
M  V30 955 C 89.901 -0.795485 -3.39813 0
M  V30 956 C 91.249 -0.801703 -4.16963 0
M  V30 957 O 92.273 -0.738889 -3.48452 0
M  V30 958 O 91.132 -0.886607 -5.3926 0
M  V30 959 H 88.226 -0.0989641 -0.821057 0
M  V30 960 H 90.772 -0.921397 -1.42507 0
M  V30 961 H 89.544 -1.83795 -3.45449 0
M  V30 962 H 89.167 -0.202505 -3.97084 0
M  V30 963 N 90.1641 1.46063 -0.591896 0
M  V30 964 C 91.5751 1.85944 -0.167822 0
M  V30 965 C 91.9261 1.49429 1.27143 0
M  V30 966 O 91.0511 0.913515 1.96173 0
M  V30 967 C 91.6461 3.37489 -0.297794 0
M  V30 968 C 90.2051 3.76332 0.0714732 0
M  V30 969 C 89.3521 2.7006 -0.629509 0
M  V30 970 H 92.3031 1.37087 -0.799555 0
M  V30 971 H 92.3241 3.77532 0.474349 0
M  V30 972 H 91.8361 3.64034 -1.3454 0
M  V30 973 H 89.9371 3.55405 1.11886 0
M  V30 974 H 90.0501 4.78088 -0.311245 0
M  V30 975 H 88.4141 2.54607 -0.0687867 0
M  V30 976 H 89.1971 2.99444 -1.67894 0
M  V30 977 N 91.6422 0.330177 1.54103 0
M  V30 978 C 92.8902 -0.269871 2.0029 0
M  V30 979 C 93.2112 -1.52133 1.21986 0
M  V30 980 O 92.4812 -1.93212 0.323438 0
M  V30 981 H 91.0612 -0.10271 0.739905 0
M  V30 982 H 93.7232 0.448249 1.89675 0
M  V30 983 H 92.8192 -0.52166 3.07709 0
M  V30 984 N 93.1203 -1.57491 0.0584922 0
M  V30 985 C 94.3483 -1.97296 -0.623037 0
M  V30 986 C 94.7633 -0.936338 -1.63946 0
M  V30 987 O 94.1203 0.0785981 -1.82331 0
M  V30 988 C 94.1713 -3.37183 -1.30345 0
M  V30 989 O 93.8923 -4.36872 -0.32773 0
M  V30 990 C 95.3933 -3.91788 -2.07406 0
M  V30 991 H 92.6133 -0.649153 -0.169826 0
M  V30 992 H 95.1573 -2.04106 0.12696 0
M  V30 993 H 93.3123 -3.31502 -2.00463 0
M  V30 994 H 93.7263 -5.18141 -0.814269 0
M  V30 995 H 95.2003 -4.91926 -2.50425 0
M  V30 996 H 95.6773 -3.27609 -2.92521 0
M  V30 997 H 96.2833 -4.00829 -1.42184 0
M  V30 998 N 94.5984 0.214957 -1.56127 0
M  V30 999 C 95.8264 0.955092 -1.83536 0
M  V30 1000 C 96.2414 1.77677 -0.638472 0
M  V30 1001 O 95.5984 1.78219 0.392968 0
M  V30 1002 C 95.6494 1.86734 -3.09536 0
M  V30 1003 O 95.3704 1.07887 -4.24608 0
M  V30 1004 C 96.8714 2.72082 -3.4998 0
M  V30 1005 H 94.0914 0.279611 -0.609966 0
M  V30 1006 H 96.6354 0.228197 -2.03223 0
M  V30 1007 H 94.7904 2.5481 -2.91806 0
M  V30 1008 H 95.2044 1.69872 -4.9623 0
M  V30 1009 H 96.6784 3.31782 -4.41163 0
M  V30 1010 H 97.1554 3.44806 -2.7204 0
M  V30 1011 H 97.7614 2.09409 -3.70173 0
M  V30 1012 N 96.0765 1.50051 0.48192 0
M  V30 1013 C 97.3245 1.60181 1.23234 0
M  V30 1014 C 97.6455 0.299176 1.92691 0
M  V30 1015 O 96.9155 -0.682708 1.83619 0
M  V30 1016 H 95.4955 0.590232 0.457859 0
M  V30 1017 H 98.1575 1.86775 0.556881 0
M  V30 1018 H 97.2535 2.40753 1.98607 0
M  V30 1019 N 97.5546 -0.734337 1.39446 0
M  V30 1020 C 98.7826 -1.52358 1.39981 0
M  V30 1021 C 99.1976 -1.88799 -0.0054975 0
M  V30 1022 O 98.5546 -1.54146 -0.976998 0
M  V30 1023 C 98.6056 -2.81072 2.27333 0
M  V30 1024 O 98.3266 -2.46178 3.62392 0
M  V30 1025 C 99.8276 -3.75096 2.36259 0
M  V30 1026 H 97.0476 -0.470806 0.478103 0
M  V30 1027 H 99.5916 -0.907339 1.83269 0
M  V30 1028 H 97.7466 -3.39026 1.87457 0
M  V30 1029 H 98.1606 -3.28866 4.08592 0
M  V30 1030 H 99.6346 -4.62305 3.01626 0
M  V30 1031 H 100.112 -4.16892 1.38194 0
M  V30 1032 H 100.718 -3.23061 2.76608 0
M  V30 1033 N 99.0327 -1.24633 -0.964593 0
M  V30 1034 C 100.261 -1.11501 -1.74285 0
M  V30 1035 C 100.676 0.332165 -1.85855 0
M  V30 1036 O 100.033 1.22903 -1.34911 0
M  V30 1037 C 100.084 -1.75258 -3.16175 0
M  V30 1038 O 99.8047 -3.14318 -3.05182 0
M  V30 1039 C 101.306 -1.67776 -4.10324 0
M  V30 1040 H 98.5257 -0.389407 -0.546446 0
M  V30 1041 H 101.07 -1.64801 -1.21083 0
M  V30 1042 H 99.2247 -1.25954 -3.66353 0
M  V30 1043 H 99.6387 -3.4551 -3.94618 0
M  V30 1044 H 101.113 -2.17064 -5.0753 0
M  V30 1045 H 101.59 -0.639584 -4.34518 0
M  V30 1046 H 102.196 -2.16522 -3.66058 0
M  V30 1047 N 100.511 1.16574 -1.06058 0
M  V30 1048 C 101.461 2.18854 -0.63929 0
M  V30 1049 C 102.445 1.57505 0.328798 0
M  V30 1050 O 103.637 1.76408 0.144623 0
M  V30 1051 C 100.766 3.43291 -0.0247203 0
M  V30 1052 C 99.8518 4.11722 -1.01716 0
M  V30 1053 N 100.243 4.55841 -2.19186 0
M  V30 1054 C 98.5408 4.37872 -0.847569 0
M  V30 1055 C 99.2418 5.08751 -2.82042 0
M  V30 1056 N 98.2178 5.01489 -2.09784 0
M  V30 1057 H 102.02 2.5068 -1.53417 0
M  V30 1058 H 99.5338 1.32999 -0.931935 0
M  V30 1059 H 101.531 4.15856 0.294915 0
M  V30 1060 H 100.191 3.12954 0.865448 0
M  V30 1061 H 101.202 4.49649 -2.56975 0
M  V30 1062 H 97.8788 4.17499 -0.00918848 0
M  V30 1063 H 99.2688 5.52944 -3.81709 0
M  V30 1064 N 101.989 0.842826 1.3317 0
M  V30 1065 C 102.952 0.284065 2.27433 0
M  V30 1066 C 103.952 -0.54948 1.5112 0
M  V30 1067 O 105.142 -0.362699 1.70382 0
M  V30 1068 C 102.274 -0.599384 3.35589 0
M  V30 1069 H 103.467 1.11589 2.78366 0
M  V30 1070 H 101.02 0.616221 1.4364 0
M  V30 1071 H 101.755 -1.45349 2.89904 0
M  V30 1072 H 101.54 -0.00291266 3.921 0
M  V30 1073 H 103.03 -0.983488 4.05854 0
M  V30 1074 N 103.467 -1.45747 0.599634 0
M  V30 1075 C 104.883 -1.57424 0.26264 0
M  V30 1076 C 105.083 -1.59222 -1.23493 0
M  V30 1077 O 104.139 -1.51825 -2.01756 0
M  V30 1078 C 105.452 -2.86061 0.926795 0
M  V30 1079 C 107 -2.99722 0.901967 0
M  V30 1080 C 107.475 -4.31119 1.54598 0
M  V30 1081 N 108.966 -4.37858 1.5111 0
M  V30 1082 C 109.701 -5.3818 1.97863 0
M  V30 1083 N 109.197 -6.45083 2.52666 0
M  V30 1084 N 110.99 -5.29487 1.88679 0
M  V30 1085 H 103.141 -1.42823 1.57211 0
M  V30 1086 H 105.404 -0.68235 0.658105 0
M  V30 1087 H 105.11 -2.90605 1.98095 0
M  V30 1088 H 104.984 -3.74563 0.445238 0
M  V30 1089 H 107.371 -2.9475 -0.143617 0
M  V30 1090 H 107.452 -2.12652 1.42171 0
M  V30 1091 H 107.096 -4.36849 2.59085 0
M  V30 1092 H 107.026 -5.16992 1.00132 0
M  V30 1093 H 109.517 -3.61209 1.11068 0
M  V30 1094 H 109.83 -7.17869 2.86155 0
M  V30 1095 H 108.175 -6.45856 2.56701 0
M  V30 1096 H 111.366 -4.44877 1.4561 0
M  V30 1097 H 111.539 -6.07524 2.25429 0
M  V30 1098 N 104.945 -0.338344 -1.53925 0
M  V30 1099 C 106.173 0.261298 -2.05243 0
M  V30 1100 C 106.588 1.44625 -1.21363 0
M  V30 1101 O 105.945 1.80811 -0.247736 0
M  V30 1102 C 105.996 0.681412 -3.5502 0
M  V30 1103 O 105.717 -0.456414 -4.35716 0
M  V30 1104 C 107.218 1.34232 -4.22489 0
M  V30 1105 H 104.438 0.0513685 -0.669031 0
M  V30 1106 H 106.982 -0.488822 -1.98572 0
M  V30 1107 H 105.137 1.38148 -3.61931 0
M  V30 1108 H 105.551 -0.122564 -5.24357 0
M  V30 1109 H 107.025 1.58708 -5.28693 0
M  V30 1110 H 107.502 2.29426 -3.74514 0
M  V30 1111 H 108.108 0.684424 -4.19757 0
M  V30 1112 N 106.423 1.57458 -0.0668435 0
M  V30 1113 C 107.651 1.97624 0.612565 0
M  V30 1114 C 108.066 0.94502 1.63447 0
M  V30 1115 O 107.423 -0.0689276 1.8237 0
M  V30 1116 C 107.474 3.37869 1.28555 0
M  V30 1117 O 107.195 4.3704 0.304557 0
M  V30 1118 C 108.696 3.92882 2.05325 0
M  V30 1119 H 105.916 0.650045 0.166381 0
M  V30 1120 H 108.46 2.04035 -0.137782 0
M  V30 1121 H 106.615 3.3256 1.98702 0
M  V30 1122 H 107.029 5.18565 0.786779 0
M  V30 1123 H 108.503 4.93247 2.47812 0
M  V30 1124 H 108.98 3.29156 2.9078 0
M  V30 1125 H 109.586 4.01577 1.40056 0
M  V30 1126 N 107.901 -0.206675 1.56239 0
M  V30 1127 C 109.149 -0.927007 1.79586 0
M  V30 1128 C 109.47 -1.8427 0.637929 0
M  V30 1129 O 108.74 -1.92849 -0.344398 0
M  V30 1130 H 107.32 -0.345292 0.662407 0
M  V30 1131 H 109.982 -0.21496 1.93711 0
M  V30 1132 H 109.078 -1.52501 2.72305 0
M  V30 1133 N 109.379 -1.50304 -0.473955 0
M  V30 1134 C 110.79 -1.54042 -1.0549 0
M  V30 1135 C 111.141 -0.342248 -1.93192 0
M  V30 1136 O 110.266 0.545157 -2.09421 0
M  V30 1137 C 110.861 -2.79152 -1.91989 0
M  V30 1138 C 109.42 -2.8558 -2.45196 0
M  V30 1139 C 108.567 -2.48295 -1.2347 0
M  V30 1140 H 111.518 -1.5661 -0.256693 0
M  V30 1141 H 111.539 -2.60845 -2.7702 0
M  V30 1142 H 111.051 -3.66339 -1.28131 0
M  V30 1143 H 109.152 -2.02738 -3.12615 0
M  V30 1144 H 109.265 -3.88403 -2.80499 0
M  V30 1145 H 107.629 -2.00669 -1.56856 0
M  V30 1146 H 108.412 -3.37787 -0.612789 0
M  V30 1147 N 110.857 0.726932 -1.39834 0
M  V30 1148 C 112.268 1.30558 -1.3346 0
M  V30 1149 C 112.619 1.962 -0.00273003 0
M  V30 1150 O 111.744 1.96826 0.899371 0
M  V30 1151 C 112.339 2.37404 -2.41713 0
M  V30 1152 C 110.898 2.90921 -2.38835 0
M  V30 1153 C 110.045 1.64578 -2.2318 0
M  V30 1154 H 112.996 0.523862 -1.49804 0
M  V30 1155 H 113.017 3.17984 -2.08966 0
M  V30 1156 H 112.529 1.89599 -3.38635 0
M  V30 1157 H 110.63 3.42985 -1.45575 0
M  V30 1158 H 110.743 3.43487 -3.33997 0
M  V30 1159 H 109.107 1.89219 -1.70494 0
M  V30 1160 H 109.89 1.18814 -3.22084 0
M  V30 1161 N 112.336 1.25143 0.95797 0
M  V30 1162 C 113.613 1.00472 1.67823 0
M  V30 1163 C 113.993 -0.470056 2.058 0
M  V30 1164 O 113.341 -1.44663 1.76875 0
M  V30 1165 C 113.551 1.9372 2.90299 0
M  V30 1166 C 114.899 2.21371 3.62326 0
M  V30 1167 O 115.923 1.91451 3.00375 0
M  V30 1168 O 114.782 2.72231 4.7387 0
M  V30 1169 H 111.876 0.380752 0.734137 0
M  V30 1170 H 114.422 1.36283 1.01119 0
M  V30 1171 H 113.194 2.93316 2.59001 0
M  V30 1172 H 112.817 1.58286 3.64735 0
M  V30 1173 N 113.814 -1.1601 1.06675 0
M  V30 1174 C 115.225 -1.68235 0.809565 0
M  V30 1175 C 115.576 -1.8454 -0.666303 0
M  V30 1176 O 114.701 -1.54374 -1.5165 0
M  V30 1177 C 115.296 -3.05585 1.46299 0
M  V30 1178 C 113.855 -3.54915 1.25349 0
M  V30 1179 C 113.002 -2.30804 1.53703 0
M  V30 1180 H 115.953 -1.00318 1.22971 0
M  V30 1181 H 115.974 -3.70174 0.880431 0
M  V30 1182 H 115.486 -2.93686 2.53713 0
M  V30 1183 H 113.587 -3.72067 0.199261 0
M  V30 1184 H 113.7 -4.36774 1.9689 0
M  V30 1185 H 112.064 -2.36007 0.957739 0
M  V30 1186 H 112.847 -2.21499 2.62284 0
M  V30 1187 N 115.292 -0.849877 -1.32721 0
M  V30 1188 C 116.54 -0.450032 -1.97026 0
M  V30 1189 C 116.861 0.996604 -1.67609 0
M  V30 1190 O 116.131 1.6958 -0.980786 0
M  V30 1191 H 114.711 -0.163426 -0.728904 0
M  V30 1192 H 117.373 -1.08526 -1.6189 0
M  V30 1193 H 116.469 -0.591146 -3.0645 0
M  V30 1194 N 116.77 1.45427 -0.607355 0
M  V30 1195 C 117.998 2.06614 -0.108814 0
M  V30 1196 C 118.413 1.45204 1.2067 0
M  V30 1197 O 117.77 0.566132 1.73497 0
M  V30 1198 C 117.821 3.61481 0.0375347 0
M  V30 1199 O 117.542 4.20598 -1.22593 0
M  V30 1200 C 119.043 4.39652 0.567561 0
M  V30 1201 H 116.263 0.66747 -0.0687351 0
M  V30 1202 H 118.807 1.86675 -0.835022 0
M  V30 1203 H 116.962 3.80762 0.714068 0
M  V30 1204 H 117.376 5.1377 -1.05547 0
M  V30 1205 H 118.85 5.48518 0.61905 0
M  V30 1206 H 119.327 4.09417 1.58978 0
M  V30 1207 H 119.933 4.25234 -0.0749202 0
M  V30 1208 N 118.248 0.346503 1.53744 0
M  V30 1209 C 119.476 -0.25041 2.05379 0
M  V30 1210 C 119.891 -1.43979 1.22129 0
M  V30 1211 O 119.248 -1.80677 0.257321 0
M  V30 1212 C 119.299 -0.662575 3.55376 0
M  V30 1213 O 119.02 0.479515 4.35468 0
M  V30 1214 C 120.521 -1.31989 4.23195 0
M  V30 1215 H 117.741 -0.0478198 0.669294 0
M  V30 1216 H 120.285 0.499346 1.9831 0
M  V30 1217 H 118.44 -1.36227 3.62658 0
M  V30 1218 H 118.854 0.15037 5.24284 0
M  V30 1219 H 120.328 -1.55902 5.29527 0
M  V30 1220 H 120.805 -2.27436 3.75725 0
M  V30 1221 H 121.411 -0.662154 4.20114 0
M  V30 1222 N 119.726 -1.57421 0.075193 0
M  V30 1223 C 120.974 -1.93236 -0.591974 0
M  V30 1224 C 121.295 -0.956241 -1.69944 0
M  V30 1225 O 120.565 -0.00494792 -1.95899 0
M  V30 1226 H 119.145 -0.713355 -0.22166 0
M  V30 1227 H 121.807 -1.9444 0.133848 0
M  V30 1228 H 120.903 -2.95131 -1.01509 0
M  V30 1229 N 121.204 0.198386 -1.56346 0
M  V30 1230 C 122.432 0.935572 -1.84539 0
M  V30 1231 C 122.847 1.76989 -0.657281 0
M  V30 1232 O 122.204 1.78626 0.374043 0
M  V30 1233 C 122.255 1.8344 -3.11499 0
M  V30 1234 O 121.976 1.03377 -4.25728 0
M  V30 1235 C 123.477 2.68355 -3.52846 0
M  V30 1236 H 120.697 0.273126 -0.612897 0
M  V30 1237 H 123.241 0.20663 -2.03453 0
M  V30 1238 H 121.396 2.51701 -2.94492 0
M  V30 1239 H 121.81 1.64599 -4.98003 0
M  V30 1240 H 123.284 3.27085 -4.44657 0
M  V30 1241 H 123.761 3.41901 -2.75681 0
M  V30 1242 H 124.367 2.05471 -3.72373 0
M  V30 1243 N 122.682 1.50554 0.465978 0
M  V30 1244 C 123.91 1.65563 1.24083 0
M  V30 1245 C 124.325 0.341051 1.85694 0
M  V30 1246 O 123.682 -0.677543 1.69457 0
M  V30 1247 C 123.733 2.75051 2.34583 0
M  V30 1248 O 123.454 4.01413 1.75497 0
M  V30 1249 C 124.955 3.01078 3.25372 0
M  V30 1250 H 122.175 0.55638 0.375077 0
M  V30 1251 H 124.719 1.96807 0.555624 0
M  V30 1252 H 122.874 2.46486 2.9887 0
M  V30 1253 H 123.288 4.62002 2.48303 0
M  V30 1254 H 124.762 3.81339 3.99105 0
M  V30 1255 H 125.239 2.12349 3.84453 0
M  V30 1256 H 125.845 3.31194 2.66816 0
M  V30 1257 N 124.16 -0.719506 1.40217 0
M  V30 1258 C 125.571 -1.29848 1.34151 0
M  V30 1259 C 125.922 -1.96196 0.0131349 0
M  V30 1260 O 125.047 -1.973 -0.88892 0
M  V30 1261 C 125.642 -2.36118 2.42968 0
M  V30 1262 C 124.201 -2.8965 2.40374 0
M  V30 1263 C 123.348 -1.63393 2.24049 0
M  V30 1264 H 126.299 -0.51591 1.5008 0
M  V30 1265 H 126.32 -3.16871 2.10649 0
M  V30 1266 H 125.832 -1.878 3.39636 0
M  V30 1267 H 123.933 -3.42208 1.47392 0
M  V30 1268 H 124.046 -3.4171 3.35814 0
M  V30 1269 H 122.41 -1.88312 1.71495 0
M  V30 1270 H 123.193 -1.17104 3.2271 0
M  V30 1271 N 125.638 -1.25649 -0.95132 0
M  V30 1272 C 126.884 -1.10757 -1.69884 0
M  V30 1273 C 127.217 0.350061 -1.91019 0
M  V30 1274 O 126.492 1.25783 -1.48354 0
M  V30 1275 C 126.775 -1.86606 -3.07978 0
M  V30 1276 C 126.628 -3.40217 -2.94232 0
M  V30 1277 C 127.947 -1.65182 -4.07925 0
M  V30 1278 H 125.066 -0.40374 -0.616574 0
M  V30 1279 H 127.708 -1.54521 -1.10558 0
M  V30 1280 H 125.858 -1.49409 -3.58621 0
M  V30 1281 H 127.53 -3.87108 -2.50889 0
M  V30 1282 H 125.773 -3.67759 -2.30078 0
M  V30 1283 H 126.444 -3.88505 -3.92133 0
M  V30 1284 H 128.92 -1.9757 -3.66204 0
M  V30 1285 H 127.796 -2.20683 -5.02583 0
M  V30 1286 H 128.057 -0.593933 -4.38092 0
M  V30 1287 N 127.117 1.15442 -1.07289 0
M  V30 1288 C 128.342 1.90638 -0.816828 0
M  V30 1289 C 128.767 1.77445 0.624083 0
M  V30 1290 O 128.125 1.10671 1.43602 0
M  V30 1291 C 128.173 3.39008 -1.22906 0
M  V30 1292 O 127.277 4.10701 -0.373975 0
M  V30 1293 H 126.618 0.593555 -0.297638 0
M  V30 1294 H 129.148 1.46198 -1.43134 0
M  V30 1295 H 129.158 3.89801 -1.20497 0
M  V30 1296 H 127.833 3.47929 -2.27856 0
M  V30 1297 H 126.41 3.70046 -0.460499 0
M  V30 1298 N 128.595 0.856903 1.32268 0
M  V30 1299 C 129.558 0.308171 2.27119 0
M  V30 1300 C 130.558 -0.533421 1.51695 0
M  V30 1301 O 131.748 -0.344607 1.70757 0
M  V30 1302 C 128.88 -0.563757 3.36206 0
M  V30 1303 H 130.073 1.14535 2.77167 0
M  V30 1304 H 127.626 0.631421 1.42978 0
M  V30 1305 H 128.361 -1.42266 2.91429 0
M  V30 1306 H 128.146 0.0386749 3.92081 0
M  V30 1307 H 129.636 -0.940386 4.06874 0
M  V30 1308 N 130.073 -1.45103 0.615059 0
M  V30 1309 C 130.983 -2.34382 -0.101034 0
M  V30 1310 C 131.999 -1.51681 -0.852585 0
M  V30 1311 O 133.175 -1.8446 -0.808484 0
M  V30 1312 C 130.24 -3.29417 -1.08099 0
M  V30 1313 C 129.301 -4.28025 -0.330577 0
M  V30 1314 C 128.534 -5.1852 -1.26385 0
M  V30 1315 O 128.757 -5.12598 -2.50198 0
M  V30 1316 O 127.691 -5.97122 -0.756866 0
M  V30 1317 H 131.517 -2.97033 0.632855 0
M  V30 1318 H 129.102 -1.4461 0.375293 0
M  V30 1319 H 130.984 -3.87958 -1.6452 0
M  V30 1320 H 129.659 -2.69321 -1.79577 0
M  V30 1321 H 128.566 -3.73078 0.276283 0
M  V30 1322 H 129.899 -4.90997 0.343866 0
M  V30 1323 N 131.551 -0.354651 -1.53558 0
M  V30 1324 C 132.791 0.238651 -2.03002 0
M  V30 1325 C 133.155 1.46878 -1.23656 0
M  V30 1326 O 134.356 2.13699 -1.63053 0
M  V30 1327 C 132.627 0.534175 -3.53386 0
M  V30 1328 S 134.186 1.10271 -4.24719 0
M  V30 1329 H 131.004 0.0702908 -0.707517 0
M  V30 1330 H 133.606 -0.494987 -1.8913 0
M  V30 1331 H 132.31 -0.368765 -4.0874 0
M  V30 1332 H 131.841 1.29718 -3.71398 0
M  V30 1333 H 133.856 2.38772 -4.34974 0
M  V30 1334 N 133.029 1.57378 -0.0835403 0
M  V30 1335 C 134.44 1.81261 0.447358 0
M  V30 1336 C 134.791 0.998331 1.68902 0
M  V30 1337 O 133.916 0.224282 2.15235 0
M  V30 1338 C 134.511 3.28767 0.818386 0
M  V30 1339 C 133.07 3.53455 1.29409 0
M  V30 1340 C 132.217 2.75831 0.285024 0
M  V30 1341 H 135.168 1.5566 -0.309115 0
M  V30 1342 H 135.189 3.41459 1.67887 0
M  V30 1343 H 134.701 3.88006 -0.0855019 0
M  V30 1344 H 132.802 2.99534 2.21608 0
M  V30 1345 H 132.915 4.62128 1.2639 0
M  V30 1346 H 131.279 2.42947 0.764767 0
M  V30 1347 H 132.062 3.37813 -0.611341 0
M  V30 1348 N 134.507 -0.190092 1.56449 0
M  V30 1349 C 135.753 -0.911052 1.81184 0
M  V30 1350 C 136.086 -1.82699 0.658396 0
M  V30 1351 O 135.361 -1.91491 -0.340775 0
M  V30 1352 C 135.644 -1.72297 3.16205 0
M  V30 1353 C 135.497 -0.831419 4.42049 0
M  V30 1354 C 136.816 -2.69454 3.47969 0
M  V30 1355 H 133.935 -0.32977 0.659106 0
M  V30 1356 H 136.577 -0.178169 1.89163 0
M  V30 1357 H 134.727 -2.34778 3.09534 0
M  V30 1358 H 136.399 -0.220929 4.60771 0
M  V30 1359 H 134.642 -0.138406 4.33579 0
M  V30 1360 H 135.313 -1.43461 5.33032 0
M  V30 1361 H 137.789 -2.17104 3.54972 0
M  V30 1362 H 136.665 -3.23342 4.43555 0
M  V30 1363 H 136.926 -3.48744 2.71717 0
M  V30 1364 N 135.985 -1.50799 -0.457987 0
M  V30 1365 C 137.231 -1.62683 -1.21088 0
M  V30 1366 C 137.564 -0.332268 -1.91336 0
M  V30 1367 O 136.839 0.667043 -1.82704 0
M  V30 1368 C 137.122 -2.81615 -2.24422 0
M  V30 1369 C 136.975 -4.20989 -1.58392 0
M  V30 1370 C 138.294 -2.96085 -3.2561 0
M  V30 1371 H 135.413 -0.592087 -0.438864 0
M  V30 1372 H 138.055 -1.83225 -0.50286 0
M  V30 1373 H 136.205 -2.64231 -2.84806 0
M  V30 1374 H 137.877 -4.49994 -1.01504 0
M  V30 1375 H 136.12 -4.24641 -0.886704 0
M  V30 1376 H 136.791 -5.0016 -2.33547 0
M  V30 1377 H 139.267 -3.12042 -2.75262 0
M  V30 1378 H 138.143 -3.80902 -3.95228 0
M  V30 1379 H 138.404 -2.0726 -3.90507 0
M  V30 1380 N 137.463 0.71206 -1.40597 0
M  V30 1381 C 138.411 1.84746 -1.41321 0
M  V30 1382 C 139.405 1.66842 -0.293268 0
M  V30 1383 O 140.611 1.73904 -0.464481 0
M  V30 1384 H 136.986 0.608522 -0.441819 0
M  V30 1385 H 138.957 1.81252 -2.37045 0
M  V30 1386 C 137.706 3.22638 -1.29614 0
M  V30 1387 H 137.029 3.37023 -2.15071 0
M  V30 1388 H 138.469 4.02209 -1.3418 0
M  V30 1389 C 136.928 3.36899 -0.00673121 0
M  V30 1390 O 137.458 3.90186 0.954859 0
M  V30 1391 N 135.664 2.9053 0.0639327 0
M  V30 1392 H 135.211 2.47353 -0.719311 0
M  V30 1393 H 135.169 3.0045 0.926118 0
M  V30 1394 N 138.941 1.26152 0.944643 0
M  V30 1395 C 139.851 1.09176 2.07648 0
M  V30 1396 C 140.867 0.0261935 1.7398 0
M  V30 1397 O 142.043 0.229208 2.00091 0
M  V30 1398 C 139.108 0.722915 3.39079 0
M  V30 1399 C 138.169 1.86752 3.86552 0
M  V30 1400 C 137.402 1.51617 5.11711 0
M  V30 1401 O 137.625 0.416331 5.68879 0
M  V30 1402 O 136.559 2.34975 5.54139 0
M  V30 1403 H 140.385 2.0412 2.24875 0
M  V30 1404 H 137.97 1.05182 1.061 0
M  V30 1405 H 139.852 0.529787 4.18056 0
M  V30 1406 H 138.527 -0.197159 3.23099 0
M  V30 1407 H 137.434 2.11558 3.08535 0
M  V30 1408 H 138.767 2.76719 4.07047 0
M  V30 1409 N 140.419 -1.14872 1.07899 0
M  V30 1410 C 141.349 -2.2193 0.725887 0
M  V30 1411 C 142.33 -1.67622 -0.28927 0
M  V30 1412 O 143.515 -1.93533 -0.160787 0
M  V30 1413 C 140.645 -3.47061 0.128856 0
M  V30 1414 C 139.599 -4.14363 1.07178 0
M  V30 1415 C 138.925 -5.33636 0.337229 0
M  V30 1416 C 140.225 -4.63492 2.40775 0
M  V30 1417 H 141.919 -2.51724 1.62097 0
M  V30 1418 H 139.465 -1.20991 0.780838 0
M  V30 1419 H 141.418 -4.21199 -0.130147 0
M  V30 1420 H 140.142 -3.16617 -0.80134 0
M  V30 1421 H 138.801 -3.42173 1.3158 0
M  V30 1422 H 138.449 -4.99449 -0.596606 0
M  V30 1423 H 138.149 -5.79609 0.965788 0
M  V30 1424 H 139.673 -6.10539 0.0861567 0
M  V30 1425 H 141.087 -5.2913 2.20669 0
M  V30 1426 H 139.484 -5.20148 2.99276 0
M  V30 1427 H 140.554 -3.78834 3.02676 0
M  V30 1428 N 141.898 -0.863906 -1.31812 0
M  V30 1429 C 142.808 -0.318461 -2.32428 0
M  V30 1430 C 143.824 0.568496 -1.64451 0
M  V30 1431 O 145 0.46666 -1.95919 0
M  V30 1432 C 142.065 0.476355 -3.43412 0
M  V30 1433 C 141.126 -0.43784 -4.27061 0
M  V30 1434 C 140.359 0.319138 -5.32745 0
M  V30 1435 O 140.582 1.54799 -5.48993 0
M  V30 1436 O 139.516 -0.319861 -6.01049 0
M  V30 1437 H 143.342 -1.15229 -2.80991 0
M  V30 1438 H 140.927 -0.627103 -1.35602 0
M  V30 1439 H 142.809 0.927156 -4.11074 0
M  V30 1440 H 141.484 1.28683 -2.97022 0
M  V30 1441 H 140.391 -0.937013 -3.62175 0
M  V30 1442 H 141.724 -1.21375 -4.77 0
M  V30 1443 N 143.376 1.44774 -0.622745 0
M  V30 1444 C 144.792 1.56986 -0.287652 0
M  V30 1445 C 144.992 1.61167 1.20944 0
M  V30 1446 O 144.048 1.55015 1.99315 0
M  V30 1447 C 145.361 2.84551 -0.972188 0
M  V30 1448 C 146.909 2.9825 -0.949536 0
M  V30 1449 C 147.384 4.28605 -1.61437 0
M  V30 1450 N 148.875 4.35399 -1.58057 0
M  V30 1451 C 149.61 5.34964 -2.064 0
M  V30 1452 N 149.106 6.40981 -2.62897 0
M  V30 1453 N 150.899 5.26419 -1.97078 0
M  V30 1454 H 143.05 1.40304 -1.59463 0
M  V30 1455 H 145.313 0.671794 -0.668878 0
M  V30 1456 H 145.019 2.87417 -2.02693 0
M  V30 1457 H 144.893 3.73807 -0.504771 0
M  V30 1458 H 147.28 2.94941 0.0967067 0
M  V30 1459 H 147.361 2.10364 -1.45536 0
M  V30 1460 H 147.005 4.32672 -2.66002 0
M  V30 1461 H 146.935 5.15334 -1.08344 0
M  V30 1462 H 149.426 3.59397 -1.16801 0
M  V30 1463 H 149.739 7.13225 -2.97539 0
M  V30 1464 H 148.084 6.4169 -2.66943 0
M  V30 1465 H 151.275 4.42504 -1.52669 0
M  V30 1466 H 151.448 6.03861 -2.35066 0
M  V30 1467 N 144.854 0.36279 1.53368 0
M  V30 1468 C 146.103 -0.22888 2.00397 0
M  V30 1469 C 146.416 -1.50096 1.25421 0
M  V30 1470 O 147.622 -2.17106 1.63025 0
M  V30 1471 C 146.078 -0.458417 3.56969 0
M  V30 1472 C 145.686 0.798877 4.4082 0
M  V30 1473 C 147.43 -1.00789 4.12361 0
M  V30 1474 C 145.337 0.539078 5.88938 0
M  V30 1475 H 144.267 -0.089305 0.748693 0
M  V30 1476 H 146.918 0.481099 1.77081 0
M  V30 1477 H 145.3 -1.22959 3.76427 0
M  V30 1478 H 146.474 1.57262 4.33134 0
M  V30 1479 H 144.789 1.27137 3.96516 0
M  V30 1480 H 147.386 -1.21754 5.20653 0
M  V30 1481 H 147.729 -1.9692 3.66781 0
M  V30 1482 H 148.262 -0.296961 3.9669 0
M  V30 1483 H 145.001 1.47064 6.3879 0
M  V30 1484 H 144.521 -0.196222 5.99479 0
M  V30 1485 H 146.2 0.163542 6.46793 0
M  V30 1486 N 146.332 -1.57332 0.0918853 0
M  V30 1487 C 147.28 -2.15075 -0.885747 0
M  V30 1488 C 148.274 -1.09277 -1.29441 0
M  V30 1489 O 149.48 -1.27627 -1.26931 0
M  V30 1490 H 145.855 -0.687966 -0.303656 0
M  V30 1491 H 147.826 -2.96047 -0.373995 0
M  V30 1492 C 146.575 -2.74325 -2.13638 0
M  V30 1493 H 145.898 -3.55418 -1.8308 0
M  V30 1494 H 147.338 -3.183 -2.80109 0
M  V30 1495 C 145.797 -1.70062 -2.90827 0
M  V30 1496 O 146.327 -1.13763 -3.85254 0
M  V30 1497 N 144.533 -1.40628 -2.54307 0
M  V30 1498 H 144.08 -1.866 -1.7759 0
M  V30 1499 H 144.038 -0.711043 -3.06254 0
M  V30 1500 N 147.81 0.181792 -1.56548 0
M  V30 1501 C 149.05 0.906711 -1.83189 0
M  V30 1502 C 149.414 1.79882 -0.671312 0
M  V30 1503 O 150.615 2.56054 -0.81792 0
M  V30 1504 C 148.886 1.69023 -3.14906 0
M  V30 1505 S 150.445 2.46535 -3.62996 0
M  V30 1506 H 147.263 0.303877 -0.642791 0
M  V30 1507 H 149.865 0.169107 -1.94767 0
M  V30 1508 H 148.569 1.02571 -3.97376 0
M  V30 1509 H 148.1 2.46941 -3.06241 0
M  V30 1510 H 150.115 3.71014 -3.29489 0
M  V30 1511 N 149.288 1.51039 0.449983 0
M  V30 1512 C 150.537 1.62317 1.19733 0
M  V30 1513 C 150.85 0.339101 1.92638 0
M  V30 1514 O 152.056 0.331069 2.69474 0
M  V30 1515 C 150.512 2.86608 2.17678 0
M  V30 1516 C 150.12 4.21972 1.50479 0
M  V30 1517 C 151.864 3.07239 2.92924 0
M  V30 1518 C 149.771 5.37426 2.46834 0
M  V30 1519 H 148.701 0.604532 0.450619 0
M  V30 1520 H 151.352 1.77494 0.465625 0
M  V30 1521 H 149.734 2.65037 2.94231 0
M  V30 1522 H 150.908 4.53878 0.795716 0
M  V30 1523 H 149.223 4.07117 0.874344 0
M  V30 1524 H 151.82 3.90668 3.65079 0
M  V30 1525 H 152.163 2.19807 3.5354 0
M  V30 1526 H 152.696 3.29091 2.23481 0
M  V30 1527 H 149.435 6.27079 1.90926 0
M  V30 1528 H 148.955 5.09912 3.15832 0
M  V30 1529 H 150.634 5.68862 3.08228 0
M  V30 1530 N 150.766 -0.704594 1.40972 0
M  V30 1531 C 152.177 -1.28418 1.3552 0
M  V30 1532 C 152.528 -1.96171 0.0339434 0
M  V30 1533 O 151.653 -1.98231 -0.867944 0
M  V30 1534 C 152.248 -2.33528 2.45459 0
M  V30 1535 C 150.807 -2.87085 2.43433 0
M  V30 1536 C 149.954 -1.61007 2.2577 0
M  V30 1537 H 152.905 -0.499963 1.50619 0
M  V30 1538 H 152.926 -3.14619 2.13998 0
M  V30 1539 H 152.438 -1.84187 3.41609 0
M  V30 1540 H 150.539 -3.40626 1.51013 0
M  V30 1541 H 150.652 -3.3813 3.39419 0
M  V30 1542 H 149.016 -1.86482 1.73483 0
M  V30 1543 H 149.799 -1.13675 3.23933 0
M  V30 1544 N 152.244 -1.26651 -0.937939 0
M  V30 1545 C 153.521 -1.0313 -1.66204 0
M  V30 1546 C 153.901 0.437256 -2.06522 0
M  V30 1547 O 153.249 1.41831 -1.79154 0
M  V30 1548 C 153.459 -1.98314 -2.87181 0
M  V30 1549 C 154.807 -2.27107 -3.58758 0
M  V30 1550 O 155.831 -1.96205 -2.97291 0
M  V30 1551 O 154.69 -2.79736 -4.69479 0
M  V30 1552 H 151.784 -0.392384 -0.727986 0
M  V30 1553 H 154.33 -1.37874 -0.989382 0
M  V30 1554 H 153.102 -2.97399 -2.54302 0
M  V30 1555 H 152.725 -1.64068 -3.6217 0
M  V30 1556 N 153.722 1.14298 -1.08507 0
M  V30 1557 C 154.654 2.1907 -0.673859 0
M  V30 1558 C 155.667 1.60381 0.279577 0
M  V30 1559 O 156.856 1.78374 0.0670754 0
M  V30 1560 C 153.956 3.38888 0.0290979 0
M  V30 1561 C 153.129 4.27103 -0.943494 0
M  V30 1562 C 152.188 5.25477 -0.275676 0
M  V30 1563 O 151.214 5.61709 -0.920401 0
M  V30 1564 N 152.416 5.7227 0.974013 0
M  V30 1565 H 155.181 2.54965 -1.57521 0
M  V30 1566 H 152.742 1.29528 -0.971287 0
M  V30 1567 H 154.734 4.01761 0.48683 0
M  V30 1568 H 153.304 3.01309 0.832555 0
M  V30 1569 H 152.524 3.61149 -1.58004 0
M  V30 1570 H 153.812 4.82905 -1.60251 0
M  V30 1571 H 153.21 5.44965 1.51755 0
M  V30 1572 H 151.767 6.37127 1.37522 0
M  V30 1573 N 155.201 0.870884 1.31352 0
M  V30 1574 C 156.612 0.534714 1.78879 0
M  V30 1575 C 156.963 -0.948423 1.71754 0
M  V30 1576 O 156.088 -1.74055 1.28584 0
M  V30 1577 C 156.683 0.963839 3.24801 0
M  V30 1578 C 155.242 0.679311 3.70219 0
M  V30 1579 C 154.389 1.15465 2.52117 0
M  V30 1580 H 157.34 1.05651 1.18421 0
M  V30 1581 H 157.361 0.286892 3.79417 0
M  V30 1582 H 156.873 2.04332 3.29955 0
M  V30 1583 H 154.974 -0.388769 3.70566 0
M  V30 1584 H 155.087 1.25698 4.62317 0
M  V30 1585 H 153.451 0.574383 2.48139 0
M  V30 1586 H 154.234 2.24157 2.60016 0
M  V30 1587 N 156.679 -1.44442 0.630414 0
M  V30 1588 C 158.09 -1.85434 0.217063 0
M  V30 1589 C 158.441 -1.52748 -1.23136 0
M  V30 1590 O 157.566 -0.965205 -1.93682 0
M  V30 1591 C 158.161 -3.36581 0.387168 0
M  V30 1592 C 156.72 -3.76389 0.0283297 0
M  V30 1593 C 155.867 -2.68296 0.700889 0
M  V30 1594 H 158.818 -1.34919 0.83562 0
M  V30 1595 H 158.839 -3.78657 -0.374086 0
M  V30 1596 H 158.351 -3.60339 1.44144 0
M  V30 1597 H 156.452 -3.58246 -1.02423 0
M  V30 1598 H 156.565 -4.77095 0.437892 0
M  V30 1599 H 154.929 -2.54335 0.136267 0
M  V30 1600 H 155.712 -2.94887 1.75774 0
M  V30 1601 N 158.157 -0.370918 -1.53173 0
M  V30 1602 C 159.385 0.217704 -2.05751 0
M  V30 1603 C 159.8 1.42018 -1.24404 0
M  V30 1604 O 159.157 1.80245 -0.286033 0
M  V30 1605 C 159.208 0.605954 -3.56385 0
M  V30 1606 O 158.929 -0.548734 -4.3465 0
M  V30 1607 C 160.43 1.2524 -4.25241 0
M  V30 1608 H 157.65 0.0371659 -0.66997 0
M  V30 1609 H 160.194 -0.530832 -1.9749 0
M  V30 1610 H 158.349 1.3044 -3.6478 0
M  V30 1611 H 158.763 -0.23376 -5.23979 0
M  V30 1612 H 160.237 1.47458 -5.3194 0
M  V30 1613 H 160.714 2.2143 -3.79296 0
M  V30 1614 H 161.32 0.595233 -4.21114 0
M  V30 1615 N 159.635 1.57281 -0.100228 0
M  V30 1616 C 160.582 2.14305 0.856858 0
M  V30 1617 C 161.552 1.06296 1.27634 0
M  V30 1618 O 162.737 1.34109 1.35718 0
M  V30 1619 C 159.877 2.73184 2.10866 0
M  V30 1620 C 158.99 3.95442 1.73925 0
M  V30 1621 C 158.125 4.42468 2.93931 0
M  V30 1622 C 157.164 5.57303 2.5314 0
M  V30 1623 N 156.301 5.99158 3.65997 0
M  V30 1624 H 161.141 2.95772 0.363726 0
M  V30 1625 H 158.678 1.46139 0.167858 0
M  V30 1626 H 160.636 3.05442 2.84185 0
M  V30 1627 H 159.266 1.94437 2.57671 0
M  V30 1628 H 158.318 3.69464 0.905554 0
M  V30 1629 H 159.63 4.78769 1.39935 0
M  V30 1630 H 158.784 4.76537 3.75496 0
M  V30 1631 H 157.523 3.58052 3.31134 0
M  V30 1632 H 156.528 5.22857 1.70003 0
M  V30 1633 H 157.753 6.43471 2.17075 0
M  V30 1634 H 155.699 5.17687 4.02909 0
M  V30 1635 H 155.616 6.77295 3.35869 0
M  V30 1636 H 156.884 6.3786 4.48057 0
M  V30 1637 N 161.113 -0.173488 1.56642 0
M  V30 1638 C 162.076 -1.19859 1.95362 0
M  V30 1639 C 163.076 -1.37296 0.83704 0
M  V30 1640 O 164.266 -1.34739 1.10413 0
M  V30 1641 C 161.398 -2.56405 2.24654 0
M  V30 1642 H 162.591 -0.867062 2.87092 0
M  V30 1643 H 160.144 -0.415853 1.50666 0
M  V30 1644 H 160.879 -2.94576 1.35631 0
M  V30 1645 H 160.664 -2.45115 3.06041 0
M  V30 1646 H 162.154 -3.30287 2.5554 0
M  V30 1647 N 162.591 -1.51276 -0.441967 0
M  V30 1648 C 163.819 -1.67516 -1.21434 0
M  V30 1649 C 164.234 -0.37055 -1.85128 0
M  V30 1650 O 163.591 0.650498 -1.70513 0
M  V30 1651 C 163.642 -2.78748 -2.30177 0
M  V30 1652 O 163.363 -4.04154 -1.69089 0
M  V30 1653 C 164.864 -3.06217 -3.20541 0
M  V30 1654 H 162.084 -0.562276 -0.366178 0
M  V30 1655 H 164.628 -1.97666 -0.524244 0
M  V30 1656 H 162.783 -2.5121 -2.94911 0
M  V30 1657 H 163.197 -4.65894 -2.40922 0
M  V30 1658 H 164.671 -3.8764 -3.92987 0
M  V30 1659 H 165.148 -2.18439 -3.81026 0
M  V30 1660 H 165.754 -3.35397 -2.61513 0
M  V30 1661 N 164.069 0.697108 -1.41344 0
M  V30 1662 C 165.309 1.46939 -1.42085 0
M  V30 1663 C 165.673 1.9198 -0.0280397 0
M  V30 1664 O 166.874 2.6865 0.0897504 0
M  V30 1665 C 165.145 2.64985 -2.39828 0
M  V30 1666 S 166.704 3.54147 -2.59085 0
M  V30 1667 H 163.522 0.502146 -0.503359 0
M  V30 1668 H 166.124 0.813546 -1.77769 0
M  V30 1669 H 164.828 2.30098 -3.39828 0
M  V30 1670 H 164.359 3.35464 -2.05493 0
M  V30 1671 H 166.374 4.60137 -1.85711 0
M  V30 1672 N 165.547 1.27147 0.931209 0
M  V30 1673 C 166.824 1.0401 1.65654 0
M  V30 1674 C 167.204 -0.426297 2.06751 0
M  V30 1675 O 166.552 -1.40879 1.79904 0
M  V30 1676 C 166.762 1.99834 2.86125 0
M  V30 1677 C 168.11 2.29007 3.57549 0
M  V30 1678 O 169.134 1.97779 2.96246 0
M  V30 1679 O 167.993 2.82222 4.67989 0
M  V30 1680 H 165.087 0.396239 0.725895 0
M  V30 1681 H 167.633 1.38397 0.982056 0
M  V30 1682 H 166.405 2.98744 2.52721 0
M  V30 1683 H 166.028 1.65987 3.61295 0
M  V30 1684 N 167.025 -1.13721 1.09112 0
M  V30 1685 C 167.957 -2.1871 0.685467 0
M  V30 1686 C 168.97 -1.60527 -0.271068 0
M  V30 1687 O 170.159 -1.78407 -0.0576148 0
M  V30 1688 C 167.259 -3.38898 -0.0111255 0
M  V30 1689 C 166.432 -4.26597 0.966131 0
M  V30 1690 C 165.491 -5.25324 0.303539 0
M  V30 1691 O 164.517 -5.61213 0.950177 0
M  V30 1692 N 165.719 -5.72779 -0.943651 0
M  V30 1693 H 168.484 -2.54126 1.58871 0
M  V30 1694 H 166.045 -1.29012 0.978143 0
M  V30 1695 H 168.037 -4.02014 -0.465517 0
M  V30 1696 H 166.607 -3.01747 -0.816565 0
M  V30 1697 H 165.827 -3.60306 1.59917 0
M  V30 1698 H 167.115 -4.82048 1.6281 0
M  V30 1699 H 166.513 -5.45762 -1.48862 0
M  V30 1700 H 165.07 -6.37847 -1.34142 0
M  V30 1701 N 168.503 -0.877838 -1.30888 0
M  V30 1702 C 169.919 -0.570844 -1.49042 0
M  V30 1703 C 170.119 0.893159 -1.80624 0
M  V30 1704 O 169.175 1.67485 -1.88958 0
M  V30 1705 C 170.488 -1.47784 -2.61878 0
M  V30 1706 C 172.036 -1.48071 -2.75761 0
M  V30 1707 C 172.511 -2.37347 -3.91702 0
M  V30 1708 N 174.002 -2.35271 -3.99001 0
M  V30 1709 C 174.737 -3.01063 -4.88004 0
M  V30 1710 N 174.233 -3.76055 -5.81854 0
M  V30 1711 N 176.026 -2.90332 -4.81315 0
M  V30 1712 H 168.177 -1.82502 -1.0866 0
M  V30 1713 H 170.44 -0.780797 -0.537644 0
M  V30 1714 H 170.146 -2.51993 -2.45341 0
M  V30 1715 H 170.02 -1.18215 -3.58197 0
M  V30 1716 H 172.407 -0.446166 -2.91708 0
M  V30 1717 H 172.488 -1.81668 -1.80085 0
M  V30 1718 H 172.132 -3.40883 -3.76512 0
M  V30 1719 H 172.062 -2.01071 -4.86701 0
M  V30 1720 H 174.553 -1.80768 -3.3186 0
M  V30 1721 H 174.866 -4.23366 -6.46514 0
M  V30 1722 H 173.211 -3.80163 -5.81808 0
M  V30 1723 H 176.402 -2.31278 -4.06974 0
M  V30 1724 H 176.575 -3.41885 -5.50471 0
M  V30 1725 N 169.982 1.44106 -0.638065 0
M  V30 1726 C 171.23 2.01579 -0.145043 0
M  V30 1727 C 171.551 1.50496 1.24 0
M  V30 1728 O 170.821 0.711374 1.82527 0
M  V30 1729 H 169.401 0.745282 -0.05063 0
M  V30 1730 H 172.063 1.76516 -0.826327 0
M  V30 1731 H 171.159 3.11877 -0.118039 0
M  V30 1732 N 171.46 0.379036 1.52974 0
M  V30 1733 C 172.7 -0.206325 2.03356 0
M  V30 1734 C 173.064 -1.44892 1.25977 0
M  V30 1735 O 174.265 -2.11078 1.66432 0
M  V30 1736 C 172.536 -0.477887 3.54191 0
M  V30 1737 S 174.095 -1.035 4.26419 0
M  V30 1738 H 170.913 -0.0590259 0.708546 0
M  V30 1739 H 173.515 0.525013 1.88319 0
M  V30 1740 H 172.219 0.433745 4.08101 0
M  V30 1741 H 171.75 -1.23793 3.73415 0
M  V30 1742 H 173.765 -2.31821 4.38718 0
M  V30 1743 N 172.938 -1.57226 0.108567 0
M  V30 1744 C 174.178 -1.96717 -0.555155 0
M  V30 1745 C 174.542 -0.990003 -1.64508 0
M  V30 1746 O 175.743 -1.2739 -2.36696 0
M  V30 1747 C 174.014 -3.40575 -1.08367 0
M  V30 1748 S 175.573 -4.02072 -1.75737 0
M  V30 1749 H 172.391 -0.687638 -0.180762 0
M  V30 1750 H 174.993 -1.94563 0.191172 0
M  V30 1751 H 173.697 -4.0945 -0.279092 0
M  V30 1752 H 173.228 -3.46356 -1.86551 0
M  V30 1753 H 175.243 -3.91977 -3.04251 0
M  V30 1754 N 174.416 0.165178 -1.56732 0
M  V30 1755 C 175.662 0.877389 -1.83503 0
M  V30 1756 C 176.017 1.79602 -0.689996 0
M  V30 1757 O 175.31 1.89023 0.313205 0
M  V30 1758 C 175.504 1.70405 -3.1416 0
M  V30 1759 C 175.333 0.866961 -4.41264 0
M  V30 1760 C 174.103 0.539646 -5.0241 0
M  V30 1761 C 176.301 0.205671 -5.13889 0
M  V30 1762 N 174.283 -0.312946 -6.13102 0
M  V30 1763 C 175.654 -0.507823 -6.17917 0
M  V30 1764 C 177.709 0.124468 -4.97744 0
M  V30 1765 C 176.412 -1.29483 -7.0755 0
M  V30 1766 C 178.438 -0.649222 -5.87826 0
M  V30 1767 C 177.8 -1.35106 -6.91322 0
M  V30 1768 H 173.899 0.299477 -0.722383 0
M  V30 1769 H 176.483 0.143949 -1.94167 0
M  V30 1770 H 174.654 2.40887 -3.04677 0
M  V30 1771 H 176.386 2.35804 -3.28905 0
M  V30 1772 H 173.141 0.871176 -4.65519 0
M  V30 1773 H 173.565 -0.729731 -6.73056 0
M  V30 1774 H 178.207 0.652724 -4.17731 0
M  V30 1775 H 175.925 -1.83441 -7.87004 0
M  V30 1776 H 179.511 -0.713804 -5.77405 0
M  V30 1777 H 178.391 -1.94013 -7.59821 0
M  V30 1778 N 175.894 1.51508 0.433938 0
M  V30 1779 C 176.842 1.73646 1.54757 0
M  V30 1780 C 177.836 0.602854 1.5831 0
M  V30 1781 O 179.042 0.784318 1.62014 0
M  V30 1782 H 175.417 0.548718 0.51421 0
M  V30 1783 H 177.388 2.66991 1.33261 0
M  V30 1784 C 176.137 1.88172 2.92381 0
M  V30 1785 H 175.46 2.74808 2.90381 0
M  V30 1786 H 176.9 2.07672 3.6966 0
M  V30 1787 C 175.359 0.64239 3.30719 0
M  V30 1788 O 175.889 -0.201362 4.01195 0
M  V30 1789 N 174.095 0.485489 2.86516 0
M  V30 1790 H 173.642 1.17318 2.29334 0
M  V30 1791 H 173.6 -0.342482 3.12529 0
M  V30 1792 N 177.372 -0.689602 1.41712 0
M  V30 1793 C 178.783 -1.26973 1.36875 0
M  V30 1794 C 179.134 -1.96124 0.054748 0
M  V30 1795 O 178.259 -1.99141 -0.84687 0
M  V30 1796 C 178.854 -2.30912 2.47922 0
M  V30 1797 C 177.413 -2.84486 2.46464 0
M  V30 1798 C 176.56 -1.58603 2.27465 0
M  V30 1799 H 179.511 -0.48396 1.51141 0
M  V30 1800 H 179.532 -3.12331 2.17323 0
M  V30 1801 H 179.044 -1.80554 3.43543 0
M  V30 1802 H 177.145 -3.39005 1.54617 0
M  V30 1803 H 177.258 -3.34511 3.42986 0
M  V30 1804 H 175.622 -1.84632 1.75451 0
M  V30 1805 H 176.405 -1.10233 3.25121 0
M  V30 1806 N 178.85 -1.27639 -0.924453 0
M  V30 1807 C 179.782 -1.06442 -2.02985 0
M  V30 1808 C 180.795 -0.0194771 -1.62788 0
M  V30 1809 O 181.984 -0.261388 -1.76576 0
M  V30 1810 C 179.084 -0.59327 -3.33667 0
M  V30 1811 C 178.257 -1.71123 -4.02537 0
M  V30 1812 C 177.316 -1.23527 -5.11495 0
M  V30 1813 O 176.342 -1.93553 -5.35281 0
M  V30 1814 N 177.544 -0.0926678 -5.80426 0
M  V30 1815 H 180.309 -2.01633 -2.2173 0
M  V30 1816 H 177.87 -1.19248 -1.09505 0
M  V30 1817 H 179.862 -0.258686 -4.03872 0
M  V30 1818 H 178.432 0.265502 -3.1147 0
M  V30 1819 H 177.652 -2.21593 -3.26022 0
M  V30 1820 H 178.94 -2.46145 -4.45298 0
M  V30 1821 H 178.338 0.491741 -5.63559 0
M  V30 1822 H 176.895 0.182714 -6.51544 0
M  V30 1823 N 180.328 1.1314 -1.09713 0
M  V30 1824 C 181.576 1.84119 -0.833338 0
M  V30 1825 C 181.897 1.84097 0.642904 0
M  V30 1826 O 181.167 1.29881 1.46655 0
M  V30 1827 H 179.747 0.681766 -0.305293 0
M  V30 1828 H 182.409 1.37038 -1.38588 0
M  V30 1829 H 181.505 2.88543 -1.18951 0
M  V30 1830 N 181.806 0.884767 1.30421 0
M  V30 1831 C 182.769 0.356277 2.26414 0
M  V30 1832 C 183.769 -0.501124 1.52792 0
M  V30 1833 O 184.959 -0.30831 1.7145 0
M  V30 1834 C 182.091 -0.492316 3.37326 0
M  V30 1835 H 183.284 1.20389 2.74675 0
M  V30 1836 H 180.837 0.661607 1.41607 0
M  V30 1837 H 181.572 -1.36052 2.94381 0
M  V30 1838 H 181.357 0.121832 3.91911 0
M  V30 1839 H 182.847 -0.853871 4.08777 0
M  V30 1840 N 183.284 -1.43765 0.645699 0
M  V30 1841 C 184.53 -2.02197 0.156271 0
M  V30 1842 C 184.863 -1.50776 -1.22393 0
M  V30 1843 O 184.138 -0.697771 -1.81553 0
M  V30 1844 C 184.421 -3.59749 0.158872 0
M  V30 1845 C 184.274 -4.21419 1.57245 0
M  V30 1846 C 185.593 -4.37149 -0.50879 0
M  V30 1847 H 182.712 -0.734694 0.0582602 0
M  V30 1848 H 185.354 -1.71157 0.824951 0
M  V30 1849 H 183.504 -3.86325 -0.410525 0
M  V30 1850 H 185.176 -4.059 2.19186 0
M  V30 1851 H 183.419 -3.78356 2.122 0
M  V30 1852 H 184.09 -5.30482 1.52619 0
M  V30 1853 H 186.566 -4.16093 -0.024412 0
M  V30 1854 H 185.442 -5.4683 -0.476213 0
M  V30 1855 H 185.703 -4.12839 -1.58165 0
M  V30 1856 N 184.763 -0.387143 -1.52771 0
M  V30 1857 C 185.988 0.198407 -2.06449 0
M  V30 1858 C 186.413 1.39918 -1.25716 0
M  V30 1859 O 185.771 1.79099 -0.281657 0
M  V30 1860 C 185.819 0.548893 -3.56398 0
M  V30 1861 O 184.923 1.64315 -3.78252 0
M  V30 1862 H 184.264 0.0237731 -0.663574 0
M  V30 1863 H 186.794 -0.553989 -1.96957 0
M  V30 1864 H 186.804 0.813812 -3.99801 0
M  V30 1865 H 185.479 -0.329005 -4.14597 0
M  V30 1866 H 184.056 1.37211 -3.46738 0
M  V30 1867 N 186.241 1.57166 -0.116904 0
M  V30 1868 C 187.487 1.95412 0.542405 0
M  V30 1869 C 187.82 1.00019 1.66463 0
M  V30 1870 O 187.095 0.0370346 1.94465 0
M  V30 1871 C 187.378 3.43615 1.07708 0
M  V30 1872 C 187.231 4.49781 -0.0415868 0
M  V30 1873 C 188.55 3.93616 1.96861 0
M  V30 1874 H 185.669 0.710543 0.195696 0
M  V30 1875 H 188.311 1.89027 -0.192038 0
M  V30 1876 H 186.461 3.49187 1.70296 0
M  V30 1877 H 188.133 4.56308 -0.676793 0
M  V30 1878 H 186.376 4.28033 -0.705019 0
M  V30 1879 H 187.047 5.50733 0.373717 0
M  V30 1880 H 189.523 3.90335 1.44146 0
M  V30 1881 H 188.399 4.97838 2.3119 0
M  V30 1882 H 188.66 3.34188 2.89432 0
M  V30 1883 N 187.719 -0.156864 1.56817 0
M  V30 1884 C 189.13 -0.717916 1.72345 0
M  V30 1885 C 189.481 -1.82124 0.729747 0
M  V30 1886 O 188.606 -2.16141 -0.105781 0
M  V30 1887 C 189.201 -1.30904 3.12489 0
M  V30 1888 C 187.76 -1.81676 3.29653 0
M  V30 1889 C 186.907 -0.701349 2.68284 0
M  V30 1890 H 189.858 0.0686989 1.58551 0
M  V30 1891 H 189.879 -2.17882 3.11942 0
M  V30 1892 H 189.391 -0.505796 3.8479 0
M  V30 1893 H 187.492 -2.64598 2.62333 0
M  V30 1894 H 187.605 -1.95226 4.3752 0
M  V30 1895 H 185.969 -1.12548 2.28484 0
M  V30 1896 H 186.752 0.0902846 3.43181 0
M  V30 1897 N 189.197 -1.51736 -0.425897 0
M  V30 1898 C 190.443 -1.66174 -1.17294 0
M  V30 1899 C 190.798 -0.37876 -1.88635 0
M  V30 1900 O 190.091 0.626021 -1.81084 0
M  V30 1901 C 190.285 -2.81103 -2.20717 0
M  V30 1902 C 190.114 -4.20453 -1.59529 0
M  V30 1903 C 188.884 -4.86225 -1.37525 0
M  V30 1904 C 191.082 -5.03146 -1.06528 0
M  V30 1905 N 189.064 -6.09657 -0.720537 0
M  V30 1906 C 190.435 -6.17674 -0.536506 0
M  V30 1907 C 192.49 -4.88594 -0.958127 0
M  V30 1908 C 191.193 -7.19245 0.0888917 0
M  V30 1909 C 193.219 -5.90383 -0.346608 0
M  V30 1910 C 192.581 -7.04191 0.171564 0
M  V30 1911 H 188.68 -0.661871 -0.416475 0
M  V30 1912 H 191.264 -1.88997 -0.467801 0
M  V30 1913 H 189.435 -2.59924 -2.88607 0
M  V30 1914 H 191.167 -2.84662 -2.87663 0
M  V30 1915 H 187.922 -4.44293 -1.64015 0
M  V30 1916 H 188.346 -6.75756 -0.410292 0
M  V30 1917 H 192.988 -4.0085 -1.34459 0
M  V30 1918 H 190.706 -8.06628 0.48746 0
M  V30 1919 H 194.292 -5.81194 -0.265451 0
M  V30 1920 H 193.172 -7.81606 0.637309 0
M  V30 1921 N 190.675 0.682077 -1.42076 0
M  V30 1922 C 191.915 1.45424 -1.43636 0
M  V30 1923 C 192.279 1.91939 -0.0484001 0
M  V30 1924 O 193.48 2.6873 0.0612514 0
M  V30 1925 C 191.751 2.62427 -2.42625 0
M  V30 1926 S 193.31 3.51379 -2.62827 0
M  V30 1927 H 190.128 0.496779 -0.508657 0
M  V30 1928 H 192.73 0.794645 -1.78621 0
M  V30 1929 H 191.434 2.26481 -3.42249 0
M  V30 1930 H 190.965 3.33266 -2.09039 0
M  V30 1931 H 192.98 4.58141 -1.9058 0
M  V30 1932 N 192.153 1.28127 0.917671 0
M  V30 1933 C 193.383 1.17722 1.6978 0
M  V30 1934 C 193.791 -0.267261 1.87303 0
M  V30 1935 O 193.134 -1.19286 1.39702 0
M  V30 1936 C 193.196 1.79958 3.11216 0
M  V30 1937 C 192.86 3.29187 3.16993 0
M  V30 1938 C 193.857 4.25679 2.98485 0
M  V30 1939 C 191.542 3.70075 3.39632 0
M  V30 1940 C 193.536 5.61035 3.02521 0
M  V30 1941 C 191.223 5.05557 3.433 0
M  V30 1942 C 192.221 6.00847 3.24764 0
M  V30 1943 O 191.909 7.33859 3.28187 0
M  V30 1944 H 191.641 0.409788 0.537634 0
M  V30 1945 H 194.195 1.69694 1.15728 0
M  V30 1946 H 192.425 1.22475 3.66793 0
M  V30 1947 H 194.114 1.64125 3.71238 0
M  V30 1948 H 194.88 3.95426 2.80826 0
M  V30 1949 H 190.759 2.96373 3.53106 0
M  V30 1950 H 194.303 6.35388 2.87971 0
M  V30 1951 H 190.2 5.35462 3.60486 0
M  V30 1952 H 190.968 7.42436 3.44575 0
M  V30 1953 N 193.631 -1.12557 1.10312 0
M  V30 1954 C 194.861 -1.87592 0.865617 0
M  V30 1955 C 195.269 -1.79851 -0.587389 0
M  V30 1956 O 194.612 -1.16949 -1.41664 0
M  V30 1957 C 194.674 -3.37665 1.23381 0
M  V30 1958 C 194.338 -3.69181 2.69359 0
M  V30 1959 C 195.335 -3.67652 3.67597 0
M  V30 1960 C 193.02 -3.98555 3.05711 0
M  V30 1961 C 195.014 -3.95053 5.00212 0
M  V30 1962 C 192.701 -4.25616 4.38514 0
M  V30 1963 C 193.699 -4.23851 5.35574 0
M  V30 1964 O 193.387 -4.50242 6.65986 0
M  V30 1965 H 193.119 -0.600442 0.310557 0
M  V30 1966 H 195.673 -1.4335 1.47105 0
M  V30 1967 H 193.903 -3.82454 0.571467 0
M  V30 1968 H 195.592 -3.94041 0.973994 0
M  V30 1969 H 196.358 -3.45024 3.40857 0
M  V30 1970 H 192.237 -3.99071 2.30789 0
M  V30 1971 H 195.781 -3.93591 5.75962 0
M  V30 1972 H 191.678 -4.47718 4.64994 0
M  V30 1973 H 192.446 -4.67867 6.71597 0
M  V30 1974 N 195.109 -0.891671 -1.2995 0
M  V30 1975 C 196.334 -0.527932 -2.00568 0
M  V30 1976 C 196.759 0.877969 -1.66353 0
M  V30 1977 O 196.117 1.58301 -0.883762 0
M  V30 1978 C 196.165 -0.717745 -3.53385 0
M  V30 1979 O 195.269 0.233376 -4.11739 0
M  V30 1980 H 194.61 -0.20722 -0.630837 0
M  V30 1981 H 197.14 -1.20105 -1.65638 0
M  V30 1982 H 197.15 -0.619307 -4.03272 0
M  V30 1983 H 195.825 -1.74276 -3.77625 0
M  V30 1984 H 194.402 0.0880706 -3.72796 0
M  V30 1985 N 196.587 1.43421 -0.653314 0
M  V30 1986 C 197.534 2.30768 0.0382271 0
M  V30 1987 C 198.504 1.44755 0.814576 0
M  V30 1988 O 199.689 1.73624 0.791162 0
M  V30 1989 C 196.829 3.30336 0.998599 0
M  V30 1990 C 195.942 4.31448 0.218342 0
M  V30 1991 C 195.077 5.18098 1.17252 0
M  V30 1992 C 194.116 6.10902 0.382702 0
M  V30 1993 N 193.253 6.90176 1.28848 0
M  V30 1994 H 198.093 2.89357 -0.712511 0
M  V30 1995 H 195.63 1.42548 -0.363128 0
M  V30 1996 H 197.588 3.86572 1.56901 0
M  V30 1997 H 196.218 2.73397 1.71621 0
M  V30 1998 H 195.27 3.77506 -0.46836 0
M  V30 1999 H 196.582 4.97227 -0.395812 0
M  V30 2000 H 195.736 5.7896 1.81356 0
M  V30 2001 H 194.475 4.52444 1.82058 0
M  V30 2002 H 193.48 5.49128 -0.27169 0
M  V30 2003 H 194.705 6.78598 -0.260957 0
M  V30 2004 H 192.651 6.27171 1.92334 0
M  V30 2005 H 192.568 7.52478 0.728887 0
M  V30 2006 H 193.836 7.55543 1.91766 0
M  V30 2007 N 198.065 0.39524 1.52563 0
M  V30 2008 C 199.013 -0.451859 2.28169 0
M  V30 2009 C 200.007 -1.05792 1.32304 0
M  V30 2010 O 201.213 -0.997718 1.49818 0
M  V30 2011 H 197.588 -0.164481 0.733792 0
M  V30 2012 H 199.559 0.207199 2.9768 0
M  V30 2013 C 198.308 -1.56385 3.10546 0
M  V30 2014 H 197.631 -1.10682 3.84174 0
M  V30 2015 H 199.071 -2.13067 3.66577 0
M  V30 2016 C 197.53 -2.52328 2.23231 0
M  V30 2017 O 198.06 -3.5588 1.86312 0
M  V30 2018 N 196.266 -2.22209 1.87274 0
M  V30 2019 H 195.813 -1.38033 2.17496 0
M  V30 2020 H 195.771 -2.86652 1.29143 0
M  V30 2021 N 199.544 -1.57102 0.125237 0
M  V30 2022 C 200.494 -2.12202 -0.833936 0
M  V30 2023 C 201.478 -1.04433 -1.22403 0
M  V30 2024 O 202.67 -1.30655 -1.19408 0
M  V30 2025 C 199.799 -2.72994 -2.08157 0
M  V30 2026 C 198.885 -3.87852 -1.71556 0
M  V30 2027 N 199.276 -4.9464 -1.05662 0
M  V30 2028 C 197.574 -3.98153 -2.00973 0
M  V30 2029 C 198.275 -5.74953 -0.883376 0
M  V30 2030 N 197.251 -5.24985 -1.41036 0
M  V30 2031 H 201.053 -2.92141 -0.321035 0
M  V30 2032 H 198.567 -1.62217 -0.0770315 0
M  V30 2033 H 200.564 -3.10816 -2.77847 0
M  V30 2034 H 199.224 -1.9452 -2.59985 0
M  V30 2035 H 200.235 -5.12872 -0.719878 0
M  V30 2036 H 196.912 -3.30728 -2.54804 0
M  V30 2037 H 198.302 -6.70904 -0.365675 0
M  V30 2038 N 201.022 0.148545 -1.56898 0
M  V30 2039 C 202.247 0.880385 -1.87787 0
M  V30 2040 C 202.672 1.74018 -0.714093 0
M  V30 2041 O 202.03 1.78153 0.336343 0
M  V30 2042 C 202.078 1.71422 -3.17249 0
M  V30 2043 O 201.182 2.8183 -3.01074 0
M  V30 2044 H 200.523 0.245301 -0.617028 0
M  V30 2045 H 203.053 0.139826 -2.04122 0
M  V30 2046 H 203.063 2.10954 -3.49231 0
M  V30 2047 H 201.738 1.08284 -4.01556 0
M  V30 2048 H 200.315 2.45715 -2.80497 0
M  V30 2049 N 202.5 1.5196 0.417844 0
M  V30 2050 C 203.73 1.69181 1.18581 0
M  V30 2051 C 204.138 0.397104 1.84986 0
M  V30 2052 O 203.481 -0.636011 1.72339 0
M  V30 2053 C 203.543 2.76497 2.29759 0
M  V30 2054 C 203.207 4.18514 1.83563 0
M  V30 2055 C 204.204 5.02648 1.32821 0
M  V30 2056 C 201.889 4.64708 1.90661 0
M  V30 2057 C 203.883 6.31044 0.897894 0
M  V30 2058 C 201.57 5.93096 1.47241 0
M  V30 2059 C 202.568 6.76093 0.968891 0
M  V30 2060 O 202.256 8.02078 0.540924 0
M  V30 2061 H 201.988 0.570457 0.362705 0
M  V30 2062 H 204.542 1.99249 0.498885 0
M  V30 2063 H 202.772 2.41786 3.01789 0
M  V30 2064 H 204.461 2.82403 2.91553 0
M  V30 2065 H 205.227 4.68154 1.26716 0
M  V30 2066 H 201.106 4.00216 2.28797 0
M  V30 2067 H 204.65 6.95776 0.504192 0
M  V30 2068 H 200.547 6.271 1.53022 0
M  V30 2069 H 201.315 8.15794 0.66502 0
M  V30 2070 N 203.978 -0.674533 1.42435 0
M  V30 2071 C 204.928 -1.7807 1.4239 0
M  V30 2072 C 205.912 -1.58169 0.295202 0
M  V30 2073 O 207.104 -1.68643 0.537449 0
M  V30 2074 C 204.233 -3.16532 1.32901 0
M  V30 2075 C 203.319 -3.42055 2.50717 0
M  V30 2076 N 203.71 -3.38162 3.76139 0
M  V30 2077 C 202.008 -3.72692 2.44983 0
M  V30 2078 C 202.709 -3.63177 4.54398 0
M  V30 2079 N 201.685 -3.83954 3.84812 0
M  V30 2080 H 205.487 -1.73454 2.37257 0
M  V30 2081 H 203.001 -0.875381 1.36788 0
M  V30 2082 H 204.998 -3.958 1.30951 0
M  V30 2083 H 203.658 -3.22345 0.390363 0
M  V30 2084 H 204.669 -3.18057 4.0873 0
M  V30 2085 H 201.346 -3.85749 1.59699 0
M  V30 2086 H 202.736 -3.66125 5.63384 0
M  V30 2087 N 205.456 -1.28612 -0.910864 0
M  V30 2088 C 206.702 -1.16106 -1.66274 0
M  V30 2089 C 207.035 0.289113 -1.92036 0
M  V30 2090 O 206.31 1.21 -1.52281 0
M  V30 2091 C 206.593 -1.96309 -3.01885 0
M  V30 2092 C 206.446 -3.49405 -2.8326 0
M  V30 2093 C 207.765 -1.78076 -4.02463 0
M  V30 2094 H 204.884 -0.423152 -0.603417 0
M  V30 2095 H 207.526 -1.57961 -1.05586 0
M  V30 2096 H 205.676 -1.60742 -3.53687 0
M  V30 2097 H 207.348 -3.94894 -2.38446 0
M  V30 2098 H 205.591 -3.74893 -2.18261 0
M  V30 2099 H 206.262 -4.00784 -3.79574 0
M  V30 2100 H 208.738 -2.0912 -3.59733 0
M  V30 2101 H 207.614 -2.36561 -4.95308 0
M  V30 2102 H 207.875 -0.733008 -4.35981 0
M  V30 2103 N 206.934 1.1197 -1.10907 0
M  V30 2104 C 207.844 2.21433 -0.774896 0
M  V30 2105 C 208.86 1.72478 0.229657 0
M  V30 2106 O 210.036 2.01288 0.0672008 0
M  V30 2107 C 207.101 3.4602 -0.216986 0
M  V30 2108 C 206.162 4.09791 -1.27944 0
M  V30 2109 C 205.395 5.28431 -0.748055 0
M  V30 2110 O 205.618 5.68823 0.423833 0
M  V30 2111 O 204.552 5.82644 -1.51027 0
M  V30 2112 H 208.378 2.5242 -1.68873 0
M  V30 2113 H 205.963 1.20399 -0.884555 0
M  V30 2114 H 207.845 4.21304 0.090059 0
M  V30 2115 H 206.52 3.16698 0.669633 0
M  V30 2116 H 205.427 3.36265 -1.63941 0
M  V30 2117 H 206.76 4.4328 -2.13925 0
M  V30 2118 N 208.412 0.89855 1.29475 0
M  V30 2119 C 209.66 0.522847 1.9522 0
M  V30 2120 C 209.981 -0.93371 1.71192 0
M  V30 2121 O 209.251 -1.65823 1.04305 0
M  V30 2122 H 207.831 0.190366 0.722336 0
M  V30 2123 H 210.493 1.14459 1.5775 0
M  V30 2124 H 209.589 0.704476 3.04045 0
M  V30 2125 N 209.89 -1.43072 0.660911 0
M  V30 2126 C 210.838 -2.32569 -0.0378199 0
M  V30 2127 C 211.832 -1.49046 -0.805092 0
M  V30 2128 O 213.038 -1.65206 -0.714624 0
M  V30 2129 H 209.413 -0.75136 -0.031019 0
M  V30 2130 H 211.384 -2.89216 0.734609 0
M  V30 2131 C 210.133 -3.33453 -0.985124 0
M  V30 2132 H 209.456 -3.97752 -0.404147 0
M  V30 2133 H 210.896 -3.98691 -1.44297 0
M  V30 2134 C 209.355 -2.64642 -2.08486 0
M  V30 2135 O 209.885 -2.46776 -3.16961 0
M  V30 2136 N 208.091 -2.23891 -1.8526 0
M  V30 2137 H 207.638 -2.38621 -0.970449 0
M  V30 2138 H 207.596 -1.78181 -2.59034 0
M  V30 2139 N 211.368 -0.403325 -1.52352 0
M  V30 2140 C 212.298 0.416205 -2.29761 0
M  V30 2141 C 213.279 1.05123 -1.33728 0
M  V30 2142 O 214.464 1.06134 -1.62632 0
M  V30 2143 C 211.594 1.53624 -3.11475 0
M  V30 2144 C 210.548 1.02653 -4.15507 0
M  V30 2145 C 209.874 2.23971 -4.85532 0
M  V30 2146 C 211.174 0.08463 -5.22231 0
M  V30 2147 H 212.868 -0.229701 -2.98518 0
M  V30 2148 H 210.414 -0.111913 -1.43564 0
M  V30 2149 H 212.367 2.1165 -3.64393 0
M  V30 2150 H 211.091 2.20994 -2.40477 0
M  V30 2151 H 209.75 0.46871 -3.63591 0
M  V30 2152 H 209.398 2.89883 -4.11068 0
M  V30 2153 H 209.098 1.90521 -5.55856 0
M  V30 2154 H 210.622 2.82614 -5.41259 0
M  V30 2155 H 212.036 0.573509 -5.70424 0
M  V30 2156 H 210.433 -0.160783 -5.99885 0
M  V30 2157 H 211.503 -0.86237 -4.7717 0
M  V30 2158 N 212.846 1.57033 -0.133567 0
M  V30 2159 C 214.092 1.95976 0.521649 0
M  V30 2160 C 214.425 1.01779 1.65393 0
M  V30 2161 O 213.7 0.0576581 1.94415 0
M  V30 2162 C 213.983 3.44738 1.04057 0
M  V30 2163 C 213.836 4.49711 -0.0892897 0
M  V30 2164 C 215.155 3.95682 1.92675 0
M  V30 2165 H 212.274 0.712579 0.188149 0
M  V30 2166 H 214.916 1.88813 -0.212076 0
M  V30 2167 H 213.066 3.50973 1.66583 0
M  V30 2168 H 214.738 4.55565 -0.725152 0
M  V30 2169 H 212.981 4.27261 -0.750378 0
M  V30 2170 H 213.652 5.51099 0.315284 0
M  V30 2171 H 216.128 3.91841 1.39998 0
M  V30 2172 H 215.004 5.00262 2.25897 0
M  V30 2173 H 215.265 3.37239 2.85872 0
M  V30 2174 N 214.325 -0.140222 1.56975 0
M  V30 2175 C 215.273 -1.19207 1.99731 0
M  V30 2176 C 216.267 -1.44089 0.890777 0
M  V30 2177 O 217.473 -1.44301 1.07597 0
M  V30 2178 H 213.848 -0.40142 0.635898 0
M  V30 2179 H 215.819 -0.804813 2.87342 0
M  V30 2180 C 214.568 -2.51617 2.39967 0
M  V30 2181 H 213.891 -2.33303 3.24669 0
M  V30 2182 H 215.331 -3.23827 2.73701 0
M  V30 2183 C 213.79 -3.12654 1.25496 0
M  V30 2184 O 214.32 -3.97786 0.559371 0
M  V30 2185 N 212.526 -2.72206 1.01746 0
M  V30 2186 H 212.073 -2.03074 1.58489 0
M  V30 2187 H 212.031 -3.13377 0.253461 0
M  V30 2188 N 215.803 -1.52179 -0.40978 0
M  V30 2189 C 217.031 -1.70054 -1.17853 0
M  V30 2190 C 217.446 -0.409735 -1.843 0
M  V30 2191 O 216.803 0.614183 -1.71855 0
M  V30 2192 C 216.854 -2.83568 -2.24213 0
M  V30 2193 O 216.575 -4.0765 -1.60478 0
M  V30 2194 C 218.076 -3.12947 -3.13973 0
M  V30 2195 H 215.296 -0.569917 -0.354169 0
M  V30 2196 H 217.84 -1.98734 -0.482198 0
M  V30 2197 H 215.995 -2.57409 -2.89516 0
M  V30 2198 H 216.409 -4.70899 -2.30986 0
M  V30 2199 H 217.883 -3.95889 -3.84677 0
M  V30 2200 H 218.36 -2.26472 -3.76307 0
M  V30 2201 H 218.966 -3.40868 -2.5434 0
M  V30 2202 N 217.281 0.66697 -1.42791 0
M  V30 2203 C 218.229 1.80157 -1.47127 0
M  V30 2204 C 219.223 1.65825 -0.346199 0
M  V30 2205 O 220.429 1.72338 -0.519572 0
M  V30 2206 H 216.804 0.594158 -0.460956 0
M  V30 2207 H 218.775 1.73619 -2.42692 0
M  V30 2208 C 217.524 3.18351 -1.39813 0
M  V30 2209 H 216.847 3.3001 -2.25684 0
M  V30 2210 H 218.287 3.97736 -1.46908 0
M  V30 2211 C 216.746 3.36707 -0.11391 0
M  V30 2212 O 217.276 3.93027 0.830241 0
M  V30 2213 N 215.482 2.90586 -0.0285295 0
M  V30 2214 H 215.029 2.4494 -0.79764 0
M  V30 2215 H 214.987 3.03245 0.830063 0
M  V30 2216 N 218.759 1.29093 0.90403 0
M  V30 2217 C 219.722 1.1386 1.98919 0
M  V30 2218 C 220.722 0.0753457 1.60623 0
M  V30 2219 O 221.912 0.321931 1.71199 0
M  V30 2220 C 219.044 0.740198 3.32767 0
M  V30 2221 H 220.237 2.10246 2.13861 0
M  V30 2222 H 217.79 1.12218 1.08797 0
M  V30 2223 H 218.525 -0.223997 3.23525 0
M  V30 2224 H 218.31 1.50838 3.61926 0
M  V30 2225 H 219.8 0.656546 4.12407 0
M  V30 2226 N 220.237 -1.11381 1.11499 0
M  V30 2227 C 221.485 -1.8277 0.862524 0
M  V30 2228 C 221.806 -1.85097 -0.613534 0
M  V30 2229 O 221.076 -1.32198 -1.4457 0
M  V30 2230 H 219.656 -0.676823 0.316101 0
M  V30 2231 H 222.318 -1.34816 1.4075 0
M  V30 2232 H 221.414 -2.86614 1.23527 0
M  V30 2233 N 221.715 -0.905404 -1.28997 0
M  V30 2234 C 222.962 -0.534248 -1.95325 0
M  V30 2235 C 223.29 0.920535 -1.71337 0
M  V30 2236 O 222.545 1.66861 -1.02254 0
M  V30 2237 C 222.844 -0.779906 -3.48787 0
M  V30 2238 C 222.51 -2.21293 -3.92861 0
M  V30 2239 C 221.172 -2.60475 -4.04606 0
M  V30 2240 C 223.524 -3.14587 -4.15553 0
M  V30 2241 C 220.852 -3.9212 -4.36416 0
M  V30 2242 C 223.204 -4.45787 -4.48839 0
M  V30 2243 C 221.868 -4.84834 -4.58794 0
M  V30 2244 H 221.138 -0.195495 -0.714747 0
M  V30 2245 H 223.785 -1.14514 -1.53488 0
M  V30 2246 H 222.09 -0.0861365 -3.91705 0
M  V30 2247 H 223.787 -0.472029 -3.98212 0
M  V30 2248 H 220.377 -1.89887 -3.84241 0
M  V30 2249 H 224.561 -2.85528 -4.0594 0
M  V30 2250 H 219.817 -4.22086 -4.42327 0
M  V30 2251 H 223.991 -5.18098 -4.65346 0
M  V30 2252 H 221.618 -5.86877 -4.83197 0
M  V30 2253 N 223.193 1.4272 -0.668489 0
M  V30 2254 C 224.421 2.05966 -0.196348 0
M  V30 2255 C 224.836 1.50191 1.14403 0
M  V30 2256 O 224.193 0.639208 1.7094 0
M  V30 2257 C 224.244 3.61314 -0.115815 0
M  V30 2258 O 223.965 4.1502 -1.40322 0
M  V30 2259 C 225.466 4.41663 0.380579 0
M  V30 2260 H 222.686 0.663954 -0.0969829 0
M  V30 2261 H 225.23 1.82966 -0.913446 0
M  V30 2262 H 223.385 3.83448 0.551931 0
M  V30 2263 H 223.799 5.08832 -1.27243 0
M  V30 2264 H 225.273 5.5065 0.385848 0
M  V30 2265 H 225.75 4.15792 1.41471 0
M  V30 2266 H 226.356 4.24534 -0.255209 0
M  V30 2267 N 224.671 0.411399 1.52136 0
M  V30 2268 C 225.634 -0.401089 2.25663 0
M  V30 2269 C 226.634 -0.971732 1.28117 0
M  V30 2270 O 227.824 -0.850254 1.52041 0
M  V30 2271 C 224.956 -1.56483 3.02863 0
M  V30 2272 H 226.149 0.24295 2.98914 0
M  V30 2273 H 223.702 0.163968 1.55438 0
M  V30 2274 H 224.437 -2.24567 2.33967 0
M  V30 2275 H 224.222 -1.16211 3.74483 0
M  V30 2276 H 225.712 -2.13951 3.58629 0
M  V30 2277 N 226.149 -1.5696 0.141893 0
M  V30 2278 C 227.565 -1.58151 -0.21456 0
M  V30 2279 C 227.765 -1.1559 -1.65049 0
M  V30 2280 O 226.821 -0.853832 -2.37626 0
M  V30 2281 C 228.134 -3.00674 0.0395576 0
M  V30 2282 C 229.682 -3.1299 -0.0245529 0
M  V30 2283 C 230.157 -4.57554 0.202167 0
M  V30 2284 N 231.648 -4.62961 0.148919 0
M  V30 2285 C 232.383 -5.7262 0.298924 0
M  V30 2286 N 231.879 -6.90947 0.50637 0
M  V30 2287 N 233.672 -5.61601 0.236886 0
M  V30 2288 H 225.823 -1.8292 1.07953 0
M  V30 2289 H 228.086 -0.846425 0.42693 0
M  V30 2290 H 227.792 -3.36183 1.03315 0
M  V30 2291 H 227.666 -3.70981 -0.682143 0
M  V30 2292 H 230.053 -2.77326 -1.00869 0
M  V30 2293 H 230.134 -2.4518 0.729396 0
M  V30 2294 H 229.778 -4.93922 1.18338 0
M  V30 2295 H 229.708 -5.23484 -0.572044 0
M  V30 2296 H 232.199 -3.77899 -0.00697015 0
M  V30 2297 H 232.512 -7.7038 0.611076 0
M  V30 2298 H 230.857 -6.92878 0.542628 0
M  V30 2299 H 234.048 -4.68039 0.0756209 0
M  V30 2300 H 234.221 -6.47015 0.357227 0
M  V30 2301 N 227.627 0.131896 -1.57047 0
M  V30 2302 C 228.557 1.16384 -2.02428 0
M  V30 2303 C 229.538 1.43936 -0.90644 0
M  V30 2304 O 230.723 1.54599 -1.17528 0
M  V30 2305 C 227.853 2.49328 -2.4177 0
M  V30 2306 C 226.807 2.36266 -3.56879 0
M  V30 2307 C 226.133 3.74057 -3.8208 0
M  V30 2308 C 227.433 1.834 -4.89042 0
M  V30 2309 H 229.127 0.786433 -2.88887 0
M  V30 2310 H 226.673 0.376855 -1.38981 0
M  V30 2311 H 228.626 3.21759 -2.7212 0
M  V30 2312 H 227.35 2.88934 -1.52266 0
M  V30 2313 H 226.009 1.66286 -3.26718 0
M  V30 2314 H 225.657 4.11125 -2.89803 0
M  V30 2315 H 225.357 3.66174 -4.59554 0
M  V30 2316 H 226.881 4.48012 -4.1487 0
M  V30 2317 H 228.295 2.45636 -5.18011 0
M  V30 2318 H 226.692 1.8637 -5.70426 0
M  V30 2319 H 227.762 0.790662 -4.7841 0
M  V30 2320 N 229.106 1.52395 0.401703 0
M  V30 2321 C 230.053 1.76268 1.48991 0
M  V30 2322 C 231.023 0.605386 1.54675 0
M  V30 2323 O 232.208 0.843742 1.7113 0
M  V30 2324 C 229.348 1.92592 2.86361 0
M  V30 2325 C 228.461 3.20259 2.89928 0
M  V30 2326 C 227.596 3.26972 4.18644 0
M  V30 2327 C 226.635 4.48812 4.16214 0
M  V30 2328 N 225.772 4.52877 5.36514 0
M  V30 2329 H 230.612 2.6914 1.27935 0
M  V30 2330 H 228.149 1.33355 0.620871 0
M  V30 2331 H 230.107 2.0004 3.66115 0
M  V30 2332 H 228.737 1.03093 3.05895 0
M  V30 2333 H 227.789 3.21945 2.02621 0
M  V30 2334 H 229.101 4.10056 2.83999 0
M  V30 2335 H 228.255 3.33533 5.06794 0
M  V30 2336 H 226.994 2.35126 4.27278 0
M  V30 2337 H 225.999 4.4239 3.26453 0
M  V30 2338 H 227.224 5.41961 4.09213 0
M  V30 2339 H 225.17 3.63917 5.45802 0
M  V30 2340 H 225.087 5.36529 5.32609 0
M  V30 2341 H 226.355 4.63676 6.26597 0
M  V30 2342 N 230.584 -0.659388 1.43143 0
M  V30 2343 C 231.532 -1.79374 1.4808 0
M  V30 2344 C 232.526 -1.65639 0.354988 0
M  V30 2345 O 233.732 -1.7206 0.528704 0
M  V30 2346 H 230.107 -0.591705 0.4641 0
M  V30 2347 H 232.078 -1.72329 2.43609 0
M  V30 2348 C 230.827 -3.17606 1.41499 0
M  V30 2349 H 230.15 -3.28809 2.27431 0
M  V30 2350 H 231.59 -3.96951 1.49015 0
M  V30 2351 C 230.049 -3.36642 0.131765 0
M  V30 2352 O 230.579 -3.93461 -0.809386 0
M  V30 2353 N 228.785 -2.90567 0.0439396 0
M  V30 2354 H 228.332 -2.44513 0.810619 0
M  V30 2355 H 228.29 -3.03681 -0.813969 0
M  V30 2356 N 232.062 -1.29571 -0.897171 0
M  V30 2357 C 232.992 -1.17473 -2.01798 0
M  V30 2358 C 233.973 -0.068323 -1.69963 0
M  V30 2359 O 235.158 -0.248239 -1.92607 0
M  V30 2360 C 232.288 -0.853099 -3.36659 0
M  V30 2361 C 231.242 -1.9161 -3.82713 0
M  V30 2362 C 230.568 -1.44773 -5.14728 0
M  V30 2363 C 231.868 -3.32535 -4.02763 0
M  V30 2364 H 233.562 -2.11237 -2.12177 0
M  V30 2365 H 231.108 -1.01699 -1.01948 0
M  V30 2366 H 233.061 -0.755165 -4.14578 0
M  V30 2367 H 231.785 0.120236 -3.26379 0
M  V30 2368 H 230.444 -2.00346 -3.07013 0
M  V30 2369 H 230.092 -0.462995 -5.00865 0
M  V30 2370 H 229.792 -2.15865 -5.46513 0
M  V30 2371 H 231.316 -1.36334 -5.95185 0
M  V30 2372 H 232.73 -3.26626 -4.71156 0
M  V30 2373 H 231.127 -4.01607 -4.45905 0
M  V30 2374 H 232.197 -3.75326 -3.07016 0
M  V30 2375 N 233.54 1.10788 -1.12088 0
M  V30 2376 C 234.951 1.64181 -0.88891 0
M  V30 2377 C 235.302 1.87508 0.577498 0
M  V30 2378 O 234.427 1.61434 1.44112 0
M  V30 2379 C 235.022 2.98257 -1.60712 0
M  V30 2380 C 233.581 3.4853 -1.42139 0
M  V30 2381 C 232.728 2.23208 -1.6454 0
M  V30 2382 H 235.679 0.943368 -1.27618 0
M  V30 2383 H 235.7 3.65552 -1.05604 0
M  V30 2384 H 235.212 2.81246 -2.67436 0
M  V30 2385 H 233.313 3.70692 -0.376552 0
M  V30 2386 H 233.426 4.26882 -2.17505 0
M  V30 2387 H 231.79 2.31169 -1.06925 0
M  V30 2388 H 232.573 2.08733 -2.72554 0
M  V30 2389 N 235.018 0.912232 1.28515 0
M  V30 2390 C 236.243 0.559774 1.99703 0
M  V30 2391 C 236.668 -0.851393 1.67729 0
M  V30 2392 O 236.026 -1.56875 0.908834 0
M  V30 2393 C 236.074 0.773874 3.52198 0
M  V30 2394 O 235.178 -0.167842 4.12058 0
M  V30 2395 H 234.519 0.21723 0.627461 0
M  V30 2396 H 237.049 1.22725 1.63706 0
M  V30 2397 H 237.059 0.683386 4.02236 0
M  V30 2398 H 235.734 1.80261 3.74805 0
M  V30 2399 H 234.311 -0.0287509 3.72889 0
M  V30 2400 N 236.496 -1.42363 0.676048 0
M  V30 2401 C 237.721 -2.06377 0.205705 0
M  V30 2402 C 238.146 -1.50463 -1.12883 0
M  V30 2403 O 237.504 -0.623619 -1.70237 0
M  V30 2404 C 237.552 -3.60277 0.152655 0
M  V30 2405 O 236.656 -4.02935 -0.87845 0
M  V30 2406 H 235.997 -0.655588 0.105359 0
M  V30 2407 H 238.527 -1.82475 0.925412 0
M  V30 2408 H 238.537 -4.07993 -0.0230675 0
M  V30 2409 H 237.212 -4.00346 1.12675 0
M  V30 2410 H 235.789 -3.66764 -0.673668 0
M  V30 2411 N 237.974 -0.419461 -1.51915 0
M  V30 2412 C 239.385 0.0477853 -1.86639 0
M  V30 2413 C 239.736 1.43531 -1.33766 0
M  V30 2414 O 238.861 2.05401 -0.68113 0
M  V30 2415 C 239.456 0.0934885 -3.38671 0
M  V30 2416 C 238.015 0.505097 -3.72996 0
M  V30 2417 C 237.162 -0.313792 -2.75519 0
M  V30 2418 H 240.113 -0.636088 -1.45395 0
M  V30 2419 H 240.134 0.906667 -3.6954 0
M  V30 2420 H 239.646 -0.916501 -3.77123 0
M  V30 2421 H 237.747 1.52135 -3.40126 0
M  V30 2422 H 237.86 0.242309 -4.78487 0
M  V30 2423 H 236.224 0.225363 -2.53701 0
M  V30 2424 H 237.007 -1.32232 -3.16812 0
M  V30 2425 N 239.452 1.56882 -0.150215 0
M  V30 2426 C 240.698 1.96518 0.500834 0
M  V30 2427 C 241.031 1.03527 1.64304 0
M  V30 2428 O 240.306 0.0782751 1.94342 0
M  V30 2429 C 240.589 3.45822 1.00395 0
M  V30 2430 C 240.442 4.49591 -0.136983 0
M  V30 2431 C 241.761 3.97704 1.88467 0
M  V30 2432 H 238.88 0.714535 0.18058 0
M  V30 2433 H 241.522 1.88577 -0.232091 0
M  V30 2434 H 239.672 3.5272 1.62851 0
M  V30 2435 H 241.344 4.5477 -0.77343 0
M  V30 2436 H 239.587 4.26441 -0.795652 0
M  V30 2437 H 240.258 5.51402 0.256815 0
M  V30 2438 H 242.734 3.93304 1.35834 0
M  V30 2439 H 241.61 5.0263 2.20578 0
M  V30 2440 H 241.871 3.40252 2.82279 0
M  V30 2441 N 240.93 -0.123565 1.57115 0
M  V30 2442 C 242.177 -0.832153 1.84612 0
M  V30 2443 C 242.505 -1.80093 0.734627 0
M  V30 2444 O 241.76 -1.93766 -0.27442 0
M  V30 2445 C 242.059 -1.62016 3.18568 0
M  V30 2446 C 241.725 -0.796084 4.43817 0
M  V30 2447 C 240.387 -0.568816 4.77826 0
M  V30 2448 C 242.739 -0.221364 5.2073 0
M  V30 2449 C 240.067 0.243499 5.86194 0
M  V30 2450 C 242.419 0.578117 6.29953 0
M  V30 2451 C 241.083 0.815744 6.62497 0
M  V30 2452 H 240.353 -0.304507 0.675542 0
M  V30 2453 H 243 -0.0947248 1.91266 0
M  V30 2454 H 241.305 -2.42837 3.0747 0
M  V30 2455 H 243.002 -2.17231 3.37064 0
M  V30 2456 H 239.592 -0.983307 4.17168 0
M  V30 2457 H 243.776 -0.384173 4.94811 0
M  V30 2458 H 239.032 0.436871 6.09837 0
M  V30 2459 H 243.206 1.03046 6.88734 0
M  V30 2460 H 240.833 1.44701 7.46301 0
M  V30 2461 N 242.408 -1.52605 -0.393616 0
M  V30 2462 C 243.656 -1.67093 -1.13685 0
M  V30 2463 C 243.977 -0.411011 -1.90619 0
M  V30 2464 O 243.247 0.574491 -1.87287 0
M  V30 2465 H 241.827 -0.615923 -0.422668 0
M  V30 2466 H 244.489 -1.89704 -0.447039 0
M  V30 2467 H 243.585 -2.51922 -1.84232 0
M  V30 2468 N 243.887 0.651787 -1.4349 0
M  V30 2469 C 245.112 1.44434 -1.48841 0
M  V30 2470 C 245.537 1.8779 -0.107955 0
M  V30 2471 O 244.895 1.57464 0.898602 0
M  V30 2472 C 244.943 2.65458 -2.44059 0
M  V30 2473 O 244.047 3.64566 -1.92784 0
M  V30 2474 H 243.388 0.433005 -0.503391 0
M  V30 2475 H 245.918 0.797451 -1.88419 0
M  V30 2476 H 245.928 3.13255 -2.6141 0
M  V30 2477 H 244.603 2.33244 -3.4434 0
M  V30 2478 H 243.18 3.23716 -1.851 0
M  V30 2479 N 245.365 1.30045 0.890287 0
M  V30 2480 C 246.313 1.15873 2.01683 0
M  V30 2481 C 247.307 0.0719403 1.69247 0
M  V30 2482 O 248.513 0.232414 1.78493 0
M  V30 2483 H 244.888 0.358203 0.661207 0
M  V30 2484 H 246.859 2.11229 2.10772 0
M  V30 2485 C 245.608 0.861842 3.36849 0
M  V30 2486 H 244.931 1.69016 3.62317 0
M  V30 2487 H 246.371 0.802762 4.16331 0
M  V30 2488 C 244.83 -0.435132 3.34078 0
M  V30 2489 O 245.36 -1.4583 3.74295 0
M  V30 2490 N 243.566 -0.444377 2.87182 0
M  V30 2491 H 243.113 0.388723 2.5465 0
M  V30 2492 H 243.071 -1.31213 2.85711 0
M  V30 2493 N 246.843 -1.10192 1.12674 0
M  V30 2494 C 248.089 -1.82475 0.884915 0
M  V30 2495 C 248.422 -1.85093 -0.58773 0
M  V30 2496 O 247.697 -1.3134 -1.43457 0
M  V30 2497 C 247.98 -3.29018 1.46353 0
M  V30 2498 C 247.833 -3.34718 3.00473 0
M  V30 2499 C 249.152 -4.25473 1.12519 0
M  V30 2500 H 246.271 -0.662492 0.322915 0
M  V30 2501 H 248.913 -1.2913 1.39375 0
M  V30 2502 H 247.063 -3.74576 1.03077 0
M  V30 2503 H 248.735 -2.97622 3.52447 0
M  V30 2504 H 246.978 -2.74541 3.35872 0
M  V30 2505 H 247.649 -4.37918 3.36053 0
M  V30 2506 H 250.125 -3.88161 1.499 0
M  V30 2507 H 249.001 -5.26365 1.55663 0
M  V30 2508 H 249.262 -4.42084 0.0377407 0
M  V30 2509 N 248.321 -0.919034 -1.28029 0
M  V30 2510 C 249.598 -0.473668 -1.89778 0
M  V30 2511 C 249.978 1.04783 -1.83259 0
M  V30 2512 O 249.326 1.8982 -1.27202 0
M  V30 2513 C 249.536 -1.00998 -3.34066 0
M  V30 2514 C 250.884 -1.06525 -4.1102 0
M  V30 2515 O 251.908 -0.958996 -3.43048 0
M  V30 2516 O 250.767 -1.22776 -5.3253 0
M  V30 2517 H 247.861 -0.15098 -0.813101 0
M  V30 2518 H 250.407 -1.01016 -1.36359 0
M  V30 2519 H 249.179 -2.05392 -3.33061 0
M  V30 2520 H 248.802 -0.454626 -3.94992 0
M  V30 2521 N 249.799 1.42003 -0.683588 0
M  V30 2522 C 250.747 2.326 0.000815408 0
M  V30 2523 C 251.741 1.50308 0.781278 0
M  V30 2524 O 252.947 1.66322 0.688251 0
M  V30 2525 H 249.322 0.751758 0.0190616 0
M  V30 2526 H 251.293 2.88011 -0.780528 0
M  V30 2527 C 250.042 3.34978 0.93195 0
M  V30 2528 H 249.365 3.98345 0.340817 0
M  V30 2529 H 250.805 4.00936 1.37936 0
M  V30 2530 C 249.264 2.67925 2.04249 0
M  V30 2531 O 249.794 2.51788 3.12995 0
M  V30 2532 N 248 2.2681 1.81675 0
M  V30 2533 H 247.547 2.40135 0.932363 0
M  V30 2534 H 247.505 1.8228 2.56167 0
M  V30 2535 N 251.277 0.427512 1.51691 0
M  V30 2536 C 252.523 -0.142439 2.02299 0
M  V30 2537 C 252.856 -1.43214 1.31162 0
M  V30 2538 O 252.131 -1.89833 0.423511 0
M  V30 2539 C 252.414 -0.371301 3.58181 0
M  V30 2540 C 252.267 0.936358 4.39946 0
M  V30 2541 C 253.586 -1.14542 4.24933 0
M  V30 2542 H 250.705 -0.0502937 0.735282 0
M  V30 2543 H 253.347 0.564584 1.81418 0
M  V30 2544 H 251.497 -0.973559 3.76104 0
M  V30 2545 H 253.169 1.57184 4.33694 0
M  V30 2546 H 251.412 1.5432 4.05423 0
M  V30 2547 H 252.083 0.730388 5.47147 0
M  V30 2548 H 254.559 -0.635362 4.11221 0
M  V30 2549 H 253.435 -1.27431 5.33903 0
M  V30 2550 H 253.696 -2.17093 3.85127 0
M  V30 2551 N 252.755 -1.56801 0.158532 0
M  V30 2552 C 253.685 -2.20347 -0.772609 0
M  V30 2553 C 254.666 -1.15518 -1.24859 0
M  V30 2554 O 255.851 -1.43902 -1.30406 0
M  V30 2555 C 252.981 -2.83417 -2.00729 0
M  V30 2556 C 251.935 -3.94174 -1.66765 0
M  V30 2557 C 251.261 -4.44233 -2.97592 0
M  V30 2558 C 252.561 -5.14392 -0.905447 0
M  V30 2559 H 254.255 -2.98413 -0.242959 0
M  V30 2560 H 251.801 -1.43537 -0.115419 0
M  V30 2561 H 253.754 -3.26543 -2.6636 0
M  V30 2562 H 252.478 -2.02701 -2.56086 0
M  V30 2563 H 251.137 -3.51684 -1.03508 0
M  V30 2564 H 250.785 -3.60325 -3.50963 0
M  V30 2565 H 250.485 -5.18945 -2.75626 0
M  V30 2566 H 252.009 -4.90037 -3.64274 0
M  V30 2567 H 253.423 -5.5429 -1.46408 0
M  V30 2568 H 251.82 -5.9494 -0.7853 0
M  V30 2569 H 252.89 -4.84795 0.100668 0
M  V30 2570 N 254.233 0.115231 -1.57178 0
M  V30 2571 C 255.163 1.1423 -2.03651 0
M  V30 2572 C 256.144 1.42967 -0.921655 0
M  V30 2573 O 257.329 1.53343 -1.19162 0
M  V30 2574 C 254.459 2.4675 -2.44401 0
M  V30 2575 C 253.413 2.32467 -3.59365 0
M  V30 2576 C 252.739 3.69984 -3.86026 0
M  V30 2577 C 254.039 1.78203 -4.90959 0
M  V30 2578 H 255.733 0.755749 -2.89705 0
M  V30 2579 H 253.279 0.362093 -1.39373 0
M  V30 2580 H 255.232 3.18854 -2.75517 0
M  V30 2581 H 253.956 2.87302 -1.55322 0
M  V30 2582 H 252.615 1.62811 -3.28463 0
M  V30 2583 H 252.263 4.08028 -2.94147 0
M  V30 2584 H 251.963 3.61279 -4.63412 0
M  V30 2585 H 253.487 4.43587 -4.19599 0
M  V30 2586 H 254.901 2.40128 -5.20587 0
M  V30 2587 H 253.298 1.8031 -5.72371 0
M  V30 2588 H 254.368 0.739876 -4.79222 0
M  V30 2589 N 255.711 1.52812 0.385517 0
M  V30 2590 C 256.939 1.71907 1.15133 0
M  V30 2591 C 257.354 0.439004 1.83625 0
M  V30 2592 O 256.711 -0.586765 1.7281 0
M  V30 2593 C 256.762 2.87099 2.19673 0
M  V30 2594 O 256.483 4.10151 1.53973 0
M  V30 2595 C 257.984 3.17902 3.08955 0
M  V30 2596 H 255.204 0.575479 0.345057 0
M  V30 2597 H 257.748 1.99476 0.45052 0
M  V30 2598 H 255.903 2.61982 2.85384 0
M  V30 2599 H 256.317 4.74514 2.23465 0
M  V30 2600 H 257.791 4.01959 3.7833 0
M  V30 2601 H 258.268 2.3243 3.72657 0
M  V30 2602 H 258.874 3.44871 2.48885 0
M  V30 2603 N 257.189 -0.644168 1.43834 0
M  V30 2604 C 258.152 -1.73857 1.49353 0
M  V30 2605 C 259.152 -1.56315 0.377112 0
M  V30 2606 O 260.342 -1.62048 0.639226 0
M  V30 2607 C 257.474 -3.12819 1.35488 0
M  V30 2608 H 258.667 -1.70342 2.46827 0
M  V30 2609 H 256.22 -0.856652 1.30733 0
M  V30 2610 H 256.955 -3.2194 0.390569 0
M  V30 2611 H 256.74 -3.26958 2.16428 0
M  V30 2612 H 258.23 -3.92606 1.42302 0
M  V30 2613 N 258.668 -1.30515 -0.883378 0
M  V30 2614 C 259.578 -1.18959 -2.02203 0
M  V30 2615 C 260.594 -0.109172 -1.73657 0
M  V30 2616 O 261.77 -0.324413 -1.9877 0
M  V30 2617 C 258.835 -0.883871 -3.35244 0
M  V30 2618 C 257.896 -2.04982 -3.77201 0
M  V30 2619 C 257.129 -1.75859 -5.03894 0
M  V30 2620 O 257.352 -0.687276 -5.66244 0
M  V30 2621 O 256.286 -2.61146 -5.42297 0
M  V30 2622 H 260.112 -2.14616 -2.1488 0
M  V30 2623 H 257.697 -1.10124 -1.0096 0
M  V30 2624 H 259.579 -0.728644 -4.15053 0
M  V30 2625 H 258.254 0.0427798 -3.23672 0
M  V30 2626 H 257.161 -2.26038 -2.9809 0
M  V30 2627 H 258.494 -2.95825 -3.93381 0
M  V30 2628 N 260.146 1.09593 -1.13257 0
M  V30 2629 C 261.376 1.85231 -0.915049 0
M  V30 2630 C 261.784 1.81345 0.539498 0
M  V30 2631 O 261.127 1.20664 1.38513 0
M  V30 2632 C 261.189 3.34275 -1.3229 0
M  V30 2633 C 260.853 3.6191 -2.79052 0
M  V30 2634 C 261.85 3.57777 -3.77216 0
M  V30 2635 C 259.535 3.90309 -3.16171 0
M  V30 2636 C 261.529 3.81652 -5.1051 0
M  V30 2637 C 259.216 4.13839 -4.49644 0
M  V30 2638 C 260.214 4.09502 -5.46623 0
M  V30 2639 O 259.902 4.32426 -6.77689 0
M  V30 2640 H 259.634 0.591997 -0.326367 0
M  V30 2641 H 262.188 1.394 -1.50854 0
M  V30 2642 H 260.418 3.80805 -0.672667 0
M  V30 2643 H 262.107 3.9132 -1.07812 0
M  V30 2644 H 262.873 3.35865 -3.49885 0
M  V30 2645 H 258.752 3.92811 -2.41289 0
M  V30 2646 H 262.296 3.78182 -5.86195 0
M  V30 2647 H 258.193 4.35232 -4.767 0
M  V30 2648 H 258.961 4.49896 -6.83766 0
M  V30 2649 N 261.624 0.925811 1.2754 0
M  V30 2650 C 262.556 0.380753 2.26015 0
M  V30 2651 C 263.569 -0.487485 1.5533 0
M  V30 2652 O 264.758 -0.300413 1.75954 0
M  V30 2653 C 261.858 -0.473259 3.35579 0
M  V30 2654 C 261.031 0.375249 4.35787 0
M  V30 2655 C 260.09 -0.415809 5.24555 0
M  V30 2656 O 259.116 0.175834 5.68928 0
M  V30 2657 N 260.318 -1.71607 5.54555 0
M  V30 2658 H 263.083 1.22725 2.73421 0
M  V30 2659 H 260.644 0.793037 1.41147 0
M  V30 2660 H 262.636 -1.00949 3.91907 0
M  V30 2661 H 261.206 -1.2205 2.87789 0
M  V30 2662 H 260.426 1.09279 3.7875 0
M  V30 2663 H 261.714 0.955399 4.99749 0
M  V30 2664 H 261.112 -2.2191 5.20358 0
M  V30 2665 H 259.669 -2.19887 6.1359 0
M  V30 2666 N 263.102 -1.41638 0.69111 0
M  V30 2667 C 264.33 -2.05628 0.22909 0
M  V30 2668 C 264.745 -1.51992 -1.11999 0
M  V30 2669 O 264.102 -0.666322 -1.69901 0
M  V30 2670 C 264.153 -3.61084 0.173283 0
M  V30 2671 O 263.874 -4.12735 1.46907 0
M  V30 2672 C 265.375 -4.42213 -0.310266 0
M  V30 2673 H 262.595 -0.662327 0.107534 0
M  V30 2674 H 265.139 -1.81489 0.942438 0
M  V30 2675 H 263.294 -3.84278 -0.490858 0
M  V30 2676 H 263.708 -5.06743 1.35322 0
M  V30 2677 H 265.182 -5.51194 -0.298196 0
M  V30 2678 H 265.659 -4.1799 -1.34838 0
M  V30 2679 H 266.265 -4.24074 0.322716 0
M  V30 2680 N 264.58 -0.43555 -1.51462 0
M  V30 2681 C 265.805 0.132627 -2.06976 0
M  V30 2682 C 266.23 1.35848 -1.30104 0
M  V30 2683 O 265.588 1.78112 -0.338493 0
M  V30 2684 C 265.636 0.43523 -3.57964 0
M  V30 2685 O 264.74 1.52198 -3.83288 0
M  V30 2686 H 264.081 0.00265 -0.663995 0
M  V30 2687 H 266.611 -0.616369 -1.95095 0
M  V30 2688 H 266.621 0.686206 -4.02188 0
M  V30 2689 H 265.296 -0.460739 -4.1334 0
M  V30 2690 H 263.873 1.2611 -3.50928 0
M  V30 2691 N 266.058 1.56714 -0.166846 0
M  V30 2692 C 267.006 2.19056 0.782123 0
M  V30 2693 C 268 1.15328 1.24079 0
M  V30 2694 O 269.206 1.33537 1.20697 0
M  V30 2695 H 265.581 0.70167 0.270486 0
M  V30 2696 H 267.552 2.97494 0.232322 0
M  V30 2697 C 266.301 2.84206 2.00306 0
M  V30 2698 H 265.624 3.63748 1.65914 0
M  V30 2699 H 267.064 3.31302 2.64604 0
M  V30 2700 C 265.523 1.83744 2.82382 0
M  V30 2701 O 266.053 1.32014 3.79388 0
M  V30 2702 N 264.259 1.52601 2.47308 0
M  V30 2703 H 263.806 1.9486 1.68485 0
M  V30 2704 H 263.764 0.856351 3.02513 0
M  V30 2705 N 267.536 -0.106894 1.57237 0
M  V30 2706 C 268.952 -0.46078 1.52804 0
M  V30 2707 C 269.152 -1.81184 0.881746 0
M  V30 2708 O 268.208 -2.48102 0.469224 0
M  V30 2709 C 269.521 -0.434127 2.9755 0
M  V30 2710 C 271.069 -0.516821 3.08704 0
M  V30 2711 C 271.544 -0.520436 4.55033 0
M  V30 2712 N 273.035 -0.58153 4.59535 0
M  V30 2713 C 273.77 -0.605973 5.70189 0
M  V30 2714 N 273.266 -0.587331 6.90306 0
M  V30 2715 N 275.059 -0.649895 5.5833 0
M  V30 2716 H 267.21 0.778203 1.9763 0
M  V30 2717 H 269.473 0.288403 0.903066 0
M  V30 2718 H 269.179 0.491197 3.48253 0
M  V30 2719 H 269.053 -1.25748 3.55622 0
M  V30 2720 H 271.44 -1.43256 2.57995 0
M  V30 2721 H 271.521 0.334449 2.53604 0
M  V30 2722 H 271.165 0.391313 5.0639 0
M  V30 2723 H 271.095 -1.38876 5.07958 0
M  V30 2724 H 273.586 -0.60161 3.73081 0
M  V30 2725 H 273.899 -0.60894 7.70397 0
M  V30 2726 H 272.244 -0.554564 6.92784 0
M  V30 2727 H 275.435 -0.661907 4.63397 0
M  V30 2728 H 275.608 -0.665476 6.44574 0
M  V30 2729 N 269.014 -1.53014 -0.377408 0
M  V30 2730 C 270.261 -1.68623 -1.12128 0
M  V30 2731 C 270.589 -0.431997 -1.89642 0
M  V30 2732 O 269.844 0.585855 -1.86725 0
M  V30 2733 C 270.143 -2.87982 -2.11663 0
M  V30 2734 C 269.809 -4.24964 -1.50719 0
M  V30 2735 C 268.471 -4.62217 -1.33825 0
M  V30 2736 C 270.823 -5.10199 -1.06519 0
M  V30 2737 C 268.151 -5.82352 -0.712963 0
M  V30 2738 C 270.503 -6.30969 -0.453955 0
M  V30 2739 C 269.167 -6.66944 -0.272411 0
M  V30 2740 H 268.437 -0.617034 -0.410305 0
M  V30 2741 H 271.084 -1.8718 -0.404484 0
M  V30 2742 H 269.389 -2.63889 -2.89603 0
M  V30 2743 H 271.086 -2.97253 -2.6915 0
M  V30 2744 H 267.676 -3.95626 -1.64858 0
M  V30 2745 H 271.86 -4.81978 -1.18368 0
M  V30 2746 H 267.116 -6.08824 -0.560611 0
M  V30 2747 H 271.29 -6.96324 -0.103217 0
M  V30 2748 H 268.917 -7.59898 0.214181 0
M  V30 2749 N 270.492 0.636531 -1.44174 0
M  V30 2750 C 271.442 1.74233 -1.47061 0
M  V30 2751 C 272.426 1.57331 -0.337034 0
M  V30 2752 O 273.618 1.67159 -0.581973 0
M  V30 2753 C 270.747 3.12897 -1.41246 0
M  V30 2754 C 269.833 3.35288 -2.59698 0
M  V30 2755 N 270.224 3.2807 -3.84972 0
M  V30 2756 C 268.522 3.66065 -2.54778 0
M  V30 2757 C 269.223 3.51001 -4.63867 0
M  V30 2758 N 268.199 3.73616 -3.94857 0
M  V30 2759 H 272.001 1.67103 -2.41773 0
M  V30 2760 H 269.515 0.838806 -1.3906 0
M  V30 2761 H 271.512 3.92189 -1.41398 0
M  V30 2762 H 270.172 3.21197 -0.47569 0
M  V30 2763 H 271.183 3.07109 -4.17019 0
M  V30 2764 H 267.86 3.81379 -1.6987 0
M  V30 2765 H 269.25 3.51059 -5.72894 0
M  V30 2766 N 271.97 1.30982 0.876444 0
M  V30 2767 C 273.217 1.20296 1.62896 0
M  V30 2768 C 273.545 -0.240395 1.93009 0
M  V30 2769 O 272.8 -1.18733 1.55567 0
M  V30 2770 C 273.099 1.98572 2.9716 0
M  V30 2771 C 272.765 3.48125 2.86566 0
M  V30 2772 C 271.427 3.88905 2.83383 0
M  V30 2773 C 273.779 4.43322 2.74071 0
M  V30 2774 C 271.107 5.2316 2.65556 0
M  V30 2775 C 273.459 5.77695 2.57781 0
M  V30 2776 C 272.123 6.17704 2.52979 0
M  V30 2777 H 271.393 0.440193 0.59608 0
M  V30 2778 H 274.04 1.62177 1.01837 0
M  V30 2779 H 272.345 1.49352 3.62217 0
M  V30 2780 H 274.042 1.8769 3.54364 0
M  V30 2781 H 270.632 3.15723 2.89856 0
M  V30 2782 H 274.816 4.12752 2.75589 0
M  V30 2783 H 270.072 5.53241 2.60259 0
M  V30 2784 H 274.246 6.51091 2.47089 0
M  V30 2785 H 271.873 7.21678 2.38924 0
M  V30 2786 N 273.449 -1.08991 1.13837 0
M  V30 2787 C 274.396 -2.15748 0.819835 0
M  V30 2788 C 275.366 -1.64636 -0.220026 0
M  V30 2789 O 276.551 -1.90582 -0.0912757 0
M  V30 2790 C 273.691 -3.4382 0.296913 0
M  V30 2791 C 272.804 -4.0881 1.39636 0
M  V30 2792 C 271.939 -5.24655 0.831314 0
M  V30 2793 C 270.978 -5.81575 1.90886 0
M  V30 2794 N 270.115 -6.88774 1.36142 0
M  V30 2795 H 274.955 -2.42338 1.73426 0
M  V30 2796 H 272.492 -1.18935 0.865613 0
M  V30 2797 H 274.45 -4.17193 -0.0244339 0
M  V30 2798 H 273.08 -3.17535 -0.580628 0
M  V30 2799 H 272.132 -3.33258 1.83422 0
M  V30 2800 H 273.444 -4.47141 2.21058 0
M  V30 2801 H 272.598 -6.04942 0.461515 0
M  V30 2802 H 271.337 -4.87698 -0.013932 0
M  V30 2803 H 270.342 -4.99946 2.28767 0
M  V30 2804 H 271.567 -6.20592 2.75758 0
M  V30 2805 H 269.513 -6.53788 0.538254 0
M  V30 2806 H 269.43 -7.25898 2.11208 0
M  V30 2807 H 270.698 -7.72806 1.01933 0
M  V30 2808 N 274.927 -0.932562 -1.27047 0
M  V30 2809 C 275.857 -0.452902 -2.29066 0
M  V30 2810 C 276.838 0.489338 -1.62909 0
M  V30 2811 O 278.023 0.393046 -1.90181 0
M  V30 2812 C 275.153 0.290698 -3.46081 0
M  V30 2813 C 274.107 -0.564168 -4.24265 0
M  V30 2814 C 273.433 0.308886 -5.33807 0
M  V30 2815 C 274.733 -1.83112 -4.89149 0
M  V30 2816 H 276.427 -1.30552 -2.69437 0
M  V30 2817 H 273.973 -0.629201 -1.29526 0
M  V30 2818 H 275.926 0.637233 -4.16554 0
M  V30 2819 H 274.65 1.17738 -3.0464 0
M  V30 2820 H 273.309 -0.893477 -3.55545 0
M  V30 2821 H 272.957 1.19467 -4.88607 0
M  V30 2822 H 272.657 -0.259633 -5.87026 0
M  V30 2823 H 274.181 0.650884 -6.07121 0
M  V30 2824 H 275.595 -1.55236 -5.51883 0
M  V30 2825 H 273.992 -2.34353 -5.52448 0
M  V30 2826 H 275.062 -2.54772 -4.12576 0
M  V30 2827 N 276.405 1.4127 -0.698611 0
M  V30 2828 C 277.633 2.05503 -0.239992 0
M  V30 2829 C 278.048 1.52584 1.11191 0
M  V30 2830 O 277.405 0.675323 1.69545 0
M  V30 2831 C 277.456 3.60987 -0.192429 0
M  V30 2832 O 277.177 4.1195 -1.49094 0
M  V30 2833 C 278.678 4.42371 0.28681 0
M  V30 2834 H 275.898 0.661748 -0.111045 0
M  V30 2835 H 278.442 1.80987 -0.95205 0
M  V30 2836 H 276.597 3.84533 0.470472 0
M  V30 2837 H 277.011 5.06018 -1.38007 0
M  V30 2838 H 278.485 5.51344 0.26896 0
M  V30 2839 H 278.962 4.18699 1.32619 0
M  V30 2840 H 279.568 4.23897 -0.345201 0
M  V30 2841 N 277.883 0.443576 1.51229 0
M  V30 2842 C 279.16 -0.181038 1.9476 0
M  V30 2843 C 279.54 -1.59523 1.38259 0
M  V30 2844 O 278.888 -2.2122 0.572198 0
M  V30 2845 C 279.098 -0.152422 3.48667 0
M  V30 2846 C 280.446 -0.354923 4.23114 0
M  V30 2847 O 281.47 -0.230257 3.55455 0
M  V30 2848 O 280.329 -0.603674 5.43156 0
M  V30 2849 H 277.423 -0.1266 0.817252 0
M  V30 2850 H 279.969 0.502004 1.62105 0
M  V30 2851 H 278.741 0.836022 3.82265 0
M  V30 2852 H 278.364 -0.878107 3.87782 0
M  V30 2853 N 279.361 -1.56624 0.175154 0
M  V30 2854 C 280.293 -2.15333 -0.785128 0
M  V30 2855 C 281.306 -1.1099 -1.19101 0
M  V30 2856 O 282.495 -1.38162 -1.13019 0
M  V30 2857 C 279.595 -2.68427 -2.06882 0
M  V30 2858 C 278.768 -3.97466 -1.8259 0
M  V30 2859 C 277.827 -4.35585 -2.95215 0
M  V30 2860 O 276.853 -5.03389 -2.65684 0
M  V30 2861 N 278.055 -3.97457 -4.23094 0
M  V30 2862 H 280.82 -2.98359 -0.283187 0
M  V30 2863 H 278.381 -1.61898 -0.00749817 0
M  V30 2864 H 280.373 -2.90924 -2.81328 0
M  V30 2865 H 278.943 -1.89968 -2.48256 0
M  V30 2866 H 278.163 -3.83307 -0.920287 0
M  V30 2867 H 279.451 -4.81736 -1.63733 0
M  V30 2868 H 278.849 -3.42878 -4.49945 0
M  V30 2869 H 277.406 -4.24947 -4.9423 0
M  V30 2870 N 280.839 0.0985539 -1.57292 0
M  V30 2871 C 282.067 0.816318 -1.90115 0
M  V30 2872 C 282.482 1.72451 -0.768509 0
M  V30 2873 O 281.839 1.80643 0.259687 0
M  V30 2874 C 281.89 1.63259 -3.22535 0
M  V30 2875 O 281.611 0.760934 -4.31441 0
M  V30 2876 C 283.112 2.45372 -3.69199 0
M  V30 2877 H 280.332 0.233595 -0.629027 0
M  V30 2878 H 282.876 0.0768229 -2.04356 0
M  V30 2879 H 281.031 2.32463 -3.09903 0
M  V30 2880 H 281.445 1.32595 -5.07463 0
M  V30 2881 H 282.919 2.98144 -4.64558 0
M  V30 2882 H 283.396 3.23677 -2.96867 0
M  V30 2883 H 284.002 1.81373 -3.84687 0
M  V30 2884 N 282.317 1.53212 0.369288 0
M  V30 2885 C 283.265 1.80054 1.47253 0
M  V30 2886 C 284.259 0.669456 1.55611 0
M  V30 2887 O 285.465 0.852328 1.58541 0
M  V30 2888 H 281.84 0.570034 0.490475 0
M  V30 2889 H 283.811 2.72403 1.21817 0
M  V30 2890 C 282.56 2.00403 2.84137 0
M  V30 2891 H 281.883 2.86876 2.78464 0
M  V30 2892 H 283.323 2.23164 3.60519 0
M  V30 2893 C 281.782 0.782081 3.27697 0
M  V30 2894 O 282.312 -0.0310205 4.01688 0
M  V30 2895 N 280.518 0.606573 2.84199 0
M  V30 2896 H 280.065 1.26939 2.24152 0
M  V30 2897 H 280.023 -0.20962 3.137 0
M  V30 2898 N 283.795 -0.628877 1.44509 0
M  V30 2899 C 284.743 -1.76193 1.51852 0
M  V30 2900 C 285.737 -1.64849 0.390042 0
M  V30 2901 O 286.943 -1.709 0.565082 0
M  V30 2902 H 283.318 -0.581728 0.476547 0
M  V30 2903 H 285.289 -1.67123 2.47209 0
M  V30 2904 C 284.038 -3.14533 1.48204 0
M  V30 2905 H 283.361 -3.23911 2.34354 0
M  V30 2906 H 284.801 -3.93701 1.57402 0
M  V30 2907 C 283.26 -3.36287 0.203142 0
M  V30 2908 O 283.79 -3.9509 -0.725745 0
M  V30 2909 N 281.996 -2.90408 0.105563 0
M  V30 2910 H 281.543 -2.42739 0.862301 0
M  V30 2911 H 281.501 -3.05339 -0.749371 0
M  V30 2912 N 285.273 -1.31445 -0.869486 0
M  V30 2913 C 286.689 -1.10113 -1.15531 0
M  V30 2914 C 286.889 0.128087 -2.01092 0
M  V30 2915 O 285.945 0.817276 -2.38908 0
M  V30 2916 C 287.258 -2.37291 -1.84698 0
M  V30 2917 C 288.806 -2.42906 -1.97397 0
M  V30 2918 C 289.281 -3.69967 -2.69979 0
M  V30 2919 N 290.772 -3.70864 -2.77514 0
M  V30 2920 C 291.507 -4.65875 -3.34287 0
M  V30 2921 N 291.003 -5.71242 -3.91988 0
M  V30 2922 N 292.796 -4.53394 -3.3225 0
M  V30 2923 H 284.947 -2.1028 -0.299347 0
M  V30 2924 H 287.21 -0.927683 -0.195214 0
M  V30 2925 H 286.916 -3.27078 -1.29278 0
M  V30 2926 H 286.79 -2.47125 -2.84972 0
M  V30 2927 H 289.177 -1.53588 -2.51982 0
M  V30 2928 H 289.258 -2.37036 -0.961643 0
M  V30 2929 H 288.902 -4.59652 -2.16062 0
M  V30 2930 H 288.832 -3.73103 -3.7162 0
M  V30 2931 H 291.323 -2.94697 -2.36563 0
M  V30 2932 H 291.636 -6.39817 -4.33421 0
M  V30 2933 H 289.981 -5.75015 -3.90362 0
M  V30 2934 H 293.172 -3.70252 -2.8641 0
M  V30 2935 H 293.345 -5.27617 -3.76197 0
M  V30 2936 N 286.751 1.08385 -1.14413 0
M  V30 2937 C 287.998 1.80776 -0.912482 0
M  V30 2938 C 288.326 1.86236 0.560934 0
M  V30 2939 O 287.581 1.33431 1.43159 0
M  V30 2940 C 287.88 3.26273 -1.45879 0
M  V30 2941 C 287.546 3.4093 -2.95089 0
M  V30 2942 C 286.208 3.44638 -3.35824 0
M  V30 2943 C 288.56 3.44591 -3.91033 0
M  V30 2944 C 285.888 3.49597 -4.71167 0
M  V30 2945 C 288.24 3.51086 -5.26233 0
M  V30 2946 C 286.904 3.53067 -5.6648 0
M  V30 2947 H 286.174 0.661507 -0.333901 0
M  V30 2948 H 288.821 1.27613 -1.42784 0
M  V30 2949 H 287.126 3.82146 -0.864376 0
M  V30 2950 H 288.823 3.80839 -1.2555 0
M  V30 2951 H 285.413 3.38736 -2.62594 0
M  V30 2952 H 289.597 3.40957 -3.60641 0
M  V30 2953 H 284.853 3.49424 -5.0171 0
M  V30 2954 H 289.027 3.52864 -6.00383 0
M  V30 2955 H 286.654 3.56662 -6.71339 0
M  V30 2956 N 288.23 0.939286 1.26551 0
M  V30 2957 C 289.14 0.453432 2.30176 0
M  V30 2958 C 290.156 -0.471649 1.67486 0
M  V30 2959 O 291.332 -0.35164 1.98306 0
M  V30 2960 C 288.397 -0.275326 3.45605 0
M  V30 2961 C 287.458 0.686084 4.23782 0
M  V30 2962 C 286.691 -0.00798994 5.33699 0
M  V30 2963 O 286.914 -1.22528 5.57085 0
M  V30 2964 O 285.848 0.669746 5.98162 0
M  V30 2965 H 289.674 1.31416 2.73795 0
M  V30 2966 H 287.259 0.705095 1.31715 0
M  V30 2967 H 289.141 -0.685911 4.1578 0
M  V30 2968 H 287.816 -1.11147 3.0402 0
M  V30 2969 H 286.723 1.14658 3.56096 0
M  V30 2970 H 288.056 1.48979 4.69112 0
M  V30 2971 N 289.708 -1.40897 0.706093 0
M  V30 2972 C 290.954 -2.01352 0.241889 0
M  V30 2973 C 291.287 -1.55832 -1.15888 0
M  V30 2974 O 290.562 -0.774145 -1.7843 0
M  V30 2975 C 290.845 -3.58752 0.311311 0
M  V30 2976 C 290.698 -4.1437 1.74978 0
M  V30 2977 C 292.017 -4.38914 -0.322922 0
M  V30 2978 H 289.136 -0.731562 0.0893687 0
M  V30 2979 H 291.778 -1.67504 0.896802 0
M  V30 2980 H 289.928 -3.87718 -0.246302 0
M  V30 2981 H 291.6 -3.96239 2.36205 0
M  V30 2982 H 289.843 -3.69016 2.28057 0
M  V30 2983 H 290.514 -5.23532 1.74981 0
M  V30 2984 H 292.99 -4.15822 0.152089 0
M  V30 2985 H 291.866 -5.48358 -0.243855 0
M  V30 2986 H 292.127 -4.19176 -1.40513 0
M  V30 2987 N 291.186 -0.45159 -1.50991 0
M  V30 2988 C 292.597 0.00818571 -1.86698 0
M  V30 2989 C 292.948 1.40661 -1.3678 0
M  V30 2990 O 292.073 2.0391 -0.724546 0
M  V30 2991 C 292.668 0.0216303 -3.38793 0
M  V30 2992 C 291.227 0.425865 -3.73983 0
M  V30 2993 C 290.374 -0.372163 -2.74791 0
M  V30 2994 H 293.325 -0.666785 -1.44013 0
M  V30 2995 H 293.346 0.828078 -3.7138 0
M  V30 2996 H 292.858 -0.996288 -3.75094 0
M  V30 2997 H 290.959 1.44886 -3.43277 0
M  V30 2998 H 291.072 0.140761 -4.78893 0
M  V30 2999 H 289.436 0.171498 -2.54122 0
M  V30 3000 H 290.219 -1.38922 -3.13935 0
M  V30 3001 N 292.664 1.56529 -0.183458 0
M  V30 3002 C 293.614 2.1515 0.754605 0
M  V30 3003 C 294.598 1.08904 1.18443 0
M  V30 3004 O 295.79 1.34997 1.14476 0
M  V30 3005 C 292.919 2.80531 1.97881 0
M  V30 3006 C 292.005 3.93952 1.57043 0
M  V30 3007 N 292.396 4.98221 0.87231 0
M  V30 3008 C 290.694 4.05338 1.86057 0
M  V30 3009 C 291.395 5.77836 0.669377 0
M  V30 3010 N 290.371 5.29858 1.21454 0
M  V30 3011 H 294.173 2.93132 0.212387 0
M  V30 3012 H 291.687 1.62391 0.0167725 0
M  V30 3013 H 293.684 3.20914 2.6612 0
M  V30 3014 H 292.344 2.04035 2.52586 0
M  V30 3015 H 293.355 5.15191 0.529033 0
M  V30 3016 H 290.032 3.39957 2.42354 0
M  V30 3017 H 291.422 6.71799 0.116422 0
M  V30 3018 N 294.142 -0.090211 1.57342 0
M  V30 3019 C 295.052 -1.12735 2.05738 0
M  V30 3020 C 296.068 -1.43557 0.983231 0
M  V30 3021 O 297.244 -1.54101 1.29672 0
M  V30 3022 C 294.309 -2.42659 2.47624 0
M  V30 3023 C 293.37 -2.18975 3.69254 0
M  V30 3024 C 292.603 -3.42704 4.09133 0
M  V30 3025 O 292.826 -4.51127 3.49057 0
M  V30 3026 O 291.76 -3.32003 5.02053 0
M  V30 3027 H 295.586 -0.746279 2.94388 0
M  V30 3028 H 293.171 -0.303064 1.46294 0
M  V30 3029 H 295.053 -3.19155 2.7517 0
M  V30 3030 H 293.728 -2.80182 1.62109 0
M  V30 3031 H 292.635 -1.40244 3.46818 0
M  V30 3032 H 293.968 -1.86342 4.55563 0
M  V30 3033 N 295.62 -1.53406 -0.361157 0
M  V30 3034 C 296.57 -1.76536 -1.44287 0
M  V30 3035 C 297.554 -0.620019 -1.48474 0
M  V30 3036 O 298.746 -0.878834 -1.53641 0
M  V30 3037 C 295.875 -1.96266 -2.81664 0
M  V30 3038 C 294.961 -3.16815 -2.81938 0
M  V30 3039 N 295.352 -4.38637 -2.51855 0
M  V30 3040 C 293.65 -3.17627 -3.13096 0
M  V30 3041 C 294.351 -5.20401 -2.59919 0
M  V30 3042 N 293.327 -4.56712 -2.94814 0
M  V30 3043 H 297.129 -2.68331 -1.19899 0
M  V30 3044 H 294.643 -1.52091 -0.56938 0
M  V30 3045 H 296.64 -2.10966 -3.59582 0
M  V30 3046 H 295.3 -1.05702 -3.07013 0
M  V30 3047 H 296.311 -4.66293 -2.25369 0
M  V30 3048 H 292.988 -2.36971 -3.43731 0
M  V30 3049 H 294.378 -6.27586 -2.39969 0
M  V30 3050 N 297.098 0.621204 -1.44841 0
M  V30 3051 C 298.344 1.3826 -1.48365 0
M  V30 3052 C 298.677 1.93831 -0.119624 0
M  V30 3053 O 297.952 1.74251 0.864111 0
M  V30 3054 C 298.235 2.54058 -2.55199 0
M  V30 3055 C 298.088 2.03772 -4.00995 0
M  V30 3056 C 299.407 3.56225 -2.58442 0
M  V30 3057 H 296.526 0.501374 -0.540179 0
M  V30 3058 H 299.168 0.7015 -1.76576 0
M  V30 3059 H 297.318 3.12162 -2.31274 0
M  V30 3060 H 298.99 1.50423 -4.36086 0
M  V30 3061 H 297.233 1.34876 -4.12299 0
M  V30 3062 H 297.904 2.87185 -4.71411 0
M  V30 3063 H 300.38 3.07939 -2.79844 0
M  V30 3064 H 299.256 4.34756 -3.3508 0
M  V30 3065 H 299.517 4.10949 -1.63013 0
M  V30 3066 N 298.576 1.31904 0.862503 0
M  V30 3067 C 299.508 1.16005 1.97675 0
M  V30 3068 C 300.521 0.0971234 1.6251 0
M  V30 3069 O 301.71 0.345337 1.75128 0
M  V30 3070 C 298.81 0.751791 3.30456 0
M  V30 3071 C 297.983 1.90133 3.93914 0
M  V30 3072 C 297.042 1.4779 5.05019 0
M  V30 3073 O 296.068 2.18872 5.25437 0
M  V30 3074 N 297.27 0.369491 5.79323 0
M  V30 3075 H 300.035 2.11982 2.11857 0
M  V30 3076 H 297.596 1.24337 1.03691 0
M  V30 3077 H 299.588 0.451084 4.02178 0
M  V30 3078 H 298.158 -0.116593 3.12382 0
M  V30 3079 H 297.378 2.36896 3.15078 0
M  V30 3080 H 298.666 2.67111 4.33047 0
M  V30 3081 H 298.064 -0.222299 5.65263 0
M  V30 3082 H 296.621 0.128354 6.51674 0
M  V30 3083 N 300.054 -1.07777 1.14986 0
M  V30 3084 C 301.279 -1.84558 0.946213 0
M  V30 3085 C 301.704 -1.81323 -0.500362 0
M  V30 3086 O 301.062 -1.20301 -1.35637 0
M  V30 3087 C 301.11 -3.29736 1.45968 0
M  V30 3088 O 300.214 -4.07149 0.65601 0
M  V30 3089 H 299.555 -0.571641 0.33782 0
M  V30 3090 H 302.085 -1.35991 1.52865 0
M  V30 3091 H 302.095 -3.80574 1.47063 0
M  V30 3092 H 300.77 -3.31406 2.51283 0
M  V30 3093 H 299.347 -3.65994 0.714322 0
M  V30 3094 N 301.532 -0.945985 -1.26051 0
M  V30 3095 C 302.779 -0.596118 -1.93527 0
M  V30 3096 C 303.107 0.865559 -1.74179 0
M  V30 3097 O 302.362 1.63524 -1.0751 0
M  V30 3098 C 302.661 -0.890475 -3.46129 0
M  V30 3099 C 302.327 -2.3368 -3.85622 0
M  V30 3100 C 300.989 -2.73216 -3.96114 0
M  V30 3101 C 303.341 -3.27648 -4.05334 0
M  V30 3102 C 300.669 -4.05806 -4.2372 0
M  V30 3103 C 303.021 -4.59841 -4.3443 0
M  V30 3104 C 301.685 -4.99185 -4.43137 0
M  V30 3105 H 300.955 -0.218135 -0.708165 0
M  V30 3106 H 303.602 -1.1934 -1.49768 0
M  V30 3107 H 301.907 -0.210711 -3.91233 0
M  V30 3108 H 303.604 -0.598478 -3.96509 0
M  V30 3109 H 300.194 -2.02015 -3.78005 0
M  V30 3110 H 304.378 -2.98298 -3.96651 0
M  V30 3111 H 299.634 -4.35945 -4.28675 0
M  V30 3112 H 303.808 -5.32641 -4.48628 0
M  V30 3113 H 301.435 -6.01952 -4.64282 0
M  V30 3114 N 303.011 1.40521 -0.713556 0
M  V30 3115 C 304.236 2.05759 -0.26035 0
M  V30 3116 C 304.661 1.53403 1.08854 0
M  V30 3117 O 304.019 0.668535 1.68524 0
M  V30 3118 C 304.067 3.59745 -0.248122 0
M  V30 3119 O 303.171 4.05123 0.77131 0
M  V30 3120 H 302.512 0.652564 -0.122703 0
M  V30 3121 H 305.042 1.79958 -0.973467 0
M  V30 3122 H 305.052 4.07911 -0.0851129 0
M  V30 3123 H 303.727 3.97218 -1.2325 0
M  V30 3124 H 302.304 3.68422 0.57619 0
M  V30 3125 N 304.489 0.459591 1.5075 0
M  V30 3126 C 305.737 -0.0991532 2.01857 0
M  V30 3127 C 306.058 -1.41247 1.34441 0
M  V30 3128 O 305.328 -1.89775 0.486022 0
M  V30 3129 H 303.908 -0.039633 0.745948 0
M  V30 3130 H 306.57 0.607387 1.85194 0
M  V30 3131 H 305.666 -0.258998 3.11023 0
M  V30 3132 N 305.967 -1.56429 0.191757 0
M  V30 3133 C 306.915 -2.20273 -0.747174 0
M  V30 3134 C 307.909 -1.17288 -1.22229 0
M  V30 3135 O 309.115 -1.35441 -1.18557 0
M  V30 3136 H 305.49 -0.705885 -0.259289 0
M  V30 3137 H 307.461 -2.97826 -0.184963 0
M  V30 3138 C 306.21 -2.87356 -1.95759 0
M  V30 3139 H 305.533 -3.66341 -1.60106 0
M  V30 3140 H 306.973 -3.3547 -2.59299 0
M  V30 3141 C 305.432 -1.88213 -2.79423 0
M  V30 3142 O 305.962 -1.38033 -3.7724 0
M  V30 3143 N 304.168 -1.56516 -2.44849 0
M  V30 3144 H 303.715 -1.97516 -1.65364 0
M  V30 3145 H 303.673 -0.904369 -3.01112 0
M  V30 3146 N 307.445 0.0818655 -1.57387 0
M  V30 3147 C 308.408 1.08265 -2.02018 0
M  V30 3148 C 309.408 1.32183 -0.915664 0
M  V30 3149 O 310.598 1.28073 -1.18081 0
M  V30 3150 C 307.73 2.42871 -2.39221 0
M  V30 3151 H 308.923 0.698204 -2.91659 0
M  V30 3152 H 306.476 0.327303 -1.52835 0
M  V30 3153 H 307.211 2.86167 -1.52575 0
M  V30 3154 H 306.996 2.26855 -3.19811 0
M  V30 3155 H 308.486 3.14826 -2.74362 0
M  V30 3156 N 308.923 1.53595 0.353017 0
M  V30 3157 C 309.886 1.80232 1.41594 0
M  V30 3158 C 310.886 0.673081 1.46035 0
M  V30 3159 O 312.076 0.941335 1.46576 0
M  V30 3160 C 309.208 1.93578 2.80607 0
M  V30 3161 H 310.401 2.75174 1.19244 0
M  V30 3162 H 307.954 1.44864 0.586872 0
M  V30 3163 H 308.689 1.00746 3.08254 0
M  V30 3164 H 308.474 2.75724 2.78781 0
M  V30 3165 H 309.964 2.15735 3.57558 0
M  V30 3166 N 310.401 -0.613514 1.45168 0
M  V30 3167 C 311.364 -1.7065 1.53007 0
M  V30 3168 C 312.364 -1.5548 0.410184 0
M  V30 3169 O 313.554 -1.60656 0.673455 0
M  V30 3170 C 310.686 -3.09875 1.42093 0
M  V30 3171 H 311.879 -1.65068 2.50385 0
M  V30 3172 H 309.432 -0.828728 1.32521 0
M  V30 3173 H 310.167 -3.21039 0.458769 0
M  V30 3174 H 309.952 -3.22293 2.23315 0
M  V30 3175 H 311.442 -3.895 1.50598 0
M  V30 3176 N 311.879 -1.3236 -0.855495 0
M  V30 3177 C 313.104 -1.2601 -1.64731 0
M  V30 3178 C 313.529 0.169068 -1.87339 0
M  V30 3179 O 312.887 1.12016 -1.42556 0
M  V30 3180 C 312.935 -2.02417 -2.98429 0
M  V30 3181 O 312.039 -1.3714 -3.8893 0
M  V30 3182 H 311.38 -0.434325 -0.502253 0
M  V30 3183 H 313.91 -1.74661 -1.06558 0
M  V30 3184 H 313.92 -2.12559 -3.48257 0
M  V30 3185 H 312.595 -3.06343 -2.81295 0
M  V30 3186 H 311.172 -1.3554 -3.47395 0
M  V30 3187 N 313.357 1.07166 -1.15556 0
M  V30 3188 C 314.287 2.16403 -0.877046 0
M  V30 3189 C 315.268 1.69217 0.173111 0
M  V30 3190 O 316.453 1.94181 0.027084 0
M  V30 3191 C 313.583 3.45349 -0.367632 0
M  V30 3192 C 312.537 4.05995 -1.35468 0
M  V30 3193 C 311.863 5.30045 -0.704038 0
M  V30 3194 C 313.163 4.45804 -2.72132 0
M  V30 3195 H 314.857 2.39959 -1.79053 0
M  V30 3196 H 312.403 1.15325 -0.862331 0
M  V30 3197 H 314.356 4.21095 -0.160317 0
M  V30 3198 H 313.08 3.21385 0.581326 0
M  V30 3199 H 311.739 3.32296 -1.54839 0
M  V30 3200 H 311.387 5.02373 0.251128 0
M  V30 3201 H 311.087 5.71579 -1.36277 0
M  V30 3202 H 312.611 6.08495 -0.50654 0
M  V30 3203 H 314.025 5.12671 -2.56595 0
M  V30 3204 H 312.422 4.98296 -3.34397 0
M  V30 3205 H 313.492 3.57083 -3.28054 0
M  V30 3206 N 314.835 0.952656 1.25548 0
M  V30 3207 C 316.063 0.623496 1.97282 0
M  V30 3208 C 316.478 -0.803987 1.70826 0
M  V30 3209 O 315.835 -1.53755 0.983147 0
M  V30 3210 C 315.886 0.870209 3.5087 0
M  V30 3211 O 315.607 2.24156 3.76412 0
M  V30 3212 C 317.108 0.553164 4.39835 0
M  V30 3213 H 314.328 0.233931 0.628902 0
M  V30 3214 H 316.872 1.27649 1.59768 0
M  V30 3215 H 315.027 0.263652 3.86502 0
M  V30 3216 H 315.441 2.31021 4.70882 0
M  V30 3217 H 316.915 0.776342 5.46513 0
M  V30 3218 H 317.392 -0.512215 4.36203 0
M  V30 3219 H 317.998 1.13896 4.09766 0
M  V30 3220 N 316.313 -1.40141 0.720998 0
M  V30 3221 C 317.543 -2.04798 0.27226 0
M  V30 3222 C 317.951 -1.54442 -1.09289 0
M  V30 3223 O 317.294 -0.698342 -1.69908 0
M  V30 3224 C 317.356 -3.59048 0.18027 0
M  V30 3225 C 317.02 -4.32317 1.48159 0
M  V30 3226 C 318.017 -4.59902 2.42458 0
M  V30 3227 C 315.702 -4.71125 1.74202 0
M  V30 3228 C 317.696 -5.25288 3.61042 0
M  V30 3229 C 315.383 -5.36242 2.93066 0
M  V30 3230 C 316.381 -5.63254 3.86308 0
M  V30 3231 O 316.069 -6.27024 5.03086 0
M  V30 3232 H 315.801 -0.665419 0.119139 0
M  V30 3233 H 318.355 -1.80436 0.981432 0
M  V30 3234 H 316.585 -3.82251 -0.58489 0
M  V30 3235 H 318.274 -4.05221 -0.234618 0
M  V30 3236 H 319.04 -4.30379 2.23604 0
M  V30 3237 H 314.919 -4.49466 1.02477 0
M  V30 3238 H 318.463 -5.46289 4.33837 0
M  V30 3239 H 314.36 -5.65185 3.11826 0
M  V30 3240 H 315.128 -6.4552 5.03235 0
M  V30 3241 N 317.792 -0.46758 -1.50504 0
M  V30 3242 C 318.724 0.364655 -2.26281 0
M  V30 3243 C 319.737 0.960151 -1.31472 0
M  V30 3244 O 320.926 0.849153 -1.57008 0
M  V30 3245 C 318.026 1.52509 -3.02645 0
M  V30 3246 C 317.199 1.04302 -4.24782 0
M  V30 3247 C 316.258 2.07709 -4.8347 0
M  V30 3248 O 315.284 1.65913 -5.44483 0
M  V30 3249 N 316.486 3.40485 -4.70159 0
M  V30 3250 H 319.251 -0.28495 -2.98342 0
M  V30 3251 H 316.812 -0.298163 -1.59131 0
M  V30 3252 H 318.804 2.21371 -3.38787 0
M  V30 3253 H 317.374 2.07945 -2.33404 0
M  V30 3254 H 316.594 0.180393 -3.93787 0
M  V30 3255 H 317.882 0.698798 -5.03978 0
M  V30 3256 H 317.28 3.77155 -4.21629 0
M  V30 3257 H 315.837 4.05156 -5.1058 0
M  V30 3258 N 319.27 1.56325 -0.20005 0
M  V30 3259 C 320.516 1.98012 0.438059 0
M  V30 3260 C 320.849 1.08702 1.60927 0
M  V30 3261 O 320.124 0.140064 1.93995 0
M  V30 3262 C 320.407 3.48841 0.893419 0
M  V30 3263 C 320.26 4.48928 -0.279947 0
M  V30 3264 C 321.579 4.03498 1.75719 0
M  V30 3265 H 318.698 0.719918 0.157757 0
M  V30 3266 H 321.34 1.87743 -0.291968 0
M  V30 3267 H 319.49 3.57723 1.51547 0
M  V30 3268 H 321.162 4.52079 -0.91772 0
M  V30 3269 H 319.405 4.23694 -0.930919 0
M  V30 3270 H 320.076 5.5194 0.0812601 0
M  V30 3271 H 322.552 3.97427 1.23253 0
M  V30 3272 H 321.428 5.09393 2.04476 0
M  V30 3273 H 321.689 3.4906 2.71311 0
M  V30 3274 N 320.748 -0.0735177 1.57428 0
M  V30 3275 C 321.658 -1.10547 2.06922 0
M  V30 3276 C 322.674 -1.42506 0.998402 0
M  V30 3277 O 323.85 -1.52717 1.31299 0
M  V30 3278 C 320.915 -2.40019 2.50184 0
M  V30 3279 C 319.976 -2.15046 3.71556 0
M  V30 3280 C 319.209 -3.38345 4.12745 0
M  V30 3281 O 319.432 -4.47399 3.53822 0
M  V30 3282 O 318.366 -3.2666 5.05546 0
M  V30 3283 H 322.192 -0.715013 2.95163 0
M  V30 3284 H 319.777 -0.287531 1.46607 0
M  V30 3285 H 321.659 -3.16218 2.78539 0
M  V30 3286 H 320.334 -2.78447 1.65072 0
M  V30 3287 H 319.241 -1.36558 3.48285 0
M  V30 3288 H 320.574 -1.81499 4.57514 0
M  V30 3289 N 322.226 -1.5378 -0.344866 0
M  V30 3290 C 323.475 -1.7018 -1.08267 0
M  V30 3291 C 323.788 -0.471 -1.89845 0
M  V30 3292 O 324.994 -0.515917 -2.66553 0
M  V30 3293 C 323.45 -3.00923 -1.97417 0
M  V30 3294 C 323.058 -4.31335 -1.21053 0
M  V30 3295 C 324.802 -3.26688 -2.71063 0
M  V30 3296 C 322.709 -5.53153 -2.09225 0
M  V30 3297 H 321.639 -0.634138 -0.407903 0
M  V30 3298 H 324.29 -1.8028 -0.342246 0
M  V30 3299 H 322.672 -2.84676 -2.75274 0
M  V30 3300 H 323.846 -4.58281 -0.481159 0
M  V30 3301 H 322.161 -4.12173 -0.591813 0
M  V30 3302 H 324.758 -4.1489 -3.37299 0
M  V30 3303 H 325.101 -2.43639 -3.37558 0
M  V30 3304 H 325.634 -3.43705 -2.0028 0
M  V30 3305 H 322.373 -6.38741 -1.47274 0
M  V30 3306 H 321.893 -5.30458 -2.79955 0
M  V30 3307 H 323.572 -5.88744 -2.68308 0
M  V30 3308 N 323.704 0.605807 -1.45491 0
M  V30 3309 C 324.929 1.39625 -1.53361 0
M  V30 3310 C 325.354 1.87351 -0.167645 0
M  V30 3311 O 324.712 1.60243 0.848051 0
M  V30 3312 C 324.76 2.57559 -2.5238 0
M  V30 3313 O 323.864 3.58248 -2.04285 0
M  V30 3314 H 323.205 0.416771 -0.516912 0
M  V30 3315 H 325.735 0.737103 -1.90861 0
M  V30 3316 H 325.745 3.0478 -2.71244 0
M  V30 3317 H 324.42 2.22171 -3.51586 0
M  V30 3318 H 322.997 3.17664 -1.95305 0
M  V30 3319 N 325.182 1.32811 0.848464 0
M  V30 3320 C 326.598 1.11937 1.13764 0
M  V30 3321 C 326.798 -0.0960789 2.01271 0
M  V30 3322 O 325.854 -0.779165 2.40178 0
M  V30 3323 C 327.167 2.402 1.809 0
M  V30 3324 C 328.715 2.46016 1.93508 0
M  V30 3325 C 329.19 3.74215 2.64059 0
M  V30 3326 N 330.681 3.75232 2.71579 0
M  V30 3327 C 331.416 4.71134 3.26833 0
M  V30 3328 N 330.912 5.77406 3.8285 0
M  V30 3329 N 332.705 4.58623 3.24995 0
M  V30 3330 H 324.856 2.1073 0.265855 0
M  V30 3331 H 327.119 0.930671 0.180431 0
M  V30 3332 H 326.825 3.29093 1.24058 0
M  V30 3333 H 326.699 2.51628 2.81004 0
M  V30 3334 H 329.086 1.57577 2.49506 0
M  V30 3335 H 329.167 2.38536 0.923811 0
M  V30 3336 H 328.811 4.63031 2.08722 0
M  V30 3337 H 328.741 3.78968 3.65637 0
M  V30 3338 H 331.232 2.98423 2.31845 0
M  V30 3339 H 331.545 6.46632 4.23187 0
M  V30 3340 H 329.89 5.81152 3.81165 0
M  V30 3341 H 333.081 3.74762 2.80484 0
M  V30 3342 H 333.254 5.33535 3.67756 0
M  V30 3343 N 326.66 -1.06551 1.16123 0
M  V30 3344 C 327.592 -2.13908 0.823171 0
M  V30 3345 C 328.605 -1.61926 -0.16843 0
M  V30 3346 O 329.794 -1.78412 0.055962 0
M  V30 3347 C 326.894 -3.38283 0.204424 0
M  V30 3348 C 326.067 -4.19589 1.23548 0
M  V30 3349 C 325.126 -5.2233 0.637011 0
M  V30 3350 O 324.152 -5.54034 1.30516 0
M  V30 3351 N 325.354 -5.77621 -0.577474 0
M  V30 3352 H 328.119 -2.43508 1.74711 0
M  V30 3353 H 325.68 -1.2253 1.05821 0
M  V30 3354 H 327.672 -4.0416 -0.208909 0
M  V30 3355 H 326.242 -3.06329 -0.623012 0
M  V30 3356 H 325.462 -3.49406 1.82507 0
M  V30 3357 H 326.75 -4.70718 1.93137 0
M  V30 3358 H 326.148 -5.54125 -1.13853 0
M  V30 3359 H 324.705 -6.45087 -0.933053 0
M  V30 3360 N 328.138 -0.959301 -1.25041 0
M  V30 3361 C 329.549 -0.65667 -1.74771 0
M  V30 3362 C 329.9 0.827852 -1.77879 0
M  V30 3363 O 329.025 1.64783 -1.40269 0
M  V30 3364 C 329.62 -1.1853 -3.1739 0
M  V30 3365 C 328.179 -0.932734 -3.6466 0
M  V30 3366 C 327.326 -1.32558 -2.43564 0
M  V30 3367 H 330.277 -1.13558 -1.10862 0
M  V30 3368 H 330.298 -0.547582 -3.76539 0
M  V30 3369 H 329.81 -2.26576 -3.15095 0
M  V30 3370 H 327.911 0.13257 -3.72364 0
M  V30 3371 H 328.024 -1.57248 -4.52559 0
M  V30 3372 H 326.388 -0.743956 -2.43593 0
M  V30 3373 H 327.171 -2.41537 -2.43957 0
M  V30 3374 N 329.616 1.39756 -0.72842 0
M  V30 3375 C 330.863 2.00645 -0.273487 0
M  V30 3376 C 331.191 1.57786 1.13727 0
M  V30 3377 O 330.446 0.794886 1.7883 0
M  V30 3378 C 330.745 3.56002 -0.315776 0
M  V30 3379 C 330.411 4.18489 -1.67863 0
M  V30 3380 C 329.073 4.3527 -2.05166 0
M  V30 3381 C 331.425 4.53219 -2.57375 0
M  V30 3382 C 328.753 4.84069 -3.31503 0
M  V30 3383 C 331.105 5.03423 -3.83077 0
M  V30 3384 C 329.769 5.18413 -4.20481 0
M  V30 3385 H 329.039 0.734211 -0.100076 0
M  V30 3386 H 331.686 1.6718 -0.933972 0
M  V30 3387 H 329.991 3.89452 0.428285 0
M  V30 3388 H 331.688 4.00963 0.0542575 0
M  V30 3389 H 328.278 4.05824 -1.37858 0
M  V30 3390 H 332.462 4.39878 -2.29827 0
M  V30 3391 H 327.718 4.93859 -3.60435 0
M  V30 3392 H 331.892 5.2927 -4.52599 0
M  V30 3393 H 329.519 5.55987 -5.18443 0
M  V30 3394 N 331.094 0.475555 1.50254 0
M  V30 3395 C 332.319 -0.0777042 2.07254 0
M  V30 3396 C 332.744 -1.3235 1.3366 0
M  V30 3397 O 332.102 -1.77152 0.385597 0
M  V30 3398 C 332.15 -0.340169 3.58992 0
M  V30 3399 O 331.254 -1.41982 3.87188 0
M  V30 3400 H 330.595 0.0149556 0.663832 0
M  V30 3401 H 333.125 0.667878 1.93392 0
M  V30 3402 H 333.135 -0.579332 4.03866 0
M  V30 3403 H 331.81 0.570167 4.11973 0
M  V30 3404 H 330.387 -1.16762 3.54148 0
M  V30 3405 N 332.573 -1.56217 0.208337 0
M  V30 3406 C 333.822 -1.97124 -0.427204 0
M  V30 3407 C 334.135 -1.09859 -1.61835 0
M  V30 3408 O 335.341 -1.40606 -2.32255 0
M  V30 3409 C 333.797 -3.50633 -0.811442 0
M  V30 3410 C 333.405 -4.46582 0.35615 0
M  V30 3411 C 335.149 -4.00282 -1.41332 0
M  V30 3412 C 333.056 -5.91379 -0.0497852 0
M  V30 3413 H 331.986 -0.736086 -0.163381 0
M  V30 3414 H 334.637 -1.8099 0.302456 0
M  V30 3415 H 333.019 -3.62319 -1.59815 0
M  V30 3416 H 334.193 -4.46636 1.1337 0
M  V30 3417 H 332.508 -4.07202 0.870396 0
M  V30 3418 H 335.105 -5.0595 -1.72972 0
M  V30 3419 H 335.448 -3.45359 -2.32449 0
M  V30 3420 H 335.981 -3.91764 -0.690323 0
M  V30 3421 H 332.72 -6.50255 0.827529 0
M  V30 3422 H 332.24 -5.94549 -0.791926 0
M  V30 3423 H 333.919 -6.45209 -0.481042 0
M  V30 3424 N 334.051 0.0651679 -1.57465 0
M  V30 3425 C 334.998 1.07675 -2.04144 0
M  V30 3426 C 335.968 1.38071 -0.923335 0
M  V30 3427 O 337.153 1.49026 -1.19146 0
M  V30 3428 C 334.293 2.38337 -2.49579 0
M  V30 3429 C 333.406 2.14413 -3.75035 0
M  V30 3430 C 332.541 3.38686 -4.09225 0
M  V30 3431 C 331.58 3.10156 -5.27702 0
M  V30 3432 N 330.717 4.26778 -5.57499 0
M  V30 3433 H 335.557 0.671716 -2.90331 0
M  V30 3434 H 333.094 0.3201 -1.43575 0
M  V30 3435 H 335.052 3.14632 -2.73975 0
M  V30 3436 H 333.682 2.7663 -1.6636 0
M  V30 3437 H 332.734 1.2878 -3.57939 0
M  V30 3438 H 334.046 1.89344 -4.61466 0
M  V30 3439 H 333.2 4.23373 -4.34558 0
M  V30 3440 H 331.939 3.66837 -3.21374 0
M  V30 3441 H 330.944 2.23866 -5.02159 0
M  V30 3442 H 332.169 2.8332 -6.17176 0
M  V30 3443 H 330.115 4.54948 -4.72608 0
M  V30 3444 H 330.032 4.05005 -6.38362 0
M  V30 3445 H 331.3 5.12443 -5.87386 0
M  V30 3446 N 335.529 1.53961 0.336706 0
M  V30 3447 C 336.775 1.7179 1.07777 0
M  V30 3448 C 337.108 0.483263 1.88091 0
M  V30 3449 O 336.383 -0.519747 1.87427 0
M  V30 3450 C 336.666 2.98558 2.01334 0
M  V30 3451 C 336.519 4.32245 1.24437 0
M  V30 3452 C 337.838 3.21023 3.01052 0
M  V30 3453 H 334.957 0.625089 0.390426 0
M  V30 3454 H 337.599 1.86641 0.35567 0
M  V30 3455 H 335.749 2.86028 2.62908 0
M  V30 3456 H 337.421 4.56637 0.654243 0
M  V30 3457 H 335.664 4.30344 0.546458 0
M  V30 3458 H 336.335 5.17137 1.93063 0
M  V30 3459 H 338.811 3.32929 2.49595 0
M  V30 3460 H 337.687 4.11104 3.6371 0
M  V30 3461 H 337.948 2.37637 3.72802 0
M  V30 3462 N 337.007 -0.598083 1.45811 0
M  V30 3463 C 338.235 -1.38322 1.53866 0
M  V30 3464 C 338.65 -1.87992 0.174479 0
M  V30 3465 O 338.007 -1.62756 -0.825627 0
M  V30 3466 C 338.058 -2.58125 2.53089 0
M  V30 3467 O 337.779 -2.10516 3.84206 0
M  V30 3468 C 339.28 -3.50869 2.70935 0
M  V30 3469 H 336.5 -0.423093 0.520801 0
M  V30 3470 H 339.044 -0.728527 1.91083 0
M  V30 3471 H 337.199 -3.19615 2.18917 0
M  V30 3472 H 337.613 -2.88425 4.38077 0
M  V30 3473 H 339.087 -4.31451 3.44317 0
M  V30 3474 H 339.564 -4.01822 1.77301 0
M  V30 3475 H 340.17 -2.95225 3.06141 0
M  V30 3476 N 338.485 -1.33259 -0.841409 0
M  V30 3477 C 339.901 -1.12538 -1.13169 0
M  V30 3478 C 340.101 0.0854037 -2.01319 0
M  V30 3479 O 339.157 0.766417 -2.40587 0
M  V30 3480 C 340.47 -2.41156 -1.79623 0
M  V30 3481 C 342.018 -2.47038 -1.922 0
M  V30 3482 C 342.493 -3.7561 -2.6207 0
M  V30 3483 N 343.984 -3.76667 -2.69585 0
M  V30 3484 C 344.719 -4.72861 -3.2433 0
M  V30 3485 N 344.215 -5.79428 -3.79783 0
M  V30 3486 N 346.008 -4.6034 -3.22558 0
M  V30 3487 H 338.159 -2.10868 -0.254676 0
M  V30 3488 H 340.422 -0.931615 -0.175493 0
M  V30 3489 H 340.128 -3.29747 -1.22311 0
M  V30 3490 H 340.002 -2.53114 -2.79666 0
M  V30 3491 H 342.389 -1.58898 -2.48667 0
M  V30 3492 H 342.47 -2.39022 -0.911148 0
M  V30 3493 H 342.114 -4.64131 -2.06263 0
M  V30 3494 H 342.044 -3.80902 -3.63622 0
M  V30 3495 H 344.535 -2.99648 -2.30259 0
M  V30 3496 H 344.848 -6.48867 -4.19752 0
M  V30 3497 H 343.193 -5.83166 -3.78078 0
M  V30 3498 H 346.384 -3.76244 -2.78492 0
M  V30 3499 H 346.557 -5.35478 -3.64921 0
M  V30 3500 N 339.963 1.05934 -1.16686 0
M  V30 3501 C 341.379 1.30938 -0.912542 0
M  V30 3502 C 341.579 1.96803 0.432533 0
M  V30 3503 O 340.635 2.23693 1.17123 0
M  V30 3504 C 341.948 2.18649 -2.06429 0
M  V30 3505 C 343.496 2.32055 -2.10047 0
M  V30 3506 C 343.971 3.23122 -3.24586 0
M  V30 3507 N 345.462 3.30706 -3.24327 0
M  V30 3508 C 346.197 4.01273 -4.09594 0
M  V30 3509 N 345.693 4.74332 -5.04956 0
M  V30 3510 N 347.486 3.97361 -3.97569 0
M  V30 3511 H 339.637 0.615777 -2.03278 0
M  V30 3512 H 341.9 0.334077 -0.887185 0
M  V30 3513 H 341.606 1.77534 -3.03603 0
M  V30 3514 H 341.48 3.19252 -2.00894 0
M  V30 3515 H 343.867 2.72415 -1.13464 0
M  V30 3516 H 343.948 1.31107 -2.19647 0
M  V30 3517 H 343.592 2.83477 -4.2143 0
M  V30 3518 H 343.522 4.24057 -3.12223 0
M  V30 3519 H 346.013 2.78644 -2.55276 0
M  V30 3520 H 346.326 5.25716 -5.6643 0
M  V30 3521 H 344.671 4.733 -5.08933 0
M  V30 3522 H 347.862 3.39405 -3.22369 0
M  V30 3523 H 348.035 4.52089 -4.64241 0
M  V30 3524 N 341.441 0.965919 1.2453 0
M  V30 3525 C 342.666 0.643971 1.97149 0
M  V30 3526 C 343.091 -0.779487 1.71189 0
M  V30 3527 O 342.449 -1.5288 0.974553 0
M  V30 3528 C 342.497 0.922557 3.48599 0
M  V30 3529 O 341.601 0.00707672 4.12399 0
M  V30 3530 H 340.942 0.243647 0.617683 0
M  V30 3531 H 343.472 1.29558 1.58353 0
M  V30 3532 H 343.482 0.853373 3.98976 0
M  V30 3533 H 342.157 1.95996 3.66822 0
M  V30 3534 H 340.734 0.12943 3.72675 0
M  V30 3535 N 342.919 -1.39368 0.735821 0
M  V30 3536 C 343.867 -2.32443 0.0855131 0
M  V30 3537 C 344.861 -1.53104 -0.724954 0
M  V30 3538 O 346.067 -1.68762 -0.626047 0
M  V30 3539 H 342.442 -0.751948 0.00885257 0
M  V30 3540 H 344.413 -2.84916 0.886883 0
M  V30 3541 C 343.162 -3.38206 -0.806983 0
M  V30 3542 H 342.485 -3.99335 -0.19274 0
M  V30 3543 H 343.925 -4.05779 -1.2296 0
M  V30 3544 C 342.384 -2.75321 -1.94165 0
M  V30 3545 O 342.914 -2.63231 -3.03435 0
M  V30 3546 N 341.12 -2.33396 -1.73132 0
M  V30 3547 H 340.667 -2.4343 -0.842596 0
M  V30 3548 H 340.625 -1.91661 -2.49225 0
M  V30 3549 N 344.397 -0.483516 -1.5 0
M  V30 3550 C 345.345 0.318061 -2.30415 0
M  V30 3551 C 346.339 0.978988 -1.38247 0
M  V30 3552 O 347.545 0.908673 -1.55381 0
M  V30 3553 H 343.92 0.121419 -0.742133 0
M  V30 3554 H 345.891 -0.380403 -2.95965 0
M  V30 3555 C 344.64 1.38013 -3.19136 0
M  V30 3556 H 343.963 0.880952 -3.89973 0
M  V30 3557 H 345.403 1.91332 -3.78375 0
M  V30 3558 C 343.862 2.38884 -2.37563 0
M  V30 3559 O 344.392 3.44412 -2.06744 0
M  V30 3560 N 342.598 2.10912 -1.99911 0
M  V30 3561 H 342.145 1.25118 -2.25174 0
M  V30 3562 H 342.103 2.78635 -1.45636 0
M  V30 3563 N 345.875 1.56104 -0.216619 0
M  V30 3564 C 347.291 1.58995 0.13886 0
M  V30 3565 C 347.491 1.23333 1.59346 0
M  V30 3566 O 346.547 0.966234 2.33281 0
M  V30 3567 C 347.86 3.00143 -0.182968 0
M  V30 3568 C 349.408 3.12751 -0.124807 0
M  V30 3569 C 349.883 4.56068 -0.420241 0
M  V30 3570 N 351.374 4.61723 -0.369634 0
M  V30 3571 C 352.109 5.70542 -0.571789 0
M  V30 3572 N 351.605 6.87744 -0.835453 0
M  V30 3573 N 353.398 5.59831 -0.504563 0
M  V30 3574 H 345.549 1.77562 -1.16557 0
M  V30 3575 H 347.812 0.825091 -0.466828 0
M  V30 3576 H 347.518 3.30871 -1.19237 0
M  V30 3577 H 347.392 3.73813 0.504367 0
M  V30 3578 H 349.779 2.81822 0.875223 0
M  V30 3579 H 349.86 2.41421 -0.845544 0
M  V30 3580 H 349.504 4.87713 -1.41769 0
M  V30 3581 H 349.434 5.25617 0.321631 0
M  V30 3582 H 351.925 3.77502 -0.173338 0
M  V30 3583 H 352.238 7.66587 -0.977938 0
M  V30 3584 H 350.583 6.895 -0.872592 0
M  V30 3585 H 353.774 4.67145 -0.298842 0
M  V30 3586 H 353.947 6.44573 -0.665519 0
M  V30 3587 N 347.353 -0.0568162 1.57498 0
M  V30 3588 C 348.599 -0.75422 1.88253 0
M  V30 3589 C 348.932 -1.76461 0.810865 0
M  V30 3590 O 348.207 -1.93691 -0.177259 0
M  V30 3591 C 348.49 -1.44878 3.2967 0
M  V30 3592 C 348.343 -0.453789 4.47505 0
M  V30 3593 C 349.662 -2.38994 3.69554 0
M  V30 3594 H 346.781 -0.272724 0.684683 0
M  V30 3595 H 349.423 -0.0172113 1.89992 0
M  V30 3596 H 347.573 -2.077 3.28318 0
M  V30 3597 H 349.245 0.170371 4.60985 0
M  V30 3598 H 347.488 0.229552 4.33192 0
M  V30 3599 H 348.159 -0.977699 5.43273 0
M  V30 3600 H 350.635 -1.86239 3.72095 0
M  V30 3601 H 349.511 -2.84587 4.69363 0
M  V30 3602 H 349.772 -3.24461 3.00296 0
M  V30 3603 N 348.832 -1.54138 -0.328536 0
M  V30 3604 C 349.762 -1.86167 -1.40939 0
M  V30 3605 C 350.743 -0.718044 -1.54202 0
M  V30 3606 O 351.928 -0.971328 -1.68163 0
M  V30 3607 C 349.058 -2.08461 -2.77779 0
M  V30 3608 C 348.012 -3.24299 -2.7931 0
M  V30 3609 C 347.338 -3.31955 -4.19178 0
M  V30 3610 C 348.638 -4.62065 -2.43502 0
M  V30 3611 H 350.332 -2.76689 -1.14383 0
M  V30 3612 H 347.878 -1.33132 -0.548806 0
M  V30 3613 H 349.831 -2.29453 -3.53454 0
M  V30 3614 H 348.555 -1.14684 -3.05802 0
M  V30 3615 H 347.214 -3.03187 -2.0609 0
M  V30 3616 H 346.862 -2.35745 -4.44335 0
M  V30 3617 H 346.562 -4.09805 -4.2111 0
M  V30 3618 H 348.086 -3.55175 -4.96672 0
M  V30 3619 H 349.5 -4.8297 -3.08889 0
M  V30 3620 H 347.897 -5.42429 -2.56693 0
M  V30 3621 H 348.967 -4.64652 -1.38659 0
M  V30 3622 N 350.31 0.590341 -1.46126 0
M  V30 3623 C 351.557 1.34882 -1.5104 0
M  V30 3624 C 351.885 1.93849 -0.159021 0
M  V30 3625 O 351.14 1.76544 0.844436 0
M  V30 3626 C 351.439 2.5032 -2.55097 0
M  V30 3627 C 351.105 2.09394 -3.99331 0
M  V30 3628 C 349.767 1.97947 -4.38601 0
M  V30 3629 C 352.119 1.77712 -4.89967 0
M  V30 3630 C 349.447 1.53065 -5.66381 0
M  V30 3631 C 351.799 1.34312 -6.18177 0
M  V30 3632 C 350.463 1.21436 -6.56361 0
M  V30 3633 H 349.733 0.493568 -0.552695 0
M  V30 3634 H 352.38 0.665539 -1.79563 0
M  V30 3635 H 350.685 3.24062 -2.20207 0
M  V30 3636 H 352.382 3.08541 -2.56132 0
M  V30 3637 H 348.972 2.19235 -3.68285 0
M  V30 3638 H 353.156 1.85445 -4.60352 0
M  V30 3639 H 348.412 1.41733 -5.94745 0
M  V30 3640 H 352.586 1.08849 -6.87841 0
M  V30 3641 H 350.213 0.864345 -7.5527 0
M  V30 3642 N 351.788 1.33704 0.83433 0
M  V30 3643 C 353.065 1.16011 1.57483 0
M  V30 3644 C 353.445 -0.27176 2.09343 0
M  V30 3645 O 352.793 -1.27146 1.89858 0
M  V30 3646 C 353.003 2.20507 2.70514 0
M  V30 3647 C 354.351 2.54898 3.39577 0
M  V30 3648 O 355.375 2.19209 2.80759 0
M  V30 3649 O 354.234 3.16158 4.45765 0
M  V30 3650 H 351.328 0.448992 0.694503 0
M  V30 3651 H 353.874 1.453 0.876691 0
M  V30 3652 H 352.646 3.16667 2.29865 0
M  V30 3653 H 352.269 1.92329 3.47987 0
M  V30 3654 N 353.266 -1.05314 1.17247 0
M  V30 3655 C 354.491 -1.82509 0.985148 0
M  V30 3656 C 354.916 -1.82343 -0.461788 0
M  V30 3657 O 354.274 -1.23151 -1.33055 0
M  V30 3658 C 354.322 -3.26566 1.52929 0
M  V30 3659 O 353.426 -4.05666 0.742225 0
M  V30 3660 H 352.767 -0.564347 0.349869 0
M  V30 3661 H 355.297 -1.32718 1.55715 0
M  V30 3662 H 355.307 -3.77369 1.55103 0
M  V30 3663 H 353.982 -3.26001 2.58256 0
M  V30 3664 H 352.559 -3.64397 0.791794 0
M  V30 3665 N 354.744 -0.972509 -1.24016 0
M  V30 3666 C 355.969 -0.654417 -1.96805 0
M  V30 3667 C 356.394 0.770398 -1.716 0
M  V30 3668 O 355.752 1.52361 -0.982647 0
M  V30 3669 C 355.8 -0.941031 -3.48105 0
M  V30 3670 O 354.904 -0.0289472 -4.1239 0
M  V30 3671 H 354.245 -0.24692 -0.616382 0
M  V30 3672 H 356.775 -1.30396 -1.57664 0
M  V30 3673 H 356.785 -0.87452 -3.98517 0
M  V30 3674 H 355.46 -1.97939 -3.65777 0
M  V30 3675 H 354.037 -0.149192 -3.72601 0
M  V30 3676 N 356.222 1.38976 -0.743202 0
M  V30 3677 C 357.471 1.99581 -0.291592 0
M  V30 3678 C 357.784 1.59656 1.13001 0
M  V30 3679 O 358.99 2.13157 1.68156 0
M  V30 3680 C 357.446 3.56813 -0.470391 0
M  V30 3681 C 357.054 4.05695 -1.90041 0
M  V30 3682 C 358.798 4.24423 -0.0809709 0
M  V30 3683 C 356.705 5.5553 -2.02832 0
M  V30 3684 H 355.635 0.746615 -0.105272 0
M  V30 3685 H 358.286 1.58872 -0.918258 0
M  V30 3686 H 356.668 3.95359 0.225299 0
M  V30 3687 H 357.842 3.78464 -2.62872 0
M  V30 3688 H 356.157 3.50775 -2.24379 0
M  V30 3689 H 358.754 5.34474 -0.155445 0
M  V30 3690 H 359.097 4.04962 0.96497 0
M  V30 3691 H 359.63 3.9108 -0.728124 0
M  V30 3692 H 356.369 5.79881 -3.05643 0
M  V30 3693 H 355.889 5.84537 -1.34448 0
M  V30 3694 H 357.568 6.21069 -1.81335 0
M  V30 3695 N 357.7 0.491464 1.49741 0
M  V30 3696 C 358.948 -0.0563141 2.02022 0
M  V30 3697 C 359.269 -1.38363 1.37407 0
M  V30 3698 O 358.539 -1.88702 0.526166 0
M  V30 3699 H 357.119 -0.0238014 0.746621 0
M  V30 3700 H 359.781 0.646533 1.83864 0
M  V30 3701 H 358.877 -0.192967 3.11503 0
M  V30 3702 N 359.178 -1.55987 0.224894 0
M  V30 3703 C 360.589 -1.84553 -0.282345 0
M  V30 3704 C 360.94 -1.14634 -1.59227 0
M  V30 3705 O 360.065 -0.417155 -2.12341 0
M  V30 3706 C 360.66 -3.348 -0.519062 0
M  V30 3707 C 359.219 -3.63671 -0.970604 0
M  V30 3708 C 358.366 -2.77277 -0.0355261 0
M  V30 3709 H 361.317 -1.52245 0.448006 0
M  V30 3710 H 361.338 -3.55187 -1.36463 0
M  V30 3711 H 360.85 -3.8566 0.43449 0
M  V30 3712 H 358.951 -3.1827 -1.9374 0
M  V30 3713 H 359.064 -4.71631 -0.842698 0
M  V30 3714 H 357.428 -2.48846 -0.542927 0
M  V30 3715 H 358.211 -3.30937 0.913003 0
M  V30 3716 N 360.656 0.0484629 -1.57525 0
M  V30 3717 C 361.586 1.0549 -2.08313 0
M  V30 3718 C 362.567 1.38929 -0.981463 0
M  V30 3719 O 363.752 1.48151 -1.25558 0
M  V30 3720 C 360.882 2.36162 -2.54646 0
M  V30 3721 C 359.836 2.17016 -3.68901 0
M  V30 3722 C 359.162 3.53278 -4.01371 0
M  V30 3723 C 360.462 1.57219 -4.98076 0
M  V30 3724 H 362.156 0.632195 -2.92649 0
M  V30 3725 H 359.702 0.302654 -1.40784 0
M  V30 3726 H 361.655 3.06882 -2.88793 0
M  V30 3727 H 360.379 2.80456 -1.67368 0
M  V30 3728 H 359.038 1.48733 -3.35073 0
M  V30 3729 H 358.686 3.95185 -3.11188 0
M  V30 3730 H 358.386 3.41299 -4.78318 0
M  V30 3731 H 359.91 4.25391 -4.38035 0
M  V30 3732 H 361.324 2.17832 -5.30304 0
M  V30 3733 H 359.721 1.55871 -5.79503 0
M  V30 3734 H 360.791 0.535956 -4.81929 0
M  V30 3735 N 362.134 1.5431 0.320358 0
M  V30 3736 C 363.064 1.86912 1.3995 0
M  V30 3737 C 364.045 0.726211 1.53819 0
M  V30 3738 O 365.23 0.980233 1.67646 0
M  V30 3739 C 362.36 2.09932 2.7667 0
M  V30 3740 C 361.314 3.25776 2.77586 0
M  V30 3741 C 360.64 3.34173 4.17412 0
M  V30 3742 C 361.94 4.6335 2.41048 0
M  V30 3743 H 363.634 2.77292 1.12914 0
M  V30 3744 H 361.18 1.33421 0.541738 0
M  V30 3745 H 363.133 2.31324 3.52232 0
M  V30 3746 H 361.857 1.16304 3.0519 0
M  V30 3747 H 360.516 3.04276 2.04479 0
M  V30 3748 H 360.164 2.38098 4.43078 0
M  V30 3749 H 359.864 4.12033 4.18931 0
M  V30 3750 H 361.388 3.57803 4.94782 0
M  V30 3751 H 362.802 4.84602 3.06324 0
M  V30 3752 H 361.199 5.43782 2.53813 0
M  V30 3753 H 362.269 4.65381 1.36193 0
M  V30 3754 N 363.613 -0.582584 1.46437 0
M  V30 3755 C 364.86 -1.34079 1.51753 0
M  V30 3756 C 365.188 -1.93762 0.169299 0
M  V30 3757 O 364.443 -1.76989 -0.835062 0
M  V30 3758 C 364.742 -2.48964 2.56421 0
M  V30 3759 C 364.408 -2.07273 4.00436 0
M  V30 3760 C 363.07 -1.95618 4.39644 0
M  V30 3761 C 365.422 -1.75111 4.90903 0
M  V30 3762 C 362.75 -1.5006 5.67185 0
M  V30 3763 C 365.102 -1.31032 6.18881 0
M  V30 3764 C 363.766 -1.17954 6.56996 0
M  V30 3765 H 363.036 -0.49063 0.555304 0
M  V30 3766 H 365.683 -0.656007 1.79913 0
M  V30 3767 H 363.988 -3.22889 2.21923 0
M  V30 3768 H 365.685 -3.07178 2.57765 0
M  V30 3769 H 362.275 -2.17279 3.69443 0
M  V30 3770 H 366.459 -1.83001 4.61329 0
M  V30 3771 H 361.715 -1.38577 5.95488 0
M  V30 3772 H 365.889 -1.052 6.88408 0
M  V30 3773 H 363.516 -0.824279 7.55718 0
M  V30 3774 N 365.091 -1.34144 -0.827227 0
M  V30 3775 C 366.054 -1.25264 -1.91942 0
M  V30 3776 C 367.054 -0.168866 -1.59911 0
M  V30 3777 O 368.244 -0.421198 -1.69031 0
M  V30 3778 C 365.376 -0.932952 -3.27885 0
M  V30 3779 H 366.569 -2.22357 -2.0124 0
M  V30 3780 H 364.122 -1.1837 -1.0207 0
M  V30 3781 H 364.857 0.0349917 -3.24281 0
M  V30 3782 H 364.642 -1.71682 -3.52516 0
M  V30 3783 H 366.132 -0.895874 -4.07877 0
M  V30 3784 N 366.569 1.04691 -1.17803 0
M  V30 3785 C 367.846 1.7472 -0.879328 0
M  V30 3786 C 368.226 2.01812 0.619271 0
M  V30 3787 O 367.574 1.65824 1.57209 0
M  V30 3788 C 367.784 3.03686 -1.71976 0
M  V30 3789 C 369.132 3.77542 -1.94286 0
M  V30 3790 O 370.156 3.13569 -1.68976 0
M  V30 3791 O 369.015 4.92506 -2.36855 0
M  V30 3792 H 366.109 0.760011 -0.326056 0
M  V30 3793 H 368.655 1.10813 -1.28525 0
M  V30 3794 H 367.427 2.79754 -2.73594 0
M  V30 3795 H 367.05 3.75332 -1.31194 0
M  V30 3796 N 368.047 0.979072 1.23499 0
M  V30 3797 C 368.979 0.476271 2.24197 0
M  V30 3798 C 369.992 -0.421166 1.57258 0
M  V30 3799 O 371.181 -0.225515 1.7707 0
M  V30 3800 C 368.281 -0.330503 3.37285 0
M  V30 3801 C 367.454 0.559744 4.33804 0
M  V30 3802 C 366.513 -0.192954 5.25846 0
M  V30 3803 O 365.539 0.416978 5.67671 0
M  V30 3804 N 366.741 -1.47932 5.61334 0
M  V30 3805 H 369.506 1.34211 2.67969 0
M  V30 3806 H 367.067 0.852189 1.37657 0
M  V30 3807 H 369.059 -0.842361 3.95836 0
M  V30 3808 H 367.629 -1.09734 2.92707 0
M  V30 3809 H 366.849 1.25245 3.73775 0
M  V30 3810 H 368.137 1.1665 4.95248 0
M  V30 3811 H 367.535 -1.9964 5.29302 0
M  V30 3812 H 366.092 -1.93664 6.22364 0
M  V30 3813 N 369.525 -1.3858 0.750561 0
M  V30 3814 C 370.772 -2.00184 0.305373 0
M  V30 3815 C 371.1 -1.59575 -1.11203 0
M  V30 3816 O 370.355 -0.823236 -1.77542 0
M  V30 3817 C 370.654 -3.55455 0.372373 0
M  V30 3818 C 370.32 -4.15765 1.745 0
M  V30 3819 C 368.982 -4.31951 2.12065 0
M  V30 3820 C 371.334 -4.49067 2.64553 0
M  V30 3821 C 368.662 -4.78734 3.39162 0
M  V30 3822 C 371.014 -4.97265 3.91038 0
M  V30 3823 C 369.678 -5.11658 4.28676 0
M  V30 3824 H 368.948 -0.732526 0.111744 0
M  V30 3825 H 371.595 -1.65673 0.960451 0
M  V30 3826 H 369.9 -3.90084 -0.366272 0
M  V30 3827 H 371.597 -4.00999 0.00953918 0
M  V30 3828 H 368.187 -4.03579 1.44297 0
M  V30 3829 H 372.371 -4.36166 2.36796 0
M  V30 3830 H 367.627 -4.88062 3.68246 0
M  V30 3831 H 371.801 -5.22003 4.60962 0
M  V30 3832 H 369.428 -5.47668 5.27222 0
M  V30 3833 N 371.003 -0.499398 -1.49478 0
M  V30 3834 C 371.933 0.269244 -2.31943 0
M  V30 3835 C 372.914 0.964054 -1.40143 0
M  V30 3836 O 374.099 0.955767 -1.69052 0
M  V30 3837 C 371.229 1.33504 -3.20615 0
M  V30 3838 C 370.183 0.760202 -4.21195 0
M  V30 3839 C 369.509 1.9264 -4.98792 0
M  V30 3840 C 370.809 -0.247661 -5.21712 0
M  V30 3841 H 372.503 -0.419082 -2.96452 0
M  V30 3842 H 370.049 -0.202988 -1.42562 0
M  V30 3843 H 372.002 1.88048 -3.77115 0
M  V30 3844 H 370.726 2.05253 -2.54045 0
M  V30 3845 H 369.385 0.23653 -3.65836 0
M  V30 3846 H 369.033 2.63154 -4.28671 0
M  V30 3847 H 368.733 1.54785 -5.66847 0
M  V30 3848 H 370.257 2.4762 -5.58137 0
M  V30 3849 H 371.671 0.209579 -5.72917 0
M  V30 3850 H 370.068 -0.541962 -5.97648 0
M  V30 3851 H 371.138 -1.16409 -4.7072 0
M  V30 3852 N 372.481 1.55866 -0.233164 0
M  V30 3853 C 373.413 2.18099 0.704668 0
M  V30 3854 C 374.426 1.15334 1.14899 0
M  V30 3855 O 375.615 1.42262 1.07814 0
M  V30 3856 C 372.715 2.7592 1.96777 0
M  V30 3857 C 371.888 4.03969 1.67713 0
M  V30 3858 C 370.947 4.46242 2.78845 0
M  V30 3859 O 369.973 5.12903 2.46818 0
M  V30 3860 N 371.175 4.12886 4.08051 0
M  V30 3861 H 373.94 2.99205 0.172258 0
M  V30 3862 H 371.501 1.61815 -0.0525945 0
M  V30 3863 H 373.493 3.01165 2.70337 0
M  V30 3864 H 372.063 1.99051 2.41034 0
M  V30 3865 H 371.283 3.86459 0.777391 0
M  V30 3866 H 372.571 4.8748 1.4574 0
M  V30 3867 H 371.969 3.59342 4.3691 0
M  V30 3868 H 370.526 4.42997 4.78118 0
M  V30 3869 N 373.959 -0.0401083 1.57549 0
M  V30 3870 C 374.889 -1.04384 2.08869 0
M  V30 3871 C 375.87 -1.38407 0.988817 0
M  V30 3872 O 377.055 -1.47483 1.26342 0
M  V30 3873 C 374.185 -2.34808 2.55895 0
M  V30 3874 C 373.139 -2.15057 3.70047 0
M  V30 3875 C 372.465 -3.51145 4.03239 0
M  V30 3876 C 373.765 -1.54576 4.98902 0
M  V30 3877 H 375.459 -0.616666 2.92981 0
M  V30 3878 H 373.005 -0.295184 1.40942 0
M  V30 3879 H 374.958 -3.05346 2.90417 0
M  V30 3880 H 373.682 -2.79565 1.68853 0
M  V30 3881 H 372.341 -1.46954 3.35857 0
M  V30 3882 H 371.989 -3.93529 3.13279 0
M  V30 3883 H 371.689 -3.38758 4.80122 0
M  V30 3884 H 373.213 -4.23062 4.40285 0
M  V30 3885 H 374.627 -2.15017 5.31451 0
M  V30 3886 H 373.024 -1.52796 5.80322 0
M  V30 3887 H 374.094 -0.51039 4.82206 0
M  V30 3888 N 375.437 -1.54477 -0.31217 0
M  V30 3889 C 376.662 -1.77526 -1.07235 0
M  V30 3890 C 377.087 -0.527775 -1.80544 0
M  V30 3891 O 376.445 0.52121 -1.73646 0
M  V30 3892 C 376.493 -2.97535 -2.03728 0
M  V30 3893 O 375.597 -2.69878 -3.11833 0
M  V30 3894 H 374.938 -0.58792 -0.30862 0
M  V30 3895 H 377.468 -2.01532 -0.352993 0
M  V30 3896 H 377.478 -3.25198 -2.46395 0
M  V30 3897 H 376.153 -3.87996 -1.49774 0
M  V30 3898 H 374.73 -2.53199 -2.7376 0
M  V30 3899 N 376.915 0.57481 -1.46744 0
M  V30 3900 C 378.143 1.35856 -1.56047 0
M  V30 3901 C 378.558 1.87691 -0.204365 0
M  V30 3902 O 377.915 1.64049 0.79963 0
M  V30 3903 C 377.966 2.54066 -2.57163 0
M  V30 3904 O 377.687 2.04377 -3.87507 0
M  V30 3905 C 379.188 3.46514 -2.76483 0
M  V30 3906 H 376.408 0.414754 -0.527466 0
M  V30 3907 H 378.952 0.698035 -1.92218 0
M  V30 3908 H 377.107 3.16092 -2.23974 0
M  V30 3909 H 377.521 2.81419 -4.4261 0
M  V30 3910 H 378.995 4.25919 -3.51137 0
M  V30 3911 H 379.472 3.98951 -1.83671 0
M  V30 3912 H 380.078 2.90318 -3.10799 0
M  V30 3913 N 378.394 1.34581 0.820102 0
M  V30 3914 C 379.81 1.14325 1.11364 0
M  V30 3915 C 380.01 -0.0533648 2.01429 0
M  V30 3916 O 379.066 -0.728044 2.41776 0
M  V30 3917 C 380.379 2.43983 1.75764 0
M  V30 3918 C 381.927 2.50065 1.88246 0
M  V30 3919 C 382.402 3.79732 2.56061 0
M  V30 3920 N 383.893 3.80908 2.63558 0
M  V30 3921 C 384.628 4.77961 3.16766 0
M  V30 3922 N 384.124 5.85397 3.70517 0
M  V30 3923 N 385.917 4.65413 3.15194 0
M  V30 3924 H 378.068 2.11246 0.221096 0
M  V30 3925 H 380.331 0.934289 0.160649 0
M  V30 3926 H 380.037 3.31651 1.1705 0
M  V30 3927 H 379.911 2.57531 2.75604 0
M  V30 3928 H 382.298 1.62834 2.46108 0
M  V30 3929 H 382.379 2.40442 0.873006 0
M  V30 3930 H 382.023 4.67354 1.98853 0
M  V30 3931 H 381.953 3.86639 3.57516 0
M  V30 3932 H 384.444 3.03274 2.25463 0
M  V30 3933 H 384.757 6.55463 4.09376 0
M  V30 3934 H 383.102 5.89107 3.68752 0
M  V30 3935 H 386.293 3.80627 2.72471 0
M  V30 3936 H 386.466 5.41216 3.56356 0
M  V30 3937 N 379.872 -1.04064 1.18357 0
M  V30 3938 C 380.802 -2.14001 0.934113 0
M  V30 3939 C 381.783 -1.69616 -0.128186 0
M  V30 3940 O 382.968 -1.94185 0.0244093 0
M  V30 3941 C 380.098 -3.44253 0.459066 0
M  V30 3942 C 379.052 -4.02261 1.46185 0
M  V30 3943 C 378.378 -5.27992 0.844322 0
M  V30 3944 C 379.678 -4.38432 2.83856 0
M  V30 3945 H 381.372 -2.35127 1.85352 0
M  V30 3946 H 378.918 -1.12998 0.892604 0
M  V30 3947 H 380.871 -4.20522 0.271907 0
M  V30 3948 H 379.595 -3.22813 -0.495912 0
M  V30 3949 H 378.254 -3.28074 1.63595 0
M  V30 3950 H 377.902 -5.02862 -0.117845 0
M  V30 3951 H 377.602 -5.67765 1.51384 0
M  V30 3952 H 379.126 -6.06938 0.667693 0
M  V30 3953 H 380.54 -5.05688 2.70098 0
M  V30 3954 H 378.937 -4.89254 3.47491 0
M  V30 3955 H 380.007 -3.4826 3.37406 0
M  V30 3956 N 381.35 -0.985608 -1.22978 0
M  V30 3957 C 382.761 -0.693593 -1.73338 0
M  V30 3958 C 383.112 0.789935 -1.79595 0
M  V30 3959 O 382.237 1.61771 -1.43733 0
M  V30 3960 C 382.832 -1.25235 -3.14804 0
M  V30 3961 C 381.391 -1.00987 -3.626 0
M  V30 3962 C 380.538 -1.37695 -2.40698 0
M  V30 3963 H 383.489 -1.15884 -1.08428 0
M  V30 3964 H 383.51 -0.627329 -3.75293 0
M  V30 3965 H 383.022 -2.33209 -3.10218 0
M  V30 3966 H 381.123 0.0535565 -3.72562 0
M  V30 3967 H 381.236 -1.66812 -4.49122 0
M  V30 3968 H 379.6 -0.795459 -2.4196 0
M  V30 3969 H 380.383 -2.46657 -2.38779 0
M  V30 3970 N 382.828 1.3818 -0.7579 0
M  V30 3971 C 384.053 2.04827 -0.325679 0
M  V30 3972 C 384.478 1.56788 1.03919 0
M  V30 3973 O 383.836 0.721811 1.66312 0
M  V30 3974 C 383.884 3.58774 -0.362447 0
M  V30 3975 O 382.988 4.07372 0.642033 0
M  V30 3976 H 382.329 0.64833 -0.143402 0
M  V30 3977 H 384.859 1.7677 -1.03023 0
M  V30 3978 H 384.869 4.07434 -0.214844 0
M  V30 3979 H 383.544 3.93096 -1.35824 0
M  V30 3980 H 382.121 3.70068 0.458688 0
M  V30 3981 N 384.306 0.507319 1.49211 0
M  V30 3982 C 385.534 -0.0315749 2.06876 0
M  V30 3983 C 385.949 -1.30241 1.36685 0
M  V30 3984 O 385.306 -1.76937 0.447152 0
M  V30 3985 C 385.357 -0.282627 3.60393 0
M  V30 3986 O 385.078 0.937835 4.27944 0
M  V30 3987 C 386.579 -0.864453 4.3479 0
M  V30 3988 H 383.799 0.0233048 0.670595 0
M  V30 3989 H 386.343 0.706484 1.91909 0
M  V30 3990 H 384.498 -0.97068 3.75042 0
M  V30 3991 H 384.912 0.704567 5.19746 0
M  V30 3992 H 386.386 -0.989664 5.43056 0
M  V30 3993 H 386.863 -1.86382 3.97692 0
M  V30 3994 H 387.469 -0.213672 4.24763 0
M  V30 3995 N 385.784 -1.5574 0.241426 0
M  V30 3996 C 386.732 -2.22538 -0.676718 0
M  V30 3997 C 387.726 -1.21117 -1.18436 0
M  V30 3998 O 388.932 -1.39144 -1.14188 0
M  V30 3999 H 385.307 -0.713776 -0.236701 0
M  V30 4000 H 387.278 -2.98264 -0.0901187 0
M  V30 4001 C 386.027 -2.93439 -1.86518 0
M  V30 4002 H 385.35 -3.7125 -1.4837 0
M  V30 4003 H 386.79 -3.43549 -2.48495 0
M  V30 4004 C 385.249 -1.97008 -2.73294 0
M  V30 4005 O 385.779 -1.49965 -3.72657 0
M  V30 4006 N 383.985 -1.64227 -2.39745 0
M  V30 4007 H 383.532 -2.02677 -1.58996 0
M  V30 4008 H 383.49 -0.999708 -2.98083 0
M  V30 4009 N 387.262 0.0317525 -1.57568 0
M  V30 4010 C 388.508 0.724175 -1.8943 0
M  V30 4011 C 388.841 1.75149 -0.838836 0
M  V30 4012 O 388.116 1.93948 0.146422 0
M  V30 4013 C 388.399 1.39615 -3.31933 0
M  V30 4014 C 388.252 0.382537 -4.4817 0
M  V30 4015 C 389.571 2.33084 -3.73309 0
M  V30 4016 H 386.69 0.261797 -0.688935 0
M  V30 4017 H 389.332 -0.013017 -1.89996 0
M  V30 4018 H 387.482 2.02451 -3.31581 0
M  V30 4019 H 389.154 -0.243689 -4.60656 0
M  V30 4020 H 387.397 -0.29844 -4.32772 0
M  V30 4021 H 388.068 0.891145 -5.44759 0
M  V30 4022 H 390.544 1.80295 -3.7501 0
M  V30 4023 H 389.42 2.77084 -4.73831 0
M  V30 4024 H 389.681 3.19643 -3.05419 0
M  V30 4025 N 388.74 1.54641 0.303973 0
M  V30 4026 C 389.97 1.77511 1.05705 0
M  V30 4027 C 390.378 0.533228 1.81531 0
M  V30 4028 O 389.721 -0.506423 1.76582 0
M  V30 4029 C 389.783 2.92779 2.08617 0
M  V30 4030 C 389.447 4.30977 1.52013 0
M  V30 4031 C 390.444 5.11115 0.9517 0
M  V30 4032 C 388.129 4.77571 1.55665 0
M  V30 4033 C 390.123 6.35966 0.427327 0
M  V30 4034 C 387.81 6.02384 1.02841 0
M  V30 4035 C 388.808 6.81417 0.464713 0
M  V30 4036 O 388.496 8.03881 -0.0555283 0
M  V30 4037 H 388.228 0.59579 0.319391 0
M  V30 4038 H 390.782 2.02401 0.349712 0
M  V30 4039 H 389.012 2.63506 2.83022 0
M  V30 4040 H 390.701 3.03252 2.69802 0
M  V30 4041 H 391.467 4.76264 0.916407 0
M  V30 4042 H 387.346 4.16085 1.9848 0
M  V30 4043 H 390.89 6.97599 -0.0133062 0
M  V30 4044 H 386.787 6.36723 1.06084 0
M  V30 4045 H 387.555 8.18479 0.0580522 0
M  V30 4046 N 390.218 -0.567019 1.47046 0
M  V30 4047 C 391.466 -1.322 1.52864 0
M  V30 4048 C 391.787 -1.94088 0.188388 0
M  V30 4049 O 391.057 -1.7941 -0.786693 0
M  V30 4050 H 389.637 -0.490894 0.563056 0
M  V30 4051 H 392.299 -0.662879 1.83281 0
M  V30 4052 H 391.395 -2.12062 2.2899 0
M  V30 4053 N 391.696 -1.35014 -0.812953 0
M  V30 4054 C 392.626 -1.30069 -1.93919 0
M  V30 4055 C 393.607 -0.176275 -1.69184 0
M  V30 4056 O 394.792 -0.370227 -1.90638 0
M  V30 4057 C 391.922 -1.06547 -3.30552 0
M  V30 4058 C 390.876 -2.15561 -3.69753 0
M  V30 4059 C 390.202 -1.77214 -5.04479 0
M  V30 4060 C 391.502 -3.57476 -3.808 0
M  V30 4061 H 393.196 -2.24303 -1.98314 0
M  V30 4062 H 390.742 -1.07977 -0.952736 0
M  V30 4063 H 392.695 -1.01729 -4.08937 0
M  V30 4064 H 391.419 -0.0875719 -3.26483 0
M  V30 4065 H 390.078 -2.19466 -2.9365 0
M  V30 4066 H 389.726 -0.780589 -4.96906 0
M  V30 4067 H 389.426 -2.50184 -5.31678 0
M  V30 4068 H 390.95 -1.7391 -5.8531 0
M  V30 4069 H 392.364 -3.55929 -4.4943 0
M  V30 4070 H 390.761 -4.29152 -4.19462 0
M  V30 4071 H 391.831 -3.94091 -2.82525 0
M  V30 4072 N 393.175 1.03435 -1.18907 0
M  V30 4073 C 394.423 1.76394 -0.986382 0
M  V30 4074 C 394.744 1.88883 0.484567 0
M  V30 4075 O 394.014 1.41843 1.3512 0
M  V30 4076 H 392.594 0.65344 -0.361975 0
M  V30 4077 H 395.256 1.248 -1.49703 0
M  V30 4078 H 394.352 2.77424 -1.42978 0
M  V30 4079 N 394.653 0.992116 1.22453 0
M  V30 4080 C 395.563 0.55065 2.28046 0
M  V30 4081 C 396.579 -0.400189 1.69335 0
M  V30 4082 O 397.755 -0.267215 1.99619 0
M  V30 4083 C 394.82 -0.128496 3.46462 0
M  V30 4084 C 393.881 0.865208 4.20491 0
M  V30 4085 C 393.114 0.218377 5.33253 0
M  V30 4086 O 393.337 -0.987894 5.6178 0
M  V30 4087 O 392.271 0.922845 5.94783 0
M  V30 4088 H 396.097 1.4291 2.67975 0
M  V30 4089 H 393.682 0.760326 1.28606 0
M  V30 4090 H 395.564 -0.508947 4.18315 0
M  V30 4091 H 394.239 -0.981526 3.0846 0
M  V30 4092 H 393.146 1.29658 3.50913 0
M  V30 4093 H 394.479 1.68741 4.62371 0
M  V30 4094 N 396.131 -1.37776 0.765217 0
M  V30 4095 C 397.081 -2.2768 0.12075 0
M  V30 4096 C 398.065 -1.45778 -0.680988 0
M  V30 4097 O 399.257 -1.684 -0.545033 0
M  V30 4098 C 396.386 -3.34722 -0.762626 0
M  V30 4099 C 395.472 -4.24074 0.0465881 0
M  V30 4100 N 395.863 -4.93939 1.08892 0
M  V30 4101 C 394.161 -4.45643 -0.178418 0
M  V30 4102 C 394.862 -5.59845 1.57951 0
M  V30 4103 N 393.838 -5.36218 0.892797 0
M  V30 4104 H 397.64 -2.79166 0.918889 0
M  V30 4105 H 395.154 -1.50816 0.602353 0
M  V30 4106 H 397.151 -3.98031 -1.24005 0
M  V30 4107 H 395.811 -2.84793 -1.55959 0
M  V30 4108 H 396.822 -4.96572 1.47095 0
M  V30 4109 H 393.499 -4.06599 -0.9478 0
M  V30 4110 H 394.889 -6.25703 2.44838 0
M  V30 4111 N 397.609 -0.515225 -1.4894 0
M  V30 4112 C 398.855 0.0242508 -2.02785 0
M  V30 4113 C 399.188 1.35323 -1.39289 0
M  V30 4114 O 398.463 1.87041 -0.533469 0
M  V30 4115 C 398.746 0.16184 -3.59736 0
M  V30 4116 C 398.599 -1.19127 -4.33738 0
M  V30 4117 C 399.918 0.895719 -4.30888 0
M  V30 4118 H 397.037 0.00733914 -0.736963 0
M  V30 4119 H 399.679 -0.669395 -1.77818 0
M  V30 4120 H 397.829 0.752624 -3.8114 0
M  V30 4121 H 399.501 -1.82202 -4.23792 0
M  V30 4122 H 397.744 -1.77695 -3.95736 0
M  V30 4123 H 398.415 -1.04815 -5.41957 0
M  V30 4124 H 400.891 0.394528 -4.14225 0
M  V30 4125 H 399.767 0.960859 -5.40425 0
M  V30 4126 H 400.028 1.9427 -3.97129 0
M  V30 4127 N 399.087 1.5561 -0.249682 0
M  V30 4128 C 400.037 2.18157 0.662673 0
M  V30 4129 C 401.021 1.1383 1.13717 0
M  V30 4130 O 402.213 1.39731 1.08648 0
M  V30 4131 C 399.342 2.88672 1.85805 0
M  V30 4132 C 398.428 4.00258 1.40193 0
M  V30 4133 N 398.819 5.01473 0.660213 0
M  V30 4134 C 397.117 4.12864 1.68698 0
M  V30 4135 C 397.818 5.80155 0.423695 0
M  V30 4136 N 396.794 5.34533 0.988721 0
M  V30 4137 H 400.596 2.93769 0.0878688 0
M  V30 4138 H 398.11 1.62316 -0.0521183 0
M  V30 4139 H 400.107 3.31912 2.5227 0
M  V30 4140 H 398.767 2.14564 2.43705 0
M  V30 4141 H 399.778 5.16971 0.310047 0
M  V30 4142 H 396.455 3.4993 2.27717 0
M  V30 4143 H 397.845 6.71688 -0.168616 0
M  V30 4144 N 400.565 -0.0233959 1.57583 0
M  V30 4145 C 401.497 -1.04994 2.03737 0
M  V30 4146 C 402.51 -1.32125 0.951152 0
M  V30 4147 O 403.699 -1.29512 1.22837 0
M  V30 4148 C 400.799 -2.39026 2.40249 0
M  V30 4149 C 399.972 -2.31171 3.7132 0
M  V30 4150 C 399.031 -3.47698 3.94959 0
M  V30 4151 O 398.057 -3.26937 4.65941 0
M  V30 4152 N 399.259 -4.6976 3.41037 0
M  V30 4153 H 402.024 -0.656507 2.92421 0
M  V30 4154 H 399.585 -0.211235 1.60516 0
M  V30 4155 H 401.577 -3.15712 2.53196 0
M  V30 4156 H 400.147 -2.70194 1.57207 0
M  V30 4157 H 399.367 -1.39547 3.68674 0
M  V30 4158 H 400.655 -2.23071 4.57293 0
M  V30 4159 H 400.053 -4.89528 2.83512 0
M  V30 4160 H 398.61 -5.43791 3.59353 0
M  V30 4161 N 402.043 -1.548 -0.295768 0
M  V30 4162 C 402.975 -1.82492 -1.3867 0
M  V30 4163 C 403.988 -0.708134 -1.46592 0
M  V30 4164 O 405.177 -0.985686 -1.48817 0
M  V30 4165 C 402.277 -1.95256 -2.76999 0
M  V30 4166 C 401.45 -3.25709 -2.91946 0
M  V30 4167 C 400.509 -3.28824 -4.10806 0
M  V30 4168 O 399.535 -4.02328 -4.02643 0
M  V30 4169 N 400.737 -2.5459 -5.21694 0
M  V30 4170 H 403.502 -2.76646 -1.15269 0
M  V30 4171 H 401.063 -1.54438 -0.485849 0
M  V30 4172 H 403.055 -1.94736 -3.54768 0
M  V30 4173 H 401.625 -1.08072 -2.93324 0
M  V30 4174 H 400.845 -3.38959 -2.01247 0
M  V30 4175 H 402.133 -4.11786 -2.98847 0
M  V30 4176 H 401.531 -1.94512 -5.31208 0
M  V30 4177 H 400.088 -2.59818 -5.97778 0
M  V30 4178 N 403.521 0.559213 -1.47345 0
M  V30 4179 C 404.751 1.33999 -1.57251 0
M  V30 4180 C 405.159 1.87905 -0.220978 0
M  V30 4181 O 404.502 1.65577 0.795617 0
M  V30 4182 C 404.564 2.54798 -2.53611 0
M  V30 4183 C 404.228 2.22192 -3.99349 0
M  V30 4184 C 405.225 1.79607 -4.87891 0
M  V30 4185 C 402.91 2.33613 -4.44669 0
M  V30 4186 C 404.904 1.48868 -6.19772 0
M  V30 4187 C 402.591 2.02487 -5.76578 0
M  V30 4188 C 403.589 1.60183 -6.63951 0
M  V30 4189 O 403.277 1.29451 -7.93409 0
M  V30 4190 H 403.009 0.414858 -0.533731 0
M  V30 4191 H 405.563 0.684465 -1.9366 0
M  V30 4192 H 403.793 3.23235 -2.12265 0
M  V30 4193 H 405.482 3.16873 -2.53666 0
M  V30 4194 H 406.248 1.70278 -4.54126 0
M  V30 4195 H 402.127 2.65501 -3.76869 0
M  V30 4196 H 405.671 1.15775 -6.87926 0
M  V30 4197 H 401.568 2.11448 -6.09885 0
M  V30 4198 H 402.336 1.43098 -8.05894 0
M  V30 4199 N 404.999 1.35443 0.805782 0
M  V30 4200 C 406.415 1.15499 1.10146 0
M  V30 4201 C 406.615 -0.0319975 2.01475 0
M  V30 4202 O 405.671 -0.70236 2.42535 0
M  V30 4203 C 406.984 2.45833 1.73166 0
M  V30 4204 C 408.532 2.52047 1.85583 0
M  V30 4205 C 409.007 3.82427 2.52019 0
M  V30 4206 N 410.498 3.83682 2.59504 0
M  V30 4207 C 411.233 4.81294 3.11679 0
M  V30 4208 N 410.729 5.89294 3.64287 0
M  V30 4209 N 412.522 4.6873 3.1024 0
M  V30 4210 H 404.673 2.11469 0.198678 0
M  V30 4211 H 406.936 0.93594 0.150731 0
M  V30 4212 H 406.642 3.32874 1.13526 0
M  V30 4213 H 406.516 2.6044 2.72857 0
M  V30 4214 H 408.903 1.65435 2.44367 0
M  V30 4215 H 408.984 2.41354 0.847455 0
M  V30 4216 H 408.628 4.69437 1.93885 0
M  V30 4217 H 408.558 3.90409 3.53395 0
M  V30 4218 H 411.049 3.05648 2.22234 0
M  V30 4219 H 411.362 6.59768 4.02401 0
M  V30 4220 H 409.707 5.92985 3.62483 0
M  V30 4221 H 412.898 3.83496 2.68419 0
M  V30 4222 H 413.071 5.44965 3.50596 0
M  V30 4223 N 406.477 -1.02803 1.19454 0
M  V30 4224 C 407.427 -2.0945 0.900827 0
M  V30 4225 C 408.411 -1.60335 -0.134715 0
M  V30 4226 O 409.603 -1.76857 0.0710924 0
M  V30 4227 C 406.732 -3.4044 0.442229 0
M  V30 4228 C 405.818 -3.96286 1.51056 0
M  V30 4229 N 406.209 -4.25785 2.73021 0
M  V30 4230 C 404.507 -4.24307 1.37404 0
M  V30 4231 C 405.208 -4.70654 3.41848 0
M  V30 4232 N 404.184 -4.72238 2.69243 0
M  V30 4233 H 407.986 -2.3015 1.82779 0
M  V30 4234 H 405.5 -1.20672 1.08683 0
M  V30 4235 H 407.497 -4.16354 0.21326 0
M  V30 4236 H 406.157 -3.21159 -0.478238 0
M  V30 4237 H 407.168 -4.15041 3.09776 0
M  V30 4238 H 403.845 -4.14285 0.517103 0
M  V30 4239 H 405.235 -5.02392 4.46152 0
M  V30 4240 N 407.956 -0.998596 -1.21925 0
M  V30 4241 C 409.233 -0.593401 -1.86382 0
M  V30 4242 C 409.613 0.92916 -1.89552 0
M  V30 4243 O 408.961 1.81347 -1.39017 0
M  V30 4244 C 409.171 -1.22039 -3.26967 0
M  V30 4245 C 410.519 -1.32449 -4.03413 0
M  V30 4246 O 411.543 -1.17522 -3.36254 0
M  V30 4247 O 410.402 -1.56395 -5.23644 0
M  V30 4248 H 407.496 -0.202385 -0.801854 0
M  V30 4249 H 410.042 -1.09484 -1.29659 0
M  V30 4250 H 408.814 -2.26158 -3.19325 0
M  V30 4251 H 408.437 -0.704906 -3.91301 0
M  V30 4252 N 409.434 1.37368 -0.772513 0
M  V30 4253 C 410.367 2.27956 -0.105593 0
M  V30 4254 C 411.345 1.46362 0.708295 0
M  V30 4255 O 412.529 1.75695 0.682895 0
M  V30 4256 C 409.656 3.27687 0.856686 0
M  V30 4257 C 408.702 4.26312 0.1267 0
M  V30 4258 S 409.535 5.22206 -1.1858 0
M  V30 4259 C 410.691 6.25488 -0.227081 0
M  V30 4260 H 410.924 2.84171 -0.87372 0
M  V30 4261 H 408.457 1.43654 -0.565939 0
M  V30 4262 H 410.415 3.85653 1.40648 0
M  V30 4263 H 409.076 2.70417 1.59793 0
M  V30 4264 H 408.269 4.96674 0.856212 0
M  V30 4265 H 407.871 3.72339 -0.352117 0
M  V30 4266 H 410.163 6.74836 0.600231 0
M  V30 4267 H 411.106 7.02371 -0.898899 0
M  V30 4268 H 411.514 5.64267 0.162053 0
M  V30 4269 N 410.912 0.523116 1.48665 0
M  V30 4270 C 411.86 -0.256859 2.31177 0
M  V30 4271 C 412.854 -0.94199 1.40794 0
M  V30 4272 O 414.06 -0.867157 1.57735 0
M  V30 4273 H 410.435 -0.1017 0.745091 0
M  V30 4274 H 412.406 0.458739 2.94853 0
M  V30 4275 C 411.155 -1.29503 3.22683 0
M  V30 4276 H 410.478 -0.777248 3.92172 0
M  V30 4277 H 411.918 -1.81233 3.83315 0
M  V30 4278 C 410.377 -2.32501 2.43813 0
M  V30 4279 O 410.907 -3.3881 2.15803 0
M  V30 4280 N 409.113 -2.05538 2.05432 0
M  V30 4281 H 408.66 -1.19104 2.28412 0
M  V30 4282 H 408.618 -2.74676 1.52973 0
M  V30 4283 N 412.39 -1.55475 0.257931 0
M  V30 4284 C 413.636 -2.00237 -0.357338 0
M  V30 4285 C 413.991 -1.14313 -1.54759 0
M  V30 4286 O 413.284 -0.201187 -1.90541 0
M  V30 4287 C 413.478 -3.48183 -0.806433 0
M  V30 4288 C 413.307 -4.48422 0.338758 0
M  V30 4289 C 412.077 -4.98651 0.817011 0
M  V30 4290 C 414.275 -5.00827 1.16949 0
M  V30 4291 N 412.257 -5.82658 1.93346 0
M  V30 4292 C 413.628 -5.82113 2.13413 0
M  V30 4293 C 415.683 -4.83104 1.2048 0
M  V30 4294 C 414.386 -6.47566 3.13131 0
M  V30 4295 C 416.412 -5.49343 2.19034 0
M  V30 4296 C 415.774 -6.30427 3.14232 0
M  V30 4297 H 411.873 -0.776034 -0.0964083 0
M  V30 4298 H 414.457 -1.90995 0.37803 0
M  V30 4299 H 412.628 -3.57801 -1.51107 0
M  V30 4300 H 414.36 -3.79802 -1.39758 0
M  V30 4301 H 411.115 -4.71914 0.39925 0
M  V30 4302 H 411.539 -6.29356 2.49478 0
M  V30 4303 H 416.181 -4.20036 0.482634 0
M  V30 4304 H 413.899 -7.09793 3.8629 0
M  V30 4305 H 417.485 -5.37579 2.22485 0
M  V30 4306 H 416.365 -6.80777 3.89246 0
M  V30 4307 N 413.868 0.0150385 -1.57593 0
M  V30 4308 C 414.815 1.01126 -2.07466 0
M  V30 4309 C 415.785 1.35064 -0.966794 0
M  V30 4310 O 416.97 1.4516 -1.23827 0
M  V30 4311 C 414.11 2.30276 -2.57035 0
M  V30 4312 C 413.223 2.02373 -3.81666 0
M  V30 4313 C 412.358 3.25496 -4.19793 0
M  V30 4314 C 411.397 2.93211 -5.37303 0
M  V30 4315 N 410.534 4.08826 -5.70794 0
M  V30 4316 H 415.374 0.57901 -2.92321 0
M  V30 4317 H 412.911 0.27426 -1.44521 0
M  V30 4318 H 414.869 3.05757 -2.83846 0
M  V30 4319 H 413.499 2.71197 -1.75077 0
M  V30 4320 H 412.551 1.17327 -3.61854 0
M  V30 4321 H 413.863 1.74567 -4.67256 0
M  V30 4322 H 413.017 4.09333 -4.47807 0
M  V30 4323 H 411.756 3.56428 -3.32882 0
M  V30 4324 H 410.761 2.07777 -5.09027 0
M  V30 4325 H 411.986 2.63542 -6.25877 0
M  V30 4326 H 409.932 4.39682 -4.86842 0
M  V30 4327 H 409.849 3.84491 -6.50924 0
M  V30 4328 H 411.117 4.93496 -6.03392 0
M  V30 4329 N 415.346 1.54954 0.287554 0
M  V30 4330 C 416.574 1.78881 1.03967 0
M  V30 4331 C 416.989 0.554894 1.80462 0
M  V30 4332 O 416.346 -0.475676 1.76192 0
M  V30 4333 C 416.397 3.00488 2.0097 0
M  V30 4334 O 416.118 4.19113 1.27577 0
M  V30 4335 C 417.619 3.36907 2.88112 0
M  V30 4336 H 414.839 0.596259 0.307761 0
M  V30 4337 H 417.383 2.01937 0.322749 0
M  V30 4338 H 415.538 2.79601 2.68145 0
M  V30 4339 H 415.952 4.87765 1.92835 0
M  V30 4340 H 417.426 4.25205 3.52001 0
M  V30 4341 H 417.903 2.55659 3.57121 0
M  V30 4342 H 418.509 3.60001 2.26449 0
M  V30 4343 N 416.824 -0.551391 1.4764 0
M  V30 4344 C 418.07 -1.30789 1.55774 0
M  V30 4345 C 418.425 -1.91143 0.219562 0
M  V30 4346 O 417.718 -1.7521 -0.775375 0
M  V30 4347 C 417.912 -2.43469 2.61644 0
M  V30 4348 C 417.741 -1.94157 4.05627 0
M  V30 4349 C 416.511 -1.77734 4.7301 0
M  V30 4350 C 418.709 -1.48262 4.92466 0
M  V30 4351 N 416.691 -1.22823 6.01488 0
M  V30 4352 C 418.062 -1.05156 6.11017 0
M  V30 4353 C 420.117 -1.36367 4.78862 0
M  V30 4354 C 418.82 -0.513357 7.17466 0
M  V30 4355 C 420.846 -0.839484 5.85411 0
M  V30 4356 C 420.208 -0.418377 7.03156 0
M  V30 4357 H 416.307 -0.470406 0.624694 0
M  V30 4358 H 418.891 -0.624331 1.84419 0
M  V30 4359 H 417.062 -3.09348 2.34859 0
M  V30 4360 H 418.794 -3.10477 2.59589 0
M  V30 4361 H 415.549 -2.00623 4.29007 0
M  V30 4362 H 415.973 -0.974393 6.69951 0
M  V30 4363 H 420.615 -1.67535 3.88191 0
M  V30 4364 H 418.333 -0.189318 8.07878 0
M  V30 4365 H 421.919 -0.750921 5.76934 0
M  V30 4366 H 420.799 -0.0190538 7.84198 0
M  V30 4367 N 418.302 -1.35869 -0.798587 0
M  V30 4368 C 419.713 -1.26498 -1.37314 0
M  V30 4369 C 420.064 0.0991899 -1.95949 0
M  V30 4370 O 419.189 1.0004 -1.91888 0
M  V30 4371 C 419.784 -2.29054 -2.49639 0
M  V30 4372 C 418.343 -2.234 -3.02935 0
M  V30 4373 C 417.49 -2.14329 -1.75949 0
M  V30 4374 H 420.441 -1.46881 -0.600971 0
M  V30 4375 H 420.462 -1.92166 -3.28409 0
M  V30 4376 H 419.974 -3.2833 -2.06933 0
M  V30 4377 H 418.075 -1.27562 -3.50084 0
M  V30 4378 H 418.188 -3.15703 -3.60372 0
M  V30 4379 H 416.552 -1.60435 -1.9782 0
M  V30 4380 H 417.335 -3.15477 -1.35384 0
M  V30 4381 N 419.78 1.02168 -1.19998 0
M  V30 4382 C 421.029 1.75091 -1.0013 0
M  V30 4383 C 421.342 1.89923 0.467835 0
M  V30 4384 O 422.548 2.59888 0.785515 0
M  V30 4385 C 421.004 3.14892 -1.74273 0
M  V30 4386 C 420.612 3.0809 -3.25245 0
M  V30 4387 C 422.356 3.9206 -1.62755 0
M  V30 4388 C 420.263 4.42867 -3.91948 0
M  V30 4389 H 419.193 0.656394 -0.37103 0
M  V30 4390 H 421.844 1.14284 -1.43567 0
M  V30 4391 H 420.226 3.7621 -1.2362 0
M  V30 4392 H 421.4 2.5611 -3.83072 0
M  V30 4393 H 419.715 2.44416 -3.3712 0
M  V30 4394 H 422.312 4.91764 -2.09934 0
M  V30 4395 H 422.655 4.12199 -0.582894 0
M  V30 4396 H 423.188 3.37359 -2.10793 0
M  V30 4397 H 419.927 4.27931 -4.96543 0
M  V30 4398 H 419.447 4.94874 -3.3891 0
M  V30 4399 H 421.126 5.11728 -3.95909 0
M  V30 4400 N 421.258 1.00505 1.21394 0
M  V30 4401 C 422.505 0.687774 1.90462 0
M  V30 4402 C 422.833 -0.78147 1.7811 0
M  V30 4403 O 422.088 -1.58208 1.1519 0
M  V30 4404 C 422.387 1.0546 3.41486 0
M  V30 4405 C 422.053 2.51812 3.74034 0
M  V30 4406 C 420.715 2.91804 3.82628 0
M  V30 4407 C 423.067 3.46614 3.8924 0
M  V30 4408 C 420.395 4.2556 4.03876 0
M  V30 4409 C 422.747 4.80044 4.11995 0
M  V30 4410 C 421.411 5.19759 4.18816 0
M  V30 4411 H 420.681 0.251674 0.696951 0
M  V30 4412 H 423.328 1.26349 1.43903 0
M  V30 4413 H 421.633 0.397133 3.89782 0
M  V30 4414 H 423.33 0.786976 3.93202 0
M  V30 4415 H 419.92 2.1982 3.67936 0
M  V30 4416 H 424.104 3.16883 3.81967 0
M  V30 4417 H 419.36 4.55901 4.07387 0
M  V30 4418 H 423.534 5.53439 4.22704 0
M  V30 4419 H 421.161 6.23418 4.35033 0
M  V30 4420 N 422.737 -1.36956 0.779787 0
M  V30 4421 C 423.685 -2.32053 0.15942 0
M  V30 4422 C 424.679 -1.55333 -0.675878 0
M  V30 4423 O 425.885 -1.70668 -0.57204 0
M  V30 4424 H 422.26 -0.751286 0.0327707 0
M  V30 4425 H 424.231 -2.8195 0.977078 0
M  V30 4426 C 422.98 -3.40602 -0.698977 0
M  V30 4427 H 422.303 -3.99746 -0.0655966 0
M  V30 4428 H 423.743 -4.09486 -1.09989 0
M  V30 4429 C 422.202 -2.81359 -1.85307 0
M  V30 4430 O 422.732 -2.72751 -2.94906 0
M  V30 4431 N 420.938 -2.38786 -1.65619 0
M  V30 4432 H 420.485 -2.45987 -0.764725 0
M  V30 4433 H 420.443 -1.99493 -2.43002 0
M  V30 4434 N 424.215 -0.530993 -1.48385 0
M  V30 4435 C 425.631 -0.188919 -1.58478 0
M  V30 4436 C 425.831 1.30786 -1.53288 0
M  V30 4437 O 424.887 2.08619 -1.42248 0
M  V30 4438 C 426.2 -0.792343 -2.90073 0
M  V30 4439 C 427.748 -0.76117 -3.03604 0
M  V30 4440 C 428.223 -1.34319 -4.37861 0
M  V30 4441 N 429.714 -1.3052 -4.44431 0
M  V30 4442 C 430.449 -1.72543 -5.46824 0
M  V30 4443 N 429.945 -2.22299 -6.56167 0
M  V30 4444 N 431.738 -1.63773 -5.37712 0
M  V30 4445 H 423.889 -1.50377 -1.50002 0
M  V30 4446 H 426.152 -0.625559 -0.712306 0
M  V30 4447 H 425.858 -1.84323 -2.99529 0
M  V30 4448 H 425.732 -0.270026 -3.76232 0
M  V30 4449 H 428.119 0.280957 -2.93759 0
M  V30 4450 H 428.2 -1.32097 -2.19053 0
M  V30 4451 H 427.844 -2.38425 -4.4846 0
M  V30 4452 H 427.774 -0.759064 -5.21101 0
M  V30 4453 H 430.265 -0.940973 -3.65997 0
M  V30 4454 H 430.578 -2.52356 -7.30436 0
M  V30 4455 H 428.923 -2.26293 -6.57127 0
M  V30 4456 H 432.114 -1.24698 -4.51185 0
M  V30 4457 H 432.287 -1.96844 -6.17379 0
M  V30 4458 N 425.693 1.55336 -0.266172 0
M  V30 4459 C 426.97 1.91372 0.404486 0
M  V30 4460 C 427.35 1.18935 1.74407 0
M  V30 4461 O 426.698 0.3132 2.26343 0
M  V30 4462 C 426.908 3.44581 0.553593 0
M  V30 4463 C 428.256 4.16196 0.840618 0
M  V30 4464 O 429.28 3.50426 0.638739 0
M  V30 4465 O 428.139 5.32567 1.22618 0
M  V30 4466 H 425.233 0.797194 0.220025 0
M  V30 4467 H 427.779 1.66813 -0.311664 0
M  V30 4468 H 426.551 3.89357 -0.389498 0
M  V30 4469 H 426.174 3.75065 1.31955 0
M  V30 4470 N 427.171 -0.0066808 1.57599 0
M  V30 4471 C 428.399 -0.704087 1.94551 0
M  V30 4472 C 428.814 -1.67677 0.867746 0
M  V30 4473 O 428.171 -1.8185 -0.153925 0
M  V30 4474 C 428.222 -1.44177 3.31505 0
M  V30 4475 O 427.943 -0.508097 4.35144 0
M  V30 4476 C 429.444 -2.23429 3.82876 0
M  V30 4477 H 426.664 -0.196523 0.641576 0
M  V30 4478 H 429.208 0.042453 2.04456 0
M  V30 4479 H 427.363 -2.13999 3.22929 0
M  V30 4480 H 427.777 -1.02782 5.14331 0
M  V30 4481 H 429.251 -2.70552 4.8115 0
M  V30 4482 H 429.728 -3.05818 3.15233 0
M  V30 4483 H 430.334 -1.58636 3.94607 0
M  V30 4484 N 428.649 -1.55105 -0.279332 0
M  V30 4485 C 429.877 -1.7943 -1.03017 0
M  V30 4486 C 430.292 -0.564456 -1.80165 0
M  V30 4487 O 429.649 0.466326 -1.76442 0
M  V30 4488 C 429.7 -3.0155 -1.99374 0
M  V30 4489 O 429.421 -4.19784 -1.25352 0
M  V30 4490 C 430.922 -3.3843 -2.86321 0
M  V30 4491 H 428.142 -0.597882 -0.304594 0
M  V30 4492 H 430.686 -2.02105 -0.312035 0
M  V30 4493 H 428.841 -2.81019 -2.66659 0
M  V30 4494 H 429.255 -4.88781 -1.90246 0
M  V30 4495 H 430.729 -4.27066 -3.49741 0
M  V30 4496 H 431.206 -2.57549 -3.5576 0
M  V30 4497 H 431.812 -3.61197 -2.24536 0
M  V30 4498 N 430.127 0.543554 -1.4793 0
M  V30 4499 C 431.538 1.12561 -1.48953 0
M  V30 4500 C 431.889 1.94578 -0.251754 0
M  V30 4501 O 431.014 2.0665 0.642255 0
M  V30 4502 C 431.609 2.04801 -2.69892 0
M  V30 4503 C 430.168 2.58251 -2.73831 0
M  V30 4504 C 429.315 1.34918 -2.42265 0
M  V30 4505 H 432.266 0.32947 -1.55242 0
M  V30 4506 H 432.287 2.88886 -2.47639 0
M  V30 4507 H 431.799 1.4508 -3.59963 0
M  V30 4508 H 429.9 3.21732 -1.87934 0
M  V30 4509 H 430.013 2.98312 -3.74895 0
M  V30 4510 H 428.377 1.66046 -1.93134 0
M  V30 4511 H 429.16 0.769693 -3.3456 0
M  V30 4512 N 431.605 1.3629 0.791371 0
M  V30 4513 C 432.553 1.30514 1.92533 0
M  V30 4514 C 433.547 0.197285 1.68247 0
M  V30 4515 O 434.753 0.364176 1.76278 0
M  V30 4516 H 431.128 0.406263 0.632815 0
M  V30 4517 H 433.099 2.26282 1.94523 0
M  V30 4518 C 431.848 1.10933 3.29529 0
M  V30 4519 H 431.171 1.95427 3.48781 0
M  V30 4520 H 432.611 1.10937 4.0923 0
M  V30 4521 C 431.07 -0.186123 3.36385 0
M  V30 4522 O 431.6 -1.17664 3.84081 0
M  V30 4523 N 429.806 -0.230128 2.89687 0
M  V30 4524 H 429.353 0.576545 2.51065 0
M  V30 4525 H 429.311 -1.09658 2.94657 0
M  V30 4526 N 433.083 -1.0153 1.20538 0
M  V30 4527 C 434.331 -1.74803 1.01432 0
M  V30 4528 C 434.652 -1.8963 -0.454456 0
M  V30 4529 O 433.922 -1.43975 -1.32846 0
M  V30 4530 H 432.502 -0.647598 0.372324 0
M  V30 4531 H 435.164 -1.22402 1.5167 0
M  V30 4532 H 434.26 -2.75114 1.47373 0
M  V30 4533 N 434.561 -1.01147 -1.20859 0
M  V30 4534 C 435.509 -0.57059 -2.25493 0
M  V30 4535 C 436.503 0.388109 -1.64894 0
M  V30 4536 O 437.709 0.258592 -1.78133 0
M  V30 4537 H 434.084 -0.166191 -0.733406 0
M  V30 4538 H 436.055 -1.46411 -2.60012 0
M  V30 4539 C 434.804 0.0805241 -3.47607 0
M  V30 4540 H 434.127 -0.648156 -3.94511 0
M  V30 4541 H 435.567 0.352197 -4.22535 0
M  V30 4542 C 434.026 1.32175 -3.09889 0
M  V30 4543 O 434.556 2.41553 -3.20959 0
M  V30 4544 N 432.762 1.20392 -2.64488 0
M  V30 4545 H 432.309 0.313905 -2.5568 0
M  V30 4546 H 432.267 2.03541 -2.39621 0
M  V30 4547 N 436.039 1.36541 -0.78704 0
M  V30 4548 C 437.287 1.98911 -0.357633 0
M  V30 4549 C 437.608 1.62778 1.07371 0
M  V30 4550 O 436.878 0.900612 1.73971 0
M  V30 4551 H 435.458 0.735734 -0.129246 0
M  V30 4552 H 438.12 1.66776 -1.00855 0
M  V30 4553 H 437.216 3.08874 -0.447549 0
M  V30 4554 N 437.518 0.538854 1.48102 0
M  V30 4555 C 438.746 0.0123136 2.06896 0
M  V30 4556 C 439.161 -1.27312 1.39417 0
M  V30 4557 O 438.518 -1.75949 0.484582 0
M  V30 4558 C 438.569 -0.206118 3.60912 0
M  V30 4559 O 438.29 1.0284 4.25859 0
M  V30 4560 C 439.791 -0.772033 4.36526 0
M  V30 4561 H 437.011 0.0375239 0.66995 0
M  V30 4562 H 439.555 0.747032 1.90367 0
M  V30 4563 H 437.71 -0.89091 3.77017 0
M  V30 4564 H 438.124 0.814654 5.18135 0
M  V30 4565 H 439.598 -0.874251 5.45033 0
M  V30 4566 H 440.075 -1.77904 4.01555 0
M  V30 4567 H 440.681 -0.123526 4.25121 0
M  V30 4568 N 438.996 -1.55193 0.274407 0
M  V30 4569 C 439.944 -2.23924 -0.629362 0
M  V30 4570 C 440.938 -1.23602 -1.1584 0
M  V30 4571 O 442.144 -1.41535 -1.11211 0
M  V30 4572 H 438.519 -0.718637 -0.221507 0
M  V30 4573 H 440.49 -2.98388 -0.0268322 0
M  V30 4574 C 439.239 -2.97329 -1.80252 0
M  V30 4575 H 438.562 -3.74313 -1.40462 0
M  V30 4576 H 440.002 -3.48743 -2.41152 0
M  V30 4577 C 438.461 -2.0276 -2.69054 0
M  V30 4578 O 438.991 -1.57836 -3.69392 0
M  V30 4579 N 437.197 -1.69275 -2.36208 0
M  V30 4580 H 436.744 -2.06004 -1.54661 0
M  V30 4581 H 436.702 -1.06271 -2.95895 0
M  V30 4582 N 440.474 -0.00167713 -1.576 0
M  V30 4583 C 441.404 0.988091 -2.11563 0
M  V30 4584 C 442.385 1.35736 -1.02517 0
M  V30 4585 O 443.57 1.44082 -1.30208 0
M  V30 4586 C 440.7 2.27941 -2.62031 0
M  V30 4587 C 439.654 2.0517 -3.75619 0
M  V30 4588 C 438.98 3.4033 -4.12407 0
M  V30 4589 C 440.28 1.41294 -5.02825 0
M  V30 4590 H 441.974 0.538771 -2.94513 0
M  V30 4591 H 439.52 0.257712 -1.41675 0
M  V30 4592 H 441.473 2.97539 -2.9841 0
M  V30 4593 H 440.197 2.74989 -1.76205 0
M  V30 4594 H 438.856 1.37998 -3.39635 0
M  V30 4595 H 438.504 3.85085 -3.23603 0
M  V30 4596 H 438.204 3.25909 -4.88935 0
M  V30 4597 H 439.728 4.1124 -4.51347 0
M  V30 4598 H 441.142 2.00851 -5.36965 0
M  V30 4599 H 439.539 1.37356 -5.84169 0
M  V30 4600 H 440.609 0.382362 -4.8339 0
M  V30 4601 N 441.952 1.55251 0.271103 0
M  V30 4602 C 443.182 1.79713 1.01916 0
M  V30 4603 C 443.59 0.571613 1.80359 0
M  V30 4604 O 442.933 -0.468853 1.77616 0
M  V30 4605 C 442.995 2.97138 2.02359 0
M  V30 4606 C 442.659 4.34104 1.42837 0
M  V30 4607 C 443.656 5.13019 0.843071 0
M  V30 4608 C 441.341 4.80765 1.455 0
M  V30 4609 C 443.335 6.36729 0.292333 0
M  V30 4610 C 441.022 6.0443 0.900402 0
M  V30 4611 C 442.02 6.8225 0.32007 0
M  V30 4612 O 441.708 8.03582 -0.226031 0
M  V30 4613 H 441.44 0.602431 0.306681 0
M  V30 4614 H 443.994 2.03097 0.306701 0
M  V30 4615 H 442.224 2.6945 2.77369 0
M  V30 4616 H 443.913 3.08907 2.63309 0
M  V30 4617 H 444.679 4.781 0.815178 0
M  V30 4618 H 440.558 4.20202 1.89609 0
M  V30 4619 H 444.102 6.97414 -0.161274 0
M  V30 4620 H 439.999 6.3883 0.925541 0
M  V30 4621 H 440.767 8.18418 -0.115572 0
M  V30 4622 N 443.43 -0.535701 1.48216 0
M  V30 4623 C 444.678 -1.28928 1.55634 0
M  V30 4624 C 444.999 -1.93645 0.229514 0
M  V30 4625 O 444.269 -1.81038 -0.74846 0
M  V30 4626 H 442.849 -0.47884 0.573342 0
M  V30 4627 H 445.511 -0.623853 1.84646 0
M  V30 4628 H 444.607 -2.07157 2.33436 0
M  V30 4629 N 444.908 -1.36708 -0.784132 0
M  V30 4630 C 445.871 -1.31307 -1.87859 0
M  V30 4631 C 446.871 -0.219654 -1.59293 0
M  V30 4632 O 448.061 -0.47476 -1.67606 0
M  V30 4633 C 445.193 -1.03679 -3.24751 0
M  V30 4634 H 446.386 -2.28647 -1.94064 0
M  V30 4635 H 443.939 -1.21558 -0.98252 0
M  V30 4636 H 444.674 -0.0681936 -3.24228 0
M  V30 4637 H 444.459 -1.82811 -3.46876 0
M  V30 4638 H 445.949 -1.02518 -4.04821 0
M  V30 4639 N 446.386 1.0089 -1.21074 0
M  V30 4640 C 447.318 2.09737 -0.924291 0
M  V30 4641 C 448.331 1.62546 0.0909809 0
M  V30 4642 O 449.52 1.77942 -0.141021 0
M  V30 4643 C 446.62 3.36922 -0.36559 0
M  V30 4644 C 445.793 4.13216 -1.43426 0
M  V30 4645 C 444.852 5.18696 -0.885496 0
M  V30 4646 O 443.878 5.47176 -1.56801 0
M  V30 4647 N 445.08 5.79718 0.301227 0
M  V30 4648 H 447.845 2.34895 -1.8613 0
M  V30 4649 H 445.406 1.17341 -1.11546 0
M  V30 4650 H 447.398 4.04697 0.0158407 0
M  V30 4651 H 445.968 3.08952 0.476149 0
M  V30 4652 H 445.188 3.40301 -1.9897 0
M  V30 4653 H 446.476 4.60967 -2.15376 0
M  V30 4654 H 445.874 5.58926 0.872849 0
M  V30 4655 H 444.431 6.48804 0.624211 0
M  V30 4656 N 447.864 1.01787 1.20321 0
M  V30 4657 C 449.092 0.727194 1.937 0
M  V30 4658 C 449.507 -0.712305 1.74848 0
M  V30 4659 O 448.864 -1.48327 1.06327 0
M  V30 4660 C 448.915 1.05497 3.45764 0
M  V30 4661 O 448.636 2.43794 3.64 0
M  V30 4662 C 450.137 0.785534 4.36285 0
M  V30 4663 H 447.357 0.266939 0.615617 0
M  V30 4664 H 449.901 1.35939 1.52777 0
M  V30 4665 H 448.056 0.468158 3.84561 0
M  V30 4666 H 448.47 2.55656 4.57974 0
M  V30 4667 H 449.944 1.06495 5.4163 0
M  V30 4668 H 450.421 -0.280273 4.38305 0
M  V30 4669 H 451.027 1.35456 4.03152 0
M  V30 4670 N 449.342 -1.36122 0.79427 0
M  V30 4671 C 450.589 -1.99111 0.368905 0
M  V30 4672 C 450.917 -1.63032 -1.0607 0
M  V30 4673 O 450.172 -0.879303 -1.74833 0
M  V30 4674 C 450.471 -3.5409 0.48527 0
M  V30 4675 C 450.137 -4.10003 1.87638 0
M  V30 4676 C 448.799 -4.24986 2.257 0
M  V30 4677 C 451.151 -4.40423 2.78706 0
M  V30 4678 C 448.479 -4.67701 3.54221 0
M  V30 4679 C 450.831 -4.84573 4.0666 0
M  V30 4680 C 449.495 -4.97761 4.44737 0
M  V30 4681 H 448.765 -0.7286 0.134992 0
M  V30 4682 H 451.412 -1.62534 1.01267 0
M  V30 4683 H 449.717 -3.91052 -0.241984 0
M  V30 4684 H 451.414 -4.00766 0.137109 0
M  V30 4685 H 448.004 -3.98784 1.57064 0
M  V30 4686 H 452.188 -4.28412 2.50553 0
M  V30 4687 H 447.444 -4.761 3.83587 0
M  V30 4688 H 451.618 -5.07074 4.77336 0
M  V30 4689 H 449.245 -5.30618 5.44379 0
M  V30 4690 N 450.82 -0.546701 -1.47814 0
M  V30 4691 C 452.067 -0.0187407 -2.02491 0
M  V30 4692 C 452.395 1.32685 -1.42215 0
M  V30 4693 O 451.65 1.87413 -0.563454 0
M  V30 4694 C 451.949 0.134869 -3.57145 0
M  V30 4695 C 451.615 -1.13849 -4.3629 0
M  V30 4696 C 450.277 -1.48743 -4.57634 0
M  V30 4697 C 452.629 -1.98277 -4.82012 0
M  V30 4698 C 449.957 -2.67932 -5.21948 0
M  V30 4699 C 452.309 -3.16659 -5.4764 0
M  V30 4700 C 450.973 -3.51879 -5.67219 0
M  V30 4701 H 450.243 -0.0068577 -0.740968 0
M  V30 4702 H 452.89 -0.716097 -1.77607 0
M  V30 4703 H 451.195 0.915118 -3.80963 0
M  V30 4704 H 452.892 0.558556 -3.97091 0
M  V30 4705 H 449.482 -0.856767 -4.19949 0
M  V30 4706 H 453.666 -1.72628 -4.6531 0
M  V30 4707 H 448.922 -2.95401 -5.35302 0
M  V30 4708 H 453.096 -3.82374 -5.82033 0
M  V30 4709 H 450.723 -4.44331 -6.16825 0
M  V30 4710 N 452.299 1.55045 -0.282633 0
M  V30 4711 C 453.229 2.2579 0.595066 0
M  V30 4712 C 454.21 1.25074 1.15284 0
M  V30 4713 O 455.395 1.5381 1.18559 0
M  V30 4714 C 452.525 2.98472 1.77572 0
M  V30 4715 C 451.479 4.0618 1.34914 0
M  V30 4716 C 450.805 4.66477 2.6135 0
M  V30 4717 C 452.105 5.1996 0.493821 0
M  V30 4718 H 453.799 2.994 0.00505653 0
M  V30 4719 H 451.345 1.44 0.000992001 0
M  V30 4720 H 453.298 3.46677 2.39568 0
M  V30 4721 H 452.022 2.2241 2.39168 0
M  V30 4722 H 450.681 3.58797 0.752338 0
M  V30 4723 H 450.329 3.87074 3.2122 0
M  V30 4724 H 450.029 5.39207 2.33516 0
M  V30 4725 H 451.553 5.17435 3.24181 0
M  V30 4726 H 452.967 5.64172 1.01898 0
M  V30 4727 H 451.364 5.99299 0.310047 0
M  V30 4728 H 452.434 4.82462 -0.485593 0
M  V30 4729 N 453.777 0.010035 1.57597 0
M  V30 4730 C 455.017 -0.677084 1.9286 0
M  V30 4731 C 455.381 -1.70377 0.885192 0
M  V30 4732 O 456.582 -2.44199 1.12339 0
M  V30 4733 C 454.853 -1.29452 3.33132 0
M  V30 4734 S 456.412 -2.00537 3.90295 0
M  V30 4735 H 453.23 -0.223409 0.674989 0
M  V30 4736 H 455.832 0.0691289 1.95378 0
M  V30 4737 H 454.536 -0.534593 4.06903 0
M  V30 4738 H 454.067 -2.07845 3.34012 0
M  V30 4739 H 456.082 -3.28168 3.72183 0
M  V30 4740 N 455.255 -1.55392 -0.262866 0
M  V30 4741 C 456.185 -1.91978 -1.32917 0
M  V30 4742 C 457.166 -0.7828 -1.51017 0
M  V30 4743 O 458.351 -1.04178 -1.63892 0
M  V30 4744 C 455.481 -2.20055 -2.68687 0
M  V30 4745 C 454.435 -3.35854 -2.65304 0
M  V30 4746 C 453.761 -3.49435 -4.04721 0
M  V30 4747 C 455.061 -4.71977 -2.23685 0
M  V30 4748 H 456.755 -2.81292 -1.02544 0
M  V30 4749 H 454.301 -1.3534 -0.491846 0
M  V30 4750 H 456.254 -2.44237 -3.43404 0
M  V30 4751 H 454.978 -1.27551 -3.00663 0
M  V30 4752 H 453.637 -3.11655 -1.93045 0
M  V30 4753 H 453.285 -2.54379 -4.33936 0
M  V30 4754 H 452.985 -4.27297 -4.0335 0
M  V30 4755 H 454.509 -3.7592 -4.81161 0
M  V30 4756 H 455.923 -4.95637 -2.88127 0
M  V30 4757 H 454.32 -5.52828 -2.33456 0
M  V30 4758 H 455.39 -4.70115 -1.18827 0
M  V30 4759 N 456.733 0.527833 -1.48498 0
M  V30 4760 C 457.643 1.65907 -1.65867 0
M  V30 4761 C 458.659 1.6537 -0.541192 0
M  V30 4762 O 459.835 1.84282 -0.812534 0
M  V30 4763 C 456.9 3.02364 -1.69637 0
M  V30 4764 C 455.961 3.1374 -2.93028 0
M  V30 4765 C 455.194 4.43688 -2.96609 0
M  V30 4766 O 455.417 5.30913 -2.08538 0
M  V30 4767 O 454.351 4.59475 -3.88802 0
M  V30 4768 H 458.177 1.5419 -2.61647 0
M  V30 4769 H 455.762 0.701163 -1.31924 0
M  V30 4770 H 457.644 3.83515 -1.74625 0
M  V30 4771 H 456.319 3.14401 -0.770312 0
M  V30 4772 H 455.226 2.31877 -2.93571 0
M  V30 4773 H 456.559 3.06621 -3.85026 0
M  V30 4774 N 458.211 1.37122 0.776871 0
M  V30 4775 C 459.488 1.22586 1.52421 0
M  V30 4776 C 459.868 -0.182726 2.10308 0
M  V30 4777 O 459.216 -1.18979 1.9508 0
M  V30 4778 C 459.426 2.31782 2.60918 0
M  V30 4779 C 460.774 2.69071 3.2846 0
M  V30 4780 O 461.798 2.3092 2.71209 0
M  V30 4781 O 460.657 3.3478 4.31954 0
M  V30 4782 H 457.751 0.478045 0.674835 0
M  V30 4783 H 460.297 1.48888 0.814275 0
M  V30 4784 H 459.069 3.26131 2.16227 0
M  V30 4785 H 458.692 2.06916 3.39517 0
M  V30 4786 N 459.689 -1.00246 1.21608 0
M  V30 4787 C 460.652 -2.07233 0.979133 0
M  V30 4788 C 461.652 -1.6072 -0.0508219 0
M  V30 4789 O 462.842 -1.73196 0.186712 0
M  V30 4790 C 459.974 -3.37546 0.477016 0
M  V30 4791 H 461.167 -2.29687 1.92831 0
M  V30 4792 H 458.72 -1.17261 1.03342 0
M  V30 4793 H 459.455 -3.20773 -0.476966 0
M  V30 4794 H 459.24 -3.72638 1.21997 0
M  V30 4795 H 460.73 -4.16285 0.331181 0
M  V30 4796 N 461.167 -1.02423 -1.1978 0
M  V30 4797 C 462.392 -0.7373 -1.93852 0
M  V30 4798 C 462.817 0.696923 -1.74713 0
M  V30 4799 O 462.175 1.48056 -1.04638 0
M  V30 4800 C 462.223 -1.08783 -3.438 0
M  V30 4801 O 461.327 -0.20383 -4.11896 0
M  V30 4802 H 460.668 -0.27284 -0.605355 0
M  V30 4803 H 463.198 -1.36966 -1.51992 0
M  V30 4804 H 463.208 -1.04276 -3.9445 0
M  V30 4805 H 461.883 -2.13274 -3.57053 0
M  V30 4806 H 460.46 -0.307091 -3.71633 0
M  V30 4807 N 462.645 1.35699 -0.801477 0
M  V30 4808 C 463.893 1.9852 -0.37871 0
M  V30 4809 C 464.214 1.63907 1.05638 0
M  V30 4810 O 463.484 0.919013 1.73006 0
M  V30 4811 H 462.064 0.734322 -0.137042 0
M  V30 4812 H 464.726 1.65697 -1.02619 0
M  V30 4813 H 463.822 3.08382 -0.480284 0
M  V30 4814 N 464.123 0.554532 1.47522 0
M  V30 4815 C 465.053 -0.182974 2.32782 0
M  V30 4816 C 466.034 -0.911377 1.43624 0
M  V30 4817 O 467.219 -0.892366 1.72483 0
M  V30 4818 C 464.349 -1.21513 3.25349 0
M  V30 4819 C 463.303 -0.603355 4.23726 0
M  V30 4820 C 462.629 -1.73995 5.05598 0
M  V30 4821 C 463.929 0.441121 5.20434 0
M  V30 4822 H 465.623 0.52882 2.94693 0
M  V30 4823 H 463.169 0.255759 1.41711 0
M  V30 4824 H 465.122 -1.73922 3.83835 0
M  V30 4825 H 463.846 -1.95683 2.61487 0
M  V30 4826 H 462.505 -0.10059 3.66462 0
M  V30 4827 H 462.153 -2.47063 4.38143 0
M  V30 4828 H 461.853 -1.3364 5.72201 0
M  V30 4829 H 463.377 -2.26735 5.66942 0
M  V30 4830 H 464.791 0.00319931 5.733 0
M  V30 4831 H 463.188 0.763402 5.95224 0
M  V30 4832 H 464.258 1.33799 4.66075 0
M  V30 4833 N 465.601 -1.54893 0.290851 0
M  V30 4834 C 466.826 -2.04804 -0.32712 0
M  V30 4835 C 467.251 -1.16721 -1.47506 0
M  V30 4836 O 466.609 -0.169107 -1.8051 0
M  V30 4837 C 466.657 -3.52268 -0.770689 0
M  V30 4838 O 465.761 -3.67236 -1.87647 0
M  V30 4839 H 465.102 -0.660789 -0.0652227 0
M  V30 4840 H 467.632 -2.00036 0.429739 0
M  V30 4841 H 467.642 -3.9393 -1.06223 0
M  V30 4842 H 466.317 -4.15843 0.069096 0
M  V30 4843 H 464.894 -3.37479 -1.58626 0
M  V30 4844 N 467.08 -0.0183926 -1.57589 0
M  V30 4845 C 468.327 0.662562 -1.91354 0
M  V30 4846 C 468.655 1.72747 -0.893788 0
M  V30 4847 O 467.91 1.9545 0.0988509 0
M  V30 4848 C 468.209 1.32676 -3.31861 0
M  V30 4849 C 467.875 0.393267 -4.49182 0
M  V30 4850 C 466.537 0.136302 -4.81007 0
M  V30 4851 C 468.889 -0.248366 -5.20608 0
M  V30 4852 C 466.217 -0.770282 -5.81621 0
M  V30 4853 C 468.569 -1.14294 -6.22189 0
M  V30 4854 C 467.233 -1.4089 -6.52462 0
M  V30 4855 H 466.503 0.242448 -0.700214 0
M  V30 4856 H 469.15 -0.0778629 -1.91342 0
M  V30 4857 H 467.455 2.14168 -3.28084 0
M  V30 4858 H 469.152 1.86001 -3.55253 0
M  V30 4859 H 465.742 0.603723 -4.24327 0
M  V30 4860 H 469.926 -0.062883 -4.9626 0
M  V30 4861 H 465.182 -0.984154 -6.03427 0
M  V30 4862 H 469.356 -1.64637 -6.76659 0
M  V30 4863 H 466.983 -2.11306 -7.30242 0
M  V30 4864 N 468.558 1.5553 0.254621 0
M  V30 4865 C 469.806 1.7665 0.981793 0
M  V30 4866 C 470.127 0.580963 1.86145 0
M  V30 4867 O 469.397 -0.403537 1.91699 0
M  V30 4868 H 467.977 0.651475 0.365498 0
M  V30 4869 H 470.639 1.92958 0.274426 0
M  V30 4870 H 469.735 2.67486 1.60802 0
M  V30 4871 N 470.036 -0.519951 1.48776 0
M  V30 4872 C 471.282 -1.27711 1.57536 0
M  V30 4873 C 471.615 -1.92547 0.252866 0
M  V30 4874 O 470.89 -1.7979 -0.742021 0
M  V30 4875 C 471.173 -2.35875 2.72094 0
M  V30 4876 C 471.026 -1.75664 4.1408 0
M  V30 4877 C 472.345 -3.37575 2.82367 0
M  V30 4878 H 469.464 -0.462971 0.573434 0
M  V30 4879 H 472.106 -0.578194 1.80989 0
M  V30 4880 H 470.256 -2.95488 2.52228 0
M  V30 4881 H 471.928 -1.20025 4.45412 0
M  V30 4882 H 470.171 -1.06154 4.20611 0
M  V30 4883 H 470.842 -2.54029 4.90075 0
M  V30 4884 H 473.318 -2.87929 3.00393 0
M  V30 4885 H 472.194 -4.1064 3.64233 0
M  V30 4886 H 472.455 -3.98743 1.90936 0
M  V30 4887 N 471.514 -1.37532 -0.769588 0
M  V30 4888 C 472.761 -1.3286 -1.52822 0
M  V30 4889 C 473.089 0.0862597 -1.94309 0
M  V30 4890 O 472.344 1.05995 -1.6451 0
M  V30 4891 C 472.643 -2.21558 -2.8044 0
M  V30 4892 C 472.309 -3.69796 -2.57996 0
M  V30 4893 C 470.971 -4.10194 -2.51583 0
M  V30 4894 C 473.323 -4.63699 -2.37976 0
M  V30 4895 C 470.651 -5.42608 -2.23144 0
M  V30 4896 C 473.003 -5.96353 -2.1106 0
M  V30 4897 C 471.667 -6.35853 -2.03093 0
M  V30 4898 H 470.937 -0.486168 -0.559215 0
M  V30 4899 H 473.584 -1.69757 -0.886277 0
M  V30 4900 H 471.889 -1.77663 -3.49204 0
M  V30 4901 H 473.586 -2.15256 -3.38328 0
M  V30 4902 H 470.176 -3.37759 -2.63851 0
M  V30 4903 H 474.36 -4.33346 -2.41919 0
M  V30 4904 H 469.616 -5.72173 -2.15472 0
M  V30 4905 H 473.79 -6.68667 -1.94568 0
M  V30 4906 H 471.417 -7.38382 -1.8082 0
M  V30 4907 N 472.992 0.995999 -1.22138 0
M  V30 4908 C 473.922 2.10387 -1.01289 0
M  V30 4909 C 474.903 1.69975 0.0651454 0
M  V30 4910 O 476.088 1.9396 -0.0964628 0
M  V30 4911 C 473.218 3.42312 -0.586517 0
M  V30 4912 C 472.172 3.96558 -1.61014 0
M  V30 4913 C 471.498 5.24494 -1.0397 0
M  V30 4914 C 472.798 4.27595 -2.99933 0
M  V30 4915 H 474.492 2.28086 -1.93951 0
M  V30 4916 H 472.038 1.09607 -0.933928 0
M  V30 4917 H 473.991 4.19223 -0.427793 0
M  V30 4918 H 472.715 3.24431 0.375761 0
M  V30 4919 H 471.374 3.21776 -1.75658 0
M  V30 4920 H 471.022 5.02953 -0.0688703 0
M  V30 4921 H 470.722 5.61755 -1.72352 0
M  V30 4922 H 472.246 6.04042 -0.892494 0
M  V30 4923 H 473.66 4.95315 -2.8868 0
M  V30 4924 H 472.057 4.76021 -3.6541 0
M  V30 4925 H 473.127 3.35498 -3.50099 0
M  V30 4926 N 474.47 1.03057 1.19235 0
M  V30 4927 C 475.403 0.557384 2.21288 0
M  V30 4928 C 476.381 -0.402675 1.57535 0
M  V30 4929 O 477.565 -0.319376 1.85775 0
M  V30 4930 C 474.692 -0.187041 3.38183 0
M  V30 4931 C 473.738 0.72471 4.20298 0
M  V30 4932 S 474.571 2.20187 4.88137 0
M  V30 4933 C 475.727 1.46801 6.08441 0
M  V30 4934 H 475.96 1.42207 2.61083 0
M  V30 4935 H 473.493 0.840651 1.29508 0
M  V30 4936 H 475.451 -0.610405 4.05936 0
M  V30 4937 H 474.112 -1.02748 2.96819 0
M  V30 4938 H 473.305 0.149911 5.03777 0
M  V30 4939 H 472.907 1.08647 3.57871 0
M  V30 4940 H 475.199 0.755522 6.73274 0
M  V30 4941 H 476.142 2.27946 6.70407 0
M  V30 4942 H 476.55 0.964762 5.56195 0
M  V30 4943 N 475.948 -1.35272 0.808662 0
M  V30 4944 C 476.896 -2.31663 0.208606 0
M  V30 4945 C 477.89 -1.56731 -0.642778 0
M  V30 4946 O 479.096 -1.71843 -0.53571 0
M  V30 4947 H 475.471 -0.750421 0.0486993 0
M  V30 4948 H 477.442 -2.79814 1.03666 0
M  V30 4949 C 476.191 -3.42008 -0.626573 0
M  V30 4950 H 475.514 -3.99795 0.0192103 0
M  V30 4951 H 476.954 -4.11727 -1.01278 0
M  V30 4952 C 475.413 -2.85226 -1.79298 0
M  V30 4953 O 475.943 -2.78945 -2.89055 0
M  V30 4954 N 474.149 -2.42245 -1.60516 0
M  V30 4955 H 473.696 -2.47554 -0.712375 0
M  V30 4956 H 473.654 -2.04603 -2.38715 0
M  V30 4957 N 477.426 -0.562348 -1.47226 0
M  V30 4958 C 478.651 -0.0432632 -2.07355 0
M  V30 4959 C 479.076 1.24332 -1.41149 0
M  V30 4960 O 478.434 1.74603 -0.488226 0
M  V30 4961 C 478.482 0.130288 -3.60365 0
M  V30 4962 O 477.586 1.19166 -3.94808 0
M  V30 4963 H 476.927 -0.0536334 -0.66183 0
M  V30 4964 H 479.457 -0.779495 -1.89169 0
M  V30 4965 H 479.467 0.342881 -4.06557 0
M  V30 4966 H 478.142 -0.809389 -4.07948 0
M  V30 4967 H 476.719 0.959153 -3.60354 0
M  V30 4968 N 478.904 1.54736 -0.299062 0
M  V30 4969 C 479.852 2.24897 0.593658 0
M  V30 4970 C 480.846 1.25429 1.13859 0
M  V30 4971 O 482.052 1.43286 1.08945 0
M  V30 4972 H 478.427 0.72207 0.210046 0
M  V30 4973 H 480.398 2.98393 -0.0206421 0
M  V30 4974 C 479.147 3.00159 1.75499 0
M  V30 4975 H 478.47 3.76501 1.34489 0
M  V30 4976 H 479.91 3.52535 2.35574 0
M  V30 4977 C 478.369 2.07015 2.65794 0
M  V30 4978 O 478.899 1.63692 3.66835 0
M  V30 4979 N 477.105 1.73012 2.33485 0
M  V30 4980 H 476.652 2.08439 1.51364 0
M  V30 4981 H 476.61 1.10965 2.94167 0
M  V30 4982 N 480.382 0.0267497 1.57577 0
M  V30 4983 C 481.345 -0.940916 2.08996 0
M  V30 4984 C 482.345 -1.25561 1.00455 0
M  V30 4985 O 483.535 -1.19634 1.26623 0
M  V30 4986 C 480.667 -2.25814 2.55384 0
M  V30 4987 H 481.86 -0.495628 2.95776 0
M  V30 4988 H 479.413 -0.221241 1.54726 0
M  V30 4989 H 480.148 -2.74976 1.71926 0
M  V30 4990 H 479.933 -2.04285 3.34679 0
M  V30 4991 H 481.423 -2.95178 2.95398 0
M  V30 4992 N 481.861 -1.55662 -0.24637 0
M  V30 4993 C 482.794 -1.85332 -1.33143 0
M  V30 4994 C 483.772 -0.708464 -1.46354 0
M  V30 4995 O 484.956 -0.954274 -1.6256 0
M  V30 4996 C 482.083 -2.0385 -2.70487 0
M  V30 4997 C 481.129 -3.26488 -2.74423 0
M  V30 4998 S 481.962 -4.83124 -2.30979 0
M  V30 4999 C 483.118 -5.04647 -3.70246 0
M  V30 5000 H 483.351 -2.77077 -1.07777 0
M  V30 5001 H 480.884 -1.47776 -0.44738 0
M  V30 5002 H 482.842 -2.15202 -3.49569 0
M  V30 5003 H 481.503 -1.12947 -2.9309 0
M  V30 5004 H 480.696 -3.36413 -3.7529 0
M  V30 5005 H 480.298 -3.13864 -2.03385 0
M  V30 5006 H 482.59 -4.92023 -4.65746 0
M  V30 5007 H 483.533 -6.06625 -3.65255 0
M  V30 5008 H 483.941 -4.32491 -3.62784 0
M  V30 5009 N 483.339 0.512053 -1.4905 0
M  V30 5010 C 484.249 1.64139 -1.67617 0
M  V30 5011 C 485.265 1.64786 -0.558701 0
M  V30 5012 O 486.441 1.8341 -0.832034 0
M  V30 5013 C 483.506 3.00548 -1.72835 0
M  V30 5014 C 482.567 3.10615 -2.96339 0
M  V30 5015 C 481.8 4.40517 -3.01298 0
M  V30 5016 O 482.023 5.28671 -2.14157 0
M  V30 5017 O 480.957 4.55325 -3.93653 0
M  V30 5018 H 484.783 1.51407 -2.63267 0
M  V30 5019 H 482.368 0.687131 -1.32661 0
M  V30 5020 H 484.25 3.81641 -1.78683 0
M  V30 5021 H 482.925 3.13566 -0.803616 0
M  V30 5022 H 481.832 2.2875 -2.96014 0
M  V30 5023 H 483.165 3.0252 -3.88256 0
M  V30 5024 N 484.817 1.37938 0.762283 0
M  V30 5025 C 486.063 1.33866 1.52341 0
M  V30 5026 C 486.396 -0.0738961 1.94059 0
M  V30 5027 O 485.671 -1.03326 1.64785 0
M  V30 5028 C 485.954 2.28644 2.78197 0
M  V30 5029 C 485.807 3.78722 2.42672 0
M  V30 5030 C 487.126 2.21702 3.80179 0
M  V30 5031 H 484.245 0.487593 0.55265 0
M  V30 5032 H 486.887 1.68717 0.873767 0
M  V30 5033 H 485.037 1.99055 3.33631 0
M  V30 5034 H 486.709 4.18948 1.93081 0
M  V30 5035 H 484.952 3.96827 1.75244 0
M  V30 5036 H 485.623 4.40486 3.3268 0
M  V30 5037 H 488.099 2.47805 3.34263 0
M  V30 5038 H 486.975 2.90143 4.65949 0
M  V30 5039 H 487.236 1.21301 4.25133 0
M  V30 5040 N 486.295 -0.989507 1.22664 0
M  V30 5041 C 487.541 -1.7321 1.05481 0
M  V30 5042 C 487.874 -1.89852 -0.408635 0
M  V30 5043 O 487.149 -1.44416 -1.30285 0
M  V30 5044 C 487.432 -3.1357 1.77047 0
M  V30 5045 C 487.285 -3.04555 3.31008 0
M  V30 5046 C 488.604 -4.12812 1.5256 0
M  V30 5047 H 485.723 -0.628697 0.384589 0
M  V30 5048 H 488.365 -1.15258 1.51049 0
M  V30 5049 H 486.515 -3.63046 1.3831 0
M  V30 5050 H 488.187 -2.62674 3.7921 0
M  V30 5051 H 486.43 -2.41278 3.6051 0
M  V30 5052 H 487.101 -4.03894 3.76263 0
M  V30 5053 H 489.577 -3.72106 1.86215 0
M  V30 5054 H 488.453 -5.09132 2.05124 0
M  V30 5055 H 488.714 -4.39711 0.458936 0
M  V30 5056 N 487.773 -1.03688 -1.18687 0
M  V30 5057 C 488.703 -0.645407 -2.24403 0
M  V30 5058 C 489.684 0.349511 -1.66471 0
M  V30 5059 O 490.869 0.230453 -1.92828 0
M  V30 5060 C 487.999 -0.00365337 -3.473 0
M  V30 5061 C 486.953 -0.921705 -4.17958 0
M  V30 5062 C 486.279 -0.144629 -5.34504 0
M  V30 5063 C 487.579 -2.23909 -4.71871 0
M  V30 5064 H 489.273 -1.52917 -2.57404 0
M  V30 5065 H 486.819 -0.736711 -1.23728 0
M  V30 5066 H 488.772 0.281908 -4.20456 0
M  V30 5067 H 487.496 0.914963 -3.13522 0
M  V30 5068 H 486.155 -1.19159 -3.46694 0
M  V30 5069 H 485.803 0.776274 -4.96974 0
M  V30 5070 H 485.503 -0.756206 -5.82714 0
M  V30 5071 H 487.027 0.134004 -6.10453 0
M  V30 5072 H 488.441 -2.0145 -5.36741 0
M  V30 5073 H 486.838 -2.8033 -5.30599 0
M  V30 5074 H 487.908 -2.88822 -3.895 0
M  V30 5075 N 489.251 1.34841 -0.815825 0
M  V30 5076 C 490.183 2.28409 -0.190265 0
M  V30 5077 C 491.196 1.50705 0.615771 0
M  V30 5078 O 492.385 1.72822 0.446616 0
M  V30 5079 C 489.485 3.30441 0.752446 0
M  V30 5080 C 488.658 4.37399 -0.00922152 0
M  V30 5081 C 487.717 5.19234 0.853351 0
M  V30 5082 O 486.743 5.68404 0.300919 0
M  V30 5083 N 487.945 5.38248 2.17416 0
M  V30 5084 H 490.71 2.82732 -0.994114 0
M  V30 5085 H 488.271 1.47289 -0.672129 0
M  V30 5086 H 490.263 3.82084 1.33394 0
M  V30 5087 H 488.833 2.76565 1.45707 0
M  V30 5088 H 488.053 3.86567 -0.771979 0
M  V30 5089 H 489.341 5.05992 -0.533807 0
M  V30 5090 H 488.739 4.99961 2.6468 0
M  V30 5091 H 487.296 5.93035 2.70467 0
M  V30 5092 N 490.729 0.570148 1.46925 0
M  V30 5093 C 492.14 0.1402 1.86173 0
M  V30 5094 C 492.491 -1.29347 1.47526 0
M  V30 5095 O 491.616 -1.97508 0.884292 0
M  V30 5096 C 492.211 0.247661 3.37894 0
M  V30 5097 C 490.77 -0.127332 3.76185 0
M  V30 5098 C 489.917 0.589349 2.70965 0
M  V30 5099 H 492.868 0.779117 1.38259 0
M  V30 5100 H 492.889 -0.530341 3.76786 0
M  V30 5101 H 492.401 1.29121 3.65991 0
M  V30 5102 H 490.502 -1.17149 3.53704 0
M  V30 5103 H 490.615 0.240238 4.78497 0
M  V30 5104 H 488.979 0.0309824 2.54681 0
M  V30 5105 H 489.762 1.6343 3.01903 0
M  V30 5106 N 492.207 -1.54576 0.307264 0
M  V30 5107 C 493.17 -2.22423 -0.553224 0
M  V30 5108 C 494.17 -1.21231 -1.05639 0
M  V30 5109 O 495.36 -1.45923 -0.951419 0
M  V30 5110 C 492.492 -2.91552 -1.76664 0
M  V30 5111 H 493.685 -2.99874 0.0396484 0
M  V30 5112 H 491.238 -1.56192 0.0581629 0
M  V30 5113 H 491.973 -2.18196 -2.39918 0
M  V30 5114 H 491.758 -3.65738 -1.41343 0
M  V30 5115 H 493.248 -3.43292 -2.37783 0
M  V30 5116 N 493.685 -0.035106 -1.57561 0
M  V30 5117 C 495.096 0.502885 -1.798 0
M  V30 5118 C 495.447 1.71892 -0.945921 0
M  V30 5119 O 494.572 2.15822 -0.157991 0
M  V30 5120 C 495.167 0.919097 -3.26095 0
M  V30 5121 C 493.726 1.40216 -3.49308 0
M  V30 5122 C 492.873 0.369709 -2.74824 0
M  V30 5123 H 495.824 -0.261102 -1.56537 0
M  V30 5124 H 495.845 1.78308 -3.36135 0
M  V30 5125 H 495.357 0.0338526 -3.88085 0
M  V30 5126 H 493.458 2.30714 -2.92578 0
M  V30 5127 H 493.571 1.40541 -4.58023 0
M  V30 5128 H 491.935 0.839113 -2.40481 0
M  V30 5129 H 492.718 -0.507173 -3.39533 0
M  V30 5130 N 495.163 1.55791 0.238111 0
M  V30 5131 C 496.126 1.90239 1.27835 0
M  V30 5132 C 497.126 0.779552 1.4064 0
M  V30 5133 O 498.316 1.04747 1.3919 0
M  V30 5134 C 495.448 2.13859 2.65475 0
M  V30 5135 H 496.641 2.83262 0.985034 0
M  V30 5136 H 494.194 1.48818 0.477799 0
M  V30 5137 H 494.929 1.23334 2.99932 0
M  V30 5138 H 494.714 2.95643 2.57561 0
M  V30 5139 H 496.204 2.41664 3.40571 0
M  V30 5140 N 496.642 -0.504142 1.49319 0
M  V30 5141 C 497.891 -1.25507 1.57895 0
M  V30 5142 C 498.204 -1.93735 0.269433 0
M  V30 5143 O 499.41 -2.70492 0.233706 0
M  V30 5144 C 497.866 -2.27869 2.78574 0
M  V30 5145 C 497.474 -1.65594 4.16272 0
M  V30 5146 C 499.218 -3.0381 2.96479 0
M  V30 5147 C 497.125 -2.66048 5.28178 0
M  V30 5148 H 496.055 -0.47212 0.587894 0
M  V30 5149 H 498.706 -0.52931 1.757 0
M  V30 5150 H 497.088 -3.03594 2.54257 0
M  V30 5151 H 498.262 -0.958826 4.50714 0
M  V30 5152 H 496.577 -1.02055 4.037 0
M  V30 5153 H 499.174 -3.78925 3.77253 0
M  V30 5154 H 499.517 -3.61235 2.06918 0
M  V30 5155 H 500.05 -2.352 3.20821 0
M  V30 5156 H 496.789 -2.13408 6.19788 0
M  V30 5157 H 496.309 -3.34009 4.98195 0
M  V30 5158 H 497.988 -3.28536 5.57381 0
M  V30 5159 N 498.12 -1.38341 -0.754957 0
M  V30 5160 C 499.348 -1.37704 -1.54419 0
M  V30 5161 C 499.763 0.0335243 -1.8877 0
M  V30 5162 O 499.12 0.999773 -1.52679 0
M  V30 5163 C 499.171 -2.23136 -2.84416 0
M  V30 5164 O 498.892 -3.58697 -2.51531 0
M  V30 5165 C 500.393 -2.30664 -3.78562 0
M  V30 5166 H 497.613 -0.471061 -0.477852 0
M  V30 5167 H 500.157 -1.81902 -0.934446 0
M  V30 5168 H 498.312 -1.82403 -3.41772 0
M  V30 5169 H 498.726 -4.03665 -3.34896 0
M  V30 5170 H 500.2 -2.9473 -4.66732 0
M  V30 5171 H 500.677 -1.3199 -4.18898 0
M  V30 5172 H 501.283 -2.71781 -3.27131 0
M  V30 5173 N 499.598 0.982988 -1.23187 0
M  V30 5174 C 500.828 1.75666 -1.08743 0
M  V30 5175 C 501.236 1.85662 0.364195 0
M  V30 5176 O 500.579 1.33317 1.26382 0
M  V30 5177 C 500.641 3.20144 -1.63549 0
M  V30 5178 C 500.305 3.33665 -3.12277 0
M  V30 5179 C 501.302 3.20194 -4.096 0
M  V30 5180 C 498.987 3.58397 -3.51933 0
M  V30 5181 C 500.981 3.31256 -5.44563 0
M  V30 5182 C 498.668 3.69098 -4.87042 0
M  V30 5183 C 499.666 3.55537 -5.83166 0
M  V30 5184 O 499.354 3.65864 -7.1582 0
M  V30 5185 H 499.086 0.558194 -0.381307 0
M  V30 5186 H 501.64 1.24387 -1.63454 0
M  V30 5187 H 499.87 3.72659 -1.03256 0
M  V30 5188 H 501.559 3.79262 -1.4462 0
M  V30 5189 H 502.325 3.00987 -3.80305 0
M  V30 5190 H 498.204 3.68025 -2.77631 0
M  V30 5191 H 501.748 3.20588 -6.19572 0
M  V30 5192 H 497.645 3.87814 -5.16014 0
M  V30 5193 H 498.413 3.82675 -7.23534 0
M  V30 5194 N 501.076 1.04316 1.18135 0
M  V30 5195 C 502.492 0.762858 1.40188 0
M  V30 5196 C 502.692 -0.646547 1.90846 0
M  V30 5197 O 501.748 -1.41036 2.0944 0
M  V30 5198 C 503.061 1.81106 2.40044 0
M  V30 5199 C 504.609 1.83226 2.53766 0
M  V30 5200 C 505.084 2.87044 3.56889 0
M  V30 5201 N 506.575 2.85951 3.64398 0
M  V30 5202 C 507.31 3.62932 4.43923 0
M  V30 5203 N 506.806 4.49672 5.27036 0
M  V30 5204 N 508.599 3.51411 4.38711 0
M  V30 5205 H 500.75 1.95264 0.835805 0
M  V30 5206 H 503.013 0.845017 0.429709 0
M  V30 5207 H 502.719 2.82214 2.09876 0
M  V30 5208 H 502.593 1.64529 3.39426 0
M  V30 5209 H 504.98 0.827869 2.8325 0
M  V30 5210 H 505.061 2.03879 1.54489 0
M  V30 5211 H 504.705 3.87663 3.28145 0
M  V30 5212 H 504.635 2.63645 4.5585 0
M  V30 5213 H 507.126 2.23051 3.05052 0
M  V30 5214 H 507.439 5.05116 5.84874 0
M  V30 5215 H 505.784 4.53738 5.26447 0
M  V30 5216 H 508.975 2.83047 3.72829 0
M  V30 5217 H 509.148 4.11654 5.00445 0
M  V30 5218 N 502.554 -1.34406 0.822964 0
M  V30 5219 C 503.782 -2.02508 0.424039 0
M  V30 5220 C 504.197 -1.61975 -0.970022 0
M  V30 5221 O 503.554 -0.825228 -1.62777 0
M  V30 5222 C 503.605 -3.57789 0.516657 0
M  V30 5223 O 503.326 -3.96853 1.85577 0
M  V30 5224 C 504.827 -4.43157 0.112637 0
M  V30 5225 H 502.047 -0.649063 0.170173 0
M  V30 5226 H 504.591 -1.7168 1.11113 0
M  V30 5227 H 502.746 -3.87207 -0.122353 0
M  V30 5228 H 503.16 -4.91538 1.83005 0
M  V30 5229 H 504.634 -5.51527 0.228526 0
M  V30 5230 H 505.111 -4.28939 -0.943837 0
M  V30 5231 H 505.717 -4.19067 0.725449 0
M  V30 5232 N 504.032 -0.577932 -1.46621 0
M  V30 5233 C 505.281 -0.0594281 -2.01612 0
M  V30 5234 C 505.594 1.30663 -1.45556 0
M  V30 5235 O 506.8 1.91621 -1.92337 0
M  V30 5236 C 505.256 -0.0556666 -3.59857 0
M  V30 5237 C 504.864 -1.41975 -4.24908 0
M  V30 5238 C 506.608 0.409143 -4.22524 0
M  V30 5239 C 504.515 -1.37397 -5.75218 0
M  V30 5240 H 503.445 -0.0184469 -0.753774 0
M  V30 5241 H 506.096 -0.728869 -1.68404 0
M  V30 5242 H 504.478 0.679843 -3.90121 0
M  V30 5243 H 505.652 -2.17461 -4.0626 0
M  V30 5244 H 503.967 -1.82419 -3.74316 0
M  V30 5245 H 506.564 0.46211 -5.32699 0
M  V30 5246 H 506.907 1.42565 -3.91128 0
M  V30 5247 H 507.44 -0.272152 -3.96868 0
M  V30 5248 H 504.179 -2.36714 -6.11267 0
M  V30 5249 H 503.699 -0.661239 -5.96144 0
M  V30 5250 H 505.378 -1.08484 -6.3784 0
M  V30 5251 N 505.51 1.54411 -0.315457 0
M  V30 5252 C 506.758 2.00023 0.288971 0
M  V30 5253 C 507.079 1.20529 1.5329 0
M  V30 5254 O 506.349 0.304986 1.93511 0
M  V30 5255 H 504.929 0.738891 0.109766 0
M  V30 5256 H 507.591 1.90094 -0.430129 0
M  V30 5257 H 506.687 3.07198 0.550999 0
M  V30 5258 N 506.988 0.0434614 1.5754 0
M  V30 5259 C 508.236 -0.630786 1.92004 0
M  V30 5260 C 508.557 -1.71836 0.921807 0
M  V30 5261 O 507.827 -1.9587 -0.034522 0
M  V30 5262 H 506.407 -0.235988 0.708745 0
M  V30 5263 H 509.069 0.0946462 1.9467 0
M  V30 5264 H 508.165 -1.07434 2.93026 0
M  V30 5265 N 508.466 -1.55915 -0.229846 0
M  V30 5266 C 509.715 -1.77742 -0.953455 0
M  V30 5267 C 510.028 -0.610524 -1.85828 0
M  V30 5268 O 511.234 -0.712219 -2.61992 0
M  V30 5269 C 509.69 -3.14738 -1.74551 0
M  V30 5270 C 509.298 -4.39126 -0.887242 0
M  V30 5271 C 511.042 -3.45895 -2.46084 0
M  V30 5272 C 508.949 -5.67149 -1.67617 0
M  V30 5273 H 507.879 -0.662648 -0.359741 0
M  V30 5274 H 510.53 -1.82322 -0.207576 0
M  V30 5275 H 508.912 -3.04311 -2.53399 0
M  V30 5276 H 510.086 -4.60588 -0.139892 0
M  V30 5277 H 508.401 -4.15427 -0.284443 0
M  V30 5278 H 510.998 -4.38767 -3.05594 0
M  V30 5279 H 511.341 -2.68007 -3.18556 0
M  V30 5280 H 511.874 -3.57614 -1.74233 0
M  V30 5281 H 508.613 -6.47906 -0.994881 0
M  V30 5282 H 508.133 -5.49763 -2.39836 0
M  V30 5283 H 509.812 -6.07025 -2.23898 0
M  V30 5284 N 509.944 0.496216 -1.49584 0
M  V30 5285 C 510.874 1.60576 -1.69521 0
M  V30 5286 C 511.855 1.61169 -0.543933 0
M  V30 5287 O 513.04 1.77834 -0.78031 0
M  V30 5288 C 510.17 2.99038 -1.76616 0
M  V30 5289 C 509.124 3.13312 -2.91581 0
M  V30 5290 C 508.45 4.53172 -2.83794 0
M  V30 5291 C 509.75 2.92886 -4.32452 0
M  V30 5292 H 511.444 1.44146 -2.62416 0
M  V30 5293 H 508.99 0.692024 -1.26282 0
M  V30 5294 H 510.943 3.76564 -1.8915 0
M  V30 5295 H 509.667 3.16568 -0.80324 0
M  V30 5296 H 508.326 2.38213 -2.78658 0
M  V30 5297 H 507.974 4.67585 -1.854 0
M  V30 5298 H 507.674 4.63662 -3.60958 0
M  V30 5299 H 509.198 5.32752 -2.98342 0
M  V30 5300 H 510.612 3.60178 -4.46032 0
M  V30 5301 H 509.009 3.14844 -5.10875 0
M  V30 5302 H 510.079 1.88966 -4.46565 0
M  V30 5303 N 511.423 1.38739 0.74761 0
M  V30 5304 C 512.7 1.25791 1.49786 0
M  V30 5305 C 513.08 -0.138075 2.10648 0
M  V30 5306 O 512.428 -1.14815 1.9756 0
M  V30 5307 C 512.638 2.37265 2.55942 0
M  V30 5308 C 513.986 2.75978 3.22679 0
M  V30 5309 O 515.01 2.36621 2.6625 0
M  V30 5310 O 513.869 3.43867 4.24756 0
M  V30 5311 H 510.963 0.492251 0.664543 0
M  V30 5312 H 513.509 1.50582 0.782511 0
M  V30 5313 H 512.281 3.30644 2.0926 0
M  V30 5314 H 511.904 2.14071 3.35051 0
M  V30 5315 N 512.901 -0.976442 1.23707 0
M  V30 5316 C 514.148 -1.71827 1.07153 0
M  V30 5317 C 514.476 -1.9053 -0.390982 0
M  V30 5318 O 513.731 -1.45779 -1.30564 0
M  V30 5319 C 514.03 -3.11814 1.74662 0
M  V30 5320 C 513.696 -3.12978 3.24585 0
M  V30 5321 C 512.358 -3.13003 3.6549 0
M  V30 5322 C 514.71 -3.07986 4.20469 0
M  V30 5323 C 512.038 -3.05757 5.00729 0
M  V30 5324 C 514.39 -3.02282 5.55705 0
M  V30 5325 C 513.054 -3.00631 5.95968 0
M  V30 5326 H 512.324 -0.628758 0.392102 0
M  V30 5327 H 514.971 -1.14239 1.53693 0
M  V30 5328 H 513.276 -3.72812 1.20492 0
M  V30 5329 H 514.973 -3.67989 1.59328 0
M  V30 5330 H 511.563 -3.13718 2.92026 0
M  V30 5331 H 515.747 -3.07103 3.89874 0
M  V30 5332 H 511.003 -3.02834 5.31132 0
M  V30 5333 H 515.177 -2.97376 6.29714 0
M  V30 5334 H 512.804 -2.94771 7.00724 0
M  V30 5335 N 514.379 -1.04941 -1.1758 0
M  V30 5336 C 515.609 -0.777166 -1.91425 0
M  V30 5337 C 516.017 0.670647 -1.76915 0
M  V30 5338 O 515.36 1.46965 -1.10213 0
M  V30 5339 C 515.422 -1.07495 -3.43052 0
M  V30 5340 C 515.086 -2.51844 -3.81345 0
M  V30 5341 C 516.083 -3.50047 -3.844 0
M  V30 5342 C 513.768 -2.86787 -4.12382 0
M  V30 5343 C 515.762 -4.81239 -4.17957 0
M  V30 5344 C 513.449 -4.18182 -4.45608 0
M  V30 5345 C 514.447 -5.15219 -4.48373 0
M  V30 5346 O 514.135 -6.44258 -4.80819 0
M  V30 5347 H 513.867 -0.282209 -0.614275 0
M  V30 5348 H 516.421 -1.40258 -1.50056 0
M  V30 5349 H 514.651 -0.392437 -3.84704 0
M  V30 5350 H 516.34 -0.78912 -3.98155 0
M  V30 5351 H 517.106 -3.24391 -3.60548 0
M  V30 5352 H 512.985 -2.11922 -4.09402 0
M  V30 5353 H 516.529 -5.56974 -4.2003 0
M  V30 5354 H 512.426 -4.43602 -4.68922 0
M  V30 5355 H 513.194 -6.49041 -4.98686 0
M  V30 5356 N 515.857 1.33968 -0.830081 0
M  V30 5357 C 517.103 1.98357 -0.422191 0
M  V30 5358 C 517.436 1.65633 1.01387 0
M  V30 5359 O 516.711 0.931648 1.70735 0
M  V30 5360 C 516.994 3.54492 -0.633043 0
M  V30 5361 C 516.847 3.96934 -2.11574 0
M  V30 5362 C 518.166 4.40039 -0.0735584 0
M  V30 5363 H 515.285 0.720544 -0.154871 0
M  V30 5364 H 517.927 1.58749 -1.04397 0
M  V30 5365 H 516.077 3.88361 -0.103775 0
M  V30 5366 H 517.749 3.73363 -2.7092 0
M  V30 5367 H 515.992 3.46984 -2.60354 0
M  V30 5368 H 516.663 5.05651 -2.21406 0
M  V30 5369 H 519.139 4.12764 -0.52585 0
M  V30 5370 H 518.015 5.48327 -0.250841 0
M  V30 5371 H 518.276 4.30124 1.02202 0
M  V30 5372 N 517.335 0.585699 1.46312 0
M  V30 5373 C 518.582 0.0724211 2.0237 0
M  V30 5374 C 518.91 -1.28868 1.45683 0
M  V30 5375 O 518.165 -1.85853 0.612945 0
M  V30 5376 C 518.464 -0.0401312 3.57377 0
M  V30 5377 C 518.13 1.25376 4.33119 0
M  V30 5378 C 516.792 1.60824 4.5353 0
M  V30 5379 C 519.144 2.10987 4.76586 0
M  V30 5380 C 516.472 2.81676 5.14661 0
M  V30 5381 C 518.824 3.31068 5.39052 0
M  V30 5382 C 517.488 3.66794 5.5769 0
M  V30 5383 H 516.758 0.0265007 0.740526 0
M  V30 5384 H 519.405 0.762935 1.75646 0
M  V30 5385 H 517.71 -0.813791 3.83255 0
M  V30 5386 H 519.407 -0.453078 3.98432 0
M  V30 5387 H 515.997 0.967808 4.1753 0
M  V30 5388 H 520.181 1.84904 4.60569 0
M  V30 5389 H 515.437 3.0949 5.27282 0
M  V30 5390 H 519.611 3.97672 5.71691 0
M  V30 5391 H 517.238 4.60529 6.04828 0
M  V30 5392 N 518.813 -1.54241 0.323641 0
M  V30 5393 C 519.743 -2.27289 -0.534993 0
M  V30 5394 C 520.724 -1.28087 -1.11927 0
M  V30 5395 O 521.909 -1.56899 -1.14439 0
M  V30 5396 C 519.039 -3.03075 -1.69596 0
M  V30 5397 C 517.993 -4.09614 -1.24098 0
M  V30 5398 C 517.319 -4.73242 -2.4889 0
M  V30 5399 C 518.619 -5.21087 -0.355789 0
M  V30 5400 H 520.313 -2.99308 0.0743257 0
M  V30 5401 H 517.859 -1.43952 0.0371874 0
M  V30 5402 H 519.812 -3.52907 -2.30293 0
M  V30 5403 H 518.536 -2.28673 -2.33187 0
M  V30 5404 H 517.195 -3.60666 -0.656945 0
M  V30 5405 H 516.843 -3.95455 -3.10845 0
M  V30 5406 H 516.543 -5.45209 -2.19138 0
M  V30 5407 H 518.067 -5.25848 -3.10348 0
M  V30 5408 H 519.481 -5.66675 -0.869042 0
M  V30 5409 H 517.878 -5.9991 -0.151045 0
M  V30 5410 H 518.948 -4.81005 0.613339 0
M  V30 5411 N 520.291 -0.0518155 -1.57515 0
M  V30 5412 C 521.539 0.620595 -1.92336 0
M  V30 5413 C 521.86 1.71345 -0.930907 0
M  V30 5414 O 521.13 1.95885 0.0241341 0
M  V30 5415 H 519.71 0.232226 -0.709986 0
M  V30 5416 H 522.372 -0.104969 -1.94617 0
M  V30 5417 H 521.468 1.05879 -2.93592 0
M  V30 5418 N 521.769 1.56035 0.221574 0
M  V30 5419 C 522.717 1.93269 1.29421 0
M  V30 5420 C 523.711 0.814727 1.48521 0
M  V30 5421 O 524.917 0.999559 1.49696 0
M  V30 5422 H 521.292 0.614188 0.43391 0
M  V30 5423 H 523.263 2.82773 0.952987 0
M  V30 5424 C 522.012 2.26573 2.63742 0
M  V30 5425 H 521.335 3.12112 2.49853 0
M  V30 5426 H 522.775 2.5651 3.37607 0
M  V30 5427 C 521.234 1.09086 3.1875 0
M  V30 5428 O 521.764 0.351985 4.00155 0
M  V30 5429 N 519.97 0.874693 2.77124 0
M  V30 5430 H 519.517 1.47726 2.11033 0
M  V30 5431 H 519.475 0.0903349 3.1427 0
M  V30 5432 N 523.247 -0.488276 1.49845 0
M  V30 5433 C 524.475 -1.26527 1.63702 0
M  V30 5434 C 524.89 -1.8618 0.313447 0
M  V30 5435 O 524.247 -1.68432 -0.702624 0
M  V30 5436 C 524.298 -2.3864 2.71538 0
M  V30 5437 O 524.019 -1.81437 3.98763 0
M  V30 5438 C 525.52 -3.29805 2.96215 0
M  V30 5439 H 522.74 -0.383295 0.55075 0
M  V30 5440 H 525.284 -0.584779 1.95961 0
M  V30 5441 H 523.439 -3.02496 2.42023 0
M  V30 5442 H 523.853 -2.55135 4.58265 0
M  V30 5443 H 525.327 -4.04722 3.75372 0
M  V30 5444 H 525.804 -3.87563 2.06619 0
M  V30 5445 H 526.41 -2.71703 3.27196 0
M  V30 5446 N 524.725 -1.39134 -0.740242 0
M  V30 5447 C 526.136 -1.32208 -1.31825 0
M  V30 5448 C 526.487 0.0159919 -1.96193 0
M  V30 5449 O 525.612 0.918111 -1.95958 0
M  V30 5450 C 526.207 -2.39436 -2.39699 0
M  V30 5451 C 524.766 -2.36048 -2.93187 0
M  V30 5452 C 523.913 -2.21599 -1.66701 0
M  V30 5453 H 526.864 -1.49298 -0.538133 0
M  V30 5454 H 526.885 -2.05922 -3.19963 0
M  V30 5455 H 526.397 -3.36811 -1.92821 0
M  V30 5456 H 524.498 -1.42295 -3.44359 0
M  V30 5457 H 524.611 -3.30704 -3.46658 0
M  V30 5458 H 522.975 -1.68681 -1.90837 0
M  V30 5459 H 523.758 -3.20936 -1.21882 0
M  V30 5460 N 526.204 0.969867 -1.24223 0
M  V30 5461 C 527.114 2.09806 -1.0497 0
M  V30 5462 C 528.13 1.73998 0.00886455 0
M  V30 5463 O 529.306 2.00513 -0.188848 0
M  V30 5464 C 526.371 3.40467 -0.654452 0
M  V30 5465 C 525.432 3.90236 -1.78926 0
M  V30 5466 C 524.665 5.14662 -1.41277 0
M  V30 5467 O 524.888 5.69602 -0.301632 0
M  V30 5468 O 523.822 5.58761 -2.23763 0
M  V30 5469 H 527.648 2.28942 -1.99548 0
M  V30 5470 H 525.233 1.08197 -1.03023 0
M  V30 5471 H 527.115 4.19039 -0.445452 0
M  V30 5472 H 525.79 3.22636 0.262216 0
M  V30 5473 H 524.697 3.12735 -2.05299 0
M  V30 5474 H 526.03 4.1254 -2.68462 0
M  V30 5475 N 527.682 1.05563 1.17022 0
M  V30 5476 C 528.614 0.617888 2.20714 0
M  V30 5477 C 529.627 -0.320303 1.59618 0
M  V30 5478 O 530.816 -0.112449 1.78145 0
M  V30 5479 C 527.916 -0.115333 3.38704 0
M  V30 5480 C 527.089 0.834493 4.29366 0
M  V30 5481 C 526.148 0.141855 5.26009 0
M  V30 5482 O 525.174 0.777151 5.6387 0
M  V30 5483 N 526.376 -1.11934 5.69606 0
M  V30 5484 H 529.141 1.50981 2.58892 0
M  V30 5485 H 526.702 0.938008 1.31958 0
M  V30 5486 H 528.694 -0.588918 4.00392 0
M  V30 5487 H 527.264 -0.908967 2.99093 0
M  V30 5488 H 526.484 1.48762 3.65053 0
M  V30 5489 H 527.772 1.4791 4.86827 0
M  V30 5490 H 527.17 -1.65574 5.40927 0
M  V30 5491 H 525.727 -1.53692 6.33421 0
M  V30 5492 N 529.16 -1.33526 0.837174 0
M  V30 5493 C 530.406 -1.9813 0.432704 0
M  V30 5494 C 530.739 -1.66168 -1.00508 0
M  V30 5495 O 530.014 -0.94069 -1.70239 0
M  V30 5496 C 530.297 -3.54151 0.651834 0
M  V30 5497 C 530.15 -3.95806 2.13676 0
M  V30 5498 C 531.469 -4.39993 0.0968937 0
M  V30 5499 H 528.588 -0.719713 0.15869 0
M  V30 5500 H 531.23 -1.58193 1.05237 0
M  V30 5501 H 529.38 -3.88301 0.124369 0
M  V30 5502 H 531.052 -3.71921 2.72896 0
M  V30 5503 H 529.295 -3.45599 2.62191 0
M  V30 5504 H 529.966 -5.0447 2.24084 0
M  V30 5505 H 532.442 -4.12479 0.547733 0
M  V30 5506 H 531.318 -5.48186 0.279917 0
M  V30 5507 H 531.579 -4.3066 -0.9992 0
M  V30 5508 N 530.638 -0.59345 -1.46 0
M  V30 5509 C 531.884 -0.0832754 -2.02629 0
M  V30 5510 C 532.217 1.27749 -1.46266 0
M  V30 5511 O 531.492 1.8395 -0.631866 0
M  V30 5512 C 531.775 -0.0290756 -3.60088 0
M  V30 5513 C 531.628 -1.41951 -4.26814 0
M  V30 5514 C 532.947 0.666055 -4.35031 0
M  V30 5515 H 530.066 -0.031736 -0.736316 0
M  V30 5516 H 532.708 -0.762711 -1.74019 0
M  V30 5517 H 530.858 0.549532 -3.84594 0
M  V30 5518 H 532.53 -2.04411 -4.13538 0
M  V30 5519 H 530.773 -1.98422 -3.8576 0
M  V30 5520 H 531.444 -1.33395 -5.3564 0
M  V30 5521 H 533.92 0.174401 -4.15734 0
M  V30 5522 H 532.796 0.673041 -5.44758 0
M  V30 5523 H 533.057 1.72946 -4.06869 0
M  V30 5524 N 532.116 1.54067 -0.331816 0
M  V30 5525 C 533.048 2.22139 0.564538 0
M  V30 5526 C 534.061 1.22408 1.07332 0
M  V30 5527 O 535.25 1.4883 0.985481 0
M  V30 5528 C 532.35 2.87876 1.78831 0
M  V30 5529 C 531.523 4.13817 1.41682 0
M  V30 5530 C 530.582 4.63072 2.49901 0
M  V30 5531 O 529.608 5.27562 2.13699 0
M  V30 5532 N 530.81 4.38001 3.80967 0
M  V30 5533 H 533.575 2.99694 -0.0183736 0
M  V30 5534 H 531.136 1.61153 -0.155396 0
M  V30 5535 H 533.128 3.17747 2.50637 0
M  V30 5536 H 531.698 2.13977 2.27887 0
M  V30 5537 H 530.918 3.9062 0.530044 0
M  V30 5538 H 532.206 4.95762 1.14443 0
M  V30 5539 H 531.604 3.864 4.13173 0
M  V30 5540 H 530.161 4.72507 4.48977 0
M  V30 5541 N 533.594 0.0601682 1.57485 0
M  V30 5542 C 534.504 -0.926121 2.15546 0
M  V30 5543 C 535.52 -1.33532 1.11558 0
M  V30 5544 O 536.696 -1.4104 1.4377 0
M  V30 5545 C 533.761 -2.17952 2.69625 0
M  V30 5546 C 532.822 -1.82783 3.88444 0
M  V30 5547 C 532.055 -3.02148 4.39935 0
M  V30 5548 O 532.278 -4.15803 3.90466 0
M  V30 5549 O 531.212 -2.82639 5.31412 0
M  V30 5550 H 535.038 -0.462289 3.00161 0
M  V30 5551 H 532.623 -0.162246 1.48516 0
M  V30 5552 H 534.505 -2.91474 3.04337 0
M  V30 5553 H 533.18 -2.63456 1.88077 0
M  V30 5554 H 532.087 -1.06549 3.58606 0
M  V30 5555 H 533.42 -1.42072 4.7125 0
M  V30 5556 N 535.072 -1.5615 -0.213296 0
M  V30 5557 C 536.302 -1.83372 -0.951757 0
M  V30 5558 C 536.71 -0.638158 -1.78113 0
M  V30 5559 O 536.053 0.402609 -1.79234 0
M  V30 5560 C 536.115 -3.04444 -1.91192 0
M  V30 5561 C 535.779 -4.39107 -1.26627 0
M  V30 5562 C 536.776 -5.15794 -0.652087 0
M  V30 5563 C 534.461 -4.85834 -1.27556 0
M  V30 5564 C 536.455 -6.37376 -0.055814 0
M  V30 5565 C 534.142 -6.07356 -0.675451 0
M  V30 5566 C 535.14 -6.82967 -0.0666367 0
M  V30 5567 O 534.828 -8.0219 0.524119 0
M  V30 5568 H 534.56 -0.613398 -0.284111 0
M  V30 5569 H 537.114 -2.04096 -0.231112 0
M  V30 5570 H 535.344 -2.79559 -2.67178 0
M  V30 5571 H 537.033 -3.18466 -2.51662 0
M  V30 5572 H 537.799 -4.80796 -0.637172 0
M  V30 5573 H 533.678 -4.26949 -1.73883 0
M  V30 5574 H 537.222 -6.96334 0.420004 0
M  V30 5575 H 533.119 -6.41825 -0.687806 0
M  V30 5576 H 533.887 -8.17426 0.419243 0
M  V30 5577 N 536.55 0.480323 -1.50102 0
M  V30 5578 C 537.48 1.58769 -1.71215 0
M  V30 5579 C 538.461 1.60583 -0.560997 0
M  V30 5580 O 539.646 1.76996 -0.799127 0
M  V30 5581 C 536.776 2.97148 -1.79778 0
M  V30 5582 C 535.73 3.10201 -2.94888 0
M  V30 5583 C 535.056 4.50137 -2.88584 0
M  V30 5584 C 536.356 2.88283 -4.35534 0
M  V30 5585 H 538.05 1.41354 -2.6393 0
M  V30 5586 H 535.596 0.678591 -1.27008 0
M  V30 5587 H 537.549 3.74536 -1.93133 0
M  V30 5588 H 536.273 3.15699 -0.836772 0
M  V30 5589 H 534.932 2.35244 -2.81169 0
M  V30 5590 H 534.58 4.65593 -1.90349 0
M  V30 5591 H 534.28 4.59808 -3.65856 0
M  V30 5592 H 535.804 5.29558 -3.03976 0
M  V30 5593 H 537.218 3.55427 -4.49827 0
M  V30 5594 H 535.615 3.09408 -5.14186 0
M  V30 5595 H 536.685 1.84219 -4.48544 0
M  V30 5596 N 538.028 1.39524 0.732853 0
M  V30 5597 C 538.938 1.40695 1.87729 0
M  V30 5598 C 539.954 0.301496 1.71368 0
M  V30 5599 O 541.13 0.543313 1.93933 0
M  V30 5600 C 538.195 1.25098 3.23344 0
M  V30 5601 C 537.256 2.45634 3.52083 0
M  V30 5602 C 536.489 2.30772 4.81228 0
M  V30 5603 O 536.712 1.31233 5.55098 0
M  V30 5604 O 535.646 3.19799 5.09914 0
M  V30 5605 H 539.472 2.37168 1.89697 0
M  V30 5606 H 537.057 1.20663 0.880959 0
M  V30 5607 H 538.939 1.18541 4.04383 0
M  V30 5608 H 537.614 0.317209 3.22142 0
M  V30 5609 H 536.521 2.57767 2.71122 0
M  V30 5610 H 537.854 3.37712 3.58066 0
M  V30 5611 N 539.506 -0.963266 1.24736 0
M  V30 5612 C 540.436 -2.07628 1.06832 0
M  V30 5613 C 541.417 -1.70088 -0.0200566 0
M  V30 5614 O 542.602 -1.93636 0.147854 0
M  V30 5615 C 539.732 -3.40636 0.677069 0
M  V30 5616 C 538.686 -3.9215 1.71471 0
M  V30 5617 C 538.012 -5.21553 1.1784 0
M  V30 5618 C 539.312 -4.19493 3.11164 0
M  V30 5619 H 541.006 -2.22864 1.9993 0
M  V30 5620 H 538.552 -1.07093 0.96266 0
M  V30 5621 H 540.505 -4.17941 0.538792 0
M  V30 5622 H 539.229 -3.25313 -0.289612 0
M  V30 5623 H 537.888 -3.17005 1.84128 0
M  V30 5624 H 537.536 -5.02593 0.202195 0
M  V30 5625 H 537.236 -5.56988 1.87185 0
M  V30 5626 H 538.76 -6.01463 1.05233 0
M  V30 5627 H 540.174 -4.87487 3.01711 0
M  V30 5628 H 538.571 -4.66165 3.77902 0
M  V30 5629 H 539.641 -3.26097 3.58871 0
M  V30 5630 N 540.985 -1.06182 -1.16461 0
M  V30 5631 C 542.234 -0.772927 -1.86303 0
M  V30 5632 C 542.547 0.703187 -1.82523 0
M  V30 5633 O 543.753 1.10641 -2.47933 0
M  V30 5634 C 542.209 -1.33249 -3.34324 0
M  V30 5635 C 541.817 -2.83876 -3.46581 0
M  V30 5636 C 543.561 -1.12108 -4.09429 0
M  V30 5637 C 541.468 -3.33082 -4.88682 0
M  V30 5638 H 540.398 -0.285452 -0.697878 0
M  V30 5639 H 543.049 -1.28039 -1.31447 0
M  V30 5640 H 541.431 -0.7528 -3.88779 0
M  V30 5641 H 542.605 -3.47786 -3.02293 0
M  V30 5642 H 540.92 -3.03671 -2.84909 0
M  V30 5643 H 543.517 -1.46361 -5.14279 0
M  V30 5644 H 543.86 -0.0593832 -4.16258 0
M  V30 5645 H 544.393 -1.6665 -3.6121 0
M  V30 5646 H 541.132 -4.38726 -4.87032 0
M  V30 5647 H 540.652 -2.73919 -5.33599 0
M  V30 5648 H 542.331 -3.28344 -5.57494 0
M  V30 5649 N 542.463 1.3308 -0.844243 0
M  V30 5650 C 543.711 1.97215 -0.441676 0
M  V30 5651 C 544.032 1.67185 1.0037 0
M  V30 5652 O 543.302 0.973588 1.69994 0
M  V30 5653 H 541.882 0.72959 -0.160335 0
M  V30 5654 H 544.544 1.62348 -1.07838 0
M  V30 5655 H 543.64 3.06698 -0.57815 0
M  V30 5656 N 543.941 0.601185 1.45683 0
M  V30 5657 C 545.357 0.264315 1.57396 0
M  V30 5658 C 545.557 -1.23324 1.59353 0
M  V30 5659 O 544.613 -2.01594 1.52039 0
M  V30 5660 C 545.926 0.929839 2.85962 0
M  V30 5661 C 547.474 0.905156 2.99626 0
M  V30 5662 C 547.949 1.55057 4.30954 0
M  V30 5663 N 549.44 1.51576 4.37697 0
M  V30 5664 C 550.175 1.98436 5.37969 0
M  V30 5665 N 549.671 2.53352 6.44813 0
M  V30 5666 N 551.464 1.89242 5.29286 0
M  V30 5667 H 543.615 1.57363 1.42656 0
M  V30 5668 H 545.878 0.658831 0.681649 0
M  V30 5669 H 545.584 1.98404 2.90394 0
M  V30 5670 H 545.458 0.449224 3.74515 0
M  V30 5671 H 547.845 -0.14048 2.94765 0
M  V30 5672 H 547.926 1.42397 2.12501 0
M  V30 5673 H 547.57 2.5955 4.36573 0
M  V30 5674 H 547.5 1.00682 5.16886 0
M  V30 5675 H 549.991 1.11452 3.61091 0
M  V30 5676 H 550.304 2.86918 7.17564 0
M  V30 5677 H 548.649 2.57388 6.45582 0
M  V30 5678 H 551.84 1.46083 4.44722 0
M  V30 5679 H 552.013 2.26075 6.07284 0
M  V30 5680 N 545.419 -1.53889 0.339982 0
M  V30 5681 C 546.83 -1.86139 -0.144671 0
M  V30 5682 C 547.181 -1.2613 -1.50285 0
M  V30 5683 O 546.306 -0.573515 -2.08662 0
M  V30 5684 C 546.901 -3.37728 -0.269285 0
M  V30 5685 C 545.46 -3.69868 -0.698168 0
M  V30 5686 C 544.607 -2.76777 0.170249 0
M  V30 5687 H 547.558 -1.48503 0.559704 0
M  V30 5688 H 547.579 -3.64331 -1.0974 0
M  V30 5689 H 547.091 -3.81375 0.719366 0
M  V30 5690 H 545.192 -3.31764 -1.69597 0
M  V30 5691 H 545.305 -4.76582 -0.490533 0
M  V30 5692 H 543.669 -2.52188 -0.356844 0
M  V30 5693 H 544.452 -3.23253 1.15597 0
M  V30 5694 N 546.897 -0.0685191 -1.57451 0
M  V30 5695 C 547.86 0.885173 -2.11417 0
M  V30 5696 C 548.86 1.22853 -1.03748 0
M  V30 5697 O 550.05 1.16235 -1.2975 0
M  V30 5698 C 547.182 2.18964 -2.61281 0
M  V30 5699 H 548.375 0.417034 -2.96986 0
M  V30 5700 H 545.928 0.18014 -1.55258 0
M  V30 5701 H 546.663 2.70321 -1.79156 0
M  V30 5702 H 546.448 1.9534 -3.39977 0
M  V30 5703 H 547.938 2.87242 -3.0312 0
M  V30 5704 N 548.375 1.56261 0.205012 0
M  V30 5705 C 549.305 1.96779 1.257 0
M  V30 5706 C 550.286 0.838309 1.48008 0
M  V30 5707 O 551.471 1.10189 1.59913 0
M  V30 5708 C 548.601 2.29876 2.60335 0
M  V30 5709 C 547.555 3.45469 2.52656 0
M  V30 5710 C 546.881 3.64215 3.91473 0
M  V30 5711 C 548.181 4.79954 2.06014 0
M  V30 5712 H 549.875 2.84904 0.920338 0
M  V30 5713 H 547.421 1.37072 0.441277 0
M  V30 5714 H 549.374 2.56814 3.34102 0
M  V30 5715 H 548.098 1.38622 2.95722 0
M  V30 5716 H 546.757 3.18605 1.81345 0
M  V30 5717 H 546.405 2.70309 4.24196 0
M  V30 5718 H 546.105 4.41973 3.87213 0
M  V30 5719 H 547.629 3.93519 4.66878 0
M  V30 5720 H 549.043 5.05989 2.69533 0
M  V30 5721 H 547.44 5.61111 2.12777 0
M  V30 5722 H 548.51 4.74201 1.01297 0
M  V30 5723 N 549.853 -0.472356 1.50355 0
M  V30 5724 C 551.264 -1.05326 1.54154 0
M  V30 5725 C 551.615 -1.93155 0.344303 0
M  V30 5726 O 550.74 -2.09479 -0.542928 0
M  V30 5727 C 551.335 -1.91691 2.79356 0
M  V30 5728 C 549.894 -2.44892 2.8584 0
M  V30 5729 C 549.041 -1.23205 2.48426 0
M  V30 5730 H 551.992 -0.255027 1.56637 0
M  V30 5731 H 552.013 -2.76742 2.6114 0
M  V30 5732 H 551.525 -1.27741 3.66475 0
M  V30 5733 H 549.626 -3.12399 2.0307 0
M  V30 5734 H 549.739 -2.80086 3.88701 0
M  V30 5735 H 548.103 -1.56643 2.00836 0
M  V30 5736 H 548.886 -0.609194 3.37852 0
M  V30 5737 N 551.331 -1.39911 -0.725443 0
M  V30 5738 C 552.556 -1.41137 -1.5197 0
M  V30 5739 C 552.981 -0.010262 -1.88097 0
M  V30 5740 O 552.339 0.979184 -1.52583 0
M  V30 5741 C 552.387 -2.2994 -2.77777 0
M  V30 5742 O 551.491 -1.73586 -3.74088 0
M  V30 5743 H 550.832 -0.480219 -0.458569 0
M  V30 5744 H 553.362 -1.84023 -0.894249 0
M  V30 5745 H 553.372 -2.44785 -3.26411 0
M  V30 5746 H 552.047 -3.31759 -2.50816 0
M  V30 5747 H 550.624 -1.68035 -3.32894 0
M  V30 5748 N 552.809 0.956637 -1.25245 0
M  V30 5749 C 554.039 1.7332 -1.12445 0
M  V30 5750 C 554.447 1.86392 0.324732 0
M  V30 5751 O 553.79 1.35967 1.23526 0
M  V30 5752 C 553.852 3.16603 -1.70303 0
M  V30 5753 C 553.516 3.26966 -3.19284 0
M  V30 5754 C 554.513 3.11434 -4.16299 0
M  V30 5755 C 552.198 3.50851 -3.59456 0
M  V30 5756 C 554.192 3.1963 -5.51467 0
M  V30 5757 C 551.879 3.58684 -4.94761 0
M  V30 5758 C 552.877 3.43087 -5.90576 0
M  V30 5759 O 552.565 3.50598 -7.2342 0
M  V30 5760 H 552.297 0.549981 -0.393061 0
M  V30 5761 H 554.851 1.20892 -1.66055 0
M  V30 5762 H 553.081 3.70385 -1.11138 0
M  V30 5763 H 554.77 3.76109 -1.52632 0
M  V30 5764 H 555.536 2.92853 -3.86604 0
M  V30 5765 H 551.415 3.62053 -2.85375 0
M  V30 5766 H 554.959 3.07373 -6.26233 0
M  V30 5767 H 550.856 3.76782 -5.24124 0
M  V30 5768 H 551.624 3.67242 -7.31489 0
M  V30 5769 N 554.287 1.06798 1.15896 0
M  V30 5770 C 555.533 0.798757 1.8706 0
M  V30 5771 C 555.888 -0.667739 1.80441 0
M  V30 5772 O 555.181 -1.48334 1.21274 0
M  V30 5773 C 555.375 1.23414 3.35416 0
M  V30 5774 C 555.204 2.74142 3.56478 0
M  V30 5775 C 553.974 3.41675 3.72272 0
M  V30 5776 C 556.172 3.72348 3.5477 0
M  V30 5777 N 554.154 4.81101 3.81333 0
M  V30 5778 C 555.525 4.97585 3.69877 0
M  V30 5779 C 557.58 3.65585 3.38011 0
M  V30 5780 C 556.283 6.16866 3.69959 0
M  V30 5781 C 558.309 4.84323 3.39389 0
M  V30 5782 C 557.671 6.08391 3.5502 0
M  V30 5783 H 553.77 0.344761 0.7019 0
M  V30 5784 H 556.354 1.36314 1.3902 0
M  V30 5785 H 554.525 0.697522 3.82085 0
M  V30 5786 H 556.257 0.91304 3.94266 0
M  V30 5787 H 553.012 2.92078 3.7281 0
M  V30 5788 H 553.436 5.53647 3.8962 0
M  V30 5789 H 558.078 2.70615 3.2485 0
M  V30 5790 H 555.796 7.12164 3.819 0
M  V30 5791 H 559.382 4.80762 3.27658 0
M  V30 5792 H 558.262 6.98731 3.56012 0
M  V30 5793 N 555.766 -1.3263 0.851289 0
M  V30 5794 C 556.729 -2.27247 0.298541 0
M  V30 5795 C 557.729 -1.51467 -0.539847 0
M  V30 5796 O 558.919 -1.7061 -0.351843 0
M  V30 5797 C 556.051 -3.35964 -0.578004 0
M  V30 5798 H 557.244 -2.7765 1.13359 0
M  V30 5799 H 554.797 -1.43245 0.625354 0
M  V30 5800 H 555.532 -2.90823 -1.435 0
M  V30 5801 H 555.317 -3.92094 0.0220539 0
M  V30 5802 H 556.807 -4.06472 -0.957626 0
M  V30 5803 N 557.244 -0.608902 -1.45362 0
M  V30 5804 C 558.174 0.0964526 -2.33301 0
M  V30 5805 C 559.155 0.857444 -1.46908 0
M  V30 5806 O 560.34 0.827735 -1.75676 0
M  V30 5807 C 557.47 1.09354 -3.29635 0
M  V30 5808 C 556.424 0.445676 -4.25673 0
M  V30 5809 C 555.75 1.5511 -5.11708 0
M  V30 5810 C 557.05 -0.633972 -5.18438 0
M  V30 5811 H 558.744 -0.637829 -2.92527 0
M  V30 5812 H 556.29 -0.308178 -1.40664 0
M  V30 5813 H 558.243 1.59556 -3.90025 0
M  V30 5814 H 556.967 1.85843 -2.6857 0
M  V30 5815 H 555.626 -0.0354897 -3.66583 0
M  V30 5816 H 555.274 2.30631 -4.4701 0
M  V30 5817 H 554.974 1.12311 -5.76767 0
M  V30 5818 H 556.498 2.05537 -5.74967 0
M  V30 5819 H 557.912 -0.215974 -5.72893 0
M  V30 5820 H 556.309 -0.983789 -5.91981 0
M  V30 5821 H 557.379 -1.51005 -4.60788 0
M  V30 5822 N 558.722 1.53707 -0.348139 0
M  V30 5823 C 559.97 2.00591 0.246478 0
M  V30 5824 C 560.291 1.23753 1.50699 0
M  V30 5825 O 559.561 0.345964 1.92821 0
M  V30 5826 H 558.141 0.741053 0.0940679 0
M  V30 5827 H 560.803 1.89139 -0.470354 0
M  V30 5828 H 559.899 3.08297 0.485714 0
M  V30 5829 N 560.2 0.0768682 1.57412 0
M  V30 5830 C 561.447 -0.591085 1.93681 0
M  V30 5831 C 561.775 -1.69311 0.957286 0
M  V30 5832 O 561.03 -1.95682 -0.0262428 0
M  V30 5833 C 561.329 -1.20268 3.36557 0
M  V30 5834 C 560.995 -0.226286 4.50332 0
M  V30 5835 C 559.657 0.0423142 4.81181 0
M  V30 5836 C 562.009 0.441415 5.19327 0
M  V30 5837 C 559.337 0.985616 5.78362 0
M  V30 5838 C 561.689 1.37307 6.17519 0
M  V30 5839 C 560.353 1.65009 6.46783 0
M  V30 5840 H 559.623 -0.216293 0.70873 0
M  V30 5841 H 562.27 0.148824 1.90921 0
M  V30 5842 H 560.575 -2.01844 3.35807 0
M  V30 5843 H 562.272 -1.72688 3.61911 0
M  V30 5844 H 558.862 -0.445821 4.26275 0
M  V30 5845 H 563.046 0.247023 4.95685 0
M  V30 5846 H 558.302 1.20743 5.99359 0
M  V30 5847 H 562.476 1.89637 6.70083 0
M  V30 5848 H 560.103 2.38263 7.21897 0
M  V30 5849 N 561.678 -1.56367 -0.196722 0
M  V30 5850 C 562.628 -1.9082 -1.24787 0
M  V30 5851 C 563.612 -0.773719 -1.41076 0
M  V30 5852 O 564.804 -1.03655 -1.43474 0
M  V30 5853 C 561.933 -2.24982 -2.59303 0
M  V30 5854 C 561.019 -3.44882 -2.46814 0
M  V30 5855 N 561.41 -4.62835 -2.04003 0
M  V30 5856 C 559.708 -3.48988 -2.77711 0
M  V30 5857 C 560.409 -5.44993 -2.03366 0
M  V30 5858 N 559.385 -4.85356 -2.44807 0
M  V30 5859 H 563.187 -2.79516 -0.908175 0
M  V30 5860 H 560.701 -1.57265 -0.405166 0
M  V30 5861 H 562.698 -2.47848 -3.35227 0
M  V30 5862 H 561.358 -1.37611 -2.94098 0
M  V30 5863 H 562.369 -4.87532 -1.74738 0
M  V30 5864 H 559.046 -2.72029 -3.16712 0
M  V30 5865 H 560.436 -6.49464 -1.72181 0
M  V30 5866 N 563.156 0.464375 -1.50603 0
M  V30 5867 C 564.086 1.56944 -1.72889 0
M  V30 5868 C 565.067 1.59979 -0.577997 0
M  V30 5869 O 566.252 1.76138 -0.817855 0
M  V30 5870 C 563.382 2.95225 -1.8292 0
M  V30 5871 C 562.336 3.07056 -2.98162 0
M  V30 5872 C 561.662 4.47051 -2.93343 0
M  V30 5873 C 562.962 2.83648 -4.38567 0
M  V30 5874 H 564.656 1.38547 -2.65415 0
M  V30 5875 H 562.202 0.665082 -1.27721 0
M  V30 5876 H 564.155 3.72467 -1.97095 0
M  V30 5877 H 562.879 3.14793 -0.870209 0
M  V30 5878 H 561.538 2.32248 -2.83648 0
M  V30 5879 H 561.186 4.63547 -1.95276 0
M  V30 5880 H 560.886 4.55902 -3.70712 0
M  V30 5881 H 562.41 5.26304 -3.09575 0
M  V30 5882 H 563.824 3.50636 -4.53572 0
M  V30 5883 H 562.221 3.03937 -5.17438 0
M  V30 5884 H 563.291 1.79451 -4.50472 0
M  V30 5885 N 564.634 1.40294 0.718013 0
M  V30 5886 C 565.859 1.41941 1.5122 0
M  V30 5887 C 566.284 0.0202371 1.88089 0
M  V30 5888 O 565.642 -0.971078 1.53101 0
M  V30 5889 C 565.69 2.3141 2.76554 0
M  V30 5890 O 564.794 1.75567 3.73162 0
M  V30 5891 H 564.135 0.482644 0.456016 0
M  V30 5892 H 566.665 1.84494 0.884478 0
M  V30 5893 H 566.675 2.46513 3.25108 0
M  V30 5894 H 565.35 3.33085 2.49053 0
M  V30 5895 H 563.927 1.69798 3.31999 0
M  V30 5896 N 566.112 -0.949982 1.2575 0
M  V30 5897 C 567.528 -1.22191 1.02672 0
M  V30 5898 C 567.728 -1.99898 -0.253588 0
M  V30 5899 O 566.784 -2.33329 -0.965076 0
M  V30 5900 C 568.097 -1.99175 2.25277 0
M  V30 5901 C 569.645 -2.12201 2.30087 0
M  V30 5902 C 570.12 -2.92586 3.5236 0
M  V30 5903 N 571.611 -3.00163 3.52784 0
M  V30 5904 C 572.346 -3.62766 4.44059 0
M  V30 5905 N 571.842 -4.26943 5.45611 0
M  V30 5906 N 573.635 -3.59953 4.3173 0
M  V30 5907 H 565.786 -0.430258 2.07996 0
M  V30 5908 H 568.049 -0.252844 0.91366 0
M  V30 5909 H 567.755 -1.49479 3.18354 0
M  V30 5910 H 567.629 -2.99868 2.28821 0
M  V30 5911 H 570.016 -2.61093 1.3753 0
M  V30 5912 H 570.097 -1.10799 2.30559 0
M  V30 5913 H 569.741 -2.44383 4.45241 0
M  V30 5914 H 569.671 -3.94224 3.49134 0
M  V30 5915 H 572.162 -2.54529 2.79327 0
M  V30 5916 H 572.475 -4.72583 6.11461 0
M  V30 5917 H 570.82 -4.25557 5.49478 0
M  V30 5918 H 574.011 -3.09003 3.51617 0
M  V30 5919 H 574.184 -4.08455 5.03059 0
M  V30 5920 N 567.59 -1.07411 -1.15328 0
M  V30 5921 C 568.82 -0.817595 -1.89734 0
M  V30 5922 C 569.228 0.63297 -1.78298 0
M  V30 5923 O 568.571 1.44594 -1.13306 0
M  V30 5924 C 568.633 -1.14748 -3.40695 0
M  V30 5925 C 568.297 -2.59876 -3.75917 0
M  V30 5926 C 569.294 -3.58122 -3.76888 0
M  V30 5927 C 566.979 -2.95469 -4.06206 0
M  V30 5928 C 568.973 -4.89996 -4.07655 0
M  V30 5929 C 566.66 -4.2754 -4.36638 0
M  V30 5930 C 567.658 -5.24614 -4.37344 0
M  V30 5931 O 567.346 -6.54312 -4.67045 0
M  V30 5932 H 567.078 -0.295175 -0.608151 0
M  V30 5933 H 569.632 -1.43409 -1.47048 0
M  V30 5934 H 567.862 -0.47395 -3.83785 0
M  V30 5935 H 569.551 -0.873397 -3.96392 0
M  V30 5936 H 570.317 -3.31966 -3.53587 0
M  V30 5937 H 566.196 -2.20558 -4.04815 0
M  V30 5938 H 569.74 -5.65759 -4.08121 0
M  V30 5939 H 565.637 -4.53449 -4.59407 0
M  V30 5940 H 566.405 -6.59473 -4.84807 0
M  V30 5941 N 569.068 1.32177 -0.85831 0
M  V30 5942 C 569.978 2.32561 -0.308606 0
M  V30 5943 C 570.994 1.64209 0.575462 0
M  V30 5944 O 572.17 1.95719 0.474961 0
M  V30 5945 C 569.235 3.43207 0.490909 0
M  V30 5946 C 568.296 4.27243 -0.419733 0
M  V30 5947 C 567.529 5.32605 0.341719 0
M  V30 5948 O 567.752 5.48332 1.57125 0
M  V30 5949 O 566.686 6.0118 -0.294379 0
M  V30 5950 H 570.512 2.81477 -1.14037 0
M  V30 5951 H 568.097 1.35866 -0.621349 0
M  V30 5952 H 569.979 4.10677 0.944574 0
M  V30 5953 H 568.654 2.96474 1.29941 0
M  V30 5954 H 567.561 3.62569 -0.921652 0
M  V30 5955 H 568.894 4.7751 -1.19352 0
M  V30 5956 N 570.547 0.616602 1.45037 0
M  V30 5957 C 571.777 0.121791 2.06241 0
M  V30 5958 C 572.185 -1.20289 1.46038 0
M  V30 5959 O 571.528 -1.7456 0.572242 0
M  V30 5960 C 571.59 -0.0827345 3.59405 0
M  V30 5961 C 571.254 1.16153 4.41993 0
M  V30 5962 C 572.251 2.08183 4.76399 0
M  V30 5963 C 569.936 1.39288 4.82601 0
M  V30 5964 C 571.93 3.21668 5.5028 0
M  V30 5965 C 569.617 2.53073 5.56235 0
M  V30 5966 C 570.615 3.44091 5.89992 0
M  V30 5967 O 570.303 4.55894 6.6213 0
M  V30 5968 H 570.035 0.0701667 0.672349 0
M  V30 5969 H 572.589 0.846877 1.87129 0
M  V30 5970 H 570.819 -0.862812 3.76952 0
M  V30 5971 H 572.508 -0.530273 4.02421 0
M  V30 5972 H 573.274 1.91538 4.45576 0
M  V30 5973 H 569.153 0.693396 4.55755 0
M  V30 5974 H 572.697 3.92733 5.76547 0
M  V30 5975 H 568.594 2.69667 5.86472 0
M  V30 5976 H 569.362 4.5469 6.80587 0
M  V30 5977 N 572.025 -1.5352 0.356285 0
M  V30 5978 C 573.273 -2.00719 -0.235837 0
M  V30 5979 C 573.594 -1.24551 -1.5004 0
M  V30 5980 O 572.864 -0.356185 -1.92635 0
M  V30 5981 H 571.444 -0.741542 -0.0901366 0
M  V30 5982 H 574.106 -1.88887 0.480378 0
M  V30 5983 H 573.202 -3.08551 -0.469357 0
M  V30 5984 N 573.503 -0.0852151 -1.57369 0
M  V30 5985 C 574.731 0.58946 -1.98325 0
M  V30 5986 C 575.146 1.62333 -0.96403 0
M  V30 5987 O 574.503 1.82438 0.0476395 0
M  V30 5988 C 574.554 1.24604 -3.39347 0
M  V30 5989 O 574.275 0.253532 -4.37366 0
M  V30 5990 C 575.776 2.00726 -3.95252 0
M  V30 5991 H 572.996 0.158783 -0.651942 0
M  V30 5992 H 575.54 -0.161584 -2.03861 0
M  V30 5993 H 573.695 1.94808 -3.34856 0
M  V30 5994 H 574.109 0.726207 -5.19448 0
M  V30 5995 H 575.583 2.42039 -4.96106 0
M  V30 5996 H 576.06 2.86919 -3.32527 0
M  V30 5997 H 576.666 1.3536 -4.03185 0
M  V30 5998 N 574.981 1.5647 0.188427 0
M  V30 5999 C 575.911 1.98101 1.23606 0
M  V30 6000 C 576.892 0.853961 1.47111 0
M  V30 6001 O 578.077 1.11879 1.58735 0
M  V30 6002 C 575.207 2.32624 2.57882 0
M  V30 6003 C 574.161 3.48129 2.48978 0
M  V30 6004 C 573.487 3.68347 3.87588 0
M  V30 6005 C 574.787 4.82112 2.00911 0
M  V30 6006 H 576.481 2.85864 0.890068 0
M  V30 6007 H 574.027 1.37532 0.426714 0
M  V30 6008 H 575.98 2.60343 3.3136 0
M  V30 6009 H 574.704 1.41751 2.94235 0
M  V30 6010 H 573.363 3.20511 1.77956 0
M  V30 6011 H 573.011 2.74793 4.21305 0
M  V30 6012 H 572.711 4.46055 3.82503 0
M  V30 6013 H 574.235 3.98449 4.62678 0
M  V30 6014 H 575.649 5.08819 2.64151 0
M  V30 6015 H 574.046 5.63337 2.06814 0
M  V30 6016 H 575.116 4.75249 0.96262 0
M  V30 6017 N 576.459 -0.456382 1.50847 0
M  V30 6018 C 577.736 -1.21739 1.53098 0
M  V30 6019 C 578.116 -2.09179 0.284132 0
M  V30 6020 O 577.464 -2.16466 -0.731773 0
M  V30 6021 C 577.674 -2.03573 2.83477 0
M  V30 6022 C 579.022 -2.61264 3.34703 0
M  V30 6023 O 580.046 -2.13802 2.84898 0
M  V30 6024 O 578.905 -3.47779 4.21559 0
M  V30 6025 H 575.999 -0.553219 0.614718 0
M  V30 6026 H 578.545 -0.467003 1.63148 0
M  V30 6027 H 577.317 -1.39232 3.65691 0
M  V30 6028 H 576.94 -2.85716 2.76499 0
M  V30 6029 N 577.937 -1.40673 -0.710563 0
M  V30 6030 C 578.885 -1.41517 -1.84596 0
M  V30 6031 C 579.879 -0.295043 -1.66811 0
M  V30 6032 O 581.085 -0.466331 -1.73854 0
M  V30 6033 H 577.46 -0.442467 -0.608052 0
M  V30 6034 H 579.431 -2.37238 -1.80999 0
M  V30 6035 C 578.18 -1.29957 -3.225 0
M  V30 6036 H 577.503 -2.15429 -3.36794 0
M  V30 6037 H 578.943 -1.34608 -4.02066 0
M  V30 6038 C 577.402 -0.0103164 -3.36898 0
M  V30 6039 O 577.932 0.950707 -3.90288 0
M  V30 6040 N 576.138 0.0608409 -2.90536 0
M  V30 6041 H 575.685 -0.721943 -2.47277 0
M  V30 6042 H 575.643 0.92292 -3.00549 0
M  V30 6043 N 579.415 0.9433 -1.26252 0
M  V30 6044 C 580.348 2.04162 -1.01946 0
M  V30 6045 C 581.326 1.62507 0.0550808 0
M  V30 6046 O 582.51 1.883 -0.0869025 0
M  V30 6047 C 579.637 3.34313 -0.54335 0
M  V30 6048 C 578.683 3.94939 -1.61013 0
M  V30 6049 S 579.516 4.29484 -3.19849 0
M  V30 6050 C 580.672 5.62738 -2.74001 0
M  V30 6051 H 580.905 2.24466 -1.94942 0
M  V30 6052 H 578.438 1.08441 -1.09909 0
M  V30 6053 H 580.396 4.09576 -0.275315 0
M  V30 6054 H 579.057 3.11957 0.36629 0
M  V30 6055 H 578.25 4.88812 -1.22795 0
M  V30 6056 H 577.852 3.26202 -1.82943 0
M  V30 6057 H 580.144 6.41356 -2.18333 0
M  V30 6058 H 581.087 6.05839 -3.66558 0
M  V30 6059 H 581.495 5.22514 -2.13634 0
M  V30 6060 N 580.893 1.08022 1.14757 0
M  V30 6061 C 582.309 0.807072 1.3769 0
M  V30 6062 C 582.509 -0.585504 1.92806 0
M  V30 6063 O 581.565 -1.34301 2.13821 0
M  V30 6064 C 582.878 1.88651 2.34161 0
M  V30 6065 C 584.426 1.91206 2.47809 0
M  V30 6066 C 584.901 2.98253 3.47576 0
M  V30 6067 N 586.392 2.974 3.55117 0
M  V30 6068 C 587.127 3.76872 4.32152 0
M  V30 6069 N 586.623 4.66212 5.12463 0
M  V30 6070 N 588.416 3.6519 4.27309 0
M  V30 6071 H 580.567 1.97824 0.77326 0
M  V30 6072 H 582.83 0.85826 0.402608 0
M  V30 6073 H 582.536 2.88749 2.00791 0
M  V30 6074 H 582.41 1.75244 3.3402 0
M  V30 6075 H 584.797 0.917564 2.80472 0
M  V30 6076 H 584.878 2.08691 1.47925 0
M  V30 6077 H 584.522 3.97907 3.15646 0
M  V30 6078 H 584.452 2.78014 4.47231 0
M  V30 6079 H 586.943 2.32643 2.97801 0
M  V30 6080 H 587.256 5.23468 5.68508 0
M  V30 6081 H 585.601 4.70257 5.11745 0
M  V30 6082 H 588.792 2.94765 3.63636 0
M  V30 6083 H 588.965 4.27366 4.87095 0
M  V30 6084 N 582.371 -1.3172 0.865308 0
M  V30 6085 C 583.281 -2.32394 0.320935 0
M  V30 6086 C 584.297 -1.64511 -0.566746 0
M  V30 6087 O 585.473 -1.95969 -0.464575 0
M  V30 6088 C 582.538 -3.43462 -0.472701 0
M  V30 6089 C 581.599 -4.27015 0.442385 0
M  V30 6090 C 580.832 -5.32779 -0.313469 0
M  V30 6091 O 581.055 -5.49158 -1.54214 0
M  V30 6092 O 579.989 -6.01015 0.326257 0
M  V30 6093 H 583.815 -2.80868 1.15528 0
M  V30 6094 H 581.4 -1.35535 0.628545 0
M  V30 6095 H 583.282 -4.11172 -0.922781 0
M  V30 6096 H 581.957 -2.97159 -1.28367 0
M  V30 6097 H 580.864 -3.62075 0.940866 0
M  V30 6098 H 582.197 -4.76871 1.21882 0
M  V30 6099 N 583.85 -0.624285 -1.44708 0
M  V30 6100 C 585.096 -0.126237 -2.02407 0
M  V30 6101 C 585.428 1.24618 -1.48943 0
M  V30 6102 O 584.704 1.82569 -0.670742 0
M  V30 6103 C 584.986 -0.105449 -3.59946 0
M  V30 6104 C 584.84 -1.50972 -4.23707 0
M  V30 6105 C 586.159 0.573629 -4.36346 0
M  V30 6106 H 583.278 -0.0473472 -0.735478 0
M  V30 6107 H 585.92 -0.799452 -1.72362 0
M  V30 6108 H 584.07 0.46783 -3.85673 0
M  V30 6109 H 585.742 -2.13136 -4.0911 0
M  V30 6110 H 583.985 -2.0656 -3.81465 0
M  V30 6111 H 584.656 -1.44727 -5.32689 0
M  V30 6112 H 587.132 0.0861787 -4.16011 0
M  V30 6113 H 586.008 0.557338 -5.46063 0
M  V30 6114 H 586.269 1.64276 -4.10446 0
M  V30 6115 N 585.328 1.53329 -0.364422 0
M  V30 6116 C 586.574 2.01537 0.225969 0
M  V30 6117 C 586.907 1.25128 1.48515 0
M  V30 6118 O 586.182 0.344653 1.91422 0
M  V30 6119 C 586.465 3.56339 0.519092 0
M  V30 6120 C 586.318 4.43441 -0.753639 0
M  V30 6121 C 587.637 4.19833 1.32015 0
M  V30 6122 H 584.756 0.732573 0.0806548 0
M  V30 6123 H 587.398 1.83597 -0.489084 0
M  V30 6124 H 585.548 3.71756 1.12825 0
M  V30 6125 H 587.22 4.39823 -1.39116 0
M  V30 6126 H 585.463 4.11457 -1.37424 0
M  V30 6127 H 586.134 5.49699 -0.503517 0
M  V30 6128 H 588.61 4.08242 0.804859 0
M  V30 6129 H 587.486 5.28177 1.49399 0
M  V30 6130 H 587.747 3.75821 2.32832 0
M  V30 6131 N 586.806 0.0935595 1.57322 0
M  V30 6132 C 587.716 -0.880192 2.17462 0
M  V30 6133 C 588.732 -1.31135 1.14366 0
M  V30 6134 O 589.908 -1.37958 1.46729 0
M  V30 6135 C 586.973 -2.12184 2.74188 0
M  V30 6136 C 586.034 -1.74503 3.92234 0
M  V30 6137 C 585.267 -2.92748 4.46245 0
M  V30 6138 O 585.49 -4.07427 3.99198 0
M  V30 6139 O 584.424 -2.71303 5.37288 0
M  V30 6140 H 588.25 -0.398516 3.01074 0
M  V30 6141 H 585.835 -0.130707 1.48827 0
M  V30 6142 H 587.717 -2.84953 3.10451 0
M  V30 6143 H 586.392 -2.59407 1.93623 0
M  V30 6144 H 585.299 -0.989186 3.60785 0
M  V30 6145 H 586.632 -1.32044 4.74157 0
M  V30 6146 N 588.284 -1.56567 -0.180126 0
M  V30 6147 C 589.7 -1.50488 -0.531559 0
M  V30 6148 C 589.9 -0.796267 -1.851 0
M  V30 6149 O 588.956 -0.352978 -2.50021 0
M  V30 6150 C 590.269 -2.95201 -0.572456 0
M  V30 6151 C 591.817 -3.05957 -0.660264 0
M  V30 6152 C 592.292 -4.5211 -0.732135 0
M  V30 6153 N 593.783 -4.56322 -0.795262 0
M  V30 6154 C 594.518 -5.66742 -0.871296 0
M  V30 6155 N 594.014 -6.86815 -0.908708 0
M  V30 6156 N 595.807 -5.54691 -0.909639 0
M  V30 6157 H 587.958 -2.01045 0.685165 0
M  V30 6158 H 590.221 -0.915536 0.245962 0
M  V30 6159 H 589.927 -3.50165 0.328208 0
M  V30 6160 H 589.801 -3.49369 -1.422 0
M  V30 6161 H 592.188 -2.51032 -1.55136 0
M  V30 6162 H 592.269 -2.54888 0.215783 0
M  V30 6163 H 591.913 -5.07664 0.154664 0
M  V30 6164 H 591.843 -5.00926 -1.6242 0
M  V30 6165 H 594.334 -3.69868 -0.77499 0
M  V30 6166 H 594.647 -7.66718 -0.967654 0
M  V30 6167 H 592.992 -6.89443 -0.877132 0
M  V30 6168 H 596.183 -4.59804 -0.877353 0
M  V30 6169 H 596.356 -6.40768 -0.965434 0
M  V30 6170 N 589.762 0.448376 -1.51087 0
M  V30 6171 C 590.71 1.56407 -1.72161 0
M  V30 6172 C 591.704 1.58878 -0.587721 0
M  V30 6173 O 592.91 1.62755 -0.768822 0
M  V30 6174 H 589.285 0.519423 -0.543786 0
M  V30 6175 H 591.256 1.35803 -2.65707 0
M  V30 6176 C 590.005 2.94163 -1.85373 0
M  V30 6177 H 589.328 2.9299 -2.72024 0
M  V30 6178 H 590.768 3.71625 -2.04135 0
M  V30 6179 C 589.227 3.31317 -0.610803 0
M  V30 6180 O 589.757 4.00985 0.239636 0
M  V30 6181 N 587.963 2.86966 -0.458127 0
M  V30 6182 H 587.51 2.30443 -1.15124 0
M  V30 6183 H 587.468 3.12188 0.372289 0
M  V30 6184 N 591.24 1.41047 0.703093 0
M  V30 6185 C 592.656 1.23351 1.01275 0
M  V30 6186 C 592.856 0.11754 2.01157 0
M  V30 6187 O 591.912 -0.520518 2.47077 0
M  V30 6188 C 593.225 2.58001 1.54454 0
M  V30 6189 C 594.773 2.65119 1.66376 0
M  V30 6190 C 595.248 4.00067 2.22958 0
M  V30 6191 N 596.739 4.01875 2.30328 0
M  V30 6192 C 597.474 5.03087 2.75119 0
M  V30 6193 N 596.97 6.14692 3.19571 0
M  V30 6194 N 598.763 4.90451 2.74616 0
M  V30 6195 H 590.914 2.1236 0.0412686 0
M  V30 6196 H 593.177 0.944543 0.08089 0
M  V30 6197 H 592.883 3.40378 0.88521 0
M  V30 6198 H 592.757 2.79962 2.52786 0
M  V30 6199 H 595.144 1.83106 2.31422 0
M  V30 6200 H 595.225 2.46975 0.666089 0
M  V30 6201 H 594.869 4.82526 1.58529 0
M  V30 6202 H 594.799 4.15547 3.23462 0
M  V30 6203 H 597.29 3.21291 1.98949 0
M  V30 6204 H 597.603 6.87799 3.52352 0
M  V30 6205 H 595.948 6.18239 3.17498 0
M  V30 6206 H 599.139 4.0235 2.39233 0
M  V30 6207 H 599.312 5.6947 3.09206 0
M  V30 6208 N 592.718 -0.936591 1.26751 0
M  V30 6209 C 593.681 -2.01752 1.08761 0
M  V30 6210 C 594.681 -1.60763 0.0344435 0
M  V30 6211 O 595.871 -1.71963 0.278258 0
M  V30 6212 C 593.003 -3.34543 0.655271 0
M  V30 6213 H 594.196 -2.19143 2.04735 0
M  V30 6214 H 591.749 -1.11618 1.09413 0
M  V30 6215 H 592.484 -3.22851 -0.30626 0
M  V30 6216 H 592.269 -3.65647 1.41578 0
M  V30 6217 H 593.759 -4.13944 0.551378 0
M  V30 6218 N 594.196 -1.08629 -1.14182 0
M  V30 6219 C 595.159 -0.722027 -2.1753 0
M  V30 6220 C 596.159 0.244305 -1.58933 0
M  V30 6221 O 597.349 0.0235545 -1.74184 0
M  V30 6222 C 594.481 -0.0663966 -3.40835 0
M  V30 6223 H 595.674 -1.63719 -2.51269 0
M  V30 6224 H 593.227 -0.884442 -1.28869 0
M  V30 6225 H 593.962 0.860389 -3.12678 0
M  V30 6226 H 593.747 -0.761598 -3.84632 0
M  V30 6227 H 595.237 0.173346 -4.1724 0
M  V30 6228 N 595.674 1.31259 -0.872281 0
M  V30 6229 C 596.606 2.27396 -0.28697 0
M  V30 6230 C 597.619 1.53181 0.551297 0
M  V30 6231 O 598.808 1.74561 0.372914 0
M  V30 6232 C 595.908 3.33335 0.611617 0
M  V30 6233 C 595.081 4.36966 -0.194729 0
M  V30 6234 C 594.14 5.22387 0.632358 0
M  V30 6235 O 593.166 5.69169 0.0595691 0
M  V30 6236 N 594.368 5.46985 1.94391 0
M  V30 6237 H 597.133 2.78261 -1.11314 0
M  V30 6238 H 594.694 1.44306 -0.733994 0
M  V30 6239 H 596.686 3.87398 1.17068 0
M  V30 6240 H 595.256 2.82496 1.33846 0
M  V30 6241 H 594.476 3.82945 -0.935241 0
M  V30 6242 H 595.764 5.03273 -0.747935 0
M  V30 6243 H 595.162 5.10737 2.43237 0
M  V30 6244 H 593.719 6.03973 2.45071 0
M  V30 6245 N 597.152 0.631951 1.44375 0
M  V30 6246 C 598.082 -0.0593243 2.33425 0
M  V30 6247 C 599.063 -0.833964 1.48253 0
M  V30 6248 O 600.248 -0.799682 1.76971 0
M  V30 6249 C 597.378 -1.04096 3.31333 0
M  V30 6250 C 596.332 -0.377899 4.26328 0
M  V30 6251 C 595.658 -1.4695 5.14111 0
M  V30 6252 C 596.958 0.716371 5.17364 0
M  V30 6253 H 598.652 0.684287 2.91475 0
M  V30 6254 H 596.198 0.330518 1.40156 0
M  V30 6255 H 598.151 -1.53331 3.92514 0
M  V30 6256 H 596.875 -1.81547 2.71493 0
M  V30 6257 H 595.534 0.0938054 3.6648 0
M  V30 6258 H 595.182 -2.2349 4.50623 0
M  V30 6259 H 594.882 -1.03121 5.78481 0
M  V30 6260 H 596.406 -1.96363 5.78164 0
M  V30 6261 H 597.82 0.307089 5.72477 0
M  V30 6262 H 596.217 1.07784 5.90341 0
M  V30 6263 H 597.287 1.58316 4.58327 0
M  V30 6264 N 598.631 -1.53133 0.372548 0
M  V30 6265 C 600.042 -1.86404 -0.105155 0
M  V30 6266 C 600.393 -1.29289 -1.47576 0
M  V30 6267 O 599.518 -0.617646 -2.07398 0
M  V30 6268 C 600.113 -3.38223 -0.197588 0
M  V30 6269 C 598.672 -3.71266 -0.619556 0
M  V30 6270 C 597.819 -2.76353 0.228919 0
M  V30 6271 H 600.77 -1.47282 0.591077 0
M  V30 6272 H 600.791 -3.66577 -1.01987 0
M  V30 6273 H 600.303 -3.79763 0.800099 0
M  V30 6274 H 598.404 -3.35287 -1.62522 0
M  V30 6275 H 598.517 -4.77515 -0.389332 0
M  V30 6276 H 596.881 -2.52888 -0.303271 0
M  V30 6277 H 597.664 -3.20728 1.22428 0
M  V30 6278 N 600.109 -0.101901 -1.5727 0
M  V30 6279 C 601.339 0.567568 -1.98651 0
M  V30 6280 C 601.747 1.61839 -0.980037 0
M  V30 6281 O 601.09 1.83661 0.0376564 0
M  V30 6282 C 601.152 1.26742 -3.36417 0
M  V30 6283 C 600.816 0.366561 -4.55528 0
M  V30 6284 C 601.813 -0.388022 -5.1845 0
M  V30 6285 C 599.498 0.282629 -5.01504 0
M  V30 6286 C 601.492 -1.21445 -6.25724 0
M  V30 6287 C 599.179 -0.547443 -6.08643 0
M  V30 6288 C 600.177 -1.29462 -6.70618 0
M  V30 6289 O 599.865 -2.11095 -7.7569 0
M  V30 6290 H 599.597 0.156282 -0.657687 0
M  V30 6291 H 602.151 -0.179912 -2.04611 0
M  V30 6292 H 600.381 2.06162 -3.27161 0
M  V30 6293 H 602.07 1.8321 -3.622 0
M  V30 6294 H 602.836 -0.332949 -4.83856 0
M  V30 6295 H 598.715 0.853868 -4.53023 0
M  V30 6296 H 602.259 -1.79814 -6.74027 0
M  V30 6297 H 598.156 -0.603971 -6.42668 0
M  V30 6298 H 598.924 -2.03851 -7.92709 0
M  V30 6299 N 601.587 1.56661 0.17182 0
M  V30 6300 C 602.864 1.72838 0.915778 0
M  V30 6301 C 603.244 0.66316 2.00413 0
M  V30 6302 O 602.592 -0.322123 2.26218 0
M  V30 6303 C 602.802 3.16019 1.48097 0
M  V30 6304 C 604.15 3.76962 1.95408 0
M  V30 6305 O 605.174 3.19294 1.57892 0
M  V30 6306 O 604.033 4.78219 2.64516 0
M  V30 6307 H 601.127 0.705797 0.431021 0
M  V30 6308 H 603.673 1.68947 0.159689 0
M  V30 6309 H 602.445 3.85031 0.697618 0
M  V30 6310 H 602.068 3.24234 2.30126 0
M  V30 6311 N 603.065 -0.440357 1.51323 0
M  V30 6312 C 604.311 -1.19181 1.64085 0
M  V30 6313 C 604.644 -1.90936 0.354575 0
M  V30 6314 O 603.919 -1.8347 -0.645675 0
M  V30 6315 C 604.202 -2.2112 2.84215 0
M  V30 6316 C 604.055 -1.53468 4.22809 0
M  V30 6317 C 605.374 -3.22133 2.99864 0
M  V30 6318 H 602.493 -0.431924 0.597169 0
M  V30 6319 H 605.135 -0.481443 1.83799 0
M  V30 6320 H 603.285 -2.81703 2.67537 0
M  V30 6321 H 604.957 -0.962455 4.51148 0
M  V30 6322 H 603.2 -0.837086 4.25647 0
M  V30 6323 H 603.871 -2.27694 5.02852 0
M  V30 6324 H 606.347 -2.71601 3.15233 0
M  V30 6325 H 605.223 -3.90756 3.85488 0
M  V30 6326 H 605.484 -3.88061 2.11804 0
M  V30 6327 N 604.543 -1.41418 -0.695603 0
M  V30 6328 C 605.475 -1.39195 -1.82092 0
M  V30 6329 C 606.488 -0.294132 -1.60121 0
M  V30 6330 O 607.677 -0.555854 -1.69625 0
M  V30 6331 C 604.777 -1.14828 -3.18854 0
M  V30 6332 C 603.95 -2.36649 -3.67853 0
M  V30 6333 C 603.009 -2.08139 -4.83285 0
M  V30 6334 O 602.035 -2.81177 -4.94902 0
M  V30 6335 N 603.237 -1.07162 -5.70523 0
M  V30 6336 H 606.002 -2.36185 -1.84491 0
M  V30 6337 H 603.563 -1.3603 -0.877923 0
M  V30 6338 H 605.555 -0.937075 -3.93702 0
M  V30 6339 H 604.125 -0.264358 -3.1148 0
M  V30 6340 H 603.345 -2.73472 -2.83913 0
M  V30 6341 H 604.633 -3.17816 -3.97329 0
M  V30 6342 H 604.031 -0.467124 -5.63768 0
M  V30 6343 H 602.588 -0.920311 -6.4527 0
M  V30 6344 N 606.021 0.929856 -1.27246 0
M  V30 6345 C 606.971 2.01629 -1.06442 0
M  V30 6346 C 607.955 1.60899 0.00687842 0
M  V30 6347 O 609.147 1.75733 -0.211407 0
M  V30 6348 C 606.276 3.35849 -0.711361 0
M  V30 6349 C 605.362 3.8303 -1.82069 0
M  V30 6350 N 605.753 4.02743 -3.05993 0
M  V30 6351 C 604.051 4.12046 -1.70687 0
M  V30 6352 C 604.752 4.42001 -3.78167 0
M  V30 6353 N 603.728 4.4935 -3.05918 0
M  V30 6354 H 607.53 2.14898 -2.00489 0
M  V30 6355 H 605.044 1.11654 -1.17929 0
M  V30 6356 H 607.041 4.13343 -0.543442 0
M  V30 6357 H 605.701 3.23944 0.221517 0
M  V30 6358 H 606.712 3.89112 -3.41778 0
M  V30 6359 H 603.389 4.08866 -0.844681 0
M  V30 6360 H 604.779 4.6535 -4.84664 0
M  V30 6361 N 607.499 1.09233 1.13605 0
M  V30 6362 C 608.462 0.733553 2.17144 0
M  V30 6363 C 609.462 -0.235873 1.59061 0
M  V30 6364 O 610.652 -0.0143167 1.74194 0
M  V30 6365 C 607.784 0.084471 3.40795 0
M  V30 6366 H 608.977 1.65049 2.50397 0
M  V30 6367 H 606.53 0.891264 1.28399 0
M  V30 6368 H 607.265 -0.843795 3.1313 0
M  V30 6369 H 607.05 0.781985 3.84223 0
M  V30 6370 H 608.54 -0.151216 4.17326 0
M  V30 6371 N 608.977 -1.30795 0.87923 0
M  V30 6372 C 610.254 -1.91145 0.415086 0
M  V30 6373 C 610.634 -1.7995 -1.10368 0
M  V30 6374 O 609.982 -1.21305 -1.93642 0
M  V30 6375 C 610.192 -3.37014 0.906778 0
M  V30 6376 C 611.54 -4.14101 0.938358 0
M  V30 6377 O 612.564 -3.45834 0.853053 0
M  V30 6378 O 611.423 -5.36054 1.06342 0
M  V30 6379 H 608.517 -0.81736 0.125905 0
M  V30 6380 H 611.063 -1.39401 0.967753 0
M  V30 6381 H 609.835 -3.3922 1.95053 0
M  V30 6382 H 609.458 -3.96204 0.332948 0
M  V30 6383 N 610.455 -0.639598 -1.44038 0
M  V30 6384 C 611.704 -0.144885 -2.01179 0
M  V30 6385 C 612.017 1.24372 -1.50967 0
M  V30 6386 O 613.223 1.83291 -2.00292 0
M  V30 6387 C 611.679 -0.208244 -3.59297 0
M  V30 6388 C 611.287 -1.59869 -4.18504 0
M  V30 6389 C 613.031 0.229568 -4.23879 0
M  V30 6390 C 610.938 -1.61671 -5.68873 0
M  V30 6391 H 609.868 -0.0504005 -0.752314 0
M  V30 6392 H 612.519 -0.799639 -1.65161 0
M  V30 6393 H 610.901 0.513767 -3.92653 0
M  V30 6394 H 612.075 -2.34496 -3.96671 0
M  V30 6395 H 610.39 -1.98131 -3.66242 0
M  V30 6396 H 612.987 0.235758 -5.3418 0
M  V30 6397 H 613.33 1.25848 -3.96822 0
M  V30 6398 H 613.863 -0.440233 -3.95357 0
M  V30 6399 H 610.602 -2.62427 -6.00677 0
M  V30 6400 H 610.122 -0.913489 -5.92803 0
M  V30 6401 H 611.801 -1.35439 -6.32665 0
M  V30 6402 N 611.933 1.52934 -0.380664 0
M  V30 6403 C 613.21 1.93845 0.261417 0
M  V30 6404 C 613.59 1.31544 1.65104 0
M  V30 6405 O 612.938 0.480234 2.23397 0
M  V30 6406 C 613.148 3.47739 0.296466 0
M  V30 6407 C 614.496 4.21284 0.529578 0
M  V30 6408 O 615.52 3.54199 0.377041 0
M  V30 6409 O 614.379 5.40195 0.827753 0
M  V30 6410 H 611.473 0.811318 0.160285 0
M  V30 6411 H 614.019 1.64042 -0.434544 0
M  V30 6412 H 612.791 3.85395 -0.67724 0
M  V30 6413 H 612.414 3.8382 1.0377 0
M  V30 6414 N 613.412 0.11024 1.57214 0
M  V30 6415 C 614.642 -0.557025 1.98949 0
M  V30 6416 C 615.05 -1.61317 0.988606 0
M  V30 6417 O 614.393 -1.83679 -0.0279159 0
M  V30 6418 C 614.455 -1.24956 3.37085 0
M  V30 6419 C 614.119 -0.342398 4.55716 0
M  V30 6420 C 615.116 0.415511 5.18237 0
M  V30 6421 C 612.801 -0.256029 5.01647 0
M  V30 6422 C 614.795 1.24761 6.25071 0
M  V30 6423 C 612.482 0.579713 6.08344 0
M  V30 6424 C 613.48 1.33017 6.69922 0
M  V30 6425 O 613.168 2.15205 7.74559 0
M  V30 6426 H 612.9 -0.152792 0.658506 0
M  V30 6427 H 615.454 0.19076 2.04512 0
M  V30 6428 H 613.684 -2.04424 3.2825 0
M  V30 6429 H 615.373 -1.81286 3.63167 0
M  V30 6430 H 616.139 0.358605 4.83672 0
M  V30 6431 H 612.018 -0.829831 4.5347 0
M  V30 6432 H 615.562 1.83386 6.73064 0
M  V30 6433 H 611.459 0.638044 6.42339 0
M  V30 6434 H 612.227 2.08052 7.91617 0
M  V30 6435 N 614.89 -1.56749 -0.16351 0
M  V30 6436 C 615.823 -1.9213 -1.23132 0
M  V30 6437 C 616.801 -0.785047 -1.42393 0
M  V30 6438 O 617.985 -1.0391 -1.57273 0
M  V30 6439 C 615.112 -2.17901 -2.59301 0
M  V30 6440 C 614.158 -3.40576 -2.5673 0
M  V30 6441 S 614.991 -4.94689 -2.05045 0
M  V30 6442 C 616.147 -5.23564 -3.42975 0
M  V30 6443 H 616.38 -2.824 -0.929383 0
M  V30 6444 H 613.913 -1.4994 -0.368418 0
M  V30 6445 H 615.871 -2.33429 -3.3767 0
M  V30 6446 H 614.532 -1.28324 -2.86691 0
M  V30 6447 H 613.725 -3.55833 -3.5693 0
M  V30 6448 H 613.327 -3.24204 -1.86462 0
M  V30 6449 H 615.619 -5.16019 -4.3901 0
M  V30 6450 H 616.562 -6.25134 -3.32586 0
M  V30 6451 H 616.97 -4.51113 -3.39348 0
M  V30 6452 N 616.368 0.432326 -1.51554 0
M  V30 6453 C 617.645 1.19288 -1.55015 0
M  V30 6454 C 618.025 2.08701 -0.317375 0
M  V30 6455 O 617.373 2.17602 0.697243 0
M  V30 6456 C 617.583 1.99037 -2.86679 0
M  V30 6457 C 618.931 2.55907 -3.38817 0
M  V30 6458 O 619.955 2.09243 -2.88263 0
M  V30 6459 O 618.814 3.41029 -4.27038 0
M  V30 6460 H 615.908 0.543369 -0.623441 0
M  V30 6461 H 618.454 0.440988 -1.6387 0
M  V30 6462 H 617.226 1.33397 -3.6786 0
M  V30 6463 H 616.849 2.81281 -2.8101 0
M  V30 6464 N 617.846 1.41785 0.688094 0
M  V30 6465 C 618.756 1.46596 1.83158 0
M  V30 6466 C 619.772 0.355862 1.70322 0
M  V30 6467 O 620.948 0.604737 1.92106 0
M  V30 6468 C 618.013 1.35322 3.192 0
M  V30 6469 C 617.074 2.56711 3.4409 0
M  V30 6470 C 616.307 2.45965 4.73642 0
M  V30 6471 O 616.53 1.48827 5.50642 0
M  V30 6472 O 615.464 3.35859 4.99482 0
M  V30 6473 H 619.29 2.43083 1.82056 0
M  V30 6474 H 616.875 1.23404 0.842126 0
M  V30 6475 H 618.757 1.31347 4.00407 0
M  V30 6476 H 617.432 0.419536 3.2097 0
M  V30 6477 H 616.339 2.66262 2.62784 0
M  V30 6478 H 617.672 3.48933 3.47141 0
M  V30 6479 N 619.324 -0.923095 1.27737 0
M  V30 6480 C 620.74 -1.19985 1.05241 0
M  V30 6481 C 620.94 -2.00391 -0.21113 0
M  V30 6482 O 619.996 -2.35324 -0.915366 0
M  V30 6483 C 621.309 -1.94352 2.29451 0
M  V30 6484 C 622.857 -2.07273 2.34536 0
M  V30 6485 C 623.332 -2.85046 3.58487 0
M  V30 6486 N 624.823 -2.92612 3.59072 0
M  V30 6487 C 625.558 -3.53266 4.51654 0
M  V30 6488 N 625.054 -4.15274 5.54545 0
M  V30 6489 N 626.847 -3.50714 4.39268 0
M  V30 6490 H 618.998 -0.386042 2.08862 0
M  V30 6491 H 621.261 -0.233407 0.918817 0
M  V30 6492 H 620.967 -1.42692 3.21453 0
M  V30 6493 H 620.841 -2.94947 2.3513 0
M  V30 6494 H 623.228 -2.58117 1.43037 0
M  V30 6495 H 623.309 -1.05884 2.32857 0
M  V30 6496 H 622.953 -2.34884 4.50324 0
M  V30 6497 H 622.883 -3.8673 3.57418 0
M  V30 6498 H 625.374 -2.48547 2.84663 0
M  V30 6499 H 625.687 -4.59507 6.21348 0
M  V30 6500 H 624.032 -4.13806 5.58382 0
M  V30 6501 H 627.223 -3.01475 3.58093 0
M  V30 6502 H 627.396 -3.97693 5.1161 0
M  V30 6503 N 620.802 -1.09834 -1.13024 0
M  V30 6504 C 622.218 -0.828875 -1.36388 0
M  V30 6505 C 622.418 0.554756 -1.93713 0
M  V30 6506 O 621.474 1.30882 -2.15931 0
M  V30 6507 C 622.787 -1.92352 -2.3113 0
M  V30 6508 C 624.335 -1.95124 -2.44735 0
M  V30 6509 C 624.81 -3.03745 -3.42787 0
M  V30 6510 N 626.301 -3.03012 -3.5034 0
M  V30 6511 C 627.036 -3.83699 -4.26101 0
M  V30 6512 N 626.532 -4.74306 -5.04981 0
M  V30 6513 N 628.325 -3.71942 -4.21445 0
M  V30 6514 H 620.476 -1.99029 -0.74169 0
M  V30 6515 H 622.739 -0.864557 -0.388903 0
M  V30 6516 H 622.445 -2.91906 -1.96172 0
M  V30 6517 H 622.319 -1.80536 -3.3119 0
M  V30 6518 H 624.706 -0.962069 -2.78977 0
M  V30 6519 H 624.787 -2.11018 -1.44586 0
M  V30 6520 H 624.431 -4.02878 -3.09276 0
M  V30 6521 H 624.361 -2.85094 -4.42752 0
M  V30 6522 H 626.852 -2.37352 -2.94062 0
M  V30 6523 H 627.165 -5.32446 -5.60108 0
M  V30 6524 H 625.51 -4.78339 -5.04199 0
M  V30 6525 H 628.701 -3.00513 -3.589 0
M  V30 6526 H 628.874 -4.35062 -4.80235 0
M  V30 6527 N 622.28 1.30327 -0.886154 0
M  V30 6528 C 623.557 1.90922 -0.425217 0
M  V30 6529 C 623.937 1.80533 1.09413 0
M  V30 6530 O 623.285 1.2233 1.92996 0
M  V30 6531 C 623.495 3.36529 -0.924638 0
M  V30 6532 C 624.843 4.13598 -0.960305 0
M  V30 6533 O 625.867 3.45377 -0.871382 0
M  V30 6534 O 624.726 5.35482 -1.09184 0
M  V30 6535 H 621.82 0.81668 -0.130238 0
M  V30 6536 H 624.366 1.38886 -0.975132 0
M  V30 6537 H 623.138 3.38181 -1.96849 0
M  V30 6538 H 622.761 3.96021 -0.353955 0
M  V30 6539 N 623.758 0.647228 1.43697 0
M  V30 6540 C 625.005 0.158188 2.01881 0
M  V30 6541 C 625.333 -1.22573 1.51017 0
M  V30 6542 O 624.588 -1.83086 0.69122 0
M  V30 6543 C 624.887 0.111481 3.57226 0
M  V30 6544 C 624.553 1.43633 4.27411 0
M  V30 6545 C 623.215 1.79915 4.463 0
M  V30 6546 C 625.567 2.31011 4.67208 0
M  V30 6547 C 622.895 3.03251 5.02251 0
M  V30 6548 C 625.247 3.53633 5.24525 0
M  V30 6549 C 623.911 3.90118 5.41631 0
M  V30 6550 H 623.181 0.0578851 0.738736 0
M  V30 6551 H 625.828 0.836746 1.72252 0
M  V30 6552 H 624.133 -0.650507 3.86362 0
M  V30 6553 H 625.83 -0.283682 3.99995 0
M  V30 6554 H 622.42 1.14403 4.1305 0
M  V30 6555 H 626.604 2.04272 4.52313 0
M  V30 6556 H 621.86 3.31575 5.13681 0
M  V30 6557 H 626.034 4.21561 5.5431 0
M  V30 6558 H 623.661 4.85768 5.84751 0
M  V30 6559 N 625.236 -1.5273 0.388769 0
M  V30 6560 C 626.464 -2.05992 -0.193677 0
M  V30 6561 C 626.879 -1.26053 -1.40557 0
M  V30 6562 O 626.236 -0.307049 -1.79898 0
M  V30 6563 C 626.287 -3.57068 -0.564321 0
M  V30 6564 O 626.008 -4.3398 0.599422 0
M  V30 6565 C 627.509 -4.26674 -1.20269 0
M  V30 6566 H 624.729 -0.670358 -0.0293445 0
M  V30 6567 H 627.273 -1.96857 0.553844 0
M  V30 6568 H 625.428 -3.66277 -1.26174 0
M  V30 6569 H 625.842 -5.2367 0.294895 0
M  V30 6570 H 627.316 -5.33625 -1.4124 0
M  V30 6571 H 627.793 -3.81854 -2.16989 0
M  V30 6572 H 628.399 -4.2178 -0.546047 0
M  V30 6573 N 626.714 -0.118576 -1.57153 0
M  V30 6574 C 627.944 0.546466 -1.99242 0
M  V30 6575 C 628.352 1.60791 -0.997148 0
M  V30 6576 O 627.695 1.83691 0.0181745 0
M  V30 6577 C 627.757 1.23167 -3.37743 0
M  V30 6578 C 627.421 0.318226 -4.55891 0
M  V30 6579 C 628.418 -0.442988 -5.18009 0
M  V30 6580 C 626.103 0.229421 -5.01776 0
M  V30 6581 C 628.097 -1.28074 -6.244 0
M  V30 6582 C 625.784 -0.611966 -6.08028 0
M  V30 6583 C 626.782 -1.36568 -6.69207 0
M  V30 6584 O 626.47 -2.1931 -7.73407 0
M  V30 6585 H 626.202 0.149297 -0.659307 0
M  V30 6586 H 628.756 -0.201603 -2.04408 0
M  V30 6587 H 626.986 2.0268 -3.29329 0
M  V30 6588 H 628.675 1.79358 -3.64123 0
M  V30 6589 H 629.441 -0.38425 -4.83475 0
M  V30 6590 H 625.32 0.805771 -4.53903 0
M  V30 6591 H 628.864 -1.86952 -6.72082 0
M  V30 6592 H 624.761 -0.6721 -6.41991 0
M  V30 6593 H 625.529 -2.12247 -7.90502 0
M  V30 6594 N 628.193 1.56834 0.155195 0
M  V30 6595 C 629.47 1.73799 0.897395 0
M  V30 6596 C 629.85 0.684379 1.99698 0
M  V30 6597 O 629.198 -0.298111 2.26547 0
M  V30 6598 C 629.408 3.17572 1.44737 0
M  V30 6599 C 630.756 3.79014 1.91399 0
M  V30 6600 O 631.78 3.20951 1.54496 0
M  V30 6601 O 630.639 4.80998 2.59429 0
M  V30 6602 H 627.733 0.710329 0.423511 0
M  V30 6603 H 630.279 1.69107 0.141761 0
M  V30 6604 H 629.051 3.85749 0.656741 0
M  V30 6605 H 628.674 3.26657 2.26674 0
M  V30 6606 N 629.671 -0.424282 1.51781 0
M  V30 6607 C 630.896 -1.19928 1.6921 0
M  V30 6608 C 631.321 -1.8392 0.394355 0
M  V30 6609 O 630.679 -1.69371 -0.646778 0
M  V30 6610 C 630.727 -2.24937 2.81843 0
M  V30 6611 O 629.831 -3.3073 2.46356 0
M  V30 6612 H 629.172 -0.35078 0.563781 0
M  V30 6613 H 631.702 -0.499401 1.98412 0
M  V30 6614 H 631.712 -2.69512 3.06312 0
M  V30 6615 H 630.387 -1.77742 3.76006 0
M  V30 6616 H 628.964 -2.9154 2.32505 0
M  V30 6617 N 631.149 -1.42148 -0.680565 0
M  V30 6618 C 632.395 -1.42521 -1.44277 0
M  V30 6619 C 632.728 -0.0393718 -1.9416 0
M  V30 6620 O 632.003 0.935425 -1.70529 0
M  V30 6621 C 632.286 -2.44475 -2.64394 0
M  V30 6622 C 632.139 -3.92226 -2.20179 0
M  V30 6623 C 633.458 -2.43491 -3.66606 0
M  V30 6624 H 630.577 -0.518985 -0.523282 0
M  V30 6625 H 633.219 -1.73524 -0.773914 0
M  V30 6626 H 631.369 -2.18168 -3.21458 0
M  V30 6627 H 633.041 -4.29493 -1.68327 0
M  V30 6628 H 631.284 -4.0637 -1.5181 0
M  V30 6629 H 631.955 -4.59133 -3.06433 0
M  V30 6630 H 634.431 -2.66872 -3.19247 0
M  V30 6631 H 633.307 -3.16816 -4.4824 0
M  V30 6632 H 633.568 -1.45881 -4.17338 0
M  V30 6633 N 632.627 0.916307 -1.28225 0
M  V30 6634 C 633.904 1.64429 -1.05936 0
M  V30 6635 C 634.284 2.07234 0.402139 0
M  V30 6636 O 633.632 1.81535 1.3877 0
M  V30 6637 C 633.842 2.83773 -2.03159 0
M  V30 6638 C 635.19 3.54852 -2.33164 0
M  V30 6639 O 636.214 2.93918 -2.01223 0
M  V30 6640 O 635.073 4.64663 -2.87664 0
M  V30 6641 H 632.167 0.721221 -0.404683 0
M  V30 6642 H 634.713 0.965838 -1.39534 0
M  V30 6643 H 633.485 2.49217 -3.01673 0
M  V30 6644 H 633.108 3.59333 -1.70192 0
M  V30 6645 N 634.105 1.10431 1.1244 0
M  V30 6646 C 635.352 0.846717 1.83948 0
M  V30 6647 C 635.68 -0.627709 1.84093 0
M  V30 6648 O 634.935 -1.47876 1.28184 0
M  V30 6649 C 635.234 1.34022 3.3132 0
M  V30 6650 C 634.9 2.82606 3.51347 0
M  V30 6651 C 633.562 3.23182 3.56521 0
M  V30 6652 C 635.914 3.78356 3.58464 0
M  V30 6653 C 633.242 4.58258 3.66356 0
M  V30 6654 C 635.594 5.13234 3.69829 0
M  V30 6655 C 634.258 5.53384 3.73259 0
M  V30 6656 H 633.528 0.309836 0.673114 0
M  V30 6657 H 636.175 1.38091 1.32677 0
M  V30 6658 H 634.48 0.726047 3.85014 0
M  V30 6659 H 636.177 1.11739 3.85118 0
M  V30 6660 H 632.767 2.50212 3.47983 0
M  V30 6661 H 636.951 3.48115 3.53737 0
M  V30 6662 H 632.207 4.88787 3.67284 0
M  V30 6663 H 636.381 5.87272 3.74279 0
M  V30 6664 H 634.008 6.58045 3.80633 0
M  V30 6665 N 635.583 -1.29855 0.893053 0
M  V30 6666 C 636.53 -2.27909 0.364161 0
M  V30 6667 C 637.5 -1.56726 -0.550093 0
M  V30 6668 O 638.685 -1.84747 -0.47677 0
M  V30 6669 C 635.825 -3.42678 -0.408178 0
M  V30 6670 C 634.938 -4.28659 0.536212 0
M  V30 6671 C 634.073 -5.30599 -0.252521 0
M  V30 6672 C 633.112 -6.08234 0.686822 0
M  V30 6673 N 632.249 -7.02068 -0.0670902 0
M  V30 6674 H 637.089 -2.72531 1.20544 0
M  V30 6675 H 634.626 -1.34047 0.605779 0
M  V30 6676 H 636.584 -4.07986 -0.871962 0
M  V30 6677 H 635.214 -2.99103 -1.21397 0
M  V30 6678 H 634.266 -3.63584 1.1185 0
M  V30 6679 H 635.578 -4.8274 1.25552 0
M  V30 6680 H 634.732 -6.01694 -0.777801 0
M  V30 6681 H 633.471 -4.77233 -1.005 0
M  V30 6682 H 632.476 -5.3601 1.22366 0
M  V30 6683 H 633.701 -6.63689 1.43852 0
M  V30 6684 H 631.647 -6.5108 -0.801955 0
M  V30 6685 H 631.564 -7.53675 0.59243 0
M  V30 6686 H 632.832 -7.77392 -0.572851 0
M  V30 6687 N 637.061 -0.65484 -1.43351 0
M  V30 6688 C 638.309 -0.168559 -2.01396 0
M  V30 6689 C 638.63 1.22235 -1.51933 0
M  V30 6690 O 637.9 1.81685 -0.732627 0
M  V30 6691 H 636.48 -0.0593244 -0.744641 0
M  V30 6692 H 639.142 -0.846871 -1.75539 0
M  V30 6693 H 638.238 -0.154428 -3.11718 0
M  V30 6694 N 638.539 1.52521 -0.396863 0
M  V30 6695 C 639.786 2.01672 0.182898 0
M  V30 6696 C 640.114 1.28302 1.46181 0
M  V30 6697 O 639.369 0.374118 1.92091 0
M  V30 6698 C 639.668 3.5403 0.489677 0
M  V30 6699 C 639.334 4.45456 -0.698581 0
M  V30 6700 C 637.996 4.70166 -1.02454 0
M  V30 6701 C 640.348 4.99354 -1.49316 0
M  V30 6702 C 637.676 5.46024 -2.1465 0
M  V30 6703 C 640.028 5.76439 -2.60579 0
M  V30 6704 C 638.692 5.99426 -2.93675 0
M  V30 6705 H 637.962 0.737971 0.066927 0
M  V30 6706 H 640.609 1.83853 -0.535764 0
M  V30 6707 H 638.914 3.69963 1.28976 0
M  V30 6708 H 640.611 3.8956 0.951018 0
M  V30 6709 H 637.201 4.26392 -0.434525 0
M  V30 6710 H 641.385 4.80182 -1.25457 0
M  V30 6711 H 636.641 5.62046 -2.40654 0
M  V30 6712 H 640.815 6.17202 -3.22544 0
M  V30 6713 H 638.442 6.57988 -3.80731 0
M  V30 6714 N 640.017 0.126909 1.57088 0
M  V30 6715 C 641.428 -0.397201 1.82426 0
M  V30 6716 C 641.779 -1.66084 1.04453 0
M  V30 6717 O 640.904 -2.14534 0.283552 0
M  V30 6718 C 641.499 -0.727411 3.30899 0
M  V30 6719 C 640.058 -1.19612 3.56889 0
M  V30 6720 C 639.205 -0.20885 2.76512 0
M  V30 6721 H 642.156 0.351924 1.54749 0
M  V30 6722 H 642.177 -1.58407 3.45959 0
M  V30 6723 H 641.689 0.19247 3.87622 0
M  V30 6724 H 639.79 -2.13263 3.05532 0
M  V30 6725 H 639.903 -1.13598 4.65438 0
M  V30 6726 H 638.267 -0.697479 2.44964 0
M  V30 6727 H 639.05 0.704267 3.35998 0
M  V30 6728 N 641.495 -1.56914 -0.146875 0
M  V30 6729 C 642.405 -2.0154 -1.20079 0
M  V30 6730 C 643.421 -0.930838 -1.47008 0
M  V30 6731 O 644.597 -1.24032 -1.58676 0
M  V30 6732 C 641.662 -2.38715 -2.51428 0
M  V30 6733 C 640.723 -3.6112 -2.32145 0
M  V30 6734 C 639.956 -3.96512 -3.57231 0
M  V30 6735 O 640.179 -3.32566 -4.63418 0
M  V30 6736 O 639.113 -4.89758 -3.49887 0
M  V30 6737 H 642.939 -2.91506 -0.851924 0
M  V30 6738 H 640.524 -1.45106 -0.355607 0
M  V30 6739 H 642.406 -2.63485 -3.28867 0
M  V30 6740 H 641.081 -1.51903 -2.85845 0
M  V30 6741 H 639.988 -3.41536 -1.52656 0
M  V30 6742 H 641.321 -4.48549 -2.02644 0
M  V30 6743 N 642.974 0.416227 -1.52004 0
M  V30 6744 C 644.221 1.16383 -1.65714 0
M  V30 6745 C 644.549 1.9068 -0.383594 0
M  V30 6746 O 643.804 1.85174 0.633185 0
M  V30 6747 C 644.103 2.18923 -2.82502 0
M  V30 6748 C 643.769 1.61485 -4.20991 0
M  V30 6749 C 642.431 1.45545 -4.58661 0
M  V30 6750 C 644.783 1.19468 -5.07323 0
M  V30 6751 C 642.111 0.860937 -5.80349 0
M  V30 6752 C 644.463 0.614386 -6.29609 0
M  V30 6753 C 643.127 0.442056 -6.66035 0
M  V30 6754 H 642.397 0.425875 -0.606392 0
M  V30 6755 H 645.044 0.45199 -1.8609 0
M  V30 6756 H 643.349 2.96225 -2.56433 0
M  V30 6757 H 645.046 2.76628 -2.90307 0
M  V30 6758 H 641.636 1.74873 -3.91302 0
M  V30 6759 H 645.82 1.30596 -4.78809 0
M  V30 6760 H 641.076 0.715372 -6.072 0
M  V30 6761 H 645.25 0.280393 -6.95835 0
M  V30 6762 H 642.877 -0.0207218 -7.60197 0
M  V30 6763 N 644.452 1.42507 0.673017 0
M  V30 6764 C 645.698 1.43284 1.43519 0
M  V30 6765 C 646.031 0.049668 1.94136 0
M  V30 6766 O 645.306 -0.926369 1.71022 0
M  V30 6767 C 645.589 2.45874 2.63093 0
M  V30 6768 C 645.442 3.93388 2.18096 0
M  V30 6769 C 646.761 2.45431 3.6531 0
M  V30 6770 H 643.88 0.521752 0.520522 0
M  V30 6771 H 646.522 1.73932 0.764701 0
M  V30 6772 H 644.672 2.19869 3.20296 0
M  V30 6773 H 646.344 4.30379 1.66046 0
M  V30 6774 H 644.587 4.07169 1.49652 0
M  V30 6775 H 645.258 4.60752 3.03993 0
M  V30 6776 H 647.734 2.68561 3.17827 0
M  V30 6777 H 646.61 3.19189 4.46553 0
M  V30 6778 H 646.871 1.48092 4.16559 0
M  V30 6779 N 645.93 -0.909495 1.28709 0
M  V30 6780 C 646.878 -2.03381 1.12866 0
M  V30 6781 C 647.872 -1.69335 0.0468074 0
M  V30 6782 O 649.078 -1.78819 0.205891 0
M  V30 6783 H 645.453 -0.666452 0.348348 0
M  V30 6784 H 647.424 -2.13885 2.08077 0
M  V30 6785 C 646.173 -3.38092 0.811742 0
M  V30 6786 H 645.496 -3.64786 1.63619 0
M  V30 6787 H 646.936 -4.17477 0.740869 0
M  V30 6788 C 645.395 -3.33395 -0.484679 0
M  V30 6789 O 645.925 -3.72089 -1.5137 0
M  V30 6790 N 644.131 -2.86491 -0.486961 0
M  V30 6791 H 643.678 -2.55199 0.350877 0
M  V30 6792 H 643.636 -2.83731 -1.3544 0
M  V30 6793 N 647.408 -1.11026 -1.11852 0
M  V30 6794 C 648.318 -0.777252 -2.2135 0
M  V30 6795 C 649.334 0.227821 -1.72502 0
M  V30 6796 O 650.51 0.0650587 -2.01295 0
M  V30 6797 C 647.575 -0.220668 -3.45997 0
M  V30 6798 C 646.636 -1.2838 -4.09655 0
M  V30 6799 C 645.869 -0.753678 -5.28352 0
M  V30 6800 O 646.092 0.417779 -5.68868 0
M  V30 6801 O 645.026 -1.51647 -5.82483 0
M  V30 6802 H 648.852 -1.69141 -2.5224 0
M  V30 6803 H 646.437 -0.885836 -1.20305 0
M  V30 6804 H 648.319 0.0855756 -4.21313 0
M  V30 6805 H 646.994 0.666262 -3.16769 0
M  V30 6806 H 645.901 -1.64299 -3.3609 0
M  V30 6807 H 647.234 -2.14396 -4.43052 0
M  V30 6808 N 648.886 1.2938 -0.899927 0
M  V30 6809 C 649.816 2.30144 -0.39446 0
M  V30 6810 C 650.797 1.61611 0.530639 0
M  V30 6811 O 651.982 1.89119 0.441319 0
M  V30 6812 C 649.112 3.45229 0.37868 0
M  V30 6813 C 648.066 4.25564 -0.456012 0
M  V30 6814 C 647.392 5.32848 0.444637 0
M  V30 6815 C 648.692 4.93651 -1.70605 0
M  V30 6816 H 650.386 2.72673 -1.23653 0
M  V30 6817 H 647.932 1.31086 -0.596034 0
M  V30 6818 H 649.885 4.14797 0.743037 0
M  V30 6819 H 648.609 3.01545 1.25453 0
M  V30 6820 H 647.268 3.57704 -0.802704 0
M  V30 6821 H 646.916 4.85408 1.31863 0
M  V30 6822 H 646.616 5.87497 -0.110154 0
M  V30 6823 H 648.14 6.05268 0.805182 0
M  V30 6824 H 649.554 5.55655 -1.41141 0
M  V30 6825 H 647.951 5.58233 -2.20217 0
M  V30 6826 H 649.021 4.18926 -2.4419 0
M  V30 6827 N 650.364 0.662433 1.43002 0
M  V30 6828 C 651.314 -0.0460442 2.27954 0
M  V30 6829 C 652.298 -0.785753 1.40409 0
M  V30 6830 O 653.49 -0.666701 1.63964 0
M  V30 6831 C 650.619 -1.00532 3.2825 0
M  V30 6832 C 649.705 -0.263604 4.2328 0
M  V30 6833 N 650.096 0.724855 5.00579 0
M  V30 6834 C 648.394 -0.503778 4.43146 0
M  V30 6835 C 649.095 1.16594 5.69895 0
M  V30 6836 N 648.071 0.498345 5.41311 0
M  V30 6837 H 651.873 0.712314 2.85137 0
M  V30 6838 H 649.387 0.490469 1.54817 0
M  V30 6839 H 651.384 -1.52775 3.87899 0
M  V30 6840 H 650.044 -1.76364 2.72628 0
M  V30 6841 H 651.055 1.10393 5.05998 0
M  V30 6842 H 647.732 -1.24255 3.98581 0
M  V30 6843 H 649.122 1.98434 6.4193 0
M  V30 6844 N 651.842 -1.52309 0.404946 0
M  V30 6845 C 652.79 -2.28452 -0.437321 0
M  V30 6846 C 653.784 -1.32975 -1.04948 0
M  V30 6847 O 654.99 -1.50451 -0.988159 0
M  V30 6848 H 651.365 -0.734824 -0.159805 0
M  V30 6849 H 653.336 -2.97542 0.22615 0
M  V30 6850 C 652.085 -3.11536 -1.54404 0
M  V30 6851 H 651.408 -3.84871 -1.08233 0
M  V30 6852 H 652.848 -3.67926 -2.10729 0
M  V30 6853 C 651.307 -2.24833 -2.50902 0
M  V30 6854 O 651.837 -1.88574 -3.54687 0
M  V30 6855 N 650.043 -1.88685 -2.21012 0
M  V30 6856 H 649.59 -2.18371 -1.36646 0
M  V30 6857 H 649.548 -1.30966 -2.85824 0
M  V30 6858 N 653.32 -0.135238 -1.57019 0
M  V30 6859 C 654.268 0.826099 -2.17436 0
M  V30 6860 C 655.262 1.26378 -1.12805 0
M  V30 6861 O 656.468 1.23363 -1.31079 0
M  V30 6862 H 652.843 0.284568 -0.696078 0
M  V30 6863 H 654.814 0.292212 -2.96966 0
M  V30 6864 C 653.563 2.05991 -2.80112 0
M  V30 6865 H 652.886 1.73209 -3.60331 0
M  V30 6866 H 654.326 2.71225 -3.25903 0
M  V30 6867 C 652.785 2.86027 -1.78017 0
M  V30 6868 O 653.315 3.81971 -1.24344 0
M  V30 6869 N 651.521 2.50332 -1.47588 0
M  V30 6870 H 651.068 1.72377 -1.91426 0
M  V30 6871 H 651.026 3.04177 -0.795228 0
M  V30 6872 N 654.798 1.5699 0.138552 0
M  V30 6873 C 656.046 1.83446 0.848053 0
M  V30 6874 C 656.367 0.71744 1.81322 0
M  V30 6875 O 655.637 -0.260228 1.94164 0
M  V30 6876 H 654.217 0.676792 0.316166 0
M  V30 6877 H 656.879 1.94462 0.130538 0
M  V30 6878 H 655.975 2.78677 1.40518 0
M  V30 6879 N 656.276 -0.40816 1.52223 0
M  V30 6880 C 657.208 -1.51642 1.71864 0
M  V30 6881 C 658.221 -1.51378 0.599056 0
M  V30 6882 O 659.41 -1.55626 0.874239 0
M  V30 6883 C 656.51 -2.90534 1.74481 0
M  V30 6884 C 655.683 -3.14979 3.03491 0
M  V30 6885 C 654.742 -4.33749 2.97907 0
M  V30 6886 O 653.768 -4.30982 3.71811 0
M  V30 6887 N 654.97 -5.38912 2.15764 0
M  V30 6888 H 657.735 -1.35188 2.67478 0
M  V30 6889 H 655.296 -0.597468 1.50472 0
M  V30 6890 H 657.288 -3.68056 1.68275 0
M  V30 6891 H 655.858 -3.00441 0.863363 0
M  V30 6892 H 655.078 -2.25492 3.23337 0
M  V30 6893 H 656.366 -3.28156 3.88833 0
M  V30 6894 H 655.764 -5.44008 1.55152 0
M  V30 6895 H 654.321 -6.15174 2.15415 0
M  V30 6896 N 657.755 -1.42862 -0.66545 0
M  V30 6897 C 658.702 -1.4707 -1.77874 0
M  V30 6898 C 659.672 -0.321654 -1.62956 0
M  V30 6899 O 660.857 -0.52707 -1.83376 0
M  V30 6900 C 657.997 -1.38788 -3.15962 0
M  V30 6901 C 657.11 -2.63801 -3.42101 0
M  V30 6902 C 656.245 -2.47594 -4.69969 0
M  V30 6903 C 655.284 -3.67936 -4.89172 0
M  V30 6904 N 654.421 -3.50614 -6.08288 0
M  V30 6905 H 659.261 -2.42204 -1.73613 0
M  V30 6906 H 656.798 -1.20239 -0.847401 0
M  V30 6907 H 658.756 -1.31982 -3.95773 0
M  V30 6908 H 657.386 -0.472431 -3.19324 0
M  V30 6909 H 656.438 -2.80935 -2.56475 0
M  V30 6910 H 657.75 -3.53228 -3.52181 0
M  V30 6911 H 656.904 -2.38427 -5.57886 0
M  V30 6912 H 655.643 -1.55672 -4.62188 0
M  V30 6913 H 654.648 -3.77525 -3.99694 0
M  V30 6914 H 655.873 -4.60851 -4.98792 0
M  V30 6915 H 653.819 -2.61417 -6.01662 0
M  V30 6916 H 653.736 -4.33634 -6.19272 0
M  V30 6917 H 655.004 -3.45276 -6.98859 0
M  V30 6918 N 659.233 0.902656 -1.29189 0
M  V30 6919 C 660.163 2.02294 -1.16616 0
M  V30 6920 C 661.144 1.6999 -0.0611175 0
M  V30 6921 O 662.329 1.9271 -0.240072 0
M  V30 6922 C 659.459 3.37018 -0.83882 0
M  V30 6923 C 658.413 3.83522 -1.89986 0
M  V30 6924 C 657.739 5.15337 -1.42589 0
M  V30 6925 C 659.039 4.04169 -3.30824 0
M  V30 6926 H 660.733 2.13071 -2.10336 0
M  V30 6927 H 658.279 1.02378 -1.01266 0
M  V30 6928 H 660.232 4.14895 -0.737584 0
M  V30 6929 H 658.956 3.26325 0.134071 0
M  V30 6930 H 657.615 3.07859 -1.99043 0
M  V30 6931 H 657.263 5.01056 -0.441759 0
M  V30 6932 H 656.963 5.47423 -2.13547 0
M  V30 6933 H 658.487 5.95758 -1.3381 0
M  V30 6934 H 659.901 4.72537 -3.24626 0
M  V30 6935 H 658.298 4.47604 -3.99713 0
M  V30 6936 H 659.368 3.08604 -3.74021 0
M  V30 6937 N 660.711 1.11618 1.11262 0
M  V30 6938 C 661.957 0.867463 1.83311 0
M  V30 6939 C 662.29 -0.605366 1.84524 0
M  V30 6940 O 661.565 -1.44704 1.29965 0
M  V30 6941 C 661.848 1.43207 3.30399 0
M  V30 6942 C 661.701 2.97265 3.3757 0
M  V30 6943 C 663.02 1.08454 4.26528 0
M  V30 6944 H 660.139 0.316578 0.665543 0
M  V30 6945 H 662.781 1.38137 1.30454 0
M  V30 6946 H 660.931 0.994982 3.75543 0
M  V30 6947 H 662.603 3.49591 3.00971 0
M  V30 6948 H 660.846 3.33237 2.77733 0
M  V30 6949 H 661.517 3.31859 4.41105 0
M  V30 6950 H 663.993 1.4619 3.89574 0
M  V30 6951 H 662.869 1.50633 5.27826 0
M  V30 6952 H 663.13 -0.00444568 4.421 0
M  V30 6953 N 662.189 -1.289 0.906776 0
M  V30 6954 C 663.438 -1.9455 0.532262 0
M  V30 6955 C 663.751 -1.72219 -0.927353 0
M  V30 6956 O 664.957 -2.32033 -1.40971 0
M  V30 6957 C 663.413 -3.48438 0.901041 0
M  V30 6958 C 663.021 -3.79558 2.37991 0
M  V30 6959 C 664.765 -4.20284 0.596777 0
M  V30 6960 C 662.672 -5.26723 2.68918 0
M  V30 6961 H 661.602 -0.728259 0.195333 0
M  V30 6962 H 664.253 -1.46519 1.10474 0
M  V30 6963 H 662.635 -3.95162 0.257419 0
M  V30 6964 H 663.809 -3.43668 3.06967 0
M  V30 6965 H 662.124 -3.20868 2.65391 0
M  V30 6966 H 664.721 -5.28612 0.8046 0
M  V30 6967 H 665.064 -4.13694 -0.465072 0
M  V30 6968 H 665.597 -3.79315 1.19855 0
M  V30 6969 H 662.336 -5.38384 3.73928 0
M  V30 6970 H 661.856 -5.63836 2.04571 0
M  V30 6971 H 663.535 -5.94391 2.55555 0
M  V30 6972 N 663.667 -0.670007 -1.42649 0
M  V30 6973 C 664.916 -0.187526 -2.00826 0
M  V30 6974 C 665.229 1.21142 -1.53571 0
M  V30 6975 O 666.435 1.79001 -2.04134 0
M  V30 6976 C 664.891 -0.284409 -3.58774 0
M  V30 6977 C 664.499 -1.6871 -4.15019 0
M  V30 6978 C 666.243 0.139605 -4.2427 0
M  V30 6979 C 664.15 -1.73701 -5.65316 0
M  V30 6980 H 663.08 -0.0663468 -0.751075 0
M  V30 6981 H 665.731 -0.834492 -1.63427 0
M  V30 6982 H 664.113 0.430364 -3.93655 0
M  V30 6983 H 665.287 -2.42857 -3.91608 0
M  V30 6984 H 663.602 -2.05855 -3.61957 0
M  V30 6985 H 666.199 0.122398 -5.3456 0
M  V30 6986 H 666.542 1.17403 -3.99402 0
M  V30 6987 H 667.075 -0.523995 -3.94334 0
M  V30 6988 H 663.814 -2.75109 -5.94975 0
M  V30 6989 H 663.334 -1.03903 -5.90732 0
M  V30 6990 H 665.013 -1.48829 -6.2965 0
M  V30 6991 N 665.145 1.52092 -0.413018 0
M  V30 6992 C 666.391 2.02154 0.161737 0
M  V30 6993 C 666.724 1.29789 1.44459 0
M  V30 6994 O 665.999 0.405378 1.90229 0
M  V30 6995 C 666.282 3.5781 0.405463 0
M  V30 6996 C 666.135 4.40819 -0.894335 0
M  V30 6997 C 667.454 4.23821 1.18591 0
M  V30 6998 H 664.573 0.734769 0.0573077 0
M  V30 6999 H 667.215 1.81948 -0.547247 0
M  V30 7000 H 665.365 3.75158 1.0094 0
M  V30 7001 H 667.037 4.35175 -1.53039 0
M  V30 7002 H 665.28 4.06877 -1.50444 0
M  V30 7003 H 665.951 5.47819 -0.678144 0
M  V30 7004 H 668.427 4.10596 0.674573 0
M  V30 7005 H 667.303 5.32663 1.3252 0
M  V30 7006 H 667.564 3.83038 2.20758 0
M  V30 7007 N 666.623 0.143563 1.56945 0
M  V30 7008 C 667.9 -0.553285 1.87612 0
M  V30 7009 C 668.28 -1.83195 1.04894 0
M  V30 7010 O 667.628 -2.28102 0.134773 0
M  V30 7011 C 667.838 -0.822055 3.3918 0
M  V30 7012 C 669.186 -1.16435 4.08324 0
M  V30 7013 O 670.21 -0.911522 3.4434 0
M  V30 7014 O 669.069 -1.63996 5.21313 0
M  V30 7015 H 666.163 -0.281851 0.777489 0
M  V30 7016 H 668.709 0.179916 1.68744 0
M  V30 7017 H 667.481 0.0830265 3.91212 0
M  V30 7018 H 667.104 -1.60956 3.63564 0
M  V30 7019 N 668.101 -1.57061 -0.130224 0
M  V30 7020 C 669.512 -1.73539 -0.68856 0
M  V30 7021 C 669.863 -0.760554 -1.80859 0
M  V30 7022 O 668.988 0.0690796 -2.1629 0
M  V30 7023 C 669.583 -3.14666 -1.25581 0
M  V30 7024 C 668.142 -3.32689 -1.76055 0
M  V30 7025 C 667.289 -2.69436 -0.655712 0
M  V30 7026 H 670.24 -1.58412 0.0956002 0
M  V30 7027 H 670.261 -3.15595 -2.12556 0
M  V30 7028 H 669.773 -3.85593 -0.440412 0
M  V30 7029 H 667.874 -2.66786 -2.60108 0
M  V30 7030 H 667.987 -4.4077 -1.87772 0
M  V30 7031 H 666.351 -2.30362 -1.08654 0
M  V30 7032 H 667.134 -3.42979 0.14852 0
M  V30 7033 N 669.579 0.400081 -1.52437 0
M  V30 7034 C 670.542 1.4707 -1.75793 0
M  V30 7035 C 671.542 1.48036 -0.627856 0
M  V30 7036 O 672.732 1.49401 -0.895817 0
M  V30 7037 C 669.864 2.86427 -1.84858 0
M  V30 7038 H 671.057 1.27649 -2.71377 0
M  V30 7039 H 668.61 0.631141 -1.42991 0
M  V30 7040 H 669.345 3.11207 -0.912194 0
M  V30 7041 H 669.13 2.87128 -2.6702 0
M  V30 7042 H 670.62 3.64023 -2.04638 0
M  V30 7043 N 671.057 1.43213 0.657864 0
M  V30 7044 C 672.306 1.43871 1.41365 0
M  V30 7045 C 672.619 0.064898 1.95492 0
M  V30 7046 O 673.825 -0.0510796 2.71452 0
M  V30 7047 C 672.281 2.53158 2.55811 0
M  V30 7048 C 671.889 3.96624 2.08311 0
M  V30 7049 C 673.633 2.63004 3.3321 0
M  V30 7050 C 671.54 4.97385 3.1994 0
M  V30 7051 H 670.47 0.535174 0.531136 0
M  V30 7052 H 673.121 1.69185 0.710543 0
M  V30 7053 H 671.503 2.21037 3.2857 0
M  V30 7054 H 672.677 4.38182 1.42593 0
M  V30 7055 H 670.992 3.90781 1.43804 0
M  V30 7056 H 673.589 3.3546 4.16378 0
M  V30 7057 H 673.932 1.67918 3.80932 0
M  V30 7058 H 674.465 2.94403 2.67529 0
M  V30 7059 H 671.204 5.94007 2.77192 0
M  V30 7060 H 670.724 4.60444 3.84385 0
M  V30 7061 H 672.403 5.19877 3.85145 0
M  V30 7062 N 672.536 -0.895792 1.29666 0
M  V30 7063 C 673.761 -1.68528 1.20885 0
M  V30 7064 C 674.186 -1.8673 -0.226595 0
M  V30 7065 O 673.544 -1.39044 -1.16347 0
M  V30 7066 C 673.592 -3.04512 1.93144 0
M  V30 7067 O 672.696 -3.92963 1.25115 0
M  V30 7068 H 672.037 -0.515371 0.418675 0
M  V30 7069 H 674.567 -1.11878 1.71302 0
M  V30 7070 H 674.577 -3.54628 2.0175 0
M  V30 7071 H 673.252 -2.90582 2.97548 0
M  V30 7072 H 671.829 -3.51399 1.24794 0
M  V30 7073 N 674.014 -1.12206 -1.10668 0
M  V30 7074 C 674.962 -0.782918 -2.19028 0
M  V30 7075 C 675.956 0.229175 -1.67843 0
M  V30 7076 O 677.162 0.0876295 -1.79787 0
M  V30 7077 H 673.537 -0.235339 -0.714227 0
M  V30 7078 H 675.508 -1.70527 -2.44874 0
M  V30 7079 C 674.257 -0.25116 -3.46792 0
M  V30 7080 H 673.58 -1.02123 -3.86537 0
M  V30 7081 H 675.02 -0.0521409 -4.23968 0
M  V30 7082 C 673.479 1.02037 -3.21076 0
M  V30 7083 O 674.009 2.09862 -3.42522 0
M  V30 7084 N 672.215 0.946348 -2.74759 0
M  V30 7085 H 671.762 0.068777 -2.57508 0
M  V30 7086 H 671.72 1.79775 -2.57931 0
M  V30 7087 N 675.492 1.28418 -0.913599 0
M  V30 7088 C 676.44 2.29272 -0.392037 0
M  V30 7089 C 677.434 1.61344 0.516198 0
M  V30 7090 O 678.64 1.75557 0.39746 0
M  V30 7091 H 675.015 0.744178 -0.108178 0
M  V30 7092 H 676.986 2.70691 -1.25574 0
M  V30 7093 C 675.735 3.45905 0.352815 0
M  V30 7094 H 675.058 3.98378 -0.336848 0
M  V30 7095 H 676.498 4.18473 0.682398 0
M  V30 7096 C 674.957 2.98572 1.56065 0
M  V30 7097 O 675.487 3.01033 2.65974 0
M  V30 7098 N 673.693 2.54235 1.40759 0
M  V30 7099 H 673.24 2.52432 0.513403 0
M  V30 7100 H 673.198 2.22925 2.21702 0
M  V30 7101 N 676.97 0.677563 1.42291 0
M  V30 7102 C 678.195 0.207901 2.06355 0
M  V30 7103 C 678.62 -1.12723 1.50583 0
M  V30 7104 O 677.978 -1.70171 0.62543 0
M  V30 7105 C 678.026 0.156489 3.6026 0
M  V30 7106 O 677.13 -0.874162 4.03029 0
M  V30 7107 H 676.471 0.106056 0.655475 0
M  V30 7108 H 679.001 0.927354 1.82377 0
M  V30 7109 H 679.011 -0.0187258 4.07996 0
M  V30 7110 H 677.686 1.13101 4.00226 0
M  V30 7111 H 676.263 -0.669764 3.66836 0
M  V30 7112 N 678.448 -1.51871 0.421078 0
M  V30 7113 C 679.673 -2.0684 -0.152371 0
M  V30 7114 C 680.098 -1.28802 -1.37083 0
M  V30 7115 O 679.456 -0.321482 -1.78427 0
M  V30 7116 C 679.504 -3.57532 -0.469368 0
M  V30 7117 O 678.608 -3.81818 -1.55848 0
M  V30 7118 H 677.949 -0.663939 -0.00898586 0
M  V30 7119 H 680.479 -1.95674 0.597724 0
M  V30 7120 H 680.489 -4.01515 -0.724553 0
M  V30 7121 H 679.164 -4.13761 0.421276 0
M  V30 7122 H 677.741 -3.49709 -1.29453 0
M  V30 7123 N 679.926 -0.151884 -1.56866 0
M  V30 7124 C 681.151 0.508044 -2.01081 0
M  V30 7125 C 681.576 1.57306 -1.03134 0
M  V30 7126 O 680.934 1.81298 -0.0078309 0
M  V30 7127 C 680.982 1.08106 -3.44014 0
M  V30 7128 O 680.086 2.19577 -3.49084 0
M  V30 7129 H 679.427 0.123757 -0.652365 0
M  V30 7130 H 681.957 -0.250055 -2.03066 0
M  V30 7131 H 681.967 1.40851 -3.82916 0
M  V30 7132 H 680.642 0.301168 -4.14808 0
M  V30 7133 H 679.219 1.88023 -3.22027 0
M  V30 7134 N 681.404 1.57128 0.121893 0
M  V30 7135 C 682.629 1.89254 0.848385 0
M  V30 7136 C 683.054 0.743527 1.72781 0
M  V30 7137 O 682.412 -0.306056 1.78698 0
M  V30 7138 C 682.46 3.20113 1.66012 0
M  V30 7139 O 681.564 3.05815 2.76679 0
M  V30 7140 H 680.905 0.621103 0.234793 0
M  V30 7141 H 683.435 2.0433 0.10516 0
M  V30 7142 H 683.445 3.52761 2.04996 0
M  V30 7143 H 682.12 4.03336 1.01452 0
M  V30 7144 H 680.697 2.84627 2.40918 0
M  V30 7145 N 682.882 -0.391992 1.52647 0
M  V30 7146 C 683.829 -1.47866 1.77213 0
M  V30 7147 C 684.799 -1.54286 0.615223 0
M  V30 7148 O 685.984 -1.7059 0.854622 0
M  V30 7149 C 683.124 -2.85129 1.94411 0
M  V30 7150 C 682.237 -2.87883 3.22098 0
M  V30 7151 C 681.372 -4.16553 3.29631 0
M  V30 7152 C 680.411 -4.13348 4.51453 0
M  V30 7153 N 679.548 -5.33619 4.56284 0
M  V30 7154 H 684.388 -1.26219 2.6995 0
M  V30 7155 H 681.925 -0.612367 1.33748 0
M  V30 7156 H 683.883 -3.64833 2.02367 0
M  V30 7157 H 682.513 -3.05232 1.05038 0
M  V30 7158 H 681.565 -2.00567 3.23229 0
M  V30 7159 H 682.877 -2.81382 4.11856 0
M  V30 7160 H 682.031 -5.0466 3.36753 0
M  V30 7161 H 680.77 -4.25773 2.37842 0
M  V30 7162 H 679.775 -3.23629 4.44459 0
M  V30 7163 H 681 -4.05754 5.44555 0
M  V30 7164 H 678.946 -5.43474 3.67385 0
M  V30 7165 H 678.863 -5.29182 5.3991 0
M  V30 7166 H 680.131 -6.23632 4.67657 0
M  V30 7167 N 684.36 -1.4356 -0.65026 0
M  V30 7168 C 685.771 -1.40324 -1.2315 0
M  V30 7169 C 686.122 -0.108812 -1.95898 0
M  V30 7170 O 685.247 0.79163 -2.01401 0
M  V30 7171 C 685.842 -2.54195 -2.23987 0
M  V30 7172 C 684.401 -2.54215 -2.77582 0
M  V30 7173 C 683.548 -2.31752 -1.5227 0
M  V30 7174 H 686.499 -1.52418 -0.442095 0
M  V30 7175 H 686.52 -2.25854 -3.0622 0
M  V30 7176 H 686.032 -3.48392 -1.71011 0
M  V30 7177 H 684.133 -1.63907 -3.34612 0
M  V30 7178 H 684.246 -3.52081 -3.24925 0
M  V30 7179 H 682.61 -1.80476 -1.79723 0
M  V30 7180 H 683.393 -3.28037 -1.01225 0
M  V30 7181 N 685.838 0.888903 -1.30139 0
M  V30 7182 C 687.068 1.67115 -1.21474 0
M  V30 7183 C 687.476 1.87852 0.225472 0
M  V30 7184 O 686.819 1.42324 1.16145 0
M  V30 7185 C 686.881 3.0713 -1.86846 0
M  V30 7186 C 686.545 3.09582 -3.36167 0
M  V30 7187 C 687.542 2.88929 -4.32222 0
M  V30 7188 C 685.227 3.31304 -3.77549 0
M  V30 7189 C 687.221 2.89949 -5.67634 0
M  V30 7190 C 684.908 3.31954 -5.13079 0
M  V30 7191 C 685.906 3.113 -6.07932 0
M  V30 7192 O 685.594 3.11758 -7.40987 0
M  V30 7193 H 685.326 0.528372 -0.421662 0
M  V30 7194 H 687.88 1.11919 -1.7223 0
M  V30 7195 H 686.11 3.63973 -1.30615 0
M  V30 7196 H 687.799 3.6749 -1.72354 0
M  V30 7197 H 688.565 2.71948 -4.01584 0
M  V30 7198 H 684.444 3.46417 -3.04165 0
M  V30 7199 H 687.988 2.73746 -6.41645 0
M  V30 7200 H 683.885 3.48469 -5.43359 0
M  V30 7201 H 684.653 3.27951 -7.49927 0
M  V30 7202 N 687.317 1.12792 1.10072 0
M  V30 7203 C 688.565 0.883796 1.81751 0
M  V30 7204 C 688.886 -0.591891 1.858 0
M  V30 7205 O 688.156 -1.43017 1.33876 0
M  V30 7206 H 686.736 0.323978 0.673088 0
M  V30 7207 H 689.398 1.42314 1.33164 0
M  V30 7208 H 688.494 1.26863 2.85153 0
M  V30 7209 N 688.795 -1.27931 0.920396 0
M  V30 7210 C 690.206 -1.76707 0.602616 0
M  V30 7211 C 690.557 -1.75249 -0.882159 0
M  V30 7212 O 689.682 -1.35135 -1.69019 0
M  V30 7213 C 690.277 -3.20884 1.08714 0
M  V30 7214 C 688.836 -3.67356 0.820157 0
M  V30 7215 C 687.983 -2.47525 1.25006 0
M  V30 7216 H 690.934 -1.14301 1.10095 0
M  V30 7217 H 690.955 -3.78045 0.431535 0
M  V30 7218 H 690.467 -3.21913 2.1678 0
M  V30 7219 H 688.568 -3.7178 -0.247012 0
M  V30 7220 H 688.681 -4.57181 1.43257 0
M  V30 7221 H 687.045 -2.45765 0.668698 0
M  V30 7222 H 687.828 -2.51269 2.3392 0
M  V30 7223 N 690.273 -0.685099 -1.4193 0
M  V30 7224 C 691.503 -0.220052 -2.05425 0
M  V30 7225 C 691.911 1.13185 -1.51611 0
M  V30 7226 O 691.254 1.71631 -0.654875 0
M  V30 7227 C 691.316 -0.0888364 -3.5939 0
M  V30 7228 C 690.98 -1.37109 -4.35947 0
M  V30 7229 C 691.977 -2.30675 -4.65924 0
M  V30 7230 C 689.662 -1.62155 -4.75406 0
M  V30 7231 C 691.656 -3.47556 -5.34306 0
M  V30 7232 C 689.343 -2.79324 -5.43527 0
M  V30 7233 C 690.341 -3.71848 -5.72903 0
M  V30 7234 O 690.029 -4.86966 -6.39624 0
M  V30 7235 H 689.761 -0.102165 -0.668235 0
M  V30 7236 H 692.315 -0.935194 -1.82875 0
M  V30 7237 H 690.545 0.681981 -3.80639 0
M  V30 7238 H 692.234 0.337669 -4.04493 0
M  V30 7239 H 693 -2.12579 -4.3593 0
M  V30 7240 H 688.879 -0.910053 -4.51928 0
M  V30 7241 H 692.423 -4.19794 -5.57153 0
M  V30 7242 H 688.32 -2.97342 -5.72938 0
M  V30 7243 H 689.088 -4.86644 -6.58118 0
M  V30 7244 N 691.751 1.51645 -0.429126 0
M  V30 7245 C 693.028 1.94579 0.199614 0
M  V30 7246 C 693.408 1.3673 1.60836 0
M  V30 7247 O 692.756 0.551062 2.21756 0
M  V30 7248 C 692.966 3.48506 0.185685 0
M  V30 7249 C 694.314 4.22756 0.395282 0
M  V30 7250 O 695.338 3.55219 0.264165 0
M  V30 7251 O 694.197 5.42555 0.655475 0
M  V30 7252 H 691.291 0.816007 0.134393 0
M  V30 7253 H 693.837 1.62577 -0.486513 0
M  V30 7254 H 692.609 3.83045 -0.799508 0
M  V30 7255 H 692.232 3.86927 0.91507 0
M  V30 7256 N 693.229 0.160201 1.56784 0
M  V30 7257 C 694.645 -0.196089 1.58391 0
M  V30 7258 C 694.845 -1.63689 1.17508 0
M  V30 7259 O 693.901 -2.36613 0.881506 0
M  V30 7260 C 695.214 0.0746449 3.00607 0
M  V30 7261 C 696.762 0.0119762 3.12998 0
M  V30 7262 C 697.237 0.255551 4.57286 0
M  V30 7263 N 698.728 0.202938 4.62755 0
M  V30 7264 C 699.463 0.365731 5.72232 0
M  V30 7265 N 698.959 0.586972 6.90309 0
M  V30 7266 N 700.752 0.302411 5.61286 0
M  V30 7267 H 692.903 1.1008 1.81648 0
M  V30 7268 H 695.166 0.436779 0.841384 0
M  V30 7269 H 694.872 1.07231 3.34954 0
M  V30 7270 H 694.746 -0.638802 3.71751 0
M  V30 7271 H 697.133 -0.976254 2.78484 0
M  V30 7272 H 697.214 0.75796 2.44313 0
M  V30 7273 H 696.858 1.24094 4.92507 0
M  V30 7274 H 696.788 -0.510912 5.24116 0
M  V30 7275 H 699.279 0.0371328 3.77882 0
M  V30 7276 H 699.592 0.700941 7.69615 0
M  V30 7277 H 697.937 0.623453 6.92198 0
M  V30 7278 H 701.128 0.130238 4.67919 0
M  V30 7279 H 701.301 0.432712 6.46554 0
M  V30 7280 N 694.707 -1.5719 -0.113559 0
M  V30 7281 C 695.955 -1.84772 -0.818761 0
M  V30 7282 C 696.276 -0.746196 -1.80158 0
M  V30 7283 O 695.546 0.229305 -1.94553 0
M  V30 7284 H 694.126 -0.681737 -0.305359 0
M  V30 7285 H 696.788 -1.94645 -0.0995845 0
M  V30 7286 H 695.884 -2.80878 -1.36067 0
M  V30 7287 N 696.185 0.383891 -1.52853 0
M  V30 7288 C 697.41 1.154 -1.7233 0
M  V30 7289 C 697.835 1.82809 -0.44298 0
M  V30 7290 O 697.193 1.71026 0.601645 0
M  V30 7291 C 697.241 2.17386 -2.87708 0
M  V30 7292 O 696.345 3.24082 -2.55038 0
M  V30 7293 H 695.686 0.335709 -0.572883 0
M  V30 7294 H 698.216 0.44662 -1.99666 0
M  V30 7295 H 698.226 2.61296 -3.1335 0
M  V30 7296 H 696.901 1.6771 -3.80587 0
M  V30 7297 H 695.478 2.85273 -2.40153 0
M  V30 7298 N 697.663 1.43903 0.642637 0
M  V30 7299 C 698.94 1.36556 1.40043 0
M  V30 7300 C 699.32 0.0185588 2.11092 0
M  V30 7301 O 698.668 -0.998438 2.05532 0
M  V30 7302 C 698.878 2.55596 2.37638 0
M  V30 7303 C 700.226 2.99153 3.01318 0
M  V30 7304 O 701.25 2.55719 2.47965 0
M  V30 7305 O 700.109 3.74427 3.98078 0
M  V30 7306 H 697.203 0.540189 0.626198 0
M  V30 7307 H 699.749 1.55971 0.668657 0
M  V30 7308 H 698.521 3.45256 1.84158 0
M  V30 7309 H 698.144 2.38334 3.18249 0
M  V30 7310 N 699.141 -0.881989 1.30609 0
M  V30 7311 C 700.074 -1.99066 1.11571 0
M  V30 7312 C 701.052 -1.62584 0.022516 0
M  V30 7313 O 702.236 -1.87671 0.176644 0
M  V30 7314 C 699.363 -3.3134 0.702237 0
M  V30 7315 C 698.409 -3.86807 1.79673 0
M  V30 7316 S 699.242 -4.13735 3.39976 0
M  V30 7317 C 700.398 -5.49024 3.00538 0
M  V30 7318 H 700.631 -2.1491 2.05429 0
M  V30 7319 H 698.164 -1.03074 1.14957 0
M  V30 7320 H 700.122 -4.07796 0.470415 0
M  V30 7321 H 698.783 -3.13349 -0.217034 0
M  V30 7322 H 697.976 -4.82397 1.45977 0
M  V30 7323 H 697.578 -3.17102 1.98298 0
M  V30 7324 H 699.87 -6.30208 2.48684 0
M  V30 7325 H 700.813 -5.8766 3.95046 0
M  V30 7326 H 701.221 -5.11726 2.3832 0
M  V30 7327 N 700.619 -1.13374 -1.09472 0
M  V30 7328 C 701.566 -0.810682 -2.16094 0
M  V30 7329 C 702.536 0.227003 -1.64541 0
M  V30 7330 O 703.721 0.0993538 -1.90541 0
M  V30 7331 C 700.861 -0.282336 -3.43943 0
M  V30 7332 C 699.974 -1.37902 -4.09398 0
M  V30 7333 C 699.109 -0.809066 -5.25002 0
M  V30 7334 C 698.148 -1.88419 -5.82379 0
M  V30 7335 N 697.285 -1.33221 -6.89345 0
M  V30 7336 H 702.125 -1.72397 -2.43071 0
M  V30 7337 H 699.662 -0.860564 -1.19301 0
M  V30 7338 H 701.62 0.0421189 -4.17179 0
M  V30 7339 H 700.25 0.594083 -3.17286 0
M  V30 7340 H 699.302 -1.82008 -3.34032 0
M  V30 7341 H 700.614 -2.19161 -4.48074 0
M  V30 7342 H 699.768 -0.435867 -6.05132 0
M  V30 7343 H 698.507 0.0346058 -4.87688 0
M  V30 7344 H 697.512 -2.26646 -5.00911 0
M  V30 7345 H 698.737 -2.73125 -6.21755 0
M  V30 7346 H 696.683 -0.510535 -6.5401 0
M  V30 7347 H 696.6 -2.08129 -7.26786 0
M  V30 7348 H 697.868 -0.986565 -7.73232 0
M  V30 7349 N 702.098 1.27442 -0.927168 0
M  V30 7350 C 703.347 1.93679 -0.563146 0
M  V30 7351 C 703.66 1.73673 0.899837 0
M  V30 7352 O 704.866 2.34247 1.37262 0
M  V30 7353 C 703.322 3.46961 -0.95636 0
M  V30 7354 C 702.93 3.75724 -2.43999 0
M  V30 7355 C 704.674 4.19282 -0.663565 0
M  V30 7356 C 702.581 5.22378 -2.77263 0
M  V30 7357 H 701.511 0.725059 -0.206894 0
M  V30 7358 H 704.162 1.44743 -1.12791 0
M  V30 7359 H 702.544 3.94703 -0.320254 0
M  V30 7360 H 703.718 3.38741 -3.12396 0
M  V30 7361 H 702.033 3.16605 -2.70463 0
M  V30 7362 H 704.63 5.27265 -0.888596 0
M  V30 7363 H 704.973 4.14382 0.399198 0
M  V30 7364 H 705.506 3.7736 -1.25875 0
M  V30 7365 H 702.245 5.32367 -3.82446 0
M  V30 7366 H 701.765 5.6051 -2.13516 0
M  V30 7367 H 703.444 5.9025 -2.64979 0
M  V30 7368 N 703.576 0.692616 1.41565 0
M  V30 7369 C 704.822 0.231408 2.02079 0
M  V30 7370 C 705.177 -1.15514 1.53864 0
M  V30 7371 O 704.47 -1.76786 0.73873 0
M  V30 7372 C 704.664 0.225073 3.56691 0
M  V30 7373 C 704.493 1.60947 4.19912 0
M  V30 7374 C 703.263 2.2116 4.54331 0
M  V30 7375 C 705.461 2.55553 4.46315 0
M  V30 7376 N 703.443 3.52195 5.02824 0
M  V30 7377 C 704.814 3.71263 4.96552 0
M  V30 7378 C 706.869 2.53857 4.28323 0
M  V30 7379 C 705.572 4.85555 5.30687 0
M  V30 7380 C 707.598 3.67259 4.63546 0
M  V30 7381 C 706.96 4.81699 5.13951 0
M  V30 7382 H 703.059 0.130001 0.771119 0
M  V30 7383 H 705.643 0.909459 1.72154 0
M  V30 7384 H 703.814 -0.422453 3.86096 0
M  V30 7385 H 705.546 -0.250685 4.03923 0
M  V30 7386 H 702.301 1.73474 4.40685 0
M  V30 7387 H 702.725 4.19354 5.3148 0
M  V30 7388 H 707.367 1.66598 3.88594 0
M  V30 7389 H 705.085 5.73477 5.69341 0
M  V30 7390 H 708.671 3.67195 4.51286 0
M  V30 7391 H 707.551 5.67995 5.40695 0
M  V30 7392 N 705.054 -1.51416 0.437162 0
M  V30 7393 C 706.3 -2.02386 -0.129555 0
M  V30 7394 C 706.633 -1.32071 -1.42376 0
M  V30 7395 O 705.908 -0.43559 -1.8956 0
M  V30 7396 C 706.191 -3.5841 -0.348487 0
M  V30 7397 C 706.044 -4.39341 0.964352 0
M  V30 7398 C 707.363 -4.25654 -1.11834 0
M  V30 7399 H 704.482 -0.735587 -0.0456109 0
M  V30 7400 H 707.124 -1.81055 0.576124 0
M  V30 7401 H 705.274 -3.76716 -0.949592 0
M  V30 7402 H 706.946 -4.32685 1.59942 0
M  V30 7403 H 705.189 -4.04432 1.56898 0
M  V30 7404 H 705.86 -5.4667 0.765212 0
M  V30 7405 H 708.336 -4.11617 -0.609165 0
M  V30 7406 H 707.212 -5.34704 -1.24029 0
M  V30 7407 H 707.473 -3.86502 -2.14636 0
M  V30 7408 N 706.532 -0.168513 -1.56696 0
M  V30 7409 C 707.48 0.779791 -2.19139 0
M  V30 7410 C 708.474 1.23957 -1.1546 0
M  V30 7411 O 709.68 1.20555 -1.33666 0
M  V30 7412 H 706.055 0.269739 -0.701958 0
M  V30 7413 H 708.026 0.229156 -2.97519 0
M  V30 7414 C 706.775 2.00003 -2.84419 0
M  V30 7415 H 706.098 1.65527 -3.63924 0
M  V30 7416 H 707.538 2.64251 -3.31583 0
M  V30 7417 C 705.997 2.82187 -1.84044 0
M  V30 7418 O 706.527 3.79247 -1.32418 0
M  V30 7419 N 704.733 2.47145 -1.52864 0
M  V30 7420 H 704.28 1.68277 -1.9504 0
M  V30 7421 H 704.238 3.02422 -0.859569 0
M  V30 7422 N 708.01 1.57248 0.105221 0
M  V30 7423 C 709.235 1.90143 0.828264 0
M  V30 7424 C 709.66 0.761811 1.71983 0
M  V30 7425 O 709.018 -0.287086 1.79013 0
M  V30 7426 C 709.066 3.21856 1.62608 0
M  V30 7427 O 708.17 3.08732 2.7342 0
M  V30 7428 H 707.511 0.623558 0.228192 0
M  V30 7429 H 710.041 2.0443 0.0834826 0
M  V30 7430 H 710.051 3.54916 2.01243 0
M  V30 7431 H 708.726 4.0439 0.971687 0
M  V30 7432 H 707.303 2.87167 2.37886 0
M  V30 7433 N 709.488 -0.375779 1.53054 0
M  V30 7434 C 710.713 -1.14484 1.7294 0
M  V30 7435 C 711.138 -1.82572 0.452668 0
M  V30 7436 O 710.496 -1.71343 -0.592567 0
M  V30 7437 C 710.544 -2.15857 2.88857 0
M  V30 7438 O 709.648 -3.22725 2.56753 0
M  V30 7439 H 708.989 -0.332666 0.574656 0
M  V30 7440 H 711.519 -0.436025 1.999 0
M  V30 7441 H 711.529 -2.59631 3.14731 0
M  V30 7442 H 710.204 -1.65689 3.81471 0
M  V30 7443 H 708.781 -2.83996 2.41663 0
M  V30 7444 N 710.966 -1.44241 -0.634997 0
M  V30 7445 C 712.243 -1.37296 -1.39317 0
M  V30 7446 C 712.623 -0.0297532 -2.11079 0
M  V30 7447 O 711.971 0.987524 -2.06059 0
M  V30 7448 C 712.181 -2.56853 -2.36279 0
M  V30 7449 C 713.529 -3.00747 -2.99728 0
M  V30 7450 O 714.553 -2.5703 -2.46605 0
M  V30 7451 O 713.412 -3.76533 -3.96087 0
M  V30 7452 H 710.506 -0.543503 -0.623325 0
M  V30 7453 H 713.052 -1.56324 -0.660376 0
M  V30 7454 H 711.824 -3.46228 -1.82324 0
M  V30 7455 H 711.447 -2.40019 -3.16981 0
M  V30 7456 N 712.444 0.87505 -1.31075 0
M  V30 7457 C 713.692 1.62447 -1.20231 0
M  V30 7458 C 714.013 1.93506 0.240888 0
M  V30 7459 O 713.283 1.57847 1.16022 0
M  V30 7460 H 711.863 0.602207 -0.441991 0
M  V30 7461 H 714.525 1.04788 -1.64334 0
M  V30 7462 H 713.621 2.57031 -1.77036 0
M  V30 7463 N 713.922 1.13953 1.08869 0
M  V30 7464 C 715.168 0.906151 1.8143 0
M  V30 7465 C 715.501 -0.566089 1.85766 0
M  V30 7466 O 714.776 -1.41915 1.33006 0
M  V30 7467 C 715.059 1.50183 3.27287 0
M  V30 7468 C 714.912 3.04359 3.31189 0
M  V30 7469 C 716.231 1.17477 4.24131 0
M  V30 7470 H 713.35 0.330624 0.658678 0
M  V30 7471 H 715.992 1.40873 1.27495 0
M  V30 7472 H 714.142 1.07442 3.73348 0
M  V30 7473 H 715.814 3.55896 2.93488 0
M  V30 7474 H 714.057 3.39053 2.70602 0
M  V30 7475 H 714.728 3.41141 4.33966 0
M  V30 7476 H 717.204 1.5442 3.86385 0
M  V30 7477 H 716.08 1.61795 5.24513 0
M  V30 7478 H 716.341 0.0893312 4.4201 0
M  V30 7479 N 715.4 -1.26948 0.933913 0
M  V30 7480 C 716.628 -1.98186 0.59414 0
M  V30 7481 C 717.043 -1.69614 -0.829257 0
M  V30 7482 O 716.4 -0.960213 -1.55197 0
M  V30 7483 C 716.451 -3.52123 0.818026 0
M  V30 7484 O 716.172 -3.79698 2.18543 0
M  V30 7485 C 717.673 -4.40608 0.48781 0
M  V30 7486 H 714.893 -0.632305 0.224569 0
M  V30 7487 H 717.437 -1.61646 1.25263 0
M  V30 7488 H 715.592 -3.86851 0.206246 0
M  V30 7489 H 716.006 -4.7426 2.24005 0
M  V30 7490 H 717.48 -5.47606 0.695126 0
M  V30 7491 H 717.957 -4.35394 -0.576913 0
M  V30 7492 H 718.563 -4.11411 1.078 0
M  V30 7493 N 716.879 -0.700114 -1.41195 0
M  V30 7494 C 718.29 -0.307249 -1.84154 0
M  V30 7495 C 718.641 1.15539 -1.58572 0
M  V30 7496 O 717.766 1.88744 -1.05852 0
M  V30 7497 C 718.361 -0.550872 -3.34292 0
M  V30 7498 C 716.92 -0.211877 -3.75803 0
M  V30 7499 C 716.067 -0.830915 -2.64558 0
M  V30 7500 H 719.018 -0.900431 -1.30683 0
M  V30 7501 H 719.039 0.188954 -3.80031 0
M  V30 7502 H 718.551 -1.61548 -3.5288 0
M  V30 7503 H 716.652 0.848283 -3.62815 0
M  V30 7504 H 716.765 -0.67007 -4.74391 0
M  V30 7505 H 715.129 -0.260155 -2.53368 0
M  V30 7506 H 715.912 -1.89948 -2.85963 0
M  V30 7507 N 718.357 1.51182 -0.445186 0
M  V30 7508 C 719.287 2.30821 0.352686 0
M  V30 7509 C 720.268 1.36576 1.01395 0
M  V30 7510 O 721.453 1.65497 1.01609 0
M  V30 7511 C 718.583 3.15593 1.44976 0
M  V30 7512 C 717.537 4.1818 0.911553 0
M  V30 7513 C 716.863 4.91523 2.10497 0
M  V30 7514 C 718.163 5.22266 -0.059418 0
M  V30 7515 H 719.857 2.97771 -0.311936 0
M  V30 7516 H 717.403 1.43201 -0.151461 0
M  V30 7517 H 719.356 3.70091 2.01521 0
M  V30 7518 H 718.08 2.4648 2.14278 0
M  V30 7519 H 716.739 3.64746 0.368264 0
M  V30 7520 H 716.387 4.18906 2.78437 0
M  V30 7521 H 716.087 5.60898 1.7512 0
M  V30 7522 H 717.611 5.48847 2.6758 0
M  V30 7523 H 719.025 5.71789 0.415985 0
M  V30 7524 H 717.422 5.99213 -0.326152 0
M  V30 7525 H 718.492 4.7461 -0.993631 0
M  V30 7526 N 719.835 0.176821 1.56605 0
M  V30 7527 C 721.084 -0.466833 1.96223 0
M  V30 7528 C 721.397 -1.64015 1.06576 0
M  V30 7529 O 722.603 -2.3504 1.35898 0
M  V30 7530 C 721.059 -0.881921 3.48927 0
M  V30 7531 C 720.667 0.266102 4.47209 0
M  V30 7532 C 722.411 -1.49368 3.97353 0
M  V30 7533 C 720.318 -0.168923 5.91159 0
M  V30 7534 H 719.248 -0.178178 0.732645 0
M  V30 7535 H 721.899 0.265929 1.81563 0
M  V30 7536 H 720.281 -1.67082 3.59026 0
M  V30 7537 H 721.455 1.04349 4.4883 0
M  V30 7538 H 719.77 0.788178 4.08872 0
M  V30 7539 H 722.367 -1.8313 5.02362 0
M  V30 7540 H 722.71 -2.3936 3.40606 0
M  V30 7541 H 723.243 -0.769114 3.90294 0
M  V30 7542 H 719.982 0.696351 6.51791 0
M  V30 7543 H 719.502 -0.911552 5.92833 0
M  V30 7544 H 721.181 -0.610938 6.44109 0
M  V30 7545 N 721.313 -1.57302 -0.09688 0
M  V30 7546 C 722.561 -1.8563 -0.799117 0
M  V30 7547 C 722.882 -0.765263 -1.79356 0
M  V30 7548 O 722.152 0.208657 -1.94786 0
M  V30 7549 H 720.732 -0.684937 -0.298111 0
M  V30 7550 H 723.394 -1.9474 -0.0789341 0
M  V30 7551 H 722.49 -2.82305 -1.3308 0
M  V30 7552 N 722.791 0.367657 -1.53252 0
M  V30 7553 C 723.701 1.47415 -1.82499 0
M  V30 7554 C 724.717 1.58711 -0.713222 0
M  V30 7555 O 725.893 1.74644 -1.00306 0
M  V30 7556 C 722.958 2.82706 -2.00694 0
M  V30 7557 C 722.019 2.80955 -3.24596 0
M  V30 7558 C 721.252 4.09793 -3.41914 0
M  V30 7559 O 721.475 5.05852 -2.63572 0
M  V30 7560 O 720.409 4.15731 -4.3526 0
M  V30 7561 H 724.235 1.25624 -2.765 0
M  V30 7562 H 721.82 0.557559 -1.38606 0
M  V30 7563 H 723.702 3.62873 -2.14246 0
M  V30 7564 H 722.377 3.04479 -1.09883 0
M  V30 7565 H 721.284 1.99494 -3.16469 0
M  V30 7566 H 722.617 2.64136 -4.15323 0
M  V30 7567 N 724.269 1.44576 0.627338 0
M  V30 7568 C 725.515 1.47777 1.38888 0
M  V30 7569 C 725.848 0.111406 1.9388 0
M  V30 7570 O 725.123 -0.87149 1.73883 0
M  V30 7571 C 725.406 2.54119 2.55138 0
M  V30 7572 C 725.259 4.00128 2.0547 0
M  V30 7573 C 726.578 2.56929 3.57317 0
M  V30 7574 H 723.697 0.538048 0.50366 0
M  V30 7575 H 726.339 1.76277 0.708978 0
M  V30 7576 H 724.489 2.29948 3.13139 0
M  V30 7577 H 726.161 4.35444 1.5227 0
M  V30 7578 H 724.404 4.11724 1.36623 0
M  V30 7579 H 725.075 4.7019 2.89181 0
M  V30 7580 H 727.551 2.78536 3.09122 0
M  V30 7581 H 726.427 3.33234 4.36173 0
M  V30 7582 H 726.688 1.6127 4.11636 0
M  V30 7583 N 725.747 -0.868086 1.31537 0
M  V30 7584 C 726.993 -1.62359 1.2252 0
M  V30 7585 C 727.348 -1.91204 -0.214169 0
M  V30 7586 O 726.641 -1.5339 -1.14813 0
M  V30 7587 C 726.835 -2.95889 2.0046 0
M  V30 7588 C 726.664 -2.80082 3.5183 0
M  V30 7589 C 725.434 -2.7917 4.21179 0
M  V30 7590 C 727.632 -2.54805 4.46743 0
M  V30 7591 N 725.614 -2.54433 5.58692 0
M  V30 7592 C 726.985 -2.39349 5.71937 0
M  V30 7593 C 729.04 -2.40165 4.36148 0
M  V30 7594 C 727.743 -2.1074 6.87736 0
M  V30 7595 C 729.769 -2.12945 5.51732 0
M  V30 7596 C 729.131 -1.98278 6.75918 0
M  V30 7597 H 725.23 -0.598381 0.503452 0
M  V30 7598 H 727.814 -1.02156 1.65748 0
M  V30 7599 H 725.985 -3.54095 1.59598 0
M  V30 7600 H 727.717 -3.60734 1.83447 0
M  V30 7601 H 724.472 -2.91621 3.73168 0
M  V30 7602 H 724.896 -2.45029 6.31102 0
M  V30 7603 H 729.538 -2.50231 3.408 0
M  V30 7604 H 727.256 -1.99412 7.8311 0
M  V30 7605 H 730.842 -2.02415 5.45454 0
M  V30 7606 H 729.722 -1.77514 7.63845 0
M  V30 7607 N 727.225 -1.14528 -1.08264 0
M  V30 7608 C 728.636 -0.925261 -1.6216 0
M  V30 7609 C 728.987 0.535587 -1.88748 0
M  V30 7610 O 728.112 1.4048 -1.64604 0
M  V30 7611 C 728.707 -1.67316 -2.94603 0
M  V30 7612 C 727.266 -1.49868 -3.45278 0
M  V30 7613 C 726.413 -1.69471 -2.19487 0
M  V30 7614 H 729.364 -1.29687 -0.914707 0
M  V30 7615 H 729.385 -1.13721 -3.63109 0
M  V30 7616 H 728.897 -2.73635 -2.75219 0
M  V30 7617 H 726.998 -0.459032 -3.69762 0
M  V30 7618 H 727.111 -2.2696 -4.21931 0
M  V30 7619 H 725.475 -1.12048 -2.2873 0
M  V30 7620 H 726.258 -2.77136 -2.0261 0
M  V30 7621 N 728.703 1.26451 -0.940633 0
M  V30 7622 C 729.951 1.93395 -0.586748 0
M  V30 7623 C 730.272 1.7417 0.876921 0
M  V30 7624 O 729.542 1.097 1.62304 0
M  V30 7625 H 728.122 0.715687 -0.214012 0
M  V30 7626 H 730.784 1.53902 -1.19584 0
M  V30 7627 H 729.88 3.01565 -0.804059 0
M  V30 7628 N 730.181 0.707592 1.40822 0
M  V30 7629 C 731.113 0.0105968 2.29198 0
M  V30 7630 C 732.126 -0.732035 1.45414 0
M  V30 7631 O 733.315 -0.580741 1.68789 0
M  V30 7632 C 730.415 -1.00921 3.23525 0
M  V30 7633 C 729.588 -0.333747 4.36125 0
M  V30 7634 C 728.647 -1.25783 5.10945 0
M  V30 7635 O 727.673 -0.745646 5.64295 0
M  V30 7636 N 728.875 -2.58947 5.19545 0
M  V30 7637 H 731.64 0.76938 2.89656 0
M  V30 7638 H 729.201 0.554579 1.52105 0
M  V30 7639 H 731.193 -1.6294 3.70449 0
M  V30 7640 H 729.763 -1.66942 2.6429 0
M  V30 7641 H 728.983 0.466518 3.9143 0
M  V30 7642 H 730.271 0.135444 5.0862 0
M  V30 7643 H 729.669 -3.03065 4.7767 0
M  V30 7644 H 728.226 -3.16131 5.70004 0
M  V30 7645 N 731.66 -1.50943 0.453197 0
M  V30 7646 C 732.888 -2.06628 -0.106135 0
M  V30 7647 C 733.303 -1.31901 -1.35084 0
M  V30 7648 O 732.66 -0.383074 -1.78434 0
M  V30 7649 C 732.711 -3.5914 -0.412368 0
M  V30 7650 O 732.432 -4.31047 0.782948 0
M  V30 7651 C 733.933 -4.31391 -1.02064 0
M  V30 7652 H 731.153 -0.670999 -0.000885896 0
M  V30 7653 H 733.697 -1.94331 0.63684 0
M  V30 7654 H 731.852 -3.71299 -1.10526 0
M  V30 7655 H 732.266 -5.21948 0.516736 0
M  V30 7656 H 733.74 -5.39135 -1.1848 0
M  V30 7657 H 734.217 -3.90714 -2.00598 0
M  V30 7658 H 734.823 -4.23716 -0.366664 0
M  V30 7659 N 733.138 -0.185124 -1.56509 0
M  V30 7660 C 734.384 0.456934 -1.97585 0
M  V30 7661 C 734.717 1.61957 -1.07161 0
M  V30 7662 O 733.992 1.9412 -0.121546 0
M  V30 7663 C 734.275 0.926666 -3.47973 0
M  V30 7664 C 734.128 -0.237097 -4.49175 0
M  V30 7665 C 735.447 1.79561 -4.01803 0
M  V30 7666 H 732.566 0.164619 -0.71838 0
M  V30 7667 H 735.208 -0.274039 -1.88013 0
M  V30 7668 H 733.358 1.54954 -3.56261 0
M  V30 7669 H 735.03 -0.87454 -4.52934 0
M  V30 7670 H 733.273 -0.890446 -4.24563 0
M  V30 7671 H 733.944 0.133924 -5.51838 0
M  V30 7672 H 736.42 1.27039 -3.96232 0
M  V30 7673 H 735.296 2.09327 -5.07418 0
M  V30 7674 H 735.557 2.74629 -3.46455 0
M  V30 7675 N 734.616 1.57351 0.0885366 0
M  V30 7676 C 735.863 1.86419 0.790824 0
M  V30 7677 C 736.191 0.774561 1.78412 0
M  V30 7678 O 735.446 -0.23119 1.9433 0
M  V30 7679 C 735.745 3.22098 1.5488 0
M  V30 7680 C 735.411 4.4548 0.697025 0
M  V30 7681 C 734.073 4.78975 0.462237 0
M  V30 7682 C 736.425 5.21094 0.105315 0
M  V30 7683 C 733.753 5.85507 -0.374016 0
M  V30 7684 C 736.105 6.28509 -0.718298 0
M  V30 7685 C 734.769 6.60515 -0.963116 0
M  V30 7686 H 734.039 0.682157 0.289383 0
M  V30 7687 H 736.686 1.91429 0.0520961 0
M  V30 7688 H 734.991 3.12803 2.35927 0
M  V30 7689 H 736.688 3.41819 2.09669 0
M  V30 7690 H 733.278 4.19255 0.890137 0
M  V30 7691 H 737.462 4.95544 0.273856 0
M  V30 7692 H 732.718 6.08713 -0.572606 0
M  V30 7693 H 736.892 6.86268 -1.18362 0
M  V30 7694 H 734.519 7.42893 -1.6129 0
M  V30 7695 N 736.094 -0.359525 1.53444 0
M  V30 7696 C 737.505 -0.936009 1.61542 0
M  V30 7697 C 737.856 -1.90069 0.486633 0
M  V30 7698 O 736.981 -2.12929 -0.386047 0
M  V30 7699 C 737.576 -1.70441 2.92806 0
M  V30 7700 C 736.135 -2.23015 3.03218 0
M  V30 7701 C 735.282 -1.04438 2.56881 0
M  V30 7702 H 738.233 -0.138134 1.58098 0
M  V30 7703 H 738.254 -2.56609 2.80948 0
M  V30 7704 H 737.766 -1.00205 3.74941 0
M  V30 7705 H 735.867 -2.96475 2.25684 0
M  V30 7706 H 735.98 -2.50481 4.08407 0
M  V30 7707 H 734.344 -1.41314 2.11902 0
M  V30 7708 H 735.127 -0.356905 3.4144 0
M  V30 7709 N 737.572 -1.44907 -0.619662 0
M  V30 7710 C 738.849 -1.38766 -1.37852 0
M  V30 7711 C 739.229 -0.0521393 -2.11036 0
M  V30 7712 O 738.577 0.965613 -2.07095 0
M  V30 7713 C 738.787 -2.59344 -2.33541 0
M  V30 7714 C 740.135 -3.03909 -2.96521 0
M  V30 7715 O 741.159 -2.59631 -2.43865 0
M  V30 7716 O 740.018 -3.80713 -3.92071 0
M  V30 7717 H 737.112 -0.550083 -0.617525 0
M  V30 7718 H 739.658 -1.57015 -0.643759 0
M  V30 7719 H 738.43 -3.48142 -1.78642 0
M  V30 7720 H 738.053 -2.43367 -3.14417 0
M  V30 7721 N 739.05 0.861098 -1.31996 0
M  V30 7722 C 740.28 1.64501 -1.24992 0
M  V30 7723 C 740.688 1.88288 0.185576 0
M  V30 7724 O 740.031 1.44756 1.131 0
M  V30 7725 C 740.093 3.03098 -1.93319 0
M  V30 7726 C 739.757 3.02381 -3.42658 0
M  V30 7727 C 740.754 2.79696 -4.38254 0
M  V30 7728 C 738.439 3.23221 -3.84491 0
M  V30 7729 C 740.433 2.77843 -5.73657 0
M  V30 7730 C 738.12 3.20996 -5.20005 0
M  V30 7731 C 739.118 2.98335 -6.14398 0
M  V30 7732 O 738.806 2.95971 -7.47433 0
M  V30 7733 H 738.538 0.519309 -0.432775 0
M  V30 7734 H 741.092 1.08241 -1.74565 0
M  V30 7735 H 739.322 3.61121 -1.38306 0
M  V30 7736 H 741.011 3.63751 -1.8011 0
M  V30 7737 H 741.777 2.63368 -4.07262 0
M  V30 7738 H 737.656 3.39887 -3.11445 0
M  V30 7739 H 741.2 2.60074 -6.47308 0
M  V30 7740 H 737.097 3.36865 -5.50629 0
M  V30 7741 H 737.865 3.1197 -7.56714 0
M  V30 7742 N 740.528 1.15101 1.07655 0
M  V30 7743 C 741.756 0.947731 1.83918 0
M  V30 7744 C 742.171 -0.503927 1.81951 0
M  V30 7745 O 741.528 -1.34941 1.2287 0
M  V30 7746 C 741.579 1.4503 3.31132 0
M  V30 7747 O 741.3 2.84508 3.33146 0
M  V30 7748 C 742.801 1.28806 4.24174 0
M  V30 7749 H 740.021 0.336786 0.580358 0
M  V30 7750 H 742.565 1.52799 1.35914 0
M  V30 7751 H 740.72 0.912632 3.76497 0
M  V30 7752 H 741.134 3.0723 4.251 0
M  V30 7753 H 742.608 1.6882 5.25551 0
M  V30 7754 H 743.085 0.231851 4.38588 0
M  V30 7755 H 743.691 1.81465 3.84643 0
M  V30 7756 N 742.006 -1.2595 0.947325 0
M  V30 7757 C 742.954 -2.28152 0.452687 0
M  V30 7758 C 743.948 -1.62655 -0.473239 0
M  V30 7759 O 745.154 -1.76549 -0.350774 0
M  V30 7760 H 741.529 -0.741049 0.12787 0
M  V30 7761 H 743.5 -2.67267 1.32707 0
M  V30 7762 C 742.249 -3.46719 -0.26098 0
M  V30 7763 H 741.572 -3.97345 0.442352 0
M  V30 7764 H 743.012 -4.20135 -0.571208 0
M  V30 7765 C 741.471 -3.02605 -1.48094 0
M  V30 7766 O 742.001 -3.07979 -2.57899 0
M  V30 7767 N 740.207 -2.57877 -1.33969 0
M  V30 7768 H 739.754 -2.53704 -0.446295 0
M  V30 7769 H 739.712 -2.28725 -2.15713 0
M  V30 7770 N 743.484 -0.715051 -1.40445 0
M  V30 7771 C 744.895 -0.326763 -1.83818 0
M  V30 7772 C 745.246 1.13851 -1.59789 0
M  V30 7773 O 744.371 1.87611 -1.07848 0
M  V30 7774 C 744.966 -0.586297 -3.33688 0
M  V30 7775 C 743.525 -0.251724 -3.75557 0
M  V30 7776 C 742.672 -0.858928 -2.63662 0
M  V30 7777 H 745.623 -0.914241 -1.2972 0
M  V30 7778 H 745.644 0.148636 -3.8021 0
M  V30 7779 H 745.156 -1.65281 -3.51146 0
M  V30 7780 H 743.257 0.809754 -3.63695 0
M  V30 7781 H 743.37 -0.720348 -4.73654 0
M  V30 7782 H 741.734 -0.287013 -2.53078 0
M  V30 7783 H 742.517 -1.9297 -2.83932 0
M  V30 7784 N 744.962 1.50701 -0.461195 0
M  V30 7785 C 745.91 2.29918 0.352231 0
M  V30 7786 C 746.904 1.36778 0.999403 0
M  V30 7787 O 748.11 1.54015 0.931639 0
M  V30 7788 H 744.485 0.740249 0.132423 0
M  V30 7789 H 746.456 2.96497 -0.336424 0
M  V30 7790 C 745.205 3.17052 1.42736 0
M  V30 7791 H 744.528 3.88623 0.938747 0
M  V30 7792 H 745.968 3.75493 1.96928 0
M  V30 7793 C 744.427 2.3399 2.42384 0
M  V30 7794 O 744.957 2.01608 3.47444 0
M  V30 7795 N 743.163 1.96758 2.13857 0
M  V30 7796 H 742.71 2.23292 1.28447 0
M  V30 7797 H 742.668 1.41484 2.80766 0
M  V30 7798 N 746.441 0.193421 1.56409 0
M  V30 7799 C 747.681 -0.447977 1.9943 0
M  V30 7800 C 748.045 -1.58915 1.07751 0
M  V30 7801 O 749.246 -2.29462 1.40002 0
M  V30 7802 C 747.517 -0.89793 3.45936 0
M  V30 7803 S 749.076 -1.5374 4.10986 0
M  V30 7804 H 745.894 -0.143316 0.696406 0
M  V30 7805 H 748.496 0.296093 1.93245 0
M  V30 7806 H 747.2 -0.0572927 4.1036 0
M  V30 7807 H 746.731 -1.67551 3.55936 0
M  V30 7808 H 748.746 -2.82612 4.07854 0
M  V30 7809 N 747.919 -1.57396 -0.0801906 0
M  V30 7810 C 748.882 -2.02133 -1.0805 0
M  V30 7811 C 749.882 -0.91707 -1.32085 0
M  V30 7812 O 751.072 -1.18217 -1.27947 0
M  V30 7813 C 748.204 -2.39479 -2.42616 0
M  V30 7814 H 749.397 -2.91733 -0.6951 0
M  V30 7815 H 746.95 -1.52869 -0.325677 0
M  V30 7816 H 747.685 -1.52879 -2.86004 0
M  V30 7817 H 747.47 -3.20052 -2.26515 0
M  V30 7818 H 748.96 -2.74697 -3.14534 0
M  V30 7819 N 749.397 0.351382 -1.53633 0
M  V30 7820 C 750.643 1.09411 -1.70754 0
M  V30 7821 C 750.976 1.88544 -0.465293 0
M  V30 7822 O 750.251 1.86923 0.537608 0
M  V30 7823 C 750.534 2.04173 -2.96623 0
M  V30 7824 C 750.387 1.28556 -4.31038 0
M  V30 7825 C 751.706 3.04102 -3.18136 0
M  V30 7826 H 748.825 0.396373 -0.621335 0
M  V30 7827 H 751.467 0.373464 -1.86293 0
M  V30 7828 H 749.617 2.65625 -2.83506 0
M  V30 7829 H 751.289 0.697786 -4.55992 0
M  V30 7830 H 749.532 0.587498 -4.29803 0
M  V30 7831 H 750.203 1.97989 -5.15271 0
M  V30 7832 H 752.679 2.5276 -3.30532 0
M  V30 7833 H 751.555 3.67616 -4.07615 0
M  V30 7834 H 751.816 3.75053 -2.34068 0
M  V30 7835 N 750.875 1.45233 0.611969 0
M  V30 7836 C 752.121 1.50233 1.37119 0
M  V30 7837 C 752.476 0.140336 1.91888 0
M  V30 7838 O 751.769 -0.847161 1.71854 0
M  V30 7839 C 751.963 2.51353 2.54079 0
M  V30 7840 C 751.792 3.97251 2.10764 0
M  V30 7841 C 750.562 4.65256 1.97141 0
M  V30 7842 C 752.76 4.85914 1.68499 0
M  V30 7843 N 750.742 5.95895 1.4759 0
M  V30 7844 C 752.113 6.06147 1.30331 0
M  V30 7845 C 754.168 4.72813 1.56051 0
M  V30 7846 C 752.871 7.14729 0.809591 0
M  V30 7847 C 754.897 5.8144 1.08083 0
M  V30 7848 C 754.259 7.00825 0.708775 0
M  V30 7849 H 750.358 0.604708 0.495835 0
M  V30 7850 H 752.942 1.81679 0.700055 0
M  V30 7851 H 751.113 2.21866 3.18795 0
M  V30 7852 H 752.845 2.46528 3.20945 0
M  V30 7853 H 749.6 4.20345 2.18191 0
M  V30 7854 H 750.024 6.65349 1.25059 0
M  V30 7855 H 754.666 3.80931 1.83443 0
M  V30 7856 H 752.384 8.06404 0.523215 0
M  V30 7857 H 755.97 5.73335 0.988842 0
M  V30 7858 H 754.85 7.83448 0.343305 0
M  V30 7859 N 752.353 -0.854086 1.3245 0
M  V30 7860 C 753.599 -1.6105 1.24235 0
M  V30 7861 C 753.954 -1.91421 -0.193877 0
M  V30 7862 O 753.247 -1.54599 -1.1318 0
M  V30 7863 C 753.441 -2.93746 2.03587 0
M  V30 7864 C 753.27 -2.76335 3.54781 0
M  V30 7865 C 752.04 -2.74687 4.24117 0
M  V30 7866 C 754.238 -2.50052 4.4942 0
M  V30 7867 N 752.22 -2.48493 5.6136 0
M  V30 7868 C 753.591 -2.33269 5.74444 0
M  V30 7869 C 755.646 -2.35525 4.38671 0
M  V30 7870 C 754.349 -2.03434 6.89933 0
M  V30 7871 C 756.375 -2.07081 5.5396 0
M  V30 7872 C 755.737 -1.91098 6.77983 0
M  V30 7873 H 751.836 -0.593008 0.50977 0
M  V30 7874 H 754.42 -1.00392 1.66822 0
M  V30 7875 H 752.591 -3.52382 1.63345 0
M  V30 7876 H 754.323 -3.58768 1.87263 0
M  V30 7877 H 751.078 -2.87647 3.7624 0
M  V30 7878 H 751.502 -2.38322 6.33665 0
M  V30 7879 H 756.144 -2.46602 3.43435 0
M  V30 7880 H 753.862 -1.91095 7.85181 0
M  V30 7881 H 757.448 -1.96618 5.4757 0
M  V30 7882 H 756.328 -1.69402 7.65684 0
M  V30 7883 N 753.831 -1.1567 -1.07043 0
M  V30 7884 C 755.059 -0.957471 -1.83412 0
M  V30 7885 C 755.474 0.494271 -1.82215 0
M  V30 7886 O 754.831 1.34288 -1.23584 0
M  V30 7887 C 754.882 -1.46784 -3.30359 0
M  V30 7888 O 754.603 -2.86271 -3.31633 0
M  V30 7889 C 756.104 -1.31054 -4.23485 0
M  V30 7890 H 753.324 -0.33986 -0.578564 0
M  V30 7891 H 755.868 -1.53518 -1.35102 0
M  V30 7892 H 754.023 -0.932586 -3.76007 0
M  V30 7893 H 754.437 -3.0948 -4.23465 0
M  V30 7894 H 755.911 -1.71605 -5.24648 0
M  V30 7895 H 756.388 -0.255107 -4.38458 0
M  V30 7896 H 756.994 -1.83503 -3.83676 0
M  V30 7897 N 755.309 1.25446 -0.953992 0
M  V30 7898 C 756.256 2.25912 -0.472485 0
M  V30 7899 C 757.226 1.59173 0.47469 0
M  V30 7900 O 758.411 1.86812 0.388082 0
M  V30 7901 C 755.551 3.44235 0.244218 0
M  V30 7902 C 754.664 4.25613 -0.740121 0
M  V30 7903 C 753.799 5.312 -0.000922267 0
M  V30 7904 C 752.838 6.04265 -0.976236 0
M  V30 7905 N 751.975 7.01589 -0.267952 0
M  V30 7906 H 756.815 2.66469 -1.3341 0
M  V30 7907 H 754.352 1.31005 -0.669045 0
M  V30 7908 H 756.31 4.11682 0.676314 0
M  V30 7909 H 754.94 3.04554 1.06988 0
M  V30 7910 H 753.992 3.57834 -1.2907 0
M  V30 7911 H 755.304 4.762 -1.48441 0
M  V30 7912 H 754.458 6.04719 0.48984 0
M  V30 7913 H 753.197 4.81484 0.776159 0
M  V30 7914 H 752.202 5.29561 -1.478 0
M  V30 7915 H 753.427 6.5607 -1.75354 0
M  V30 7916 H 751.373 6.54164 0.490403 0
M  V30 7917 H 751.29 7.4999 -0.951344 0
M  V30 7918 H 752.558 7.7924 0.201294 0
M  V30 7919 N 756.787 0.722489 1.40064 0
M  V30 7920 C 757.697 0.0755984 2.34478 0
M  V30 7921 C 758.713 -0.736046 1.57665 0
M  V30 7922 O 759.889 -0.667407 1.9002 0
M  V30 7923 C 756.954 -0.830075 3.36616 0
M  V30 7924 C 756.015 -0.00759884 4.29299 0
M  V30 7925 C 755.248 -0.870139 5.26559 0
M  V30 7926 O 755.471 -2.10921 5.2997 0
M  V30 7927 O 754.405 -0.305454 6.01124 0
M  V30 7928 H 758.231 0.854545 2.9143 0
M  V30 7929 H 755.816 0.483032 1.41376 0
M  V30 7930 H 757.698 -1.34864 3.99236 0
M  V30 7931 H 756.373 -1.58805 2.82069 0
M  V30 7932 H 755.28 0.556199 3.69942 0
M  V30 7933 H 756.613 0.712312 4.87018 0
M  V30 7934 N 758.265 -1.50454 0.469181 0
M  V30 7935 C 759.512 -2.02315 -0.086469 0
M  V30 7936 C 759.84 -1.3513 -1.39893 0
M  V30 7937 O 759.095 -0.465341 -1.90087 0
M  V30 7938 C 759.394 -3.55963 -0.320207 0
M  V30 7939 C 759.06 -4.41615 0.910318 0
M  V30 7940 C 757.722 -4.64743 1.2477 0
M  V30 7941 C 760.074 -4.91661 1.72971 0
M  V30 7942 C 757.402 -5.35161 2.40457 0
M  V30 7943 C 759.754 -5.6335 2.87785 0
M  V30 7944 C 758.418 -5.84732 3.2194 0
M  V30 7945 H 757.688 -0.740324 -0.0316412 0
M  V30 7946 H 760.335 -1.81087 0.622872 0
M  V30 7947 H 758.64 -3.75695 -1.11177 0
M  V30 7948 H 760.337 -3.93653 -0.764071 0
M  V30 7949 H 756.927 -4.23833 0.637467 0
M  V30 7950 H 761.111 -4.73649 1.48224 0
M  V30 7951 H 756.367 -5.49924 2.67196 0
M  V30 7952 H 760.541 -6.0111 3.51624 0
M  V30 7953 H 758.168 -6.39074 4.1169 0
M  V30 7954 N 759.743 -0.201713 -1.56304 0
M  V30 7955 C 760.653 0.728296 -2.23009 0
M  V30 7956 C 761.669 1.22945 -1.23128 0
M  V30 7957 O 762.845 1.27523 -1.55884 0
M  V30 7958 C 759.91 1.92792 -2.88153 0
M  V30 7959 C 758.971 1.47068 -4.03323 0
M  V30 7960 C 758.204 2.61312 -4.65351 0
M  V30 7961 O 758.427 3.7896 -4.26317 0
M  V30 7962 O 757.361 2.33646 -5.54701 0
M  V30 7963 H 761.187 0.190166 -3.03104 0
M  V30 7964 H 758.772 0.0278725 -1.49374 0
M  V30 7965 H 760.654 2.6289 -3.29343 0
M  V30 7966 H 759.329 2.45452 -2.11033 0
M  V30 7967 H 758.236 0.738299 -3.66742 0
M  V30 7968 H 759.569 0.990666 -4.82127 0
M  V30 7969 N 761.222 1.57436 0.0718424 0
M  V30 7970 C 762.152 2.06724 1.08571 0
M  V30 7971 C 763.133 0.960731 1.40371 0
M  V30 7972 O 764.318 1.23345 1.49999 0
M  V30 7973 C 761.448 2.51112 2.39916 0
M  V30 7974 C 760.402 3.65639 2.22469 0
M  V30 7975 C 759.728 3.96082 3.59198 0
M  V30 7976 C 761.028 4.95687 1.64596 0
M  V30 7977 H 762.722 2.91679 0.675569 0
M  V30 7978 H 760.268 1.40319 0.32352 0
M  V30 7979 H 762.221 2.84206 3.11135 0
M  V30 7980 H 760.945 1.63186 2.8291 0
M  V30 7981 H 759.604 3.32828 1.53691 0
M  V30 7982 H 759.252 3.05287 3.99761 0
M  V30 7983 H 758.952 4.73199 3.48362 0
M  V30 7984 H 760.476 4.31672 4.31847 0
M  V30 7985 H 761.89 5.27011 2.25681 0
M  V30 7986 H 760.287 5.77126 1.64457 0
M  V30 7987 H 761.357 4.8108 0.60744 0
M  V30 7988 N 762.7 -0.34323 1.53817 0
M  V30 7989 C 763.947 -1.08344 1.71079 0
M  V30 7990 C 764.275 -1.88633 0.474133 0
M  V30 7991 O 763.53 -1.87984 -0.544116 0
M  V30 7992 C 763.829 -2.05195 2.92626 0
M  V30 7993 C 763.495 -1.41215 4.28216 0
M  V30 7994 C 762.157 -1.23495 4.65083 0
M  V30 7995 C 764.509 -0.951273 5.12445 0
M  V30 7996 C 761.837 -0.583065 5.83796 0
M  V30 7997 C 764.189 -0.313292 6.31824 0
M  V30 7998 C 762.853 -0.123779 6.67385 0
M  V30 7999 H 762.123 -0.396458 0.626021 0
M  V30 8000 H 764.77 -0.362689 1.88034 0
M  V30 8001 H 763.075 -2.83653 2.70275 0
M  V30 8002 H 764.772 -2.62462 3.03175 0
M  V30 8003 H 761.362 -1.56005 3.992 0
M  V30 8004 H 765.546 -1.07602 4.84495 0
M  V30 8005 H 760.802 -0.424854 6.09922 0
M  V30 8006 H 764.976 0.0519179 6.96381 0
M  V30 8007 H 762.603 0.383398 7.59233 0
M  V30 8008 N 764.178 -1.45556 -0.604258 0
M  V30 8009 C 765.128 -1.50906 -1.70913 0
M  V30 8010 C 766.112 -0.371996 -1.56541 0
M  V30 8011 O 767.304 -0.619064 -1.65821 0
M  V30 8012 C 764.433 -1.48181 -3.09673 0
M  V30 8013 C 763.519 -2.67102 -3.2942 0
M  V30 8014 N 763.91 -3.92184 -3.19414 0
M  V30 8015 C 762.208 -2.6287 -3.60299 0
M  V30 8016 C 762.909 -4.71571 -3.40581 0
M  V30 8017 N 761.885 -4.03081 -3.64728 0
M  V30 8018 H 765.687 -2.45435 -1.61675 0
M  V30 8019 H 763.201 -1.40894 -0.807622 0
M  V30 8020 H 765.198 -1.501 -3.88942 0
M  V30 8021 H 763.858 -0.54712 -3.20057 0
M  V30 8022 H 764.869 -4.23756 -2.97743 0
M  V30 8023 H 761.546 -1.78324 -3.77501 0
M  V30 8024 H 762.936 -5.80571 -3.38211 0
M  V30 8025 N 765.656 0.84705 -1.32902 0
M  V30 8026 C 766.604 1.97765 -1.22441 0
M  V30 8027 C 767.598 1.68919 -0.127546 0
M  V30 8028 O 768.804 1.77633 -0.290973 0
M  V30 8029 H 765.179 0.649072 -0.379748 0
M  V30 8030 H 767.15 2.03713 -2.18044 0
M  V30 8031 C 765.899 3.33834 -0.972125 0
M  V30 8032 H 765.222 3.56564 -1.80837 0
M  V30 8033 H 766.662 4.13467 -0.939209 0
M  V30 8034 C 765.121 3.35328 0.325059 0
M  V30 8035 O 765.651 3.78887 1.33445 0
M  V30 8036 N 763.857 2.88488 0.349718 0
M  V30 8037 H 763.404 2.53234 -0.472236 0
M  V30 8038 H 763.362 2.8987 1.21748 0
M  V30 8039 N 767.134 1.16236 1.06428 0
M  V30 8040 C 768.066 0.825446 2.1382 0
M  V30 8041 C 769.079 -0.166707 1.61944 0
M  V30 8042 O 770.268 0.0578606 1.78406 0
M  V30 8043 C 767.368 0.208023 3.38261 0
M  V30 8044 C 766.541 1.23994 4.19457 0
M  V30 8045 C 765.6 0.642569 5.22262 0
M  V30 8046 O 764.626 1.31106 5.53895 0
M  V30 8047 N 765.828 -0.571327 5.77682 0
M  V30 8048 H 768.593 1.7497 2.43322 0
M  V30 8049 H 766.154 1.05951 1.22417 0
M  V30 8050 H 768.146 -0.204608 4.04182 0
M  V30 8051 H 766.716 -0.619752 3.06395 0
M  V30 8052 H 765.936 1.82879 3.49212 0
M  V30 8053 H 767.224 1.93638 4.70512 0
M  V30 8054 H 766.622 -1.13263 5.54245 0
M  V30 8055 H 765.179 -0.926187 6.45186 0
M  V30 8056 N 768.612 -1.24939 0.960631 0
M  V30 8057 C 769.858 -1.93104 0.61958 0
M  V30 8058 C 770.191 -1.74991 -0.84212 0
M  V30 8059 O 769.466 -1.09867 -1.60498 0
M  V30 8060 C 769.749 -3.46326 0.986422 0
M  V30 8061 C 769.602 -3.73638 2.50429 0
M  V30 8062 C 770.921 -4.37067 0.515827 0
M  V30 8063 H 768.04 -0.701311 0.226566 0
M  V30 8064 H 770.682 -1.47442 1.19836 0
M  V30 8065 H 768.832 -3.85348 0.493907 0
M  V30 8066 H 770.504 -3.44217 3.07103 0
M  V30 8067 H 768.747 -3.19035 2.93937 0
M  V30 8068 H 769.418 -4.80815 2.71147 0
M  V30 8069 H 771.894 -4.05381 0.938389 0
M  V30 8070 H 770.77 -5.43022 0.80114 0
M  V30 8071 H 771.031 -4.38224 -0.584171 0
M  V30 8072 N 770.09 -0.729906 -1.39679 0
M  V30 8073 C 771 -0.0880322 -2.34435 0
M  V30 8074 C 772.016 0.727674 -1.58053 0
M  V30 8075 O 773.192 0.657321 -1.90371 0
M  V30 8076 C 770.257 0.812211 -3.37052 0
M  V30 8077 C 769.318 -0.0151681 -4.29297 0
M  V30 8078 C 768.551 0.842202 -5.27013 0
M  V30 8079 O 768.774 2.08108 -5.31081 0
M  V30 8080 O 767.708 0.27357 -6.01278 0
M  V30 8081 H 771.534 -0.869989 -2.90972 0
M  V30 8082 H 769.119 -0.490522 -1.41118 0
M  V30 8083 H 771.001 1.32745 -3.99946 0
M  V30 8084 H 769.676 1.57307 -2.82907 0
M  V30 8085 H 768.583 -0.575811 -3.69642 0
M  V30 8086 H 769.916 -0.738129 -4.86634 0
M  V30 8087 N 771.568 1.50203 -0.477153 0
M  V30 8088 C 772.815 2.02358 0.0757385 0
M  V30 8089 C 773.143 1.3587 1.39174 0
M  V30 8090 O 772.398 0.475415 1.89838 0
M  V30 8091 C 772.697 3.56127 0.301325 0
M  V30 8092 C 772.363 4.41126 -0.933725 0
M  V30 8093 C 771.025 4.64075 -1.27233 0
M  V30 8094 C 773.377 4.90737 -1.75576 0
M  V30 8095 C 770.705 5.33878 -2.43292 0
M  V30 8096 C 773.057 5.61816 -2.90768 0
M  V30 8097 C 771.721 5.83016 -3.25036 0
M  V30 8098 H 770.991 0.740482 0.0277147 0
M  V30 8099 H 773.638 1.80754 -0.632467 0
M  V30 8100 H 771.943 3.76279 1.09183 0
M  V30 8101 H 773.64 3.94053 0.743184 0
M  V30 8102 H 770.23 4.23489 -0.659935 0
M  V30 8103 H 774.414 4.72856 -1.50734 0
M  V30 8104 H 769.67 5.48499 -2.70109 0
M  V30 8105 H 773.844 5.99237 -3.54807 0
M  V30 8106 H 771.471 6.36881 -4.15074 0
M  V30 8107 N 773.046 0.209999 1.56195 0
M  V30 8108 C 774.323 -0.473214 1.89789 0
M  V30 8109 C 774.703 -1.78581 1.1257 0
M  V30 8110 O 774.051 -2.27325 0.231398 0
M  V30 8111 C 774.261 -0.677458 3.42362 0
M  V30 8112 C 775.609 -0.990114 4.12895 0
M  V30 8113 O 776.633 -0.764655 3.47896 0
M  V30 8114 O 775.492 -1.41737 5.278 0
M  V30 8115 H 772.586 -0.248622 0.788743 0
M  V30 8116 H 775.132 0.251324 1.67829 0
M  V30 8117 H 773.904 0.248878 3.90508 0
M  V30 8118 H 773.527 -1.45391 3.70064 0
M  V30 8119 N 774.524 -1.57472 -0.0634922 0
M  V30 8120 C 775.772 -1.87283 -0.759563 0
M  V30 8121 C 776.093 -0.803135 -1.77693 0
M  V30 8122 O 775.363 0.167293 -1.95184 0
M  V30 8123 H 773.943 -0.691106 -0.283516 0
M  V30 8124 H 776.605 -1.94864 -0.0376091 0
M  V30 8125 H 775.701 -2.85064 -1.27062 0
M  V30 8126 N 776.003 0.335068 -1.53997 0
M  V30 8127 C 777.252 1.07182 -1.70865 0
M  V30 8128 C 777.565 1.89541 -0.483078 0
M  V30 8129 O 778.771 2.66219 -0.532879 0
M  V30 8130 C 777.227 1.95497 -3.02174 0
M  V30 8131 C 776.835 1.18304 -4.32097 0
M  V30 8132 C 778.579 2.68978 -3.28407 0
M  V30 8133 C 776.486 2.05699 -5.54474 0
M  V30 8134 H 775.416 0.403857 -0.636722 0
M  V30 8135 H 778.067 0.33076 -1.80494 0
M  V30 8136 H 776.449 2.73456 -2.86423 0
M  V30 8137 H 777.623 0.451969 -4.58578 0
M  V30 8138 H 775.938 0.565556 -4.12541 0
M  V30 8139 H 778.535 3.34651 -4.17029 0
M  V30 8140 H 778.878 3.36 -2.45784 0
M  V30 8141 H 779.411 1.98087 -3.44973 0
M  V30 8142 H 776.15 1.43204 -6.39666 0
M  V30 8143 H 775.67 2.76572 -5.32229 0
M  V30 8144 H 777.349 2.64554 -5.90441 0
M  V30 8145 N 777.481 1.45874 0.596531 0
M  V30 8146 C 778.727 1.51679 1.35518 0
M  V30 8147 C 779.082 0.160681 1.91728 0
M  V30 8148 O 778.375 -0.828886 1.72743 0
M  V30 8149 C 778.569 2.54034 2.51399 0
M  V30 8150 C 778.398 3.99465 2.06538 0
M  V30 8151 C 777.168 4.67321 1.92196 0
M  V30 8152 C 779.366 4.87674 1.63336 0
M  V30 8153 N 777.348 5.97427 1.41261 0
M  V30 8154 C 778.719 6.07495 1.23895 0
M  V30 8155 C 780.774 4.74442 1.51028 0
M  V30 8156 C 779.477 7.15548 0.733739 0
M  V30 8157 C 781.503 5.82553 1.0191 0
M  V30 8158 C 780.865 7.01537 0.634403 0
M  V30 8159 H 776.964 0.609933 0.489393 0
M  V30 8160 H 779.548 1.82411 0.680746 0
M  V30 8161 H 777.719 2.25235 3.16424 0
M  V30 8162 H 779.451 2.49918 3.18313 0
M  V30 8163 H 776.206 4.22635 2.1372 0
M  V30 8164 H 776.63 6.66638 1.17995 0
M  V30 8165 H 781.272 3.82855 1.79393 0
M  V30 8166 H 778.99 8.06914 0.437656 0
M  V30 8167 H 782.576 5.74352 0.927977 0
M  V30 8168 H 781.456 7.83768 0.26019 0
M  V30 8169 N 778.959 -0.83999 1.33349 0
M  V30 8170 C 780.208 -1.59011 1.2409 0
M  V30 8171 C 780.521 -1.94655 -0.192029 0
M  V30 8172 O 781.727 -2.68438 -0.406617 0
M  V30 8173 C 780.183 -2.86801 2.17425 0
M  V30 8174 C 779.791 -2.58525 3.65881 0
M  V30 8175 C 781.535 -3.64823 2.17036 0
M  V30 8176 C 779.442 -3.82404 4.51133 0
M  V30 8177 H 778.372 -0.596731 0.460899 0
M  V30 8178 H 781.023 -0.926274 1.58406 0
M  V30 8179 H 779.405 -3.54719 1.7604 0
M  V30 8180 H 780.579 -1.98824 4.15699 0
M  V30 8181 H 778.894 -1.93808 3.68548 0
M  V30 8182 H 781.491 -4.56774 2.7796 0
M  V30 8183 H 781.834 -3.99663 1.16513 0
M  V30 8184 H 782.367 -3.03826 2.56777 0
M  V30 8185 H 779.106 -3.52696 5.52527 0
M  V30 8186 H 778.626 -4.41447 4.0606 0
M  V30 8187 H 780.305 -4.49995 4.6488 0
M  V30 8188 N 780.437 -1.16799 -1.0581 0
M  V30 8189 C 781.714 -0.862616 -1.75551 0
M  V30 8190 C 782.094 0.6385 -2.01212 0
M  V30 8191 O 781.442 1.58784 -1.64317 0
M  V30 8192 C 781.652 -1.6907 -3.05314 0
M  V30 8193 C 783 -1.90675 -3.79379 0
M  V30 8194 O 784.024 -1.65976 -3.15167 0
M  V30 8195 O 782.883 -2.32145 -4.94743 0
M  V30 8196 H 779.977 -0.318789 -0.763088 0
M  V30 8197 H 782.523 -1.27461 -1.12034 0
M  V30 8198 H 781.295 -2.70912 -2.82352 0
M  V30 8199 H 780.918 -1.27606 -3.76567 0
M  V30 8200 N 781.915 1.24427 -0.967243 0
M  V30 8201 C 782.848 2.23885 -0.441683 0
M  V30 8202 C 783.826 1.55231 0.483963 0
M  V30 8203 O 785.01 1.83865 0.415445 0
M  V30 8204 C 782.137 3.36755 0.362458 0
M  V30 8205 C 781.183 4.23495 -0.505407 0
M  V30 8206 S 782.016 4.98916 -1.94534 0
M  V30 8207 C 783.172 6.15245 -1.14997 0
M  V30 8208 H 783.405 2.68118 -1.28453 0
M  V30 8209 H 780.938 1.337 -0.772243 0
M  V30 8210 H 782.896 4.02218 0.820445 0
M  V30 8211 H 781.557 2.91081 1.18027 0
M  V30 8212 H 780.75 5.03876 0.111979 0
M  V30 8213 H 780.352 3.63032 -0.899104 0
M  V30 8214 H 782.644 6.7629 -0.404769 0
M  V30 8215 H 783.587 6.81343 -1.92814 0
M  V30 8216 H 783.995 5.60455 -0.674543 0
M  V30 8217 N 783.393 0.737304 1.3929 0
M  V30 8218 C 784.341 0.0879867 2.32434 0
M  V30 8219 C 785.335 -0.723324 1.53181 0
M  V30 8220 O 786.541 -0.624251 1.68829 0
M  V30 8221 H 782.916 0.00965277 0.751938 0
M  V30 8222 H 784.887 0.889915 2.84821 0
M  V30 8223 C 783.636 -0.803384 3.38291 0
M  V30 8224 H 782.959 -0.18849 3.99355 0
M  V30 8225 H 784.399 -1.22528 4.0591 0
M  V30 8226 C 782.858 -1.93872 2.75527 0
M  V30 8227 O 783.388 -3.03154 2.63553 0
M  V30 8228 N 781.594 -1.72883 2.3358 0
M  V30 8229 H 781.141 -0.840005 2.43519 0
M  V30 8230 H 781.099 -2.49021 1.91927 0
M  V30 8231 N 784.871 -1.49948 0.485112 0
M  V30 8232 C 785.781 -2.32587 -0.306697 0
M  V30 8233 C 786.797 -1.43598 -0.982632 0
M  V30 8234 O 787.973 -1.76638 -0.967519 0
M  V30 8235 C 785.038 -3.18638 -1.3664 0
M  V30 8236 C 784.099 -4.23462 -0.705589 0
M  V30 8237 C 783.332 -5.05401 -1.7148 0
M  V30 8238 O 783.555 -4.88618 -2.94293 0
M  V30 8239 O 782.489 -5.88157 -1.27889 0
M  V30 8240 H 786.315 -3.01447 0.369272 0
M  V30 8241 H 783.9 -1.47349 0.246709 0
M  V30 8242 H 785.782 -3.71992 -1.9799 0
M  V30 8243 H 784.457 -2.52491 -2.02559 0
M  V30 8244 H 783.364 -3.74063 -0.0527733 0
M  V30 8245 H 784.697 -4.92119 -0.0891187 0
M  V30 8246 N 786.349 -0.21828 -1.56081 0
M  V30 8247 C 787.595 0.414921 -1.9851 0
M  V30 8248 C 787.928 1.59648 -1.10573 0
M  V30 8249 O 787.203 1.93818 -0.162695 0
M  V30 8250 C 787.486 0.852647 -3.4986 0
M  V30 8251 C 787.339 -0.33232 -4.48571 0
M  V30 8252 C 788.658 1.70998 -4.05521 0
M  V30 8253 H 785.777 0.149344 -0.72171 0
M  V30 8254 H 788.419 -0.313858 -1.8739 0
M  V30 8255 H 786.569 1.47362 -3.59467 0
M  V30 8256 H 788.241 -0.970418 -4.50977 0
M  V30 8257 H 786.484 -0.980302 -4.22578 0
M  V30 8258 H 787.155 0.0168407 -5.51997 0
M  V30 8259 H 789.631 1.18606 -3.98838 0
M  V30 8260 H 788.507 1.98517 -5.11744 0
M  V30 8261 H 788.768 2.67219 -3.52202 0
M  V30 8262 N 787.827 1.57504 0.0551401 0
M  V30 8263 C 789.052 1.92682 0.767352 0
M  V30 8264 C 789.477 0.81614 1.69472 0
M  V30 8265 O 788.835 -0.229989 1.79835 0
M  V30 8266 C 788.883 3.26866 1.52286 0
M  V30 8267 O 787.987 3.17274 2.63459 0
M  V30 8268 H 787.328 0.630502 0.208238 0
M  V30 8269 H 789.858 2.04592 0.0184026 0
M  V30 8270 H 789.868 3.61138 1.8985 0
M  V30 8271 H 788.543 4.07276 0.842541 0
M  V30 8272 H 787.12 2.94589 2.2863 0
M  V30 8273 N 789.305 -0.326896 1.54172 0
M  V30 8274 C 790.253 -1.42232 1.84046 0
M  V30 8275 C 791.247 -1.53705 0.712115 0
M  V30 8276 O 792.453 -1.56131 0.895724 0
M  V30 8277 H 788.828 -0.474568 0.583343 0
M  V30 8278 H 790.799 -1.14259 2.75658 0
M  V30 8279 C 789.548 -2.78502 2.08163 0
M  V30 8280 H 788.871 -2.70447 2.94446 0
M  V30 8281 H 790.311 -3.54228 2.33021 0
M  V30 8282 C 788.77 -3.25415 0.872152 0
M  V30 8283 O 789.3 -4.01621 0.0797648 0
M  V30 8284 N 787.506 -2.82418 0.684716 0
M  V30 8285 H 787.053 -2.20566 1.33072 0
M  V30 8286 H 787.011 -3.14159 -0.123031 0
M  V30 8287 N 790.784 -1.46188 -0.588786 0
M  V30 8288 C 792.031 -1.51184 -1.34721 0
M  V30 8289 C 792.359 -0.161084 -1.93832 0
M  V30 8290 O 791.614 0.842557 -1.76634 0
M  V30 8291 C 791.913 -2.55364 -2.50048 0
M  V30 8292 C 791.579 -3.99553 -2.08969 0
M  V30 8293 C 790.241 -4.38811 -1.9748 0
M  V30 8294 C 792.593 -4.90156 -1.77191 0
M  V30 8295 C 789.921 -5.66544 -1.52463 0
M  V30 8296 C 792.273 -6.1832 -1.33654 0
M  V30 8297 C 790.937 -6.5649 -1.20738 0
M  V30 8298 H 790.207 -0.55322 -0.49298 0
M  V30 8299 H 792.854 -1.79634 -0.663627 0
M  V30 8300 H 791.159 -2.20552 -3.23827 0
M  V30 8301 H 792.856 -2.5646 -3.08268 0
M  V30 8302 H 789.446 -3.68518 -2.18843 0
M  V30 8303 H 793.63 -4.60549 -1.84955 0
M  V30 8304 H 788.886 -5.94895 -1.411 0
M  V30 8305 H 793.06 -6.87956 -1.08117 0
M  V30 8306 H 790.687 -7.55362 -0.856307 0
M  V30 8307 N 792.262 0.832906 -1.33792 0
M  V30 8308 C 793.508 1.59089 -1.25772 0
M  V30 8309 C 793.841 1.93414 0.174601 0
M  V30 8310 O 793.116 1.59195 1.11746 0
M  V30 8311 C 793.399 2.89699 -2.13885 0
M  V30 8312 C 793.252 2.62017 -3.65605 0
M  V30 8313 C 794.571 3.91182 -2.01654 0
M  V30 8314 H 791.69 0.577232 -0.458227 0
M  V30 8315 H 794.332 0.960227 -1.6395 0
M  V30 8316 H 792.482 3.4352 -1.81456 0
M  V30 8317 H 794.154 2.14582 -4.08353 0
M  V30 8318 H 792.397 1.95621 -3.87189 0
M  V30 8319 H 793.068 3.55112 -4.2261 0
M  V30 8320 H 795.544 3.46684 -2.30107 0
M  V30 8321 H 794.42 4.80391 -2.65548 0
M  V30 8322 H 794.681 4.30861 -0.990536 0
M  V30 8323 N 793.74 1.17359 1.05189 0
M  V30 8324 C 795.017 0.871914 1.75091 0
M  V30 8325 C 795.397 -0.627821 2.01548 0
M  V30 8326 O 794.745 -1.5791 1.65156 0
M  V30 8327 C 794.955 1.70687 3.04413 0
M  V30 8328 C 796.303 1.92684 3.78362 0
M  V30 8329 O 797.327 1.67645 3.14282 0
M  V30 8330 O 796.186 2.34765 4.93505 0
M  V30 8331 H 793.28 0.322831 0.761386 0
M  V30 8332 H 795.826 1.28054 1.11357 0
M  V30 8333 H 794.598 2.72405 2.80911 0
M  V30 8334 H 794.221 1.29602 3.75884 0
M  V30 8335 N 795.218 -1.23913 0.973828 0
M  V30 8336 C 796.466 -1.91771 0.637817 0
M  V30 8337 C 796.787 -1.76434 -0.830435 0
M  V30 8338 O 796.057 -1.13965 -1.59339 0
M  V30 8339 H 794.637 -0.709761 0.232912 0
M  V30 8340 H 797.299 -1.50677 1.23622 0
M  V30 8341 H 796.395 -2.99327 0.883731 0
M  V30 8342 N 796.696 -0.74468 -1.38897 0
M  V30 8343 C 797.921 -0.306119 -2.05128 0
M  V30 8344 C 798.346 1.0541 -1.55789 0
M  V30 8345 O 797.704 1.66993 -0.705909 0
M  V30 8346 C 797.752 -0.328195 -3.59103 0
M  V30 8347 O 796.856 0.680876 -4.06741 0
M  V30 8348 H 796.197 -0.137209 -0.649669 0
M  V30 8349 H 798.727 -1.01331 -1.77745 0
M  V30 8350 H 798.737 -0.175956 -4.0762 0
M  V30 8351 H 797.412 -1.32067 -3.94374 0
M  V30 8352 H 795.989 0.49398 -3.69614 0
M  V30 8353 N 798.174 1.49689 -0.493057 0
M  V30 8354 C 799.42 2.02727 0.0543518 0
M  V30 8355 C 799.753 1.37264 1.37376 0
M  V30 8356 O 799.028 0.505644 1.87812 0
M  V30 8357 C 799.311 3.59456 0.215226 0
M  V30 8358 C 799.164 4.35459 -1.12675 0
M  V30 8359 C 800.483 4.29511 0.959586 0
M  V30 8360 H 797.602 0.736773 0.0182786 0
M  V30 8361 H 800.244 1.78792 -0.642924 0
M  V30 8362 H 798.394 3.79981 0.809122 0
M  V30 8363 H 800.066 4.2645 -1.75891 0
M  V30 8364 H 798.309 3.9833 -1.71801 0
M  V30 8365 H 798.98 5.43454 -0.967578 0
M  V30 8366 H 801.456 4.13594 0.455977 0
M  V30 8367 H 800.332 5.38939 1.04098 0
M  V30 8368 H 800.593 3.94202 2.00144 0
M  V30 8369 N 799.652 0.226554 1.55963 0
M  V30 8370 C 800.877 -0.411527 2.03276 0
M  V30 8371 C 801.302 -1.52206 1.10521 0
M  V30 8372 O 800.66 -1.81054 0.0943217 0
M  V30 8373 C 800.708 -0.915694 3.4878 0
M  V30 8374 O 799.812 -2.02672 3.59163 0
M  V30 8375 H 799.153 -0.0924907 0.657527 0
M  V30 8376 H 801.683 0.346656 2.01642 0
M  V30 8377 H 801.693 -1.22421 3.892 0
M  V30 8378 H 800.368 -0.102915 4.15773 0
M  V30 8379 H 798.945 -1.72445 3.30632 0
M  V30 8380 N 801.13 -1.57531 -0.0467866 0
M  V30 8381 C 802.378 -1.88078 -0.739656 0
M  V30 8382 C 802.699 -0.821936 -1.76831 0
M  V30 8383 O 801.969 0.146582 -1.95351 0
M  V30 8384 H 800.549 -0.694075 -0.276169 0
M  V30 8385 H 803.211 -1.94893 -0.0169391 0
M  V30 8386 H 802.307 -2.86396 -1.24031 0
M  V30 8387 N 802.608 0.318715 -1.54344 0
M  V30 8388 C 803.848 1.06425 -1.74508 0
M  V30 8389 C 804.212 1.85087 -0.510572 0
M  V30 8390 O 805.413 2.62253 -0.589647 0
M  V30 8391 C 803.684 1.96054 -2.98827 0
M  V30 8392 S 805.243 2.77493 -3.39916 0
M  V30 8393 H 802.061 0.35921 -0.613587 0
M  V30 8394 H 804.663 0.339679 -1.92526 0
M  V30 8395 H 803.367 1.37109 -3.8682 0
M  V30 8396 H 802.898 2.72908 -2.83346 0
M  V30 8397 H 804.913 3.98544 -2.95596 0
M  V30 8398 N 804.086 1.46499 0.581025 0
M  V30 8399 C 805.311 1.55708 1.37002 0
M  V30 8400 C 805.736 0.19942 1.8704 0
M  V30 8401 O 805.094 -0.820731 1.61659 0
M  V30 8402 C 805.142 2.56716 2.53238 0
M  V30 8403 O 804.246 2.10336 3.54729 0
M  V30 8404 H 803.587 0.523912 0.407937 0
M  V30 8405 H 806.117 1.92085 0.704602 0
M  V30 8406 H 806.127 2.76378 3.00132 0
M  V30 8407 H 804.802 3.55307 2.16171 0
M  V30 8408 H 803.379 2.00669 3.14303 0
M  V30 8409 N 805.565 -0.825799 1.34232 0
M  V30 8410 C 806.793 -1.61363 1.29497 0
M  V30 8411 C 807.208 -1.88341 -0.131536 0
M  V30 8412 O 806.565 -1.47279 -1.07773 0
M  V30 8413 C 806.616 -2.95623 2.08061 0
M  V30 8414 O 806.337 -2.69824 3.45147 0
M  V30 8415 C 807.838 -3.90032 2.10688 0
M  V30 8416 H 805.058 -0.501676 0.445603 0
M  V30 8417 H 807.602 -1.02767 1.76803 0
M  V30 8418 H 805.757 -3.50785 1.64404 0
M  V30 8419 H 806.171 -3.55412 3.85723 0
M  V30 8420 H 807.645 -4.81411 2.70087 0
M  V30 8421 H 808.122 -4.25188 1.10052 0
M  V30 8422 H 808.728 -3.40807 2.54422 0
M  V30 8423 N 807.043 -1.17915 -1.04565 0
M  V30 8424 C 807.991 -0.897919 -2.1457 0
M  V30 8425 C 808.985 0.139883 -1.68821 0
M  V30 8426 O 810.191 -0.00779463 -1.79998 0
M  V30 8427 H 806.566 -0.272867 -0.700748 0
M  V30 8428 H 808.537 -1.83268 -2.3549 0
M  V30 8429 C 807.286 -0.434634 -3.44973 0
M  V30 8430 H 806.609 -1.22469 -3.8058 0
M  V30 8431 H 808.049 -0.276804 -4.23095 0
M  V30 8432 C 806.508 0.848738 -3.26034 0
M  V30 8433 O 807.038 1.9141 -3.53164 0
M  V30 8434 N 805.244 0.799373 -2.79389 0
M  V30 8435 H 804.791 -0.0678192 -2.57511 0
M  V30 8436 H 804.749 1.6585 -2.67098 0
M  V30 8437 N 808.521 1.23394 -0.980386 0
M  V30 8438 C 809.469 2.26872 -0.513018 0
M  V30 8439 C 810.463 1.63853 0.429948 0
M  V30 8440 O 811.669 1.77417 0.303842 0
M  V30 8441 H 808.044 0.737398 -0.147473 0
M  V30 8442 H 810.015 2.63654 -1.39746 0
M  V30 8443 C 808.764 3.47289 0.168962 0
M  V30 8444 H 808.087 3.96033 -0.547546 0
M  V30 8445 H 809.527 4.21502 0.459616 0
M  V30 8446 C 807.986 3.06425 1.40019 0
M  V30 8447 O 808.516 3.14708 2.49643 0
M  V30 8448 N 806.722 2.61339 1.27084 0
M  V30 8449 H 806.269 2.54799 0.378872 0
M  V30 8450 H 806.227 2.34364 2.09573 0
M  V30 8451 N 809.999 0.752036 1.385 0
M  V30 8452 C 810.929 0.138718 2.33088 0
M  V30 8453 C 811.91 -0.705318 1.54788 0
M  V30 8454 O 813.095 -0.646821 1.83112 0
M  V30 8455 C 810.225 -0.75641 3.38963 0
M  V30 8456 C 809.179 -0.0152239 4.27997 0
M  V30 8457 C 808.505 -1.0285 5.24715 0
M  V30 8458 C 809.805 1.15226 5.09431 0
M  V30 8459 H 811.499 0.928852 2.84627 0
M  V30 8460 H 809.045 0.448111 1.3685 0
M  V30 8461 H 810.998 -1.19513 4.04097 0
M  V30 8462 H 809.722 -1.57885 2.85902 0
M  V30 8463 H 808.381 0.404061 3.64366 0
M  V30 8464 H 808.029 -1.84496 4.67943 0
M  V30 8465 H 807.729 -0.537238 5.85139 0
M  V30 8466 H 809.253 -1.46657 5.92726 0
M  V30 8467 H 810.667 0.791161 5.67815 0
M  V30 8468 H 809.064 1.57428 5.79082 0
M  V30 8469 H 810.134 1.9659 4.43261 0
M  V30 8470 N 811.477 -1.49425 0.500989 0
M  V30 8471 C 812.425 -2.30771 -0.291149 0
M  V30 8472 C 813.419 -1.3938 -0.962787 0
M  V30 8473 O 814.625 -1.56431 -0.890477 0
M  V30 8474 H 811 -0.743499 -0.11275 0
M  V30 8475 H 812.971 -2.95501 0.414917 0
M  V30 8476 C 811.72 -3.20725 -1.34279 0
M  V30 8477 H 811.043 -3.90975 -0.83538 0
M  V30 8478 H 812.483 -3.80583 -1.86903 0
M  V30 8479 C 810.942 -2.40334 -2.36095 0
M  V30 8480 O 811.472 -2.10749 -3.41976 0
M  V30 8481 N 809.678 -2.02359 -2.08565 0
M  V30 8482 H 809.225 -2.26619 -1.22482 0
M  V30 8483 H 809.183 -1.48878 -2.76916 0
M  V30 8484 N 812.955 -0.234822 -1.55841 0
M  V30 8485 C 813.903 0.686145 -2.22249 0
M  V30 8486 C 814.897 1.18948 -1.20614 0
M  V30 8487 O 816.103 1.14777 -1.38659 0
M  V30 8488 H 812.478 0.239724 -0.712767 0
M  V30 8489 H 814.449 0.102762 -2.98223 0
M  V30 8490 C 813.198 1.8776 -2.92646 0
M  V30 8491 H 812.521 1.49943 -3.70617 0
M  V30 8492 H 813.961 2.4995 -3.42493 0
M  V30 8493 C 812.42 2.74127 -1.95847 0
M  V30 8494 O 812.95 3.7329 -1.48384 0
M  V30 8495 N 811.156 2.4044 -1.63209 0
M  V30 8496 H 810.703 1.59854 -2.02001 0
M  V30 8497 H 810.661 2.98504 -0.987063 0
M  V30 8498 N 814.433 1.57553 0.0384317 0
M  V30 8499 C 815.844 1.77258 0.586211 0
M  V30 8500 C 816.195 0.864706 1.76117 0
M  V30 8501 O 815.32 0.057141 2.16325 0
M  V30 8502 C 815.915 3.21453 1.07021 0
M  V30 8503 C 814.474 3.42387 1.56358 0
M  V30 8504 C 813.621 2.72801 0.497508 0
M  V30 8505 H 816.572 1.57585 -0.187796 0
M  V30 8506 H 816.593 3.27451 1.93794 0
M  V30 8507 H 816.105 3.87505 0.214851 0
M  V30 8508 H 814.206 2.81497 2.44111 0
M  V30 8509 H 814.319 4.50968 1.61754 0
M  V30 8510 H 812.683 2.36305 0.95038 0
M  V30 8511 H 813.466 3.41529 -0.348234 0
M  V30 8512 N 815.911 -0.310526 1.54511 0
M  V30 8513 C 817.322 -0.884142 1.64438 0
M  V30 8514 C 817.673 -1.88425 0.546855 0
M  V30 8515 O 816.798 -2.14049 -0.31811 0
M  V30 8516 C 817.393 -1.6104 2.9808 0
M  V30 8517 C 815.952 -2.13255 3.1016 0
M  V30 8518 C 815.099 -0.96213 2.60074 0
M  V30 8519 H 818.05 -0.0877666 1.58457 0
M  V30 8520 H 818.071 -2.47541 2.8897 0
M  V30 8521 H 817.583 -0.882255 3.77939 0
M  V30 8522 H 815.684 -2.89145 2.35002 0
M  V30 8523 H 815.797 -2.37361 4.16169 0
M  V30 8524 H 814.161 -1.34501 2.16291 0
M  V30 8525 H 814.944 -0.248098 3.42402 0
M  V30 8526 N 817.389 -1.46805 -0.573248 0
M  V30 8527 C 818.636 -1.52604 -1.3311 0
M  V30 8528 C 818.964 -0.181633 -1.9365 0
M  V30 8529 O 818.219 0.823775 -1.77517 0
M  V30 8530 C 818.518 -2.58001 -2.47326 0
M  V30 8531 C 818.184 -4.01747 -2.04719 0
M  V30 8532 C 816.846 -4.40881 -1.92814 0
M  V30 8533 C 819.198 -4.92008 -1.71982 0
M  V30 8534 C 816.526 -5.68129 -1.46445 0
M  V30 8535 C 818.878 -6.19703 -1.27089 0
M  V30 8536 C 817.542 -6.57733 -1.13768 0
M  V30 8537 H 816.812 -0.558417 -0.487084 0
M  V30 8538 H 819.459 -1.80327 -0.644538 0
M  V30 8539 H 817.764 -2.23974 -3.2147 0
M  V30 8540 H 819.461 -2.59715 -3.05531 0
M  V30 8541 H 816.051 -3.70819 -2.14922 0
M  V30 8542 H 820.235 -4.62485 -1.8006 0
M  V30 8543 H 815.491 -5.96359 -1.34783 0
M  V30 8544 H 819.665 -6.89064 -1.00814 0
M  V30 8545 H 817.292 -7.56228 -0.776142 0
M  V30 8546 N 818.867 0.818669 -1.34668 0
M  V30 8547 C 820.095 1.60674 -1.30351 0
M  V30 8548 C 820.51 1.88408 0.121546 0
M  V30 8549 O 819.867 1.47849 1.06991 0
M  V30 8550 C 819.918 2.94516 -2.09625 0
M  V30 8551 O 819.639 2.6799 -3.46573 0
M  V30 8552 C 821.14 3.8891 -2.12754 0
M  V30 8553 H 818.36 0.499306 -0.448258 0
M  V30 8554 H 820.904 1.01828 -1.77345 0
M  V30 8555 H 819.059 3.49908 -1.66262 0
M  V30 8556 H 819.473 3.53361 -3.87603 0
M  V30 8557 H 820.947 4.79972 -2.72637 0
M  V30 8558 H 821.424 4.24599 -1.12306 0
M  V30 8559 H 822.03 3.39453 -2.56225 0
M  V30 8560 N 820.346 1.18468 1.03938 0
M  V30 8561 C 821.757 0.984808 1.58614 0
M  V30 8562 C 822.108 -0.465165 1.90606 0
M  V30 8563 O 821.233 -1.34274 1.69704 0
M  V30 8564 C 821.828 1.78135 2.8819 0
M  V30 8565 C 820.387 1.62579 3.39478 0
M  V30 8566 C 819.534 1.77501 2.13046 0
M  V30 8567 H 822.485 1.32993 0.865944 0
M  V30 8568 H 822.506 1.27119 3.58638 0
M  V30 8569 H 822.018 2.83661 2.64874 0
M  V30 8570 H 820.119 0.59595 3.67803 0
M  V30 8571 H 820.232 2.42463 4.13217 0
M  V30 8572 H 818.596 1.2046 2.24414 0
M  V30 8573 H 819.379 2.84464 1.92185 0
M  V30 8574 N 821.824 -1.22873 0.986916 0
M  V30 8575 C 823.24 -1.43594 0.696633 0
M  V30 8576 C 823.44 -1.87622 -0.734869 0
M  V30 8577 O 822.496 -2.02633 -1.50652 0
M  V30 8578 C 823.809 -2.48231 1.69711 0
M  V30 8579 C 825.357 -2.62037 1.71188 0
M  V30 8580 C 825.832 -3.6989 2.70084 0
M  V30 8581 N 827.323 -3.77341 2.68641 0
M  V30 8582 C 828.058 -4.6037 3.41829 0
M  V30 8583 N 827.554 -5.47438 4.24598 0
M  V30 8584 N 829.347 -4.54626 3.30563 0
M  V30 8585 H 821.498 -0.925982 1.91153 0
M  V30 8586 H 823.761 -0.46866 0.824052 0
M  V30 8587 H 823.467 -2.22812 2.72117 0
M  V30 8588 H 823.341 -3.46731 1.48516 0
M  V30 8589 H 825.728 -2.86803 0.694837 0
M  V30 8590 H 825.809 -1.63831 1.96451 0
M  V30 8591 H 825.453 -3.45872 3.71934 0
M  V30 8592 H 825.383 -4.67652 2.42093 0
M  V30 8593 H 827.874 -3.15124 2.08578 0
M  V30 8594 H 828.187 -6.078 4.77283 0
M  V30 8595 H 826.532 -5.4704 4.28687 0
M  V30 8596 H 829.723 -3.85627 2.65347 0
M  V30 8597 H 829.896 -5.19103 3.8786 0
M  V30 8598 N 823.302 -0.75937 -1.38099 0
M  V30 8599 C 824.551 -0.314864 -1.99227 0
M  V30 8600 C 824.864 1.1113 -1.60964 0
M  V30 8601 O 826.07 1.65657 -2.15105 0
M  V30 8602 C 824.526 -0.512001 -3.56239 0
M  V30 8603 C 824.134 -1.94762 -4.0345 0
M  V30 8604 C 825.878 -0.130497 -4.24299 0
M  V30 8605 C 823.785 -2.09301 -5.53125 0
M  V30 8606 H 822.715 -0.113978 -0.745335 0
M  V30 8607 H 825.366 -0.936736 -1.57789 0
M  V30 8608 H 823.748 0.179144 -3.95595 0
M  V30 8609 H 824.922 -2.67271 -3.75371 0
M  V30 8610 H 823.237 -2.28457 -3.48133 0
M  V30 8611 H 825.834 -0.21781 -5.34256 0
M  V30 8612 H 826.177 0.917644 -4.0606 0
M  V30 8613 H 826.71 -0.773716 -3.90203 0
M  V30 8614 H 823.449 -3.1239 -5.76275 0
M  V30 8615 H 822.969 -1.41261 -5.82928 0
M  V30 8616 H 824.648 -1.88571 -6.1891 0
M  V30 8617 N 824.78 1.49157 -0.508906 0
M  V30 8618 C 825.71 2.32109 0.254469 0
M  V30 8619 C 826.691 1.40754 0.955111 0
M  V30 8620 O 827.876 1.69658 0.944983 0
M  V30 8621 C 825.006 3.21458 1.3146 0
M  V30 8622 C 823.96 4.2167 0.733368 0
M  V30 8623 C 823.286 5.00009 1.8946 0
M  V30 8624 C 824.586 5.21544 -0.280875 0
M  V30 8625 H 826.28 2.9618 -0.43795 0
M  V30 8626 H 823.826 1.4243 -0.212062 0
M  V30 8627 H 825.779 3.78305 1.85643 0
M  V30 8628 H 824.503 2.55346 2.03632 0
M  V30 8629 H 823.162 3.65979 0.213231 0
M  V30 8630 H 822.81 4.30338 2.60419 0
M  V30 8631 H 822.51 5.67821 1.51173 0
M  V30 8632 H 824.034 5.59702 2.44061 0
M  V30 8633 H 825.448 5.73039 0.173095 0
M  V30 8634 H 823.845 5.97291 -0.580006 0
M  V30 8635 H 824.915 4.69969 -1.19404 0
M  V30 8636 N 826.258 0.243083 1.55714 0
M  V30 8637 C 827.535 -0.432851 1.90751 0
M  V30 8638 C 827.915 -1.76153 1.16333 0
M  V30 8639 O 827.263 -2.26783 0.279565 0
M  V30 8640 C 827.473 -0.604685 3.43722 0
M  V30 8641 C 828.821 -0.90231 4.14902 0
M  V30 8642 O 829.845 -0.690689 3.49439 0
M  V30 8643 O 828.704 -1.3051 5.30688 0
M  V30 8644 H 825.798 -0.231835 0.79384 0
M  V30 8645 H 828.344 0.286867 1.67258 0
M  V30 8646 H 827.116 0.331655 3.89892 0
M  V30 8647 H 826.739 -1.37509 3.73065 0
M  V30 8648 N 827.736 -1.57571 -0.0300757 0
M  V30 8649 C 828.984 -1.88852 -0.719666 0
M  V30 8650 C 829.305 -0.840645 -1.75949 0
M  V30 8651 O 828.575 0.125854 -1.95495 0
M  V30 8652 H 827.155 -0.696965 -0.268792 0
M  V30 8653 H 829.817 -1.949 0.00373285 0
M  V30 8654 H 828.913 -2.87695 -1.20987 0
M  V30 8655 N 829.214 0.302327 -1.54673 0
M  V30 8656 C 830.444 1.05516 -1.77623 0
M  V30 8657 C 830.852 1.81474 -0.535159 0
M  V30 8658 O 830.195 1.76635 0.504543 0
M  V30 8659 C 830.257 2.08305 -2.93001 0
M  V30 8660 C 829.921 1.51554 -4.31139 0
M  V30 8661 C 830.918 0.946261 -5.11216 0
M  V30 8662 C 828.603 1.55157 -4.77736 0
M  V30 8663 C 830.597 0.420559 -6.36011 0
M  V30 8664 C 828.284 1.022 -6.02494 0
M  V30 8665 C 829.282 0.457461 -6.81466 0
M  V30 8666 O 828.97 -0.064083 -8.03874 0
M  V30 8667 H 828.702 0.318756 -0.59613 0
M  V30 8668 H 831.256 0.347558 -2.02438 0
M  V30 8669 H 829.486 2.82742 -2.63807 0
M  V30 8670 H 831.175 2.69479 -3.03539 0
M  V30 8671 H 831.941 0.911338 -4.76361 0
M  V30 8672 H 827.82 1.98037 -4.16296 0
M  V30 8673 H 831.364 -0.0207298 -6.97597 0
M  V30 8674 H 827.261 1.05406 -6.36836 0
M  V30 8675 H 828.029 0.0493422 -8.18485 0
M  V30 8676 N 830.692 1.47107 0.565454 0
M  V30 8677 C 831.622 1.61846 1.68309 0
M  V30 8678 C 832.603 0.468159 1.63531 0
M  V30 8679 O 833.788 0.696504 1.8128 0
M  V30 8680 C 830.918 1.62474 3.06952 0
M  V30 8681 C 829.872 2.76649 3.26572 0
M  V30 8682 C 829.198 2.62345 4.65917 0
M  V30 8683 C 830.498 4.18319 3.12741 0
M  V30 8684 H 832.192 2.55407 1.5623 0
M  V30 8685 H 829.738 1.22916 0.750179 0
M  V30 8686 H 831.691 1.71378 3.84977 0
M  V30 8687 H 830.415 0.654692 3.19971 0
M  V30 8688 H 829.074 2.67242 2.50952 0
M  V30 8689 H 828.722 1.63386 4.75725 0
M  V30 8690 H 828.422 3.38936 4.79996 0
M  V30 8691 H 829.946 2.73165 5.46089 0
M  V30 8692 H 831.36 4.28745 3.80593 0
M  V30 8693 H 829.757 4.95632 3.38333 0
M  V30 8694 H 830.827 4.37263 2.09592 0
M  V30 8695 N 832.17 -0.811516 1.35101 0
M  V30 8696 C 833.417 -1.56835 1.28098 0
M  V30 8697 C 833.745 -1.93951 -0.14597 0
M  V30 8698 O 833 -1.61173 -1.11004 0
M  V30 8699 C 833.299 -2.87121 2.1283 0
M  V30 8700 C 832.965 -2.69245 3.61688 0
M  V30 8701 C 831.627 -2.64078 4.02264 0
M  V30 8702 C 833.979 -2.52122 4.56162 0
M  V30 8703 C 831.307 -2.39724 5.3549 0
M  V30 8704 C 833.659 -2.29298 5.89581 0
M  V30 8705 C 832.323 -2.2255 6.29307 0
M  V30 8706 H 831.593 -0.5739 0.468742 0
M  V30 8707 H 834.24 -0.93806 1.66951 0
M  V30 8708 H 832.545 -3.54502 1.66841 0
M  V30 8709 H 834.242 -3.44788 2.0475 0
M  V30 8710 H 830.832 -2.74112 3.29485 0
M  V30 8711 H 835.016 -2.5513 4.25702 0
M  V30 8712 H 830.272 -2.32965 5.65276 0
M  V30 8713 H 834.446 -2.15038 6.62368 0
M  V30 8714 H 832.073 -2.0344 7.32473 0
M  V30 8715 N 833.648 -1.19017 -1.03309 0
M  V30 8716 C 834.888 -1.00129 -1.78195 0
M  V30 8717 C 835.252 0.460236 -1.86402 0
M  V30 8718 O 836.453 0.768802 -2.57571 0
M  V30 8719 C 834.724 -1.64703 -3.17187 0
M  V30 8720 S 836.283 -1.60695 -4.08317 0
M  V30 8721 H 833.101 -0.359395 -0.613479 0
M  V30 8722 H 835.703 -1.51293 -1.23818 0
M  V30 8723 H 834.407 -2.70283 -3.08829 0
M  V30 8724 H 833.938 -1.136 -3.76641 0
M  V30 8725 H 835.953 -0.628171 -4.92208 0
M  V30 8726 N 835.127 1.22348 -0.993418 0
M  V30 8727 C 836.074 2.24294 -0.544118 0
M  V30 8728 C 837.044 1.60602 0.42381 0
M  V30 8729 O 838.229 1.87952 0.328453 0
M  V30 8730 C 835.369 3.44837 0.134578 0
M  V30 8731 C 834.482 4.23043 -0.875151 0
M  V30 8732 C 833.617 5.30928 -0.169919 0
M  V30 8733 C 832.656 6.00853 -1.16798 0
M  V30 8734 N 831.793 7.00381 -0.491021 0
M  V30 8735 H 836.633 2.6209 -1.4182 0
M  V30 8736 H 834.17 1.2881 -0.710384 0
M  V30 8737 H 836.128 4.13625 0.544998 0
M  V30 8738 H 834.758 3.07804 0.972446 0
M  V30 8739 H 833.81 3.53546 -1.40389 0
M  V30 8740 H 835.122 4.71237 -1.63516 0
M  V30 8741 H 834.276 6.05972 0.297205 0
M  V30 8742 H 833.015 4.8371 0.622586 0
M  V30 8743 H 832.02 5.24591 -1.64573 0
M  V30 8744 H 833.245 6.50159 -1.96137 0
M  V30 8745 H 831.191 6.55393 0.282037 0
M  V30 8746 H 831.108 7.46584 -1.18947 0
M  V30 8747 H 832.376 7.79486 -0.0467169 0
M  V30 8748 N 836.605 0.766683 1.37694 0
M  V30 8749 C 837.833 0.339939 2.04088 0
M  V30 8750 C 838.248 -1.03617 1.57826 0
M  V30 8751 O 837.605 -1.6605 0.757214 0
M  V30 8752 C 837.656 0.368269 3.59619 0
M  V30 8753 O 837.377 1.69009 4.04188 0
M  V30 8754 C 838.878 -0.0707053 4.43244 0
M  V30 8755 H 836.098 0.143189 0.655544 0
M  V30 8756 H 838.642 1.03919 1.76128 0
M  V30 8757 H 836.797 -0.282359 3.8637 0
M  V30 8758 H 837.211 1.62523 4.98685 0
M  V30 8759 H 838.685 0.000273538 5.52 0
M  V30 8760 H 839.162 -1.1204 4.24669 0
M  V30 8761 H 839.768 0.551543 4.21709 0
M  V30 8762 N 838.083 -1.48885 0.516809 0
M  V30 8763 C 839.013 -2.32241 -0.242157 0
M  V30 8764 C 839.994 -1.41258 -0.947633 0
M  V30 8765 O 841.179 -1.70156 -0.935973 0
M  V30 8766 C 838.309 -3.22151 -1.29754 0
M  V30 8767 C 837.263 -4.22053 -0.710995 0
M  V30 8768 C 836.589 -5.01007 -1.86806 0
M  V30 8769 C 837.889 -5.21388 0.30853 0
M  V30 8770 H 839.583 -2.95943 0.453651 0
M  V30 8771 H 837.129 -1.42316 0.219612 0
M  V30 8772 H 839.082 -3.79284 -1.83634 0
M  V30 8773 H 837.806 -2.56423 -2.02274 0
M  V30 8774 H 836.465 -3.66087 -0.193819 0
M  V30 8775 H 836.113 -4.31713 -2.58133 0
M  V30 8776 H 835.813 -5.68615 -1.48159 0
M  V30 8777 H 837.337 -5.60989 -2.4109 0
M  V30 8778 H 838.751 -5.73122 -0.142703 0
M  V30 8779 H 837.148 -5.96975 0.611673 0
M  V30 8780 H 838.218 -4.69329 1.21894 0
M  V30 8781 N 839.561 -0.251338 -1.55583 0
M  V30 8782 C 840.801 0.373651 -2.00956 0
M  V30 8783 C 841.165 1.54806 -1.13574 0
M  V30 8784 O 842.366 2.24108 -1.48422 0
M  V30 8785 C 840.637 0.768919 -3.49031 0
M  V30 8786 S 842.196 1.38381 -4.16409 0
M  V30 8787 H 839.014 0.117371 -0.701245 0
M  V30 8788 H 841.616 -0.367611 -1.92013 0
M  V30 8789 H 840.32 -0.0950492 -4.1029 0
M  V30 8790 H 839.851 1.54225 -3.61909 0
M  V30 8791 H 841.866 2.6728 -4.18062 0
M  V30 8792 N 841.039 1.57585 0.0217189 0
M  V30 8793 C 841.972 2.02435 1.05334 0
M  V30 8794 C 842.95 0.91006 1.34747 0
M  V30 8795 O 844.134 1.17648 1.47279 0
M  V30 8796 C 841.261 2.40362 2.38629 0
M  V30 8797 C 840.307 3.62307 2.25025 0
M  V30 8798 S 841.14 5.11141 1.59673 0
M  V30 8799 C 842.296 5.52316 2.94444 0
M  V30 8800 H 842.529 2.89621 0.671354 0
M  V30 8801 H 840.062 1.52648 0.231925 0
M  V30 8802 H 842.02 2.62883 3.15282 0
M  V30 8803 H 840.681 1.53615 2.73973 0
M  V30 8804 H 839.874 3.86523 3.23443 0
M  V30 8805 H 839.476 3.39675 1.56515 0
M  V30 8806 H 841.768 5.53449 3.90768 0
M  V30 8807 H 842.711 6.52539 2.74952 0
M  V30 8808 H 843.119 4.79834 2.97355 0
M  V30 8809 N 842.517 -0.29412 1.54831 0
M  V30 8810 C 843.794 -1.04847 1.65126 0
M  V30 8811 C 844.174 -2.04996 0.503986 0
M  V30 8812 O 843.522 -2.22996 -0.498496 0
M  V30 8813 C 843.732 -1.72418 3.03435 0
M  V30 8814 C 845.08 -2.24362 3.60481 0
M  V30 8815 O 846.104 -1.8244 3.05932 0
M  V30 8816 O 844.963 -3.01196 4.56008 0
M  V30 8817 H 842.057 -0.485032 0.669831 0
M  V30 8818 H 844.603 -0.291659 1.67175 0
M  V30 8819 H 843.375 -0.997351 3.78376 0
M  V30 8820 H 842.998 -2.54839 3.05193 0
M  V30 8821 N 843.995 -1.47404 -0.557645 0
M  V30 8822 C 844.958 -1.59411 -1.64684 0
M  V30 8823 C 845.958 -0.469244 -1.53801 0
M  V30 8824 O 847.148 -0.734298 -1.57967 0
M  V30 8825 C 844.28 -1.5382 -3.04224 0
M  V30 8826 H 845.473 -2.56504 -1.55389 0
M  V30 8827 H 843.026 -1.35588 -0.777531 0
M  V30 8828 H 843.761 -0.581 -3.19053 0
M  V30 8829 H 843.546 -2.35456 -3.13533 0
M  V30 8830 H 845.036 -1.65358 -3.83466 0
M  V30 8831 N 845.473 0.80434 -1.35529 0
M  V30 8832 C 846.719 1.56385 -1.29118 0
M  V30 8833 C 847.052 1.9374 0.133536 0
M  V30 8834 O 846.327 1.6153 1.08344 0
M  V30 8835 C 846.61 2.85097 -2.19981 0
M  V30 8836 C 846.463 2.54204 -3.7108 0
M  V30 8837 C 847.782 3.86817 -2.09907 0
M  V30 8838 H 844.901 0.567382 -0.470368 0
M  V30 8839 H 847.543 0.925235 -1.6595 0
M  V30 8840 H 845.693 3.39594 -1.88701 0
M  V30 8841 H 847.365 2.05872 -4.12813 0
M  V30 8842 H 845.608 1.87364 -3.91251 0
M  V30 8843 H 846.279 3.46068 -4.30048 0
M  V30 8844 H 848.755 3.41725 -2.37409 0
M  V30 8845 H 847.631 4.7465 -2.75678 0
M  V30 8846 H 847.892 4.28663 -1.08171 0
M  V30 8847 N 846.951 1.19563 1.02676 0
M  V30 8848 C 847.883 0.893054 2.11086 0
M  V30 8849 C 848.896 -0.115101 1.62393 0
M  V30 8850 O 850.085 0.11459 1.78132 0
M  V30 8851 C 847.185 0.315533 3.37428 0
M  V30 8852 C 846.358 1.37276 4.153 0
M  V30 8853 C 845.417 0.808398 5.19953 0
M  V30 8854 O 844.443 1.48661 5.49444 0
M  V30 8855 N 845.645 -0.387253 5.79207 0
M  V30 8856 H 848.41 1.82622 2.37633 0
M  V30 8857 H 845.971 1.09792 1.18984 0
M  V30 8858 H 847.963 -0.0759166 4.04629 0
M  V30 8859 H 846.533 -0.521961 3.08211 0
M  V30 8860 H 845.753 1.93897 3.43217 0
M  V30 8861 H 847.041 2.08509 4.64114 0
M  V30 8862 H 846.439 -0.955725 5.57568 0
M  V30 8863 H 844.996 -0.720457 6.47806 0
M  V30 8864 N 848.429 -1.21819 0.999893 0
M  V30 8865 C 849.379 -2.21823 0.527104 0
M  V30 8866 C 850.363 -1.55628 -0.408515 0
M  V30 8867 O 851.555 -1.75444 -0.234196 0
M  V30 8868 C 848.684 -3.42972 -0.149986 0
M  V30 8869 C 847.77 -4.16364 0.806349 0
M  V30 8870 N 848.161 -4.66403 1.95708 0
M  V30 8871 C 846.459 -4.41618 0.623672 0
M  V30 8872 C 847.16 -5.22443 2.5579 0
M  V30 8873 N 846.136 -5.11514 1.83995 0
M  V30 8874 H 849.938 -2.58161 1.40464 0
M  V30 8875 H 847.452 -1.37569 0.863054 0
M  V30 8876 H 849.449 -4.13816 -0.50613 0
M  V30 8877 H 848.109 -3.08145 -1.02357 0
M  V30 8878 H 849.12 -4.62142 2.33763 0
M  V30 8879 H 845.797 -4.17005 -0.203257 0
M  V30 8880 H 847.187 -5.7165 3.5308 0
M  V30 8881 N 849.908 -0.773975 -1.37286 0
M  V30 8882 C 851.154 -0.348833 -2.00386 0
M  V30 8883 C 851.509 1.06347 -1.60337 0
M  V30 8884 O 850.802 1.72178 -0.840545 0
M  V30 8885 C 850.996 -0.432651 -3.54772 0
M  V30 8886 C 850.825 -1.85155 -4.09814 0
M  V30 8887 C 849.595 -2.47272 -4.40664 0
M  V30 8888 C 851.793 -2.8114 -4.30656 0
M  V30 8889 N 849.775 -3.80912 -4.81435 0
M  V30 8890 C 851.146 -3.99582 -4.74061 0
M  V30 8891 C 853.201 -2.78398 -4.12794 0
M  V30 8892 C 851.904 -5.1567 -5.01475 0
M  V30 8893 C 853.93 -3.9366 -4.41345 0
M  V30 8894 C 853.292 -5.10844 -4.84992 0
M  V30 8895 H 849.391 -0.174738 -0.762227 0
M  V30 8896 H 851.975 -1.00828 -1.66559 0
M  V30 8897 H 850.146 0.19663 -3.87902 0
M  V30 8898 H 851.878 0.0147601 -4.04697 0
M  V30 8899 H 848.633 -1.98872 -4.29822 0
M  V30 8900 H 849.057 -4.49628 -5.06126 0
M  V30 8901 H 853.699 -1.8897 -3.7822 0
M  V30 8902 H 851.417 -6.05696 -5.34938 0
M  V30 8903 H 855.003 -3.92882 -4.2911 0
M  V30 8904 H 853.883 -5.98553 -5.0666 0
M  V30 8905 N 851.386 1.48609 -0.524698 0
M  V30 8906 C 852.634 2.02097 0.0112991 0
M  V30 8907 C 852.955 1.40455 1.35268 0
M  V30 8908 O 852.225 0.56807 1.87483 0
M  V30 8909 H 850.805 0.746966 0.00716426 0
M  V30 8910 H 853.467 1.82378 -0.687329 0
M  V30 8911 H 852.563 3.11855 0.123531 0
M  V30 8912 N 852.864 0.259585 1.55447 0
M  V30 8913 C 853.811 -0.634578 2.21905 0
M  V30 8914 C 854.781 -1.16168 1.18719 0
M  V30 8915 O 855.966 -1.21383 1.4721 0
M  V30 8916 C 853.106 -1.82005 2.93203 0
M  V30 8917 C 852.219 -1.32828 4.11073 0
M  V30 8918 C 851.354 -2.47431 4.70055 0
M  V30 8919 C 850.393 -1.95179 5.80148 0
M  V30 8920 N 849.53 -3.03197 6.33258 0
M  V30 8921 H 854.37 -0.0611886 2.97937 0
M  V30 8922 H 851.907 -0.0184378 1.47088 0
M  V30 8923 H 853.865 -2.51664 3.32748 0
M  V30 8924 H 852.495 -2.36571 2.19622 0
M  V30 8925 H 851.547 -0.525301 3.76756 0
M  V30 8926 H 852.859 -0.905435 4.90513 0
M  V30 8927 H 852.013 -3.25111 5.12238 0
M  V30 8928 H 850.752 -2.93023 3.89857 0
M  V30 8929 H 849.757 -1.15974 5.37429 0
M  V30 8930 H 850.982 -1.50541 6.62204 0
M  V30 8931 H 848.928 -3.48199 5.55961 0
M  V30 8932 H 848.845 -2.65282 7.07928 0
M  V30 8933 H 850.113 -3.80898 6.80101 0
M  V30 8934 N 854.342 -1.57594 -0.0133615 0
M  V30 8935 C 855.274 -2.04402 -1.03695 0
M  V30 8936 C 856.287 -0.959546 -1.31516 0
M  V30 8937 O 857.476 -1.23659 -1.28727 0
M  V30 8938 C 854.576 -2.41766 -2.37491 0
M  V30 8939 C 853.749 -3.72785 -2.28802 0
M  V30 8940 C 852.808 -3.97165 -3.45176 0
M  V30 8941 O 851.834 -4.68013 -3.23963 0
M  V30 8942 N 853.036 -3.44021 -4.67579 0
M  V30 8943 H 855.801 -2.92833 -0.637874 0
M  V30 8944 H 853.362 -1.60647 -0.20101 0
M  V30 8945 H 855.354 -2.55201 -3.14093 0
M  V30 8946 H 853.924 -1.58924 -2.69188 0
M  V30 8947 H 853.144 -3.69555 -1.37197 0
M  V30 8948 H 854.432 -4.58704 -2.20154 0
M  V30 8949 H 853.83 -2.86623 -4.87713 0
M  V30 8950 H 852.387 -3.62808 -5.41492 0
M  V30 8951 N 855.82 0.285905 -1.54985 0
M  V30 8952 C 857.05 1.03626 -1.78732 0
M  V30 8953 C 857.458 1.80896 -0.554377 0
M  V30 8954 O 856.801 1.77161 0.48578 0
M  V30 8955 C 856.863 2.05185 -2.95193 0
M  V30 8956 C 856.527 1.46973 -4.32722 0
M  V30 8957 C 857.524 0.891986 -5.12191 0
M  V30 8958 C 855.209 1.50081 -4.79355 0
M  V30 8959 C 857.203 0.353078 -6.36421 0
M  V30 8960 C 854.89 0.958037 -6.03544 0
M  V30 8961 C 855.888 0.385157 -6.81913 0
M  V30 8962 O 855.576 -0.149341 -8.03761 0
M  V30 8963 H 855.308 0.312416 -0.599477 0
M  V30 8964 H 857.862 0.326067 -2.02795 0
M  V30 8965 H 856.092 2.79928 -2.66791 0
M  V30 8966 H 857.781 2.66244 -3.0638 0
M  V30 8967 H 858.547 0.860762 -4.77301 0
M  V30 8968 H 854.426 1.9361 -4.18373 0
M  V30 8969 H 857.97 -0.0947181 -6.97536 0
M  V30 8970 H 853.867 0.986458 -6.37918 0
M  V30 8971 H 854.635 -0.0374719 -8.18491 0
M  V30 8972 N 857.298 1.47698 0.54982 0
M  V30 8973 C 858.575 1.45185 1.31075 0
M  V30 8974 C 858.955 0.152768 2.10547 0
M  V30 8975 O 858.303 -0.865706 2.11466 0
M  V30 8976 C 858.513 2.70192 2.20902 0
M  V30 8977 C 859.861 3.1771 2.81683 0
M  V30 8978 O 860.885 2.70971 2.312 0
M  V30 8979 O 859.744 3.98986 3.7346 0
M  V30 8980 H 856.838 0.57892 0.590577 0
M  V30 8981 H 859.384 1.59908 0.568112 0
M  V30 8982 H 858.156 3.56269 1.61828 0
M  V30 8983 H 857.779 2.58091 3.02448 0
M  V30 8984 N 858.776 -0.797141 1.35954 0
M  V30 8985 C 860.025 -1.54983 1.29086 0
M  V30 8986 C 860.338 -1.95167 -0.130003 0
M  V30 8987 O 861.544 -2.69596 -0.32101 0
M  V30 8988 C 860 -2.79738 2.26439 0
M  V30 8989 C 859.608 -2.46753 3.73921 0
M  V30 8990 C 861.352 -3.57733 2.28533 0
M  V30 8991 C 859.259 -3.67858 4.63071 0
M  V30 8992 H 858.189 -0.581766 0.479651 0
M  V30 8993 H 860.84 -0.87541 1.61273 0
M  V30 8994 H 859.222 -3.48939 1.87236 0
M  V30 8995 H 860.396 -1.85499 4.21814 0
M  V30 8996 H 858.711 -1.81985 3.74527 0
M  V30 8997 H 861.308 -4.47699 2.92351 0
M  V30 8998 H 861.651 -3.95754 1.29169 0
M  V30 8999 H 862.184 -2.95504 2.66313 0
M  V30 9000 H 858.923 -3.34939 5.63468 0
M  V30 9001 H 858.443 -4.28305 4.19898 0
M  V30 9002 H 860.122 -4.34977 4.78961 0
M  V30 9003 N 860.254 -1.20106 -1.0204 0
M  V30 9004 C 861.204 -0.914145 -2.08872 0
M  V30 9005 C 862.188 0.124503 -1.60418 0
M  V30 9006 O 863.38 -0.0823521 -1.76808 0
M  V30 9007 C 860.509 -0.463897 -3.40151 0
M  V30 9008 C 859.595 -1.53576 -3.95317 0
M  V30 9009 N 859.986 -2.75726 -4.24038 0
M  V30 9010 C 858.284 -1.40103 -4.23423 0
M  V30 9011 C 858.985 -3.44838 -4.68468 0
M  V30 9012 N 857.961 -2.72245 -4.70514 0
M  V30 9013 H 861.763 -1.8424 -2.28982 0
M  V30 9014 H 859.277 -1.0945 -1.19977 0
M  V30 9015 H 861.274 -0.239766 -4.1621 0
M  V30 9016 H 859.934 0.457779 -3.21457 0
M  V30 9017 H 860.945 -3.12412 -4.13061 0
M  V30 9018 H 857.622 -0.543472 -4.13948 0
M  V30 9019 H 859.012 -4.49342 -4.99541 0
M  V30 9020 N 861.732 1.21287 -1.00634 0
M  V30 9021 C 862.68 2.25733 -0.561026 0
M  V30 9022 C 863.674 1.64728 0.395095 0
M  V30 9023 O 864.88 1.78022 0.266141 0
M  V30 9024 H 861.255 0.734104 -0.163081 0
M  V30 9025 H 863.226 2.60631 -1.45307 0
M  V30 9026 C 861.975 3.47569 0.0952587 0
M  V30 9027 H 861.298 3.94782 -0.631427 0
M  V30 9028 H 862.738 4.22382 0.370105 0
M  V30 9029 C 861.197 3.09326 1.33488 0
M  V30 9030 O 861.727 3.19933 2.42912 0
M  V30 9031 N 859.933 2.63976 1.21512 0
M  V30 9032 H 859.48 2.55545 0.324741 0
M  V30 9033 H 859.438 2.38757 2.04555 0
M  V30 9034 N 863.21 0.781244 1.36873 0
M  V30 9035 C 864.14 0.188128 2.32741 0
M  V30 9036 C 865.121 -0.672326 1.56249 0
M  V30 9037 O 866.306 -0.607835 1.84442 0
M  V30 9038 C 863.436 -0.684341 3.40491 0
M  V30 9039 C 862.39 0.0755641 4.27933 0
M  V30 9040 C 861.716 -0.916968 5.26779 0
M  V30 9041 C 863.016 1.26006 5.06873 0
M  V30 9042 H 864.71 0.989016 2.82593 0
M  V30 9043 H 862.256 0.477038 1.35869 0
M  V30 9044 H 864.209 -1.10915 4.06541 0
M  V30 9045 H 862.933 -1.51785 2.89187 0
M  V30 9046 H 861.592 0.481258 3.63427 0
M  V30 9047 H 861.24 -1.74528 4.71751 0
M  V30 9048 H 860.94 -0.413 5.86147 0
M  V30 9049 H 862.464 -1.34052 5.95703 0
M  V30 9050 H 863.878 0.911425 5.66009 0
M  V30 9051 H 862.275 1.69676 5.75613 0
M  V30 9052 H 863.345 2.05948 4.38991 0
M  V30 9053 N 864.689 -1.48329 0.532571 0
M  V30 9054 C 865.919 -2.066 0.00353785 0
M  V30 9055 C 866.327 -1.38913 -1.28451 0
M  V30 9056 O 865.67 -0.471385 -1.77549 0
M  V30 9057 C 865.732 -3.58342 -0.288324 0
M  V30 9058 C 865.396 -4.47917 0.906631 0
M  V30 9059 C 866.393 -4.87534 1.80572 0
M  V30 9060 C 864.078 -4.89783 1.11436 0
M  V30 9061 C 866.072 -5.6779 2.89642 0
M  V30 9062 C 863.759 -5.69809 2.20819 0
M  V30 9063 C 864.757 -6.08721 3.09755 0
M  V30 9064 O 864.445 -6.8714 4.17246 0
M  V30 9065 H 864.177 -0.675263 0.0315661 0
M  V30 9066 H 866.731 -1.91669 0.738375 0
M  V30 9067 H 864.961 -3.71395 -1.07717 0
M  V30 9068 H 866.65 -3.98726 -0.759752 0
M  V30 9069 H 867.416 -4.5581 1.65719 0
M  V30 9070 H 863.295 -4.58977 0.431382 0
M  V30 9071 H 866.839 -5.98082 3.59087 0
M  V30 9072 H 862.736 -6.00947 2.35655 0
M  V30 9073 H 863.504 -7.05498 4.14988 0
M  V30 9074 N 866.167 -0.267825 -1.55308 0
M  V30 9075 C 867.415 0.350343 -1.9904 0
M  V30 9076 C 867.736 1.56924 -1.15758 0
M  V30 9077 O 867.006 1.94358 -0.245336 0
M  V30 9078 H 865.586 0.132435 -0.735167 0
M  V30 9079 H 868.248 -0.371471 -1.91327 0
M  V30 9080 H 867.344 0.645203 -3.05358 0
M  V30 9081 N 867.645 1.57599 0.00500368 0
M  V30 9082 C 868.875 1.94344 0.700998 0
M  V30 9083 C 869.283 0.868011 1.68114 0
M  V30 9084 O 868.626 -0.16214 1.82983 0
M  V30 9085 C 868.688 3.27046 1.49268 0
M  V30 9086 C 868.352 4.51992 0.674684 0
M  V30 9087 C 869.349 5.19888 -0.0354833 0
M  V30 9088 C 867.034 4.98432 0.622129 0
M  V30 9089 C 869.028 6.3252 -0.787246 0
M  V30 9090 C 866.715 6.10954 -0.133362 0
M  V30 9091 C 867.713 6.77855 -0.836788 0
M  V30 9092 O 867.401 7.88221 -1.57996 0
M  V30 9093 H 867.133 0.645572 0.20053 0
M  V30 9094 H 869.687 2.0536 -0.040718 0
M  V30 9095 H 867.917 3.12424 2.27877 0
M  V30 9096 H 869.606 3.4894 2.07355 0
M  V30 9097 H 870.372 4.85 -0.00400159 0
M  V30 9098 H 866.251 4.46189 1.15917 0
M  V30 9099 H 869.795 6.84671 -1.33683 0
M  V30 9100 H 865.692 6.45285 -0.166682 0
M  V30 9101 H 866.46 8.0471 -1.49615 0
M  V30 9102 N 869.123 -0.277682 1.55134 0
M  V30 9103 C 870.348 -1.03254 1.7987 0
M  V30 9104 C 870.773 -1.79324 0.567861 0
M  V30 9105 O 870.131 -1.74764 -0.4824 0
M  V30 9106 C 870.179 -1.9705 3.02 0
M  V30 9107 O 869.283 -3.05744 2.76757 0
M  V30 9108 H 868.624 -0.295447 0.594649 0
M  V30 9109 H 871.154 -0.308013 2.02268 0
M  V30 9110 H 871.164 -2.3909 3.30606 0
M  V30 9111 H 869.839 -1.41094 3.91236 0
M  V30 9112 H 868.416 -2.68052 2.59235 0
M  V30 9113 N 870.601 -1.47988 -0.541979 0
M  V30 9114 C 871.534 -1.56172 -1.66389 0
M  V30 9115 C 872.512 -0.412879 -1.57271 0
M  V30 9116 O 873.696 -0.622816 -1.77914 0
M  V30 9117 C 870.823 -1.47851 -3.04726 0
M  V30 9118 C 869.869 -2.67428 -3.32242 0
M  V30 9119 S 870.702 -4.29502 -3.19825 0
M  V30 9120 C 871.858 -4.2376 -4.60628 0
M  V30 9121 H 872.091 -2.51086 -1.59195 0
M  V30 9122 H 869.624 -1.36373 -0.724005 0
M  V30 9123 H 871.582 -1.43738 -3.84512 0
M  V30 9124 H 870.243 -0.542958 -3.09372 0
M  V30 9125 H 869.436 -2.57711 -4.33129 0
M  V30 9126 H 869.038 -2.68743 -2.60103 0
M  V30 9127 H 871.33 -3.92953 -5.51901 0
M  V30 9128 H 872.273 -5.24786 -4.75401 0
M  V30 9129 H 872.681 -3.54398 -4.39389 0
M  V30 9130 N 872.079 0.78992 -1.36375 0
M  V30 9131 C 873.042 1.88414 -1.30509 0
M  V30 9132 C 874.042 1.59384 -0.2129 0
M  V30 9133 O 875.232 1.67805 -0.467651 0
M  V30 9134 C 872.364 3.25188 -1.02302 0
M  V30 9135 H 873.557 1.95031 -2.27822 0
M  V30 9136 H 871.11 0.987664 -1.2114 0
M  V30 9137 H 871.845 3.24254 -0.0544486 0
M  V30 9138 H 871.63 3.47647 -1.81338 0
M  V30 9139 H 873.12 4.05252 -1.00801 0
M  V30 9140 N 873.557 1.20646 1.01402 0
M  V30 9141 C 874.803 1.0197 1.753 0
M  V30 9142 C 875.136 -0.446803 1.8899 0
M  V30 9143 O 874.411 -1.33169 1.41762 0
M  V30 9144 C 874.694 1.70693 3.17074 0
M  V30 9145 C 874.547 3.24805 3.11162 0
M  V30 9146 C 875.866 1.44212 4.15802 0
M  V30 9147 H 872.985 0.371844 0.636318 0
M  V30 9148 H 875.627 1.48696 1.18277 0
M  V30 9149 H 873.777 1.30968 3.65759 0
M  V30 9150 H 875.449 3.73841 2.70261 0
M  V30 9151 H 873.692 3.55576 2.48492 0
M  V30 9152 H 874.363 3.68049 4.11393 0
M  V30 9153 H 876.839 1.7868 3.75783 0
M  V30 9154 H 875.715 1.94825 5.13161 0
M  V30 9155 H 875.976 0.370252 4.40547 0
M  V30 9156 N 875.035 -1.20752 1.01276 0
M  V30 9157 C 875.998 -2.2162 0.584583 0
M  V30 9158 C 876.998 -1.57094 -0.343215 0
M  V30 9159 O 878.188 -1.73696 -0.132433 0
M  V30 9160 C 875.32 -3.40583 -0.146872 0
M  V30 9161 H 876.513 -2.61015 1.47686 0
M  V30 9162 H 874.066 -1.34148 0.802123 0
M  V30 9163 H 874.801 -3.06686 -1.05424 0
M  V30 9164 H 874.586 -3.88642 0.51958 0
M  V30 9165 H 876.076 -4.15339 -0.433924 0
M  V30 9166 N 876.513 -0.788492 -1.36457 0
M  V30 9167 C 877.741 -0.372365 -2.03522 0
M  V30 9168 C 878.156 1.01093 -1.59454 0
M  V30 9169 O 877.513 1.64824 -0.783535 0
M  V30 9170 C 877.564 -0.425435 -3.58988 0
M  V30 9171 O 877.285 -1.75418 -4.01448 0
M  V30 9172 C 878.786 0.000180167 -4.433 0
M  V30 9173 H 876.006 -0.1536 -0.653183 0
M  V30 9174 H 878.55 -1.06708 -1.74452 0
M  V30 9175 H 876.705 0.220856 -3.8677 0
M  V30 9176 H 877.119 -1.70437 -4.96036 0
M  V30 9177 H 878.593 -0.0880919 -5.5193 0
M  V30 9178 H 879.07 1.05269 -4.26398 0
M  V30 9179 H 879.676 -0.618563 -4.20778 0
M  V30 9180 N 877.991 1.48044 -0.54043 0
M  V30 9181 C 878.954 2.28273 0.205966 0
M  V30 9182 C 879.954 1.35983 0.858209 0
M  V30 9183 O 881.144 1.58776 0.716651 0
M  V30 9184 C 878.276 3.15174 1.29917 0
M  V30 9185 H 879.469 2.95727 -0.498555 0
M  V30 9186 H 877.022 1.53457 -0.296745 0
M  V30 9187 H 877.757 2.52374 2.03661 0
M  V30 9188 H 877.542 3.83074 0.836475 0
M  V30 9189 H 879.032 3.75666 1.82387 0
M  V30 9190 N 879.47 0.276058 1.55163 0
M  V30 9191 C 880.38 -0.621066 2.2623 0
M  V30 9192 C 881.396 -1.16931 1.28853 0
M  V30 9193 O 882.572 -1.1994 1.61791 0
M  V30 9194 C 879.637 -1.78824 2.97023 0
M  V30 9195 C 878.698 -1.27657 4.09881 0
M  V30 9196 C 877.931 -2.38812 4.77289 0
M  V30 9197 O 878.154 -3.58188 4.43912 0
M  V30 9198 O 877.088 -2.06915 5.65217 0
M  V30 9199 H 880.914 -0.0453346 3.03666 0
M  V30 9200 H 878.499 0.0434275 1.49337 0
M  V30 9201 H 880.381 -2.46877 3.41511 0
M  V30 9202 H 879.056 -2.35104 2.22503 0
M  V30 9203 H 877.963 -0.56248 3.69847 0
M  V30 9204 H 879.296 -0.759509 4.86305 0
M  V30 9205 N 880.948 -1.576 0.00335426 0
M  V30 9206 C 881.911 -2.07576 -0.971838 0
M  V30 9207 C 882.911 -0.985796 -1.27038 0
M  V30 9208 O 884.101 -1.24833 -1.21501 0
M  V30 9209 C 881.233 -2.52003 -2.29581 0
M  V30 9210 H 882.426 -2.95008 -0.539481 0
M  V30 9211 H 879.979 -1.54381 -0.244186 0
M  V30 9212 H 880.714 -1.67825 -2.77498 0
M  V30 9213 H 880.499 -3.31609 -2.09231 0
M  V30 9214 H 881.989 -2.90983 -2.99531 0
M  V30 9215 N 882.426 0.269451 -1.5528 0
M  V30 9216 C 883.389 1.31642 -1.87625 0
M  V30 9217 C 884.389 1.42182 -0.751058 0
M  V30 9218 O 885.579 1.41272 -1.01921 0
M  V30 9219 C 882.711 2.6973 -2.08467 0
M  V30 9220 H 883.904 1.0419 -2.81219 0
M  V30 9221 H 881.457 0.507685 -1.47825 0
M  V30 9222 H 882.192 3.02356 -1.17266 0
M  V30 9223 H 881.977 2.63465 -2.90394 0
M  V30 9224 H 883.467 3.4537 -2.34753 0
M  V30 9225 N 883.904 1.48273 0.534124 0
M  V30 9226 C 884.851 1.62487 1.6391 0
M  V30 9227 C 885.821 0.467062 1.59398 0
M  V30 9228 O 887.006 0.690029 1.77885 0
M  V30 9229 C 884.146 1.66671 3.02183 0
M  V30 9230 C 883.259 2.9353 3.16961 0
M  V30 9231 C 882.394 2.88902 4.45768 0
M  V30 9232 C 881.433 4.10483 4.54059 0
M  V30 9233 N 880.57 4.03956 5.74251 0
M  V30 9234 H 885.41 2.56851 1.51101 0
M  V30 9235 H 882.947 1.27381 0.735704 0
M  V30 9236 H 884.905 1.67079 3.82283 0
M  V30 9237 H 883.535 0.758011 3.13774 0
M  V30 9238 H 882.587 3.02886 2.3014 0
M  V30 9239 H 883.899 3.83501 3.18949 0
M  V30 9240 H 883.053 2.87688 5.34154 0
M  V30 9241 H 881.792 1.96652 4.46295 0
M  V30 9242 H 880.797 4.11977 3.64081 0
M  V30 9243 H 882.022 5.03887 4.55274 0
M  V30 9244 H 879.968 3.14525 5.75682 0
M  V30 9245 H 879.885 4.87628 5.77715 0
M  V30 9246 H 881.153 4.06795 6.64935 0
M  V30 9247 N 885.382 -0.782676 1.36792 0
M  V30 9248 C 886.61 -1.57162 1.34565 0
M  V30 9249 C 887.025 -1.88664 -0.0715501 0
M  V30 9250 O 886.382 -1.50633 -1.03033 0
M  V30 9251 C 886.433 -2.88854 2.1736 0
M  V30 9252 O 886.154 -2.58707 3.53557 0
M  V30 9253 C 887.655 -3.83132 2.2299 0
M  V30 9254 H 884.875 -0.487245 0.461338 0
M  V30 9255 H 887.419 -0.970905 1.79982 0
M  V30 9256 H 885.574 -3.45377 1.7548 0
M  V30 9257 H 885.988 -3.42961 3.96835 0
M  V30 9258 H 887.462 -4.72575 2.85266 0
M  V30 9259 H 887.939 -4.21472 1.23524 0
M  V30 9260 H 888.545 -3.32541 2.65135 0
M  V30 9261 N 886.86 -1.21182 -1.00761 0
M  V30 9262 C 888.106 -1.02898 -1.74756 0
M  V30 9263 C 888.439 0.436774 -1.89225 0
M  V30 9264 O 887.714 1.32415 -1.42466 0
M  V30 9265 C 887.997 -1.72372 -3.16164 0
M  V30 9266 C 887.85 -3.2645 -3.09435 0
M  V30 9267 C 889.169 -1.46415 -4.15031 0
M  V30 9268 H 886.288 -0.375214 -0.634337 0
M  V30 9269 H 888.93 -1.49321 -1.17487 0
M  V30 9270 H 887.08 -1.32906 -3.65059 0
M  V30 9271 H 888.752 -3.75269 -2.68274 0
M  V30 9272 H 886.995 -3.56889 -2.46603 0
M  V30 9273 H 887.666 -3.70226 -4.09435 0
M  V30 9274 H 890.142 -1.80671 -3.7483 0
M  V30 9275 H 889.018 -1.97544 -5.12121 0
M  V30 9276 H 889.279 -0.39361 -4.40344 0
M  V30 9277 N 888.338 1.20213 -1.01915 0
M  V30 9278 C 889.585 1.89647 -0.709955 0
M  V30 9279 C 889.913 1.7901 0.760631 0
M  V30 9280 O 889.168 1.17028 1.56853 0
M  V30 9281 C 889.467 3.40232 -1.09438 0
M  V30 9282 C 889.133 3.7107 -2.5616 0
M  V30 9283 C 887.795 3.79196 -2.96249 0
M  V30 9284 C 890.147 3.85169 -3.51133 0
M  V30 9285 C 887.475 3.98882 -4.30244 0
M  V30 9286 C 889.827 4.06365 -4.8482 0
M  V30 9287 C 888.491 4.12722 -5.24611 0
M  V30 9288 H 887.761 0.693967 -0.259791 0
M  V30 9289 H 890.408 1.42419 -1.2802 0
M  V30 9290 H 888.713 3.89292 -0.442596 0
M  V30 9291 H 890.41 3.92257 -0.832811 0
M  V30 9292 H 887 3.65346 -2.24099 0
M  V30 9293 H 891.184 3.78243 -3.21319 0
M  V30 9294 H 886.44 4.02039 -4.60624 0
M  V30 9295 H 890.614 4.16216 -5.58334 0
M  V30 9296 H 888.241 4.27728 -6.28453 0
M  V30 9297 N 889.816 0.795718 1.36037 0
M  V30 9298 C 891.227 0.433379 1.816 0
M  V30 9299 C 891.578 -1.04341 1.66155 0
M  V30 9300 O 890.703 -1.81004 1.18603 0
M  V30 9301 C 891.298 0.77985 3.29703 0
M  V30 9302 C 889.857 0.470256 3.73451 0
M  V30 9303 C 889.004 1.01119 2.58206 0
M  V30 9304 H 891.955 0.988317 1.24169 0
M  V30 9305 H 891.976 0.0732898 3.80429 0
M  V30 9306 H 891.488 1.85473 3.40913 0
M  V30 9307 H 889.589 -0.596332 3.67797 0
M  V30 9308 H 889.702 0.995276 4.68648 0
M  V30 9309 H 888.066 0.434077 2.50974 0
M  V30 9310 H 888.849 2.09196 2.72198 0
M  V30 9311 N 891.294 -1.47756 0.548274 0
M  V30 9312 C 892.242 -2.3158 -0.217584 0
M  V30 9313 C 893.236 -1.42372 -0.917957 0
M  V30 9314 O 894.442 -1.59184 -0.840259 0
M  V30 9315 H 890.817 -0.74671 -0.0890388 0
M  V30 9316 H 892.788 -2.94032 0.508719 0
M  V30 9317 C 891.537 -3.24834 -1.24008 0
M  V30 9318 H 890.86 -3.93435 -0.710572 0
M  V30 9319 H 892.3 -3.86336 -1.74701 0
M  V30 9320 C 890.759 -2.47724 -2.2833 0
M  V30 9321 O 891.289 -2.21522 -3.35098 0
M  V30 9322 N 889.495 -2.08891 -2.02022 0
M  V30 9323 H 889.042 -2.30401 -1.1521 0
M  V30 9324 H 889 -1.57613 -2.7204 0
M  V30 9325 N 892.772 -0.284283 -1.55015 0
M  V30 9326 C 893.719 0.599194 -2.22886 0
M  V30 9327 C 894.689 1.14264 -1.20553 0
M  V30 9328 O 895.874 1.19025 -1.49123 0
M  V30 9329 C 893.014 1.77317 -2.96062 0
M  V30 9330 C 892.127 1.26271 -4.13134 0
M  V30 9331 C 891.262 2.39922 -4.73931 0
M  V30 9332 C 890.301 1.85925 -5.8318 0
M  V30 9333 N 889.438 2.93084 -6.38002 0
M  V30 9334 H 894.278 0.0137816 -2.97997 0
M  V30 9335 H 891.815 -0.00496503 -1.47099 0
M  V30 9336 H 893.773 2.46339 -3.36709 0
M  V30 9337 H 892.403 2.33047 -2.23358 0
M  V30 9338 H 891.455 0.465296 -3.77544 0
M  V30 9339 H 892.767 0.827284 -4.91892 0
M  V30 9340 H 891.921 3.1692 -5.17346 0
M  V30 9341 H 890.66 2.86784 -3.9447 0
M  V30 9342 H 889.665 1.07409 -5.39206 0
M  V30 9343 H 890.89 1.39987 -6.64515 0
M  V30 9344 H 888.836 3.3931 -5.61431 0
M  V30 9345 H 888.753 2.53986 -7.12058 0
M  V30 9346 H 890.021 3.7003 -6.86075 0
M  V30 9347 N 894.251 1.57596 -0.0117121 0
M  V30 9348 C 895.667 1.55837 0.344506 0
M  V30 9349 C 895.867 1.01557 1.74036 0
M  V30 9350 O 894.923 0.654563 2.43868 0
M  V30 9351 C 896.236 2.99973 0.209023 0
M  V30 9352 C 897.784 3.11717 0.283092 0
M  V30 9353 C 898.259 4.57659 0.176599 0
M  V30 9354 N 899.75 4.62608 0.234133 0
M  V30 9355 C 900.485 5.73132 0.175252 0
M  V30 9356 N 899.981 6.92768 0.0662888 0
M  V30 9357 N 901.774 5.61638 0.227972 0
M  V30 9358 H 893.925 1.91215 -0.924692 0
M  V30 9359 H 896.188 0.878807 -0.355531 0
M  V30 9360 H 895.894 3.4357 -0.751826 0
M  V30 9361 H 895.768 3.64075 0.98635 0
M  V30 9362 H 898.155 2.68043 1.23439 0
M  V30 9363 H 898.236 2.50369 -0.52431 0
M  V30 9364 H 897.88 5.02011 -0.771205 0
M  V30 9365 H 897.81 5.16967 1.00264 0
M  V30 9366 H 900.301 3.76549 0.319203 0
M  V30 9367 H 900.614 7.72795 0.0275765 0
M  V30 9368 H 898.959 6.94993 0.0317502 0
M  V30 9369 H 902.15 4.67063 0.311377 0
M  V30 9370 H 902.323 6.47754 0.178621 0
M  V30 9371 N 895.729 -0.261212 1.5542 0
M  V30 9372 C 896.954 -1.01341 1.80955 0
M  V30 9373 C 897.379 -1.78711 0.586849 0
M  V30 9374 O 896.737 -1.75266 -0.463837 0
M  V30 9375 C 896.785 -1.93835 3.04073 0
M  V30 9376 O 895.889 -3.02791 2.79985 0
M  V30 9377 H 895.23 -0.289123 0.597749 0
M  V30 9378 H 897.76 -0.286543 2.02584 0
M  V30 9379 H 897.77 -2.3557 3.33123 0
M  V30 9380 H 896.445 -1.36936 3.9271 0
M  V30 9381 H 895.022 -2.65287 2.62063 0
M  V30 9382 N 897.207 -1.48554 -0.526253 0
M  V30 9383 C 898.454 -1.56761 -1.28188 0
M  V30 9384 C 898.782 -0.24315 -1.92974 0
M  V30 9385 O 898.037 0.766883 -1.80048 0
M  V30 9386 C 898.336 -2.65739 -2.38993 0
M  V30 9387 C 898.002 -4.08057 -1.91834 0
M  V30 9388 C 896.664 -4.46792 -1.78691 0
M  V30 9389 C 899.016 -4.9723 -1.56242 0
M  V30 9390 C 896.344 -5.72501 -1.28296 0
M  V30 9391 C 898.696 -6.23432 -1.07309 0
M  V30 9392 C 897.36 -6.6102 -0.927853 0
M  V30 9393 H 896.63 -0.573631 -0.469072 0
M  V30 9394 H 899.277 -1.82287 -0.586842 0
M  V30 9395 H 897.582 -2.34088 -3.14181 0
M  V30 9396 H 899.279 -2.69304 -2.97113 0
M  V30 9397 H 895.869 -3.77469 -2.03016 0
M  V30 9398 H 900.053 -4.67979 -1.65255 0
M  V30 9399 H 895.309 -6.00345 -1.15742 0
M  V30 9400 H 899.483 -6.91923 -0.788412 0
M  V30 9401 H 897.11 -7.58314 -0.535162 0
M  V30 9402 N 898.685 0.775411 -1.37205 0
M  V30 9403 C 899.934 1.52909 -1.31536 0
M  V30 9404 C 900.247 1.9535 0.0989374 0
M  V30 9405 O 901.453 2.70072 0.278079 0
M  V30 9406 C 899.909 2.761 -2.30861 0
M  V30 9407 C 899.517 2.40773 -3.77799 0
M  V30 9408 C 901.261 3.54052 -2.34195 0
M  V30 9409 C 899.168 3.60444 -4.68865 0
M  V30 9410 H 898.098 0.574061 -0.488845 0
M  V30 9411 H 900.749 0.849642 -1.62645 0
M  V30 9412 H 899.131 3.45916 -1.92764 0
M  V30 9413 H 900.305 1.78764 -4.24712 0
M  V30 9414 H 898.62 1.76004 -3.77375 0
M  V30 9415 H 901.217 4.42992 -2.99437 0
M  V30 9416 H 901.56 3.93649 -1.35449 0
M  V30 9417 H 902.093 2.91229 -2.7098 0
M  V30 9418 H 898.832 3.25932 -5.68725 0
M  V30 9419 H 898.352 4.21571 -4.26659 0
M  V30 9420 H 900.031 4.27302 -4.85821 0
M  V30 9421 N 900.163 1.21714 1.00117 0
M  V30 9422 C 901.093 1.00397 2.10815 0
M  V30 9423 C 902.074 -0.0723502 1.69946 0
M  V30 9424 O 903.259 0.0882398 1.93999 0
M  V30 9425 C 900.389 0.572001 3.42557 0
M  V30 9426 C 899.343 1.59331 3.97237 0
M  V30 9427 C 898.669 1.01746 5.2493 0
M  V30 9428 C 899.969 2.98117 4.28863 0
M  V30 9429 H 901.663 1.92983 2.28906 0
M  V30 9430 H 899.209 0.929273 1.10002 0
M  V30 9431 H 901.162 0.410018 4.19401 0
M  V30 9432 H 899.886 -0.38951 3.24269 0
M  V30 9433 H 898.545 1.74293 3.22518 0
M  V30 9434 H 898.193 0.0475491 5.02978 0
M  V30 9435 H 897.893 1.69969 5.62481 0
M  V30 9436 H 899.417 0.866881 6.04415 0
M  V30 9437 H 900.831 2.86578 4.96534 0
M  V30 9438 H 899.228 3.63389 4.77565 0
M  V30 9439 H 900.298 3.48674 3.36979 0
M  V30 9440 N 901.641 -1.19671 1.02551 0
M  V30 9441 C 902.869 -1.93233 0.739513 0
M  V30 9442 C 903.284 -1.75298 -0.701158 0
M  V30 9443 O 902.641 -1.07269 -1.47647 0
M  V30 9444 C 902.692 -3.45085 1.07697 0
M  V30 9445 O 902.413 -3.62441 2.46106 0
M  V30 9446 C 903.914 -4.35776 0.813298 0
M  V30 9447 H 901.134 -0.613905 0.270853 0
M  V30 9448 H 903.678 -1.51909 1.36909 0
M  V30 9449 H 901.833 -3.84255 0.492635 0
M  V30 9450 H 902.247 -4.56337 2.58567 0
M  V30 9451 H 903.721 -5.40941 1.09941 0
M  V30 9452 H 904.198 -4.38474 -0.252359 0
M  V30 9453 H 904.804 -4.02282 1.38021 0
M  V30 9454 N 903.119 -0.802921 -1.35613 0
M  V30 9455 C 904.535 -0.486214 -1.52014 0
M  V30 9456 C 904.735 0.993219 -1.75321 0
M  V30 9457 O 903.791 1.77835 -1.79251 0
M  V30 9458 C 905.104 -1.32839 -2.69767 0
M  V30 9459 C 906.652 -1.32346 -2.83643 0
M  V30 9460 C 907.127 -2.14967 -4.04417 0
M  V30 9461 N 908.618 -2.12484 -4.11588 0
M  V30 9462 C 909.353 -2.73173 -5.04147 0
M  V30 9463 N 908.849 -3.42774 -6.02061 0
M  V30 9464 N 910.642 -2.62834 -4.96865 0
M  V30 9465 H 902.793 -1.76109 -1.18741 0
M  V30 9466 H 905.056 -0.74936 -0.580658 0
M  V30 9467 H 904.762 -2.37813 -2.5911 0
M  V30 9468 H 904.636 -0.979058 -3.64272 0
M  V30 9469 H 907.023 -0.281586 -2.93753 0
M  V30 9470 H 907.104 -1.71264 -1.90006 0
M  V30 9471 H 906.748 -3.19193 -3.95068 0
M  V30 9472 H 906.678 -1.73411 -4.97228 0
M  V30 9473 H 909.169 -1.61839 -3.41492 0
M  V30 9474 H 909.482 -3.86378 -6.69277 0
M  V30 9475 H 907.827 -3.46878 -6.02246 0
M  V30 9476 H 911.018 -2.08049 -4.19325 0
M  V30 9477 H 911.191 -3.10421 -5.68808 0
M  V30 9478 N 904.597 1.47463 -0.556102 0
M  V30 9479 C 905.822 2.07371 -0.0344729 0
M  V30 9480 C 906.247 1.40621 1.2493 0
M  V30 9481 O 905.605 0.48082 1.74808 0
M  V30 9482 C 905.653 3.60306 0.145563 0
M  V30 9483 O 904.757 3.94299 1.20839 0
M  V30 9484 H 904.098 0.662052 -0.0508274 0
M  V30 9485 H 906.628 1.89498 -0.771469 0
M  V30 9486 H 906.638 4.06408 0.360112 0
M  V30 9487 H 905.313 4.08288 -0.792089 0
M  V30 9488 H 903.89 3.59944 0.97442 0
M  V30 9489 N 906.075 0.2925 1.54862 0
M  V30 9490 C 907.303 -0.322113 2.04377 0
M  V30 9491 C 907.718 -1.48164 1.17016 0
M  V30 9492 O 907.075 -1.81466 0.19395 0
M  V30 9493 C 907.126 -0.786506 3.5284 0
M  V30 9494 O 906.847 0.326863 4.36879 0
M  V30 9495 C 908.348 -1.46715 4.18318 0
M  V30 9496 H 905.568 -0.0712074 0.667211 0
M  V30 9497 H 908.112 0.429657 1.99935 0
M  V30 9498 H 906.267 -1.48832 3.5767 0
M  V30 9499 H 906.681 -0.0331558 5.2449 0
M  V30 9500 H 908.155 -1.74333 5.23748 0
M  V30 9501 H 908.632 -2.40443 3.67538 0
M  V30 9502 H 909.238 -0.808735 4.1754 0
M  V30 9503 N 907.553 -1.57587 0.0200696 0
M  V30 9504 C 908.8 -1.91424 -0.660525 0
M  V30 9505 C 909.128 -0.895626 -1.72652 0
M  V30 9506 O 908.383 0.096771 -1.95461 0
M  V30 9507 C 908.682 -3.32002 -1.32323 0
M  V30 9508 C 908.348 -4.49223 -0.388487 0
M  V30 9509 C 907.01 -4.81021 -0.131184 0
M  V30 9510 C 909.362 -5.20581 0.253906 0
M  V30 9511 C 906.69 -5.81539 0.776471 0
M  V30 9512 C 909.042 -6.22067 1.14956 0
M  V30 9513 C 907.706 -6.52311 1.41584 0
M  V30 9514 H 906.976 -0.700472 -0.241703 0
M  V30 9515 H 909.623 -1.91333 0.0798991 0
M  V30 9516 H 907.928 -3.28312 -2.13819 0
M  V30 9517 H 909.625 -3.5545 -1.85623 0
M  V30 9518 H 906.215 -4.24391 -0.599207 0
M  V30 9519 H 910.399 -4.96253 0.068164 0
M  V30 9520 H 905.655 -6.03322 0.990575 0
M  V30 9521 H 909.829 -6.76484 1.65357 0
M  V30 9522 H 907.456 -7.30017 2.12083 0
M  V30 9523 N 909.032 0.252966 -1.55557 0
M  V30 9524 C 909.995 1.29645 -1.8901 0
M  V30 9525 C 910.995 1.41378 -0.766096 0
M  V30 9526 O 912.185 1.40183 -1.03414 0
M  V30 9527 C 909.317 2.67504 -2.11316 0
M  V30 9528 H 910.51 1.01202 -2.82309 0
M  V30 9529 H 908.063 0.491977 -1.48355 0
M  V30 9530 H 908.798 3.01095 -1.20466 0
M  V30 9531 H 908.583 2.6037 -2.93172 0
M  V30 9532 H 910.073 3.42861 -2.38403 0
M  V30 9533 N 910.51 1.48831 0.518367 0
M  V30 9534 C 911.758 1.57128 1.27103 0
M  V30 9535 C 912.079 0.252098 1.93364 0
M  V30 9536 O 911.349 -0.727281 1.819 0
M  V30 9537 H 909.929 0.578891 0.472116 0
M  V30 9538 H 912.591 1.85361 0.602262 0
M  V30 9539 H 911.687 2.35838 2.04418 0
M  V30 9540 N 911.988 -0.768124 1.37614 0
M  V30 9541 C 913.213 -1.56239 1.36397 0
M  V30 9542 C 913.638 -1.8804 -0.0475839 0
M  V30 9543 O 912.996 -1.495 -1.02564 0
M  V30 9544 C 913.044 -2.84716 2.21289 0
M  V30 9545 O 912.148 -3.79249 1.62001 0
M  V30 9546 H 911.489 -0.473119 0.465891 0
M  V30 9547 H 914.019 -0.950415 1.81186 0
M  V30 9548 H 914.029 -3.33784 2.34632 0
M  V30 9549 H 912.704 -2.60899 3.2389 0
M  V30 9550 H 911.281 -3.37904 1.57719 0
M  V30 9551 N 913.466 -1.22244 -0.994698 0
M  V30 9552 C 914.714 -1.04384 -1.73056 0
M  V30 9553 C 915.035 0.422204 -1.90374 0
M  V30 9554 O 914.305 1.30383 -1.46209 0
M  V30 9555 H 912.885 -0.383263 -0.641185 0
M  V30 9556 H 915.547 -1.53725 -1.1981 0
M  V30 9557 H 914.643 -1.52021 -2.72573 0
M  V30 9558 N 914.944 1.19125 -1.03184 0
M  V30 9559 C 915.891 2.2245 -0.6152 0
M  V30 9560 C 916.861 1.61869 0.372502 0
M  V30 9561 O 918.046 1.88901 0.268491 0
M  V30 9562 C 915.186 3.45091 0.0248027 0
M  V30 9563 C 914.299 4.20044 -1.0093 0
M  V30 9564 C 913.434 5.30119 -0.338744 0
M  V30 9565 C 912.473 5.96833 -1.35855 0
M  V30 9566 N 911.61 6.98464 -0.713594 0
M  V30 9567 H 916.45 2.57445 -1.50086 0
M  V30 9568 H 913.987 1.26485 -0.751005 0
M  V30 9569 H 915.945 4.15149 0.413131 0
M  V30 9570 H 914.575 3.10742 0.874028 0
M  V30 9571 H 913.627 3.48901 -1.51566 0
M  V30 9572 H 914.939 4.65796 -1.78425 0
M  V30 9573 H 914.093 6.0661 0.104269 0
M  V30 9574 H 912.832 4.85446 0.468382 0
M  V30 9575 H 911.837 5.1909 -1.81179 0
M  V30 9576 H 913.062 6.4359 -2.16722 0
M  V30 9577 H 911.008 6.55959 0.0733863 0
M  V30 9578 H 910.925 7.42422 -1.42638 0
M  V30 9579 H 912.193 7.78943 -0.294681 0
M  V30 9580 N 916.422 0.810101 1.35185 0
M  V30 9581 C 917.669 0.392117 1.98667 0
M  V30 9582 C 917.997 -1.0416 1.64259 0
M  V30 9583 O 917.252 -1.73795 0.899647 0
M  V30 9584 C 917.551 0.526561 3.535 0
M  V30 9585 C 917.217 1.92411 4.07785 0
M  V30 9586 C 915.879 2.30644 4.22323 0
M  V30 9587 C 918.231 2.83827 4.37141 0
M  V30 9588 C 915.559 3.59655 4.63536 0
M  V30 9589 C 917.911 4.12287 4.79794 0
M  V30 9590 C 916.575 4.50515 4.92536 0
M  V30 9591 H 915.845 0.143486 0.726975 0
M  V30 9592 H 918.492 1.03157 1.61341 0
M  V30 9593 H 916.797 -0.19633 3.91308 0
M  V30 9594 H 918.494 0.183871 4.00578 0
M  V30 9595 H 915.084 1.61707 3.96924 0
M  V30 9596 H 919.268 2.55536 4.25459 0
M  V30 9597 H 914.524 3.89117 4.71591 0
M  V30 9598 H 918.698 4.83221 5.01468 0
M  V30 9599 H 916.325 5.50535 5.24229 0
M  V30 9600 N 917.9 -1.47166 0.563914 0
M  V30 9601 C 918.863 -2.28571 -0.169624 0
M  V30 9602 C 919.863 -1.37331 -0.836467 0
M  V30 9603 O 921.053 -1.59896 -0.6913 0
M  V30 9604 C 918.185 -3.17201 -1.24886 0
M  V30 9605 H 919.378 -2.94896 0.545539 0
M  V30 9606 H 916.931 -1.52966 0.321121 0
M  V30 9607 H 917.666 -2.55582 -1.99621 0
M  V30 9608 H 917.451 -3.84356 -0.775426 0
M  V30 9609 H 918.941 -3.7852 -1.76388 0
M  V30 9610 N 919.378 -0.300708 -1.54705 0
M  V30 9611 C 920.341 0.562648 -2.22187 0
M  V30 9612 C 921.341 1.06152 -1.20782 0
M  V30 9613 O 922.531 0.957596 -1.45519 0
M  V30 9614 C 919.663 1.77899 -2.908 0
M  V30 9615 H 920.856 -0.0269361 -2.99888 0
M  V30 9616 H 918.409 -0.0515412 -1.56215 0
M  V30 9617 H 919.144 2.40841 -2.17177 0
M  V30 9618 H 918.929 1.42892 -3.65136 0
M  V30 9619 H 920.419 2.39236 -3.42281 0
M  V30 9620 N 920.856 1.57574 -0.0284266 0
M  V30 9621 C 921.806 2.06674 0.962804 0
M  V30 9622 C 922.79 0.967115 1.28591 0
M  V30 9623 O 923.982 1.23068 1.27214 0
M  V30 9624 C 921.111 2.59682 2.24545 0
M  V30 9625 C 920.197 3.76573 1.95073 0
M  V30 9626 N 920.588 4.8721 1.35869 0
M  V30 9627 C 918.886 3.85046 2.25068 0
M  V30 9628 C 919.587 5.68436 1.23514 0
M  V30 9629 N 918.563 5.15323 1.73041 0
M  V30 9630 H 922.365 2.89615 0.500013 0
M  V30 9631 H 919.879 1.61437 0.176604 0
M  V30 9632 H 921.876 2.93148 2.96428 0
M  V30 9633 H 920.536 1.7817 2.71451 0
M  V30 9634 H 921.547 5.07477 1.03379 0
M  V30 9635 H 918.224 3.14439 2.74653 0
M  V30 9636 H 919.614 6.67387 0.777403 0
M  V30 9637 N 922.334 -0.244713 1.55689 0
M  V30 9638 C 923.58 -0.969623 1.78801 0
M  V30 9639 C 923.935 -1.8288 0.597716 0
M  V30 9640 O 923.228 -1.87184 -0.408978 0
M  V30 9641 C 923.422 -1.8617 3.05083 0
M  V30 9642 C 923.251 -1.09036 4.36281 0
M  V30 9643 C 922.021 -0.794585 4.99013 0
M  V30 9644 C 924.219 -0.466883 5.12176 0
M  V30 9645 N 922.201 0.000579944 6.139 0
M  V30 9646 C 923.572 0.192755 6.197 0
M  V30 9647 C 925.627 -0.377571 4.96466 0
M  V30 9648 C 924.33 0.933132 7.13222 0
M  V30 9649 C 926.356 0.349281 5.90368 0
M  V30 9650 C 925.718 0.997549 6.97301 0
M  V30 9651 H 921.817 -0.335845 0.70621 0
M  V30 9652 H 924.401 -0.242559 1.93183 0
M  V30 9653 H 922.572 -2.56077 2.92026 0
M  V30 9654 H 924.304 -2.52234 3.16481 0
M  V30 9655 H 921.059 -1.10691 4.60483 0
M  V30 9656 H 921.483 0.38632 6.75897 0
M  V30 9657 H 926.125 -0.86443 4.13869 0
M  V30 9658 H 923.843 1.43159 7.95318 0
M  V30 9659 H 927.429 0.419082 5.80289 0
M  V30 9660 H 926.309 1.551 7.68709 0
M  V30 9661 N 923.813 -1.49104 -0.510467 0
M  V30 9662 C 924.743 -1.67981 -1.62187 0
M  V30 9663 C 925.724 -0.528529 -1.6168 0
M  V30 9664 O 926.909 -0.763305 -1.7857 0
M  V30 9665 C 924.039 -1.73755 -3.0071 0
M  V30 9666 C 922.993 -2.88579 -3.1608 0
M  V30 9667 C 922.319 -2.79457 -4.5586 0
M  V30 9668 C 923.619 -4.29638 -2.97 0
M  V30 9669 H 925.313 -2.61029 -1.46643 0
M  V30 9670 H 922.859 -1.25615 -0.704042 0
M  V30 9671 H 924.812 -1.85548 -3.78352 0
M  V30 9672 H 923.536 -0.772996 -3.17321 0
M  V30 9673 H 922.195 -2.76372 -2.40861 0
M  V30 9674 H 921.843 -1.80929 -4.69333 0
M  V30 9675 H 921.543 -3.56518 -4.67086 0
M  V30 9676 H 923.067 -2.93245 -5.35574 0
M  V30 9677 H 924.481 -4.42575 -3.64418 0
M  V30 9678 H 922.878 -5.07847 -3.19704 0
M  V30 9679 H 923.948 -4.44741 -1.93219 0
M  V30 9680 N 925.291 0.760815 -1.38019 0
M  V30 9681 C 926.539 1.51673 -1.33566 0
M  V30 9682 C 926.86 1.94852 0.076024 0
M  V30 9683 O 926.13 1.67112 1.02227 0
M  V30 9684 H 924.71 0.562581 -0.491438 0
M  V30 9685 H 927.372 0.904832 -1.72623 0
M  V30 9686 H 926.468 2.41102 -1.98182 0
M  V30 9687 N 926.769 1.22769 0.988202 0
M  V30 9688 C 928.046 0.9635 1.70223 0
M  V30 9689 C 928.426 -0.520102 2.04593 0
M  V30 9690 O 927.774 -1.48934 1.73295 0
M  V30 9691 C 927.984 1.86583 2.94937 0
M  V30 9692 C 929.332 2.12469 3.67616 0
M  V30 9693 O 930.356 1.84069 3.04954 0
M  V30 9694 O 929.215 2.60595 4.80367 0
M  V30 9695 H 926.309 0.362737 0.743203 0
M  V30 9696 H 928.855 1.33776 1.04412 0
M  V30 9697 H 927.627 2.86913 2.66077 0
M  V30 9698 H 927.25 1.49344 3.68486 0
M  V30 9699 N 928.247 -1.18576 1.03814 0
M  V30 9700 C 929.195 -2.24166 0.620678 0
M  V30 9701 C 930.189 -1.65718 -0.351282 0
M  V30 9702 O 931.395 -1.78665 -0.218848 0
M  V30 9703 H 927.77 -0.729522 0.182487 0
M  V30 9704 H 929.741 -2.56686 1.52166 0
M  V30 9705 C 928.49 -3.477 -0.00307331 0
M  V30 9706 H 927.813 -3.92969 0.735874 0
M  V30 9707 H 929.253 -4.23214 -0.257988 0
M  V30 9708 C 927.712 -3.12757 -1.2524 0
M  V30 9709 O 928.242 -3.26261 -2.34344 0
M  V30 9710 N 926.448 -2.67104 -1.14471 0
M  V30 9711 H 925.995 -2.56316 -0.256873 0
M  V30 9712 H 925.953 -2.44096 -1.98153 0
M  V30 9713 N 929.725 -0.817259 -1.34754 0
M  V30 9714 C 930.953 -0.415451 -2.02686 0
M  V30 9715 C 931.368 0.97688 -1.61563 0
M  V30 9716 O 930.725 1.63125 -0.818321 0
M  V30 9717 C 930.776 -0.501486 -3.58005 0
M  V30 9718 O 930.497 -1.83893 -3.97637 0
M  V30 9719 C 931.998 -0.0938504 -4.43201 0
M  V30 9720 H 929.218 -0.16742 -0.649778 0
M  V30 9721 H 931.762 -1.10384 -1.7215 0
M  V30 9722 H 929.917 0.138766 -3.87151 0
M  V30 9723 H 930.331 -1.8092 -4.92309 0
M  V30 9724 H 931.805 -0.205145 -5.51619 0
M  V30 9725 H 932.282 0.962011 -4.28535 0
M  V30 9726 H 932.888 -0.707677 -4.19371 0
M  V30 9727 N 931.203 1.46865 -0.571711 0
M  V30 9728 C 932.166 2.28658 0.157499 0
M  V30 9729 C 933.166 1.37773 0.829172 0
M  V30 9730 O 934.356 1.6026 0.682811 0
M  V30 9731 C 931.488 3.17859 1.23202 0
M  V30 9732 H 932.681 2.94603 -0.561171 0
M  V30 9733 H 930.234 1.52793 -0.329229 0
M  V30 9734 H 930.969 2.56637 1.98262 0
M  V30 9735 H 930.754 3.84762 0.755031 0
M  V30 9736 H 932.244 3.7945 1.74378 0
M  V30 9737 N 932.681 0.308908 1.54543 0
M  V30 9738 C 933.909 -0.300418 2.04707 0
M  V30 9739 C 934.324 -1.46915 1.18581 0
M  V30 9740 O 933.681 -1.81251 0.213186 0
M  V30 9741 C 933.732 -0.749038 3.53655 0
M  V30 9742 O 933.453 0.373181 4.36508 0
M  V30 9743 C 934.954 -1.4227 4.1985 0
M  V30 9744 H 932.174 -0.0641267 0.667929 0
M  V30 9745 H 934.718 0.450839 1.99469 0
M  V30 9746 H 932.873 -1.4503 3.59228 0
M  V30 9747 H 933.287 0.0224752 5.24495 0
M  V30 9748 H 934.761 -1.68768 5.25568 0
M  V30 9749 H 935.238 -2.36531 3.70067 0
M  V30 9750 H 935.844 -0.764404 4.18374 0
M  V30 9751 N 934.159 -1.57557 0.0367827 0
M  V30 9752 C 935.405 -1.93224 -0.635306 0
M  V30 9753 C 935.76 -0.914194 -1.69293 0
M  V30 9754 O 935.053 0.0686974 -1.91477 0
M  V30 9755 C 935.247 -3.33387 -1.28794 0
M  V30 9756 C 935.076 -4.48731 -0.295055 0
M  V30 9757 C 933.846 -5.05185 0.10783 0
M  V30 9758 C 936.044 -5.12294 0.453749 0
M  V30 9759 N 934.026 -6.04054 1.09508 0
M  V30 9760 C 935.397 -6.06335 1.29452 0
M  V30 9761 C 937.452 -4.95244 0.513622 0
M  V30 9762 C 936.155 -6.85158 2.18977 0
M  V30 9763 C 938.181 -5.74682 1.39624 0
M  V30 9764 C 937.543 -6.68344 2.22477 0
M  V30 9765 H 933.642 -0.754772 -0.204555 0
M  V30 9766 H 936.226 -1.94413 0.105751 0
M  V30 9767 H 934.397 -3.33002 -1.9991 0
M  V30 9768 H 936.129 -3.56381 -1.91767 0
M  V30 9769 H 932.884 -4.7284 -0.268192 0
M  V30 9770 H 933.308 -6.5818 1.58518 0
M  V30 9771 H 937.95 -4.2265 -0.112699 0
M  V30 9772 H 935.668 -7.57052 2.82661 0
M  V30 9773 H 939.254 -5.6352 1.44696 0
M  V30 9774 H 938.134 -7.2874 2.89668 0
M  V30 9775 N 935.637 0.236453 -1.55816 0
M  V30 9776 C 936.914 0.986463 -1.68903 0
M  V30 9777 C 937.294 2.02984 -0.579722 0
M  V30 9778 O 936.642 2.24693 0.415389 0
M  V30 9779 C 936.852 1.61038 -3.09625 0
M  V30 9780 C 938.2 2.10829 -3.6856 0
M  V30 9781 O 939.224 1.7096 -3.12492 0
M  V30 9782 O 938.083 2.84064 -4.66873 0
M  V30 9783 H 935.177 0.459837 -0.687371 0
M  V30 9784 H 937.723 0.229412 -1.68142 0
M  V30 9785 H 936.495 0.856232 -3.81817 0
M  V30 9786 H 936.118 2.43336 -3.14441 0
M  V30 9787 N 937.115 1.49373 0.502552 0
M  V30 9788 C 938.392 1.49282 1.26389 0
M  V30 9789 C 938.772 0.219674 2.09954 0
M  V30 9790 O 938.12 -0.797991 2.14113 0
M  V30 9791 C 938.33 2.77083 2.12194 0
M  V30 9792 C 939.678 3.26511 2.71433 0
M  V30 9793 O 940.702 2.78189 2.22462 0
M  V30 9794 O 939.561 4.10665 3.60578 0
M  V30 9795 H 936.655 0.597415 0.57186 0
M  V30 9796 H 939.201 1.61634 0.516951 0
M  V30 9797 H 937.973 3.61237 1.50411 0
M  V30 9798 H 937.596 2.67583 2.94084 0
M  V30 9799 N 938.594 -0.753485 1.38421 0
M  V30 9800 C 939.524 -1.8808 1.38377 0
M  V30 9801 C 940.505 -1.68258 0.249664 0
M  V30 9802 O 941.69 -1.88848 0.45276 0
M  V30 9803 C 938.82 -3.25608 1.20818 0
M  V30 9804 C 937.774 -3.60032 2.31433 0
M  V30 9805 C 937.1 -4.96297 1.9898 0
M  V30 9806 C 938.4 -3.64898 3.73694 0
M  V30 9807 H 940.094 -1.88375 2.32713 0
M  V30 9808 H 937.64 -0.90489 1.12017 0
M  V30 9809 H 939.593 -4.04127 1.19412 0
M  V30 9810 H 938.317 -3.25793 0.229433 0
M  V30 9811 H 936.976 -2.83831 2.32025 0
M  V30 9812 H 936.624 -4.93043 0.995889 0
M  V30 9813 H 936.324 -5.20298 2.73063 0
M  V30 9814 H 937.848 -5.77196 1.99193 0
M  V30 9815 H 939.262 -4.33531 3.75132 0
M  V30 9816 H 937.659 -4.00407 4.46983 0
M  V30 9817 H 938.729 -2.65124 4.06002 0
M  V30 9818 N 940.072 -1.23292 -0.981677 0
M  V30 9819 C 941.488 -0.995295 -1.24764 0
M  V30 9820 C 941.688 0.304379 -1.99188 0
M  V30 9821 O 940.744 1.02414 -2.30798 0
M  V30 9822 C 942.057 -2.20135 -2.04844 0
M  V30 9823 C 943.605 -2.24612 -2.17988 0
M  V30 9824 C 944.08 -3.448 -3.01458 0
M  V30 9825 N 945.571 -3.45031 -3.09044 0
M  V30 9826 C 946.306 -4.34683 -3.7395 0
M  V30 9827 N 945.802 -5.34569 -4.4069 0
M  V30 9828 N 947.595 -4.22429 -3.70823 0
M  V30 9829 H 939.746 -2.06834 -0.483052 0
M  V30 9830 H 942.009 -0.906929 -0.276014 0
M  V30 9831 H 941.715 -3.14446 -1.57532 0
M  V30 9832 H 941.589 -2.21115 -3.05594 0
M  V30 9833 H 943.976 -1.30841 -2.64508 0
M  V30 9834 H 944.057 -2.27664 -1.16631 0
M  V30 9835 H 943.701 -4.38877 -2.55635 0
M  V30 9836 H 943.631 -3.38988 -4.02982 0
M  V30 9837 H 946.122 -2.72759 -2.61555 0
M  V30 9838 H 946.435 -5.99236 -4.87991 0
M  V30 9839 H 944.78 -5.3847 -4.39403 0
M  V30 9840 H 947.971 -3.43639 -3.17851 0
M  V30 9841 H 948.144 -4.92501 -4.21126 0
M  V30 9842 N 941.55 1.18024 -1.04442 0
M  V30 9843 C 942.796 1.88631 -0.760907 0
M  V30 9844 C 943.151 1.79059 0.703957 0
M  V30 9845 O 942.444 1.18261 1.50748 0
M  V30 9846 C 942.638 3.37834 -1.16631 0
M  V30 9847 C 942.467 3.61929 -2.66904 0
M  V30 9848 C 941.237 3.7908 -3.34105 0
M  V30 9849 C 943.435 3.622 -3.65124 0
M  V30 9850 N 941.417 3.90949 -4.73321 0
M  V30 9851 C 942.788 3.79827 -4.90032 0
M  V30 9852 C 944.843 3.45308 -3.58701 0
M  V30 9853 C 943.546 3.82312 -6.09287 0
M  V30 9854 C 945.572 3.49078 -4.77387 0
M  V30 9855 C 944.934 3.67206 -6.01115 0
M  V30 9856 H 941.033 0.708704 -0.330549 0
M  V30 9857 H 943.617 1.41739 -1.33485 0
M  V30 9858 H 941.788 3.83413 -0.6204 0
M  V30 9859 H 943.52 3.96026 -0.83342 0
M  V30 9860 H 940.275 3.78619 -2.84508 0
M  V30 9861 H 940.699 4.00696 -5.45685 0
M  V30 9862 H 945.341 3.30236 -2.64015 0
M  V30 9863 H 943.059 3.96171 -7.04325 0
M  V30 9864 H 946.645 3.37277 -4.74063 0
M  V30 9865 H 945.525 3.70017 -6.91417 0
M  V30 9866 N 943.028 0.824394 1.34319 0
M  V30 9867 C 944.253 0.425194 2.02995 0
M  V30 9868 C 944.678 -0.961476 1.6167 0
M  V30 9869 O 944.036 -1.62593 0.80207 0
M  V30 9870 C 944.084 0.537004 3.56579 0
M  V30 9871 O 943.188 -0.442576 4.10018 0
M  V30 9872 H 942.529 0.174853 0.640564 0
M  V30 9873 H 945.059 1.11522 1.71534 0
M  V30 9874 H 945.069 0.413311 4.05901 0
M  V30 9875 H 943.744 1.54836 3.86004 0
M  V30 9876 H 942.321 -0.277644 3.71865 0
M  V30 9877 N 944.506 -1.46559 0.579492 0
M  V30 9878 C 945.755 -2.01606 0.0615735 0
M  V30 9879 C 946.068 -1.45695 -1.30508 0
M  V30 9880 O 947.274 -1.92541 -1.91416 0
M  V30 9881 C 945.73 -3.59851 0.059496 0
M  V30 9882 C 945.338 -4.24757 1.42427 0
M  V30 9883 C 947.082 -4.22567 -0.404646 0
M  V30 9884 C 944.989 -5.75072 1.38009 0
M  V30 9885 H 943.919 -0.753754 0.0192491 0
M  V30 9886 H 946.57 -1.68326 0.73066 0
M  V30 9887 H 944.952 -3.90193 -0.675691 0
M  V30 9888 H 946.126 -4.06029 2.17893 0
M  V30 9889 H 944.441 -3.74121 1.82817 0
M  V30 9890 H 947.038 -5.32748 -0.456441 0
M  V30 9891 H 947.381 -3.91279 -1.42149 0
M  V30 9892 H 947.914 -3.96839 0.276376 0
M  V30 9893 H 944.653 -6.11014 2.37364 0
M  V30 9894 H 944.173 -5.96073 0.667583 0
M  V30 9895 H 945.852 -6.37724 1.09163 0
M  V30 9896 N 945.984 -0.3171 -1.54377 0
M  V30 9897 C 947.395 0.172287 -1.85903 0
M  V30 9898 C 947.746 1.52141 -1.23885 0
M  V30 9899 O 946.871 2.0949 -0.542476 0
M  V30 9900 C 947.466 0.319392 -3.37291 0
M  V30 9901 C 946.025 0.752998 -3.68791 0
M  V30 9902 C 945.172 -0.129143 -2.76999 0
M  V30 9903 H 948.123 -0.537597 -1.49317 0
M  V30 9904 H 948.144 1.15137 -3.62662 0
M  V30 9905 H 947.656 -0.662671 -3.82401 0
M  V30 9906 H 945.757 1.74504 -3.2921 0
M  V30 9907 H 945.87 0.561228 -4.75801 0
M  V30 9908 H 944.234 0.394242 -2.5163 0
M  V30 9909 H 945.017 -1.10785 -3.24933 0
M  V30 9910 N 947.462 1.57535 -0.0451378 0
M  V30 9911 C 948.71 1.92071 0.628743 0
M  V30 9912 C 949.031 0.923635 1.71738 0
M  V30 9913 O 948.301 -0.0324376 1.95873 0
M  V30 9914 H 946.881 0.708995 0.235233 0
M  V30 9915 H 949.543 1.9466 -0.0967177 0
M  V30 9916 H 948.639 2.9314 1.07123 0
M  V30 9917 N 948.94 -0.228186 1.55939 0
M  V30 9918 C 950.186 -0.954964 1.78909 0
M  V30 9919 C 950.519 -1.8425 0.613648 0
M  V30 9920 O 949.794 -1.90604 -0.38737 0
M  V30 9921 C 950.077 -1.79957 3.1191 0
M  V30 9922 C 949.93 -0.938968 4.3989 0
M  V30 9923 C 951.249 -2.77859 3.41295 0
M  V30 9924 H 948.368 -0.345745 0.650868 0
M  V30 9925 H 951.01 -0.224244 1.88672 0
M  V30 9926 H 949.16 -2.42256 3.03717 0
M  V30 9927 H 950.832 -0.333225 4.60095 0
M  V30 9928 H 949.075 -0.244096 4.33113 0
M  V30 9929 H 949.746 -1.56416 5.29375 0
M  V30 9930 H 952.222 -2.25695 3.49572 0
M  V30 9931 H 951.098 -3.34062 4.35538 0
M  V30 9932 H 951.359 -3.55266 2.63132 0
M  V30 9933 N 950.418 -1.49637 -0.494624 0
M  V30 9934 C 951.348 -1.69692 -1.60396 0
M  V30 9935 C 952.329 -0.545648 -1.61111 0
M  V30 9936 O 953.514 -0.782202 -1.77751 0
M  V30 9937 C 950.644 -1.76934 -2.9885 0
M  V30 9938 C 949.598 -2.91915 -3.13001 0
M  V30 9939 C 948.924 -2.84276 -4.5287 0
M  V30 9940 C 950.224 -4.32764 -2.92426 0
M  V30 9941 H 951.918 -2.6257 -1.43866 0
M  V30 9942 H 949.464 -1.26355 -0.690679 0
M  V30 9943 H 951.417 -1.8955 -3.76362 0
M  V30 9944 H 950.141 -0.806609 -3.16483 0
M  V30 9945 H 948.8 -2.78911 -2.37916 0
M  V30 9946 H 948.448 -1.85897 -4.67388 0
M  V30 9947 H 948.148 -3.61452 -4.63278 0
M  V30 9948 H 949.672 -2.98909 -5.32434 0
M  V30 9949 H 951.086 -4.46415 -3.59703 0
M  V30 9950 H 949.483 -5.1121 -3.143 0
M  V30 9951 H 950.553 -4.46765 -1.88491 0
M  V30 9952 N 951.896 0.746133 -1.38819 0
M  V30 9953 C 952.806 1.89063 -1.38897 0
M  V30 9954 C 953.822 1.71648 -0.28513 0
M  V30 9955 O 954.998 1.94443 -0.524783 0
M  V30 9956 C 952.063 3.24523 -1.22007 0
M  V30 9957 C 951.124 3.54411 -2.42263 0
M  V30 9958 C 950.357 4.83408 -2.26169 0
M  V30 9959 O 950.58 5.56325 -1.25931 0
M  V30 9960 O 949.514 5.12943 -3.14918 0
M  V30 9961 H 953.34 1.91951 -2.35347 0
M  V30 9962 H 950.925 0.892433 -1.19816 0
M  V30 9963 H 952.807 4.05496 -1.14677 0
M  V30 9964 H 951.482 3.2243 -0.286455 0
M  V30 9965 H 950.389 2.73569 -2.55168 0
M  V30 9966 H 951.722 3.61273 -3.3428 0
M  V30 9967 N 953.375 1.23811 0.975125 0
M  V30 9968 C 954.622 1.07336 1.71712 0
M  V30 9969 C 954.95 -0.388954 1.90571 0
M  V30 9970 O 954.205 -1.30409 1.45918 0
M  V30 9971 C 954.504 1.74994 3.11628 0
M  V30 9972 C 954.17 3.24918 3.12632 0
M  V30 9973 C 952.832 3.65822 3.12614 0
M  V30 9974 C 955.184 4.20797 3.07538 0
M  V30 9975 C 952.512 5.01054 3.05224 0
M  V30 9976 C 954.864 5.56027 3.0169 0
M  V30 9977 C 953.528 5.96287 2.99996 0
M  V30 9978 H 952.798 0.392771 0.62834 0
M  V30 9979 H 955.445 1.53815 1.14075 0
M  V30 9980 H 953.75 1.20889 3.72684 0
M  V30 9981 H 955.447 1.5972 3.67819 0
M  V30 9982 H 952.037 2.92359 3.13407 0
M  V30 9983 H 956.221 3.902 3.06688 0
M  V30 9984 H 951.477 5.31454 3.02268 0
M  V30 9985 H 955.651 6.3003 2.96706 0
M  V30 9986 H 953.278 7.01037 2.94025 0
M  V30 9987 N 954.853 -1.17469 1.05066 0
M  V30 9988 C 955.801 -2.23495 0.644418 0
M  V30 9989 C 956.795 -1.66081 -0.333685 0
M  V30 9990 O 958.001 -1.78887 -0.199886 0
M  V30 9991 H 954.376 -0.727546 0.190214 0
M  V30 9992 H 956.347 -2.55058 1.5488 0
M  V30 9993 C 955.096 -3.47684 0.0338051 0
M  V30 9994 H 954.419 -3.92167 0.777513 0
M  V30 9995 H 955.859 -4.23464 -0.213086 0
M  V30 9996 C 954.318 -3.14067 -1.21915 0
M  V30 9997 O 954.848 -3.28728 -2.3087 0
M  V30 9998 N 953.054 -2.68304 -1.11631 0
M  V30 9999 H 952.601 -2.56574 -0.229673 0
M  V30 10000 H 952.559 -2.46184 -1.95553 0
M  V30 10001 N 956.331 -0.831506 -1.3388 0
M  V30 10002 C 957.261 -0.274378 -2.31882 0
M  V30 10003 C 958.242 0.613872 -1.58637 0
M  V30 10004 O 959.427 0.538961 -1.86571 0
M  V30 10005 C 956.557 0.557498 -3.42796 0
M  V30 10006 C 955.511 -0.234337 -4.27358 0
M  V30 10007 C 954.837 0.720825 -5.29819 0
M  V30 10008 C 956.137 -1.44732 -5.01847 0
M  V30 10009 H 957.831 -1.09322 -2.78728 0
M  V30 10010 H 955.377 -0.527136 -1.34005 0
M  V30 10011 H 957.33 0.957501 -4.10378 0
M  V30 10012 H 956.054 1.40947 -2.94621 0
M  V30 10013 H 954.713 -0.61581 -3.61391 0
M  V30 10014 H 954.361 1.569 -4.77903 0
M  V30 10015 H 954.061 0.195171 -5.87276 0
M  V30 10016 H 955.585 1.1185 -6.00268 0
M  V30 10017 H 956.999 -1.12087 -5.62236 0
M  V30 10018 H 955.396 -1.90923 -5.68919 0
M  V30 10019 H 956.466 -2.22099 -4.31045 0
M  V30 10020 N 957.809 1.4625 -0.587256 0
M  V30 10021 C 959.056 2.02363 -0.0745746 0
M  V30 10022 C 959.384 1.4582 1.28712 0
M  V30 10023 O 958.639 0.614922 1.85788 0
M  V30 10024 C 958.938 3.57382 0.036328 0
M  V30 10025 C 958.604 4.32985 -1.25837 0
M  V30 10026 C 957.266 4.53358 -1.61306 0
M  V30 10027 C 959.618 4.76361 -2.11494 0
M  V30 10028 C 956.946 5.14361 -2.82223 0
M  V30 10029 C 959.298 5.38699 -3.31641 0
M  V30 10030 C 957.962 5.57299 -3.67388 0
M  V30 10031 H 957.232 0.740497 -0.0272888 0
M  V30 10032 H 959.879 1.75565 -0.764804 0
M  V30 10033 H 958.184 3.83342 0.809712 0
M  V30 10034 H 959.881 3.9848 0.448838 0
M  V30 10035 H 956.471 4.17427 -0.972251 0
M  V30 10036 H 960.655 4.60372 -1.85394 0
M  V30 10037 H 955.911 5.26952 -3.10051 0
M  V30 10038 H 960.085 5.71267 -3.9828 0
M  V30 10039 H 957.712 6.04338 -4.61173 0
M  V30 10040 N 959.287 0.325282 1.54207 0
M  V30 10041 C 960.535 -0.276229 2.00203 0
M  V30 10042 C 960.856 -1.52519 1.21503 0
M  V30 10043 O 960.126 -1.93313 0.317302 0
M  V30 10044 H 958.706 -0.105059 0.739575 0
M  V30 10045 H 961.368 0.442225 1.89817 0
M  V30 10046 H 960.464 -0.531427 3.07542 0
M  V30 10047 N 960.765 -1.57509 0.0534917 0
M  V30 10048 C 962.014 -1.91959 -0.619244 0
M  V30 10049 C 962.327 -0.933882 -1.71866 0
M  V30 10050 O 963.533 -1.17052 -2.44972 0
M  V30 10051 C 961.989 -3.40938 -1.15278 0
M  V30 10052 C 961.597 -4.47919 -0.085348 0
M  V30 10053 C 963.341 -3.84419 -1.80063 0
M  V30 10054 C 961.248 -5.88014 -0.631897 0
M  V30 10055 H 960.178 -0.71642 -0.235072 0
M  V30 10056 H 962.829 -1.83089 0.122758 0
M  V30 10057 H 961.211 -3.44821 -1.94717 0
M  V30 10058 H 962.385 -4.55629 0.688374 0
M  V30 10059 H 960.7 -4.13793 0.465178 0
M  V30 10060 H 963.297 -4.86457 -2.21954 0
M  V30 10061 H 963.64 -3.20791 -2.65328 0
M  V30 10062 H 964.173 -3.83062 -1.07275 0
M  V30 10063 H 960.912 -6.55244 0.183175 0
M  V30 10064 H 960.432 -5.83861 -1.37355 0
M  V30 10065 H 962.111 -6.37336 -1.11407 0
M  V30 10066 N 962.243 0.219913 -1.56058 0
M  V30 10067 C 963.654 0.786766 -1.69313 0
M  V30 10068 C 964.005 1.84916 -0.655782 0
M  V30 10069 O 963.13 2.1554 0.192772 0
M  V30 10070 C 963.725 1.43387 -3.06962 0
M  V30 10071 C 962.284 1.94809 -3.22066 0
M  V30 10072 C 961.431 0.808863 -2.65241 0
M  V30 10073 H 964.382 -0.00476777 -1.58699 0
M  V30 10074 H 964.403 2.30272 -3.02911 0
M  V30 10075 H 963.915 0.660405 -3.8244 0
M  V30 10076 H 962.016 2.74952 -2.5146 0
M  V30 10077 H 962.129 2.12694 -4.293 0
M  V30 10078 H 960.493 1.21661 -2.23765 0
M  V30 10079 H 961.276 0.0480458 -3.43266 0
M  V30 10080 N 963.721 1.49897 0.486681 0
M  V30 10081 C 964.654 1.6224 1.60479 0
M  V30 10082 C 965.632 0.470964 1.5563 0
M  V30 10083 O 966.816 0.688418 1.75479 0
M  V30 10084 C 963.943 1.59059 2.99028 0
M  V30 10085 C 962.989 2.79575 3.22087 0
M  V30 10086 S 963.822 4.41077 3.03664 0
M  V30 10087 C 964.978 4.40564 4.44583 0
M  V30 10088 H 965.211 2.56822 1.49766 0
M  V30 10089 H 962.744 1.38966 0.672893 0
M  V30 10090 H 964.702 1.5791 3.78913 0
M  V30 10091 H 963.363 0.657405 3.07143 0
M  V30 10092 H 962.556 2.73609 4.23266 0
M  V30 10093 H 962.158 2.78211 2.49949 0
M  V30 10094 H 964.45 4.13166 5.36936 0
M  V30 10095 H 965.393 5.42068 4.55596 0
M  V30 10096 H 965.801 3.70461 4.25933 0
M  V30 10097 N 965.199 -0.738761 1.39212 0
M  V30 10098 C 966.445 -1.50046 1.36433 0
M  V30 10099 C 966.778 -1.94157 -0.0409474 0
M  V30 10100 O 966.053 -1.66515 -1.00514 0
M  V30 10101 C 966.336 -2.74277 2.33333 0
M  V30 10102 C 966.189 -2.36209 3.82786 0
M  V30 10103 C 967.508 -3.76361 2.28123 0
M  V30 10104 H 964.627 -0.544294 0.496903 0
M  V30 10105 H 967.269 -0.845005 1.70175 0
M  V30 10106 H 965.419 -3.30204 2.04689 0
M  V30 10107 H 967.091 -1.85942 4.22165 0
M  V30 10108 H 965.334 -1.68483 3.99745 0
M  V30 10109 H 966.005 -3.25156 4.46069 0
M  V30 10110 H 968.481 -3.30009 2.53443 0
M  V30 10111 H 967.357 -4.60957 2.9801 0
M  V30 10112 H 967.618 -4.23013 1.28499 0
M  V30 10113 N 966.677 -1.24326 -0.968545 0
M  V30 10114 C 967.925 -1.08032 -1.70803 0
M  V30 10115 C 968.246 0.381728 -1.91227 0
M  V30 10116 O 967.516 1.27253 -1.48942 0
M  V30 10117 H 966.096 -0.396777 -0.632912 0
M  V30 10118 H 968.758 -1.56232 -1.16523 0
M  V30 10119 H 967.854 -1.57769 -2.69287 0
M  V30 10120 N 968.156 1.1691 -1.05688 0
M  V30 10121 C 969.567 1.68915 -0.795273 0
M  V30 10122 C 969.918 1.83968 0.681925 0
M  V30 10123 O 969.043 1.53083 1.52953 0
M  V30 10124 C 969.638 3.06814 -1.43703 0
M  V30 10125 C 968.197 3.55965 -1.22335 0
M  V30 10126 C 967.344 2.32099 -1.51741 0
M  V30 10127 H 970.295 1.01357 -1.22116 0
M  V30 10128 H 970.316 3.70907 -0.849016 0
M  V30 10129 H 969.828 2.95826 -2.51214 0
M  V30 10130 H 967.929 3.72222 -0.16771 0
M  V30 10131 H 968.042 4.38427 -1.9318 0
M  V30 10132 H 966.406 2.36811 -0.937696 0
M  V30 10133 H 967.189 2.23715 -2.60397 0
M  V30 10134 N 969.634 0.838594 1.33437 0
M  V30 10135 C 970.911 0.356112 1.92331 0
M  V30 10136 C 971.291 -1.1585 1.76471 0
M  V30 10137 O 970.639 -1.97281 1.15293 0
M  V30 10138 C 970.849 0.802715 3.39643 0
M  V30 10139 C 972.197 0.810575 4.16791 0
M  V30 10140 O 973.221 0.746304 3.48294 0
M  V30 10141 O 972.08 0.898082 5.3907 0
M  V30 10142 H 969.174 0.100711 0.820845 0
M  V30 10143 H 971.72 0.924428 1.42311 0
M  V30 10144 H 970.492 1.84529 3.45057 0
M  V30 10145 H 970.115 0.210956 3.9704 0
M  V30 10146 N 971.112 -1.45937 0.595003 0
M  V30 10147 C 972.361 -2.01529 0.0829531 0
M  V30 10148 C 972.674 -1.47071 -1.28955 0
M  V30 10149 O 973.88 -1.94561 -1.89363 0
M  V30 10150 C 972.336 -3.59767 0.0976597 0
M  V30 10151 C 971.944 -4.23223 1.46924 0
M  V30 10152 C 973.688 -4.22972 -0.359805 0
M  V30 10153 C 971.595 -5.73576 1.44101 0
M  V30 10154 H 970.525 -0.753508 0.0272425 0
M  V30 10155 H 973.176 -1.67541 0.748473 0
M  V30 10156 H 971.558 -3.90888 -0.634268 0
M  V30 10157 H 972.732 -4.03695 2.22187 0
M  V30 10158 H 971.047 -3.72161 1.86775 0
M  V30 10159 H 973.644 -5.33202 -0.39991 0
M  V30 10160 H 973.987 -3.92765 -1.37991 0
M  V30 10161 H 974.52 -3.96523 0.31845 0
M  V30 10162 H 971.259 -6.08462 2.43831 0
M  V30 10163 H 970.779 -5.95332 0.730767 0
M  V30 10164 H 972.458 -6.36531 1.1592 0
M  V30 10165 N 972.59 -0.333456 -1.54032 0
M  V30 10166 C 973.83 0.266604 -2.02654 0
M  V30 10167 C 974.194 1.48568 -1.21621 0
M  V30 10168 O 975.395 2.15925 -1.60093 0
M  V30 10169 C 973.666 0.582825 -3.52616 0
M  V30 10170 S 975.225 1.16113 -4.23159 0
M  V30 10171 H 972.043 0.0800344 -0.706481 0
M  V30 10172 H 974.645 -0.468876 -1.89794 0
M  V30 10173 H 973.349 -0.312401 -4.09209 0
M  V30 10174 H 972.88 1.34824 -3.69576 0
M  V30 10175 H 974.895 2.44743 -4.31642 0
M  V30 10176 N 974.068 1.57479 -0.061844 0
M  V30 10177 C 975.316 1.92727 0.608336 0
M  V30 10178 C 975.637 0.941799 1.70749 0
M  V30 10179 O 974.907 -0.0116608 1.95897 0
M  V30 10180 H 973.487 0.71145 0.2277 0
M  V30 10181 H 976.149 1.94546 -0.117359 0
M  V30 10182 H 975.245 2.9426 1.04007 0
M  V30 10183 N 975.546 -0.211634 1.56173 0
M  V30 10184 C 976.793 -0.93455 1.79645 0
M  V30 10185 C 977.121 -1.83936 0.632294 0
M  V30 10186 O 976.376 -1.91919 -0.382841 0
M  V30 10187 C 976.675 -1.79657 3.08963 0
M  V30 10188 C 976.341 -1.04415 4.38644 0
M  V30 10189 C 975.003 -0.836351 4.73876 0
M  V30 10190 C 977.355 -0.51355 5.18664 0
M  V30 10191 C 974.683 -0.0861976 5.86637 0
M  V30 10192 C 977.035 0.223309 6.32206 0
M  V30 10193 C 975.699 0.442279 6.66033 0
M  V30 10194 H 974.969 -0.341976 0.657368 0
M  V30 10195 H 977.616 -0.202024 1.90431 0
M  V30 10196 H 975.921 -2.59726 2.93342 0
M  V30 10197 H 977.618 -2.35823 3.24328 0
M  V30 10198 H 974.208 -1.21611 4.10985 0
M  V30 10199 H 978.392 -0.661541 4.91871 0
M  V30 10200 H 973.648 0.0935866 6.11328 0
M  V30 10201 H 977.822 0.641917 6.93435 0
M  V30 10202 H 975.449 1.02547 7.53252 0
M  V30 10203 N 977.024 -1.50153 -0.478725 0
M  V30 10204 C 977.987 -1.67916 -1.56003 0
M  V30 10205 C 978.987 -0.550111 -1.51097 0
M  V30 10206 O 980.177 -0.817001 -1.53853 0
M  V30 10207 C 977.309 -1.6973 -2.95643 0
M  V30 10208 H 978.502 -2.6438 -1.41573 0
M  V30 10209 H 976.055 -1.39519 -0.704565 0
M  V30 10210 H 976.79 -0.749306 -3.15525 0
M  V30 10211 H 976.575 -2.51745 -3.00611 0
M  V30 10212 H 978.065 -1.85453 -3.74162 0
M  V30 10213 N 978.502 0.731368 -1.39602 0
M  V30 10214 C 979.432 1.85855 -1.41351 0
M  V30 10215 C 980.413 1.67839 -0.2764 0
M  V30 10216 O 981.598 1.88104 -0.482747 0
M  V30 10217 C 978.728 3.23644 -1.25983 0
M  V30 10218 C 977.682 3.56304 -2.37132 0
M  V30 10219 C 977.008 4.93069 -2.0685 0
M  V30 10220 C 978.308 3.58906 -3.79452 0
M  V30 10221 H 980.002 1.84648 -2.3568 0
M  V30 10222 H 977.548 0.886955 -1.13442 0
M  V30 10223 H 979.501 4.02176 -1.25826 0
M  V30 10224 H 978.225 3.25387 -0.281234 0
M  V30 10225 H 976.884 2.80104 -2.36511 0
M  V30 10226 H 976.532 4.91396 -1.0742 0
M  V30 10227 H 976.232 5.15888 -2.81306 0
M  V30 10228 H 977.756 5.73953 -2.0835 0
M  V30 10229 H 979.17 4.27508 -3.81982 0
M  V30 10230 H 977.567 3.93246 -4.53297 0
M  V30 10231 H 978.637 2.58631 -4.10168 0
M  V30 10232 N 979.98 1.24838 0.961938 0
M  V30 10233 C 981.257 0.99939 1.68141 0
M  V30 10234 C 981.637 -0.476588 2.0565 0
M  V30 10235 O 980.985 -1.45224 1.76415 0
M  V30 10236 C 981.195 1.92797 2.90913 0
M  V30 10237 C 982.543 2.20219 3.63027 0
M  V30 10238 O 983.567 1.90496 3.00981 0
M  V30 10239 O 982.426 2.70725 4.74731 0
M  V30 10240 H 979.52 0.37842 0.735342 0
M  V30 10241 H 982.066 1.35961 1.01551 0
M  V30 10242 H 980.838 2.92492 2.59931 0
M  V30 10243 H 980.461 1.57127 3.65235 0
M  V30 10244 N 981.458 -1.16348 1.06306 0
M  V30 10245 C 982.686 -1.90782 0.800614 0
M  V30 10246 C 983.101 -1.77439 -0.645033 0
M  V30 10247 O 982.458 -1.11912 -1.4416 0
M  V30 10248 C 982.509 -3.41484 1.18621 0
M  V30 10249 O 982.23 -3.54428 2.57512 0
M  V30 10250 C 983.731 -4.32968 0.951525 0
M  V30 10251 H 980.951 -0.604977 0.290247 0
M  V30 10252 H 983.495 -1.47476 1.41672 0
M  V30 10253 H 981.65 -3.82493 0.614633 0
M  V30 10254 H 982.064 -4.4788 2.72954 0
M  V30 10255 H 983.538 -5.37169 1.27095 0
M  V30 10256 H 984.015 -4.39055 -0.112734 0
M  V30 10257 H 984.621 -3.97687 1.50749 0
M  V30 10258 N 982.937 -0.845659 -1.3299 0
M  V30 10259 C 984.348 -0.50048 -1.79867 0
M  V30 10260 C 984.699 0.981027 -1.69913 0
M  V30 10261 O 983.824 1.76477 -1.25239 0
M  V30 10262 C 984.419 -0.901679 -3.26581 0
M  V30 10263 C 982.978 -0.608536 -3.71448 0
M  V30 10264 C 982.125 -1.10632 -2.54275 0
M  V30 10265 H 985.076 -1.03372 -1.20416 0
M  V30 10266 H 985.097 -0.214433 -3.79895 0
M  V30 10267 H 984.609 -1.97998 -3.33794 0
M  V30 10268 H 982.71 0.459416 -3.69757 0
M  V30 10269 H 982.823 -1.16853 -4.64631 0
M  V30 10270 H 981.187 -0.526925 -2.4919 0
M  V30 10271 H 981.97 -2.19154 -2.64247 0
M  V30 10272 N 984.415 1.45619 -0.602734 0
M  V30 10273 C 985.325 2.34288 0.120902 0
M  V30 10274 C 986.341 1.50952 0.865414 0
M  V30 10275 O 987.517 1.83768 0.824094 0
M  V30 10276 C 984.582 3.28489 1.10888 0
M  V30 10277 C 983.643 4.2773 0.366853 0
M  V30 10278 C 982.876 5.17429 1.30776 0
M  V30 10279 O 983.099 5.10459 2.54535 0
M  V30 10280 O 982.033 5.96459 0.807464 0
M  V30 10281 H 985.859 2.97559 -0.60765 0
M  V30 10282 H 983.444 1.44922 -0.363019 0
M  V30 10283 H 985.326 3.86549 1.67803 0
M  V30 10284 H 984.001 2.67789 1.81854 0
M  V30 10285 H 982.908 3.73299 -0.244643 0
M  V30 10286 H 984.241 4.91271 -0.302226 0
M  V30 10287 N 985.893 0.34162 1.53853 0
M  V30 10288 C 986.803 -0.524555 2.2866 0
M  V30 10289 C 987.819 -1.1136 1.33697 0
M  V30 10290 O 988.995 -1.1297 1.66732 0
M  V30 10291 C 986.06 -1.66065 3.04341 0
M  V30 10292 C 985.121 -1.10158 4.14926 0
M  V30 10293 C 984.354 -2.18353 4.86988 0
M  V30 10294 O 984.577 -3.39038 4.58704 0
M  V30 10295 O 983.511 -1.82756 5.73484 0
M  V30 10296 H 987.337 0.0835014 3.03585 0
M  V30 10297 H 984.922 0.106727 1.49018 0
M  V30 10298 H 986.804 -2.3217 3.51674 0
M  V30 10299 H 985.479 -2.25456 2.32275 0
M  V30 10300 H 984.386 -0.405109 3.719 0
M  V30 10301 H 985.719 -0.552567 4.89088 0
M  V30 10302 N 987.371 -1.57444 0.0701946 0
M  V30 10303 C 988.301 -2.15659 -0.895176 0
M  V30 10304 C 989.282 -1.08321 -1.31151 0
M  V30 10305 O 990.467 -1.36349 -1.38284 0
M  V30 10306 C 987.597 -2.71693 -2.16334 0
M  V30 10307 C 986.551 -3.84183 -1.88645 0
M  V30 10308 C 985.877 -4.26814 -3.22078 0
M  V30 10309 C 987.177 -5.08493 -1.19299 0
M  V30 10310 H 988.871 -2.96576 -0.410217 0
M  V30 10311 H 986.417 -1.42662 -0.195872 0
M  V30 10312 H 988.37 -3.11064 -2.84284 0
M  V30 10313 H 987.094 -1.87994 -2.67069 0
M  V30 10314 H 985.753 -3.45314 -1.23101 0
M  V30 10315 H 985.401 -3.40039 -3.70651 0
M  V30 10316 H 985.101 -5.02642 -3.04344 0
M  V30 10317 H 986.625 -4.68799 -3.91228 0
M  V30 10318 H 988.039 -5.4519 -1.77316 0
M  V30 10319 H 986.436 -5.89588 -1.11828 0
M  V30 10320 H 987.506 -4.84595 -0.171839 0
M  V30 10321 N 988.849 0.203349 -1.56283 0
M  V30 10322 C 990.089 0.931871 -1.81922 0
M  V30 10323 C 990.453 1.8079 -0.646459 0
M  V30 10324 O 991.654 2.57157 -0.782556 0
M  V30 10325 C 989.925 1.73347 -3.12547 0
M  V30 10326 S 991.484 2.51514 -3.59564 0
M  V30 10327 H 988.302 0.312706 -0.638542 0
M  V30 10328 H 990.904 0.195931 -1.94516 0
M  V30 10329 H 989.608 1.08038 -3.95924 0
M  V30 10330 H 989.139 2.51138 -3.02809 0
M  V30 10331 H 991.154 3.7552 -3.24345 0
M  V30 10332 N 990.327 1.50405 0.470755 0
M  V30 10333 C 991.743 1.37838 0.804534 0
M  V30 10334 C 991.943 0.434743 1.96754 0
M  V30 10335 O 990.999 -0.122507 2.52203 0
M  V30 10336 C 992.312 2.79212 1.11629 0
M  V30 10337 C 993.86 2.88129 1.22272 0
M  V30 10338 C 994.335 4.30337 1.5676 0
M  V30 10339 N 995.826 4.3329 1.63751 0
M  V30 10340 C 996.561 5.4032 1.91942 0
M  V30 10341 N 996.057 6.57558 2.18151 0
M  V30 10342 N 997.85 5.27764 1.93446 0
M  V30 10343 H 990.001 2.10332 -0.295689 0
M  V30 10344 H 992.264 0.945429 -0.0697733 0
M  V30 10345 H 991.97 3.50103 0.334778 0
M  V30 10346 H 991.844 3.16475 2.0524 0
M  V30 10347 H 994.231 2.17457 1.9949 0
M  V30 10348 H 994.312 2.54409 0.2664 0
M  V30 10349 H 993.956 5.01547 0.800817 0
M  V30 10350 H 993.886 4.61545 2.53543 0
M  V30 10351 H 996.377 3.48752 1.45535 0
M  V30 10352 H 996.69 7.34935 2.38936 0
M  V30 10353 H 995.035 6.60732 2.15542 0
M  V30 10354 H 998.226 4.35169 1.72468 0
M  V30 10355 H 998.399 6.11264 2.15081 0
M  V30 10356 N 991.805 -0.723954 1.39988 0
M  V30 10357 C 993.221 -1.03095 1.21834 0
M  V30 10358 C 993.421 -2.01309 0.0876647 0
M  V30 10359 O 992.477 -2.46277 -0.55714 0
M  V30 10360 C 993.79 -1.58267 2.5568 0
M  V30 10361 C 995.338 -1.70293 2.6262 0
M  V30 10362 C 995.813 -2.28872 3.96713 0
M  V30 10363 N 997.304 -2.36269 3.98411 0
M  V30 10364 C 998.039 -2.82557 4.98948 0
M  V30 10365 N 997.535 -3.28661 6.0988 0
M  V30 10366 N 999.328 -2.81866 4.86321 0
M  V30 10367 H 991.479 -0.0727891 2.12275 0
M  V30 10368 H 993.742 -0.0949029 0.943238 0
M  V30 10369 H 993.448 -0.935642 3.39026 0
M  V30 10370 H 993.322 -2.56914 2.76179 0
M  V30 10371 H 995.709 -2.34115 1.7965 0
M  V30 10372 H 995.79 -0.70268 2.45959 0
M  V30 10373 H 995.434 -1.65675 4.80119 0
M  V30 10374 H 995.364 -3.29595 4.107 0
M  V30 10375 H 997.855 -2.03697 3.18302 0
M  V30 10376 H 998.168 -3.62524 6.82493 0
M  V30 10377 H 996.513 -3.26641 6.13458 0
M  V30 10378 H 999.704 -2.45179 3.98754 0
M  V30 10379 H 999.877 -3.17626 5.64817 0
M  V30 10380 N 993.283 -1.25346 -0.955304 0
M  V30 10381 C 994.529 -1.11226 -1.70295 0
M  V30 10382 C 994.884 0.343362 -1.89311 0
M  V30 10383 O 994.177 1.24953 -1.45249 0
M  V30 10384 C 994.371 -1.7993 -3.08804 0
M  V30 10385 C 994.2 -3.32023 -3.033 0
M  V30 10386 C 992.97 -4.01274 -3.07094 0
M  V30 10387 C 995.168 -4.28431 -2.84519 0
M  V30 10388 N 993.15 -5.40149 -2.91741 0
M  V30 10389 C 994.521 -5.54386 -2.7759 0
M  V30 10390 C 996.576 -4.18854 -2.69194 0
M  V30 10391 C 995.279 -6.71859 -2.56902 0
M  V30 10392 C 997.305 -5.36018 -2.49876 0
M  V30 10393 C 996.667 -6.60913 -2.43667 0
M  V30 10394 H 992.766 -0.461707 -0.631151 0
M  V30 10395 H 995.35 -1.58437 -1.13162 0
M  V30 10396 H 993.521 -1.35214 -3.64104 0
M  V30 10397 H 995.253 -1.58557 -3.72346 0
M  V30 10398 H 992.008 -3.52529 -3.1626 0
M  V30 10399 H 992.432 -6.13029 -2.8727 0
M  V30 10400 H 997.074 -3.23043 -2.7277 0
M  V30 10401 H 994.792 -7.67781 -2.52068 0
M  V30 10402 H 998.378 -5.30468 -2.38944 0
M  V30 10403 H 997.258 -7.50045 -2.28914 0
M  V30 10404 N 994.761 1.15782 -1.06922 0
M  V30 10405 C 995.694 2.19336 -0.629837 0
M  V30 10406 C 996.672 1.58774 0.350663 0
M  V30 10407 O 997.856 1.86724 0.258124 0
M  V30 10408 C 994.983 3.38615 0.0757526 0
M  V30 10409 C 994.029 4.17688 -0.862503 0
M  V30 10410 S 994.862 4.80634 -2.36117 0
M  V30 10411 C 996.018 6.03286 -1.66725 0
M  V30 10412 H 996.251 2.56267 -1.50714 0
M  V30 10413 H 993.784 1.26674 -0.882776 0
M  V30 10414 H 995.742 4.07724 0.476611 0
M  V30 10415 H 994.403 3.00037 0.929332 0
M  V30 10416 H 993.596 5.03012 -0.315461 0
M  V30 10417 H 993.198 3.54106 -1.20354 0
M  V30 10418 H 995.49 6.70426 -0.976472 0
M  V30 10419 H 996.433 6.62551 -2.49864 0
M  V30 10420 H 996.841 5.52722 -1.14711 0
M  V30 10421 N 996.239 0.8527 1.3254 0
M  V30 10422 C 997.171 0.253181 2.27797 0
M  V30 10423 C 998.184 -0.573977 1.52346 0
M  V30 10424 O 999.373 -0.398786 1.73988 0
M  V30 10425 C 996.473 -0.661034 3.32391 0
M  V30 10426 C 995.646 0.12984 4.37207 0
M  V30 10427 C 994.705 -0.709837 5.2139 0
M  V30 10428 O 993.731 -0.144056 5.69018 0
M  V30 10429 N 994.933 -2.0249 5.44039 0
M  V30 10430 H 997.698 1.07171 2.79883 0
M  V30 10431 H 995.259 0.712491 1.45379 0
M  V30 10432 H 997.251 -1.22806 3.85617 0
M  V30 10433 H 995.821 -1.38025 2.80478 0
M  V30 10434 H 995.041 0.878289 3.84291 0
M  V30 10435 H 996.329 0.673141 5.04328 0
M  V30 10436 H 995.727 -2.50792 5.0707 0
M  V30 10437 H 994.284 -2.5401 6.00269 0
M  V30 10438 N 997.718 -1.45297 0.610449 0
M  V30 10439 C 998.648 -2.33311 -0.0939698 0
M  V30 10440 C 999.629 -1.46999 -0.85588 0
M  V30 10441 O 1000.81 -1.75764 -0.825865 0
M  V30 10442 C 997.944 -3.29751 -1.09003 0
M  V30 10443 C 996.898 -4.2572 -0.441146 0
M  V30 10444 C 996.224 -5.11873 -1.54566 0
M  V30 10445 C 997.524 -5.1837 0.639489 0
M  V30 10446 H 999.218 -2.92459 0.640941 0
M  V30 10447 H 996.764 -1.40631 0.309675 0
M  V30 10448 H 998.717 -3.90195 -1.59141 0
M  V30 10449 H 997.441 -2.68768 -1.85557 0
M  V30 10450 H 996.1 -3.66579 0.0393908 0
M  V30 10451 H 995.748 -4.47256 -2.30155 0
M  V30 10452 H 995.448 -5.76886 -1.11698 0
M  V30 10453 H 996.972 -5.75185 -2.04925 0
M  V30 10454 H 998.386 -5.7287 0.22207 0
M  V30 10455 H 996.783 -5.91876 0.990089 0
M  V30 10456 H 997.853 -4.60627 1.51495 0
M  V30 10457 N 999.196 -0.349774 -1.5367 0
M  V30 10458 C 1000.44 0.244343 -2.00617 0
M  V30 10459 C 1000.76 1.50567 -1.23914 0
M  V30 10460 O 1000.03 1.92784 -0.348016 0
M  V30 10461 H 998.615 0.0932792 -0.741153 0
M  V30 10462 H 1001.28 -0.472367 -1.89089 0
M  V30 10463 H 1000.37 0.482433 -3.08349 0
M  V30 10464 N 1000.67 1.57404 -0.0785433 0
M  V30 10465 C 1001.64 2.11977 0.871693 0
M  V30 10466 C 1002.64 1.04529 1.2219 0
M  V30 10467 O 1003.83 1.30488 1.15406 0
M  V30 10468 C 1000.96 2.6267 2.17296 0
M  V30 10469 H 1002.15 2.97246 0.398115 0
M  V30 10470 H 999.705 1.5537 0.170251 0
M  V30 10471 H 1000.44 1.80873 2.69175 0
M  V30 10472 H 1000.22 3.41214 1.93171 0
M  V30 10473 H 1001.71 3.04943 2.85306 0
M  V30 10474 N 1002.15 -0.195058 1.56388 0
M  V30 10475 C 1003.4 -0.915444 1.80626 0
M  V30 10476 C 1003.73 -1.83255 0.651768 0
M  V30 10477 O 1002.98 -1.92314 -0.362464 0
M  V30 10478 C 1003.28 -1.7637 3.10851 0
M  V30 10479 C 1002.95 -0.997572 4.39726 0
M  V30 10480 C 1001.61 -0.786043 4.74737 0
M  V30 10481 C 1003.96 -0.45851 5.19179 0
M  V30 10482 C 1001.29 -0.023972 5.86695 0
M  V30 10483 C 1003.64 0.29035 6.31933 0
M  V30 10484 C 1002.3 0.512895 6.65527 0
M  V30 10485 H 1001.57 -0.334985 0.660959 0
M  V30 10486 H 1004.22 -0.181815 1.90635 0
M  V30 10487 H 1002.53 -2.566 2.9608 0
M  V30 10488 H 1004.22 -2.3237 3.26811 0
M  V30 10489 H 1000.81 -1.17245 4.12252 0
M  V30 10490 H 1005 -0.609334 4.92545 0
M  V30 10491 H 1000.25 0.158421 6.11195 0
M  V30 10492 H 1004.43 0.715429 6.92715 0
M  V30 10493 H 1002.05 1.10531 7.52122 0
M  V30 10494 N 1003.63 -1.50653 -0.462772 0
M  V30 10495 C 1004.86 -1.65586 -1.23551 0
M  V30 10496 C 1005.27 -0.342012 -1.86083 0
M  V30 10497 O 1004.61 0.686893 -1.70374 0
M  V30 10498 C 1004.67 -2.69555 -2.37867 0
M  V30 10499 C 1004.34 -4.1288 -1.95906 0
M  V30 10500 C 1005.33 -4.98483 -1.47685 0
M  V30 10501 C 1003.02 -4.58843 -2.04373 0
M  V30 10502 C 1005.01 -6.281 -1.08484 0
M  V30 10503 C 1002.7 -5.88464 -1.64783 0
M  V30 10504 C 1003.7 -6.72918 -1.16918 0
M  V30 10505 O 1003.39 -8.00119 -0.778798 0
M  V30 10506 H 1003.12 -0.559438 -0.37948 0
M  V30 10507 H 1005.67 -1.9768 -0.557816 0
M  V30 10508 H 1003.9 -2.3272 -3.08834 0
M  V30 10509 H 1005.59 -2.73624 -2.99808 0
M  V30 10510 H 1006.36 -4.64186 -1.40558 0
M  V30 10511 H 1002.24 -3.93247 -2.40577 0
M  V30 10512 H 1005.78 -6.93972 -0.710524 0
M  V30 10513 H 1001.68 -6.22281 -1.71571 0
M  V30 10514 H 1002.44 -8.1346 -0.906911 0
M  V30 10515 N 1005.11 0.71652 -1.4037 0
M  V30 10516 C 1006.52 1.29562 -1.34427 0
M  V30 10517 C 1006.87 1.96192 -0.0173106 0
M  V30 10518 O 1006 1.97488 0.884719 0
M  V30 10519 C 1006.59 2.35601 -2.4347 0
M  V30 10520 C 1005.15 2.89138 -2.4099 0
M  V30 10521 C 1004.3 1.62915 -2.24397 0
M  V30 10522 H 1007.25 0.512715 -1.5019 0
M  V30 10523 H 1007.27 3.16422 -2.11323 0
M  V30 10524 H 1006.78 1.87077 -3.40035 0
M  V30 10525 H 1004.88 3.41894 -1.4812 0
M  V30 10526 H 1004.99 3.40995 -3.3654 0
M  V30 10527 H 1003.36 1.87947 -1.71896 0
M  V30 10528 H 1004.14 1.16417 -3.22958 0
M  V30 10529 N 1006.59 1.25851 0.948643 0
M  V30 10530 C 1007.83 1.10954 1.69397 0
M  V30 10531 C 1008.16 -0.348443 1.91353 0
M  V30 10532 O 1007.42 -1.27285 1.48651 0
M  V30 10533 C 1007.72 1.81565 3.07846 0
M  V30 10534 C 1007.38 3.31477 3.0567 0
M  V30 10535 C 1006.04 3.72371 3.04784 0
M  V30 10536 C 1008.4 4.27225 2.98543 0
M  V30 10537 C 1005.72 5.07416 2.94527 0
M  V30 10538 C 1008.08 5.62301 2.89828 0
M  V30 10539 C 1006.74 6.02516 2.87281 0
M  V30 10540 H 1006.01 0.406011 0.619868 0
M  V30 10541 H 1008.66 1.562 1.10787 0
M  V30 10542 H 1006.96 1.28767 3.70035 0
M  V30 10543 H 1008.66 1.67486 3.64348 0
M  V30 10544 H 1005.25 2.98941 3.07135 0
M  V30 10545 H 1009.43 3.96618 2.98342 0
M  V30 10546 H 1004.69 5.37746 2.90928 0
M  V30 10547 H 1008.86 6.36182 2.83276 0
M  V30 10548 H 1006.49 7.07116 2.79089 0
M  V30 10549 N 1008.06 -1.15214 1.07534 0
M  V30 10550 C 1009.29 -1.90463 0.820883 0
M  V30 10551 C 1009.71 -1.77578 -0.620305 0
M  V30 10552 O 1009.07 -1.10976 -1.43366 0
M  V30 10553 C 1009.12 -3.38746 1.23627 0
M  V30 10554 O 1008.22 -4.1062 0.382715 0
M  V30 10555 H 1007.57 -0.59292 0.298901 0
M  V30 10556 H 1010.1 -1.45893 1.43445 0
M  V30 10557 H 1010.11 -3.89543 1.21327 0
M  V30 10558 H 1008.78 -3.47443 2.28596 0
M  V30 10559 H 1007.36 -3.69947 0.468374 0
M  V30 10560 N 1009.54 -0.859717 -1.32086 0
M  V30 10561 C 1010.96 -0.55025 -1.49815 0
M  V30 10562 C 1011.16 0.917966 -1.79376 0
M  V30 10563 O 1010.21 1.70073 -1.86632 0
M  V30 10564 C 1011.53 -1.44161 -2.6389 0
M  V30 10565 C 1013.08 -1.44257 -2.77775 0
M  V30 10566 C 1013.55 -2.31926 -3.94936 0
M  V30 10567 N 1015.04 -2.2975 -4.02206 0
M  V30 10568 C 1015.78 -2.9431 -4.92107 0
M  V30 10569 N 1015.27 -3.68001 -5.86981 0
M  V30 10570 N 1017.07 -2.83671 -4.8527 0
M  V30 10571 H 1009.22 -1.80987 -1.11164 0
M  V30 10572 H 1011.48 -0.773313 -0.548353 0
M  V30 10573 H 1011.19 -2.48588 -2.4879 0
M  V30 10574 H 1011.06 -1.13268 -3.59792 0
M  V30 10575 H 1013.45 -0.405923 -2.92295 0
M  V30 10576 H 1013.53 -1.79169 -1.82571 0
M  V30 10577 H 1013.17 -3.35661 -3.81174 0
M  V30 10578 H 1013.1 -1.94344 -4.89426 0
M  V30 10579 H 1015.59 -1.76177 -3.3432 0
M  V30 10580 H 1015.91 -4.14417 -6.52287 0
M  V30 10581 H 1014.25 -3.72109 -5.86992 0
M  V30 10582 H 1017.44 -2.25647 -4.10123 0
M  V30 10583 H 1017.61 -3.34267 -5.5513 0
M  V30 10584 N 1011.02 1.44971 -0.618145 0
M  V30 10585 C 1011.97 2.32354 0.106846 0
M  V30 10586 C 1012.96 1.4659 0.848984 0
M  V30 10587 O 1014.17 1.63012 0.763354 0
M  V30 10588 H 1010.54 0.750108 0.0533109 0
M  V30 10589 H 1012.51 2.9127 -0.648426 0
M  V30 10590 C 1011.26 3.30381 1.08368 0
M  V30 10591 H 1010.59 3.96377 0.52205 0
M  V30 10592 H 1012.03 3.94231 1.56069 0
M  V30 10593 C 1010.49 2.58336 2.1625 0
M  V30 10594 O 1011.02 2.37258 3.24148 0
M  V30 10595 N 1009.22 2.18292 1.91825 0
M  V30 10596 H 1008.77 2.35635 1.04086 0
M  V30 10597 H 1008.73 1.70413 2.6421 0
M  V30 10598 N 1012.5 0.357919 1.53482 0
M  V30 10599 C 1013.45 -0.50845 2.22258 0
M  V30 10600 C 1014.43 -1.05476 1.21506 0
M  V30 10601 O 1015.62 -0.986075 1.46988 0
M  V30 10602 C 1012.75 -1.65157 3.00962 0
M  V30 10603 C 1011.84 -1.11851 4.09084 0
M  V30 10604 N 1012.23 -0.307818 5.04862 0
M  V30 10605 C 1010.53 -1.39405 4.23653 0
M  V30 10606 C 1011.23 -0.016842 5.81698 0
M  V30 10607 N 1010.21 -0.612396 5.40139 0
M  V30 10608 H 1014.01 0.117836 2.93664 0
M  V30 10609 H 1011.52 0.16553 1.61554 0
M  V30 10610 H 1013.52 -2.28435 3.48745 0
M  V30 10611 H 1012.18 -2.281 2.31086 0
M  V30 10612 H 1013.19 0.0523313 5.17874 0
M  V30 10613 H 1009.87 -2.02682 3.65002 0
M  V30 10614 H 1011.26 0.638046 6.68864 0
M  V30 10615 N 1013.98 -1.5736 0.0868897 0
M  V30 10616 C 1014.92 -2.14793 -0.892571 0
M  V30 10617 C 1015.92 -1.08866 -1.29787 0
M  V30 10618 O 1017.12 -1.27223 -1.27335 0
M  V30 10619 H 1013.5 -0.686998 -0.305838 0
M  V30 10620 H 1015.47 -2.95927 -0.383393 0
M  V30 10621 C 1014.22 -2.73646 -2.14507 0
M  V30 10622 H 1013.54 -3.54835 -1.84207 0
M  V30 10623 H 1014.98 -3.17409 -2.81118 0
M  V30 10624 C 1013.44 -1.69138 -2.91366 0
M  V30 10625 O 1013.97 -1.12539 -3.85614 0
M  V30 10626 N 1012.18 -1.3982 -2.54752 0
M  V30 10627 H 1011.72 -1.86035 -1.78182 0
M  V30 10628 H 1011.68 -0.701316 -3.06478 0
M  V30 10629 N 1015.45 0.186762 -1.56489 0
M  V30 10630 C 1016.7 0.904063 -1.80752 0
M  V30 10631 C 1017.02 1.83443 -0.661343 0
M  V30 10632 O 1016.29 1.93272 0.319811 0
M  V30 10633 H 1014.87 0.336828 -0.66675 0
M  V30 10634 H 1017.54 0.190275 -1.93969 0
M  V30 10635 H 1016.63 1.49021 -2.74225 0
M  V30 10636 N 1016.93 1.50896 0.454776 0
M  V30 10637 C 1017.86 1.6712 1.56855 0
M  V30 10638 C 1018.88 0.552223 1.53148 0
M  V30 10639 O 1020.07 0.825969 1.5824 0
M  V30 10640 C 1017.17 1.65464 2.95762 0
M  V30 10641 C 1016.34 2.93662 3.24163 0
M  V30 10642 C 1015.4 2.84428 4.42704 0
M  V30 10643 O 1014.42 3.58382 4.42211 0
M  V30 10644 N 1015.63 1.9909 5.45292 0
M  V30 10645 H 1018.39 2.63194 1.43349 0
M  V30 10646 H 1015.95 1.48564 0.643457 0
M  V30 10647 H 1017.94 1.56878 3.73057 0
M  V30 10648 H 1016.51 0.770568 3.02954 0
M  V30 10649 H 1015.73 3.16251 2.35328 0
M  V30 10650 H 1017.02 3.78558 3.39957 0
M  V30 10651 H 1016.42 1.3835 5.48521 0
M  V30 10652 H 1014.98 1.96396 6.21508 0
M  V30 10653 N 1018.41 -0.709066 1.40748 0
M  V30 10654 C 1019.66 -1.46611 1.39103 0
M  V30 10655 C 1019.98 -1.95 -0.00365366 0
M  V30 10656 O 1019.25 -1.70791 -0.959541 0
M  V30 10657 H 1017.83 -0.543954 0.511979 0
M  V30 10658 H 1020.49 -0.840141 1.75863 0
M  V30 10659 H 1019.59 -2.33581 2.06994 0
M  V30 10660 N 1019.89 -1.26353 -0.941956 0
M  V30 10661 C 1021.12 -1.1446 -1.71996 0
M  V30 10662 C 1021.53 0.302957 -1.86759 0
M  V30 10663 O 1020.87 1.2193 -1.374 0
M  V30 10664 C 1020.93 -1.73986 -3.14593 0
M  V30 10665 C 1020.6 -3.23078 -3.23217 0
M  V30 10666 C 1021.59 -4.19905 -3.06554 0
M  V30 10667 C 1019.28 -3.63526 -3.46632 0
M  V30 10668 C 1021.27 -5.55159 -3.13172 0
M  V30 10669 C 1018.96 -4.98914 -3.52886 0
M  V30 10670 C 1019.96 -5.9454 -3.36172 0
M  V30 10671 O 1019.65 -7.27462 -3.42132 0
M  V30 10672 H 1019.38 -0.399453 -0.545356 0
M  V30 10673 H 1021.93 -1.67455 -1.18945 0
M  V30 10674 H 1020.16 -1.15453 -3.69063 0
M  V30 10675 H 1021.85 -1.57011 -3.74302 0
M  V30 10676 H 1022.62 -3.89995 -2.88321 0
M  V30 10677 H 1018.5 -2.8958 -3.58698 0
M  V30 10678 H 1022.04 -6.29777 -3.00044 0
M  V30 10679 H 1017.94 -5.28485 -3.70639 0
M  V30 10680 H 1018.7 -7.35725 -3.5868 0
M  V30 10681 N 1021.37 1.14642 -1.08144 0
M  V30 10682 C 1022.31 2.1964 -0.708995 0
M  V30 10683 C 1023.28 1.63303 0.303512 0
M  V30 10684 O 1024.47 1.8987 0.18813 0
M  V30 10685 C 1021.61 3.44886 -0.121585 0
M  V30 10686 C 1020.72 4.15386 -1.18654 0
M  V30 10687 C 1019.86 5.28205 -0.56328 0
M  V30 10688 C 1018.9 5.90534 -1.61046 0
M  V30 10689 N 1018.03 6.94809 -1.00919 0
M  V30 10690 H 1022.87 2.50848 -1.6087 0
M  V30 10691 H 1020.41 1.23185 -0.803975 0
M  V30 10692 H 1022.37 4.16528 0.23668 0
M  V30 10693 H 1021 3.14169 0.741445 0
M  V30 10694 H 1020.05 3.42159 -1.66227 0
M  V30 10695 H 1021.36 4.57809 -1.9802 0
M  V30 10696 H 1020.52 6.06507 -0.153109 0
M  V30 10697 H 1019.26 4.86995 0.262066 0
M  V30 10698 H 1018.26 5.10938 -2.03033 0
M  V30 10699 H 1019.49 6.33819 -2.43824 0
M  V30 10700 H 1017.43 6.5568 -0.204894 0
M  V30 10701 H 1017.35 7.35704 -1.73999 0
M  V30 10702 H 1018.62 7.76992 -0.624792 0
M  V30 10703 N 1022.85 0.866709 1.31628 0
M  V30 10704 C 1024.12 0.396828 1.91532 0
M  V30 10705 C 1024.5 -1.12081 1.78889 0
M  V30 10706 O 1023.85 -1.94791 1.19452 0
M  V30 10707 C 1024.06 0.874578 3.37864 0
M  V30 10708 C 1025.41 0.8988 4.14978 0
M  V30 10709 O 1026.43 0.820014 3.46633 0
M  V30 10710 O 1025.29 1.01223 5.37044 0
M  V30 10711 H 1022.39 0.1181 0.818524 0
M  V30 10712 H 1024.93 0.954407 1.40318 0
M  V30 10713 H 1023.7 1.91807 3.41066 0
M  V30 10714 H 1023.33 0.295126 3.96503 0
M  V30 10715 N 1024.32 -1.44642 0.625825 0
M  V30 10716 C 1025.26 -2.28882 -0.120614 0
M  V30 10717 C 1026.27 -1.40985 -0.81407 0
M  V30 10718 O 1027.46 -1.65188 -0.676404 0
M  V30 10719 C 1024.56 -3.17217 -1.19274 0
M  V30 10720 C 1023.73 -4.33499 -0.582839 0
M  V30 10721 C 1022.79 -5.02908 -1.54823 0
M  V30 10722 O 1021.82 -5.59102 -1.06743 0
M  V30 10723 N 1023.02 -5.0387 -2.88262 0
M  V30 10724 H 1025.78 -2.93585 0.602318 0
M  V30 10725 H 1023.34 -1.5503 0.466604 0
M  V30 10726 H 1025.34 -3.60515 -1.83878 0
M  V30 10727 H 1023.91 -2.54301 -1.81797 0
M  V30 10728 H 1023.13 -3.93458 0.241696 0
M  V30 10729 H 1024.41 -5.08561 -0.155914 0
M  V30 10730 H 1023.81 -4.59539 -3.2991 0
M  V30 10731 H 1022.37 -5.50974 -3.4824 0
M  V30 10732 N 1025.8 -0.366053 -1.5329 0
M  V30 10733 C 1027.08 0.279902 -1.93587 0
M  V30 10734 C 1027.46 1.66352 -1.29963 0
M  V30 10735 O 1026.81 2.23845 -0.458895 0
M  V30 10736 C 1027.02 0.329634 -3.4744 0
M  V30 10737 C 1028.36 0.569754 -4.2076 0
M  V30 10738 O 1029.39 0.410823 -3.53823 0
M  V30 10739 O 1028.25 0.879262 -5.3938 0
M  V30 10740 H 1025.34 0.16802 -0.809752 0
M  V30 10741 H 1027.89 -0.418871 -1.64449 0
M  V30 10742 H 1026.66 -0.640434 -3.86023 0
M  V30 10743 H 1026.28 1.07428 -3.82812 0
M  V30 10744 N 1027.28 1.57312 -0.0952337 0
M  V30 10745 C 1028.69 1.81589 0.433875 0
M  V30 10746 C 1029.04 1.01086 1.68155 0
M  V30 10747 O 1028.17 0.240272 2.15062 0
M  V30 10748 C 1028.76 3.29366 0.793931 0
M  V30 10749 C 1027.32 3.54407 1.26778 0
M  V30 10750 C 1026.47 2.76035 0.264518 0
M  V30 10751 H 1029.42 1.55426 -0.320675 0
M  V30 10752 H 1029.44 3.42697 1.65345 0
M  V30 10753 H 1028.95 3.87932 -0.114334 0
M  V30 10754 H 1027.05 3.01173 2.19376 0
M  V30 10755 H 1027.17 4.63055 1.22952 0
M  V30 10756 H 1025.53 2.43509 0.746691 0
M  V30 10757 H 1026.31 3.37349 -0.636429 0
M  V30 10758 N 1028.76 -0.17846 1.56586 0
M  V30 10759 C 1029.72 -1.20479 1.94981 0
M  V30 10760 C 1030.72 -1.37561 0.832677 0
M  V30 10761 O 1031.91 -1.35089 1.09984 0
M  V30 10762 C 1029.04 -2.57117 2.23839 0
M  V30 10763 H 1030.24 -0.876173 2.86816 0
M  V30 10764 H 1027.79 -0.420635 1.50534 0
M  V30 10765 H 1028.52 -2.95005 1.34695 0
M  V30 10766 H 1028.31 -2.46086 3.05261 0
M  V30 10767 H 1029.8 -3.31096 2.5449 0
M  V30 10768 N 1030.24 -1.51135 -0.446768 0
M  V30 10769 C 1031.46 -1.67411 -1.22427 0
M  V30 10770 C 1031.89 -0.367009 -1.84485 0
M  V30 10771 O 1031.24 0.67185 -1.68392 0
M  V30 10772 C 1031.29 -2.78473 -2.29096 0
M  V30 10773 O 1030.4 -2.41419 -3.34351 0
M  V30 10774 H 1029.74 -0.558512 -0.359111 0
M  V30 10775 H 1032.27 -1.97648 -0.5288 0
M  V30 10776 H 1032.28 -3.02277 -2.7403 0
M  V30 10777 H 1030.95 -3.73326 -1.83304 0
M  V30 10778 H 1029.53 -2.28152 -2.9496 0
M  V30 10779 N 1031.71 0.701592 -1.41122 0
M  V30 10780 C 1032.96 1.4616 -1.40155 0
M  V30 10781 C 1033.29 1.94498 -0.00861553 0
M  V30 10782 O 1032.54 1.69484 0.978452 0
M  V30 10783 C 1032.84 2.693 -2.34973 0
M  V30 10784 C 1032.51 2.39652 -3.81939 0
M  V30 10785 C 1031.17 2.31277 -4.21977 0
M  V30 10786 C 1033.52 2.15076 -4.74755 0
M  V30 10787 C 1030.85 1.96413 -5.52846 0
M  V30 10788 C 1033.2 1.81722 -6.05937 0
M  V30 10789 C 1031.87 1.71838 -6.45002 0
M  V30 10790 H 1031.14 0.534837 -0.512865 0
M  V30 10791 H 1033.78 0.802425 -1.73878 0
M  V30 10792 H 1032.09 3.40123 -1.94484 0
M  V30 10793 H 1033.79 3.27427 -2.31501 0
M  V30 10794 H 1030.38 2.47063 -3.50226 0
M  V30 10795 H 1034.56 2.20495 -4.4463 0
M  V30 10796 H 1029.82 1.87308 -5.82001 0
M  V30 10797 H 1033.99 1.61723 -6.77362 0
M  V30 10798 H 1031.62 1.44591 -7.46323 0
M  V30 10799 N 1033.19 1.2685 0.935242 0
M  V30 10800 C 1034.44 1.12522 1.67878 0
M  V30 10801 C 1034.76 -0.330894 1.92172 0
M  V30 10802 O 1034.03 -1.23259 1.52263 0
M  V30 10803 H 1032.61 0.413418 0.622169 0
M  V30 10804 H 1035.27 1.59267 1.12339 0
M  V30 10805 H 1034.37 1.64853 2.65009 0
M  V30 10806 N 1034.67 -1.14067 1.0875 0
M  V30 10807 C 1035.63 -2.17453 0.724341 0
M  V30 10808 C 1036.63 -1.58959 -0.242614 0
M  V30 10809 O 1037.82 -1.74186 -0.0217008 0
M  V30 10810 C 1034.96 -3.40828 0.0700236 0
M  V30 10811 H 1036.15 -2.51094 1.63987 0
M  V30 10812 H 1033.7 -1.28775 0.885813 0
M  V30 10813 H 1034.44 -3.1277 -0.857061 0
M  V30 10814 H 1034.22 -3.84551 0.76569 0
M  V30 10815 H 1035.71 -4.17258 -0.168905 0
M  V30 10816 N 1036.15 -0.873678 -1.31166 0
M  V30 10817 C 1037.43 -0.40698 -1.91319 0
M  V30 10818 C 1037.81 1.1113 -1.79481 0
M  V30 10819 O 1037.15 1.94155 -1.20483 0
M  V30 10820 C 1037.36 -0.892484 -3.37396 0
M  V30 10821 C 1038.71 -0.920795 -4.14496 0
M  V30 10822 O 1039.74 -0.838386 -3.46193 0
M  V30 10823 O 1038.59 -1.04069 -5.365 0
M  V30 10824 H 1035.69 -0.122439 -0.817886 0
M  V30 10825 H 1038.23 -0.961835 -1.3981 0
M  V30 10826 H 1037.01 -1.93613 -3.40044 0
M  V30 10827 H 1036.63 -0.31615 -3.96341 0
M  V30 10828 N 1037.63 1.44308 -0.633487 0
M  V30 10829 C 1038.85 2.06897 -0.144347 0
M  V30 10830 C 1039.28 1.47045 1.173 0
M  V30 10831 O 1038.63 0.572806 1.72013 0
M  V30 10832 C 1038.68 3.60571 -0.0456324 0
M  V30 10833 O 1037.79 4.0015 0.997682 0
M  V30 10834 H 1037.13 0.658427 -0.0858499 0
M  V30 10835 H 1039.66 1.85142 -0.870833 0
M  V30 10836 H 1039.67 4.07745 0.144178 0
M  V30 10837 H 1038.34 4.03515 -1.0074 0
M  V30 10838 H 1036.92 3.64603 0.782252 0
M  V30 10839 N 1039.1 0.374177 1.53094 0
M  V30 10840 C 1040.03 -0.459976 2.28925 0
M  V30 10841 C 1041.02 -1.07656 1.31698 0
M  V30 10842 O 1042.2 -1.09219 1.60577 0
M  V30 10843 C 1039.33 -1.5954 3.08487 0
M  V30 10844 C 1038.28 -1.10563 4.13473 0
M  V30 10845 C 1037.61 -2.33196 4.81169 0
M  V30 10846 C 1038.91 -0.184275 5.21975 0
M  V30 10847 H 1040.6 0.172692 2.98902 0
M  V30 10848 H 1038.15 0.0844956 1.43752 0
M  V30 10849 H 1040.1 -2.18565 3.60288 0
M  V30 10850 H 1038.83 -2.25543 2.36216 0
M  V30 10851 H 1037.49 -0.53801 3.62631 0
M  V30 10852 H 1037.13 -2.97675 4.05461 0
M  V30 10853 H 1036.83 -2.01094 5.52119 0
M  V30 10854 H 1038.36 -2.92892 5.35767 0
M  V30 10855 H 1039.77 -0.682262 5.69226 0
M  V30 10856 H 1038.17 0.0462746 6.00082 0
M  V30 10857 H 1039.24 0.771152 4.78729 0
M  V30 10858 N 1040.58 -1.57259 0.103575 0
M  V30 10859 C 1041.51 -2.17509 -0.84923 0
M  V30 10860 C 1042.49 -1.11079 -1.28824 0
M  V30 10861 O 1043.68 -1.39252 -1.35361 0
M  V30 10862 C 1040.81 -2.76221 -2.10522 0
M  V30 10863 C 1039.76 -3.88098 -1.80454 0
M  V30 10864 C 1039.09 -4.33549 -3.12952 0
M  V30 10865 C 1040.39 -5.10909 -1.08486 0
M  V30 10866 H 1042.08 -2.9738 -0.347217 0
M  V30 10867 H 1039.63 -1.43045 -0.165568 0
M  V30 10868 H 1041.58 -3.17024 -2.77621 0
M  V30 10869 H 1040.31 -1.93617 -2.63021 0
M  V30 10870 H 1038.96 -3.47847 -1.15749 0
M  V30 10871 H 1038.61 -3.47825 -3.63355 0
M  V30 10872 H 1038.31 -5.08984 -2.93614 0
M  V30 10873 H 1039.84 -4.76992 -3.81196 0
M  V30 10874 H 1041.25 -5.48828 -1.65711 0
M  V30 10875 H 1039.65 -5.91828 -0.992973 0
M  V30 10876 H 1040.72 -4.84851 -0.0690108 0
M  V30 10877 N 1042.06 0.170153 -1.56679 0
M  V30 10878 C 1042.99 1.21285 -1.9953 0
M  V30 10879 C 1043.97 1.46104 -0.871071 0
M  V30 10880 O 1045.16 1.57419 -1.13724 0
M  V30 10881 C 1042.29 2.5515 -2.35618 0
M  V30 10882 C 1041.24 2.44898 -3.51011 0
M  V30 10883 C 1040.57 3.83263 -3.72845 0
M  V30 10884 C 1041.87 1.95271 -4.84424 0
M  V30 10885 H 1043.56 0.856646 -2.86883 0
M  V30 10886 H 1041.11 0.410634 -1.38021 0
M  V30 10887 H 1043.06 3.28299 -2.64193 0
M  V30 10888 H 1041.78 2.92561 -1.45175 0
M  V30 10889 H 1040.44 1.74203 -3.22566 0
M  V30 10890 H 1040.09 4.18069 -2.79691 0
M  V30 10891 H 1039.79 3.77272 -4.50488 0
M  V30 10892 H 1041.31 4.57996 -4.03822 0
M  V30 10893 H 1042.73 2.58195 -5.11867 0
M  V30 10894 H 1041.13 2.00225 -5.65712 0
M  V30 10895 H 1042.2 0.90709 -4.7634 0
M  V30 10896 N 1043.54 1.5137 0.438746 0
M  V30 10897 C 1044.49 1.73154 1.55308 0
M  V30 10898 C 1045.48 0.597825 1.58501 0
M  V30 10899 O 1046.69 0.77917 1.62262 0
M  V30 10900 H 1043.06 0.547083 0.51595 0
M  V30 10901 H 1045.03 2.66566 1.34108 0
M  V30 10902 C 1043.78 1.87242 2.92977 0
M  V30 10903 H 1043.1 2.73884 2.91252 0
M  V30 10904 H 1044.54 2.06497 3.70317 0
M  V30 10905 C 1043 0.631887 3.30921 0
M  V30 10906 O 1043.53 -0.214099 4.01129 0
M  V30 10907 N 1041.74 0.47639 2.86669 0
M  V30 10908 H 1041.29 1.16589 2.29706 0
M  V30 10909 H 1041.24 -0.352403 3.12419 0
M  V30 10910 N 1045.02 -0.694098 1.41492 0
M  V30 10911 C 1046.24 -1.48789 1.44488 0
M  V30 10912 C 1046.67 -1.88028 0.0521588 0
M  V30 10913 O 1046.02 -1.54727 -0.944952 0
M  V30 10914 C 1046.07 -2.72586 2.3607 0
M  V30 10915 O 1045.18 -3.70128 1.81876 0
M  V30 10916 H 1044.52 -0.447758 0.490315 0
M  V30 10917 H 1047.05 -0.853036 1.85969 0
M  V30 10918 H 1047.06 -3.20877 2.51995 0
M  V30 10919 H 1045.73 -2.43363 3.37264 0
M  V30 10920 H 1044.31 -3.29069 1.75408 0
M  V30 10921 N 1046.49 -1.27344 -0.928501 0
M  V30 10922 C 1047.72 -1.16557 -1.7155 0
M  V30 10923 C 1048.14 0.274044 -1.86093 0
M  V30 10924 O 1047.5 1.19847 -1.36038 0
M  V30 10925 C 1047.55 -1.85332 -3.09329 0
M  V30 10926 O 1046.65 -1.15074 -3.9602 0
M  V30 10927 H 1046 -0.405423 -0.525859 0
M  V30 10928 H 1048.53 -1.68399 -1.16202 0
M  V30 10929 H 1048.54 -1.92659 -3.59648 0
M  V30 10930 H 1047.21 -2.90056 -2.98061 0
M  V30 10931 H 1045.79 -1.1581 -3.54461 0
M  V30 10932 N 1047.97 1.13488 -1.09353 0
M  V30 10933 C 1049.39 1.36739 -0.823086 0
M  V30 10934 C 1049.59 1.93476 0.562963 0
M  V30 10935 O 1048.64 2.15374 1.31796 0
M  V30 10936 C 1049.96 2.31943 -1.91371 0
M  V30 10937 C 1051.51 2.4556 -1.94085 0
M  V30 10938 C 1051.98 3.44072 -3.02289 0
M  V30 10939 N 1053.47 3.51622 -3.01524 0
M  V30 10940 C 1054.21 4.27724 -3.8189 0
M  V30 10941 N 1053.7 5.06987 -4.72161 0
M  V30 10942 N 1055.5 4.23018 -3.70152 0
M  V30 10943 H 1047.65 0.75012 -1.98713 0
M  V30 10944 H 1049.91 0.392564 -0.862901 0
M  V30 10945 H 1049.62 1.97408 -2.91072 0
M  V30 10946 H 1049.49 3.31952 -1.79131 0
M  V30 10947 H 1051.88 2.79382 -0.950234 0
M  V30 10948 H 1051.96 1.45479 -2.10403 0
M  V30 10949 H 1051.6 3.10981 -4.01564 0
M  V30 10950 H 1051.53 4.43956 -2.83214 0
M  V30 10951 H 1054.02 2.95066 -2.36103 0
M  V30 10952 H 1054.34 5.6236 -5.30067 0
M  V30 10953 H 1052.68 5.06222 -4.76197 0
M  V30 10954 H 1055.87 3.60171 -2.98989 0
M  V30 10955 H 1056.04 4.82075 -4.33022 0
M  V30 10956 N 1049.45 0.880621 1.30701 0
M  V30 10957 C 1050.4 0.315679 2.25804 0
M  V30 10958 C 1051.39 -0.553382 1.51084 0
M  V30 10959 O 1052.58 -0.398518 1.72455 0
M  V30 10960 C 1049.71 -0.472586 3.40032 0
M  V30 10961 C 1048.79 0.410318 4.2211 0
M  V30 10962 N 1049.18 1.50876 4.82773 0
M  V30 10963 C 1047.48 0.20465 4.4553 0
M  V30 10964 C 1048.18 2.05409 5.44226 0
M  V30 10965 N 1047.16 1.34964 5.26579 0
M  V30 10966 H 1050.96 1.15505 2.70251 0
M  V30 10967 H 1048.47 0.729547 1.45091 0
M  V30 10968 H 1050.47 -0.893918 4.07204 0
M  V30 10969 H 1049.13 -1.30945 2.97125 0
M  V30 10970 H 1050.14 1.89163 4.82118 0
M  V30 10971 H 1046.82 -0.595398 4.13233 0
M  V30 10972 H 1048.21 2.97627 6.02385 0
M  V30 10973 N 1050.93 -1.4397 0.641131 0
M  V30 10974 C 1052.16 -2.06004 0.156779 0
M  V30 10975 C 1052.57 -1.48059 -1.17793 0
M  V30 10976 O 1051.91 -0.601788 -1.73563 0
M  V30 10977 C 1051.97 -3.59493 -0.0217203 0
M  V30 10978 C 1051.64 -4.39957 1.23639 0
M  V30 10979 C 1052.63 -4.72797 2.16239 0
M  V30 10980 C 1050.32 -4.80168 1.4746 0
M  V30 10981 C 1052.31 -5.44741 3.30962 0
M  V30 10982 C 1050 -5.51859 2.62478 0
M  V30 10983 C 1051 -5.84067 3.54055 0
M  V30 10984 O 1050.69 -6.54296 4.67067 0
M  V30 10985 H 1050.42 -0.671061 0.0815685 0
M  V30 10986 H 1052.97 -1.85664 0.878517 0
M  V30 10987 H 1051.2 -3.78362 -0.798707 0
M  V30 10988 H 1052.89 -4.03263 -0.461893 0
M  V30 10989 H 1053.66 -4.42261 1.99073 0
M  V30 10990 H 1049.54 -4.54513 0.770652 0
M  V30 10991 H 1053.08 -5.69798 4.02462 0
M  V30 10992 H 1048.98 -5.81811 2.79583 0
M  V30 10993 H 1049.74 -6.72772 4.66177 0
M  V30 10994 N 1052.41 -0.382291 -1.52893 0
M  V30 10995 C 1053.34 0.447829 -2.29165 0
M  V30 10996 C 1054.32 1.06956 -1.32267 0
M  V30 10997 O 1055.5 1.08365 -1.61154 0
M  V30 10998 C 1052.63 1.57902 -3.09329 0
M  V30 10999 C 1051.59 1.08369 -4.14053 0
M  V30 11000 C 1050.91 2.30641 -4.82399 0
M  V30 11001 C 1052.21 0.156591 -5.22065 0
M  V30 11002 H 1053.91 -0.188541 -2.98806 0
M  V30 11003 H 1051.45 -0.0921179 -1.43705 0
M  V30 11004 H 1053.41 2.16652 -3.61442 0
M  V30 11005 H 1052.13 2.24287 -2.37409 0
M  V30 11006 H 1050.79 0.518772 -3.62911 0
M  V30 11007 H 1050.44 2.9552 -4.07034 0
M  V30 11008 H 1050.14 1.98163 -5.53177 0
M  V30 11009 H 1051.66 2.90047 -5.37313 0
M  V30 11010 H 1053.08 0.652065 -5.6958 0
M  V30 11011 H 1051.47 -0.0780978 -6.00049 0
M  V30 11012 H 1052.54 -0.796529 -4.78313 0
M  V30 11013 N 1053.89 1.57202 -0.111913 0
M  V30 11014 C 1054.83 2.16186 0.858286 0
M  V30 11015 C 1055.83 1.10917 1.28039 0
M  V30 11016 O 1057.03 1.29233 1.25295 0
M  V30 11017 H 1053.41 0.691777 0.29487 0
M  V30 11018 H 1055.38 2.96499 0.336265 0
M  V30 11019 C 1054.13 2.77024 2.10127 0
M  V30 11020 H 1053.45 3.5772 1.78539 0
M  V30 11021 H 1054.89 3.21841 2.76033 0
M  V30 11022 C 1053.35 1.73752 2.88638 0
M  V30 11023 O 1053.88 1.18659 3.83774 0
M  V30 11024 N 1052.09 1.43855 2.52496 0
M  V30 11025 H 1051.63 1.88846 1.75199 0
M  V30 11026 H 1051.59 0.749985 3.05324 0
M  V30 11027 N 1055.36 -0.161842 1.56767 0
M  V30 11028 C 1056.61 -0.875278 1.81719 0
M  V30 11029 C 1056.93 -1.82998 0.690739 0
M  V30 11030 O 1058.13 -2.58648 0.82545 0
M  V30 11031 C 1056.59 -1.60703 3.22029 0
M  V30 11032 C 1056.2 -0.695486 4.42569 0
M  V30 11033 C 1057.94 -2.30813 3.56266 0
M  V30 11034 C 1055.85 -1.42801 5.73901 0
M  V30 11035 H 1054.78 -0.330591 0.677662 0
M  V30 11036 H 1057.43 -0.128112 1.83052 0
M  V30 11037 H 1055.81 -2.39929 3.1504 0
M  V30 11038 H 1056.98 0.0604882 4.6076 0
M  V30 11039 H 1055.3 -0.10356 4.16271 0
M  V30 11040 H 1057.9 -2.86229 4.51638 0
M  V30 11041 H 1058.24 -3.06603 2.81604 0
M  V30 11042 H 1058.77 -1.5852 3.64851 0
M  V30 11043 H 1055.51 -0.712253 6.51619 0
M  V30 11044 H 1055.03 -2.15707 5.5967 0
M  V30 11045 H 1056.71 -1.97295 6.16185 0
M  V30 11046 N 1056.84 -1.516 -0.430713 0
M  V30 11047 C 1058.26 -1.39923 -0.767706 0
M  V30 11048 C 1058.46 -0.486756 -1.95532 0
M  V30 11049 O 1057.51 0.0555965 -2.52439 0
M  V30 11050 C 1058.83 -2.82074 -1.04187 0
M  V30 11051 C 1060.37 -2.9127 -1.1459 0
M  V30 11052 C 1060.85 -4.34342 -1.45295 0
M  V30 11053 N 1062.34 -4.37479 -1.52206 0
M  V30 11054 C 1063.08 -5.45219 -1.77549 0
M  V30 11055 N 1062.57 -6.6311 -2.0064 0
M  V30 11056 N 1064.36 -5.32707 -1.79386 0
M  V30 11057 H 1056.52 -2.09474 0.351351 0
M  V30 11058 H 1058.78 -0.943247 0.0948151 0
M  V30 11059 H 1058.48 -3.50868 -0.241837 0
M  V30 11060 H 1058.36 -3.21805 -1.96777 0
M  V30 11061 H 1060.75 -2.2267 -1.93655 0
M  V30 11062 H 1060.83 -2.55026 -0.198854 0
M  V30 11063 H 1060.47 -5.03494 -0.667559 0
M  V30 11064 H 1060.4 -4.68105 -2.41217 0
M  V30 11065 H 1062.89 -3.52488 -1.36237 0
M  V30 11066 H 1063.2 -7.41012 -2.19366 0
M  V30 11067 H 1061.55 -6.66214 -1.97948 0
M  V30 11068 H 1064.74 -4.39589 -1.60869 0
M  V30 11069 H 1064.91 -6.16752 -1.98799 0
M  V30 11070 N 1058.32 0.686584 -1.41858 0
M  V30 11071 C 1059.55 1.47305 -1.44862 0
M  V30 11072 C 1059.96 1.8912 -0.0549286 0
M  V30 11073 O 1059.3 1.57941 0.938101 0
M  V30 11074 C 1059.36 2.76107 -2.30229 0
M  V30 11075 C 1059.03 2.5644 -3.78269 0
M  V30 11076 C 1060.02 2.21803 -4.70212 0
M  V30 11077 C 1057.71 2.71801 -4.22409 0
M  V30 11078 C 1059.7 2.02778 -6.04284 0
M  V30 11079 C 1057.39 2.52392 -5.56544 0
M  V30 11080 C 1058.39 2.17933 -6.47298 0
M  V30 11081 O 1058.08 1.98701 -7.78956 0
M  V30 11082 H 1057.81 0.460174 -0.495193 0
M  V30 11083 H 1060.36 0.852069 -1.86893 0
M  V30 11084 H 1058.59 3.40644 -1.83026 0
M  V30 11085 H 1060.28 3.37947 -2.24826 0
M  V30 11086 H 1061.05 2.09542 -4.37398 0
M  V30 11087 H 1056.93 2.97605 -3.52069 0
M  V30 11088 H 1060.47 1.75805 -6.75084 0
M  V30 11089 H 1056.37 2.64246 -5.88935 0
M  V30 11090 H 1057.13 2.13393 -7.90193 0
M  V30 11091 N 1059.8 1.27835 0.921735 0
M  V30 11092 C 1061.03 1.17352 1.704 0
M  V30 11093 C 1061.44 -0.268892 1.86875 0
M  V30 11094 O 1060.8 -1.18253 1.39005 0
M  V30 11095 C 1060.85 1.85889 3.10045 0
M  V30 11096 O 1060.57 3.24495 2.94338 0
M  V30 11097 C 1062.07 1.81607 4.04393 0
M  V30 11098 H 1059.29 0.40773 0.532914 0
M  V30 11099 H 1061.83 1.68815 1.15419 0
M  V30 11100 H 1059.99 1.38316 3.61867 0
M  V30 11101 H 1060.4 3.58705 3.82663 0
M  V30 11102 H 1061.88 2.34165 4.99871 0
M  V30 11103 H 1062.35 0.786697 4.32097 0
M  V30 11104 H 1062.96 2.28822 3.58498 0
M  V30 11105 N 1061.28 -1.12907 1.09954 0
M  V30 11106 C 1062.21 -2.20585 0.765799 0
M  V30 11107 C 1063.19 -1.68117 -0.258989 0
M  V30 11108 O 1064.37 -1.93792 -0.125853 0
M  V30 11109 C 1061.5 -3.46772 0.191435 0
M  V30 11110 C 1060.46 -4.12363 1.14635 0
M  V30 11111 C 1059.78 -5.3294 0.433426 0
M  V30 11112 C 1061.08 -4.59073 2.49096 0
M  V30 11113 H 1062.78 -2.48759 1.66612 0
M  V30 11114 H 1060.32 -1.19563 0.802534 0
M  V30 11115 H 1062.27 -4.21365 -0.0541535 0
M  V30 11116 H 1061 -3.18011 -0.744101 0
M  V30 11117 H 1059.66 -3.39744 1.37731 0
M  V30 11118 H 1059.31 -5.00444 -0.506422 0
M  V30 11119 H 1059.01 -5.77772 1.07018 0
M  V30 11120 H 1060.53 -6.10284 0.196267 0
M  V30 11121 H 1061.94 -5.25063 2.30177 0
M  V30 11122 H 1060.34 -5.14665 3.0861 0
M  V30 11123 H 1061.41 -3.73313 3.0946 0
M  V30 11124 N 1062.75 -0.88754 -1.30232 0
M  V30 11125 C 1063.68 -0.372481 -2.3051 0
M  V30 11126 C 1064.66 0.546037 -1.61098 0
M  V30 11127 O 1065.85 0.459345 -1.88689 0
M  V30 11128 C 1062.98 0.411605 -3.44852 0
M  V30 11129 C 1061.93 -0.415383 -4.2598 0
M  V30 11130 C 1061.26 0.495463 -5.324 0
M  V30 11131 C 1062.56 -1.65886 -4.95257 0
M  V30 11132 H 1064.25 -1.21045 -2.7384 0
M  V30 11133 H 1061.8 -0.583498 -1.31648 0
M  V30 11134 H 1063.75 0.782584 -4.1407 0
M  V30 11135 H 1062.48 1.28325 -3.00334 0
M  V30 11136 H 1061.14 -0.768534 -3.58454 0
M  V30 11137 H 1060.78 1.36489 -4.84128 0
M  V30 11138 H 1060.48 -0.0540885 -5.87575 0
M  V30 11139 H 1062.01 0.862901 -6.04472 0
M  V30 11140 H 1063.42 -1.35832 -5.56976 0
M  V30 11141 H 1061.82 -2.14881 -5.60309 0
M  V30 11142 H 1062.89 -2.40181 -4.21237 0
M  V30 11143 N 1064.23 1.43628 -0.648757 0
M  V30 11144 C 1065.64 1.85142 -0.24066 0
M  V30 11145 C 1065.99 1.54304 1.21181 0
M  V30 11146 O 1065.12 0.989792 1.92437 0
M  V30 11147 C 1065.71 3.3606 -0.429999 0
M  V30 11148 C 1064.27 3.76323 -0.0762588 0
M  V30 11149 C 1063.42 2.67382 -0.734999 0
M  V30 11150 H 1066.37 1.33844 -0.852734 0
M  V30 11151 H 1066.39 3.79102 0.325836 0
M  V30 11152 H 1065.9 3.58474 -1.48721 0
M  V30 11153 H 1064.01 3.59521 0.978529 0
M  V30 11154 H 1064.12 4.76498 -0.498612 0
M  V30 11155 H 1062.48 2.54141 -0.168644 0
M  V30 11156 H 1063.27 2.92625 -1.79515 0
M  V30 11157 N 1065.71 0.390394 1.52688 0
M  V30 11158 C 1066.94 -0.191207 2.05713 0
M  V30 11159 C 1067.35 -1.40973 1.26188 0
M  V30 11160 O 1066.69 -1.81202 0.301938 0
M  V30 11161 C 1066.75 -0.624794 3.54029 0
M  V30 11162 C 1066.42 0.480413 4.54468 0
M  V30 11163 C 1067.41 1.33816 5.02384 0
M  V30 11164 C 1065.1 0.647754 4.98106 0
M  V30 11165 C 1067.09 2.34836 5.92563 0
M  V30 11166 C 1064.78 1.66129 5.88085 0
M  V30 11167 C 1065.78 2.51001 6.35206 0
M  V30 11168 O 1065.47 3.50622 7.23408 0
M  V30 11169 H 1065.2 -0.032221 0.675232 0
M  V30 11170 H 1067.75 0.554431 1.97776 0
M  V30 11171 H 1065.98 -1.42243 3.59589 0
M  V30 11172 H 1067.67 -1.13219 3.8979 0
M  V30 11173 H 1068.44 1.22019 4.694 0
M  V30 11174 H 1064.32 -0.00314511 4.61 0
M  V30 11175 H 1067.86 3.01117 6.29265 0
M  V30 11176 H 1063.76 1.77964 6.20483 0
M  V30 11177 H 1064.53 3.46644 7.41472 0
M  V30 11178 N 1067.19 -1.57141 0.120249 0
M  V30 11179 C 1068.12 -2.18398 -0.826112 0
M  V30 11180 C 1069.1 -1.12439 -1.27638 0
M  V30 11181 O 1070.28 -1.40679 -1.33877 0
M  V30 11182 C 1067.41 -2.78438 -2.0758 0
M  V30 11183 C 1066.37 -3.89991 -1.76327 0
M  V30 11184 C 1065.69 -4.36844 -3.08336 0
M  V30 11185 C 1066.99 -5.12031 -1.03062 0
M  V30 11186 H 1068.69 -2.97731 -0.315656 0
M  V30 11187 H 1066.23 -1.43213 -0.150387 0
M  V30 11188 H 1068.19 -3.19951 -2.74243 0
M  V30 11189 H 1066.91 -1.96396 -2.60953 0
M  V30 11190 H 1065.57 -3.49055 -1.12053 0
M  V30 11191 H 1065.22 -3.51659 -3.59646 0
M  V30 11192 H 1064.92 -5.1207 -2.88199 0
M  V30 11193 H 1066.44 -4.81009 -3.76116 0
M  V30 11194 H 1067.86 -5.50555 -1.59881 0
M  V30 11195 H 1066.25 -5.92848 -0.930146 0
M  V30 11196 H 1067.32 -4.84897 -0.017582 0
M  V30 11197 N 1068.67 0.153526 -1.5685 0
M  V30 11198 C 1069.9 0.881055 -1.86872 0
M  V30 11199 C 1070.3 1.75547 -0.705692 0
M  V30 11200 O 1069.65 1.8064 0.333888 0
M  V30 11201 C 1069.71 1.79429 -3.11521 0
M  V30 11202 C 1069.37 1.0977 -4.43621 0
M  V30 11203 C 1070.37 0.454693 -5.17908 0
M  V30 11204 C 1068.06 1.08915 -4.9035 0
M  V30 11205 C 1070.05 -0.187562 -6.37124 0
M  V30 11206 C 1067.74 0.443084 -6.09492 0
M  V30 11207 C 1068.73 -0.194154 -6.82724 0
M  V30 11208 O 1068.42 -0.829995 -7.99604 0
M  V30 11209 H 1068.15 0.260486 -0.623797 0
M  V30 11210 H 1070.71 0.153024 -2.04829 0
M  V30 11211 H 1068.94 2.5631 -2.89555 0
M  V30 11212 H 1070.63 2.39321 -3.27842 0
M  V30 11213 H 1071.39 0.453151 -4.82878 0
M  V30 11214 H 1067.27 1.57456 -4.33276 0
M  V30 11215 H 1070.82 -0.685542 -6.94223 0
M  V30 11216 H 1066.71 0.44227 -6.43983 0
M  V30 11217 H 1067.48 -0.731013 -8.15229 0
M  V30 11218 N 1070.14 1.51827 0.422667 0
M  V30 11219 C 1071.37 1.69049 1.1929 0
M  V30 11220 C 1071.79 0.394095 1.84641 0
M  V30 11221 O 1071.14 -0.628731 1.71328 0
M  V30 11222 C 1071.2 2.81657 2.26609 0
M  V30 11223 O 1070.92 4.06275 1.63929 0
M  V30 11224 C 1072.42 3.10274 3.16615 0
M  V30 11225 H 1069.64 0.566894 0.358988 0
M  V30 11226 H 1072.18 1.98318 0.499029 0
M  V30 11227 H 1070.34 2.54945 2.91688 0
M  V30 11228 H 1070.75 4.68924 2.3497 0
M  V30 11229 H 1072.22 3.92613 3.88019 0
M  V30 11230 H 1072.7 2.23273 3.78214 0
M  V30 11231 H 1073.31 3.387 2.57221 0
M  V30 11232 N 1071.62 -0.679052 1.4222 0
M  V30 11233 C 1072.55 -1.80481 1.48152 0
M  V30 11234 C 1073.53 -1.66698 0.338502 0
M  V30 11235 O 1074.72 -1.86183 0.552228 0
M  V30 11236 C 1071.85 -3.18746 1.37908 0
M  V30 11237 C 1070.8 -3.47258 2.50192 0
M  V30 11238 C 1070.13 -4.85052 2.25008 0
M  V30 11239 C 1071.43 -3.44576 3.92511 0
M  V30 11240 H 1073.12 -1.75774 2.42371 0
M  V30 11241 H 1070.67 -0.844241 1.16656 0
M  V30 11242 H 1072.62 -3.97229 1.40666 0
M  V30 11243 H 1071.35 -3.24119 0.401806 0
M  V30 11244 H 1070 -2.71133 2.46744 0
M  V30 11245 H 1069.65 -4.8707 1.25584 0
M  V30 11246 H 1069.35 -5.05092 3.00259 0
M  V30 11247 H 1070.88 -5.65825 2.29508 0
M  V30 11248 H 1072.29 -4.13036 3.97585 0
M  V30 11249 H 1070.69 -3.76151 4.67579 0
M  V30 11250 H 1071.76 -2.4323 4.19484 0
M  V30 11251 N 1073.1 -1.28322 -0.914942 0
M  V30 11252 C 1074.35 -1.15407 -1.66396 0
M  V30 11253 C 1074.68 0.297587 -1.9221 0
M  V30 11254 O 1073.93 1.23299 -1.51973 0
M  V30 11255 C 1074.23 -1.89663 -3.02924 0
M  V30 11256 C 1073.9 -3.39464 -2.96774 0
M  V30 11257 C 1072.56 -3.80321 -2.94804 0
M  V30 11258 C 1074.91 -4.3499 -2.87111 0
M  V30 11259 C 1072.24 -5.15046 -2.8097 0
M  V30 11260 C 1074.59 -5.69788 -2.74818 0
M  V30 11261 C 1073.25 -6.09921 -2.71205 0
M  V30 11262 H 1072.52 -0.422303 -0.608885 0
M  V30 11263 H 1075.17 -1.59082 -1.06607 0
M  V30 11264 H 1073.48 -1.38533 -3.66491 0
M  V30 11265 H 1075.17 -1.77087 -3.59779 0
M  V30 11266 H 1071.76 -3.06979 -2.99101 0
M  V30 11267 H 1075.95 -4.04389 -2.87721 0
M  V30 11268 H 1071.2 -5.45271 -2.76568 0
M  V30 11269 H 1075.38 -6.43469 -2.66309 0
M  V30 11270 H 1073 -7.14267 -2.60243 0
M  V30 11271 N 1074.58 1.12322 -1.10551 0
M  V30 11272 C 1075.83 1.83858 -0.848674 0
M  V30 11273 C 1076.15 1.84159 0.62575 0
M  V30 11274 O 1075.41 1.28341 1.4774 0
M  V30 11275 C 1075.71 3.31177 -1.34375 0
M  V30 11276 C 1075.37 3.51046 -2.8298 0
M  V30 11277 C 1074.04 3.56177 -3.23561 0
M  V30 11278 C 1076.39 3.58061 -3.78737 0
M  V30 11279 C 1073.72 3.65868 -4.58647 0
M  V30 11280 C 1076.07 3.69283 -5.13627 0
M  V30 11281 C 1074.73 3.7267 -5.53781 0
M  V30 11282 H 1074 0.672784 -0.310552 0
M  V30 11283 H 1076.65 1.3253 -1.38232 0
M  V30 11284 H 1074.95 3.84937 -0.730144 0
M  V30 11285 H 1076.65 3.84998 -1.12148 0
M  V30 11286 H 1073.24 3.47716 -2.50582 0
M  V30 11287 H 1077.42 3.53366 -3.48491 0
M  V30 11288 H 1072.68 3.66763 -4.89178 0
M  V30 11289 H 1076.85 3.73654 -5.8767 0
M  V30 11290 H 1074.48 3.79932 -6.58449 0
M  V30 11291 N 1076.06 0.894434 1.2976 0
M  V30 11292 C 1077.47 0.589778 1.48303 0
M  V30 11293 C 1077.67 -0.870085 1.81746 0
M  V30 11294 O 1076.73 -1.65065 1.91076 0
M  V30 11295 C 1078.04 1.51107 2.59975 0
M  V30 11296 C 1079.59 1.51571 2.73853 0
M  V30 11297 C 1080.06 2.42316 3.88648 0
M  V30 11298 N 1081.56 2.40333 3.95973 0
M  V30 11299 C 1082.29 3.07254 4.84131 0
M  V30 11300 N 1081.79 3.83435 5.77018 0
M  V30 11301 N 1083.58 2.96438 4.77578 0
M  V30 11302 H 1075.73 1.83871 1.06327 0
M  V30 11303 H 1077.99 0.78758 0.527657 0
M  V30 11304 H 1077.7 2.55097 2.42112 0
M  V30 11305 H 1077.57 1.22767 3.56662 0
M  V30 11306 H 1079.96 0.483277 2.91116 0
M  V30 11307 H 1080.04 1.83946 1.77757 0
M  V30 11308 H 1079.69 3.4565 3.72141 0
M  V30 11309 H 1079.62 2.07252 4.84101 0
M  V30 11310 H 1082.11 1.84979 3.29532 0
M  V30 11311 H 1082.42 4.31565 6.4107 0
M  V30 11312 H 1080.76 3.87542 5.7692 0
M  V30 11313 H 1083.96 2.36442 4.03996 0
M  V30 11314 H 1084.13 3.48867 5.46073 0
M  V30 11315 N 1077.53 -1.43282 0.656365 0
M  V30 11316 C 1078.5 -2.29188 -0.0239173 0
M  V30 11317 C 1079.5 -1.42373 -0.747436 0
M  V30 11318 O 1080.69 -1.63969 -0.588213 0
M  V30 11319 C 1077.82 -3.24501 -1.0446 0
M  V30 11320 H 1079.01 -2.9083 0.731978 0
M  V30 11321 H 1076.57 -1.50614 0.417752 0
M  V30 11322 H 1077.3 -2.6776 -1.82962 0
M  V30 11323 H 1077.09 -3.88509 -0.52942 0
M  V30 11324 H 1078.58 -3.88971 -1.51958 0
M  V30 11325 N 1079.01 -0.398486 -1.52479 0
M  V30 11326 C 1079.96 0.449343 -2.23528 0
M  V30 11327 C 1080.95 1.02218 -1.24259 0
M  V30 11328 O 1082.14 0.946757 -1.49551 0
M  V30 11329 C 1079.27 1.5712 -3.05235 0
M  V30 11330 C 1078.35 1.00966 -4.11906 0
M  V30 11331 N 1078.75 0.173855 -5.05501 0
M  V30 11332 C 1077.04 1.28124 -4.272 0
M  V30 11333 C 1077.74 -0.137391 -5.81538 0
M  V30 11334 N 1076.72 0.468972 -5.41573 0
M  V30 11335 H 1080.52 -0.195654 -2.93248 0
M  V30 11336 H 1078.04 -0.208305 -1.61059 0
M  V30 11337 H 1080.03 2.19108 -3.54679 0
M  V30 11338 H 1078.69 2.21893 -2.37052 0
M  V30 11339 H 1079.7 -0.189618 -5.17553 0
M  V30 11340 H 1076.38 1.92933 -3.70247 0
M  V30 11341 H 1077.77 -0.815159 -6.66937 0
M  V30 11342 N 1080.49 1.57075 -0.12858 0
M  V30 11343 C 1081.72 2.00305 0.537839 0
M  V30 11344 C 1082.14 1.00787 1.58819 0
M  V30 11345 O 1081.5 -0.0190839 1.8129 0
M  V30 11346 C 1081.55 3.42371 1.13201 0
M  V30 11347 O 1080.65 3.45786 2.24735 0
M  V30 11348 H 1079.99 0.650456 0.133428 0
M  V30 11349 H 1082.52 2.03415 -0.219882 0
M  V30 11350 H 1082.53 3.80783 1.4652 0
M  V30 11351 H 1081.21 4.14315 0.362713 0
M  V30 11352 H 1079.78 3.19201 1.92783 0
M  V30 11353 N 1081.97 -0.145205 1.5693 0
M  V30 11354 C 1083.39 -0.497905 1.51635 0
M  V30 11355 C 1083.59 -1.8328 0.837301 0
M  V30 11356 O 1082.64 -2.49172 0.408584 0
M  V30 11357 C 1083.95 -0.506557 2.96403 0
M  V30 11358 C 1085.5 -0.591947 3.07352 0
M  V30 11359 C 1085.98 -0.631244 4.53629 0
M  V30 11360 N 1087.47 -0.693417 4.5798 0
M  V30 11361 C 1088.2 -0.744836 5.68542 0
M  V30 11362 N 1087.7 -0.755492 6.88668 0
M  V30 11363 N 1089.49 -0.785854 5.5658 0
M  V30 11364 H 1081.64 0.729779 1.99469 0
M  V30 11365 H 1083.91 0.266295 0.90983 0
M  V30 11366 H 1083.61 0.406127 3.49347 0
M  V30 11367 H 1083.49 -1.34383 3.5245 0
M  V30 11368 H 1085.87 -1.49505 2.54425 0
M  V30 11369 H 1085.95 0.272507 2.54344 0
M  V30 11370 H 1085.6 0.26771 5.07194 0
M  V30 11371 H 1085.53 -1.51221 5.0442 0
M  V30 11372 H 1088.02 -0.692408 3.71503 0
M  V30 11373 H 1088.33 -0.796624 7.68683 0
M  V30 11374 H 1086.68 -0.723339 6.91226 0
M  V30 11375 H 1089.87 -0.774712 4.61645 0
M  V30 11376 H 1090.04 -0.822461 6.42759 0
M  V30 11377 N 1083.45 -1.52049 -0.414609 0
M  V30 11378 C 1084.7 -1.65511 -1.15977 0
M  V30 11379 C 1085.02 -0.384703 -1.91168 0
M  V30 11380 O 1084.29 0.600247 -1.86477 0
M  V30 11381 H 1082.87 -0.610039 -0.431116 0
M  V30 11382 H 1085.53 -1.8907 -0.473139 0
M  V30 11383 H 1084.62 -2.4936 -1.87686 0
M  V30 11384 N 1084.93 0.6715 -1.42579 0
M  V30 11385 C 1086.2 1.42766 -1.33706 0
M  V30 11386 C 1086.58 2.11086 0.0239748 0
M  V30 11387 O 1085.93 2.03479 1.03964 0
M  V30 11388 C 1086.14 2.42739 -2.50756 0
M  V30 11389 C 1087.49 3.07284 -2.93021 0
M  V30 11390 O 1088.51 2.53066 -2.50671 0
M  V30 11391 O 1087.37 4.05541 -3.66331 0
M  V30 11392 H 1084.47 0.636955 -0.527463 0
M  V30 11393 H 1087.01 0.699946 -1.54593 0
M  V30 11394 H 1085.78 1.91076 -3.41476 0
M  V30 11395 H 1085.41 3.22986 -2.31874 0
M  V30 11396 N 1086.4 1.28806 0.908124 0
M  V30 11397 C 1087.63 1.19153 1.69146 0
M  V30 11398 C 1088.05 -0.249056 1.8715 0
M  V30 11399 O 1087.4 -1.16772 1.40251 0
M  V30 11400 C 1087.45 1.89167 3.08055 0
M  V30 11401 O 1087.18 3.27599 2.90879 0
M  V30 11402 C 1088.68 1.85886 4.02444 0
M  V30 11403 H 1085.9 0.413359 0.528559 0
M  V30 11404 H 1088.44 1.7003 1.13622 0
M  V30 11405 H 1086.6 1.42146 3.60379 0
M  V30 11406 H 1087.01 3.62743 3.78837 0
M  V30 11407 H 1088.48 2.39454 4.97359 0
M  V30 11408 H 1088.96 0.832483 4.31238 0
M  V30 11409 H 1089.57 2.32612 3.5605 0
M  V30 11410 N 1087.88 -1.11734 1.11145 0
M  V30 11411 C 1089.13 -1.83677 0.859684 0
M  V30 11412 C 1089.46 -1.84265 -0.613182 0
M  V30 11413 O 1088.74 -1.29351 -1.45254 0
M  V30 11414 C 1089.02 -3.31003 1.41805 0
M  V30 11415 C 1088.87 -3.38827 2.95831 0
M  V30 11416 C 1090.19 -4.26984 1.06645 0
M  V30 11417 H 1087.31 -0.666879 0.313754 0
M  V30 11418 H 1089.95 -1.31038 1.37583 0
M  V30 11419 H 1088.1 -3.75961 0.979054 0
M  V30 11420 H 1089.77 -3.02451 3.48312 0
M  V30 11421 H 1088.02 -2.79143 3.32056 0
M  V30 11422 H 1088.69 -4.42508 3.29986 0
M  V30 11423 H 1091.16 -3.9019 1.44537 0
M  V30 11424 H 1090.04 -5.2846 1.48394 0
M  V30 11425 H 1090.3 -4.42094 -0.0231866 0
M  V30 11426 N 1089.36 -0.901303 -1.29284 0
M  V30 11427 C 1090.32 -0.385081 -2.25942 0
M  V30 11428 C 1091.32 0.481626 -1.53418 0
M  V30 11429 O 1092.51 0.286451 -1.71829 0
M  V30 11430 C 1089.64 0.449319 -3.37926 0
M  V30 11431 H 1090.84 -1.23877 -2.7312 0
M  V30 11432 H 1088.39 -0.679586 -1.40753 0
M  V30 11433 H 1089.13 1.32292 -2.9609 0
M  V30 11434 H 1088.91 -0.171731 -3.91724 0
M  V30 11435 H 1090.4 0.801746 -4.09831 0
M  V30 11436 N 1090.84 1.42931 -0.663954 0
M  V30 11437 C 1092.25 1.56098 -0.332496 0
M  V30 11438 C 1092.45 1.64564 1.16279 0
M  V30 11439 O 1091.51 1.6066 1.94794 0
M  V30 11440 C 1092.82 2.81649 -1.05329 0
M  V30 11441 C 1094.37 2.95408 -1.03457 0
M  V30 11442 C 1094.85 4.23805 -1.73647 0
M  V30 11443 N 1096.34 4.30693 -1.70462 0
M  V30 11444 C 1097.07 5.28833 -2.21637 0
M  V30 11445 N 1096.57 6.33189 -2.81147 0
M  V30 11446 N 1098.36 5.20558 -2.12075 0
M  V30 11447 H 1090.51 1.3568 -1.63416 0
M  V30 11448 H 1092.77 0.652361 -0.687844 0
M  V30 11449 H 1092.48 2.81494 -2.10842 0
M  V30 11450 H 1092.35 3.72208 -0.611626 0
M  V30 11451 H 1094.74 2.95097 0.0121936 0
M  V30 11452 H 1094.82 2.06109 -1.51502 0
M  V30 11453 H 1094.47 4.24876 -2.78285 0
M  V30 11454 H 1094.4 5.12019 -1.2306 0
M  V30 11455 H 1096.89 3.55904 -1.27046 0
M  V30 11456 H 1097.2 7.04411 -3.17844 0
M  V30 11457 H 1095.55 6.33781 -2.85212 0
M  V30 11458 H 1098.74 4.3795 -1.6528 0
M  V30 11459 H 1098.91 5.96881 -2.52264 0
M  V30 11460 N 1092.32 0.406567 1.52266 0
M  V30 11461 C 1093.73 -0.063607 1.86592 0
M  V30 11462 C 1094.08 -1.4466 1.32544 0
M  V30 11463 O 1093.2 -2.05971 0.663692 0
M  V30 11464 C 1093.8 -0.122198 3.3858 0
M  V30 11465 C 1092.36 -0.536701 3.72554 0
M  V30 11466 C 1091.5 0.290422 2.75775 0
M  V30 11467 H 1094.45 0.623738 1.45929 0
M  V30 11468 H 1094.48 -0.937964 3.68758 0
M  V30 11469 H 1093.99 0.884495 3.77887 0
M  V30 11470 H 1092.09 -1.55013 3.38824 0
M  V30 11471 H 1092.2 -0.282867 4.78264 0
M  V30 11472 H 1090.57 -0.246864 2.53501 0
M  V30 11473 H 1091.35 1.29541 3.17921 0
M  V30 11474 N 1093.79 -1.57004 0.136909 0
M  V30 11475 C 1094.72 -2.19262 -0.802902 0
M  V30 11476 C 1095.71 -1.13786 -1.26439 0
M  V30 11477 O 1096.89 -1.42091 -1.32377 0
M  V30 11478 C 1094.02 -2.80624 -2.04615 0
M  V30 11479 C 1092.97 -3.91839 -1.72181 0
M  V30 11480 C 1092.3 -4.4009 -3.03686 0
M  V30 11481 C 1093.6 -5.13095 -0.976249 0
M  V30 11482 H 1095.29 -2.98049 -0.28406 0
M  V30 11483 H 1092.84 -1.43364 -0.135189 0
M  V30 11484 H 1094.79 -3.22842 -2.70834 0
M  V30 11485 H 1093.52 -1.99153 -2.58855 0
M  V30 11486 H 1092.18 -3.50224 -1.08344 0
M  V30 11487 H 1091.82 -3.55454 -3.55896 0
M  V30 11488 H 1091.52 -5.15098 -2.82751 0
M  V30 11489 H 1093.05 -4.84971 -3.70993 0
M  V30 11490 H 1094.46 -5.5222 -1.54033 0
M  V30 11491 H 1092.86 -5.93801 -0.867214 0
M  V30 11492 H 1093.93 -4.84888 0.0338488 0
M  V30 11493 N 1095.27 0.136881 -1.57004 0
M  V30 11494 C 1096.2 1.17026 -2.02057 0
M  V30 11495 C 1097.18 1.44223 -0.901866 0
M  V30 11496 O 1098.37 1.54971 -1.17037 0
M  V30 11497 C 1095.5 2.50095 -2.40977 0
M  V30 11498 C 1094.45 2.37398 -3.56127 0
M  V30 11499 C 1093.78 3.75268 -3.80891 0
M  V30 11500 C 1095.08 1.84952 -4.88457 0
M  V30 11501 H 1096.77 0.795601 -2.88636 0
M  V30 11502 H 1094.32 0.381266 -1.38861 0
M  V30 11503 H 1096.27 3.22621 -2.71097 0
M  V30 11504 H 1095 2.89416 -1.51348 0
M  V30 11505 H 1093.65 1.67322 -3.26188 0
M  V30 11506 H 1093.3 4.12043 -2.88496 0
M  V30 11507 H 1093 3.67631 -4.5839 0
M  V30 11508 H 1094.53 4.49327 -4.13446 0
M  V30 11509 H 1095.94 2.4728 -5.17229 0
M  V30 11510 H 1094.34 1.88181 -5.69832 0
M  V30 11511 H 1095.41 0.805848 -4.78157 0
M  V30 11512 N 1096.75 1.52266 0.40654 0
M  V30 11513 C 1097.7 1.72175 1.49465 0
M  V30 11514 C 1098.68 0.575668 1.50249 0
M  V30 11515 O 1099.88 0.832835 1.56182 0
M  V30 11516 C 1097.01 1.87818 2.87366 0
M  V30 11517 C 1096.09 3.08305 2.91219 0
M  V30 11518 N 1096.48 4.30967 2.64766 0
M  V30 11519 C 1094.78 3.08192 3.22388 0
M  V30 11520 C 1095.48 5.12455 2.75254 0
M  V30 11521 N 1094.46 4.47758 3.08242 0
M  V30 11522 H 1098.26 2.64653 1.27812 0
M  V30 11523 H 1095.77 1.50334 0.61428 0
M  V30 11524 H 1097.77 2.00198 3.65686 0
M  V30 11525 H 1096.43 0.965414 3.10016 0
M  V30 11526 H 1097.44 4.59397 2.39113 0
M  V30 11527 H 1094.12 2.26662 3.50615 0
M  V30 11528 H 1095.51 6.20186 2.58495 0
M  V30 11529 N 1098.23 -0.663929 1.42933 0
M  V30 11530 C 1099.14 -1.80643 1.49683 0
M  V30 11531 C 1100.15 -1.69694 0.38472 0
M  V30 11532 O 1101.33 -1.91052 0.637256 0
M  V30 11533 C 1098.4 -3.16858 1.4072 0
M  V30 11534 C 1097.46 -3.39684 2.62514 0
M  V30 11535 C 1096.69 -4.69399 2.53969 0
M  V30 11536 O 1096.91 -5.48037 1.58152 0
M  V30 11537 O 1095.85 -4.93709 3.44289 0
M  V30 11538 H 1099.67 -1.77903 2.46138 0
M  V30 11539 H 1097.26 -0.821059 1.24816 0
M  V30 11540 H 1099.14 -3.9812 1.38124 0
M  V30 11541 H 1097.81 -3.20211 0.473954 0
M  V30 11542 H 1096.72 -2.58227 2.70684 0
M  V30 11543 H 1098.05 -3.41169 3.54774 0
M  V30 11544 N 1099.71 -1.29285 -0.901281 0
M  V30 11545 C 1100.95 -1.17165 -1.65162 0
M  V30 11546 C 1101.28 0.277184 -1.92515 0
M  V30 11547 O 1100.54 1.2168 -1.53273 0
M  V30 11548 C 1100.84 -1.92865 -3.00895 0
M  V30 11549 C 1100.5 -3.42593 -2.93157 0
M  V30 11550 C 1099.16 -3.83426 -2.90754 0
M  V30 11551 C 1101.52 -4.38011 -2.82481 0
M  V30 11552 C 1098.84 -5.17997 -2.75492 0
M  V30 11553 C 1101.2 -5.7267 -2.68759 0
M  V30 11554 C 1099.86 -6.12764 -2.64721 0
M  V30 11555 H 1099.13 -0.428737 -0.604372 0
M  V30 11556 H 1101.78 -1.60204 -1.04914 0
M  V30 11557 H 1100.08 -1.42412 -3.65001 0
M  V30 11558 H 1101.78 -1.80893 -3.57881 0
M  V30 11559 H 1098.37 -3.10134 -2.95829 0
M  V30 11560 H 1102.55 -4.07417 -2.83416 0
M  V30 11561 H 1097.81 -5.48173 -2.70769 0
M  V30 11562 H 1101.98 -6.46258 -2.59469 0
M  V30 11563 H 1099.61 -7.16987 -2.52652 0
M  V30 11564 N 1101.18 1.11143 -1.11736 0
M  V30 11565 C 1102.41 1.86474 -0.889435 0
M  V30 11566 C 1102.82 1.80584 0.564438 0
M  V30 11567 O 1102.17 1.18743 1.40163 0
M  V30 11568 C 1102.23 3.36066 -1.27671 0
M  V30 11569 C 1101.89 3.65721 -2.74038 0
M  V30 11570 C 1102.89 3.62941 -3.7225 0
M  V30 11571 C 1100.57 3.94629 -3.10762 0
M  V30 11572 C 1102.57 3.88651 -5.05202 0
M  V30 11573 C 1100.25 4.19997 -4.43899 0
M  V30 11574 C 1101.25 4.16996 -5.40928 0
M  V30 11575 O 1100.94 4.41724 -6.71666 0
M  V30 11576 H 1100.67 0.596438 -0.318178 0
M  V30 11577 H 1103.23 1.41465 -1.48918 0
M  V30 11578 H 1101.46 3.81695 -0.620124 0
M  V30 11579 H 1103.15 3.92769 -1.02409 0
M  V30 11580 H 1103.91 3.40655 -3.45223 0
M  V30 11581 H 1099.79 3.96099 -2.35853 0
M  V30 11582 H 1103.33 3.86224 -5.80927 0
M  V30 11583 H 1099.23 4.4176 -4.70657 0
M  V30 11584 H 1100 4.59276 -6.77501 0
M  V30 11585 N 1102.66 0.908147 1.28804 0
M  V30 11586 C 1103.57 0.397167 2.31214 0
M  V30 11587 C 1104.59 -0.512352 1.66286 0
M  V30 11588 O 1105.76 -0.399893 1.9739 0
M  V30 11589 C 1102.83 -0.359522 3.44831 0
M  V30 11590 C 1101.89 0.582539 4.25329 0
M  V30 11591 C 1101.12 -0.138133 5.33521 0
M  V30 11592 O 1101.35 -1.36076 5.53931 0
M  V30 11593 O 1100.28 0.523682 5.99618 0
M  V30 11594 H 1104.11 1.247 2.76918 0
M  V30 11595 H 1101.69 0.672766 1.33395 0
M  V30 11596 H 1103.57 -0.787098 4.13984 0
M  V30 11597 H 1102.25 -1.18528 3.01219 0
M  V30 11598 H 1101.16 1.0594 3.58786 0
M  V30 11599 H 1102.49 1.37495 4.72605 0
M  V30 11600 N 1104.14 -1.42577 0.671525 0
M  V30 11601 C 1105.42 -1.95222 0.121529 0
M  V30 11602 C 1105.8 -1.61209 -1.36289 0
M  V30 11603 O 1105.15 -0.906561 -2.09747 0
M  V30 11604 C 1105.36 -3.46846 0.387189 0
M  V30 11605 C 1106.7 -4.23525 0.301938 0
M  V30 11606 O 1107.73 -3.54753 0.320755 0
M  V30 11607 O 1106.59 -5.45967 0.241317 0
M  V30 11608 H 1103.68 -0.826999 0.000968615 0
M  V30 11609 H 1106.23 -1.52422 0.746029 0
M  V30 11610 H 1105 -3.64795 1.41563 0
M  V30 11611 H 1104.62 -3.96686 -0.26948 0
M  V30 11612 N 1105.62 -0.414636 -1.52048 0
M  V30 11613 C 1106.57 0.422766 -2.28726 0
M  V30 11614 C 1107.56 1.04099 -1.3364 0
M  V30 11615 O 1108.77 0.978559 -1.51077 0
M  V30 11616 H 1105.14 0.155123 -0.735827 0
M  V30 11617 H 1107.11 -0.245091 -2.97392 0
M  V30 11618 C 1105.86 1.52418 -3.12513 0
M  V30 11619 H 1105.18 1.05781 -3.85552 0
M  V30 11620 H 1106.62 2.08382 -3.6926 0
M  V30 11621 C 1105.08 2.49465 -2.26426 0
M  V30 11622 O 1105.61 3.53479 -1.90829 0
M  V30 11623 N 1103.82 2.19806 -1.90088 0
M  V30 11624 H 1103.37 1.35253 -2.19236 0
M  V30 11625 H 1103.32 2.84984 -1.32783 0
M  V30 11626 N 1107.1 1.56929 -0.145233 0
M  V30 11627 C 1108.32 2.00864 0.516564 0
M  V30 11628 C 1108.75 1.02466 1.57741 0
M  V30 11629 O 1108.1 0.000145439 1.813 0
M  V30 11630 C 1108.15 3.43552 1.09563 0
M  V30 11631 O 1107.26 3.4815 2.21055 0
M  V30 11632 H 1106.6 0.651835 0.126521 0
M  V30 11633 H 1109.13 2.0317 -0.241445 0
M  V30 11634 H 1109.14 3.82316 1.42473 0
M  V30 11635 H 1107.81 4.14677 0.318749 0
M  V30 11636 H 1106.39 3.21228 1.89387 0
M  V30 11637 N 1108.58 -0.128553 1.57075 0
M  V30 11638 C 1109.8 -0.85245 1.88523 0
M  V30 11639 C 1110.22 -1.73886 0.735459 0
M  V30 11640 O 1109.58 -1.80114 -0.294113 0
M  V30 11641 C 1109.63 -1.69384 3.19361 0
M  V30 11642 O 1109.35 -0.84313 4.2991 0
M  V30 11643 C 1110.85 -2.52373 3.64449 0
M  V30 11644 H 1108.07 -0.245556 0.624454 0
M  V30 11645 H 1110.61 -0.115807 2.04172 0
M  V30 11646 H 1108.77 -2.38335 3.0541 0
M  V30 11647 H 1109.18 -1.42255 5.0484 0
M  V30 11648 H 1110.66 -3.06955 4.58784 0
M  V30 11649 H 1111.13 -3.29283 2.90636 0
M  V30 11650 H 1111.74 -1.88681 3.81155 0
M  V30 11651 N 1110.05 -1.5248 -0.398459 0
M  V30 11652 C 1111.3 -1.68262 -1.14277 0
M  V30 11653 C 1111.65 -0.412722 -1.87921 0
M  V30 11654 O 1110.95 0.593257 -1.82184 0
M  V30 11655 C 1111.14 -2.85038 -2.15611 0
M  V30 11656 C 1110.97 -4.23262 -1.51919 0
M  V30 11657 C 1109.74 -4.88627 -1.28732 0
M  V30 11658 C 1111.94 -5.04986 -0.974349 0
M  V30 11659 N 1109.92 -6.10857 -0.610455 0
M  V30 11660 C 1111.29 -6.18542 -0.425008 0
M  V30 11661 C 1113.35 -4.90243 -0.869843 0
M  V30 11662 C 1112.05 -7.18968 0.218609 0
M  V30 11663 C 1114.08 -5.90913 -0.240063 0
M  V30 11664 C 1113.44 -7.03767 0.298552 0
M  V30 11665 H 1109.54 -0.669275 -0.404469 0
M  V30 11666 H 1112.12 -1.8981 -0.433635 0
M  V30 11667 H 1110.29 -2.65087 -2.83872 0
M  V30 11668 H 1112.02 -2.89804 -2.82481 0
M  V30 11669 H 1108.78 -4.47179 -1.55975 0
M  V30 11670 H 1109.2 -6.76386 -0.288338 0
M  V30 11671 H 1113.84 -4.0321 -1.27207 0
M  V30 11672 H 1111.56 -8.05618 0.632874 0
M  V30 11673 H 1115.15 -5.81578 -0.160576 0
M  V30 11674 H 1114.03 -7.80329 0.778185 0
M  V30 11675 N 1111.53 0.65634 -1.43283 0
M  V30 11676 C 1112.81 1.41339 -1.35213 0
M  V30 11677 C 1113.19 2.111 0.00158494 0
M  V30 11678 O 1112.54 2.0457 1.018 0
M  V30 11679 C 1112.75 2.40066 -2.53317 0
M  V30 11680 C 1114.09 3.04159 -2.96264 0
M  V30 11681 O 1115.12 2.50393 -2.53341 0
M  V30 11682 O 1113.98 4.01633 -3.70612 0
M  V30 11683 H 1111.07 0.631325 -0.534189 0
M  V30 11684 H 1113.62 0.68351 -1.55326 0
M  V30 11685 H 1112.39 1.87444 -3.43483 0
M  V30 11686 H 1112.01 3.20509 -2.35287 0
M  V30 11687 N 1113.01 1.29761 0.894412 0
M  V30 11688 C 1114.26 1.18214 1.64782 0
M  V30 11689 C 1114.59 -0.264635 1.92388 0
M  V30 11690 O 1113.86 -1.19051 1.53809 0
M  V30 11691 C 1114.15 2.00138 2.99361 0
M  V30 11692 C 1114 3.52984 2.78787 0
M  V30 11693 C 1115.32 1.83187 4.00163 0
M  V30 11694 H 1112.44 0.430802 0.597979 0
M  V30 11695 H 1115.08 1.59292 1.03566 0
M  V30 11696 H 1113.23 1.65233 3.51611 0
M  V30 11697 H 1114.9 3.97898 2.33398 0
M  V30 11698 H 1113.14 3.77642 2.13469 0
M  V30 11699 H 1113.82 4.05585 3.7444 0
M  V30 11700 H 1116.29 2.13684 3.57041 0
M  V30 11701 H 1115.17 2.42849 4.92255 0
M  V30 11702 H 1115.43 0.788469 4.35012 0
M  V30 11703 N 1114.49 -1.10549 1.12324 0
M  V30 11704 C 1115.44 -2.14997 0.758979 0
M  V30 11705 C 1116.42 -1.59078 -0.241461 0
M  V30 11706 O 1117.61 -1.76937 -0.0471439 0
M  V30 11707 C 1114.74 -3.42633 0.21395 0
M  V30 11708 C 1113.83 -4.05487 1.24261 0
M  V30 11709 N 1114.22 -4.43064 2.43984 0
M  V30 11710 C 1112.52 -4.32534 1.08769 0
M  V30 11711 C 1113.22 -4.92427 3.09662 0
M  V30 11712 N 1112.19 -4.89161 2.37114 0
M  V30 11713 H 1116 -2.4184 1.67005 0
M  V30 11714 H 1113.51 -1.27659 1.00384 0
M  V30 11715 H 1115.51 -4.16849 -0.0651928 0
M  V30 11716 H 1114.17 -3.17249 -0.691591 0
M  V30 11717 H 1115.18 -4.34797 2.81375 0
M  V30 11718 H 1111.86 -4.16813 0.239354 0
M  V30 11719 H 1113.25 -5.31059 4.11614 0
M  V30 11720 N 1115.97 -0.914965 -1.28321 0
M  V30 11721 C 1116.9 -0.361578 -2.2633 0
M  V30 11722 C 1117.91 0.500637 -1.54911 0
M  V30 11723 O 1119.1 0.31532 -1.75693 0
M  V30 11724 C 1116.2 0.501693 -3.35166 0
M  V30 11725 C 1115.37 -0.338289 -4.3609 0
M  V30 11726 C 1114.43 0.460267 -5.24183 0
M  V30 11727 O 1113.46 -0.127594 -5.69057 0
M  V30 11728 N 1114.66 1.76302 -5.5308 0
M  V30 11729 H 1117.42 -1.20402 -2.74451 0
M  V30 11730 H 1114.99 -0.781042 -1.41814 0
M  V30 11731 H 1116.98 1.04268 -3.91037 0
M  V30 11732 H 1115.55 1.24485 -2.86744 0
M  V30 11733 H 1114.77 -1.06064 -3.79663 0
M  V30 11734 H 1116.06 -0.912996 -5.00542 0
M  V30 11735 H 1115.45 2.26314 -5.18458 0
M  V30 11736 H 1114.01 2.25081 -6.11704 0
M  V30 11737 N 1117.44 1.42219 -0.679077 0
M  V30 11738 C 1118.38 2.29172 0.035583 0
M  V30 11739 C 1119.39 1.43909 0.761183 0
M  V30 11740 O 1120.58 1.67584 0.61463 0
M  V30 11741 C 1117.68 3.21426 1.07419 0
M  V30 11742 C 1116.85 4.35364 0.421547 0
M  V30 11743 C 1115.91 5.08307 1.36051 0
M  V30 11744 O 1114.94 5.62678 0.859186 0
M  V30 11745 N 1116.14 5.14222 2.69362 0
M  V30 11746 H 1118.9 2.91147 -0.710865 0
M  V30 11747 H 1116.46 1.53192 -0.523821 0
M  V30 11748 H 1118.46 3.67091 1.70371 0
M  V30 11749 H 1117.03 2.60873 1.72233 0
M  V30 11750 H 1116.25 3.9229 -0.387559 0
M  V30 11751 H 1117.53 5.08789 -0.0329421 0
M  V30 11752 H 1116.93 4.71467 3.12627 0
M  V30 11753 H 1115.49 5.63519 3.27551 0
M  V30 11754 N 1118.92 0.422693 1.51826 0
M  V30 11755 C 1120.17 -0.148641 2.01954 0
M  V30 11756 C 1120.5 -1.43982 1.30765 0
M  V30 11757 O 1119.75 -1.91428 0.406668 0
M  V30 11758 C 1120.05 -0.429516 3.5481 0
M  V30 11759 C 1119.72 0.774088 4.44206 0
M  V30 11760 C 1118.38 1.1042 4.6836 0
M  V30 11761 C 1120.73 1.5777 4.96747 0
M  V30 11762 C 1118.06 2.23887 5.42302 0
M  V30 11763 C 1120.41 2.70325 5.71933 0
M  V30 11764 C 1119.07 3.03807 5.94355 0
M  V30 11765 H 1118.34 -0.0543917 0.739001 0
M  V30 11766 H 1120.99 0.566892 1.82917 0
M  V30 11767 H 1119.3 -1.22678 3.72099 0
M  V30 11768 H 1120.99 -0.884761 3.91118 0
M  V30 11769 H 1117.58 0.506834 4.25593 0
M  V30 11770 H 1121.77 1.33589 4.77983 0
M  V30 11771 H 1117.02 2.50159 5.5788 0
M  V30 11772 H 1121.2 3.32974 6.11638 0
M  V30 11773 H 1118.82 3.91844 6.51431 0
M  V30 11774 N 1120.4 -1.5685 0.153553 0
M  V30 11775 C 1121.33 -2.20101 -0.779601 0
M  V30 11776 C 1122.31 -1.15121 -1.25225 0
M  V30 11777 O 1123.5 -1.43487 -1.30862 0
M  V30 11778 C 1120.63 -2.82778 -2.01628 0
M  V30 11779 C 1119.58 -3.93643 -1.68015 0
M  V30 11780 C 1118.91 -4.43286 -2.99001 0
M  V30 11781 C 1120.21 -5.14102 -0.921774 0
M  V30 11782 H 1121.9 -2.98334 -0.252432 0
M  V30 11783 H 1119.45 -1.43499 -0.119975 0
M  V30 11784 H 1121.4 -3.25696 -2.67395 0
M  V30 11785 H 1120.12 -2.01887 -2.56728 0
M  V30 11786 H 1118.78 -3.51354 -1.04624 0
M  V30 11787 H 1118.43 -3.59208 -3.52106 0
M  V30 11788 H 1118.13 -5.18068 -2.77272 0
M  V30 11789 H 1119.65 -4.88878 -3.65828 0
M  V30 11790 H 1121.07 -5.53823 -1.48167 0
M  V30 11791 H 1119.46 -5.94687 -0.804185 0
M  V30 11792 H 1120.53 -4.84825 0.0852757 0
M  V30 11793 N 1121.88 0.120221 -1.57141 0
M  V30 11794 C 1123.12 0.824472 -1.85941 0
M  V30 11795 C 1123.48 1.77552 -0.741152 0
M  V30 11796 O 1122.77 1.89842 0.258939 0
M  V30 11797 C 1122.97 1.61338 -3.18912 0
M  V30 11798 C 1122.79 0.740224 -4.43566 0
M  V30 11799 C 1121.56 0.39553 -5.0375 0
M  V30 11800 C 1123.76 0.0584053 -5.14267 0
M  V30 11801 N 1121.74 -0.488415 -6.11954 0
M  V30 11802 C 1123.12 -0.684591 -6.16209 0
M  V30 11803 C 1125.17 -0.0181409 -4.97897 0
M  V30 11804 C 1123.87 -1.49694 -7.03551 0
M  V30 11805 C 1125.9 -0.817313 -5.85725 0
M  V30 11806 C 1125.26 -1.54851 -6.87169 0
M  V30 11807 H 1121.36 0.278664 -0.730664 0
M  V30 11808 H 1123.94 0.0882789 -1.945 0
M  V30 11809 H 1122.12 2.32062 -3.11451 0
M  V30 11810 H 1123.85 2.26287 -3.35524 0
M  V30 11811 H 1120.6 0.737491 -4.67823 0
M  V30 11812 H 1121.03 -0.9222 -6.7069 0
M  V30 11813 H 1125.67 0.532815 -4.19429 0
M  V30 11814 H 1123.39 -2.05906 -7.81427 0
M  V30 11815 H 1126.97 -0.878884 -5.75123 0
M  V30 11816 H 1125.85 -2.15696 -7.53953 0
M  V30 11817 N 1123.36 1.52689 0.390367 0
M  V30 11818 C 1124.6 1.67335 1.13329 0
M  V30 11819 C 1124.93 0.415068 1.90531 0
M  V30 11820 O 1124.2 -0.570504 1.87409 0
M  V30 11821 H 1122.78 0.616821 0.421356 0
M  V30 11822 H 1125.44 1.89799 0.443 0
M  V30 11823 H 1124.53 2.52314 1.83696 0
M  V30 11824 N 1124.83 -0.648732 1.43629 0
M  V30 11825 C 1126.25 -1.23001 1.40455 0
M  V30 11826 C 1126.6 -1.95886 0.110897 0
M  V30 11827 O 1125.72 -2.01485 -0.789487 0
M  V30 11828 C 1126.32 -2.23716 2.54434 0
M  V30 11829 C 1124.88 -2.77311 2.54511 0
M  V30 11830 C 1124.02 -1.52024 2.31914 0
M  V30 11831 H 1126.97 -0.440473 1.52465 0
M  V30 11832 H 1126.99 -3.05979 2.26179 0
M  V30 11833 H 1126.51 -1.7064 3.48574 0
M  V30 11834 H 1124.61 -3.34437 1.64263 0
M  V30 11835 H 1124.72 -3.2455 3.52426 0
M  V30 11836 H 1123.08 -1.79531 1.80667 0
M  V30 11837 H 1123.87 -1.00876 3.28145 0
M  V30 11838 N 1126.31 -1.30234 -0.887518 0
M  V30 11839 C 1127.56 -1.18675 -1.63587 0
M  V30 11840 C 1127.88 0.259342 -1.93268 0
M  V30 11841 O 1127.15 1.17523 -1.56733 0
M  V30 11842 H 1125.73 -0.436224 -0.606397 0
M  V30 11843 H 1128.39 -1.63326 -1.06351 0
M  V30 11844 H 1127.49 -1.74575 -2.58708 0
M  V30 11845 N 1127.79 1.09952 -1.12909 0
M  V30 11846 C 1128.72 2.18477 -0.824014 0
M  V30 11847 C 1129.7 1.68744 0.214324 0
M  V30 11848 O 1130.89 1.94057 0.0744281 0
M  V30 11849 C 1128.02 3.46143 -0.283308 0
M  V30 11850 C 1126.97 4.09178 -1.25528 0
M  V30 11851 C 1126.3 5.31604 -0.574574 0
M  V30 11852 C 1127.6 4.52308 -2.6118 0
M  V30 11853 H 1129.29 2.44254 -1.73148 0
M  V30 11854 H 1126.84 1.17394 -0.833952 0
M  V30 11855 H 1128.79 4.21361 -0.057583 0
M  V30 11856 H 1127.51 3.19872 0.659525 0
M  V30 11857 H 1126.17 3.35973 -1.4669 0
M  V30 11858 H 1125.82 5.01611 0.37356 0
M  V30 11859 H 1125.52 5.74732 -1.22299 0
M  V30 11860 H 1127.04 6.0955 -0.358004 0
M  V30 11861 H 1128.46 5.18776 -2.44017 0
M  V30 11862 H 1126.86 5.06302 -3.22147 0
M  V30 11863 H 1127.93 3.64977 -3.19249 0
M  V30 11864 N 1129.27 0.921757 1.27833 0
M  V30 11865 C 1130.2 0.433466 2.29441 0
M  V30 11866 C 1131.18 -0.503133 1.62489 0
M  V30 11867 O 1132.36 -0.409156 1.89841 0
M  V30 11868 C 1129.49 -0.320029 3.45822 0
M  V30 11869 C 1128.45 0.528178 4.24728 0
M  V30 11870 C 1127.77 -0.354132 5.33526 0
M  V30 11871 C 1129.07 1.78959 4.90684 0
M  V30 11872 H 1130.77 1.28263 2.70535 0
M  V30 11873 H 1128.31 0.618197 1.30055 0
M  V30 11874 H 1130.27 -0.672526 4.15999 0
M  V30 11875 H 1128.99 -1.20317 3.0363 0
M  V30 11876 H 1127.65 0.863302 3.5629 0
M  V30 11877 H 1127.3 -1.23605 4.87576 0
M  V30 11878 H 1127 0.209855 5.87225 0
M  V30 11879 H 1128.52 -0.702333 6.06547 0
M  V30 11880 H 1129.94 1.50552 5.53179 0
M  V30 11881 H 1128.33 2.29661 5.54415 0
M  V30 11882 H 1129.4 2.51265 4.14721 0
M  V30 11883 N 1130.75 -1.41857 0.686609 0
M  V30 11884 C 1132 -2.00594 0.21095 0
M  V30 11885 C 1132.31 -1.54974 -1.19341 0
M  V30 11886 O 1133.51 -2.0621 -1.76607 0
M  V30 11887 C 1131.97 -3.58418 0.326261 0
M  V30 11888 C 1131.58 -4.13022 1.73542 0
M  V30 11889 C 1133.32 -4.24404 -0.0900816 0
M  V30 11890 C 1131.23 -5.6325 1.80287 0
M  V30 11891 H 1130.16 -0.75025 0.0751077 0
M  V30 11892 H 1132.81 -1.62442 0.853508 0
M  V30 11893 H 1131.19 -3.9413 -0.384394 0
M  V30 11894 H 1132.37 -3.88747 2.47411 0
M  V30 11895 H 1130.68 -3.5953 2.10065 0
M  V30 11896 H 1133.28 -5.34666 -0.060004 0
M  V30 11897 H 1133.62 -4.00745 -1.12733 0
M  V30 11898 H 1134.15 -3.93695 0.569979 0
M  V30 11899 H 1130.89 -5.91724 2.82034 0
M  V30 11900 H 1130.41 -5.89479 1.1079 0
M  V30 11901 H 1132.09 -6.2787 1.56167 0
M  V30 11902 N 1132.22 -0.430739 -1.51599 0
M  V30 11903 C 1133.45 0.136797 -2.06447 0
M  V30 11904 C 1133.87 1.37027 -1.29881 0
M  V30 11905 O 1133.22 1.78983 -0.356543 0
M  V30 11906 C 1133.28 0.465637 -3.58489 0
M  V30 11907 O 1133 -0.718873 -4.32162 0
M  V30 11908 C 1134.5 1.08456 -4.29828 0
M  V30 11909 H 1131.72 0.0108468 -0.670912 0
M  V30 11910 H 1134.26 -0.607921 -1.95255 0
M  V30 11911 H 1132.42 1.16025 -3.69617 0
M  V30 11912 H 1132.83 -0.439195 -5.22658 0
M  V30 11913 H 1134.3 1.2647 -5.37317 0
M  V30 11914 H 1134.78 2.06376 -3.87693 0
M  V30 11915 H 1135.39 0.429525 -4.23125 0
M  V30 11916 N 1133.7 1.56767 -0.161869 0
M  V30 11917 C 1135.11 1.83265 0.356466 0
M  V30 11918 C 1135.46 1.08127 1.63716 0
M  V30 11919 O 1134.59 0.33127 2.13849 0
M  V30 11920 C 1135.18 3.32437 0.653521 0
M  V30 11921 C 1133.74 3.59465 1.11633 0
M  V30 11922 C 1132.89 2.76909 0.147204 0
M  V30 11923 H 1135.84 1.53926 -0.386308 0
M  V30 11924 H 1135.86 3.49401 1.50662 0
M  V30 11925 H 1135.37 3.87098 -0.278766 0
M  V30 11926 H 1133.48 3.10206 2.06404 0
M  V30 11927 H 1133.59 4.67853 1.03202 0
M  V30 11928 H 1131.95 2.46457 0.642739 0
M  V30 11929 H 1132.74 3.34346 -0.778938 0
M  V30 11930 N 1135.18 -0.111886 1.57202 0
M  V30 11931 C 1136.43 -0.819623 1.85499 0
M  V30 11932 C 1136.76 -1.7919 0.748629 0
M  V30 11933 O 1136.03 -1.92952 -0.244918 0
M  V30 11934 C 1136.32 -1.56324 3.24399 0
M  V30 11935 C 1136.17 -0.610081 4.45643 0
M  V30 11936 C 1137.49 -2.51777 3.60966 0
M  V30 11937 H 1134.61 -0.296512 0.674722 0
M  V30 11938 H 1137.25 -0.0836741 1.89816 0
M  V30 11939 H 1135.4 -2.1906 3.2085 0
M  V30 11940 H 1137.07 0.00898038 4.61299 0
M  V30 11941 H 1135.32 0.0778488 4.3373 0
M  V30 11942 H 1135.99 -1.16718 5.39519 0
M  V30 11943 H 1138.46 -1.99143 3.65351 0
M  V30 11944 H 1137.34 -3.00835 4.59118 0
M  V30 11945 H 1137.6 -3.34769 2.8876 0
M  V30 11946 N 1136.66 -1.52894 -0.382264 0
M  V30 11947 C 1137.59 -1.81122 -1.47367 0
M  V30 11948 C 1138.57 -0.663653 -1.56619 0
M  V30 11949 O 1139.75 -0.911898 -1.71459 0
M  V30 11950 C 1136.88 -1.98615 -2.84902 0
M  V30 11951 C 1135.84 -3.14328 -2.90485 0
M  V30 11952 C 1135.16 -3.17086 -4.30535 0
M  V30 11953 C 1136.46 -4.53263 -2.59519 0
M  V30 11954 H 1138.16 -2.72518 -1.23993 0
M  V30 11955 H 1135.7 -1.3113 -0.595049 0
M  V30 11956 H 1137.66 -2.16946 -3.61265 0
M  V30 11957 H 1136.38 -1.03915 -3.09628 0
M  V30 11958 H 1135.04 -2.95791 -2.16572 0
M  V30 11959 H 1134.69 -2.20055 -4.52311 0
M  V30 11960 H 1134.39 -3.94821 -4.3519 0
M  V30 11961 H 1135.91 -3.3758 -5.08795 0
M  V30 11962 H 1137.33 -4.71867 -3.25598 0
M  V30 11963 H 1135.72 -5.33115 -2.75514 0
M  V30 11964 H 1136.79 -4.59516 -1.54831 0
M  V30 11965 N 1138.14 0.641106 -1.43971 0
M  V30 11966 C 1139.41 1.39897 -1.36704 0
M  V30 11967 C 1139.79 2.1109 -0.0208051 0
M  V30 11968 O 1139.14 2.05638 0.99625 0
M  V30 11969 C 1139.35 2.37366 -2.55849 0
M  V30 11970 C 1140.7 3.01 -2.99473 0
M  V30 11971 O 1141.72 2.47692 -2.55982 0
M  V30 11972 O 1140.58 3.9768 -3.74851 0
M  V30 11973 H 1137.68 0.625623 -0.540855 0
M  V30 11974 H 1140.22 0.666997 -1.56042 0
M  V30 11975 H 1139 1.8379 -3.45452 0
M  V30 11976 H 1138.62 3.17995 -2.38673 0
M  V30 11977 N 1139.62 1.30703 0.880598 0
M  V30 11978 C 1140.53 1.19389 2.01949 0
M  V30 11979 C 1141.54 0.112868 1.73634 0
M  V30 11980 O 1142.72 0.328643 1.98701 0
M  V30 11981 C 1139.78 0.891004 3.35055 0
M  V30 11982 C 1138.84 2.05784 3.76764 0
M  V30 11983 C 1138.08 1.76931 5.03519 0
M  V30 11984 O 1138.3 0.699326 5.66097 0
M  V30 11985 O 1137.23 2.623 5.4174 0
M  V30 11986 H 1141.06 2.15073 2.14423 0
M  V30 11987 H 1138.64 1.10339 1.00726 0
M  V30 11988 H 1140.53 0.737476 4.14897 0
M  V30 11989 H 1139.2 -0.0358909 3.2368 0
M  V30 11990 H 1138.11 2.26672 2.97608 0
M  V30 11991 H 1139.44 2.96661 3.9275 0
M  V30 11992 N 1141.09 -1.09351 1.1349 0
M  V30 11993 C 1142.34 -1.81185 0.89535 0
M  V30 11994 C 1142.66 -1.86173 -0.580048 0
M  V30 11995 O 1141.93 -1.34784 -1.42162 0
M  V30 11996 H 1140.51 -0.671011 0.328257 0
M  V30 11997 H 1143.17 -1.32255 1.43159 0
M  V30 11998 H 1142.27 -2.84339 1.28676 0
M  V30 11999 N 1142.57 -0.928524 -1.27343 0
M  V30 12000 C 1143.53 -0.43292 -2.25074 0
M  V30 12001 C 1144.53 0.448976 -1.54405 0
M  V30 12002 O 1145.72 0.249939 -1.72398 0
M  V30 12003 C 1142.86 0.377539 -3.38803 0
M  V30 12004 H 1144.05 -1.29642 -2.70431 0
M  V30 12005 H 1141.6 -0.709289 -1.3928 0
M  V30 12006 H 1142.34 1.25982 -2.98829 0
M  V30 12007 H 1142.12 -0.254782 -3.91271 0
M  V30 12008 H 1143.61 0.714634 -4.1144 0
M  V30 12009 N 1144.05 1.41491 -0.694123 0
M  V30 12010 C 1144.96 2.34583 -0.0283414 0
M  V30 12011 C 1145.98 1.5615 0.767662 0
M  V30 12012 O 1147.15 1.88637 0.705556 0
M  V30 12013 C 1144.22 3.34876 0.897726 0
M  V30 12014 C 1143.28 4.29197 0.0940905 0
M  V30 12015 C 1142.51 5.24699 0.976051 0
M  V30 12016 O 1142.73 5.25613 2.21556 0
M  V30 12017 O 1141.67 6.00387 0.426503 0
M  V30 12018 H 1145.49 2.93092 -0.795656 0
M  V30 12019 H 1143.08 1.4232 -0.45445 0
M  V30 12020 H 1144.96 3.96438 1.4288 0
M  V30 12021 H 1143.64 2.78812 1.64456 0
M  V30 12022 H 1142.54 3.70988 -0.481552 0
M  V30 12023 H 1143.88 4.88355 -0.614045 0
M  V30 12024 N 1145.53 0.438773 1.51369 0
M  V30 12025 C 1146.47 -0.37195 2.27783 0
M  V30 12026 C 1147.44 -1.01558 1.31435 0
M  V30 12027 O 1148.63 -1.03421 1.60339 0
M  V30 12028 C 1145.77 -1.46636 3.12397 0
M  V30 12029 C 1144.88 -0.840727 4.2374 0
M  V30 12030 C 1144.02 -1.91031 4.95662 0
M  V30 12031 C 1143.06 -1.26318 5.98924 0
M  V30 12032 N 1142.19 -2.27419 6.64248 0
M  V30 12033 H 1147.03 0.286048 2.96624 0
M  V30 12034 H 1144.57 0.152909 1.46303 0
M  V30 12035 H 1146.53 -2.11219 3.59781 0
M  V30 12036 H 1145.16 -2.09397 2.45668 0
M  V30 12037 H 1144.21 -0.0831588 3.80309 0
M  V30 12038 H 1145.52 -0.328285 4.97719 0
M  V30 12039 H 1144.68 -2.63272 5.46601 0
M  V30 12040 H 1143.42 -2.45649 4.21317 0
M  V30 12041 H 1142.42 -0.526246 5.47276 0
M  V30 12042 H 1143.65 -0.724324 6.75226 0
M  V30 12043 H 1141.59 -2.81114 5.92715 0
M  V30 12044 H 1141.51 -1.81071 7.33996 0
M  V30 12045 H 1142.78 -2.99139 7.19817 0
M  V30 12046 N 1147.01 -1.56678 0.170181 0
M  V30 12047 C 1148.25 -1.9714 -0.475767 0
M  V30 12048 C 1148.58 -1.05611 -1.62972 0
M  V30 12049 O 1147.86 -0.103017 -1.94227 0
M  V30 12050 C 1148.14 -3.47072 -0.959828 0
M  V30 12051 C 1148 -4.4938 0.194225 0
M  V30 12052 C 1149.31 -4.00071 -1.83387 0
M  V30 12053 H 1146.43 -0.716776 -0.171466 0
M  V30 12054 H 1149.08 -1.88266 0.256086 0
M  V30 12055 H 1147.23 -3.54766 -1.58346 0
M  V30 12056 H 1148.9 -4.53748 0.83128 0
M  V30 12057 H 1147.14 -4.25393 0.849893 0
M  V30 12058 H 1147.81 -5.51685 -0.186575 0
M  V30 12059 H 1150.29 -3.95002 -1.30815 0
M  V30 12060 H 1149.16 -5.05398 -2.14159 0
M  V30 12061 H 1149.42 -3.43819 -2.77923 0
M  V30 12062 N 1148.48 0.103547 -1.57259 0
M  V30 12063 C 1149.42 1.15707 -1.9669 0
M  V30 12064 C 1150.39 1.39292 -0.838837 0
M  V30 12065 O 1151.58 1.53192 -1.09839 0
M  V30 12066 C 1148.71 2.50793 -2.27642 0
M  V30 12067 C 1147.75 2.43541 -3.50129 0
M  V30 12068 S 1148.58 1.86009 -5.02156 0
M  V30 12069 C 1149.74 3.22737 -5.36276 0
M  V30 12070 H 1149.97 0.820891 -2.85742 0
M  V30 12071 H 1147.51 0.310906 -1.51237 0
M  V30 12072 H 1149.46 3.28512 -2.46151 0
M  V30 12073 H 1148.13 2.81583 -1.39176 0
M  V30 12074 H 1147.32 3.43085 -3.692 0
M  V30 12075 H 1146.92 1.73948 -3.31086 0
M  V30 12076 H 1149.21 4.1899 -5.32404 0
M  V30 12077 H 1150.16 3.08477 -6.37375 0
M  V30 12078 H 1150.56 3.21878 -4.6374 0
M  V30 12079 N 1149.96 1.53094 0.37415 0
M  V30 12080 C 1150.92 1.78264 1.44065 0
M  V30 12081 C 1151.92 0.652892 1.46949 0
M  V30 12082 O 1153.11 0.921046 1.47859 0
M  V30 12083 C 1150.25 1.89693 2.83248 0
M  V30 12084 H 1151.44 2.73505 1.23025 0
M  V30 12085 H 1148.99 1.44041 0.60678 0
M  V30 12086 H 1149.73 0.964884 3.09613 0
M  V30 12087 H 1149.51 2.71855 2.82554 0
M  V30 12088 H 1151 2.10787 3.60498 0
M  V30 12089 N 1151.44 -0.633461 1.44309 0
M  V30 12090 C 1152.67 -1.41827 1.50229 0
M  V30 12091 C 1153.08 -1.88786 0.125082 0
M  V30 12092 O 1152.42 -1.61314 -0.878836 0
M  V30 12093 C 1152.48 -2.67372 2.40317 0
M  V30 12094 C 1152.15 -2.42224 3.87526 0
M  V30 12095 C 1153.14 -2.04199 4.7812 0
M  V30 12096 C 1150.83 -2.55936 4.32206 0
M  V30 12097 C 1152.82 -1.80211 6.11394 0
M  V30 12098 C 1150.51 -2.31563 5.65528 0
M  V30 12099 C 1151.51 -1.93758 6.5494 0
M  V30 12100 O 1151.2 -1.69654 7.85794 0
M  V30 12101 H 1150.93 -0.441478 0.51193 0
M  V30 12102 H 1153.48 -0.782118 1.89927 0
M  V30 12103 H 1151.71 -3.33616 1.95543 0
M  V30 12104 H 1153.4 -3.2937 2.37214 0
M  V30 12105 H 1154.17 -1.93164 4.44874 0
M  V30 12106 H 1150.05 -2.84333 3.62872 0
M  V30 12107 H 1153.59 -1.50628 6.81144 0
M  V30 12108 H 1149.49 -2.42206 5.98336 0
M  V30 12109 H 1150.25 -1.83919 7.97569 0
M  V30 12110 N 1152.92 -1.31168 -0.873655 0
M  V30 12111 C 1154.16 -1.20821 -1.62881 0
M  V30 12112 C 1154.5 0.233994 -1.92785 0
M  V30 12113 O 1153.77 1.16588 -1.55684 0
M  V30 12114 C 1154.06 -2.04875 -2.96139 0
M  V30 12115 C 1153.91 -3.57375 -2.73136 0
M  V30 12116 C 1155.23 -1.8953 -3.97198 0
M  V30 12117 H 1152.35 -0.44026 -0.59105 0
M  V30 12118 H 1154.99 -1.6092 -1.01019 0
M  V30 12119 H 1153.14 -1.70806 -3.48938 0
M  V30 12120 H 1154.81 -4.01561 -2.27038 0
M  V30 12121 H 1153.05 -3.8099 -2.07434 0
M  V30 12122 H 1153.72 -4.1149 -3.6794 0
M  V30 12123 H 1156.2 -2.19337 -3.53596 0
M  V30 12124 H 1155.08 -2.5065 -4.8833 0
M  V30 12125 H 1155.34 -0.857576 -4.33703 0
M  V30 12126 N 1154.4 1.08748 -1.14068 0
M  V30 12127 C 1155.81 1.62551 -0.918379 0
M  V30 12128 C 1156.16 1.8852 0.543583 0
M  V30 12129 O 1155.28 1.64007 1.41176 0
M  V30 12130 C 1155.88 2.95309 -1.66066 0
M  V30 12131 C 1154.44 3.4591 -1.48403 0
M  V30 12132 C 1153.58 2.20204 -1.6854 0
M  V30 12133 H 1156.54 0.920196 -1.29298 0
M  V30 12134 H 1156.56 3.63587 -1.12181 0
M  V30 12135 H 1156.07 2.76377 -2.72465 0
M  V30 12136 H 1154.17 3.69953 -0.443353 0
M  V30 12137 H 1154.28 4.2289 -2.25169 0
M  V30 12138 H 1152.65 2.29203 -1.11077 0
M  V30 12139 H 1153.43 2.03783 -2.76274 0
M  V30 12140 N 1155.87 0.935264 1.26849 0
M  V30 12141 C 1157.15 0.497797 1.8916 0
M  V30 12142 C 1157.53 -1.02441 1.84578 0
M  V30 12143 O 1156.88 -1.88185 1.29609 0
M  V30 12144 C 1157.09 1.05244 3.32753 0
M  V30 12145 C 1158.44 1.11751 4.0963 0
M  V30 12146 O 1159.46 1.0026 3.41799 0
M  V30 12147 O 1158.32 1.29548 5.30923 0
M  V30 12148 H 1155.41 0.161322 0.811113 0
M  V30 12149 H 1157.96 1.02744 1.35062 0
M  V30 12150 H 1156.73 2.09617 3.30419 0
M  V30 12151 H 1156.36 0.504889 3.94381 0
M  V30 12152 N 1157.35 -1.41121 0.701616 0
M  V30 12153 C 1158.32 -2.29148 0.0490091 0
M  V30 12154 C 1159.32 -1.44679 -0.701763 0
M  V30 12155 O 1160.51 -1.65757 -0.53575 0
M  V30 12156 C 1157.64 -3.2766 -0.940837 0
M  V30 12157 H 1158.83 -2.88354 0.824133 0
M  V30 12158 H 1156.38 -1.49209 0.465457 0
M  V30 12159 H 1157.12 -2.73445 -1.74351 0
M  V30 12160 H 1156.9 -3.89997 -0.405551 0
M  V30 12161 H 1158.39 -3.93609 -1.39507 0
M  V30 12162 N 1158.83 -0.446794 -1.51134 0
M  V30 12163 C 1160.08 0.116666 -2.02464 0
M  V30 12164 C 1160.41 1.41532 -1.32975 0
M  V30 12165 O 1159.68 1.89278 -0.447651 0
M  V30 12166 C 1159.97 0.325659 -3.58624 0
M  V30 12167 C 1159.82 -0.992307 -4.38718 0
M  V30 12168 C 1161.14 1.09121 -4.26357 0
M  V30 12169 H 1158.26 0.0409262 -0.735863 0
M  V30 12170 H 1160.9 -0.587641 -1.80684 0
M  V30 12171 H 1159.05 0.925585 -3.77313 0
M  V30 12172 H 1160.72 -1.62694 -4.31658 0
M  V30 12173 H 1158.97 -1.5947 -4.03425 0
M  V30 12174 H 1159.64 -0.800005 -5.46172 0
M  V30 12175 H 1162.11 0.582944 -4.11996 0
M  V30 12176 H 1160.99 1.20621 -5.35483 0
M  V30 12177 H 1161.25 2.12171 -3.87861 0
M  V30 12178 N 1160.31 1.56586 -0.178487 0
M  V30 12179 C 1161.55 1.98159 0.45876 0
M  V30 12180 C 1161.91 1.0629 1.60375 0
M  V30 12181 O 1161.2 0.103975 1.91318 0
M  V30 12182 C 1161.4 3.43629 0.982552 0
M  V30 12183 C 1161.23 4.49565 -0.110152 0
M  V30 12184 C 1160 5.02162 -0.562228 0
M  V30 12185 C 1162.19 5.06129 -0.913143 0
M  V30 12186 N 1160.18 5.91741 -1.63449 0
M  V30 12187 C 1161.55 5.92217 -1.83517 0
M  V30 12188 C 1163.6 4.88608 -0.957421 0
M  V30 12189 C 1162.3 6.6266 -2.79775 0
M  V30 12190 C 1164.33 5.59777 -1.90798 0
M  V30 12191 C 1163.69 6.45599 -2.81747 0
M  V30 12192 H 1159.79 0.770124 0.13577 0
M  V30 12193 H 1162.38 1.92671 -0.280358 0
M  V30 12194 H 1160.55 3.49649 1.69117 0
M  V30 12195 H 1162.28 3.72199 1.58902 0
M  V30 12196 H 1159.03 4.73334 -0.158612 0
M  V30 12197 H 1159.46 6.41235 -2.17132 0
M  V30 12198 H 1164.1 4.21948 -0.268285 0
M  V30 12199 H 1161.82 7.28529 -3.49673 0
M  V30 12200 H 1165.4 5.48204 -1.94844 0
M  V30 12201 H 1164.28 6.99701 -3.54102 0
M  V30 12202 N 1161.79 -0.095206 1.57312 0
M  V30 12203 C 1163.02 -0.811092 1.90013 0
M  V30 12204 C 1163.42 -1.72807 0.770359 0
M  V30 12205 O 1162.77 -1.81755 -0.266615 0
M  V30 12206 C 1162.83 -1.67744 3.17966 0
M  V30 12207 C 1162.49 -0.932301 4.47389 0
M  V30 12208 C 1163.49 -0.262161 5.19239 0
M  V30 12209 C 1161.18 -0.906414 4.94054 0
M  V30 12210 C 1163.17 0.423898 6.35989 0
M  V30 12211 C 1160.86 -0.216569 6.10716 0
M  V30 12212 C 1161.85 0.447408 6.81533 0
M  V30 12213 O 1161.54 1.12619 7.95972 0
M  V30 12214 H 1161.27 -0.237154 0.633035 0
M  V30 12215 H 1163.83 -0.0768976 2.05256 0
M  V30 12216 H 1162.06 -2.45387 2.98868 0
M  V30 12217 H 1163.75 -2.26988 3.36498 0
M  V30 12218 H 1164.51 -0.273621 4.84228 0
M  V30 12219 H 1160.39 -1.41267 4.38822 0
M  V30 12220 H 1163.94 0.942727 6.91201 0
M  V30 12221 H 1159.83 -0.202955 6.45181 0
M  V30 12222 H 1160.6 1.03308 8.11954 0
M  V30 12223 N 1163.26 -1.53291 -0.366026 0
M  V30 12224 C 1164.54 -1.60055 -1.12436 0
M  V30 12225 C 1164.92 -0.407811 -2.07123 0
M  V30 12226 O 1164.27 0.601977 -2.20428 0
M  V30 12227 C 1164.48 -2.95062 -1.86385 0
M  V30 12228 C 1165.83 -3.49623 -2.40934 0
M  V30 12229 O 1166.85 -2.97088 -1.96512 0
M  V30 12230 O 1165.71 -4.41461 -3.2214 0
M  V30 12231 H 1162.8 -0.646476 -0.51575 0
M  V30 12232 H 1165.35 -1.65632 -0.369326 0
M  V30 12233 H 1164.12 -3.73312 -1.17277 0
M  V30 12234 H 1163.75 -2.92973 -2.68798 0
M  V30 12235 N 1164.74 0.6258 -1.44643 0
M  V30 12236 C 1165.97 1.41028 -1.50979 0
M  V30 12237 C 1166.38 1.88717 -0.135092 0
M  V30 12238 O 1165.72 1.61778 0.870268 0
M  V30 12239 C 1165.79 2.66094 -2.41732 0
M  V30 12240 C 1165.45 2.40166 -3.88805 0
M  V30 12241 C 1166.45 2.01661 -4.79196 0
M  V30 12242 C 1164.13 2.53641 -4.33557 0
M  V30 12243 C 1166.13 1.76966 -6.12341 0
M  V30 12244 C 1163.81 2.2856 -5.66748 0
M  V30 12245 C 1164.81 1.90282 -6.55959 0
M  V30 12246 O 1164.5 1.65484 -7.86683 0
M  V30 12247 H 1164.23 0.438757 -0.514265 0
M  V30 12248 H 1166.78 0.772034 -1.90339 0
M  V30 12249 H 1165.01 3.32575 -1.97309 0
M  V30 12250 H 1166.7 3.28107 -2.38957 0
M  V30 12251 H 1167.47 1.90802 -4.45892 0
M  V30 12252 H 1163.35 2.82404 -3.64375 0
M  V30 12253 H 1166.89 1.47014 -6.81933 0
M  V30 12254 H 1162.79 2.3903 -5.99612 0
M  V30 12255 H 1163.56 1.79686 -7.98533 0
M  V30 12256 N 1166.22 1.31629 0.866686 0
M  V30 12257 C 1167.13 1.21524 2.00671 0
M  V30 12258 C 1168.15 0.131277 1.73504 0
M  V30 12259 O 1169.32 0.349699 1.98341 0
M  V30 12260 C 1166.39 0.926491 3.34091 0
M  V30 12261 C 1165.45 2.09769 3.7456 0
M  V30 12262 C 1164.68 1.82262 5.01614 0
M  V30 12263 O 1164.9 0.759329 5.65323 0
M  V30 12264 O 1163.84 2.68031 5.38928 0
M  V30 12265 H 1167.66 2.17335 2.1213 0
M  V30 12266 H 1165.25 1.11401 0.995499 0
M  V30 12267 H 1167.13 0.78144 4.14091 0
M  V30 12268 H 1165.81 -0.00155829 3.237 0
M  V30 12269 H 1164.71 2.29816 2.95187 0
M  V30 12270 H 1166.05 3.0081 3.89582 0
M  V30 12271 N 1167.7 -1.08142 1.14644 0
M  V30 12272 C 1168.93 -1.84318 0.939926 0
M  V30 12273 C 1169.34 -1.81735 -0.511636 0
M  V30 12274 O 1168.7 -1.22297 -1.35461 0
M  V30 12275 C 1168.75 -3.31744 1.43625 0
M  V30 12276 O 1168.47 -3.3435 2.83094 0
M  V30 12277 C 1169.97 -4.24717 1.27007 0
M  V30 12278 H 1167.19 -0.581781 0.334323 0
M  V30 12279 H 1169.74 -1.36561 1.52221 0
M  V30 12280 H 1167.89 -3.7688 0.896664 0
M  V30 12281 H 1168.31 -4.26399 3.05425 0
M  V30 12282 H 1169.78 -5.26262 1.66591 0
M  V30 12283 H 1170.26 -4.38682 0.213257 0
M  V30 12284 H 1170.86 -3.85409 1.79833 0
M  V30 12285 N 1169.18 -0.941978 -1.26351 0
M  V30 12286 C 1170.43 -0.588806 -1.93333 0
M  V30 12287 C 1170.75 0.875067 -1.74263 0
M  V30 12288 O 1170.02 1.62187 -1.09873 0
M  V30 12289 H 1168.6 -0.214774 -0.715459 0
M  V30 12290 H 1171.26 -1.19747 -1.53774 0
M  V30 12291 H 1170.35 -0.807267 -3.01479 0
M  V30 12292 N 1170.66 1.40747 -0.709091 0
M  V30 12293 C 1171.88 2.05841 -0.253816 0
M  V30 12294 C 1172.31 1.53056 1.09341 0
M  V30 12295 O 1171.66 0.663181 1.68735 0
M  V30 12296 C 1171.71 3.59822 -0.236699 0
M  V30 12297 O 1170.82 4.04876 0.784168 0
M  V30 12298 H 1170.16 0.65295 -0.120631 0
M  V30 12299 H 1172.69 1.80266 -0.967749 0
M  V30 12300 H 1172.7 4.07936 -0.0721616 0
M  V30 12301 H 1171.37 3.97608 -1.21988 0
M  V30 12302 H 1169.95 3.68237 0.587884 0
M  V30 12303 N 1172.13 0.454803 1.50895 0
M  V30 12304 C 1173.07 -0.383826 2.25963 0
M  V30 12305 C 1174.08 -0.971263 1.30653 0
M  V30 12306 O 1175.27 -0.862434 1.56283 0
M  V30 12307 C 1172.37 -1.55069 3.01342 0
M  V30 12308 C 1171.54 -1.07899 4.23883 0
M  V30 12309 C 1170.6 -2.118 4.81692 0
M  V30 12310 O 1169.63 -1.70523 5.43057 0
M  V30 12311 N 1170.83 -3.44459 4.67256 0
M  V30 12312 H 1173.59 0.259646 2.98573 0
M  V30 12313 H 1171.15 0.284661 1.59378 0
M  V30 12314 H 1173.15 -2.24236 3.36898 0
M  V30 12315 H 1171.72 -2.09917 2.31633 0
M  V30 12316 H 1170.94 -0.213773 3.9362 0
M  V30 12317 H 1172.22 -0.741501 5.03368 0
M  V30 12318 H 1171.62 -3.80716 4.18416 0
M  V30 12319 H 1170.18 -4.0947 5.07127 0
M  V30 12320 N 1173.61 -1.56489 0.186789 0
M  V30 12321 C 1174.86 -1.97634 -0.454831 0
M  V30 12322 C 1175.19 -1.07334 -1.61843 0
M  V30 12323 O 1174.47 -0.123612 -1.94107 0
M  V30 12324 C 1174.75 -3.48071 -0.922962 0
M  V30 12325 C 1174.6 -4.49149 0.241877 0
M  V30 12326 C 1175.92 -4.01994 -1.79134 0
M  V30 12327 H 1173.04 -0.718555 -0.163854 0
M  V30 12328 H 1175.68 -1.87984 0.27604 0
M  V30 12329 H 1173.83 -3.56425 -1.54575 0
M  V30 12330 H 1175.5 -4.52841 0.87936 0
M  V30 12331 H 1173.75 -4.24468 0.894964 0
M  V30 12332 H 1174.42 -5.51851 -0.128051 0
M  V30 12333 H 1176.89 -3.96367 -1.26618 0
M  V30 12334 H 1175.77 -5.07641 -2.08787 0
M  V30 12335 H 1176.03 -3.46747 -2.74261 0
M  V30 12336 N 1175.09 0.086862 -1.5736 0
M  V30 12337 C 1176.51 0.441284 -1.53378 0
M  V30 12338 C 1176.71 1.80046 -0.904748 0
M  V30 12339 O 1175.76 2.47484 -0.500781 0
M  V30 12340 C 1177.07 0.3962 -2.98078 0
M  V30 12341 C 1178.62 0.477468 -3.09337 0
M  V30 12342 C 1179.1 0.462448 -4.55659 0
M  V30 12343 N 1180.59 0.522963 -4.60238 0
M  V30 12344 C 1181.32 0.533313 -5.70914 0
M  V30 12345 N 1180.82 0.499376 -6.90998 0
M  V30 12346 N 1182.61 0.578742 -5.59113 0
M  V30 12347 H 1174.76 -0.803308 -1.96623 0
M  V30 12348 H 1177.03 -0.299879 -0.89932 0
M  V30 12349 H 1176.73 -0.535505 -3.47599 0
M  V30 12350 H 1176.61 1.21209 -3.57195 0
M  V30 12351 H 1178.99 1.39959 -2.59799 0
M  V30 12352 H 1179.07 -0.366717 -2.53158 0
M  V30 12353 H 1178.72 -0.455768 -5.05851 0
M  V30 12354 H 1178.65 1.32396 -5.09685 0
M  V30 12355 H 1181.14 0.554051 -3.73816 0
M  V30 12356 H 1181.45 0.510784 -7.7111 0
M  V30 12357 H 1179.8 0.466296 -6.93434 0
M  V30 12358 H 1182.99 0.602841 -4.64202 0
M  V30 12359 H 1183.16 0.583339 -6.45369 0
M  V30 12360 N 1176.57 1.53483 0.357892 0
M  V30 12361 C 1177.81 1.71233 1.09776 0
M  V30 12362 C 1178.17 0.462401 1.86761 0
M  V30 12363 O 1177.46 -0.544746 1.83693 0
M  V30 12364 C 1177.66 2.90654 2.07978 0
M  V30 12365 C 1177.48 4.27141 1.40644 0
M  V30 12366 C 1176.25 4.91868 1.15732 0
M  V30 12367 C 1178.45 5.07392 0.840118 0
M  V30 12368 N 1176.43 6.12261 0.448282 0
M  V30 12369 C 1177.81 6.19451 0.260863 0
M  V30 12370 C 1179.86 4.92377 0.739558 0
M  V30 12371 C 1178.56 7.18135 -0.409153 0
M  V30 12372 C 1180.59 5.91341 0.0833084 0
M  V30 12373 C 1179.95 7.02728 -0.485038 0
M  V30 12374 H 1176.05 0.679764 0.386582 0
M  V30 12375 H 1178.63 1.90893 0.383158 0
M  V30 12376 H 1176.81 2.7252 2.76744 0
M  V30 12377 H 1178.54 2.97192 2.74698 0
M  V30 12378 H 1175.29 4.51157 1.44064 0
M  V30 12379 H 1175.72 6.76912 0.108905 0
M  V30 12380 H 1180.36 4.06441 1.16472 0
M  V30 12381 H 1178.08 8.03657 -0.846247 0
M  V30 12382 H 1181.66 5.818 0.00632482 0
M  V30 12383 H 1180.54 7.77992 -0.984802 0
M  V30 12384 N 1178.05 -0.61812 1.44973 0
M  V30 12385 C 1179.46 -0.937734 1.29146 0
M  V30 12386 C 1179.66 -2.00104 0.236749 0
M  V30 12387 O 1178.72 -2.49731 -0.372923 0
M  V30 12388 C 1180.03 -1.38865 2.66715 0
M  V30 12389 C 1181.58 -1.50343 2.74529 0
M  V30 12390 C 1182.05 -1.98814 4.12598 0
M  V30 12391 N 1183.54 -2.06064 4.14839 0
M  V30 12392 C 1184.28 -2.44768 5.18533 0
M  V30 12393 N 1183.78 -2.82516 6.32579 0
M  V30 12394 N 1185.57 -2.45016 5.05889 0
M  V30 12395 H 1177.72 0.084872 2.1223 0
M  V30 12396 H 1179.98 -0.0246744 0.947679 0
M  V30 12397 H 1179.69 -0.681583 3.45032 0
M  V30 12398 H 1179.56 -2.3572 2.94475 0
M  V30 12399 H 1181.95 -2.20144 1.96522 0
M  V30 12400 H 1182.03 -0.518297 2.50494 0
M  V30 12401 H 1181.67 -1.29604 4.91086 0
M  V30 12402 H 1181.6 -2.98223 4.34017 0
M  V30 12403 H 1184.1 -1.79525 3.32535 0
M  V30 12404 H 1184.41 -3.109 7.07504 0
M  V30 12405 H 1182.75 -2.80237 6.35997 0
M  V30 12406 H 1185.94 -2.14925 4.15842 0
M  V30 12407 H 1186.12 -2.74854 5.86821 0
M  V30 12408 N 1179.52 -1.32087 -0.859693 0
M  V30 12409 C 1180.47 -1.20601 -1.96784 0
M  V30 12410 C 1181.44 -0.089355 -1.65859 0
M  V30 12411 O 1182.63 -0.264022 -1.88964 0
M  V30 12412 C 1179.77 -0.929872 -3.32336 0
M  V30 12413 C 1178.88 -2.13084 -3.75791 0
M  V30 12414 C 1178.01 -1.79061 -5.00111 0
M  V30 12415 C 1177.05 -2.95507 -5.36043 0
M  V30 12416 N 1176.19 -2.61611 -6.5154 0
M  V30 12417 H 1181.03 -2.1539 -2.0594 0
M  V30 12418 H 1178.57 -1.07131 -1.00803 0
M  V30 12419 H 1180.52 -0.750285 -4.10398 0
M  V30 12420 H 1179.15 -0.0187929 -3.22795 0
M  V30 12421 H 1178.21 -2.42086 -2.93425 0
M  V30 12422 H 1179.52 -3.00205 -3.98344 0
M  V30 12423 H 1178.67 -1.57625 -5.85866 0
M  V30 12424 H 1177.41 -0.891459 -4.79483 0
M  V30 12425 H 1176.42 -3.17581 -4.48801 0
M  V30 12426 H 1177.64 -3.86147 -5.5863 0
M  V30 12427 H 1175.59 -1.74231 -6.32439 0
M  V30 12428 H 1175.5 -3.42262 -6.74087 0
M  V30 12429 H 1176.77 -2.43592 -7.40461 0
M  V30 12430 N 1181 1.07532 -1.15215 0
M  V30 12431 C 1181.93 2.14598 -0.805006 0
M  V30 12432 C 1182.95 1.61778 0.182152 0
M  V30 12433 O 1184.14 1.78453 -0.040834 0
M  V30 12434 C 1181.24 3.38444 -0.175736 0
M  V30 12435 C 1180.41 4.20621 -1.19986 0
M  V30 12436 C 1179.47 5.22851 -0.592705 0
M  V30 12437 O 1178.49 5.55121 -1.25815 0
M  V30 12438 N 1179.7 5.7711 0.626425 0
M  V30 12439 H 1182.46 2.44981 -1.7264 0
M  V30 12440 H 1180.02 1.23423 -1.04778 0
M  V30 12441 H 1182.01 4.03969 0.243166 0
M  V30 12442 H 1180.58 3.0579 0.64896 0
M  V30 12443 H 1179.8 3.50941 -1.79539 0
M  V30 12444 H 1181.09 4.72339 -1.89139 0
M  V30 12445 H 1180.49 5.53139 1.18546 0
M  V30 12446 H 1179.05 6.44273 0.98771 0
M  V30 12447 N 1182.48 0.948665 1.2585 0
M  V30 12448 C 1183.43 0.462904 2.2611 0
M  V30 12449 C 1184.4 -0.481433 1.5897 0
M  V30 12450 O 1185.58 -0.395997 1.86645 0
M  V30 12451 C 1182.72 -0.258808 3.44128 0
M  V30 12452 C 1181.84 0.722072 4.25923 0
M  V30 12453 C 1180.97 -0.0215958 5.31196 0
M  V30 12454 C 1180.01 0.950612 6.04673 0
M  V30 12455 N 1179.15 0.238209 7.01696 0
M  V30 12456 H 1183.99 1.32279 2.67032 0
M  V30 12457 H 1181.52 0.663485 1.31287 0
M  V30 12458 H 1183.48 -0.693759 4.11391 0
M  V30 12459 H 1182.11 -1.08278 3.04098 0
M  V30 12460 H 1181.16 1.27552 3.58378 0
M  V30 12461 H 1182.48 1.46421 4.76825 0
M  V30 12462 H 1181.63 -0.51547 6.04506 0
M  V30 12463 H 1180.37 -0.796563 4.81151 0
M  V30 12464 H 1179.37 1.45554 5.30183 0
M  V30 12465 H 1180.6 1.72571 6.56808 0
M  V30 12466 H 1178.54 -0.518129 6.53951 0
M  V30 12467 H 1178.46 0.919542 7.50387 0
M  V30 12468 H 1179.73 -0.234325 7.79148 0
M  V30 12469 N 1183.96 -1.40369 0.716545 0
M  V30 12470 C 1185.2 -2.01167 0.256846 0
M  V30 12471 C 1185.54 -1.56689 -1.14727 0
M  V30 12472 O 1184.81 -0.787384 -1.7785 0
M  V30 12473 C 1185.1 -3.58511 0.337963 0
M  V30 12474 C 1184.95 -4.13059 1.78052 0
M  V30 12475 C 1186.27 -4.39142 -0.290295 0
M  V30 12476 H 1183.39 -0.730877 0.0948028 0
M  V30 12477 H 1186.03 -1.66833 0.909225 0
M  V30 12478 H 1184.18 -3.87891 -0.217482 0
M  V30 12479 H 1185.85 -3.94472 2.39143 0
M  V30 12480 H 1184.09 -3.67311 2.30793 0
M  V30 12481 H 1184.76 -5.22217 1.78867 0
M  V30 12482 H 1187.24 -4.15697 0.182987 0
M  V30 12483 H 1186.12 -5.48524 -0.203097 0
M  V30 12484 H 1186.38 -4.20209 -1.37394 0
M  V30 12485 N 1185.44 -0.462799 -1.50652 0
M  V30 12486 C 1186.35 0.341191 -2.32106 0
M  V30 12487 C 1187.36 1.00384 -1.42123 0
M  V30 12488 O 1188.54 0.993635 -1.75182 0
M  V30 12489 C 1185.6 1.41356 -3.16575 0
M  V30 12490 C 1184.66 0.768375 -4.22368 0
M  V30 12491 C 1183.9 1.78964 -5.028 0
M  V30 12492 O 1184.12 3.01515 -4.84195 0
M  V30 12493 O 1183.05 1.36606 -5.86193 0
M  V30 12494 H 1186.88 -0.324482 -3.01962 0
M  V30 12495 H 1184.47 -0.224807 -1.47699 0
M  V30 12496 H 1186.35 2.0349 -3.69012 0
M  V30 12497 H 1185.02 2.06285 -2.49456 0
M  V30 12498 H 1183.93 0.108297 -3.73943 0
M  V30 12499 H 1185.26 0.162164 -4.91933 0
M  V30 12500 N 1186.91 1.56388 -0.195085 0
M  V30 12501 C 1187.85 2.14992 0.765096 0
M  V30 12502 C 1188.83 1.08663 1.20959 0
M  V30 12503 O 1190.01 1.36775 1.29711 0
M  V30 12504 C 1187.14 2.7088 2.03327 0
M  V30 12505 C 1186.18 3.89797 1.7309 0
M  V30 12506 S 1187.02 5.28236 0.879025 0
M  V30 12507 C 1188.17 5.87545 2.15734 0
M  V30 12508 H 1188.4 2.961 0.266902 0
M  V30 12509 H 1185.94 1.54387 0.0199116 0
M  V30 12510 H 1187.9 3.03723 2.76157 0
M  V30 12511 H 1186.56 1.89814 2.50259 0
M  V30 12512 H 1185.75 4.27312 2.67246 0
M  V30 12513 H 1185.35 3.57964 1.08342 0
M  V30 12514 H 1187.64 6.01907 3.10989 0
M  V30 12515 H 1188.59 6.84137 1.82652 0
M  V30 12516 H 1188.99 5.16151 2.2858 0
M  V30 12517 N 1188.39 -0.0785156 1.57404 0
M  V30 12518 C 1189.3 -1.11203 2.0657 0
M  V30 12519 C 1190.32 -1.42822 0.993872 0
M  V30 12520 O 1191.49 -1.53133 1.30814 0
M  V30 12521 C 1188.56 -2.40812 2.4942 0
M  V30 12522 C 1187.62 -2.16225 3.70871 0
M  V30 12523 C 1186.85 -3.39654 4.11668 0
M  V30 12524 O 1187.08 -4.48521 3.524 0
M  V30 12525 O 1186.01 -3.28263 5.04507 0
M  V30 12526 H 1189.84 -0.724381 2.94935 0
M  V30 12527 H 1187.42 -0.292184 1.46515 0
M  V30 12528 H 1189.3 -3.17101 2.77534 0
M  V30 12529 H 1187.98 -2.7897 1.64187 0
M  V30 12530 H 1186.89 -1.37663 3.4785 0
M  V30 12531 H 1188.22 -1.82951 4.56935 0
M  V30 12532 N 1189.87 -1.5367 -0.349747 0
M  V30 12533 C 1190.8 -1.84208 -1.43492 0
M  V30 12534 C 1191.78 -0.696725 -1.55177 0
M  V30 12535 O 1192.97 -0.948061 -1.69486 0
M  V30 12536 C 1190.1 -2.04613 -2.80625 0
M  V30 12537 C 1189.05 -3.20419 -2.83753 0
M  V30 12538 C 1188.38 -3.26147 -4.23713 0
M  V30 12539 C 1189.68 -4.58666 -2.49846 0
M  V30 12540 H 1191.37 -2.75087 -1.18185 0
M  V30 12541 H 1188.92 -1.32363 -0.567101 0
M  V30 12542 H 1190.87 -2.2456 -3.56582 0
M  V30 12543 H 1189.59 -1.10459 -3.07354 0
M  V30 12544 H 1188.25 -3.00318 -2.10249 0
M  V30 12545 H 1187.9 -2.29599 -4.47541 0
M  V30 12546 H 1187.6 -4.03963 -4.26717 0
M  V30 12547 H 1189.12 -3.48296 -5.0152 0
M  V30 12548 H 1190.54 -4.78668 -3.15516 0
M  V30 12549 H 1188.94 -5.3884 -2.64144 0
M  V30 12550 H 1190.01 -4.62697 -1.4505 0
M  V30 12551 N 1191.35 0.610423 -1.45298 0
M  V30 12552 C 1192.76 1.19234 -1.43667 0
M  V30 12553 C 1193.11 1.95523 -0.162794 0
M  V30 12554 O 1192.24 2.03507 0.735789 0
M  V30 12555 C 1192.83 2.16892 -2.60276 0
M  V30 12556 C 1191.39 2.70465 -2.61774 0
M  V30 12557 C 1190.54 1.45821 -2.35863 0
M  V30 12558 H 1193.49 0.399895 -1.53579 0
M  V30 12559 H 1193.51 2.99875 -2.34212 0
M  V30 12560 H 1193.02 1.61339 -3.52975 0
M  V30 12561 H 1191.12 3.29965 -1.73072 0
M  V30 12562 H 1191.23 3.15092 -3.60907 0
M  V30 12563 H 1189.6 1.74678 -1.85364 0
M  V30 12564 H 1190.38 0.921403 -3.30704 0
M  V30 12565 N 1192.83 1.32541 0.852676 0
M  V30 12566 C 1194.07 1.22971 1.60383 0
M  V30 12567 C 1194.4 -0.208009 1.93887 0
M  V30 12568 O 1193.67 -1.13326 1.59794 0
M  V30 12569 H 1192.25 0.452149 0.594618 0
M  V30 12570 H 1194.91 1.66089 1.01983 0
M  V30 12571 H 1194 1.81373 2.53989 0
M  V30 12572 N 1194.3 -1.0692 1.15784 0
M  V30 12573 C 1195.58 -1.76367 0.845825 0
M  V30 12574 C 1195.96 -2.00594 -0.657672 0
M  V30 12575 O 1195.31 -1.62794 -1.60345 0
M  V30 12576 C 1195.52 -3.06913 1.66149 0
M  V30 12577 C 1196.87 -3.81181 1.87046 0
M  V30 12578 O 1197.89 -3.16737 1.62961 0
M  V30 12579 O 1196.75 -4.96936 2.27413 0
M  V30 12580 H 1193.84 -0.766095 0.311493 0
M  V30 12581 H 1196.39 -1.13246 1.26386 0
M  V30 12582 H 1195.16 -2.84924 2.68205 0
M  V30 12583 H 1194.79 -3.77767 1.24007 0
M  V30 12584 N 1195.78 -0.955326 -1.25345 0
M  V30 12585 C 1196.73 -0.474888 -2.25862 0
M  V30 12586 C 1197.7 0.472996 -1.59223 0
M  V30 12587 O 1198.88 0.386094 -1.86853 0
M  V30 12588 C 1196.02 0.240554 -3.44261 0
M  V30 12589 C 1195.14 -0.74465 -4.25534 0
M  V30 12590 C 1194.27 -0.00657513 -5.312 0
M  V30 12591 C 1193.31 -0.982666 -6.04161 0
M  V30 12592 N 1192.45 -0.275418 -7.0156 0
M  V30 12593 H 1197.29 -1.33693 -2.66327 0
M  V30 12594 H 1194.83 -0.670439 -1.30933 0
M  V30 12595 H 1196.78 0.671933 -4.11753 0
M  V30 12596 H 1195.41 1.06664 -3.04668 0
M  V30 12597 H 1194.47 -1.29451 -3.57696 0
M  V30 12598 H 1195.78 -1.48948 -4.76042 0
M  V30 12599 H 1194.93 0.483404 -6.04771 0
M  V30 12600 H 1193.67 0.771035 -4.81567 0
M  V30 12601 H 1192.68 -1.48364 -5.29404 0
M  V30 12602 H 1193.9 -1.76052 -6.55883 0
M  V30 12603 H 1191.85 0.483441 -6.54216 0
M  V30 12604 H 1191.76 -0.959324 -7.49889 0
M  V30 12605 H 1193.03 0.193002 -7.79261 0
M  V30 12606 N 1197.26 1.39987 -0.723979 0
M  V30 12607 C 1198.51 1.99964 -0.26406 0
M  V30 12608 C 1198.82 1.58084 1.1519 0
M  V30 12609 O 1200.03 2.10819 1.71077 0
M  V30 12610 C 1198.49 3.57427 -0.421174 0
M  V30 12611 C 1198.09 4.08276 -1.84432 0
M  V30 12612 C 1199.84 4.24494 -0.0224734 0
M  V30 12613 C 1197.74 5.58272 -1.95157 0
M  V30 12614 H 1196.67 0.747995 -0.0949728 0
M  V30 12615 H 1199.33 1.60122 -0.896276 0
M  V30 12616 H 1197.71 3.95011 0.279762 0
M  V30 12617 H 1198.88 3.82051 -2.57631 0
M  V30 12618 H 1197.2 3.53834 -2.19523 0
M  V30 12619 H 1199.79 5.34637 -0.0817744 0
M  V30 12620 H 1200.14 4.03593 1.02069 0
M  V30 12621 H 1200.67 3.92046 -0.67416 0
M  V30 12622 H 1197.41 5.84038 -2.97623 0
M  V30 12623 H 1196.93 5.86335 -1.2638 0
M  V30 12624 H 1198.61 6.23509 -1.72759 0
M  V30 12625 N 1198.74 0.470782 1.50404 0
M  V30 12626 C 1199.99 -0.0841494 2.01925 0
M  V30 12627 C 1200.31 -1.40244 1.35487 0
M  V30 12628 O 1199.58 -1.89409 0.500111 0
M  V30 12629 H 1198.16 -0.0340884 0.746222 0
M  V30 12630 H 1200.82 0.621133 1.84738 0
M  V30 12631 H 1199.92 -0.235877 3.11207 0
M  V30 12632 N 1200.22 -1.56282 0.203376 0
M  V30 12633 C 1201.15 -2.2247 -0.709183 0
M  V30 12634 C 1202.13 -1.19046 -1.21499 0
M  V30 12635 O 1203.31 -1.47578 -1.26231 0
M  V30 12636 C 1200.44 -2.8905 -1.92529 0
M  V30 12637 C 1199.4 -3.98789 -1.55407 0
M  V30 12638 C 1198.72 -4.52574 -2.84747 0
M  V30 12639 C 1200.02 -5.16774 -0.75775 0
M  V30 12640 H 1201.72 -2.98986 -0.157392 0
M  V30 12641 H 1199.26 -1.43808 -0.0742613 0
M  V30 12642 H 1201.22 -3.34038 -2.56898 0
M  V30 12643 H 1199.94 -2.09952 -2.50175 0
M  V30 12644 H 1198.6 -3.54504 -0.933928 0
M  V30 12645 H 1198.25 -3.70229 -3.40499 0
M  V30 12646 H 1197.95 -5.26627 -2.6065 0
M  V30 12647 H 1199.47 -5.00269 -3.5009 0
M  V30 12648 H 1200.89 -5.58256 -1.30472 0
M  V30 12649 H 1199.28 -5.96945 -0.614583 0
M  V30 12650 H 1200.35 -4.84308 0.239476 0
M  V30 12651 N 1201.7 0.070167 -1.57444 0
M  V30 12652 C 1202.65 1.09016 -2.00249 0
M  V30 12653 C 1203.63 1.34387 -0.884809 0
M  V30 12654 O 1204.82 1.34661 -1.14872 0
M  V30 12655 C 1201.95 2.40344 -2.45132 0
M  V30 12656 C 1201.04 2.1824 -3.63637 0
M  V30 12657 N 1201.43 1.6607 -4.7776 0
M  V30 12658 C 1199.73 2.48706 -3.70218 0
M  V30 12659 C 1200.43 1.58819 -5.59599 0
M  V30 12660 N 1199.4 2.04928 -5.03493 0
M  V30 12661 H 1203.2 0.680143 -2.85922 0
M  V30 12662 H 1200.72 0.277212 -1.60017 0
M  V30 12663 H 1202.72 3.1418 -2.74037 0
M  V30 12664 H 1201.38 2.82061 -1.60846 0
M  V30 12665 H 1202.39 1.34911 -5.00019 0
M  V30 12666 H 1199.06 2.93778 -2.96649 0
M  V30 12667 H 1200.45 1.19323 -6.6122 0
M  V30 12668 N 1203.17 1.53854 0.341593 0
M  V30 12669 C 1204.1 1.84966 1.42513 0
M  V30 12670 C 1205.08 0.704944 1.54805 0
M  V30 12671 O 1206.27 0.957036 1.68981 0
M  V30 12672 C 1203.4 2.06099 2.79536 0
M  V30 12673 C 1202.35 3.21919 2.82049 0
M  V30 12674 C 1201.68 3.28389 4.21977 0
M  V30 12675 C 1202.98 4.59984 2.4741 0
M  V30 12676 H 1204.67 2.7571 1.16724 0
M  V30 12677 H 1202.22 1.32662 0.560073 0
M  V30 12678 H 1204.17 2.26448 3.55386 0
M  V30 12679 H 1202.9 1.12087 3.06764 0
M  V30 12680 H 1201.56 3.01429 2.08653 0
M  V30 12681 H 1201.2 2.3197 4.46317 0
M  V30 12682 H 1200.9 4.0622 4.24569 0
M  V30 12683 H 1202.43 3.50951 4.99666 0
M  V30 12684 H 1203.84 4.80334 3.12973 0
M  V30 12685 H 1202.24 5.40233 2.61282 0
M  V30 12686 H 1203.31 4.6346 1.42594 0
M  V30 12687 N 1204.65 -0.602709 1.4562 0
M  V30 12688 C 1206.07 -0.923983 1.30133 0
M  V30 12689 C 1206.27 -1.99842 0.25796 0
M  V30 12690 O 1205.32 -2.50112 -0.346414 0
M  V30 12691 C 1206.64 -1.36029 2.68173 0
M  V30 12692 C 1208.18 -1.47423 2.76108 0
M  V30 12693 C 1208.66 -1.94427 4.14683 0
M  V30 12694 N 1210.15 -2.01653 4.17002 0
M  V30 12695 C 1210.89 -2.39255 5.211 0
M  V30 12696 N 1210.38 -2.75791 6.3554 0
M  V30 12697 N 1212.17 -2.39636 5.08459 0
M  V30 12698 H 1204.33 0.107377 2.12128 0
M  V30 12699 H 1206.59 -0.0146216 0.947887 0
M  V30 12700 H 1206.29 -0.644949 3.45736 0
M  V30 12701 H 1206.17 -2.32584 2.96959 0
M  V30 12702 H 1208.56 -2.18047 1.98845 0
M  V30 12703 H 1208.64 -0.4917 2.5103 0
M  V30 12704 H 1208.28 -1.24389 4.92433 0
M  V30 12705 H 1208.21 -2.93603 4.37156 0
M  V30 12706 H 1210.7 -1.75988 3.3442 0
M  V30 12707 H 1211.01 -3.03378 7.10761 0
M  V30 12708 H 1209.36 -2.73475 6.38934 0
M  V30 12709 H 1212.55 -2.10502 4.18098 0
M  V30 12710 H 1212.72 -2.68614 5.89704 0
M  V30 12711 N 1206.13 -1.32992 -0.845635 0
M  V30 12712 C 1207.38 -1.2382 -1.59728 0
M  V30 12713 C 1207.7 0.197724 -1.93995 0
M  V30 12714 O 1206.97 1.12477 -1.60392 0
M  V30 12715 H 1205.55 -0.455296 -0.592212 0
M  V30 12716 H 1208.21 -1.66627 -1.01101 0
M  V30 12717 H 1207.31 -1.82717 -2.53023 0
M  V30 12718 N 1207.61 1.06304 -1.1635 0
M  V30 12719 C 1208.86 1.78747 -0.943074 0
M  V30 12720 C 1209.18 1.87646 0.530483 0
M  V30 12721 O 1208.45 1.38506 1.38538 0
M  V30 12722 H 1207.03 0.662072 -0.345932 0
M  V30 12723 H 1209.69 1.28413 -1.46615 0
M  V30 12724 H 1208.78 2.80828 -1.3617 0
M  V30 12725 N 1209.09 0.96196 1.24836 0
M  V30 12726 C 1210.32 0.637214 1.96528 0
M  V30 12727 C 1210.72 -0.79638 1.71623 0
M  V30 12728 O 1210.07 -1.54524 0.993372 0
M  V30 12729 C 1210.13 0.824972 3.49906 0
M  V30 12730 C 1209.79 2.23711 3.985 0
M  V30 12731 C 1210.79 3.21439 4.08623 0
M  V30 12732 C 1208.47 2.56327 4.31974 0
M  V30 12733 C 1210.47 4.49872 4.51546 0
M  V30 12734 C 1208.16 3.84987 4.74582 0
M  V30 12735 C 1209.15 4.81572 4.84332 0
M  V30 12736 O 1208.84 6.07938 5.25991 0
M  V30 12737 H 1208.57 0.237214 0.633013 0
M  V30 12738 H 1211.13 1.29081 1.59773 0
M  V30 12739 H 1209.36 0.114219 3.86531 0
M  V30 12740 H 1211.05 0.500179 4.02806 0
M  V30 12741 H 1211.81 2.97569 3.82985 0
M  V30 12742 H 1207.69 1.81872 4.23608 0
M  V30 12743 H 1211.24 5.25261 4.59071 0
M  V30 12744 H 1207.13 4.08661 4.99666 0
M  V30 12745 H 1207.9 6.11421 5.44157 0
M  V30 12746 N 1210.56 -1.39601 0.731392 0
M  V30 12747 C 1211.81 -1.99821 0.274661 0
M  V30 12748 C 1212.13 -1.58693 -1.1435 0
M  V30 12749 O 1213.33 -2.11724 -1.69957 0
M  V30 12750 C 1211.79 -3.57199 0.440124 0
M  V30 12751 C 1211.4 -4.07292 1.86594 0
M  V30 12752 C 1213.14 -4.24476 0.0449851 0
M  V30 12753 C 1211.05 -5.57229 1.98115 0
M  V30 12754 H 1209.98 -0.747481 0.0989383 0
M  V30 12755 H 1212.63 -1.59645 0.904755 0
M  V30 12756 H 1211.01 -3.95153 -0.25881 0
M  V30 12757 H 1212.18 -3.80679 2.59654 0
M  V30 12758 H 1210.5 -3.52665 2.21397 0
M  V30 12759 H 1213.1 -5.34587 0.110126 0
M  V30 12760 H 1213.44 -4.04129 -0.999269 0
M  V30 12761 H 1213.97 -3.91683 0.694942 0
M  V30 12762 H 1210.71 -5.82452 3.00716 0
M  V30 12763 H 1210.23 -5.85656 1.29487 0
M  V30 12764 H 1211.91 -6.22584 1.76063 0
M  V30 12765 N 1212.04 -0.478751 -1.50152 0
M  V30 12766 C 1213.29 0.073585 -2.02366 0
M  V30 12767 C 1213.62 1.3903 -1.36018 0
M  V30 12768 O 1212.87 1.89787 -0.477435 0
M  V30 12769 C 1213.17 0.297535 -3.56159 0
M  V30 12770 C 1212.84 -0.938419 -4.41027 0
M  V30 12771 C 1211.5 -1.27727 -4.63939 0
M  V30 12772 C 1213.85 -1.76098 -4.9055 0
M  V30 12773 C 1211.18 -2.4386 -5.33619 0
M  V30 12774 C 1213.53 -2.91366 -5.61506 0
M  V30 12775 C 1212.2 -3.25657 -5.8267 0
M  V30 12776 H 1211.47 0.0269267 -0.740511 0
M  V30 12777 H 1214.11 -0.63439 -1.80687 0
M  V30 12778 H 1212.42 1.08783 -3.76395 0
M  V30 12779 H 1214.11 0.73899 -3.94132 0
M  V30 12780 H 1210.7 -0.664441 -4.23418 0
M  V30 12781 H 1214.89 -1.51237 -4.72696 0
M  V30 12782 H 1210.14 -2.70692 -5.48211 0
M  V30 12783 H 1214.32 -3.55445 -5.98859 0
M  V30 12784 H 1211.95 -4.15751 -6.36439 0
M  V30 12785 N 1213.52 1.56172 -0.211661 0
M  V30 12786 C 1214.93 1.84307 0.297982 0
M  V30 12787 C 1215.28 1.1328 1.60194 0
M  V30 12788 O 1214.41 0.399137 2.12687 0
M  V30 12789 C 1215 3.34348 0.547428 0
M  V30 12790 C 1213.56 3.62835 1.0014 0
M  V30 12791 C 1212.71 2.77237 0.0590326 0
M  V30 12792 H 1215.66 1.5262 -0.435083 0
M  V30 12793 H 1215.68 3.54018 1.39469 0
M  V30 12794 H 1215.19 3.86015 -0.401778 0
M  V30 12795 H 1213.29 3.16616 1.96431 0
M  V30 12796 H 1213.41 4.70899 0.882653 0
M  V30 12797 H 1211.77 2.48377 0.564005 0
M  V30 12798 H 1212.55 3.31699 -0.884913 0
M  V30 12799 N 1215 -0.0618163 1.57479 0
M  V30 12800 C 1216.23 -0.771724 1.91969 0
M  V30 12801 C 1216.64 -1.7061 0.808549 0
M  V30 12802 O 1216 -1.812 -0.217455 0
M  V30 12803 C 1216.05 -1.55687 3.26257 0
M  V30 12804 O 1215.77 -0.660032 4.331 0
M  V30 12805 C 1217.27 -2.36688 3.74825 0
M  V30 12806 H 1214.49 -0.21885 0.634307 0
M  V30 12807 H 1217.04 -0.0291068 2.04479 0
M  V30 12808 H 1215.19 -2.25167 3.15244 0
M  V30 12809 H 1215.6 -1.20715 5.1042 0
M  V30 12810 H 1217.08 -2.8722 4.7139 0
M  V30 12811 H 1217.56 -3.1666 3.0434 0
M  V30 12812 H 1218.16 -1.72346 3.88815 0
M  V30 12813 N 1216.48 -1.54033 -0.333429 0
M  V30 12814 C 1217.41 -1.79056 -1.43079 0
M  V30 12815 C 1218.42 -0.672176 -1.48276 0
M  V30 12816 O 1219.61 -0.949103 -1.51176 0
M  V30 12817 C 1216.71 -1.88443 -2.81678 0
M  V30 12818 C 1215.88 -3.18493 -2.99802 0
M  V30 12819 C 1214.94 -3.18708 -4.18702 0
M  V30 12820 O 1213.97 -3.92389 -4.12334 0
M  V30 12821 N 1215.17 -2.41792 -5.27747 0
M  V30 12822 H 1217.94 -2.73753 -1.21981 0
M  V30 12823 H 1215.5 -1.53207 -0.523365 0
M  V30 12824 H 1217.49 -1.86027 -3.59411 0
M  V30 12825 H 1216.06 -1.00887 -2.95872 0
M  V30 12826 H 1215.28 -3.33951 -2.09453 0
M  V30 12827 H 1216.57 -4.04376 -3.088 0
M  V30 12828 H 1215.96 -1.81501 -5.35793 0
M  V30 12829 H 1214.52 -2.45163 -6.03936 0
M  V30 12830 N 1217.95 0.594978 -1.45938 0
M  V30 12831 C 1218.89 1.71909 -1.51591 0
M  V30 12832 C 1219.9 1.57671 -0.405416 0
M  V30 12833 O 1221.09 1.65321 -0.673144 0
M  V30 12834 C 1218.19 3.10041 -1.3685 0
M  V30 12835 C 1217.36 3.50399 -2.61801 0
M  V30 12836 C 1216.42 4.67542 -2.41435 0
M  V30 12837 O 1215.45 4.74022 -3.15106 0
M  V30 12838 N 1216.65 5.6163 -1.46808 0
M  V30 12839 H 1219.41 1.67518 -2.48511 0
M  V30 12840 H 1216.97 0.78062 -1.41838 0
M  V30 12841 H 1218.97 3.86183 -1.21017 0
M  V30 12842 H 1217.54 3.08868 -0.481589 0
M  V30 12843 H 1216.76 2.64088 -2.92662 0
M  V30 12844 H 1218.04 3.74125 -3.44831 0
M  V30 12845 H 1217.44 5.5912 -0.860333 0
M  V30 12846 H 1216 6.37252 -1.36942 0
M  V30 12847 N 1219.43 1.33438 0.838571 0
M  V30 12848 C 1220.84 1.22366 1.41009 0
M  V30 12849 C 1221.19 -0.157317 1.95568 0
M  V30 12850 O 1220.32 -1.05692 1.88834 0
M  V30 12851 C 1220.91 2.21542 2.56329 0
M  V30 12852 C 1219.47 2.14309 3.09433 0
M  V30 12853 C 1218.62 2.09012 1.82235 0
M  V30 12854 H 1221.57 1.45032 0.64431 0
M  V30 12855 H 1221.59 1.82332 3.33969 0
M  V30 12856 H 1221.1 3.22042 2.16589 0
M  V30 12857 H 1219.21 1.17113 3.53717 0
M  V30 12858 H 1219.32 3.04866 3.69586 0
M  V30 12859 H 1217.68 1.54492 2.02495 0
M  V30 12860 H 1218.47 3.11319 1.4469 0
M  V30 12861 N 1220.91 -1.05686 1.16912 0
M  V30 12862 C 1221.86 -2.15417 0.877404 0
M  V30 12863 C 1222.85 -1.6868 -0.155986 0
M  V30 12864 O 1224.06 -1.79998 -0.00938156 0
M  V30 12865 H 1220.43 -0.70332 0.266168 0
M  V30 12866 H 1222.4 -2.37228 1.81012 0
M  V30 12867 C 1221.15 -3.45372 0.401696 0
M  V30 12868 H 1220.48 -3.81732 1.18832 0
M  V30 12869 H 1221.92 -4.2334 0.236418 0
M  V30 12870 C 1220.38 -3.25209 -0.87981 0
M  V30 12871 O 1220.91 -3.51322 -1.94771 0
M  V30 12872 N 1219.11 -2.78614 -0.825997 0
M  V30 12873 H 1218.66 -2.57564 0.0432439 0
M  V30 12874 H 1218.62 -2.65503 -1.68391 0
M  V30 12875 N 1222.39 -0.968567 -1.24324 0
M  V30 12876 C 1223.62 -0.648568 -1.96472 0
M  V30 12877 C 1224.03 0.782168 -1.71836 0
M  V30 12878 O 1223.39 1.5249 -1.00265 0
M  V30 12879 C 1223.44 -0.91482 -3.49733 0
M  V30 12880 O 1223.16 -2.28931 -3.73527 0
M  V30 12881 C 1224.66 -0.609131 -4.39095 0
M  V30 12882 H 1221.88 -0.241921 -0.625872 0
M  V30 12883 H 1224.43 -1.29673 -1.5813 0
M  V30 12884 H 1222.58 -0.31285 -3.86135 0
M  V30 12885 H 1222.99 -2.36998 -4.67902 0
M  V30 12886 H 1224.47 -0.845875 -5.4548 0
M  V30 12887 H 1224.95 0.456625 -4.3682 0
M  V30 12888 H 1225.55 -1.19105 -4.08282 0
M  V30 12889 N 1223.87 1.39211 -0.738786 0
M  V30 12890 C 1225.09 2.04732 -0.298751 0
M  V30 12891 C 1225.51 1.55706 1.06776 0
M  V30 12892 O 1224.87 0.723605 1.67542 0
M  V30 12893 C 1224.92 3.60288 -0.29574 0
M  V30 12894 O 1224.64 4.07511 -1.60831 0
M  V30 12895 C 1226.14 4.43011 0.159994 0
M  V30 12896 H 1223.36 0.658296 -0.129952 0
M  V30 12897 H 1225.9 1.78186 -1.0035 0
M  V30 12898 H 1224.06 3.85722 0.360146 0
M  V30 12899 H 1224.47 5.01858 -1.52443 0
M  V30 12900 H 1225.95 5.51889 0.110941 0
M  V30 12901 H 1226.42 4.22325 1.20573 0
M  V30 12902 H 1227.03 4.22734 -0.466467 0
M  V30 12903 N 1225.34 0.486708 1.49896 0
M  V30 12904 C 1226.57 -0.0600816 2.06813 0
M  V30 12905 C 1226.99 -1.32112 1.34877 0
M  V30 12906 O 1226.34 -1.77537 0.422725 0
M  V30 12907 C 1226.4 -0.332266 3.5997 0
M  V30 12908 O 1226.12 0.878771 4.29196 0
M  V30 12909 C 1227.62 -0.924289 4.33557 0
M  V30 12910 H 1224.84 0.0140611 0.670853 0
M  V30 12911 H 1227.38 0.67997 1.92864 0
M  V30 12912 H 1225.54 -1.02227 3.73669 0
M  V30 12913 H 1225.95 0.632873 5.20668 0
M  V30 12914 H 1227.42 -1.06441 5.4164 0
M  V30 12915 H 1227.9 -1.91844 3.95085 0
M  V30 12916 H 1228.51 -0.272189 4.24428 0
M  V30 12917 N 1226.82 -1.56058 0.219941 0
M  V30 12918 C 1227.75 -2.2321 -0.685547 0
M  V30 12919 C 1228.73 -1.20328 -1.20229 0
M  V30 12920 O 1229.92 -1.48909 -1.24659 0
M  V30 12921 C 1227.05 -2.91076 -1.89452 0
M  V30 12922 C 1226 -4.00415 -1.51169 0
M  V30 12923 C 1225.33 -4.55569 -2.79931 0
M  V30 12924 C 1226.63 -5.17549 -0.702896 0
M  V30 12925 H 1228.32 -2.99136 -0.125671 0
M  V30 12926 H 1225.87 -1.43879 -0.0590043 0
M  V30 12927 H 1227.82 -3.36744 -2.53341 0
M  V30 12928 H 1226.55 -2.12594 -2.47934 0
M  V30 12929 H 1225.21 -3.55475 -0.896275 0
M  V30 12930 H 1224.85 -3.73819 -3.36553 0
M  V30 12931 H 1224.55 -5.29361 -2.55049 0
M  V30 12932 H 1226.08 -5.03955 -3.44764 0
M  V30 12933 H 1227.49 -5.59608 -1.24544 0
M  V30 12934 H 1225.89 -5.97563 -0.551234 0
M  V30 12935 H 1226.96 -4.84027 0.29083 0
M  V30 12936 N 1228.3 0.053464 -1.57509 0
M  V30 12937 C 1229.26 1.04604 -2.03938 0
M  V30 12938 C 1230.26 1.30509 -0.939357 0
M  V30 12939 O 1231.45 1.25922 -1.20371 0
M  V30 12940 C 1228.59 2.38516 -2.43563 0
M  V30 12941 H 1229.78 0.645484 -2.92871 0
M  V30 12942 H 1227.33 0.299683 -1.534 0
M  V30 12943 H 1228.07 2.83368 -1.57712 0
M  V30 12944 H 1227.85 2.2105 -3.23851 0
M  V30 12945 H 1229.34 3.09826 -2.79996 0
M  V30 12946 N 1229.78 1.54207 0.325255 0
M  V30 12947 C 1231 1.7661 1.08736 0
M  V30 12948 C 1231.43 0.512449 1.80985 0
M  V30 12949 O 1230.79 -0.535913 1.73198 0
M  V30 12950 C 1230.84 2.95797 2.06243 0
M  V30 12951 O 1229.94 2.67225 3.14109 0
M  V30 12952 H 1229.28 0.585282 0.313593 0
M  V30 12953 H 1231.81 2.01225 0.370066 0
M  V30 12954 H 1231.82 3.23097 2.49143 0
M  V30 12955 H 1230.5 3.86712 1.53058 0
M  V30 12956 H 1229.07 2.50869 2.75897 0
M  V30 12957 N 1231.26 -0.58723 1.46251 0
M  V30 12958 C 1232.67 -0.910129 1.31106 0
M  V30 12959 C 1232.87 -1.99557 0.279141 0
M  V30 12960 O 1231.93 -2.50466 -0.319867 0
M  V30 12961 C 1233.24 -1.33177 2.69601 0
M  V30 12962 C 1234.79 -1.44486 2.77656 0
M  V30 12963 C 1235.27 -1.90018 4.16722 0
M  V30 12964 N 1236.76 -1.97219 4.19117 0
M  V30 12965 C 1237.49 -2.33714 5.23608 0
M  V30 12966 N 1236.99 -2.69034 6.3843 0
M  V30 12967 N 1238.78 -2.3423 5.10972 0
M  V30 12968 H 1230.93 0.12987 2.12003 0
M  V30 12969 H 1233.19 -0.00456718 0.947989 0
M  V30 12970 H 1232.9 -0.608243 3.464 0
M  V30 12971 H 1232.77 -2.29421 2.99409 0
M  V30 12972 H 1235.16 -2.15926 2.01147 0
M  V30 12973 H 1235.24 -0.465047 2.51537 0
M  V30 12974 H 1234.89 -1.19159 4.93724 0
M  V30 12975 H 1234.82 -2.88949 4.40245 0
M  V30 12976 H 1237.31 -1.72431 3.36268 0
M  V30 12977 H 1237.62 -2.95822 7.13939 0
M  V30 12978 H 1235.97 -2.66683 6.41798 0
M  V30 12979 H 1239.16 -2.06056 4.20308 0
M  V30 12980 H 1239.33 -2.62345 5.92519 0
M  V30 12981 N 1232.74 -1.33881 -0.831482 0
M  V30 12982 C 1233.68 -1.24748 -1.94182 0
M  V30 12983 C 1234.65 -0.124516 -1.65633 0
M  V30 12984 O 1235.84 -0.304045 -1.88362 0
M  V30 12985 C 1232.98 -1.00016 -3.30289 0
M  V30 12986 C 1232.09 -2.21007 -3.71187 0
M  V30 12987 C 1231.23 -1.89629 -4.962 0
M  V30 12988 C 1230.26 -3.06811 -5.29654 0
M  V30 12989 N 1229.4 -2.75372 -6.45844 0
M  V30 12990 H 1234.24 -2.19709 -2.01325 0
M  V30 12991 H 1231.78 -1.09245 -0.985081 0
M  V30 12992 H 1233.74 -0.837167 -4.08714 0
M  V30 12993 H 1232.37 -0.0872582 -3.22682 0
M  V30 12994 H 1231.42 -2.48256 -2.88224 0
M  V30 12995 H 1232.73 -3.08587 -3.91887 0
M  V30 12996 H 1231.88 -1.70016 -5.82391 0
M  V30 12997 H 1230.62 -0.992964 -4.77485 0
M  V30 12998 H 1229.63 -3.27029 -4.41964 0
M  V30 12999 H 1230.85 -3.97909 -5.50314 0
M  V30 13000 H 1228.8 -1.87607 -6.28601 0
M  V30 13001 H 1228.72 -3.56483 -6.66675 0
M  V30 13002 H 1229.98 -2.59244 -7.35128 0
M  V30 13003 N 1234.21 1.05064 -1.1747 0
M  V30 13004 C 1235.16 2.14948 -0.888815 0
M  V30 13005 C 1236.16 1.68761 0.147038 0
M  V30 13006 O 1237.36 1.8 -0.000164278 0
M  V30 13007 H 1233.74 0.701898 -0.269894 0
M  V30 13008 H 1235.71 2.36265 -1.82268 0
M  V30 13009 C 1234.46 3.45154 -0.420006 0
M  V30 13010 H 1233.78 3.81096 -1.20854 0
M  V30 13011 H 1235.22 4.23209 -0.258866 0
M  V30 13012 C 1233.68 3.25671 0.862551 0
M  V30 13013 O 1234.21 3.5235 1.92906 0
M  V30 13014 N 1232.41 2.79048 0.81121 0
M  V30 13015 H 1231.96 2.57537 -0.0569025 0
M  V30 13016 H 1231.92 2.66392 1.66981 0
M  V30 13017 N 1235.69 0.975146 1.23809 0
M  V30 13018 C 1237.1 0.678873 1.7392 0
M  V30 13019 C 1237.45 -0.805133 1.78919 0
M  V30 13020 O 1236.58 -1.62984 1.42356 0
M  V30 13021 C 1237.17 1.22562 3.15854 0
M  V30 13022 C 1235.73 0.979096 3.63443 0
M  V30 13023 C 1234.88 1.35649 2.41857 0
M  V30 13024 H 1237.83 1.14961 1.09406 0
M  V30 13025 H 1237.85 0.595489 3.75811 0
M  V30 13026 H 1237.36 2.30571 3.12184 0
M  V30 13027 H 1235.46 -0.0851407 3.72503 0
M  V30 13028 H 1235.58 1.62998 4.5052 0
M  V30 13029 H 1233.94 0.774916 2.42626 0
M  V30 13030 H 1234.72 2.44624 2.40861 0
M  V30 13031 N 1237.17 -1.38817 0.746158 0
M  V30 13032 C 1238.1 -2.33144 0.128836 0
M  V30 13033 C 1239.08 -1.54487 -0.711873 0
M  V30 13034 O 1240.27 -1.82836 -0.654577 0
M  V30 13035 C 1237.4 -3.38639 -0.770772 0
M  V30 13036 C 1236.35 -4.27987 -0.0333669 0
M  V30 13037 C 1235.68 -5.24274 -1.05073 0
M  V30 13038 C 1236.98 -5.09915 1.13066 0
M  V30 13039 H 1238.67 -2.85019 0.916778 0
M  V30 13040 H 1236.22 -1.37039 0.442306 0
M  V30 13041 H 1238.17 -4.03587 -1.21225 0
M  V30 13042 H 1236.89 -2.8523 -1.59095 0
M  V30 13043 H 1235.55 -3.64534 0.388612 0
M  V30 13044 H 1235.2 -4.67156 -1.86478 0
M  V30 13045 H 1234.9 -5.84906 -0.562037 0
M  V30 13046 H 1236.42 -5.92099 -1.49169 0
M  V30 13047 H 1237.84 -5.68145 0.767084 0
M  V30 13048 H 1236.23 -5.79744 1.54972 0
M  V30 13049 H 1237.3 -4.4409 1.94709 0
M  V30 13050 N 1238.65 -0.49465 -1.49636 0
M  V30 13051 C 1239.9 0.0520143 -2.02033 0
M  V30 13052 C 1240.22 1.38071 -1.37701 0
M  V30 13053 O 1239.49 1.88589 -0.530181 0
M  V30 13054 H 1238.07 0.0222123 -0.74667 0
M  V30 13055 H 1240.73 -0.650445 -1.83726 0
M  V30 13056 H 1239.82 0.186337 -3.11543 0
M  V30 13057 N 1240.13 1.55939 -0.228214 0
M  V30 13058 C 1241.06 2.2357 0.6737 0
M  V30 13059 C 1242.04 1.20964 1.1959 0
M  V30 13060 O 1243.22 1.49568 1.23867 0
M  V30 13061 C 1240.35 2.92076 1.87906 0
M  V30 13062 C 1239.31 4.01211 1.49043 0
M  V30 13063 C 1238.63 4.57047 2.77511 0
M  V30 13064 C 1239.93 5.17914 0.67544 0
M  V30 13065 H 1241.63 2.99199 0.109806 0
M  V30 13066 H 1239.17 1.43908 0.0513732 0
M  V30 13067 H 1241.12 3.38083 2.51551 0
M  V30 13068 H 1239.85 2.13906 2.46803 0
M  V30 13069 H 1238.51 3.55945 0.877411 0
M  V30 13070 H 1238.16 3.75599 3.34566 0
M  V30 13071 H 1237.86 5.30707 2.52239 0
M  V30 13072 H 1239.38 5.05776 3.42087 0
M  V30 13073 H 1240.79 5.60261 1.21575 0
M  V30 13074 H 1239.19 5.97847 0.519536 0
M  V30 13075 H 1240.26 4.83866 -0.316495 0
M  V30 13076 N 1241.6 -0.0451101 1.57535 0
M  V30 13077 C 1242.85 -0.738072 1.87711 0
M  V30 13078 C 1243.17 -1.7737 0.824579 0
M  V30 13079 O 1244.37 -2.51812 1.01503 0
M  V30 13080 C 1242.83 -1.36373 3.33062 0
M  V30 13081 C 1242.44 -0.365283 4.46508 0
M  V30 13082 C 1244.18 -2.0375 3.72406 0
M  V30 13083 C 1242.09 -0.998371 5.82912 0
M  V30 13084 H 1241.02 -0.279413 0.700317 0
M  V30 13085 H 1243.67 0.00802425 1.83498 0
M  V30 13086 H 1242.05 -2.15899 3.31969 0
M  V30 13087 H 1243.22 0.402102 4.59042 0
M  V30 13088 H 1241.54 0.205505 4.15893 0
M  V30 13089 H 1244.14 -2.51939 4.71625 0
M  V30 13090 H 1244.48 -2.84869 3.03571 0
M  V30 13091 H 1245.01 -1.3102 3.75604 0
M  V30 13092 H 1241.75 -0.226935 6.55107 0
M  V30 13093 H 1241.27 -1.73598 5.74129 0
M  V30 13094 H 1242.95 -1.51044 6.29122 0
M  V30 13095 N 1243.08 -1.54377 -0.317073 0
M  V30 13096 C 1244.33 -1.72105 -1.0518 0
M  V30 13097 C 1244.64 -0.505166 -1.88964 0
M  V30 13098 O 1245.85 -0.563912 -2.65579 0
M  V30 13099 C 1244.31 -3.04435 -1.91957 0
M  V30 13100 C 1243.91 -4.33449 -1.13253 0
M  V30 13101 C 1245.66 -3.31524 -2.65127 0
M  V30 13102 C 1243.57 -5.56837 -1.99214 0
M  V30 13103 H 1242.5 -0.641392 -0.396399 0
M  V30 13104 H 1245.15 -1.80868 -0.309673 0
M  V30 13105 H 1243.53 -2.89595 -2.70094 0
M  V30 13106 H 1244.7 -4.59074 -0.39842 0
M  V30 13107 H 1243.02 -4.13173 -0.517372 0
M  V30 13108 H 1245.61 -4.20906 -3.29761 0
M  V30 13109 H 1245.96 -2.49688 -3.33109 0
M  V30 13110 H 1246.49 -3.47261 -1.94048 0
M  V30 13111 H 1243.23 -6.41294 -1.35729 0
M  V30 13112 H 1242.75 -5.35421 -2.70341 0
M  V30 13113 H 1244.43 -5.93488 -2.57646 0
M  V30 13114 N 1244.56 0.579466 -1.4656 0
M  V30 13115 C 1245.52 1.67033 -1.56948 0
M  V30 13116 C 1246.52 1.54481 -0.446361 0
M  V30 13117 O 1247.71 1.5904 -0.710767 0
M  V30 13118 C 1244.85 3.06474 -1.49286 0
M  V30 13119 H 1246.04 1.59179 -2.54169 0
M  V30 13120 H 1243.59 0.797573 -1.34419 0
M  V30 13121 H 1244.33 3.1988 -0.533572 0
M  V30 13122 H 1244.11 3.16993 -2.30776 0
M  V30 13123 H 1245.6 3.85879 -1.59648 0
M  V30 13124 N 1246.04 1.3432 0.824371 0
M  V30 13125 C 1246.97 1.2842 1.95014 0
M  V30 13126 C 1247.95 0.161925 1.69328 0
M  V30 13127 O 1249.13 0.354052 1.90945 0
M  V30 13128 C 1246.26 1.03741 3.31444 0
M  V30 13129 C 1245.22 2.12419 3.71567 0
M  V30 13130 C 1244.54 1.72931 5.05963 0
M  V30 13131 C 1245.84 3.54235 3.83817 0
M  V30 13132 H 1247.54 2.22614 2.00209 0
M  V30 13133 H 1245.08 1.07165 0.961856 0
M  V30 13134 H 1247.04 0.982586 4.09784 0
M  V30 13135 H 1245.76 0.0598892 3.26545 0
M  V30 13136 H 1244.42 2.16968 2.955 0
M  V30 13137 H 1244.07 0.738433 4.9755 0
M  V30 13138 H 1243.77 2.45668 5.3378 0
M  V30 13139 H 1245.29 1.68941 5.86763 0
M  V30 13140 H 1246.71 3.52106 4.52432 0
M  V30 13141 H 1245.1 4.25581 4.23085 0
M  V30 13142 H 1246.17 3.91682 2.85856 0
M  V30 13143 N 1247.52 -1.0444 1.18026 0
M  V30 13144 C 1248.79 -1.74533 0.883045 0
M  V30 13145 C 1249.17 -2.01944 -0.614975 0
M  V30 13146 O 1248.52 -1.66158 -1.56855 0
M  V30 13147 C 1248.73 -3.0332 1.72621 0
M  V30 13148 C 1250.08 -3.77128 1.9509 0
M  V30 13149 O 1251.1 -3.13209 1.69643 0
M  V30 13150 O 1249.96 -4.92001 2.37903 0
M  V30 13151 H 1247.06 -0.759315 0.327673 0
M  V30 13152 H 1249.6 -1.10539 1.2876 0
M  V30 13153 H 1248.37 -2.79171 2.74188 0
M  V30 13154 H 1248 -3.75052 1.31993 0
M  V30 13155 N 1248.99 -0.981699 -1.2329 0
M  V30 13156 C 1249.9 -0.531296 -2.28505 0
M  V30 13157 C 1250.92 0.414531 -1.6899 0
M  V30 13158 O 1252.1 0.284129 -1.99386 0
M  V30 13159 C 1249.16 0.157864 -3.4634 0
M  V30 13160 C 1248.22 -0.829527 -4.21209 0
M  V30 13161 C 1247.46 -0.17316 -5.33419 0
M  V30 13162 O 1247.68 1.03549 -5.60922 0
M  V30 13163 O 1246.61 -0.872385 -5.95544 0
M  V30 13164 H 1250.44 -1.40633 -2.69177 0
M  V30 13165 H 1248.02 -0.749395 -1.29246 0
M  V30 13166 H 1249.91 0.544394 -4.17869 0
M  V30 13167 H 1248.58 1.00764 -3.07617 0
M  V30 13168 H 1247.49 -1.26678 -3.51999 0
M  V30 13169 H 1248.82 -1.64815 -4.63785 0
M  V30 13170 N 1250.47 1.3842 -0.753509 0
M  V30 13171 C 1251.42 2.32315 -0.115107 0
M  V30 13172 C 1252.41 1.54015 0.705398 0
M  V30 13173 O 1253.62 1.69546 0.604505 0
M  V30 13174 H 1250 0.751774 -0.0184276 0
M  V30 13175 H 1251.97 2.83763 -0.923094 0
M  V30 13176 C 1250.72 3.39206 0.763849 0
M  V30 13177 H 1250.04 3.99548 0.14187 0
M  V30 13178 H 1251.48 4.07312 1.17783 0
M  V30 13179 C 1249.94 2.77771 1.90643 0
M  V30 13180 O 1250.47 2.67073 3.00058 0
M  V30 13181 N 1248.67 2.35582 1.70145 0
M  V30 13182 H 1248.22 2.44483 0.811528 0
M  V30 13183 H 1248.18 1.9482 2.46764 0
M  V30 13184 N 1251.95 0.502579 1.49372 0
M  V30 13185 C 1252.9 -0.275004 2.29156 0
M  V30 13186 C 1253.87 -0.95892 1.35624 0
M  V30 13187 O 1255.05 -0.965276 1.64581 0
M  V30 13188 C 1252.19 -1.33255 3.18335 0
M  V30 13189 C 1251.31 -0.660248 4.26925 0
M  V30 13190 C 1250.44 -1.69837 5.03318 0
M  V30 13191 C 1249.48 -1.00802 6.03743 0
M  V30 13192 N 1248.62 -1.99042 6.73295 0
M  V30 13193 H 1253.46 0.411599 2.95144 0
M  V30 13194 H 1250.99 0.214824 1.45523 0
M  V30 13195 H 1252.95 -1.95769 3.68416 0
M  V30 13196 H 1251.58 -1.98789 2.54328 0
M  V30 13197 H 1250.63 0.0782181 3.8032 0
M  V30 13198 H 1251.95 -0.11689 4.98663 0
M  V30 13199 H 1251.1 -2.39852 5.57275 0
M  V30 13200 H 1249.84 -2.27558 4.31357 0
M  V30 13201 H 1248.84 -0.293654 5.49015 0
M  V30 13202 H 1250.07 -0.437285 6.77691 0
M  V30 13203 H 1248.01 -2.55722 6.04104 0
M  V30 13204 H 1247.93 -1.49776 7.41015 0
M  V30 13205 H 1249.2 -2.6834 7.31856 0
M  V30 13206 N 1253.43 -1.55816 0.23648 0
M  V30 13207 C 1254.34 -2.24576 -0.678439 0
M  V30 13208 C 1255.35 -1.25836 -1.20172 0
M  V30 13209 O 1256.53 -1.58686 -1.24019 0
M  V30 13210 C 1253.6 -2.92376 -1.86325 0
M  V30 13211 C 1252.66 -4.06499 -1.38047 0
M  V30 13212 C 1251.89 -4.71057 -2.50881 0
M  V30 13213 O 1252.11 -4.34652 -3.69369 0
M  V30 13214 O 1251.05 -5.59768 -2.21232 0
M  V30 13215 H 1254.87 -3.03452 -0.122601 0
M  V30 13216 H 1252.46 -1.49399 0.00540803 0
M  V30 13217 H 1254.34 -3.35117 -2.55488 0
M  V30 13218 H 1253.01 -2.16448 -2.40691 0
M  V30 13219 H 1251.92 -3.68296 -0.656422 0
M  V30 13220 H 1253.25 -4.84214 -0.883024 0
M  V30 13221 N 1254.91 0.036755 -1.57557 0
M  V30 13222 C 1255.87 1.02435 -2.05036 0
M  V30 13223 C 1256.87 1.29506 -0.953146 0
M  V30 13224 O 1258.06 1.24638 -1.217 0
M  V30 13225 C 1255.19 2.3592 -2.46079 0
M  V30 13226 H 1256.38 0.614384 -2.93539 0
M  V30 13227 H 1253.94 0.283396 -1.53709 0
M  V30 13228 H 1254.67 2.8168 -1.60708 0
M  V30 13229 H 1254.46 2.17603 -3.26177 0
M  V30 13230 H 1255.95 3.06839 -2.83266 0
M  V30 13231 N 1256.39 1.54543 0.308881 0
M  V30 13232 C 1257.33 1.84949 1.38067 0
M  V30 13233 C 1258.3 0.697746 1.50734 0
M  V30 13234 O 1259.49 0.94561 1.65719 0
M  V30 13235 C 1256.63 2.09544 2.74199 0
M  V30 13236 C 1255.74 3.37193 2.70046 0
M  V30 13237 C 1254.88 3.51672 3.98121 0
M  V30 13238 C 1253.91 4.73143 3.88333 0
M  V30 13239 N 1253.05 4.84469 5.08167 0
M  V30 13240 H 1257.89 2.76379 1.11438 0
M  V30 13241 H 1255.43 1.36863 0.539153 0
M  V30 13242 H 1257.39 2.21798 3.53358 0
M  V30 13243 H 1256.02 1.21389 2.99106 0
M  V30 13244 H 1255.07 3.33601 1.82796 0
M  V30 13245 H 1256.38 4.26468 2.58701 0
M  V30 13246 H 1255.53 3.63548 4.85714 0
M  V30 13247 H 1254.27 2.60516 4.1229 0
M  V30 13248 H 1253.28 4.61308 2.99124 0
M  V30 13249 H 1254.5 5.65698 3.75716 0
M  V30 13250 H 1252.45 3.96234 5.22814 0
M  V30 13251 H 1252.37 5.67733 4.99215 0
M  V30 13252 H 1253.63 5.00693 5.97434 0
M  V30 13253 N 1257.86 -0.571685 1.46866 0
M  V30 13254 C 1259.11 -1.32685 1.52444 0
M  V30 13255 C 1259.43 -1.94147 0.182225 0
M  V30 13256 O 1258.7 -1.79159 -0.792385 0
M  V30 13257 H 1257.28 -0.492679 0.561495 0
M  V30 13258 H 1259.94 -0.668694 1.8307 0
M  V30 13259 H 1259.04 -2.12788 2.28315 0
M  V30 13260 N 1259.34 -1.34755 -0.817236 0
M  V30 13261 C 1260.25 -1.28888 -1.96023 0
M  V30 13262 C 1261.27 -0.195582 -1.72897 0
M  V30 13263 O 1262.44 -0.423071 -1.96906 0
M  V30 13264 C 1259.51 -1.04985 -3.30423 0
M  V30 13265 C 1258.57 -2.23526 -3.66517 0
M  V30 13266 C 1257.8 -2.00753 -4.94504 0
M  V30 13267 O 1258.03 -0.968622 -5.62116 0
M  V30 13268 O 1256.96 -2.87848 -5.28608 0
M  V30 13269 H 1260.79 -2.25059 -2.03917 0
M  V30 13270 H 1258.37 -1.15019 -0.953467 0
M  V30 13271 H 1260.25 -0.934589 -4.10906 0
M  V30 13272 H 1258.93 -0.118582 -3.23483 0
M  V30 13273 H 1257.83 -2.40613 -2.86455 0
M  V30 13274 H 1259.17 -3.15062 -3.78149 0
M  V30 13275 N 1260.82 1.03812 -1.18578 0
M  V30 13276 C 1261.75 2.13802 -0.938665 0
M  V30 13277 C 1262.73 1.69643 0.124575 0
M  V30 13278 O 1263.92 1.94179 -0.0285421 0
M  V30 13279 C 1261.05 3.44154 -0.466392 0
M  V30 13280 C 1260 4.01949 -1.47041 0
M  V30 13281 C 1259.33 5.27811 -0.855558 0
M  V30 13282 C 1260.63 4.37827 -2.84789 0
M  V30 13283 H 1262.32 2.34732 -1.85852 0
M  V30 13284 H 1259.87 1.12808 -0.895007 0
M  V30 13285 H 1261.82 4.20463 -0.280856 0
M  V30 13286 H 1260.54 3.22918 0.489041 0
M  V30 13287 H 1259.2 3.27725 -1.64293 0
M  V30 13288 H 1258.85 5.02886 0.107142 0
M  V30 13289 H 1258.55 5.67441 -1.52592 0
M  V30 13290 H 1260.07 6.06795 -0.680609 0
M  V30 13291 H 1261.49 5.05112 -2.71173 0
M  V30 13292 H 1259.88 4.88514 -3.48532 0
M  V30 13293 H 1260.95 3.47541 -3.38147 0
M  V30 13294 N 1262.3 0.988223 1.22768 0
M  V30 13295 C 1263.54 0.661461 1.91392 0
M  V30 13296 C 1263.87 -0.805942 1.77016 0
M  V30 13297 O 1263.13 -1.5978 1.12999 0
M  V30 13298 C 1263.43 1.00744 3.42907 0
M  V30 13299 C 1263.09 2.46634 3.77469 0
M  V30 13300 C 1261.75 2.86503 3.86613 0
M  V30 13301 C 1264.11 3.41217 3.9398 0
M  V30 13302 C 1261.43 4.19954 4.09702 0
M  V30 13303 C 1263.79 4.74321 4.18572 0
M  V30 13304 C 1262.45 5.13938 4.25939 0
M  V30 13305 H 1261.72 0.242046 0.700353 0
M  V30 13306 H 1264.37 1.24354 1.45631 0
M  V30 13307 H 1262.67 0.34338 3.90292 0
M  V30 13308 H 1264.37 0.732714 3.94249 0
M  V30 13309 H 1260.96 2.14729 3.70931 0
M  V30 13310 H 1265.14 3.11589 3.86298 0
M  V30 13311 H 1260.4 4.50243 4.13631 0
M  V30 13312 H 1264.57 5.47561 4.30291 0
M  V30 13313 H 1262.2 6.17364 4.43583 0
M  V30 13314 N 1263.78 -1.38018 0.760839 0
M  V30 13315 C 1265.02 -2.0071 0.329695 0
M  V30 13316 C 1265.38 -1.59315 -1.07872 0
M  V30 13317 O 1264.67 -0.824077 -1.72973 0
M  V30 13318 C 1264.86 -3.55168 0.398778 0
M  V30 13319 C 1264.69 -4.11562 1.81237 0
M  V30 13320 C 1263.46 -4.43003 2.43056 0
M  V30 13321 C 1265.66 -4.3332 2.77018 0
M  V30 13322 N 1263.64 -4.85048 3.76301 0
M  V30 13323 C 1265.01 -4.77853 3.9504 0
M  V30 13324 C 1267.07 -4.15432 2.74446 0
M  V30 13325 C 1265.77 -5.06373 5.10861 0
M  V30 13326 C 1267.8 -4.45081 3.89431 0
M  V30 13327 C 1267.16 -4.89845 5.06193 0
M  V30 13328 H 1263.26 -0.76386 0.167457 0
M  V30 13329 H 1265.84 -1.67513 0.992343 0
M  V30 13330 H 1264.01 -3.87697 -0.233635 0
M  V30 13331 H 1265.75 -4.04665 -0.0533765 0
M  V30 13332 H 1262.5 -4.317 1.94762 0
M  V30 13333 H 1262.92 -5.10394 4.44778 0
M  V30 13334 H 1267.57 -3.80006 1.85353 0
M  V30 13335 H 1265.28 -5.40693 6.00564 0
M  V30 13336 H 1268.87 -4.32839 3.88769 0
M  V30 13337 H 1267.75 -5.12348 5.93691 0
M  V30 13338 N 1265.25 -0.510493 -1.49103 0
M  V30 13339 C 1266.53 0.0941122 -1.95373 0
M  V30 13340 C 1266.91 1.53207 -1.45227 0
M  V30 13341 O 1266.26 2.18452 -0.670161 0
M  V30 13342 C 1266.47 -0.00302507 -3.49 0
M  V30 13343 C 1267.82 0.166117 -4.24275 0
M  V30 13344 O 1268.84 0.0717097 -3.56128 0
M  V30 13345 O 1267.7 0.361155 -5.45305 0
M  V30 13346 H 1264.79 0.0900741 -0.82208 0
M  V30 13347 H 1267.34 -0.573707 -1.59708 0
M  V30 13348 H 1266.11 -1.00545 -3.78162 0
M  V30 13349 H 1265.73 0.704518 -3.91308 0
M  V30 13350 N 1266.73 1.55688 -0.24474 0
M  V30 13351 C 1267.68 2.22682 0.67198 0
M  V30 13352 C 1268.67 1.21369 1.18178 0
M  V30 13353 O 1269.88 1.39387 1.13892 0
M  V30 13354 H 1266.25 0.714279 0.235181 0
M  V30 13355 H 1268.23 2.98282 0.0837704 0
M  V30 13356 C 1266.97 2.93835 1.85893 0
M  V30 13357 H 1266.3 3.71565 1.4758 0
M  V30 13358 H 1267.74 3.44077 2.47764 0
M  V30 13359 C 1266.2 1.97589 2.72874 0
M  V30 13360 O 1266.73 1.50758 3.72337 0
M  V30 13361 N 1264.93 1.64737 2.39395 0
M  V30 13362 H 1264.48 2.03015 1.58564 0
M  V30 13363 H 1264.44 1.00605 2.97869 0
M  V30 13364 N 1268.21 -0.0283989 1.57574 0
M  V30 13365 C 1269.46 -0.717656 1.88929 0
M  V30 13366 C 1269.78 -1.7586 0.842517 0
M  V30 13367 O 1269.05 -1.95509 -0.123774 0
M  V30 13368 H 1267.63 -0.268051 0.69725 0
M  V30 13369 H 1270.29 0.00580691 1.94899 0
M  V30 13370 H 1269.39 -1.2068 2.87824 0
M  V30 13371 N 1269.69 -1.54705 -0.300681 0
M  V30 13372 C 1270.6 -1.88736 -1.39341 0
M  V30 13373 C 1271.61 -0.78155 -1.5546 0
M  V30 13374 O 1272.79 -1.07804 -1.70118 0
M  V30 13375 C 1269.85 -2.12795 -2.73713 0
M  V30 13376 C 1268.92 -3.36504 -2.66577 0
M  V30 13377 C 1268.15 -3.59407 -3.94541 0
M  V30 13378 O 1268.37 -2.85315 -4.93914 0
M  V30 13379 O 1267.31 -4.52923 -3.96415 0
M  V30 13380 H 1271.13 -2.817 -1.13484 0
M  V30 13381 H 1268.72 -1.40899 -0.496771 0
M  V30 13382 H 1270.6 -2.29819 -3.53215 0
M  V30 13383 H 1269.27 -1.23017 -2.99414 0
M  V30 13384 H 1268.18 -3.24844 -1.85546 0
M  V30 13385 H 1269.51 -4.26414 -2.45829 0
M  V30 13386 N 1271.17 0.563888 -1.47167 0
M  V30 13387 C 1272.39 1.34693 -1.57052 0
M  V30 13388 C 1272.81 1.87534 -0.218308 0
M  V30 13389 O 1272.17 1.64639 0.787416 0
M  V30 13390 C 1272.22 2.52148 -2.59044 0
M  V30 13391 O 1271.94 2.01492 -3.89015 0
M  V30 13392 C 1273.44 3.4445 -2.7905 0
M  V30 13393 H 1270.66 0.410822 -0.530534 0
M  V30 13394 H 1273.2 0.683731 -1.92731 0
M  V30 13395 H 1271.36 3.14419 -2.26317 0
M  V30 13396 H 1271.77 2.78122 -4.44689 0
M  V30 13397 H 1273.25 4.23297 -3.54293 0
M  V30 13398 H 1273.72 3.97575 -1.86631 0
M  V30 13399 H 1274.33 2.88 -3.12948 0
M  V30 13400 N 1272.64 1.35187 0.810078 0
M  V30 13401 C 1273.59 1.27822 1.92173 0
M  V30 13402 C 1274.56 0.150851 1.65414 0
M  V30 13403 O 1275.75 0.333973 1.87854 0
M  V30 13404 C 1272.89 1.05258 3.28656 0
M  V30 13405 C 1272 2.26884 3.67624 0
M  V30 13406 C 1271.13 1.97499 4.9312 0
M  V30 13407 C 1270.17 3.15198 5.24706 0
M  V30 13408 N 1269.31 2.85612 6.41381 0
M  V30 13409 H 1274.15 2.22884 1.97804 0
M  V30 13410 H 1271.69 1.10799 0.967577 0
M  V30 13411 H 1273.65 0.902084 4.07331 0
M  V30 13412 H 1272.28 0.138583 3.22502 0
M  V30 13413 H 1271.33 2.5281 2.84238 0
M  V30 13414 H 1272.64 3.14783 3.86928 0
M  V30 13415 H 1271.79 1.7926 5.79613 0
M  V30 13416 H 1270.53 1.0688 4.75844 0
M  V30 13417 H 1269.54 3.34019 4.36705 0
M  V30 13418 H 1270.76 4.06614 5.43913 0
M  V30 13419 H 1268.71 1.97583 6.25537 0
M  V30 13420 H 1268.63 3.67044 6.60919 0
M  V30 13421 H 1269.89 2.70906 7.3091 0
M  V30 13422 N 1274.12 -1.03182 1.19127 0
M  V30 13423 C 1275.4 -1.73586 0.901507 0
M  V30 13424 C 1275.78 -2.02585 -0.593521 0
M  V30 13425 O 1275.13 -1.67813 -1.55084 0
M  V30 13426 C 1275.34 -3.01472 1.75829 0
M  V30 13427 C 1276.69 -3.75037 1.99078 0
M  V30 13428 O 1277.71 -3.11392 1.72956 0
M  V30 13429 O 1276.57 -4.8945 2.43108 0
M  V30 13430 H 1273.66 -0.755797 0.335708 0
M  V30 13431 H 1276.21 -1.09167 1.29925 0
M  V30 13432 H 1274.98 -2.76247 2.77134 0
M  V30 13433 H 1274.6 -3.73631 1.35963 0
M  V30 13434 N 1275.6 -0.99472 -1.22242 0
M  V30 13435 C 1276.83 -0.690097 -1.95052 0
M  V30 13436 C 1277.24 0.745543 -1.73456 0
M  V30 13437 O 1276.6 1.50329 -1.03477 0
M  V30 13438 C 1276.65 -0.988798 -3.47714 0
M  V30 13439 O 1276.37 -2.36803 -3.68587 0
M  V30 13440 C 1277.87 -0.702132 -4.37704 0
M  V30 13441 H 1275.09 -0.255142 -0.620599 0
M  V30 13442 H 1277.64 -1.32998 -1.55344 0
M  V30 13443 H 1275.79 -0.394684 -3.85384 0
M  V30 13444 H 1276.21 -2.4687 -4.62769 0
M  V30 13445 H 1277.68 -0.961389 -5.43564 0
M  V30 13446 H 1278.16 0.363866 -4.3769 0
M  V30 13447 H 1278.76 -1.27738 -4.05664 0
M  V30 13448 N 1277.08 1.37613 -0.768148 0
M  V30 13449 C 1278.32 2.00075 -0.331331 0
M  V30 13450 C 1278.66 1.60839 1.08833 0
M  V30 13451 O 1277.93 0.852849 1.74805 0
M  V30 13452 C 1278.22 3.57009 -0.470789 0
M  V30 13453 C 1278.07 4.06166 -1.9326 0
M  V30 13454 C 1279.39 4.39916 0.127111 0
M  V30 13455 H 1276.51 0.726855 -0.121864 0
M  V30 13456 H 1279.15 1.63343 -0.970518 0
M  V30 13457 H 1277.3 3.88431 0.0733688 0
M  V30 13458 H 1278.97 3.85325 -2.53618 0
M  V30 13459 H 1277.21 3.58492 -2.44266 0
M  V30 13460 H 1277.88 5.15219 -1.98125 0
M  V30 13461 H 1280.36 4.14732 -0.337144 0
M  V30 13462 H 1279.24 5.489 -0.000624226 0
M  V30 13463 H 1279.5 4.25018 1.21704 0
M  V30 13464 N 1278.56 0.518393 1.4883 0
M  V30 13465 C 1279.52 -0.23983 2.27942 0
M  V30 13466 C 1280.52 -0.878302 1.34694 0
M  V30 13467 O 1281.71 -0.740142 1.57694 0
M  V30 13468 C 1278.84 -1.34581 3.1321 0
M  V30 13469 H 1280.03 0.454599 2.96434 0
M  V30 13470 H 1277.59 0.273932 1.53881 0
M  V30 13471 H 1278.32 -2.07385 2.49323 0
M  V30 13472 H 1278.11 -0.893251 3.8179 0
M  V30 13473 H 1279.6 -1.87944 3.72917 0
M  V30 13474 N 1280.03 -1.55556 0.252993 0
M  V30 13475 C 1280.98 -2.23035 -0.660161 0
M  V30 13476 C 1281.98 -1.21994 -1.17532 0
M  V30 13477 O 1283.18 -1.39989 -1.13151 0
M  V30 13478 H 1279.56 -0.715516 -0.23139 0
M  V30 13479 H 1281.53 -2.98323 -0.0679506 0
M  V30 13480 C 1280.28 -2.94817 -1.84332 0
M  V30 13481 H 1279.6 -3.72342 -1.45607 0
M  V30 13482 H 1281.04 -3.45386 -2.45936 0
M  V30 13483 C 1279.5 -1.99033 -2.71822 0
M  V30 13484 O 1280.03 -1.5273 -3.71533 0
M  V30 13485 N 1278.24 -1.66004 -2.38518 0
M  V30 13486 H 1277.78 -2.03853 -1.57485 0
M  V30 13487 H 1277.74 -1.02183 -2.97331 0
M  V30 13488 N 1281.51 0.0200419 -1.57587 0
M  V30 13489 C 1282.46 1.01784 -2.07144 0
M  V30 13490 C 1283.43 1.3537 -0.962501 0
M  V30 13491 O 1284.61 1.45553 -1.23365 0
M  V30 13492 C 1281.75 2.31091 -2.56302 0
M  V30 13493 C 1280.87 2.03584 -3.81022 0
M  V30 13494 C 1280 3.26827 -4.18757 0
M  V30 13495 C 1279.04 2.94915 -5.36369 0
M  V30 13496 N 1278.18 4.10636 -5.69493 0
M  V30 13497 H 1283.02 0.588288 -2.92136 0
M  V30 13498 H 1280.56 0.278848 -1.44433 0
M  V30 13499 H 1282.51 3.06656 -2.82874 0
M  V30 13500 H 1281.14 2.71752 -1.74215 0
M  V30 13501 H 1280.2 1.18475 -3.6148 0
M  V30 13502 H 1281.51 1.76049 -4.66699 0
M  V30 13503 H 1280.66 4.10753 -4.46505 0
M  V30 13504 H 1279.4 3.57483 -3.31749 0
M  V30 13505 H 1278.41 2.09392 -5.08365 0
M  V30 13506 H 1279.63 2.65528 -6.25037 0
M  V30 13507 H 1277.58 4.41226 -4.85444 0
M  V30 13508 H 1277.49 3.86556 -6.497 0
M  V30 13509 H 1278.76 4.95409 -6.01822 0
M  V30 13510 N 1282.99 1.54862 0.292472 0
M  V30 13511 C 1284.24 1.74807 1.02813 0
M  V30 13512 C 1284.57 0.536935 1.8663 0
M  V30 13513 O 1283.84 -0.465854 1.88839 0
M  V30 13514 C 1284.13 3.04202 1.927 0
M  V30 13515 C 1283.98 4.35631 1.12006 0
M  V30 13516 C 1285.3 3.29514 2.91734 0
M  V30 13517 H 1282.42 0.636015 0.372362 0
M  V30 13518 H 1285.06 1.87583 0.302069 0
M  V30 13519 H 1283.21 2.9344 2.54608 0
M  V30 13520 H 1284.88 4.58323 0.52319 0
M  V30 13521 H 1283.13 4.31733 0.42298 0
M  V30 13522 H 1283.8 5.22454 1.78172 0
M  V30 13523 H 1286.27 3.39941 2.39957 0
M  V30 13524 H 1285.15 4.21352 3.51786 0
M  V30 13525 H 1285.41 2.48216 3.65843 0
M  V30 13526 N 1284.47 -0.556076 1.47464 0
M  V30 13527 C 1285.7 -1.33664 1.57536 0
M  V30 13528 C 1286.11 -1.87858 0.224977 0
M  V30 13529 O 1285.45 -1.65746 -0.792091 0
M  V30 13530 C 1285.51 -2.54257 2.54152 0
M  V30 13531 C 1285.18 -2.21342 3.99821 0
M  V30 13532 C 1286.17 -1.78568 4.88272 0
M  V30 13533 C 1283.86 -2.32666 4.45165 0
M  V30 13534 C 1285.85 -1.47549 6.20087 0
M  V30 13535 C 1283.54 -2.0126 5.77008 0
M  V30 13536 C 1284.54 -1.58769 6.6429 0
M  V30 13537 O 1284.22 -1.27762 7.93683 0
M  V30 13538 H 1283.96 -0.413721 0.534613 0
M  V30 13539 H 1286.51 -0.680342 1.93805 0
M  V30 13540 H 1284.74 -3.22782 2.12952 0
M  V30 13541 H 1286.43 -3.16332 2.5434 0
M  V30 13542 H 1287.2 -1.69311 4.54487 0
M  V30 13543 H 1283.07 -2.64698 3.77433 0
M  V30 13544 H 1286.62 -1.1431 6.88171 0
M  V30 13545 H 1282.52 -2.10149 6.10334 0
M  V30 13546 H 1283.28 -1.41383 8.06197 0
M  V30 13547 N 1285.95 -1.35615 -0.802897 0
M  V30 13548 C 1286.88 -1.31506 -1.92947 0
M  V30 13549 C 1287.86 -0.188843 -1.69048 0
M  V30 13550 O 1289.04 -0.384384 -1.90358 0
M  V30 13551 C 1286.17 -1.09001 -3.29752 0
M  V30 13552 C 1285.13 -2.18303 -3.68141 0
M  V30 13553 C 1284.45 -1.80959 -5.03148 0
M  V30 13554 C 1285.75 -3.60296 -3.78132 0
M  V30 13555 H 1287.45 -2.25771 -1.96642 0
M  V30 13556 H 1284.99 -1.08682 -0.944685 0
M  V30 13557 H 1286.95 -1.04766 -4.08169 0
M  V30 13558 H 1285.67 -0.111832 -3.26408 0
M  V30 13559 H 1284.33 -2.21642 -2.92011 0
M  V30 13560 H 1283.98 -0.817495 -4.96312 0
M  V30 13561 H 1283.68 -2.54129 -5.29804 0
M  V30 13562 H 1285.2 -1.78255 -5.84001 0
M  V30 13563 H 1286.62 -3.59259 -4.46773 0
M  V30 13564 H 1285.01 -4.32258 -4.16261 0
M  V30 13565 H 1286.08 -3.9618 -2.79588 0
M  V30 13566 N 1287.43 1.02549 -1.19673 0
M  V30 13567 C 1288.36 2.12794 -0.961289 0
M  V30 13568 C 1289.34 1.69766 0.106575 0
M  V30 13569 O 1290.52 1.94138 -0.0491358 0
M  V30 13570 C 1287.65 3.4364 -0.502868 0
M  V30 13571 C 1286.61 4.00367 -1.51296 0
M  V30 13572 C 1285.93 5.26874 -0.911491 0
M  V30 13573 C 1287.23 4.34782 -2.89416 0
M  V30 13574 H 1288.93 2.32748 -1.88331 0
M  V30 13575 H 1286.47 1.11852 -0.906922 0
M  V30 13576 H 1288.42 4.20141 -0.325436 0
M  V30 13577 H 1287.15 3.23418 0.454764 0
M  V30 13578 H 1285.81 3.25964 -1.67759 0
M  V30 13579 H 1285.46 5.02971 0.0537982 0
M  V30 13580 H 1285.16 5.65791 -1.58602 0
M  V30 13581 H 1286.68 6.06039 -0.74493 0
M  V30 13582 H 1288.09 5.02207 -2.76516 0
M  V30 13583 H 1286.49 4.8479 -3.53693 0
M  V30 13584 H 1287.56 3.43935 -3.41814 0
M  V30 13585 N 1288.9 1.00119 1.21713 0
M  V30 13586 C 1290.14 0.690044 1.924 0
M  V30 13587 C 1290.51 -0.764695 1.76115 0
M  V30 13588 O 1291.71 -1.18764 2.4114 0
M  V30 13589 C 1289.98 1.09491 3.40215 0
M  V30 13590 S 1291.54 0.903392 4.294 0
M  V30 13591 H 1288.36 0.252037 0.66483 0
M  V30 13592 H 1290.96 1.28521 1.47318 0
M  V30 13593 H 1289.66 2.14987 3.49584 0
M  V30 13594 H 1289.19 0.491878 3.90313 0
M  V30 13595 H 1291.21 -0.201597 4.9579 0
M  V30 13596 N 1290.38 -1.37203 0.775435 0
M  V30 13597 C 1291.29 -2.34019 0.165062 0
M  V30 13598 C 1292.31 -1.6036 -0.675316 0
M  V30 13599 O 1293.48 -1.9243 -0.594375 0
M  V30 13600 C 1290.55 -3.3954 -0.700957 0
M  V30 13601 C 1289.61 -4.29015 0.156304 0
M  V30 13602 C 1288.84 -5.29497 -0.668476 0
M  V30 13603 O 1289.07 -5.37636 -1.90535 0
M  V30 13604 O 1288 -6.01852 -0.0757351 0
M  V30 13605 H 1291.83 -2.87955 0.965184 0
M  V30 13606 H 1289.41 -1.39429 0.536654 0
M  V30 13607 H 1291.29 -4.04094 -1.19524 0
M  V30 13608 H 1289.97 -2.87926 -1.4792 0
M  V30 13609 H 1288.87 -3.67549 0.69703 0
M  V30 13610 H 1290.21 -4.83944 0.897725 0
M  V30 13611 N 1291.86 -0.526279 -1.48553 0
M  V30 13612 C 1293.11 0.0091665 -2.02498 0
M  V30 13613 C 1293.43 1.34632 -1.40373 0
M  V30 13614 O 1292.69 1.88172 -0.537573 0
M  V30 13615 C 1292.99 0.184075 -3.56926 0
M  V30 13616 C 1292.65 -1.07825 -4.37818 0
M  V30 13617 C 1291.32 -1.42422 -4.59641 0
M  V30 13618 C 1293.67 -1.91616 -4.84699 0
M  V30 13619 C 1291 -2.60713 -5.25591 0
M  V30 13620 C 1293.35 -3.09082 -5.51952 0
M  V30 13621 C 1292.01 -3.44029 -5.72014 0
M  V30 13622 H 1291.28 0.00335426 -0.740992 0
M  V30 13623 H 1293.93 -0.691553 -1.78577 0
M  V30 13624 H 1292.23 0.967532 -3.79666 0
M  V30 13625 H 1293.93 0.613226 -3.96283 0
M  V30 13626 H 1290.52 -0.798812 -4.2109 0
M  V30 13627 H 1294.71 -1.66199 -4.67645 0
M  V30 13628 H 1289.96 -2.87996 -5.39322 0
M  V30 13629 H 1294.14 -3.74317 -5.87247 0
M  V30 13630 H 1291.76 -4.35789 -6.2289 0
M  V30 13631 N 1293.34 1.5542 -0.261239 0
M  V30 13632 C 1294.56 2.04142 0.366144 0
M  V30 13633 C 1294.99 1.13884 1.49706 0
M  V30 13634 O 1294.35 0.134629 1.80799 0
M  V30 13635 C 1294.39 3.50733 0.837774 0
M  V30 13636 O 1293.5 3.63588 1.94621 0
M  V30 13637 H 1292.84 0.659424 0.077821 0
M  V30 13638 H 1295.37 2.0082 -0.391487 0
M  V30 13639 H 1295.38 3.91831 1.13721 0
M  V30 13640 H 1294.05 4.15899 0.0102742 0
M  V30 13641 H 1292.63 3.34391 1.65037 0
M  V30 13642 N 1294.82 -0.0116844 1.57596 0
M  V30 13643 C 1296.06 -0.699994 1.90336 0
M  V30 13644 C 1296.39 -1.74067 0.861072 0
M  V30 13645 O 1295.67 -1.94119 -0.121712 0
M  V30 13646 C 1295.95 -1.35377 3.33684 0
M  V30 13647 C 1295.81 -0.325434 4.48621 0
M  V30 13648 C 1297.12 -2.28312 3.76247 0
M  V30 13649 H 1294.24 -0.253002 0.692213 0
M  V30 13650 H 1296.89 0.037211 1.89964 0
M  V30 13651 H 1295.04 -1.98212 3.34132 0
M  V30 13652 H 1296.71 0.302331 4.60308 0
M  V30 13653 H 1294.95 0.353527 4.32357 0
M  V30 13654 H 1295.62 -0.8217 5.4585 0
M  V30 13655 H 1298.1 -1.75505 3.77276 0
M  V30 13656 H 1296.97 -2.71028 4.77321 0
M  V30 13657 H 1297.23 -3.15727 3.09465 0
M  V30 13658 N 1296.29 -1.55015 -0.284256 0
M  V30 13659 C 1297.52 -1.79102 -1.03586 0
M  V30 13660 C 1297.94 -0.558733 -1.80343 0
M  V30 13661 O 1297.29 0.471925 -1.76293 0
M  V30 13662 C 1297.34 -3.00915 -2.0033 0
M  V30 13663 O 1297.07 -4.19384 -1.26685 0
M  V30 13664 C 1298.57 -3.3752 -2.87394 0
M  V30 13665 H 1295.79 -0.596912 -0.306491 0
M  V30 13666 H 1298.33 -2.02005 -0.31845 0
M  V30 13667 H 1296.49 -2.80171 -2.67549 0
M  V30 13668 H 1296.9 -4.88175 -1.91796 0
M  V30 13669 H 1298.37 -4.25953 -3.51095 0
M  V30 13670 H 1298.85 -2.56418 -3.56576 0
M  V30 13671 H 1299.46 -3.60483 -2.25682 0
M  V30 13672 N 1297.77 0.548248 -1.47757 0
M  V30 13673 C 1298.7 1.66999 -1.56984 0
M  V30 13674 C 1299.72 1.56302 -0.455372 0
M  V30 13675 O 1300.91 1.63096 -0.725399 0
M  V30 13676 C 1298.01 3.0553 -1.46645 0
M  V30 13677 C 1297.18 3.41892 -2.72816 0
M  V30 13678 C 1296.24 4.59624 -2.56187 0
M  V30 13679 O 1295.26 4.63757 -3.30028 0
M  V30 13680 N 1296.47 5.56675 -1.64601 0
M  V30 13681 H 1299.23 1.59527 -2.53715 0
M  V30 13682 H 1296.79 0.735101 -1.44249 0
M  V30 13683 H 1298.78 3.82137 -1.33242 0
M  V30 13684 H 1297.35 3.0718 -0.57961 0
M  V30 13685 H 1296.57 2.54644 -3.00916 0
M  V30 13686 H 1297.86 3.62965 -3.56559 0
M  V30 13687 H 1297.26 5.561 -1.03778 0
M  V30 13688 H 1295.82 6.32573 -1.57146 0
M  V30 13689 N 1299.25 1.36039 0.795694 0
M  V30 13690 C 1300.2 1.29902 1.92946 0
M  V30 13691 C 1301.19 0.191943 1.68309 0
M  V30 13692 O 1302.4 0.358577 1.76392 0
M  V30 13693 H 1298.77 0.404252 0.634101 0
M  V30 13694 H 1300.74 2.25663 1.95241 0
M  V30 13695 C 1299.49 1.09887 3.29879 0
M  V30 13696 H 1298.82 1.94318 3.494 0
M  V30 13697 H 1300.26 1.09638 4.0958 0
M  V30 13698 C 1298.71 -0.196802 3.36325 0
M  V30 13699 O 1299.24 -1.18883 3.83705 0
M  V30 13700 N 1297.45 -0.239325 2.89613 0
M  V30 13701 H 1297 0.568571 2.51247 0
M  V30 13702 H 1296.96 -1.10593 2.94307 0
M  V30 13703 N 1300.73 -1.01913 1.20215 0
M  V30 13704 C 1302.14 -1.27766 0.956459 0
M  V30 13705 C 1302.34 -1.98158 -0.365486 0
M  V30 13706 O 1301.4 -2.27539 -1.09463 0
M  V30 13707 C 1302.71 -2.11516 2.13732 0
M  V30 13708 C 1304.26 -2.24792 2.17802 0
M  V30 13709 C 1304.74 -3.11919 3.35367 0
M  V30 13710 N 1306.23 -3.19507 3.35364 0
M  V30 13711 C 1306.96 -3.8714 4.22978 0
M  V30 13712 N 1306.46 -4.5692 5.20765 0
M  V30 13713 N 1308.25 -3.83638 4.10827 0
M  V30 13714 H 1300.4 -0.546426 2.05251 0
M  V30 13715 H 1302.67 -0.303772 0.898012 0
M  V30 13716 H 1302.37 -1.67127 3.09453 0
M  V30 13717 H 1302.25 -3.12249 2.11614 0
M  V30 13718 H 1304.63 -2.68407 1.22645 0
M  V30 13719 H 1304.71 -1.23576 2.2397 0
M  V30 13720 H 1304.36 -2.6901 4.30809 0
M  V30 13721 H 1304.29 -4.13215 3.26436 0
M  V30 13722 H 1306.78 -2.69819 2.64587 0
M  V30 13723 H 1307.09 -5.06188 5.83947 0
M  V30 13724 H 1305.44 -4.55753 5.24704 0
M  V30 13725 H 1308.63 -3.28268 3.33703 0
M  V30 13726 H 1308.8 -4.36071 4.79318 0
M  V30 13727 N 1302.21 -1.00763 -1.2118 0
M  V30 13728 C 1303.14 -0.590493 -2.2591 0
M  V30 13729 C 1304.12 0.390002 -1.65569 0
M  V30 13730 O 1305.3 0.277406 -1.92208 0
M  V30 13731 C 1302.43 0.0810388 -3.47205 0
M  V30 13732 C 1301.39 -0.81951 -4.20081 0
M  V30 13733 C 1300.71 -0.014244 -5.34698 0
M  V30 13734 C 1302.01 -2.12336 -4.7719 0
M  V30 13735 H 1303.71 -1.46595 -2.61056 0
M  V30 13736 H 1301.25 -0.706321 -1.25487 0
M  V30 13737 H 1303.21 0.384355 -4.19644 0
M  V30 13738 H 1301.93 0.991145 -3.11197 0
M  V30 13739 H 1300.59 -1.10669 -3.49497 0
M  V30 13740 H 1300.24 0.897233 -4.94933 0
M  V30 13741 H 1299.94 -0.613883 -5.84384 0
M  V30 13742 H 1301.46 0.282827 -6.09945 0
M  V30 13743 H 1302.87 -1.88301 -5.41494 0
M  V30 13744 H 1301.27 -2.67308 -5.37277 0
M  V30 13745 H 1302.34 -2.79238 -3.96427 0
M  V30 13746 N 1303.68 1.3679 -0.7827 0
M  V30 13747 C 1304.59 2.33928 -0.17747 0
M  V30 13748 C 1305.61 1.60716 0.666802 0
M  V30 13749 O 1306.79 1.92742 0.584162 0
M  V30 13750 C 1303.85 3.39907 0.68294 0
M  V30 13751 C 1302.91 4.28926 -0.179053 0
M  V30 13752 C 1302.15 5.29844 0.640386 0
M  V30 13753 O 1302.37 5.38639 1.87681 0
M  V30 13754 O 1301.3 6.01884 0.0438164 0
M  V30 13755 H 1305.13 2.87439 -0.980441 0
M  V30 13756 H 1302.71 1.39142 -0.54404 0
M  V30 13757 H 1304.6 4.04722 1.17379 0
M  V30 13758 H 1303.27 2.88706 1.46391 0
M  V30 13759 H 1302.18 3.67174 -0.716512 0
M  V30 13760 H 1303.51 4.83461 -0.923377 0
M  V30 13761 N 1305.16 0.53415 1.48272 0
M  V30 13762 C 1306.41 0.00157492 2.028 0
M  V30 13763 C 1306.74 -1.33538 1.41001 0
M  V30 13764 O 1306.02 -1.86347 0.557245 0
M  V30 13765 C 1306.3 -0.116016 3.59913 0
M  V30 13766 C 1306.15 1.2464 4.32186 0
M  V30 13767 C 1307.47 -0.840775 4.31994 0
M  V30 13768 H 1304.59 0.00204634 0.736997 0
M  V30 13769 H 1307.23 0.691985 1.76951 0
M  V30 13770 H 1305.38 -0.704027 3.82068 0
M  V30 13771 H 1307.05 1.87584 4.21438 0
M  V30 13772 H 1305.3 1.8272 3.93441 0
M  V30 13773 H 1305.97 1.11708 5.40579 0
M  V30 13774 H 1308.44 -0.341746 4.14694 0
M  V30 13775 H 1307.32 -0.89196 5.41604 0
M  V30 13776 H 1307.58 -1.89197 3.99571 0
M  V30 13777 N 1306.64 -1.55279 0.269478 0
M  V30 13778 C 1307.59 -2.23723 -0.636468 0
M  V30 13779 C 1308.58 -1.23234 -1.16232 0
M  V30 13780 O 1309.79 -1.41181 -1.1166 0
M  V30 13781 H 1306.16 -0.71793 -0.223788 0
M  V30 13782 H 1308.13 -2.98378 -0.0363057 0
M  V30 13783 C 1306.88 -2.96755 -1.81195 0
M  V30 13784 H 1306.21 -3.73865 -1.4165 0
M  V30 13785 H 1307.65 -3.47975 -2.42258 0
M  V30 13786 C 1306.11 -2.01905 -2.69696 0
M  V30 13787 O 1306.64 -1.56662 -3.69892 0
M  V30 13788 N 1304.84 -1.68524 -2.36744 0
M  V30 13789 H 1304.39 -2.05512 -1.55314 0
M  V30 13790 H 1304.35 -1.05331 -2.96231 0
M  V30 13791 N 1308.12 0.00332656 -1.576 0
M  V30 13792 C 1309.37 0.688044 -1.89602 0
M  V30 13793 C 1309.68 1.75121 -0.871316 0
M  V30 13794 O 1310.89 2.49032 -1.08144 0
M  V30 13795 C 1309.34 1.27494 -3.36561 0
M  V30 13796 C 1308.95 0.246771 -4.4732 0
M  V30 13797 C 1310.69 1.93804 -3.77677 0
M  V30 13798 C 1308.6 0.843471 -5.85354 0
M  V30 13799 H 1307.53 0.260747 -0.707479 0
M  V30 13800 H 1310.18 -0.0566727 -1.83412 0
M  V30 13801 H 1308.56 2.07022 -3.37577 0
M  V30 13802 H 1309.74 -0.523668 -4.57815 0
M  V30 13803 H 1308.05 -0.3157 -4.15202 0
M  V30 13804 H 1310.65 2.39347 -4.78139 0
M  V30 13805 H 1310.99 2.7672 -3.11017 0
M  V30 13806 H 1311.53 1.21015 -3.78946 0
M  V30 13807 H 1308.27 0.0531655 -6.55478 0
M  V30 13808 H 1307.79 1.58315 -5.7853 0
M  V30 13809 H 1309.46 1.34311 -6.32906 0
M  V30 13810 N 1309.6 1.55164 0.276031 0
M  V30 13811 C 1310.82 1.7998 1.03063 0
M  V30 13812 C 1311.25 0.569769 1.79263 0
M  V30 13813 O 1310.6 -0.48054 1.74816 0
M  V30 13814 C 1310.65 3.02209 1.96728 0
M  V30 13815 O 1309.76 2.77083 3.05449 0
M  V30 13816 H 1309.1 0.594963 0.294814 0
M  V30 13817 H 1311.63 2.02301 0.305861 0
M  V30 13818 H 1311.64 3.3086 2.38738 0
M  V30 13819 H 1310.31 3.91386 1.40677 0
M  V30 13820 H 1308.89 2.5952 2.67776 0
M  V30 13821 N 1311.07 -0.540404 1.48045 0
M  V30 13822 C 1312.01 -1.66164 1.57867 0
M  V30 13823 C 1313.02 -1.56058 0.463655 0
M  V30 13824 O 1314.21 -1.62709 0.734038 0
M  V30 13825 C 1311.31 -3.04748 1.48263 0
M  V30 13826 C 1310.48 -3.40441 2.74625 0
M  V30 13827 C 1309.54 -4.58259 2.58621 0
M  V30 13828 O 1308.57 -4.62 3.32482 0
M  V30 13829 N 1309.77 -5.55794 1.67551 0
M  V30 13830 H 1312.53 -1.58179 2.54557 0
M  V30 13831 H 1310.09 -0.727441 1.44637 0
M  V30 13832 H 1312.09 -3.81425 1.35267 0
M  V30 13833 H 1310.66 -3.06868 0.595892 0
M  V30 13834 H 1309.88 -2.53044 3.02262 0
M  V30 13835 H 1311.16 -3.61069 3.58478 0
M  V30 13836 H 1310.56 -5.55541 1.06725 0
M  V30 13837 H 1309.12 -6.3173 1.60499 0
M  V30 13838 N 1312.55 -1.36459 -0.788468 0
M  V30 13839 C 1313.78 -1.34063 -1.58246 0
M  V30 13840 C 1314.2 0.0754933 -1.87948 0
M  V30 13841 O 1313.56 1.04772 -1.47961 0
M  V30 13842 C 1313.61 -2.17038 -2.8797 0
M  V30 13843 O 1312.71 -1.56353 -3.81612 0
M  V30 13844 H 1312.05 -0.458816 -0.479983 0
M  V30 13845 H 1314.58 -1.79755 -0.977207 0
M  V30 13846 H 1314.59 -2.29651 -3.3723 0
M  V30 13847 H 1313.27 -3.19981 -2.65678 0
M  V30 13848 H 1311.85 -1.52685 -3.40208 0
M  V30 13849 N 1314.03 1.01274 -1.20754 0
M  V30 13850 C 1315.26 1.78524 -1.04579 0
M  V30 13851 C 1315.67 1.84409 0.404809 0
M  V30 13852 O 1315.03 1.29987 1.281 0
M  V30 13853 C 1315.08 3.22806 -1.62722 0
M  V30 13854 O 1314.8 3.17276 -3.02106 0
M  V30 13855 C 1316.3 4.16589 -1.51553 0
M  V30 13856 H 1313.52 0.561299 -0.367674 0
M  V30 13857 H 1316.07 1.27454 -1.59924 0
M  V30 13858 H 1314.22 3.71011 -1.11487 0
M  V30 13859 H 1314.64 4.07866 -3.29766 0
M  V30 13860 H 1316.11 5.15654 -1.9699 0
M  V30 13861 H 1316.59 4.36692 -0.468659 0
M  V30 13862 H 1317.19 3.74269 -2.01998 0
M  V30 13863 N 1315.51 1.01404 1.20644 0
M  V30 13864 C 1316.74 0.719995 1.93648 0
M  V30 13865 C 1317.15 -0.722872 1.74846 0
M  V30 13866 O 1316.49 -1.50172 1.05802 0
M  V30 13867 C 1316.55 0.972637 3.46092 0
M  V30 13868 C 1316.22 2.40412 3.88653 0
M  V30 13869 C 1317.21 3.38481 3.94622 0
M  V30 13870 C 1314.9 2.74418 4.20714 0
M  V30 13871 C 1316.89 4.68619 4.32059 0
M  V30 13872 C 1314.58 4.04769 4.57826 0
M  V30 13873 C 1315.58 5.01681 4.63471 0
M  V30 13874 O 1315.27 6.297 4.99733 0
M  V30 13875 H 1315 0.263849 0.622382 0
M  V30 13876 H 1317.55 1.35741 1.54154 0
M  V30 13877 H 1315.78 0.278057 3.85699 0
M  V30 13878 H 1317.47 0.670572 4.00323 0
M  V30 13879 H 1318.24 3.13545 3.7002 0
M  V30 13880 H 1314.12 1.99675 4.15513 0
M  V30 13881 H 1317.66 5.4426 4.3638 0
M  V30 13882 H 1313.56 4.29486 4.81884 0
M  V30 13883 H 1314.32 6.3395 5.17735 0
M  V30 13884 N 1316.99 -1.36373 0.789944 0
M  V30 13885 C 1317.93 -2.30043 0.186798 0
M  V30 13886 C 1318.9 -1.52002 -0.669663 0
M  V30 13887 O 1320.09 -1.80506 -0.618232 0
M  V30 13888 C 1317.23 -3.38494 -0.671994 0
M  V30 13889 C 1316.34 -4.31522 0.203067 0
M  V30 13890 C 1315.48 -5.27057 -0.662148 0
M  V30 13891 C 1314.52 -6.11725 0.214335 0
M  V30 13892 N 1313.65 -6.99446 -0.609892 0
M  V30 13893 H 1318.49 -2.81038 0.991048 0
M  V30 13894 H 1316.03 -1.38331 0.500288 0
M  V30 13895 H 1317.99 -4.0002 -1.1849 0
M  V30 13896 H 1316.62 -2.88818 -1.44167 0
M  V30 13897 H 1315.67 -3.71146 0.833945 0
M  V30 13898 H 1316.98 -4.91005 0.878389 0
M  V30 13899 H 1316.14 -5.93875 -1.24084 0
M  V30 13900 H 1314.88 -4.6803 -1.37109 0
M  V30 13901 H 1313.88 -5.43868 0.805426 0
M  V30 13902 H 1315.11 -6.72827 0.92089 0
M  V30 13903 H 1313.05 -6.42927 -1.30312 0
M  V30 13904 H 1312.97 -7.56 0.00773786 0
M  V30 13905 H 1314.24 -7.70633 -1.1724 0
M  V30 13906 N 1318.47 -0.542005 -1.47987 0
M  V30 13907 C 1319.74 0.0526494 -1.95529 0
M  V30 13908 C 1320.12 1.50092 -1.48444 0
M  V30 13909 O 1319.47 2.16981 -0.716347 0
M  V30 13910 C 1319.68 -0.0770524 -3.48915 0
M  V30 13911 C 1321.03 0.0760849 -4.24532 0
M  V30 13912 O 1322.05 -0.00384644 -3.562 0
M  V30 13913 O 1320.91 0.245406 -5.45949 0
M  V30 13914 H 1318.01 0.0726163 -0.823806 0
M  V30 13915 H 1320.55 -0.607454 -1.58455 0
M  V30 13916 H 1319.32 -1.08544 -3.75944 0
M  V30 13917 H 1318.95 0.621357 -3.92715 0
M  V30 13918 N 1319.94 1.55134 -0.277709 0
M  V30 13919 C 1321.35 1.85405 0.219543 0
M  V30 13920 C 1321.71 1.19973 1.55245 0
M  V30 13921 O 1320.83 0.488986 2.10803 0
M  V30 13922 C 1321.43 3.36369 0.405127 0
M  V30 13923 C 1319.98 3.66755 0.846609 0
M  V30 13924 C 1319.13 2.77238 -0.0586063 0
M  V30 13925 H 1322.08 1.50637 -0.499422 0
M  V30 13926 H 1322.1 3.59615 1.24329 0
M  V30 13927 H 1321.62 3.83963 -0.565138 0
M  V30 13928 H 1319.72 3.24662 1.82825 0
M  V30 13929 H 1319.83 4.74219 0.682135 0
M  V30 13930 H 1318.19 2.50546 0.458153 0
M  V30 13931 H 1318.98 3.27647 -1.0248 0
M  V30 13932 N 1321.42 0.00503138 1.57599 0
M  V30 13933 C 1322.37 -1.00294 2.09866 0
M  V30 13934 C 1323.36 -1.35267 1.01977 0
M  V30 13935 O 1324.57 -1.33772 1.20437 0
M  V30 13936 H 1320.94 -0.341112 0.670184 0
M  V30 13937 H 1322.92 -0.536595 2.93536 0
M  V30 13938 C 1321.66 -2.28432 2.62133 0
M  V30 13939 H 1320.99 -2.02391 3.44787 0
M  V30 13940 H 1322.43 -2.97227 3.02378 0
M  V30 13941 C 1320.89 -2.99758 1.53774 0
M  V30 13942 O 1321.42 -3.90939 0.923563 0
M  V30 13943 N 1319.62 -2.61671 1.26398 0
M  V30 13944 H 1319.17 -1.87605 1.76528 0
M  V30 13945 H 1319.13 -3.09707 0.541168 0
M  V30 13946 N 1322.9 -1.55308 -0.267798 0
M  V30 13947 C 1323.85 -1.89342 -1.35102 0
M  V30 13948 C 1324.84 -0.770277 -1.50874 0
M  V30 13949 O 1326.05 -0.954679 -1.52597 0
M  V30 13950 H 1322.42 -0.601036 -0.451952 0
M  V30 13951 H 1324.39 -2.7982 -1.03651 0
M  V30 13952 C 1323.14 -2.18644 -2.70352 0
M  V30 13953 H 1322.47 -3.04557 -2.59008 0
M  V30 13954 H 1323.91 -2.46374 -3.45073 0
M  V30 13955 C 1322.36 -0.995753 -3.21848 0
M  V30 13956 O 1322.89 -0.233037 -4.01023 0
M  V30 13957 N 1321.1 -0.792038 -2.79598 0
M  V30 13958 H 1320.65 -1.41396 -2.15325 0
M  V30 13959 H 1320.61 0.00300201 -3.144 0
M  V30 13960 N 1324.38 0.532545 -1.4833 0
M  V30 13961 C 1325.31 1.64662 -1.65555 0
M  V30 13962 C 1326.29 1.62447 -0.50447 0
M  V30 13963 O 1327.47 1.79684 -0.736712 0
M  V30 13964 C 1324.6 3.03256 -1.69272 0
M  V30 13965 C 1323.56 3.20329 -2.83854 0
M  V30 13966 C 1322.88 4.59958 -2.72659 0
M  V30 13967 C 1324.18 3.03345 -4.25181 0
M  V30 13968 H 1325.88 1.50502 -2.58823 0
M  V30 13969 H 1323.42 0.722612 -1.24556 0
M  V30 13970 H 1325.38 3.81064 -1.79911 0
M  V30 13971 H 1324.1 3.18433 -0.725805 0
M  V30 13972 H 1322.76 2.44937 -2.72766 0
M  V30 13973 H 1322.41 4.71967 -1.73942 0
M  V30 13974 H 1322.11 4.72327 -3.49544 0
M  V30 13975 H 1323.63 5.39869 -2.85262 0
M  V30 13976 H 1325.05 3.70948 -4.37116 0
M  V30 13977 H 1323.44 3.27208 -5.03045 0
M  V30 13978 H 1324.51 1.998 -4.41824 0
M  V30 13979 N 1325.86 1.36875 0.78122 0
M  V30 13980 C 1326.82 1.31706 1.8758 0
M  V30 13981 C 1327.82 0.223044 1.59246 0
M  V30 13982 O 1329.01 0.478327 1.67504 0
M  V30 13983 C 1326.14 1.0437 3.2453 0
M  V30 13984 H 1327.33 2.29059 1.93576 0
M  V30 13985 H 1324.89 1.21766 0.979931 0
M  V30 13986 H 1325.62 0.0750941 3.24213 0
M  V30 13987 H 1325.41 1.83548 3.46486 0
M  V30 13988 H 1326.9 1.0338 4.04602 0
M  V30 13989 N 1327.33 -1.00632 1.21289 0
M  V30 13990 C 1328.58 -1.74388 1.02932 0
M  V30 13991 C 1328.91 -1.8952 -0.437327 0
M  V30 13992 O 1328.16 -1.42551 -1.3408 0
M  V30 13993 C 1328.46 -3.1598 1.67007 0
M  V30 13994 C 1328.13 -3.208 3.16857 0
M  V30 13995 C 1326.79 -3.21823 3.57748 0
M  V30 13996 C 1329.14 -3.18147 4.12834 0
M  V30 13997 C 1326.47 -3.17877 4.93124 0
M  V30 13998 C 1328.82 -3.15743 5.48169 0
M  V30 13999 C 1327.49 -3.15074 5.88459 0
M  V30 14000 H 1326.76 -0.638133 0.376653 0
M  V30 14001 H 1329.4 -1.17953 1.50862 0
M  V30 14002 H 1327.71 -3.75639 1.11365 0
M  V30 14003 H 1329.41 -3.71764 1.50307 0
M  V30 14004 H 1326 -3.20746 2.84289 0
M  V30 14005 H 1330.18 -3.16519 3.82269 0
M  V30 14006 H 1325.44 -3.15696 5.2359 0
M  V30 14007 H 1329.61 -3.12644 6.22275 0
M  V30 14008 H 1327.24 -3.11771 6.93327 0
M  V30 14009 N 1328.81 -1.02043 -1.20104 0
M  V30 14010 C 1329.76 -0.587332 -2.25063 0
M  V30 14011 C 1330.75 0.375844 -1.65178 0
M  V30 14012 O 1331.96 0.245347 -1.7832 0
M  V30 14013 H 1328.33 -0.171637 -0.732151 0
M  V30 14014 H 1330.31 -1.48339 -2.58917 0
M  V30 14015 C 1329.05 0.0546893 -3.47657 0
M  V30 14016 H 1328.38 -0.677457 -3.94018 0
M  V30 14017 H 1329.82 0.320786 -4.22785 0
M  V30 14018 C 1328.28 1.29869 -3.10863 0
M  V30 14019 O 1328.81 2.39161 -3.22746 0
M  V30 14020 N 1327.01 1.18423 -2.65376 0
M  V30 14021 H 1326.56 0.294895 -2.55906 0
M  V30 14022 H 1326.52 2.01755 -2.41128 0
M  V30 14023 N 1330.29 1.35952 -0.797165 0
M  V30 14024 C 1331.2 2.33726 -0.202271 0
M  V30 14025 C 1332.22 1.61415 0.649719 0
M  V30 14026 O 1333.39 1.93351 0.563686 0
M  V30 14027 C 1330.46 3.40612 0.64685 0
M  V30 14028 C 1329.52 4.28712 -0.224536 0
M  V30 14029 C 1328.75 5.30493 0.584153 0
M  V30 14030 O 1328.97 5.40599 1.81957 0
M  V30 14031 O 1327.91 6.01897 -0.0200239 0
M  V30 14032 H 1331.73 2.86383 -1.01087 0
M  V30 14033 H 1329.32 1.38557 -0.558768 0
M  V30 14034 H 1331.2 4.05944 1.1308 0
M  V30 14035 H 1329.88 2.90243 1.43321 0
M  V30 14036 H 1328.78 3.66394 -0.755415 0
M  V30 14037 H 1330.12 4.82454 -0.974603 0
M  V30 14038 N 1331.77 0.549846 1.47697 0
M  V30 14039 C 1333.02 0.0209424 2.01689 0
M  V30 14040 C 1333.33 -1.33417 1.43036 0
M  V30 14041 O 1334.54 -1.95257 1.88646 0
M  V30 14042 C 1332.99 -0.0130171 3.59898 0
M  V30 14043 C 1332.6 1.3384 4.2754 0
M  V30 14044 C 1334.34 -0.489701 4.21666 0
M  V30 14045 C 1332.25 1.26395 5.77735 0
M  V30 14046 H 1331.18 0.00405885 0.753989 0
M  V30 14047 H 1333.83 0.696599 1.69764 0
M  V30 14048 H 1332.21 -0.754168 3.88752 0
M  V30 14049 H 1333.39 2.09668 4.10336 0
M  V30 14050 H 1331.7 1.75242 3.77729 0
M  V30 14051 H 1334.3 -0.563684 5.31721 0
M  V30 14052 H 1334.64 -1.50004 3.88336 0
M  V30 14053 H 1335.18 0.196366 3.97315 0
M  V30 14054 H 1331.92 2.25005 6.15673 0
M  V30 14055 H 1331.44 0.547353 5.97297 0
M  V30 14056 H 1333.11 0.962918 6.39794 0
M  V30 14057 N 1333.25 -1.54984 0.285932 0
M  V30 14058 C 1334.19 -2.2295 -0.596822 0
M  V30 14059 C 1335.16 -1.20674 -1.14136 0
M  V30 14060 O 1336.35 -1.49249 -1.18867 0
M  V30 14061 C 1333.49 -2.9625 -1.77002 0
M  V30 14062 C 1332.6 -4.13268 -1.25831 0
M  V30 14063 C 1331.74 -4.74187 -2.39417 0
M  V30 14064 C 1330.78 -5.83377 -1.85304 0
M  V30 14065 N 1329.91 -6.38313 -2.92405 0
M  V30 14066 H 1334.75 -2.97998 -0.0106104 0
M  V30 14067 H 1332.29 -1.47099 0.00653041 0
M  V30 14068 H 1334.25 -3.36971 -2.4598 0
M  V30 14069 H 1332.88 -2.23606 -2.3281 0
M  V30 14070 H 1331.93 -3.77593 -0.461278 0
M  V30 14071 H 1333.24 -4.91979 -0.822049 0
M  V30 14072 H 1332.4 -5.17683 -3.16369 0
M  V30 14073 H 1331.13 -3.94775 -2.86364 0
M  V30 14074 H 1330.14 -5.3932 -1.06835 0
M  V30 14075 H 1331.36 -6.64664 -1.3928 0
M  V30 14076 H 1329.31 -5.61791 -3.38713 0
M  V30 14077 H 1329.23 -7.12328 -2.53228 0
M  V30 14078 H 1330.5 -6.86468 -3.69299 0
M  V30 14079 N 1334.72 -0.0133892 -1.57594 0
M  V30 14080 C 1335.97 0.667896 -1.90321 0
M  V30 14081 C 1336.29 1.74187 -0.88984 0
M  V30 14082 O 1337.49 2.47871 -1.10779 0
M  V30 14083 C 1335.95 1.23917 -3.37894 0
M  V30 14084 C 1335.56 0.199313 -4.47556 0
M  V30 14085 C 1337.3 1.89788 -3.79712 0
M  V30 14086 C 1335.21 0.781339 -5.86216 0
M  V30 14087 H 1334.14 0.253229 -0.710205 0
M  V30 14088 H 1336.79 -0.0761229 -1.83342 0
M  V30 14089 H 1335.17 2.03429 -3.39754 0
M  V30 14090 H 1336.34 -0.572196 -4.57234 0
M  V30 14091 H 1334.66 -0.359719 -4.14843 0
M  V30 14092 H 1337.26 2.34262 -4.80651 0
M  V30 14093 H 1337.6 2.73406 -3.13934 0
M  V30 14094 H 1338.13 1.16989 -3.80208 0
M  V30 14095 H 1334.87 -0.0163598 -6.55498 0
M  V30 14096 H 1334.39 1.5217 -5.80176 0
M  V30 14097 H 1336.07 1.2759 -6.34295 0
M  V30 14098 N 1336.2 1.55448 0.259558 0
M  V30 14099 C 1337.13 1.9226 1.32508 0
M  V30 14100 C 1338.11 0.786012 1.5085 0
M  V30 14101 O 1339.3 1.04526 1.6367 0
M  V30 14102 C 1336.43 2.20627 2.68218 0
M  V30 14103 C 1335.38 3.36418 2.64589 0
M  V30 14104 C 1334.71 3.50295 4.03977 0
M  V30 14105 C 1336.01 4.72452 2.2268 0
M  V30 14106 H 1337.7 2.81509 1.01945 0
M  V30 14107 H 1335.25 1.35444 0.488965 0
M  V30 14108 H 1337.2 2.44968 3.42883 0
M  V30 14109 H 1335.93 1.28191 3.00391 0
M  V30 14110 H 1334.58 3.12065 1.92382 0
M  V30 14111 H 1334.23 2.55302 4.33394 0
M  V30 14112 H 1333.93 4.28155 4.02439 0
M  V30 14113 H 1335.46 3.76944 4.8036 0
M  V30 14114 H 1336.87 4.96249 2.87071 0
M  V30 14115 H 1335.27 5.53323 2.32279 0
M  V30 14116 H 1336.34 4.70367 1.17826 0
M  V30 14117 N 1337.68 -0.524672 1.4861 0
M  V30 14118 C 1338.93 -1.27768 1.56588 0
M  V30 14119 C 1339.25 -1.93469 0.243899 0
M  V30 14120 O 1338.52 -1.8159 -0.734985 0
M  V30 14121 H 1337.1 -0.474566 0.576885 0
M  V30 14122 H 1339.76 -0.610114 1.85104 0
M  V30 14123 H 1338.86 -2.05416 2.34969 0
M  V30 14124 N 1339.16 -1.37287 -0.77395 0
M  V30 14125 C 1340.39 -1.35563 -1.56302 0
M  V30 14126 C 1340.8 0.0595356 -1.88706 0
M  V30 14127 O 1340.16 1.02072 -1.51286 0
M  V30 14128 C 1340.21 -2.19195 -2.87464 0
M  V30 14129 O 1339.93 -3.55197 -2.5645 0
M  V30 14130 C 1341.43 -2.25425 -3.81704 0
M  V30 14131 H 1338.65 -0.464431 -0.484298 0
M  V30 14132 H 1341.2 -1.80597 -0.959425 0
M  V30 14133 H 1339.35 -1.77676 -3.44253 0
M  V30 14134 H 1339.76 -3.99011 -3.40427 0
M  V30 14135 H 1341.24 -2.8827 -4.70749 0
M  V30 14136 H 1341.72 -1.26205 -4.20677 0
M  V30 14137 H 1342.32 -2.67247 -3.30846 0
M  V30 14138 N 1340.64 0.999871 -1.21821 0
M  V30 14139 C 1341.55 2.12303 -0.99823 0
M  V30 14140 C 1342.56 1.73924 0.0512923 0
M  V30 14141 O 1343.74 2.00914 -0.139895 0
M  V30 14142 C 1340.8 3.41962 -0.571232 0
M  V30 14143 C 1339.86 3.94483 -1.69356 0
M  V30 14144 C 1339.1 5.17954 -1.28685 0
M  V30 14145 O 1339.32 5.70168 -0.162641 0
M  V30 14146 O 1338.25 5.64051 -2.10071 0
M  V30 14147 H 1342.08 2.3374 -1.93905 0
M  V30 14148 H 1339.67 1.10677 -1.00354 0
M  V30 14149 H 1341.55 4.20001 -0.343134 0
M  V30 14150 H 1340.22 3.21901 0.340814 0
M  V30 14151 H 1339.13 3.17648 -1.97612 0
M  V30 14152 H 1340.46 4.18964 -2.58322 0
M  V30 14153 N 1342.11 1.02678 1.19562 0
M  V30 14154 C 1343.02 0.615738 2.26375 0
M  V30 14155 C 1344.04 -0.351525 1.70412 0
M  V30 14156 O 1345.22 -0.209932 2.00303 0
M  V30 14157 C 1342.28 -0.0292135 3.46688 0
M  V30 14158 C 1341.34 0.985284 4.1784 0
M  V30 14159 C 1340.58 0.371016 5.32409 0
M  V30 14160 O 1340.8 -0.826591 5.64379 0
M  V30 14161 O 1339.73 1.09282 5.91896 0
M  V30 14162 H 1343.56 1.50526 2.63772 0
M  V30 14163 H 1341.14 0.796847 1.26375 0
M  V30 14164 H 1343.03 -0.38893 4.19601 0
M  V30 14165 H 1341.7 -0.892778 3.11145 0
M  V30 14166 H 1340.61 1.39655 3.47055 0
M  V30 14167 H 1341.94 1.81915 4.57349 0
M  V30 14168 N 1343.59 -1.35528 0.804364 0
M  V30 14169 C 1345 -1.81321 0.444933 0
M  V30 14170 C 1345.35 -1.66816 -1.03281 0
M  V30 14171 O 1344.48 -1.19753 -1.80245 0
M  V30 14172 C 1345.07 -3.29199 0.800827 0
M  V30 14173 C 1343.63 -3.73144 0.494026 0
M  V30 14174 C 1342.78 -2.57557 1.02761 0
M  V30 14175 H 1345.73 -1.23537 0.996203 0
M  V30 14176 H 1345.75 -3.80375 0.0975117 0
M  V30 14177 H 1345.26 -3.39725 1.8764 0
M  V30 14178 H 1343.37 -3.68169 -0.572901 0
M  V30 14179 H 1343.48 -4.68005 1.0251 0
M  V30 14180 H 1341.84 -2.50692 0.450048 0
M  V30 14181 H 1342.63 -2.70861 2.10925 0
M  V30 14182 N 1345.07 -0.557671 -1.47404 0
M  V30 14183 C 1346.3 -0.0366797 -2.07368 0
M  V30 14184 C 1346.72 1.2478 -1.40754 0
M  V30 14185 O 1346.08 1.74757 -0.48268 0
M  V30 14186 C 1346.13 0.141728 -3.60321 0
M  V30 14187 O 1345.23 1.20419 -3.94427 0
M  V30 14188 H 1344.57 -0.0515319 -0.661997 0
M  V30 14189 H 1347.1 -0.773485 -1.89416 0
M  V30 14190 H 1347.11 0.355787 -4.06446 0
M  V30 14191 H 1345.79 -0.796433 -4.08203 0
M  V30 14192 H 1344.36 0.970589 -3.60047 0
M  V30 14193 N 1346.55 1.54831 -0.294147 0
M  V30 14194 C 1347.5 2.24707 0.600795 0
M  V30 14195 C 1348.49 1.25067 1.14257 0
M  V30 14196 O 1349.7 1.42939 1.094 0
M  V30 14197 H 1346.07 0.721399 0.212338 0
M  V30 14198 H 1348.04 2.98398 -0.0111682 0
M  V30 14199 C 1346.79 2.996 1.76451 0
M  V30 14200 H 1346.12 3.76072 1.35684 0
M  V30 14201 H 1347.56 3.51785 2.36692 0
M  V30 14202 C 1346.01 2.0617 2.6645 0
M  V30 14203 O 1346.54 1.62527 3.67353 0
M  V30 14204 N 1344.75 1.7227 2.34033 0
M  V30 14205 H 1344.3 2.07957 1.52025 0
M  V30 14206 H 1344.26 1.10031 2.94518 0
M  V30 14207 N 1348.03 0.0217466 1.57585 0
M  V30 14208 C 1349.27 -0.659463 1.91778 0
M  V30 14209 C 1349.61 -1.72201 0.897801 0
M  V30 14210 O 1348.88 -1.94333 -0.080509 0
M  V30 14211 C 1349.16 -1.28269 3.36481 0
M  V30 14212 C 1349.02 -0.230201 4.49211 0
M  V30 14213 C 1350.34 -2.20279 3.81005 0
M  V30 14214 H 1347.46 -0.238263 0.697424 0
M  V30 14215 H 1350.1 0.0774967 1.89842 0
M  V30 14216 H 1348.25 -1.9108 3.38262 0
M  V30 14217 H 1349.92 0.399901 4.59563 0
M  V30 14218 H 1348.16 0.445157 4.3151 0
M  V30 14219 H 1348.83 -0.705732 5.4747 0
M  V30 14220 H 1351.31 -1.67463 3.80914 0
M  V30 14221 H 1350.19 -2.60842 4.82962 0
M  V30 14222 H 1350.45 -3.09092 3.16093 0
M  V30 14223 N 1349.51 -1.55583 -0.251311 0
M  V30 14224 C 1350.73 -1.81259 -0.997636 0
M  V30 14225 C 1351.15 -0.596861 -1.79117 0
M  V30 14226 O 1350.51 0.434425 -1.77254 0
M  V30 14227 C 1350.56 -3.05097 -1.93902 0
M  V30 14228 O 1350.28 -4.21976 -1.1776 0
M  V30 14229 C 1351.78 -3.4354 -2.8017 0
M  V30 14230 H 1349 -0.603279 -0.29376 0
M  V30 14231 H 1351.54 -2.02635 -0.27553 0
M  V30 14232 H 1349.7 -2.85784 -2.61546 0
M  V30 14233 H 1350.11 -4.92133 -1.81398 0
M  V30 14234 H 1351.59 -4.33305 -3.41981 0
M  V30 14235 H 1352.06 -2.63924 -3.51057 0
M  V30 14236 H 1352.67 -3.65189 -2.17985 0
M  V30 14237 N 1350.98 0.516783 -1.48886 0
M  V30 14238 C 1352.23 1.27375 -1.57808 0
M  V30 14239 C 1352.56 1.92492 -0.256963 0
M  V30 14240 O 1351.84 1.79947 0.738193 0
M  V30 14241 C 1352.12 2.35295 -2.72595 0
M  V30 14242 C 1351.97 1.74783 -4.14453 0
M  V30 14243 C 1353.29 3.36973 -2.83085 0
M  V30 14244 H 1350.41 0.46175 -0.574418 0
M  V30 14245 H 1353.05 0.57434 -1.81111 0
M  V30 14246 H 1351.2 2.94951 -2.52857 0
M  V30 14247 H 1352.88 1.19076 -4.45666 0
M  V30 14248 H 1351.12 1.05258 -4.20836 0
M  V30 14249 H 1351.79 2.52985 -4.90615 0
M  V30 14250 H 1354.27 2.87289 -3.01005 0
M  V30 14251 H 1353.14 4.09864 -3.65106 0
M  V30 14252 H 1353.4 3.98336 -1.91784 0
M  V30 14253 N 1352.46 1.37696 0.766659 0
M  V30 14254 C 1353.41 1.33871 1.88009 0
M  V30 14255 C 1354.38 0.2034 1.6485 0
M  V30 14256 O 1355.56 0.393569 1.86697 0
M  V30 14257 C 1352.7 1.1566 3.25141 0
M  V30 14258 C 1351.82 2.38465 3.6022 0
M  V30 14259 C 1350.95 2.13087 4.86587 0
M  V30 14260 C 1349.99 3.31732 5.14413 0
M  V30 14261 N 1349.13 3.05872 6.3197 0
M  V30 14262 H 1353.97 2.29065 1.90613 0
M  V30 14263 H 1351.5 1.13821 0.931837 0
M  V30 14264 H 1353.46 1.03122 4.04255 0
M  V30 14265 H 1352.09 0.241115 3.21898 0
M  V30 14266 H 1351.14 2.61725 2.76051 0
M  V30 14267 H 1352.46 3.26933 3.76718 0
M  V30 14268 H 1351.61 1.97609 5.73616 0
M  V30 14269 H 1350.35 1.21965 4.72203 0
M  V30 14270 H 1349.35 3.47743 4.25858 0
M  V30 14271 H 1350.58 4.23712 5.30702 0
M  V30 14272 H 1348.53 2.17384 6.18935 0
M  V30 14273 H 1348.44 3.87885 6.48908 0
M  V30 14274 H 1349.71 2.94023 7.21922 0
M  V30 14275 N 1353.94 -0.993397 1.22349 0
M  V30 14276 C 1354.89 -2.06784 0.960445 0
M  V30 14277 C 1355.87 -1.60655 -0.0887385 0
M  V30 14278 O 1357.07 -1.76581 0.121716 0
M  V30 14279 C 1354.19 -3.39034 0.539552 0
M  V30 14280 C 1353.28 -3.91798 1.62344 0
M  V30 14281 N 1353.67 -4.17791 2.85104 0
M  V30 14282 C 1351.97 -4.20197 1.49501 0
M  V30 14283 C 1352.67 -4.6067 3.55187 0
M  V30 14284 N 1351.65 -4.64333 2.82658 0
M  V30 14285 H 1355.45 -2.24821 1.89295 0
M  V30 14286 H 1352.96 -1.17509 1.12095 0
M  V30 14287 H 1354.96 -4.15573 0.332419 0
M  V30 14288 H 1353.62 -3.22397 -0.38606 0
M  V30 14289 H 1354.63 -4.05999 3.21536 0
M  V30 14290 H 1351.31 -4.12634 0.635546 0
M  V30 14291 H 1352.7 -4.89408 4.60358 0
M  V30 14292 N 1355.42 -1.03311 -1.19015 0
M  V30 14293 C 1356.37 -0.611169 -2.24427 0
M  V30 14294 C 1357.36 0.358303 -1.65567 0
M  V30 14295 O 1358.57 0.22642 -1.7857 0
M  V30 14296 H 1354.94 -0.179393 -0.730289 0
M  V30 14297 H 1356.91 -1.51077 -2.57329 0
M  V30 14298 C 1355.66 0.0178126 -3.47695 0
M  V30 14299 H 1354.98 -0.71921 -3.93278 0
M  V30 14300 H 1356.42 0.275926 -4.23101 0
M  V30 14301 C 1354.88 1.26564 -3.12223 0
M  V30 14302 O 1355.41 2.35725 -3.25264 0
M  V30 14303 N 1353.62 1.15602 -2.66617 0
M  V30 14304 H 1353.17 0.267736 -2.56205 0
M  V30 14305 H 1353.12 1.99186 -2.43254 0
M  V30 14306 N 1356.9 1.35099 -0.81154 0
M  V30 14307 C 1358.14 1.98233 -0.393453 0
M  V30 14308 C 1358.46 1.64688 1.04417 0
M  V30 14309 O 1357.73 0.931845 1.72318 0
M  V30 14310 H 1356.31 0.733283 -0.142496 0
M  V30 14311 H 1358.98 1.6493 -1.03847 0
M  V30 14312 H 1358.07 3.08017 -0.503188 0
M  V30 14313 N 1358.37 0.56548 1.47106 0
M  V30 14314 C 1359.62 0.0445914 2.02751 0
M  V30 14315 C 1359.95 -1.30517 1.43801 0
M  V30 14316 O 1359.23 -1.85123 0.596646 0
M  V30 14317 C 1359.51 -0.0396474 3.60078 0
M  V30 14318 C 1359.36 1.3378 4.29445 0
M  V30 14319 C 1360.68 -0.748954 4.3368 0
M  V30 14320 H 1357.8 0.0176787 0.736788 0
M  V30 14321 H 1360.44 0.729363 1.75443 0
M  V30 14322 H 1358.59 -0.622826 3.83475 0
M  V30 14323 H 1360.27 1.96482 4.17364 0
M  V30 14324 H 1358.51 1.91024 3.89477 0
M  V30 14325 H 1359.18 1.23149 5.38088 0
M  V30 14326 H 1361.66 -0.253707 4.15326 0
M  V30 14327 H 1360.53 -0.776877 5.43374 0
M  V30 14328 H 1360.79 -1.80679 4.03494 0
M  V30 14329 N 1359.85 -1.54672 0.302354 0
M  V30 14330 C 1361.26 -1.85731 -0.190019 0
M  V30 14331 C 1361.61 -1.22427 -1.53317 0
M  V30 14332 O 1360.74 -0.522461 -2.09998 0
M  V30 14333 C 1361.33 -3.36971 -0.351562 0
M  V30 14334 C 1359.89 -3.68056 -0.788155 0
M  V30 14335 C 1359.04 -2.7711 0.102705 0
M  V30 14336 H 1361.99 -1.49823 0.523324 0
M  V30 14337 H 1362.01 -3.61547 -1.18592 0
M  V30 14338 H 1361.52 -3.83016 0.626152 0
M  V30 14339 H 1359.63 -3.2753 -1.77637 0
M  V30 14340 H 1359.74 -4.75244 -0.606604 0
M  V30 14341 H 1358.1 -2.51243 -0.418235 0
M  V30 14342 H 1358.89 -3.25975 1.0768 0
M  V30 14343 N 1361.33 -0.0301034 -1.57571 0
M  V30 14344 C 1362.56 0.662045 -1.9655 0
M  V30 14345 C 1362.98 1.64811 -0.906581 0
M  V30 14346 O 1362.34 1.80816 0.132415 0
M  V30 14347 C 1362.39 1.34389 -3.34622 0
M  V30 14348 O 1361.49 2.45919 -3.31056 0
M  V30 14349 H 1360.83 0.173842 -0.640839 0
M  V30 14350 H 1363.36 -0.092248 -2.04392 0
M  V30 14351 H 1363.37 1.70045 -3.70875 0
M  V30 14352 H 1362.05 0.621092 -4.11236 0
M  V30 14353 H 1360.62 2.12367 -3.06521 0
M  V30 14354 N 1362.81 1.55714 0.243056 0
M  V30 14355 C 1363.74 1.87093 1.32396 0
M  V30 14356 C 1364.75 0.757482 1.44104 0
M  V30 14357 O 1365.94 1.03563 1.45386 0
M  V30 14358 C 1363.04 2.04546 2.70212 0
M  V30 14359 C 1362.22 3.3543 2.80723 0
M  V30 14360 C 1361.27 3.42578 3.99408 0
M  V30 14361 O 1360.3 4.15762 3.88755 0
M  V30 14362 N 1361.5 2.7215 5.12752 0
M  V30 14363 H 1364.27 2.80399 1.05813 0
M  V30 14364 H 1361.83 1.55998 0.433151 0
M  V30 14365 H 1363.82 2.06665 3.47954 0
M  V30 14366 H 1362.39 1.17966 2.89487 0
M  V30 14367 H 1361.61 3.45594 1.89626 0
M  V30 14368 H 1362.9 4.21692 2.84698 0
M  V30 14369 H 1362.3 2.1243 5.24299 0
M  V30 14370 H 1360.85 2.79957 5.88615 0
M  V30 14371 N 1364.29 -0.50888 1.49158 0
M  V30 14372 C 1365.51 -1.28771 1.61943 0
M  V30 14373 C 1365.93 -1.86594 0.287759 0
M  V30 14374 O 1365.29 -1.67448 -0.725769 0
M  V30 14375 C 1365.34 -2.4236 2.68224 0
M  V30 14376 O 1365.06 -1.86915 3.96225 0
M  V30 14377 C 1366.56 -3.33856 2.91642 0
M  V30 14378 H 1363.78 -0.390849 0.545416 0
M  V30 14379 H 1366.32 -0.611729 1.95136 0
M  V30 14380 H 1364.48 -3.05803 2.37831 0
M  V30 14381 H 1364.89 -2.61426 4.54705 0
M  V30 14382 H 1366.37 -4.09856 3.69759 0
M  V30 14383 H 1366.84 -3.90374 2.01258 0
M  V30 14384 H 1367.45 -2.76187 3.23421 0
M  V30 14385 N 1365.76 -1.381 -0.759346 0
M  V30 14386 C 1366.99 -1.37389 -1.55367 0
M  V30 14387 C 1367.41 0.0356097 -1.88066 0
M  V30 14388 O 1366.77 1.0161 -1.5015 0
M  V30 14389 C 1366.82 -2.23098 -2.83302 0
M  V30 14390 O 1365.92 -1.64412 -3.7821 0
M  V30 14391 H 1365.27 -0.468894 -0.470143 0
M  V30 14392 H 1367.8 -1.81787 -0.938858 0
M  V30 14393 H 1367.81 -2.36753 -3.32283 0
M  V30 14394 H 1366.48 -3.25544 -2.58831 0
M  V30 14395 H 1365.06 -1.59867 -3.36893 0
M  V30 14396 N 1367.24 0.986894 -1.22875 0
M  V30 14397 C 1368.65 1.54182 -1.05284 0
M  V30 14398 C 1369 1.92448 0.381856 0
M  V30 14399 O 1368.13 1.75381 1.26769 0
M  V30 14400 C 1368.72 2.80173 -1.90496 0
M  V30 14401 C 1367.28 3.32088 -1.77185 0
M  V30 14402 C 1366.43 2.05128 -1.86596 0
M  V30 14403 H 1369.38 0.807304 -1.36632 0
M  V30 14404 H 1369.4 3.52772 -1.42591 0
M  V30 14405 H 1368.91 2.52291 -2.94908 0
M  V30 14406 H 1367.02 3.64864 -0.755295 0
M  V30 14407 H 1367.13 4.02285 -2.60199 0
M  V30 14408 H 1365.49 2.18964 -1.30103 0
M  V30 14409 H 1366.28 1.79635 -2.92551 0
M  V30 14410 N 1368.72 1.0394 1.18466 0
M  V30 14411 C 1369.95 0.762014 1.92356 0
M  V30 14412 C 1370.36 -0.680652 1.76104 0
M  V30 14413 O 1369.72 -1.46385 1.08985 0
M  V30 14414 C 1369.77 1.11717 3.43805 0
M  V30 14415 O 1369.49 2.50319 3.59544 0
M  V30 14416 C 1370.99 0.864099 4.34797 0
M  V30 14417 H 1368.21 0.277999 0.610702 0
M  V30 14418 H 1370.76 1.38672 1.503 0
M  V30 14419 H 1368.91 0.537445 3.83654 0
M  V30 14420 H 1369.33 2.63875 4.53288 0
M  V30 14421 H 1370.8 1.16247 5.39621 0
M  V30 14422 H 1371.28 -0.20117 4.38739 0
M  V30 14423 H 1371.88 1.42706 4.00643 0
M  V30 14424 N 1370.2 -1.34667 0.818693 0
M  V30 14425 C 1371.44 -1.98708 0.405359 0
M  V30 14426 C 1371.78 -1.64767 -1.02788 0
M  V30 14427 O 1371.05 -0.91714 -1.71519 0
M  V30 14428 C 1371.34 -3.55016 0.602966 0
M  V30 14429 C 1371.19 -3.98713 2.08201 0
M  V30 14430 C 1372.51 -4.40085 0.0362489 0
M  V30 14431 H 1369.63 -0.721831 0.148756 0
M  V30 14432 H 1372.27 -1.59628 1.03047 0
M  V30 14433 H 1370.42 -3.88435 0.0708453 0
M  V30 14434 H 1372.09 -3.75647 2.67745 0
M  V30 14435 H 1370.33 -3.49179 2.57403 0
M  V30 14436 H 1371 -5.0751 2.17111 0
M  V30 14437 H 1373.48 -4.13195 0.490837 0
M  V30 14438 H 1372.36 -5.4852 0.204344 0
M  V30 14439 H 1372.62 -4.29243 -1.05845 0
M  V30 14440 N 1371.68 -0.573274 -1.46804 0
M  V30 14441 C 1372.9 -0.0605984 -2.06811 0
M  V30 14442 C 1373.32 1.24024 -1.4235 0
M  V30 14443 O 1372.68 1.7477 -0.525515 0
M  V30 14444 C 1372.73 0.121828 -3.61295 0
M  V30 14445 O 1372.45 -1.12751 -4.23342 0
M  V30 14446 C 1373.95 0.669941 -4.38208 0
M  V30 14447 H 1371.17 -0.0531498 -0.668892 0
M  V30 14448 H 1373.71 -0.791259 -1.88572 0
M  V30 14449 H 1371.87 0.802674 -3.78993 0
M  V30 14450 H 1372.28 -0.935361 -5.16092 0
M  V30 14451 H 1373.76 0.746806 -5.46925 0
M  V30 14452 H 1374.23 1.68483 -4.05598 0
M  V30 14453 H 1374.84 0.0242721 -4.25293 0
M  V30 14454 N 1373.15 1.5451 -0.310553 0
M  V30 14455 C 1374.38 2.04442 0.297807 0
M  V30 14456 C 1374.79 1.18695 1.47337 0
M  V30 14457 O 1374.14 0.207405 1.82525 0
M  V30 14458 C 1374.2 3.50306 0.807851 0
M  V30 14459 C 1373.86 4.5635 -0.24369 0
M  V30 14460 C 1374.86 5.08656 -1.07539 0
M  V30 14461 C 1372.54 5.00798 -0.388138 0
M  V30 14462 C 1374.54 6.03961 -2.03738 0
M  V30 14463 C 1372.22 5.95921 -1.35357 0
M  V30 14464 C 1373.22 6.47387 -2.17667 0
M  V30 14465 O 1372.91 7.40644 -3.12571 0
M  V30 14466 H 1372.64 0.672646 0.0672525 0
M  V30 14467 H 1375.2 2.00389 -0.450948 0
M  V30 14468 H 1373.43 3.51714 1.6073 0
M  V30 14469 H 1375.12 3.83383 1.33314 0
M  V30 14470 H 1375.88 4.75105 -0.97471 0
M  V30 14471 H 1371.76 4.60361 0.242608 0
M  V30 14472 H 1375.3 6.44057 -2.68023 0
M  V30 14473 H 1371.2 6.2889 -1.45493 0
M  V30 14474 H 1371.97 7.58477 -3.0766 0
M  V30 14475 N 1374.63 0.0384594 1.57553 0
M  V30 14476 C 1375.91 -0.677308 1.83499 0
M  V30 14477 C 1376.29 -1.89789 0.924294 0
M  V30 14478 O 1375.64 -2.28493 -0.0178185 0
M  V30 14479 C 1375.85 -1.04667 3.32935 0
M  V30 14480 C 1377.2 -1.43436 3.99639 0
M  V30 14481 O 1378.22 -1.13938 3.37486 0
M  V30 14482 O 1377.08 -1.98435 5.09201 0
M  V30 14483 H 1374.17 -0.333131 0.756936 0
M  V30 14484 H 1376.72 0.066854 1.69568 0
M  V30 14485 H 1375.49 -0.178349 3.90893 0
M  V30 14486 H 1375.11 -1.8487 3.52007 0
M  V30 14487 N 1376.11 -1.55841 -0.234795 0
M  V30 14488 C 1377.34 -1.82649 -0.982547 0
M  V30 14489 C 1377.76 -0.617097 -1.77689 0
M  V30 14490 O 1377.12 0.434022 -1.76028 0
M  V30 14491 C 1377.17 -3.07319 -1.88646 0
M  V30 14492 O 1376.27 -2.85084 -2.97995 0
M  V30 14493 H 1375.61 -0.60257 -0.278936 0
M  V30 14494 H 1378.14 -2.03041 -0.252117 0
M  V30 14495 H 1378.15 -3.37073 -2.29882 0
M  V30 14496 H 1376.83 -3.94978 -1.30251 0
M  V30 14497 H 1375.4 -2.66528 -2.60801 0
M  V30 14498 N 1377.59 0.500963 -1.49426 0
M  V30 14499 C 1378.54 1.62335 -1.66584 0
M  V30 14500 C 1379.53 1.60837 -0.531773 0
M  V30 14501 O 1380.74 1.65345 -0.711408 0
M  V30 14502 H 1377.11 0.538131 -0.52528 0
M  V30 14503 H 1379.08 1.45016 -2.60793 0
M  V30 14504 C 1377.83 3.00469 -1.74968 0
M  V30 14505 H 1377.16 3.02328 -2.61607 0
M  V30 14506 H 1378.6 3.78539 -1.91008 0
M  V30 14507 C 1377.05 3.33251 -0.49451 0
M  V30 14508 O 1377.58 3.99901 0.379783 0
M  V30 14509 N 1375.79 2.88393 -0.357445 0
M  V30 14510 H 1375.34 2.3433 -1.06991 0
M  V30 14511 H 1375.3 3.10694 0.481287 0
M  V30 14512 N 1379.07 1.38501 0.752011 0
M  V30 14513 C 1380 1.38577 1.87933 0
M  V30 14514 C 1380.98 0.251454 1.68231 0
M  V30 14515 O 1382.16 0.45477 1.888 0
M  V30 14516 C 1379.29 1.21164 3.25479 0
M  V30 14517 C 1378.25 2.31816 3.59785 0
M  V30 14518 C 1377.57 1.99508 4.96085 0
M  V30 14519 C 1378.87 3.74082 3.645 0
M  V30 14520 H 1380.57 2.32913 1.88127 0
M  V30 14521 H 1378.11 1.12113 0.903698 0
M  V30 14522 H 1380.07 1.19842 4.04 0
M  V30 14523 H 1378.79 0.232899 3.25769 0
M  V30 14524 H 1377.45 2.32327 2.83584 0
M  V30 14525 H 1377.1 1.00114 4.92936 0
M  V30 14526 H 1376.8 2.73617 5.20007 0
M  V30 14527 H 1378.32 1.99807 5.76983 0
M  V30 14528 H 1379.74 3.75593 4.33131 0
M  V30 14529 H 1378.13 4.47409 3.99931 0
M  V30 14530 H 1379.2 4.06284 2.64692 0
M  V30 14531 N 1380.55 -0.980364 1.23396 0
M  V30 14532 C 1381.49 -2.07275 1.01516 0
M  V30 14533 C 1382.46 -1.65963 -0.0673729 0
M  V30 14534 O 1383.65 -1.90612 0.0847392 0
M  V30 14535 C 1380.79 -3.39621 0.61249 0
M  V30 14536 C 1379.9 -3.94203 1.76715 0
M  V30 14537 C 1379.04 -5.14761 1.31126 0
M  V30 14538 C 1378.07 -5.61509 2.43667 0
M  V30 14539 N 1377.21 -6.73297 1.99035 0
M  V30 14540 H 1382.05 -2.25325 1.9502 0
M  V30 14541 H 1379.59 -1.10452 0.971532 0
M  V30 14542 H 1381.55 -4.15643 0.360126 0
M  V30 14543 H 1380.18 -3.21535 -0.285539 0
M  V30 14544 H 1379.23 -3.14937 2.13352 0
M  V30 14545 H 1380.54 -4.24867 2.61323 0
M  V30 14546 H 1379.69 -5.98115 1.01702 0
M  V30 14547 H 1378.43 -4.85751 0.435555 0
M  V30 14548 H 1377.44 -4.76737 2.73865 0
M  V30 14549 H 1378.66 -5.92539 3.31774 0
M  V30 14550 H 1376.61 -6.46046 1.13845 0
M  V30 14551 H 1376.53 -7.03345 2.77203 0
M  V30 14552 H 1377.79 -7.60125 1.72716 0
M  V30 14553 N 1382.02 -1.04567 -1.17913 0
M  V30 14554 C 1383.27 -0.753137 -1.88297 0
M  V30 14555 C 1383.6 0.717651 -1.80453 0
M  V30 14556 O 1382.88 1.5242 -1.20824 0
M  V30 14557 C 1383.16 -1.22626 -3.38578 0
M  V30 14558 C 1383.01 -2.75952 -3.55205 0
M  V30 14559 C 1384.33 -0.82029 -4.32388 0
M  V30 14560 H 1381.45 -0.275067 -0.683745 0
M  V30 14561 H 1384.09 -1.29856 -1.38699 0
M  V30 14562 H 1382.24 -0.762246 -3.80949 0
M  V30 14563 H 1383.92 -3.30429 -3.21892 0
M  V30 14564 H 1382.16 -3.15534 -2.97693 0
M  V30 14565 H 1382.83 -3.04116 -4.60671 0
M  V30 14566 H 1385.31 -1.21965 -3.97824 0
M  V30 14567 H 1384.18 -1.17902 -5.36088 0
M  V30 14568 H 1384.44 0.276205 -4.41236 0
M  V30 14569 N 1383.5 1.34231 -0.825823 0
M  V30 14570 C 1384.46 2.27776 -0.25512 0
M  V30 14571 C 1385.46 1.50409 0.568654 0
M  V30 14572 O 1386.65 1.69907 0.384337 0
M  V30 14573 C 1383.79 3.348 0.642013 0
M  V30 14574 H 1384.98 2.79763 -1.0804 0
M  V30 14575 H 1382.53 1.44412 -0.597904 0
M  V30 14576 H 1383.27 2.88032 1.49024 0
M  V30 14577 H 1383.05 3.92064 0.0527756 0
M  V30 14578 H 1384.54 4.0457 1.03502 0
M  V30 14579 N 1384.98 0.581051 1.46498 0
M  V30 14580 C 1386.23 0.0637189 2.01599 0
M  V30 14581 C 1386.54 -1.30353 1.45834 0
M  V30 14582 O 1387.75 -1.91211 1.92745 0
M  V30 14583 C 1386.2 0.0633254 3.59844 0
M  V30 14584 C 1385.81 1.42879 4.24605 0
M  V30 14585 C 1387.56 -0.400149 4.2261 0
M  V30 14586 C 1385.46 1.38621 5.74924 0
M  V30 14587 H 1384.39 0.0200512 0.753733 0
M  V30 14588 H 1387.04 0.732451 1.68248 0
M  V30 14589 H 1385.43 -0.671538 3.90264 0
M  V30 14590 H 1386.6 2.18325 4.05796 0
M  V30 14591 H 1384.91 1.83215 3.73927 0
M  V30 14592 H 1387.51 -0.450771 5.32797 0
M  V30 14593 H 1387.85 -1.41733 3.9143 0
M  V30 14594 H 1388.39 0.280598 3.96809 0
M  V30 14595 H 1385.13 2.38014 6.10761 0
M  V30 14596 H 1384.65 0.673926 5.96002 0
M  V30 14597 H 1386.33 1.09841 6.37608 0
M  V30 14598 N 1386.46 -1.54343 0.318742 0
M  V30 14599 C 1387.71 -1.9966 -0.286146 0
M  V30 14600 C 1388.02 -1.21073 -1.53625 0
M  V30 14601 O 1389.23 -1.56744 -2.21684 0
M  V30 14602 C 1387.68 -3.5551 -0.560405 0
M  V30 14603 C 1387.29 -4.42926 0.672373 0
M  V30 14604 C 1389.03 -4.09307 -1.12551 0
M  V30 14605 C 1386.94 -5.9024 0.370285 0
M  V30 14606 H 1385.87 -0.74583 -0.110698 0
M  V30 14607 H 1388.52 -1.78386 0.430215 0
M  V30 14608 H 1386.9 -3.72753 -1.33683 0
M  V30 14609 H 1388.08 -4.37458 1.448 0
M  V30 14610 H 1386.39 -3.99993 1.15736 0
M  V30 14611 H 1388.99 -5.16955 -1.36607 0
M  V30 14612 H 1389.33 -3.60994 -2.07338 0
M  V30 14613 H 1389.87 -3.95677 -0.410385 0
M  V30 14614 H 1386.6 -6.42738 1.28719 0
M  V30 14615 H 1386.12 -5.98672 -0.367731 0
M  V30 14616 H 1387.8 -6.46996 -0.0216582 0
M  V30 14617 N 1387.94 -0.0468143 -1.5753 0
M  V30 14618 C 1389.16 0.637648 -1.96829 0
M  V30 14619 C 1389.58 1.64635 -0.924158 0
M  V30 14620 O 1388.94 1.82267 0.0921139 0
M  V30 14621 C 1388.99 1.32842 -3.36207 0
M  V30 14622 O 1388.71 0.360111 -4.36617 0
M  V30 14623 C 1390.21 2.10305 -3.90239 0
M  V30 14624 H 1387.43 0.174634 -0.647876 0
M  V30 14625 H 1389.97 -0.111824 -2.04194 0
M  V30 14626 H 1388.13 2.02915 -3.30006 0
M  V30 14627 H 1388.54 0.852661 -5.17523 0
M  V30 14628 H 1390.02 2.54065 -4.90056 0
M  V30 14629 H 1390.49 2.94942 -3.25432 0
M  V30 14630 H 1391.1 1.45152 -3.99764 0
M  V30 14631 N 1389.41 1.55964 0.226527 0
M  V30 14632 C 1390.69 1.69528 0.975689 0
M  V30 14633 C 1391.07 0.592635 2.02611 0
M  V30 14634 O 1390.42 -0.401073 2.24953 0
M  V30 14635 C 1390.63 3.10644 1.59063 0
M  V30 14636 C 1391.98 3.69895 2.08478 0
M  V30 14637 O 1393 3.13574 1.68966 0
M  V30 14638 O 1391.86 4.68672 2.81085 0
M  V30 14639 H 1388.95 0.690285 0.455451 0
M  V30 14640 H 1391.5 1.68285 0.218702 0
M  V30 14641 H 1390.27 3.82355 0.831903 0
M  V30 14642 H 1389.9 3.15984 2.41329 0
M  V30 14643 N 1390.89 -0.493031 1.4969 0
M  V30 14644 C 1392.14 -1.2433 1.58823 0
M  V30 14645 C 1392.45 -1.9353 0.283823 0
M  V30 14646 O 1393.66 -2.70311 0.253801 0
M  V30 14647 C 1392.12 -2.25792 2.8026 0
M  V30 14648 C 1391.72 -1.62496 4.17491 0
M  V30 14649 C 1393.47 -3.01598 2.98729 0
M  V30 14650 C 1391.38 -2.62115 5.30141 0
M  V30 14651 H 1390.31 -0.467738 0.591386 0
M  V30 14652 H 1392.96 -0.516238 1.76089 0
M  V30 14653 H 1391.34 -3.01696 2.56506 0
M  V30 14654 H 1392.51 -0.925305 4.51414 0
M  V30 14655 H 1390.83 -0.990516 4.04447 0
M  V30 14656 H 1393.42 -3.76111 3.80058 0
M  V30 14657 H 1393.77 -3.59687 2.09597 0
M  V30 14658 H 1394.3 -2.32809 3.2256 0
M  V30 14659 H 1391.04 -2.08797 6.21357 0
M  V30 14660 H 1390.56 -3.30298 5.00663 0
M  V30 14661 H 1392.24 -3.24385 5.59807 0
M  V30 14662 N 1392.37 -1.38898 -0.744656 0
M  V30 14663 C 1393.65 -1.2611 -1.49518 0
M  V30 14664 C 1394.03 0.133592 -2.10677 0
M  V30 14665 O 1393.38 1.14394 -1.97804 0
M  V30 14666 C 1393.59 -2.37809 -2.55437 0
M  V30 14667 C 1394.93 -2.76664 -3.22091 0
M  V30 14668 O 1395.96 -2.37187 -2.65746 0
M  V30 14669 O 1394.82 -3.44771 -4.24023 0
M  V30 14670 H 1391.91 -0.493664 -0.663494 0
M  V30 14671 H 1394.46 -1.50748 -0.779304 0
M  V30 14672 H 1393.23 -3.31089 -2.08556 0
M  V30 14673 H 1392.85 -2.14783 -3.34595 0
M  V30 14674 N 1393.85 0.973806 -1.23914 0
M  V30 14675 C 1394.78 2.08526 -1.05068 0
M  V30 14676 C 1395.76 1.70065 0.0344761 0
M  V30 14677 O 1396.94 1.93755 -0.131432 0
M  V30 14678 C 1394.07 3.41198 -0.648165 0
M  V30 14679 C 1393.03 3.9359 -1.6814 0
M  V30 14680 C 1392.35 5.22534 -1.13414 0
M  V30 14681 C 1393.65 4.22116 -3.07597 0
M  V30 14682 H 1395.35 2.24551 -1.98034 0
M  V30 14683 H 1392.89 1.07905 -0.953546 0
M  V30 14684 H 1394.85 4.18383 -0.50334 0
M  V30 14685 H 1393.57 3.25056 0.317182 0
M  V30 14686 H 1392.23 3.18555 -1.81434 0
M  V30 14687 H 1391.88 5.02747 -0.159578 0
M  V30 14688 H 1391.58 5.58555 -1.82456 0
M  V30 14689 H 1393.1 6.02334 -1.0013 0
M  V30 14690 H 1394.52 4.90027 -2.97567 0
M  V30 14691 H 1392.91 4.69352 -3.73937 0
M  V30 14692 H 1393.98 3.29128 -3.56094 0
M  V30 14693 N 1395.33 1.05191 1.17357 0
M  V30 14694 C 1396.26 0.673931 2.23563 0
M  V30 14695 C 1397.24 -0.328284 1.66902 0
M  V30 14696 O 1398.42 -0.205878 1.93106 0
M  V30 14697 C 1395.55 0.0478801 3.47267 0
M  V30 14698 C 1394.51 0.974855 4.1675 0
M  V30 14699 C 1393.83 0.212684 5.34277 0
M  V30 14700 C 1395.13 2.299 4.68981 0
M  V30 14701 H 1396.83 1.56183 2.55436 0
M  V30 14702 H 1394.37 0.752408 1.2278 0
M  V30 14703 H 1396.33 -0.228343 4.20781 0
M  V30 14704 H 1395.05 -0.874963 3.14662 0
M  V30 14705 H 1393.71 1.23564 3.45148 0
M  V30 14706 H 1393.36 -0.712924 4.97922 0
M  V30 14707 H 1393.06 0.830351 5.81703 0
M  V30 14708 H 1394.58 -0.056255 6.10574 0
M  V30 14709 H 1395.99 2.08269 5.34132 0
M  V30 14710 H 1394.39 2.87064 5.26986 0
M  V30 14711 H 1395.46 2.93759 3.8579 0
M  V30 14712 N 1396.8 -1.33791 0.83293 0
M  V30 14713 C 1397.73 -2.31853 0.276846 0
M  V30 14714 C 1398.72 -1.58702 -0.612184 0
M  V30 14715 O 1399.9 -1.86629 -0.536975 0
M  V30 14716 C 1397.03 -3.42855 -0.55385 0
M  V30 14717 C 1395.98 -4.27333 0.238884 0
M  V30 14718 C 1395.31 -5.29895 -0.715187 0
M  V30 14719 C 1396.61 -5.01692 1.45265 0
M  V30 14720 H 1398.3 -2.78611 1.09618 0
M  V30 14721 H 1395.85 -1.33949 0.528562 0
M  V30 14722 H 1397.8 -4.10479 -0.953133 0
M  V30 14723 H 1396.53 -2.94771 -1.40634 0
M  V30 14724 H 1395.19 -3.61325 0.619656 0
M  V30 14725 H 1394.83 -4.7807 -1.56391 0
M  V30 14726 H 1394.53 -5.87296 -0.188921 0
M  V30 14727 H 1396.06 -6.00387 -1.11211 0
M  V30 14728 H 1397.47 -5.62117 1.12685 0
M  V30 14729 H 1395.87 -5.68715 1.91528 0
M  V30 14730 H 1396.94 -4.30809 2.22558 0
M  V30 14731 N 1398.28 -0.588812 -1.46187 0
M  V30 14732 C 1399.53 -0.0765765 -2.01955 0
M  V30 14733 C 1399.85 1.29034 -1.46203 0
M  V30 14734 O 1399.12 1.84836 -0.649044 0
M  V30 14735 H 1397.7 -0.025318 -0.746571 0
M  V30 14736 H 1400.36 -0.765971 -1.79217 0
M  V30 14737 H 1399.46 -0.0121702 -3.12098 0
M  V30 14738 N 1399.76 1.54172 -0.326923 0
M  V30 14739 C 1400.67 2.28149 0.546351 0
M  V30 14740 C 1401.69 1.32628 1.12631 0
M  V30 14741 O 1402.86 1.65647 1.14556 0
M  V30 14742 C 1399.93 3.02742 1.68962 0
M  V30 14743 C 1398.99 4.13856 1.14112 0
M  V30 14744 C 1398.22 4.84882 2.2299 0
M  V30 14745 O 1398.44 4.55448 3.43399 0
M  V30 14746 O 1397.38 5.71714 1.8822 0
M  V30 14747 H 1401.2 3.03651 -0.0545288 0
M  V30 14748 H 1398.79 1.49113 -0.0925027 0
M  V30 14749 H 1400.67 3.49443 2.35515 0
M  V30 14750 H 1399.35 2.30113 2.27662 0
M  V30 14751 H 1398.25 3.71497 0.440579 0
M  V30 14752 H 1399.59 4.88539 0.599211 0
M  V30 14753 N 1401.24 0.0551678 1.57503 0
M  V30 14754 C 1402.2 -0.903065 2.10659 0
M  V30 14755 C 1403.2 -1.23728 1.02703 0
M  V30 14756 O 1404.39 -1.17331 1.2876 0
M  V30 14757 C 1401.52 -2.21171 2.59415 0
M  V30 14758 H 1402.72 -0.442197 2.96622 0
M  V30 14759 H 1400.27 -0.193297 1.551 0
M  V30 14760 H 1401 -2.71831 1.76858 0
M  V30 14761 H 1400.79 -1.98216 3.38309 0
M  V30 14762 H 1402.28 -2.89802 3.00674 0
M  V30 14763 N 1402.72 -1.56081 -0.218252 0
M  V30 14764 C 1403.95 -1.83069 -0.957574 0
M  V30 14765 C 1404.35 -0.6325 -1.78315 0
M  V30 14766 O 1403.7 0.408298 -1.79105 0
M  V30 14767 C 1403.76 -3.03835 -1.92157 0
M  V30 14768 C 1403.42 -4.38702 -1.2802 0
M  V30 14769 C 1404.42 -5.15585 -0.66846 0
M  V30 14770 C 1402.11 -4.85427 -1.29098 0
M  V30 14771 C 1404.1 -6.37355 -0.0760499 0
M  V30 14772 C 1401.79 -6.07138 -0.69473 0
M  V30 14773 C 1402.78 -6.82943 -0.0883201 0
M  V30 14774 O 1402.47 -8.02352 0.498648 0
M  V30 14775 H 1402.2 -0.612493 -0.286057 0
M  V30 14776 H 1404.76 -2.04021 -0.23759 0
M  V30 14777 H 1402.99 -2.78709 -2.68064 0
M  V30 14778 H 1404.68 -3.17666 -2.52672 0
M  V30 14779 H 1405.44 -4.80592 -0.652434 0
M  V30 14780 H 1401.32 -4.26395 -1.75238 0
M  V30 14781 H 1404.87 -6.96464 0.397893 0
M  V30 14782 H 1400.76 -6.41604 -0.70818 0
M  V30 14783 H 1401.53 -8.17555 0.393289 0
M  V30 14784 N 1404.2 0.485086 -1.49949 0
M  V30 14785 C 1405.42 1.26179 -1.63971 0
M  V30 14786 C 1405.84 1.86113 -0.317408 0
M  V30 14787 O 1405.2 1.68581 0.699038 0
M  V30 14788 C 1405.25 2.38062 -2.72046 0
M  V30 14789 O 1404.97 1.80588 -3.99149 0
M  V30 14790 C 1406.47 3.29174 -2.96916 0
M  V30 14791 H 1403.69 0.382122 -0.551565 0
M  V30 14792 H 1406.23 0.580607 -1.96085 0
M  V30 14793 H 1404.39 3.0198 -2.42666 0
M  V30 14794 H 1404.8 2.54159 -4.58807 0
M  V30 14795 H 1406.28 4.03922 -3.76233 0
M  V30 14796 H 1406.75 3.87123 -2.07443 0
M  V30 14797 H 1407.36 2.71006 -3.27774 0
M  V30 14798 N 1405.67 1.39291 0.737279 0
M  V30 14799 C 1406.92 1.36592 1.49901 0
M  V30 14800 C 1407.25 -0.0388812 1.94161 0
M  V30 14801 O 1406.53 -1.00337 1.66622 0
M  V30 14802 C 1406.81 2.33625 2.74028 0
M  V30 14803 C 1406.66 3.83037 2.35802 0
M  V30 14804 C 1407.98 2.28524 3.76118 0
M  V30 14805 H 1405.1 0.497482 0.543765 0
M  V30 14806 H 1407.74 1.70265 0.843193 0
M  V30 14807 H 1405.89 2.0504 3.29986 0
M  V30 14808 H 1407.57 4.22363 1.85493 0
M  V30 14809 H 1405.81 3.99924 1.68058 0
M  V30 14810 H 1406.48 4.46415 3.24681 0
M  V30 14811 H 1408.96 2.53794 3.29739 0
M  V30 14812 H 1407.83 2.98501 4.60639 0
M  V30 14813 H 1408.09 1.28949 4.22876 0
M  V30 14814 N 1407.15 -0.967221 1.24429 0
M  V30 14815 C 1408.06 -2.09582 1.05417 0
M  V30 14816 C 1409.08 -1.73999 -0.00516127 0
M  V30 14817 O 1410.25 -2.00472 0.193115 0
M  V30 14818 C 1407.32 -3.40327 0.661697 0
M  V30 14819 C 1406.38 -3.89854 1.79756 0
M  V30 14820 C 1405.61 -5.1436 1.42372 0
M  V30 14821 O 1405.84 -5.69536 0.313754 0
M  V30 14822 O 1404.77 -5.58283 2.24952 0
M  V30 14823 H 1408.6 -2.28517 2.00034 0
M  V30 14824 H 1406.18 -1.07978 1.03253 0
M  V30 14825 H 1408.06 -4.18943 0.454369 0
M  V30 14826 H 1406.74 -3.22691 -0.255348 0
M  V30 14827 H 1405.64 -3.12297 2.05964 0
M  V30 14828 H 1406.98 -4.11967 2.69339 0
M  V30 14829 N 1408.63 -1.05812 -1.16797 0
M  V30 14830 C 1409.88 -0.782869 -1.8773 0
M  V30 14831 C 1410.23 0.683013 -1.79869 0
M  V30 14832 O 1409.52 1.49357 -1.20012 0
M  V30 14833 C 1409.72 -1.20565 -3.3645 0
M  V30 14834 C 1409.55 -2.71109 -3.58789 0
M  V30 14835 C 1408.32 -3.38506 -3.75155 0
M  V30 14836 C 1410.51 -3.69327 -3.57914 0
M  V30 14837 N 1408.5 -4.77851 -3.85398 0
M  V30 14838 C 1409.87 -4.94431 -3.74082 0
M  V30 14839 C 1411.92 -3.62707 -3.41099 0
M  V30 14840 C 1410.63 -6.13707 -3.75175 0
M  V30 14841 C 1412.65 -4.81429 -3.43483 0
M  V30 14842 C 1412.01 -6.0536 -3.60165 0
M  V30 14843 H 1408.11 -0.338798 -0.704798 0
M  V30 14844 H 1410.7 -1.3513 -1.40171 0
M  V30 14845 H 1408.87 -0.665104 -3.82663 0
M  V30 14846 H 1410.6 -0.879581 -3.95026 0
M  V30 14847 H 1407.35 -2.88907 -3.75273 0
M  V30 14848 H 1407.78 -5.50324 -3.943 0
M  V30 14849 H 1412.42 -2.67851 -3.27133 0
M  V30 14850 H 1410.14 -7.08901 -3.87925 0
M  V30 14851 H 1413.72 -4.77966 -3.31722 0
M  V30 14852 H 1412.6 -6.95688 -3.61923 0
M  V30 14853 N 1410.11 1.33347 -0.840014 0
M  V30 14854 C 1411.33 2.02485 -0.448856 0
M  V30 14855 C 1411.76 1.62781 0.942543 0
M  V30 14856 O 1411.12 0.82099 1.61646 0
M  V30 14857 C 1411.16 3.55928 -0.578582 0
M  V30 14858 O 1410.27 4.10507 0.394695 0
M  V30 14859 H 1409.61 0.63848 -0.182317 0
M  V30 14860 H 1412.14 1.70221 -1.13516 0
M  V30 14861 H 1412.15 4.05391 -0.460653 0
M  V30 14862 H 1410.82 3.8417 -1.5933 0
M  V30 14863 H 1409.4 3.72164 0.234227 0
M  V30 14864 N 1411.59 0.596556 1.45873 0
M  V30 14865 C 1412.83 0.0850976 2.0152 0
M  V30 14866 C 1413.15 -1.28799 1.47208 0
M  V30 14867 O 1414.35 -1.89156 1.94762 0
M  V30 14868 C 1412.81 0.101488 3.59757 0
M  V30 14869 C 1412.42 1.47374 4.23066 0
M  V30 14870 C 1414.16 -0.355303 4.2301 0
M  V30 14871 C 1412.07 1.44711 5.73422 0
M  V30 14872 H 1411 0.0280444 0.753478 0
M  V30 14873 H 1413.65 0.750255 1.67462 0
M  V30 14874 H 1412.03 -0.630108 3.90955 0
M  V30 14875 H 1413.21 2.22617 4.03458 0
M  V30 14876 H 1411.52 1.87171 3.71962 0
M  V30 14877 H 1414.12 -0.394236 5.33245 0
M  V30 14878 H 1414.46 -1.37573 3.92911 0
M  V30 14879 H 1414.99 0.32267 3.96489 0
M  V30 14880 H 1411.73 2.44479 6.08203 0
M  V30 14881 H 1411.25 0.737102 5.95254 0
M  V30 14882 H 1412.93 1.16598 6.36407 0
M  V30 14883 N 1413.06 -1.53996 0.335095 0
M  V30 14884 C 1414.01 -2.24736 -0.52559 0
M  V30 14885 C 1414.98 -1.24244 -1.10239 0
M  V30 14886 O 1416.17 -1.52955 -1.14058 0
M  V30 14887 C 1413.31 -3.01732 -1.67487 0
M  V30 14888 C 1412.42 -4.17062 -1.1262 0
M  V30 14889 C 1411.55 -4.81563 -2.2421 0
M  V30 14890 C 1410.59 -5.88977 -1.6665 0
M  V30 14891 N 1409.73 -6.47293 -2.71949 0
M  V30 14892 H 1414.57 -2.97881 0.0842008 0
M  V30 14893 H 1412.11 -1.47003 0.0533254 0
M  V30 14894 H 1414.06 -3.44626 -2.35135 0
M  V30 14895 H 1412.69 -2.30899 -2.25578 0
M  V30 14896 H 1411.75 -3.78869 -0.340917 0
M  V30 14897 H 1413.06 -4.94346 -0.665113 0
M  V30 14898 H 1412.21 -5.27486 -2.9974 0
M  V30 14899 H 1410.95 -4.03685 -2.73659 0
M  V30 14900 H 1409.96 -5.42446 -0.89623 0
M  V30 14901 H 1411.18 -6.68758 -1.18064 0
M  V30 14902 H 1409.13 -5.72283 -3.20668 0
M  V30 14903 H 1409.04 -7.20024 -2.30438 0
M  V30 14904 H 1410.31 -6.97869 -3.47273 0
M  V30 14905 N 1414.54 -0.0635198 -1.57472 0
M  V30 14906 C 1415.79 0.607008 -1.92349 0
M  V30 14907 C 1416.1 1.71268 -0.944806 0
M  V30 14908 O 1417.31 2.44221 -1.18609 0
M  V30 14909 C 1415.77 1.13105 -3.41666 0
M  V30 14910 C 1415.37 0.0568256 -4.47964 0
M  V30 14911 C 1417.12 1.77611 -3.85557 0
M  V30 14912 C 1415.02 0.594443 -5.88405 0
M  V30 14913 H 1413.95 0.230506 -0.717902 0
M  V30 14914 H 1416.61 -0.134413 -1.83007 0
M  V30 14915 H 1414.99 1.92517 -3.46054 0
M  V30 14916 H 1416.16 -0.717371 -4.55182 0
M  V30 14917 H 1414.48 -0.491517 -4.13489 0
M  V30 14918 H 1417.07 2.18852 -4.87861 0
M  V30 14919 H 1417.42 2.6328 -3.22474 0
M  V30 14920 H 1417.95 1.04834 -3.83738 0
M  V30 14921 H 1414.69 -0.224893 -6.55114 0
M  V30 14922 H 1414.21 1.33635 -5.84724 0
M  V30 14923 H 1415.89 1.07346 -6.38033 0
M  V30 14924 N 1416.02 1.56195 0.209972 0
M  V30 14925 C 1417.44 1.49446 0.56018 0
M  V30 14926 C 1417.64 0.760799 1.86585 0
M  V30 14927 O 1416.69 0.305201 2.50649 0
M  V30 14928 C 1418 2.94054 0.628687 0
M  V30 14929 C 1419.55 3.04641 0.718531 0
M  V30 14930 C 1420.03 4.50631 0.81828 0
M  V30 14931 N 1421.52 4.54721 0.8822 0
M  V30 14932 C 1422.25 5.64976 0.979292 0
M  V30 14933 N 1421.75 6.84955 1.03961 0
M  V30 14934 N 1423.54 5.52854 1.01533 0
M  V30 14935 H 1415.69 2.02316 -0.646674 0
M  V30 14936 H 1417.96 0.920063 -0.228446 0
M  V30 14937 H 1417.66 3.50728 -0.261324 0
M  V30 14938 H 1417.54 3.46592 1.48842 0
M  V30 14939 H 1419.92 2.48026 1.59898 0
M  V30 14940 H 1420 2.55254 -0.167102 0
M  V30 14941 H 1419.65 5.07867 -0.0577557 0
M  V30 14942 H 1419.58 4.97736 1.7195 0
M  V30 14943 H 1422.07 3.68322 0.845433 0
M  V30 14944 H 1422.38 7.64732 1.11379 0
M  V30 14945 H 1420.73 6.87643 1.00854 0
M  V30 14946 H 1423.92 4.58046 0.96494 0
M  V30 14947 H 1424.09 6.38809 1.08754 0
M  V30 14948 N 1417.5 -0.477127 1.50204 0
M  V30 14949 C 1418.77 -1.23837 1.51406 0
M  V30 14950 C 1419.15 -2.09551 0.255278 0
M  V30 14951 O 1418.5 -2.15437 -0.761535 0
M  V30 14952 C 1418.71 -2.0746 2.80644 0
M  V30 14953 C 1420.06 -2.65852 3.31071 0
M  V30 14954 O 1421.08 -2.17708 2.81925 0
M  V30 14955 O 1419.94 -3.53556 4.16726 0
M  V30 14956 H 1417.04 -0.561638 0.607036 0
M  V30 14957 H 1419.58 -0.489442 1.62489 0
M  V30 14958 H 1418.36 -1.44258 3.63738 0
M  V30 14959 H 1417.98 -2.895 2.72536 0
M  V30 14960 N 1418.98 -1.3968 -0.729882 0
M  V30 14961 C 1419.89 -1.41094 -1.87429 0
M  V30 14962 C 1420.9 -0.305142 -1.71303 0
M  V30 14963 O 1422.08 -0.54744 -1.93817 0
M  V30 14964 C 1419.14 -1.25786 -3.23077 0
M  V30 14965 C 1418.2 -2.46382 -3.5156 0
M  V30 14966 C 1417.44 -2.31795 -4.80735 0
M  V30 14967 O 1417.66 -1.32415 -5.54818 0
M  V30 14968 O 1416.59 -3.20883 -5.09232 0
M  V30 14969 H 1420.42 -2.37571 -1.89192 0
M  V30 14970 H 1418.01 -1.2085 -0.878389 0
M  V30 14971 H 1419.89 -1.19402 -4.0413 0
M  V30 14972 H 1418.56 -0.324065 -3.22074 0
M  V30 14973 H 1417.47 -2.58343 -2.70573 0
M  V30 14974 H 1418.8 -3.38473 -3.57347 0
M  V30 14975 N 1420.45 0.960609 -1.2494 0
M  V30 14976 C 1421.36 2.0902 -1.06527 0
M  V30 14977 C 1422.38 1.74 -0.00406641 0
M  V30 14978 O 1423.56 2.00367 -0.203744 0
M  V30 14979 C 1420.62 3.39971 -0.679736 0
M  V30 14980 C 1419.68 3.88895 -1.81821 0
M  V30 14981 C 1418.92 5.13597 -1.45098 0
M  V30 14982 O 1419.14 5.69362 -0.343954 0
M  V30 14983 O 1418.07 5.57083 -2.27909 0
M  V30 14984 H 1421.9 2.27453 -2.01243 0
M  V30 14985 H 1419.48 1.07429 -1.03824 0
M  V30 14986 H 1421.37 4.18696 -0.47658 0
M  V30 14987 H 1420.04 3.22822 0.238231 0
M  V30 14988 H 1418.95 3.11201 -2.07617 0
M  V30 14989 H 1420.28 4.10533 -2.7152 0
M  V30 14990 N 1421.93 1.0643 1.16234 0
M  V30 14991 C 1422.88 0.676311 2.20669 0
M  V30 14992 C 1423.85 -0.327721 1.62835 0
M  V30 14993 O 1425.03 -0.216296 1.8957 0
M  V30 14994 C 1422.17 0.0703726 3.45028 0
M  V30 14995 C 1421.29 1.12475 4.17101 0
M  V30 14996 C 1420.42 0.484806 5.28983 0
M  V30 14997 C 1419.46 1.52262 5.9286 0
M  V30 14998 N 1418.6 0.905938 6.96231 0
M  V30 14999 H 1423.44 1.57129 2.53209 0
M  V30 15000 H 1420.98 0.7856 1.24365 0
M  V30 15001 H 1422.93 -0.298488 4.16131 0
M  V30 15002 H 1421.56 -0.788002 3.13034 0
M  V30 15003 H 1420.62 1.6113 3.44589 0
M  V30 15004 H 1421.93 1.91202 4.60698 0
M  V30 15005 H 1421.08 0.0630553 6.06667 0
M  V30 15006 H 1419.82 -0.334332 4.86553 0
M  V30 15007 H 1418.83 1.95425 5.13896 0
M  V30 15008 H 1420.05 2.34388 6.37369 0
M  V30 15009 H 1418 0.107536 6.55912 0
M  V30 15010 H 1417.91 1.63058 7.38206 0
M  V30 15011 H 1419.18 0.509378 7.77834 0
M  V30 15012 N 1423.41 -1.329 0.847073 0
M  V30 15013 C 1424.66 -1.96774 0.443022 0
M  V30 15014 C 1424.97 -1.67813 -1.0049 0
M  V30 15015 O 1426.18 -2.25366 -1.51402 0
M  V30 15016 C 1424.63 -3.52184 0.741268 0
M  V30 15017 C 1424.24 -3.90013 2.20441 0
M  V30 15018 C 1425.99 -4.22568 0.404569 0
M  V30 15019 C 1423.89 -5.38434 2.44627 0
M  V30 15020 H 1422.82 -0.736406 0.161932 0
M  V30 15021 H 1425.47 -1.51402 1.0368 0
M  V30 15022 H 1423.86 -3.95925 0.0770158 0
M  V30 15023 H 1425.03 -3.57304 2.90982 0
M  V30 15024 H 1423.35 -3.32633 2.50489 0
M  V30 15025 H 1425.94 -5.3173 0.562795 0
M  V30 15026 H 1426.29 -4.11144 -0.653172 0
M  V30 15027 H 1426.82 -3.84384 1.0244 0
M  V30 15028 H 1423.56 -5.5487 3.48997 0
M  V30 15029 H 1423.08 -5.72575 1.78656 0
M  V30 15030 H 1424.76 -6.05423 2.28194 0
M  V30 15031 N 1424.89 -0.604284 -1.45555 0
M  V30 15032 C 1426.17 -0.0303285 -1.95576 0
M  V30 15033 C 1426.55 1.43661 -1.54676 0
M  V30 15034 O 1425.89 2.13747 -0.807731 0
M  V30 15035 C 1426.1 -0.22497 -3.48274 0
M  V30 15036 C 1427.45 -0.104042 -4.24473 0
M  V30 15037 O 1428.48 -0.154919 -3.55863 0
M  V30 15038 O 1427.33 0.0136297 -5.46498 0
M  V30 15039 H 1424.43 0.0376106 -0.826144 0
M  V30 15040 H 1426.97 -0.674114 -1.55736 0
M  V30 15041 H 1425.75 -1.24391 -3.71002 0
M  V30 15042 H 1425.37 0.454234 -3.94997 0
M  V30 15043 N 1426.37 1.53816 -0.343257 0
M  V30 15044 C 1427.61 2.0282 0.253695 0
M  V30 15045 C 1427.97 1.22564 1.47791 0
M  V30 15046 O 1429.17 1.61464 2.14902 0
M  V30 15047 C 1427.44 3.5298 0.560361 0
M  V30 15048 S 1429 4.23889 1.13416 0
M  V30 15049 H 1425.82 0.706976 0.0755344 0
M  V30 15050 H 1428.42 1.89492 -0.480951 0
M  V30 15051 H 1427.13 4.09002 -0.338451 0
M  V30 15052 H 1426.66 3.70426 1.32468 0
M  V30 15053 H 1428.67 4.33192 2.4199 0
M  V30 15054 N 1427.84 0.0718701 1.57436 0
M  V30 15055 C 1429.07 -0.605374 1.97532 0
M  V30 15056 C 1429.48 -1.6368 0.948974 0
M  V30 15057 O 1428.83 -1.83556 -0.0726987 0
M  V30 15058 C 1428.89 -1.33139 3.33937 0
M  V30 15059 C 1428.55 -0.453426 4.54745 0
M  V30 15060 C 1429.55 0.289012 5.19096 0
M  V30 15061 C 1427.23 -0.378282 5.00874 0
M  V30 15062 C 1429.23 1.09482 6.27927 0
M  V30 15063 C 1426.91 0.431192 6.09577 0
M  V30 15064 C 1427.91 1.16641 6.72966 0
M  V30 15065 O 1427.6 1.96253 7.79577 0
M  V30 15066 H 1427.33 -0.168804 0.654585 0
M  V30 15067 H 1429.89 0.140832 2.04917 0
M  V30 15068 H 1428.12 -2.12367 3.23167 0
M  V30 15069 H 1429.81 -1.90089 3.58638 0
M  V30 15070 H 1430.57 0.240552 4.84403 0
M  V30 15071 H 1426.45 -0.940166 4.51311 0
M  V30 15072 H 1429.99 1.66918 6.77336 0
M  V30 15073 H 1425.89 0.481217 6.43704 0
M  V30 15074 H 1426.66 1.88686 7.96455 0
M  V30 15075 N 1429.32 -1.56304 -0.201686 0
M  V30 15076 C 1430.73 -1.7022 -0.766953 0
M  V30 15077 C 1431.08 -0.677318 -1.84138 0
M  V30 15078 O 1430.21 0.167604 -2.1575 0
M  V30 15079 C 1430.8 -3.08615 -1.39795 0
M  V30 15080 C 1429.36 -3.24317 -1.91037 0
M  V30 15081 C 1428.51 -2.66167 -0.777853 0
M  V30 15082 H 1431.46 -1.58683 0.0232884 0
M  V30 15083 H 1431.48 -3.05578 -2.26721 0
M  V30 15084 H 1430.99 -3.83185 -0.615728 0
M  V30 15085 H 1429.1 -2.54652 -2.71999 0
M  V30 15086 H 1429.21 -4.31753 -2.07669 0
M  V30 15087 H 1427.57 -2.25169 -1.19042 0
M  V30 15088 H 1428.36 -3.43299 -0.00798179 0
M  V30 15089 N 1430.8 0.469154 -1.50455 0
M  V30 15090 C 1432.08 1.23033 -1.5206 0
M  V30 15091 C 1432.46 2.09412 -0.266388 0
M  V30 15092 O 1431.81 2.15837 0.750099 0
M  V30 15093 C 1432.02 2.05969 -2.81741 0
M  V30 15094 C 1433.36 2.64093 -3.32476 0
M  V30 15095 O 1434.39 2.1621 -2.83075 0
M  V30 15096 O 1433.25 3.51341 -4.18595 0
M  V30 15097 H 1430.34 0.55841 -0.610006 0
M  V30 15098 H 1432.89 0.480818 -1.62746 0
M  V30 15099 H 1431.66 1.42327 -3.64498 0
M  V30 15100 H 1431.28 2.8805 -2.74067 0
M  V30 15101 N 1432.28 1.40065 0.722464 0
M  V30 15102 C 1433.19 1.42086 1.86678 0
M  V30 15103 C 1434.2 0.314223 1.71139 0
M  V30 15104 O 1435.38 0.55771 1.93524 0
M  V30 15105 C 1432.45 1.27498 3.22405 0
M  V30 15106 C 1431.51 2.48243 3.50248 0
M  V30 15107 C 1430.74 2.34342 4.79499 0
M  V30 15108 O 1430.96 1.35355 5.54108 0
M  V30 15109 O 1429.9 3.23579 5.07523 0
M  V30 15110 H 1433.72 2.38571 1.87929 0
M  V30 15111 H 1431.31 1.21314 0.871968 0
M  V30 15112 H 1433.19 1.21543 4.03491 0
M  V30 15113 H 1431.86 0.341141 3.21897 0
M  V30 15114 H 1430.77 2.59775 2.69199 0
M  V30 15115 H 1432.1 3.40364 3.55547 0
M  V30 15116 N 1433.76 -0.95397 1.25448 0
M  V30 15117 C 1434.71 -2.07206 1.05681 0
M  V30 15118 C 1435.7 -1.69395 -0.0124672 0
M  V30 15119 O 1436.91 -1.79429 0.143201 0
M  V30 15120 H 1433.28 -0.678231 0.324817 0
M  V30 15121 H 1435.25 -2.21034 2.00466 0
M  V30 15122 C 1434 -3.40725 0.692955 0
M  V30 15123 H 1433.32 -3.70287 1.50756 0
M  V30 15124 H 1434.76 -4.19814 0.594351 0
M  V30 15125 C 1433.22 -3.31495 -0.601028 0
M  V30 15126 O 1433.75 -3.66565 -1.64296 0
M  V30 15127 N 1431.96 -2.84612 -0.586899 0
M  V30 15128 H 1431.51 -2.56271 0.261375 0
M  V30 15129 H 1431.46 -2.78819 -1.45284 0
M  V30 15130 N 1435.24 -1.07045 -1.15668 0
M  V30 15131 C 1436.48 -0.790172 -1.86013 0
M  V30 15132 C 1436.8 0.685663 -1.82548 0
M  V30 15133 O 1436.07 1.49644 -1.26426 0
M  V30 15134 H 1434.65 -0.28931 -0.688701 0
M  V30 15135 H 1437.32 -1.35354 -1.40233 0
M  V30 15136 H 1436.41 -1.1219 -2.91239 0
M  V30 15137 N 1436.71 1.32449 -0.85411 0
M  V30 15138 C 1437.68 2.27183 -0.303377 0
M  V30 15139 C 1438.68 1.51582 0.536622 0
M  V30 15140 O 1439.87 1.70684 0.348211 0
M  V30 15141 C 1437 3.36086 0.570852 0
M  V30 15142 H 1438.19 2.77408 -1.1395 0
M  V30 15143 H 1435.74 1.43111 -0.628402 0
M  V30 15144 H 1436.48 2.91128 1.42881 0
M  V30 15145 H 1436.26 3.92088 -0.030399 0
M  V30 15146 H 1437.75 4.06675 0.948972 0
M  V30 15147 N 1438.19 0.611994 1.45232 0
M  V30 15148 C 1439.42 0.113618 2.07089 0
M  V30 15149 C 1439.84 -1.1947 1.45288 0
M  V30 15150 O 1439.2 -1.72845 0.547207 0
M  V30 15151 C 1439.25 -0.00789978 3.60599 0
M  V30 15152 O 1438.35 -1.05697 3.98625 0
M  V30 15153 H 1437.69 0.076066 0.659629 0
M  V30 15154 H 1440.22 0.843253 1.86415 0
M  V30 15155 H 1440.23 -0.204692 4.07486 0
M  V30 15156 H 1438.91 0.947386 4.04966 0
M  V30 15157 H 1437.48 -0.836291 3.63401 0
M  V30 15158 N 1439.67 -1.53632 0.351409 0
M  V30 15159 C 1440.63 -2.23916 -0.489293 0
M  V30 15160 C 1441.63 -1.24207 -1.02124 0
M  V30 15161 O 1442.82 -1.48589 -0.909235 0
M  V30 15162 C 1439.95 -2.96492 -1.68242 0
M  V30 15163 H 1441.15 -2.99637 0.125518 0
M  V30 15164 H 1438.7 -1.55961 0.102874 0
M  V30 15165 H 1439.44 -2.24978 -2.33571 0
M  V30 15166 H 1439.22 -3.69637 -1.3081 0
M  V30 15167 H 1440.71 -3.49961 -2.27853 0
M  V30 15168 N 1441.15 -0.0802183 -1.57396 0
M  V30 15169 C 1442.06 0.898597 -2.16708 0
M  V30 15170 C 1443.07 1.321 -1.1325 0
M  V30 15171 O 1444.25 1.39197 -1.45554 0
M  V30 15172 C 1441.31 2.14501 -2.72379 0
M  V30 15173 C 1440.38 1.77822 -3.9074 0
M  V30 15174 C 1439.61 2.96521 -4.43747 0
M  V30 15175 O 1439.83 4.10797 -3.9573 0
M  V30 15176 O 1438.77 2.75849 -5.34968 0
M  V30 15177 H 1442.59 0.424027 -3.00725 0
M  V30 15178 H 1440.18 0.14332 -1.48711 0
M  V30 15179 H 1442.06 2.87575 -3.08024 0
M  V30 15180 H 1440.73 2.61039 -1.91416 0
M  V30 15181 H 1439.64 1.01974 -3.59934 0
M  V30 15182 H 1440.97 1.36059 -4.73021 0
M  V30 15183 N 1442.63 1.56409 0.193394 0
M  V30 15184 C 1443.57 1.95572 1.25914 0
M  V30 15185 C 1444.57 0.841384 1.47028 0
M  V30 15186 O 1445.77 1.0264 1.47868 0
M  V30 15187 H 1442.15 0.621914 0.422761 0
M  V30 15188 H 1444.12 2.84446 0.901827 0
M  V30 15189 C 1442.87 2.31293 2.59613 0
M  V30 15190 H 1442.19 3.16568 2.44182 0
M  V30 15191 H 1443.63 2.62558 3.32926 0
M  V30 15192 C 1442.09 1.14818 3.16731 0
M  V30 15193 O 1442.62 0.424105 3.99455 0
M  V30 15194 N 1440.83 0.924536 2.75501 0
M  V30 15195 H 1440.37 1.51509 2.08334 0
M  V30 15196 H 1440.33 0.147006 3.14056 0
M  V30 15197 N 1444.1 -0.461169 1.50702 0
M  V30 15198 C 1445.34 -1.22225 1.6383 0
M  V30 15199 C 1445.71 -1.8904 0.335858 0
M  V30 15200 O 1446.91 -2.66607 0.342674 0
M  V30 15201 C 1445.18 -2.2305 2.79256 0
M  V30 15202 S 1446.74 -3.07964 3.12576 0
M  V30 15203 H 1443.56 -0.41483 0.57744 0
M  V30 15204 H 1446.16 -0.517625 1.88523 0
M  V30 15205 H 1444.86 -1.72562 3.72358 0
M  V30 15206 H 1444.39 -2.98126 2.56679 0
M  V30 15207 H 1446.41 -4.24358 2.57167 0
M  V30 15208 N 1445.58 -1.40446 -0.715026 0
M  V30 15209 C 1446.81 -1.4207 -1.50412 0
M  V30 15210 C 1447.22 -0.0205547 -1.88789 0
M  V30 15211 O 1446.58 0.955635 -1.55479 0
M  V30 15212 C 1446.63 -2.3119 -2.77909 0
M  V30 15213 O 1446.35 -3.65754 -2.41154 0
M  V30 15214 C 1447.85 -2.41412 -3.718 0
M  V30 15215 H 1445.07 -0.484554 -0.464164 0
M  V30 15216 H 1447.62 -1.84504 -0.881964 0
M  V30 15217 H 1445.77 -1.92117 -3.36407 0
M  V30 15218 H 1446.19 -4.13091 -3.23197 0
M  V30 15219 H 1447.66 -3.07976 -4.58099 0
M  V30 15220 H 1448.14 -1.43934 -4.14945 0
M  V30 15221 H 1448.74 -2.81039 -3.19213 0
M  V30 15222 N 1447.06 0.947303 -1.25952 0
M  V30 15223 C 1448.02 2.02667 -1.07046 0
M  V30 15224 C 1449.02 1.60787 -0.0208127 0
M  V30 15225 O 1450.21 1.72193 -0.263668 0
M  V30 15226 C 1447.34 3.35087 -0.626885 0
M  V30 15227 H 1448.54 2.20871 -2.0287 0
M  V30 15228 H 1446.09 1.12541 -1.08462 0
M  V30 15229 H 1446.83 3.22579 0.333621 0
M  V30 15230 H 1446.61 3.66835 -1.38473 0
M  V30 15231 H 1448.1 4.14397 -0.516264 0
M  V30 15232 N 1448.54 1.07657 1.15099 0
M  V30 15233 C 1449.95 0.802696 1.37945 0
M  V30 15234 C 1450.15 -0.591622 1.92619 0
M  V30 15235 O 1449.21 -1.34979 2.13394 0
M  V30 15236 C 1450.52 1.87907 2.34759 0
M  V30 15237 C 1452.07 1.90418 2.48415 0
M  V30 15238 C 1452.55 2.97148 3.48521 0
M  V30 15239 N 1454.04 2.96271 3.56059 0
M  V30 15240 C 1454.77 3.75498 4.33346 0
M  V30 15241 N 1454.27 4.64583 5.1394 0
M  V30 15242 N 1456.06 3.63831 4.28466 0
M  V30 15243 H 1448.21 1.97578 0.779537 0
M  V30 15244 H 1450.48 0.856978 0.405331 0
M  V30 15245 H 1450.18 2.8811 2.01707 0
M  V30 15246 H 1450.06 1.74183 3.34575 0
M  V30 15247 H 1452.44 0.908655 2.80762 0
M  V30 15248 H 1452.52 2.0822 1.48586 0
M  V30 15249 H 1452.17 3.96903 3.16908 0
M  V30 15250 H 1452.1 2.76593 4.48112 0
M  V30 15251 H 1454.59 2.31697 2.98538 0
M  V30 15252 H 1454.9 5.2166 5.70167 0
M  V30 15253 H 1453.25 4.6863 5.13236 0
M  V30 15254 H 1456.44 2.93609 3.6457 0
M  V30 15255 H 1456.61 4.25818 4.8845 0
M  V30 15256 N 1450.02 -1.31994 0.861122 0
M  V30 15257 C 1451.26 -1.96636 0.466754 0
M  V30 15258 C 1451.59 -1.6845 -0.982328 0
M  V30 15259 O 1450.86 -0.995157 -1.68741 0
M  V30 15260 H 1449.44 -0.727489 0.169613 0
M  V30 15261 H 1452.1 -1.60962 1.09897 0
M  V30 15262 H 1451.19 -3.05937 0.61716 0
M  V30 15263 N 1451.49 -0.619688 -1.44906 0
M  V30 15264 C 1452.73 -0.122796 -2.04031 0
M  V30 15265 C 1453.1 1.2279 -1.47603 0
M  V30 15266 O 1454.3 1.81623 -1.98158 0
M  V30 15267 C 1452.57 -0.0968883 -3.57269 0
M  V30 15268 S 1454.13 0.33705 -4.37504 0
M  V30 15269 H 1450.95 -0.0554816 -0.708832 0
M  V30 15270 H 1453.55 -0.82051 -1.77448 0
M  V30 15271 H 1452.25 -1.08324 -3.95846 0
M  V30 15272 H 1451.78 0.622437 -3.88445 0
M  V30 15273 H 1453.8 1.58388 -4.70242 0
M  V30 15274 N 1452.97 1.53444 -0.359552 0
M  V30 15275 C 1454.22 2.00348 0.233109 0
M  V30 15276 C 1454.53 1.25104 1.50361 0
M  V30 15277 O 1455.74 1.62566 2.1745 0
M  V30 15278 C 1454.2 3.56871 0.465951 0
M  V30 15279 C 1453.8 4.40987 -0.789571 0
M  V30 15280 C 1455.55 4.12148 1.0166 0
M  V30 15281 C 1453.46 5.8905 -0.526646 0
M  V30 15282 H 1452.39 0.748502 0.0908851 0
M  V30 15283 H 1455.04 1.77182 -0.47736 0
M  V30 15284 H 1453.42 3.76167 1.23753 0
M  V30 15285 H 1454.59 4.33465 -1.56348 0
M  V30 15286 H 1452.91 3.96784 -1.263 0
M  V30 15287 H 1455.5 5.20395 1.22853 0
M  V30 15288 H 1455.85 3.66364 1.97694 0
M  V30 15289 H 1456.38 3.96626 0.305334 0
M  V30 15290 H 1453.12 6.39099 -1.45715 0
M  V30 15291 H 1452.64 5.99436 0.208875 0
M  V30 15292 H 1454.32 6.46826 -0.149889 0
M  V30 15293 N 1454.45 0.0885642 1.57351 0
M  V30 15294 C 1455.7 -0.571435 1.95208 0
M  V30 15295 C 1456.05 -1.66196 0.96936 0
M  V30 15296 O 1455.34 -1.91599 -0.00570677 0
M  V30 15297 C 1455.54 -1.17764 3.37441 0
M  V30 15298 C 1455.37 -0.147362 4.49458 0
M  V30 15299 C 1454.14 0.273866 5.04557 0
M  V30 15300 C 1456.34 0.621935 5.10526 0
M  V30 15301 N 1454.32 1.29309 6.00127 0
M  V30 15302 C 1455.69 1.49317 6.01751 0
M  V30 15303 C 1457.74 0.676169 4.93287 0
M  V30 15304 C 1456.45 2.41386 6.77588 0
M  V30 15305 C 1458.47 1.58443 5.6978 0
M  V30 15306 C 1457.83 2.44331 6.60668 0
M  V30 15307 H 1453.93 -0.179629 0.76109 0
M  V30 15308 H 1456.52 0.169612 1.9396 0
M  V30 15309 H 1454.69 -1.88853 3.39395 0
M  V30 15310 H 1456.42 -1.79947 3.62493 0
M  V30 15311 H 1453.18 -0.112587 4.73466 0
M  V30 15312 H 1453.6 1.80072 6.52613 0
M  V30 15313 H 1458.24 0.0263199 4.22792 0
M  V30 15314 H 1455.96 3.07399 7.4735 0
M  V30 15315 H 1459.55 1.63145 5.58458 0
M  V30 15316 H 1458.43 3.1347 7.18823 0
M  V30 15317 N 1455.93 -1.56509 -0.185096 0
M  V30 15318 C 1456.84 -1.98552 -1.24958 0
M  V30 15319 C 1457.85 -0.894713 -1.49234 0
M  V30 15320 O 1459.03 -1.20126 -1.61653 0
M  V30 15321 C 1456.1 -2.32513 -2.57175 0
M  V30 15322 C 1455.16 -3.55351 -2.40882 0
M  V30 15323 C 1454.39 -3.87683 -3.66794 0
M  V30 15324 O 1454.61 -3.21167 -4.7139 0
M  V30 15325 O 1453.55 -4.8108 -3.61726 0
M  V30 15326 H 1457.37 -2.89342 -0.922756 0
M  V30 15327 H 1454.96 -1.44196 -0.390887 0
M  V30 15328 H 1456.84 -2.55387 -3.35195 0
M  V30 15329 H 1455.51 -1.44888 -2.89464 0
M  V30 15330 H 1454.42 -3.37712 -1.60939 0
M  V30 15331 H 1455.75 -4.43474 -2.13522 0
M  V30 15332 N 1457.41 0.45317 -1.50944 0
M  V30 15333 C 1458.37 1.5313 -1.7054 0
M  V30 15334 C 1459.37 1.50142 -0.575678 0
M  V30 15335 O 1460.56 1.52444 -0.842997 0
M  V30 15336 C 1457.69 2.92719 -1.74723 0
M  V30 15337 H 1458.88 1.37066 -2.66745 0
M  V30 15338 H 1456.44 0.680783 -1.40695 0
M  V30 15339 H 1457.17 3.14208 -0.802753 0
M  V30 15340 H 1456.96 2.96295 -2.56811 0
M  V30 15341 H 1458.45 3.7096 -1.91777 0
M  V30 15342 N 1458.88 1.40823 0.707568 0
M  V30 15343 C 1460.11 1.43061 1.50161 0
M  V30 15344 C 1460.53 0.0342144 1.88069 0
M  V30 15345 O 1459.89 -0.959674 1.53818 0
M  V30 15346 C 1459.94 2.33459 2.74826 0
M  V30 15347 O 1459.04 1.78336 3.71847 0
M  V30 15348 H 1458.39 0.48602 0.452417 0
M  V30 15349 H 1460.92 1.85147 0.870742 0
M  V30 15350 H 1460.93 2.48922 3.23267 0
M  V30 15351 H 1459.6 3.34927 2.46571 0
M  V30 15352 H 1458.18 1.7226 3.30728 0
M  V30 15353 N 1460.36 -0.94061 1.26453 0
M  V30 15354 C 1461.31 -2.06073 1.07873 0
M  V30 15355 C 1462.3 -1.69399 0.0055001 0
M  V30 15356 O 1463.51 -1.79267 0.162224 0
M  V30 15357 H 1459.89 -0.674748 0.331993 0
M  V30 15358 H 1461.86 -2.18895 2.02799 0
M  V30 15359 C 1460.61 -3.39971 0.729054 0
M  V30 15360 H 1459.93 -3.68667 1.54675 0
M  V30 15361 H 1461.37 -4.1916 0.638844 0
M  V30 15362 C 1459.83 -3.32114 -0.565835 0
M  V30 15363 O 1460.36 -3.68287 -1.60399 0
M  V30 15364 N 1458.56 -2.85218 -0.556679 0
M  V30 15365 H 1458.11 -2.55979 0.288541 0
M  V30 15366 H 1458.07 -2.80344 -1.42318 0
M  V30 15367 N 1461.84 -1.08266 -1.14527 0
M  V30 15368 C 1463.07 -0.832994 -1.89937 0
M  V30 15369 C 1463.49 0.608985 -1.77969 0
M  V30 15370 O 1462.85 1.42657 -1.11887 0
M  V30 15371 C 1462.9 -1.25782 -3.37952 0
M  V30 15372 O 1462 -0.408853 -4.10368 0
M  V30 15373 H 1461.34 -0.30267 -0.591005 0
M  V30 15374 H 1463.87 -1.44371 -1.44977 0
M  V30 15375 H 1463.88 -1.23804 -3.88763 0
M  V30 15376 H 1462.56 -2.30804 -3.4598 0
M  V30 15377 H 1461.13 -0.49192 -3.69641 0
M  V30 15378 N 1463.32 1.31536 -0.86811 0
M  V30 15379 C 1464.54 2.01487 -0.491705 0
M  V30 15380 C 1464.97 1.64744 0.907803 0
M  V30 15381 O 1464.33 0.855093 1.59868 0
M  V30 15382 C 1464.38 3.54621 -0.65395 0
M  V30 15383 O 1463.48 4.11252 0.307532 0
M  V30 15384 H 1462.82 0.634469 -0.195819 0
M  V30 15385 H 1465.35 1.67775 -1.17101 0
M  V30 15386 H 1465.36 4.04323 -0.546539 0
M  V30 15387 H 1464.04 3.80704 -1.67443 0
M  V30 15388 H 1462.61 3.72577 0.155233 0
M  V30 15389 N 1464.8 0.627364 1.44575 0
M  V30 15390 C 1466.05 0.130094 2.01681 0
M  V30 15391 C 1466.37 -1.25112 1.49572 0
M  V30 15392 O 1465.64 -1.8305 0.697822 0
M  V30 15393 H 1464.22 0.0451032 0.745637 0
M  V30 15394 H 1466.88 0.813218 1.77124 0
M  V30 15395 H 1465.97 0.0949131 3.11956 0
M  V30 15396 N 1466.28 -1.53251 0.367684 0
M  V30 15397 C 1467.52 -2.01585 -0.221679 0
M  V30 15398 C 1467.85 -1.25444 -1.48248 0
M  V30 15399 O 1467.13 -0.348726 -1.91348 0
M  V30 15400 C 1467.41 -3.56449 -0.511507 0
M  V30 15401 C 1467.27 -4.4328 0.763075 0
M  V30 15402 C 1468.58 -4.20113 -1.31121 0
M  V30 15403 H 1465.7 -0.732743 -0.0790954 0
M  V30 15404 H 1468.35 -1.83493 0.492991 0
M  V30 15405 H 1466.5 -3.71996 -1.12033 0
M  V30 15406 H 1468.17 -4.39526 1.40052 0
M  V30 15407 H 1466.41 -4.11164 1.38299 0
M  V30 15408 H 1467.08 -5.4959 0.515215 0
M  V30 15409 H 1469.56 -4.08412 -0.796169 0
M  V30 15410 H 1468.43 -5.28494 -1.48274 0
M  V30 15411 H 1468.69 -3.76316 -2.32032 0
M  V30 15412 N 1467.75 -0.0969077 -1.57302 0
M  V30 15413 C 1469.16 0.431942 -1.81635 0
M  V30 15414 C 1469.52 1.68047 -1.01264 0
M  V30 15415 O 1468.64 2.15036 -0.24256 0
M  V30 15416 C 1469.24 0.790426 -3.29451 0
M  V30 15417 C 1467.79 1.26401 -3.54542 0
M  V30 15418 C 1466.94 0.26158 -2.76063 0
M  V30 15419 H 1469.89 -0.322328 -1.55392 0
M  V30 15420 H 1469.91 1.64981 -3.42873 0
M  V30 15421 H 1469.43 -0.118463 -3.87919 0
M  V30 15422 H 1467.53 2.19055 -3.01406 0
M  V30 15423 H 1467.64 1.22459 -4.63185 0
M  V30 15424 H 1466 0.7441 -2.43588 0
M  V30 15425 H 1466.79 -0.640018 -3.37281 0
M  V30 15426 N 1469.23 1.56605 0.176793 0
M  V30 15427 C 1470.48 1.81682 0.894302 0
M  V30 15428 C 1470.81 0.67311 1.82481 0
M  V30 15429 O 1470.06 -0.339995 1.92724 0
M  V30 15430 C 1470.36 3.12888 1.7273 0
M  V30 15431 C 1470.03 4.40861 0.946186 0
M  V30 15432 C 1468.69 4.75622 0.730586 0
M  V30 15433 C 1471.04 5.19679 0.397889 0
M  V30 15434 C 1468.37 5.86683 -0.0444995 0
M  V30 15435 C 1470.72 6.31551 -0.36408 0
M  V30 15436 C 1469.38 6.64883 -0.59053 0
M  V30 15437 H 1468.65 0.664823 0.327248 0
M  V30 15438 H 1471.3 1.90834 0.159555 0
M  V30 15439 H 1469.61 2.99055 2.53128 0
M  V30 15440 H 1471.3 3.295 2.2854 0
M  V30 15441 H 1467.89 4.13592 1.12426 0
M  V30 15442 H 1472.08 4.93223 0.55181 0
M  V30 15443 H 1467.33 6.10968 -0.229739 0
M  V30 15444 H 1471.51 6.91833 -0.796223 0
M  V30 15445 H 1469.13 7.50781 -1.19301 0
M  V30 15446 N 1470.71 -0.445159 1.51182 0
M  V30 15447 C 1471.95 -1.2048 1.65118 0
M  V30 15448 C 1472.31 -1.88673 0.35589 0
M  V30 15449 O 1473.51 -2.66228 0.370932 0
M  V30 15450 C 1471.79 -2.20075 2.81606 0
M  V30 15451 S 1473.34 -3.04631 3.15825 0
M  V30 15452 H 1470.16 -0.408682 0.581807 0
M  V30 15453 H 1472.76 -0.497601 1.89061 0
M  V30 15454 H 1471.47 -1.68603 3.74167 0
M  V30 15455 H 1471 -2.95387 2.59827 0
M  V30 15456 H 1473.01 -4.21606 2.61654 0
M  V30 15457 N 1472.19 -1.41197 -0.700089 0
M  V30 15458 C 1473.42 -1.43449 -1.4868 0
M  V30 15459 C 1473.83 -0.0368799 -1.89164 0
M  V30 15460 O 1473.17 0.953129 -1.57039 0
M  V30 15461 C 1473.23 -2.27583 -2.78291 0
M  V30 15462 C 1472.89 -3.75805 -2.60038 0
M  V30 15463 C 1473.89 -4.68074 -2.2628 0
M  V30 15464 C 1471.58 -4.19796 -2.75819 0
M  V30 15465 C 1473.57 -6.02322 -2.08535 0
M  V30 15466 C 1471.26 -5.5411 -2.57692 0
M  V30 15467 C 1472.26 -6.45189 -2.24099 0
M  V30 15468 O 1471.94 -7.77025 -2.06125 0
M  V30 15469 H 1471.68 -0.490779 -0.464879 0
M  V30 15470 H 1474.23 -1.86071 -0.869864 0
M  V30 15471 H 1472.46 -1.79767 -3.42375 0
M  V30 15472 H 1474.15 -2.21591 -3.40077 0
M  V30 15473 H 1474.91 -4.35379 -2.13707 0
M  V30 15474 H 1470.79 -3.49213 -3.0095 0
M  V30 15475 H 1474.34 -6.73376 -1.82238 0
M  V30 15476 H 1470.23 -5.86386 -2.69854 0
M  V30 15477 H 1471 -7.88121 -2.20924 0
M  V30 15478 N 1473.67 0.933891 -1.2695 0
M  V30 15479 C 1474.91 1.68091 -1.12924 0
M  V30 15480 C 1475.24 1.91747 0.326088 0
M  V30 15481 O 1474.5 1.50126 1.25541 0
M  V30 15482 C 1474.79 3.05706 -1.85145 0
M  V30 15483 C 1474.46 3.01781 -3.35021 0
M  V30 15484 C 1473.12 3.00417 -3.75903 0
M  V30 15485 C 1475.47 2.93537 -4.3068 0
M  V30 15486 C 1472.8 2.88585 -5.10818 0
M  V30 15487 C 1475.15 2.83246 -5.65645 0
M  V30 15488 C 1473.82 2.80229 -6.05828 0
M  V30 15489 H 1473.09 0.615087 -0.413217 0
M  V30 15490 H 1475.74 1.08957 -1.57482 0
M  V30 15491 H 1474.04 3.68508 -1.33077 0
M  V30 15492 H 1475.74 3.62369 -1.71726 0
M  V30 15493 H 1472.33 3.03626 -3.02505 0
M  V30 15494 H 1476.51 2.93693 -4.00073 0
M  V30 15495 H 1471.77 2.84632 -5.41105 0
M  V30 15496 H 1475.94 2.75832 -6.39445 0
M  V30 15497 H 1473.57 2.70818 -7.10325 0
M  V30 15498 N 1475.14 1.08871 1.13951 0
M  V30 15499 C 1476.39 0.822504 1.85372 0
M  V30 15500 C 1476.72 -0.650183 1.82993 0
M  V30 15501 O 1476 -1.4783 1.26398 0
M  V30 15502 C 1476.28 1.35107 3.33793 0
M  V30 15503 C 1476.13 2.88945 3.44719 0
M  V30 15504 C 1477.45 0.980203 4.29045 0
M  V30 15505 H 1474.57 0.300255 0.673065 0
M  V30 15506 H 1477.21 1.34914 1.33784 0
M  V30 15507 H 1475.36 0.903108 3.77857 0
M  V30 15508 H 1477.04 3.42148 3.09407 0
M  V30 15509 H 1475.28 3.26365 2.85777 0
M  V30 15510 H 1475.95 3.21004 4.49066 0
M  V30 15511 H 1478.43 1.36646 3.93023 0
M  V30 15512 H 1477.3 1.37717 5.31343 0
M  V30 15513 H 1477.56 -0.112253 4.41957 0
M  V30 15514 N 1476.62 -1.31073 0.875073 0
M  V30 15515 C 1477.57 -2.30335 0.3238 0
M  V30 15516 C 1478.56 -1.5974 -0.563869 0
M  V30 15517 O 1479.77 -1.743 -0.449402 0
M  V30 15518 H 1476.14 -0.747062 0.0860376 0
M  V30 15519 H 1478.12 -2.743 1.17483 0
M  V30 15520 C 1476.86 -3.44705 -0.455348 0
M  V30 15521 H 1476.19 -3.99203 0.218433 0
M  V30 15522 H 1477.63 -4.16262 -0.806329 0
M  V30 15523 C 1476.09 -2.93807 -1.6486 0
M  V30 15524 O 1476.62 -2.93004 -2.74794 0
M  V30 15525 N 1474.82 -2.49944 -1.48244 0
M  V30 15526 H 1474.37 -2.50797 -0.588116 0
M  V30 15527 H 1474.33 -2.16245 -2.28222 0
M  V30 15528 N 1478.1 -0.635022 -1.4424 0
M  V30 15529 C 1479.38 -0.0718064 -1.95468 0
M  V30 15530 C 1479.76 1.40348 -1.57689 0
M  V30 15531 O 1479.11 2.11986 -0.852888 0
M  V30 15532 C 1479.32 -0.298793 -3.47719 0
M  V30 15533 C 1480.66 -0.194056 -4.24156 0
M  V30 15534 O 1481.69 -0.230368 -3.55454 0
M  V30 15535 O 1480.55 -0.102294 -5.46404 0
M  V30 15536 H 1477.64 0.0200784 -0.826756 0
M  V30 15537 H 1480.19 -0.706996 -1.54271 0
M  V30 15538 H 1478.96 -1.32233 -3.6828 0
M  V30 15539 H 1478.58 0.370347 -3.95871 0
M  V30 15540 N 1479.58 1.53054 -0.375806 0
M  V30 15541 C 1480.51 2.28973 0.45754 0
M  V30 15542 C 1481.49 1.31812 1.07516 0
M  V30 15543 O 1482.67 1.60693 1.09048 0
M  V30 15544 C 1479.8 3.08657 1.59212 0
M  V30 15545 C 1478.76 4.1359 1.10123 0
M  V30 15546 C 1478.08 4.81417 2.32684 0
M  V30 15547 C 1479.38 5.21994 0.17872 0
M  V30 15548 H 1481.08 2.98883 -0.175872 0
M  V30 15549 H 1478.62 1.43743 -0.0860253 0
M  V30 15550 H 1480.58 3.6052 2.18182 0
M  V30 15551 H 1479.3 2.36456 2.25291 0
M  V30 15552 H 1477.96 3.62688 0.534151 0
M  V30 15553 H 1477.61 4.05778 2.97243 0
M  V30 15554 H 1477.31 5.52332 2.00506 0
M  V30 15555 H 1478.83 5.36079 2.92322 0
M  V30 15556 H 1480.25 5.69298 0.676204 0
M  V30 15557 H 1478.64 6.00077 -0.0526605 0
M  V30 15558 H 1479.71 4.78646 -0.776246 0
M  V30 15559 N 1481.06 0.105248 1.57248 0
M  V30 15560 C 1482.29 -0.563339 1.98771 0
M  V30 15561 C 1482.69 -1.6163 0.98348 0
M  V30 15562 O 1482.04 -1.83669 -0.0337474 0
M  V30 15563 C 1482.1 -1.26026 3.36686 0
M  V30 15564 C 1481.76 -0.356865 4.55605 0
M  V30 15565 C 1482.76 0.399055 5.18366 0
M  V30 15566 C 1480.45 -0.271954 5.01563 0
M  V30 15567 C 1482.44 1.22776 6.25464 0
M  V30 15568 C 1480.13 0.560395 6.08525 0
M  V30 15569 C 1481.12 1.30889 6.70341 0
M  V30 15570 O 1480.81 2.12745 7.75239 0
M  V30 15571 H 1480.54 -0.154882 0.658018 0
M  V30 15572 H 1483.1 0.184266 2.04572 0
M  V30 15573 H 1481.33 -2.05465 3.27599 0
M  V30 15574 H 1483.02 -1.82439 3.62589 0
M  V30 15575 H 1483.78 0.343247 4.83784 0
M  V30 15576 H 1479.66 -0.844224 4.53204 0
M  V30 15577 H 1483.21 1.81248 6.73643 0
M  V30 15578 H 1479.1 0.617647 6.42538 0
M  V30 15579 H 1479.87 2.05537 7.92273 0
M  V30 15580 N 1482.53 -1.56697 -0.168486 0
M  V30 15581 C 1483.76 -1.86652 -0.904195 0
M  V30 15582 C 1484.18 -0.691906 -1.74912 0
M  V30 15583 O 1483.54 0.358971 -1.77711 0
M  V30 15584 C 1483.59 -3.15043 -1.75442 0
M  V30 15585 O 1482.69 -2.97466 -2.85636 0
M  V30 15586 H 1482.04 -0.613859 -0.253128 0
M  V30 15587 H 1484.57 -2.03927 -0.165773 0
M  V30 15588 H 1484.58 -3.4652 -2.15378 0
M  V30 15589 H 1483.25 -4.00147 -1.13381 0
M  V30 15590 H 1481.83 -2.7735 -2.49262 0
M  V30 15591 N 1484.01 0.437135 -1.51416 0
M  V30 15592 C 1485.26 1.18831 -1.64338 0
M  V30 15593 C 1485.59 1.9086 -0.358638 0
M  V30 15594 O 1484.87 1.83607 0.641769 0
M  V30 15595 C 1485.15 2.20515 -2.84685 0
M  V30 15596 C 1485 1.52568 -4.23135 0
M  V30 15597 C 1486.32 3.21494 -3.00549 0
M  V30 15598 H 1483.44 0.430652 -0.598087 0
M  V30 15599 H 1486.08 0.47753 -1.83901 0
M  V30 15600 H 1484.23 2.81132 -2.68136 0
M  V30 15601 H 1485.9 0.952851 -4.51352 0
M  V30 15602 H 1484.15 0.828025 -4.25824 0
M  V30 15603 H 1484.82 2.26623 -5.03335 0
M  V30 15604 H 1487.29 2.7093 -3.1581 0
M  V30 15605 H 1486.17 3.89934 -3.86319 0
M  V30 15606 H 1486.43 3.8761 -2.12629 0
M  V30 15607 N 1485.49 1.41566 0.692592 0
M  V30 15608 C 1486.72 1.44646 1.48635 0
M  V30 15609 C 1487.14 0.0541597 1.88022 0
M  V30 15610 O 1486.5 -0.943305 1.54827 0
M  V30 15611 C 1486.55 2.3636 2.72335 0
M  V30 15612 O 1485.65 1.8227 3.69934 0
M  V30 15613 H 1484.99 0.490791 0.447236 0
M  V30 15614 H 1487.52 1.8606 0.851056 0
M  V30 15615 H 1487.53 2.52337 3.20609 0
M  V30 15616 H 1486.21 3.37523 2.43004 0
M  V30 15617 H 1484.78 1.75759 3.28882 0
M  V30 15618 N 1486.97 -0.927146 1.27443 0
M  V30 15619 C 1488.25 -1.65322 1.04538 0
M  V30 15620 C 1488.63 -2.06886 -0.419694 0
M  V30 15621 O 1487.97 -1.80352 -1.40304 0
M  V30 15622 C 1488.18 -2.85486 2.00746 0
M  V30 15623 C 1489.53 -3.56816 2.30147 0
M  V30 15624 O 1490.56 -2.95613 1.98724 0
M  V30 15625 O 1489.41 -4.67085 2.83714 0
M  V30 15626 H 1486.51 -0.724627 0.398554 0
M  V30 15627 H 1489.05 -0.977633 1.3871 0
M  V30 15628 H 1487.83 -2.51766 2.99549 0
M  V30 15629 H 1487.45 -3.60763 1.67139 0
M  V30 15630 N 1488.45 -1.09474 -1.13372 0
M  V30 15631 C 1489.69 -0.832323 -1.84933 0
M  V30 15632 C 1490.03 0.640469 -1.83335 0
M  V30 15633 O 1489.3 1.47158 -1.2718 0
M  V30 15634 C 1489.58 -1.36876 -3.33072 0
M  V30 15635 C 1489.44 -2.90769 -3.43181 0
M  V30 15636 C 1490.76 -1.00294 -4.2852 0
M  V30 15637 H 1487.87 -0.30382 -0.671463 0
M  V30 15638 H 1490.52 -1.35622 -1.33066 0
M  V30 15639 H 1488.67 -0.923134 -3.77373 0
M  V30 15640 H 1490.34 -3.43784 -3.07588 0
M  V30 15641 H 1488.58 -3.27876 -2.84042 0
M  V30 15642 H 1489.25 -3.23381 -4.47358 0
M  V30 15643 H 1491.73 -1.38729 -3.92293 0
M  V30 15644 H 1490.6 -1.40533 -5.30605 0
M  V30 15645 H 1490.87 0.0888133 -4.42011 0
M  V30 15646 N 1489.92 1.30607 -0.882012 0
M  V30 15647 C 1490.86 2.27177 -0.303861 0
M  V30 15648 C 1491.87 1.53587 0.539898 0
M  V30 15649 O 1493.06 1.74833 0.359931 0
M  V30 15650 C 1490.16 3.33781 0.586828 0
M  V30 15651 C 1489.33 4.3681 -0.227197 0
M  V30 15652 C 1488.39 5.22842 0.593519 0
M  V30 15653 O 1487.42 5.69197 0.0172694 0
M  V30 15654 N 1488.62 5.48414 1.90321 0
M  V30 15655 H 1491.38 2.77426 -1.13378 0
M  V30 15656 H 1488.94 1.43756 -0.744698 0
M  V30 15657 H 1490.94 3.88257 1.14186 0
M  V30 15658 H 1489.51 2.83483 1.31743 0
M  V30 15659 H 1488.73 3.82239 -0.963674 0
M  V30 15660 H 1490.01 5.02703 -0.785315 0
M  V30 15661 H 1489.41 5.1253 2.39435 0
M  V30 15662 H 1487.97 6.05778 2.40575 0
M  V30 15663 N 1491.4 0.642663 1.43901 0
M  V30 15664 C 1492.63 0.158971 2.05987 0
M  V30 15665 C 1493.04 -1.17635 1.48184 0
M  V30 15666 O 1492.38 -1.73499 0.603634 0
M  V30 15667 C 1492.45 -0.0178946 3.59496 0
M  V30 15668 C 1492.11 1.24107 4.39826 0
M  V30 15669 C 1493.11 2.16742 4.72566 0
M  V30 15670 C 1490.79 1.47971 4.8001 0
M  V30 15671 C 1492.79 3.31541 5.44389 0
M  V30 15672 C 1490.47 2.63065 5.5158 0
M  V30 15673 C 1491.47 3.54676 5.8369 0
M  V30 15674 O 1491.16 4.67763 6.53799 0
M  V30 15675 H 1490.89 0.0822826 0.670974 0
M  V30 15676 H 1493.44 0.880492 1.85571 0
M  V30 15677 H 1491.67 -0.79468 3.78446 0
M  V30 15678 H 1493.36 -0.457601 4.03312 0
M  V30 15679 H 1494.13 1.99543 4.42049 0
M  V30 15680 H 1490.01 0.775488 4.54431 0
M  V30 15681 H 1493.55 4.03069 5.69369 0
M  V30 15682 H 1489.45 2.80202 5.81513 0
M  V30 15683 H 1490.22 4.66892 6.72275 0
M  V30 15684 N 1492.88 -1.52852 0.383918 0
M  V30 15685 C 1493.83 -2.27828 -0.468762 0
M  V30 15686 C 1494.82 -1.31516 -1.0677 0
M  V30 15687 O 1496.03 -1.49075 -1.0088 0
M  V30 15688 H 1492.4 -0.732552 -0.169917 0
M  V30 15689 H 1494.38 -2.97825 0.185124 0
M  V30 15690 C 1493.12 -3.09378 -1.58683 0
M  V30 15691 H 1492.45 -3.83343 -1.13527 0
M  V30 15692 H 1493.89 -3.64987 -2.15779 0
M  V30 15693 C 1492.35 -2.21354 -2.53976 0
M  V30 15694 O 1492.88 -1.83668 -3.57252 0
M  V30 15695 N 1491.08 -1.85621 -2.23591 0
M  V30 15696 H 1490.63 -2.16467 -1.39642 0
M  V30 15697 H 1490.59 -1.27015 -2.87602 0
M  V30 15698 N 1494.36 -0.113586 -1.5719 0
M  V30 15699 C 1495.58 0.556928 -1.99783 0
M  V30 15700 C 1496.01 1.59774 -0.992669 0
M  V30 15701 O 1495.37 1.81263 0.0363821 0
M  V30 15702 C 1495.42 1.16463 -3.41275 0
M  V30 15703 O 1494.52 2.28024 -3.43626 0
M  V30 15704 H 1493.86 0.139628 -0.649153 0
M  V30 15705 H 1496.39 -0.200462 -2.03616 0
M  V30 15706 H 1496.4 1.50147 -3.79368 0
M  V30 15707 H 1495.08 0.402232 -4.1395 0
M  V30 15708 H 1493.65 1.9582 -3.17347 0
M  V30 15709 N 1495.84 1.56784 0.160173 0
M  V30 15710 C 1496.79 1.9368 1.203 0
M  V30 15711 C 1497.77 0.806435 1.39232 0
M  V30 15712 O 1498.96 1.06975 1.41015 0
M  V30 15713 C 1496.09 2.30972 2.53982 0
M  V30 15714 C 1495.18 3.50549 2.38697 0
M  V30 15715 N 1495.57 4.6747 1.93145 0
M  V30 15716 C 1493.87 3.55375 2.6949 0
M  V30 15717 C 1494.57 5.49591 1.9059 0
M  V30 15718 N 1493.54 4.90938 2.33412 0
M  V30 15719 H 1497.35 2.8156 0.842691 0
M  V30 15720 H 1494.86 1.58167 0.368351 0
M  V30 15721 H 1496.86 2.55604 3.29351 0
M  V30 15722 H 1495.52 1.44437 2.90806 0
M  V30 15723 H 1496.53 4.91477 1.63312 0
M  V30 15724 H 1493.21 2.79346 3.10277 0
M  V30 15725 H 1494.6 6.53306 1.56976 0
M  V30 15726 N 1497.32 -0.429099 1.51646 0
M  V30 15727 C 1498.56 -1.17551 1.64396 0
M  V30 15728 C 1498.88 -1.91526 0.366444 0
M  V30 15729 O 1498.15 -1.85896 -0.618013 0
M  V30 15730 H 1496.73 -0.436918 0.605898 0
M  V30 15731 H 1499.4 -0.491159 1.8861 0
M  V30 15732 H 1498.49 -1.90057 2.47557 0
M  V30 15733 N 1498.79 -1.41931 -0.685074 0
M  V30 15734 C 1499.76 -1.44315 -1.78061 0
M  V30 15735 C 1500.76 -0.332215 -1.57331 0
M  V30 15736 O 1501.95 -0.59258 -1.63811 0
M  V30 15737 C 1499.08 -1.26479 -3.16569 0
M  V30 15738 H 1500.27 -2.4185 -1.77337 0
M  V30 15739 H 1497.82 -1.28228 -0.893721 0
M  V30 15740 H 1498.56 -0.298259 -3.22926 0
M  V30 15741 H 1498.34 -2.06981 -3.33018 0
M  V30 15742 H 1499.83 -1.31006 -3.96519 0
M  V30 15743 N 1500.27 0.920374 -1.27933 0
M  V30 15744 C 1501.5 1.70275 -1.17533 0
M  V30 15745 C 1501.91 1.86904 0.266903 0
M  V30 15746 O 1501.27 1.39131 1.18105 0
M  V30 15747 C 1501.32 3.09847 -1.86219 0
M  V30 15748 O 1501.04 2.93992 -3.24808 0
M  V30 15749 C 1502.54 4.042 -1.82037 0
M  V30 15750 H 1499.76 0.53248 -0.408297 0
M  V30 15751 H 1502.31 1.1524 -1.68938 0
M  V30 15752 H 1500.46 3.61719 -1.38701 0
M  V30 15753 H 1500.88 3.82281 -3.59112 0
M  V30 15754 H 1502.35 4.99621 -2.34697 0
M  V30 15755 H 1502.83 4.32013 -0.791295 0
M  V30 15756 H 1503.43 3.58254 -2.29203 0
M  V30 15757 N 1501.75 1.10074 1.1279 0
M  V30 15758 C 1502.71 0.74967 2.16593 0
M  V30 15759 C 1503.71 -0.224046 1.59232 0
M  V30 15760 O 1504.9 -0.00137104 1.742 0
M  V30 15761 C 1502.03 0.109795 3.40723 0
M  V30 15762 H 1503.23 1.66906 2.49164 0
M  V30 15763 H 1500.78 0.900781 1.27733 0
M  V30 15764 H 1501.52 -0.820501 3.13749 0
M  V30 15765 H 1501.3 0.810517 3.83631 0
M  V30 15766 H 1502.79 -0.120198 4.17427 0
M  V30 15767 N 1503.23 -1.30138 0.888926 0
M  V30 15768 C 1504.5 -1.90831 0.42928 0
M  V30 15769 C 1504.88 -1.80765 -1.09028 0
M  V30 15770 O 1504.23 -1.22741 -1.92735 0
M  V30 15771 C 1504.44 -3.36331 0.931798 0
M  V30 15772 C 1505.79 -4.13393 0.969106 0
M  V30 15773 O 1506.81 -3.45191 0.878731 0
M  V30 15774 O 1505.67 -5.35249 1.10323 0
M  V30 15775 H 1502.77 -0.816401 0.131976 0
M  V30 15776 H 1505.31 -1.38678 0.978086 0
M  V30 15777 H 1504.09 -3.37761 1.97568 0
M  V30 15778 H 1503.71 -3.95945 0.362383 0
M  V30 15779 N 1504.71 -0.650285 -1.43559 0
M  V30 15780 C 1505.95 -0.159832 -2.01066 0
M  V30 15781 C 1506.27 1.23246 -1.51887 0
M  V30 15782 O 1507.47 1.81797 -2.01648 0
M  V30 15783 C 1505.93 -0.23494 -3.59132 0
M  V30 15784 C 1505.54 -1.62975 -4.17305 0
M  V30 15785 C 1507.28 0.198061 -4.24038 0
M  V30 15786 C 1505.19 -1.65894 -5.67656 0
M  V30 15787 H 1504.12 -0.0559899 -0.751918 0
M  V30 15788 H 1506.77 -0.811891 -1.64562 0
M  V30 15789 H 1505.15 0.484573 -3.93024 0
M  V30 15790 H 1506.33 -2.37438 -3.94918 0
M  V30 15791 H 1504.64 -2.00847 -3.64759 0
M  V30 15792 H 1507.24 0.196054 -5.3434 0
M  V30 15793 H 1507.58 1.22896 -3.97747 0
M  V30 15794 H 1508.11 -0.469602 -3.95018 0
M  V30 15795 H 1504.85 -2.66883 -5.9871 0
M  V30 15796 H 1504.37 -0.957519 -5.92108 0
M  V30 15797 H 1506.05 -1.40137 -6.31641 0
M  V30 15798 N 1506.18 1.52647 -0.392018 0
M  V30 15799 C 1507.41 2.06511 0.191815 0
M  V30 15800 C 1507.83 1.26162 1.39516 0
M  V30 15801 O 1507.19 0.287373 1.79008 0
M  V30 15802 C 1507.24 3.56571 0.537512 0
M  V30 15803 O 1506.34 3.78774 1.63106 0
M  V30 15804 H 1505.68 0.663647 0.0216546 0
M  V30 15805 H 1508.21 1.96779 -0.560274 0
M  V30 15806 H 1508.22 4.00059 0.801044 0
M  V30 15807 H 1506.9 4.14489 -0.342239 0
M  V30 15808 H 1505.48 3.47175 1.36103 0
M  V30 15809 N 1507.66 0.121921 1.57128 0
M  V30 15810 C 1508.59 -0.823788 2.18486 0
M  V30 15811 C 1509.57 -1.27519 1.12574 0
M  V30 15812 O 1510.76 -1.33727 1.40822 0
M  V30 15813 C 1507.89 -2.07284 2.78659 0
M  V30 15814 C 1506.84 -1.75912 3.90178 0
M  V30 15815 C 1506.17 -3.07871 4.37172 0
M  V30 15816 C 1507.47 -1.02517 5.1214 0
M  V30 15817 H 1509.16 -0.312488 2.97765 0
M  V30 15818 H 1506.71 -0.148862 1.43228 0
M  V30 15819 H 1508.66 -2.73903 3.20242 0
M  V30 15820 H 1507.39 -2.60743 1.96673 0
M  V30 15821 H 1506.04 -1.11681 3.49174 0
M  V30 15822 H 1505.69 -3.59271 3.52041 0
M  V30 15823 H 1505.39 -2.87653 5.12376 0
M  V30 15824 H 1506.92 -3.75604 4.81409 0
M  V30 15825 H 1508.33 -1.59295 5.50725 0
M  V30 15826 H 1506.73 -0.923836 5.92946 0
M  V30 15827 H 1507.8 -0.0124219 4.84898 0
M  V30 15828 N 1509.14 -1.56867 -0.151857 0
M  V30 15829 C 1510.09 -1.97899 -1.18763 0
M  V30 15830 C 1511.06 -0.845833 -1.42951 0
M  V30 15831 O 1512.24 -1.10751 -1.55367 0
M  V30 15832 C 1509.38 -2.36063 -2.5173 0
M  V30 15833 C 1508.5 -3.62647 -2.34757 0
M  V30 15834 C 1507.63 -3.89936 -3.60726 0
M  V30 15835 C 1506.67 -5.09806 -3.38769 0
M  V30 15836 N 1505.81 -5.33129 -4.56856 0
M  V30 15837 H 1510.65 -2.86187 -0.830713 0
M  V30 15838 H 1508.18 -1.41592 -0.398745 0
M  V30 15839 H 1510.14 -2.56218 -3.29254 0
M  V30 15840 H 1508.77 -1.50861 -2.85379 0
M  V30 15841 H 1507.82 -3.50297 -1.48312 0
M  V30 15842 H 1509.14 -4.50328 -2.1449 0
M  V30 15843 H 1508.29 -4.10563 -4.4668 0
M  V30 15844 H 1507.03 -3.00668 -3.83993 0
M  V30 15845 H 1506.03 -4.89057 -2.51203 0
M  V30 15846 H 1507.26 -6.00623 -3.16906 0
M  V30 15847 H 1505.2 -4.46815 -4.80305 0
M  V30 15848 H 1505.12 -6.1507 -4.39574 0
M  V30 15849 H 1506.39 -5.5825 -5.44038 0
M  V30 15850 N 1510.62 0.421051 -1.51871 0
M  V30 15851 C 1511.84 1.19568 -1.69465 0
M  V30 15852 C 1512.27 1.83835 -0.398269 0
M  V30 15853 O 1511.63 1.69508 0.643172 0
M  V30 15854 C 1511.67 2.24337 -2.82321 0
M  V30 15855 O 1510.78 3.30205 -2.47059 0
M  V30 15856 H 1510.12 0.349579 -0.564527 0
M  V30 15857 H 1512.65 0.495177 -1.98517 0
M  V30 15858 H 1512.66 2.6886 -3.06885 0
M  V30 15859 H 1511.33 1.76941 -3.76384 0
M  V30 15860 H 1509.91 2.91045 -2.33125 0
M  V30 15861 N 1512.1 1.42293 0.677538 0
M  V30 15862 C 1513.32 1.46214 1.47092 0
M  V30 15863 C 1513.75 0.0740989 1.87954 0
M  V30 15864 O 1513.1 -0.926831 1.55819 0
M  V30 15865 C 1513.15 2.39236 2.69812 0
M  V30 15866 O 1512.26 1.86183 3.6798 0
M  V30 15867 H 1511.6 0.495507 0.442006 0
M  V30 15868 H 1514.13 1.86952 0.831274 0
M  V30 15869 H 1514.14 2.55723 3.17915 0
M  V30 15870 H 1512.81 3.40081 2.39411 0
M  V30 15871 H 1511.39 1.79237 3.26999 0
M  V30 15872 N 1513.57 -0.913576 1.28419 0
M  V30 15873 C 1514.82 -1.66519 1.15755 0
M  V30 15874 C 1515.15 -1.91974 -0.293166 0
M  V30 15875 O 1514.43 -1.52025 -1.21321 0
M  V30 15876 C 1514.71 -3.02299 1.95672 0
M  V30 15877 C 1514.56 -2.83996 3.48807 0
M  V30 15878 C 1515.88 -4.02838 1.77226 0
M  V30 15879 H 1513 -0.604309 0.421877 0
M  V30 15880 H 1515.64 -1.05919 1.57737 0
M  V30 15881 H 1513.79 -3.54025 1.59995 0
M  V30 15882 H 1515.47 -2.39279 3.9439 0
M  V30 15883 H 1513.71 -2.19052 3.74431 0
M  V30 15884 H 1514.38 -3.80419 3.99982 0
M  V30 15885 H 1516.86 -3.60174 2.0836 0
M  V30 15886 H 1515.73 -4.95806 2.35515 0
M  V30 15887 H 1515.99 -4.36135 0.723804 0
M  V30 15888 N 1515.05 -1.1067 -1.12204 0
M  V30 15889 C 1516.28 -0.871601 -1.87314 0
M  V30 15890 C 1516.69 0.581644 -1.80038 0
M  V30 15891 O 1516.03 1.4129 -1.17401 0
M  V30 15892 C 1516.1 -1.24458 -3.37269 0
M  V30 15893 C 1515.76 -2.70536 -3.6832 0
M  V30 15894 C 1516.76 -3.68769 -3.66477 0
M  V30 15895 C 1514.44 -3.06982 -3.97577 0
M  V30 15896 C 1516.44 -5.01471 -3.93454 0
M  V30 15897 C 1514.12 -4.39871 -4.24213 0
M  V30 15898 C 1515.12 -5.36924 -4.22139 0
M  V30 15899 O 1514.81 -6.6742 -4.48113 0
M  V30 15900 H 1514.54 -0.312472 -0.599447 0
M  V30 15901 H 1517.09 -1.47562 -1.4288 0
M  V30 15902 H 1515.32 -0.583674 -3.8227 0
M  V30 15903 H 1517.01 -0.986569 -3.93728 0
M  V30 15904 H 1517.78 -3.41957 -3.43934 0
M  V30 15905 H 1513.66 -2.32062 -3.98332 0
M  V30 15906 H 1517.2 -5.77215 -3.9175 0
M  V30 15907 H 1513.1 -4.6642 -4.46231 0
M  V30 15908 H 1513.87 -6.73088 -4.6572 0
M  V30 15909 N 1516.53 1.29665 -0.895815 0
M  V30 15910 C 1517.49 2.26103 -0.3755 0
M  V30 15911 C 1518.49 1.53212 0.488126 0
M  V30 15912 O 1519.68 1.71706 0.293733 0
M  V30 15913 C 1516.82 3.37732 0.46364 0
M  V30 15914 H 1518.01 2.73643 -1.22718 0
M  V30 15915 H 1515.56 1.4104 -0.673613 0
M  V30 15916 H 1516.3 2.95526 1.33546 0
M  V30 15917 H 1516.08 3.91793 -0.155123 0
M  V30 15918 H 1517.57 4.09488 0.819112 0
M  V30 15919 N 1518.01 0.657889 1.43212 0
M  V30 15920 C 1518.96 -0.0427288 2.32561 0
M  V30 15921 C 1519.95 -0.808236 1.48875 0
M  V30 15922 O 1521.16 -0.718109 1.65055 0
M  V30 15923 H 1517.53 -0.0326049 0.751293 0
M  V30 15924 H 1519.5 0.728503 2.89371 0
M  V30 15925 C 1518.25 -0.99216 3.33244 0
M  V30 15926 H 1517.57 -0.412542 3.97666 0
M  V30 15927 H 1519.01 -1.45138 3.98385 0
M  V30 15928 C 1517.47 -2.09044 2.64201 0
M  V30 15929 O 1518 -3.17481 2.46107 0
M  V30 15930 N 1516.21 -1.85732 2.23499 0
M  V30 15931 H 1515.76 -0.975483 2.38416 0
M  V30 15932 H 1515.71 -2.5941 1.77634 0
M  V30 15933 N 1519.49 -1.52437 0.400108 0
M  V30 15934 C 1520.45 -2.2536 -0.417808 0
M  V30 15935 C 1521.45 -1.27393 -0.981204 0
M  V30 15936 O 1522.64 -1.51406 -0.861503 0
M  V30 15937 C 1519.77 -3.01695 -1.58724 0
M  V30 15938 H 1520.96 -2.99086 0.220782 0
M  V30 15939 H 1518.52 -1.55555 0.152439 0
M  V30 15940 H 1519.25 -2.32295 -2.26295 0
M  V30 15941 H 1519.04 -3.73611 -1.18984 0
M  V30 15942 H 1520.53 -3.57033 -2.16604 0
M  V30 15943 N 1520.96 -0.130252 -1.57061 0
M  V30 15944 C 1522.21 0.525006 -1.95576 0
M  V30 15945 C 1522.54 1.65964 -1.0142 0
M  V30 15946 O 1521.79 1.95659 -0.0401898 0
M  V30 15947 C 1522.09 1.08776 -3.40445 0
M  V30 15948 C 1521.76 0.0733062 -4.5084 0
M  V30 15949 C 1520.42 -0.20561 -4.80761 0
M  V30 15950 C 1522.77 -0.617428 -5.1753 0
M  V30 15951 C 1520.1 -1.18135 -5.74683 0
M  V30 15952 C 1522.45 -1.58188 -6.12503 0
M  V30 15953 C 1521.12 -1.86866 -6.4081 0
M  V30 15954 H 1520.39 0.192113 -0.715663 0
M  V30 15955 H 1523.03 -0.21354 -1.90306 0
M  V30 15956 H 1521.34 1.9033 -3.42464 0
M  V30 15957 H 1523.04 1.60305 -3.67564 0
M  V30 15958 H 1519.63 0.30088 -4.27543 0
M  V30 15959 H 1523.81 -0.415124 -4.94561 0
M  V30 15960 H 1519.07 -1.41017 -5.94915 0
M  V30 15961 H 1523.24 -2.12271 -6.6326 0
M  V30 15962 H 1520.87 -2.62628 -7.13394 0
M  V30 15963 N 1522.44 1.56945 0.143535 0
M  V30 15964 C 1523.85 1.72949 0.703249 0
M  V30 15965 C 1524.21 0.745193 1.81497 0
M  V30 15966 O 1523.33 -0.0874144 2.16223 0
M  V30 15967 C 1523.93 3.1359 1.28244 0
M  V30 15968 C 1522.48 3.31184 1.78869 0
M  V30 15969 C 1521.63 2.6887 0.678531 0
M  V30 15970 H 1524.58 1.58487 -0.0821664 0
M  V30 15971 H 1524.6 3.13782 2.15224 0
M  V30 15972 H 1524.12 3.85206 0.473087 0
M  V30 15973 H 1522.22 2.64571 2.6236 0
M  V30 15974 H 1522.33 4.39163 1.91502 0
M  V30 15975 H 1520.69 2.29432 1.10603 0
M  V30 15976 H 1521.48 3.43092 -0.119437 0
M  V30 15977 N 1523.92 -0.412991 1.52093 0
M  V30 15978 C 1525.15 -1.18667 1.70096 0
M  V30 15979 C 1525.57 -1.83622 0.408012 0
M  V30 15980 O 1524.93 -1.69847 -0.634174 0
M  V30 15981 C 1524.98 -2.22837 2.83507 0
M  V30 15982 O 1524.08 -3.2889 2.48807 0
M  V30 15983 H 1523.42 -0.346581 0.566373 0
M  V30 15984 H 1525.95 -0.484642 1.98777 0
M  V30 15985 H 1525.96 -2.67229 3.08306 0
M  V30 15986 H 1524.64 -1.74942 3.77317 0
M  V30 15987 H 1523.21 -2.89804 2.34665 0
M  V30 15988 N 1525.4 -1.4265 -0.669982 0
M  V30 15989 C 1526.63 -1.46784 -1.45816 0
M  V30 15990 C 1527.04 -0.080606 -1.88628 0
M  V30 15991 O 1526.4 0.905687 -1.58441 0
M  V30 15992 C 1526.45 -2.39915 -2.70413 0
M  V30 15993 O 1526.17 -3.73241 -2.29396 0
M  V30 15994 C 1527.67 -2.53118 -3.63931 0
M  V30 15995 H 1524.89 -0.499076 -0.448513 0
M  V30 15996 H 1527.44 -1.87216 -0.822819 0
M  V30 15997 H 1525.59 -2.02722 -3.30125 0
M  V30 15998 H 1526.01 -4.23164 -3.09891 0
M  V30 15999 H 1527.48 -3.22395 -4.48069 0
M  V30 16000 H 1527.96 -1.57062 -4.10156 0
M  V30 16001 H 1528.56 -2.91052 -3.10111 0
M  V30 16002 N 1526.88 0.906753 -1.28902 0
M  V30 16003 C 1528.29 1.47175 -1.14876 0
M  V30 16004 C 1528.64 1.94487 0.258693 0
M  V30 16005 O 1527.76 1.83088 1.15359 0
M  V30 16006 C 1528.36 2.67491 -2.07928 0
M  V30 16007 C 1526.92 3.20148 -1.97946 0
M  V30 16008 C 1526.07 1.92846 -1.99263 0
M  V30 16009 H 1529.02 0.718777 -1.4149 0
M  V30 16010 H 1529.04 3.42989 -1.64738 0
M  V30 16011 H 1528.55 2.33025 -3.10356 0
M  V30 16012 H 1526.65 3.59322 -0.985806 0
M  V30 16013 H 1526.76 3.84923 -2.85256 0
M  V30 16014 H 1525.13 2.10247 -1.43765 0
M  V30 16015 H 1525.91 1.60666 -3.03383 0
M  V30 16016 N 1528.36 1.11264 1.11616 0
M  V30 16017 C 1529.6 0.861639 1.83585 0
M  V30 16018 C 1529.93 -0.611221 1.8433 0
M  V30 16019 O 1529.21 -1.45116 1.29505 0
M  V30 16020 C 1529.49 1.42157 3.30852 0
M  V30 16021 C 1529.35 2.96192 3.38512 0
M  V30 16022 C 1530.66 1.07099 4.2687 0
M  V30 16023 H 1527.78 0.314464 0.666545 0
M  V30 16024 H 1530.43 1.37722 1.30892 0
M  V30 16025 H 1528.58 0.983054 3.75857 0
M  V30 16026 H 1530.25 3.48634 3.0208 0
M  V30 16027 H 1528.49 3.32353 2.7879 0
M  V30 16028 H 1529.16 3.30457 4.42156 0
M  V30 16029 H 1531.64 1.44952 3.90036 0
M  V30 16030 H 1530.51 1.48957 5.28302 0
M  V30 16031 H 1530.77 -0.018482 4.42096 0
M  V30 16032 N 1529.83 -1.29188 0.902679 0
M  V30 16033 C 1530.78 -2.29597 0.372585 0
M  V30 16034 C 1531.78 -1.609 -0.529858 0
M  V30 16035 O 1532.98 -1.75214 -0.41233 0
M  V30 16036 H 1529.36 -0.745069 0.101864 0
M  V30 16037 H 1531.33 -2.71746 1.23275 0
M  V30 16038 C 1530.08 -3.45594 -0.382128 0
M  V30 16039 H 1529.4 -3.9865 0.303061 0
M  V30 16040 H 1530.84 -4.17879 -0.717852 0
M  V30 16041 C 1529.3 -2.97238 -1.58591 0
M  V30 16042 O 1529.83 -2.98767 -2.68517 0
M  V30 16043 N 1528.03 -2.53032 -1.42909 0
M  V30 16044 H 1527.58 -2.51988 -0.534786 0
M  V30 16045 H 1527.54 -2.21038 -2.23584 0
M  V30 16046 N 1531.31 -0.665475 -1.42861 0
M  V30 16047 C 1532.72 -0.26225 -1.84849 0
M  V30 16048 C 1533.07 1.19372 -1.55707 0
M  V30 16049 O 1532.2 1.91269 -1.01218 0
M  V30 16050 C 1532.79 -0.469189 -3.35535 0
M  V30 16051 C 1531.35 -0.120172 -3.76208 0
M  V30 16052 C 1530.5 -0.766153 -2.66506 0
M  V30 16053 H 1533.45 -0.868296 -1.32839 0
M  V30 16054 H 1533.47 0.281571 -3.79457 0
M  V30 16055 H 1532.98 -1.52894 -3.56714 0
M  V30 16056 H 1531.08 0.936505 -3.60639 0
M  V30 16057 H 1531.2 -0.554188 -4.75884 0
M  V30 16058 H 1529.56 -0.198292 -2.53927 0
M  V30 16059 H 1530.34 -1.82918 -2.9051 0
M  V30 16060 N 1532.79 1.52222 -0.408187 0
M  V30 16061 C 1533.72 2.29892 0.408868 0
M  V30 16062 C 1534.7 1.34063 1.04695 0
M  V30 16063 O 1535.89 1.6297 1.05615 0
M  V30 16064 C 1533.02 3.11964 1.52629 0
M  V30 16065 C 1531.97 4.15833 1.01326 0
M  V30 16066 C 1531.3 4.86244 2.2242 0
M  V30 16067 C 1532.6 5.22256 0.0679573 0
M  V30 16068 H 1534.29 2.98443 -0.23923 0
M  V30 16069 H 1531.84 1.43528 -0.116496 0
M  V30 16070 H 1533.79 3.65067 2.10486 0
M  V30 16071 H 1532.51 2.41181 2.20225 0
M  V30 16072 H 1531.17 3.63739 0.4571 0
M  V30 16073 H 1530.82 4.11991 2.88569 0
M  V30 16074 H 1530.52 5.56461 1.88746 0
M  V30 16075 H 1532.04 5.42159 2.80885 0
M  V30 16076 H 1533.46 5.70604 0.555295 0
M  V30 16077 H 1531.85 5.9983 -0.179934 0
M  V30 16078 H 1532.92 4.76892 -0.877599 0
M  V30 16079 N 1534.27 0.138579 1.5699 0
M  V30 16080 C 1535.68 -0.217898 1.58106 0
M  V30 16081 C 1535.88 -1.65293 1.15241 0
M  V30 16082 O 1534.94 -2.37805 0.848815 0
M  V30 16083 C 1536.25 0.033211 3.00682 0
M  V30 16084 C 1537.8 -0.0311593 3.12984 0
M  V30 16085 C 1538.28 0.192508 4.57595 0
M  V30 16086 N 1539.77 0.139147 4.62991 0
M  V30 16087 C 1540.5 0.286837 5.72682 0
M  V30 16088 N 1540 0.491784 6.91052 0
M  V30 16089 N 1541.79 0.225032 5.61649 0
M  V30 16090 H 1533.94 1.07567 1.83148 0
M  V30 16091 H 1536.2 0.425143 0.847324 0
M  V30 16092 H 1535.91 1.02605 3.364 0
M  V30 16093 H 1535.78 -0.689972 3.70836 0
M  V30 16094 H 1538.17 -1.01454 2.77112 0
M  V30 16095 H 1538.25 0.724219 2.45334 0
M  V30 16096 H 1537.9 1.17295 4.9417 0
M  V30 16097 H 1537.83 -0.583092 5.23362 0
M  V30 16098 H 1540.32 -0.0149467 3.77897 0
M  V30 16099 H 1540.63 0.594813 7.70508 0
M  V30 16100 H 1538.98 0.528002 6.92991 0
M  V30 16101 H 1542.17 0.0657415 4.68054 0
M  V30 16102 H 1542.34 0.343569 6.47089 0
M  V30 16103 N 1535.75 -1.57019 -0.13521 0
M  V30 16104 C 1536.68 -2.02182 -1.16811 0
M  V30 16105 C 1537.66 -0.9034 -1.44127 0
M  V30 16106 O 1538.84 -1.17202 -1.54846 0
M  V30 16107 C 1535.97 -2.41243 -2.49838 0
M  V30 16108 C 1534.93 -3.56379 -2.37018 0
M  V30 16109 C 1534.25 -3.8129 -3.74863 0
M  V30 16110 C 1535.55 -4.88653 -1.84432 0
M  V30 16111 H 1537.25 -2.8872 -0.792529 0
M  V30 16112 H 1534.79 -1.38901 -0.379788 0
M  V30 16113 H 1536.74 -2.7144 -3.22332 0
M  V30 16114 H 1535.47 -1.51656 -2.89254 0
M  V30 16115 H 1534.13 -3.26366 -1.66975 0
M  V30 16116 H 1533.78 -2.88934 -4.11735 0
M  V30 16117 H 1533.48 -4.58781 -3.67143 0
M  V30 16118 H 1535 -4.13924 -4.48887 0
M  V30 16119 H 1536.41 -5.17492 -2.46729 0
M  V30 16120 H 1534.81 -5.70032 -1.87574 0
M  V30 16121 H 1535.88 -4.78242 -0.800759 0
M  V30 16122 N 1537.22 0.404919 -1.52309 0
M  V30 16123 C 1538.5 1.16473 -1.57142 0
M  V30 16124 C 1538.88 2.08094 -0.354967 0
M  V30 16125 O 1538.23 2.18825 0.65788 0
M  V30 16126 C 1538.44 1.93834 -2.90223 0
M  V30 16127 C 1539.79 2.49754 -3.43378 0
M  V30 16128 O 1540.81 2.04009 -2.91991 0
M  V30 16129 O 1539.67 3.33271 -4.3312 0
M  V30 16130 H 1536.76 0.532036 -0.633141 0
M  V30 16131 H 1539.31 0.411359 -1.64639 0
M  V30 16132 H 1538.08 1.2674 -3.70206 0
M  V30 16133 H 1537.71 2.76167 -2.86038 0
M  V30 16134 N 1538.7 1.43003 0.662408 0
M  V30 16135 C 1539.95 1.44346 1.4245 0
M  V30 16136 C 1540.28 0.064094 1.94094 0
M  V30 16137 O 1539.56 -0.913633 1.71706 0
M  V30 16138 C 1539.84 2.47822 2.61259 0
M  V30 16139 C 1539.69 3.94998 2.15166 0
M  V30 16140 C 1541.01 2.48139 3.63476 0
M  V30 16141 H 1538.13 0.525606 0.51663 0
M  V30 16142 H 1540.77 1.74495 0.751754 0
M  V30 16143 H 1538.92 2.22244 3.18653 0
M  V30 16144 H 1540.59 4.31601 1.62843 0
M  V30 16145 H 1538.84 4.0827 1.46622 0
M  V30 16146 H 1539.51 4.62998 3.00561 0
M  V30 16147 H 1541.98 2.70916 3.15823 0
M  V30 16148 H 1540.86 3.22498 4.44169 0
M  V30 16149 H 1541.12 1.51184 4.15447 0
M  V30 16150 N 1540.18 -0.899904 1.29381 0
M  V30 16151 C 1541.41 -1.68383 1.20227 0
M  V30 16152 C 1541.82 -1.87305 -0.237135 0
M  V30 16153 O 1541.18 -1.40992 -1.15877 0
M  V30 16154 C 1541.23 -3.06845 1.91124 0
M  V30 16155 O 1540.95 -2.88787 3.29444 0
M  V30 16156 C 1542.45 -4.01253 1.88444 0
M  V30 16157 H 1539.67 -0.525917 0.416717 0
M  V30 16158 H 1542.22 -1.12537 1.7075 0
M  V30 16159 H 1540.37 -3.59467 1.44438 0
M  V30 16160 H 1540.79 -3.7652 3.65148 0
M  V30 16161 H 1542.26 -4.95824 2.42616 0
M  V30 16162 H 1542.74 -4.30699 0.859925 0
M  V30 16163 H 1543.34 -3.54562 2.34874 0
M  V30 16164 N 1541.66 -1.11854 -1.11024 0
M  V30 16165 C 1542.89 -0.891419 -1.86379 0
M  V30 16166 C 1543.3 0.562516 -1.80644 0
M  V30 16167 O 1542.64 1.40037 -1.18893 0
M  V30 16168 C 1542.7 -1.28029 -3.3593 0
M  V30 16169 C 1542.37 -2.74427 -3.65429 0
M  V30 16170 C 1543.36 -3.72636 -3.62545 0
M  V30 16171 C 1541.05 -3.11182 -3.94298 0
M  V30 16172 C 1543.04 -5.05615 -3.88113 0
M  V30 16173 C 1540.73 -4.44345 -4.19524 0
M  V30 16174 C 1541.73 -5.41371 -4.16421 0
M  V30 16175 O 1541.41 -6.72135 -4.41009 0
M  V30 16176 H 1541.15 -0.318813 -0.596099 0
M  V30 16177 H 1543.7 -1.49069 -1.41307 0
M  V30 16178 H 1541.93 -0.624186 -3.81629 0
M  V30 16179 H 1543.62 -1.02827 -3.92659 0
M  V30 16180 H 1544.39 -3.45586 -3.40287 0
M  V30 16181 H 1540.26 -2.36274 -3.95848 0
M  V30 16182 H 1543.81 -5.81338 -3.85606 0
M  V30 16183 H 1539.71 -4.71127 -4.41259 0
M  V30 16184 H 1540.47 -6.77989 -4.58555 0
M  V30 16185 N 1543.14 1.28707 -0.909517 0
M  V30 16186 C 1544.09 2.25045 -0.365899 0
M  V30 16187 C 1545.07 1.5228 0.51959 0
M  V30 16188 O 1546.26 1.733 0.360004 0
M  V30 16189 C 1543.39 3.41 0.396725 0
M  V30 16190 C 1542.48 4.21092 -0.504243 0
M  V30 16191 N 1542.87 4.79293 -1.61592 0
M  V30 16192 C 1541.17 4.44964 -0.303843 0
M  V30 16193 C 1541.87 5.39516 -2.17481 0
M  V30 16194 N 1540.84 5.23442 -1.4666 0
M  V30 16195 H 1544.65 2.67611 -1.21497 0
M  V30 16196 H 1542.16 1.4343 -0.761686 0
M  V30 16197 H 1544.16 4.09094 0.80299 0
M  V30 16198 H 1542.82 2.99969 1.24294 0
M  V30 16199 H 1543.83 4.77785 -1.99856 0
M  V30 16200 H 1540.5 4.14456 0.503201 0
M  V30 16201 H 1541.89 5.95606 -3.10972 0
M  V30 16202 N 1544.61 0.673042 1.42506 0
M  V30 16203 C 1545.56 -0.00638067 2.30799 0
M  V30 16204 C 1546.53 -0.794524 1.45865 0
M  V30 16205 O 1547.72 -0.767129 1.74699 0
M  V30 16206 C 1544.86 -0.952923 3.31683 0
M  V30 16207 C 1543.97 -0.158787 4.31708 0
M  V30 16208 C 1543.1 -1.10092 5.19666 0
M  V30 16209 C 1542.14 -0.29837 6.11372 0
M  V30 16210 N 1541.28 -1.19312 6.91888 0
M  V30 16211 H 1546.12 0.75237 2.88346 0
M  V30 16212 H 1543.66 0.382763 1.42033 0
M  V30 16213 H 1545.62 -1.51552 3.887 0
M  V30 16214 H 1544.25 -1.67832 2.75739 0
M  V30 16215 H 1543.3 0.520406 3.76823 0
M  V30 16216 H 1544.61 0.464385 4.96634 0
M  V30 16217 H 1543.76 -1.7335 5.81407 0
M  V30 16218 H 1542.5 -1.75798 4.54914 0
M  V30 16219 H 1541.51 0.347437 5.48701 0
M  V30 16220 H 1542.73 0.354569 6.78174 0
M  V30 16221 H 1540.68 -1.83661 6.29765 0
M  V30 16222 H 1540.6 -0.624986 7.53412 0
M  V30 16223 H 1541.86 -1.81323 7.58118 0
M  V30 16224 N 1546.09 -1.52004 0.416254 0
M  V30 16225 C 1547.04 -2.28771 -0.420331 0
M  V30 16226 C 1548.03 -1.33751 -1.03957 0
M  V30 16227 O 1549.24 -1.51181 -0.976951 0
M  V30 16228 H 1545.62 -0.735991 -0.15434 0
M  V30 16229 H 1547.59 -2.97366 0.248255 0
M  V30 16230 C 1546.34 -3.12675 -1.52085 0
M  V30 16231 H 1545.66 -3.85665 -1.0537 0
M  V30 16232 H 1547.1 -3.69482 -2.07989 0
M  V30 16233 C 1545.56 -2.26692 -2.49224 0
M  V30 16234 O 1546.09 -1.91205 -3.53276 0
M  V30 16235 N 1544.29 -1.90322 -2.19604 0
M  V30 16236 H 1543.84 -2.1938 -1.35019 0
M  V30 16237 H 1543.8 -1.33086 -2.84843 0
M  V30 16238 N 1547.57 -0.146903 -1.56914 0
M  V30 16239 C 1548.48 0.805875 -2.20324 0
M  V30 16240 C 1549.5 1.27178 -1.18751 0
M  V30 16241 O 1550.67 1.32899 -1.51327 0
M  V30 16242 C 1547.74 2.02755 -2.81232 0
M  V30 16243 C 1546.8 1.61089 -3.97931 0
M  V30 16244 C 1546.03 2.77433 -4.55924 0
M  V30 16245 O 1546.25 3.93643 -4.12797 0
M  V30 16246 O 1545.19 2.52911 -5.46187 0
M  V30 16247 H 1549.01 0.296098 -3.02253 0
M  V30 16248 H 1546.6 0.0801175 -1.49185 0
M  V30 16249 H 1548.48 2.74252 -3.19944 0
M  V30 16250 H 1547.16 2.52686 -2.02316 0
M  V30 16251 H 1546.06 0.86616 -3.63935 0
M  V30 16252 H 1547.4 1.15874 -4.78366 0
M  V30 16253 N 1549.05 1.57088 0.126881 0
M  V30 16254 C 1549.98 1.94951 1.18614 0
M  V30 16255 C 1550.96 0.818067 1.40522 0
M  V30 16256 O 1552.14 1.07553 1.54805 0
M  V30 16257 C 1549.27 2.23893 2.54144 0
M  V30 16258 C 1548.32 3.46475 2.48712 0
M  V30 16259 S 1549.15 4.9934 1.93443 0
M  V30 16260 C 1550.31 5.31426 3.30662 0
M  V30 16261 H 1550.54 2.84492 0.863219 0
M  V30 16262 H 1548.07 1.50759 0.333323 0
M  V30 16263 H 1550.03 2.41247 3.3213 0
M  V30 16264 H 1548.69 1.3498 2.83618 0
M  V30 16265 H 1547.88 3.64067 3.48528 0
M  V30 16266 H 1547.49 3.28467 1.78844 0
M  V30 16267 H 1549.78 5.26125 4.26847 0
M  V30 16268 H 1550.72 6.32726 3.17905 0
M  V30 16269 H 1551.13 4.5891 3.28727 0
M  V30 16270 N 1550.53 -0.396836 1.52522 0
M  V30 16271 C 1551.46 -1.49088 1.79708 0
M  V30 16272 C 1552.44 -1.57246 0.648678 0
M  V30 16273 O 1553.62 -1.72321 0.895495 0
M  V30 16274 C 1550.75 -2.86785 1.95887 0
M  V30 16275 C 1549.71 -2.93472 3.11542 0
M  V30 16276 C 1549.03 -4.33542 3.12963 0
M  V30 16277 C 1550.33 -2.63832 4.50766 0
M  V30 16278 H 1552.03 -1.26588 2.71322 0
M  V30 16279 H 1549.57 -0.607535 1.30557 0
M  V30 16280 H 1551.53 -3.63319 2.13489 0
M  V30 16281 H 1550.25 -3.10605 1.00955 0
M  V30 16282 H 1548.91 -2.19384 2.93711 0
M  V30 16283 H 1548.56 -4.5439 2.15729 0
M  V30 16284 H 1548.26 -4.38938 3.9065 0
M  V30 16285 H 1549.78 -5.11993 3.32709 0
M  V30 16286 H 1551.19 -3.30086 4.68739 0
M  V30 16287 H 1549.59 -2.80589 5.30462 0
M  V30 16288 H 1550.66 -1.59209 4.58018 0
M  V30 16289 N 1552.01 -1.43353 -0.654814 0
M  V30 16290 C 1552.94 -1.44353 -1.7803 0
M  V30 16291 C 1553.95 -0.339872 -1.59213 0
M  V30 16292 O 1555.14 -0.604207 -1.67963 0
M  V30 16293 C 1552.24 -1.23913 -3.15434 0
M  V30 16294 C 1551.41 -2.47088 -3.60924 0
M  V30 16295 C 1550.47 -2.21896 -4.77126 0
M  V30 16296 O 1549.5 -2.95236 -4.86646 0
M  V30 16297 N 1550.7 -1.23459 -5.6722 0
M  V30 16298 H 1553.46 -2.41372 -1.77651 0
M  V30 16299 H 1551.03 -1.38488 -0.838603 0
M  V30 16300 H 1553.02 -1.04945 -3.90856 0
M  V30 16301 H 1551.59 -0.35346 -3.10595 0
M  V30 16302 H 1550.81 -2.81492 -2.75964 0
M  V30 16303 H 1552.1 -3.29066 -3.88064 0
M  V30 16304 H 1551.49 -0.6284 -5.62199 0
M  V30 16305 H 1550.05 -1.10474 -6.4237 0
M  V30 16306 N 1553.48 0.89303 -1.29857 0
M  V30 16307 C 1554.73 1.64413 -1.18214 0
M  V30 16308 C 1555.06 1.92687 0.26492 0
M  V30 16309 O 1554.31 1.54044 1.20702 0
M  V30 16310 C 1554.61 2.99661 -1.94777 0
M  V30 16311 C 1554.28 2.90969 -3.44453 0
M  V30 16312 C 1552.94 2.88306 -3.8527 0
M  V30 16313 C 1555.29 2.79686 -4.39801 0
M  V30 16314 C 1552.62 2.72188 -5.19741 0
M  V30 16315 C 1554.97 2.65107 -5.7437 0
M  V30 16316 C 1553.64 2.60814 -6.14437 0
M  V30 16317 H 1552.91 0.60163 -0.432577 0
M  V30 16318 H 1555.55 1.03891 -1.60869 0
M  V30 16319 H 1553.86 3.64087 -1.44733 0
M  V30 16320 H 1555.56 3.56722 -1.83168 0
M  V30 16321 H 1552.15 2.93848 -3.12012 0
M  V30 16322 H 1556.33 2.80816 -4.09214 0
M  V30 16323 H 1551.59 2.67273 -5.49886 0
M  V30 16324 H 1555.76 2.55349 -6.47897 0
M  V30 16325 H 1553.39 2.48082 -7.18582 0
M  V30 16326 N 1554.96 1.12442 1.10429 0
M  V30 16327 C 1555.91 0.792332 2.16773 0
M  V30 16328 C 1556.88 -0.240945 1.64343 0
M  V30 16329 O 1558.06 -0.115504 1.9045 0
M  V30 16330 C 1555.2 0.253166 3.4417 0
M  V30 16331 C 1554.32 1.34426 4.10553 0
M  V30 16332 C 1553.45 0.764527 5.2567 0
M  V30 16333 C 1552.49 1.83474 5.83955 0
M  V30 16334 N 1551.63 1.27372 6.9045 0
M  V30 16335 H 1556.47 1.7033 2.44524 0
M  V30 16336 H 1554 0.850418 1.20026 0
M  V30 16337 H 1555.96 -0.0774862 4.17128 0
M  V30 16338 H 1554.59 -0.620962 3.16771 0
M  V30 16339 H 1553.64 1.79169 3.35563 0
M  V30 16340 H 1554.96 2.15354 4.49916 0
M  V30 16341 H 1554.11 0.384548 6.0548 0
M  V30 16342 H 1552.85 -0.0759512 4.87641 0
M  V30 16343 H 1551.85 2.22391 5.02814 0
M  V30 16344 H 1553.08 2.67844 6.24048 0
M  V30 16345 H 1551.03 0.455069 6.5442 0
M  V30 16346 H 1550.94 2.01959 7.28525 0
M  V30 16347 H 1552.21 0.920975 7.7404 0
M  V30 16348 N 1556.44 -1.28223 0.91633 0
M  V30 16349 C 1557.69 -1.94149 0.546705 0
M  V30 16350 C 1558 -1.72904 -0.914529 0
M  V30 16351 O 1559.21 -2.33075 -1.39243 0
M  V30 16352 C 1557.66 -3.47759 0.92691 0
M  V30 16353 C 1557.27 -3.77779 2.40805 0
M  V30 16354 C 1559.02 -4.19829 0.627994 0
M  V30 16355 C 1556.92 -5.2471 2.72825 0
M  V30 16356 H 1555.85 -0.726787 0.200739 0
M  V30 16357 H 1558.5 -1.45694 1.1156 0
M  V30 16358 H 1556.89 -3.9496 0.286779 0
M  V30 16359 H 1558.06 -3.41377 3.09513 0
M  V30 16360 H 1556.37 -3.18887 2.67769 0
M  V30 16361 H 1558.97 -5.27999 0.843862 0
M  V30 16362 H 1559.31 -4.14028 -0.434315 0
M  V30 16363 H 1559.85 -3.78413 1.22671 0
M  V30 16364 H 1556.59 -5.35591 3.77919 0
M  V30 16365 H 1556.11 -5.623 2.08756 0
M  V30 16366 H 1557.79 -5.92475 2.59965 0
M  V30 16367 N 1557.92 -0.68059 -1.42147 0
M  V30 16368 C 1559.15 -0.213529 -2.05494 0
M  V30 16369 C 1559.56 1.13665 -1.51251 0
M  V30 16370 O 1558.9 1.71838 -0.649422 0
M  V30 16371 C 1558.96 -0.0774256 -3.59417 0
M  V30 16372 C 1558.62 -1.35724 -4.3638 0
M  V30 16373 C 1559.62 -2.29195 -4.66654 0
M  V30 16374 C 1557.31 -1.60645 -4.75918 0
M  V30 16375 C 1559.3 -3.45858 -5.35407 0
M  V30 16376 C 1556.99 -2.77597 -5.44411 0
M  V30 16377 C 1557.99 -3.70027 -5.74081 0
M  V30 16378 O 1557.67 -4.84933 -6.41167 0
M  V30 16379 H 1557.41 -0.100043 -0.668556 0
M  V30 16380 H 1559.96 -0.929384 -1.83171 0
M  V30 16381 H 1558.19 0.694062 -3.8042 0
M  V30 16382 H 1559.88 0.350509 -4.04384 0
M  V30 16383 H 1560.64 -2.11194 -4.36603 0
M  V30 16384 H 1556.52 -0.8957 -4.52215 0
M  V30 16385 H 1560.07 -4.18023 -5.58483 0
M  V30 16386 H 1555.96 -2.95521 -5.73879 0
M  V30 16387 H 1556.73 -4.84552 -6.5966 0
M  V30 16388 N 1559.4 1.51781 -0.424309 0
M  V30 16389 C 1560.67 1.94514 0.205791 0
M  V30 16390 C 1561.05 1.36219 1.61269 0
M  V30 16391 O 1560.4 0.544019 2.21929 0
M  V30 16392 C 1560.61 3.48445 0.196749 0
M  V30 16393 C 1561.96 4.22628 0.408702 0
M  V30 16394 O 1562.98 3.55133 0.275441 0
M  V30 16395 O 1561.84 5.42344 0.672698 0
M  V30 16396 H 1558.94 0.815576 0.136983 0
M  V30 16397 H 1561.48 1.6273 -0.481349 0
M  V30 16398 H 1560.25 3.83297 -0.787342 0
M  V30 16399 H 1559.88 3.86634 0.92735 0
M  V30 16400 N 1560.87 0.155222 1.56834 0
M  V30 16401 C 1562.28 -0.364232 1.83113 0
M  V30 16402 C 1562.64 -1.64173 1.07432 0
M  V30 16403 O 1561.76 -2.13988 0.322202 0
M  V30 16404 C 1562.36 -0.667608 3.32157 0
M  V30 16405 C 1560.91 -1.13156 3.58989 0
M  V30 16406 C 1560.06 -0.158941 2.76844 0
M  V30 16407 H 1563.01 0.379779 1.54089 0
M  V30 16408 H 1563.03 -1.52141 3.4876 0
M  V30 16409 H 1562.55 0.262355 3.87212 0
M  V30 16410 H 1560.65 -2.07717 3.09329 0
M  V30 16411 H 1560.76 -1.05184 4.67411 0
M  V30 16412 H 1559.12 -0.653181 2.46182 0
M  V30 16413 H 1559.91 0.764757 3.34674 0
M  V30 16414 N 1562.35 -1.57153 -0.118549 0
M  V30 16415 C 1563.3 -2.01357 -1.1644 0
M  V30 16416 C 1564.29 -0.910574 -1.42846 0
M  V30 16417 O 1565.5 -1.09578 -1.42803 0
M  V30 16418 H 1561.87 -0.641376 -0.392607 0
M  V30 16419 H 1563.85 -2.88425 -0.765087 0
M  V30 16420 C 1562.59 -2.43416 -2.48282 0
M  V30 16421 H 1561.92 -3.27857 -2.288 0
M  V30 16422 H 1563.36 -2.78143 -3.20019 0
M  V30 16423 C 1561.82 -1.29799 -3.10892 0
M  V30 16424 O 1562.35 -0.614207 -3.96977 0
M  V30 16425 N 1560.55 -1.05493 -2.70776 0
M  V30 16426 H 1560.1 -1.61276 -2.00868 0
M  V30 16427 H 1560.06 -0.296678 -3.12997 0
M  V30 16428 N 1563.83 0.388742 -1.5273 0
M  V30 16429 C 1564.78 1.47488 -1.77527 0
M  V30 16430 C 1565.75 1.54155 -0.618505 0
M  V30 16431 O 1566.93 1.70407 -0.858251 0
M  V30 16432 C 1564.07 2.84714 -1.95018 0
M  V30 16433 C 1563.18 2.87197 -3.2271 0
M  V30 16434 C 1562.32 4.15851 -3.30517 0
M  V30 16435 C 1561.36 4.12386 -4.52332 0
M  V30 16436 N 1560.5 5.32647 -4.57418 0
M  V30 16437 H 1565.34 1.25644 -2.70218 0
M  V30 16438 H 1562.87 0.609519 -1.33878 0
M  V30 16439 H 1564.83 3.64402 -2.03143 0
M  V30 16440 H 1563.46 3.05008 -1.05688 0
M  V30 16441 H 1562.51 1.99879 -3.23655 0
M  V30 16442 H 1563.82 2.80505 -4.12454 0
M  V30 16443 H 1562.98 5.03943 -3.37827 0
M  V30 16444 H 1561.72 4.25265 -2.38748 0
M  V30 16445 H 1560.72 3.22683 -4.45147 0
M  V30 16446 H 1561.95 4.04594 -5.45418 0
M  V30 16447 H 1559.89 5.42691 -3.68541 0
M  V30 16448 H 1559.81 5.28032 -5.41035 0
M  V30 16449 H 1561.08 6.22636 -4.68983 0
M  V30 16450 N 1565.31 1.43698 0.647203 0
M  V30 16451 C 1566.26 1.49599 1.78109 0
M  V30 16452 C 1567.25 0.369047 1.65331 0
M  V30 16453 O 1568.46 0.543303 1.71605 0
M  V30 16454 H 1564.83 0.46911 0.587741 0
M  V30 16455 H 1566.8 2.45064 1.70253 0
M  V30 16456 C 1565.55 1.44192 3.16392 0
M  V30 16457 H 1564.87 2.30216 3.26865 0
M  V30 16458 H 1566.31 1.52382 3.95671 0
M  V30 16459 C 1564.77 0.16036 3.36518 0
M  V30 16460 O 1565.3 -0.77593 3.94135 0
M  V30 16461 N 1563.51 0.0686236 2.90519 0
M  V30 16462 H 1563.06 0.831363 2.43816 0
M  V30 16463 H 1563.01 -0.78814 3.04361 0
M  V30 16464 N 1566.79 -0.886131 1.30328 0
M  V30 16465 C 1568.2 -1.16922 1.08634 0
M  V30 16466 C 1568.4 -2.00913 -0.15365 0
M  V30 16467 O 1567.46 -2.37849 -0.847592 0
M  V30 16468 C 1568.77 -1.87701 2.34923 0
M  V30 16469 C 1570.32 -2.0047 2.40376 0
M  V30 16470 C 1570.79 -2.74662 3.66504 0
M  V30 16471 N 1572.29 -2.82208 3.67305 0
M  V30 16472 C 1573.02 -3.40185 4.61586 0
M  V30 16473 N 1572.52 -3.99221 5.66211 0
M  V30 16474 N 1574.31 -3.37989 4.49132 0
M  V30 16475 H 1566.46 -0.326064 2.09882 0
M  V30 16476 H 1568.72 -0.206996 0.925125 0
M  V30 16477 H 1568.43 -1.33427 3.25408 0
M  V30 16478 H 1568.3 -2.88092 2.43481 0
M  V30 16479 H 1570.69 -2.53914 1.50371 0
M  V30 16480 H 1570.77 -0.991709 2.35794 0
M  V30 16481 H 1570.42 -2.2189 4.56867 0
M  V30 16482 H 1570.35 -3.76335 3.68347 0
M  V30 16483 H 1572.84 -2.40292 2.91665 0
M  V30 16484 H 1573.15 -4.41522 6.34254 0
M  V30 16485 H 1571.49 -3.97643 5.70004 0
M  V30 16486 H 1574.69 -2.91096 3.6658 0
M  V30 16487 H 1574.86 -3.82877 5.2279 0
M  V30 16488 N 1568.26 -1.13026 -1.09832 0
M  V30 16489 C 1569.49 -0.911137 -1.85423 0
M  V30 16490 C 1569.9 0.543325 -1.81231 0
M  V30 16491 O 1569.25 1.38768 -1.20371 0
M  V30 16492 C 1569.31 -1.31584 -3.34553 0
M  V30 16493 C 1568.97 -2.78288 -3.62498 0
M  V30 16494 C 1569.97 -3.7646 -3.58572 0
M  V30 16495 C 1567.65 -3.15346 -3.90976 0
M  V30 16496 C 1569.65 -5.09703 -3.82729 0
M  V30 16497 C 1567.33 -4.4877 -4.14788 0
M  V30 16498 C 1568.33 -5.45758 -4.10655 0
M  V30 16499 O 1568.02 -6.76775 -4.33856 0
M  V30 16500 H 1567.75 -0.325117 -0.592684 0
M  V30 16501 H 1570.31 -1.50559 -1.39718 0
M  V30 16502 H 1568.54 -0.664628 -3.80946 0
M  V30 16503 H 1570.23 -1.06986 -3.91547 0
M  V30 16504 H 1570.99 -3.49175 -3.36603 0
M  V30 16505 H 1566.87 -2.40459 -3.9332 0
M  V30 16506 H 1570.41 -5.85395 -3.79418 0
M  V30 16507 H 1566.31 -4.75781 -4.36237 0
M  V30 16508 H 1567.08 -6.82815 -4.51338 0
M  V30 16509 N 1569.74 1.27735 -0.923117 0
M  V30 16510 C 1570.65 2.30734 -0.424124 0
M  V30 16511 C 1571.67 1.66872 0.49291 0
M  V30 16512 O 1572.84 1.97843 0.37683 0
M  V30 16513 C 1569.91 3.45227 0.319254 0
M  V30 16514 C 1568.97 4.2462 -0.632137 0
M  V30 16515 C 1568.2 5.33646 0.0758596 0
M  V30 16516 O 1568.43 5.55481 1.29602 0
M  V30 16517 O 1567.36 5.98966 -0.593624 0
M  V30 16518 H 1571.19 2.75444 -1.27923 0
M  V30 16519 H 1568.77 1.32601 -0.688288 0
M  V30 16520 H 1570.65 4.14874 0.73873 0
M  V30 16521 H 1569.33 3.02582 1.15004 0
M  V30 16522 H 1568.24 3.57525 -1.1012 0
M  V30 16523 H 1569.57 4.70969 -1.43001 0
M  V30 16524 N 1571.22 0.688118 1.41784 0
M  V30 16525 C 1572.47 0.216263 2.01644 0
M  V30 16526 C 1572.8 -1.17861 1.54345 0
M  V30 16527 O 1572.07 -1.794 0.751392 0
M  V30 16528 C 1572.36 0.265663 3.59119 0
M  V30 16529 C 1572.21 1.69694 4.16562 0
M  V30 16530 C 1573.53 -0.378713 4.38468 0
M  V30 16531 H 1570.65 0.0800582 0.732639 0
M  V30 16532 H 1573.29 0.875428 1.68631 0
M  V30 16533 H 1571.44 -0.295588 3.87374 0
M  V30 16534 H 1573.11 2.31146 3.9921 0
M  V30 16535 H 1571.36 2.23345 3.71886 0
M  V30 16536 H 1572.03 1.68309 5.25715 0
M  V30 16537 H 1574.5 0.0991969 4.15982 0
M  V30 16538 H 1573.38 -0.31357 5.48004 0
M  V30 16539 H 1573.64 -1.45832 4.17355 0
M  V30 16540 N 1572.7 -1.51554 0.432352 0
M  V30 16541 C 1574.11 -1.86673 -0.0319274 0
M  V30 16542 C 1574.46 -1.34981 -1.42389 0
M  V30 16543 O 1573.59 -0.698556 -2.04815 0
M  V30 16544 C 1574.18 -3.38738 -0.0647127 0
M  V30 16545 C 1572.74 -3.73411 -0.47339 0
M  V30 16546 C 1571.89 -2.75242 0.337187 0
M  V30 16547 H 1574.84 -1.44849 0.648417 0
M  V30 16548 H 1574.86 -3.70297 -0.875239 0
M  V30 16549 H 1574.37 -3.76331 0.948507 0
M  V30 16550 H 1572.47 -3.41406 -1.4924 0
M  V30 16551 H 1572.58 -4.78675 -0.20165 0
M  V30 16552 H 1570.95 -2.53883 -0.203801 0
M  V30 16553 H 1571.73 -3.15677 1.34919 0
M  V30 16554 N 1574.18 -0.163538 -1.56749 0
M  V30 16555 C 1575.42 0.48412 -1.96937 0
M  V30 16556 C 1575.76 1.63418 -1.04919 0
M  V30 16557 O 1575.03 1.94269 -0.094783 0
M  V30 16558 C 1575.31 0.974532 -3.46663 0
M  V30 16559 C 1575.17 -0.175173 -4.49459 0
M  V30 16560 C 1576.49 1.85082 -3.9929 0
M  V30 16561 H 1573.6 0.174503 -0.716043 0
M  V30 16562 H 1576.25 -0.248103 -1.88373 0
M  V30 16563 H 1574.4 1.59849 -3.54091 0
M  V30 16564 H 1576.07 -0.812038 -4.54096 0
M  V30 16565 H 1574.31 -0.831853 -4.2575 0
M  V30 16566 H 1574.98 0.20996 -5.51601 0
M  V30 16567 H 1577.46 1.32488 -3.94444 0
M  V30 16568 H 1576.33 2.163 -5.04485 0
M  V30 16569 H 1576.6 2.79378 -3.42638 0
M  V30 16570 N 1575.65 1.57214 0.110213 0
M  V30 16571 C 1577.07 1.74402 0.666405 0
M  V30 16572 C 1577.42 0.783524 1.79876 0
M  V30 16573 O 1576.54 -0.0415306 2.1636 0
M  V30 16574 C 1577.14 3.1624 1.21564 0
M  V30 16575 C 1575.7 3.34904 1.71804 0
M  V30 16576 C 1574.84 2.70249 0.621347 0
M  V30 16577 H 1577.79 1.58277 -0.115765 0
M  V30 16578 H 1577.81 3.18276 2.0852 0
M  V30 16579 H 1577.33 3.86123 0.391273 0
M  V30 16580 H 1575.43 2.70077 2.56689 0
M  V30 16581 H 1575.54 4.43126 1.82143 0
M  V30 16582 H 1573.9 2.31727 1.05711 0
M  V30 16583 H 1574.69 3.42762 -0.192185 0
M  V30 16584 N 1577.13 -0.380637 1.52934 0
M  V30 16585 C 1578.06 -1.47174 1.81279 0
M  V30 16586 C 1579.04 -1.56549 0.665319 0
M  V30 16587 O 1580.23 -1.71362 0.913722 0
M  V30 16588 C 1577.36 -2.84691 1.98918 0
M  V30 16589 C 1576.31 -2.90151 3.14637 0
M  V30 16590 C 1575.64 -4.30198 3.17544 0
M  V30 16591 C 1576.94 -2.59037 4.53539 0
M  V30 16592 H 1578.63 -1.23703 2.7265 0
M  V30 16593 H 1576.18 -0.593654 1.31194 0
M  V30 16594 H 1578.13 -3.61034 2.1733 0
M  V30 16595 H 1576.86 -3.09517 1.04244 0
M  V30 16596 H 1575.51 -2.16257 2.96021 0
M  V30 16597 H 1575.16 -4.52076 2.20536 0
M  V30 16598 H 1574.86 -4.3477 3.95284 0
M  V30 16599 H 1576.39 -5.08435 3.38121 0
M  V30 16600 H 1577.8 -3.25096 4.72214 0
M  V30 16601 H 1576.2 -2.74946 5.33408 0
M  V30 16602 H 1577.27 -1.54342 4.59681 0
M  V30 16603 N 1578.61 -1.44039 -0.639573 0
M  V30 16604 C 1579.56 -1.50541 -1.77314 0
M  V30 16605 C 1580.55 -0.37781 -1.65133 0
M  V30 16606 O 1581.76 -0.552396 -1.71314 0
M  V30 16607 H 1578.13 -0.472221 -0.585245 0
M  V30 16608 H 1580.1 -2.45964 -1.68951 0
M  V30 16609 C 1578.85 -1.45868 -3.15623 0
M  V30 16610 H 1578.18 -2.31946 -3.25639 0
M  V30 16611 H 1579.62 -1.54479 -3.94857 0
M  V30 16612 C 1578.08 -0.178204 -3.36428 0
M  V30 16613 O 1578.61 0.755017 -3.94541 0
M  V30 16614 N 1576.81 -0.0840295 -2.90478 0
M  V30 16615 H 1576.36 -0.844281 -2.43371 0
M  V30 16616 H 1576.32 0.771988 -3.04775 0
M  V30 16617 N 1580.09 0.879207 -1.30796 0
M  V30 16618 C 1581.34 1.62625 -1.19315 0
M  V30 16619 C 1581.65 1.93999 0.249731 0
M  V30 16620 O 1582.86 2.67112 0.486129 0
M  V30 16621 C 1581.31 2.93129 -2.08815 0
M  V30 16622 C 1580.92 2.69272 -3.58045 0
M  V30 16623 C 1582.66 3.71105 -2.0611 0
M  V30 16624 C 1580.57 3.95628 -4.39582 0
M  V30 16625 H 1579.5 0.61015 -0.442981 0
M  V30 16626 H 1582.15 0.972892 -1.55586 0
M  V30 16627 H 1580.53 3.59789 -1.65432 0
M  V30 16628 H 1581.71 2.11078 -4.09613 0
M  V30 16629 H 1580.02 2.04664 -3.62632 0
M  V30 16630 H 1582.62 4.64824 -2.64277 0
M  V30 16631 H 1582.96 4.02946 -1.04597 0
M  V30 16632 H 1583.5 3.11315 -2.47644 0
M  V30 16633 H 1580.24 3.68943 -5.41813 0
M  V30 16634 H 1579.76 4.53307 -3.92775 0
M  V30 16635 H 1581.43 4.63597 -4.51317 0
M  V30 16636 N 1581.57 1.13606 1.09231 0
M  V30 16637 C 1582.98 0.91148 1.62938 0
M  V30 16638 C 1583.33 -0.55157 1.88287 0
M  V30 16639 O 1582.45 -1.4187 1.63407 0
M  V30 16640 C 1583.05 1.64812 2.96011 0
M  V30 16641 C 1581.61 1.46935 3.46536 0
M  V30 16642 C 1580.76 1.67605 2.20916 0
M  V30 16643 H 1583.71 1.28907 0.925669 0
M  V30 16644 H 1583.73 1.10638 3.6406 0
M  V30 16645 H 1583.24 2.71291 2.77529 0
M  V30 16646 H 1581.34 0.427667 3.70138 0
M  V30 16647 H 1581.45 2.23374 4.2384 0
M  V30 16648 H 1579.82 1.10105 2.29672 0
M  V30 16649 H 1580.6 2.75408 2.04952 0
M  V30 16650 N 1583.05 -1.27244 0.929878 0
M  V30 16651 C 1584.27 -1.98912 0.587277 0
M  V30 16652 C 1584.7 -1.68888 -0.828168 0
M  V30 16653 O 1584.05 -0.930394 -1.55606 0
M  V30 16654 C 1584.1 -3.51097 0.822399 0
M  V30 16655 O 1583.21 -4.12251 -0.110968 0
M  V30 16656 H 1582.55 -0.624404 0.225867 0
M  V30 16657 H 1585.08 -1.61997 1.24973 0
M  V30 16658 H 1585.09 -4.01255 0.738824 0
M  V30 16659 H 1583.76 -3.72282 1.85416 0
M  V30 16660 H 1582.34 -3.72893 0.0227053 0
M  V30 16661 N 1584.52 -0.695628 -1.41417 0
M  V30 16662 C 1585.46 0.0202064 -2.28191 0
M  V30 16663 C 1586.43 0.787887 -1.42236 0
M  V30 16664 O 1587.62 0.778692 -1.71664 0
M  V30 16665 C 1584.75 1.03599 -3.22467 0
M  V30 16666 C 1583.79 0.361472 -4.24965 0
M  V30 16667 S 1584.62 -0.896181 -5.27948 0
M  V30 16668 C 1585.78 0.118005 -6.25789 0
M  V30 16669 H 1586.01 -0.715769 -2.88555 0
M  V30 16670 H 1583.55 -0.485904 -1.46555 0
M  V30 16671 H 1585.5 1.6169 -3.77315 0
M  V30 16672 H 1584.17 1.74454 -2.61198 0
M  V30 16673 H 1583.36 1.12866 -4.912 0
M  V30 16674 H 1582.96 -0.146366 -3.73713 0
M  V30 16675 H 1585.25 0.971258 -6.70502 0
M  V30 16676 H 1586.2 -0.510417 -7.06258 0
M  V30 16677 H 1586.6 0.472806 -5.62516 0
M  V30 16678 N 1586 1.51322 -0.440383 0
M  V30 16679 C 1587.41 1.86687 0.0220272 0
M  V30 16680 C 1587.76 1.35734 1.41671 0
M  V30 16681 O 1586.89 0.709408 2.04442 0
M  V30 16682 C 1587.48 3.38768 0.0467477 0
M  V30 16683 C 1586.04 3.73657 0.45358 0
M  V30 16684 C 1585.19 2.7506 -0.351779 0
M  V30 16685 H 1588.14 1.44503 -0.65609 0
M  V30 16686 H 1588.16 3.70756 0.855589 0
M  V30 16687 H 1587.67 3.75823 -0.968451 0
M  V30 16688 H 1585.77 3.42193 1.47427 0
M  V30 16689 H 1585.89 4.78776 0.176262 0
M  V30 16690 H 1584.25 2.53988 0.190334 0
M  V30 16691 H 1585.03 3.14957 -1.36591 0
M  V30 16692 N 1587.48 0.171848 1.5666 0
M  V30 16693 C 1588.7 -0.482396 2.01712 0
M  V30 16694 C 1589.13 -1.5598 1.05128 0
M  V30 16695 O 1588.49 -1.81274 0.0309178 0
M  V30 16696 C 1588.54 -1.03716 3.45363 0
M  V30 16697 O 1587.64 -2.15114 3.51852 0
M  V30 16698 H 1586.98 -0.115439 0.653888 0
M  V30 16699 H 1589.51 0.275895 2.02731 0
M  V30 16700 H 1589.52 -1.35964 3.84679 0
M  V30 16701 H 1588.2 -0.24832 4.15158 0
M  V30 16702 H 1586.77 -1.83907 3.24396 0
M  V30 16703 N 1588.96 -1.5727 -0.101874 0
M  V30 16704 C 1590.18 -1.90319 -0.824215 0
M  V30 16705 C 1590.61 -0.765469 -1.7182 0
M  V30 16706 O 1589.97 0.283275 -1.79073 0
M  V30 16707 C 1590.01 -3.22201 -1.61922 0
M  V30 16708 O 1589.12 -3.09313 -2.72762 0
M  V30 16709 H 1588.46 -0.624042 -0.226864 0
M  V30 16710 H 1590.99 -2.04447 -0.0791314 0
M  V30 16711 H 1591 -3.55343 -2.00487 0
M  V30 16712 H 1589.67 -4.04596 -0.963078 0
M  V30 16713 H 1588.25 -2.87672 -2.37274 0
M  V30 16714 N 1590.44 0.372521 -1.53134 0
M  V30 16715 C 1591.66 1.13668 -1.72879 0
M  V30 16716 C 1592.08 1.83246 -0.454588 0
M  V30 16717 O 1591.44 1.73302 0.572062 0
M  V30 16718 C 1591.49 2.17226 -2.88955 0
M  V30 16719 O 1591.21 1.50483 -4.11445 0
M  V30 16720 C 1592.71 3.06243 -3.20516 0
M  V30 16721 H 1589.93 0.340156 -0.57839 0
M  V30 16722 H 1592.47 0.433557 -1.99851 0
M  V30 16723 H 1590.63 2.83148 -2.64397 0
M  V30 16724 H 1591.04 2.19425 -4.76396 0
M  V30 16725 H 1592.52 3.74901 -4.05158 0
M  V30 16726 H 1592.99 3.70669 -2.35587 0
M  V30 16727 H 1593.6 2.45946 -3.46973 0
M  V30 16728 N 1591.91 1.44376 0.631925 0
M  V30 16729 C 1593.32 1.41881 1.21353 0
M  V30 16730 C 1593.68 0.13375 1.95744 0
M  V30 16731 O 1592.8 -0.765919 2.02392 0
M  V30 16732 C 1593.4 2.57027 2.20732 0
M  V30 16733 C 1591.95 2.5773 2.74322 0
M  V30 16734 C 1591.1 2.33672 1.49307 0
M  V30 16735 H 1594.05 1.52968 0.42265 0
M  V30 16736 H 1594.07 2.29735 3.03319 0
M  V30 16737 H 1593.59 3.50541 1.66561 0
M  V30 16738 H 1591.69 1.68155 3.32498 0
M  V30 16739 H 1591.8 3.5619 3.20415 0
M  V30 16740 H 1590.16 1.8275 1.7741 0
M  V30 16741 H 1590.95 3.293 0.970395 0
M  V30 16742 N 1593.39 -0.872258 1.31261 0
M  V30 16743 C 1594.3 -2.01185 1.20673 0
M  V30 16744 C 1595.32 -1.73558 0.123921 0
M  V30 16745 O 1596.49 -1.98487 0.341288 0
M  V30 16746 C 1593.56 -3.34481 0.91232 0
M  V30 16747 C 1592.62 -3.75446 2.08179 0
M  V30 16748 C 1591.85 -5.02382 1.80134 0
M  V30 16749 O 1592.08 -5.6564 0.735358 0
M  V30 16750 O 1591.01 -5.40059 2.65744 0
M  V30 16751 H 1594.84 -2.13049 2.16434 0
M  V30 16752 H 1592.42 -1.00021 1.10978 0
M  V30 16753 H 1594.3 -4.14419 0.763879 0
M  V30 16754 H 1592.98 -3.23696 -0.0152802 0
M  V30 16755 H 1591.88 -2.96159 2.28562 0
M  V30 16756 H 1593.22 -3.90853 2.99156 0
M  V30 16757 N 1594.87 -1.14184 -1.08627 0
M  V30 16758 C 1596.12 -0.906869 -1.80611 0
M  V30 16759 C 1596.44 0.568182 -1.86539 0
M  V30 16760 O 1595.71 1.41301 -1.35687 0
M  V30 16761 H 1594.29 -0.332523 -0.668908 0
M  V30 16762 H 1596.95 -1.43998 -1.31341 0
M  V30 16763 H 1596.05 -1.30484 -2.83514 0
M  V30 16764 N 1596.35 1.26749 -0.936613 0
M  V30 16765 C 1597.28 2.25684 -0.399941 0
M  V30 16766 C 1598.29 1.55739 0.474271 0
M  V30 16767 O 1599.48 1.76203 0.285454 0
M  V30 16768 C 1596.58 3.35969 0.444733 0
M  V30 16769 C 1595.76 4.35453 -0.412258 0
M  V30 16770 C 1594.81 5.24889 0.37123 0
M  V30 16771 O 1593.84 5.68758 -0.224162 0
M  V30 16772 N 1595.04 5.55993 1.66889 0
M  V30 16773 H 1597.81 2.72368 -1.25043 0
M  V30 16774 H 1595.37 1.40468 -0.805 0
M  V30 16775 H 1597.36 3.92751 0.976159 0
M  V30 16776 H 1595.93 2.88816 1.196 0
M  V30 16777 H 1595.15 3.77808 -1.12493 0
M  V30 16778 H 1596.44 4.9892 -0.997822 0
M  V30 16779 H 1595.84 5.22224 2.17481 0
M  V30 16780 H 1594.39 6.15436 2.14666 0
M  V30 16781 N 1597.83 0.703118 1.41046 0
M  V30 16782 C 1598.76 0.0570815 2.3343 0
M  V30 16783 C 1599.74 -0.759042 1.52225 0
M  V30 16784 O 1600.92 -0.710491 1.80736 0
M  V30 16785 C 1598.05 -0.874541 3.36109 0
M  V30 16786 C 1597.01 -0.16496 4.27682 0
M  V30 16787 C 1596.33 -1.21145 5.20795 0
M  V30 16788 C 1597.63 0.97332 5.13151 0
M  V30 16789 H 1599.33 0.828699 2.87703 0
M  V30 16790 H 1596.87 0.399956 1.38334 0
M  V30 16791 H 1598.83 -1.33579 3.99668 0
M  V30 16792 H 1597.55 -1.67791 2.80203 0
M  V30 16793 H 1596.21 0.276332 3.65557 0
M  V30 16794 H 1595.86 -2.00755 4.61201 0
M  V30 16795 H 1595.56 -0.741633 5.82901 0
M  V30 16796 H 1597.08 -1.67305 5.87232 0
M  V30 16797 H 1598.49 0.592013 5.70235 0
M  V30 16798 H 1596.89 1.37071 5.84236 0
M  V30 16799 H 1597.96 1.80961 4.49868 0
M  V30 16800 N 1599.3 -1.51086 0.448402 0
M  V30 16801 C 1600.53 -2.06293 -0.112531 0
M  V30 16802 C 1600.94 -1.31478 -1.36052 0
M  V30 16803 O 1600.29 -0.370897 -1.79917 0
M  V30 16804 C 1600.35 -3.56156 -0.489178 0
M  V30 16805 C 1600.01 -4.52302 0.653568 0
M  V30 16806 C 1601.01 -4.96909 1.52898 0
M  V30 16807 C 1598.69 -4.9527 0.837448 0
M  V30 16808 C 1600.69 -5.83165 2.57288 0
M  V30 16809 C 1598.37 -5.81314 1.8846 0
M  V30 16810 C 1599.37 -6.25161 2.75069 0
M  V30 16811 O 1599.06 -7.09495 3.77985 0
M  V30 16812 H 1598.79 -0.67597 -0.00641865 0
M  V30 16813 H 1601.35 -1.95515 0.629533 0
M  V30 16814 H 1599.58 -3.64757 -1.28411 0
M  V30 16815 H 1601.27 -3.93828 -0.982548 0
M  V30 16816 H 1602.03 -4.64399 1.3985 0
M  V30 16817 H 1597.91 -4.60676 0.172857 0
M  V30 16818 H 1601.45 -6.1731 3.24921 0
M  V30 16819 H 1597.35 -6.13236 2.01523 0
M  V30 16820 H 1598.12 -7.27697 3.74699 0
M  V30 16821 N 1600.78 -0.180154 -1.56567 0
M  V30 16822 C 1602.06 0.509347 -1.88852 0
M  V30 16823 C 1602.44 1.80697 -1.09141 0
M  V30 16824 O 1601.79 2.27726 -0.187974 0
M  V30 16825 C 1602 0.742669 -3.41006 0
M  V30 16826 C 1603.35 1.06873 -4.1093 0
M  V30 16827 O 1604.37 0.830907 -3.46373 0
M  V30 16828 O 1603.23 1.51784 -5.24999 0
M  V30 16829 H 1600.32 0.263629 -0.783855 0
M  V30 16830 H 1602.87 -0.219251 -1.68278 0
M  V30 16831 H 1601.64 -0.17431 -3.90912 0
M  V30 16832 H 1601.26 1.52427 -3.67222 0
M  V30 16833 N 1602.26 1.57322 0.0935319 0
M  V30 16834 C 1603.51 1.86443 0.797919 0
M  V30 16835 C 1603.84 0.769491 1.78304 0
M  V30 16836 O 1603.11 -0.222383 1.93225 0
M  V30 16837 C 1603.4 3.26201 1.52528 0
M  V30 16838 C 1603.25 4.46325 0.558031 0
M  V30 16839 C 1604.57 3.63879 2.47548 0
M  V30 16840 H 1601.69 0.678136 0.288618 0
M  V30 16841 H 1604.33 1.899 0.0615161 0
M  V30 16842 H 1602.48 3.23385 2.15301 0
M  V30 16843 H 1604.15 4.61257 -0.0628154 0
M  V30 16844 H 1602.4 4.3361 -0.128462 0
M  V30 16845 H 1603.07 5.40845 1.10413 0
M  V30 16846 H 1605.54 3.6765 1.94866 0
M  V30 16847 H 1604.42 4.62598 2.95456 0
M  V30 16848 H 1604.68 2.92647 3.31376 0
M  V30 16849 N 1603.74 -0.364395 1.53329 0
M  V30 16850 C 1604.67 -1.45243 1.8283 0
M  V30 16851 C 1605.65 -1.55834 0.681886 0
M  V30 16852 O 1606.83 -1.70383 0.931845 0
M  V30 16853 C 1603.96 -2.82565 2.01926 0
M  V30 16854 C 1602.92 -2.86797 3.17697 0
M  V30 16855 C 1602.24 -4.26806 3.22089 0
M  V30 16856 C 1603.54 -2.54212 4.56261 0
M  V30 16857 H 1605.24 -1.20804 2.73946 0
M  V30 16858 H 1602.78 -0.579705 1.31816 0
M  V30 16859 H 1604.74 -3.58709 2.21147 0
M  V30 16860 H 1603.46 -3.08394 1.07521 0
M  V30 16861 H 1602.12 -2.13105 2.98298 0
M  V30 16862 H 1601.77 -4.49712 2.25318 0
M  V30 16863 H 1601.47 -4.30553 3.99873 0
M  V30 16864 H 1602.99 -5.04821 3.43495 0
M  V30 16865 H 1604.41 -3.20069 4.75635 0
M  V30 16866 H 1602.8 -2.69273 5.36295 0
M  V30 16867 H 1603.87 -1.49458 4.61292 0
M  V30 16868 N 1605.22 -1.44709 -0.62426 0
M  V30 16869 C 1606.47 -1.47131 -1.37968 0
M  V30 16870 C 1606.78 -0.110507 -1.95288 0
M  V30 16871 O 1607.98 -0.0122892 -2.71497 0
M  V30 16872 C 1606.44 -2.59059 -2.49833 0
M  V30 16873 C 1606.05 -4.01378 -1.98997 0
M  V30 16874 C 1607.79 -2.70709 -3.26981 0
M  V30 16875 C 1605.7 -5.04717 -3.08244 0
M  V30 16876 H 1604.63 -0.547424 -0.5185 0
M  V30 16877 H 1607.28 -1.70797 -0.670863 0
M  V30 16878 H 1605.66 -2.28646 -3.23322 0
M  V30 16879 H 1606.84 -4.41391 -1.32327 0
M  V30 16880 H 1605.15 -3.9403 -1.34644 0
M  V30 16881 H 1607.75 -3.45087 -4.08435 0
M  V30 16882 H 1608.09 -1.76763 -3.76909 0
M  V30 16883 H 1608.62 -3.00566 -2.60585 0
M  V30 16884 H 1605.36 -6.00315 -2.63253 0
M  V30 16885 H 1604.88 -4.6929 -3.73534 0
M  V30 16886 H 1606.56 -5.28725 -3.72906 0
M  V30 16887 N 1606.69 0.865285 -1.31722 0
M  V30 16888 C 1607.64 1.97294 -1.19766 0
M  V30 16889 C 1608.61 1.65896 -0.0823232 0
M  V30 16890 O 1609.8 1.89075 -0.256009 0
M  V30 16891 C 1606.94 3.32727 -0.915776 0
M  V30 16892 C 1606.05 3.76691 -2.11489 0
M  V30 16893 C 1605.18 5.00865 -1.76939 0
M  V30 16894 C 1604.22 5.37291 -2.93232 0
M  V30 16895 N 1603.36 6.52643 -2.58846 0
M  V30 16896 H 1608.2 2.06851 -2.14515 0
M  V30 16897 H 1605.74 1.01256 -1.06703 0
M  V30 16898 H 1607.7 4.10712 -0.732881 0
M  V30 16899 H 1606.33 3.228 -0.00510917 0
M  V30 16900 H 1605.38 2.94449 -2.4084 0
M  V30 16901 H 1606.69 3.99613 -2.98514 0
M  V30 16902 H 1605.84 5.86529 -1.5514 0
M  V30 16903 H 1604.58 4.79857 -0.871125 0
M  V30 16904 H 1603.59 4.50143 -3.15675 0
M  V30 16905 H 1604.81 5.60262 -3.83775 0
M  V30 16906 H 1602.76 6.33172 -1.71548 0
M  V30 16907 H 1602.68 6.75531 -3.39401 0
M  V30 16908 H 1603.94 7.41487 -2.40451 0
M  V30 16909 N 1608.17 1.14759 1.0802 0
M  V30 16910 C 1609.12 0.838134 2.15044 0
M  V30 16911 C 1610.09 -0.206031 1.64817 0
M  V30 16912 O 1611.27 -0.0750812 1.90652 0
M  V30 16913 C 1608.41 0.326112 3.43556 0
M  V30 16914 C 1607.53 1.43104 4.07609 0
M  V30 16915 C 1606.66 0.875857 5.2393 0
M  V30 16916 C 1605.7 1.9582 5.79932 0
M  V30 16917 N 1604.84 1.41989 6.87593 0
M  V30 16918 H 1609.68 1.75478 2.40856 0
M  V30 16919 H 1607.22 0.875686 1.18195 0
M  V30 16920 H 1609.17 0.0110103 4.17199 0
M  V30 16921 H 1607.8 -0.55363 3.18017 0
M  V30 16922 H 1606.86 1.86247 3.31687 0
M  V30 16923 H 1608.17 2.24849 4.45246 0
M  V30 16924 H 1607.32 0.512893 6.04528 0
M  V30 16925 H 1606.06 0.0275017 4.87692 0
M  V30 16926 H 1605.07 2.33006 4.97984 0
M  V30 16927 H 1606.29 2.81021 6.18227 0
M  V30 16928 H 1604.24 0.593779 6.53307 0
M  V30 16929 H 1604.15 2.17367 7.24077 0
M  V30 16930 H 1605.42 1.08495 7.71913 0
M  V30 16931 N 1609.65 -1.26251 0.943322 0
M  V30 16932 C 1610.6 -2.28295 0.445441 0
M  V30 16933 C 1611.59 -1.62504 -0.478401 0
M  V30 16934 O 1612.8 -1.76437 -0.356378 0
M  V30 16935 H 1609.17 -0.741451 0.125517 0
M  V30 16936 H 1611.14 -2.67687 1.31858 0
M  V30 16937 C 1609.89 -3.46635 -0.271987 0
M  V30 16938 H 1609.22 -3.97484 0.429734 0
M  V30 16939 H 1610.66 -4.19951 -0.584544 0
M  V30 16940 C 1609.12 -3.02133 -1.49054 0
M  V30 16941 O 1609.65 -3.07158 -2.58876 0
M  V30 16942 N 1607.85 -2.57451 -1.34787 0
M  V30 16943 H 1607.4 -2.53562 -0.454347 0
M  V30 16944 H 1607.36 -2.28039 -2.16438 0
M  V30 16945 N 1611.13 -0.710588 -1.40671 0
M  V30 16946 C 1612.54 -0.320926 -1.83921 0
M  V30 16947 C 1612.89 1.14358 -1.59426 0
M  V30 16948 O 1612.02 1.87952 -1.07252 0
M  V30 16949 C 1612.61 -0.5757 -3.33873 0
M  V30 16950 C 1611.17 -0.239799 -3.75635 0
M  V30 16951 C 1610.32 -0.850552 -2.63934 0
M  V30 16952 H 1613.27 -0.910118 -1.3001 0
M  V30 16953 H 1613.29 0.160707 -3.8016 0
M  V30 16954 H 1612.8 -1.64166 -3.51669 0
M  V30 16955 H 1610.9 0.821297 -3.63436 0
M  V30 16956 H 1611.02 -0.705306 -4.7388 0
M  V30 16957 H 1609.38 -0.278977 -2.53168 0
M  V30 16958 H 1610.16 -1.92068 -2.84543 0
M  V30 16959 N 1612.61 1.50847 -0.456408 0
M  V30 16960 C 1613.85 2.02235 0.103618 0
M  V30 16961 C 1614.18 1.33939 1.41034 0
M  V30 16962 O 1613.44 0.449209 1.90475 0
M  V30 16963 C 1613.74 3.55678 0.350374 0
M  V30 16964 C 1613.4 4.42371 -0.872844 0
M  V30 16965 C 1612.06 4.65784 -1.20825 0
M  V30 16966 C 1614.42 4.9311 -1.68797 0
M  V30 16967 C 1611.74 5.3718 -2.35911 0
M  V30 16968 C 1614.1 5.65769 -2.82998 0
M  V30 16969 C 1612.76 5.8744 -3.16971 0
M  V30 16970 H 1612.03 0.740029 0.0379167 0
M  V30 16971 H 1614.68 1.81609 -0.607497 0
M  V30 16972 H 1612.98 3.74739 1.14359 0
M  V30 16973 H 1614.68 3.92991 0.797418 0
M  V30 16974 H 1611.27 4.24358 -0.601511 0
M  V30 16975 H 1615.45 4.74889 -1.44203 0
M  V30 16976 H 1610.71 5.52169 -2.62524 0
M  V30 16977 H 1614.88 6.04069 -3.46516 0
M  V30 16978 H 1612.51 6.42541 -4.06258 0
M  V30 16979 N 1614.09 0.188454 1.56469 0
M  V30 16980 C 1615.33 -0.451165 1.97 0
M  V30 16981 C 1615.65 -1.6261 1.07624 0
M  V30 16982 O 1614.92 -1.95354 0.146125 0
M  V30 16983 H 1613.5 -0.16967 0.727476 0
M  V30 16984 H 1616.17 0.273638 1.9297 0
M  V30 16985 H 1615.26 -0.799741 3.0168 0
M  V30 16986 N 1615.56 -1.5737 -0.0851874 0
M  V30 16987 C 1616.81 -1.85772 -0.785604 0
M  V30 16988 C 1617.13 -0.779172 -1.79411 0
M  V30 16989 O 1618.33 -0.950621 -2.54314 0
M  V30 16990 C 1616.79 -3.29484 -1.44805 0
M  V30 16991 C 1616.4 -4.45434 -0.478799 0
M  V30 16992 C 1618.14 -3.671 -2.13161 0
M  V30 16993 C 1616.05 -5.80183 -1.1464 0
M  V30 16994 H 1614.98 -0.69298 -0.297145 0
M  V30 16995 H 1617.63 -1.83459 -0.0386776 0
M  V30 16996 H 1616.01 -3.26367 -2.24278 0
M  V30 16997 H 1617.18 -4.59917 0.285148 0
M  V30 16998 H 1615.5 -4.16281 0.0995964 0
M  V30 16999 H 1618.1 -4.65061 -2.6386 0
M  V30 17000 H 1618.44 -2.96223 -2.92503 0
M  V30 17001 H 1618.97 -3.72148 -1.40536 0
M  V30 17002 H 1615.71 -6.54317 -0.393583 0
M  V30 17003 H 1615.23 -5.69525 -1.88153 0
M  V30 17004 H 1616.91 -6.25074 -1.67006 0
M  V30 17005 N 1617.04 0.356258 -1.53521 0
M  V30 17006 C 1617.95 1.46055 -1.83589 0
M  V30 17007 C 1618.97 1.58176 -0.724997 0
M  V30 17008 O 1620.14 1.73894 -1.01601 0
M  V30 17009 C 1617.21 2.81207 -2.0279 0
M  V30 17010 C 1616.27 2.78535 -3.26675 0
M  V30 17011 C 1615.5 4.07241 -3.4495 0
M  V30 17012 O 1615.73 5.03879 -2.67324 0
M  V30 17013 O 1614.66 4.12485 -4.38337 0
M  V30 17014 H 1618.49 1.23566 -2.77426 0
M  V30 17015 H 1616.07 0.547243 -1.39017 0
M  V30 17016 H 1617.95 3.61271 -2.16936 0
M  V30 17017 H 1616.63 3.03654 -1.12143 0
M  V30 17018 H 1615.53 1.97137 -3.17943 0
M  V30 17019 H 1616.87 2.61042 -4.17274 0
M  V30 17020 N 1618.52 1.45038 0.616577 0
M  V30 17021 C 1619.77 1.47861 1.37186 0
M  V30 17022 C 1620.08 0.120862 1.95226 0
M  V30 17023 O 1621.29 0.0266872 2.71487 0
M  V30 17024 C 1619.74 2.6038 2.48455 0
M  V30 17025 C 1619.35 4.02428 1.96866 0
M  V30 17026 C 1621.1 2.7244 3.25541 0
M  V30 17027 C 1619 5.06345 3.05563 0
M  V30 17028 H 1617.93 0.550166 0.51559 0
M  V30 17029 H 1620.58 1.71151 0.661796 0
M  V30 17030 H 1618.97 2.30357 3.22105 0
M  V30 17031 H 1620.14 4.42087 1.29985 0
M  V30 17032 H 1618.45 3.94739 1.32552 0
M  V30 17033 H 1621.05 3.47248 4.06599 0
M  V30 17034 H 1621.39 1.7876 3.75966 0
M  V30 17035 H 1621.93 3.01944 2.58988 0
M  V30 17036 H 1618.67 6.01703 2.60065 0
M  V30 17037 H 1618.19 4.71264 3.7104 0
M  V30 17038 H 1619.87 5.30695 3.70097 0
M  V30 17039 N 1620 -0.858287 1.32179 0
M  V30 17040 C 1621.41 -1.14591 1.1109 0
M  V30 17041 C 1621.61 -2.01194 -0.110998 0
M  V30 17042 O 1620.67 -2.39593 -0.79695 0
M  V30 17043 C 1621.98 -1.82675 2.38852 0
M  V30 17044 C 1623.53 -1.95326 2.44574 0
M  V30 17045 C 1624.01 -2.66826 3.72247 0
M  V30 17046 N 1625.5 -2.74353 3.73208 0
M  V30 17047 C 1626.23 -3.30317 4.68698 0
M  V30 17048 N 1625.73 -3.87121 5.74552 0
M  V30 17049 N 1627.52 -3.28386 4.562 0
M  V30 17050 H 1619.67 -0.281471 2.10527 0
M  V30 17051 H 1621.93 -0.187326 0.929308 0
M  V30 17052 H 1621.64 -1.26495 3.28165 0
M  V30 17053 H 1621.51 -2.82862 2.49537 0
M  V30 17054 H 1623.9 -2.50668 1.55723 0
M  V30 17055 H 1623.98 -0.94147 2.37844 0
M  V30 17056 H 1623.63 -2.12149 4.61471 0
M  V30 17057 H 1623.56 -3.68437 3.76247 0
M  V30 17058 H 1626.05 -2.34051 2.96696 0
M  V30 17059 H 1626.36 -4.2797 6.43476 0
M  V30 17060 H 1624.71 -3.85463 5.78311 0
M  V30 17061 H 1627.9 -2.83254 3.72672 0
M  V30 17062 H 1628.07 -3.71701 5.30794 0
M  V30 17063 N 1621.48 -1.1533 -1.07409 0
M  V30 17064 C 1622.89 -0.895817 -1.32088 0
M  V30 17065 C 1623.09 0.457526 -1.96237 0
M  V30 17066 O 1622.15 1.19958 -2.22185 0
M  V30 17067 C 1623.46 -2.03632 -2.21256 0
M  V30 17068 C 1625.01 -2.07079 -2.34707 0
M  V30 17069 C 1625.48 -3.20451 -3.27223 0
M  V30 17070 N 1626.97 -3.20095 -3.34804 0
M  V30 17071 C 1627.71 -4.04458 -4.0645 0
M  V30 17072 N 1627.21 -4.98883 -4.80715 0
M  V30 17073 N 1629 -3.92483 -4.02385 0
M  V30 17074 H 1621.15 -2.02478 -0.641578 0
M  V30 17075 H 1623.41 -0.882864 -0.345332 0
M  V30 17076 H 1623.12 -3.0132 -1.81381 0
M  V30 17077 H 1622.99 -1.96817 -3.21781 0
M  V30 17078 H 1625.38 -1.09991 -2.73836 0
M  V30 17079 H 1625.46 -2.17962 -1.3389 0
M  V30 17080 H 1625.1 -4.17791 -2.88813 0
M  V30 17081 H 1625.03 -3.06805 -4.27993 0
M  V30 17082 H 1627.53 -2.51712 -2.81868 0
M  V30 17083 H 1627.84 -5.59698 -5.32877 0
M  V30 17084 H 1626.18 -5.02872 -4.79734 0
M  V30 17085 H 1629.37 -3.18026 -3.43478 0
M  V30 17086 H 1629.55 -4.58454 -4.57956 0
M  V30 17087 N 1622.95 1.25748 -0.950004 0
M  V30 17088 C 1623.9 2.26061 -0.46531 0
M  V30 17089 C 1624.87 1.59021 0.479742 0
M  V30 17090 O 1626.06 1.86687 0.394011 0
M  V30 17091 C 1623.2 3.44156 0.255146 0
M  V30 17092 C 1622.31 4.25846 -0.726604 0
M  V30 17093 C 1621.44 5.31198 0.0159429 0
M  V30 17094 C 1620.48 6.04572 -0.957046 0
M  V30 17095 N 1619.62 7.0167 -0.245676 0
M  V30 17096 H 1624.46 2.66891 -1.32563 0
M  V30 17097 H 1622 1.31216 -0.664882 0
M  V30 17098 H 1623.95 4.11465 0.689381 0
M  V30 17099 H 1622.58 3.04213 1.07954 0
M  V30 17100 H 1621.64 3.58242 -1.27933 0
M  V30 17101 H 1622.95 4.76669 -1.46928 0
M  V30 17102 H 1622.1 6.04561 0.509037 0
M  V30 17103 H 1620.84 4.81235 0.791442 0
M  V30 17104 H 1619.85 5.30028 -1.46118 0
M  V30 17105 H 1621.07 6.56624 -1.7327 0
M  V30 17106 H 1619.02 6.54005 0.51117 0
M  V30 17107 H 1618.93 7.50289 -0.927527 0
M  V30 17108 H 1620.2 7.79172 0.226034 0
M  V30 17109 N 1624.43 0.718038 1.40292 0
M  V30 17110 C 1625.66 0.266918 2.05675 0
M  V30 17111 C 1626.08 -1.08364 1.53749 0
M  V30 17112 O 1625.44 -1.6831 0.673912 0
M  V30 17113 C 1625.49 0.259606 3.59664 0
M  V30 17114 O 1624.59 -0.758372 4.05367 0
M  V30 17115 H 1623.93 0.124786 0.652169 0
M  V30 17116 H 1626.46 0.979207 1.79646 0
M  V30 17117 H 1626.47 0.098135 4.07882 0
M  V30 17118 H 1625.15 1.24517 3.96823 0
M  V30 17119 H 1623.72 -0.564425 3.68604 0
M  V30 17120 N 1625.91 -1.50602 0.464402 0
M  V30 17121 C 1627.14 -2.06701 -0.0907765 0
M  V30 17122 C 1627.55 -1.32901 -1.341 0
M  V30 17123 O 1626.91 -0.396323 -1.78145 0
M  V30 17124 C 1626.96 -3.59437 -0.385667 0
M  V30 17125 O 1626.68 -4.30453 0.81496 0
M  V30 17126 C 1628.18 -4.32137 -0.988549 0
M  V30 17127 H 1625.4 -0.670987 0.00410069 0
M  V30 17128 H 1627.95 -1.93853 0.651264 0
M  V30 17129 H 1626.1 -3.7211 -1.07763 0
M  V30 17130 H 1626.52 -5.2155 0.55551 0
M  V30 17131 H 1627.99 -5.40001 -1.1447 0
M  V30 17132 H 1628.47 -3.92194 -1.97688 0
M  V30 17133 H 1629.07 -4.23977 -0.335166 0
M  V30 17134 N 1627.39 -0.19675 -1.56367 0
M  V30 17135 C 1628.64 0.440711 -1.97236 0
M  V30 17136 C 1628.96 1.62037 -1.08485 0
M  V30 17137 O 1628.23 1.95274 -0.156483 0
M  V30 17138 H 1626.81 0.16581 -0.728365 0
M  V30 17139 H 1629.47 -0.283867 -1.92822 0
M  V30 17140 H 1628.57 0.783731 -3.02099 0
M  V30 17141 N 1628.87 1.57413 0.0768405 0
M  V30 17142 C 1630.09 1.91224 0.790007 0
M  V30 17143 C 1630.51 0.792232 1.71374 0
M  V30 17144 O 1629.87 -0.234736 1.80984 0
M  V30 17145 C 1629.92 3.24757 1.58793 0
M  V30 17146 O 1629.64 4.3245 0.701329 0
M  V30 17147 C 1631.14 3.72549 2.40254 0
M  V30 17148 H 1628.36 0.63219 0.224893 0
M  V30 17149 H 1630.9 2.04442 0.0486173 0
M  V30 17150 H 1629.06 3.13081 2.28165 0
M  V30 17151 H 1629.47 5.09245 1.2558 0
M  V30 17152 H 1630.95 4.68628 2.91705 0
M  V30 17153 H 1631.42 3.01305 3.1955 0
M  V30 17154 H 1632.03 3.87153 1.76048 0
M  V30 17155 N 1630.34 -0.348112 1.53707 0
M  V30 17156 C 1631.59 -1.08626 1.69951 0
M  V30 17157 C 1631.91 -1.89944 0.466992 0
M  V30 17158 O 1633.11 -2.66661 0.51029 0
M  V30 17159 C 1631.57 -1.98052 3.00505 0
M  V30 17160 C 1631.18 -1.21963 4.31079 0
M  V30 17161 C 1632.92 -2.71752 3.26115 0
M  V30 17162 C 1630.83 -2.10392 5.52711 0
M  V30 17163 H 1629.76 -0.409241 0.633275 0
M  V30 17164 H 1632.41 -0.346051 1.80207 0
M  V30 17165 H 1630.79 -2.75874 2.84094 0
M  V30 17166 H 1631.96 -0.490831 4.58178 0
M  V30 17167 H 1630.28 -0.600511 4.12047 0
M  V30 17168 H 1632.88 -3.38174 4.14177 0
M  V30 17169 H 1633.22 -3.38072 2.42926 0
M  V30 17170 H 1633.75 -2.01005 3.43281 0
M  V30 17171 H 1630.49 -1.48622 6.38429 0
M  V30 17172 H 1630.01 -2.81074 5.29866 0
M  V30 17173 H 1631.69 -2.69551 5.88176 0
M  V30 17174 N 1631.82 -1.45363 -0.608876 0
M  V30 17175 C 1633.07 -1.48586 -1.364 0
M  V30 17176 C 1633.38 -0.131213 -1.95159 0
M  V30 17177 O 1634.59 -0.0410845 -2.71469 0
M  V30 17178 C 1633.05 -2.61694 -2.47071 0
M  V30 17179 C 1632.65 -4.03466 -1.94729 0
M  V30 17180 C 1634.4 -2.74162 -3.24091 0
M  V30 17181 C 1632.31 -5.07958 -3.02874 0
M  V30 17182 H 1631.24 -0.552893 -0.512665 0
M  V30 17183 H 1633.89 -1.71499 -0.65271 0
M  V30 17184 H 1632.27 -2.32062 -3.20879 0
M  V30 17185 H 1633.44 -4.4277 -1.27638 0
M  V30 17186 H 1631.76 -3.95436 -1.30457 0
M  V30 17187 H 1634.35 -3.494 -4.04752 0
M  V30 17188 H 1634.7 -1.80751 -3.75013 0
M  V30 17189 H 1635.23 -3.03313 -2.57383 0
M  V30 17190 H 1631.97 -6.03073 -2.56871 0
M  V30 17191 H 1631.49 -4.73225 -3.68535 0
M  V30 17192 H 1633.17 -5.3265 -3.67277 0
M  V30 17193 N 1633.3 0.851265 -1.32632 0
M  V30 17194 C 1634.55 1.60785 -1.24578 0
M  V30 17195 C 1634.9 1.91462 0.189803 0
M  V30 17196 O 1634.19 1.54839 1.12851 0
M  V30 17197 C 1634.39 2.93312 -2.04212 0
M  V30 17198 C 1634.22 2.75579 -3.55368 0
M  V30 17199 C 1632.99 2.73784 -4.247 0
M  V30 17200 C 1635.19 2.49095 -4.49951 0
M  V30 17201 N 1633.17 2.47298 -5.61887 0
M  V30 17202 C 1634.54 2.32046 -5.74939 0
M  V30 17203 C 1636.59 2.34591 -4.39171 0
M  V30 17204 C 1635.3 2.01965 -6.90364 0
M  V30 17205 C 1637.32 2.05902 -5.54399 0
M  V30 17206 C 1636.68 1.89655 -6.78388 0
M  V30 17207 H 1632.78 0.591922 -0.511031 0
M  V30 17208 H 1635.37 1.00037 -1.67035 0
M  V30 17209 H 1633.54 3.52033 -1.64095 0
M  V30 17210 H 1635.27 3.58369 -1.88026 0
M  V30 17211 H 1632.03 2.86845 -3.76851 0
M  V30 17212 H 1632.45 2.36973 -6.34171 0
M  V30 17213 H 1637.09 2.45871 -3.43959 0
M  V30 17214 H 1634.81 1.89423 -7.85585 0
M  V30 17215 H 1638.4 1.95452 -5.47987 0
M  V30 17216 H 1637.28 1.67772 -7.66043 0
M  V30 17217 N 1634.78 1.15898 1.06796 0
M  V30 17218 C 1636.06 0.847701 1.76276 0
M  V30 17219 C 1636.44 -0.655537 2.00664 0
M  V30 17220 O 1635.78 -1.60171 1.62964 0
M  V30 17221 C 1635.99 1.66475 3.06736 0
M  V30 17222 C 1637.34 1.87452 3.80982 0
M  V30 17223 O 1638.37 1.63298 3.16563 0
M  V30 17224 O 1637.22 2.27942 4.96694 0
M  V30 17225 H 1634.32 0.312308 0.765763 0
M  V30 17226 H 1636.86 1.26507 1.13111 0
M  V30 17227 H 1635.64 2.68508 2.84638 0
M  V30 17228 H 1635.26 1.24409 3.77635 0
M  V30 17229 N 1636.26 -1.25243 0.956659 0
M  V30 17230 C 1637.48 -1.97621 0.629337 0
M  V30 17231 C 1637.91 -1.70606 -0.792158 0
M  V30 17232 O 1637.26 -0.963192 -1.53598 0
M  V30 17233 C 1637.31 -3.49273 0.896687 0
M  V30 17234 O 1636.42 -4.12393 -0.0234986 0
M  V30 17235 H 1635.76 -0.619472 0.239061 0
M  V30 17236 H 1638.29 -1.5931 1.28381 0
M  V30 17237 H 1638.3 -3.99597 0.82377 0
M  V30 17238 H 1636.97 -3.68265 1.93271 0
M  V30 17239 H 1635.55 -3.72761 0.101796 0
M  V30 17240 N 1637.73 -0.725468 -1.3991 0
M  V30 17241 C 1638.67 -0.0397832 -2.29165 0
M  V30 17242 C 1639.68 0.713458 -1.46334 0
M  V30 17243 O 1640.87 0.559199 -1.69515 0
M  V30 17244 C 1637.97 0.967929 -3.24784 0
M  V30 17245 C 1637.14 0.278181 -4.36515 0
M  V30 17246 C 1636.2 1.19266 -5.12506 0
M  V30 17247 O 1635.23 0.673726 -5.65199 0
M  V30 17248 N 1636.43 2.5231 -5.228 0
M  V30 17249 H 1639.19 -0.806204 -2.88653 0
M  V30 17250 H 1636.75 -0.573904 -1.51387 0
M  V30 17251 H 1638.75 1.58209 -3.72494 0
M  V30 17252 H 1637.32 1.63563 -2.66394 0
M  V30 17253 H 1636.54 -0.516326 -3.90804 0
M  V30 17254 H 1637.82 -0.200203 -5.08406 0
M  V30 17255 H 1637.22 2.96957 -4.8149 0
M  V30 17256 H 1635.78 3.08846 -5.73984 0
M  V30 17257 N 1639.21 1.50354 -0.472382 0
M  V30 17258 C 1640.14 2.3142 0.310995 0
M  V30 17259 C 1641.12 1.38383 0.989151 0
M  V30 17260 O 1642.31 1.67303 0.986074 0
M  V30 17261 C 1639.44 3.18157 1.3926 0
M  V30 17262 C 1638.39 4.19756 0.835977 0
M  V30 17263 C 1637.72 4.9524 2.01597 0
M  V30 17264 C 1639.02 5.22074 -0.15361 0
M  V30 17265 H 1640.71 2.97159 -0.365595 0
M  V30 17266 H 1638.26 1.42905 -0.177266 0
M  V30 17267 H 1640.21 3.73666 1.94813 0
M  V30 17268 H 1638.94 2.50305 2.09798 0
M  V30 17269 H 1637.59 3.65351 0.302414 0
M  V30 17270 H 1637.24 4.2386 2.70836 0
M  V30 17271 H 1636.94 5.63966 1.64974 0
M  V30 17272 H 1638.47 5.53584 2.57637 0
M  V30 17273 H 1639.88 5.72446 0.312783 0
M  V30 17274 H 1638.28 5.98527 -0.43418 0
M  V30 17275 H 1639.35 4.72741 -1.07908 0
M  V30 17276 N 1640.69 0.205039 1.56261 0
M  V30 17277 C 1641.62 -0.706815 2.22545 0
M  V30 17278 C 1642.6 -1.21372 1.19176 0
M  V30 17279 O 1643.79 -1.26074 1.47712 0
M  V30 17280 C 1640.92 -1.92221 2.89255 0
M  V30 17281 C 1639.87 -1.54982 3.98954 0
M  V30 17282 C 1639.2 -2.84265 4.52877 0
M  V30 17283 C 1640.5 -0.75225 5.16854 0
M  V30 17284 H 1642.19 -0.15421 2.99003 0
M  V30 17285 H 1639.74 -0.0727309 1.43816 0
M  V30 17286 H 1641.69 -2.56542 3.34311 0
M  V30 17287 H 1640.41 -2.49952 2.10218 0
M  V30 17288 H 1639.07 -0.930155 3.54604 0
M  V30 17289 H 1638.72 -3.40105 3.70591 0
M  V30 17290 H 1638.42 -2.60089 5.26904 0
M  V30 17291 H 1639.95 -3.49557 5.00642 0
M  V30 17292 H 1641.36 -1.29878 5.58395 0
M  V30 17293 H 1639.76 -0.60823 5.9701 0
M  V30 17294 H 1640.83 0.24463 4.84283 0
M  V30 17295 N 1642.17 -1.57451 -0.0684915 0
M  V30 17296 C 1643.42 -1.87041 -0.765505 0
M  V30 17297 C 1643.74 -0.797489 -1.77947 0
M  V30 17298 O 1643.01 0.17349 -1.9513 0
M  V30 17299 H 1641.59 -0.690203 -0.285708 0
M  V30 17300 H 1644.25 -1.94851 -0.0437957 0
M  V30 17301 H 1643.35 -2.8466 -1.27966 0
M  V30 17302 N 1643.65 0.339955 -1.5389 0
M  V30 17303 C 1644.89 1.07979 -1.71309 0
M  V30 17304 C 1645.22 1.88531 -0.478147 0
M  V30 17305 O 1644.48 1.88099 0.540113 0
M  V30 17306 C 1644.78 2.04572 -2.93062 0
M  V30 17307 C 1644.44 1.40303 -4.28516 0
M  V30 17308 C 1643.1 1.22505 -4.65345 0
M  V30 17309 C 1645.46 0.940364 -5.12647 0
M  V30 17310 C 1642.78 0.570639 -5.83918 0
M  V30 17311 C 1645.14 0.299844 -6.31889 0
M  V30 17312 C 1643.8 0.109575 -6.6741 0
M  V30 17313 H 1643.07 0.395125 -0.626863 0
M  V30 17314 H 1645.72 0.358686 -1.88111 0
M  V30 17315 H 1644.02 2.83077 -2.70878 0
M  V30 17316 H 1645.72 2.61816 -3.03733 0
M  V30 17317 H 1642.31 1.55155 -3.99531 0
M  V30 17318 H 1646.49 1.06571 -4.84723 0
M  V30 17319 H 1641.75 0.411872 -6.10011 0
M  V30 17320 H 1645.92 -0.0667391 -6.96368 0
M  V30 17321 H 1643.55 -0.399556 -7.59149 0
M  V30 17322 N 1645.13 1.45684 0.601159 0
M  V30 17323 C 1646.35 1.53574 1.38646 0
M  V30 17324 C 1646.77 0.170511 1.88028 0
M  V30 17325 O 1646.13 -0.829061 1.62582 0
M  V30 17326 C 1646.18 2.52543 2.58658 0
M  V30 17327 O 1645.9 3.83761 2.11327 0
M  V30 17328 C 1647.4 2.70194 3.5144 0
M  V30 17329 H 1644.62 0.519907 0.424191 0
M  V30 17330 H 1647.16 1.90929 0.732559 0
M  V30 17331 H 1645.32 2.18242 3.20077 0
M  V30 17332 H 1645.73 4.37467 2.89349 0
M  V30 17333 H 1647.21 3.43405 4.32177 0
M  V30 17334 H 1647.68 1.76452 4.02196 0
M  V30 17335 H 1648.29 3.05517 2.95871 0
M  V30 17336 N 1646.6 -0.84422 1.33082 0
M  V30 17337 C 1647.85 -1.59912 1.24235 0
M  V30 17338 C 1648.18 -1.93538 -0.193223 0
M  V30 17339 O 1647.43 -1.58418 -1.14901 0
M  V30 17340 C 1647.73 -2.92225 2.05765 0
M  V30 17341 C 1647.4 -2.77985 3.55014 0
M  V30 17342 C 1646.06 -2.73809 3.95705 0
M  V30 17343 C 1648.41 -2.63171 4.49878 0
M  V30 17344 C 1645.74 -2.5271 5.29485 0
M  V30 17345 C 1648.09 -2.43607 5.83814 0
M  V30 17346 C 1646.76 -2.37829 6.23693 0
M  V30 17347 H 1646.03 -0.58516 0.454608 0
M  V30 17348 H 1648.67 -0.978493 1.64614 0
M  V30 17349 H 1646.98 -3.58465 1.58146 0
M  V30 17350 H 1648.68 -3.49678 1.96281 0
M  V30 17351 H 1645.27 -2.82065 3.22703 0
M  V30 17352 H 1649.45 -2.65435 4.19354 0
M  V30 17353 H 1644.71 -2.4668 5.59427 0
M  V30 17354 H 1648.88 -2.31126 6.56927 0
M  V30 17355 H 1646.51 -2.21241 7.27294 0
M  V30 17356 N 1648.08 -1.16463 -1.0618 0
M  V30 17357 C 1649.31 -0.97159 -1.83235 0
M  V30 17358 C 1649.73 0.475295 -1.81996 0
M  V30 17359 O 1649.09 1.33964 -1.22161 0
M  V30 17360 C 1649.14 -1.50504 -3.2769 0
M  V30 17361 O 1648.24 -0.712128 -4.06205 0
M  V30 17362 H 1647.58 -0.345676 -0.566925 0
M  V30 17363 H 1650.11 -1.54727 -1.33868 0
M  V30 17364 H 1650.12 -1.52301 -3.78508 0
M  V30 17365 H 1648.8 -2.55832 -3.27907 0
M  V30 17366 H 1647.37 -0.764756 -3.64974 0
M  V30 17367 N 1649.56 1.24734 -0.963288 0
M  V30 17368 C 1650.84 1.88004 -0.539809 0
M  V30 17369 C 1651.22 1.86814 0.983035 0
M  V30 17370 O 1650.56 1.33769 1.85251 0
M  V30 17371 C 1650.77 3.30326 -1.1263 0
M  V30 17372 C 1652.12 4.07039 -1.20848 0
M  V30 17373 O 1653.15 3.3948 -1.07849 0
M  V30 17374 O 1652.01 5.27906 -1.41342 0
M  V30 17375 H 1649.1 0.807318 -0.17935 0
M  V30 17376 H 1651.65 1.3274 -1.05727 0
M  V30 17377 H 1650.42 3.25668 -2.16925 0
M  V30 17378 H 1650.04 3.93159 -0.592614 0
M  V30 17379 N 1651.04 0.732878 1.39523 0
M  V30 17380 C 1651.97 0.0403016 2.28164 0
M  V30 17381 C 1652.95 -0.749899 1.44275 0
M  V30 17382 O 1654.13 -0.732905 1.73669 0
M  V30 17383 C 1651.26 -0.95013 3.251 0
M  V30 17384 C 1650.31 -0.248672 4.25774 0
M  V30 17385 S 1651.14 1.03584 5.25386 0
M  V30 17386 C 1652.29 0.0479532 6.25882 0
M  V30 17387 H 1652.53 0.792023 2.86556 0
M  V30 17388 H 1650.06 0.524589 1.45215 0
M  V30 17389 H 1652.02 -1.51629 3.81469 0
M  V30 17390 H 1650.68 -1.67467 2.65732 0
M  V30 17391 H 1649.87 -0.998025 4.9402 0
M  V30 17392 H 1649.47 0.245398 3.73194 0
M  V30 17393 H 1651.77 -0.793145 6.72841 0
M  V30 17394 H 1652.71 0.69749 7.04656 0
M  V30 17395 H 1653.12 -0.323498 5.63572 0
M  V30 17396 N 1652.52 -1.50101 0.480349 0
M  V30 17397 C 1653.76 -2.02374 -0.0714315 0
M  V30 17398 C 1654.09 -1.36166 -1.38885 0
M  V30 17399 O 1653.35 -0.479455 -1.89736 0
M  V30 17400 C 1653.64 -3.56191 -0.293745 0
M  V30 17401 C 1653.31 -4.40927 0.943111 0
M  V30 17402 C 1651.97 -4.63803 1.2822 0
M  V30 17403 C 1654.32 -4.90362 1.7662 0
M  V30 17404 C 1651.65 -5.33359 2.44428 0
M  V30 17405 C 1654 -5.61195 2.91963 0
M  V30 17406 C 1652.67 -5.82323 3.26276 0
M  V30 17407 H 1651.94 -0.740539 -0.0261386 0
M  V30 17408 H 1654.59 -1.80619 0.636313 0
M  V30 17409 H 1652.89 -3.76511 -1.08382 0
M  V30 17410 H 1654.59 -3.9421 -0.734796 0
M  V30 17411 H 1651.18 -4.23347 0.668947 0
M  V30 17412 H 1655.36 -4.72534 1.5174 0
M  V30 17413 H 1650.62 -5.47923 2.71275 0
M  V30 17414 H 1654.79 -5.9848 3.56082 0
M  V30 17415 H 1652.42 -6.35996 4.16428 0
M  V30 17416 N 1653.99 -0.213323 -1.5615 0
M  V30 17417 C 1655.24 0.420909 -1.97259 0
M  V30 17418 C 1655.56 1.61483 -1.10375 0
M  V30 17419 O 1656.76 2.31804 -1.41347 0
M  V30 17420 C 1655.22 0.800243 -3.5089 0
M  V30 17421 C 1654.83 -0.370405 -4.46466 0
M  V30 17422 C 1656.57 1.40054 -4.00731 0
M  V30 17423 C 1654.48 0.0309052 -5.91392 0
M  V30 17424 H 1653.41 0.16103 -0.736604 0
M  V30 17425 H 1656.06 -0.308232 -1.80893 0
M  V30 17426 H 1654.44 1.58657 -3.62828 0
M  V30 17427 H 1655.61 -1.14796 -4.46272 0
M  V30 17428 H 1653.93 -0.883391 -4.06922 0
M  V30 17429 H 1656.53 1.71355 -5.06499 0
M  V30 17430 H 1656.87 2.31345 -3.461 0
M  V30 17431 H 1657.4 0.677813 -3.91983 0
M  V30 17432 H 1654.14 -0.848284 -6.49988 0
M  V30 17433 H 1653.66 0.772941 -5.94799 0
M  V30 17434 H 1655.34 0.460441 -6.4536 0
M  V30 17435 N 1655.47 1.57485 0.0601405 0
M  V30 17436 C 1656.89 1.54105 0.415187 0
M  V30 17437 C 1657.09 0.935177 1.78484 0
M  V30 17438 O 1656.14 0.542715 2.46599 0
M  V30 17439 C 1657.46 2.98708 0.34555 0
M  V30 17440 C 1659.01 3.10103 0.424895 0
M  V30 17441 C 1659.48 4.56379 0.385041 0
M  V30 17442 N 1660.97 4.6106 0.444771 0
M  V30 17443 C 1661.71 5.71737 0.436334 0
M  V30 17444 N 1661.2 6.91746 0.38202 0
M  V30 17445 N 1663 5.60014 0.483759 0
M  V30 17446 H 1655.15 1.95232 -0.836565 0
M  V30 17447 H 1657.41 0.894101 -0.3151 0
M  V30 17448 H 1657.12 3.4664 -0.594427 0
M  V30 17449 H 1656.99 3.59201 1.15129 0
M  V30 17450 H 1659.38 2.62137 1.3553 0
M  V30 17451 H 1659.46 2.52499 -0.409633 0
M  V30 17452 H 1659.1 5.05004 -0.541561 0
M  V30 17453 H 1659.03 5.11859 1.23726 0
M  V30 17454 H 1661.52 3.74703 0.490522 0
M  V30 17455 H 1661.84 7.71866 0.379829 0
M  V30 17456 H 1660.18 6.94126 0.348532 0
M  V30 17457 H 1663.37 4.65158 0.523965 0
M  V30 17458 H 1663.54 6.46266 0.473715 0
M  V30 17459 N 1656.95 -0.331789 1.54068 0
M  V30 17460 C 1658.2 -1.06818 1.71093 0
M  V30 17461 C 1658.51 -1.89438 0.487111 0
M  V30 17462 O 1659.72 -2.66105 0.538544 0
M  V30 17463 C 1658.17 -1.94853 3.02589 0
M  V30 17464 C 1657.78 -1.17384 4.32348 0
M  V30 17465 C 1659.53 -2.68278 3.28979 0
M  V30 17466 C 1657.43 -2.04518 5.54911 0
M  V30 17467 H 1656.36 -0.402501 0.63758 0
M  V30 17468 H 1659.01 -0.326918 1.80564 0
M  V30 17469 H 1657.4 -2.72845 2.87004 0
M  V30 17470 H 1658.57 -0.442208 4.58673 0
M  V30 17471 H 1656.89 -0.556775 4.12661 0
M  V30 17472 H 1659.48 -3.33762 4.1774 0
M  V30 17473 H 1659.83 -3.35476 2.46498 0
M  V30 17474 H 1660.36 -1.97353 3.45394 0
M  V30 17475 H 1657.1 -1.41842 6.3997 0
M  V30 17476 H 1656.62 -2.75438 5.32817 0
M  V30 17477 H 1658.3 -2.63297 5.91002 0
M  V30 17478 N 1658.43 -1.46001 -0.593424 0
M  V30 17479 C 1659.65 -1.54541 -1.38318 0
M  V30 17480 C 1660.08 -0.183555 -1.87202 0
M  V30 17481 O 1659.44 0.834407 -1.60958 0
M  V30 17482 C 1659.48 -2.54559 -2.55405 0
M  V30 17483 O 1658.59 -2.07321 -3.56499 0
M  V30 17484 H 1657.93 -0.520434 -0.412364 0
M  V30 17485 H 1660.46 -1.9148 -0.720862 0
M  V30 17486 H 1660.47 -2.73823 -3.02465 0
M  V30 17487 H 1659.14 -3.53461 -2.19176 0
M  V30 17488 H 1657.72 -1.97997 -3.15993 0
M  V30 17489 N 1659.91 0.83715 -1.33527 0
M  V30 17490 C 1661.13 1.62456 -1.28124 0
M  V30 17491 C 1661.55 1.88223 0.147499 0
M  V30 17492 O 1660.91 1.4636 1.09018 0
M  V30 17493 C 1660.96 2.97376 -2.05547 0
M  V30 17494 O 1660.68 2.7274 -3.42847 0
M  V30 17495 C 1662.18 3.91805 -2.07374 0
M  V30 17496 H 1659.4 0.505436 -0.441334 0
M  V30 17497 H 1661.94 1.04263 -1.75925 0
M  V30 17498 H 1660.1 3.52166 -1.61424 0
M  V30 17499 H 1660.51 3.58669 -3.82696 0
M  V30 17500 H 1661.99 4.83684 -2.65996 0
M  V30 17501 H 1662.46 4.26106 -1.06444 0
M  V30 17502 H 1663.07 3.42952 -2.51523 0
M  V30 17503 N 1661.38 1.17024 1.05561 0
M  V30 17504 C 1662.8 0.916718 1.30646 0
M  V30 17505 C 1663 -0.426248 1.9694 0
M  V30 17506 O 1662.06 -1.16408 2.24065 0
M  V30 17507 C 1663.37 2.07126 2.17989 0
M  V30 17508 C 1664.92 2.10787 2.31383 0
M  V30 17509 C 1665.39 3.25616 3.22084 0
M  V30 17510 N 1666.88 3.25381 3.29669 0
M  V30 17511 C 1667.62 4.10873 3.99964 0
M  V30 17512 N 1667.11 5.06468 4.72718 0
M  V30 17513 N 1668.91 3.98835 3.9609 0
M  V30 17514 H 1661.06 2.03474 0.609284 0
M  V30 17515 H 1663.32 0.888247 0.331243 0
M  V30 17516 H 1663.03 3.04168 1.76564 0
M  V30 17517 H 1662.9 2.01912 3.18609 0
M  V30 17518 H 1665.29 1.14333 2.72051 0
M  V30 17519 H 1665.37 2.20064 1.30405 0
M  V30 17520 H 1665.01 4.22333 2.8213 0
M  V30 17521 H 1664.94 3.13575 4.23058 0
M  V30 17522 H 1667.43 2.56164 2.77828 0
M  V30 17523 H 1667.75 5.68105 5.23905 0
M  V30 17524 H 1666.09 5.10441 4.71673 0
M  V30 17525 H 1669.28 3.23451 3.38375 0
M  V30 17526 H 1669.46 4.65682 4.50604 0
M  V30 17527 N 1662.86 -1.24221 0.969889 0
M  V30 17528 C 1663.79 -2.27619 0.520745 0
M  V30 17529 C 1664.77 -1.64291 -0.440731 0
M  V30 17530 O 1665.96 -1.91265 -0.336381 0
M  V30 17531 C 1663.09 -3.46792 -0.187768 0
M  V30 17532 C 1662.04 -4.22402 0.689945 0
M  V30 17533 C 1661.37 -5.34489 -0.150186 0
M  V30 17534 C 1662.67 -4.83494 1.97562 0
M  V30 17535 H 1664.36 -2.65441 1.38498 0
M  V30 17536 H 1661.91 -1.276 0.667398 0
M  V30 17537 H 1663.86 -4.18263 -0.513216 0
M  V30 17538 H 1662.59 -3.08002 -1.08637 0
M  V30 17539 H 1661.24 -3.52734 0.998696 0
M  V30 17540 H 1660.89 -4.9194 -1.049 0
M  V30 17541 H 1660.59 -5.85996 0.433891 0
M  V30 17542 H 1662.12 -6.08786 -0.470255 0
M  V30 17543 H 1663.53 -5.47028 1.71561 0
M  V30 17544 H 1661.93 -5.45243 2.5066 0
M  V30 17545 H 1663 -4.04826 2.66915 0
M  V30 17546 N 1664.34 -0.740267 -1.39132 0
M  V30 17547 C 1665.75 -0.359866 -1.83199 0
M  V30 17548 C 1666.1 1.1095 -1.61816 0
M  V30 17549 O 1665.23 1.85635 -1.11215 0
M  V30 17550 C 1665.82 -0.64639 -3.32577 0
M  V30 17551 C 1664.38 -0.319423 -3.75042 0
M  V30 17552 C 1663.53 -0.906345 -2.6207 0
M  V30 17553 H 1666.48 -0.93749 -1.2805 0
M  V30 17554 H 1666.5 0.080033 -3.80416 0
M  V30 17555 H 1666.01 -1.71588 -3.48108 0
M  V30 17556 H 1664.11 0.744022 -3.65096 0
M  V30 17557 H 1664.23 -0.805664 -4.72277 0
M  V30 17558 H 1662.59 -0.332615 -2.52519 0
M  V30 17559 H 1663.37 -1.9806 -2.80405 0
M  V30 17560 N 1665.82 1.49844 -0.488302 0
M  V30 17561 C 1667.04 2.07313 0.0600937 0
M  V30 17562 C 1667.47 1.3478 1.3121 0
M  V30 17563 O 1666.83 0.400634 1.76818 0
M  V30 17564 C 1666.87 3.59268 0.309658 0
M  V30 17565 O 1665.98 3.88381 1.38688 0
M  V30 17566 H 1665.32 0.663681 -0.0205947 0
M  V30 17567 H 1667.85 1.92818 -0.684284 0
M  V30 17568 H 1667.86 4.04344 0.545 0
M  V30 17569 H 1666.53 4.11474 -0.605146 0
M  V30 17570 H 1665.11 3.55128 1.13749 0
M  V30 17571 N 1667.3 0.221601 1.56034 0
M  V30 17572 C 1668.24 -0.688502 2.20291 0
M  V30 17573 C 1669.21 -1.19028 1.15851 0
M  V30 17574 O 1670.4 -1.24936 1.44206 0
M  V30 17575 C 1667.54 -1.89101 2.88678 0
M  V30 17576 C 1666.65 -1.42812 4.07711 0
M  V30 17577 C 1665.79 -2.5882 4.63881 0
M  V30 17578 C 1664.83 -2.09268 5.75216 0
M  V30 17579 N 1663.96 -3.18549 6.25676 0
M  V30 17580 H 1668.8 -0.133824 2.97699 0
M  V30 17581 H 1666.34 -0.0543007 1.47 0
M  V30 17582 H 1668.3 -2.59704 3.26512 0
M  V30 17583 H 1666.93 -2.41857 2.13788 0
M  V30 17584 H 1665.98 -0.617019 3.75363 0
M  V30 17585 H 1667.29 -1.02478 4.8816 0
M  V30 17586 H 1666.45 -3.37505 5.04158 0
M  V30 17587 H 1665.18 -3.02443 3.82596 0
M  V30 17588 H 1664.19 -1.29045 5.34441 0
M  V30 17589 H 1665.41 -1.66645 6.58336 0
M  V30 17590 H 1663.36 -3.61653 5.47305 0
M  V30 17591 H 1663.28 -2.82466 7.01248 0
M  V30 17592 H 1664.55 -3.97369 6.7061 0
M  V30 17593 N 1668.77 -1.57515 -0.0517878 0
M  V30 17594 C 1670 -1.92177 -0.758384 0
M  V30 17595 C 1670.41 -0.817721 -1.70616 0
M  V30 17596 O 1669.76 0.216391 -1.82421 0
M  V30 17597 C 1669.82 -3.22471 -1.58912 0
M  V30 17598 C 1669.48 -4.4979 -0.808569 0
M  V30 17599 C 1670.48 -5.19764 -0.118871 0
M  V30 17600 C 1668.16 -4.96366 -0.769824 0
M  V30 17601 C 1670.16 -6.34578 0.599123 0
M  V30 17602 C 1667.84 -6.11081 -0.0480698 0
M  V30 17603 C 1668.84 -6.8004 0.635185 0
M  V30 17604 O 1668.53 -7.92564 1.34527 0
M  V30 17605 H 1668.26 -0.639335 -0.219607 0
M  V30 17606 H 1670.82 -2.0539 -0.0202648 0
M  V30 17607 H 1669.05 -3.05522 -2.37051 0
M  V30 17608 H 1670.74 -3.4263 -2.17622 0
M  V30 17609 H 1671.5 -4.84798 -0.139982 0
M  V30 17610 H 1667.38 -4.42551 -1.29112 0
M  V30 17611 H 1670.92 -6.88338 1.13298 0
M  V30 17612 H 1666.82 -6.45495 -0.0249563 0
M  V30 17613 H 1667.59 -8.08797 1.2566 0
M  V30 17614 N 1670.25 0.323614 -1.54242 0
M  V30 17615 C 1671.18 1.40344 -1.86616 0
M  V30 17616 C 1672.16 1.53972 -0.722963 0
M  V30 17617 O 1673.35 1.67852 -0.976692 0
M  V30 17618 C 1670.48 2.77112 -2.09347 0
M  V30 17619 C 1669.43 2.78273 -3.25189 0
M  V30 17620 C 1668.76 4.18116 -3.33291 0
M  V30 17621 C 1670.06 2.42025 -4.6284 0
M  V30 17622 H 1671.75 1.13499 -2.77053 0
M  V30 17623 H 1669.3 0.544553 -1.33306 0
M  V30 17624 H 1671.25 3.52719 -2.3058 0
M  V30 17625 H 1669.98 3.05435 -1.1566 0
M  V30 17626 H 1668.64 2.05121 -3.03844 0
M  V30 17627 H 1668.28 4.4358 -2.37163 0
M  V30 17628 H 1667.98 4.19799 -4.11147 0
M  V30 17629 H 1669.51 4.95536 -3.56758 0
M  V30 17630 H 1670.92 3.07346 -4.83954 0
M  V30 17631 H 1669.32 2.5496 -5.43245 0
M  V30 17632 H 1670.39 1.37175 -4.65092 0
M  V30 17633 N 1671.73 1.46313 0.585673 0
M  V30 17634 C 1672.96 1.54811 1.36811 0
M  V30 17635 C 1673.37 0.187083 1.88273 0
M  V30 17636 O 1672.71 -0.825324 1.64116 0
M  V30 17637 C 1672.77 2.48978 2.59326 0
M  V30 17638 C 1672.44 3.9528 2.29352 0
M  V30 17639 C 1673.44 4.84575 1.88369 0
M  V30 17640 C 1671.12 4.40387 2.41588 0
M  V30 17641 C 1673.11 6.16989 1.60012 0
M  V30 17642 C 1670.8 5.72836 2.12844 0
M  V30 17643 C 1671.8 6.60956 1.72121 0
M  V30 17644 O 1671.49 7.90947 1.43727 0
M  V30 17645 H 1671.22 0.526169 0.424409 0
M  V30 17646 H 1673.77 1.92395 0.719251 0
M  V30 17647 H 1672 2.06406 3.27007 0
M  V30 17648 H 1673.69 2.47915 3.21392 0
M  V30 17649 H 1674.46 4.50984 1.78433 0
M  V30 17650 H 1670.34 3.72024 2.72249 0
M  V30 17651 H 1673.88 6.85728 1.28152 0
M  V30 17652 H 1669.78 6.05976 2.22403 0
M  V30 17653 H 1670.55 8.03185 1.57597 0
M  V30 17654 N 1673.21 -0.830057 1.33969 0
M  V30 17655 C 1674.46 -1.58272 1.25675 0
M  V30 17656 C 1674.78 -1.94213 -0.175071 0
M  V30 17657 O 1674.05 -1.61694 -1.10597 0
M  V30 17658 H 1672.63 -0.586858 0.462176 0
M  V30 17659 H 1675.29 -0.991495 1.67796 0
M  V30 17660 H 1674.39 -2.50874 1.85658 0
M  V30 17661 N 1674.69 -1.17582 -1.04939 0
M  V30 17662 C 1675.93 -0.965778 -1.77986 0
M  V30 17663 C 1676.26 0.505366 -1.8782 0
M  V30 17664 O 1675.52 1.39132 -1.37625 0
M  V30 17665 C 1675.82 -1.55507 -3.21796 0
M  V30 17666 C 1675.48 -3.05086 -3.32014 0
M  V30 17667 C 1674.14 -3.45914 -3.3451 0
M  V30 17668 C 1676.5 -4.01096 -3.32824 0
M  V30 17669 C 1673.82 -4.81344 -3.35447 0
M  V30 17670 C 1676.18 -5.3643 -3.353 0
M  V30 17671 C 1674.84 -5.76718 -3.36084 0
M  V30 17672 H 1674.11 -0.353403 -0.651297 0
M  V30 17673 H 1676.76 -1.46512 -1.23315 0
M  V30 17674 H 1675.06 -0.977509 -3.7941 0
M  V30 17675 H 1676.76 -1.36807 -3.76941 0
M  V30 17676 H 1673.35 -2.72541 -3.30786 0
M  V30 17677 H 1677.53 -3.7061 -3.30094 0
M  V30 17678 H 1672.79 -5.11868 -3.34366 0
M  V30 17679 H 1676.96 -6.106 -3.34874 0
M  V30 17680 H 1674.59 -6.81637 -3.36563 0
M  V30 17681 N 1676.17 1.23705 -0.976463 0
M  V30 17682 C 1677.41 1.91635 -0.641897 0
M  V30 17683 C 1677.73 1.7661 0.826678 0
M  V30 17684 O 1677 1.14304 1.59096 0
M  V30 17685 H 1675.58 0.709264 -0.234422 0
M  V30 17686 H 1678.25 1.50414 -1.23943 0
M  V30 17687 H 1677.34 2.99138 -0.890099 0
M  V30 17688 N 1677.64 0.747635 1.38738 0
M  V30 17689 C 1678.55 0.117879 2.34304 0
M  V30 17690 C 1679.57 -0.707488 1.58967 0
M  V30 17691 O 1680.75 -0.633025 1.91193 0
M  V30 17692 C 1677.81 -0.769223 3.38059 0
M  V30 17693 C 1676.87 0.0698358 4.29243 0
M  V30 17694 C 1676.1 -0.775021 5.28043 0
M  V30 17695 O 1676.33 -2.01328 5.33688 0
M  V30 17696 O 1675.26 -0.196978 6.01578 0
M  V30 17697 H 1679.09 0.906972 2.89841 0
M  V30 17698 H 1676.67 0.508453 1.40482 0
M  V30 17699 H 1678.55 -1.27641 4.01604 0
M  V30 17700 H 1677.23 -1.53691 2.84887 0
M  V30 17701 H 1676.14 0.622836 3.68879 0
M  V30 17702 H 1677.47 0.80004 4.85654 0
M  V30 17703 N 1679.12 -1.49583 0.496242 0
M  V30 17704 C 1680.35 -2.06847 -0.0469118 0
M  V30 17705 C 1680.76 -1.35715 -1.31251 0
M  V30 17706 O 1680.12 -0.434021 -1.77264 0
M  V30 17707 C 1680.17 -3.60174 -0.309338 0
M  V30 17708 O 1679.89 -4.28628 0.906082 0
M  V30 17709 C 1681.39 -4.34137 -0.896664 0
M  V30 17710 H 1678.61 -0.67075 0.0183324 0
M  V30 17711 H 1681.16 -1.92427 0.692237 0
M  V30 17712 H 1679.31 -3.74312 -0.998459 0
M  V30 17713 H 1679.73 -5.20254 0.666014 0
M  V30 17714 H 1681.2 -5.42307 -1.0299 0
M  V30 17715 H 1681.68 -3.96299 -1.89325 0
M  V30 17716 H 1682.28 -4.24593 -0.245158 0
M  V30 17717 N 1680.6 -0.229873 -1.55915 0
M  V30 17718 C 1681.51 0.687953 -2.24286 0
M  V30 17719 C 1682.53 1.20705 -1.25325 0
M  V30 17720 O 1683.7 1.2469 -1.58159 0
M  V30 17721 C 1680.77 1.87563 -2.91584 0
M  V30 17722 C 1679.83 1.39769 -4.0591 0
M  V30 17723 C 1679.06 2.52876 -4.69989 0
M  V30 17724 O 1679.28 3.71208 -4.33083 0
M  V30 17725 O 1678.22 2.23603 -5.58825 0
M  V30 17726 H 1682.04 0.135464 -3.03398 0
M  V30 17727 H 1679.63 0.000925172 -1.494 0
M  V30 17728 H 1681.51 2.56907 -3.34031 0
M  V30 17729 H 1680.19 2.41606 -2.15426 0
M  V30 17730 H 1679.09 0.672029 -3.68014 0
M  V30 17731 H 1680.43 0.903543 -4.83836 0
M  V30 17732 N 1682.08 1.5754 0.0434337 0
M  V30 17733 C 1683.03 2.0207 1.05602 0
M  V30 17734 C 1684.01 0.907491 1.32866 0
M  V30 17735 O 1685.2 1.17141 1.32692 0
M  V30 17736 C 1682.33 2.49176 2.36149 0
M  V30 17737 C 1681.42 3.67289 2.12037 0
M  V30 17738 N 1681.81 4.8051 1.57937 0
M  V30 17739 C 1680.11 3.74386 2.42387 0
M  V30 17740 C 1680.81 5.62214 1.49298 0
M  V30 17741 N 1679.78 5.06899 1.96353 0
M  V30 17742 H 1683.59 2.87035 0.631515 0
M  V30 17743 H 1681.1 1.60464 0.250012 0
M  V30 17744 H 1683.1 2.79331 3.09483 0
M  V30 17745 H 1681.76 1.65611 2.79291 0
M  V30 17746 H 1682.77 5.02237 1.26405 0
M  V30 17747 H 1679.45 3.01592 2.88701 0
M  V30 17748 H 1680.84 6.6315 1.08082 0
M  V30 17749 N 1683.56 -0.31543 1.54411 0
M  V30 17750 C 1684.97 -0.660254 1.45302 0
M  V30 17751 C 1685.17 -1.91316 0.632493 0
M  V30 17752 O 1684.23 -2.52142 0.134493 0
M  V30 17753 C 1685.54 -0.826685 2.89113 0
M  V30 17754 C 1687.09 -0.923503 2.99066 0
M  V30 17755 C 1687.56 -1.12204 4.44043 0
M  V30 17756 N 1689.05 -1.18859 4.47691 0
M  V30 17757 C 1689.79 -1.36024 5.57032 0
M  V30 17758 N 1689.29 -1.5018 6.76327 0
M  V30 17759 N 1691.08 -1.38797 5.44694 0
M  V30 17760 H 1683.23 0.507961 2.06237 0
M  V30 17761 H 1685.49 0.165515 0.933439 0
M  V30 17762 H 1685.2 0.0228371 3.51693 0
M  V30 17763 H 1685.07 -1.72007 3.35698 0
M  V30 17764 H 1687.46 -1.76352 2.36609 0
M  V30 17765 H 1687.54 -0.00641189 2.55799 0
M  V30 17766 H 1687.18 -0.286844 5.07089 0
M  V30 17767 H 1687.11 -2.05313 4.84927 0
M  V30 17768 H 1689.61 -1.0933 3.61739 0
M  V30 17769 H 1689.92 -1.62992 7.55416 0
M  V30 17770 H 1688.26 -1.47262 6.79219 0
M  V30 17771 H 1691.45 -1.27339 4.50447 0
M  V30 17772 H 1691.63 -1.51832 6.29961 0
M  V30 17773 N 1685.03 -1.46622 -0.577906 0
M  V30 17774 C 1686.26 -1.56 -1.36671 0
M  V30 17775 C 1686.68 -0.2034 -1.86997 0
M  V30 17776 O 1686.04 0.817288 -1.61834 0
M  V30 17777 C 1686.09 -2.57254 -2.52691 0
M  V30 17778 O 1685.19 -2.1109 -3.54281 0
M  V30 17779 H 1684.54 -0.524779 -0.406821 0
M  V30 17780 H 1687.07 -1.92234 -0.700512 0
M  V30 17781 H 1687.08 -2.77016 -2.99543 0
M  V30 17782 H 1685.75 -3.55766 -2.15415 0
M  V30 17783 H 1684.33 -2.01337 -3.13875 0
M  V30 17784 N 1686.51 0.822941 -1.34408 0
M  V30 17785 C 1687.74 1.60854 -1.29652 0
M  V30 17786 C 1688.15 1.88742 0.131572 0
M  V30 17787 O 1687.49 1.47936 1.08907 0
M  V30 17788 C 1687.56 2.97437 -2.0192 0
M  V30 17789 C 1687.22 2.92443 -3.51178 0
M  V30 17790 C 1688.22 2.67029 -4.46085 0
M  V30 17791 C 1685.9 3.12076 -3.93591 0
M  V30 17792 C 1687.9 2.61299 -5.81379 0
M  V30 17793 C 1685.58 3.05971 -5.28985 0
M  V30 17794 C 1686.58 2.80615 -6.22691 0
M  V30 17795 O 1686.27 2.74442 -7.55603 0
M  V30 17796 H 1686 0.506701 -0.447471 0
M  V30 17797 H 1688.55 1.03197 -1.77594 0
M  V30 17798 H 1686.78 3.57012 -1.48592 0
M  V30 17799 H 1688.47 3.58444 -1.90455 0
M  V30 17800 H 1689.24 2.51596 -4.14638 0
M  V30 17801 H 1685.12 3.30828 -3.21051 0
M  V30 17802 H 1688.66 2.41428 -6.54491 0
M  V30 17803 H 1684.56 3.20957 -5.60051 0
M  V30 17804 H 1685.33 2.90169 -7.65339 0
M  V30 17805 N 1687.99 1.18137 1.04314 0
M  V30 17806 C 1689.41 0.930523 1.29667 0
M  V30 17807 C 1689.61 -0.405336 1.97381 0
M  V30 17808 O 1688.66 -1.14025 2.25288 0
M  V30 17809 C 1689.98 2.09427 2.1578 0
M  V30 17810 C 1691.52 2.13229 2.29134 0
M  V30 17811 C 1692 3.29014 3.18612 0
M  V30 17812 N 1693.49 3.28859 3.26199 0
M  V30 17813 C 1694.22 4.15092 3.95583 0
M  V30 17814 N 1693.72 5.11453 4.67319 0
M  V30 17815 N 1695.51 4.03014 3.91837 0
M  V30 17816 H 1687.66 2.04108 0.587669 0
M  V30 17817 H 1689.93 0.89171 0.321804 0
M  V30 17818 H 1689.63 3.06023 1.73328 0
M  V30 17819 H 1689.51 2.0528 3.16449 0
M  V30 17820 H 1691.89 1.17212 2.70823 0
M  V30 17821 H 1691.98 2.21435 1.28064 0
M  V30 17822 H 1691.62 4.25302 2.77635 0
M  V30 17823 H 1691.55 3.18045 4.19708 0
M  V30 17824 H 1694.04 2.59097 2.75095 0
M  V30 17825 H 1694.35 5.7363 5.1785 0
M  V30 17826 H 1692.7 5.15415 4.66232 0
M  V30 17827 H 1695.89 3.27021 3.34925 0
M  V30 17828 H 1696.06 4.70435 4.4564 0
M  V30 17829 N 1689.47 -1.23186 0.98301 0
M  V30 17830 C 1690.88 -1.43814 0.69207 0
M  V30 17831 C 1691.08 -1.87387 -0.740823 0
M  V30 17832 O 1690.14 -2.02154 -1.51295 0
M  V30 17833 C 1691.45 -2.48769 1.68922 0
M  V30 17834 C 1693 -2.62579 1.70356 0
M  V30 17835 C 1693.48 -3.70746 2.68908 0
M  V30 17836 N 1694.97 -3.78192 2.67442 0
M  V30 17837 C 1695.7 -4.61453 3.40366 0
M  V30 17838 N 1695.2 -5.48784 4.22857 0
M  V30 17839 N 1696.99 -4.55673 3.29118 0
M  V30 17840 H 1689.14 -0.932046 1.90858 0
M  V30 17841 H 1691.41 -0.471274 0.82256 0
M  V30 17842 H 1691.11 -2.23675 2.71408 0
M  V30 17843 H 1690.99 -3.47201 1.47415 0
M  V30 17844 H 1693.37 -2.87022 0.685728 0
M  V30 17845 H 1693.45 -1.64454 1.9593 0
M  V30 17846 H 1693.1 -3.47051 3.70834 0
M  V30 17847 H 1693.03 -4.68418 2.40607 0
M  V30 17848 H 1695.52 -3.15785 2.07577 0
M  V30 17849 H 1695.83 -6.09312 4.75351 0
M  V30 17850 H 1694.18 -5.48398 4.26948 0
M  V30 17851 H 1697.37 -3.86468 2.64122 0
M  V30 17852 H 1697.54 -5.20332 3.8621 0
M  V30 17853 N 1690.95 -0.754982 -1.38339 0
M  V30 17854 C 1692.22 -0.237208 -1.94156 0
M  V30 17855 C 1692.6 1.26479 -1.69016 0
M  V30 17856 O 1691.95 2.03995 -1.02948 0
M  V30 17857 C 1692.16 -0.592412 -3.43935 0
M  V30 17858 C 1693.51 -0.552832 -4.20986 0
M  V30 17859 O 1694.53 -0.530789 -3.52223 0
M  V30 17860 O 1693.39 -0.565006 -5.43571 0
M  V30 17861 H 1690.49 -0.0500619 -0.825483 0
M  V30 17862 H 1693.03 -0.835199 -1.47724 0
M  V30 17863 H 1691.8 -1.62969 -3.55748 0
M  V30 17864 H 1691.43 0.0335119 -3.97586 0
M  V30 17865 N 1692.42 1.49318 -0.504168 0
M  V30 17866 C 1693.35 2.32027 0.261837 0
M  V30 17867 C 1694.34 1.4045 0.959575 0
M  V30 17868 O 1695.52 1.69357 0.950365 0
M  V30 17869 C 1692.65 3.21039 1.3248 0
M  V30 17870 C 1691.6 4.21435 0.746752 0
M  V30 17871 C 1690.93 4.99405 1.91047 0
M  V30 17872 C 1692.23 5.21631 -0.264315 0
M  V30 17873 H 1693.92 2.96317 -0.428544 0
M  V30 17874 H 1691.47 1.42497 -0.207539 0
M  V30 17875 H 1693.42 3.77714 1.86843 0
M  V30 17876 H 1692.15 2.54699 2.04441 0
M  V30 17877 H 1690.81 3.6591 0.22485 0
M  V30 17878 H 1690.45 4.29509 2.61784 0
M  V30 17879 H 1690.15 5.67338 1.52975 0
M  V30 17880 H 1691.68 5.58924 2.45837 0
M  V30 17881 H 1693.09 5.72981 0.191288 0
M  V30 17882 H 1691.49 5.97472 -0.561039 0
M  V30 17883 H 1692.56 4.70346 -1.17911 0
M  V30 17884 N 1693.9 0.238138 1.5579 0
M  V30 17885 C 1694.81 -0.676049 2.24648 0
M  V30 17886 C 1695.83 -1.20038 1.25964 0
M  V30 17887 O 1697 -1.2385 1.58818 0
M  V30 17888 C 1694.07 -1.86014 2.92574 0
M  V30 17889 C 1693.13 -1.37615 4.06646 0
M  V30 17890 C 1692.36 -2.5038 4.71323 0
M  V30 17891 O 1692.59 -3.68906 4.35045 0
M  V30 17892 O 1691.52 -2.20636 5.60003 0
M  V30 17893 H 1695.35 -0.119372 3.03465 0
M  V30 17894 H 1692.93 0.00699789 1.49398 0
M  V30 17895 H 1694.81 -2.55132 3.35389 0
M  V30 17896 H 1693.49 -2.4046 2.16704 0
M  V30 17897 H 1692.4 -0.652503 3.68366 0
M  V30 17898 H 1693.73 -0.877871 4.84308 0
M  V30 17899 N 1695.38 -1.57561 -0.0350783 0
M  V30 17900 C 1696.63 -1.90127 -0.722727 0
M  V30 17901 C 1696.98 -0.836071 -1.73285 0
M  V30 17902 O 1696.27 0.155911 -1.90965 0
M  V30 17903 C 1696.47 -3.27169 -1.43858 0
M  V30 17904 C 1696.3 -4.4692 -0.499303 0
M  V30 17905 C 1695.07 -5.05151 -0.122572 0
M  V30 17906 C 1697.27 -5.1383 0.219747 0
M  V30 17907 N 1695.25 -6.08418 0.818587 0
M  V30 17908 C 1696.62 -6.11606 1.01678 0
M  V30 17909 C 1698.67 -4.9707 0.287329 0
M  V30 17910 C 1697.38 -6.94428 1.87517 0
M  V30 17911 C 1699.4 -5.80449 1.13282 0
M  V30 17912 C 1698.76 -6.77791 1.9178 0
M  V30 17913 H 1694.86 -0.744663 -0.238749 0
M  V30 17914 H 1697.45 -1.94693 0.0170172 0
M  V30 17915 H 1695.62 -3.23543 -2.14882 0
M  V30 17916 H 1697.35 -3.47269 -2.07814 0
M  V30 17917 H 1694.11 -4.71126 -0.483458 0
M  V30 17918 H 1694.53 -6.64722 1.2835 0
M  V30 17919 H 1699.17 -4.21697 -0.305248 0
M  V30 17920 H 1696.89 -7.69151 2.47857 0
M  V30 17921 H 1700.48 -5.6953 1.18857 0
M  V30 17922 H 1699.36 -7.41187 2.56147 0
M  V30 17923 N 1696.86 0.307236 -1.54576 0
M  V30 17924 C 1697.81 1.38019 -1.81479 0
M  V30 17925 C 1698.79 1.46213 -0.671612 0
M  V30 17926 O 1699.98 1.5047 -0.932077 0
M  V30 17927 C 1697.11 2.74621 -2.06005 0
M  V30 17928 C 1696.2 2.70675 -3.2649 0
M  V30 17929 N 1696.59 2.36346 -4.47185 0
M  V30 17930 C 1694.89 3.01786 -3.28392 0
M  V30 17931 C 1695.59 2.41543 -5.2918 0
M  V30 17932 N 1694.57 2.78646 -4.66752 0
M  V30 17933 H 1698.37 1.10432 -2.72364 0
M  V30 17934 H 1695.88 0.515792 -1.53991 0
M  V30 17935 H 1697.88 3.51977 -2.23424 0
M  V30 17936 H 1696.54 3.03125 -1.16384 0
M  V30 17937 H 1697.55 2.08908 -4.73896 0
M  V30 17938 H 1694.23 3.35225 -2.48858 0
M  V30 17939 H 1695.62 2.17854 -6.35602 0
M  V30 17940 N 1698.34 1.46926 0.570122 0
M  V30 17941 C 1699.56 1.5648 1.35358 0
M  V30 17942 C 1699.98 0.210356 1.87624 0
M  V30 17943 O 1699.34 -0.794388 1.64304 0
M  V30 17944 C 1699.39 2.57973 2.53243 0
M  V30 17945 O 1699.11 3.88157 2.03139 0
M  V30 17946 C 1700.61 2.77587 3.4563 0
M  V30 17947 H 1697.83 0.528787 0.413068 0
M  V30 17948 H 1700.37 1.9244 0.691895 0
M  V30 17949 H 1698.53 2.24982 3.15375 0
M  V30 17950 H 1698.94 4.43506 2.80004 0
M  V30 17951 H 1700.42 3.52495 4.24795 0
M  V30 17952 H 1700.89 1.84944 3.98362 0
M  V30 17953 H 1701.5 3.11724 2.89324 0
M  V30 17954 N 1699.82 -0.815801 1.34842 0
M  V30 17955 C 1701.06 -1.57426 1.28797 0
M  V30 17956 C 1701.42 -1.91897 -0.138973 0
M  V30 17957 O 1700.71 -1.57777 -1.08706 0
M  V30 17958 C 1700.9 -2.87795 2.11917 0
M  V30 17959 C 1700.73 -2.6606 3.62549 0
M  V30 17960 C 1699.5 -2.62428 4.3181 0
M  V30 17961 C 1701.7 -2.37078 4.56397 0
M  V30 17962 N 1699.68 -2.32313 5.68246 0
M  V30 17963 C 1701.05 -2.16721 5.80889 0
M  V30 17964 C 1703.11 -2.22865 4.45237 0
M  V30 17965 C 1701.81 -1.8359 6.95476 0
M  V30 17966 C 1703.84 -1.9113 5.59663 0
M  V30 17967 C 1703.2 -1.71602 6.83178 0
M  V30 17968 H 1699.3 -0.578164 0.526545 0
M  V30 17969 H 1701.88 -0.955728 1.69629 0
M  V30 17970 H 1700.05 -3.47559 1.7337 0
M  V30 17971 H 1701.79 -3.53258 1.97461 0
M  V30 17972 H 1698.54 -2.76753 3.84324 0
M  V30 17973 H 1698.96 -2.20076 6.40231 0
M  V30 17974 H 1703.61 -2.36665 3.50357 0
M  V30 17975 H 1701.32 -1.68528 7.90332 0
M  V30 17976 H 1704.91 -1.80854 5.52976 0
M  V30 17977 H 1703.79 -1.47403 7.70222 0
M  V30 17978 N 1701.29 -1.18689 -1.03686 0
M  V30 17979 C 1702.54 -0.982656 -1.76602 0
M  V30 17980 C 1702.86 0.488553 -1.88781 0
M  V30 17981 O 1702.13 1.35419 -1.41558 0
M  V30 17982 H 1700.71 -0.360595 -0.654202 0
M  V30 17983 H 1703.37 -1.49439 -1.25115 0
M  V30 17984 H 1702.47 -1.42392 -2.77725 0
M  V30 17985 N 1702.77 1.22662 -0.989529 0
M  V30 17986 C 1703.7 2.23052 -0.481994 0
M  V30 17987 C 1704.68 1.56078 0.455885 0
M  V30 17988 O 1705.87 1.84584 0.382214 0
M  V30 17989 C 1702.99 3.37354 0.301658 0
M  V30 17990 C 1702.04 4.22514 -0.581711 0
M  V30 17991 S 1702.87 4.95326 -2.03501 0
M  V30 17992 C 1704.03 6.13071 -1.26075 0
M  V30 17993 H 1704.26 2.65757 -1.33268 0
M  V30 17994 H 1701.79 1.32286 -0.796233 0
M  V30 17995 H 1703.75 4.03632 0.747763 0
M  V30 17996 H 1702.41 2.93163 1.12758 0
M  V30 17997 H 1701.61 5.03996 0.0210757 0
M  V30 17998 H 1701.21 3.61351 -0.964439 0
M  V30 17999 H 1703.5 6.7545 -0.526687 0
M  V30 18000 H 1704.44 6.77754 -2.05072 0
M  V30 18001 H 1704.85 5.59147 -0.775524 0
M  V30 18002 N 1704.25 0.762308 1.37937 0
M  V30 18003 C 1705.5 0.322369 1.99918 0
M  V30 18004 C 1705.82 -1.09843 1.60514 0
M  V30 18005 O 1705.08 -1.76837 0.83829 0
M  V30 18006 C 1705.38 0.402558 3.55126 0
M  V30 18007 C 1705.04 1.78025 4.14268 0
M  V30 18008 C 1703.71 2.15727 4.30134 0
M  V30 18009 C 1706.06 2.68359 4.46803 0
M  V30 18010 C 1703.39 3.43217 4.75835 0
M  V30 18011 C 1705.74 3.95248 4.93925 0
M  V30 18012 C 1704.4 4.33007 5.07997 0
M  V30 18013 H 1703.67 0.117963 0.73155 0
M  V30 18014 H 1706.32 0.974491 1.64851 0
M  V30 18015 H 1704.62 -0.333119 3.90381 0
M  V30 18016 H 1706.32 0.0436064 4.00976 0
M  V30 18017 H 1702.91 1.4772 4.02339 0
M  V30 18018 H 1707.1 2.40493 4.34139 0
M  V30 18019 H 1702.35 3.72379 4.84916 0
M  V30 18020 H 1706.53 4.6538 5.18068 0
M  V30 18021 H 1704.15 5.31856 5.4317 0
M  V30 18022 N 1705.73 -1.49049 0.51208 0
M  V30 18023 C 1706.95 -2.07382 -0.0271044 0
M  V30 18024 C 1707.38 -1.3685 -1.29049 0
M  V30 18025 O 1706.74 -0.428713 -1.76158 0
M  V30 18026 C 1706.78 -3.59715 -0.252462 0
M  V30 18027 O 1705.89 -3.90538 -1.32491 0
M  V30 18028 H 1705.23 -0.663269 0.0311507 0
M  V30 18029 H 1707.76 -1.91705 0.714873 0
M  V30 18030 H 1707.77 -4.05159 -0.480603 0
M  V30 18031 H 1706.44 -4.10459 0.670531 0
M  V30 18032 H 1705.02 -3.56892 -1.08085 0
M  V30 18033 N 1707.21 -0.246397 -1.55662 0
M  V30 18034 C 1708.62 0.108465 -1.59231 0
M  V30 18035 C 1708.82 1.56961 -1.26354 0
M  V30 18036 O 1707.88 2.31393 -1.01062 0
M  V30 18037 C 1709.19 -0.240265 -2.99739 0
M  V30 18038 C 1710.74 -0.184523 -3.12456 0
M  V30 18039 C 1711.21 -0.507279 -4.55182 0
M  V30 18040 N 1712.7 -0.457761 -4.60933 0
M  V30 18041 C 1713.44 -0.680664 -5.69346 0
M  V30 18042 N 1712.94 -0.966667 -6.86023 0
M  V30 18043 N 1714.73 -0.611405 -5.58765 0
M  V30 18044 H 1706.88 -1.19928 -1.75303 0
M  V30 18045 H 1709.14 -0.482503 -0.816024 0
M  V30 18046 H 1708.85 -1.25535 -3.28533 0
M  V30 18047 H 1708.72 0.432872 -3.74708 0
M  V30 18048 H 1711.11 0.821232 -2.83443 0
M  V30 18049 H 1711.19 -0.891504 -2.39762 0
M  V30 18050 H 1710.83 -1.51059 -4.84916 0
M  V30 18051 H 1710.76 0.221174 -5.26135 0
M  V30 18052 H 1713.26 -0.245414 -3.77102 0
M  V30 18053 H 1713.57 -1.12419 -7.6458 0
M  V30 18054 H 1711.91 -1.00413 -6.87708 0
M  V30 18055 H 1715.1 -0.388018 -4.66489 0
M  V30 18056 H 1715.28 -0.788519 -6.43185 0
M  V30 18057 N 1708.68 1.57577 0.026722 0
M  V30 18058 C 1709.96 1.80541 0.752606 0
M  V30 18059 C 1710.34 0.845025 1.93449 0
M  V30 18060 O 1709.69 -0.112286 2.28224 0
M  V30 18061 C 1709.9 3.28322 1.18345 0
M  V30 18062 C 1711.25 3.93366 1.59839 0
M  V30 18063 O 1712.27 3.32486 1.27796 0
M  V30 18064 O 1711.13 5.0056 2.19321 0
M  V30 18065 H 1708.22 0.742514 0.364146 0
M  V30 18066 H 1710.77 1.697 0.00332 0
M  V30 18067 H 1709.54 3.89822 0.339832 0
M  V30 18068 H 1709.16 3.44061 1.99267 0
M  V30 18069 N 1710.16 -0.299034 1.54737 0
M  V30 18070 C 1711.09 -1.39055 1.82199 0
M  V30 18071 C 1712.11 -1.46741 0.705038 0
M  V30 18072 O 1713.3 -1.49025 0.982543 0
M  V30 18073 C 1710.4 -2.7741 1.94671 0
M  V30 18074 C 1709.57 -2.92633 3.25092 0
M  V30 18075 C 1708.63 -4.11499 3.27956 0
M  V30 18076 O 1707.65 -4.03491 4.01477 0
M  V30 18077 N 1708.86 -5.2223 2.53488 0
M  V30 18078 H 1711.62 -1.15852 2.76402 0
M  V30 18079 H 1709.18 -0.489108 1.54335 0
M  V30 18080 H 1711.17 -3.55178 1.93987 0
M  V30 18081 H 1709.74 -2.93552 1.07453 0
M  V30 18082 H 1708.96 -2.01962 3.38534 0
M  V30 18083 H 1710.25 -2.99716 4.11154 0
M  V30 18084 H 1709.65 -5.31617 1.93391 0
M  V30 18085 H 1708.21 -5.98325 2.58555 0
M  V30 18086 N 1711.64 -1.47227 -0.562322 0
M  V30 18087 C 1713.05 -1.47509 -1.14446 0
M  V30 18088 C 1713.4 -0.22699 -1.94883 0
M  V30 18089 O 1712.53 0.668483 -2.05816 0
M  V30 18090 C 1713.12 -2.67266 -2.08217 0
M  V30 18091 C 1711.68 -2.70524 -2.61713 0
M  V30 18092 C 1710.83 -2.4053 -1.37988 0
M  V30 18093 H 1713.78 -1.54811 -0.349185 0
M  V30 18094 H 1713.8 -2.43945 -2.92012 0
M  V30 18095 H 1713.31 -3.58089 -1.49646 0
M  V30 18096 H 1711.41 -1.83827 -3.24096 0
M  V30 18097 H 1711.53 -3.71072 -3.03056 0
M  V30 18098 H 1709.89 -1.91007 -1.68489 0
M  V30 18099 H 1710.67 -3.33554 -0.812177 0
M  V30 18100 N 1713.12 0.808639 -1.35273 0
M  V30 18101 C 1714.53 1.38248 -1.25477 0
M  V30 18102 C 1714.88 1.9587 0.113715 0
M  V30 18103 O 1714 1.91141 1.0146 0
M  V30 18104 C 1714.6 2.5133 -2.27197 0
M  V30 18105 C 1713.16 3.04582 -2.21148 0
M  V30 18106 C 1712.31 1.77534 -2.13019 0
M  V30 18107 H 1715.26 0.611844 -1.46431 0
M  V30 18108 H 1715.28 3.29825 -1.89726 0
M  V30 18109 H 1714.79 2.09362 -3.26786 0
M  V30 18110 H 1712.89 3.5102 -1.24963 0
M  V30 18111 H 1713 3.62703 -3.13023 0
M  V30 18112 H 1711.37 1.99004 -1.58964 0
M  V30 18113 H 1712.15 1.3772 -3.14465 0
M  V30 18114 N 1714.6 1.19237 1.03055 0
M  V30 18115 C 1715.84 0.992008 1.76078 0
M  V30 18116 C 1716.17 -0.478535 1.89037 0
M  V30 18117 O 1715.44 -1.34666 1.42274 0
M  V30 18118 H 1714.02 0.364059 0.652281 0
M  V30 18119 H 1716.68 1.50101 1.24321 0
M  V30 18120 H 1715.77 1.43862 2.76966 0
M  V30 18121 N 1716.07 -1.22136 0.99602 0
M  V30 18122 C 1717.3 -1.94696 0.691168 0
M  V30 18123 C 1717.71 -1.73754 -0.748749 0
M  V30 18124 O 1717.06 -1.03561 -1.51726 0
M  V30 18125 C 1717.12 -3.47498 0.921152 0
M  V30 18126 C 1716.78 -3.92179 2.34616 0
M  V30 18127 C 1717.78 -3.99603 3.32585 0
M  V30 18128 C 1715.46 -4.24741 2.68142 0
M  V30 18129 C 1717.46 -4.38968 4.62153 0
M  V30 18130 C 1715.14 -4.63785 3.97928 0
M  V30 18131 C 1716.14 -4.70867 4.94745 0
M  V30 18132 O 1715.83 -5.09026 6.22212 0
M  V30 18133 H 1715.56 -0.626231 0.25458 0
M  V30 18134 H 1718.12 -1.56152 1.33438 0
M  V30 18135 H 1716.35 -3.86069 0.220769 0
M  V30 18136 H 1718.04 -4.01274 0.61107 0
M  V30 18137 H 1718.8 -3.74634 3.08017 0
M  V30 18138 H 1714.68 -4.18431 1.93485 0
M  V30 18139 H 1718.22 -4.44411 5.37721 0
M  V30 18140 H 1714.12 -4.88207 4.22285 0
M  V30 18141 H 1714.89 -5.27089 6.26195 0
M  V30 18142 N 1717.55 -0.769612 -1.37531 0
M  V30 18143 C 1718.5 -0.152627 -2.30295 0
M  V30 18144 C 1719.47 0.692154 -1.50992 0
M  V30 18145 O 1720.65 0.64496 -1.79569 0
M  V30 18146 C 1717.79 0.72217 -3.37459 0
M  V30 18147 C 1716.91 -0.138985 -4.31776 0
M  V30 18148 C 1716.04 0.740317 -5.26016 0
M  V30 18149 C 1715.08 -0.1235 -6.11975 0
M  V30 18150 N 1714.22 0.713658 -6.98464 0
M  V30 18151 H 1719.06 -0.949218 -2.82478 0
M  V30 18152 H 1716.6 -0.479697 -1.39059 0
M  V30 18153 H 1718.55 1.24415 -3.98217 0
M  V30 18154 H 1717.18 1.48438 -2.86646 0
M  V30 18155 H 1716.24 -0.778756 -3.72343 0
M  V30 18156 H 1717.55 -0.805402 -4.92255 0
M  V30 18157 H 1716.7 1.32887 -5.91968 0
M  V30 18158 H 1715.44 1.44042 -4.65943 0
M  V30 18159 H 1714.45 -0.7246 -5.45004 0
M  V30 18160 H 1715.67 -0.820907 -6.7412 0
M  V30 18161 H 1713.62 1.39842 -6.40921 0
M  V30 18162 H 1713.53 0.104492 -7.55928 0
M  V30 18163 H 1714.8 1.28667 -7.68808 0
M  V30 18164 N 1719.03 1.48775 -0.519977 0
M  V30 18165 C 1719.98 2.29461 0.248242 0
M  V30 18166 C 1720.95 1.36734 0.943027 0
M  V30 18167 O 1722.13 1.65697 0.946003 0
M  V30 18168 C 1719.27 3.19868 1.29531 0
M  V30 18169 C 1718.39 4.27666 0.610379 0
M  V30 18170 C 1717.52 5.05266 1.63951 0
M  V30 18171 C 1716.56 6.04878 0.937496 0
M  V30 18172 N 1715.7 6.75573 1.91171 0
M  V30 18173 H 1720.54 2.94643 -0.446016 0
M  V30 18174 H 1718.07 1.45262 -0.231792 0
M  V30 18175 H 1720.03 3.70675 1.91456 0
M  V30 18176 H 1718.66 2.5663 1.95808 0
M  V30 18177 H 1717.71 3.80202 -0.122598 0
M  V30 18178 H 1719.03 4.98765 0.0586864 0
M  V30 18179 H 1718.18 5.60037 2.33332 0
M  V30 18180 H 1716.92 4.33983 2.22509 0
M  V30 18181 H 1715.92 5.49321 0.229562 0
M  V30 18182 H 1717.15 6.78155 0.358166 0
M  V30 18183 H 1715.09 6.07048 2.48655 0
M  V30 18184 H 1715.01 7.42712 1.41118 0
M  V30 18185 H 1716.28 7.34938 2.59781 0
M  V30 18186 N 1720.51 0.254649 1.55529 0
M  V30 18187 C 1721.46 -0.657787 2.23105 0
M  V30 18188 C 1722.45 -1.17402 1.22119 0
M  V30 18189 O 1723.66 -1.13002 1.40109 0
M  V30 18190 H 1720.03 -0.230628 0.715762 0
M  V30 18191 H 1722 -0.0647759 2.9833 0
M  V30 18192 C 1720.75 -1.84018 2.95013 0
M  V30 18193 H 1720.07 -1.45211 3.72497 0
M  V30 18194 H 1721.51 -2.45568 3.45648 0
M  V30 18195 C 1719.97 -2.7161 1.99322 0
M  V30 18196 O 1720.5 -3.7137 1.53125 0
M  V30 18197 N 1718.71 -2.38342 1.66258 0
M  V30 18198 H 1718.26 -1.57268 2.04021 0
M  V30 18199 H 1718.21 -2.97222 1.025 0
M  V30 18200 N 1721.99 -1.57589 -0.0183649 0
M  V30 18201 C 1723.21 -1.94421 -0.722172 0
M  V30 18202 C 1723.64 -0.855471 -1.67521 0
M  V30 18203 O 1722.99 0.187954 -1.80323 0
M  V30 18204 C 1723.04 -3.30331 -1.44615 0
M  V30 18205 O 1722.15 -3.23337 -2.55982 0
M  V30 18206 H 1721.49 -0.63519 -0.193466 0
M  V30 18207 H 1724.02 -2.04579 0.0293527 0
M  V30 18208 H 1724.03 -3.65471 -1.8137 0
M  V30 18209 H 1722.7 -4.09132 -0.747256 0
M  V30 18210 H 1721.28 -2.99845 -2.21692 0
M  V30 18211 N 1723.46 0.290824 -1.54893 0
M  V30 18212 C 1724.69 1.04193 -1.78402 0
M  V30 18213 C 1725.1 1.81071 -0.548631 0
M  V30 18214 O 1724.45 1.77005 0.491403 0
M  V30 18215 C 1724.51 2.06122 -2.94541 0
M  V30 18216 C 1724.17 1.48346 -4.32253 0
M  V30 18217 C 1725.17 0.908243 -5.11905 0
M  V30 18218 C 1722.85 1.51602 -4.78876 0
M  V30 18219 C 1724.85 0.373282 -6.36306 0
M  V30 18220 C 1722.53 0.977194 -6.03236 0
M  V30 18221 C 1723.53 0.406805 -6.81787 0
M  V30 18222 O 1723.22 -0.123821 -8.03805 0
M  V30 18223 H 1722.95 0.314317 -0.598482 0
M  V30 18224 H 1725.51 0.332504 -2.02691 0
M  V30 18225 H 1723.74 2.80773 -2.65901 0
M  V30 18226 H 1725.43 2.67216 -3.05533 0
M  V30 18227 H 1726.19 0.875912 -4.77025 0
M  V30 18228 H 1722.07 1.94938 -4.17756 0
M  V30 18229 H 1725.61 -0.0725714 -6.97562 0
M  V30 18230 H 1721.51 1.00671 -6.37602 0
M  V30 18231 H 1722.28 -0.0114852 -8.18499 0
M  V30 18232 N 1724.94 1.47523 0.554506 0
M  V30 18233 C 1726.19 1.53982 1.30897 0
M  V30 18234 C 1726.51 0.20487 1.93921 0
M  V30 18235 O 1725.78 -0.771422 1.80072 0
M  V30 18236 H 1724.36 0.567206 0.486092 0
M  V30 18237 H 1727.02 1.83838 0.647284 0
M  V30 18238 H 1726.12 2.30783 2.10109 0
M  V30 18239 N 1726.42 -0.801453 1.357 0
M  V30 18240 C 1727.67 -1.5611 1.29451 0
M  V30 18241 C 1728 -1.93768 -0.129412 0
M  V30 18242 O 1727.27 -1.6176 -1.08 0
M  V30 18243 C 1727.56 -2.84628 2.20588 0
M  V30 18244 C 1727.41 -2.53413 3.71621 0
M  V30 18245 C 1728.73 -3.86369 2.10729 0
M  V30 18246 H 1725.85 -0.56638 0.471575 0
M  V30 18247 H 1728.49 -0.921701 1.66147 0
M  V30 18248 H 1726.64 -3.39192 1.89424 0
M  V30 18249 H 1728.31 -2.04993 4.1325 0
M  V30 18250 H 1726.56 -1.86531 3.91649 0
M  V30 18251 H 1727.23 -3.45152 4.30783 0
M  V30 18252 H 1729.7 -3.41219 2.38136 0
M  V30 18253 H 1728.58 -4.74062 2.76688 0
M  V30 18254 H 1728.84 -4.28431 1.09083 0
M  V30 18255 N 1727.9 -1.19782 -1.02421 0
M  V30 18256 C 1728.85 -0.907509 -2.09161 0
M  V30 18257 C 1729.83 0.129596 -1.60377 0
M  V30 18258 O 1731.02 -0.0767382 -1.76834 0
M  V30 18259 C 1728.15 -0.453095 -3.40297 0
M  V30 18260 C 1727.24 -1.5232 -3.95802 0
M  V30 18261 N 1727.63 -2.74379 -4.24912 0
M  V30 18262 C 1725.93 -1.38758 -4.23866 0
M  V30 18263 C 1726.63 -3.43348 -4.6956 0
M  V30 18264 N 1725.61 -2.70749 -4.71376 0
M  V30 18265 H 1729.41 -1.83512 -2.29566 0
M  V30 18266 H 1726.92 -1.09068 -1.20324 0
M  V30 18267 H 1728.92 -0.226551 -4.16284 0
M  V30 18268 H 1727.58 0.467983 -3.2131 0
M  V30 18269 H 1728.59 -3.11099 -4.1405 0
M  V30 18270 H 1725.27 -0.530327 -4.14118 0
M  V30 18271 H 1726.66 -4.47753 -5.00966 0
M  V30 18272 N 1729.38 1.21606 -1.00248 0
M  V30 18273 C 1730.79 1.72365 -0.717446 0
M  V30 18274 C 1731.14 1.80668 0.765078 0
M  V30 18275 O 1730.26 1.45951 1.59772 0
M  V30 18276 C 1730.86 3.13046 -1.29567 0
M  V30 18277 C 1729.42 3.61172 -1.05981 0
M  V30 18278 C 1728.57 2.38775 -1.41003 0
M  V30 18279 H 1731.52 1.06818 -1.17369 0
M  V30 18280 H 1731.54 3.74392 -0.679054 0
M  V30 18281 H 1731.05 3.0697 -2.37467 0
M  V30 18282 H 1729.15 3.726 0.00214307 0
M  V30 18283 H 1729.26 4.46778 -1.72993 0
M  V30 18284 H 1727.63 2.40839 -0.82877 0
M  V30 18285 H 1728.41 2.35352 -2.49928 0
M  V30 18286 N 1730.86 0.776895 1.37121 0
M  V30 18287 C 1732.09 0.354582 2.03534 0
M  V30 18288 C 1732.49 -1.02976 1.58722 0
M  V30 18289 O 1731.84 -1.66956 0.766255 0
M  V30 18290 C 1731.9 0.324836 3.58029 0
M  V30 18291 C 1731.56 1.65463 4.25994 0
M  V30 18292 C 1732.56 2.60797 4.49756 0
M  V30 18293 C 1730.24 1.93049 4.63721 0
M  V30 18294 C 1732.24 3.8192 5.1031 0
M  V30 18295 C 1729.93 3.14441 5.23995 0
M  V30 18296 C 1730.92 4.08695 5.47227 0
M  V30 18297 O 1730.61 5.27949 6.06238 0
M  V30 18298 H 1730.34 0.145861 0.660076 0
M  V30 18299 H 1732.9 1.05336 1.76334 0
M  V30 18300 H 1731.13 -0.43035 3.84298 0
M  V30 18301 H 1732.82 -0.0711053 4.05838 0
M  V30 18302 H 1733.58 2.40768 4.21017 0
M  V30 18303 H 1729.46 1.20509 4.4497 0
M  V30 18304 H 1733.01 4.55502 5.28359 0
M  V30 18305 H 1728.9 3.34352 5.52158 0
M  V30 18306 H 1729.67 5.28844 6.24713 0
M  V30 18307 N 1732.33 -1.48497 0.527859 0
M  V30 18308 C 1733.56 -2.066 -0.00302155 0
M  V30 18309 C 1733.97 -1.38505 -1.28892 0
M  V30 18310 O 1733.31 -0.465745 -1.77698 0
M  V30 18311 C 1733.38 -3.58249 -0.2997 0
M  V30 18312 C 1733.04 -4.48202 0.892405 0
M  V30 18313 C 1734.04 -4.88105 1.79023 0
M  V30 18314 C 1731.72 -4.90134 1.0988 0
M  V30 18315 C 1733.72 -5.68707 2.87838 0
M  V30 18316 C 1731.4 -5.70507 2.19009 0
M  V30 18317 C 1732.4 -6.09701 3.07821 0
M  V30 18318 O 1732.09 -6.88461 4.15062 0
M  V30 18319 H 1731.82 -0.675359 0.029422 0
M  V30 18320 H 1734.38 -1.91903 0.732286 0
M  V30 18321 H 1732.61 -3.71051 -1.08895 0
M  V30 18322 H 1734.29 -3.98483 -0.772407 0
M  V30 18323 H 1735.06 -4.56333 1.64271 0
M  V30 18324 H 1730.94 -4.59112 0.416808 0
M  V30 18325 H 1734.48 -5.99219 3.57187 0
M  V30 18326 H 1730.38 -6.01692 2.33746 0
M  V30 18327 H 1731.15 -7.06812 4.12746 0
M  V30 18328 N 1733.81 -0.262893 -1.55392 0
M  V30 18329 C 1734.74 0.670902 -2.18115 0
M  V30 18330 C 1735.72 1.1612 -1.13819 0
M  V30 18331 O 1736.91 1.23642 -1.42285 0
M  V30 18332 C 1734.03 1.91358 -2.79463 0
M  V30 18333 C 1733.08 1.5598 -3.96954 0
M  V30 18334 S 1733.91 0.648534 -5.31558 0
M  V30 18335 C 1735.07 1.89986 -5.96369 0
M  V30 18336 H 1735.3 0.137916 -2.9698 0
M  V30 18337 H 1732.83 -0.0472295 -1.54328 0
M  V30 18338 H 1734.79 2.62691 -3.15442 0
M  V30 18339 H 1733.45 2.4177 -2.00515 0
M  V30 18340 H 1732.65 2.48416 -4.38527 0
M  V30 18341 H 1732.25 0.926763 -3.62336 0
M  V30 18342 H 1734.54 2.84526 -6.14859 0
M  V30 18343 H 1735.48 1.52735 -6.91431 0
M  V30 18344 H 1735.89 2.05923 -5.256 0
M  V30 18345 N 1735.29 1.57597 0.0100073 0
M  V30 18346 C 1736.54 1.89754 0.695559 0
M  V30 18347 C 1736.86 0.862983 1.74865 0
M  V30 18348 O 1736.13 -0.100949 1.9564 0
M  V30 18349 H 1734.71 0.700331 0.259895 0
M  V30 18350 H 1737.37 1.94879 -0.0285521 0
M  V30 18351 H 1736.47 2.89213 1.17313 0
M  V30 18352 N 1736.77 -0.282606 1.55045 0
M  V30 18353 C 1737.7 -1.35347 1.90272 0
M  V30 18354 C 1738.68 -1.52001 0.763532 0
M  V30 18355 O 1739.86 -1.65204 1.02085 0
M  V30 18356 C 1736.99 -2.71464 2.16621 0
M  V30 18357 C 1735.95 -2.69554 3.32453 0
M  V30 18358 C 1735.27 -4.09132 3.4426 0
M  V30 18359 C 1736.57 -2.29669 4.69094 0
M  V30 18360 H 1738.27 -1.06113 2.79965 0
M  V30 18361 H 1735.81 -0.509018 1.34703 0
M  V30 18362 H 1737.77 -3.46482 2.39851 0
M  V30 18363 H 1736.49 -3.02261 1.23717 0
M  V30 18364 H 1735.15 -1.96993 3.09175 0
M  V30 18365 H 1734.8 -4.37136 2.4884 0
M  V30 18366 H 1734.5 -4.08751 4.22133 0
M  V30 18367 H 1736.02 -4.85903 3.69771 0
M  V30 18368 H 1737.44 -2.94407 4.91932 0
M  V30 18369 H 1735.83 -2.40467 5.49814 0
M  V30 18370 H 1736.9 -1.24796 4.68566 0
M  V30 18371 N 1738.25 -1.47815 -0.546675 0
M  V30 18372 C 1739.16 -1.63744 -1.68003 0
M  V30 18373 C 1740.17 -0.520118 -1.66044 0
M  V30 18374 O 1741.35 -0.789033 -1.853 0
M  V30 18375 C 1738.41 -1.65778 -3.04497 0
M  V30 18376 C 1737.47 -2.89015 -3.17441 0
M  V30 18377 C 1736.71 -2.90943 -4.47424 0
M  V30 18378 O 1736.93 -2.01769 -5.33522 0
M  V30 18379 O 1735.86 -3.82927 -4.64382 0
M  V30 18380 H 1739.69 -2.59665 -1.57505 0
M  V30 18381 H 1737.27 -1.31022 -0.717883 0
M  V30 18382 H 1739.16 -1.69734 -3.85705 0
M  V30 18383 H 1737.83 -0.730268 -3.15355 0
M  V30 18384 H 1736.74 -2.90599 -2.35591 0
M  V30 18385 H 1738.07 -3.81095 -3.11492 0
M  V30 18386 N 1739.72 0.794246 -1.36123 0
M  V30 18387 C 1740.63 1.93807 -1.32197 0
M  V30 18388 C 1741.65 1.7254 -0.2249 0
M  V30 18389 O 1742.83 1.9616 -0.456431 0
M  V30 18390 C 1739.89 3.28593 -1.10578 0
M  V30 18391 C 1738.95 3.6267 -2.29715 0
M  V30 18392 C 1738.18 4.91025 -2.09118 0
M  V30 18393 O 1738.41 5.6039 -1.06389 0
M  V30 18394 O 1737.34 5.23647 -2.96779 0
M  V30 18395 H 1741.17 2.00068 -2.28487 0
M  V30 18396 H 1738.75 0.933808 -1.16621 0
M  V30 18397 H 1740.63 4.0926 -1.0042 0
M  V30 18398 H 1739.31 3.23235 -0.17347 0
M  V30 18399 H 1738.22 2.82329 -2.4544 0
M  V30 18400 H 1739.55 3.72747 -3.21435 0
M  V30 18401 N 1741.2 1.20323 1.01785 0
M  V30 18402 C 1742.48 0.921703 1.72522 0
M  V30 18403 C 1742.86 -0.569838 2.03264 0
M  V30 18404 O 1742.21 -1.53115 1.69611 0
M  V30 18405 C 1742.42 1.79335 2.99399 0
M  V30 18406 C 1743.76 2.03442 3.72688 0
M  V30 18407 O 1744.79 1.76578 3.09352 0
M  V30 18408 O 1743.65 2.48803 4.86579 0
M  V30 18409 H 1740.74 0.344505 0.751828 0
M  V30 18410 H 1743.29 1.31191 1.07644 0
M  V30 18411 H 1742.06 2.80339 2.72994 0
M  V30 18412 H 1741.68 1.40314 3.72018 0
M  V30 18413 N 1742.68 -1.21073 1.00892 0
M  V30 18414 C 1743.93 -1.89866 0.69248 0
M  V30 18415 C 1744.25 -1.7874 -0.779562 0
M  V30 18416 O 1743.52 -1.18482 -1.56009 0
M  V30 18417 H 1742.1 -0.702799 0.253145 0
M  V30 18418 H 1744.76 -1.47075 1.27887 0
M  V30 18419 H 1743.86 -2.96673 0.969098 0
M  V30 18420 N 1744.16 -0.784156 -1.36707 0
M  V30 18421 C 1745.38 -0.364744 -2.04168 0
M  V30 18422 C 1745.81 1.00905 -1.58745 0
M  V30 18423 O 1745.17 1.64903 -0.753447 0
M  V30 18424 C 1745.21 -0.43091 -3.58016 0
M  V30 18425 O 1744.32 0.564103 -4.08524 0
M  V30 18426 H 1743.66 -0.15576 -0.645473 0
M  V30 18427 H 1746.19 -1.0638 -1.74769 0
M  V30 18428 H 1746.2 -0.292629 -4.06949 0
M  V30 18429 H 1744.87 -1.43308 -3.9043 0
M  V30 18430 H 1743.45 0.387917 -3.70877 0
M  V30 18431 N 1745.64 1.48215 -0.535727 0
M  V30 18432 C 1746.6 2.28206 0.213212 0
M  V30 18433 C 1747.6 1.3571 0.862522 0
M  V30 18434 O 1748.79 1.58547 0.721688 0
M  V30 18435 C 1745.92 3.1476 1.30917 0
M  V30 18436 H 1747.11 2.95884 -0.489163 0
M  V30 18437 H 1744.67 1.53551 -0.291872 0
M  V30 18438 H 1745.4 2.51726 2.04462 0
M  V30 18439 H 1745.19 3.82806 0.848633 0
M  V30 18440 H 1746.68 3.75085 1.83579 0
M  V30 18441 N 1747.11 0.27113 1.5525 0
M  V30 18442 C 1748.06 -0.632507 2.19051 0
M  V30 18443 C 1749.05 -1.12135 1.15388 0
M  V30 18444 O 1750.24 -1.06709 1.41217 0
M  V30 18445 C 1747.37 -1.81804 2.91208 0
M  V30 18446 C 1746.46 -1.34656 4.02155 0
M  V30 18447 N 1746.85 -0.590954 5.02336 0
M  V30 18448 C 1745.14 -1.62985 4.15153 0
M  V30 18449 C 1745.85 -0.343602 5.80684 0
M  V30 18450 N 1744.82 -0.914869 5.35846 0
M  V30 18451 H 1748.62 -0.0473244 2.93862 0
M  V30 18452 H 1746.14 0.0745107 1.62229 0
M  V30 18453 H 1748.13 -2.47666 3.35361 0
M  V30 18454 H 1746.79 -2.40721 2.17907 0
M  V30 18455 H 1747.81 -0.238682 5.1735 0
M  V30 18456 H 1744.48 -2.22867 3.53039 0
M  V30 18457 H 1745.87 0.261284 6.71392 0
M  V30 18458 N 1748.59 -1.576 -0.00164943 0
M  V30 18459 C 1749.84 -1.9012 -0.685486 0
M  V30 18460 C 1750.16 -0.872245 -1.74404 0
M  V30 18461 O 1749.43 0.090572 -1.95691 0
M  V30 18462 H 1748.01 -0.701699 -0.256177 0
M  V30 18463 H 1750.67 -1.94861 0.0388866 0
M  V30 18464 H 1749.77 -2.89831 -1.15778 0
M  V30 18465 N 1750.07 0.274379 -1.55193 0
M  V30 18466 C 1751.32 1.00766 -1.75995 0
M  V30 18467 C 1751.65 1.8599 -0.558679 0
M  V30 18468 O 1750.92 1.8937 0.443784 0
M  V30 18469 C 1751.21 1.89137 -3.0643 0
M  V30 18470 C 1751.06 1.06914 -4.36909 0
M  V30 18471 C 1752.38 2.87869 -3.32896 0
M  V30 18472 H 1749.5 0.364915 -0.640317 0
M  V30 18473 H 1752.14 0.280156 -1.87923 0
M  V30 18474 H 1750.29 2.51166 -2.96391 0
M  V30 18475 H 1751.96 0.469666 -4.58903 0
M  V30 18476 H 1750.21 0.372566 -4.32197 0
M  V30 18477 H 1750.88 1.72063 -5.24498 0
M  V30 18478 H 1753.35 2.35974 -3.42718 0
M  V30 18479 H 1752.23 3.46845 -4.25429 0
M  V30 18480 H 1752.49 3.62921 -2.52469 0
M  V30 18481 N 1751.55 1.48103 0.538828 0
M  V30 18482 C 1752.48 1.64856 1.65363 0
M  V30 18483 C 1753.46 0.497579 1.6266 0
M  V30 18484 O 1754.64 0.729088 1.79994 0
M  V30 18485 C 1751.77 1.67984 3.03971 0
M  V30 18486 C 1750.73 2.82494 3.21529 0
M  V30 18487 C 1750.05 2.70706 4.6111 0
M  V30 18488 C 1751.35 4.23892 3.05145 0
M  V30 18489 H 1753.05 2.58183 1.51598 0
M  V30 18490 H 1750.59 1.24249 0.727886 0
M  V30 18491 H 1752.55 1.78294 3.81824 0
M  V30 18492 H 1751.27 0.712299 3.18738 0
M  V30 18493 H 1749.93 2.71725 2.46091 0
M  V30 18494 H 1749.58 1.7194 4.727 0
M  V30 18495 H 1749.28 3.47539 4.73804 0
M  V30 18496 H 1750.8 2.82971 5.41073 0
M  V30 18497 H 1752.22 4.3554 3.72797 0
M  V30 18498 H 1750.61 5.01654 3.29338 0
M  V30 18499 H 1751.68 4.40973 2.01671 0
M  V30 18500 N 1753.03 -0.787016 1.36542 0
M  V30 18501 C 1753.96 -1.91399 1.33749 0
M  V30 18502 C 1754.94 -1.68817 0.208559 0
M  V30 18503 O 1756.12 -1.89896 0.406574 0
M  V30 18504 C 1753.25 -3.28457 1.12842 0
M  V30 18505 C 1752.21 -3.65568 2.22585 0
M  V30 18506 C 1751.53 -5.01002 1.86818 0
M  V30 18507 C 1752.83 -3.73902 3.64684 0
M  V30 18508 H 1754.53 -1.93993 2.2805 0
M  V30 18509 H 1752.07 -0.931937 1.09777 0
M  V30 18510 H 1754.03 -4.06919 1.09522 0
M  V30 18511 H 1752.75 -3.26256 0.149918 0
M  V30 18512 H 1751.41 -2.89405 2.25035 0
M  V30 18513 H 1751.06 -4.95325 0.875361 0
M  V30 18514 H 1750.76 -5.26802 2.60294 0
M  V30 18515 H 1752.28 -5.81881 1.85058 0
M  V30 18516 H 1753.69 -4.4255 3.64448 0
M  V30 18517 H 1752.09 -4.11188 4.37086 0
M  V30 18518 H 1753.16 -2.74946 3.99416 0
M  V30 18519 N 1754.5 -1.20861 -1.01145 0
M  V30 18520 C 1755.43 -0.986058 -2.11658 0
M  V30 18521 C 1756.42 0.0867558 -1.69879 0
M  V30 18522 O 1757.6 -0.0717892 -1.94067 0
M  V30 18523 C 1754.73 -0.542938 -3.4303 0
M  V30 18524 C 1753.68 -1.55958 -3.98574 0
M  V30 18525 C 1753.01 -0.972917 -5.25774 0
M  V30 18526 C 1754.31 -2.94471 -4.31375 0
M  V30 18527 H 1756 -1.91035 -2.30534 0
M  V30 18528 H 1753.55 -0.919914 -1.10786 0
M  V30 18529 H 1755.5 -0.374446 -4.19733 0
M  V30 18530 H 1754.23 0.416988 -3.23927 0
M  V30 18531 H 1752.89 -1.71552 -3.23984 0
M  V30 18532 H 1752.53 -0.00490446 -5.03 0
M  V30 18533 H 1752.23 -1.65194 -5.63901 0
M  V30 18534 H 1753.76 -0.815607 -6.05128 0
M  V30 18535 H 1755.17 -2.82358 -4.98946 0
M  V30 18536 H 1753.57 -3.59327 -4.80629 0
M  V30 18537 H 1754.64 -3.45804 -3.39923 0
M  V30 18538 N 1755.98 1.20536 -1.01532 0
M  V30 18539 C 1756.93 2.2531 -0.577786 0
M  V30 18540 C 1757.92 1.65017 0.382843 0
M  V30 18541 O 1759.13 1.78214 0.252904 0
M  V30 18542 H 1755.51 0.732872 -0.168532 0
M  V30 18543 H 1757.48 2.59544 -1.4724 0
M  V30 18544 C 1756.23 3.47631 0.0694263 0
M  V30 18545 H 1755.55 3.94302 -0.660748 0
M  V30 18546 H 1756.99 4.22645 0.338706 0
M  V30 18547 C 1755.45 3.1031 1.31185 0
M  V30 18548 O 1755.98 3.21729 2.40527 0
M  V30 18549 N 1754.18 2.64871 1.19547 0
M  V30 18550 H 1753.73 2.55779 0.305741 0
M  V30 18551 H 1753.69 2.4027 2.02775 0
M  V30 18552 N 1757.46 0.791395 1.36289 0
M  V30 18553 C 1758.69 0.375566 2.03971 0
M  V30 18554 C 1759.11 -1.00061 1.59277 0
M  V30 18555 O 1758.47 -1.64501 0.762182 0
M  V30 18556 C 1758.52 0.449891 3.57783 0
M  V30 18557 O 1757.62 -0.54243 4.08817 0
M  V30 18558 H 1756.96 0.159181 0.644637 0
M  V30 18559 H 1759.49 1.07306 1.74203 0
M  V30 18560 H 1759.5 0.314206 4.06788 0
M  V30 18561 H 1758.18 1.45377 3.89665 0
M  V30 18562 H 1756.75 -0.368243 3.71077 0
M  V30 18563 N 1758.94 -1.47929 0.54358 0
M  V30 18564 C 1759.89 -2.3151 -0.224935 0
M  V30 18565 C 1760.88 -1.4208 -0.922473 0
M  V30 18566 O 1762.09 -1.58917 -0.845309 0
M  V30 18567 H 1758.46 -0.746424 -0.0914091 0
M  V30 18568 H 1760.43 -2.94192 0.499381 0
M  V30 18569 C 1759.18 -3.24439 -1.25038 0
M  V30 18570 H 1758.51 -3.93207 -0.723059 0
M  V30 18571 H 1759.95 -3.8578 -1.75927 0
M  V30 18572 C 1758.4 -2.46998 -2.29115 0
M  V30 18573 O 1758.93 -2.20457 -3.358 0
M  V30 18574 N 1757.14 -2.08249 -2.02684 0
M  V30 18575 H 1756.69 -2.30034 -1.15941 0
M  V30 18576 H 1756.65 -1.56748 -2.72539 0
M  V30 18577 N 1760.42 -0.27936 -1.55104 0
M  V30 18578 C 1761.38 0.593214 -2.2139 0
M  V30 18579 C 1762.38 1.07807 -1.19308 0
M  V30 18580 O 1763.57 0.97756 -1.44185 0
M  V30 18581 C 1760.7 1.81889 -2.88321 0
M  V30 18582 H 1761.9 0.0143941 -2.99897 0
M  V30 18583 H 1759.45 -0.0300083 -1.56271 0
M  V30 18584 H 1760.18 2.43811 -2.13838 0
M  V30 18585 H 1759.97 1.4791 -3.63132 0
M  V30 18586 H 1761.46 2.4393 -3.38951 0
M  V30 18587 N 1761.9 1.57599 -0.0067085 0
M  V30 18588 C 1762.83 2.04302 1.01665 0
M  V30 18589 C 1763.81 0.934217 1.33083 0
M  V30 18590 O 1764.99 1.20285 1.45133 0
M  V30 18591 C 1762.12 2.44627 2.34255 0
M  V30 18592 C 1761.16 3.66307 2.18453 0
M  V30 18593 S 1762 5.13937 1.50428 0
M  V30 18594 C 1763.15 5.57538 2.84434 0
M  V30 18595 H 1763.39 2.90784 0.619005 0
M  V30 18596 H 1760.92 1.53042 0.204354 0
M  V30 18597 H 1762.88 2.68527 3.10489 0
M  V30 18598 H 1761.54 1.58531 2.71158 0
M  V30 18599 H 1760.73 3.92295 3.16419 0
M  V30 18600 H 1760.33 3.42443 1.50363 0
M  V30 18601 H 1762.62 5.60408 3.80722 0
M  V30 18602 H 1763.57 6.57392 2.63138 0
M  V30 18603 H 1763.98 4.85119 2.88651 0
M  V30 18604 N 1763.37 -0.266145 1.55336 0
M  V30 18605 C 1764.65 -1.01852 1.6699 0
M  V30 18606 C 1765.03 -2.04053 0.54088 0
M  V30 18607 O 1764.38 -2.23859 -0.458193 0
M  V30 18608 C 1764.59 -1.66917 3.06496 0
M  V30 18609 C 1765.94 -2.17824 3.64469 0
M  V30 18610 O 1766.96 -1.76892 3.09173 0
M  V30 18611 O 1765.82 -2.92922 4.61367 0
M  V30 18612 H 1762.91 -0.472871 0.67847 0
M  V30 18613 H 1765.46 -0.261458 1.67674 0
M  V30 18614 H 1764.23 -0.928941 3.80114 0
M  V30 18615 H 1763.85 -2.49292 3.0974 0
M  V30 18616 N 1764.85 -1.48386 -0.530967 0
M  V30 18617 C 1766.1 -1.56585 -1.28875 0
M  V30 18618 C 1766.43 -0.238583 -1.92729 0
M  V30 18619 O 1765.71 0.75533 -1.79235 0
M  V30 18620 C 1765.99 -2.70338 -2.37886 0
M  V30 18621 C 1765.84 -4.12766 -1.78729 0
M  V30 18622 C 1767.16 -2.79857 -3.39659 0
M  V30 18623 H 1764.28 -0.569986 -0.46721 0
M  V30 18624 H 1766.92 -1.80555 -0.591596 0
M  V30 18625 H 1765.07 -2.50031 -2.9735 0
M  V30 18626 H 1766.74 -4.4451 -1.23324 0
M  V30 18627 H 1764.99 -4.19813 -1.09269 0
M  V30 18628 H 1765.66 -4.88178 -2.57655 0
M  V30 18629 H 1768.13 -2.9825 -2.90149 0
M  V30 18630 H 1767.01 -3.61179 -4.13329 0
M  V30 18631 H 1767.27 -1.87974 -4.00148 0
M  V30 18632 N 1766.33 0.779763 -1.36958 0
M  V30 18633 C 1767.56 1.56875 -1.34899 0
M  V30 18634 C 1767.97 1.88679 0.0675345 0
M  V30 18635 O 1767.33 1.50852 1.02712 0
M  V30 18636 C 1767.38 2.88391 -2.17975 0
M  V30 18637 O 1767.1 2.57954 -3.54107 0
M  V30 18638 C 1768.6 3.82657 -2.23805 0
M  V30 18639 H 1765.82 0.486262 -0.462374 0
M  V30 18640 H 1768.37 0.967072 -1.80189 0
M  V30 18641 H 1766.52 3.45003 -1.76215 0
M  V30 18642 H 1766.94 3.42115 -3.97564 0
M  V30 18643 H 1768.41 4.71967 -2.86272 0
M  V30 18644 H 1768.89 4.21208 -1.24421 0
M  V30 18645 H 1769.49 3.31976 -2.65843 0
M  V30 18646 N 1767.81 1.21396 1.00503 0
M  V30 18647 C 1769.05 1.03117 1.74279 0
M  V30 18648 C 1769.38 -0.43531 1.89566 0
M  V30 18649 O 1768.64 -1.33929 1.42694 0
M  V30 18650 C 1768.94 1.67343 3.15802 0
M  V30 18651 C 1768.6 3.17198 3.20463 0
M  V30 18652 C 1767.26 3.5809 3.21442 0
M  V30 18653 C 1769.62 4.13172 3.17708 0
M  V30 18654 C 1766.94 4.93462 3.17352 0
M  V30 18655 C 1769.3 5.48505 3.15159 0
M  V30 18656 C 1767.96 5.88794 3.14448 0
M  V30 18657 H 1767.23 0.377332 0.637732 0
M  V30 18658 H 1769.88 1.50987 1.17792 0
M  V30 18659 H 1768.18 1.11765 3.75521 0
M  V30 18660 H 1769.88 1.50703 3.71604 0
M  V30 18661 H 1766.47 2.8463 3.20443 0
M  V30 18662 H 1770.65 3.82606 3.16112 0
M  V30 18663 H 1765.91 5.23925 3.15138 0
M  V30 18664 H 1770.08 6.22608 3.11982 0
M  V30 18665 H 1767.71 6.93659 3.11033 0
M  V30 18666 N 1769.29 -1.19996 1.0217 0
M  V30 18667 C 1770.22 -2.22392 0.55446 0
M  V30 18668 C 1771.23 -1.58636 -0.36586 0
M  V30 18669 O 1772.42 -1.77751 -0.163394 0
M  V30 18670 C 1769.52 -3.38235 -0.212234 0
M  V30 18671 C 1768.69 -4.31578 0.711253 0
M  V30 18672 C 1767.75 -5.26199 -0.00876314 0
M  V30 18673 O 1766.78 -5.65863 0.615435 0
M  V30 18674 N 1767.98 -5.66169 -1.28192 0
M  V30 18675 H 1770.74 -2.63107 1.43509 0
M  V30 18676 H 1768.31 -1.34589 0.899853 0
M  V30 18677 H 1770.3 -3.98542 -0.703282 0
M  V30 18678 H 1768.87 -2.96369 -0.994205 0
M  V30 18679 H 1768.09 -3.69161 1.38252 0
M  V30 18680 H 1769.38 -4.90861 1.33915 0
M  V30 18681 H 1768.77 -5.35966 -1.8099 0
M  V30 18682 H 1767.33 -6.28762 -1.7176 0
M  V30 18683 N 1770.76 -0.798611 -1.35867 0
M  V30 18684 C 1772.17 -0.437243 -1.81508 0
M  V30 18685 C 1772.53 1.03987 -1.66376 0
M  V30 18686 O 1771.65 1.80751 -1.18988 0
M  V30 18687 C 1772.25 -0.786865 -3.29536 0
M  V30 18688 C 1770.8 -0.478204 -3.7335 0
M  V30 18689 C 1769.95 -1.01668 -2.5799 0
M  V30 18690 H 1772.9 -0.990957 -1.23959 0
M  V30 18691 H 1772.92 -0.0813864 -3.80413 0
M  V30 18692 H 1772.44 -1.86198 -3.40517 0
M  V30 18693 H 1770.54 0.588503 -3.67923 0
M  V30 18694 H 1770.65 -1.00525 -4.68435 0
M  V30 18695 H 1769.01 -0.439417 -2.50881 0
M  V30 18696 H 1769.8 -2.09775 -2.71753 0
M  V30 18697 N 1772.24 1.47639 -0.551417 0
M  V30 18698 C 1773.17 2.32743 0.187887 0
M  V30 18699 C 1774.15 1.43432 0.914407 0
M  V30 18700 O 1775.34 1.72295 0.896005 0
M  V30 18701 C 1772.47 3.25092 1.22199 0
M  V30 18702 C 1771.42 4.23598 0.612298 0
M  V30 18703 C 1770.75 5.0523 1.75062 0
M  V30 18704 C 1772.05 5.20526 -0.430135 0
M  V30 18705 H 1773.74 2.94804 -0.522598 0
M  V30 18706 H 1771.29 1.41764 -0.252768 0
M  V30 18707 H 1773.24 3.83467 1.74731 0
M  V30 18708 H 1771.96 2.61074 1.96235 0
M  V30 18709 H 1770.62 3.6644 0.108324 0
M  V30 18710 H 1770.27 4.3762 2.47987 0
M  V30 18711 H 1769.97 5.71918 1.34848 0
M  V30 18712 H 1771.5 5.66463 2.27931 0
M  V30 18713 H 1772.91 5.73299 0.00890168 0
M  V30 18714 H 1771.31 5.95384 -0.750836 0
M  V30 18715 H 1772.38 4.66356 -1.32815 0
M  V30 18716 N 1773.72 0.287581 1.54954 0
M  V30 18717 C 1775.13 -0.207733 1.85541 0
M  V30 18718 C 1775.48 -1.54478 1.20959 0
M  V30 18719 O 1774.61 -2.10487 0.502399 0
M  V30 18720 C 1775.2 -0.383701 3.3662 0
M  V30 18721 C 1773.76 -0.82324 3.67287 0
M  V30 18722 C 1772.91 0.0762579 2.77195 0
M  V30 18723 H 1775.86 0.509004 1.50316 0
M  V30 18724 H 1775.88 -1.22036 3.60399 0
M  V30 18725 H 1775.39 0.589575 3.83596 0
M  V30 18726 H 1773.49 -1.80754 3.2582 0
M  V30 18727 H 1773.61 -0.651925 4.74644 0
M  V30 18728 H 1771.97 -0.44219 2.50832 0
M  V30 18729 H 1772.75 1.04564 3.26988 0
M  V30 18730 N 1775.2 -1.57593 0.0150662 0
M  V30 18731 C 1776.16 -2.08293 -0.956385 0
M  V30 18732 C 1777.16 -0.99521 -1.26302 0
M  V30 18733 O 1778.35 -1.25732 -1.2057 0
M  V30 18734 C 1775.48 -2.53702 -2.27701 0
M  V30 18735 H 1776.68 -2.95401 -0.517543 0
M  V30 18736 H 1774.23 -1.54558 -0.232706 0
M  V30 18737 H 1774.96 -1.69882 -2.76244 0
M  V30 18738 H 1774.75 -3.33155 -2.06761 0
M  V30 18739 H 1776.24 -2.93201 -2.9736 0
M  V30 18740 N 1776.68 0.257904 -1.55475 0
M  V30 18741 C 1777.61 1.32303 -1.92401 0
M  V30 18742 C 1778.59 1.50767 -0.787617 0
M  V30 18743 O 1779.77 1.63559 -1.047 0
M  V30 18744 C 1776.9 2.67984 -2.20912 0
M  V30 18745 C 1775.86 2.64231 -3.36699 0
M  V30 18746 C 1775.18 4.03604 -3.50725 0
M  V30 18747 C 1776.48 2.22177 -4.72689 0
M  V30 18748 H 1778.18 1.01646 -2.81618 0
M  V30 18749 H 1775.72 0.487523 -1.35496 0
M  V30 18750 H 1777.68 3.42622 -2.45332 0
M  V30 18751 H 1776.4 3.00254 -1.2851 0
M  V30 18752 H 1775.06 1.92049 -3.1227 0
M  V30 18753 H 1774.71 4.33122 -2.55763 0
M  V30 18754 H 1774.41 4.01983 -4.28583 0
M  V30 18755 H 1775.93 4.79959 -3.77455 0
M  V30 18756 H 1777.34 2.86543 -4.96554 0
M  V30 18757 H 1775.74 2.3169 -5.5357 0
M  V30 18758 H 1776.81 1.17326 -4.70492 0
M  V30 18759 N 1778.15 1.48666 0.52309 0
M  V30 18760 C 1779.38 1.60707 1.30311 0
M  V30 18761 C 1779.8 0.269941 1.8686 0
M  V30 18762 O 1779.15 -0.741714 1.66748 0
M  V30 18763 C 1779.21 2.65899 2.44908 0
M  V30 18764 O 1778.93 3.94423 1.90688 0
M  V30 18765 C 1780.43 2.88443 3.36624 0
M  V30 18766 H 1777.65 0.541661 0.396035 0
M  V30 18767 H 1780.19 1.94544 0.630322 0
M  V30 18768 H 1778.35 2.34902 3.08058 0
M  V30 18769 H 1778.76 4.5219 2.65753 0
M  V30 18770 H 1780.23 3.65831 4.13366 0
M  V30 18771 H 1780.71 1.97524 3.92277 0
M  V30 18772 H 1781.32 3.20771 2.7926 0
M  V30 18773 N 1779.63 -0.772489 1.37369 0
M  V30 18774 C 1780.86 -1.55931 1.35532 0
M  V30 18775 C 1781.27 -1.891 -0.0614314 0
M  V30 18776 O 1780.61 -1.51876 -1.03342 0
M  V30 18777 C 1780.68 -2.89737 2.1282 0
M  V30 18778 C 1780.34 -2.79208 3.6179 0
M  V30 18779 C 1781.34 -2.50289 4.55688 0
M  V30 18780 C 1779.02 -2.97253 4.04902 0
M  V30 18781 C 1781.02 -2.39542 5.90676 0
M  V30 18782 C 1778.7 -2.86127 5.39976 0
M  V30 18783 C 1779.7 -2.57311 6.32677 0
M  V30 18784 O 1779.39 -2.4621 7.65269 0
M  V30 18785 H 1779.12 -0.489744 0.465968 0
M  V30 18786 H 1781.67 -0.965344 1.81302 0
M  V30 18787 H 1779.9 -3.51251 1.6174 0
M  V30 18788 H 1781.59 -3.51128 2.03627 0
M  V30 18789 H 1782.36 -2.36034 4.2369 0
M  V30 18790 H 1778.24 -3.18684 3.33109 0
M  V30 18791 H 1781.78 -2.16971 6.63 0
M  V30 18792 H 1777.68 -2.9995 5.71577 0
M  V30 18793 H 1778.45 -2.61564 7.75581 0
M  V30 18794 N 1781.11 -1.21927 -0.998575 0
M  V30 18795 C 1782.53 -0.978007 -1.26124 0
M  V30 18796 C 1782.73 0.3318 -1.98749 0
M  V30 18797 O 1781.78 1.05585 -2.29364 0
M  V30 18798 C 1783.1 -2.17291 -2.07858 0
M  V30 18799 C 1784.64 -2.21586 -2.21062 0
M  V30 18800 C 1785.12 -3.40613 -3.06181 0
M  V30 18801 N 1786.61 -3.40739 -3.13769 0
M  V30 18802 C 1787.34 -4.29488 -3.79905 0
M  V30 18803 N 1786.84 -5.28445 -4.48015 0
M  V30 18804 N 1788.63 -4.17279 -3.76609 0
M  V30 18805 H 1780.78 -2.06149 -0.51151 0
M  V30 18806 H 1783.05 -0.903039 -0.288487 0
M  V30 18807 H 1782.75 -3.12246 -1.61851 0
M  V30 18808 H 1782.63 -2.16883 -3.08612 0
M  V30 18809 H 1785.01 -1.27183 -2.66286 0
M  V30 18810 H 1785.1 -2.26035 -1.19757 0
M  V30 18811 H 1784.74 -4.35313 -2.61659 0
M  V30 18812 H 1784.67 -3.33403 -4.07615 0
M  V30 18813 H 1787.16 -2.69128 -2.65289 0
M  V30 18814 H 1787.47 -5.92454 -4.96203 0
M  V30 18815 H 1785.82 -5.32364 -4.46782 0
M  V30 18816 H 1789.01 -3.39226 -3.22557 0
M  V30 18817 H 1789.18 -4.86651 -4.27873 0
M  V30 18818 N 1782.59 1.19452 -1.02805 0
M  V30 18819 C 1783.82 1.93075 -0.743624 0
M  V30 18820 C 1784.23 1.75446 0.697425 0
M  V30 18821 O 1783.59 1.07583 1.47418 0
M  V30 18822 C 1783.64 3.44855 -1.08431 0
M  V30 18823 O 1783.36 3.61916 -2.46877 0
M  V30 18824 C 1784.86 4.35601 -0.822571 0
M  V30 18825 H 1782.08 0.613327 -0.272159 0
M  V30 18826 H 1784.63 1.51617 -1.37232 0
M  V30 18827 H 1782.78 3.84149 -0.500812 0
M  V30 18828 H 1783.19 4.55785 -2.59538 0
M  V30 18829 H 1784.67 5.40706 -1.11092 0
M  V30 18830 H 1785.15 4.38527 0.243026 0
M  V30 18831 H 1785.75 4.01987 -1.38876 0
M  V30 18832 N 1784.07 0.805805 1.35442 0
M  V30 18833 C 1785.29 0.398252 2.03031 0
M  V30 18834 C 1785.71 -0.990542 1.60729 0
M  V30 18835 O 1785.07 -1.63813 0.804461 0
M  V30 18836 C 1785.12 0.471116 3.58417 0
M  V30 18837 O 1784.84 1.80516 3.99181 0
M  V30 18838 C 1786.34 0.056272 4.43264 0
M  V30 18839 H 1783.56 0.161905 0.651174 0
M  V30 18840 H 1786.1 1.08921 1.73079 0
M  V30 18841 H 1784.26 -0.171584 3.8702 0
M  V30 18842 H 1784.67 1.76739 4.93825 0
M  V30 18843 H 1786.15 0.15837 5.51773 0
M  V30 18844 H 1786.62 -0.998308 4.27704 0
M  V30 18845 H 1787.23 0.672097 4.19956 0
M  V30 18846 N 1785.54 -1.47344 0.559239 0
M  V30 18847 C 1786.79 -2.02068 0.035872 0
M  V30 18848 C 1787.11 -1.43573 -1.31953 0
M  V30 18849 O 1786.38 -0.611672 -1.86106 0
M  V30 18850 H 1784.96 -0.746929 0.0102713 0
M  V30 18851 H 1787.63 -1.80724 0.729707 0
M  V30 18852 H 1786.72 -3.12059 -0.0507123 0
M  V30 18853 N 1787.02 -0.295795 -1.54799 0
M  V30 18854 C 1788.27 0.314384 -1.9964 0
M  V30 18855 C 1788.59 1.5481 -1.1857 0
M  V30 18856 O 1787.86 1.93884 -0.280353 0
M  V30 18857 H 1786.44 0.119153 -0.737436 0
M  V30 18858 H 1789.1 -0.40592 -1.90626 0
M  V30 18859 H 1788.2 0.59002 -3.06472 0
M  V30 18860 N 1788.5 1.57583 -0.0234236 0
M  V30 18861 C 1789.75 1.91848 0.657422 0
M  V30 18862 C 1790.08 0.899633 1.72105 0
M  V30 18863 O 1789.36 -0.0784409 1.94342 0
M  V30 18864 C 1789.64 3.36617 1.2791 0
M  V30 18865 C 1789.49 4.49235 0.225421 0
M  V30 18866 C 1790.81 3.81239 2.19874 0
M  V30 18867 H 1787.93 0.697677 0.23752 0
M  V30 18868 H 1790.57 1.89834 -0.0795169 0
M  V30 18869 H 1788.72 3.38465 1.90719 0
M  V30 18870 H 1790.39 4.59521 -0.404792 0
M  V30 18871 H 1788.64 4.31462 -0.449749 0
M  V30 18872 H 1789.31 5.47545 0.699906 0
M  V30 18873 H 1791.78 3.81092 1.67058 0
M  V30 18874 H 1790.66 4.8324 2.60328 0
M  V30 18875 H 1790.92 3.16421 3.08755 0
M  V30 18876 N 1789.98 -0.249655 1.5561 0
M  V30 18877 C 1790.91 -1.31281 1.931 0
M  V30 18878 C 1791.89 -1.50347 0.795601 0
M  V30 18879 O 1793.08 -1.63001 1.05566 0
M  V30 18880 C 1790.21 -2.66808 2.2233 0
M  V30 18881 C 1789.16 -2.62441 3.38096 0
M  V30 18882 C 1788.49 -4.01738 3.52861 0
M  V30 18883 C 1789.79 -2.19667 4.7386 0
M  V30 18884 H 1791.48 -1.00151 2.82153 0
M  V30 18885 H 1789.03 -0.480331 1.35753 0
M  V30 18886 H 1790.98 -3.41316 2.47146 0
M  V30 18887 H 1789.7 -2.99569 1.30101 0
M  V30 18888 H 1788.36 -1.90391 3.13284 0
M  V30 18889 H 1788.01 -4.31759 2.58056 0
M  V30 18890 H 1787.71 -3.99705 4.30708 0
M  V30 18891 H 1789.23 -4.7795 3.79995 0
M  V30 18892 H 1790.65 -2.83906 4.98067 0
M  V30 18893 H 1789.04 -2.28751 5.54791 0
M  V30 18894 H 1790.11 -1.14829 4.71108 0
M  V30 18895 N 1791.46 -1.48941 -0.515198 0
M  V30 18896 C 1792.73 -1.48205 -1.27651 0
M  V30 18897 C 1793.11 -0.201866 -2.10133 0
M  V30 18898 O 1792.46 0.816115 -2.13429 0
M  V30 18899 C 1792.67 -2.75274 -2.14535 0
M  V30 18900 C 1794.02 -3.24198 -2.74192 0
M  V30 18901 O 1795.04 -2.76293 -2.24813 0
M  V30 18902 O 1793.9 -4.07593 -3.64047 0
M  V30 18903 H 1791 -0.592546 -0.576904 0
M  V30 18904 H 1793.54 -1.6119 -0.530636 0
M  V30 18905 H 1792.32 -3.59949 -1.53469 0
M  V30 18906 H 1791.94 -2.6508 -2.96342 0
M  V30 18907 N 1792.94 0.765193 -1.37777 0
M  V30 18908 C 1794.18 1.52397 -1.33347 0
M  V30 18909 C 1794.51 1.94335 0.0800559 0
M  V30 18910 O 1793.77 1.64847 1.05469 0
M  V30 18911 C 1794.06 2.79732 -2.22452 0
M  V30 18912 C 1793.73 2.56814 -3.70618 0
M  V30 18913 C 1792.39 2.50272 -4.10996 0
M  V30 18914 C 1794.74 2.36494 -4.64457 0
M  V30 18915 C 1792.07 2.2141 -5.43318 0
M  V30 18916 C 1794.42 2.09155 -5.97024 0
M  V30 18917 C 1793.09 2.01062 -6.36499 0
M  V30 18918 H 1792.36 0.55766 -0.487951 0
M  V30 18919 H 1795.01 0.880853 -1.70039 0
M  V30 18920 H 1793.31 3.48635 -1.78777 0
M  V30 18921 H 1795.01 3.37639 -2.16335 0
M  V30 18922 H 1791.6 2.62771 -3.38599 0
M  V30 18923 H 1795.78 2.40534 -4.34117 0
M  V30 18924 H 1791.04 2.13644 -5.72858 0
M  V30 18925 H 1795.21 1.92433 -6.69285 0
M  V30 18926 H 1792.84 1.78462 -7.38956 0
M  V30 18927 N 1794.41 1.22455 0.992094 0
M  V30 18928 C 1795.64 1.07438 1.76467 0
M  V30 18929 C 1796.05 -0.37795 1.85387 0
M  V30 18930 O 1795.39 -1.27367 1.32376 0
M  V30 18931 C 1795.46 1.61171 3.21347 0
M  V30 18932 C 1795.12 3.09794 3.35971 0
M  V30 18933 C 1796.12 4.07214 3.23222 0
M  V30 18934 C 1793.8 3.49266 3.60996 0
M  V30 18935 C 1795.8 5.42092 3.35284 0
M  V30 18936 C 1793.48 4.84292 3.72699 0
M  V30 18937 C 1794.48 5.80514 3.59851 0
M  V30 18938 O 1794.17 7.13088 3.71161 0
M  V30 18939 H 1793.9 0.377158 0.561006 0
M  V30 18940 H 1796.46 1.62527 1.25595 0
M  V30 18941 H 1794.69 1.00491 3.73415 0
M  V30 18942 H 1796.37 1.41804 3.80324 0
M  V30 18943 H 1797.14 3.78063 3.03798 0
M  V30 18944 H 1793.02 2.74895 3.70073 0
M  V30 18945 H 1796.56 6.17178 3.25172 0
M  V30 18946 H 1792.46 5.13124 3.91629 0
M  V30 18947 H 1793.23 7.20677 3.88029 0
M  V30 18948 N 1795.89 -1.18905 1.03437 0
M  V30 18949 C 1797.14 -1.89007 0.735135 0
M  V30 18950 C 1797.47 -1.7976 -0.734838 0
M  V30 18951 O 1796.75 -1.19365 -1.53565 0
M  V30 18952 C 1797.03 -3.39732 1.1939 0
M  V30 18953 C 1796.88 -3.57822 2.7255 0
M  V30 18954 C 1798.2 -4.33151 0.778993 0
M  V30 18955 H 1795.32 -0.686338 0.26853 0
M  V30 18956 H 1797.96 -1.39932 1.28527 0
M  V30 18957 H 1796.11 -3.81659 0.725861 0
M  V30 18958 H 1797.78 -3.25031 3.27342 0
M  V30 18959 H 1796.03 -3.0069 3.12679 0
M  V30 18960 H 1796.7 -4.63552 2.99706 0
M  V30 18961 H 1799.17 -3.98969 1.18164 0
M  V30 18962 H 1798.05 -5.37189 1.12781 0
M  V30 18963 H 1798.31 -4.40953 -0.318296 0
M  V30 18964 N 1797.37 -0.812977 -1.35013 0
M  V30 18965 C 1798.62 -0.396345 -1.98583 0
M  V30 18966 C 1798.94 1.0381 -1.6448 0
M  V30 18967 O 1798.2 1.73604 -0.903344 0
M  V30 18968 C 1798.5 -0.534083 -3.53387 0
M  V30 18969 C 1798.16 -1.93278 -4.07375 0
M  V30 18970 C 1796.83 -2.31543 -4.21831 0
M  V30 18971 C 1799.18 -2.84756 -4.36535 0
M  V30 18972 C 1796.51 -3.60641 -4.62769 0
M  V30 18973 C 1798.86 -4.13308 -4.78915 0
M  V30 18974 C 1797.52 -4.51563 -4.91576 0
M  V30 18975 H 1796.79 -0.145033 -0.726668 0
M  V30 18976 H 1799.44 -1.035 -1.61121 0
M  V30 18977 H 1797.74 0.188002 -3.91349 0
M  V30 18978 H 1799.44 -0.192396 -4.00538 0
M  V30 18979 H 1796.03 -1.62551 -3.96579 0
M  V30 18980 H 1800.22 -2.56441 -4.24914 0
M  V30 18981 H 1795.47 -3.9012 -4.70761 0
M  V30 18982 H 1799.65 -4.84287 -5.00439 0
M  V30 18983 H 1797.27 -5.51649 -5.23056 0
M  V30 18984 N 1798.85 1.47045 -0.567045 0
M  V30 18985 C 1799.78 2.32929 0.163191 0
M  V30 18986 C 1800.76 1.44393 0.899142 0
M  V30 18987 O 1801.94 1.73235 0.87768 0
M  V30 18988 C 1799.07 3.26369 1.18745 0
M  V30 18989 C 1798.03 4.24223 0.567335 0
M  V30 18990 C 1797.35 5.07058 1.69693 0
M  V30 18991 C 1798.65 5.2004 -0.485319 0
M  V30 18992 H 1800.35 2.94233 -0.553837 0
M  V30 18993 H 1797.89 1.41488 -0.267789 0
M  V30 18994 H 1799.85 3.85299 1.70654 0
M  V30 18995 H 1798.57 2.6314 1.93455 0
M  V30 18996 H 1797.23 3.66534 0.0694525 0
M  V30 18997 H 1796.88 4.40226 2.43331 0
M  V30 18998 H 1796.58 5.73316 1.28774 0
M  V30 18999 H 1798.1 5.68848 2.2191 0
M  V30 19000 H 1799.52 5.73277 -0.0519049 0
M  V30 19001 H 1797.91 5.94554 -0.813942 0
M  V30 19002 H 1798.98 4.64921 -1.37754 0
M  V30 19003 N 1800.33 0.304 1.5464 0
M  V30 19004 C 1801.57 -0.303793 1.99804 0
M  V30 19005 C 1801.89 -1.54179 1.19389 0
M  V30 19006 O 1801.16 -1.93732 0.290631 0
M  V30 19007 H 1799.74 -0.115241 0.738057 0
M  V30 19008 H 1802.41 0.416024 1.90408 0
M  V30 19009 H 1801.5 -0.573759 3.06781 0
M  V30 19010 N 1801.8 -1.57568 0.0317802 0
M  V30 19011 C 1803.21 -1.79693 -0.506679 0
M  V30 19012 C 1803.57 -0.94229 -1.72091 0
M  V30 19013 O 1802.69 -0.153435 -2.15855 0
M  V30 19014 C 1803.29 -3.259 -0.925978 0
M  V30 19015 C 1801.84 -3.49012 -1.40953 0
M  V30 19016 C 1800.99 -2.74746 -0.375509 0
M  V30 19017 H 1803.94 -1.56592 0.257798 0
M  V30 19018 H 1803.96 -3.35757 -1.79017 0
M  V30 19019 H 1803.48 -3.88077 -0.0420441 0
M  V30 19020 H 1801.58 -2.9209 -2.31331 0
M  V30 19021 H 1801.69 -4.57725 -1.41508 0
M  V30 19022 H 1800.05 -2.40303 -0.844187 0
M  V30 19023 H 1800.84 -3.39639 0.500005 0
M  V30 19024 N 1803.28 0.241399 -1.5574 0
M  V30 19025 C 1804.51 0.986075 -1.81891 0
M  V30 19026 C 1804.93 1.78734 -0.608254 0
M  V30 19027 O 1804.28 1.77527 0.423129 0
M  V30 19028 C 1804.33 1.91956 -3.06325 0
M  V30 19029 O 1804.05 1.15071 -4.22718 0
M  V30 19030 C 1805.56 2.77977 -3.45317 0
M  V30 19031 H 1802.78 0.289913 -0.605137 0
M  V30 19032 H 1805.32 0.262622 -2.02807 0
M  V30 19033 H 1803.47 2.59721 -2.87443 0
M  V30 19034 H 1803.89 1.78261 -4.93278 0
M  V30 19035 H 1805.36 3.39215 -4.35474 0
M  V30 19036 H 1805.84 3.49369 -2.66154 0
M  V30 19037 H 1806.45 2.15655 -3.66569 0
M  V30 19038 N 1804.76 1.49212 0.507292 0
M  V30 19039 C 1806.17 1.51655 1.08892 0
M  V30 19040 C 1806.52 0.299163 1.93906 0
M  V30 19041 O 1805.65 -0.591635 2.08155 0
M  V30 19042 C 1806.24 2.7481 1.98154 0
M  V30 19043 C 1804.8 2.80051 2.51492 0
M  V30 19044 C 1803.95 2.45486 1.28966 0
M  V30 19045 H 1806.9 1.56 0.291488 0
M  V30 19046 H 1806.92 2.54615 2.82757 0
M  V30 19047 H 1806.43 3.63396 1.36253 0
M  V30 19048 H 1804.53 1.95729 3.1705 0
M  V30 19049 H 1804.65 3.82064 2.89075 0
M  V30 19050 H 1803.01 1.97128 1.61284 0
M  V30 19051 H 1803.79 3.36339 0.687821 0
M  V30 19052 N 1806.24 -0.757876 1.38181 0
M  V30 19053 C 1807.15 -1.90234 1.37289 0
M  V30 19054 C 1808.16 -1.71883 0.270567 0
M  V30 19055 O 1809.34 -1.94881 0.508279 0
M  V30 19056 C 1806.41 -3.25546 1.19251 0
M  V30 19057 C 1805.47 -3.56452 2.39249 0
M  V30 19058 C 1804.7 -4.85308 2.22063 0
M  V30 19059 O 1804.92 -5.57373 1.2121 0
M  V30 19060 O 1803.86 -5.15594 3.10558 0
M  V30 19061 H 1807.68 -1.9394 2.33711 0
M  V30 19062 H 1805.27 -0.902559 1.19056 0
M  V30 19063 H 1807.15 -4.06454 1.11235 0
M  V30 19064 H 1805.82 -3.22661 0.259109 0
M  V30 19065 H 1804.73 -2.75723 2.52839 0
M  V30 19066 H 1806.06 -3.64094 3.31205 0
M  V30 19067 N 1807.72 -1.22979 -0.985586 0
M  V30 19068 C 1808.65 -1.03073 -2.09519 0
M  V30 19069 C 1809.63 0.0507025 -1.70024 0
M  V30 19070 O 1810.81 -0.112938 -1.93871 0
M  V30 19071 C 1807.94 -0.615578 -3.41801 0
M  V30 19072 C 1806.9 -1.64377 -3.95176 0
M  V30 19073 C 1806.22 -1.08422 -5.23592 0
M  V30 19074 C 1807.52 -3.03555 -4.25032 0
M  V30 19075 H 1809.22 -1.95882 -2.2643 0
M  V30 19076 H 1806.76 -0.943206 -1.0881 0
M  V30 19077 H 1808.72 -0.463394 -4.18844 0
M  V30 19078 H 1807.44 0.348185 -3.24739 0
M  V30 19079 H 1806.1 -1.78386 -3.20272 0
M  V30 19080 H 1805.75 -0.111597 -5.02876 0
M  V30 19081 H 1805.45 -1.77118 -5.6027 0
M  V30 19082 H 1806.97 -0.94378 -6.03262 0
M  V30 19083 H 1808.38 -2.92878 -4.92844 0
M  V30 19084 H 1806.78 -3.69441 -4.72899 0
M  V30 19085 H 1807.85 -3.52937 -3.32511 0
M  V30 19086 N 1809.19 1.18355 -1.04066 0
M  V30 19087 C 1810.44 1.88614 -0.745148 0
M  V30 19088 C 1810.77 1.80147 0.725294 0
M  V30 19089 O 1810.05 1.20177 1.5293 0
M  V30 19090 C 1810.33 3.39095 -1.2119 0
M  V30 19091 C 1810.18 3.56372 -2.74444 0
M  V30 19092 C 1811.5 4.32732 -0.801953 0
M  V30 19093 H 1808.62 0.684905 -0.272166 0
M  V30 19094 H 1811.26 1.39248 -1.29267 0
M  V30 19095 H 1809.41 3.81269 -0.746091 0
M  V30 19096 H 1811.09 3.2329 -3.29061 0
M  V30 19097 H 1809.33 2.99028 -3.14269 0
M  V30 19098 H 1810 4.61956 -3.0216 0
M  V30 19099 H 1812.48 3.98337 -1.20278 0
M  V30 19100 H 1811.35 5.36583 -1.15628 0
M  V30 19101 H 1811.61 4.41115 0.294907 0
M  V30 19102 N 1810.67 0.820125 1.3458 0
M  V30 19103 C 1811.9 0.419764 2.02597 0
M  V30 19104 C 1812.32 -0.973439 1.6177 0
M  V30 19105 O 1811.67 -1.6295 0.821791 0
M  V30 19106 C 1811.72 0.509104 3.57897 0
M  V30 19107 O 1811.44 1.84739 3.97244 0
M  V30 19108 C 1812.95 0.103283 4.4318 0
M  V30 19109 H 1810.17 0.168803 0.64942 0
M  V30 19110 H 1812.71 1.10751 1.71914 0
M  V30 19111 H 1810.86 -0.130526 3.8718 0
M  V30 19112 H 1811.28 1.81967 4.91923 0
M  V30 19113 H 1812.75 0.216884 5.51574 0
M  V30 19114 H 1813.23 -0.952888 4.28738 0
M  V30 19115 H 1813.84 0.716601 4.19219 0
M  V30 19116 N 1812.15 -1.46743 0.574835 0
M  V30 19117 C 1813.08 -2.2832 -0.20062 0
M  V30 19118 C 1814.1 -1.3805 -0.862898 0
M  V30 19119 O 1815.28 -1.6272 -0.733785 0
M  V30 19120 C 1812.38 -3.1285 -1.303 0
M  V30 19121 C 1811.56 -4.31195 -0.734153 0
M  V30 19122 C 1810.62 -4.97183 -1.72324 0
M  V30 19123 O 1809.64 -5.55025 -1.26239 0
M  V30 19124 N 1810.84 -4.93476 -3.05714 0
M  V30 19125 H 1813.61 -2.95513 0.499231 0
M  V30 19126 H 1811.17 -1.56568 0.412077 0
M  V30 19127 H 1813.16 -3.53861 -1.96378 0
M  V30 19128 H 1811.73 -2.47784 -1.90583 0
M  V30 19129 H 1810.95 -3.94063 0.103888 0
M  V30 19130 H 1812.24 -5.07704 -0.333751 0
M  V30 19131 H 1811.64 -4.47715 -3.45786 0
M  V30 19132 H 1810.2 -5.38453 -3.67304 0
M  V30 19133 N 1813.63 -0.312197 -1.54477 0
M  V30 19134 C 1814.56 0.592742 -2.21403 0
M  V30 19135 C 1815.57 1.0888 -1.21033 0
M  V30 19136 O 1816.76 1.00433 -1.47565 0
M  V30 19137 C 1813.86 1.82478 -2.85578 0
M  V30 19138 C 1813.04 1.46933 -4.11982 0
M  V30 19139 C 1812.09 2.5577 -4.59857 0
M  V30 19140 O 1811.12 2.20391 -5.24801 0
M  V30 19141 N 1812.32 3.86506 -4.3312 0
M  V30 19142 H 1815.09 0.0197398 -2.99693 0
M  V30 19143 H 1812.65 -0.13489 -1.61337 0
M  V30 19144 H 1814.64 2.54657 -3.14534 0
M  V30 19145 H 1813.21 2.3059 -2.11062 0
M  V30 19146 H 1812.43 0.579677 -3.89915 0
M  V30 19147 H 1813.72 1.20739 -4.94267 0
M  V30 19148 H 1813.12 4.18053 -3.81114 0
M  V30 19149 H 1811.67 4.5495 -4.66759 0
M  V30 19150 N 1815.11 1.57549 -0.040136 0
M  V30 19151 C 1816.34 1.96272 0.645049 0
M  V30 19152 C 1816.74 0.915804 1.65559 0
M  V30 19153 O 1816.09 -0.109666 1.83372 0
M  V30 19154 C 1816.15 3.31187 1.3984 0
M  V30 19155 C 1815.81 4.53739 0.544953 0
M  V30 19156 C 1816.81 5.19573 -0.184369 0
M  V30 19157 C 1814.5 5.0001 0.479119 0
M  V30 19158 C 1816.49 6.30006 -0.968081 0
M  V30 19159 C 1814.18 6.10322 -0.30829 0
M  V30 19160 C 1815.17 6.7518 -1.03059 0
M  V30 19161 O 1814.86 7.83373 -1.80507 0
M  V30 19162 H 1814.59 0.651051 0.181958 0
M  V30 19163 H 1817.15 2.05159 -0.0995179 0
M  V30 19164 H 1815.38 3.18823 2.18835 0
M  V30 19165 H 1817.07 3.54735 1.97276 0
M  V30 19166 H 1817.83 4.84789 -0.142908 0
M  V30 19167 H 1813.71 4.49325 1.0309 0
M  V30 19168 H 1817.26 6.80562 -1.53237 0
M  V30 19169 H 1813.15 6.44543 -0.351428 0
M  V30 19170 H 1813.92 8.00094 -1.72601 0
M  V30 19171 N 1816.58 -0.233136 1.55866 0
M  V30 19172 C 1817.81 -0.976415 1.82411 0
M  V30 19173 C 1818.23 -1.78409 0.617724 0
M  V30 19174 O 1817.58 -1.77749 -0.413709 0
M  V30 19175 C 1817.64 -1.90328 3.07339 0
M  V30 19176 O 1817.36 -1.12828 4.23322 0
M  V30 19177 C 1818.86 -2.76142 3.46786 0
M  V30 19178 H 1816.08 -0.2867 0.606666 0
M  V30 19179 H 1818.62 -0.251863 2.02943 0
M  V30 19180 H 1816.78 -2.58193 2.88816 0
M  V30 19181 H 1817.19 -1.75643 4.94216 0
M  V30 19182 H 1818.66 -3.36901 4.37266 0
M  V30 19183 H 1819.14 -3.47953 2.68003 0
M  V30 19184 H 1819.75 -2.13708 3.67708 0
M  V30 19185 N 1818.06 -1.49479 -0.499372 0
M  V30 19186 C 1818.97 -1.69006 -1.62709 0
M  V30 19187 C 1819.99 -0.572681 -1.64306 0
M  V30 19188 O 1821.17 -0.847586 -1.82696 0
M  V30 19189 C 1818.23 -1.75382 -2.99069 0
M  V30 19190 C 1817.29 -2.98968 -3.08086 0
M  V30 19191 C 1816.52 -3.0503 -4.37941 0
M  V30 19192 O 1816.75 -2.18641 -5.26832 0
M  V30 19193 O 1815.68 -3.97507 -4.51964 0
M  V30 19194 H 1819.51 -2.64544 -1.49164 0
M  V30 19195 H 1817.09 -1.3324 -0.675836 0
M  V30 19196 H 1818.97 -1.81919 -3.8011 0
M  V30 19197 H 1817.65 -0.830226 -3.12872 0
M  V30 19198 H 1816.56 -2.97947 -2.26227 0
M  V30 19199 H 1817.89 -3.90812 -2.9921 0
M  V30 19200 N 1819.54 0.750537 -1.38581 0
M  V30 19201 C 1820.47 1.87785 -1.38777 0
M  V30 19202 C 1821.45 1.68204 -0.253244 0
M  V30 19203 O 1822.64 1.88752 -0.456779 0
M  V30 19204 C 1819.77 3.2535 -1.21511 0
M  V30 19205 C 1818.72 3.59538 -2.32199 0
M  V30 19206 C 1818.05 4.95873 -2.00036 0
M  V30 19207 C 1819.35 3.64102 -3.74469 0
M  V30 19208 H 1821.04 1.87879 -2.33113 0
M  V30 19209 H 1818.59 0.902504 -1.12209 0
M  V30 19210 H 1820.54 4.03872 -1.20272 0
M  V30 19211 H 1819.26 3.25744 -0.236366 0
M  V30 19212 H 1817.92 2.83336 -2.32629 0
M  V30 19213 H 1817.57 4.9283 -1.00638 0
M  V30 19214 H 1817.27 5.19716 -2.7417 0
M  V30 19215 H 1818.8 5.7677 -2.00421 0
M  V30 19216 H 1820.21 4.32731 -3.76054 0
M  V30 19217 H 1818.61 3.99455 -4.47834 0
M  V30 19218 H 1819.68 2.64259 -4.06565 0
M  V30 19219 N 1821.02 1.235 0.979051 0
M  V30 19220 C 1822.27 1.06197 1.71479 0
M  V30 19221 C 1822.58 -0.401066 1.91444 0
M  V30 19222 O 1823.79 -0.69406 2.62479 0
M  V30 19223 C 1822.24 1.85189 3.08598 0
M  V30 19224 C 1821.85 3.35831 2.96516 0
M  V30 19225 C 1823.6 1.76379 3.86122 0
M  V30 19226 C 1821.5 4.0721 4.28875 0
M  V30 19227 H 1820.43 0.393779 0.643004 0
M  V30 19228 H 1823.08 1.47479 1.09188 0
M  V30 19229 H 1821.47 1.36714 3.71652 0
M  V30 19230 H 1822.64 3.91803 2.42543 0
M  V30 19231 H 1820.95 3.45469 2.32466 0
M  V30 19232 H 1823.55 2.2702 4.84114 0
M  V30 19233 H 1823.89 0.726826 4.09906 0
M  V30 19234 H 1824.43 2.22473 3.29773 0
M  V30 19235 H 1821.17 5.11218 4.10288 0
M  V30 19236 H 1820.69 3.56025 4.82707 0
M  V30 19237 H 1822.37 4.13579 4.97555 0
M  V30 19238 N 1822.5 -1.17802 1.04693 0
M  V30 19239 C 1823.75 -1.87567 0.752534 0
M  V30 19240 C 1824.07 -1.81129 -0.722303 0
M  V30 19241 O 1823.34 -1.23385 -1.52161 0
M  V30 19242 H 1821.92 -0.69439 0.275376 0
M  V30 19243 H 1824.58 -1.42932 1.32501 0
M  V30 19244 H 1823.67 -2.9344 1.06299 0
M  V30 19245 N 1823.98 -0.827251 -1.34143 0
M  V30 19246 C 1825.39 -0.513554 -1.51112 0
M  V30 19247 C 1825.59 0.961434 -1.77084 0
M  V30 19248 O 1824.65 1.74573 -1.82429 0
M  V30 19249 C 1825.96 -1.37683 -2.67327 0
M  V30 19250 C 1827.51 -1.3744 -2.8121 0
M  V30 19251 C 1827.98 -2.22226 -4.00474 0
M  V30 19252 N 1829.47 -2.19873 -4.07689 0
M  V30 19253 C 1830.21 -2.82222 -4.99138 0
M  V30 19254 N 1829.71 -3.53578 -5.95781 0
M  V30 19255 N 1831.5 -2.71753 -4.92043 0
M  V30 19256 H 1823.65 -1.78222 -1.15545 0
M  V30 19257 H 1825.91 -0.759711 -0.567047 0
M  V30 19258 H 1825.62 -2.42448 -2.54778 0
M  V30 19259 H 1825.49 -1.0446 -3.62447 0
M  V30 19260 H 1827.88 -0.334525 -2.93198 0
M  V30 19261 H 1827.96 -1.74663 -1.86886 0
M  V30 19262 H 1827.6 -3.26266 -3.89246 0
M  V30 19263 H 1827.53 -1.82352 -4.9402 0
M  V30 19264 H 1830.03 -1.67972 -3.38517 0
M  V30 19265 H 1830.34 -3.98387 -6.62199 0
M  V30 19266 H 1828.68 -3.57685 -5.95892 0
M  V30 19267 H 1831.87 -2.15579 -4.15504 0
M  V30 19268 H 1832.05 -3.2063 -5.63117 0
M  V30 19269 N 1825.45 1.46436 -0.582609 0
M  V30 19270 C 1826.86 1.86047 -0.156012 0
M  V30 19271 C 1827.22 1.48619 1.28089 0
M  V30 19272 O 1826.34 0.90104 1.96749 0
M  V30 19273 C 1826.94 3.37671 -0.276358 0
M  V30 19274 C 1825.49 3.76279 0.0953682 0
M  V30 19275 C 1824.64 2.70454 -0.612348 0
M  V30 19276 H 1827.59 1.37592 -0.790834 0
M  V30 19277 H 1827.61 3.77223 0.498312 0
M  V30 19278 H 1827.13 3.64881 -1.32225 0
M  V30 19279 H 1825.23 3.54687 1.1414 0
M  V30 19280 H 1825.34 4.78276 -0.280881 0
M  V30 19281 H 1823.7 2.54646 -0.0526182 0
M  V30 19282 H 1824.49 3.00504 -1.65989 0
M  V30 19283 N 1826.93 0.320385 1.54309 0
M  V30 19284 C 1828.18 -0.283562 2.00808 0
M  V30 19285 C 1828.51 -1.52036 1.20826 0
M  V30 19286 O 1827.79 -1.9233 0.289721 0
M  V30 19287 C 1828.07 -0.620875 3.54707 0
M  V30 19288 C 1827.92 0.626403 4.45417 0
M  V30 19289 C 1829.24 -1.43978 4.15883 0
M  V30 19290 H 1826.36 -0.10159 0.729965 0
M  V30 19291 H 1829 0.436332 1.84922 0
M  V30 19292 H 1827.15 -1.23419 3.68375 0
M  V30 19293 H 1828.82 1.2647 4.43625 0
M  V30 19294 H 1827.07 1.2559 4.15222 0
M  V30 19295 H 1827.74 0.345969 5.50915 0
M  V30 19296 H 1830.21 -0.921381 4.05771 0
M  V30 19297 H 1829.09 -1.64456 5.23685 0
M  V30 19298 H 1829.35 -2.43494 3.69003 0
M  V30 19299 N 1828.41 -1.57525 0.0484906 0
M  V30 19300 C 1829.34 -2.06926 -0.962128 0
M  V30 19301 C 1830.32 -0.969173 -1.3056 0
M  V30 19302 O 1831.5 -1.24091 -1.41893 0
M  V30 19303 C 1828.63 -2.50752 -2.27687 0
M  V30 19304 C 1827.68 -3.7197 -2.08664 0
M  V30 19305 S 1828.51 -5.17745 -1.36749 0
M  V30 19306 C 1829.67 -5.64883 -2.69552 0
M  V30 19307 H 1829.9 -2.92323 -0.541691 0
M  V30 19308 H 1827.43 -1.5353 -0.163706 0
M  V30 19309 H 1829.39 -2.76665 -3.03261 0
M  V30 19310 H 1828.05 -1.65665 -2.66859 0
M  V30 19311 H 1827.24 -4.00546 -3.05907 0
M  V30 19312 H 1826.85 -3.46309 -1.41231 0
M  V30 19313 H 1829.14 -5.70305 -3.6573 0
M  V30 19314 H 1830.08 -6.64138 -2.45615 0
M  V30 19315 H 1830.49 -4.92602 -2.75688 0
M  V30 19316 N 1829.89 0.224867 -1.55988 0
M  V30 19317 C 1831.13 0.951154 -1.79111 0
M  V30 19318 C 1831.47 1.84119 -0.617568 0
M  V30 19319 O 1830.74 1.90686 0.383312 0
M  V30 19320 C 1831.02 1.79292 -3.12292 0
M  V30 19321 C 1830.88 0.929603 -4.40089 0
M  V30 19322 C 1832.2 2.77132 -3.41886 0
M  V30 19323 H 1829.32 0.344359 -0.651603 0
M  V30 19324 H 1831.96 0.220228 -1.88719 0
M  V30 19325 H 1830.11 2.41609 -3.04232 0
M  V30 19326 H 1831.78 0.323432 -4.60165 0
M  V30 19327 H 1830.02 0.234877 -4.33164 0
M  V30 19328 H 1830.69 1.55289 -5.29707 0
M  V30 19329 H 1833.17 2.24951 -3.50052 0
M  V30 19330 H 1832.05 3.33135 -4.36248 0
M  V30 19331 H 1832.31 3.54705 -2.63887 0
M  V30 19332 N 1831.37 1.49742 0.491438 0
M  V30 19333 C 1832.78 1.52802 1.07278 0
M  V30 19334 C 1833.13 0.319712 1.93578 0
M  V30 19335 O 1832.25 -0.569524 2.08771 0
M  V30 19336 C 1832.85 2.76896 1.95228 0
M  V30 19337 C 1831.41 2.82703 2.48508 0
M  V30 19338 C 1830.55 2.4684 1.26355 0
M  V30 19339 H 1833.5 1.56301 0.274925 0
M  V30 19340 H 1833.53 2.57599 2.80041 0
M  V30 19341 H 1833.04 3.64821 1.32391 0
M  V30 19342 H 1831.14 1.99081 3.14956 0
M  V30 19343 H 1831.25 3.85108 2.85006 0
M  V30 19344 H 1829.62 1.98828 1.59184 0
M  V30 19345 H 1830.4 3.3705 0.652109 0
M  V30 19346 N 1832.84 -0.743177 1.38977 0
M  V30 19347 C 1834.07 -1.53021 1.3881 0
M  V30 19348 C 1834.48 -1.89188 -0.0213066 0
M  V30 19349 O 1833.83 -1.54033 -1.00097 0
M  V30 19350 C 1833.89 -2.85158 2.18918 0
M  V30 19351 C 1833.55 -2.71471 3.67631 0
M  V30 19352 C 1834.55 -2.40567 4.60894 0
M  V30 19353 C 1832.23 -2.88598 4.11116 0
M  V30 19354 C 1834.23 -2.26959 5.95625 0
M  V30 19355 C 1831.91 -2.74609 5.45924 0
M  V30 19356 C 1832.91 -2.43833 6.37992 0
M  V30 19357 O 1832.6 -2.29922 7.70319 0
M  V30 19358 H 1832.33 -0.47975 0.476252 0
M  V30 19359 H 1834.89 -0.92667 1.83308 0
M  V30 19360 H 1833.12 -3.47741 1.69154 0
M  V30 19361 H 1834.81 -3.4673 2.11029 0
M  V30 19362 H 1835.57 -2.26994 4.28601 0
M  V30 19363 H 1831.45 -3.11547 3.39794 0
M  V30 19364 H 1834.99 -2.02859 6.67453 0
M  V30 19365 H 1830.89 -2.87758 5.77811 0
M  V30 19366 H 1831.66 -2.45054 7.80955 0
M  V30 19367 N 1834.32 -1.24018 -0.972487 0
M  V30 19368 C 1835.57 -1.08868 -1.71812 0
M  V30 19369 C 1835.92 0.369419 -1.8882 0
M  V30 19370 O 1835.22 1.26943 -1.43513 0
M  V30 19371 C 1835.41 -1.75657 -3.11255 0
M  V30 19372 C 1835.24 -3.27811 -3.07847 0
M  V30 19373 C 1834.01 -3.97004 -3.12595 0
M  V30 19374 C 1836.21 -4.2447 -2.90396 0
M  V30 19375 N 1834.19 -5.36077 -2.99157 0
M  V30 19376 C 1835.56 -5.50508 -2.85204 0
M  V30 19377 C 1837.62 -4.15105 -2.74941 0
M  V30 19378 C 1836.32 -6.68254 -2.66136 0
M  V30 19379 C 1838.34 -5.32524 -2.5724 0
M  V30 19380 C 1837.71 -6.57492 -2.52752 0
M  V30 19381 H 1833.81 -0.452965 -0.637453 0
M  V30 19382 H 1836.39 -1.56863 -1.15335 0
M  V30 19383 H 1834.56 -1.30183 -3.65933 0
M  V30 19384 H 1836.29 -1.53411 -3.74496 0
M  V30 19385 H 1833.05 -3.48137 -3.21088 0
M  V30 19386 H 1833.47 -6.09012 -2.95691 0
M  V30 19387 H 1838.11 -3.19253 -2.77196 0
M  V30 19388 H 1835.83 -7.64234 -2.62625 0
M  V30 19389 H 1839.42 -5.27125 -2.46232 0
M  V30 19390 H 1838.3 -7.4682 -2.39228 0
M  V30 19391 N 1835.8 1.17245 -1.05316 0
M  V30 19392 C 1837.03 1.91995 -0.784387 0
M  V30 19393 C 1837.45 1.76362 0.65408 0
M  V30 19394 O 1836.81 1.0822 1.45458 0
M  V30 19395 C 1836.86 3.41043 -1.1714 0
M  V30 19396 O 1835.96 4.11276 -0.304285 0
M  V30 19397 H 1835.3 0.598516 -0.287532 0
M  V30 19398 H 1837.83 1.48604 -1.40634 0
M  V30 19399 H 1837.84 3.91788 -1.13871 0
M  V30 19400 H 1836.52 3.51742 -2.21924 0
M  V30 19401 H 1835.09 3.70773 -0.39769 0
M  V30 19402 N 1837.28 0.834353 1.33702 0
M  V30 19403 C 1838.21 0.279313 2.31823 0
M  V30 19404 C 1839.19 -0.610495 1.58767 0
M  V30 19405 O 1840.37 -0.534989 1.86686 0
M  V30 19406 C 1837.5 -0.550201 3.42914 0
M  V30 19407 C 1836.46 0.243432 4.27307 0
M  V30 19408 C 1835.78 -0.709548 5.29971 0
M  V30 19409 C 1837.08 1.45799 5.01537 0
M  V30 19410 H 1838.78 1.09915 2.78494 0
M  V30 19411 H 1836.32 0.529987 1.33892 0
M  V30 19412 H 1838.28 -0.948764 4.10581 0
M  V30 19413 H 1837 -1.4032 2.9492 0
M  V30 19414 H 1835.66 0.6235 3.61259 0
M  V30 19415 H 1835.31 -1.55882 4.78236 0
M  V30 19416 H 1835.01 -0.182671 5.87316 0
M  V30 19417 H 1836.53 -1.10572 6.00505 0
M  V30 19418 H 1837.95 1.13283 5.61996 0
M  V30 19419 H 1836.34 1.92133 5.68511 0
M  V30 19420 H 1837.41 2.23016 4.30571 0
M  V30 19421 N 1838.76 -1.46125 0.590367 0
M  V30 19422 C 1840 -2.01947 0.0787256 0
M  V30 19423 C 1840.33 -1.4634 -1.28878 0
M  V30 19424 O 1839.6 -0.651011 -1.84767 0
M  V30 19425 H 1838.18 -0.746543 0.0261125 0
M  V30 19426 H 1840.84 -1.79136 0.767877 0
M  V30 19427 H 1839.93 -3.12096 0.0154914 0
M  V30 19428 N 1840.23 -0.328564 -1.54137 0
M  V30 19429 C 1841.48 0.272505 -2.00658 0
M  V30 19430 C 1841.81 1.51748 -1.21666 0
M  V30 19431 O 1841.06 1.93566 -0.288224 0
M  V30 19432 C 1841.36 0.646813 -3.51498 0
M  V30 19433 C 1841.03 -0.499561 -4.48124 0
M  V30 19434 C 1839.69 -0.8142 -4.74262 0
M  V30 19435 C 1842.04 -1.26936 -5.05506 0
M  V30 19436 C 1839.37 -1.90127 -5.55039 0
M  V30 19437 C 1841.72 -2.34656 -5.87469 0
M  V30 19438 C 1840.39 -2.66696 -6.11906 0
M  V30 19439 H 1839.66 0.0997168 -0.73426 0
M  V30 19440 H 1842.3 -0.453377 -1.86056 0
M  V30 19441 H 1840.61 1.45319 -3.63854 0
M  V30 19442 H 1842.31 1.12352 -3.84939 0
M  V30 19443 H 1838.9 -0.244255 -4.27903 0
M  V30 19444 H 1843.08 -1.03954 -4.85291 0
M  V30 19445 H 1838.34 -2.15392 -5.72203 0
M  V30 19446 H 1842.51 -2.94745 -6.3095 0
M  V30 19447 H 1840.14 -3.51058 -6.74287 0
M  V30 19448 N 1841.71 1.57497 -0.0568439 0
M  V30 19449 C 1842.64 2.08817 0.94488 0
M  V30 19450 C 1843.66 1.01717 1.27112 0
M  V30 19451 O 1844.85 1.2927 1.23092 0
M  V30 19452 C 1841.95 2.52104 2.26488 0
M  V30 19453 C 1841.12 3.82606 2.11971 0
M  V30 19454 C 1840.18 4.12145 3.27144 0
M  V30 19455 O 1839.2 4.81978 3.02797 0
M  V30 19456 N 1840.41 3.64505 4.51792 0
M  V30 19457 H 1843.17 2.95384 0.506814 0
M  V30 19458 H 1840.73 1.61383 0.129259 0
M  V30 19459 H 1842.72 2.68938 3.02415 0
M  V30 19460 H 1841.29 1.70756 2.61842 0
M  V30 19461 H 1840.51 3.75299 1.20601 0
M  V30 19462 H 1841.8 4.68055 1.99505 0
M  V30 19463 H 1841.2 3.08061 4.74462 0
M  V30 19464 H 1839.76 3.86566 5.24795 0
M  V30 19465 N 1843.19 -0.216591 1.56105 0
M  V30 19466 C 1844.12 -1.27155 1.95841 0
M  V30 19467 C 1845.1 -1.48626 0.827313 0
M  V30 19468 O 1846.29 -1.60725 1.09 0
M  V30 19469 C 1843.42 -2.62032 2.27939 0
M  V30 19470 C 1842.37 -2.55211 3.43586 0
M  V30 19471 C 1841.7 -3.94163 3.61303 0
M  V30 19472 C 1843 -2.09566 4.78413 0
M  V30 19473 H 1844.69 -0.941435 2.84214 0
M  V30 19474 H 1842.24 -0.451427 1.36741 0
M  V30 19475 H 1844.19 -3.35997 2.5433 0
M  V30 19476 H 1842.91 -2.96742 1.36426 0
M  V30 19477 H 1841.57 -1.83703 3.17252 0
M  V30 19478 H 1841.22 -4.26188 2.67156 0
M  V30 19479 H 1840.92 -3.90479 4.3909 0
M  V30 19480 H 1842.44 -4.69782 3.90047 0
M  V30 19481 H 1843.86 -2.73277 5.03977 0
M  V30 19482 H 1842.26 -2.16931 5.59518 0
M  V30 19483 H 1843.33 -1.0481 4.73437 0
M  V30 19484 N 1844.67 -1.5 -0.48349 0
M  V30 19485 C 1845.91 -1.61998 -1.24644 0
M  V30 19486 C 1846.27 -0.307758 -1.89517 0
M  V30 19487 O 1847.47 -0.303059 -2.67086 0
M  V30 19488 C 1845.74 -2.75914 -2.27171 0
M  V30 19489 S 1847.3 -3.0797 -3.1257 0
M  V30 19490 H 1844.12 -0.571218 -0.423357 0
M  V30 19491 H 1846.72 -1.87734 -0.545555 0
M  V30 19492 H 1845.43 -3.69755 -1.7807 0
M  V30 19493 H 1844.96 -2.52225 -3.01904 0
M  V30 19494 H 1846.97 -2.50839 -4.28129 0
M  V30 19495 N 1846.15 0.735796 -1.39369 0
M  V30 19496 C 1847.56 1.04124 -1.20956 0
M  V30 19497 C 1847.76 2.01376 -0.0705944 0
M  V30 19498 O 1846.82 2.45795 0.577999 0
M  V30 19499 C 1848.13 1.60429 -2.54329 0
M  V30 19500 C 1849.68 1.72513 -2.61167 0
M  V30 19501 C 1850.15 2.32227 -3.94759 0
M  V30 19502 N 1851.65 2.39638 -3.96394 0
M  V30 19503 C 1852.38 2.86777 -4.96534 0
M  V30 19504 N 1851.88 3.3382 -6.07072 0
M  V30 19505 N 1853.67 2.85979 -4.83913 0
M  V30 19506 H 1845.82 0.0907834 -2.12206 0
M  V30 19507 H 1848.08 0.102896 -0.942399 0
M  V30 19508 H 1847.79 0.964351 -3.38221 0
M  V30 19509 H 1847.66 2.59247 -2.73991 0
M  V30 19510 H 1850.05 2.35629 -1.77659 0
M  V30 19511 H 1850.13 0.723507 -2.45355 0
M  V30 19512 H 1849.78 1.69739 -4.78697 0
M  V30 19513 H 1849.71 3.33066 -4.07891 0
M  V30 19514 H 1852.2 2.06388 -3.16563 0
M  V30 19515 H 1852.51 3.68297 -6.79395 0
M  V30 19516 H 1850.85 3.3183 -6.10666 0
M  V30 19517 H 1854.05 2.48551 -3.96661 0
M  V30 19518 H 1854.22 3.22403 -5.62104 0
M  V30 19519 N 1847.63 1.24532 0.965897 0
M  V30 19520 C 1848.86 1.11157 1.74148 0
M  V30 19521 C 1849.26 -0.338542 1.86147 0
M  V30 19522 O 1848.61 -1.2453 1.35048 0
M  V30 19523 C 1848.67 1.67951 3.17856 0
M  V30 19524 C 1848.33 3.16851 3.29324 0
M  V30 19525 C 1849.33 4.13979 3.14512 0
M  V30 19526 C 1847.01 3.56845 3.53507 0
M  V30 19527 C 1849.01 5.49082 3.2371 0
M  V30 19528 C 1846.7 4.92089 3.62342 0
M  V30 19529 C 1847.69 5.88016 3.47456 0
M  V30 19530 O 1847.38 7.20801 3.55952 0
M  V30 19531 H 1847.11 0.388973 0.55288 0
M  V30 19532 H 1849.67 1.65155 1.22119 0
M  V30 19533 H 1847.9 1.08389 3.71199 0
M  V30 19534 H 1849.59 1.49839 3.77231 0
M  V30 19535 H 1850.35 3.84422 2.95711 0
M  V30 19536 H 1846.23 2.82683 3.64159 0
M  V30 19537 H 1849.78 6.23937 3.12008 0
M  V30 19538 H 1845.67 5.21316 3.80657 0
M  V30 19539 H 1846.44 7.28746 3.72655 0
M  V30 19540 N 1849.1 -1.16685 1.05936 0
M  V30 19541 C 1850.35 -1.86758 0.772386 0
M  V30 19542 C 1850.67 -1.81885 -0.703051 0
M  V30 19543 O 1849.94 -1.24992 -1.50844 0
M  V30 19544 H 1848.52 -0.69143 0.282725 0
M  V30 19545 H 1851.18 -1.41518 1.3401 0
M  V30 19546 H 1850.28 -2.92296 1.09405 0
M  V30 19547 N 1850.58 -0.841432 -1.33258 0
M  V30 19548 C 1851.81 -0.451287 -2.01611 0
M  V30 19549 C 1852.22 0.952858 -1.63454 0
M  V30 19550 O 1851.56 1.6311 -0.845039 0
M  V30 19551 C 1851.62 -0.495287 -3.56072 0
M  V30 19552 C 1851.29 -1.856 -4.17614 0
M  V30 19553 C 1852.29 -2.81959 -4.36801 0
M  V30 19554 C 1849.97 -2.14953 -4.53983 0
M  V30 19555 C 1851.96 -4.05832 -4.91507 0
M  V30 19556 C 1849.65 -3.39083 -5.08395 0
M  V30 19557 C 1850.65 -4.34339 -5.27104 0
M  V30 19558 O 1850.34 -5.56273 -5.80359 0
M  V30 19559 H 1850.07 -0.177188 -0.652365 0
M  V30 19560 H 1852.62 -1.13629 -1.71107 0
M  V30 19561 H 1850.85 0.246506 -3.85914 0
M  V30 19562 H 1852.54 -0.122606 -4.05715 0
M  V30 19563 H 1853.31 -2.60582 -4.0905 0
M  V30 19564 H 1849.19 -1.41602 -4.38714 0
M  V30 19565 H 1852.73 -4.80192 -5.06025 0
M  V30 19566 H 1848.63 -3.60316 -5.35577 0
M  V30 19567 H 1849.4 -5.58047 -5.9877 0
M  V30 19568 N 1852.06 1.4581 -0.598108 0
M  V30 19569 C 1852.99 2.28611 0.164271 0
M  V30 19570 C 1854 1.39406 0.840827 0
M  V30 19571 O 1855.19 1.63867 0.707805 0
M  V30 19572 C 1852.29 3.14883 1.25306 0
M  V30 19573 C 1851.47 4.32308 0.66546 0
M  V30 19574 C 1850.53 4.99862 1.64392 0
M  V30 19575 O 1849.55 5.56963 1.17393 0
M  V30 19576 N 1850.75 4.98278 2.97825 0
M  V30 19577 H 1853.52 2.94681 -0.546181 0
M  V30 19578 H 1851.08 1.55893 -0.436933 0
M  V30 19579 H 1853.07 3.5694 1.90724 0
M  V30 19580 H 1851.64 2.50785 1.86616 0
M  V30 19581 H 1850.86 3.93848 -0.166567 0
M  V30 19582 H 1852.15 5.08171 0.252938 0
M  V30 19583 H 1851.55 4.53159 3.38619 0
M  V30 19584 H 1850.1 5.44228 3.58691 0
M  V30 19585 N 1853.54 0.336733 1.53961 0
M  V30 19586 C 1854.49 -0.538599 2.26278 0
M  V30 19587 C 1855.48 -1.10764 1.2817 0
M  V30 19588 O 1856.69 -1.05416 1.45902 0
M  V30 19589 H 1853.06 -0.192363 0.72698 0
M  V30 19590 H 1855.03 0.0934532 2.98254 0
M  V30 19591 C 1853.78 -1.68121 3.04353 0
M  V30 19592 H 1853.1 -1.25261 3.7967 0
M  V30 19593 H 1854.54 -2.26901 3.58179 0
M  V30 19594 C 1853 -2.60663 2.13439 0
M  V30 19595 O 1853.53 -3.62731 1.72596 0
M  V30 19596 N 1851.74 -2.29194 1.78658 0
M  V30 19597 H 1851.29 -1.46233 2.1207 0
M  V30 19598 H 1851.24 -2.91371 1.18111 0
M  V30 19599 N 1855.02 -1.57465 0.0651956 0
M  V30 19600 C 1856.29 -1.84622 -0.646065 0
M  V30 19601 C 1856.67 -0.956374 -1.88193 0
M  V30 19602 O 1856.02 -0.0209666 -2.2849 0
M  V30 19603 C 1856.23 -3.34664 -0.990013 0
M  V30 19604 C 1857.58 -4.02016 -1.36632 0
M  V30 19605 O 1858.6 -3.39371 -1.08194 0
M  V30 19606 O 1857.46 -5.12496 -1.89764 0
M  V30 19607 H 1854.56 -0.762482 -0.320236 0
M  V30 19608 H 1857.1 -1.6943 0.0956254 0
M  V30 19609 H 1855.87 -3.9114 -0.111977 0
M  V30 19610 H 1855.5 -3.55094 -1.78869 0
M  V30 19611 N 1856.49 0.20831 -1.56217 0
M  V30 19612 C 1857.72 0.951404 -1.84291 0
M  V30 19613 C 1858.14 1.76616 -0.647168 0
M  V30 19614 O 1857.5 1.7674 0.404081 0
M  V30 19615 C 1857.55 1.83403 -3.10477 0
M  V30 19616 O 1856.65 2.93113 -2.90101 0
M  V30 19617 H 1855.99 0.268668 -0.607218 0
M  V30 19618 H 1858.52 0.217618 -2.03439 0
M  V30 19619 H 1858.53 2.24127 -3.40927 0
M  V30 19620 H 1857.21 1.23528 -3.97132 0
M  V30 19621 H 1855.79 2.5624 -2.70916 0
M  V30 19622 N 1857.97 1.50255 0.475528 0
M  V30 19623 C 1858.88 1.71573 1.6 0
M  V30 19624 C 1859.9 0.598748 1.63374 0
M  V30 19625 O 1861.07 0.876544 1.81325 0
M  V30 19626 C 1858.14 1.80117 2.96241 0
M  V30 19627 C 1857.2 3.03831 3.03291 0
M  V30 19628 C 1856.43 3.11958 4.33033 0
M  V30 19629 O 1856.66 2.26995 5.23287 0
M  V30 19630 O 1855.59 4.04647 4.45583 0
M  V30 19631 H 1859.42 2.66884 1.44937 0
M  V30 19632 H 1857 1.34298 0.654553 0
M  V30 19633 H 1858.88 1.87943 3.77167 0
M  V30 19634 H 1857.56 0.879896 3.11512 0
M  V30 19635 H 1856.46 3.01508 2.21458 0
M  V30 19636 H 1857.8 3.95523 2.92955 0
M  V30 19637 N 1859.45 -0.728395 1.39758 0
M  V30 19638 C 1860.7 -1.48357 1.3665 0
M  V30 19639 C 1861.01 -1.95573 -0.0325759 0
M  V30 19640 O 1862.22 -2.7086 -0.186252 0
M  V30 19641 C 1860.67 -2.68105 2.40099 0
M  V30 19642 C 1860.28 -2.27812 3.85754 0
M  V30 19643 C 1862.03 -3.45899 2.46077 0
M  V30 19644 C 1859.93 -3.44322 4.80828 0
M  V30 19645 H 1858.86 -0.557138 0.508048 0
M  V30 19646 H 1861.51 -0.793948 1.65435 0
M  V30 19647 H 1859.9 -3.39174 2.04394 0
M  V30 19648 H 1861.07 -1.64246 4.30534 0
M  V30 19649 H 1859.38 -1.63094 3.83131 0
M  V30 19650 H 1861.98 -4.32573 3.143 0
M  V30 19651 H 1862.32 -3.88824 1.48732 0
M  V30 19652 H 1862.86 -2.81864 2.80709 0
M  V30 19653 H 1859.6 -3.06441 5.7946 0
M  V30 19654 H 1859.12 -4.06847 4.40722 0
M  V30 19655 H 1860.8 -4.10567 5.00044 0
M  V30 19656 N 1860.93 -1.25042 -0.959279 0
M  V30 19657 C 1861.89 -1.05107 -2.03679 0
M  V30 19658 C 1862.89 -0.0054691 -1.60799 0
M  V30 19659 O 1864.08 -0.247225 -1.72437 0
M  V30 19660 C 1861.21 -0.594881 -3.35669 0
M  V30 19661 H 1862.41 -2.00753 -2.22796 0
M  V30 19662 H 1859.96 -1.07384 -1.13571 0
M  V30 19663 H 1860.69 0.364387 -3.22246 0
M  V30 19664 H 1860.48 -1.34966 -3.68139 0
M  V30 19665 H 1861.97 -0.476698 -4.1487 0
M  V30 19666 N 1862.41 1.16121 -1.06553 0
M  V30 19667 C 1863.63 1.91152 -0.804706 0
M  V30 19668 C 1864.06 1.77045 0.635338 0
M  V30 19669 O 1863.41 1.09757 1.44302 0
M  V30 19670 C 1863.46 3.39782 -1.20751 0
M  V30 19671 O 1862.57 4.1093 -0.347889 0
M  V30 19672 H 1861.91 0.595433 -0.293863 0
M  V30 19673 H 1864.44 1.47104 -1.42203 0
M  V30 19674 H 1864.45 3.90558 -1.1802 0
M  V30 19675 H 1863.12 3.49369 -2.25642 0
M  V30 19676 H 1861.7 3.70331 -0.436993 0
M  V30 19677 N 1863.88 0.848487 1.3281 0
M  V30 19678 C 1864.81 0.303885 2.31514 0
M  V30 19679 C 1865.8 -0.593621 1.59406 0
M  V30 19680 O 1866.98 -0.515158 1.87243 0
M  V30 19681 C 1864.11 -0.5138 3.43478 0
M  V30 19682 C 1863.06 0.28874 4.27025 0
M  V30 19683 C 1862.39 -0.653297 5.30694 0
M  V30 19684 C 1863.69 1.51111 4.99963 0
M  V30 19685 H 1865.38 1.12862 2.77313 0
M  V30 19686 H 1862.93 0.544158 1.33323 0
M  V30 19687 H 1864.88 -0.905164 4.11564 0
M  V30 19688 H 1863.61 -1.37184 2.96392 0
M  V30 19689 H 1862.27 0.661782 3.60577 0
M  V30 19690 H 1861.91 -1.50801 4.79863 0
M  V30 19691 H 1861.61 -0.120368 5.87477 0
M  V30 19692 H 1863.14 -1.04197 6.01644 0
M  V30 19693 H 1864.55 1.19237 5.60763 0
M  V30 19694 H 1862.95 1.98152 5.66441 0
M  V30 19695 H 1864.02 2.2757 4.28182 0
M  V30 19696 N 1865.36 -1.4549 0.605832 0
M  V30 19697 C 1866.59 -2.06325 0.106497 0
M  V30 19698 C 1867 -1.45142 -1.21369 0
M  V30 19699 O 1866.34 -0.559284 -1.74979 0
M  V30 19700 C 1866.41 -3.59334 -0.109378 0
M  V30 19701 C 1866.07 -4.42842 1.12873 0
M  V30 19702 C 1867.07 -4.77929 2.04645 0
M  V30 19703 C 1864.75 -4.83621 1.35707 0
M  V30 19704 C 1866.75 -5.5265 3.1758 0
M  V30 19705 C 1864.43 -5.58096 2.48943 0
M  V30 19706 C 1865.43 -5.92527 3.39707 0
M  V30 19707 O 1865.12 -6.65492 4.50973 0
M  V30 19708 H 1864.85 -0.67285 0.06518 0
M  V30 19709 H 1867.4 -1.87751 0.83298 0
M  V30 19710 H 1865.63 -3.76301 -0.890735 0
M  V30 19711 H 1867.32 -4.02017 -0.560094 0
M  V30 19712 H 1868.09 -4.46984 1.88229 0
M  V30 19713 H 1863.97 -4.56257 0.659587 0
M  V30 19714 H 1867.51 -5.79443 3.88448 0
M  V30 19715 H 1863.41 -5.88455 2.65312 0
M  V30 19716 H 1864.18 -6.8394 4.49632 0
M  V30 19717 N 1866.84 -0.344893 -1.5378 0
M  V30 19718 C 1868.12 0.306554 -1.93183 0
M  V30 19719 C 1868.5 1.68127 -1.27658 0
M  V30 19720 O 1867.85 2.24456 -0.428003 0
M  V30 19721 C 1868.06 0.377484 -3.46953 0
M  V30 19722 C 1869.4 0.627685 -4.19935 0
M  V30 19723 O 1870.43 0.459544 -3.53223 0
M  V30 19724 O 1869.29 0.953511 -5.38117 0
M  V30 19725 H 1866.38 0.179163 -0.80736 0
M  V30 19726 H 1868.93 -0.396168 -1.65011 0
M  V30 19727 H 1867.7 -0.587175 -3.86869 0
M  V30 19728 H 1867.32 1.12694 -3.81295 0
M  V30 19729 N 1868.32 1.57428 -0.0735454 0
M  V30 19730 C 1869.23 2.16325 0.907775 0
M  V30 19731 C 1870.24 1.12689 1.32579 0
M  V30 19732 O 1871.42 1.44963 1.39813 0
M  V30 19733 C 1868.49 2.71467 2.15654 0
M  V30 19734 C 1867.55 3.89983 1.79476 0
M  V30 19735 C 1866.78 4.42486 2.98399 0
M  V30 19736 O 1867 3.93985 4.12471 0
M  V30 19737 O 1865.94 5.33794 2.78114 0
M  V30 19738 H 1869.76 3.00543 0.436771 0
M  V30 19739 H 1867.35 1.48649 0.149623 0
M  V30 19740 H 1869.23 3.06802 2.88878 0
M  V30 19741 H 1867.9 1.90308 2.61848 0
M  V30 19742 H 1866.81 3.59498 1.03499 0
M  V30 19743 H 1868.14 4.7244 1.38063 0
M  V30 19744 N 1869.8 -0.200022 1.56326 0
M  V30 19745 C 1870.73 -1.27579 1.89206 0
M  V30 19746 C 1871.71 -1.44185 0.751625 0
M  V30 19747 O 1872.89 -1.59654 1.00214 0
M  V30 19748 C 1870.02 -2.64312 2.11794 0
M  V30 19749 C 1869.06 -2.64603 3.34496 0
M  V30 19750 S 1869.9 -2.16526 4.89772 0
M  V30 19751 C 1871.05 -3.55092 5.15422 0
M  V30 19752 H 1871.29 -0.99499 2.80156 0
M  V30 19753 H 1868.82 -0.403286 1.4904 0
M  V30 19754 H 1870.78 -3.43022 2.25491 0
M  V30 19755 H 1869.44 -2.89606 1.21603 0
M  V30 19756 H 1868.63 -3.65131 3.47412 0
M  V30 19757 H 1868.23 -1.93972 3.19767 0
M  V30 19758 H 1870.53 -4.50925 5.05641 0
M  V30 19759 H 1871.47 -3.47075 6.17207 0
M  V30 19760 H 1871.88 -3.49777 4.43076 0
M  V30 19761 N 1871.27 -1.50505 -0.467553 0
M  V30 19762 C 1872.52 -1.6191 -1.22118 0
M  V30 19763 C 1872.85 -0.320112 -1.91544 0
M  V30 19764 O 1872.13 0.678631 -1.82277 0
M  V30 19765 C 1872.41 -2.80184 -2.26206 0
M  V30 19766 C 1872.26 -4.19975 -1.61062 0
M  V30 19767 C 1873.58 -2.94011 -3.27484 0
M  V30 19768 H 1870.7 -0.589289 -0.442615 0
M  V30 19769 H 1873.34 -1.82902 -0.514484 0
M  V30 19770 H 1871.49 -2.62417 -2.86478 0
M  V30 19771 H 1873.17 -4.4934 -1.04359 0
M  V30 19772 H 1871.41 -4.24069 -0.91365 0
M  V30 19773 H 1872.08 -4.98667 -2.36718 0
M  V30 19774 H 1874.56 -3.10288 -2.77238 0
M  V30 19775 H 1873.43 -3.78384 -3.97639 0
M  V30 19776 H 1873.69 -2.04777 -3.91815 0
M  V30 19777 N 1872.75 0.720973 -1.40142 0
M  V30 19778 C 1873.72 1.81676 -1.39737 0
M  V30 19779 C 1874.72 1.58125 -0.292068 0
M  V30 19780 O 1875.91 1.65266 -0.550699 0
M  V30 19781 C 1873.04 3.19685 -1.18381 0
M  V30 19782 H 1874.23 1.83435 -2.37259 0
M  V30 19783 H 1871.78 0.926064 -1.25912 0
M  V30 19784 H 1872.52 3.2358 -0.21598 0
M  V30 19785 H 1872.3 3.38178 -1.98439 0
M  V30 19786 H 1873.79 3.99724 -1.20873 0
M  V30 19787 N 1874.23 1.25549 0.952634 0
M  V30 19788 C 1875.19 1.06186 2.03119 0
M  V30 19789 C 1876.19 0.0139966 1.60794 0
M  V30 19790 O 1877.38 0.256367 1.72303 0
M  V30 19791 C 1874.52 0.612674 3.35349 0
M  V30 19792 H 1875.71 2.01932 2.21729 0
M  V30 19793 H 1873.26 1.07984 1.13 0
M  V30 19794 H 1874 -0.347292 3.22435 0
M  V30 19795 H 1873.78 1.36917 3.67418 0
M  V30 19796 H 1875.27 0.498693 4.14612 0
M  V30 19797 N 1875.71 -1.15554 1.07168 0
M  V30 19798 C 1876.64 -2.19841 0.648285 0
M  V30 19799 C 1877.65 -1.60045 -0.298247 0
M  V30 19800 O 1878.84 -1.78284 -0.0878565 0
M  V30 19801 C 1875.94 -3.38831 -0.068586 0
M  V30 19802 C 1875.12 -4.28173 0.89366 0
M  V30 19803 C 1874.17 -5.25763 0.214424 0
M  V30 19804 O 1873.2 -5.62744 0.854883 0
M  V30 19805 N 1874.4 -5.71096 -1.04063 0
M  V30 19806 H 1877.17 -2.56784 1.54539 0
M  V30 19807 H 1874.73 -1.30652 0.956127 0
M  V30 19808 H 1876.72 -4.01167 -0.533614 0
M  V30 19809 H 1875.29 -3.00319 -0.86761 0
M  V30 19810 H 1874.51 -3.62965 1.53785 0
M  V30 19811 H 1875.8 -4.84739 1.54613 0
M  V30 19812 H 1875.2 -5.4316 -1.58095 0
M  V30 19813 H 1873.75 -6.35481 -1.44937 0
M  V30 19814 N 1877.19 -0.855519 -1.32358 0
M  V30 19815 C 1878.44 -0.455543 -1.96488 0
M  V30 19816 C 1878.75 0.99419 -1.68449 0
M  V30 19817 O 1879.96 1.49964 -2.26325 0
M  V30 19818 C 1878.41 -0.763678 -3.51704 0
M  V30 19819 C 1878.02 -2.2292 -3.88601 0
M  V30 19820 C 1879.76 -0.431467 -4.22302 0
M  V30 19821 C 1877.67 -2.48051 -5.36866 0
M  V30 19822 H 1876.6 -0.166617 -0.73536 0
M  V30 19823 H 1879.25 -1.04642 -1.50739 0
M  V30 19824 H 1877.63 -0.102224 -3.95868 0
M  V30 19825 H 1878.81 -2.93251 -3.55444 0
M  V30 19826 H 1877.12 -2.52602 -3.31031 0
M  V30 19827 H 1879.72 -0.596641 -5.31361 0
M  V30 19828 H 1880.06 0.62698 -4.11552 0
M  V30 19829 H 1880.6 -1.04885 -3.83724 0
M  V30 19830 H 1877.33 -3.52523 -5.52637 0
M  V30 19831 H 1876.85 -1.82298 -5.71426 0
M  V30 19832 H 1878.53 -2.32044 -6.03957 0
M  V30 19833 N 1878.67 1.45167 -0.61354 0
M  V30 19834 C 1880.08 1.85674 -0.19544 0
M  V30 19835 C 1880.43 1.51303 1.24908 0
M  V30 19836 O 1879.55 0.94257 1.94794 0
M  V30 19837 C 1880.15 3.37009 -0.347921 0
M  V30 19838 C 1878.71 3.76397 0.0155323 0
M  V30 19839 C 1877.85 2.69095 -0.669578 0
M  V30 19840 H 1880.8 1.35883 -0.819842 0
M  V30 19841 H 1880.83 3.78195 0.418185 0
M  V30 19842 H 1880.34 3.61994 -1.39935 0
M  V30 19843 H 1878.44 3.57028 1.06591 0
M  V30 19844 H 1878.55 4.77573 -0.382267 0
M  V30 19845 H 1876.92 2.54477 -0.10662 0
M  V30 19846 H 1877.7 2.96915 -1.72326 0
M  V30 19847 N 1880.14 0.353044 1.53595 0
M  V30 19848 C 1881.37 -0.241315 2.05186 0
M  V30 19849 C 1881.78 -1.44008 1.22713 0
M  V30 19850 O 1881.12 -1.81884 0.257661 0
M  V30 19851 C 1881.19 -0.71094 3.524 0
M  V30 19852 C 1880.85 0.369445 4.55504 0
M  V30 19853 C 1881.85 1.21525 5.05497 0
M  V30 19854 C 1879.53 0.526096 4.99537 0
M  V30 19855 C 1881.53 2.20316 5.98113 0
M  V30 19856 C 1879.21 1.51739 5.91962 0
M  V30 19857 C 1880.21 2.35437 6.41138 0
M  V30 19858 O 1879.9 3.32877 7.31743 0
M  V30 19859 H 1879.63 -0.0486773 0.674245 0
M  V30 19860 H 1882.19 0.506038 1.99069 0
M  V30 19861 H 1880.42 -1.50969 3.56013 0
M  V30 19862 H 1882.1 -1.2269 3.86913 0
M  V30 19863 H 1882.87 1.10536 4.72236 0
M  V30 19864 H 1878.75 -0.115562 4.60855 0
M  V30 19865 H 1882.29 2.85682 6.36421 0
M  V30 19866 H 1878.19 1.62781 6.24638 0
M  V30 19867 H 1878.96 3.2846 7.49704 0
M  V30 19868 N 1881.62 -1.57387 0.0818932 0
M  V30 19869 C 1882.9 -1.85297 -0.626447 0
M  V30 19870 C 1883.28 -0.976281 -1.87168 0
M  V30 19871 O 1882.63 -0.0451999 -2.28455 0
M  V30 19872 C 1882.84 -3.35695 -0.954461 0
M  V30 19873 C 1884.18 -4.03442 -1.32361 0
M  V30 19874 O 1885.21 -3.40499 -1.04588 0
M  V30 19875 O 1884.07 -5.1448 -1.84317 0
M  V30 19876 H 1881.16 -0.765835 -0.31213 0
M  V30 19877 H 1883.71 -1.69319 0.11359 0
M  V30 19878 H 1882.48 -3.91237 -0.0704846 0
M  V30 19879 H 1882.1 -3.56971 -1.75092 0
M  V30 19880 N 1883.1 0.191729 -1.56429 0
M  V30 19881 C 1884.35 0.912948 -1.81089 0
M  V30 19882 C 1884.68 1.82767 -0.656483 0
M  V30 19883 O 1883.95 1.91456 0.342779 0
M  V30 19884 C 1884.24 1.72628 -3.16025 0
M  V30 19885 C 1884.09 0.836045 -4.41962 0
M  V30 19886 C 1885.41 2.69818 -3.47687 0
M  V30 19887 H 1882.53 0.33046 -0.658761 0
M  V30 19888 H 1885.17 0.180148 -1.89144 0
M  V30 19889 H 1883.32 2.35102 -3.09289 0
M  V30 19890 H 1884.99 0.225751 -4.60747 0
M  V30 19891 H 1883.23 0.142944 -4.33564 0
M  V30 19892 H 1883.91 1.44019 -5.32881 0
M  V30 19893 H 1886.38 2.17475 -3.54745 0
M  V30 19894 H 1885.26 3.23806 -4.43216 0
M  V30 19895 H 1885.52 3.49028 -2.71352 0
M  V30 19896 N 1884.58 1.50751 0.459565 0
M  V30 19897 C 1885.51 1.66621 1.57385 0
M  V30 19898 C 1886.52 0.547358 1.53323 0
M  V30 19899 O 1887.71 0.820941 1.58502 0
M  V30 19900 C 1884.81 1.64524 2.96285 0
M  V30 19901 C 1883.98 2.92631 3.25093 0
M  V30 19902 C 1883.04 2.83021 4.43605 0
M  V30 19903 O 1882.07 3.56977 4.43347 0
M  V30 19904 N 1883.27 1.97358 5.45921 0
M  V30 19905 H 1886.04 2.62738 1.44184 0
M  V30 19906 H 1883.6 1.48359 0.64817 0
M  V30 19907 H 1885.59 1.55693 3.73553 0
M  V30 19908 H 1884.16 0.760945 3.03197 0
M  V30 19909 H 1883.38 3.15502 2.36331 0
M  V30 19910 H 1884.67 3.77477 3.41157 0
M  V30 19911 H 1884.07 1.36608 5.48958 0
M  V30 19912 H 1882.62 1.94422 6.22128 0
M  V30 19913 N 1886.06 -0.713531 1.40522 0
M  V30 19914 C 1887.29 -1.50042 1.42024 0
M  V30 19915 C 1887.69 -1.89191 0.0188277 0
M  V30 19916 O 1887.04 -1.56122 -0.968071 0
M  V30 19917 C 1887.1 -2.8045 2.24918 0
M  V30 19918 C 1886.76 -2.63612 3.73306 0
M  V30 19919 C 1887.76 -2.30736 4.65893 0
M  V30 19920 C 1885.44 -2.79813 4.17145 0
M  V30 19921 C 1887.44 -2.14273 6.00305 0
M  V30 19922 C 1885.13 -2.62967 5.51626 0
M  V30 19923 C 1886.12 -2.30246 6.43021 0
M  V30 19924 O 1885.81 -2.1353 7.75023 0
M  V30 19925 H 1885.54 -0.46954 0.486321 0
M  V30 19926 H 1888.1 -0.887579 1.85233 0
M  V30 19927 H 1886.33 -3.44075 1.76492 0
M  V30 19928 H 1888.02 -3.42176 2.18336 0
M  V30 19929 H 1888.78 -2.17851 4.3332 0
M  V30 19930 H 1884.66 -3.04269 3.46325 0
M  V30 19931 H 1888.21 -1.88656 6.71606 0
M  V30 19932 H 1884.1 -2.75437 5.83785 0
M  V30 19933 H 1884.87 -2.28434 7.85977 0
M  V30 19934 N 1887.53 -1.26053 -0.945962 0
M  V30 19935 C 1888.76 -1.14181 -1.7314 0
M  V30 19936 C 1889.18 0.299663 -1.85698 0
M  V30 19937 O 1888.54 1.21711 -1.34373 0
M  V30 19938 C 1888.59 -1.81052 -3.11854 0
M  V30 19939 O 1887.69 -1.09606 -3.97568 0
M  V30 19940 H 1887.03 -0.398138 -0.531397 0
M  V30 19941 H 1889.56 -1.66782 -1.18511 0
M  V30 19942 H 1889.57 -1.87685 -3.62269 0
M  V30 19943 H 1888.25 -2.85921 -3.0203 0
M  V30 19944 H 1886.83 -1.10915 -3.56023 0
M  V30 19945 N 1889.01 1.14984 -1.07779 0
M  V30 19946 C 1890.29 1.82003 -0.716546 0
M  V30 19947 C 1890.67 1.95334 0.8005 0
M  V30 19948 O 1890.02 1.50817 1.71658 0
M  V30 19949 C 1890.23 3.18087 -1.43602 0
M  V30 19950 C 1891.57 3.93668 -1.59094 0
M  V30 19951 O 1892.6 3.27655 -1.39715 0
M  V30 19952 O 1891.46 5.12031 -1.91015 0
M  V30 19953 H 1888.55 0.786548 -0.255482 0
M  V30 19954 H 1891.1 1.22058 -1.17898 0
M  V30 19955 H 1889.87 3.03509 -2.46978 0
M  V30 19956 H 1889.49 3.8572 -0.964651 0
M  V30 19957 N 1890.49 0.862526 1.31902 0
M  V30 19958 C 1891.74 0.465956 1.96244 0
M  V30 19959 C 1892.05 -0.985243 1.68974 0
M  V30 19960 O 1893.26 -1.48761 2.27118 0
M  V30 19961 C 1891.71 0.782319 3.51294 0
M  V30 19962 C 1891.32 2.24978 3.87413 0
M  V30 19963 C 1893.07 0.453857 4.22067 0
M  V30 19964 C 1890.97 2.50894 5.35543 0
M  V30 19965 H 1889.9 0.170515 0.734466 0
M  V30 19966 H 1892.55 1.0544 1.50182 0
M  V30 19967 H 1890.94 0.123217 3.95808 0
M  V30 19968 H 1892.11 2.95132 3.53884 0
M  V30 19969 H 1890.42 2.54354 3.29687 0
M  V30 19970 H 1893.02 0.624812 5.31037 0
M  V30 19971 H 1893.36 -0.605145 4.11878 0
M  V30 19972 H 1893.9 1.06918 3.83162 0
M  V30 19973 H 1890.64 3.55449 5.5076 0
M  V30 19974 H 1890.16 1.85326 5.70451 0
M  V30 19975 H 1891.84 2.35244 6.02718 0
M  V30 19976 N 1891.97 -1.4484 0.62123 0
M  V30 19977 C 1893.25 -1.95528 0.0531511 0
M  V30 19978 C 1893.63 -1.56342 -1.41846 0
M  V30 19979 O 1892.97 -0.832621 -2.1279 0
M  V30 19980 C 1893.18 -3.47988 0.2656 0
M  V30 19981 C 1894.53 -4.24322 0.153573 0
M  V30 19982 O 1895.56 -3.55658 0.19644 0
M  V30 19983 O 1894.41 -5.46477 0.05015 0
M  V30 19984 H 1891.51 -0.826527 -0.0279665 0
M  V30 19985 H 1894.05 -1.54939 0.692243 0
M  V30 19986 H 1892.83 -3.69525 1.28713 0
M  V30 19987 H 1892.45 -3.955 -0.408105 0
M  V30 19988 N 1893.45 -0.361184 -1.53405 0
M  V30 19989 C 1894.68 0.23043 -2.05311 0
M  V30 19990 C 1895.08 1.43355 -1.23475 0
M  V30 19991 O 1894.43 1.81745 -0.267304 0
M  V30 19992 C 1894.49 0.692241 -3.52772 0
M  V30 19993 C 1894.15 -0.393597 -4.55302 0
M  V30 19994 C 1895.15 -1.24204 -5.04846 0
M  V30 19995 C 1892.84 -0.55258 -4.99251 0
M  V30 19996 C 1894.83 -2.23485 -5.96936 0
M  V30 19997 C 1892.52 -1.54876 -5.91149 0
M  V30 19998 C 1893.51 -2.38834 -6.39881 0
M  V30 19999 O 1893.2 -3.36753 -7.29967 0
M  V30 20000 H 1892.93 0.0451009 -0.674494 0
M  V30 20001 H 1895.49 -0.516588 -1.98798 0
M  V30 20002 H 1893.72 1.49079 -3.56809 0
M  V30 20003 H 1895.41 1.20637 -3.87559 0
M  V30 20004 H 1896.17 -1.13039 -4.71643 0
M  V30 20005 H 1892.05 0.0911198 -4.6091 0
M  V30 20006 H 1895.6 -2.89053 -6.34897 0
M  V30 20007 H 1891.49 -1.66091 -6.23766 0
M  V30 20008 H 1892.26 -3.32431 -7.47952 0
M  V30 20009 N 1894.92 1.57341 -0.0902386 0
M  V30 20010 C 1895.86 2.09404 0.906927 0
M  V30 20011 C 1896.84 1.00345 1.27944 0
M  V30 20012 O 1898.02 1.2781 1.38553 0
M  V30 20013 C 1895.15 2.567 2.20959 0
M  V30 20014 C 1894.19 3.77371 1.98729 0
M  V30 20015 S 1895.03 5.21189 1.22974 0
M  V30 20016 C 1896.18 5.71831 2.5448 0
M  V30 20017 H 1896.41 2.93657 0.463996 0
M  V30 20018 H 1893.95 1.5391 0.122943 0
M  V30 20019 H 1895.91 2.84608 2.95819 0
M  V30 20020 H 1894.57 1.72682 2.62373 0
M  V30 20021 H 1893.76 4.08516 2.95179 0
M  V30 20022 H 1893.36 3.49932 1.31999 0
M  V30 20023 H 1895.65 5.79801 3.50481 0
M  V30 20024 H 1896.6 6.70416 2.27921 0
M  V30 20025 H 1897 4.99738 2.6253 0
M  V30 20026 N 1896.4 -0.183431 1.56529 0
M  V30 20027 C 1897.31 -1.24746 1.98684 0
M  V30 20028 C 1898.33 -1.49139 0.8963 0
M  V30 20029 O 1899.5 -1.61525 1.20298 0
M  V30 20030 C 1896.57 -2.56927 2.32786 0
M  V30 20031 C 1895.63 -2.40503 3.55607 0
M  V30 20032 C 1894.86 -3.66381 3.88073 0
M  V30 20033 O 1895.09 -4.71048 3.21668 0
M  V30 20034 O 1894.02 -3.61214 4.81465 0
M  V30 20035 H 1897.85 -0.919676 2.8944 0
M  V30 20036 H 1895.43 -0.389352 1.44237 0
M  V30 20037 H 1897.31 -3.34923 2.55744 0
M  V30 20038 H 1895.99 -2.89309 1.45196 0
M  V30 20039 H 1894.9 -1.6058 3.37883 0
M  V30 20040 H 1896.23 -2.1305 4.43701 0
M  V30 20041 N 1897.88 -1.50992 -0.451564 0
M  V30 20042 C 1899.3 -1.38852 -0.786916 0
M  V30 20043 C 1899.5 -0.459764 -1.96185 0
M  V30 20044 O 1898.55 0.0903799 -2.52338 0
M  V30 20045 C 1899.87 -2.80611 -1.08064 0
M  V30 20046 C 1901.41 -2.89663 -1.18593 0
M  V30 20047 C 1901.89 -4.32299 -1.51267 0
M  V30 20048 N 1903.38 -4.3534 -1.5822 0
M  V30 20049 C 1904.11 -5.42721 -1.85046 0
M  V30 20050 N 1903.61 -6.60282 -2.09759 0
M  V30 20051 N 1905.4 -5.30185 -1.8671 0
M  V30 20052 H 1897.55 -2.09938 0.32245 0
M  V30 20053 H 1899.82 -0.944464 0.0818072 0
M  V30 20054 H 1899.52 -3.50501 -0.290167 0
M  V30 20055 H 1899.4 -3.19063 -2.01193 0
M  V30 20056 H 1901.78 -2.1998 -1.96705 0
M  V30 20057 H 1901.87 -2.54728 -0.23398 0
M  V30 20058 H 1901.51 -5.02526 -0.736882 0
M  V30 20059 H 1901.44 -4.64736 -2.47645 0
M  V30 20060 H 1903.93 -3.50577 -1.41082 0
M  V30 20061 H 1904.24 -7.37918 -2.29557 0
M  V30 20062 H 1902.59 -6.63423 -2.07111 0
M  V30 20063 H 1905.78 -4.3733 -1.66912 0
M  V30 20064 H 1905.95 -6.13954 -2.07279 0
M  V30 20065 N 1899.36 0.706069 -1.40899 0
M  V30 20066 C 1900.29 1.83119 -1.37841 0
M  V30 20067 C 1901.3 1.60335 -0.282253 0
M  V30 20068 O 1902.49 1.70032 -0.543263 0
M  V30 20069 C 1899.59 3.19696 -1.12461 0
M  V30 20070 C 1898.77 3.69598 -2.33915 0
M  V30 20071 C 1897.82 4.84815 -2.04551 0
M  V30 20072 O 1896.85 4.96973 -2.775 0
M  V30 20073 N 1898.05 5.71302 -1.0293 0
M  V30 20074 H 1900.82 1.86237 -2.34811 0
M  V30 20075 H 1898.38 0.887984 -1.35375 0
M  V30 20076 H 1900.37 3.94386 -0.90786 0
M  V30 20077 H 1898.94 3.11668 -0.241258 0
M  V30 20078 H 1898.16 2.85933 -2.7136 0
M  V30 20079 H 1899.45 3.99674 -3.14862 0
M  V30 20080 H 1898.85 5.64099 -0.425314 0
M  V30 20081 H 1897.4 6.45935 -0.872446 0
M  V30 20082 N 1900.84 1.26553 0.939264 0
M  V30 20083 C 1901.77 1.10778 2.05549 0
M  V30 20084 C 1902.75 0.0124359 1.70095 0
M  V30 20085 O 1903.93 0.184814 1.93319 0
M  V30 20086 C 1901.06 0.742011 3.39281 0
M  V30 20087 C 1900.02 1.78931 3.88803 0
M  V30 20088 C 1899.34 1.2778 5.19207 0
M  V30 20089 C 1900.64 3.1912 4.13473 0
M  V30 20090 H 1902.34 2.04151 2.19004 0
M  V30 20091 H 1899.88 0.98294 1.05234 0
M  V30 20092 H 1901.84 0.618526 4.16836 0
M  V30 20093 H 1900.56 -0.22742 3.25807 0
M  V30 20094 H 1899.22 1.9015 3.13431 0
M  V30 20095 H 1898.87 0.298159 5.02116 0
M  V30 20096 H 1898.57 1.9779 5.53311 0
M  V30 20097 H 1900.09 1.16703 5.99344 0
M  V30 20098 H 1901.5 3.10967 4.81635 0
M  V30 20099 H 1899.9 3.86738 4.58862 0
M  V30 20100 H 1900.97 3.65034 3.19183 0
M  V30 20101 N 1902.31 -1.14411 1.08387 0
M  V30 20102 C 1903.59 -1.8162 0.726188 0
M  V30 20103 C 1903.97 -1.95755 -0.790129 0
M  V30 20104 O 1903.32 -1.51725 -1.70856 0
M  V30 20105 C 1903.53 -3.17321 1.45287 0
M  V30 20106 C 1904.88 -3.92818 1.6118 0
M  V30 20107 O 1905.9 -3.2691 1.41451 0
M  V30 20108 O 1904.76 -5.1101 1.93728 0
M  V30 20109 H 1901.85 -0.785182 0.25965 0
M  V30 20110 H 1904.4 -1.21431 1.18544 0
M  V30 20111 H 1903.17 -3.02195 2.48584 0
M  V30 20112 H 1902.8 -3.85203 0.985093 0
M  V30 20113 N 1903.79 -0.869509 -1.31443 0
M  V30 20114 C 1905.04 -0.480214 -1.96724 0
M  V30 20115 C 1905.37 0.967405 -1.68735 0
M  V30 20116 O 1904.62 1.69616 -0.976162 0
M  V30 20117 C 1904.92 -0.683486 -3.50804 0
M  V30 20118 C 1904.59 -2.10382 -3.98811 0
M  V30 20119 C 1903.25 -2.49226 -4.11631 0
M  V30 20120 C 1905.6 -3.03015 -4.24065 0
M  V30 20121 C 1902.93 -3.79944 -4.47057 0
M  V30 20122 C 1905.28 -4.33248 -4.60954 0
M  V30 20123 C 1903.95 -4.72006 -4.71982 0
M  V30 20124 H 1903.22 -0.175723 -0.719863 0
M  V30 20125 H 1905.86 -1.10241 -1.56586 0
M  V30 20126 H 1904.17 0.0218481 -3.91794 0
M  V30 20127 H 1905.86 -0.362105 -3.99362 0
M  V30 20128 H 1902.45 -1.79225 -3.89328 0
M  V30 20129 H 1906.64 -2.74232 -4.13655 0
M  V30 20130 H 1901.89 -4.09736 -4.53792 0
M  V30 20131 H 1906.07 -5.05077 -4.79448 0
M  V30 20132 H 1903.7 -5.73337 -4.99188 0
M  V30 20133 N 1905.27 1.44508 -0.628902 0
M  V30 20134 C 1906.5 2.06429 -0.13951 0
M  V30 20135 C 1906.91 1.46981 1.18499 0
M  V30 20136 O 1906.27 0.591856 1.72636 0
M  V30 20137 C 1906.32 3.61496 -0.016195 0
M  V30 20138 O 1906.04 4.18729 -1.28831 0
M  V30 20139 C 1907.54 4.40447 0.502154 0
M  V30 20140 H 1904.76 0.666375 -0.0786479 0
M  V30 20141 H 1907.31 1.85414 -0.862674 0
M  V30 20142 H 1905.46 3.81781 0.657398 0
M  V30 20143 H 1905.88 5.12145 -1.13171 0
M  V30 20144 H 1907.35 5.49377 0.537458 0
M  V30 20145 H 1907.83 4.11735 1.52876 0
M  V30 20146 H 1908.43 4.25076 -0.138113 0
M  V30 20147 N 1906.75 0.369315 1.53212 0
M  V30 20148 C 1907.68 -0.467242 2.28777 0
M  V30 20149 C 1908.66 -1.08073 1.31355 0
M  V30 20150 O 1909.85 -1.09728 1.60229 0
M  V30 20151 C 1906.98 -1.60519 3.07979 0
M  V30 20152 C 1905.93 -1.11876 4.1312 0
M  V30 20153 C 1905.26 -2.34723 4.80426 0
M  V30 20154 C 1906.56 -0.200846 5.21914 0
M  V30 20155 H 1908.25 0.163201 2.98955 0
M  V30 20156 H 1905.8 0.0799312 1.43778 0
M  V30 20157 H 1907.75 -2.19708 3.59592 0
M  V30 20158 H 1906.47 -2.26292 2.35499 0
M  V30 20159 H 1905.13 -0.549521 3.62458 0
M  V30 20160 H 1904.78 -2.98961 4.04514 0
M  V30 20161 H 1904.48 -2.02846 5.51477 0
M  V30 20162 H 1906 -2.94592 5.34835 0
M  V30 20163 H 1907.42 -0.700331 5.69006 0
M  V30 20164 H 1905.81 0.0272222 6.00094 0
M  V30 20165 H 1906.88 0.755948 4.78971 0
M  V30 20166 N 1908.23 -1.57291 0.0985816 0
M  V30 20167 C 1909.45 -1.99242 -0.575966 0
M  V30 20168 C 1909.88 -0.977378 -1.60714 0
M  V30 20169 O 1909.24 0.053677 -1.81221 0
M  V30 20170 C 1909.28 -3.40148 -1.19714 0
M  V30 20171 O 1908.39 -3.41434 -2.31293 0
M  V30 20172 H 1907.73 -0.647791 -0.145816 0
M  V30 20173 H 1910.26 -2.03798 0.181023 0
M  V30 20174 H 1910.27 -3.77918 -1.5376 0
M  V30 20175 H 1908.94 -4.13548 -0.441714 0
M  V30 20176 H 1907.52 -3.15464 -1.98839 0
M  V30 20177 N 1909.71 0.175127 -1.56624 0
M  V30 20178 C 1911.12 0.737951 -1.71497 0
M  V30 20179 C 1911.47 1.82962 -0.708475 0
M  V30 20180 O 1910.59 2.16003 0.13096 0
M  V30 20181 C 1911.19 1.34536 -3.10943 0
M  V30 20182 C 1909.75 1.85505 -3.27513 0
M  V30 20183 C 1908.89 0.732564 -2.67449 0
M  V30 20184 H 1911.84 -0.0502185 -1.58621 0
M  V30 20185 H 1911.87 2.21502 -3.09382 0
M  V30 20186 H 1911.38 0.5506 -3.84174 0
M  V30 20187 H 1909.48 2.67637 -2.59232 0
M  V30 20188 H 1909.59 2.00311 -4.35215 0
M  V30 20189 H 1907.96 1.15203 -2.27157 0
M  V30 20190 H 1908.74 -0.050288 -3.43263 0
M  V30 20191 N 1911.18 1.5123 0.44355 0
M  V30 20192 C 1912.13 1.72095 1.53792 0
M  V30 20193 C 1913.1 0.562529 1.56284 0
M  V30 20194 O 1914.29 0.796259 1.73391 0
M  V30 20195 C 1911.43 1.84627 2.9156 0
M  V30 20196 C 1910.54 3.12147 2.98644 0
M  V30 20197 C 1909.67 3.1531 4.27496 0
M  V30 20198 C 1908.71 4.37171 4.28425 0
M  V30 20199 N 1907.85 4.37919 5.48791 0
M  V30 20200 H 1912.69 2.65512 1.35304 0
M  V30 20201 H 1910.23 1.31593 0.657387 0
M  V30 20202 H 1912.18 1.89874 3.71488 0
M  V30 20203 H 1910.81 0.946232 3.0862 0
M  V30 20204 H 1909.87 3.16239 2.11417 0
M  V30 20205 H 1911.18 4.02074 2.95192 0
M  V30 20206 H 1910.33 3.19439 5.15794 0
M  V30 20207 H 1909.07 2.23261 4.33596 0
M  V30 20208 H 1908.08 4.33225 3.38521 0
M  V30 20209 H 1909.3 5.30477 4.23994 0
M  V30 20210 H 1907.25 3.48737 5.55624 0
M  V30 20211 H 1907.16 5.21647 5.47193 0
M  V30 20212 H 1908.43 4.46232 6.39138 0
M  V30 20213 N 1912.66 -0.698586 1.41271 0
M  V30 20214 C 1913.91 -1.45861 1.40466 0
M  V30 20215 C 1914.24 -1.94496 0.0127551 0
M  V30 20216 O 1913.49 -1.69692 -0.974843 0
M  V30 20217 C 1913.79 -2.688 2.35545 0
M  V30 20218 C 1913.46 -2.38839 3.82449 0
M  V30 20219 C 1912.12 -2.30378 4.22468 0
M  V30 20220 C 1914.47 -2.14065 4.75211 0
M  V30 20221 C 1911.8 -1.95236 5.53263 0
M  V30 20222 C 1914.15 -1.80432 6.06323 0
M  V30 20223 C 1912.81 -1.70465 6.45367 0
M  V30 20224 H 1912.08 -0.533744 0.514002 0
M  V30 20225 H 1914.73 -0.798723 1.74048 0
M  V30 20226 H 1913.04 -3.39708 1.95207 0
M  V30 20227 H 1914.73 -3.26933 2.32197 0
M  V30 20228 H 1911.32 -2.46317 3.50751 0
M  V30 20229 H 1915.51 -2.19548 4.45098 0
M  V30 20230 H 1910.76 -1.86069 5.82399 0
M  V30 20231 H 1914.94 -1.60281 6.77704 0
M  V30 20232 H 1912.56 -1.43002 7.46629 0
M  V30 20233 N 1914.14 -1.27049 -0.93254 0
M  V30 20234 C 1915.1 -1.09404 -2.01404 0
M  V30 20235 C 1916.1 -0.0395757 -1.60751 0
M  V30 20236 O 1917.29 -0.283746 -1.71874 0
M  V30 20237 C 1914.42 -0.665948 -3.34332 0
M  V30 20238 H 1915.62 -2.05434 -2.18488 0
M  V30 20239 H 1913.17 -1.09768 -1.11268 0
M  V30 20240 H 1913.91 0.295952 -3.22947 0
M  V30 20241 H 1913.69 -1.42745 -3.65194 0
M  V30 20242 H 1915.18 -0.564591 -4.13766 0
M  V30 20243 N 1915.62 1.13835 -1.08993 0
M  V30 20244 C 1916.87 1.84645 -0.82163 0
M  V30 20245 C 1917.19 1.83685 0.65458 0
M  V30 20246 O 1916.46 1.28948 1.47477 0
M  V30 20247 H 1915.04 0.683691 -0.300958 0
M  V30 20248 H 1917.7 1.37915 -1.37715 0
M  V30 20249 H 1916.79 2.89292 -1.17117 0
M  V30 20250 N 1917.1 0.876467 1.3098 0
M  V30 20251 C 1918.34 0.49064 1.96466 0
M  V30 20252 C 1918.67 -0.958443 1.69246 0
M  V30 20253 O 1917.93 -1.69096 0.985144 0
M  V30 20254 C 1918.22 0.70208 3.50436 0
M  V30 20255 C 1917.89 2.12494 3.9769 0
M  V30 20256 C 1916.55 2.51405 4.10303 0
M  V30 20257 C 1918.9 3.0526 4.22452 0
M  V30 20258 C 1916.23 3.82309 4.45035 0
M  V30 20259 C 1918.58 4.35686 4.5865 0
M  V30 20260 C 1917.25 4.74502 4.69472 0
M  V30 20261 H 1916.52 0.179538 0.718921 0
M  V30 20262 H 1919.17 1.1107 1.55999 0
M  V30 20263 H 1917.47 -0.00106996 3.918 0
M  V30 20264 H 1919.17 0.383279 3.99164 0
M  V30 20265 H 1915.76 1.81287 3.88372 0
M  V30 20266 H 1919.94 2.76422 4.12195 0
M  V30 20267 H 1915.2 4.12136 4.51612 0
M  V30 20268 H 1919.37 5.07612 4.76763 0
M  V30 20269 H 1917 5.75976 4.9614 0
M  V30 20270 N 1918.57 -1.44173 0.636557 0
M  V30 20271 C 1919.98 -1.8534 0.224954 0
M  V30 20272 C 1920.34 -1.53271 -1.22485 0
M  V30 20273 O 1919.46 -0.973441 -1.93269 0
M  V30 20274 C 1920.06 -3.36413 0.401492 0
M  V30 20275 C 1918.61 -3.76374 0.0443511 0
M  V30 20276 C 1917.76 -2.67995 0.712303 0
M  V30 20277 H 1920.71 -1.34562 0.841356 0
M  V30 20278 H 1920.73 -3.78812 -0.357965 0
M  V30 20279 H 1920.25 -3.59722 1.45677 0
M  V30 20280 H 1918.35 -3.58679 -1.00897 0
M  V30 20281 H 1918.46 -4.76904 0.458196 0
M  V30 20282 H 1916.82 -2.54275 0.147092 0
M  V30 20283 H 1917.61 -2.94136 1.77028 0
M  V30 20284 N 1920.05 -0.377435 -1.53014 0
M  V30 20285 C 1921.01 0.451217 -2.24715 0
M  V30 20286 C 1922.01 1.00001 -1.25923 0
M  V30 20287 O 1923.2 0.883884 -1.5011 0
M  V30 20288 C 1920.34 1.63185 -2.99305 0
M  V30 20289 H 1921.53 -0.176358 -2.99381 0
M  V30 20290 H 1919.08 -0.12933 -1.55764 0
M  V30 20291 H 1919.82 2.29718 -2.2891 0
M  V30 20292 H 1919.6 1.24517 -3.71804 0
M  V30 20293 H 1921.09 2.2188 -3.53778 0
M  V30 20294 N 1921.53 1.57237 -0.106922 0
M  V30 20295 C 1922.46 2.1769 0.844599 0
M  V30 20296 C 1923.44 1.11352 1.28587 0
M  V30 20297 O 1924.63 1.39539 1.35065 0
M  V30 20298 C 1921.76 2.76668 2.09933 0
M  V30 20299 C 1920.71 3.88482 1.79627 0
M  V30 20300 C 1920.04 4.34214 3.12029 0
M  V30 20301 C 1921.34 5.11139 1.07399 0
M  V30 20302 H 1923.03 2.97453 0.340887 0
M  V30 20303 H 1920.58 1.4308 0.162523 0
M  V30 20304 H 1922.53 3.17614 2.76946 0
M  V30 20305 H 1921.25 1.94176 2.62608 0
M  V30 20306 H 1919.91 3.48093 1.15008 0
M  V30 20307 H 1919.56 3.48597 3.62614 0
M  V30 20308 H 1919.26 5.09608 2.9253 0
M  V30 20309 H 1920.78 4.77803 3.8018 0
M  V30 20310 H 1922.2 5.4918 1.64543 0
M  V30 20311 H 1920.6 5.92038 0.980375 0
M  V30 20312 H 1921.67 4.84864 0.0586914 0
M  V30 20313 N 1923.01 -0.166818 1.56715 0
M  V30 20314 C 1924.26 -0.881043 1.8144 0
M  V30 20315 C 1924.57 -1.83216 0.684925 0
M  V30 20316 O 1925.78 -2.58908 0.817234 0
M  V30 20317 C 1924.23 -1.61724 3.21517 0
M  V30 20318 C 1923.84 -0.709534 4.42346 0
M  V30 20319 C 1925.58 -2.31943 3.55532 0
M  V30 20320 C 1923.49 -1.44622 5.73444 0
M  V30 20321 H 1922.42 -0.332741 0.676609 0
M  V30 20322 H 1925.07 -0.133924 1.83011 0
M  V30 20323 H 1923.45 -2.40928 3.14277 0
M  V30 20324 H 1924.63 0.0458591 4.60777 0
M  V30 20325 H 1922.94 -0.116776 4.16236 0
M  V30 20326 H 1925.54 -2.87662 4.50727 0
M  V30 20327 H 1925.88 -3.07495 2.80629 0
M  V30 20328 H 1926.42 -1.59678 3.64346 0
M  V30 20329 H 1923.16 -0.732937 6.51389 0
M  V30 20330 H 1922.68 -2.17483 5.58982 0
M  V30 20331 H 1924.35 -1.9925 6.15555 0
M  V30 20332 N 1924.49 -1.51463 -0.435524 0
M  V30 20333 C 1925.43 -1.73484 -1.54939 0
M  V30 20334 C 1926.43 -0.601197 -1.58373 0
M  V30 20335 O 1927.63 -0.782622 -1.62096 0
M  V30 20336 H 1924.01 -0.54818 -0.514784 0
M  V30 20337 H 1925.98 -2.66851 -1.3354 0
M  V30 20338 C 1924.73 -1.87866 -2.92578 0
M  V30 20339 H 1924.05 -2.74503 -2.90668 0
M  V30 20340 H 1925.49 -2.07285 -3.69877 0
M  V30 20341 C 1923.95 -0.638928 -3.30786 0
M  V30 20342 O 1924.48 0.205561 -4.01174 0
M  V30 20343 N 1922.69 -0.48249 -2.86567 0
M  V30 20344 H 1922.23 -1.17078 -2.29457 0
M  V30 20345 H 1922.19 0.345753 -3.12493 0
M  V30 20346 N 1925.96 0.691085 -1.4164 0
M  V30 20347 C 1927.38 1.00223 -1.24207 0
M  V30 20348 C 1927.58 2.0105 -0.134625 0
M  V30 20349 O 1926.64 2.4751 0.499509 0
M  V30 20350 C 1927.95 1.52256 -2.59304 0
M  V30 20351 C 1929.5 1.64117 -2.66523 0
M  V30 20352 C 1929.97 2.19551 -4.01947 0
M  V30 20353 N 1931.46 2.26906 -4.03817 0
M  V30 20354 C 1932.2 2.70835 -5.05407 0
M  V30 20355 N 1931.69 3.14337 -6.17385 0
M  V30 20356 N 1933.49 2.70439 -4.92767 0
M  V30 20357 H 1925.64 0.0232257 -2.12387 0
M  V30 20358 H 1927.9 0.0728626 -0.945196 0
M  V30 20359 H 1927.61 0.856261 -3.41117 0
M  V30 20360 H 1927.48 2.50399 -2.821 0
M  V30 20361 H 1929.87 2.29858 -1.85066 0
M  V30 20362 H 1929.95 0.645083 -2.47532 0
M  V30 20363 H 1929.59 1.54424 -4.83855 0
M  V30 20364 H 1929.52 3.1992 -4.18281 0
M  V30 20365 H 1932.01 1.96212 -3.22969 0
M  V30 20366 H 1932.33 3.46496 -6.90768 0
M  V30 20367 H 1930.67 3.12235 -6.20914 0
M  V30 20368 H 1933.86 2.35806 -4.04368 0
M  V30 20369 H 1934.04 3.04357 -5.72076 0
M  V30 20370 N 1927.44 1.27542 0.925789 0
M  V30 20371 C 1928.38 1.04754 2.02736 0
M  V30 20372 C 1929.35 -0.0326519 1.62567 0
M  V30 20373 O 1930.54 0.112877 1.88162 0
M  V30 20374 C 1927.66 0.589429 3.33532 0
M  V30 20375 C 1926.71 1.66447 3.9268 0
M  V30 20376 S 1927.54 3.25745 4.2503 0
M  V30 20377 C 1928.7 2.8174 5.58904 0
M  V30 20378 H 1928.93 1.9802 2.21755 0
M  V30 20379 H 1926.47 1.11394 1.06914 0
M  V30 20380 H 1928.42 0.331804 4.09157 0
M  V30 20381 H 1927.08 -0.323209 3.12433 0
M  V30 20382 H 1926.28 1.29528 4.87071 0
M  V30 20383 H 1925.88 1.87427 3.23647 0
M  V30 20384 H 1928.17 2.27162 6.38282 0
M  V30 20385 H 1929.11 3.74883 6.00723 0
M  V30 20386 H 1929.52 2.20823 5.19516 0
M  V30 20387 N 1928.92 -1.13255 1.09595 0
M  V30 20388 C 1929.87 -2.1872 0.736907 0
M  V30 20389 C 1930.84 -1.63677 -0.282692 0
M  V30 20390 O 1932.02 -1.90094 -0.163936 0
M  V30 20391 C 1929.16 -3.44703 0.165494 0
M  V30 20392 C 1928.28 -4.13841 1.23934 0
M  V30 20393 C 1927.41 -5.27445 0.630499 0
M  V30 20394 C 1926.45 -5.88435 1.68554 0
M  V30 20395 N 1925.59 -6.93468 1.09759 0
M  V30 20396 H 1930.43 -2.48779 1.64052 0
M  V30 20397 H 1927.96 -1.22152 0.819597 0
M  V30 20398 H 1929.92 -4.16796 -0.183618 0
M  V30 20399 H 1928.55 -3.15088 -0.701377 0
M  V30 20400 H 1927.6 -3.40014 1.70571 0
M  V30 20401 H 1928.92 -4.5525 2.03834 0
M  V30 20402 H 1928.07 -6.06263 0.230332 0
M  V30 20403 H 1926.81 -4.8729 -0.200028 0
M  V30 20404 H 1925.81 -5.08311 2.09523 0
M  V30 20405 H 1927.04 -6.30663 2.51876 0
M  V30 20406 H 1924.98 -6.55366 0.288376 0
M  V30 20407 H 1924.9 -7.33429 1.83353 0
M  V30 20408 H 1926.17 -7.76133 0.723688 0
M  V30 20409 N 1930.4 -0.883401 -1.30514 0
M  V30 20410 C 1931.36 -0.353908 -2.26451 0
M  V30 20411 C 1932.36 0.502723 -1.52739 0
M  V30 20412 O 1933.55 0.310104 -1.71418 0
M  V30 20413 C 1930.68 0.495846 -3.37275 0
M  V30 20414 H 1931.88 -1.20101 -2.74801 0
M  V30 20415 H 1929.43 -0.660124 -1.41676 0
M  V30 20416 H 1930.16 1.3636 -2.94239 0
M  V30 20417 H 1929.95 -0.117731 -3.91923 0
M  V30 20418 H 1931.44 0.858149 -4.08688 0
M  V30 20419 N 1931.88 1.43833 -0.644194 0
M  V30 20420 C 1933.15 1.95418 -0.0842511 0
M  V30 20421 C 1933.53 1.58579 1.39341 0
M  V30 20422 O 1932.88 0.866369 2.11439 0
M  V30 20423 C 1933.09 3.47521 -0.320928 0
M  V30 20424 C 1934.44 4.24024 -0.221059 0
M  V30 20425 O 1935.46 3.553 -0.252997 0
M  V30 20426 O 1934.32 5.46328 -0.137083 0
M  V30 20427 H 1931.42 0.826867 0.0148137 0
M  V30 20428 H 1933.96 1.53818 -0.716805 0
M  V30 20429 H 1932.73 3.67431 -1.34575 0
M  V30 20430 H 1932.36 3.96099 0.345133 0
M  V30 20431 N 1933.35 0.385544 1.52811 0
M  V30 20432 C 1934.6 -0.197454 2.01133 0
M  V30 20433 C 1934.92 -1.47634 1.27394 0
M  V30 20434 O 1934.19 -1.91919 0.392916 0
M  V30 20435 H 1932.77 -0.0759558 0.743128 0
M  V30 20436 H 1935.44 0.51637 1.87935 0
M  V30 20437 H 1934.53 -0.410335 3.09391 0
M  V30 20438 N 1934.83 -1.57178 0.115259 0
M  V30 20439 C 1935.77 -2.1082 -0.873498 0
M  V30 20440 C 1936.74 -1.02368 -1.26331 0
M  V30 20441 O 1937.93 -1.29998 -1.36502 0
M  V30 20442 C 1935.05 -2.60183 -2.16847 0
M  V30 20443 C 1934.1 -3.80485 -1.927 0
M  V30 20444 S 1934.93 -5.23079 -1.14666 0
M  V30 20445 C 1936.09 -5.75807 -2.45351 0
M  V30 20446 H 1936.32 -2.94358 -0.417219 0
M  V30 20447 H 1933.86 -1.54086 -0.0984417 0
M  V30 20448 H 1935.81 -2.89278 -2.91253 0
M  V30 20449 H 1934.47 -1.76834 -2.59593 0
M  V30 20450 H 1933.67 -4.1316 -2.88643 0
M  V30 20451 H 1933.27 -3.51987 -1.26415 0
M  V30 20452 H 1935.56 -5.85304 -3.41212 0
M  V30 20453 H 1936.5 -6.73957 -2.17226 0
M  V30 20454 H 1936.91 -5.03851 -2.54547 0
M  V30 20455 N 1936.31 0.158505 -1.56801 0
M  V30 20456 C 1937.73 0.510743 -1.51207 0
M  V30 20457 C 1937.93 1.83983 -0.821733 0
M  V30 20458 O 1936.98 2.4951 -0.387444 0
M  V30 20459 C 1938.3 0.531668 -2.95962 0
M  V30 20460 C 1939.84 0.617983 -3.06839 0
M  V30 20461 C 1940.32 0.66968 -4.53078 0
M  V30 20462 N 1941.81 0.73222 -4.57376 0
M  V30 20463 C 1942.55 0.793011 -5.6789 0
M  V30 20464 N 1942.04 0.81385 -6.88003 0
M  V30 20465 N 1943.83 0.833013 -5.55893 0
M  V30 20466 H 1935.99 -0.712841 -2.00081 0
M  V30 20467 H 1938.25 -0.258572 -0.912055 0
M  V30 20468 H 1937.95 -0.376495 -3.49679 0
M  V30 20469 H 1937.83 1.37366 -3.51298 0
M  V30 20470 H 1940.22 1.51657 -2.53149 0
M  V30 20471 H 1940.3 -0.250933 -2.54566 0
M  V30 20472 H 1939.94 -0.2247 -5.07403 0
M  V30 20473 H 1939.87 1.55492 -5.0312 0
M  V30 20474 H 1942.36 0.72388 -3.70902 0
M  V30 20475 H 1942.67 0.861766 -7.6798 0
M  V30 20476 H 1941.02 0.781915 -6.90587 0
M  V30 20477 H 1944.21 0.813822 -4.60971 0
M  V30 20478 H 1944.38 0.876926 -6.42039 0
M  V30 20479 N 1937.79 1.51692 0.427485 0
M  V30 20480 C 1939.04 1.65091 1.17782 0
M  V30 20481 C 1939.37 0.370783 1.90627 0
M  V30 20482 O 1938.64 -0.630065 1.84012 0
M  V30 20483 C 1938.93 2.86083 2.18697 0
M  V30 20484 C 1938.78 4.24098 1.4987 0
M  V30 20485 C 1940.1 3.0259 3.19573 0
M  V30 20486 H 1937.22 0.600817 0.426835 0
M  V30 20487 H 1939.86 1.84202 0.46581 0
M  V30 20488 H 1938.01 2.6992 2.79419 0
M  V30 20489 H 1939.68 4.51949 0.924093 0
M  V30 20490 H 1937.92 4.26343 0.800894 0
M  V30 20491 H 1938.6 5.04768 2.23413 0
M  V30 20492 H 1941.07 3.17529 2.68914 0
M  V30 20493 H 1939.95 3.88794 3.87467 0
M  V30 20494 H 1940.21 2.15093 3.86248 0
M  V30 20495 N 1939.27 -0.683564 1.42004 0
M  V30 20496 C 1940.52 -1.43934 1.413 0
M  V30 20497 C 1940.83 -1.95578 0.0296606 0
M  V30 20498 O 1942.04 -2.71316 -0.0999859 0
M  V30 20499 C 1940.49 -2.60331 2.48507 0
M  V30 20500 C 1940.1 -2.15424 3.92806 0
M  V30 20501 C 1941.84 -3.37895 2.56957 0
M  V30 20502 C 1939.75 -3.28851 4.91539 0
M  V30 20503 H 1938.68 -0.540693 0.525516 0
M  V30 20504 H 1941.33 -0.740914 1.67877 0
M  V30 20505 H 1939.71 -3.325 2.15081 0
M  V30 20506 H 1940.89 -1.50466 4.35542 0
M  V30 20507 H 1939.2 -1.50822 3.88126 0
M  V30 20508 H 1941.8 -4.22355 3.27903 0
M  V30 20509 H 1942.14 -3.83896 1.61027 0
M  V30 20510 H 1942.68 -2.72791 2.89534 0
M  V30 20511 H 1939.41 -2.87851 5.88916 0
M  V30 20512 H 1938.93 -3.92619 4.53443 0
M  V30 20513 H 1940.61 -3.9445 5.12853 0
M  V30 20514 N 1940.75 -1.28031 -0.919012 0
M  V30 20515 C 1941.68 -1.14034 -2.03761 0
M  V30 20516 C 1942.66 -0.039495 -1.70054 0
M  V30 20517 O 1943.84 -0.215546 -1.93 0
M  V30 20518 C 1940.97 -0.795894 -3.38057 0
M  V30 20519 C 1939.93 -1.85093 -3.85907 0
M  V30 20520 C 1939.25 -1.36024 -5.17109 0
M  V30 20521 C 1940.55 -3.25658 -4.08343 0
M  V30 20522 H 1942.25 -2.07609 -2.15729 0
M  V30 20523 H 1939.79 -0.999558 -1.03657 0
M  V30 20524 H 1941.74 -0.684762 -4.15799 0
M  V30 20525 H 1940.47 0.175558 -3.26128 0
M  V30 20526 H 1939.13 -1.95112 -3.10366 0
M  V30 20527 H 1938.78 -0.378004 -5.01578 0
M  V30 20528 H 1938.48 -2.06568 -5.50094 0
M  V30 20529 H 1940 -1.26223 -5.97411 0
M  V30 20530 H 1941.41 -3.1859 -4.76627 0
M  V30 20531 H 1939.81 -3.93989 -4.52651 0
M  V30 20532 H 1940.88 -3.70066 -3.13335 0
M  V30 20533 N 1942.22 1.12672 -1.10194 0
M  V30 20534 C 1943.47 1.83483 -0.837668 0
M  V30 20535 C 1943.79 1.84873 0.638864 0
M  V30 20536 O 1944.99 2.51654 1.01895 0
M  V30 20537 C 1943.45 3.29455 -1.4487 0
M  V30 20538 C 1943.06 3.36431 -2.95834 0
M  V30 20539 C 1944.8 4.05254 -1.26371 0
M  V30 20540 C 1942.71 4.76723 -3.49984 0
M  V30 20541 H 1941.64 0.687458 -0.309706 0
M  V30 20542 H 1944.29 1.26884 -1.32562 0
M  V30 20543 H 1942.67 3.85905 -0.88843 0
M  V30 20544 H 1943.84 2.89934 -3.58155 0
M  V30 20545 H 1942.16 2.74104 -3.13458 0
M  V30 20546 H 1944.76 5.0884 -1.64274 0
M  V30 20547 H 1945.1 4.15795 -0.205058 0
M  V30 20548 H 1945.63 3.55155 -1.79192 0
M  V30 20549 H 1942.37 4.71376 -4.55505 0
M  V30 20550 H 1941.89 5.23684 -2.9243 0
M  V30 20551 H 1943.57 5.45659 -3.47657 0
M  V30 20552 N 1943.7 0.89031 1.30043 0
M  V30 20553 C 1944.63 0.377386 2.3043 0
M  V30 20554 C 1945.61 -0.542607 1.61213 0
M  V30 20555 O 1946.8 -0.455328 1.88787 0
M  V30 20556 C 1943.93 -0.404264 3.44939 0
M  V30 20557 C 1942.88 0.424448 4.2589 0
M  V30 20558 C 1942.21 -0.48413 5.32504 0
M  V30 20559 C 1943.51 1.6694 4.94902 0
M  V30 20560 H 1945.2 1.21628 2.73582 0
M  V30 20561 H 1942.75 0.586299 1.31524 0
M  V30 20562 H 1944.7 -0.773769 4.14235 0
M  V30 20563 H 1943.42 -1.27685 3.00606 0
M  V30 20564 H 1942.08 0.776162 3.58289 0
M  V30 20565 H 1941.73 -1.35458 4.84417 0
M  V30 20566 H 1941.43 0.0665939 5.87562 0
M  V30 20567 H 1942.96 -0.850034 6.04654 0
M  V30 20568 H 1944.37 1.37017 5.56686 0
M  V30 20569 H 1942.77 2.16073 5.59851 0
M  V30 20570 H 1943.84 2.41077 4.20725 0
M  V30 20571 N 1945.18 -1.43489 0.651812 0
M  V30 20572 C 1946.46 -1.95371 0.0946135 0
M  V30 20573 C 1946.84 -1.59316 -1.38498 0
M  V30 20574 O 1946.18 -0.87757 -2.10976 0
M  V30 20575 C 1946.39 -3.47346 0.339353 0
M  V30 20576 C 1947.74 -4.23901 0.243543 0
M  V30 20577 O 1948.77 -3.55161 0.271836 0
M  V30 20578 O 1947.63 -5.46248 0.166055 0
M  V30 20579 H 1944.72 -0.826934 -0.0104284 0
M  V30 20580 H 1947.27 -1.53436 0.724952 0
M  V30 20581 H 1946.04 -3.66712 1.36522 0
M  V30 20582 H 1945.66 -3.96277 -0.324122 0
M  V30 20583 N 1946.66 -0.393643 -1.52605 0
M  V30 20584 C 1948.07 0.0794242 -1.86531 0
M  V30 20585 C 1948.42 1.45778 -1.31313 0
M  V30 20586 O 1947.54 2.06526 -0.646206 0
M  V30 20587 C 1948.14 0.150899 -3.38464 0
M  V30 20588 C 1946.7 0.568268 -3.72086 0
M  V30 20589 C 1945.85 -0.267031 -2.76011 0
M  V30 20590 H 1948.8 -0.611344 -1.46452 0
M  V30 20591 H 1948.82 0.969194 -3.6795 0
M  V30 20592 H 1948.33 -0.852425 -3.78623 0
M  V30 20593 H 1946.43 1.5788 -3.37498 0
M  V30 20594 H 1946.54 0.323405 -4.78007 0
M  V30 20595 H 1944.91 0.268347 -2.53282 0
M  V30 20596 H 1945.69 -1.26841 -3.19008 0
M  V30 20597 N 1948.14 1.57115 -0.123593 0
M  V30 20598 C 1949.1 2.14386 0.810624 0
M  V30 20599 C 1950.1 1.07985 1.19146 0
M  V30 20600 O 1951.29 1.33739 1.11622 0
M  V30 20601 C 1948.42 2.68785 2.09683 0
M  V30 20602 H 1949.61 2.98264 0.312818 0
M  V30 20603 H 1947.17 1.55794 0.125682 0
M  V30 20604 H 1947.9 1.88509 2.63884 0
M  V30 20605 H 1947.69 3.46607 1.8332 0
M  V30 20606 H 1949.18 3.12989 2.76455 0
M  V30 20607 N 1949.61 -0.150187 1.56883 0
M  V30 20608 C 1950.86 -0.861749 1.82364 0
M  V30 20609 C 1951.18 -1.82479 0.704319 0
M  V30 20610 O 1952.38 -2.58027 0.844649 0
M  V30 20611 C 1950.84 -1.58305 3.23214 0
M  V30 20612 C 1950.45 -0.662577 4.43073 0
M  V30 20613 C 1952.19 -2.28159 3.57972 0
M  V30 20614 C 1950.1 -1.38532 5.74946 0
M  V30 20615 H 1949.03 -0.325546 0.6801 0
M  V30 20616 H 1951.68 -0.114505 1.83142 0
M  V30 20617 H 1950.06 -2.37581 3.16814 0
M  V30 20618 H 1951.23 0.0947281 4.60703 0
M  V30 20619 H 1949.55 -0.0726217 4.16337 0
M  V30 20620 H 1952.15 -2.82865 4.53753 0
M  V30 20621 H 1952.49 -3.04501 2.83874 0
M  V30 20622 H 1953.02 -1.55805 3.66019 0
M  V30 20623 H 1949.76 -0.663808 6.5213 0
M  V30 20624 H 1949.28 -2.11542 5.61258 0
M  V30 20625 H 1950.96 -1.9271 6.17634 0
M  V30 20626 N 1951.09 -1.51916 -0.419434 0
M  V30 20627 C 1952.32 -1.69592 -1.19387 0
M  V30 20628 C 1952.74 -0.400225 -1.83793 0
M  V30 20629 O 1952.1 0.641368 -1.69576 0
M  V30 20630 C 1952.15 -2.8256 -2.24036 0
M  V30 20631 O 1951.25 -2.4741 -3.29942 0
M  V30 20632 H 1950.59 -0.564898 -0.348978 0
M  V30 20633 H 1953.12 -1.9857 -0.493064 0
M  V30 20634 H 1953.13 -3.07171 -2.68533 0
M  V30 20635 H 1951.81 -3.76572 -1.7654 0
M  V30 20636 H 1950.39 -2.33435 -2.90796 0
M  V30 20637 N 1952.57 0.676023 -1.42365 0
M  V30 20638 C 1953.82 1.43324 -1.42487 0
M  V30 20639 C 1954.14 1.94955 -0.0418589 0
M  V30 20640 O 1953.41 1.72984 0.919418 0
M  V30 20641 H 1951.99 0.531857 -0.524535 0
M  V30 20642 H 1954.65 0.798867 -1.77775 0
M  V30 20643 H 1953.75 2.28686 -2.12389 0
M  V30 20644 N 1954.05 1.28517 0.912209 0
M  V30 20645 C 1955 1.12437 2.03619 0
M  V30 20646 C 1955.99 0.0432331 1.69345 0
M  V30 20647 O 1957.2 0.202116 1.78862 0
M  V30 20648 H 1953.57 0.34694 0.667185 0
M  V30 20649 H 1955.54 2.07625 2.14323 0
M  V30 20650 C 1954.29 0.804603 3.38262 0
M  V30 20651 H 1953.61 1.62849 3.65131 0
M  V30 20652 H 1955.05 0.732055 4.17633 0
M  V30 20653 C 1953.51 -0.491715 3.33292 0
M  V30 20654 O 1954.04 -1.52155 3.71768 0
M  V30 20655 N 1952.25 -0.493007 2.86388 0
M  V30 20656 H 1951.8 0.34549 2.55273 0
M  V30 20657 H 1951.75 -1.36038 2.83445 0
M  V30 20658 N 1955.53 -1.12086 1.1079 0
M  V30 20659 C 1956.44 -2.21514 0.772578 0
M  V30 20660 C 1957.45 -1.72454 -0.231462 0
M  V30 20661 O 1958.63 -2.01281 -0.0693074 0
M  V30 20662 C 1955.69 -3.46043 0.213364 0
M  V30 20663 C 1954.75 -4.09925 1.27515 0
M  V30 20664 C 1953.99 -5.28509 0.742524 0
M  V30 20665 O 1954.21 -5.68779 -0.429786 0
M  V30 20666 O 1953.14 -5.82802 1.50417 0
M  V30 20667 H 1956.97 -2.52596 1.68608 0
M  V30 20668 H 1954.56 -1.20492 0.883294 0
M  V30 20669 H 1956.44 -4.21294 -0.0944683 0
M  V30 20670 H 1955.11 -3.16628 -0.672947 0
M  V30 20671 H 1954.02 -3.36436 1.63589 0
M  V30 20672 H 1955.35 -4.43504 2.13461 0
M  V30 20673 N 1957 -0.897194 -1.29569 0
M  V30 20674 C 1958.23 -0.53717 -1.99805 0
M  V30 20675 C 1958.65 0.877466 -1.6717 0
M  V30 20676 O 1958 1.57882 -0.915398 0
M  V30 20677 C 1958.06 -0.716902 -3.5432 0
M  V30 20678 O 1957.78 -2.07586 -3.85798 0
M  V30 20679 C 1959.28 -0.361494 -4.41824 0
M  V30 20680 H 1956.5 -0.206379 -0.638474 0
M  V30 20681 H 1959.04 -1.20585 -1.65165 0
M  V30 20682 H 1957.2 -0.095433 -3.87282 0
M  V30 20683 H 1957.61 -2.10338 -4.80477 0
M  V30 20684 H 1959.08 -0.538099 -5.49371 0
M  V30 20685 H 1959.56 0.701301 -4.33565 0
M  V30 20686 H 1960.17 -0.959799 -4.14328 0
M  V30 20687 N 1958.48 1.43142 -0.659413 0
M  V30 20688 C 1959.41 2.29102 0.0671619 0
M  V30 20689 C 1960.43 1.42846 0.780943 0
M  V30 20690 O 1961.62 1.66722 0.637666 0
M  V30 20691 C 1958.72 3.19915 1.11838 0
M  V30 20692 C 1957.89 4.34742 0.481505 0
M  V30 20693 C 1956.95 5.06384 1.43043 0
M  V30 20694 O 1955.97 5.61441 0.936648 0
M  V30 20695 N 1957.18 5.10461 2.76423 0
M  V30 20696 H 1959.94 2.92099 -0.670674 0
M  V30 20697 H 1957.5 1.53899 -0.50266 0
M  V30 20698 H 1959.49 3.64708 1.75413 0
M  V30 20699 H 1958.06 2.58474 1.75812 0
M  V30 20700 H 1957.28 3.92787 -0.333461 0
M  V30 20701 H 1958.57 5.08786 0.0371775 0
M  V30 20702 H 1957.97 4.67114 3.19095 0
M  V30 20703 H 1956.53 5.58952 3.35285 0
M  V30 20704 N 1959.96 0.40173 1.52394 0
M  V30 20705 C 1961.37 -0.0695308 1.8657 0
M  V30 20706 C 1961.72 -1.4508 1.32084 0
M  V30 20707 O 1960.85 -2.06181 0.657149 0
M  V30 20708 C 1961.44 -0.132947 3.38539 0
M  V30 20709 C 1960 -0.548527 3.72382 0
M  V30 20710 C 1959.15 0.281664 2.75866 0
M  V30 20711 H 1962.1 0.619102 1.46126 0
M  V30 20712 H 1962.12 -0.949667 3.68458 0
M  V30 20713 H 1961.63 0.872493 3.78166 0
M  V30 20714 H 1959.73 -1.56088 3.3833 0
M  V30 20715 H 1959.85 -0.29805 4.78172 0
M  V30 20716 H 1958.21 -0.254911 2.53421 0
M  V30 20717 H 1958.99 1.28531 3.18331 0
M  V30 20718 N 1961.44 -1.57047 0.131923 0
M  V30 20719 C 1962.67 -1.99699 -0.52952 0
M  V30 20720 C 1963.08 -1.01077 -1.59938 0
M  V30 20721 O 1962.42 0.00256808 -1.837 0
M  V30 20722 C 1962.48 -3.38777 -1.20293 0
M  V30 20723 C 1962.15 -4.56145 -0.279483 0
M  V30 20724 C 1963.14 -5.17614 0.486981 0
M  V30 20725 C 1960.83 -5.01953 -0.186784 0
M  V30 20726 C 1962.82 -6.2329 1.33375 0
M  V30 20727 C 1960.51 -6.07486 0.6636 0
M  V30 20728 C 1961.51 -6.68023 1.42248 0
M  V30 20729 O 1961.19 -7.71516 2.25873 0
M  V30 20730 H 1960.93 -0.660552 -0.143691 0
M  V30 20731 H 1963.48 -2.0423 0.218962 0
M  V30 20732 H 1961.71 -3.31039 -1.99875 0
M  V30 20733 H 1963.4 -3.65634 -1.76258 0
M  V30 20734 H 1964.17 -4.83132 0.425311 0
M  V30 20735 H 1960.04 -4.54572 -0.76718 0
M  V30 20736 H 1963.59 -6.7047 1.92655 0
M  V30 20737 H 1959.49 -6.41397 0.726617 0
M  V30 20738 H 1960.25 -7.8867 2.18955 0
M  V30 20739 N 1962.92 0.141865 -1.5696 0
M  V30 20740 C 1964.33 0.701408 -1.73024 0
M  V30 20741 C 1964.68 1.81418 -0.747124 0
M  V30 20742 O 1963.8 2.16233 0.0851134 0
M  V30 20743 C 1964.4 1.2791 -3.13727 0
M  V30 20744 C 1962.96 1.78516 -3.31374 0
M  V30 20745 C 1962.1 0.67567 -2.68942 0
M  V30 20746 H 1965.06 -0.083853 -1.58478 0
M  V30 20747 H 1965.08 2.1489 -3.14011 0
M  V30 20748 H 1964.59 0.468988 -3.85256 0
M  V30 20749 H 1962.69 2.62078 -2.6485 0
M  V30 20750 H 1962.8 1.91034 -4.39366 0
M  V30 20751 H 1961.17 1.10358 -2.2955 0
M  V30 20752 H 1961.95 -0.123088 -3.43079 0
M  V30 20753 N 1964.39 1.52136 0.411372 0
M  V30 20754 C 1965.36 1.74698 1.48369 0
M  V30 20755 C 1966.36 0.616863 1.48497 0
M  V30 20756 O 1967.55 0.884716 1.50061 0
M  V30 20757 C 1964.68 1.82729 2.8779 0
M  V30 20758 H 1965.87 2.70424 1.29658 0
M  V30 20759 H 1963.43 1.42519 0.641725 0
M  V30 20760 H 1964.16 0.889096 3.11874 0
M  V30 20761 H 1963.95 2.64884 2.891 0
M  V30 20762 H 1965.44 2.01934 3.6553 0
M  V30 20763 N 1965.87 -0.668464 1.42721 0
M  V30 20764 C 1967.12 -1.42849 1.43528 0
M  V30 20765 C 1967.45 -1.94425 0.0540077 0
M  V30 20766 O 1966.7 -1.71721 -0.938629 0
M  V30 20767 C 1967 -2.63743 2.41194 0
M  V30 20768 C 1966.67 -2.30672 3.87429 0
M  V30 20769 C 1965.33 -2.21365 4.2726 0
M  V30 20770 C 1967.68 -2.03937 4.79645 0
M  V30 20771 C 1965.01 -1.83456 5.5728 0
M  V30 20772 C 1967.36 -1.6753 6.10013 0
M  V30 20773 C 1966.03 -1.56737 6.48837 0
M  V30 20774 H 1965.3 -0.522721 0.525208 0
M  V30 20775 H 1967.94 -0.761625 1.75703 0
M  V30 20776 H 1966.25 -3.35491 2.02369 0
M  V30 20777 H 1967.95 -3.21934 2.3908 0
M  V30 20778 H 1964.54 -2.38821 3.55896 0
M  V30 20779 H 1968.72 -2.10057 4.49655 0
M  V30 20780 H 1963.98 -1.73674 5.86214 0
M  V30 20781 H 1968.15 -1.4587 6.80952 0
M  V30 20782 H 1965.78 -1.27133 7.49494 0
M  V30 20783 N 1967.35 -1.28999 -0.905381 0
M  V30 20784 C 1968.58 -1.19512 -1.68892 0
M  V30 20785 C 1968.99 0.245073 -1.87203 0
M  V30 20786 O 1968.35 1.16474 -1.405 0
M  V30 20787 C 1968.4 -1.89822 -3.07652 0
M  V30 20788 O 1968.12 -3.28217 -2.90181 0
M  V30 20789 C 1969.62 -1.86742 -4.02048 0
M  V30 20790 H 1966.84 -0.414483 -0.527678 0
M  V30 20791 H 1969.39 -1.70271 -1.1326 0
M  V30 20792 H 1967.54 -1.42913 -3.60076 0
M  V30 20793 H 1967.96 -3.63549 -3.78064 0
M  V30 20794 H 1969.43 -2.40512 -4.96848 0
M  V30 20795 H 1969.91 -0.841659 -4.3106 0
M  V30 20796 H 1970.51 -2.33369 -3.55555 0
M  V30 20797 N 1968.83 1.11497 -1.11383 0
M  V30 20798 C 1970.25 1.35232 -0.847616 0
M  V30 20799 C 1970.45 1.9446 0.527973 0
M  V30 20800 O 1969.5 2.17716 1.2789 0
M  V30 20801 C 1970.81 2.28454 -1.95523 0
M  V30 20802 C 1972.36 2.4202 -1.98483 0
M  V30 20803 C 1972.84 3.38563 -3.08446 0
M  V30 20804 N 1974.33 3.46126 -3.07817 0
M  V30 20805 C 1975.06 4.20766 -3.89542 0
M  V30 20806 N 1974.56 4.98388 -4.81229 0
M  V30 20807 N 1976.35 4.16272 -3.77722 0
M  V30 20808 H 1968.5 0.714156 -2.00034 0
M  V30 20809 H 1970.77 0.376936 -0.869841 0
M  V30 20810 H 1970.47 1.92126 -2.94586 0
M  V30 20811 H 1970.35 3.28667 -1.85089 0
M  V30 20812 H 1972.73 2.77623 -1.00047 0
M  V30 20813 H 1972.81 1.4166 -2.12993 0
M  V30 20814 H 1972.46 3.03687 -4.07107 0
M  V30 20815 H 1972.39 4.38776 -2.91176 0
M  V30 20816 H 1974.88 2.90759 -2.41387 0
M  V30 20817 H 1975.19 5.52708 -5.40124 0
M  V30 20818 H 1973.54 4.97551 -4.85251 0
M  V30 20819 H 1976.73 3.54719 -3.05437 0
M  V30 20820 H 1976.9 4.74186 -4.41647 0
M  V30 20821 N 1970.31 0.904053 1.29092 0
M  V30 20822 C 1971.56 0.531152 1.94995 0
M  V30 20823 C 1971.88 -0.926415 1.71588 0
M  V30 20824 O 1971.15 -1.65378 1.0501 0
M  V30 20825 H 1969.73 0.193439 0.721519 0
M  V30 20826 H 1972.39 1.1513 1.57262 0
M  V30 20827 H 1971.48 0.717412 3.03743 0
M  V30 20828 N 1971.79 -1.4279 0.666995 0
M  V30 20829 C 1973.03 -2.01942 0.186305 0
M  V30 20830 C 1973.36 -1.52579 -1.20139 0
M  V30 20831 O 1972.64 -0.724677 -1.80496 0
M  V30 20832 C 1972.92 -3.59474 0.212322 0
M  V30 20833 C 1972.78 -4.19035 1.63491 0
M  V30 20834 C 1974.09 -4.37857 -0.443762 0
M  V30 20835 H 1971.21 -0.733747 0.0691733 0
M  V30 20836 H 1973.86 -1.69912 0.850298 0
M  V30 20837 H 1972.01 -3.86892 -0.353062 0
M  V30 20838 H 1973.68 -4.02598 2.25195 0
M  V30 20839 H 1971.92 -3.75161 2.178 0
M  V30 20840 H 1972.59 -5.28155 1.60486 0
M  V30 20841 H 1975.07 -4.16083 0.0374331 0
M  V30 20842 H 1973.94 -5.47478 -0.394887 0
M  V30 20843 H 1974.2 -4.15144 -1.52012 0
M  V30 20844 N 1973.26 -0.409806 -1.52179 0
M  V30 20845 C 1974.17 0.42219 -2.3077 0
M  V30 20846 C 1975.19 1.05295 -1.38524 0
M  V30 20847 O 1976.37 1.05432 -1.71599 0
M  V30 20848 C 1973.43 1.52345 -3.11435 0
M  V30 20849 C 1972.49 0.91568 -4.19421 0
M  V30 20850 C 1971.72 1.96446 -4.9623 0
M  V30 20851 O 1971.95 3.18271 -4.7335 0
M  V30 20852 O 1970.88 1.57032 -5.81055 0
M  V30 20853 H 1974.71 -0.218635 -3.02912 0
M  V30 20854 H 1972.29 -0.172994 -1.48395 0
M  V30 20855 H 1974.17 2.16276 -3.61666 0
M  V30 20856 H 1972.85 2.14886 -2.42086 0
M  V30 20857 H 1971.76 0.239064 -3.73335 0
M  V30 20858 H 1973.09 0.33418 -4.91064 0
M  V30 20859 N 1974.74 1.56975 -0.14025 0
M  V30 20860 C 1976.02 1.87494 0.557244 0
M  V30 20861 C 1976.4 1.04507 1.83416 0
M  V30 20862 O 1975.75 0.129958 2.2813 0
M  V30 20863 C 1975.96 3.39006 0.829213 0
M  V30 20864 C 1977.3 4.08077 1.17296 0
M  V30 20865 O 1978.33 3.44146 0.918788 0
M  V30 20866 O 1977.19 5.20966 1.65096 0
M  V30 20867 H 1974.28 0.776892 0.283492 0
M  V30 20868 H 1976.83 1.68781 -0.176354 0
M  V30 20869 H 1975.6 3.91229 -0.0747688 0
M  V30 20870 H 1975.22 3.63224 1.61723 0
M  V30 20871 N 1976.22 -0.133539 1.57033 0
M  V30 20872 C 1977.5 -0.873327 1.75021 0
M  V30 20873 C 1977.88 -1.98735 0.71187 0
M  V30 20874 O 1977.22 -2.26937 -0.266823 0
M  V30 20875 C 1977.43 -1.40341 3.19539 0
M  V30 20876 C 1978.78 -1.86151 3.81619 0
M  V30 20877 O 1979.81 -1.50053 3.23052 0
M  V30 20878 O 1978.67 -2.52767 4.84532 0
M  V30 20879 H 1975.76 -0.413669 0.716105 0
M  V30 20880 H 1978.31 -0.118413 1.69286 0
M  V30 20881 H 1977.08 -0.60345 3.86619 0
M  V30 20882 H 1976.7 -2.22145 3.29754 0
M  V30 20883 N 1977.7 -1.52352 -0.403298 0
M  V30 20884 C 1978.94 -1.66944 -1.15141 0
M  V30 20885 C 1979.28 -0.401064 -1.90013 0
M  V30 20886 O 1978.55 0.60071 -1.84991 0
M  V30 20887 C 1978.83 -2.89526 -2.14118 0
M  V30 20888 C 1978.69 -4.26428 -1.43104 0
M  V30 20889 C 1980.01 -3.07636 -3.14719 0
M  V30 20890 H 1977.13 -0.607531 -0.417223 0
M  V30 20891 H 1979.77 -1.84919 -0.436447 0
M  V30 20892 H 1977.92 -2.74332 -2.7509 0
M  V30 20893 H 1979.59 -4.53362 -0.852075 0
M  V30 20894 H 1977.83 -4.27563 -0.732965 0
M  V30 20895 H 1978.5 -5.08258 -2.15355 0
M  V30 20896 H 1980.98 -3.21767 -2.63828 0
M  V30 20897 H 1979.86 -3.94909 -3.81232 0
M  V30 20898 H 1980.12 -2.2121 -3.82777 0
M  V30 20899 N 1979.18 0.660885 -1.43074 0
M  V30 20900 C 1980.42 1.42086 -1.44284 0
M  V30 20901 C 1980.75 1.94394 -0.0643177 0
M  V30 20902 O 1980.01 1.72217 0.929509 0
M  V30 20903 C 1980.3 2.6246 -2.42589 0
M  V30 20904 C 1979.97 2.28615 -3.88647 0
M  V30 20905 C 1978.63 2.19096 -4.28428 0
M  V30 20906 C 1980.98 2.0139 -4.8072 0
M  V30 20907 C 1978.31 1.80498 -5.58245 0
M  V30 20908 C 1980.66 1.64293 -6.10893 0
M  V30 20909 C 1979.33 1.53294 -6.49659 0
M  V30 20910 H 1978.6 0.519929 -0.527973 0
M  V30 20911 H 1981.25 0.752296 -1.76104 0
M  V30 20912 H 1979.55 3.34413 -2.04145 0
M  V30 20913 H 1981.25 3.20662 -2.40784 0
M  V30 20914 H 1977.84 2.36931 -3.57158 0
M  V30 20915 H 1982.02 2.0767 -4.50763 0
M  V30 20916 H 1977.28 1.70563 -5.87127 0
M  V30 20917 H 1981.45 1.42256 -6.81716 0
M  V30 20918 H 1979.08 1.23156 -7.50158 0
M  V30 20919 N 1980.65 1.29477 0.898527 0
M  V30 20920 C 1981.9 1.16888 1.64378 0
M  V30 20921 C 1982.22 -0.278503 1.93607 0
M  V30 20922 O 1983.42 -0.525728 2.66361 0
M  V30 20923 C 1981.88 2.0444 2.96196 0
M  V30 20924 C 1981.49 3.54008 2.74558 0
M  V30 20925 C 1983.23 2.00578 3.74124 0
M  V30 20926 C 1981.14 4.33661 4.0211 0
M  V30 20927 H 1980.07 0.433875 0.616659 0
M  V30 20928 H 1982.72 1.54125 0.995881 0
M  V30 20929 H 1981.1 1.60073 3.62205 0
M  V30 20930 H 1982.27 4.06435 2.17135 0
M  V30 20931 H 1980.59 3.59553 2.10025 0
M  V30 20932 H 1983.19 2.57348 4.68696 0
M  V30 20933 H 1983.53 0.98604 4.04454 0
M  V30 20934 H 1984.06 2.42995 3.14957 0
M  V30 20935 H 1980.8 5.36276 3.76946 0
M  V30 20936 H 1980.32 3.86003 4.59088 0
M  V30 20937 H 1982 4.44385 4.70246 0
M  V30 20938 N 1982.13 -1.10905 1.11972 0
M  V30 20939 C 1983.08 -2.17107 0.783135 0
M  V30 20940 C 1984.05 -1.6424 -0.24791 0
M  V30 20941 O 1985.23 -1.90399 -0.123577 0
M  V30 20942 C 1982.37 -3.44274 0.238574 0
M  V30 20943 C 1981.49 -4.11119 1.32685 0
M  V30 20944 C 1980.62 -5.25989 0.742236 0
M  V30 20945 C 1979.66 -5.84728 1.80997 0
M  V30 20946 N 1978.8 -6.90983 1.24444 0
M  V30 20947 H 1983.64 -2.45243 1.69292 0
M  V30 20948 H 1981.18 -1.20386 0.845323 0
M  V30 20949 H 1983.13 -4.17091 -0.0951679 0
M  V30 20950 H 1981.76 -3.16505 -0.634384 0
M  V30 20951 H 1980.82 -3.3632 1.77745 0
M  V30 20952 H 1982.13 -4.50824 2.13445 0
M  V30 20953 H 1981.28 -6.05638 0.358877 0
M  V30 20954 H 1980.02 -4.87604 -0.096622 0
M  V30 20955 H 1979.03 -5.03753 2.20258 0
M  V30 20956 H 1980.25 -6.25178 2.65196 0
M  V30 20957 H 1978.2 -6.54607 0.427323 0
M  V30 20958 H 1978.11 -7.29374 1.98869 0
M  V30 20959 H 1979.38 -7.74424 0.888154 0
M  V30 20960 N 1983.61 -0.910886 -1.2861 0
M  V30 20961 C 1984.84 -0.557522 -1.98935 0
M  V30 20962 C 1985.25 0.864875 -1.68275 0
M  V30 20963 O 1984.59 1.58401 -0.930312 0
M  V30 20964 C 1984.65 -0.683336 -3.52946 0
M  V30 20965 C 1984.32 -2.07475 -4.07189 0
M  V30 20966 C 1985.31 -3.04716 -4.21241 0
M  V30 20967 C 1983 -2.38716 -4.4195 0
M  V30 20968 C 1984.99 -4.31315 -4.69303 0
M  V30 20969 C 1982.68 -3.65555 -4.89707 0
M  V30 20970 C 1983.68 -4.61669 -5.0334 0
M  V30 20971 O 1983.37 -5.86254 -5.50056 0
M  V30 20972 H 1983.1 -0.211519 -0.642056 0
M  V30 20973 H 1985.65 -1.22539 -1.64843 0
M  V30 20974 H 1983.88 0.0415955 -3.86678 0
M  V30 20975 H 1985.57 -0.337494 -4.04494 0
M  V30 20976 H 1986.34 -2.81898 -3.94662 0
M  V30 20977 H 1982.22 -1.64658 -4.30591 0
M  V30 20978 H 1985.76 -5.0634 -4.79859 0
M  V30 20979 H 1981.66 -3.88199 -5.15724 0
M  V30 20980 H 1982.43 -5.89002 -5.68347 0
M  V30 20981 N 1985.09 1.42434 -0.674558 0
M  V30 20982 C 1986.5 1.84678 -0.274015 0
M  V30 20983 C 1986.85 1.56464 1.18378 0
M  V30 20984 O 1985.98 1.02434 1.90621 0
M  V30 20985 C 1986.57 3.3523 -0.490545 0
M  V30 20986 C 1985.13 3.76124 -0.144124 0
M  V30 20987 C 1984.28 2.66013 -0.783107 0
M  V30 20988 H 1987.23 1.32284 -0.876737 0
M  V30 20989 H 1987.25 3.79628 0.257403 0
M  V30 20990 H 1986.76 3.55733 -1.55163 0
M  V30 20991 H 1984.86 3.61228 0.913523 0
M  V30 20992 H 1984.97 4.75521 -0.584478 0
M  V30 20993 H 1983.34 2.53796 -0.214457 0
M  V30 20994 H 1984.12 2.89339 -1.84764 0
M  V30 20995 N 1986.57 0.417871 1.51959 0
M  V30 20996 C 1987.51 -0.417897 2.28815 0
M  V30 20997 C 1988.51 -1.03814 1.33862 0
M  V30 20998 O 1989.71 -0.975341 1.51285 0
M  V30 20999 H 1986.09 -0.153557 0.736155 0
M  V30 21000 H 1988.06 0.25142 2.97339 0
M  V30 21001 C 1986.81 -1.51752 3.12836 0
M  V30 21002 H 1986.13 -1.0496 3.85776 0
M  V30 21003 H 1987.57 -2.07595 3.69703 0
M  V30 21004 C 1986.03 -2.48983 2.26957 0
M  V30 21005 O 1986.56 -3.53072 1.91581 0
M  V30 21006 N 1984.77 -2.19401 1.90556 0
M  V30 21007 H 1984.31 -1.34786 2.19524 0
M  V30 21008 H 1984.27 -2.84701 1.3339 0
M  V30 21009 N 1988.04 -1.56898 0.148573 0
M  V30 21010 C 1989.32 -1.87787 -0.547293 0
M  V30 21011 C 1989.7 -1.05479 -1.82859 0
M  V30 21012 O 1989.05 -0.142055 -2.28058 0
M  V30 21013 C 1989.26 -3.39441 -0.811223 0
M  V30 21014 C 1990.61 -4.08693 -1.1513 0
M  V30 21015 O 1991.63 -3.44629 -0.900524 0
M  V30 21016 O 1990.49 -5.21834 -1.62331 0
M  V30 21017 H 1987.58 -0.778385 -0.279368 0
M  V30 21018 H 1990.13 -1.68685 0.185302 0
M  V30 21019 H 1988.9 -3.91183 0.0955156 0
M  V30 21020 H 1988.53 -3.64076 -1.59794 0
M  V30 21021 N 1989.52 0.125209 -1.57102 0
M  V30 21022 C 1990.77 0.832437 -1.8416 0
M  V30 21023 C 1991.09 1.80706 -0.732819 0
M  V30 21024 O 1990.36 1.94378 0.243723 0
M  V30 21025 H 1988.94 0.310405 -0.679454 0
M  V30 21026 H 1991.6 0.114013 -1.94566 0
M  V30 21027 H 1990.7 1.38145 -2.79861 0
M  V30 21028 N 1991 1.52564 0.395213 0
M  V30 21029 C 1992.28 1.5788 1.1547 0
M  V30 21030 C 1992.66 0.36821 2.07864 0
M  V30 21031 O 1992.01 -0.643933 2.19239 0
M  V30 21032 C 1992.22 2.91451 1.91982 0
M  V30 21033 C 1993.56 3.44961 2.47562 0
M  V30 21034 O 1994.59 2.93284 2.02146 0
M  V30 21035 O 1993.45 4.35233 3.30506 0
M  V30 21036 H 1990.54 0.636516 0.527993 0
M  V30 21037 H 1993.09 1.64897 0.400867 0
M  V30 21038 H 1991.86 3.71006 1.2438 0
M  V30 21039 H 1991.48 2.8779 2.7434 0
M  V30 21040 N 1992.48 -0.653289 1.43422 0
M  V30 21041 C 1993.73 -1.40905 1.44322 0
M  V30 21042 C 1994.04 -1.95471 0.0711388 0
M  V30 21043 O 1995.25 -2.71467 -0.0424133 0
M  V30 21044 C 1993.7 -2.55001 2.53973 0
M  V30 21045 C 1993.31 -2.07043 3.97287 0
M  V30 21046 C 1995.05 -3.32369 2.64067 0
M  V30 21047 C 1992.96 -3.18351 4.98404 0
M  V30 21048 H 1991.89 -0.529424 0.536867 0
M  V30 21049 H 1994.54 -0.705139 1.69411 0
M  V30 21050 H 1992.92 -3.27863 2.22085 0
M  V30 21051 H 1994.1 -1.41193 4.38635 0
M  V30 21052 H 1992.41 -1.42555 3.91238 0
M  V30 21053 H 1995.01 -4.15305 3.36788 0
M  V30 21054 H 1995.35 -3.80394 1.69134 0
M  V30 21055 H 1995.89 -2.66588 2.95255 0
M  V30 21056 H 1992.63 -2.75294 5.94889 0
M  V30 21057 H 1992.15 -3.82913 4.61669 0
M  V30 21058 H 1993.82 -3.83483 5.21104 0
M  V30 21059 N 1993.96 -1.29952 -0.891648 0
M  V30 21060 C 1995.2 -1.18565 -1.6453 0
M  V30 21061 C 1995.54 0.260539 -1.92444 0
M  V30 21062 O 1994.81 1.18723 -1.54062 0
M  V30 21063 C 1995.09 -2.00774 -2.98934 0
M  V30 21064 C 1994.95 -3.53577 -2.78035 0
M  V30 21065 C 1996.27 -1.84038 -3.99772 0
M  V30 21066 H 1993.38 -0.432073 -0.597061 0
M  V30 21067 H 1996.03 -1.59512 -1.03227 0
M  V30 21068 H 1994.18 -1.65981 -3.51258 0
M  V30 21069 H 1995.85 -3.98394 -2.3255 0
M  V30 21070 H 1994.09 -3.78095 -2.12665 0
M  V30 21071 H 1994.76 -4.06381 -3.73575 0
M  V30 21072 H 1997.24 -2.14444 -3.56585 0
M  V30 21073 H 1996.11 -2.43896 -4.91737 0
M  V30 21074 H 1996.38 -0.797726 -4.34843 0
M  V30 21075 N 1995.44 1.1031 -1.12559 0
M  V30 21076 C 1996.68 1.82752 -0.892935 0
M  V30 21077 C 1997.04 1.83606 0.575029 0
M  V30 21078 O 1996.33 1.28667 1.41969 0
M  V30 21079 C 1996.52 3.28699 -1.40326 0
M  V30 21080 C 1996.35 3.42062 -2.91931 0
M  V30 21081 C 1995.12 3.54398 -3.60181 0
M  V30 21082 C 1997.32 3.35357 -3.89923 0
M  V30 21083 N 1995.3 3.56351 -4.99887 0
M  V30 21084 C 1996.67 3.44071 -5.15767 0
M  V30 21085 C 1998.73 3.18965 -3.82316 0
M  V30 21086 C 1997.43 3.38081 -6.34897 0
M  V30 21087 C 1999.46 3.14297 -5.0097 0
M  V30 21088 C 1998.82 3.23593 -6.25673 0
M  V30 21089 H 1994.92 0.683442 -0.38004 0
M  V30 21090 H 1997.5 1.31902 -1.43213 0
M  V30 21091 H 1995.67 3.7804 -0.891099 0
M  V30 21092 H 1997.41 3.89108 -1.11254 0
M  V30 21093 H 1994.16 3.5746 -3.10676 0
M  V30 21094 H 1994.58 3.60935 -5.72761 0
M  V30 21095 H 1999.23 3.10655 -2.86799 0
M  V30 21096 H 1996.94 3.45156 -7.3068 0
M  V30 21097 H 2000.53 3.02762 -4.96816 0
M  V30 21098 H 1999.41 3.19985 -7.15946 0
M  V30 21099 N 1996.91 0.917694 1.28125 0
M  V30 21100 C 1998.16 0.551804 1.94421 0
M  V30 21101 C 1998.48 -0.908163 1.72561 0
M  V30 21102 O 1997.75 -1.64255 1.06758 0
M  V30 21103 H 1996.33 0.201081 0.719427 0
M  V30 21104 H 1998.99 1.16791 1.56032 0
M  V30 21105 H 1998.09 0.749587 3.02965 0
M  V30 21106 N 1998.39 -1.42074 0.682102 0
M  V30 21107 C 1999.34 -2.30799 0.00831535 0
M  V30 21108 C 2000.31 -1.46368 -0.785221 0
M  V30 21109 O 2001.49 -1.75184 -0.755989 0
M  V30 21110 C 1998.63 -3.32283 -0.931784 0
M  V30 21111 C 1997.75 -4.318 -0.131295 0
M  V30 21112 C 1996.88 -5.20357 -1.06781 0
M  V30 21113 C 1995.92 -6.1155 -0.259435 0
M  V30 21114 N 1995.06 -6.92634 -1.14904 0
M  V30 21115 H 1999.9 -2.87861 0.770715 0
M  V30 21116 H 1997.43 -1.41786 0.391799 0
M  V30 21117 H 1999.39 -3.89657 -1.49074 0
M  V30 21118 H 1998.02 -2.76802 -1.66073 0
M  V30 21119 H 1997.07 -3.76484 0.54439 0
M  V30 21120 H 1998.39 -4.96328 0.495998 0
M  V30 21121 H 1997.54 -5.82499 -1.69645 0
M  V30 21122 H 1996.28 -4.56024 -1.72898 0
M  V30 21123 H 1995.28 -5.48469 0.382368 0
M  V30 21124 H 1996.51 -6.77934 0.397744 0
M  V30 21125 H 1994.46 -6.30922 -1.79648 0
M  V30 21126 H 1994.37 -7.53795 -0.577001 0
M  V30 21127 H 1995.64 -7.59257 -1.76492 0
M  V30 21128 N 1999.87 -0.425924 -1.51735 0
M  V30 21129 C 2001.12 0.144557 -2.02284 0
M  V30 21130 C 2001.45 1.43351 -1.31012 0
M  V30 21131 O 2000.72 1.89877 -0.421524 0
M  V30 21132 C 2001.01 0.37505 -3.58142 0
M  V30 21133 C 2000.86 -0.931753 -4.40044 0
M  V30 21134 C 2002.18 1.14986 -4.24813 0
M  V30 21135 H 1999.3 0.0510632 -0.735229 0
M  V30 21136 H 2001.94 -0.562685 -1.81477 0
M  V30 21137 H 2000.09 0.977495 -3.76002 0
M  V30 21138 H 2001.76 -1.5673 -4.33859 0
M  V30 21139 H 2000 -1.53896 -4.05584 0
M  V30 21140 H 2000.68 -0.724661 -5.47223 0
M  V30 21141 H 2003.15 0.639666 -4.11154 0
M  V30 21142 H 2002.03 1.27989 -5.3377 0
M  V30 21143 H 2002.29 2.17496 -3.849 0
M  V30 21144 N 2001.35 1.56817 -0.156891 0
M  V30 21145 C 2002.59 1.97508 0.486025 0
M  V30 21146 C 2002.95 1.0407 1.61825 0
M  V30 21147 O 2002.24 0.0775994 1.91443 0
M  V30 21148 C 2002.44 3.42242 1.02981 0
M  V30 21149 C 2002.26 4.49674 -0.0481867 0
M  V30 21150 C 2001.03 5.0289 -0.492971 0
M  V30 21151 C 2003.23 5.07339 -0.843306 0
M  V30 21152 N 2001.21 5.93938 -1.55278 0
M  V30 21153 C 2002.59 5.9469 -1.75338 0
M  V30 21154 C 2004.64 4.89881 -0.889995 0
M  V30 21155 C 2003.34 6.66453 -2.70617 0
M  V30 21156 C 2005.37 5.62353 -1.83065 0
M  V30 21157 C 2004.73 6.4942 -2.72823 0
M  V30 21158 H 2000.83 0.76818 0.14637 0
M  V30 21159 H 2003.41 1.93039 -0.253779 0
M  V30 21160 H 2001.59 3.47285 1.73919 0
M  V30 21161 H 2003.32 3.69974 1.64017 0
M  V30 21162 H 2000.07 4.73508 -0.0933666 0
M  V30 21163 H 2000.5 6.44167 -2.08275 0
M  V30 21164 H 2005.14 4.22278 -0.210111 0
M  V30 21165 H 2002.86 7.33279 -3.396 0
M  V30 21166 H 2006.44 5.50837 -1.8727 0
M  V30 21167 H 2005.32 7.04514 -3.44426 0
M  V30 21168 N 2002.83 -0.116876 1.57166 0
M  V30 21169 C 2004.24 -0.673792 1.74118 0
M  V30 21170 C 2004.59 -1.80206 0.775892 0
M  V30 21171 O 2003.71 -2.16341 -0.0507019 0
M  V30 21172 C 2004.31 -1.22903 3.15722 0
M  V30 21173 C 2002.87 -1.73222 3.34172 0
M  V30 21174 C 2002.01 -0.632798 2.69983 0
M  V30 21175 H 2004.96 0.109055 1.58325 0
M  V30 21176 H 2004.99 -2.09867 3.1739 0
M  V30 21177 H 2004.5 -0.407637 3.85953 0
M  V30 21178 H 2002.6 -2.57832 2.68986 0
M  V30 21179 H 2002.71 -1.8402 4.4235 0
M  V30 21180 H 2001.08 -1.06693 2.31276 0
M  V30 21181 H 2001.86 0.177653 3.4284 0
M  V30 21182 N 2004.3 -1.52772 -0.387116 0
M  V30 21183 C 2005.58 -1.5849 -1.14631 0
M  V30 21184 C 2005.96 -0.379228 -2.07666 0
M  V30 21185 O 2005.31 0.632297 -2.19577 0
M  V30 21186 C 2005.52 -2.92465 -1.90434 0
M  V30 21187 C 2006.87 -3.46269 -2.45729 0
M  V30 21188 O 2007.89 -2.94352 -2.00588 0
M  V30 21189 O 2006.75 -4.3698 -3.28193 0
M  V30 21190 H 2003.84 -0.639307 -0.52461 0
M  V30 21191 H 2006.39 -1.65108 -0.392117 0
M  V30 21192 H 2005.16 -3.7166 -1.22411 0
M  V30 21193 H 2004.78 -2.89241 -2.7281 0
M  V30 21194 N 2005.78 0.645673 -1.43767 0
M  V30 21195 C 2007.03 1.40547 -1.45783 0
M  V30 21196 C 2007.36 1.94314 -0.0849322 0
M  V30 21197 O 2006.61 1.73193 0.911191 0
M  V30 21198 C 2006.91 2.59872 -2.45359 0
M  V30 21199 C 2006.58 2.2448 -3.91049 0
M  V30 21200 C 2005.24 2.1454 -4.30728 0
M  V30 21201 C 2007.59 1.9628 -4.82829 0
M  V30 21202 C 2004.92 1.74567 -5.60128 0
M  V30 21203 C 2007.27 1.57804 -6.12602 0
M  V30 21204 C 2005.93 1.46395 -6.51249 0
M  V30 21205 H 2005.2 0.5143 -0.533458 0
M  V30 21206 H 2007.85 0.733575 -1.76892 0
M  V30 21207 H 2006.16 3.32229 -2.07681 0
M  V30 21208 H 2007.85 3.1809 -2.44171 0
M  V30 21209 H 2004.44 2.33129 -3.59651 0
M  V30 21210 H 2008.63 2.02877 -4.5294 0
M  V30 21211 H 2003.88 1.64326 -5.88903 0
M  V30 21212 H 2008.06 1.35018 -6.83186 0
M  V30 21213 H 2005.68 1.15193 -7.51422 0
M  V30 21214 N 2007.26 1.30423 0.884744 0
M  V30 21215 C 2008.67 1.17357 1.45204 0
M  V30 21216 C 2009.02 -0.225645 1.94898 0
M  V30 21217 O 2008.15 -1.12234 1.8502 0
M  V30 21218 C 2008.74 2.12438 2.63923 0
M  V30 21219 C 2007.3 2.03351 3.16742 0
M  V30 21220 C 2006.45 2.02508 1.89436 0
M  V30 21221 H 2009.4 1.42689 0.694659 0
M  V30 21222 H 2009.42 1.70535 3.40144 0
M  V30 21223 H 2008.93 3.14267 2.27724 0
M  V30 21224 H 2007.03 1.04665 3.57597 0
M  V30 21225 H 2007.15 2.91748 3.80026 0
M  V30 21226 H 2005.51 1.47312 2.07777 0
M  V30 21227 H 2006.29 3.06066 1.55494 0
M  V30 21228 N 2008.74 -1.09711 1.13142 0
M  V30 21229 C 2010.01 -1.78377 0.802565 0
M  V30 21230 C 2010.39 -1.9893 -0.706392 0
M  V30 21231 O 2009.74 -1.58835 -1.64267 0
M  V30 21232 C 2009.95 -3.10873 1.58615 0
M  V30 21233 C 2011.3 -3.85629 1.77695 0
M  V30 21234 O 2012.32 -3.20616 1.55189 0
M  V30 21235 O 2011.18 -5.02334 2.15228 0
M  V30 21236 H 2008.28 -0.773463 0.292718 0
M  V30 21237 H 2010.82 -1.16294 1.23587 0
M  V30 21238 H 2009.6 -2.9138 2.61177 0
M  V30 21239 H 2009.22 -3.80679 1.14758 0
M  V30 21240 N 2010.22 -0.924476 -1.27637 0
M  V30 21241 C 2011.46 -0.564054 -1.94798 0
M  V30 21242 C 2011.8 0.891863 -1.72509 0
M  V30 21243 O 2011.07 1.63577 -1.05228 0
M  V30 21244 C 2011.35 -0.886888 -3.49008 0
M  V30 21245 C 2011.21 -2.39632 -3.80653 0
M  V30 21246 C 2012.53 -0.390514 -4.38364 0
M  V30 21247 H 2009.64 -0.206399 -0.707509 0
M  V30 21248 H 2012.29 -1.15567 -1.50812 0
M  V30 21249 H 2010.44 -0.383406 -3.86603 0
M  V30 21250 H 2012.11 -2.97125 -3.52866 0
M  V30 21251 H 2010.35 -2.84685 -3.27318 0
M  V30 21252 H 2011.02 -2.57274 -4.88379 0
M  V30 21253 H 2013.5 -0.821972 -4.07901 0
M  V30 21254 H 2012.37 -0.645381 -5.45093 0
M  V30 21255 H 2012.64 0.709365 -4.36372 0
M  V30 21256 N 2011.69 1.41711 -0.689627 0
M  V30 21257 C 2012.94 2.0162 -0.218409 0
M  V30 21258 C 2013.27 1.54471 1.17696 0
M  V30 21259 O 2012.55 0.753301 1.7932 0
M  V30 21260 C 2012.83 3.5909 -0.269485 0
M  V30 21261 C 2012.68 4.16381 -1.70137 0
M  V30 21262 C 2014 4.38508 0.374046 0
M  V30 21263 H 2011.12 0.732553 -0.0808378 0
M  V30 21264 H 2013.76 1.68537 -0.877222 0
M  V30 21265 H 2011.91 3.87405 0.291466 0
M  V30 21266 H 2013.59 3.98964 -2.31571 0
M  V30 21267 H 2011.83 3.71648 -2.23741 0
M  V30 21268 H 2012.5 5.25535 -1.68869 0
M  V30 21269 H 2014.98 4.15971 -0.103624 0
M  V30 21270 H 2013.85 5.48037 0.307738 0
M  V30 21271 H 2014.11 4.1751 1.45388 0
M  V30 21272 N 2013.17 0.433965 1.51507 0
M  V30 21273 C 2014.42 -0.133827 2.02358 0
M  V30 21274 C 2014.75 -1.42654 1.3177 0
M  V30 21275 O 2014.03 -1.89651 0.431588 0
M  V30 21276 C 2014.31 -0.356052 3.58335 0
M  V30 21277 C 2014.16 0.955077 4.39543 0
M  V30 21278 C 2015.48 -1.12732 4.25417 0
M  V30 21279 H 2012.6 -0.0471634 0.735489 0
M  V30 21280 H 2015.24 0.572301 1.81176 0
M  V30 21281 H 2013.39 -0.957541 3.76515 0
M  V30 21282 H 2015.06 1.59029 4.33021 0
M  V30 21283 H 2013.31 1.56044 4.04762 0
M  V30 21284 H 2013.98 0.753671 5.46831 0
M  V30 21285 H 2016.45 -0.617852 4.11487 0
M  V30 21286 H 2015.33 -1.25157 5.34441 0
M  V30 21287 H 2015.59 -2.15452 3.86048 0
M  V30 21288 N 2014.65 -1.56732 0.165206 0
M  V30 21289 C 2015.6 -2.18974 -0.784415 0
M  V30 21290 C 2016.59 -1.15199 -1.242 0
M  V30 21291 O 2017.8 -1.33411 -1.20837 0
M  V30 21292 H 2014.17 -0.701387 -0.27122 0
M  V30 21293 H 2016.14 -2.9747 -0.235435 0
M  V30 21294 C 2014.89 -2.83996 -2.00603 0
M  V30 21295 H 2014.22 -3.63574 -1.66295 0
M  V30 21296 H 2015.66 -3.31025 -2.6495 0
M  V30 21297 C 2014.12 -1.83448 -2.82574 0
M  V30 21298 O 2014.65 -1.31617 -3.79526 0
M  V30 21299 N 2012.85 -1.52342 -2.47468 0
M  V30 21300 H 2012.4 -1.94684 -1.68689 0
M  V30 21301 H 2012.36 -0.853184 -3.02602 0
M  V30 21302 N 2016.13 0.10854 -1.57226 0
M  V30 21303 C 2017.38 0.812858 -1.85033 0
M  V30 21304 C 2017.7 1.79919 -0.751944 0
M  V30 21305 O 2016.97 1.94626 0.223093 0
M  V30 21306 H 2015.55 0.303181 -0.682708 0
M  V30 21307 H 2018.21 0.0933699 -1.94676 0
M  V30 21308 H 2017.31 1.35169 -2.81311 0
M  V30 21309 N 2017.61 1.52975 0.379009 0
M  V30 21310 C 2018.83 1.72698 1.14849 0
M  V30 21311 C 2019.26 0.448814 1.82667 0
M  V30 21312 O 2018.61 -0.596182 1.71217 0
M  V30 21313 C 2018.66 2.884 2.16466 0
M  V30 21314 O 2017.77 2.56071 3.23267 0
M  V30 21315 H 2017.11 0.573952 0.333878 0
M  V30 21316 H 2019.64 1.99807 0.440243 0
M  V30 21317 H 2019.65 3.14183 2.60295 0
M  V30 21318 H 2018.32 3.8112 1.66494 0
M  V30 21319 H 2016.9 2.41063 2.84505 0
M  V30 21320 N 2019.08 -0.63804 1.44107 0
M  V30 21321 C 2020.01 -1.76164 1.5326 0
M  V30 21322 C 2021 -1.6566 0.386107 0
M  V30 21323 O 2022.18 -1.84525 0.605326 0
M  V30 21324 C 2019.31 -3.14665 1.4698 0
M  V30 21325 C 2018.26 -3.39949 2.60035 0
M  V30 21326 C 2017.59 -4.78409 2.38808 0
M  V30 21327 C 2018.89 -3.33193 4.02219 0
M  V30 21328 H 2020.58 -1.6876 2.47306 0
M  V30 21329 H 2018.13 -0.810483 1.19026 0
M  V30 21330 H 2020.08 -3.93037 1.51986 0
M  V30 21331 H 2018.81 -3.22835 0.494471 0
M  V30 21332 H 2017.47 -2.63955 2.54408 0
M  V30 21333 H 2017.11 -4.83274 1.39483 0
M  V30 21334 H 2016.81 -4.96285 3.14602 0
M  V30 21335 H 2018.34 -5.5902 2.4562 0
M  V30 21336 H 2019.75 -4.0148 4.09252 0
M  V30 21337 H 2018.15 -3.62605 4.78161 0
M  V30 21338 H 2019.22 -2.31116 4.26279 0
M  V30 21339 N 2020.56 -1.3089 -0.877815 0
M  V30 21340 C 2021.84 -1.10773 -1.6121 0
M  V30 21341 C 2022.22 0.340404 -2.08337 0
M  V30 21342 O 2021.57 1.33316 -1.85577 0
M  V30 21343 C 2021.78 -2.11499 -2.77613 0
M  V30 21344 C 2023.13 -2.43601 -3.47769 0
M  V30 21345 O 2024.15 -2.09865 -2.87811 0
M  V30 21346 O 2023.01 -3.0134 -4.55913 0
M  V30 21347 H 2020.1 -0.425928 -0.708882 0
M  V30 21348 H 2022.65 -1.42341 -0.923964 0
M  V30 21349 H 2021.42 -3.08943 -2.40146 0
M  V30 21350 H 2021.04 -1.80791 -3.54119 0
M  V30 21351 N 2022.04 1.0911 -1.13723 0
M  V30 21352 C 2023.29 1.81794 -0.912268 0
M  V30 21353 C 2023.64 1.84206 0.555522 0
M  V30 21354 O 2022.93 1.30166 1.40597 0
M  V30 21355 C 2023.13 3.27193 -1.43805 0
M  V30 21356 C 2022.96 3.38947 -2.95542 0
M  V30 21357 C 2021.73 3.50558 -3.63919 0
M  V30 21358 C 2023.93 3.31203 -3.93458 0
M  V30 21359 N 2021.91 3.51029 -5.03639 0
M  V30 21360 C 2023.28 3.38581 -5.19387 0
M  V30 21361 C 2025.33 3.14892 -3.85678 0
M  V30 21362 C 2024.04 3.31328 -6.38447 0
M  V30 21363 C 2026.06 3.08966 -5.04276 0
M  V30 21364 C 2025.42 3.16939 -6.2907 0
M  V30 21365 H 2021.52 0.679373 -0.387268 0
M  V30 21366 H 2024.11 1.30375 -1.44604 0
M  V30 21367 H 2022.28 3.77073 -0.931145 0
M  V30 21368 H 2024.01 3.87906 -1.15375 0
M  V30 21369 H 2020.77 3.54145 -3.1445 0
M  V30 21370 H 2021.19 3.5484 -5.76557 0
M  V30 21371 H 2025.83 3.07595 -2.90078 0
M  V30 21372 H 2023.55 3.37387 -7.34299 0
M  V30 21373 H 2027.14 2.97476 -4.99999 0
M  V30 21374 H 2026.02 3.12373 -7.193 0
M  V30 21375 N 2023.52 0.931232 1.27145 0
M  V30 21376 C 2024.8 0.491789 1.89317 0
M  V30 21377 C 2025.18 -1.03026 1.84252 0
M  V30 21378 O 2024.52 -1.88596 1.29011 0
M  V30 21379 C 2024.73 1.04187 3.33086 0
M  V30 21380 C 2026.08 1.1045 4.09983 0
M  V30 21381 O 2027.11 0.991747 3.42115 0
M  V30 21382 O 2025.96 1.27861 5.31332 0
M  V30 21383 H 2023.06 0.158746 0.811621 0
M  V30 21384 H 2025.6 1.02315 1.35387 0
M  V30 21385 H 2024.38 2.08566 3.31083 0
M  V30 21386 H 2024 0.492365 3.9454 0
M  V30 21387 N 2025 -1.41343 0.697132 0
M  V30 21388 C 2026.22 -2.06049 0.236356 0
M  V30 21389 C 2026.65 -1.52124 -1.10634 0
M  V30 21390 O 2026.01 -0.648852 -1.69291 0
M  V30 21391 C 2026.05 -3.6001 0.206185 0
M  V30 21392 O 2025.16 -4.04197 -0.818466 0
M  V30 21393 H 2024.5 -0.65395 0.115091 0
M  V30 21394 H 2027.03 -1.8108 0.952431 0
M  V30 21395 H 2027.04 -4.07983 0.0375737 0
M  V30 21396 H 2025.71 -3.98628 1.18612 0
M  V30 21397 H 2024.29 -3.67725 -0.619082 0
M  V30 21398 N 2026.48 -0.441993 -1.51275 0
M  V30 21399 C 2027.41 0.40297 -2.2563 0
M  V30 21400 C 2028.42 0.982305 -1.29825 0
M  V30 21401 O 2029.61 0.875653 -1.55546 0
M  V30 21402 C 2026.71 1.57618 -3.00016 0
M  V30 21403 C 2025.88 1.11489 -4.22953 0
M  V30 21404 C 2024.94 2.15876 -4.79879 0
M  V30 21405 O 2023.97 1.75121 -5.41591 0
M  V30 21406 N 2025.17 3.48408 -4.64319 0
M  V30 21407 H 2027.93 -0.234323 -2.98783 0
M  V30 21408 H 2025.5 -0.271138 -1.59613 0
M  V30 21409 H 2027.49 2.27084 -3.34985 0
M  V30 21410 H 2026.06 2.11873 -2.29845 0
M  V30 21411 H 2025.28 0.247136 -3.93425 0
M  V30 21412 H 2026.57 0.78415 -5.02721 0
M  V30 21413 H 2025.96 3.84249 -4.15173 0
M  V30 21414 H 2024.52 4.13755 -5.03637 0
M  V30 21415 N 2027.95 1.56642 -0.173515 0
M  V30 21416 C 2029.2 1.97241 0.47157 0
M  V30 21417 C 2029.53 1.05958 1.62747 0
M  V30 21418 O 2028.81 0.107151 1.94205 0
M  V30 21419 C 2029.09 3.47276 0.952439 0
M  V30 21420 C 2028.94 4.49338 -0.203789 0
M  V30 21421 C 2030.26 4.00461 1.82535 0
M  V30 21422 H 2027.38 0.71714 0.169941 0
M  V30 21423 H 2030.02 1.88211 -0.260093 0
M  V30 21424 H 2028.17 3.55102 1.57591 0
M  V30 21425 H 2029.85 4.5357 -0.840936 0
M  V30 21426 H 2028.09 4.25211 -0.858945 0
M  V30 21427 H 2028.76 5.51723 0.174833 0
M  V30 21428 H 2031.24 3.9528 1.29974 0
M  V30 21429 H 2030.11 5.05853 2.13083 0
M  V30 21430 H 2030.37 3.44409 2.7719 0
M  V30 21431 N 2029.43 -0.1002 1.57281 0
M  V30 21432 C 2030.34 -1.14039 2.05018 0
M  V30 21433 C 2031.36 -1.44178 0.974096 0
M  V30 21434 O 2032.53 -1.54921 1.28691 0
M  V30 21435 C 2029.6 -2.44226 2.46078 0
M  V30 21436 C 2028.66 -2.21315 3.67856 0
M  V30 21437 C 2027.89 -3.45295 4.06948 0
M  V30 21438 O 2028.12 -4.53334 3.46185 0
M  V30 21439 O 2027.05 -3.35185 4.99935 0
M  V30 21440 H 2030.88 -0.764957 2.93908 0
M  V30 21441 H 2028.46 -0.312347 1.46098 0
M  V30 21442 H 2030.34 -3.20895 2.73138 0
M  V30 21443 H 2029.02 -2.81206 1.60327 0
M  V30 21444 H 2027.92 -1.42444 3.4592 0
M  V30 21445 H 2029.26 -1.89231 4.54371 0
M  V30 21446 N 2030.91 -1.53174 -0.370891 0
M  V30 21447 C 2031.84 -1.82213 -1.46017 0
M  V30 21448 C 2032.82 -0.675274 -1.56122 0
M  V30 21449 O 2034.01 -0.924614 -1.70776 0
M  V30 21450 C 2031.14 -2.00727 -2.83419 0
M  V30 21451 C 2030.09 -3.16478 -2.88141 0
M  V30 21452 C 2029.42 -3.20276 -4.28167 0
M  V30 21453 C 2030.72 -4.55179 -2.56143 0
M  V30 21454 H 2032.41 -2.73432 -1.21965 0
M  V30 21455 H 2029.96 -1.31569 -0.585288 0
M  V30 21456 H 2031.91 -2.19625 -3.59643 0
M  V30 21457 H 2030.63 -1.06213 -3.08847 0
M  V30 21458 H 2029.29 -2.97392 -2.14367 0
M  V30 21459 H 2028.94 -2.2341 -4.50663 0
M  V30 21460 H 2028.64 -3.98044 -4.32244 0
M  V30 21461 H 2030.16 -3.41352 -5.06272 0
M  V30 21462 H 2031.58 -4.74274 -3.22082 0
M  V30 21463 H 2029.97 -5.35148 -2.71544 0
M  V30 21464 H 2031.04 -4.60654 -1.51412 0
M  V30 21465 N 2032.39 0.630389 -1.44443 0
M  V30 21466 C 2033.62 1.41507 -1.5053 0
M  V30 21467 C 2034.03 1.88759 -0.129099 0
M  V30 21468 O 2033.37 1.61501 0.8754 0
M  V30 21469 C 2033.43 2.6686 -2.40886 0
M  V30 21470 C 2033.09 2.41399 -3.88041 0
M  V30 21471 C 2034.09 2.03181 -4.78554 0
M  V30 21472 C 2031.78 2.55016 -4.3275 0
M  V30 21473 C 2033.77 1.78909 -6.11776 0
M  V30 21474 C 2031.46 2.30359 -5.6602 0
M  V30 21475 C 2032.46 1.92364 -6.55351 0
M  V30 21476 O 2032.14 1.67981 -7.86154 0
M  V30 21477 H 2031.88 0.440388 -0.512869 0
M  V30 21478 H 2034.43 0.778074 -1.90093 0
M  V30 21479 H 2032.66 3.33199 -1.96252 0
M  V30 21480 H 2034.35 3.28864 -2.37915 0
M  V30 21481 H 2035.11 1.92217 -4.45284 0
M  V30 21482 H 2030.99 2.8356 -3.63476 0
M  V30 21483 H 2034.54 1.49178 -6.81463 0
M  V30 21484 H 2030.43 2.40932 -5.9885 0
M  V30 21485 H 2031.2 1.82221 -7.97959 0
M  V30 21486 N 2033.87 1.31354 0.870861 0
M  V30 21487 C 2035.28 1.09992 1.15646 0
M  V30 21488 C 2035.48 -0.130192 2.01079 0
M  V30 21489 O 2034.54 -0.819776 2.38822 0
M  V30 21490 C 2035.85 2.37098 1.84946 0
M  V30 21491 C 2037.4 2.42699 1.97651 0
M  V30 21492 C 2037.87 3.69684 2.70366 0
M  V30 21493 N 2039.36 3.70573 2.77902 0
M  V30 21494 C 2040.1 4.65525 3.34775 0
M  V30 21495 N 2039.6 5.70831 3.92586 0
M  V30 21496 N 2041.39 4.53046 3.32724 0
M  V30 21497 H 2033.54 2.10249 0.301547 0
M  V30 21498 H 2035.8 0.927478 0.196185 0
M  V30 21499 H 2035.51 3.26943 1.2962 0
M  V30 21500 H 2035.38 2.46827 2.8523 0
M  V30 21501 H 2037.77 1.53324 2.52142 0
M  V30 21502 H 2037.85 2.36935 0.964123 0
M  V30 21503 H 2037.49 4.59425 2.16543 0
M  V30 21504 H 2037.42 3.72714 3.7201 0
M  V30 21505 H 2039.92 2.94449 2.36872 0
M  V30 21506 H 2040.23 6.39363 4.3409 0
M  V30 21507 H 2038.57 5.74606 3.90964 0
M  V30 21508 H 2041.76 3.69952 2.86798 0
M  V30 21509 H 2041.94 5.27223 3.76749 0
M  V30 21510 N 2035.34 -1.08505 1.143 0
M  V30 21511 C 2036.31 -2.13573 0.831813 0
M  V30 21512 C 2037.31 -1.59971 -0.163092 0
M  V30 21513 O 2038.5 -1.74078 0.0651356 0
M  V30 21514 C 2035.63 -3.40056 0.239795 0
M  V30 21515 H 2036.82 -2.4261 1.76297 0
M  V30 21516 H 2034.37 -1.24201 0.94889 0
M  V30 21517 H 2035.11 -3.16652 -0.700121 0
M  V30 21518 H 2034.89 -3.80257 0.956388 0
M  V30 21519 H 2036.38 -4.17582 0.0392538 0
M  V30 21520 N 2036.82 -0.937962 -1.26649 0
M  V30 21521 C 2038.05 -0.599594 -1.97708 0
M  V30 21522 C 2038.46 0.828987 -1.70072 0
M  V30 21523 O 2037.8 1.56392 -0.963702 0
M  V30 21524 C 2037.86 -0.758048 -3.51417 0
M  V30 21525 C 2037.53 -2.16066 -4.02697 0
M  V30 21526 C 2038.53 -3.13583 -4.14683 0
M  V30 21527 C 2036.21 -2.48037 -4.36787 0
M  V30 21528 C 2038.2 -4.41173 -4.60049 0
M  V30 21529 C 2035.89 -3.7586 -4.81842 0
M  V30 21530 C 2036.89 -4.72242 -4.93434 0
M  V30 21531 O 2036.58 -5.9779 -5.37497 0
M  V30 21532 H 2036.31 -0.225091 -0.637425 0
M  V30 21533 H 2038.86 -1.26008 -1.62207 0
M  V30 21534 H 2037.09 -0.0404339 -3.86679 0
M  V30 21535 H 2038.78 -0.423218 -4.03688 0
M  V30 21536 H 2039.55 -2.90206 -3.88594 0
M  V30 21537 H 2035.43 -1.73755 -4.27001 0
M  V30 21538 H 2038.97 -5.16405 -4.69011 0
M  V30 21539 H 2034.87 -3.99051 -5.07374 0
M  V30 21540 H 2035.64 -6.00925 -5.55726 0
M  V30 21541 N 2038.3 1.40971 -0.704618 0
M  V30 21542 C 2039.55 2.01377 -0.239781 0
M  V30 21543 C 2039.88 1.5571 1.16051 0
M  V30 21544 O 2039.15 0.772278 1.78511 0
M  V30 21545 C 2039.44 3.58784 -0.307556 0
M  V30 21546 C 2039.29 4.14553 -1.74544 0
M  V30 21547 C 2040.61 4.3888 0.327516 0
M  V30 21548 H 2037.73 0.731655 -0.088603 0
M  V30 21549 H 2040.37 1.67597 -0.895048 0
M  V30 21550 H 2038.52 3.87692 0.25036 0
M  V30 21551 H 2040.19 3.96486 -2.3579 0
M  V30 21552 H 2038.43 3.69254 -2.2767 0
M  V30 21553 H 2039.11 5.23715 -1.74433 0
M  V30 21554 H 2041.58 4.15838 -0.147737 0
M  V30 21555 H 2040.46 5.48332 0.249594 0
M  V30 21556 H 2040.72 4.19029 1.40952 0
M  V30 21557 N 2039.78 0.45001 1.51039 0
M  V30 21558 C 2040.74 -0.343489 2.26612 0
M  V30 21559 C 2041.74 -0.938789 1.3055 0
M  V30 21560 O 2042.93 -0.811258 1.54157 0
M  V30 21561 C 2040.06 -1.48719 3.0675 0
M  V30 21562 H 2041.26 0.318996 2.98199 0
M  V30 21563 H 2038.81 0.2035 1.5497 0
M  V30 21564 H 2039.54 -2.18535 2.3961 0
M  V30 21565 H 2039.33 -1.06636 3.77321 0
M  V30 21566 H 2040.82 -2.04748 3.63961 0
M  V30 21567 N 2041.26 -1.56548 0.18182 0
M  V30 21568 C 2042.5 -1.97196 -0.460422 0
M  V30 21569 C 2042.83 -1.06822 -1.6254 0
M  V30 21570 O 2042.09 -0.104496 -1.95421 0
M  V30 21571 C 2042.39 -3.43837 -0.975236 0
M  V30 21572 C 2042.05 -4.50838 0.07496 0
M  V30 21573 C 2040.71 -4.79825 0.363562 0
M  V30 21574 C 2043.07 -5.1522 0.787246 0
M  V30 21575 C 2040.39 -5.70489 1.36966 0
M  V30 21576 C 2042.75 -6.06971 1.7824 0
M  V30 21577 C 2041.41 -6.3432 2.07834 0
M  V30 21578 H 2040.68 -0.721592 -0.16848 0
M  V30 21579 H 2043.33 -1.89501 0.275993 0
M  V30 21580 H 2041.63 -3.48537 -1.78967 0
M  V30 21581 H 2043.33 -3.72636 -1.48134 0
M  V30 21582 H 2039.92 -4.28301 -0.160151 0
M  V30 21583 H 2044.1 -4.92929 0.5775 0
M  V30 21584 H 2039.36 -5.89957 1.605 0
M  V30 21585 H 2043.53 -6.55922 2.33963 0
M  V30 21586 H 2041.16 -7.04374 2.85941 0
M  V30 21587 N 2042.73 0.0918577 -1.57332 0
M  V30 21588 C 2044.15 0.646006 -1.75167 0
M  V30 21589 C 2044.5 1.78949 -0.804463 0
M  V30 21590 O 2043.62 2.16394 0.0162775 0
M  V30 21591 C 2044.22 1.17865 -3.17637 0
M  V30 21592 C 2042.78 1.67884 -3.36886 0
M  V30 21593 C 2041.92 0.589766 -2.70956 0
M  V30 21594 H 2044.87 -0.134229 -1.58131 0
M  V30 21595 H 2044.89 2.04791 -3.20688 0
M  V30 21596 H 2044.41 0.346184 -3.86553 0
M  V30 21597 H 2042.51 2.5352 -2.73054 0
M  V30 21598 H 2042.62 1.7696 -4.45221 0
M  V30 21599 H 2040.98 1.03 -2.32945 0
M  V30 21600 H 2041.77 -0.232174 -3.42514 0
M  V30 21601 N 2044.21 1.53368 0.362763 0
M  V30 21602 C 2045.49 1.60294 1.12095 0
M  V30 21603 C 2045.87 0.412218 2.07036 0
M  V30 21604 O 2045.22 -0.597284 2.20556 0
M  V30 21605 C 2045.43 2.95458 1.85757 0
M  V30 21606 C 2046.78 3.50135 2.40189 0
M  V30 21607 O 2047.8 2.97506 1.9588 0
M  V30 21608 O 2046.66 4.42146 3.212 0
M  V30 21609 H 2043.75 0.647572 0.514373 0
M  V30 21610 H 2046.3 1.65711 0.3658 0
M  V30 21611 H 2045.07 3.73561 1.16482 0
M  V30 21612 H 2044.69 2.93545 2.68174 0
M  V30 21613 N 2045.69 -0.62272 1.44776 0
M  V30 21614 C 2046.94 -1.3821 1.48 0
M  V30 21615 C 2047.27 -1.94155 0.115835 0
M  V30 21616 O 2046.52 -1.74621 -0.883522 0
M  V30 21617 C 2046.82 -2.55936 2.49463 0
M  V30 21618 C 2046.49 -2.1823 3.94571 0
M  V30 21619 C 2045.15 -2.0766 4.34086 0
M  V30 21620 C 2047.5 -1.88574 4.8589 0
M  V30 21621 C 2044.83 -1.65634 5.62834 0
M  V30 21622 C 2047.18 -1.48038 6.15035 0
M  V30 21623 C 2045.84 -1.36016 6.53495 0
M  V30 21624 H 2045.11 -0.505748 0.541572 0
M  V30 21625 H 2047.76 -0.705341 1.78037 0
M  V30 21626 H 2046.07 -3.28883 2.1294 0
M  V30 21627 H 2047.76 -3.14165 2.49201 0
M  V30 21628 H 2044.35 -2.27378 3.63314 0
M  V30 21629 H 2048.54 -1.95645 4.5611 0
M  V30 21630 H 2043.79 -1.54936 5.91443 0
M  V30 21631 H 2047.97 -1.24132 6.85248 0
M  V30 21632 H 2045.59 -1.03224 7.53159 0
M  V30 21633 N 2047.17 -1.31814 -0.863883 0
M  V30 21634 C 2048.42 -1.21847 -1.61739 0
M  V30 21635 C 2048.74 0.221932 -1.9323 0
M  V30 21636 O 2048 1.1724 -1.56695 0
M  V30 21637 C 2048.3 -2.01404 -2.95248 0
M  V30 21638 C 2047.96 -3.50849 -2.83224 0
M  V30 21639 C 2046.63 -3.91597 -2.79653 0
M  V30 21640 C 2048.98 -4.45922 -2.6982 0
M  V30 21641 C 2046.31 -5.25675 -2.60543 0
M  V30 21642 C 2048.66 -5.80133 -2.52247 0
M  V30 21643 C 2047.32 -6.20094 -2.47062 0
M  V30 21644 H 2046.59 -0.445871 -0.591845 0
M  V30 21645 H 2049.24 -1.63143 -1.00282 0
M  V30 21646 H 2047.54 -1.52808 -3.60773 0
M  V30 21647 H 2049.24 -1.91069 -3.52553 0
M  V30 21648 H 2045.83 -3.1848 -2.86825 0
M  V30 21649 H 2050.01 -4.15368 -2.71631 0
M  V30 21650 H 2045.27 -5.55704 -2.54958 0
M  V30 21651 H 2049.44 -6.53424 -2.40853 0
M  V30 21652 H 2047.07 -7.23929 -2.32014 0
M  V30 21653 N 2048.65 1.07897 -1.14873 0
M  V30 21654 C 2050.06 1.32467 -0.89021 0
M  V30 21655 C 2050.26 1.96041 0.46584 0
M  V30 21656 O 2049.32 2.21675 1.20899 0
M  V30 21657 C 2050.63 2.22118 -2.02692 0
M  V30 21658 C 2052.18 2.35583 -2.06082 0
M  V30 21659 C 2052.65 3.28579 -3.19061 0
M  V30 21660 N 2054.15 3.36158 -3.18673 0
M  V30 21661 C 2054.88 4.0816 -4.02731 0
M  V30 21662 N 2054.38 4.82826 -4.96841 0
M  V30 21663 N 2056.17 4.04045 -3.90774 0
M  V30 21664 H 2048.32 0.650155 -2.02205 0
M  V30 21665 H 2050.58 0.349072 -0.881393 0
M  V30 21666 H 2050.29 1.82656 -3.00549 0
M  V30 21667 H 2050.16 3.22612 -1.95452 0
M  V30 21668 H 2052.55 2.743 -1.08829 0
M  V30 21669 H 2052.63 1.34812 -2.17392 0
M  V30 21670 H 2052.28 2.90582 -4.16563 0
M  V30 21671 H 2052.21 4.2929 -3.04988 0
M  V30 21672 H 2054.7 2.82932 -2.50515 0
M  V30 21673 H 2055.01 5.35244 -5.57434 0
M  V30 21674 H 2053.35 4.81861 -5.00834 0
M  V30 21675 H 2056.55 3.44823 -3.16567 0
M  V30 21676 H 2056.72 4.59895 -4.56509 0
M  V30 21677 N 2050.12 0.944665 1.2615 0
M  V30 21678 C 2051.07 0.44787 2.28247 0
M  V30 21679 C 2052.07 -0.476672 1.62555 0
M  V30 21680 O 2053.27 -0.3545 1.76475 0
M  V30 21681 H 2049.65 0.126306 0.741317 0
M  V30 21682 H 2051.62 1.32142 2.67546 0
M  V30 21683 C 2050.37 -0.268298 3.46663 0
M  V30 21684 H 2049.69 0.433964 3.97438 0
M  V30 21685 H 2051.13 -0.580074 4.20013 0
M  V30 21686 C 2049.59 -1.48732 3.02292 0
M  V30 21687 O 2050.12 -2.58549 3.07434 0
M  V30 21688 N 2048.33 -1.34513 2.57594 0
M  V30 21689 H 2047.87 -0.451649 2.5361 0
M  V30 21690 H 2047.83 -2.16196 2.28269 0
M  V30 21691 N 2051.6 -1.40596 0.712085 0
M  V30 21692 C 2052.83 -2.05787 0.258197 0
M  V30 21693 C 2053.25 -1.53289 -1.09015 0
M  V30 21694 O 2052.61 -0.666771 -1.68594 0
M  V30 21695 C 2052.66 -3.59771 0.244357 0
M  V30 21696 O 2051.76 -4.05042 -0.77555 0
M  V30 21697 H 2051.1 -0.652692 0.12202 0
M  V30 21698 H 2053.63 -1.80059 0.971583 0
M  V30 21699 H 2053.64 -4.0792 0.0808437 0
M  V30 21700 H 2052.32 -3.97347 1.22834 0
M  V30 21701 H 2050.9 -3.68361 -0.580045 0
M  V30 21702 N 2053.08 -0.458013 -1.50798 0
M  V30 21703 C 2054.31 0.0995379 -2.0666 0
M  V30 21704 C 2054.72 1.34662 -1.32331 0
M  V30 21705 O 2054.08 1.78311 -0.388768 0
M  V30 21706 C 2054.13 0.400901 -3.5927 0
M  V30 21707 O 2053.85 -0.796705 -4.30795 0
M  V30 21708 C 2055.35 1.00686 -4.31714 0
M  V30 21709 H 2052.57 -0.00125628 -0.670999 0
M  V30 21710 H 2055.12 -0.643041 -1.94127 0
M  V30 21711 H 2053.27 1.0934 -3.7165 0
M  V30 21712 H 2053.69 -0.533396 -5.21781 0
M  V30 21713 H 2055.16 1.16758 -5.39511 0
M  V30 21714 H 2055.64 1.99349 -3.91352 0
M  V30 21715 H 2056.24 0.353135 -4.23831 0
M  V30 21716 N 2054.56 1.56449 -0.190119 0
M  V30 21717 C 2055.52 2.17632 0.718966 0
M  V30 21718 C 2056.52 1.12941 1.14459 0
M  V30 21719 O 2057.71 1.38353 1.05849 0
M  V30 21720 C 2054.84 2.77437 1.98095 0
M  V30 21721 H 2056.04 2.99322 0.186033 0
M  V30 21722 H 2053.59 1.56187 0.0594913 0
M  V30 21723 H 2054.33 1.99531 2.55652 0
M  V30 21724 H 2054.11 3.5407 1.68454 0
M  V30 21725 H 2055.6 3.24433 2.62932 0
M  V30 21726 N 2056.04 -0.0835127 1.57379 0
M  V30 21727 C 2056.98 -1.10046 2.02875 0
M  V30 21728 C 2057.95 -1.39138 0.907183 0
M  V30 21729 O 2059.14 -1.50405 1.17401 0
M  V30 21730 C 2056.28 -2.41229 2.46784 0
M  V30 21731 C 2055.39 -2.18769 3.72511 0
M  V30 21732 C 2054.53 -3.43432 4.05251 0
M  V30 21733 C 2053.57 -3.16284 5.24052 0
M  V30 21734 N 2052.7 -4.33246 5.52488 0
M  V30 21735 H 2057.54 -0.705503 2.89528 0
M  V30 21736 H 2055.08 -0.336809 1.43192 0
M  V30 21737 H 2057.04 -3.17803 2.7029 0
M  V30 21738 H 2055.67 -2.7855 1.63125 0
M  V30 21739 H 2054.72 -1.32942 3.56414 0
M  V30 21740 H 2056.03 -1.94708 4.59228 0
M  V30 21741 H 2055.19 -4.28408 4.29595 0
M  V30 21742 H 2053.93 -3.70558 3.17078 0
M  V30 21743 H 2052.93 -2.29703 4.99516 0
M  V30 21744 H 2054.16 -2.90493 6.13833 0
M  V30 21745 H 2052.1 -4.60425 4.67274 0
M  V30 21746 H 2052.02 -4.12417 6.336 0
M  V30 21747 H 2053.29 -5.19253 5.81375 0
M  V30 21748 N 2057.52 -1.53558 -0.354624 0
M  V30 21749 C 2058.76 -1.71466 -1.09411 0
M  V30 21750 C 2059.12 -0.466375 -1.86662 0
M  V30 21751 O 2058.41 0.540835 -1.83808 0
M  V30 21752 C 2058.6 -2.91096 -2.07359 0
M  V30 21753 C 2058.43 -4.27439 -1.39734 0
M  V30 21754 C 2057.2 -4.92113 -1.14685 0
M  V30 21755 C 2059.4 -5.0757 -0.829317 0
M  V30 21756 N 2057.38 -6.12355 -0.43525 0
M  V30 21757 C 2058.75 -6.19505 -0.247678 0
M  V30 21758 C 2060.81 -4.92533 -0.729077 0
M  V30 21759 C 2059.51 -7.18047 0.424437 0
M  V30 21760 C 2061.54 -5.91358 -0.0707225 0
M  V30 21761 C 2060.9 -7.02623 0.499994 0
M  V30 21762 H 2057 -0.680585 -0.385134 0
M  V30 21763 H 2059.58 -1.90974 -0.379095 0
M  V30 21764 H 2057.75 -2.73109 -2.76163 0
M  V30 21765 H 2059.49 -2.97776 -2.74065 0
M  V30 21766 H 2056.24 -4.51462 -1.43103 0
M  V30 21767 H 2056.66 -6.76934 -0.0944978 0
M  V30 21768 H 2061.31 -4.06688 -1.15607 0
M  V30 21769 H 2059.02 -8.03475 0.863349 0
M  V30 21770 H 2062.61 -5.818 0.00605785 0
M  V30 21771 H 2061.49 -7.7778 1.00136 0
M  V30 21772 N 2058.99 0.615033 -1.45104 0
M  V30 21773 C 2060.24 1.37436 -1.49943 0
M  V30 21774 C 2060.59 1.91917 -0.136286 0
M  V30 21775 O 2059.89 1.71675 0.850787 0
M  V30 21776 C 2060.08 2.54609 -2.50816 0
M  V30 21777 C 2059.91 2.11602 -3.96806 0
M  V30 21778 C 2058.68 1.98123 -4.64839 0
M  V30 21779 C 2060.88 1.69524 -4.85557 0
M  V30 21780 N 2058.86 1.48847 -5.95582 0
M  V30 21781 C 2060.23 1.31611 -6.0587 0
M  V30 21782 C 2062.29 1.57049 -4.72483 0
M  V30 21783 C 2060.99 0.824676 -7.14557 0
M  V30 21784 C 2063.02 1.09311 -5.8121 0
M  V30 21785 C 2062.38 0.723566 -7.00674 0
M  V30 21786 H 2058.48 0.49711 -0.60366 0
M  V30 21787 H 2061.06 0.703888 -1.81531 0
M  V30 21788 H 2059.23 3.19262 -2.21193 0
M  V30 21789 H 2060.96 3.21465 -2.4585 0
M  V30 21790 H 2057.72 2.19078 -4.19883 0
M  V30 21791 H 2058.14 1.26463 -6.65084 0
M  V30 21792 H 2062.78 1.84247 -3.80543 0
M  V30 21793 H 2060.5 0.540235 -8.06292 0
M  V30 21794 H 2064.09 1.00094 -5.73125 0
M  V30 21795 H 2062.97 0.359841 -7.83374 0
M  V30 21796 N 2060.47 1.3227 0.85688 0
M  V30 21797 C 2061.42 1.2102 1.96527 0
M  V30 21798 C 2062.39 0.0928848 1.6584 0
M  V30 21799 O 2063.57 0.268043 1.88908 0
M  V30 21800 C 2060.71 0.936943 3.32138 0
M  V30 21801 C 2059.83 2.13883 3.75337 0
M  V30 21802 C 2058.96 1.80125 4.99728 0
M  V30 21803 C 2058 2.96647 5.35413 0
M  V30 21804 N 2057.14 2.62997 6.50982 0
M  V30 21805 H 2061.98 2.15827 2.05481 0
M  V30 21806 H 2059.51 1.07346 1.00575 0
M  V30 21807 H 2061.47 0.759018 4.10237 0
M  V30 21808 H 2060.1 0.025663 3.2279 0
M  V30 21809 H 2059.15 2.4271 2.92909 0
M  V30 21810 H 2060.47 3.01052 3.97705 0
M  V30 21811 H 2059.62 1.58871 5.8553 0
M  V30 21812 H 2058.36 0.901662 4.79293 0
M  V30 21813 H 2057.36 3.18535 4.48124 0
M  V30 21814 H 2058.59 3.87335 5.57807 0
M  V30 21815 H 2056.54 1.75576 6.32067 0
M  V30 21816 H 2056.45 3.43696 6.73357 0
M  V30 21817 H 2057.72 2.45168 7.39941 0
M  V30 21818 N 2061.95 -1.07287 1.15444 0
M  V30 21819 C 2063.37 -1.31993 0.897222 0
M  V30 21820 C 2063.57 -1.96286 -0.455437 0
M  V30 21821 O 2062.62 -2.22313 -1.19722 0
M  V30 21822 C 2063.93 -2.2104 2.03868 0
M  V30 21823 C 2065.48 -2.34486 2.07329 0
M  V30 21824 C 2065.96 -3.26882 3.20799 0
M  V30 21825 N 2067.45 -3.34463 3.20451 0
M  V30 21826 C 2068.18 -4.06019 4.0489 0
M  V30 21827 N 2067.68 -4.80184 4.99395 0
M  V30 21828 N 2069.47 -4.01967 3.92911 0
M  V30 21829 H 2061.62 -0.639423 2.02547 0
M  V30 21830 H 2063.89 -0.344393 0.883231 0
M  V30 21831 H 2063.59 -1.8106 3.01513 0
M  V30 21832 H 2063.47 -3.21571 1.9716 0
M  V30 21833 H 2065.85 -2.73719 1.10282 0
M  V30 21834 H 2065.93 -1.33658 2.18104 0
M  V30 21835 H 2065.58 -2.88368 4.18098 0
M  V30 21836 H 2065.51 -4.27667 3.0726 0
M  V30 21837 H 2068 -2.816 2.52012 0
M  V30 21838 H 2068.31 -5.32281 5.60265 0
M  V30 21839 H 2066.66 -4.79198 5.03383 0
M  V30 21840 H 2069.85 -3.43139 3.18392 0
M  V30 21841 H 2070.02 -4.57468 4.58942 0
M  V30 21842 N 2063.43 -0.951342 -1.25647 0
M  V30 21843 C 2064.34 -0.475416 -2.29732 0
M  V30 21844 C 2065.35 0.455617 -1.67929 0
M  V30 21845 O 2066.53 0.332666 -1.98634 0
M  V30 21846 C 2063.59 0.242274 -3.45852 0
M  V30 21847 C 2062.66 -0.726566 -4.23107 0
M  V30 21848 C 2061.89 -0.043031 -5.33683 0
M  V30 21849 O 2062.11 1.17196 -5.5823 0
M  V30 21850 O 2061.05 -0.726899 -5.97495 0
M  V30 21851 H 2064.87 -1.34027 -2.72526 0
M  V30 21852 H 2062.46 -0.717655 -1.31035 0
M  V30 21853 H 2064.34 0.646132 -4.16417 0
M  V30 21854 H 2063.01 1.08236 -3.05068 0
M  V30 21855 H 2061.92 -1.18057 -3.54984 0
M  V30 21856 H 2063.25 -1.53457 -4.67666 0
M  V30 21857 N 2064.91 1.40216 -0.719531 0
M  V30 21858 C 2066.15 2.00047 -0.25771 0
M  V30 21859 C 2066.47 1.57718 1.15692 0
M  V30 21860 O 2067.67 2.10275 1.71746 0
M  V30 21861 C 2066.13 3.57559 -0.409824 0
M  V30 21862 C 2065.74 4.08859 -1.83134 0
M  V30 21863 C 2067.48 4.24499 -0.00899594 0
M  V30 21864 C 2065.39 5.58889 -1.93383 0
M  V30 21865 H 2064.32 0.748293 -0.0925975 0
M  V30 21866 H 2066.97 1.60406 -0.891188 0
M  V30 21867 H 2065.35 3.9492 0.292302 0
M  V30 21868 H 2066.53 3.82867 -2.56417 0
M  V30 21869 H 2064.84 3.54529 -2.18399 0
M  V30 21870 H 2067.44 5.34661 -0.0647997 0
M  V30 21871 H 2067.78 4.03267 1.0335 0
M  V30 21872 H 2068.31 3.92258 -0.66171 0
M  V30 21873 H 2065.05 5.8498 -2.95767 0
M  V30 21874 H 2064.57 5.86733 -1.24517 0
M  V30 21875 H 2066.25 6.24054 -1.70778 0
M  V30 21876 N 2066.38 0.466004 1.50553 0
M  V30 21877 C 2067.29 -0.33625 2.32178 0
M  V30 21878 C 2068.31 -1.00081 1.42337 0
M  V30 21879 O 2069.49 -0.989904 1.75393 0
M  V30 21880 C 2066.55 -1.40682 3.16875 0
M  V30 21881 C 2065.61 -0.759384 4.2253 0
M  V30 21882 C 2064.84 -1.77894 5.03179 0
M  V30 21883 O 2065.07 -3.00483 4.84836 0
M  V30 21884 O 2064 -1.35358 5.86483 0
M  V30 21885 H 2067.83 0.330908 3.01892 0
M  V30 21886 H 2065.41 0.22795 1.47651 0
M  V30 21887 H 2067.29 -2.02704 3.69444 0
M  V30 21888 H 2065.97 -2.05753 2.49894 0
M  V30 21889 H 2064.88 -0.100338 3.73965 0
M  V30 21890 H 2066.21 -0.151694 4.91966 0
M  V30 21891 N 2067.86 -1.56346 0.198413 0
M  V30 21892 C 2068.77 -2.22855 -0.733001 0
M  V30 21893 C 2069.79 -1.22868 -1.23205 0
M  V30 21894 O 2070.96 -1.55615 -1.27852 0
M  V30 21895 C 2068.03 -2.87746 -1.93399 0
M  V30 21896 C 2067.09 -4.03012 -1.47919 0
M  V30 21897 C 2066.32 -4.64799 -2.62293 0
M  V30 21898 O 2066.55 -4.25516 -3.79859 0
M  V30 21899 O 2065.48 -5.54206 -2.34817 0
M  V30 21900 H 2069.31 -3.03063 -0.196563 0
M  V30 21901 H 2066.89 -1.49368 -0.0310254 0
M  V30 21902 H 2068.77 -3.28788 -2.63584 0
M  V30 21903 H 2067.45 -2.10514 -2.45897 0
M  V30 21904 H 2066.35 -3.66586 -0.746038 0
M  V30 21905 H 2067.69 -4.81917 -1.00084 0
M  V30 21906 N 2069.34 0.0751653 -1.57421 0
M  V30 21907 C 2070.27 1.09007 -2.06494 0
M  V30 21908 C 2071.25 1.40573 -0.957766 0
M  V30 21909 O 2072.44 1.50259 -1.23028 0
M  V30 21910 C 2069.57 2.40446 -2.50605 0
M  V30 21911 C 2068.52 2.2324 -3.65168 0
M  V30 21912 C 2067.85 3.60033 -3.95323 0
M  V30 21913 C 2069.15 1.65642 -4.95338 0
M  V30 21914 H 2070.84 0.681725 -2.91535 0
M  V30 21915 H 2068.39 0.326481 -1.4025 0
M  V30 21916 H 2070.34 3.11734 -2.83548 0
M  V30 21917 H 2069.06 2.83254 -1.62588 0
M  V30 21918 H 2067.72 1.54393 -3.32503 0
M  V30 21919 H 2067.37 4.00404 -3.04443 0
M  V30 21920 H 2067.07 3.4936 -4.72463 0
M  V30 21921 H 2068.59 4.32757 -4.30759 0
M  V30 21922 H 2070.01 2.26793 -5.26534 0
M  V30 21923 H 2068.41 1.65675 -5.76777 0
M  V30 21924 H 2069.48 0.617593 -4.80951 0
M  V30 21925 N 2070.82 1.53744 0.346476 0
M  V30 21926 C 2072.05 1.7453 1.10557 0
M  V30 21927 C 2072.46 0.482996 1.82931 0
M  V30 21928 O 2071.8 -0.554895 1.75119 0
M  V30 21929 C 2071.86 2.86918 2.16606 0
M  V30 21930 C 2071.53 4.26624 1.63832 0
M  V30 21931 C 2072.52 5.08298 1.0922 0
M  V30 21932 C 2070.21 4.73099 1.68767 0
M  V30 21933 C 2072.2 6.34547 0.602434 0
M  V30 21934 C 2069.89 5.99321 1.19403 0
M  V30 21935 C 2070.89 6.79878 0.652331 0
M  V30 21936 O 2070.57 8.03729 0.166038 0
M  V30 21937 H 2070.31 0.586761 0.335689 0
M  V30 21938 H 2072.86 2.0136 0.40536 0
M  V30 21939 H 2071.09 2.55606 2.90177 0
M  V30 21940 H 2072.78 2.95701 2.78057 0
M  V30 21941 H 2073.55 4.73557 1.04731 0
M  V30 21942 H 2069.42 4.10457 2.09871 0
M  V30 21943 H 2072.97 6.9737 0.178953 0
M  V30 21944 H 2068.87 6.33558 1.23591 0
M  V30 21945 H 2069.63 8.18009 0.283599 0
M  V30 21946 N 2072.3 -0.607329 1.45428 0
M  V30 21947 C 2073.24 -1.73916 1.54454 0
M  V30 21948 C 2074.24 -1.64251 0.4145 0
M  V30 21949 O 2075.44 -1.70041 0.59042 0
M  V30 21950 H 2071.82 -0.574581 0.48514 0
M  V30 21951 H 2073.79 -1.6343 2.49666 0
M  V30 21952 C 2072.54 -3.12295 1.52863 0
M  V30 21953 H 2071.86 -3.20392 2.39142 0
M  V30 21954 H 2073.3 -3.91318 1.63236 0
M  V30 21955 C 2071.76 -3.35948 0.2531 0
M  V30 21956 O 2072.29 -3.96125 -0.666944 0
M  V30 21957 N 2070.5 -2.90219 0.148714 0
M  V30 21958 H 2070.04 -2.4143 0.898284 0
M  V30 21959 H 2070 -3.06419 -0.703907 0
M  V30 21960 N 2073.77 -1.32722 -0.849853 0
M  V30 21961 C 2074.72 -1.22024 -1.98023 0
M  V30 21962 C 2075.72 -0.12398 -1.68946 0
M  V30 21963 O 2076.92 -0.287223 -1.77694 0
M  V30 21964 H 2073.3 -0.378378 -0.649873 0
M  V30 21965 H 2075.27 -2.17614 -2.04173 0
M  V30 21966 C 2074.02 -0.965076 -3.34038 0
M  V30 21967 H 2073.34 -1.80084 -3.56945 0
M  V30 21968 H 2074.78 -0.93048 -4.13664 0
M  V30 21969 C 2073.24 0.332137 -3.35259 0
M  V30 21970 O 2073.77 1.34244 -3.78604 0
M  V30 21971 N 2071.98 0.355806 -2.88414 0
M  V30 21972 H 2071.52 -0.46689 -2.53334 0
M  V30 21973 H 2071.48 1.2236 -2.89613 0
M  V30 21974 N 2075.25 1.06673 -1.16011 0
M  V30 21975 C 2076.66 1.60868 -0.947549 0
M  V30 21976 C 2077.01 1.89469 0.509491 0
M  V30 21977 O 2076.14 1.66526 1.38195 0
M  V30 21978 C 2076.73 2.92266 -1.71365 0
M  V30 21979 C 2075.29 3.43177 -1.54618 0
M  V30 21980 C 2074.44 2.17128 -1.72484 0
M  V30 21981 H 2077.39 0.896725 -1.30937 0
M  V30 21982 H 2077.41 3.61505 -1.1872 0
M  V30 21983 H 2076.92 2.71417 -2.77406 0
M  V30 21984 H 2075.03 3.69093 -0.51001 0
M  V30 21985 H 2075.14 4.1876 -2.3276 0
M  V30 21986 H 2073.5 2.27162 -1.15193 0
M  V30 21987 H 2074.29 1.98766 -2.79905 0
M  V30 21988 N 2076.73 0.957992 1.25141 0
M  V30 21989 C 2077.66 0.438189 2.24972 0
M  V30 21990 C 2078.68 -0.447769 1.56521 0
M  V30 21991 O 2079.86 -0.255506 1.76662 0
M  V30 21992 C 2076.96 -0.387644 3.36676 0
M  V30 21993 C 2076.14 0.486109 4.3469 0
M  V30 21994 C 2075.2 -0.282086 5.25443 0
M  V30 21995 O 2074.22 0.320666 5.68296 0
M  V30 21996 N 2075.42 -1.57428 5.58746 0
M  V30 21997 H 2078.19 1.29648 2.70206 0
M  V30 21998 H 2075.75 0.828726 1.39082 0
M  V30 21999 H 2077.74 -0.909356 3.94351 0
M  V30 22000 H 2076.31 -1.14681 2.90804 0
M  V30 22001 H 2075.53 1.18889 3.75844 0
M  V30 22002 H 2076.82 1.08236 4.97154 0
M  V30 22003 H 2076.22 -2.08586 5.25841 0
M  V30 22004 H 2074.78 -2.04189 6.18991 0
M  V30 22005 N 2078.21 -1.39832 0.726957 0
M  V30 22006 C 2079.16 -2.32492 0.0707517 0
M  V30 22007 C 2080.15 -1.5264 -0.734661 0
M  V30 22008 O 2081.36 -1.68361 -0.63675 0
M  V30 22009 H 2077.73 -0.751989 0.00407767 0
M  V30 22010 H 2079.7 -2.85473 0.868774 0
M  V30 22011 C 2078.45 -3.37686 -0.828442 0
M  V30 22012 H 2077.77 -3.99205 -0.218093 0
M  V30 22013 H 2079.21 -4.0499 -1.25534 0
M  V30 22014 C 2077.67 -2.74083 -1.95909 0
M  V30 22015 O 2078.2 -2.61299 -3.051 0
M  V30 22016 N 2076.41 -2.32292 -1.7461 0
M  V30 22017 H 2075.96 -2.4289 -0.858037 0
M  V30 22018 H 2075.91 -1.90075 -2.50437 0
M  V30 22019 N 2079.69 -0.473982 -1.50304 0
M  V30 22020 C 2081.1 -0.0195635 -1.8669 0
M  V30 22021 C 2081.45 1.38613 -1.38856 0
M  V30 22022 O 2080.57 2.02811 -0.754772 0
M  V30 22023 C 2081.17 -0.0287258 -3.38788 0
M  V30 22024 C 2079.73 0.370234 -3.74575 0
M  V30 22025 C 2078.87 -0.412963 -2.74208 0
M  V30 22026 H 2081.83 -0.688116 -1.43006 0
M  V30 22027 H 2081.85 0.772789 -3.7257 0
M  V30 22028 H 2081.36 -1.05193 -3.73572 0
M  V30 22029 H 2079.46 1.39768 -3.45392 0
M  V30 22030 H 2079.57 0.0695687 -4.79049 0
M  V30 22031 H 2077.94 0.13371 -2.54349 0
M  V30 22032 H 2078.72 -1.43573 -3.11836 0
M  V30 22033 N 2081.16 1.56239 -0.206702 0
M  V30 22034 C 2082.07 2.2324 0.721172 0
M  V30 22035 C 2083.09 1.2352 1.22552 0
M  V30 22036 O 2084.27 1.56291 1.27025 0
M  V30 22037 C 2081.33 2.88767 1.91871 0
M  V30 22038 C 2080.39 4.03791 1.45779 0
M  V30 22039 C 2079.63 4.66183 2.59825 0
M  V30 22040 O 2079.85 4.27524 3.77597 0
M  V30 22041 O 2078.78 5.55444 2.31874 0
M  V30 22042 H 2082.61 3.03163 0.180488 0
M  V30 22043 H 2080.19 1.49382 0.0231036 0
M  V30 22044 H 2082.08 3.30181 2.61837 0
M  V30 22045 H 2080.75 2.11815 2.44777 0
M  V30 22046 H 2079.66 3.66976 0.726587 0
M  V30 22047 H 2080.99 4.82441 0.975269 0
M  V30 22048 N 2082.64 -0.0668159 1.57458 0
M  V30 22049 C 2084.06 -0.421716 1.53928 0
M  V30 22050 C 2084.26 -1.78879 0.927602 0
M  V30 22051 O 2083.31 -2.46826 0.532256 0
M  V30 22052 C 2084.63 -0.358209 2.98559 0
M  V30 22053 C 2086.18 -0.438036 3.0992 0
M  V30 22054 C 2086.65 -0.404384 4.56211 0
M  V30 22055 N 2088.14 -0.464311 4.60867 0
M  V30 22056 C 2088.88 -0.460566 5.71547 0
M  V30 22057 N 2088.37 -0.41134 6.91578 0
M  V30 22058 N 2090.17 -0.507495 5.59804 0
M  V30 22059 H 2082.32 0.828281 1.95584 0
M  V30 22060 H 2084.58 0.311307 0.895428 0
M  V30 22061 H 2084.29 0.579727 3.46889 0
M  V30 22062 H 2084.16 -1.16651 3.58709 0
M  V30 22063 H 2086.55 -1.3664 2.6156 0
M  V30 22064 H 2086.63 0.398926 2.5267 0
M  V30 22065 H 2086.27 0.520148 5.0523 0
M  V30 22066 H 2086.2 -1.25895 5.1133 0
M  V30 22067 H 2088.69 -0.506402 3.74492 0
M  V30 22068 H 2089.01 -0.412545 7.71698 0
M  V30 22069 H 2087.35 -0.377953 6.93972 0
M  V30 22070 H 2090.54 -0.543679 4.64932 0
M  V30 22071 H 2090.71 -0.501107 6.4606 0
M  V30 22072 N 2084.12 -1.53926 -0.338317 0
M  V30 22073 C 2085.35 -1.75682 -1.1023 0
M  V30 22074 C 2085.77 -0.497087 -1.81413 0
M  V30 22075 O 2085.13 0.550577 -1.72738 0
M  V30 22076 C 2085.18 -2.94038 -2.08743 0
M  V30 22077 O 2084.28 -2.64552 -3.16364 0
M  V30 22078 H 2083.62 -0.582603 -0.318544 0
M  V30 22079 H 2086.15 -2.00904 -0.387113 0
M  V30 22080 H 2086.16 -3.20973 -2.51873 0
M  V30 22081 H 2084.84 -3.854 -1.56331 0
M  V30 22082 H 2083.41 -2.48521 -2.78014 0
M  V30 22083 N 2085.6 0.599608 -1.45748 0
M  V30 22084 C 2086.53 1.72038 -1.57877 0
M  V30 22085 C 2087.51 1.64578 -0.429893 0
M  V30 22086 O 2088.7 1.82855 -0.654037 0
M  V30 22087 C 2085.83 3.10657 -1.55272 0
M  V30 22088 C 2084.78 3.32936 -2.68957 0
M  V30 22089 C 2084.11 4.71909 -2.51408 0
M  V30 22090 C 2085.41 3.22412 -4.10911 0
M  V30 22091 H 2087.1 1.62144 -2.51694 0
M  V30 22092 H 2084.65 0.778641 -1.21133 0
M  V30 22093 H 2086.6 3.8887 -1.62353 0
M  V30 22094 H 2085.32 3.21411 -0.579891 0
M  V30 22095 H 2083.98 2.57117 -2.61317 0
M  V30 22096 H 2083.63 4.79406 -1.52247 0
M  V30 22097 H 2083.33 4.8777 -3.2765 0
M  V30 22098 H 2084.85 5.52311 -2.60355 0
M  V30 22099 H 2086.27 3.90488 -4.19752 0
M  V30 22100 H 2084.66 3.498 -4.87607 0
M  V30 22101 H 2085.73 2.19732 -4.32256 0
M  V30 22102 N 2087.08 1.33171 0.842803 0
M  V30 22103 C 2088.02 1.23097 1.95232 0
M  V30 22104 C 2088.99 0.110469 1.65732 0
M  V30 22105 O 2090.18 0.288065 1.88613 0
M  V30 22106 C 2087.32 0.972118 3.31125 0
M  V30 22107 C 2086.43 2.17852 3.73047 0
M  V30 22108 C 2085.57 1.85415 4.9779 0
M  V30 22109 C 2084.61 3.0231 5.32236 0
M  V30 22110 N 2083.74 2.69887 6.48156 0
M  V30 22111 H 2088.58 2.17995 2.03181 0
M  V30 22112 H 2086.12 1.08406 0.994308 0
M  V30 22113 H 2088.08 0.802486 4.09409 0
M  V30 22114 H 2086.71 0.0598977 3.22744 0
M  V30 22115 H 2085.76 2.45803 2.90318 0
M  V30 22116 H 2087.07 3.05254 3.94489 0
M  V30 22117 H 2086.23 1.65073 5.83812 0
M  V30 22118 H 2084.97 0.952447 4.78309 0
M  V30 22119 H 2083.97 3.2327 4.44721 0
M  V30 22120 H 2085.2 3.93229 5.53667 0
M  V30 22121 H 2083.14 1.82271 6.30169 0
M  V30 22122 H 2083.06 3.50818 6.69673 0
M  V30 22123 H 2084.33 2.53002 7.37299 0
M  V30 22124 N 2088.56 -1.06056 1.16576 0
M  V30 22125 C 2089.8 -1.78899 0.94875 0
M  V30 22126 C 2090.13 -1.87329 -0.523266 0
M  V30 22127 O 2089.39 -1.36291 -1.40439 0
M  V30 22128 C 2089.68 -3.23265 1.52429 0
M  V30 22129 C 2089.35 -3.34911 3.01904 0
M  V30 22130 C 2088.01 -3.37796 3.42706 0
M  V30 22131 C 2090.36 -3.36636 3.97902 0
M  V30 22132 C 2087.69 -3.40025 4.78121 0
M  V30 22133 C 2090.04 -3.40403 5.33206 0
M  V30 22134 C 2088.71 -3.41572 5.73485 0
M  V30 22135 H 2087.98 -0.654639 0.347172 0
M  V30 22136 H 2090.63 -1.24708 1.45328 0
M  V30 22137 H 2088.93 -3.80326 0.94126 0
M  V30 22138 H 2090.63 -3.7823 1.33204 0
M  V30 22139 H 2087.22 -3.33372 2.69372 0
M  V30 22140 H 2091.4 -3.33615 3.67443 0
M  V30 22141 H 2086.66 -3.39236 5.08654 0
M  V30 22142 H 2090.83 -3.40686 6.07377 0
M  V30 22143 H 2088.46 -3.43052 6.78395 0
M  V30 22144 N 2090.03 -0.964615 -1.24631 0
M  V30 22145 C 2091.31 -0.54181 -1.87946 0
M  V30 22146 C 2091.69 0.981047 -1.86919 0
M  V30 22147 O 2091.04 1.85109 -1.33966 0
M  V30 22148 C 2091.25 -1.12982 -3.30206 0
M  V30 22149 C 2092.6 -1.21281 -4.0691 0
M  V30 22150 O 2093.62 -1.0821 -3.39366 0
M  V30 22151 O 2092.48 -1.41904 -5.27755 0
M  V30 22152 H 2089.57 -0.180209 -0.807127 0
M  V30 22153 H 2092.12 -1.05869 -1.32627 0
M  V30 22154 H 2090.89 -2.17271 -3.25436 0
M  V30 22155 H 2090.51 -0.596798 -3.93096 0
M  V30 22156 N 2091.51 1.39445 -0.734362 0
M  V30 22157 C 2092.76 2.0013 -0.281468 0
M  V30 22158 C 2093.08 1.58562 1.13504 0
M  V30 22159 O 2092.35 0.833568 1.77281 0
M  V30 22160 H 2090.93 0.74013 -0.101076 0
M  V30 22161 H 2093.59 1.70503 -0.944178 0
M  V30 22162 H 2092.69 3.10357 -0.329356 0
M  V30 22163 N 2092.99 0.481946 1.5005 0
M  V30 22164 C 2093.92 -0.352787 2.25457 0
M  V30 22165 C 2094.9 -0.986902 1.29225 0
M  V30 22166 O 2096.08 -1.02072 1.58472 0
M  V30 22167 C 2093.21 -1.4952 3.0391 0
M  V30 22168 C 2092.26 -0.977381 4.1515 0
M  V30 22169 S 2093.09 0.116634 5.35373 0
M  V30 22170 C 2094.25 -1.0294 6.17377 0
M  V30 22171 H 2094.48 0.287284 2.95909 0
M  V30 22172 H 2092.01 0.266971 1.52074 0
M  V30 22173 H 2093.97 -2.14989 3.497 0
M  V30 22174 H 2092.63 -2.10682 2.32963 0
M  V30 22175 H 2091.82 -1.83296 4.69488 0
M  V30 22176 H 2091.43 -0.400227 3.71852 0
M  V30 22177 H 2093.72 -1.93874 6.49168 0
M  V30 22178 H 2094.66 -0.525055 7.06151 0
M  V30 22179 H 2095.07 -1.28813 5.49607 0
M  V30 22180 N 2094.47 -1.56127 0.214985 0
M  V30 22181 C 2095.71 -1.99176 -0.412386 0
M  V30 22182 C 2096.07 -1.10004 -1.57851 0
M  V30 22183 O 2095.36 -0.148599 -1.91023 0
M  V30 22184 C 2095.56 -3.45828 -0.902084 0
M  V30 22185 C 2095.38 -4.49186 0.215047 0
M  V30 22186 C 2094.15 -5.00713 0.679276 0
M  V30 22187 C 2096.35 -5.0386 1.03102 0
M  V30 22188 N 2094.33 -5.87765 1.77215 0
M  V30 22189 C 2095.71 -5.87773 1.97289 0
M  V30 22190 C 2097.76 -4.8624 1.0712 0
M  V30 22191 C 2096.46 -6.5595 2.95165 0
M  V30 22192 C 2098.49 -5.55171 2.03811 0
M  V30 22193 C 2097.85 -6.38847 2.96738 0
M  V30 22194 H 2093.95 -0.773083 -0.117759 0
M  V30 22195 H 2096.53 -1.91964 0.325249 0
M  V30 22196 H 2094.71 -3.535 -1.6091 0
M  V30 22197 H 2096.44 -3.75806 -1.50172 0
M  V30 22198 H 2093.19 -4.72835 0.269042 0
M  V30 22199 H 2093.62 -6.35993 2.32039 0
M  V30 22200 H 2098.26 -4.21207 0.366691 0
M  V30 22201 H 2095.98 -7.20169 3.66581 0
M  V30 22202 H 2099.56 -5.43507 2.07585 0
M  V30 22203 H 2098.44 -6.91246 3.70336 0
M  V30 22204 N 2095.95 0.0584645 -1.57492 0
M  V30 22205 C 2097.19 0.75396 -1.87078 0
M  V30 22206 C 2097.51 1.78063 -0.809512 0
M  V30 22207 O 2098.71 2.52664 -0.993649 0
M  V30 22208 C 2097.17 1.39192 -3.31894 0
M  V30 22209 C 2096.78 0.403126 -4.46183 0
M  V30 22210 C 2098.52 2.069 -3.70665 0
M  V30 22211 C 2096.43 1.04775 -5.82045 0
M  V30 22212 H 2095.36 0.28534 -0.697923 0
M  V30 22213 H 2098.01 0.0075332 -1.83498 0
M  V30 22214 H 2096.39 2.18706 -3.30127 0
M  V30 22215 H 2097.57 -0.36317 -4.59367 0
M  V30 22216 H 2095.88 -0.170238 -4.16052 0
M  V30 22217 H 2098.48 2.55929 -4.69473 0
M  V30 22218 H 2098.82 2.87433 -3.01145 0
M  V30 22219 H 2099.35 1.342 -3.7448 0
M  V30 22220 H 2096.09 0.282468 -6.54891 0
M  V30 22221 H 2095.61 1.78459 -5.72636 0
M  V30 22222 H 2097.29 1.56372 -6.27819 0
M  V30 22223 N 2097.42 1.54103 0.330149 0
M  V30 22224 C 2098.7 1.62635 1.0867 0
M  V30 22225 C 2099.08 0.456041 2.06115 0
M  V30 22226 O 2098.43 -0.550367 2.21773 0
M  V30 22227 C 2098.64 2.99332 1.79448 0
M  V30 22228 C 2099.99 3.55151 2.32708 0
M  V30 22229 O 2101.01 3.01594 1.89525 0
M  V30 22230 O 2099.87 4.4886 3.11749 0
M  V30 22231 H 2096.96 0.658337 0.500521 0
M  V30 22232 H 2099.51 1.66449 0.330568 0
M  V30 22233 H 2098.28 3.75947 1.08532 0
M  V30 22234 H 2097.9 2.99167 2.61887 0
M  V30 22235 N 2098.9 -0.59187 1.46064 0
M  V30 22236 C 2099.84 -1.71592 1.50438 0
M  V30 22237 C 2100.81 -1.58581 0.359289 0
M  V30 22238 O 2102 -1.79924 0.562102 0
M  V30 22239 C 2099.12 -3.09566 1.37429 0
M  V30 22240 C 2098.17 -3.41123 2.56003 0
M  V30 22241 S 2099 -3.34211 4.18405 0
M  V30 22242 C 2100.16 -4.74739 4.0789 0
M  V30 22243 H 2100.39 -1.67621 2.45541 0
M  V30 22244 H 2097.93 -0.769851 1.33838 0
M  V30 22245 H 2099.88 -3.89167 1.30611 0
M  V30 22246 H 2098.54 -3.11035 0.437694 0
M  V30 22247 H 2097.74 -4.41622 2.4287 0
M  V30 22248 H 2097.34 -2.6907 2.59764 0
M  V30 22249 H 2099.63 -5.64913 3.74004 0
M  V30 22250 H 2100.57 -4.9293 5.08356 0
M  V30 22251 H 2100.98 -4.51158 3.39288 0
M  V30 22252 N 2100.38 -1.33616 -0.835729 0
M  V30 22253 C 2101.33 -1.24117 -1.96717 0
M  V30 22254 C 2102.32 -0.141892 -1.68805 0
M  V30 22255 O 2103.53 -0.306054 -1.77379 0
M  V30 22256 H 2099.9 -0.385249 -0.645823 0
M  V30 22257 H 2101.87 -2.19767 -2.01854 0
M  V30 22258 C 2100.62 -1.00045 -3.32996 0
M  V30 22259 H 2099.95 -1.8386 -3.55015 0
M  V30 22260 H 2101.39 -0.974302 -4.12654 0
M  V30 22261 C 2099.85 0.296559 -3.35592 0
M  V30 22262 O 2100.38 1.30221 -3.80007 0
M  V30 22263 N 2098.58 0.325196 -2.88775 0
M  V30 22264 H 2098.13 -0.493733 -2.52824 0
M  V30 22265 H 2098.09 1.19281 -2.90894 0
M  V30 22266 N 2101.86 1.05436 -1.17136 0
M  V30 22267 C 2102.77 2.16633 -0.900413 0
M  V30 22268 C 2103.78 1.7351 0.130523 0
M  V30 22269 O 2104.96 2.01342 -0.0481629 0
M  V30 22270 C 2102.03 3.4421 -0.414754 0
M  V30 22271 C 2101.09 4.01793 -1.51198 0
M  V30 22272 C 2100.32 5.23281 -1.0494 0
M  V30 22273 O 2100.54 5.70317 0.0974405 0
M  V30 22274 O 2099.48 5.73041 -1.8414 0
M  V30 22275 H 2103.3 2.42336 -1.83049 0
M  V30 22276 H 2100.89 1.15137 -0.952042 0
M  V30 22277 H 2102.77 4.21128 -0.151319 0
M  V30 22278 H 2101.44 3.20013 0.487199 0
M  V30 22279 H 2100.35 3.26326 -1.82926 0
M  V30 22280 H 2101.68 4.30304 -2.38955 0
M  V30 22281 N 2103.34 0.971211 1.24118 0
M  V30 22282 C 2104.75 0.673347 1.74135 0
M  V30 22283 C 2105.1 -0.810809 1.78663 0
M  V30 22284 O 2104.22 -1.63435 1.41838 0
M  V30 22285 C 2104.82 1.21558 3.16242 0
M  V30 22286 C 2103.38 0.967552 3.63752 0
M  V30 22287 C 2102.52 1.34881 2.42286 0
M  V30 22288 H 2105.48 1.14613 1.09771 0
M  V30 22289 H 2105.5 0.583554 3.75999 0
M  V30 22290 H 2105.01 2.29578 3.12914 0
M  V30 22291 H 2103.11 -0.0969669 3.72474 0
M  V30 22292 H 2103.22 1.61567 4.51035 0
M  V30 22293 H 2101.59 0.767209 2.4287 0
M  V30 22294 H 2102.37 2.43858 2.41637 0
M  V30 22295 N 2104.81 -1.39054 0.741747 0
M  V30 22296 C 2106.04 -2.05193 0.301789 0
M  V30 22297 C 2106.46 -1.55567 -1.05739 0
M  V30 22298 O 2105.82 -0.702382 -1.67141 0
M  V30 22299 C 2105.87 -3.59172 0.320615 0
M  V30 22300 O 2104.97 -4.06596 -0.68946 0
M  V30 22301 H 2104.32 -0.649957 0.135837 0
M  V30 22302 H 2106.85 -1.77958 1.00956 0
M  V30 22303 H 2106.86 -4.07657 0.167351 0
M  V30 22304 H 2105.53 -3.94652 1.31234 0
M  V30 22305 H 2104.11 -3.69509 -0.50178 0
M  V30 22306 N 2106.29 -0.489897 -1.49792 0
M  V30 22307 C 2107.52 0.0578875 -2.07319 0
M  V30 22308 C 2107.94 1.31067 -1.34919 0
M  V30 22309 O 2107.3 1.76775 -0.402515 0
M  V30 22310 C 2107.35 0.305835 -3.59301 0
M  V30 22311 O 2106.45 1.38274 -3.88528 0
M  V30 22312 H 2105.79 -0.021301 -0.663658 0
M  V30 22313 H 2108.32 -0.686335 -1.92745 0
M  V30 22314 H 2108.33 0.540697 -4.04401 0
M  V30 22315 H 2107.01 -0.609525 -4.11409 0
M  V30 22316 H 2105.59 1.13371 -3.55248 0
M  V30 22317 N 2107.77 1.56011 -0.223262 0
M  V30 22318 C 2109.02 1.98348 0.407977 0
M  V30 22319 C 2109.35 1.11094 1.59651 0
M  V30 22320 O 2108.6 0.156272 1.95075 0
M  V30 22321 C 2108.9 3.46302 0.883731 0
M  V30 22322 C 2108.57 4.5048 -0.194465 0
M  V30 22323 C 2107.23 4.78692 -0.490651 0
M  V30 22324 C 2109.58 5.12952 -0.923571 0
M  V30 22325 C 2106.91 5.66657 -1.52043 0
M  V30 22326 C 2109.26 6.02032 -1.9427 0
M  V30 22327 C 2107.92 6.28586 -2.24579 0
M  V30 22328 H 2107.19 0.725806 0.149289 0
M  V30 22329 H 2109.84 1.88702 -0.326139 0
M  V30 22330 H 2108.15 3.53159 1.69664 0
M  V30 22331 H 2109.84 3.76432 1.38202 0
M  V30 22332 H 2106.43 4.28575 0.046538 0
M  V30 22333 H 2110.62 4.91224 -0.707988 0
M  V30 22334 H 2105.87 5.85495 -1.76086 0
M  V30 22335 H 2110.05 6.49489 -2.51272 0
M  V30 22336 H 2107.67 6.96545 -3.04515 0
M  V30 22337 N 2109.25 -0.0501116 1.5752 0
M  V30 22338 C 2110.49 -0.7462 1.88573 0
M  V30 22339 C 2110.83 -1.76115 0.818369 0
M  V30 22340 O 2110.1 -1.93764 -0.169013 0
M  V30 22341 C 2110.39 -1.43474 3.30284 0
M  V30 22342 C 2110.24 -0.434736 4.47694 0
M  V30 22343 C 2111.56 -2.37419 3.70568 0
M  V30 22344 H 2108.68 -0.269807 0.685838 0
M  V30 22345 H 2111.32 -0.00912382 1.89998 0
M  V30 22346 H 2109.47 -2.06301 3.29199 0
M  V30 22347 H 2111.14 0.189992 4.60909 0
M  V30 22348 H 2109.38 0.24799 4.33091 0
M  V30 22349 H 2110.05 -0.954564 5.43684 0
M  V30 22350 H 2112.53 -1.84653 3.72884 0
M  V30 22351 H 2111.41 -2.82587 4.7057 0
M  V30 22352 H 2111.67 -3.2318 3.01674 0
M  V30 22353 N 2110.73 -1.54276 -0.321972 0
M  V30 22354 C 2111.67 -1.84499 -1.41644 0
M  V30 22355 C 2112.67 -0.717018 -1.53477 0
M  V30 22356 O 2113.87 -0.900704 -1.55844 0
M  V30 22357 H 2110.25 -0.584855 -0.472704 0
M  V30 22358 H 2112.22 -2.76022 -1.13378 0
M  V30 22359 C 2110.97 -2.09051 -2.77836 0
M  V30 22360 H 2110.29 -2.95308 -2.69505 0
M  V30 22361 H 2111.73 -2.3415 -3.53482 0
M  V30 22362 C 2110.19 -0.882537 -3.25135 0
M  V30 22363 O 2110.72 -0.0925862 -4.01593 0
M  V30 22364 N 2108.93 -0.693729 -2.82198 0
M  V30 22365 H 2108.47 -1.33776 -2.2014 0
M  V30 22366 H 2108.43 0.113 -3.14197 0
M  V30 22367 N 2112.2 0.584116 -1.46376 0
M  V30 22368 C 2113.45 1.33973 -1.51313 0
M  V30 22369 C 2113.77 1.94294 -0.165758 0
M  V30 22370 O 2113.04 1.78481 0.807546 0
M  V30 22371 H 2111.62 0.497422 -0.557298 0
M  V30 22372 H 2114.29 0.684191 -1.82496 0
M  V30 22373 H 2113.38 2.14716 -2.26503 0
M  V30 22374 N 2113.68 1.34058 0.828631 0
M  V30 22375 C 2114.65 1.25063 1.92073 0
M  V30 22376 C 2115.65 0.167192 1.59928 0
M  V30 22377 O 2116.84 0.419428 1.69075 0
M  V30 22378 C 2113.97 0.929519 3.27983 0
M  V30 22379 H 2115.16 2.22146 2.01472 0
M  V30 22380 H 2112.71 1.18263 1.02193 0
M  V30 22381 H 2113.45 -0.0383856 3.24277 0
M  V30 22382 H 2113.23 1.71313 3.52696 0
M  V30 22383 H 2114.72 0.891605 4.07971 0
M  V30 22384 N 2115.16 -1.04814 1.17694 0
M  V30 22385 C 2116.41 -1.78147 0.969105 0
M  V30 22386 C 2116.74 -1.87634 -0.500715 0
M  V30 22387 O 2116.02 -1.37892 -1.37172 0
M  V30 22388 C 2116.3 -3.2183 1.61548 0
M  V30 22389 C 2116.15 -3.20332 3.15765 0
M  V30 22390 C 2117.47 -4.19759 1.32251 0
M  V30 22391 H 2114.59 -0.646701 0.353479 0
M  V30 22392 H 2117.23 -1.22485 1.45249 0
M  V30 22393 H 2115.38 -3.69358 1.20445 0
M  V30 22394 H 2117.05 -2.8085 3.65952 0
M  V30 22395 H 2115.3 -2.58568 3.48318 0
M  V30 22396 H 2115.97 -4.21759 3.56123 0
M  V30 22397 H 2118.44 -3.80743 1.67851 0
M  V30 22398 H 2117.32 -5.18527 1.80057 0
M  V30 22399 H 2117.58 -4.41426 0.244002 0
M  V30 22400 N 2116.64 -0.977779 -1.23601 0
M  V30 22401 C 2117.86 -0.662789 -1.96524 0
M  V30 22402 C 2118.29 0.763086 -1.71926 0
M  V30 22403 O 2117.65 1.51941 -0.989123 0
M  V30 22404 C 2117.7 -0.95584 -3.47701 0
M  V30 22405 O 2116.8 -0.046501 -4.12374 0
M  V30 22406 H 2116.14 -0.249541 -0.615325 0
M  V30 22407 H 2118.67 -1.31066 -1.57108 0
M  V30 22408 H 2118.68 -0.891475 -3.98142 0
M  V30 22409 H 2117.36 -1.99494 -3.64932 0
M  V30 22410 H 2115.93 -0.165051 -3.72535 0
M  V30 22411 N 2118.12 1.38658 -0.749111 0
M  V30 22412 C 2119.53 1.82966 -0.371524 0
M  V30 22413 C 2119.88 1.62519 1.09918 0
M  V30 22414 O 2119 1.12394 1.84923 0
M  V30 22415 C 2119.6 3.32158 -0.667553 0
M  V30 22416 C 2118.16 3.74831 -0.343297 0
M  V30 22417 C 2117.31 2.61488 -0.923014 0
M  V30 22418 H 2120.26 1.2745 -0.945625 0
M  V30 22419 H 2120.28 3.80459 0.0558088 0
M  V30 22420 H 2119.79 3.47008 -1.73801 0
M  V30 22421 H 2117.89 3.65562 0.72076 0
M  V30 22422 H 2118 4.71755 -0.83572 0
M  V30 22423 H 2116.37 2.52302 -0.348687 0
M  V30 22424 H 2117.15 2.79138 -1.99841 0
M  V30 22425 N 2119.6 0.497834 1.49531 0
M  V30 22426 C 2120.84 -0.0477142 2.02044 0
M  V30 22427 C 2121.16 -1.37777 1.37994 0
M  V30 22428 O 2120.43 -1.88476 0.534194 0
M  V30 22429 H 2119.01 -0.0206231 0.746715 0
M  V30 22430 H 2121.68 0.654353 1.83587 0
M  V30 22431 H 2120.77 -0.179706 3.11582 0
M  V30 22432 N 2121.07 -1.5589 0.231532 0
M  V30 22433 C 2122.31 -2.00464 -0.399177 0
M  V30 22434 C 2122.68 -1.11596 -1.56238 0
M  V30 22435 O 2123.88 -1.4556 -2.25977 0
M  V30 22436 C 2122.15 -3.48025 -0.813243 0
M  V30 22437 S 2123.71 -4.14615 -1.43665 0
M  V30 22438 H 2120.53 -0.699696 -0.126279 0
M  V30 22439 H 2123.13 -1.92465 0.343163 0
M  V30 22440 H 2121.83 -4.10378 0.0428651 0
M  V30 22441 H 2121.36 -3.59919 -1.58815 0
M  V30 22442 H 2123.38 -4.14629 -2.72575 0
M  V30 22443 N 2122.55 0.0417572 -1.57545 0
M  V30 22444 C 2123.97 0.397174 -1.54579 0
M  V30 22445 C 2124.17 1.77381 -0.955943 0
M  V30 22446 O 2123.22 2.45948 -0.571457 0
M  V30 22447 C 2124.54 0.310665 -2.99091 0
M  V30 22448 C 2126.08 0.388675 -3.10577 0
M  V30 22449 C 2126.56 0.331754 -4.56797 0
M  V30 22450 N 2128.05 0.390933 -4.61547 0
M  V30 22451 C 2128.79 0.36958 -5.72208 0
M  V30 22452 N 2128.28 0.301264 -6.92145 0
M  V30 22453 N 2130.07 0.41837 -5.60541 0
M  V30 22454 H 2122.23 -0.859292 -1.94242 0
M  V30 22455 H 2124.49 -0.325513 -0.890362 0
M  V30 22456 H 2124.19 -0.634841 -3.45923 0
M  V30 22457 H 2124.07 1.10929 -3.6052 0
M  V30 22458 H 2126.46 1.32461 -2.63701 0
M  V30 22459 H 2126.54 -0.439073 -2.52004 0
M  V30 22460 H 2126.18 -0.60046 -5.04338 0
M  V30 22461 H 2126.11 1.17744 -5.13268 0
M  V30 22462 H 2128.6 0.44676 -3.7525 0
M  V30 22463 H 2128.91 0.289723 -7.72257 0
M  V30 22464 H 2127.26 0.2675 -6.94485 0
M  V30 22465 H 2130.45 0.469643 -4.65738 0
M  V30 22466 H 2130.62 0.398261 -6.46775 0
M  V30 22467 N 2124.03 1.54445 0.313786 0
M  V30 22468 C 2125.31 1.63779 1.06939 0
M  V30 22469 C 2125.69 0.477876 2.0562 0
M  V30 22470 O 2125.03 -0.526814 2.22344 0
M  V30 22471 C 2125.24 3.01218 1.76263 0
M  V30 22472 C 2126.59 3.57599 2.28928 0
M  V30 22473 O 2127.62 3.03587 1.86316 0
M  V30 22474 O 2126.48 4.52141 3.06971 0
M  V30 22475 H 2123.57 0.663608 0.493511 0
M  V30 22476 H 2126.12 1.6679 0.312895 0
M  V30 22477 H 2124.89 3.77077 1.04539 0
M  V30 22478 H 2124.51 3.01928 2.58699 0
M  V30 22479 N 2125.51 -0.576345 1.46683 0
M  V30 22480 C 2126.47 -1.66698 1.57303 0
M  V30 22481 C 2127.47 -1.54385 0.449647 0
M  V30 22482 O 2128.66 -1.58888 0.71415 0
M  V30 22483 C 2125.79 -3.06156 1.49938 0
M  V30 22484 H 2126.99 -1.58638 2.54507 0
M  V30 22485 H 2124.54 -0.79471 1.34588 0
M  V30 22486 H 2125.27 -3.19766 0.540379 0
M  V30 22487 H 2125.06 -3.16502 2.3145 0
M  V30 22488 H 2126.55 -3.85538 1.60469 0
M  V30 22489 N 2126.99 -1.34495 -0.82151 0
M  V30 22490 C 2128.21 -1.30164 -1.61468 0
M  V30 22491 C 2128.64 0.121303 -1.87708 0
M  V30 22492 O 2127.99 1.08349 -1.45362 0
M  V30 22493 C 2128.04 -2.09951 -2.93177 0
M  V30 22494 O 2127.15 -1.47 -3.85311 0
M  V30 22495 H 2126.49 -0.446975 -0.491029 0
M  V30 22496 H 2129.02 -1.77318 -1.02075 0
M  V30 22497 H 2129.03 -2.21359 -3.4273 0
M  V30 22498 H 2127.7 -3.13407 -2.73402 0
M  V30 22499 H 2126.28 -1.44343 -3.4383 0
M  V30 22500 N 2128.46 1.04188 -1.18248 0
M  V30 22501 C 2129.39 2.14099 -0.931872 0
M  V30 22502 C 2130.38 1.69603 0.129961 0
M  V30 22503 O 2131.56 1.94187 -0.0223769 0
M  V30 22504 C 2128.69 3.443 -0.455463 0
M  V30 22505 C 2127.64 4.02414 -1.45764 0
M  V30 22506 C 2126.97 5.2808 -0.838796 0
M  V30 22507 C 2128.27 4.38729 -2.83397 0
M  V30 22508 H 2129.96 2.35321 -1.85106 0
M  V30 22509 H 2127.51 1.13091 -0.891421 0
M  V30 22510 H 2129.46 4.2055 -0.267505 0
M  V30 22511 H 2128.19 3.22761 0.499291 0
M  V30 22512 H 2126.85 3.28245 -1.63251 0
M  V30 22513 H 2126.49 5.02849 0.123108 0
M  V30 22514 H 2126.19 5.67923 -1.5079 0
M  V30 22515 H 2127.72 6.07008 -0.661341 0
M  V30 22516 H 2129.13 5.0597 -2.69568 0
M  V30 22517 H 2127.53 4.89618 -3.46979 0
M  V30 22518 H 2128.6 3.48613 -3.37041 0
M  V30 22519 N 2129.94 0.98432 1.23081 0
M  V30 22520 C 2130.89 0.520259 2.26707 0
M  V30 22521 C 2131.88 -0.424715 1.63989 0
M  V30 22522 O 2133.09 -0.298177 1.77513 0
M  V30 22523 H 2129.47 0.149826 0.736923 0
M  V30 22524 H 2131.44 1.40587 2.63207 0
M  V30 22525 C 2130.19 -0.157874 3.47341 0
M  V30 22526 H 2129.51 0.560186 3.95856 0
M  V30 22527 H 2130.95 -0.446157 4.21646 0
M  V30 22528 C 2129.41 -1.3904 3.0687 0
M  V30 22529 O 2129.94 -2.48637 3.15503 0
M  V30 22530 N 2128.14 -1.26249 2.61743 0
M  V30 22531 H 2127.69 -0.370736 2.54918 0
M  V30 22532 H 2127.65 -2.08824 2.35032 0
M  V30 22533 N 2131.42 -1.38259 0.756453 0
M  V30 22534 C 2132.37 -2.27752 0.10629 0
M  V30 22535 C 2133.35 -1.45343 -0.690231 0
M  V30 22536 O 2134.55 -1.6805 -0.555715 0
M  V30 22537 C 2131.68 -3.34231 -0.783865 0
M  V30 22538 C 2130.76 -4.24095 0.0196592 0
M  V30 22539 N 2131.15 -4.94621 1.05753 0
M  V30 22540 C 2129.45 -4.45521 -0.206711 0
M  V30 22541 C 2130.15 -5.60837 1.54393 0
M  V30 22542 N 2129.13 -5.36774 0.85873 0
M  V30 22543 H 2132.93 -2.79744 0.901144 0
M  V30 22544 H 2130.44 -1.51195 0.592764 0
M  V30 22545 H 2132.44 -3.97235 -1.26529 0
M  V30 22546 H 2131.1 -2.83797 -1.57764 0
M  V30 22547 H 2132.11 -4.97496 1.43938 0
M  V30 22548 H 2128.79 -4.05989 -0.973599 0
M  V30 22549 H 2130.18 -6.27245 2.4086 0
M  V30 22550 N 2132.9 -0.505757 -1.49264 0
M  V30 22551 C 2134.31 -0.0591588 -1.86606 0
M  V30 22552 C 2134.66 1.35636 -1.41765 0
M  V30 22553 O 2133.79 2.01164 -0.797622 0
M  V30 22554 C 2134.38 -0.100581 -3.38651 0
M  V30 22555 C 2132.94 0.290698 -3.75276 0
M  V30 22556 C 2132.09 -0.471033 -2.7327 0
M  V30 22557 H 2135.04 -0.718294 -1.41514 0
M  V30 22558 H 2135.06 0.693588 -3.74125 0
M  V30 22559 H 2134.57 -1.13093 -3.71257 0
M  V30 22560 H 2132.67 1.3241 -3.48279 0
M  V30 22561 H 2132.78 -0.0320604 -4.79089 0
M  V30 22562 H 2131.15 0.0797288 -2.54575 0
M  V30 22563 H 2131.93 -1.50155 -3.0872 0
M  V30 22564 N 2134.38 1.55765 -0.239796 0
M  V30 22565 C 2135.79 1.84814 0.264689 0
M  V30 22566 C 2136.14 1.16151 1.58124 0
M  V30 22567 O 2135.26 0.437435 2.11933 0
M  V30 22568 C 2135.86 3.35281 0.487032 0
M  V30 22569 C 2134.42 3.64582 0.935793 0
M  V30 22570 C 2133.56 2.77299 0.00901728 0
M  V30 22571 H 2136.52 1.5181 -0.46254 0
M  V30 22572 H 2136.54 3.56476 1.33061 0
M  V30 22573 H 2136.05 3.85227 -0.471338 0
M  V30 22574 H 2134.15 3.20108 1.90688 0
M  V30 22575 H 2134.26 4.72415 0.797573 0
M  V30 22576 H 2132.63 2.49354 0.519113 0
M  V30 22577 H 2133.41 3.30049 -0.944598 0
M  V30 22578 N 2135.85 -0.0334016 1.57565 0
M  V30 22579 C 2137.08 -0.735904 1.93049 0
M  V30 22580 C 2137.49 -1.6965 0.837577 0
M  V30 22581 O 2136.84 -1.82661 -0.195087 0
M  V30 22582 C 2136.9 -1.55137 3.24303 0
M  V30 22583 C 2136.56 -0.756022 4.50703 0
M  V30 22584 C 2137.56 -0.0582042 5.19867 0
M  V30 22585 C 2135.24 -0.711843 4.9723 0
M  V30 22586 C 2137.24 0.67314 6.33836 0
M  V30 22587 C 2134.92 0.0232493 6.11096 0
M  V30 22588 C 2135.92 0.714505 6.79252 0
M  V30 22589 O 2135.61 1.43767 7.9094 0
M  V30 22590 H 2135.34 -0.212131 0.641854 0
M  V30 22591 H 2137.9 0.00370645 2.054 0
M  V30 22592 H 2136.13 -2.3347 3.08267 0
M  V30 22593 H 2137.82 -2.13609 3.45147 0
M  V30 22594 H 2138.58 -0.083394 4.84928 0
M  V30 22595 H 2134.46 -1.23938 4.44027 0
M  V30 22596 H 2138 1.21324 6.86969 0
M  V30 22597 H 2133.9 0.0503776 6.4548 0
M  V30 22598 H 2134.67 1.3509 8.07275 0
M  V30 22599 N 2137.33 -1.54609 -0.305591 0
M  V30 22600 C 2138.27 -1.80117 -1.40119 0
M  V30 22601 C 2139.24 -0.652099 -1.48951 0
M  V30 22602 O 2140.43 -0.891546 -1.66083 0
M  V30 22603 C 2137.55 -1.93379 -2.78069 0
M  V30 22604 C 2136.6 -3.15778 -2.86682 0
M  V30 22605 S 2137.43 -4.73958 -2.49247 0
M  V30 22606 C 2138.59 -4.90151 -3.89234 0
M  V30 22607 H 2138.82 -2.72762 -1.18272 0
M  V30 22608 H 2136.36 -1.45962 -0.503446 0
M  V30 22609 H 2138.31 -2.01706 -3.57526 0
M  V30 22610 H 2136.97 -1.0168 -2.97187 0
M  V30 22611 H 2136.17 -3.21846 -3.87854 0
M  V30 22612 H 2135.77 -3.05874 -2.15214 0
M  V30 22613 H 2138.06 -4.73892 -4.84183 0
M  V30 22614 H 2139 -5.92245 -3.88138 0
M  V30 22615 H 2139.41 -4.18332 -3.79023 0
M  V30 22616 N 2138.81 0.568558 -1.46987 0
M  V30 22617 C 2140.22 1.1507 -1.47023 0
M  V30 22618 C 2140.57 1.94977 -0.218726 0
M  V30 22619 O 2139.7 2.05531 0.677201 0
M  V30 22620 C 2140.29 2.09348 -2.66381 0
M  V30 22621 C 2138.85 2.62857 -2.69413 0
M  V30 22622 C 2138 1.39006 -2.39943 0
M  V30 22623 H 2140.95 0.355745 -1.54661 0
M  V30 22624 H 2140.97 2.93044 -2.42705 0
M  V30 22625 H 2140.48 1.51163 -3.57451 0
M  V30 22626 H 2138.58 3.24872 -1.82452 0
M  V30 22627 H 2138.7 3.04626 -3.69784 0
M  V30 22628 H 2137.06 1.69297 -1.90291 0
M  V30 22629 H 2137.84 0.826309 -3.33207 0
M  V30 22630 N 2140.29 1.34929 0.814366 0
M  V30 22631 C 2141.24 1.23759 1.91488 0
M  V30 22632 C 2142.22 0.134628 1.60336 0
M  V30 22633 O 2143.41 0.365112 1.73193 0
M  V30 22634 C 2140.54 1.00392 3.28293 0
M  V30 22635 C 2139.63 2.15044 3.65536 0
M  V30 22636 N 2140.02 3.40221 3.74277 0
M  V30 22637 C 2138.32 2.06258 3.95441 0
M  V30 22638 C 2139.02 4.15568 4.07036 0
M  V30 22639 N 2138 3.44245 4.20709 0
M  V30 22640 H 2141.8 2.18609 1.96436 0
M  V30 22641 H 2139.31 1.2729 1.00851 0
M  V30 22642 H 2141.31 0.904794 4.06963 0
M  V30 22643 H 2139.97 0.0641884 3.24637 0
M  V30 22644 H 2140.98 3.74669 3.57552 0
M  V30 22645 H 2137.66 1.20093 3.99855 0
M  V30 22646 H 2139.05 5.23705 4.20931 0
M  V30 22647 N 2141.77 -1.0356 1.18799 0
M  V30 22648 C 2142.7 -2.13602 0.943213 0
M  V30 22649 C 2143.68 -1.69669 -0.120965 0
M  V30 22650 O 2144.86 -1.94173 0.0326748 0
M  V30 22651 C 2141.99 -3.44054 0.473716 0
M  V30 22652 C 2140.95 -4.01635 1.47896 0
M  V30 22653 C 2140.27 -5.27628 0.866789 0
M  V30 22654 C 2141.57 -4.3722 2.8572 0
M  V30 22655 H 2143.27 -2.34336 1.86351 0
M  V30 22656 H 2140.81 -1.12617 0.897406 0
M  V30 22657 H 2142.77 -4.20402 0.289804 0
M  V30 22658 H 2141.49 -3.23021 -0.482167 0
M  V30 22659 H 2140.15 -3.27374 1.6499 0
M  V30 22660 H 2139.8 -5.02908 -0.0964386 0
M  V30 22661 H 2139.5 -5.67115 1.53799 0
M  V30 22662 H 2141.02 -6.06649 0.693523 0
M  V30 22663 H 2142.43 -5.04533 2.72248 0
M  V30 22664 H 2140.83 -4.87771 3.49571 0
M  V30 22665 H 2141.9 -3.46821 3.38885 0
M  V30 22666 N 2143.25 -0.990834 -1.22557 0
M  V30 22667 C 2144.16 -0.548263 -2.28104 0
M  V30 22668 C 2145.17 0.401961 -1.69293 0
M  V30 22669 O 2146.35 0.269304 -1.99591 0
M  V30 22670 C 2143.41 0.132121 -3.46448 0
M  V30 22671 C 2142.47 -0.860806 -4.20581 0
M  V30 22672 C 2141.71 -0.212796 -5.33276 0
M  V30 22673 O 2141.93 0.993773 -5.61676 0
M  V30 22674 O 2140.86 -0.916619 -5.9488 0
M  V30 22675 H 2144.69 -1.4263 -2.68124 0
M  V30 22676 H 2142.27 -0.758979 -1.28685 0
M  V30 22677 H 2144.16 0.513325 -4.18262 0
M  V30 22678 H 2142.83 0.984754 -3.08357 0
M  V30 22679 H 2141.74 -1.2929 -3.51048 0
M  V30 22680 H 2143.07 -1.68257 -4.62548 0
M  V30 22681 N 2144.72 1.37856 -0.763775 0
M  V30 22682 C 2145.95 2.04686 -0.334395 0
M  V30 22683 C 2146.37 1.57229 1.0325 0
M  V30 22684 O 2145.73 0.728884 1.66003 0
M  V30 22685 C 2145.78 3.58616 -0.377715 0
M  V30 22686 O 2144.88 4.07641 0.624687 0
M  V30 22687 H 2144.22 0.647714 -0.146161 0
M  V30 22688 H 2146.75 1.76329 -1.03774 0
M  V30 22689 H 2146.76 4.07339 -0.232185 0
M  V30 22690 H 2145.44 3.92514 -1.37496 0
M  V30 22691 H 2144.02 3.7026 0.442931 0
M  V30 22692 N 2146.2 0.513665 1.48994 0
M  V30 22693 C 2147.62 0.170439 1.58687 0
M  V30 22694 C 2147.82 -1.32564 1.51754 0
M  V30 22695 O 2146.87 -2.10262 1.39807 0
M  V30 22696 C 2148.19 0.758488 2.90977 0
M  V30 22697 C 2149.73 0.725739 3.0447 0
M  V30 22698 C 2150.21 1.29207 4.39397 0
M  V30 22699 N 2151.7 1.25333 4.45922 0
M  V30 22700 C 2152.44 1.66159 5.48798 0
M  V30 22701 N 2151.93 2.14638 6.58713 0
M  V30 22702 N 2153.72 1.57496 5.39584 0
M  V30 22703 H 2145.88 1.48619 1.51744 0
M  V30 22704 H 2148.14 0.617216 0.719548 0
M  V30 22705 H 2147.84 1.8082 3.01657 0
M  V30 22706 H 2147.72 0.226166 3.76521 0
M  V30 22707 H 2150.11 -0.315169 2.93412 0
M  V30 22708 H 2150.19 1.29535 2.20577 0
M  V30 22709 H 2149.83 2.33183 4.51207 0
M  V30 22710 H 2149.76 0.69829 5.2195 0
M  V30 22711 H 2152.25 0.89826 3.67069 0
M  V30 22712 H 2152.56 2.43827 7.33327 0
M  V30 22713 H 2150.91 2.18621 6.5972 0
M  V30 22714 H 2154.1 1.19432 4.52608 0
M  V30 22715 H 2154.27 1.89636 6.19631 0
M  V30 22716 N 2147.68 -1.55636 0.248053 0
M  V30 22717 C 2148.96 -1.90888 -0.426759 0
M  V30 22718 C 2149.34 -1.16894 -1.75781 0
M  V30 22719 O 2148.68 -0.286804 -2.26693 0
M  V30 22720 C 2148.89 -3.43913 -0.593709 0
M  V30 22721 C 2150.24 -4.15188 -0.889059 0
M  V30 22722 O 2151.27 -3.49658 -0.67953 0
M  V30 22723 O 2150.13 -5.31102 -1.28815 0
M  V30 22724 H 2147.22 -0.794576 -0.2293 0
M  V30 22725 H 2149.77 -1.67165 0.292205 0
M  V30 22726 H 2148.54 -3.89784 0.3441 0
M  V30 22727 H 2148.16 -3.73502 -1.36317 0
M  V30 22728 N 2149.16 0.0250451 -1.5758 0
M  V30 22729 C 2150.57 0.380756 -1.54992 0
M  V30 22730 C 2150.77 1.76357 -0.974703 0
M  V30 22731 O 2149.83 2.45328 -0.597511 0
M  V30 22732 C 2151.14 0.278925 -2.99404 0
M  V30 22733 C 2152.69 0.355712 -3.10972 0
M  V30 22734 C 2153.17 0.283285 -4.57123 0
M  V30 22735 N 2154.66 0.341957 -4.61936 0
M  V30 22736 C 2155.39 0.308868 -5.72568 0
M  V30 22737 N 2154.89 0.227836 -6.92425 0
M  V30 22738 N 2156.68 0.358894 -5.60953 0
M  V30 22739 H 2148.83 -0.879846 -1.9332 0
M  V30 22740 H 2151.09 -0.334939 -0.88686 0
M  V30 22741 H 2150.8 -0.671495 -3.4523 0
M  V30 22742 H 2150.67 1.07099 -3.61676 0
M  V30 22743 H 2153.06 1.29657 -2.65091 0
M  V30 22744 H 2153.14 -0.465777 -2.51524 0
M  V30 22745 H 2152.79 -0.653918 -5.03673 0
M  V30 22746 H 2152.72 1.12293 -5.14488 0
M  V30 22747 H 2155.21 0.406934 -3.75703 0
M  V30 22748 H 2155.52 0.207798 -7.72521 0
M  V30 22749 H 2153.87 0.193826 -6.9473 0
M  V30 22750 H 2157.06 0.420219 -4.6621 0
M  V30 22751 H 2157.23 0.329639 -6.47161 0
M  V30 22752 N 2150.64 1.54769 0.297388 0
M  V30 22753 C 2151.88 1.73877 1.0301 0
M  V30 22754 C 2152.2 0.529442 1.87675 0
M  V30 22755 O 2151.47 -0.456215 1.90514 0
M  V30 22756 H 2150.05 0.641155 0.383313 0
M  V30 22757 H 2152.72 1.92129 0.3275 0
M  V30 22758 H 2151.81 2.62953 1.68113 0
M  V30 22759 N 2152.11 -0.560755 1.47286 0
M  V30 22760 C 2153.04 -1.67792 1.62383 0
M  V30 22761 C 2154.02 -1.6338 0.473377 0
M  V30 22762 O 2155.21 -1.81057 0.702288 0
M  V30 22763 C 2152.34 -3.06431 1.63454 0
M  V30 22764 C 2151.29 -3.25688 2.7769 0
M  V30 22765 C 2150.62 -4.65078 2.63831 0
M  V30 22766 C 2151.92 -3.11404 4.19315 0
M  V30 22767 H 2153.61 -1.55414 2.55904 0
M  V30 22768 H 2151.16 -0.746251 1.23155 0
M  V30 22769 H 2153.11 -3.84428 1.72606 0
M  V30 22770 H 2151.84 -3.1976 0.664904 0
M  V30 22771 H 2150.5 -2.50098 2.68042 0
M  V30 22772 H 2150.14 -4.75201 1.64904 0
M  V30 22773 H 2149.84 -4.78911 3.40467 0
M  V30 22774 H 2151.37 -5.45214 2.74907 0
M  V30 22775 H 2152.78 -3.79222 4.29958 0
M  V30 22776 H 2151.18 -3.36749 4.9671 0
M  V30 22777 H 2152.25 -2.08195 4.3793 0
M  V30 22778 N 2153.59 -1.35359 -0.807199 0
M  V30 22779 C 2154.82 -1.31869 -1.60079 0
M  V30 22780 C 2155.24 0.101387 -1.87827 0
M  V30 22781 O 2154.6 1.06801 -1.46503 0
M  V30 22782 C 2154.65 -2.13049 -2.90934 0
M  V30 22783 O 2153.75 -1.51079 -3.8373 0
M  V30 22784 H 2153.09 -0.452158 -0.486261 0
M  V30 22785 H 2155.62 -1.78391 -1.00189 0
M  V30 22786 H 2155.63 -2.24982 -3.40363 0
M  V30 22787 H 2154.31 -3.16289 -2.70063 0
M  V30 22788 H 2152.88 -1.47982 -3.4228 0
M  V30 22789 N 2155.07 1.02928 -1.19346 0
M  V30 22790 C 2156.29 1.80485 -1.02175 0
M  V30 22791 C 2156.72 1.83238 0.424925 0
M  V30 22792 O 2156.08 1.25809 1.30545 0
M  V30 22793 C 2156.13 3.23415 -1.59483 0
M  V30 22794 O 2155.23 4.04087 -0.823877 0
M  V30 22795 H 2154.57 0.557177 -0.361178 0
M  V30 22796 H 2157.1 1.29551 -1.5836 0
M  V30 22797 H 2157.11 3.74164 -1.62681 0
M  V30 22798 H 2155.79 3.20727 -2.64777 0
M  V30 22799 H 2154.36 3.62726 -0.865114 0
M  V30 22800 N 2156.55 0.997319 1.2203 0
M  V30 22801 C 2157.49 0.551276 2.2412 0
M  V30 22802 C 2158.46 -0.418681 1.60737 0
M  V30 22803 O 2159.65 -0.322451 1.88056 0
M  V30 22804 C 2156.79 -0.123569 3.44879 0
M  V30 22805 C 2155.9 0.888653 4.22761 0
M  V30 22806 C 2155.04 0.186868 5.30871 0
M  V30 22807 C 2154.08 1.18716 6.00477 0
M  V30 22808 N 2153.21 0.513378 7.00221 0
M  V30 22809 H 2158.05 1.42656 2.61636 0
M  V30 22810 H 2155.59 0.714493 1.28582 0
M  V30 22811 H 2157.55 -0.53179 4.13797 0
M  V30 22812 H 2156.18 -0.962614 3.08113 0
M  V30 22813 H 2155.23 1.41517 3.53096 0
M  V30 22814 H 2156.54 1.65019 4.70712 0
M  V30 22815 H 2155.7 -0.277858 6.06063 0
M  V30 22816 H 2154.44 -0.60714 4.83906 0
M  V30 22817 H 2153.44 1.66247 5.24063 0
M  V30 22818 H 2154.67 1.98212 6.4953 0
M  V30 22819 H 2152.61 -0.261113 6.5548 0
M  V30 22820 H 2152.53 1.21329 7.462 0
M  V30 22821 H 2153.8 0.0716018 7.79467 0
M  V30 22822 N 2158.03 -1.37449 0.771075 0
M  V30 22823 C 2159.25 -2.03979 0.346453 0
M  V30 22824 C 2159.67 -1.58156 -1.03113 0
M  V30 22825 O 2159.03 -0.762511 -1.65807 0
M  V30 22826 C 2159.08 -3.595 0.379748 0
M  V30 22827 O 2158.8 -4.03646 1.70298 0
M  V30 22828 C 2160.3 -4.43264 -0.0565544 0
M  V30 22829 H 2157.52 -0.655084 0.145281 0
M  V30 22830 H 2160.06 -1.75795 1.04481 0
M  V30 22831 H 2158.22 -3.86458 -0.270023 0
M  V30 22832 H 2158.63 -4.98163 1.64115 0
M  V30 22833 H 2160.11 -5.51997 0.0178961 0
M  V30 22834 H 2160.58 -4.25025 -1.10683 0
M  V30 22835 H 2161.19 -4.2153 0.565003 0
M  V30 22836 N 2159.5 -0.52156 -1.4872 0
M  V30 22837 C 2160.43 0.234741 -2.32317 0
M  V30 22838 C 2161.42 0.943119 -1.4156 0
M  V30 22839 O 2162.6 0.930536 -1.70454 0
M  V30 22840 C 2159.73 1.28724 -3.22564 0
M  V30 22841 C 2158.68 0.697518 -4.22278 0
M  V30 22842 C 2158.01 1.85205 -5.016 0
M  V30 22843 C 2159.31 -0.325174 -5.21287 0
M  V30 22844 H 2161 -0.463097 -2.95797 0
M  V30 22845 H 2158.55 -0.224154 -1.42245 0
M  V30 22846 H 2160.5 1.82422 -3.79869 0
M  V30 22847 H 2159.23 2.01455 -2.57067 0
M  V30 22848 H 2157.89 0.182131 -3.66147 0
M  V30 22849 H 2157.53 2.56754 -4.32535 0
M  V30 22850 H 2157.23 1.46343 -5.69085 0
M  V30 22851 H 2158.76 2.39297 -5.61755 0
M  V30 22852 H 2160.17 0.124406 -5.73165 0
M  V30 22853 H 2158.57 -0.630729 -5.96776 0
M  V30 22854 H 2159.64 -1.23392 -4.68938 0
M  V30 22855 N 2160.98 1.55502 -0.256304 0
M  V30 22856 C 2162.22 2.01074 0.367234 0
M  V30 22857 C 2162.59 1.14068 1.54443 0
M  V30 22858 O 2163.79 1.49137 2.23633 0
M  V30 22859 C 2162.06 3.49274 0.757773 0
M  V30 22860 S 2163.62 4.16848 1.37051 0
M  V30 22861 H 2160.44 0.701616 0.115132 0
M  V30 22862 H 2163.04 1.91894 -0.373739 0
M  V30 22863 H 2161.74 4.10257 -0.108147 0
M  V30 22864 H 2161.27 3.624 1.53069 0
M  V30 22865 H 2163.29 4.18913 2.65944 0
M  V30 22866 N 2162.46 -0.0166879 1.57591 0
M  V30 22867 C 2163.39 -1.04687 2.02771 0
M  V30 22868 C 2164.37 -1.34455 0.914357 0
M  V30 22869 O 2165.56 -1.46903 1.18118 0
M  V30 22870 C 2162.68 -2.37861 2.41122 0
M  V30 22871 C 2161.73 -2.23867 3.63023 0
M  V30 22872 S 2162.56 -1.58041 5.11648 0
M  V30 22873 C 2163.72 -2.92679 5.53254 0
M  V30 22874 H 2163.95 -0.662104 2.89834 0
M  V30 22875 H 2161.48 -0.227051 1.52721 0
M  V30 22876 H 2163.44 -3.14441 2.63888 0
M  V30 22877 H 2162.1 -2.73481 1.54488 0
M  V30 22878 H 2161.3 -3.22208 3.87554 0
M  V30 22879 H 2160.9 -1.5543 3.40173 0
M  V30 22880 H 2163.19 -3.89 5.54694 0
M  V30 22881 H 2164.13 -2.72868 6.53413 0
M  V30 22882 H 2164.54 -2.95821 4.80781 0
M  V30 22883 N 2163.94 -1.54924 -0.289176 0
M  V30 22884 C 2164.85 -1.89766 -1.37935 0
M  V30 22885 C 2165.86 -0.793081 -1.54875 0
M  V30 22886 O 2167.04 -1.09065 -1.69312 0
M  V30 22887 C 2164.11 -2.14824 -2.72124 0
M  V30 22888 C 2163.17 -3.38476 -2.64069 0
M  V30 22889 C 2162.4 -3.62329 -3.91859 0
M  V30 22890 O 2162.62 -2.88978 -4.9178 0
M  V30 22891 O 2161.56 -4.55856 -3.93038 0
M  V30 22892 H 2165.38 -2.82536 -1.11387 0
M  V30 22893 H 2162.97 -1.41264 -0.486286 0
M  V30 22894 H 2164.85 -2.32438 -3.51498 0
M  V30 22895 H 2163.52 -1.25238 -2.98491 0
M  V30 22896 H 2162.43 -3.26213 -1.83127 0
M  V30 22897 H 2163.76 -4.28229 -2.42654 0
M  V30 22898 N 2165.42 0.552936 -1.47582 0
M  V30 22899 C 2166.64 1.34003 -1.58297 0
M  V30 22900 C 2167.07 1.86625 -0.23511 0
M  V30 22901 O 2166.42 1.63197 0.789702 0
M  V30 22902 C 2166.47 2.48288 -2.61506 0
M  V30 22903 O 2165.58 3.50647 -2.17073 0
M  V30 22904 H 2164.92 0.397855 -0.531608 0
M  V30 22905 H 2167.45 0.667783 -1.93395 0
M  V30 22906 H 2167.46 2.94798 -2.8206 0
M  V30 22907 H 2166.13 2.09345 -3.59371 0
M  V30 22908 H 2164.71 3.10413 -2.06636 0
M  V30 22909 N 2166.89 1.35785 0.800009 0
M  V30 22910 C 2167.83 1.25104 1.92046 0
M  V30 22911 C 2168.84 0.172854 1.6188 0
M  V30 22912 O 2170.03 0.426685 1.73325 0
M  V30 22913 C 2167.13 0.905182 3.26588 0
M  V30 22914 C 2166.3 2.08308 3.84612 0
M  V30 22915 C 2165.36 1.71196 4.97572 0
M  V30 22916 O 2164.39 2.43153 5.1465 0
M  V30 22917 N 2165.59 0.639434 5.76967 0
M  V30 22918 H 2168.35 2.21638 2.01734 0
M  V30 22919 H 2165.91 1.29041 0.977759 0
M  V30 22920 H 2167.91 0.638273 3.99635 0
M  V30 22921 H 2166.48 0.02931 3.12586 0
M  V30 22922 H 2165.7 2.51341 3.0368 0
M  V30 22923 H 2166.98 2.87028 4.2011 0
M  V30 22924 H 2166.38 0.0417276 5.65685 0
M  V30 22925 H 2164.94 0.432323 6.50365 0
M  V30 22926 N 2168.37 -1.02294 1.19891 0
M  V30 22927 C 2169.3 -2.108 0.899788 0
M  V30 22928 C 2170.32 -1.62429 -0.109916 0
M  V30 22929 O 2171.51 -1.78094 0.120276 0
M  V30 22930 C 2168.61 -3.37325 0.326304 0
M  V30 22931 C 2167.78 -4.1486 1.38601 0
M  V30 22932 C 2166.84 -5.19693 0.824993 0
M  V30 22933 O 2165.86 -5.48966 1.50415 0
M  V30 22934 N 2167.07 -5.79328 -0.36876 0
M  V30 22935 H 2169.83 -2.37048 1.8338 0
M  V30 22936 H 2167.39 -1.18633 1.10172 0
M  V30 22937 H 2169.38 -4.04651 -0.0629984 0
M  V30 22938 H 2167.95 -3.08377 -0.512119 0
M  V30 22939 H 2167.17 -3.42596 1.94991 0
M  V30 22940 H 2168.46 -4.63446 2.09989 0
M  V30 22941 H 2167.86 -5.57871 -0.93792 0
M  V30 22942 H 2166.42 -6.48033 -0.699773 0
M  V30 22943 N 2169.85 -1.00378 -1.21499 0
M  V30 22944 C 2171.1 -0.681173 -1.8985 0
M  V30 22945 C 2171.41 0.791343 -1.78877 0
M  V30 22946 O 2172.62 1.22598 -2.42244 0
M  V30 22947 C 2171.07 -1.1679 -3.40424 0
M  V30 22948 C 2170.68 -2.6664 -3.6001 0
M  V30 22949 C 2172.43 -0.920124 -4.14408 0
M  V30 22950 C 2170.33 -3.0886 -5.04341 0
M  V30 22951 H 2169.26 -0.251086 -0.710965 0
M  V30 22952 H 2171.91 -1.21478 -1.37533 0
M  V30 22953 H 2170.3 -0.562349 -3.91987 0
M  V30 22954 H 2171.47 -3.32634 -3.18891 0
M  V30 22955 H 2169.79 -2.89419 -2.99376 0
M  V30 22956 H 2172.38 -1.21113 -5.20803 0
M  V30 22957 H 2172.73 0.143641 -4.16052 0
M  V30 22958 H 2173.26 -1.4884 -3.68906 0
M  V30 22959 H 2170 -4.14458 -5.07844 0
M  V30 22960 H 2169.52 -2.47577 -5.4632 0
M  V30 22961 H 2171.2 -3.00772 -5.7284 0
M  V30 22962 N 2171.33 1.37038 -0.778354 0
M  V30 22963 C 2172.26 2.3278 -0.183215 0
M  V30 22964 C 2173.24 1.56107 0.675623 0
M  V30 22965 O 2174.42 1.84314 0.611726 0
M  V30 22966 C 2171.55 3.40346 0.691526 0
M  V30 22967 C 2170.51 4.27948 -0.0665313 0
M  V30 22968 C 2169.83 5.26584 0.928085 0
M  V30 22969 C 2171.13 5.07137 -1.24936 0
M  V30 22970 H 2172.83 2.82801 -0.983049 0
M  V30 22971 H 2170.37 1.35969 -0.474169 0
M  V30 22972 H 2172.33 4.06306 1.11773 0
M  V30 22973 H 2171.05 2.88866 1.52395 0
M  V30 22974 H 2169.71 3.63528 -0.473586 0
M  V30 22975 H 2169.36 4.71381 1.75524 0
M  V30 22976 H 2169.06 5.86058 0.425371 0
M  V30 22977 H 2170.58 5.95419 1.35309 0
M  V30 22978 H 2172 5.662 -0.899476 0
M  V30 22979 H 2170.39 5.7597 -1.68461 0
M  V30 22980 H 2171.46 4.39425 -2.05021 0
M  V30 22981 N 2172.81 0.529439 1.48441 0
M  V30 22982 C 2174.22 0.0888387 1.86489 0
M  V30 22983 C 2174.57 -1.33364 1.43905 0
M  V30 22984 O 2173.69 -1.9987 0.829524 0
M  V30 22985 C 2174.29 0.154445 3.38448 0
M  V30 22986 C 2172.85 -0.230958 3.75691 0
M  V30 22987 C 2172 0.514449 2.72486 0
M  V30 22988 H 2174.95 0.740717 1.40353 0
M  V30 22989 H 2174.97 -0.63398 3.75181 0
M  V30 22990 H 2174.48 1.18985 3.69411 0
M  V30 22991 H 2172.58 -1.26853 3.50341 0
M  V30 22992 H 2172.69 0.108275 4.78978 0
M  V30 22993 H 2171.06 -0.039218 2.5467 0
M  V30 22994 H 2171.84 1.55048 3.06293 0
M  V30 22995 N 2174.29 -1.55364 0.264547 0
M  V30 22996 C 2175.56 -1.9133 -0.406489 0
M  V30 22997 C 2175.94 -1.18752 -1.74531 0
M  V30 22998 O 2175.29 -0.310831 -2.26376 0
M  V30 22999 C 2175.5 -3.44523 -0.557199 0
M  V30 23000 C 2176.85 -4.16107 -0.844973 0
M  V30 23001 O 2177.87 -3.50359 -0.642406 0
M  V30 23002 O 2176.73 -5.32438 -1.23175 0
M  V30 23003 H 2173.83 -0.796963 -0.220859 0
M  V30 23004 H 2176.37 -1.66846 0.309918 0
M  V30 23005 H 2175.14 -3.89397 0.385423 0
M  V30 23006 H 2174.77 -3.74926 -1.32348 0
M  V30 23007 N 2175.76 0.00833021 -1.57598 0
M  V30 23008 C 2177.01 0.693539 -1.89827 0
M  V30 23009 C 2177.33 1.74773 -0.864844 0
M  V30 23010 O 2176.6 1.9565 0.0988666 0
M  V30 23011 H 2175.18 0.25915 -0.700607 0
M  V30 23012 H 2177.84 -0.0306259 -1.94876 0
M  V30 23013 H 2176.94 1.17005 -2.89337 0
M  V30 23014 N 2177.24 1.55075 0.280956 0
M  V30 23015 C 2178.47 1.79652 1.03634 0
M  V30 23016 C 2178.89 0.564074 1.79443 0
M  V30 23017 O 2178.25 -0.486088 1.74662 0
M  V30 23018 C 2178.3 3.01583 1.97687 0
M  V30 23019 O 2177.4 2.76111 3.06327 0
M  V30 23020 H 2176.74 0.594024 0.296701 0
M  V30 23021 H 2179.27 2.02203 0.312282 0
M  V30 23022 H 2179.28 3.301 2.39787 0
M  V30 23023 H 2177.96 3.90937 1.41919 0
M  V30 23024 H 2176.53 2.58668 2.68598 0
M  V30 23025 N 2178.72 -0.545102 1.47873 0
M  V30 23026 C 2179.65 -1.6606 1.64153 0
M  V30 23027 C 2180.63 -1.62869 0.490679 0
M  V30 23028 O 2181.82 -1.80302 0.721451 0
M  V30 23029 C 2178.95 -3.04681 1.66694 0
M  V30 23030 C 2177.9 -3.22724 2.81128 0
M  V30 23031 C 2177.23 -4.62253 2.68749 0
M  V30 23032 C 2178.53 -3.06939 4.22594 0
M  V30 23033 H 2180.22 -1.52691 2.57538 0
M  V30 23034 H 2177.77 -0.733146 1.23939 0
M  V30 23035 H 2179.72 -3.82576 1.76674 0
M  V30 23036 H 2178.44 -3.19037 0.698781 0
M  V30 23037 H 2177.1 -2.47241 2.7068 0
M  V30 23038 H 2176.75 -4.73425 1.69935 0
M  V30 23039 H 2176.45 -4.75273 3.45527 0
M  V30 23040 H 2177.97 -5.42268 2.80674 0
M  V30 23041 H 2179.39 -3.7464 4.33956 0
M  V30 23042 H 2177.78 -3.31461 5.00253 0
M  V30 23043 H 2178.85 -2.03538 4.40114 0
M  V30 23044 N 2180.2 -1.36208 -0.792797 0
M  V30 23045 C 2181.44 -1.30442 -1.55282 0
M  V30 23046 C 2181.78 0.117071 -1.93847 0
M  V30 23047 O 2181.05 1.06968 -1.62444 0
M  V30 23048 C 2181.33 -2.22396 -2.83218 0
M  V30 23049 C 2181.19 -3.73227 -2.51042 0
M  V30 23050 C 2182.51 -2.13185 -3.85019 0
M  V30 23051 H 2179.63 -0.475171 -0.563366 0
M  V30 23052 H 2182.27 -1.6673 -0.911103 0
M  V30 23053 H 2180.42 -1.9158 -3.37979 0
M  V30 23054 H 2182.09 -4.14547 -2.02358 0
M  V30 23055 H 2180.33 -3.92829 -1.84033 0
M  V30 23056 H 2181 -4.32972 -3.42402 0
M  V30 23057 H 2183.48 -2.40303 -3.39696 0
M  V30 23058 H 2182.36 -2.797 -4.72291 0
M  V30 23059 H 2182.62 -1.11808 -4.27728 0
M  V30 23060 N 2181.68 1.01656 -1.20431 0
M  V30 23061 C 2182.61 2.10319 -0.910955 0
M  V30 23062 C 2183.62 1.62485 0.1013 0
M  V30 23063 O 2184.81 1.78028 -0.129719 0
M  V30 23064 C 2181.91 3.37148 -0.344189 0
M  V30 23065 C 2181.08 4.14119 -1.40799 0
M  V30 23066 C 2180.14 5.19248 -0.852542 0
M  V30 23067 O 2179.17 5.48161 -1.53324 0
M  V30 23068 N 2180.37 5.79515 0.338032 0
M  V30 23069 H 2183.13 2.36073 -1.84634 0
M  V30 23070 H 2180.7 1.18047 -1.10799 0
M  V30 23071 H 2182.69 4.04679 0.0415379 0
M  V30 23072 H 2181.26 3.08644 0.495757 0
M  V30 23073 H 2180.48 3.41557 -1.96805 0
M  V30 23074 H 2181.77 4.62326 -2.12444 0
M  V30 23075 H 2181.16 5.5836 0.908322 0
M  V30 23076 H 2179.72 6.48395 0.665396 0
M  V30 23077 N 2183.15 1.01021 1.20965 0
M  V30 23078 C 2184.1 0.54593 2.21368 0
M  V30 23079 C 2185.09 -0.395278 1.55969 0
M  V30 23080 O 2186.28 -0.219283 1.75636 0
M  V30 23081 C 2183.41 -0.120843 3.43087 0
M  V30 23082 C 2182.49 0.841693 4.15664 0
M  V30 23083 N 2182.89 1.99663 4.64724 0
M  V30 23084 C 2181.18 0.661168 4.41072 0
M  V30 23085 C 2181.88 2.60219 5.20251 0
M  V30 23086 N 2180.86 1.88334 5.09932 0
M  V30 23087 H 2184.66 1.42652 2.56959 0
M  V30 23088 H 2182.18 0.874711 1.3683 0
M  V30 23089 H 2184.17 -0.470956 4.14231 0
M  V30 23090 H 2182.83 -0.99735 3.09003 0
M  V30 23091 H 2183.84 2.37681 4.60139 0
M  V30 23092 H 2180.52 -0.167822 4.17163 0
M  V30 23093 H 2181.91 3.57924 5.6863 0
M  V30 23094 N 2184.63 -1.36623 0.78561 0
M  V30 23095 C 2185.86 -2.03305 0.367534 0
M  V30 23096 C 2186.27 -1.59374 -1.01963 0
M  V30 23097 O 2185.61 -0.77687 -1.66464 0
M  V30 23098 C 2185.67 -3.57815 0.347627 0
M  V30 23099 C 2185.34 -4.24932 1.68172 0
M  V30 23100 C 2186.34 -4.48087 2.63656 0
M  V30 23101 C 2184.02 -4.62483 1.95997 0
M  V30 23102 C 2186.01 -5.07868 3.85161 0
M  V30 23103 C 2183.7 -5.21982 3.17771 0
M  V30 23104 C 2184.7 -5.44613 4.12172 0
M  V30 23105 O 2184.39 -6.02864 5.31799 0
M  V30 23106 H 2184.12 -0.659134 0.150061 0
M  V30 23107 H 2186.67 -1.75659 1.06456 0
M  V30 23108 H 2184.9 -3.84564 -0.405872 0
M  V30 23109 H 2186.59 -4.05875 -0.0452626 0
M  V30 23110 H 2187.36 -4.19476 2.43444 0
M  V30 23111 H 2183.24 -4.44194 1.2334 0
M  V30 23112 H 2186.78 -5.25448 4.58857 0
M  V30 23113 H 2182.68 -5.50018 3.37861 0
M  V30 23114 H 2183.45 -6.21333 5.32811 0
M  V30 23115 N 2186.11 -0.537304 -1.48158 0
M  V30 23116 C 2187.06 0.234747 -2.31412 0
M  V30 23117 C 2188.05 0.928487 -1.41688 0
M  V30 23118 O 2189.26 0.852038 -1.58557 0
M  V30 23119 H 2185.63 0.0945724 -0.74603 0
M  V30 23120 H 2187.6 -0.486905 -2.94401 0
M  V30 23121 C 2186.35 1.26413 -3.23906 0
M  V30 23122 H 2185.68 0.739721 -3.92897 0
M  V30 23123 H 2187.12 1.7756 -3.8503 0
M  V30 23124 C 2185.57 2.3016 -2.46024 0
M  V30 23125 O 2186.1 3.36731 -2.19032 0
M  V30 23126 N 2184.31 2.03565 -2.07388 0
M  V30 23127 H 2183.86 1.16915 -2.2954 0
M  V30 23128 H 2183.82 2.73201 -1.55592 0
M  V30 23129 N 2187.59 1.55221 -0.272782 0
M  V30 23130 C 2188.83 1.99841 0.345178 0
M  V30 23131 C 2189.17 1.16093 1.55679 0
M  V30 23132 O 2188.44 0.230441 1.9313 0
M  V30 23133 C 2188.73 3.5263 0.729656 0
M  V30 23134 C 2188.58 4.47133 -0.489138 0
M  V30 23135 C 2189.9 4.11259 1.56698 0
M  V30 23136 H 2187.02 0.726495 0.123989 0
M  V30 23137 H 2189.66 1.86176 -0.379262 0
M  V30 23138 H 2187.81 3.64405 1.34689 0
M  V30 23139 H 2189.48 4.47304 -1.12769 0
M  V30 23140 H 2187.72 4.18888 -1.12762 0
M  V30 23141 H 2188.39 5.51718 -0.176396 0
M  V30 23142 H 2190.87 4.02745 1.04572 0
M  V30 23143 H 2189.75 5.1838 1.80481 0
M  V30 23144 H 2190.01 3.61341 2.54726 0
M  V30 23145 N 2189.07 2.77022e-05 1.576 0
M  V30 23146 C 2190.02 -0.99989 2.04905 0
M  V30 23147 C 2191 -1.30313 0.943787 0
M  V30 23148 O 2192.19 -1.29411 1.20755 0
M  V30 23149 C 2189.32 -2.29188 2.55593 0
M  V30 23150 C 2188.41 -2.01827 3.72997 0
M  V30 23151 N 2188.8 -1.44626 4.84682 0
M  V30 23152 C 2187.1 -2.3197 3.80928 0
M  V30 23153 C 2187.8 -1.33737 5.66118 0
M  V30 23154 N 2186.77 -1.82299 5.12121 0
M  V30 23155 H 2190.58 -0.552119 2.88667 0
M  V30 23156 H 2188.09 -0.205666 1.61092 0
M  V30 23157 H 2190.09 -3.01663 2.87759 0
M  V30 23158 H 2188.75 -2.74617 1.7325 0
M  V30 23159 H 2189.76 -1.12507 5.05532 0
M  V30 23160 H 2186.43 -2.80274 3.09439 0
M  V30 23161 H 2187.82 -0.897537 6.65878 0
M  V30 23162 N 2190.54 -1.55222 -0.272728 0
M  V30 23163 C 2191.49 -1.88912 -1.35702 0
M  V30 23164 C 2192.49 -0.765483 -1.51118 0
M  V30 23165 O 2193.69 -0.949829 -1.52899 0
M  V30 23166 H 2190.07 -0.599598 -0.453858 0
M  V30 23167 H 2192.04 -2.79489 -1.04539 0
M  V30 23168 C 2190.79 -2.17784 -2.71045 0
M  V30 23169 H 2190.11 -3.03733 -2.59974 0
M  V30 23170 H 2191.55 -2.45278 -3.45854 0
M  V30 23171 C 2190.01 -0.985529 -3.22163 0
M  V30 23172 O 2190.54 -0.220303 -4.01095 0
M  V30 23173 N 2188.75 -0.783157 -2.79848 0
M  V30 23174 H 2188.29 -1.40712 -2.15773 0
M  V30 23175 H 2188.25 0.012984 -3.14397 0
M  V30 23176 N 2192.02 0.537252 -1.4816 0
M  V30 23177 C 2192.95 1.65187 -1.65032 0
M  V30 23178 C 2193.93 1.62607 -0.499309 0
M  V30 23179 O 2195.12 1.79917 -0.731003 0
M  V30 23180 C 2192.25 3.03792 -1.68308 0
M  V30 23181 C 2191.2 3.21229 -2.82836 0
M  V30 23182 C 2190.53 4.60821 -2.71197 0
M  V30 23183 C 2191.83 3.04693 -4.24216 0
M  V30 23184 H 2193.52 1.51323 -2.58344 0
M  V30 23185 H 2191.07 0.726563 -1.24326 0
M  V30 23186 H 2193.02 3.81634 -1.787 0
M  V30 23187 H 2191.75 3.18662 -0.715691 0
M  V30 23188 H 2190.4 2.45802 -2.71987 0
M  V30 23189 H 2190.05 4.72517 -1.72443 0
M  V30 23190 H 2189.75 4.73434 -3.48043 0
M  V30 23191 H 2191.28 5.40772 -2.83546 0
M  V30 23192 H 2192.69 3.72334 -4.35936 0
M  V30 23193 H 2191.09 3.28804 -5.02004 0
M  V30 23194 H 2192.16 2.01201 -4.41187 0
M  V30 23195 N 2193.5 1.36626 0.785562 0
M  V30 23196 C 2194.73 1.34038 1.57217 0
M  V30 23197 C 2195.14 -0.079473 1.89033 0
M  V30 23198 O 2194.48 -1.04786 1.50883 0
M  V30 23199 C 2194.54 2.10046 2.91755 0
M  V30 23200 C 2194.21 3.59109 2.82648 0
M  V30 23201 C 2195.2 4.53279 2.54626 0
M  V30 23202 C 2192.89 4.02047 3.01104 0
M  V30 23203 C 2194.88 5.88364 2.45167 0
M  V30 23204 C 2192.57 5.37222 2.91267 0
M  V30 23205 C 2193.57 6.30193 2.63337 0
M  V30 23206 O 2193.26 7.62884 2.53501 0
M  V30 23207 H 2192.99 0.461274 0.494169 0
M  V30 23208 H 2195.54 1.80372 0.982601 0
M  V30 23209 H 2193.77 1.58381 3.52778 0
M  V30 23210 H 2195.46 2.00267 3.53055 0
M  V30 23211 H 2196.23 4.21418 2.40066 0
M  V30 23212 H 2192.11 3.30053 3.21848 0
M  V30 23213 H 2195.65 6.609 2.23287 0
M  V30 23214 H 2191.55 5.68689 3.0539 0
M  V30 23215 H 2192.32 7.7305 2.68953 0
M  V30 23216 N 2194.98 -1.01016 1.20969 0
M  V30 23217 C 2196.23 -1.74369 1.02175 0
M  V30 23218 C 2196.55 -1.89822 -0.44638 0
M  V30 23219 O 2195.82 -1.44539 -1.32232 0
M  V30 23220 H 2194.4 -0.646008 0.375078 0
M  V30 23221 H 2197.06 -1.21756 1.52189 0
M  V30 23222 H 2196.16 -2.74484 1.48543 0
M  V30 23223 N 2196.46 -1.01661 -1.20428 0
M  V30 23224 C 2197.7 -0.716708 -1.90355 0
M  V30 23225 C 2198.06 0.745526 -1.77369 0
M  V30 23226 O 2197.35 1.53465 -1.14713 0
M  V30 23227 C 2197.54 -1.0872 -3.40462 0
M  V30 23228 C 2197.37 -2.5839 -3.68055 0
M  V30 23229 C 2196.14 -3.25174 -3.86769 0
M  V30 23230 C 2198.34 -3.56578 -3.70617 0
M  V30 23231 N 2196.32 -4.64074 -4.01881 0
M  V30 23232 C 2197.69 -4.8104 -3.91152 0
M  V30 23233 C 2199.75 -3.5055 -3.5358 0
M  V30 23234 C 2198.45 -6.00205 -3.96418 0
M  V30 23235 C 2200.48 -4.69116 -3.60116 0
M  V30 23236 C 2199.84 -5.92388 -3.81125 0
M  V30 23237 H 2195.94 -0.313931 -0.71622 0
M  V30 23238 H 2198.52 -1.30143 -1.44813 0
M  V30 23239 H 2196.69 -0.530813 -3.84756 0
M  V30 23240 H 2198.43 -0.740833 -3.97861 0
M  V30 23241 H 2195.18 -2.756 -3.85151 0
M  V30 23242 H 2195.61 -5.36191 -4.13313 0
M  V30 23243 H 2200.25 -2.56241 -3.36304 0
M  V30 23244 H 2197.97 -6.94894 -4.1249 0
M  V30 23245 H 2201.55 -4.66068 -3.48241 0
M  V30 23246 H 2200.43 -6.82599 -3.86042 0
M  V30 23247 N 2197.93 1.36205 -0.792844 0
M  V30 23248 C 2199.16 2.03931 -0.377737 0
M  V30 23249 C 2199.58 1.59384 0.998919 0
M  V30 23250 O 2198.94 0.763932 1.64419 0
M  V30 23251 C 2198.99 3.57734 -0.453698 0
M  V30 23252 O 2198.09 4.08875 0.538079 0
M  V30 23253 H 2197.44 0.644468 -0.159867 0
M  V30 23254 H 2199.97 1.74089 -1.07491 0
M  V30 23255 H 2199.98 4.06755 -0.318535 0
M  V30 23256 H 2198.65 3.8951 -1.45791 0
M  V30 23257 H 2197.23 3.71116 0.364294 0
M  V30 23258 N 2199.41 0.545154 1.47871 0
M  V30 23259 C 2200.34 -0.246581 2.2787 0
M  V30 23260 C 2201.36 -0.890537 1.36284 0
M  V30 23261 O 2202.55 -0.76642 1.61209 0
M  V30 23262 C 2199.65 -1.36576 3.10161 0
M  V30 23263 C 2198.82 -0.820879 4.29628 0
M  V30 23264 C 2197.88 -1.82306 4.9361 0
M  V30 23265 O 2196.9 -1.37396 5.52369 0
M  V30 23266 N 2198.11 -3.15595 4.87217 0
M  V30 23267 H 2200.87 0.439591 2.96459 0
M  V30 23268 H 2198.43 0.380449 1.57366 0
M  V30 23269 H 2200.42 -2.03468 3.49833 0
M  V30 23270 H 2198.99 -1.95536 2.43894 0
M  V30 23271 H 2198.21 0.0244725 3.94192 0
M  V30 23272 H 2199.5 -0.435973 5.06929 0
M  V30 23273 H 2198.9 -3.54736 4.40657 0
M  V30 23274 H 2197.46 -3.78078 5.30943 0
M  V30 23275 N 2200.89 -1.55074 0.28101 0
M  V30 23276 C 2202.12 -2.04133 -0.337257 0
M  V30 23277 C 2202.53 -1.15915 -1.49028 0
M  V30 23278 O 2201.89 -0.180491 -1.81605 0
M  V30 23279 C 2201.94 -3.52248 -0.812644 0
M  V30 23280 O 2201.66 -4.37109 0.294464 0
M  V30 23281 C 2203.16 -4.17218 -1.49812 0
M  V30 23282 H 2200.38 -0.666665 -0.0761521 0
M  V30 23283 H 2202.93 -2.00249 0.414822 0
M  V30 23284 H 2201.08 -3.56557 -1.5148 0
M  V30 23285 H 2201.5 -5.24451 -0.0720403 0
M  V30 23286 H 2202.97 -5.22441 -1.78211 0
M  V30 23287 H 2203.45 -3.65745 -2.43161 0
M  V30 23288 H 2204.05 -4.16929 -0.839669 0
M  V30 23289 N 2202.37 -0.00838561 -1.57598 0
M  V30 23290 C 2203.79 0.347795 -1.55764 0
M  V30 23291 C 2203.99 1.7425 -1.01189 0
M  V30 23292 O 2203.04 2.44006 -0.649414 0
M  V30 23293 C 2204.35 0.215355 -2.99928 0
M  V30 23294 C 2205.9 0.289671 -3.11657 0
M  V30 23295 C 2206.38 0.186259 -4.57621 0
M  V30 23296 N 2207.87 0.243897 -4.62557 0
M  V30 23297 C 2208.6 0.187349 -5.73094 0
M  V30 23298 N 2208.1 0.0809113 -6.92753 0
M  V30 23299 N 2209.89 0.239827 -5.61588 0
M  V30 23300 H 2202.04 -0.920654 -1.9141 0
M  V30 23301 H 2204.31 -0.353675 -0.879556 0
M  V30 23302 H 2204.01 -0.744572 -3.43728 0
M  V30 23303 H 2203.89 0.994033 -3.63866 0
M  V30 23304 H 2206.27 1.24005 -2.67781 0
M  V30 23305 H 2206.35 -0.519024 -2.50479 0
M  V30 23306 H 2206 -0.760608 -5.02172 0
M  V30 23307 H 2205.93 1.01355 -5.16754 0
M  V30 23308 H 2208.42 0.327151 -3.76481 0
M  V30 23309 H 2208.73 0.0438883 -7.72788 0
M  V30 23310 H 2207.08 0.0464198 -6.94984 0
M  V30 23311 H 2210.27 0.321234 -4.66996 0
M  V30 23312 H 2210.44 0.192293 -6.47715 0
M  V30 23313 N 2203.85 1.55365 0.264492 0
M  V30 23314 C 2205.26 1.66992 0.834906 0
M  V30 23315 C 2205.61 0.602585 1.86717 0
M  V30 23316 O 2204.73 -0.254387 2.149 0
M  V30 23317 C 2205.33 3.02732 1.52114 0
M  V30 23318 C 2203.89 3.16358 2.03948 0
M  V30 23319 C 2203.04 2.62817 0.884452 0
M  V30 23320 H 2205.99 1.58648 0.040659 0
M  V30 23321 H 2206.01 2.96196 2.38848 0
M  V30 23322 H 2205.52 3.80393 0.769601 0
M  V30 23323 H 2203.62 2.43487 2.82037 0
M  V30 23324 H 2203.73 4.23036 2.24894 0
M  V30 23325 H 2202.1 2.20191 1.28016 0
M  V30 23326 H 2202.88 3.42988 0.14628 0
M  V30 23327 N 2205.33 -0.529387 1.48443 0
M  V30 23328 C 2206.55 -1.30991 1.60153 0
M  V30 23329 C 2206.97 -1.86973 0.262017 0
M  V30 23330 O 2206.33 -1.66432 -0.748776 0
M  V30 23331 C 2206.38 -2.46033 2.64858 0
M  V30 23332 O 2206.1 -1.92358 3.93612 0
M  V30 23333 C 2207.6 -3.37844 2.87013 0
M  V30 23334 H 2204.82 -0.398328 0.539978 0
M  V30 23335 H 2207.36 -0.638563 1.94275 0
M  V30 23336 H 2205.52 -3.09051 2.33594 0
M  V30 23337 H 2205.93 -2.67667 4.51059 0
M  V30 23338 H 2207.41 -4.14913 3.64076 0
M  V30 23339 H 2207.88 -3.93111 1.95859 0
M  V30 23340 H 2208.49 -2.80617 3.19584 0
M  V30 23341 N 2206.8 -1.37041 -0.778305 0
M  V30 23342 C 2208.03 -1.3487 -1.56504 0
M  V30 23343 C 2208.44 0.069447 -1.89073 0
M  V30 23344 O 2207.78 1.03985 -1.51436 0
M  V30 23345 C 2207.85 -2.1159 -2.90637 0
M  V30 23346 C 2207.51 -3.60603 -2.80739 0
M  V30 23347 C 2208.51 -4.54623 -2.52218 0
M  V30 23348 C 2206.19 -4.03638 -2.98967 0
M  V30 23349 C 2208.19 -5.89656 -2.42043 0
M  V30 23350 C 2205.87 -5.38759 -2.88413 0
M  V30 23351 C 2206.87 -6.3158 -2.59991 0
M  V30 23352 O 2206.56 -7.64218 -2.49451 0
M  V30 23353 H 2206.29 -0.463888 -0.491715 0
M  V30 23354 H 2208.85 -1.80891 -0.973021 0
M  V30 23355 H 2207.08 -1.60249 -3.51933 0
M  V30 23356 H 2208.76 -2.02137 -3.51988 0
M  V30 23357 H 2209.53 -4.22685 -2.37828 0
M  V30 23358 H 2205.41 -3.31755 -3.20093 0
M  V30 23359 H 2208.95 -6.62075 -2.19779 0
M  V30 23360 H 2204.85 -5.703 -3.0237 0
M  V30 23361 H 2205.62 -7.74465 -2.6485 0
M  V30 23362 N 2208.28 1.00373 -1.21503 0
M  V30 23363 C 2209.19 2.12619 -0.991484 0
M  V30 23364 C 2210.21 1.73907 0.056814 0
M  V30 23365 O 2211.38 2.00957 -0.133516 0
M  V30 23366 C 2208.45 3.42141 -0.560372 0
M  V30 23367 C 2207.51 3.95019 -1.68103 0
M  V30 23368 C 2206.74 5.1836 -1.27039 0
M  V30 23369 O 2206.97 5.70217 -0.144538 0
M  V30 23370 O 2205.9 5.64715 -2.08279 0
M  V30 23371 H 2209.73 2.34354 -1.93162 0
M  V30 23372 H 2207.31 1.10995 -1.00002 0
M  V30 23373 H 2209.19 4.20107 -0.329798 0
M  V30 23374 H 2207.87 3.21791 0.351033 0
M  V30 23375 H 2206.77 3.18274 -1.96602 0
M  V30 23376 H 2208.11 4.19782 -2.56991 0
M  V30 23377 N 2209.76 1.02298 1.19887 0
M  V30 23378 C 2210.72 0.60339 2.21115 0
M  V30 23379 C 2211.72 -0.329856 1.5738 0
M  V30 23380 O 2212.91 -0.117672 1.73802 0
M  V30 23381 C 2210.04 -0.117932 3.40696 0
M  V30 23382 H 2211.24 1.49898 2.59751 0
M  V30 23383 H 2208.79 0.813491 1.33462 0
M  V30 23384 H 2209.53 -1.02814 3.07571 0
M  V30 23385 H 2209.31 0.552579 3.88187 0
M  V30 23386 H 2210.8 -0.398623 4.15693 0
M  V30 23387 N 2211.24 -1.35782 0.800057 0
M  V30 23388 C 2212.48 -1.99247 0.377936 0
M  V30 23389 C 2212.82 -1.63335 -1.05049 0
M  V30 23390 O 2212.09 -0.893415 -1.72767 0
M  V30 23391 C 2212.37 -3.55813 0.553984 0
M  V30 23392 C 2212.23 -4.01545 2.02687 0
M  V30 23393 C 2213.55 -4.40093 -0.0244028 0
M  V30 23394 H 2210.67 -0.723813 0.138795 0
M  V30 23395 H 2213.31 -1.61033 1.00838 0
M  V30 23396 H 2211.46 -3.88496 0.0173081 0
M  V30 23397 H 2213.13 -3.79301 2.62543 0
M  V30 23398 H 2211.37 -3.52693 2.52567 0
M  V30 23399 H 2212.04 -5.10454 2.10096 0
M  V30 23400 H 2214.52 -4.13832 0.433848 0
M  V30 23401 H 2213.4 -5.48749 0.128733 0
M  V30 23402 H 2213.66 -4.27743 -1.11751 0
M  V30 23403 N 2212.72 -0.552988 -1.4758 0
M  V30 23404 C 2213.65 0.234493 -2.27997 0
M  V30 23405 C 2214.66 0.883297 -1.36754 0
M  V30 23406 O 2215.85 0.75786 -1.61613 0
M  V30 23407 C 2212.95 1.3493 -3.10881 0
M  V30 23408 C 2212.12 0.798083 -4.30057 0
M  V30 23409 C 2211.18 1.79686 -4.9457 0
M  V30 23410 O 2210.21 1.34465 -5.53089 0
M  V30 23411 N 2211.41 3.13006 -4.88884 0
M  V30 23412 H 2214.17 -0.455307 -2.96221 0
M  V30 23413 H 2211.74 -0.388789 -1.57162 0
M  V30 23414 H 2213.73 2.0161 -3.50907 0
M  V30 23415 H 2212.3 1.9424 -2.44928 0
M  V30 23416 H 2211.52 -0.0453772 -3.94174 0
M  V30 23417 H 2212.81 0.409084 -5.07153 0
M  V30 23418 H 2212.2 3.52394 -4.42532 0
M  V30 23419 H 2210.76 3.75256 -5.32941 0
M  V30 23420 N 2214.19 1.54923 -0.28923 0
M  V30 23421 C 2215.1 2.26749 0.601824 0
M  V30 23422 C 2216.12 1.29842 1.15832 0
M  V30 23423 O 2217.3 1.62804 1.18561 0
M  V30 23424 C 2214.36 2.98532 1.76294 0
M  V30 23425 C 2213.42 4.1095 1.2417 0
M  V30 23426 C 2212.65 4.793 2.34748 0
M  V30 23427 O 2212.88 4.46939 3.54404 0
M  V30 23428 O 2211.81 5.66954 2.02105 0
M  V30 23429 H 2215.64 3.03694 0.0195345 0
M  V30 23430 H 2213.22 1.49295 -0.0561131 0
M  V30 23431 H 2215.1 3.43596 2.43967 0
M  V30 23432 H 2213.78 2.24493 2.33205 0
M  V30 23433 H 2212.69 3.70312 0.531039 0
M  V30 23434 H 2214.02 4.86932 0.718166 0
M  V30 23435 N 2215.67 0.0167433 1.57591 0
M  V30 23436 C 2216.92 -0.665548 1.91568 0
M  V30 23437 C 2217.25 -1.72485 0.892329 0
M  V30 23438 O 2216.53 -1.94307 -0.0866785 0
M  V30 23439 C 2216.81 -1.29336 3.36072 0
M  V30 23440 C 2216.66 -0.244462 4.49135 0
M  V30 23441 C 2217.98 -2.21488 3.80304 0
M  V30 23442 H 2215.1 -0.240476 0.696664 0
M  V30 23443 H 2217.74 0.071469 1.89866 0
M  V30 23444 H 2215.89 -1.92153 3.37653 0
M  V30 23445 H 2217.56 0.385309 4.59688 0
M  V30 23446 H 2215.81 0.431455 4.31649 0
M  V30 23447 H 2216.48 -0.723111 5.47243 0
M  V30 23448 H 2218.95 -1.68672 3.8038 0
M  V30 23449 H 2217.83 -2.62374 4.82132 0
M  V30 23450 H 2218.09 -3.10094 3.1511 0
M  V30 23451 N 2217.15 -1.55503 -0.256249 0
M  V30 23452 C 2218.38 -1.80941 -1.00339 0
M  V30 23453 C 2218.79 -0.591171 -1.79306 0
M  V30 23454 O 2218.15 0.44005 -1.77115 0
M  V30 23455 C 2218.2 -3.0448 -1.9487 0
M  V30 23456 O 2217.92 -4.216 -1.19099 0
M  V30 23457 C 2219.42 -3.42648 -2.81259 0
M  V30 23458 H 2216.64 -0.602344 -0.295674 0
M  V30 23459 H 2219.19 -2.02547 -0.281962 0
M  V30 23460 H 2217.34 -2.84952 -2.62452 0
M  V30 23461 H 2217.76 -4.91555 -1.8296 0
M  V30 23462 H 2219.23 -4.32217 -3.43355 0
M  V30 23463 H 2219.71 -2.62808 -3.51893 0
M  V30 23464 H 2220.31 -3.64495 -2.19143 0
M  V30 23465 N 2218.63 0.521507 -1.48721 0
M  V30 23466 C 2219.88 1.27434 -1.56859 0
M  V30 23467 C 2220.2 1.93416 -0.248016 0
M  V30 23468 O 2219.47 1.81746 0.731119 0
M  V30 23469 H 2218.05 0.473337 -0.577894 0
M  V30 23470 H 2220.71 0.606173 -1.85234 0
M  V30 23471 H 2219.81 2.04916 -2.35406 0
M  V30 23472 N 2220.11 1.37452 0.771027 0
M  V30 23473 C 2221.04 1.29149 1.89349 0
M  V30 23474 C 2222.05 0.207152 1.61477 0
M  V30 23475 O 2223.24 0.463354 1.72381 0
M  V30 23476 C 2220.34 0.974252 3.24594 0
M  V30 23477 C 2219.51 2.1642 3.80107 0
M  V30 23478 C 2218.57 1.81712 4.93829 0
M  V30 23479 O 2217.6 2.54015 5.09377 0
M  V30 23480 N 2218.8 0.761674 5.75481 0
M  V30 23481 H 2221.57 2.25867 1.96987 0
M  V30 23482 H 2219.13 1.31086 0.950168 0
M  V30 23483 H 2221.12 0.722898 3.98191 0
M  V30 23484 H 2219.69 0.0956076 3.12454 0
M  V30 23485 H 2218.91 2.57726 2.9828 0
M  V30 23486 H 2220.2 2.95875 4.13927 0
M  V30 23487 H 2219.59 0.161708 5.65469 0
M  V30 23488 H 2218.15 0.570178 6.49301 0
M  V30 23489 N 2221.58 -0.997276 1.22033 0
M  V30 23490 C 2223 -1.2602 0.979348 0
M  V30 23491 C 2223.2 -1.98785 -0.329685 0
M  V30 23492 O 2222.26 -2.29477 -1.05341 0
M  V30 23493 C 2223.57 -2.07627 2.17512 0
M  V30 23494 C 2225.12 -2.20826 2.21821 0
M  V30 23495 C 2225.59 -3.05819 3.40938 0
M  V30 23496 N 2227.08 -3.13406 3.41073 0
M  V30 23497 C 2227.82 -3.79447 4.29892 0
M  V30 23498 N 2227.31 -4.47453 5.28922 0
M  V30 23499 N 2229.11 -3.76165 4.17679 0
M  V30 23500 H 2221.26 -0.509316 2.06203 0
M  V30 23501 H 2223.52 -0.287525 0.903346 0
M  V30 23502 H 2223.23 -1.61518 3.12418 0
M  V30 23503 H 2223.1 -3.08381 2.17211 0
M  V30 23504 H 2225.49 -2.66151 1.27466 0
M  V30 23505 H 2225.57 -1.19516 2.26162 0
M  V30 23506 H 2225.21 -2.61195 4.35591 0
M  V30 23507 H 2225.14 -4.0726 3.33836 0
M  V30 23508 H 2227.63 -2.65003 2.6941 0
M  V30 23509 H 2227.95 -4.95572 5.92982 0
M  V30 23510 H 2226.29 -4.46215 5.32839 0
M  V30 23511 H 2229.48 -3.22196 3.3957 0
M  V30 23512 H 2229.66 -4.27355 4.87106 0
M  V30 23513 N 2223.06 -1.02932 -1.19343 0
M  V30 23514 C 2224.31 -0.724607 -1.88663 0
M  V30 23515 C 2224.63 0.749112 -1.80037 0
M  V30 23516 O 2223.9 1.53976 -1.21113 0
M  V30 23517 H 2222.48 -0.265037 -0.698401 0
M  V30 23518 H 2225.14 -1.30365 -1.44883 0
M  V30 23519 H 2224.24 -1.01931 -2.94985 0
M  V30 23520 N 2224.54 1.35356 -0.807246 0
M  V30 23521 C 2225.79 1.99044 -0.388498 0
M  V30 23522 C 2226.12 1.6389 1.04181 0
M  V30 23523 O 2225.39 0.902565 1.7229 0
M  V30 23524 C 2225.68 3.55514 -0.572846 0
M  V30 23525 C 2225.53 4.00464 -2.04814 0
M  V30 23526 C 2226.85 4.401 0.00106328 0
M  V30 23527 H 2223.97 0.723067 -0.142631 0
M  V30 23528 H 2226.61 1.60496 -1.0169 0
M  V30 23529 H 2224.76 3.88482 -0.0379108 0
M  V30 23530 H 2226.43 3.77903 -2.6455 0
M  V30 23531 H 2224.68 3.51349 -2.54433 0
M  V30 23532 H 2225.35 5.09333 -2.128 0
M  V30 23533 H 2227.82 4.13596 -0.455788 0
M  V30 23534 H 2226.7 5.48673 -0.157833 0
M  V30 23535 H 2226.96 4.2833 1.09481 0
M  V30 23536 N 2226.02 0.560807 1.47284 0
M  V30 23537 C 2227.26 0.038154 2.02764 0
M  V30 23538 C 2227.6 -1.30973 1.43386 0
M  V30 23539 O 2226.87 -1.85311 0.590766 0
M  V30 23540 C 2227.16 -0.0510795 3.60064 0
M  V30 23541 C 2227.01 1.32416 4.29868 0
M  V30 23542 C 2228.33 -0.762719 4.3344 0
M  V30 23543 H 2225.45 0.0153393 0.73684 0
M  V30 23544 H 2228.09 0.723789 1.75674 0
M  V30 23545 H 2226.24 -0.634998 3.83275 0
M  V30 23546 H 2227.91 1.95155 4.17986 0
M  V30 23547 H 2226.15 1.89787 3.90081 0
M  V30 23548 H 2226.82 1.2144 5.38476 0
M  V30 23549 H 2229.3 -0.266892 4.15243 0
M  V30 23550 H 2228.18 -0.794125 5.43125 0
M  V30 23551 H 2228.44 -1.81959 4.02919 0
M  V30 23552 N 2227.5 -1.54768 0.297442 0
M  V30 23553 C 2228.75 -1.99247 -0.313634 0
M  V30 23554 C 2229.06 -1.18945 -1.55279 0
M  V30 23555 O 2230.26 -1.53674 -2.23823 0
M  V30 23556 C 2228.72 -3.54704 -0.609345 0
M  V30 23557 C 2228.33 -4.4381 0.61127 0
M  V30 23558 C 2230.07 -4.07717 -1.18181 0
M  V30 23559 C 2227.98 -5.90694 0.288908 0
M  V30 23560 H 2226.91 -0.744233 -0.120966 0
M  V30 23561 H 2229.56 -1.78961 0.405591 0
M  V30 23562 H 2227.94 -3.70876 -1.38807 0
M  V30 23563 H 2229.12 -4.39412 1.38758 0
M  V30 23564 H 2227.43 -4.0155 1.10212 0
M  V30 23565 H 2230.03 -5.15023 -1.43718 0
M  V30 23566 H 2230.37 -3.58102 -2.12293 0
M  V30 23567 H 2230.9 -3.95074 -0.464874 0
M  V30 23568 H 2227.64 -6.4445 1.19849 0
M  V30 23569 H 2227.16 -5.98108 -0.4502 0
M  V30 23570 H 2228.84 -6.46905 -0.110819 0
M  V30 23571 N 2228.97 -0.0251005 -1.5758 0
M  V30 23572 C 2230.2 0.664712 -1.95932 0
M  V30 23573 C 2230.62 1.65893 -0.901382 0
M  V30 23574 O 2229.97 1.82123 0.117223 0
M  V30 23575 C 2230.03 1.37462 -3.34345 0
M  V30 23576 O 2229.75 0.420247 -4.3608 0
M  V30 23577 C 2231.25 2.15663 -3.87304 0
M  V30 23578 H 2228.47 0.183546 -0.645408 0
M  V30 23579 H 2231.01 -0.0836731 -2.04329 0
M  V30 23580 H 2229.17 2.07444 -3.27179 0
M  V30 23581 H 2229.58 0.9239 -5.16299 0
M  V30 23582 H 2231.05 2.60794 -4.86508 0
M  V30 23583 H 2231.53 2.99399 -3.21336 0
M  V30 23584 H 2232.14 1.50647 -3.97726 0
M  V30 23585 N 2230.45 1.55637 0.247999 0
M  V30 23586 C 2231.87 1.48036 0.596457 0
M  V30 23587 C 2232.07 0.715073 1.88385 0
M  V30 23588 O 2231.12 0.243988 2.51318 0
M  V30 23589 C 2232.44 2.92434 0.700207 0
M  V30 23590 C 2233.99 3.02798 0.792606 0
M  V30 23591 C 2234.46 4.48501 0.927926 0
M  V30 23592 N 2235.95 4.52435 0.992824 0
M  V30 23593 C 2236.69 5.6242 1.11677 0
M  V30 23594 N 2236.18 6.82217 1.20633 0
M  V30 23595 N 2237.98 5.50214 1.14984 0
M  V30 23596 H 2230.13 2.03833 -0.597145 0
M  V30 23597 H 2232.39 0.925361 -0.205941 0
M  V30 23598 H 2232.1 3.51261 -0.17572 0
M  V30 23599 H 2231.97 3.42859 1.57249 0
M  V30 23600 H 2234.36 2.44053 1.65899 0
M  V30 23601 H 2234.44 2.55585 -0.104807 0
M  V30 23602 H 2234.08 5.07857 0.0661079 0
M  V30 23603 H 2234.01 4.93395 1.84036 0
M  V30 23604 H 2236.5 3.6615 0.934999 0
M  V30 23605 H 2236.82 7.61788 1.29995 0
M  V30 23606 H 2235.16 6.84979 1.17593 0
M  V30 23607 H 2238.35 4.55557 1.07635 0
M  V30 23608 H 2238.52 6.35967 1.24299 0
M  V30 23609 N 2231.93 -0.513613 1.48996 0
M  V30 23610 C 2233.16 -1.29759 1.61794 0
M  V30 23611 C 2233.58 -1.85936 0.284508 0
M  V30 23612 O 2232.94 -1.65234 -0.746156 0
M  V30 23613 C 2232.99 -2.41268 2.67997 0
M  V30 23614 O 2232.09 -3.44768 2.26294 0
M  V30 23615 H 2231.43 -0.383621 0.54197 0
M  V30 23616 H 2233.96 -0.616273 1.95098 0
M  V30 23617 H 2233.97 -2.87216 2.89777 0
M  V30 23618 H 2232.65 -1.99743 3.64795 0
M  V30 23619 H 2231.22 -3.04825 2.14793 0
M  V30 23620 N 2233.41 -1.37859 -0.763727 0
M  V30 23621 C 2234.64 -1.36721 -1.5529 0
M  V30 23622 C 2235.05 0.0455102 -1.88745 0
M  V30 23623 O 2234.41 1.00945 -1.52041 0
M  V30 23624 C 2234.46 -2.21325 -2.85827 0
M  V30 23625 O 2234.18 -3.57093 -2.53803 0
M  V30 23626 C 2235.68 -2.28256 -3.80019 0
M  V30 23627 H 2232.9 -0.468018 -0.480833 0
M  V30 23628 H 2235.45 -1.81305 -0.945977 0
M  V30 23629 H 2233.6 -1.8023 -3.42923 0
M  V30 23630 H 2234.02 -4.0153 -3.37452 0
M  V30 23631 H 2235.49 -2.9176 -4.68594 0
M  V30 23632 H 2235.97 -1.29328 -4.19727 0
M  V30 23633 H 2236.57 -2.69699 -3.28851 0
M  V30 23634 N 2234.89 0.990791 -1.22561 0
M  V30 23635 C 2236.13 1.73064 -1.05144 0
M  V30 23636 C 2236.46 1.90061 0.413157 0
M  V30 23637 O 2235.72 1.44247 1.32254 0
M  V30 23638 C 2236.02 3.13828 -1.71017 0
M  V30 23639 C 2235.68 3.16739 -3.20916 0
M  V30 23640 C 2234.34 3.17241 -3.61817 0
M  V30 23641 C 2236.7 3.12864 -4.16852 0
M  V30 23642 C 2234.02 3.11571 -4.97132 0
M  V30 23643 C 2236.38 3.08737 -5.52145 0
M  V30 23644 C 2235.04 3.07555 -5.92424 0
M  V30 23645 H 2234.31 0.633284 -0.384749 0
M  V30 23646 H 2236.96 1.16022 -1.52352 0
M  V30 23647 H 2235.26 3.74191 -1.1614 0
M  V30 23648 H 2236.96 3.6982 -1.55029 0
M  V30 23649 H 2233.55 3.171 -2.8835 0
M  V30 23650 H 2237.73 3.11625 -3.86269 0
M  V30 23651 H 2232.99 3.09003 -5.27567 0
M  V30 23652 H 2237.16 3.04694 -6.26206 0
M  V30 23653 H 2234.79 3.02916 -6.97242 0
M  V30 23654 N 2236.37 1.03564 1.18795 0
M  V30 23655 C 2237.78 0.764706 1.70321 0
M  V30 23656 C 2238.13 -0.714964 1.82709 0
M  V30 23657 O 2237.25 -1.55687 1.50302 0
M  V30 23658 C 2237.85 1.38151 3.09354 0
M  V30 23659 C 2236.41 1.15901 3.58112 0
M  V30 23660 C 2235.55 1.47534 2.34796 0
M  V30 23661 H 2238.5 1.2027 1.03541 0
M  V30 23662 H 2238.53 0.782042 3.72377 0
M  V30 23663 H 2238.04 2.45842 3.00305 0
M  V30 23664 H 2236.14 0.10061 3.72464 0
M  V30 23665 H 2236.25 1.85248 4.41837 0
M  V30 23666 H 2234.62 0.894871 2.38462 0
M  V30 23667 H 2235.4 2.56323 2.28371 0
M  V30 23668 N 2237.84 -1.34926 0.814413 0
M  V30 23669 C 2239.07 -2.03304 0.410133 0
M  V30 23670 C 2239.49 -1.60953 -0.973436 0
M  V30 23671 O 2238.85 -0.789993 -1.63183 0
M  V30 23672 C 2238.9 -3.56967 0.510553 0
M  V30 23673 O 2238 -4.09679 -0.472963 0
M  V30 23674 H 2237.34 -0.641843 0.170099 0
M  V30 23675 H 2239.87 -1.72356 1.10247 0
M  V30 23676 H 2239.88 -4.06196 0.383206 0
M  V30 23677 H 2238.56 -3.87141 1.5197 0
M  V30 23678 H 2237.14 -3.71649 -0.305206 0
M  V30 23679 N 2239.32 -0.56861 -1.46985 0
M  V30 23680 C 2240.55 -0.0520892 -2.07335 0
M  V30 23681 C 2240.97 1.2373 -1.41677 0
M  V30 23682 O 2240.33 1.74393 -0.495654 0
M  V30 23683 C 2240.38 0.114947 -3.60417 0
M  V30 23684 O 2239.48 1.17485 -3.95311 0
M  V30 23685 H 2238.82 -0.0564501 -0.661596 0
M  V30 23686 H 2241.35 -0.78754 -1.88836 0
M  V30 23687 H 2241.36 0.325572 -4.06699 0
M  V30 23688 H 2240.04 -0.826747 -4.076 0
M  V30 23689 H 2238.61 0.943805 -3.60759 0
M  V30 23690 N 2240.8 1.54608 -0.305646 0
M  V30 23691 C 2242.05 1.99836 0.301666 0
M  V30 23692 C 2242.37 1.19553 1.54052 0
M  V30 23693 O 2241.64 0.292692 1.93701 0
M  V30 23694 H 2240.22 0.73818 0.114455 0
M  V30 23695 H 2242.88 1.90364 -0.41805 0
M  V30 23696 H 2241.98 3.06842 0.570494 0
M  V30 23697 N 2242.28 0.033457 1.57564 0
M  V30 23698 C 2243.69 -0.32297 1.56298 0
M  V30 23699 C 2243.89 -1.72618 1.03949 0
M  V30 23700 O 2242.95 -2.42942 0.688151 0
M  V30 23701 C 2244.26 -0.167612 3.00232 0
M  V30 23702 C 2245.81 -0.240052 3.12078 0
M  V30 23703 C 2246.29 -0.113432 4.5786 0
M  V30 23704 N 2247.78 -0.170277 4.62887 0
M  V30 23705 C 2248.51 -0.096151 5.73319 0
M  V30 23706 N 2248.01 0.0293099 6.92794 0
M  V30 23707 N 2249.8 -0.150453 5.61899 0
M  V30 23708 H 2241.95 0.950989 1.89921 0
M  V30 23709 H 2244.21 0.367623 0.873818 0
M  V30 23710 H 2243.92 0.799162 3.425 0
M  V30 23711 H 2243.79 -0.936019 3.65402 0
M  V30 23712 H 2246.18 -1.19729 2.6972 0
M  V30 23713 H 2246.26 0.558807 2.49622 0
M  V30 23714 H 2245.91 0.840403 5.00899 0
M  V30 23715 H 2245.84 -0.931211 5.18301 0
M  V30 23716 H 2248.33 -0.267214 3.76954 0
M  V30 23717 H 2248.64 0.0790611 7.7276 0
M  V30 23718 H 2246.99 0.0641521 6.9497 0
M  V30 23719 H 2250.18 -0.246899 4.67448 0
M  V30 23720 H 2250.35 -0.0892226 6.47939 0
M  V30 23721 N 2243.76 -1.55766 -0.239741 0
M  V30 23722 C 2245 -1.7911 -0.96391 0
M  V30 23723 C 2245.36 -0.603552 -1.82688 0
M  V30 23724 O 2244.65 0.403 -1.87314 0
M  V30 23725 C 2244.84 -3.05676 -1.85195 0
M  V30 23726 C 2244.67 -4.36627 -1.07643 0
M  V30 23727 C 2243.44 -4.99265 -0.77865 0
M  V30 23728 C 2245.64 -5.12323 -0.45053 0
M  V30 23729 N 2243.62 -6.13897 0.0201787 0
M  V30 23730 C 2244.99 -6.19636 0.212538 0
M  V30 23731 C 2247.05 -4.96584 -0.361719 0
M  V30 23732 C 2245.75 -7.1292 0.955897 0
M  V30 23733 C 2247.78 -5.90253 0.368127 0
M  V30 23734 C 2247.14 -6.96979 1.0198 0
M  V30 23735 H 2243.24 -0.707278 -0.333589 0
M  V30 23736 H 2245.82 -1.9326 -0.236391 0
M  V30 23737 H 2243.99 -2.92842 -2.55144 0
M  V30 23738 H 2245.73 -3.17285 -2.51222 0
M  V30 23739 H 2242.48 -4.60834 -1.09221 0
M  V30 23740 H 2242.9 -6.7577 0.407896 0
M  V30 23741 H 2247.55 -4.14143 -0.851213 0
M  V30 23742 H 2245.26 -7.94857 1.45697 0
M  V30 23743 H 2248.85 -5.80152 0.437606 0
M  V30 23744 H 2247.73 -7.6821 1.57554 0
M  V30 23745 N 2245.23 0.505704 -1.49266 0
M  V30 23746 C 2246.2 1.59003 -1.65078 0
M  V30 23747 C 2247.2 1.52064 -0.522794 0
M  V30 23748 O 2248.39 1.553 -0.789145 0
M  V30 23749 C 2245.52 2.98653 -1.64375 0
M  V30 23750 H 2246.71 1.46314 -2.61786 0
M  V30 23751 H 2244.26 0.729592 -1.38227 0
M  V30 23752 H 2245 3.16824 -0.692328 0
M  V30 23753 H 2244.78 3.05098 -2.46287 0
M  V30 23754 H 2246.27 3.77443 -1.7868 0
M  V30 23755 N 2246.71 1.38262 0.756405 0
M  V30 23756 C 2247.96 1.34049 1.51245 0
M  V30 23757 C 2248.28 -0.069803 1.94875 0
M  V30 23758 O 2247.55 -1.01693 1.67438 0
M  V30 23759 H 2246.13 0.493232 0.561009 0
M  V30 23760 H 2248.79 1.72911 0.899317 0
M  V30 23761 H 2247.89 1.98951 2.40468 0
M  V30 23762 N 2248.19 -0.984277 1.23084 0
M  V30 23763 C 2249.14 -2.06064 0.975786 0
M  V30 23764 C 2250.12 -1.60717 -0.0767969 0
M  V30 23765 O 2251.32 -1.76486 0.134836 0
M  V30 23766 C 2248.45 -3.38623 0.564733 0
M  V30 23767 C 2247.53 -3.9058 1.65251 0
M  V30 23768 N 2247.92 -4.15661 2.88201 0
M  V30 23769 C 2246.22 -4.19074 1.52619 0
M  V30 23770 C 2246.92 -4.58018 3.58601 0
M  V30 23771 N 2245.9 -4.6222 2.86101 0
M  V30 23772 H 2249.7 -2.23408 1.90961 0
M  V30 23773 H 2247.21 -1.16673 1.12965 0
M  V30 23774 H 2249.21 -4.15314 0.363293 0
M  V30 23775 H 2247.87 -3.22675 -0.36209 0
M  V30 23776 H 2248.88 -4.03598 3.24544 0
M  V30 23777 H 2245.56 -4.12151 0.666193 0
M  V30 23778 H 2246.95 -4.85974 4.63982 0
M  V30 23779 N 2249.67 -1.04192 -1.18244 0
M  V30 23780 C 2250.91 -0.756923 -1.88791 0
M  V30 23781 C 2251.27 0.707735 -1.7891 0
M  V30 23782 O 2250.56 1.50997 -1.17943 0
M  V30 23783 C 2250.76 -1.15917 -3.3808 0
M  V30 23784 C 2250.59 -2.66139 -3.62491 0
M  V30 23785 C 2249.36 -3.33304 -3.79785 0
M  V30 23786 C 2251.55 -3.64359 -3.6297 0
M  V30 23787 N 2249.54 -4.72494 -3.91947 0
M  V30 23788 C 2250.91 -4.89229 -3.80861 0
M  V30 23789 C 2252.96 -3.57971 -3.46065 0
M  V30 23790 C 2251.66 -6.08478 -3.83597 0
M  V30 23791 C 2253.69 -4.76649 -3.50085 0
M  V30 23792 C 2253.05 -6.00339 -3.68474 0
M  V30 23793 H 2249.15 -0.329053 -0.7094 0
M  V30 23794 H 2251.74 -1.33186 -1.4202 0
M  V30 23795 H 2249.91 -0.612306 -3.83543 0
M  V30 23796 H 2251.64 -0.825059 -3.96201 0
M  V30 23797 H 2248.39 -2.83708 -3.79219 0
M  V30 23798 H 2248.82 -5.44838 -4.01847 0
M  V30 23799 H 2253.46 -2.63317 -3.30793 0
M  V30 23800 H 2251.18 -7.03487 -3.97657 0
M  V30 23801 H 2254.76 -4.7335 -3.38277 0
M  V30 23802 H 2253.64 -6.90634 -3.71476 0
M  V30 23803 N 2251.15 1.34492 -0.821557 0
M  V30 23804 C 2252.08 2.32079 -0.257179 0
M  V30 23805 C 2253.06 1.58177 0.625617 0
M  V30 23806 O 2254.24 1.86167 0.552779 0
M  V30 23807 C 2251.37 3.42373 0.582898 0
M  V30 23808 C 2250.33 4.2752 -0.202646 0
M  V30 23809 C 2249.65 5.2927 0.760086 0
M  V30 23810 C 2250.95 5.02906 -1.41007 0
M  V30 23811 H 2252.65 2.79531 -1.07252 0
M  V30 23812 H 2250.19 1.34392 -0.517187 0
M  V30 23813 H 2252.15 4.09657 0.9879 0
M  V30 23814 H 2250.87 2.93568 1.43128 0
M  V30 23815 H 2249.53 3.61837 -0.589 0
M  V30 23816 H 2249.18 4.76727 1.60438 0
M  V30 23817 H 2248.88 5.87115 0.238706 0
M  V30 23818 H 2250.4 5.99422 1.16297 0
M  V30 23819 H 2251.81 5.63052 -1.07915 0
M  V30 23820 H 2250.21 5.70319 -1.86699 0
M  V30 23821 H 2251.28 4.3268 -2.18897 0
M  V30 23822 N 2252.62 0.576397 1.46681 0
M  V30 23823 C 2253.87 0.0594518 2.02013 0
M  V30 23824 C 2254.19 -1.30269 1.45104 0
M  V30 23825 O 2253.46 -1.85379 0.63335 0
M  V30 23826 H 2252.04 0.0189876 0.746759 0
M  V30 23827 H 2254.71 0.750749 1.7986 0
M  V30 23828 H 2253.8 -0.0142902 3.12097 0
M  V30 23829 N 2254.1 -1.54444 0.313841 0
M  V30 23830 C 2255.38 -1.92526 -0.345413 0
M  V30 23831 C 2255.76 -1.24245 -1.70665 0
M  V30 23832 O 2255.11 -0.382694 -2.25273 0
M  V30 23833 C 2255.32 -3.46122 -0.447309 0
M  V30 23834 C 2256.67 -4.18585 -0.712164 0
M  V30 23835 O 2257.69 -3.52226 -0.530616 0
M  V30 23836 O 2256.55 -5.36087 -1.06173 0
M  V30 23837 H 2253.64 -0.803586 -0.195393 0
M  V30 23838 H 2256.19 -1.65776 0.362842 0
M  V30 23839 H 2254.96 -3.87974 0.509111 0
M  V30 23840 H 2254.58 -3.78947 -1.20353 0
M  V30 23841 N 2255.58 -0.0418125 -1.57545 0
M  V30 23842 C 2256.53 0.953686 -2.1215 0
M  V30 23843 C 2257.52 1.3285 -1.05106 0
M  V30 23844 O 2258.73 1.30925 -1.23526 0
M  V30 23845 H 2255.1 0.325377 -0.677963 0
M  V30 23846 H 2257.07 0.467939 -2.94708 0
M  V30 23847 C 2255.82 2.22252 -2.67394 0
M  V30 23848 H 2255.15 1.94288 -3.49417 0
M  V30 23849 H 2256.59 2.90088 -3.09232 0
M  V30 23850 C 2255.05 2.96088 -1.60729 0
M  V30 23851 O 2255.58 3.88677 -1.01455 0
M  V30 23852 N 2253.78 2.5865 -1.32471 0
M  V30 23853 H 2253.33 1.83434 -1.80859 0
M  V30 23854 H 2253.29 3.0836 -0.613304 0
M  V30 23855 N 2257.06 1.55891 0.231477 0
M  V30 23856 C 2258.29 1.82515 0.974473 0
M  V30 23857 C 2258.7 0.619622 1.78343 0
M  V30 23858 O 2258.06 -0.411817 1.77793 0
M  V30 23859 C 2258.11 3.07542 1.90001 0
M  V30 23860 O 2257.83 4.23442 1.12377 0
M  V30 23861 C 2259.33 3.4708 2.75773 0
M  V30 23862 H 2256.55 0.606971 0.286054 0
M  V30 23863 H 2259.1 2.0297 0.249703 0
M  V30 23864 H 2257.25 2.89091 2.57886 0
M  V30 23865 H 2257.66 4.94403 1.75117 0
M  V30 23866 H 2259.14 4.37625 3.36435 0
M  V30 23867 H 2259.62 2.68373 3.47667 0
M  V30 23868 H 2260.22 3.67935 2.13317 0
M  V30 23869 N 2258.54 -0.497781 1.49532 0
M  V30 23870 C 2259.5 -1.58125 1.65919 0
M  V30 23871 C 2260.5 -1.51785 0.530851 0
M  V30 23872 O 2261.69 -1.54879 0.79737 0
M  V30 23873 C 2258.82 -2.97777 1.65956 0
M  V30 23874 H 2260.01 -1.44924 2.62559 0
M  V30 23875 H 2257.57 -0.722251 1.38612 0
M  V30 23876 H 2258.3 -3.16452 0.70912 0
M  V30 23877 H 2258.09 -3.03788 2.47902 0
M  V30 23878 H 2259.58 -3.7649 1.80679 0
M  V30 23879 N 2260.01 -1.38661 -0.749062 0
M  V30 23880 C 2260.98 -1.36048 -1.84455 0
M  V30 23881 C 2261.98 -0.26015 -1.58682 0
M  V30 23882 O 2263.17 -0.517291 -1.66342 0
M  V30 23883 C 2260.3 -1.11916 -3.22006 0
M  V30 23884 H 2261.49 -2.33515 -1.88178 0
M  V30 23885 H 2259.05 -1.2402 -0.951244 0
M  V30 23886 H 2259.78 -0.150743 -3.23949 0
M  V30 23887 H 2259.57 -1.91585 -3.42108 0
M  V30 23888 H 2261.06 -1.12795 -4.02078 0
M  V30 23889 N 2261.49 0.977736 -1.23605 0
M  V30 23890 C 2262.74 1.72272 -1.08139 0
M  V30 23891 C 2263.09 1.88662 0.37742 0
M  V30 23892 O 2262.39 1.42974 1.2755 0
M  V30 23893 C 2262.58 3.11996 -1.74336 0
M  V30 23894 C 2262.41 3.09234 -3.26503 0
M  V30 23895 C 2261.18 3.14275 -3.95675 0
M  V30 23896 C 2263.38 2.92193 -4.23235 0
M  V30 23897 N 2261.36 3.01427 -5.34804 0
M  V30 23898 C 2262.73 2.87535 -5.49294 0
M  V30 23899 C 2264.79 2.76698 -4.13936 0
M  V30 23900 C 2263.49 2.68966 -6.6712 0
M  V30 23901 C 2265.52 2.59495 -5.31429 0
M  V30 23902 C 2264.88 2.55537 -6.56415 0
M  V30 23903 H 2260.98 0.639368 -0.450259 0
M  V30 23904 H 2263.56 1.15999 -1.56372 0
M  V30 23905 H 2261.73 3.66481 -1.28631 0
M  V30 23906 H 2263.46 3.75143 -1.51822 0
M  V30 23907 H 2260.22 3.22561 -3.46773 0
M  V30 23908 H 2260.64 2.9827 -6.07753 0
M  V30 23909 H 2265.28 2.78546 -3.18075 0
M  V30 23910 H 2263 2.65862 -7.63114 0
M  V30 23911 H 2266.59 2.48465 -5.26077 0
M  V30 23912 H 2265.47 2.42392 -7.45799 0
M  V30 23913 N 2262.97 1.04818 1.1769 0
M  V30 23914 C 2264.25 0.669995 1.83767 0
M  V30 23915 C 2264.63 -0.849952 1.93233 0
M  V30 23916 O 2263.98 -1.75441 1.464 0
M  V30 23917 C 2264.19 1.35461 3.21639 0
M  V30 23918 C 2265.53 1.49024 3.97589 0
M  V30 23919 O 2266.56 1.31332 3.31105 0
M  V30 23920 O 2265.42 1.77923 5.16726 0
M  V30 23921 H 2262.51 0.235382 0.792795 0
M  V30 23922 H 2265.06 1.14754 1.25019 0
M  V30 23923 H 2263.83 2.39174 3.09696 0
M  V30 23924 H 2263.45 0.866175 3.8805 0
M  V30 23925 N 2264.45 -1.34055 0.828678 0
M  V30 23926 C 2265.38 -2.28217 0.212092 0
M  V30 23927 C 2266.39 -1.51287 -0.601336 0
M  V30 23928 O 2267.58 -1.73241 -0.430074 0
M  V30 23929 C 2264.68 -3.31146 -0.720822 0
M  V30 23930 C 2263.86 -4.3737 0.0510356 0
M  V30 23931 C 2262.92 -5.20026 -0.803674 0
M  V30 23932 O 2261.94 -5.68666 -0.246567 0
M  V30 23933 N 2263.14 -5.40302 -2.1226 0
M  V30 23934 H 2265.91 -2.81769 1.0211 0
M  V30 23935 H 2263.47 -1.4664 0.686179 0
M  V30 23936 H 2265.46 -3.83342 -1.29735 0
M  V30 23937 H 2264.03 -2.77945 -1.43056 0
M  V30 23938 H 2263.25 -3.85811 0.808899 0
M  V30 23939 H 2264.54 -5.05459 0.582154 0
M  V30 23940 H 2263.94 -5.02468 -2.59889 0
M  V30 23941 H 2262.49 -5.95594 -2.64785 0
M  V30 23942 N 2265.93 -0.584167 -1.46374 0
M  V30 23943 C 2266.86 0.135996 -2.33104 0
M  V30 23944 C 2267.84 0.88223 -1.45433 0
M  V30 23945 O 2269.02 0.857403 -1.74248 0
M  V30 23946 C 2266.15 1.14928 -3.27733 0
M  V30 23947 C 2265.11 0.517788 -4.24856 0
M  V30 23948 C 2264.43 1.63764 -5.09004 0
M  V30 23949 C 2265.73 -0.545977 -5.19439 0
M  V30 23950 H 2267.43 -0.588137 -2.93567 0
M  V30 23951 H 2264.97 -0.284284 -1.41166 0
M  V30 23952 H 2266.93 1.66146 -3.87264 0
M  V30 23953 H 2265.65 1.9037 -2.6538 0
M  V30 23954 H 2264.31 0.0266716 -3.6659 0
M  V30 23955 H 2263.96 2.38177 -4.43036 0
M  V30 23956 H 2263.66 1.22075 -5.7478 0
M  V30 23957 H 2265.18 2.15256 -5.71399 0
M  V30 23958 H 2266.6 -0.118805 -5.73177 0
M  V30 23959 H 2264.99 -0.883274 -5.93564 0
M  V30 23960 H 2266.06 -1.4317 -4.63282 0
M  V30 23961 N 2267.41 1.54275 -0.322027 0
M  V30 23962 C 2268.35 2.24282 0.544624 0
M  V30 23963 C 2269.32 1.23305 1.11288 0
M  V30 23964 O 2270.51 1.51983 1.15351 0
M  V30 23965 C 2267.65 3.00301 1.7004 0
M  V30 23966 C 2266.76 4.16092 1.16152 0
M  V30 23967 C 2265.9 4.79645 2.28285 0
M  V30 23968 C 2264.93 5.87543 1.71638 0
M  V30 23969 N 2264.07 6.44964 2.77427 0
M  V30 23970 H 2268.91 2.97942 -0.0589431 0
M  V30 23971 H 2266.45 1.47043 -0.0408604 0
M  V30 23972 H 2268.41 3.4262 2.38048 0
M  V30 23973 H 2267.04 2.28979 2.27527 0
M  V30 23974 H 2266.09 3.78567 0.373025 0
M  V30 23975 H 2267.4 4.93764 0.707 0
M  V30 23976 H 2266.55 5.24925 3.04201 0
M  V30 23977 H 2265.29 4.01351 2.77072 0
M  V30 23978 H 2264.3 5.41667 0.942187 0
M  V30 23979 H 2265.52 6.67733 1.23729 0
M  V30 23980 H 2263.47 5.69544 3.25509 0
M  V30 23981 H 2263.39 7.18044 2.36534 0
M  V30 23982 H 2264.65 6.949 3.53177 0
M  V30 23983 N 2268.88 0.0501669 1.5752 0
M  V30 23984 C 2269.83 -0.924566 2.11472 0
M  V30 23985 C 2270.8 -1.30949 1.02184 0
M  V30 23986 O 2271.99 -1.39914 1.29726 0
M  V30 23987 C 2269.13 -2.19446 2.66341 0
M  V30 23988 C 2268.24 -1.86411 3.89711 0
M  V30 23989 C 2267.37 -3.07851 4.32899 0
M  V30 23990 C 2266.41 -2.70733 5.48972 0
M  V30 23991 N 2265.55 -3.84863 5.87218 0
M  V30 23992 H 2270.39 -0.457588 2.94466 0
M  V30 23993 H 2267.93 -0.214241 1.45532 0
M  V30 23994 H 2269.88 -2.93753 2.96252 0
M  V30 23995 H 2268.51 -2.63723 1.86146 0
M  V30 23996 H 2267.57 -1.02257 3.66398 0
M  V30 23997 H 2268.88 -1.55088 4.74077 0
M  V30 23998 H 2268.03 -3.90458 4.64357 0
M  V30 23999 H 2266.77 -3.42352 3.47342 0
M  V30 24000 H 2265.78 -1.86542 5.17187 0
M  V30 24001 H 2267 -2.37425 6.36244 0
M  V30 24002 H 2264.95 -4.19166 5.04614 0
M  V30 24003 H 2264.86 -3.57235 6.66273 0
M  V30 24004 H 2266.13 -4.68113 6.2329 0
M  V30 24005 N 2270.36 -1.56011 -0.223207 0
M  V30 24006 C 2271.59 -1.83374 -0.968946 0
M  V30 24007 C 2272.01 -0.630285 -1.77226 0
M  V30 24008 O 2271.37 0.420928 -1.76346 0
M  V30 24009 C 2271.42 -3.08712 -1.86357 0
M  V30 24010 O 2270.52 -2.8729 -2.95868 0
M  V30 24011 H 2269.86 -0.604626 -0.27445 0
M  V30 24012 H 2272.39 -2.03222 -0.237021 0
M  V30 24013 H 2272.4 -3.38772 -2.2737 0
M  V30 24014 H 2271.08 -3.95935 -1.27312 0
M  V30 24015 H 2269.65 -2.68459 -2.58813 0
M  V30 24016 N 2271.84 0.489844 -1.49794 0
M  V30 24017 C 2273.09 1.23992 -1.59088 0
M  V30 24018 C 2273.4 1.93469 -0.287941 0
M  V30 24019 O 2274.61 2.70256 -0.259554 0
M  V30 24020 C 2273.06 2.25195 -2.8074 0
M  V30 24021 C 2272.67 1.61607 -4.17836 0
M  V30 24022 C 2274.42 3.00962 -2.9937 0
M  V30 24023 C 2272.32 2.60987 -5.30698 0
M  V30 24024 H 2271.25 0.466478 -0.59238 0
M  V30 24025 H 2273.9 0.512489 -1.76198 0
M  V30 24026 H 2272.29 3.0115 -2.57148 0
M  V30 24027 H 2273.46 0.915695 -4.5161 0
M  V30 24028 H 2271.77 0.981905 -4.04657 0
M  V30 24029 H 2274.37 3.75302 -3.80858 0
M  V30 24030 H 2274.71 3.5924 -2.10362 0
M  V30 24031 H 2275.25 2.32122 -3.23054 0
M  V30 24032 H 2271.99 2.07474 -6.218 0
M  V30 24033 H 2271.51 3.29231 -5.01365 0
M  V30 24034 H 2273.19 3.23193 -5.60496 0
M  V30 24035 N 2273.32 1.39056 0.741698 0
M  V30 24036 C 2274.57 1.35228 1.49654 0
M  V30 24037 C 2274.88 -0.0512365 1.95533 0
M  V30 24038 O 2276.09 -0.21209 2.7067 0
M  V30 24039 C 2274.54 2.3753 2.70384 0
M  V30 24040 C 2274.15 3.83562 2.31482 0
M  V30 24041 C 2275.89 2.42765 3.48232 0
M  V30 24042 C 2273.8 4.77521 3.48895 0
M  V30 24043 H 2272.73 0.502709 0.561961 0
M  V30 24044 H 2275.38 1.6467 0.809698 0
M  V30 24045 H 2273.76 2.01148 3.41109 0
M  V30 24046 H 2274.94 4.28948 1.68347 0
M  V30 24047 H 2273.25 3.81557 1.66742 0
M  V30 24048 H 2275.85 3.10158 4.35553 0
M  V30 24049 H 2276.19 1.45015 3.90226 0
M  V30 24050 H 2276.73 2.78007 2.8453 0
M  V30 24051 H 2273.46 5.7651 3.11956 0
M  V30 24052 H 2272.98 4.3682 4.11033 0
M  V30 24053 H 2274.66 4.96104 4.15319 0
M  V30 24054 N 2274.8 -0.971167 1.24121 0
M  V30 24055 C 2276.04 -1.7103 1.07671 0
M  V30 24056 C 2276.36 -1.91146 -0.385764 0
M  V30 24057 O 2275.63 -1.48673 -1.27567 0
M  V30 24058 H 2274.21 -0.633748 0.39544 0
M  V30 24059 H 2276.88 -1.16852 1.55986 0
M  V30 24060 H 2275.97 -2.69619 1.572 0
M  V30 24061 N 2276.27 -1.05441 -1.17133 0
M  V30 24062 C 2277.21 -0.601894 -2.20119 0
M  V30 24063 C 2278.19 0.370826 -1.58315 0
M  V30 24064 O 2279.37 0.281849 -1.86381 0
M  V30 24065 C 2276.5 0.118808 -3.38492 0
M  V30 24066 C 2275.54 -0.809316 -4.18751 0
M  V30 24067 S 2276.38 -2.29986 -4.83598 0
M  V30 24068 C 2277.53 -1.5904 -6.05357 0
M  V30 24069 H 2277.76 -1.47442 -2.58163 0
M  V30 24070 H 2275.3 -0.866595 -1.27787 0
M  V30 24071 H 2277.26 0.528423 -4.07085 0
M  V30 24072 H 2275.92 0.967412 -2.98831 0
M  V30 24073 H 2275.11 -0.251468 -5.03372 0
M  V30 24074 H 2274.71 -1.15841 -3.55608 0
M  V30 24075 H 2277 -0.891135 -6.71614 0
M  V30 24076 H 2277.95 -2.41419 -6.65675 0
M  V30 24077 H 2278.35 -1.07672 -5.54136 0
M  V30 24078 N 2277.75 1.33613 -0.835776 0
M  V30 24079 C 2278.69 2.27214 -0.211855 0
M  V30 24080 C 2279.66 1.49508 0.639222 0
M  V30 24081 O 2280.85 1.78691 0.600161 0
M  V30 24082 C 2277.97 3.31328 0.702835 0
M  V30 24083 C 2277.02 4.26439 -0.0723799 0
M  V30 24084 S 2277.85 5.16103 -1.4282 0
M  V30 24085 C 2279.01 6.23747 -0.518723 0
M  V30 24086 H 2279.24 2.79785 -1.00538 0
M  V30 24087 H 2276.78 1.40857 -0.63236 0
M  V30 24088 H 2278.73 3.91796 1.22498 0
M  V30 24089 H 2277.39 2.77579 1.46999 0
M  V30 24090 H 2276.59 5.00128 0.623502 0
M  V30 24091 H 2276.19 3.7029 -0.525489 0
M  V30 24092 H 2278.48 6.76902 0.284659 0
M  V30 24093 H 2279.42 6.97411 -1.22569 0
M  V30 24094 H 2279.83 5.64409 -0.101444 0
M  V30 24095 N 2279.23 0.591922 1.46062 0
M  V30 24096 C 2280.14 -0.138269 2.34192 0
M  V30 24097 C 2281.16 -0.876582 1.50306 0
M  V30 24098 O 2282.33 -0.837696 1.83152 0
M  V30 24099 C 2279.4 -1.1332 3.27658 0
M  V30 24100 C 2278.46 -0.398555 4.27446 0
M  V30 24101 C 2277.69 -1.34609 5.16446 0
M  V30 24102 O 2277.91 -2.58312 5.08558 0
M  V30 24103 O 2276.85 -0.851663 5.95844 0
M  V30 24104 H 2280.67 0.585572 2.98001 0
M  V30 24105 H 2278.26 0.352265 1.45188 0
M  V30 24106 H 2280.14 -1.70664 3.85294 0
M  V30 24107 H 2278.82 -1.83835 2.66433 0
M  V30 24108 H 2277.72 0.21696 3.7347 0
M  V30 24109 H 2279.06 0.265795 4.91482 0
M  V30 24110 N 2280.71 -1.54102 0.330204 0
M  V30 24111 C 2281.96 -2.00687 -0.27037 0
M  V30 24112 C 2282.28 -1.21828 -1.51619 0
M  V30 24113 O 2281.54 -0.290284 -1.93535 0
M  V30 24114 C 2281.84 -3.51567 -0.643072 0
M  V30 24115 C 2281.5 -4.48071 0.50433 0
M  V30 24116 C 2280.17 -4.74175 0.819247 0
M  V30 24117 C 2282.52 -5.05371 1.27474 0
M  V30 24118 C 2279.85 -5.54837 1.90718 0
M  V30 24119 C 2282.2 -5.87219 2.35281 0
M  V30 24120 C 2280.86 -6.11622 2.67347 0
M  V30 24121 H 2280.13 -0.734366 -0.0989353 0
M  V30 24122 H 2282.78 -1.86007 0.455357 0
M  V30 24123 H 2281.08 -3.64008 -1.44932 0
M  V30 24124 H 2282.78 -3.85058 -1.11942 0
M  V30 24125 H 2279.37 -4.27877 0.248809 0
M  V30 24126 H 2283.55 -4.8518 1.0447 0
M  V30 24127 H 2278.81 -5.71973 2.16001 0
M  V30 24128 H 2282.98 -6.30636 2.95417 0
M  V30 24129 H 2280.61 -6.73913 3.51775 0
M  V30 24130 N 2282.19 -0.0585199 -1.57491 0
M  V30 24131 C 2283.41 0.626486 -1.97712 0
M  V30 24132 C 2283.84 1.63149 -0.93616 0
M  V30 24133 O 2283.19 1.81025 0.0997792 0
M  V30 24134 C 2283.24 1.28332 -3.36992 0
M  V30 24135 O 2282.35 2.39907 -3.35437 0
M  V30 24136 H 2281.69 0.162255 -0.643871 0
M  V30 24137 H 2284.22 -0.1291 -2.04192 0
M  V30 24138 H 2284.23 1.63328 -3.73882 0
M  V30 24139 H 2282.9 0.546816 -4.1229 0
M  V30 24140 H 2281.48 2.06803 -3.10301 0
M  V30 24141 N 2283.66 1.56128 0.21493 0
M  V30 24142 C 2284.59 1.95976 1.26947 0
M  V30 24143 C 2285.58 0.828894 1.48537 0
M  V30 24144 O 2286.76 1.09171 1.60609 0
M  V30 24145 C 2283.89 2.28218 2.6179 0
M  V30 24146 C 2282.84 3.43858 2.54845 0
M  V30 24147 C 2282.17 3.61722 3.93778 0
M  V30 24148 C 2283.47 4.78636 2.09057 0
M  V30 24149 H 2285.16 2.84314 0.93841 0
M  V30 24150 H 2282.71 1.36789 0.449972 0
M  V30 24151 H 2284.66 2.54688 3.35726 0
M  V30 24152 H 2283.39 1.36741 2.96596 0
M  V30 24153 H 2282.05 3.17447 1.83365 0
M  V30 24154 H 2281.69 2.6761 4.25904 0
M  V30 24155 H 2281.39 4.39505 3.90012 0
M  V30 24156 H 2282.92 3.90547 4.69367 0
M  V30 24157 H 2284.33 5.04267 2.72741 0
M  V30 24158 H 2282.73 5.59749 2.16336 0
M  V30 24159 H 2283.8 4.73549 1.04306 0
M  V30 24160 N 2285.14 -0.481893 1.50052 0
M  V30 24161 C 2286.39 -1.23475 1.605 0
M  V30 24162 C 2286.72 -1.92167 0.300364 0
M  V30 24163 O 2285.97 -1.82247 -0.713062 0
M  V30 24164 C 2286.27 -2.30993 2.72721 0
M  V30 24165 C 2285.94 -1.79628 4.13575 0
M  V30 24166 C 2284.6 -1.6534 4.51903 0
M  V30 24167 C 2286.95 -1.41403 5.01652 0
M  V30 24168 C 2284.28 -1.11234 5.76059 0
M  V30 24169 C 2286.63 -0.887428 6.26345 0
M  V30 24170 C 2285.3 -0.731091 6.63484 0
M  V30 24171 H 2284.57 -0.451826 0.587311 0
M  V30 24172 H 2287.21 -0.532435 1.83949 0
M  V30 24173 H 2285.52 -3.07089 2.43317 0
M  V30 24174 H 2287.21 -2.88983 2.78011 0
M  V30 24175 H 2283.8 -1.91714 3.83332 0
M  V30 24176 H 2287.99 -1.51281 4.72681 0
M  V30 24177 H 2283.24 -0.978579 6.03518 0
M  V30 24178 H 2287.42 -0.582532 6.93959 0
M  V30 24179 H 2285.05 -0.309672 7.59569 0
M  V30 24180 N 2286.62 -1.39448 -0.734313 0
M  V30 24181 C 2287.87 -1.36439 -1.49094 0
M  V30 24182 C 2288.19 0.0387912 -1.94961 0
M  V30 24183 O 2287.46 0.990161 -1.69034 0
M  V30 24184 H 2286.04 -0.502094 -0.553092 0
M  V30 24185 H 2288.7 -1.7432 -0.871694 0
M  V30 24186 H 2287.8 -2.02751 -2.37273 0
M  V30 24187 N 2288.1 0.964571 -1.24635 0
M  V30 24188 C 2289.35 1.70228 -1.08191 0
M  V30 24189 C 2289.66 1.91899 0.378696 0
M  V30 24190 O 2290.87 2.63271 0.66338 0
M  V30 24191 C 2289.32 3.06416 -1.88778 0
M  V30 24192 C 2288.93 2.92576 -3.39268 0
M  V30 24193 C 2290.67 3.84038 -1.80874 0
M  V30 24194 C 2288.58 4.24094 -4.12187 0
M  V30 24195 H 2287.51 0.638364 -0.401256 0
M  V30 24196 H 2290.16 1.0746 -1.48744 0
M  V30 24197 H 2288.54 3.70031 -1.41042 0
M  V30 24198 H 2289.72 2.37954 -3.94607 0
M  V30 24199 H 2288.03 2.28418 -3.48158 0
M  V30 24200 H 2290.63 4.81431 -2.32654 0
M  V30 24201 H 2290.97 4.0903 -0.774615 0
M  V30 24202 H 2291.51 3.27155 -2.26307 0
M  V30 24203 H 2288.25 4.04294 -5.15972 0
M  V30 24204 H 2287.77 4.78519 -3.61634 0
M  V30 24205 H 2289.44 4.92695 -4.19358 0
M  V30 24206 N 2289.58 1.0606 1.16572 0
M  V30 24207 C 2290.8 0.796596 1.91492 0
M  V30 24208 C 2291.23 -0.642837 1.76774 0
M  V30 24209 O 2290.58 -1.44766 1.09144 0
M  V30 24210 C 2290.63 1.19309 3.40291 0
M  V30 24211 O 2289.74 0.330466 4.11074 0
M  V30 24212 H 2289.08 0.291337 0.596673 0
M  V30 24213 H 2291.61 1.41578 1.47706 0
M  V30 24214 H 2291.62 1.16363 3.91055 0
M  V30 24215 H 2290.29 2.24159 3.50322 0
M  V30 24216 H 2288.87 0.42129 3.70513 0
M  V30 24217 N 2291.06 -1.33168 0.84285 0
M  V30 24218 C 2292.29 -2.01563 0.453432 0
M  V30 24219 C 2292.69 -1.63555 -0.951118 0
M  V30 24220 O 2292.04 -0.846774 -1.6302 0
M  V30 24221 C 2292.1 -3.56019 0.499076 0
M  V30 24222 C 2291.76 -4.17417 1.86044 0
M  V30 24223 C 2292.76 -4.36501 2.82423 0
M  V30 24224 C 2290.44 -4.53754 2.15436 0
M  V30 24225 C 2292.44 -4.91075 4.06355 0
M  V30 24226 C 2290.13 -5.08034 3.39624 0
M  V30 24227 C 2291.12 -5.26642 4.349 0
M  V30 24228 O 2290.81 -5.79766 5.5689 0
M  V30 24229 H 2290.54 -0.652176 0.177882 0
M  V30 24230 H 2293.1 -1.70986 1.13811 0
M  V30 24231 H 2291.33 -3.8594 -0.2424 0
M  V30 24232 H 2293.02 -4.05702 0.126923 0
M  V30 24233 H 2293.78 -4.08773 2.61017 0
M  V30 24234 H 2289.66 -4.38563 1.42069 0
M  V30 24235 H 2293.21 -5.05514 4.80731 0
M  V30 24236 H 2289.1 -5.35193 3.60886 0
M  V30 24237 H 2289.87 -5.98176 5.58684 0
M  V30 24238 N 2292.53 -0.599659 -1.45746 0
M  V30 24239 C 2293.76 -0.0978914 -2.06668 0
M  V30 24240 C 2294.18 1.21436 -1.44564 0
M  V30 24241 O 2293.53 1.73794 -0.556953 0
M  V30 24242 C 2293.58 0.0566409 -3.61456 0
M  V30 24243 O 2293.31 -1.20369 -4.2124 0
M  V30 24244 C 2294.81 0.590791 -4.39346 0
M  V30 24245 H 2292.03 -0.0652061 -0.667824 0
M  V30 24246 H 2294.57 -0.825143 -1.87114 0
M  V30 24247 H 2292.73 0.734184 -3.80379 0
M  V30 24248 H 2293.14 -1.0283 -5.14321 0
M  V30 24249 H 2294.61 0.648035 -5.48183 0
M  V30 24250 H 2295.09 1.6114 -4.08571 0
M  V30 24251 H 2295.7 -0.0524427 -4.25268 0
M  V30 24252 N 2294.01 1.53925 -0.338371 0
M  V30 24253 C 2295.26 2.00431 0.25921 0
M  V30 24254 C 2295.58 1.22794 1.51481 0
M  V30 24255 O 2294.85 0.333713 1.93037 0
M  V30 24256 H 2293.43 0.740441 0.0987715 0
M  V30 24257 H 2296.09 1.89434 -0.458335 0
M  V30 24258 H 2295.19 3.07983 0.50528 0
M  V30 24259 N 2295.49 0.0668712 1.57458 0
M  V30 24260 C 2296.45 -0.887385 2.11325 0
M  V30 24261 C 2297.45 -1.22962 1.0362 0
M  V30 24262 O 2298.64 -1.16371 1.29628 0
M  V30 24263 C 2295.77 -2.19237 2.61051 0
M  V30 24264 H 2296.97 -0.420142 2.96942 0
M  V30 24265 H 2294.52 -0.181765 1.5524 0
M  V30 24266 H 2295.26 -2.70509 1.78873 0
M  V30 24267 H 2295.04 -1.95696 3.39773 0
M  V30 24268 H 2296.53 -2.87559 3.02819 0
M  V30 24269 N 2296.97 -1.56239 -0.206647 0
M  V30 24270 C 2298.24 -1.70757 -0.954021 0
M  V30 24271 C 2298.62 -0.618388 -2.01839 0
M  V30 24272 O 2297.97 0.372394 -2.25445 0
M  V30 24273 C 2298.18 -3.12645 -1.55094 0
M  V30 24274 C 2299.53 -3.7252 -2.0375 0
M  V30 24275 O 2300.55 -3.15701 -1.64959 0
M  V30 24276 O 2299.41 -4.72213 -2.75094 0
M  V30 24277 H 2296.51 -0.696029 -0.446624 0
M  V30 24278 H 2299.05 -1.6855 -0.197254 0
M  V30 24279 H 2297.83 -3.83383 -0.783145 0
M  V30 24280 H 2297.45 -3.19032 -2.37285 0
M  V30 24281 N 2298.45 0.473929 -1.50305 0
M  V30 24282 C 2299.69 1.22298 -1.60394 0
M  V30 24283 C 2300.01 1.93153 -0.308445 0
M  V30 24284 O 2301.21 2.69966 -0.288204 0
M  V30 24285 C 2299.67 2.22205 -2.83113 0
M  V30 24286 C 2299.28 1.57166 -4.19527 0
M  V30 24287 C 2301.02 2.9777 -3.02545 0
M  V30 24288 C 2298.93 2.55343 -5.33436 0
M  V30 24289 H 2297.86 0.460169 -0.597294 0
M  V30 24290 H 2300.51 0.493772 -1.76732 0
M  V30 24291 H 2298.89 2.98405 -2.60327 0
M  V30 24292 H 2300.07 0.867744 -4.52556 0
M  V30 24293 H 2298.38 0.938931 -4.05676 0
M  V30 24294 H 2300.98 3.71241 -3.84817 0
M  V30 24295 H 2301.32 3.56989 -2.14161 0
M  V30 24296 H 2301.85 2.28683 -3.25498 0
M  V30 24297 H 2298.59 2.00867 -6.23965 0
M  V30 24298 H 2298.11 3.23895 -5.04829 0
M  V30 24299 H 2299.79 3.1723 -5.63892 0
M  V30 24300 N 2299.92 1.39835 0.726907 0
M  V30 24301 C 2301.16 1.38939 1.49918 0
M  V30 24302 C 2301.53 -0.0126546 1.91996 0
M  V30 24303 O 2302.73 -0.146668 2.684 0
M  V30 24304 C 2301 2.34158 2.70009 0
M  V30 24305 S 2302.56 2.51521 3.59559 0
M  V30 24306 H 2299.38 0.492604 0.512701 0
M  V30 24307 H 2301.98 1.76004 0.851039 0
M  V30 24308 H 2300.68 3.34875 2.37249 0
M  V30 24309 H 2300.21 1.98337 3.39744 0
M  V30 24310 H 2302.23 1.75917 4.6397 0
M  V30 24311 N 2301.4 -0.957948 1.25144 0
M  V30 24312 C 2302.65 -1.69879 1.09479 0
M  V30 24313 C 2302.97 -1.91545 -0.365468 0
M  V30 24314 O 2302.24 -1.50017 -1.25983 0
M  V30 24315 H 2300.82 -0.629518 0.40214 0
M  V30 24316 H 2303.48 -1.15191 1.57216 0
M  V30 24317 H 2302.58 -2.67937 1.60051 0
M  V30 24318 N 2302.88 -1.06677 -1.16008 0
M  V30 24319 C 2304.13 -0.785814 -1.86631 0
M  V30 24320 C 2304.45 0.687864 -1.8193 0
M  V30 24321 O 2303.71 1.52009 -1.23255 0
M  V30 24322 C 2304.01 -1.23062 -3.35545 0
M  V30 24323 C 2303.67 -2.70908 -3.60444 0
M  V30 24324 C 2302.34 -3.11292 -3.66948 0
M  V30 24325 C 2304.69 -3.66372 -3.70703 0
M  V30 24326 C 2302.02 -4.45972 -3.81217 0
M  V30 24327 C 2304.37 -5.00804 -3.86494 0
M  V30 24328 C 2303.03 -5.4082 -3.91242 0
M  V30 24329 H 2302.3 -0.28755 -0.682932 0
M  V30 24330 H 2304.95 -1.33656 -1.37143 0
M  V30 24331 H 2303.25 -0.599138 -3.87192 0
M  V30 24332 H 2304.95 -0.990231 -3.88581 0
M  V30 24333 H 2301.54 -2.38642 -3.56017 0
M  V30 24334 H 2305.73 -3.36303 -3.64985 0
M  V30 24335 H 2300.98 -4.76454 -3.83147 0
M  V30 24336 H 2305.16 -5.74656 -3.93375 0
M  V30 24337 H 2302.78 -6.45181 -4.02051 0
M  V30 24338 N 2304.36 1.32719 -0.8499 0
M  V30 24339 C 2305.6 1.97415 -0.450957 0
M  V30 24340 C 2305.93 1.6728 0.992347 0
M  V30 24341 O 2305.19 0.950875 1.71046 0
M  V30 24342 C 2305.49 3.5178 -0.631333 0
M  V30 24343 C 2305.15 4.0189 -2.04439 0
M  V30 24344 C 2303.81 4.15285 -2.43087 0
M  V30 24345 C 2306.17 4.28517 -2.96687 0
M  V30 24346 C 2303.49 4.52648 -3.73265 0
M  V30 24347 C 2305.85 4.67335 -4.26357 0
M  V30 24348 C 2304.51 4.78937 -4.64947 0
M  V30 24349 H 2303.78 0.722392 -0.165017 0
M  V30 24350 H 2306.43 1.58205 -1.07904 0
M  V30 24351 H 2304.73 3.91718 0.0800078 0
M  V30 24352 H 2306.43 3.99855 -0.302779 0
M  V30 24353 H 2303.02 3.91946 -1.73426 0
M  V30 24354 H 2307.2 4.17681 -2.68061 0
M  V30 24355 H 2302.46 4.59824 -4.02954 0
M  V30 24356 H 2306.63 4.86893 -4.97904 0
M  V30 24357 H 2304.26 5.07644 -5.65864 0
M  V30 24358 N 2305.84 0.60738 1.45426 0
M  V30 24359 C 2306.77 -0.149711 2.28711 0
M  V30 24360 C 2307.78 -0.831933 1.39938 0
M  V30 24361 O 2308.97 -0.697356 1.64314 0
M  V30 24362 C 2306.07 -1.23299 3.15675 0
M  V30 24363 C 2305.24 -0.63792 4.32723 0
M  V30 24364 C 2304.3 -1.61206 5.00898 0
M  V30 24365 O 2303.33 -1.13844 5.57699 0
M  V30 24366 N 2304.53 -2.94646 5.00164 0
M  V30 24367 H 2307.3 0.564934 2.94327 0
M  V30 24368 H 2304.86 0.446851 1.55611 0
M  V30 24369 H 2306.85 -1.88447 3.58148 0
M  V30 24370 H 2305.42 -1.85016 2.51968 0
M  V30 24371 H 2304.64 0.191641 3.93734 0
M  V30 24372 H 2305.93 -0.220575 5.08322 0
M  V30 24373 H 2305.32 -3.35727 4.55306 0
M  V30 24374 H 2303.88 -3.55218 5.46501 0
M  V30 24375 N 2307.31 -1.53743 0.34653 0
M  V30 24376 C 2308.59 -1.93215 -0.304498 0
M  V30 24377 C 2308.97 -1.27837 -1.67991 0
M  V30 24378 O 2308.32 -0.430391 -2.2441 0
M  V30 24379 C 2308.53 -3.46993 -0.373791 0
M  V30 24380 C 2309.88 -4.20001 -0.623216 0
M  V30 24381 O 2310.9 -3.53272 -0.455785 0
M  V30 24382 O 2309.76 -5.38219 -0.947784 0
M  V30 24383 H 2306.85 -0.80755 -0.178304 0
M  V30 24384 H 2309.4 -1.64969 0.397924 0
M  V30 24385 H 2308.17 -3.86807 0.591292 0
M  V30 24386 H 2307.8 -3.81415 -1.12288 0
M  V30 24387 N 2308.79 -0.0752207 -1.5742 0
M  V30 24388 C 2309.76 0.876166 -2.11792 0
M  V30 24389 C 2310.76 1.22411 -1.0427 0
M  V30 24390 O 2311.95 1.15681 -1.30244 0
M  V30 24391 C 2309.08 2.1785 -2.6221 0
M  V30 24392 H 2310.27 0.404388 -2.97161 0
M  V30 24393 H 2307.82 0.17353 -1.55334 0
M  V30 24394 H 2308.56 2.69556 -1.80305 0
M  V30 24395 H 2308.34 1.93891 -3.40806 0
M  V30 24396 H 2309.83 2.85949 -3.0434 0
M  V30 24397 N 2310.27 1.56347 0.198358 0
M  V30 24398 C 2311.18 1.97485 1.26637 0
M  V30 24399 C 2312.2 0.882028 1.49988 0
M  V30 24400 O 2313.37 1.18751 1.62666 0
M  V30 24401 C 2310.44 2.30324 2.59137 0
M  V30 24402 C 2309.5 3.53296 2.43886 0
M  V30 24403 C 2308.73 3.84559 3.70067 0
M  V30 24404 O 2308.95 3.17159 4.74096 0
M  V30 24405 O 2307.89 4.77996 3.65792 0
M  V30 24406 H 2311.71 2.88549 0.947253 0
M  V30 24407 H 2309.3 1.43859 0.403098 0
M  V30 24408 H 2311.18 2.52536 3.37348 0
M  V30 24409 H 2309.86 1.42428 2.90682 0
M  V30 24410 H 2308.76 3.36335 1.63797 0
M  V30 24411 H 2310.1 4.41648 2.17274 0
M  V30 24412 N 2311.75 -0.465951 1.50554 0
M  V30 24413 C 2312.98 -1.239 1.65325 0
M  V30 24414 C 2313.39 -1.86155 0.338084 0
M  V30 24415 O 2312.73 -1.70229 -0.690488 0
M  V30 24416 C 2312.79 -2.38435 2.69052 0
M  V30 24417 C 2312.46 -1.96777 4.12465 0
M  V30 24418 C 2313.45 -1.48736 4.9817 0
M  V30 24419 C 2311.14 -2.05341 4.58411 0
M  V30 24420 C 2313.13 -1.09809 6.2787 0
M  V30 24421 C 2310.82 -1.66025 5.88115 0
M  V30 24422 C 2311.82 -1.18338 6.7267 0
M  V30 24423 O 2311.5 -0.795684 7.99953 0
M  V30 24424 H 2311.24 -0.38066 0.558636 0
M  V30 24425 H 2313.79 -0.561987 1.97562 0
M  V30 24426 H 2312.02 -3.09324 2.32068 0
M  V30 24427 H 2313.71 -3.00385 2.7299 0
M  V30 24428 H 2314.48 -1.41538 4.63888 0
M  V30 24429 H 2310.35 -2.41407 3.92739 0
M  V30 24430 H 2313.9 -0.725171 6.93821 0
M  V30 24431 H 2309.8 -1.72884 6.21917 0
M  V30 24432 H 2310.56 -0.924079 8.13267 0
M  V30 24433 N 2313.23 -1.40218 -0.719481 0
M  V30 24434 C 2314.14 -1.42483 -1.86375 0
M  V30 24435 C 2315.15 -0.317864 -1.71072 0
M  V30 24436 O 2316.33 -0.561828 -1.93405 0
M  V30 24437 C 2313.39 -1.28183 -3.22133 0
M  V30 24438 C 2312.45 -2.48988 -3.49719 0
M  V30 24439 C 2311.69 -2.35362 -4.79 0
M  V30 24440 O 2311.91 -1.36534 -5.53818 0
M  V30 24441 O 2310.84 -3.24659 -5.06834 0
M  V30 24442 H 2314.67 -2.38971 -1.87421 0
M  V30 24443 H 2312.26 -1.21499 -0.869384 0
M  V30 24444 H 2314.14 -1.22402 -4.03232 0
M  V30 24445 H 2312.81 -0.347991 -3.21824 0
M  V30 24446 H 2311.72 -2.60347 -2.68645 0
M  V30 24447 H 2313.05 -3.4112 -3.54822 0
M  V30 24448 N 2314.7 0.951297 -1.25651 0
M  V30 24449 C 2315.64 2.04805 -1.00648 0
M  V30 24450 C 2316.62 1.62468 0.0653986 0
M  V30 24451 O 2317.8 1.88351 -0.0749441 0
M  V30 24452 C 2314.93 3.34652 -0.522111 0
M  V30 24453 C 2313.97 3.95954 -1.58502 0
M  V30 24454 S 2314.81 4.31507 -3.17115 0
M  V30 24455 C 2315.96 5.64467 -2.70422 0
M  V30 24456 H 2316.19 2.25699 -1.93512 0
M  V30 24457 H 2313.73 1.09137 -1.09218 0
M  V30 24458 H 2315.69 4.09742 -0.249302 0
M  V30 24459 H 2314.35 3.11718 0.386091 0
M  V30 24460 H 2313.54 4.89582 -1.19689 0
M  V30 24461 H 2313.14 3.27357 -1.80868 0
M  V30 24462 H 2315.43 6.42729 -2.14256 0
M  V30 24463 H 2316.38 6.08154 -3.62704 0
M  V30 24464 H 2316.78 5.2386 -2.10311 0
M  V30 24465 N 2316.18 1.07291 1.1544 0
M  V30 24466 C 2317.42 0.805045 1.87879 0
M  V30 24467 C 2317.79 -0.656876 1.80414 0
M  V30 24468 O 2318.99 -1.03976 2.47876 0
M  V30 24469 C 2317.26 1.29849 3.32977 0
M  V30 24470 S 2318.82 1.16122 4.23156 0
M  V30 24471 H 2315.64 0.29175 0.648385 0
M  V30 24472 H 2318.24 1.37189 1.39282 0
M  V30 24473 H 2316.94 2.35718 3.35954 0
M  V30 24474 H 2316.47 0.726835 3.86627 0
M  V30 24475 H 2318.49 0.098365 4.96102 0
M  V30 24476 N 2317.66 -1.32267 0.856927 0
M  V30 24477 C 2318.91 -1.97465 0.462104 0
M  V30 24478 C 2319.24 -1.67644 -0.980269 0
M  V30 24479 O 2318.51 -0.965888 -1.68822 0
M  V30 24480 C 2318.8 -3.53143 0.704398 0
M  V30 24481 C 2318.65 -3.92587 2.19536 0
M  V30 24482 C 2319.97 -4.39801 0.162278 0
M  V30 24483 H 2317.09 -0.717275 0.169369 0
M  V30 24484 H 2319.73 -1.56612 1.07577 0
M  V30 24485 H 2317.88 -3.88073 0.182067 0
M  V30 24486 H 2319.55 -3.67824 2.78394 0
M  V30 24487 H 2317.8 -3.41664 2.67298 0
M  V30 24488 H 2318.47 -5.01084 2.31557 0
M  V30 24489 H 2320.94 -4.1162 0.608978 0
M  V30 24490 H 2319.82 -5.47709 0.361361 0
M  V30 24491 H 2320.08 -4.32098 -0.935082 0
M  V30 24492 N 2319.14 -0.615084 -1.45102 0
M  V30 24493 C 2320.55 -0.27935 -1.57136 0
M  V30 24494 C 2320.75 1.21795 -1.60525 0
M  V30 24495 O 2319.81 2.00132 -1.5396 0
M  V30 24496 C 2321.12 -0.957134 -2.8506 0
M  V30 24497 C 2322.67 -0.933758 -2.98747 0
M  V30 24498 C 2323.15 -1.5917 -4.29452 0
M  V30 24499 N 2324.64 -1.55753 -4.36228 0
M  V30 24500 C 2325.37 -2.0357 -5.36048 0
M  V30 24501 N 2324.87 -2.59505 -6.42362 0
M  V30 24502 N 2326.66 -1.94293 -5.27453 0
M  V30 24503 H 2318.81 -1.58719 -1.41145 0
M  V30 24504 H 2321.08 -0.665318 -0.67532 0
M  V30 24505 H 2320.78 -2.01171 -2.88484 0
M  V30 24506 H 2320.66 -0.485006 -3.74069 0
M  V30 24507 H 2323.04 0.112295 -2.94886 0
M  V30 24508 H 2323.12 -1.44422 -2.1113 0
M  V30 24509 H 2322.77 -2.63712 -4.34072 0
M  V30 24510 H 2322.7 -1.05619 -5.15899 0
M  V30 24511 H 2325.19 -1.14899 -3.60009 0
M  V30 24512 H 2325.5 -2.93765 -7.14788 0
M  V30 24513 H 2323.85 -2.63548 -6.43092 0
M  V30 24514 H 2327.04 -1.50328 -4.43305 0
M  V30 24515 H 2327.21 -2.31871 -6.05095 0
M  V30 24516 N 2320.62 1.53557 -0.354678 0
M  V30 24517 C 2321.86 2.0208 0.231386 0
M  V30 24518 C 2322.22 1.23769 1.47305 0
M  V30 24519 O 2321.51 0.31998 1.88909 0
M  V30 24520 C 2321.71 3.52546 0.587059 0
M  V30 24521 C 2321.53 4.45425 -0.618591 0
M  V30 24522 C 2320.3 4.92564 -1.12733 0
M  V30 24523 C 2322.5 4.92531 -1.48048 0
M  V30 24524 N 2320.48 5.69423 -2.29414 0
M  V30 24525 C 2321.86 5.67623 -2.49407 0
M  V30 24526 C 2323.91 4.74621 -1.50463 0
M  V30 24527 C 2322.61 6.26711 -3.53024 0
M  V30 24528 C 2324.64 5.34567 -2.52967 0
M  V30 24529 C 2324 6.09536 -3.53051 0
M  V30 24530 H 2320.1 0.780545 0.0476772 0
M  V30 24531 H 2322.68 1.88256 -0.49676 0
M  V30 24532 H 2320.86 3.66552 1.2843 0
M  V30 24533 H 2322.59 3.87801 1.15727 0
M  V30 24534 H 2319.34 4.68493 -0.693659 0
M  V30 24535 H 2319.77 6.12519 -2.88357 0
M  V30 24536 H 2324.41 4.16195 -0.744429 0
M  V30 24537 H 2322.13 6.8424 -4.29932 0
M  V30 24538 H 2325.71 5.2261 -2.55676 0
M  V30 24539 H 2324.59 6.55096 -4.31067 0
M  V30 24540 N 2322.1 0.083568 1.57378 0
M  V30 24541 C 2323.03 -0.915796 2.09018 0
M  V30 24542 C 2324.01 -1.28368 0.998015 0
M  V30 24543 O 2325.19 -1.39094 1.27221 0
M  V30 24544 C 2322.32 -2.22045 2.55761 0
M  V30 24545 C 2321.36 -2.00327 3.76526 0
M  V30 24546 S 2322.2 -1.25182 5.20663 0
M  V30 24547 C 2323.35 -2.56902 5.70747 0
M  V30 24548 H 2323.59 -0.47644 2.93458 0
M  V30 24549 H 2321.12 -0.129466 1.53856 0
M  V30 24550 H 2323.08 -2.97022 2.83351 0
M  V30 24551 H 2321.74 -2.63103 1.71568 0
M  V30 24552 H 2320.93 -2.96908 4.07261 0
M  V30 24553 H 2320.53 -1.33481 3.49369 0
M  V30 24554 H 2322.82 -3.52936 5.7831 0
M  V30 24555 H 2323.77 -2.30761 6.69444 0
M  V30 24556 H 2324.18 -2.64647 4.98621 0
M  V30 24557 N 2323.57 -1.5645 -0.190064 0
M  V30 24558 C 2324.51 -1.91479 -1.2597 0
M  V30 24559 C 2325.52 -0.805956 -1.4145 0
M  V30 24560 O 2326.71 -1.08438 -1.41787 0
M  V30 24561 C 2323.81 -2.13599 -2.63113 0
M  V30 24562 C 2322.98 -3.44765 -2.69176 0
M  V30 24563 C 2322.04 -3.55937 -3.87551 0
M  V30 24564 O 2321.07 -4.28718 -3.74419 0
M  V30 24565 N 2322.27 -2.89397 -5.03219 0
M  V30 24566 H 2325.03 -2.83829 -0.962344 0
M  V30 24567 H 2322.59 -1.57378 -0.379953 0
M  V30 24568 H 2324.59 -2.18356 -3.40739 0
M  V30 24569 H 2323.16 -1.27724 -2.85316 0
M  V30 24570 H 2322.38 -3.51832 -1.77787 0
M  V30 24571 H 2323.66 -4.31112 -2.70222 0
M  V30 24572 H 2323.06 -2.30103 -5.16787 0
M  V30 24573 H 2321.62 -2.99775 -5.78773 0
M  V30 24574 N 2325.05 0.45796 -1.50799 0
M  V30 24575 C 2325.98 1.56207 -1.73556 0
M  V30 24576 C 2326.96 1.59731 -0.584802 0
M  V30 24577 O 2328.15 1.75789 -0.825345 0
M  V30 24578 C 2325.28 2.94444 -1.84175 0
M  V30 24579 C 2324.23 3.05784 -2.99466 0
M  V30 24580 C 2323.56 4.45798 -2.95243 0
M  V30 24581 C 2324.86 2.81778 -4.39771 0
M  V30 24582 H 2326.55 1.37416 -2.66002 0
M  V30 24583 H 2324.1 0.659639 -1.28003 0
M  V30 24584 H 2326.05 3.71625 -1.98678 0
M  V30 24585 H 2324.77 3.1442 -0.8836 0
M  V30 24586 H 2323.43 2.31039 -2.84634 0
M  V30 24587 H 2323.08 4.62712 -1.97248 0
M  V30 24588 H 2322.78 4.54319 -3.72649 0
M  V30 24589 H 2324.31 5.24981 -3.11813 0
M  V30 24590 H 2325.72 3.48702 -4.5506 0
M  V30 24591 H 2324.12 3.01731 -5.18727 0
M  V30 24592 H 2325.19 1.77532 -4.51232 0
M  V30 24593 N 2326.53 1.40598 0.712035 0
M  V30 24594 C 2327.78 1.38793 1.46904 0
M  V30 24595 C 2328.1 -0.00776963 1.94998 0
M  V30 24596 O 2327.37 -0.963144 1.70588 0
M  V30 24597 H 2325.95 0.51083 0.545034 0
M  V30 24598 H 2328.61 1.75685 0.843851 0
M  V30 24599 H 2327.71 2.06501 2.34017 0
M  V30 24600 N 2328.01 -0.94462 1.26153 0
M  V30 24601 C 2328.97 -2.02438 1.07477 0
M  V30 24602 C 2329.97 -1.60782 0.0242347 0
M  V30 24603 O 2331.16 -1.72136 0.267333 0
M  V30 24604 C 2328.29 -3.34952 0.634015 0
M  V30 24605 H 2329.49 -2.20438 2.0334 0
M  V30 24606 H 2327.04 -1.1231 1.08702 0
M  V30 24607 H 2327.77 -3.2265 -0.326754 0
M  V30 24608 H 2327.56 -3.66539 1.39253 0
M  V30 24609 H 2329.05 -4.14286 0.525083 0
M  V30 24610 N 2329.49 -1.07901 -1.1487 0
M  V30 24611 C 2330.73 -0.805565 -1.85787 0
M  V30 24612 C 2331.06 0.668529 -1.8265 0
M  V30 24613 O 2330.32 1.50693 -1.24861 0
M  V30 24614 C 2330.61 -1.26614 -3.34221 0
M  V30 24615 C 2330.28 -2.74716 -3.5755 0
M  V30 24616 C 2328.94 -3.15166 -3.63626 0
M  V30 24617 C 2331.29 -3.70283 -3.66797 0
M  V30 24618 C 2328.62 -4.4999 -3.76465 0
M  V30 24619 C 2330.97 -5.04875 -3.81161 0
M  V30 24620 C 2329.64 -5.44939 -3.85484 0
M  V30 24621 H 2328.91 -0.294777 -0.679844 0
M  V30 24622 H 2331.56 -1.35103 -1.35718 0
M  V30 24623 H 2329.86 -0.640171 -3.86535 0
M  V30 24624 H 2331.56 -1.03139 -3.87509 0
M  V30 24625 H 2328.15 -2.42405 -3.53466 0
M  V30 24626 H 2332.33 -3.40155 -3.61398 0
M  V30 24627 H 2327.59 -4.80491 -3.78072 0
M  V30 24628 H 2331.76 -5.78796 -3.87258 0
M  V30 24629 H 2329.39 -6.49409 -3.95185 0
M  V30 24630 N 2330.96 1.31811 -0.863929 0
M  V30 24631 C 2332.19 2.00816 -0.485442 0
M  V30 24632 C 2332.6 1.65048 0.924978 0
M  V30 24633 O 2331.94 0.872602 1.61652 0
M  V30 24634 C 2332.01 3.5518 -0.555652 0
M  V30 24635 C 2331.67 4.14404 -1.92661 0
M  V30 24636 C 2332.67 4.31953 -2.89332 0
M  V30 24637 C 2330.35 4.50269 -2.22628 0
M  V30 24638 C 2332.35 4.84548 -4.14116 0
M  V30 24639 C 2330.03 5.02567 -3.47663 0
M  V30 24640 C 2331.03 5.19656 -4.43223 0
M  V30 24641 O 2330.72 5.70833 -5.66043 0
M  V30 24642 H 2330.45 0.649264 -0.188235 0
M  V30 24643 H 2333.01 1.69154 -1.16517 0
M  V30 24644 H 2331.24 3.86276 0.180969 0
M  V30 24645 H 2332.92 4.05448 -0.191451 0
M  V30 24646 H 2333.69 4.04569 -2.67487 0
M  V30 24647 H 2329.57 4.36247 -1.49028 0
M  V30 24648 H 2333.11 4.97802 -4.88712 0
M  V30 24649 H 2329.01 5.29384 -3.69354 0
M  V30 24650 H 2329.78 5.89212 -5.6813 0
M  V30 24651 N 2332.44 0.62277 1.44773 0
M  V30 24652 C 2333.85 0.207259 1.85546 0
M  V30 24653 C 2334.2 -1.23942 1.52095 0
M  V30 24654 O 2333.33 -1.9419 0.954954 0
M  V30 24655 C 2333.92 0.369372 3.3678 0
M  V30 24656 C 2332.48 0.00843463 3.76399 0
M  V30 24657 C 2331.63 0.686698 2.68663 0
M  V30 24658 H 2334.58 0.828477 1.35359 0
M  V30 24659 H 2334.6 -0.394095 3.78454 0
M  V30 24660 H 2334.11 1.42237 3.61096 0
M  V30 24661 H 2332.21 -1.04315 3.577 0
M  V30 24662 H 2332.33 0.412668 4.77319 0
M  V30 24663 H 2330.69 0.122822 2.54404 0
M  V30 24664 H 2331.47 1.74213 2.95812 0
M  V30 24665 N 2333.92 -1.53367 0.362817 0
M  V30 24666 C 2335.17 -2.01215 -0.22774 0
M  V30 24667 C 2335.49 -1.25017 -1.49 0
M  V30 24668 O 2334.75 -0.33127 -1.92876 0
M  V30 24669 C 2335.05 -3.52852 -0.568355 0
M  V30 24670 C 2334.71 -4.469 0.599259 0
M  V30 24671 C 2333.38 -4.7233 0.919642 0
M  V30 24672 C 2335.73 -5.02553 1.38165 0
M  V30 24673 C 2333.06 -5.50666 2.02444 0
M  V30 24674 C 2335.41 -5.82096 2.47684 0
M  V30 24675 C 2334.07 -6.05814 2.8026 0
M  V30 24676 H 2333.34 -0.736299 -0.0833361 0
M  V30 24677 H 2335.99 -1.85 0.494709 0
M  V30 24678 H 2334.29 -3.67 -1.37178 0
M  V30 24679 H 2335.99 -3.87346 -1.03749 0
M  V30 24680 H 2332.58 -4.27253 0.339512 0
M  V30 24681 H 2336.77 -4.82855 1.14738 0
M  V30 24682 H 2332.02 -5.67263 2.28084 0
M  V30 24683 H 2336.2 -6.24228 3.08727 0
M  V30 24684 H 2333.82 -6.66299 3.65991 0
M  V30 24685 N 2335.4 -0.091913 -1.57332 0
M  V30 24686 C 2336.62 0.584407 -1.98996 0
M  V30 24687 C 2337.05 1.61127 -0.970556 0
M  V30 24688 O 2336.41 1.81196 0.0613586 0
M  V30 24689 C 2336.45 1.21155 -3.39638 0
M  V30 24690 O 2335.56 2.32738 -3.40451 0
M  V30 24691 H 2334.9 0.148561 -0.647167 0
M  V30 24692 H 2337.43 -0.172383 -2.03873 0
M  V30 24693 H 2337.44 1.55361 -3.77263 0
M  V30 24694 H 2336.11 0.45924 -4.13357 0
M  V30 24695 H 2334.69 2.00175 -3.14618 0
M  V30 24696 N 2336.88 1.56548 0.181765 0
M  V30 24697 C 2338.29 1.50432 0.533133 0
M  V30 24698 C 2338.49 0.79433 1.85183 0
M  V30 24699 O 2337.55 0.350361 2.50057 0
M  V30 24700 C 2338.86 2.95141 0.575545 0
M  V30 24701 C 2340.41 3.05887 0.663466 0
M  V30 24702 C 2340.88 4.52033 0.736866 0
M  V30 24703 N 2342.38 4.56239 0.800037 0
M  V30 24704 C 2343.11 5.6665 0.877227 0
M  V30 24705 N 2342.61 6.86719 0.915895 0
M  V30 24706 N 2344.4 5.54595 0.915444 0
M  V30 24707 H 2336.55 2.01117 -0.68306 0
M  V30 24708 H 2338.81 0.915793 -0.245004 0
M  V30 24709 H 2338.52 3.50199 -0.324543 0
M  V30 24710 H 2338.39 3.4922 1.42566 0
M  V30 24711 H 2340.78 2.50869 1.55398 0
M  V30 24712 H 2340.86 2.54911 -0.213115 0
M  V30 24713 H 2340.51 5.0768 -0.149351 0
M  V30 24714 H 2340.44 5.00756 1.62944 0
M  V30 24715 H 2342.93 3.69787 0.778861 0
M  V30 24716 H 2343.24 7.66616 0.975678 0
M  V30 24717 H 2341.58 6.89351 0.884348 0
M  V30 24718 H 2344.78 4.59712 0.882164 0
M  V30 24719 H 2344.95 6.40666 0.97214 0
M  V30 24720 N 2338.35 -0.449957 1.5104 0
M  V30 24721 C 2339.3 -1.56587 1.71998 0
M  V30 24722 C 2340.3 -1.58939 0.586057 0
M  V30 24723 O 2341.5 -1.62835 0.767119 0
M  V30 24724 H 2337.88 -0.519992 0.543243 0
M  V30 24725 H 2339.85 -1.36081 2.65565 0
M  V30 24726 C 2338.6 -2.94357 1.85065 0
M  V30 24727 H 2337.92 -2.93274 2.71717 0
M  V30 24728 H 2339.36 -3.71838 2.03746 0
M  V30 24729 C 2337.82 -3.31381 0.607335 0
M  V30 24730 O 2338.35 -4.00959 -0.243833 0
M  V30 24731 N 2336.56 -2.87014 0.455123 0
M  V30 24732 H 2336.1 -2.30564 1.14883 0
M  V30 24733 H 2336.06 -3.12149 -0.375556 0
M  V30 24734 N 2339.83 -1.40974 -0.704569 0
M  V30 24735 C 2340.78 -1.38584 -1.81048 0
M  V30 24736 C 2341.77 -0.261613 -1.58759 0
M  V30 24737 O 2342.96 -0.501586 -1.69744 0
M  V30 24738 C 2340.09 -1.26163 -3.19277 0
M  V30 24739 C 2339.17 -2.43411 -3.47292 0
M  V30 24740 N 2339.56 -3.68887 -3.46058 0
M  V30 24741 C 2337.86 -2.3703 -3.778 0
M  V30 24742 C 2338.56 -4.46599 -3.72726 0
M  V30 24743 N 2337.54 -3.76588 -3.92023 0
M  V30 24744 H 2341.34 -2.33528 -1.78443 0
M  V30 24745 H 2338.86 -1.34902 -0.904175 0
M  V30 24746 H 2340.85 -1.22533 -3.98486 0
M  V30 24747 H 2339.51 -0.321958 -3.231 0
M  V30 24748 H 2340.52 -4.01897 -3.26649 0
M  V30 24749 H 2337.2 -1.51488 -3.89047 0
M  V30 24750 H 2338.59 -5.55498 -3.77983 0
M  V30 24751 N 2341.31 0.937917 -1.26653 0
M  V30 24752 C 2342.26 2.05843 -1.08311 0
M  V30 24753 C 2343.25 1.69398 -0.00910548 0
M  V30 24754 O 2344.46 1.79233 -0.166039 0
M  V30 24755 H 2340.83 0.67404 -0.333428 0
M  V30 24756 H 2342.8 2.18463 -2.03265 0
M  V30 24757 C 2341.55 3.39815 -0.736289 0
M  V30 24758 H 2340.88 3.68337 -1.55459 0
M  V30 24759 H 2342.32 4.19023 -0.647764 0
M  V30 24760 C 2340.78 3.32234 0.558765 0
M  V30 24761 O 2341.31 3.68627 1.59615 0
M  V30 24762 N 2339.51 2.85336 0.550607 0
M  V30 24763 H 2339.06 2.55917 -0.293988 0
M  V30 24764 H 2339.02 2.80646 1.41721 0
M  V30 24765 N 2342.79 1.08509 1.14296 0
M  V30 24766 C 2344.02 0.836909 1.89218 0
M  V30 24767 C 2344.43 -0.611022 1.78639 0
M  V30 24768 O 2343.79 -1.41996 1.14645 0
M  V30 24769 C 2343.84 1.25122 3.39156 0
M  V30 24770 O 2343.56 2.64235 3.49444 0
M  V30 24771 C 2345.06 1.03405 4.31071 0
M  V30 24772 H 2342.28 0.30175 0.599323 0
M  V30 24773 H 2344.83 1.44463 1.44743 0
M  V30 24774 H 2342.98 0.687581 3.81249 0
M  V30 24775 H 2343.39 2.81459 4.42584 0
M  V30 24776 H 2344.87 1.37332 5.34644 0
M  V30 24777 H 2345.35 -0.0288487 4.39191 0
M  V30 24778 H 2345.95 1.58318 3.94735 0
M  V30 24779 N 2344.27 -1.31351 0.870907 0
M  V30 24780 C 2345.52 -1.95943 0.478443 0
M  V30 24781 C 2345.83 -1.69598 -0.974463 0
M  V30 24782 O 2347.03 -2.2806 -1.47312 0
M  V30 24783 C 2345.49 -3.50789 0.804671 0
M  V30 24784 C 2345.1 -3.85973 2.2744 0
M  V30 24785 C 2346.84 -4.21769 0.480722 0
M  V30 24786 C 2344.75 -5.33934 2.54299 0
M  V30 24787 H 2343.68 -0.733366 0.175188 0
M  V30 24788 H 2346.33 -1.49508 1.06394 0
M  V30 24789 H 2344.71 -3.95722 0.148417 0
M  V30 24790 H 2345.89 -3.51997 2.9738 0
M  V30 24791 H 2344.2 -3.2806 2.56448 0
M  V30 24792 H 2346.8 -5.30628 0.658612 0
M  V30 24793 H 2347.14 -4.12255 -0.578907 0
M  V30 24794 H 2347.67 -3.82474 1.09356 0
M  V30 24795 H 2344.41 -5.48485 3.58949 0
M  V30 24796 H 2343.93 -5.69259 1.88955 0
M  V30 24797 H 2345.61 -6.01208 2.39077 0
M  V30 24798 N 2345.74 -0.630439 -1.44441 0
M  V30 24799 C 2346.99 -0.134386 -2.01653 0
M  V30 24800 C 2347.31 1.24794 -1.49838 0
M  V30 24801 O 2346.58 1.82901 -0.701716 0
M  V30 24802 H 2345.16 -0.04669 -0.745539 0
M  V30 24803 H 2347.83 -0.816986 -1.7695 0
M  V30 24804 H 2346.92 -0.101552 -3.11935 0
M  V30 24805 N 2347.22 1.53172 -0.370945 0
M  V30 24806 C 2348.45 2.05752 0.217668 0
M  V30 24807 C 2348.87 1.24406 1.42016 0
M  V30 24808 O 2348.22 0.286065 1.80244 0
M  V30 24809 C 2348.27 3.56386 0.605891 0
M  V30 24810 O 2347.99 4.34649 -0.54881 0
M  V30 24811 C 2349.5 4.25243 1.25232 0
M  V30 24812 H 2346.72 0.669971 0.0371541 0
M  V30 24813 H 2349.26 1.97489 -0.530867 0
M  V30 24814 H 2347.41 3.64782 1.30434 0
M  V30 24815 H 2347.83 5.23978 -0.233852 0
M  V30 24816 H 2349.3 5.31943 1.47448 0
M  V30 24817 H 2349.78 3.793 2.21423 0
M  V30 24818 H 2350.39 4.21115 0.595159 0
M  V30 24819 N 2348.7 0.100255 1.57281 0
M  V30 24820 C 2350.12 -0.256388 1.57527 0
M  V30 24821 C 2350.32 -1.68054 1.11176 0
M  V30 24822 O 2349.37 -2.39805 0.790572 0
M  V30 24823 C 2350.69 -0.0401218 3.00673 0
M  V30 24824 C 2352.23 -0.107473 3.12815 0
M  V30 24825 C 2352.71 0.0808639 4.57929 0
M  V30 24826 N 2354.2 0.0262021 4.63193 0
M  V30 24827 C 2354.93 0.1471 5.73211 0
M  V30 24828 N 2354.43 0.323121 6.92046 0
M  V30 24829 N 2356.22 0.0880032 5.62031 0
M  V30 24830 H 2348.37 1.03069 1.85717 0
M  V30 24831 H 2350.64 0.404354 0.857439 0
M  V30 24832 H 2350.34 0.943709 3.38802 0
M  V30 24833 H 2350.22 -0.780198 3.69043 0
M  V30 24834 H 2352.6 -1.08181 2.74556 0
M  V30 24835 H 2352.69 0.664177 2.47027 0
M  V30 24836 H 2352.33 1.05209 4.96884 0
M  V30 24837 H 2352.26 -0.710543 5.21784 0
M  V30 24838 H 2354.75 -0.107095 3.77748 0
M  V30 24839 H 2355.06 0.406744 7.71729 0
M  V30 24840 H 2353.41 0.358855 6.94073 0
M  V30 24841 H 2356.6 -0.0484157 4.68075 0
M  V30 24842 H 2356.77 0.185671 6.47734 0
M  V30 24843 N 2350.18 -1.56643 -0.17346 0
M  V30 24844 C 2351.6 -1.50713 -0.525148 0
M  V30 24845 C 2351.8 -0.804139 -1.84759 0
M  V30 24846 O 2350.85 -0.363618 -2.49868 0
M  V30 24847 C 2352.16 -2.95442 -0.559885 0
M  V30 24848 C 2353.71 -3.06235 -0.647234 0
M  V30 24849 C 2354.19 -4.52418 -0.712884 0
M  V30 24850 N 2355.68 -4.56656 -0.775831 0
M  V30 24851 C 2356.41 -5.67107 -0.847164 0
M  V30 24852 N 2355.91 -6.87195 -0.879464 0
M  V30 24853 N 2357.7 -5.55073 -0.88602 0
M  V30 24854 H 2349.85 -2.00752 0.693717 0
M  V30 24855 H 2352.12 -0.914481 0.249857 0
M  V30 24856 H 2351.82 -3.50022 0.34311 0
M  V30 24857 H 2351.7 -3.49971 -1.40712 0
M  V30 24858 H 2354.08 -2.5169 -1.54066 0
M  V30 24859 H 2354.16 -2.54794 0.226631 0
M  V30 24860 H 2353.81 -5.07594 0.176273 0
M  V30 24861 H 2353.74 -5.01613 -1.60286 0
M  V30 24862 H 2356.23 -3.70194 -0.759239 0
M  V30 24863 H 2356.54 -7.67123 -0.935009 0
M  V30 24864 H 2354.89 -6.8981 -0.847777 0
M  V30 24865 H 2358.08 -4.60174 -0.857772 0
M  V30 24866 H 2358.25 -6.41173 -0.93815 0
M  V30 24867 N 2351.66 0.44194 -1.51277 0
M  V30 24868 C 2352.59 1.5543 -1.68446 0
M  V30 24869 C 2353.6 1.52673 -0.565214 0
M  V30 24870 O 2354.79 1.57533 -0.839383 0
M  V30 24871 C 2351.89 2.94345 -1.67971 0
M  V30 24872 C 2351.06 3.21656 -2.96405 0
M  V30 24873 C 2350.12 4.40272 -2.88179 0
M  V30 24874 O 2349.15 4.39151 -3.62126 0
M  V30 24875 N 2350.35 5.43581 -2.03716 0
M  V30 24876 H 2353.12 1.41108 -2.64403 0
M  V30 24877 H 2350.68 0.630812 -1.49105 0
M  V30 24878 H 2352.67 3.71711 -1.60042 0
M  V30 24879 H 2351.24 3.02288 -0.796278 0
M  V30 24880 H 2350.46 2.32633 -3.18238 0
M  V30 24881 H 2351.75 3.36729 -3.81433 0
M  V30 24882 H 2351.15 5.47326 -1.43005 0
M  V30 24883 H 2349.7 6.19817 -2.01669 0
M  V30 24884 N 2353.14 1.41345 0.697083 0
M  V30 24885 C 2354.41 1.31112 1.45152 0
M  V30 24886 C 2354.79 -0.0620078 2.11009 0
M  V30 24887 O 2354.14 -1.07614 2.01572 0
M  V30 24888 C 2354.35 2.46342 2.47218 0
M  V30 24889 C 2355.7 2.87436 3.12515 0
M  V30 24890 O 2356.72 2.4607 2.57542 0
M  V30 24891 O 2355.58 3.58964 4.12077 0
M  V30 24892 H 2352.68 0.5159 0.646356 0
M  V30 24893 H 2355.22 1.53306 0.727689 0
M  V30 24894 H 2353.99 3.37977 1.97198 0
M  V30 24895 H 2353.62 2.26016 3.27112 0
M  V30 24896 N 2354.61 -0.931187 1.27148 0
M  V30 24897 C 2356.02 -1.4934 1.12046 0
M  V30 24898 C 2356.38 -1.93958 -0.295761 0
M  V30 24899 O 2355.5 -1.80854 -1.18831 0
M  V30 24900 C 2356.1 -2.7141 2.02786 0
M  V30 24901 C 2354.65 -3.23867 1.918 0
M  V30 24902 C 2353.8 -1.96613 1.95547 0
M  V30 24903 H 2356.75 -0.745648 1.40092 0
M  V30 24904 H 2356.77 -3.46071 1.58162 0
M  V30 24905 H 2356.29 -2.38905 3.05853 0
M  V30 24906 H 2354.39 -3.61138 0.917055 0
M  V30 24907 H 2354.5 -3.90297 2.77858 0
M  V30 24908 H 2352.86 -2.12952 1.39726 0
M  V30 24909 H 2353.65 -1.66427 3.00262 0
M  V30 24910 N 2356.09 -1.09114 -1.13719 0
M  V30 24911 C 2357.34 -0.826447 -1.85196 0
M  V30 24912 C 2357.67 0.646287 -1.8313 0
M  V30 24913 O 2356.95 1.47561 -1.26712 0
M  V30 24914 C 2357.23 -1.35818 -3.33505 0
M  V30 24915 C 2357.08 -2.89678 -3.44103 0
M  V30 24916 C 2358.4 -0.989332 -4.28836 0
M  V30 24917 H 2355.52 -0.301686 -0.672424 0
M  V30 24918 H 2358.16 -1.35199 -1.33496 0
M  V30 24919 H 2356.31 -0.911148 -3.77664 0
M  V30 24920 H 2357.98 -3.42806 -3.08678 0
M  V30 24921 H 2356.23 -3.26972 -2.85082 0
M  V30 24922 H 2356.9 -3.21959 -4.48382 0
M  V30 24923 H 2359.37 -1.37482 -3.92731 0
M  V30 24924 H 2358.25 -1.38848 -5.31049 0
M  V30 24925 H 2358.51 0.102846 -4.4198 0
M  V30 24926 N 2357.57 1.30887 -0.877861 0
M  V30 24927 C 2358.79 2.01116 -0.506665 0
M  V30 24928 C 2359.22 1.65414 0.895535 0
M  V30 24929 O 2358.58 0.86695 1.59228 0
M  V30 24930 C 2358.63 3.54125 -0.680285 0
M  V30 24931 O 2357.73 4.11469 0.276961 0
M  V30 24932 H 2357.07 0.632996 -0.200529 0
M  V30 24933 H 2359.6 1.669 -1.18345 0
M  V30 24934 H 2359.61 4.03906 -0.576571 0
M  V30 24935 H 2358.29 3.79449 -1.70267 0
M  V30 24936 H 2356.86 3.72682 0.12754 0
M  V30 24937 N 2359.05 0.638091 1.44105 0
M  V30 24938 C 2360.29 0.154126 2.02815 0
M  V30 24939 C 2360.65 -1.21302 1.49344 0
M  V30 24940 O 2359.94 -1.79476 0.67073 0
M  V30 24941 C 2360.14 0.0887955 3.5729 0
M  V30 24942 C 2359.96 1.44806 4.25748 0
M  V30 24943 C 2358.73 2.03661 4.62439 0
M  V30 24944 C 2360.93 2.38335 4.55742 0
M  V30 24945 N 2358.91 3.3275 5.15898 0
M  V30 24946 C 2360.29 3.52044 5.10357 0
M  V30 24947 C 2362.34 2.37327 4.37699 0
M  V30 24948 C 2361.04 4.6495 5.48829 0
M  V30 24949 C 2363.07 3.49302 4.77223 0
M  V30 24950 C 2362.43 4.61736 5.31958 0
M  V30 24951 H 2358.53 0.10048 0.775518 0
M  V30 24952 H 2361.11 0.843102 1.75499 0
M  V30 24953 H 2359.29 -0.56948 3.84202 0
M  V30 24954 H 2361.02 -0.40464 4.02672 0
M  V30 24955 H 2357.77 1.56531 4.46984 0
M  V30 24956 H 2358.2 3.98768 5.47095 0
M  V30 24957 H 2362.84 1.51648 3.94668 0
M  V30 24958 H 2360.56 5.51333 5.90811 0
M  V30 24959 H 2364.14 3.49706 4.6497 0
M  V30 24960 H 2363.02 5.46948 5.61976 0
M  V30 24961 N 2360.53 -1.52973 0.379063 0
M  V30 24962 C 2361.8 -1.93818 -0.263445 0
M  V30 24963 C 2362.18 -1.31371 -1.65242 0
M  V30 24964 O 2361.53 -0.477895 -2.23447 0
M  V30 24965 C 2361.74 -3.47707 -0.300105 0
M  V30 24966 C 2363.09 -4.21229 -0.533987 0
M  V30 24967 O 2364.11 -3.54159 -0.380748 0
M  V30 24968 O 2362.97 -5.40108 -0.833407 0
M  V30 24969 H 2360.07 -0.81115 -0.161134 0
M  V30 24970 H 2362.61 -1.64087 0.432827 0
M  V30 24971 H 2361.38 -3.85465 0.673206 0
M  V30 24972 H 2361.01 -3.83711 -1.04172 0
M  V30 24973 N 2362 -0.108595 -1.57225 0
M  V30 24974 C 2363.25 0.552727 -1.95122 0
M  V30 24975 C 2363.58 1.66989 -0.991375 0
M  V30 24976 O 2362.86 1.94482 -0.0267553 0
M  V30 24977 C 2363.14 1.09522 -3.43041 0
M  V30 24978 C 2362.99 -0.0178123 -4.49796 0
M  V30 24979 C 2364.31 1.98938 -3.9257 0
M  V30 24980 H 2361.43 0.199449 -0.709499 0
M  V30 24981 H 2364.07 -0.182044 -1.89126 0
M  V30 24982 H 2362.22 1.7214 -3.48282 0
M  V30 24983 H 2363.9 -0.652664 -4.5666 0
M  V30 24984 H 2362.14 -0.682385 -4.28399 0
M  V30 24985 H 2362.81 0.402822 -5.50528 0
M  V30 24986 H 2365.29 1.46207 -3.89567 0
M  V30 24987 H 2364.16 2.33818 -4.96609 0
M  V30 24988 H 2364.42 2.91195 -3.32653 0
M  V30 24989 N 2363.48 1.56732 0.16515 0
M  V30 24990 C 2364.44 1.95997 1.18818 0
M  V30 24991 C 2365.44 0.844334 1.36849 0
M  V30 24992 O 2366.63 1.11128 1.3415 0
M  V30 24993 C 2363.77 2.26015 2.55206 0
M  V30 24994 H 2364.96 2.8755 0.851774 0
M  V30 24995 H 2362.51 1.50885 0.407831 0
M  V30 24996 H 2363.25 1.37196 2.9385 0
M  V30 24997 H 2363.03 3.0734 2.43484 0
M  V30 24998 H 2364.52 2.57294 3.28922 0
M  V30 24999 N 2364.96 -0.433911 1.51509 0
M  V30 25000 C 2366.21 -1.18306 1.64347 0
M  V30 25001 C 2366.53 -1.91114 0.361349 0
M  V30 25002 O 2365.79 -1.84423 -0.65472 0
M  V30 25003 C 2366.09 -2.222 2.79932 0
M  V30 25004 C 2365.76 -1.6638 4.19081 0
M  V30 25005 C 2364.42 -1.50879 4.56934 0
M  V30 25006 C 2366.77 -1.25372 5.05897 0
M  V30 25007 C 2364.1 -0.928506 5.79306 0
M  V30 25008 C 2366.45 -0.687712 6.28851 0
M  V30 25009 C 2365.11 -0.519638 6.65474 0
M  V30 25010 H 2364.38 -0.432912 0.601388 0
M  V30 25011 H 2367.03 -0.473644 1.8555 0
M  V30 25012 H 2365.34 -2.99193 2.52964 0
M  V30 25013 H 2367.03 -2.79992 2.87064 0
M  V30 25014 H 2363.62 -1.79421 3.89238 0
M  V30 25015 H 2367.81 -1.36166 4.77255 0
M  V30 25016 H 2363.06 -0.786079 6.06326 0
M  V30 25017 H 2367.24 -0.361459 6.95461 0
M  V30 25018 H 2364.86 -0.0678643 7.6017 0
M  V30 25019 N 2366.44 -1.41713 -0.689577 0
M  V30 25020 C 2367.68 -1.41602 -1.45179 0
M  V30 25021 C 2368.02 -0.0270422 -1.94181 0
M  V30 25022 O 2367.29 0.946235 -1.69931 0
M  V30 25023 C 2367.58 -2.42791 -2.65941 0
M  V30 25024 C 2367.43 -3.9082 -2.22665 0
M  V30 25025 C 2368.75 -2.41158 -3.68145 0
M  V30 25026 H 2365.87 -0.515651 -0.526567 0
M  V30 25027 H 2368.51 -1.73029 -0.784917 0
M  V30 25028 H 2366.66 -2.16122 -3.22837 0
M  V30 25029 H 2368.33 -4.28415 -1.7105 0
M  V30 25030 H 2366.57 -4.05397 -1.54387 0
M  V30 25031 H 2367.24 -4.57178 -3.09342 0
M  V30 25032 H 2369.72 -2.64839 -3.20935 0
M  V30 25033 H 2368.6 -3.13963 -4.50242 0
M  V30 25034 H 2368.86 -1.43228 -4.18256 0
M  V30 25035 N 2367.92 0.924431 -1.2764 0
M  V30 25036 C 2368.86 2.04683 -1.10489 0
M  V30 25037 C 2369.86 1.69378 -0.0270718 0
M  V30 25038 O 2371.06 1.79046 -0.18504 0
M  V30 25039 H 2367.44 0.670466 -0.340558 0
M  V30 25040 H 2369.41 2.16295 -2.0557 0
M  V30 25041 C 2368.16 3.39015 -0.772289 0
M  V30 25042 H 2367.48 3.66668 -1.59357 0
M  V30 25043 H 2368.92 4.18312 -0.692171 0
M  V30 25044 C 2367.38 3.32808 0.523496 0
M  V30 25045 O 2367.91 3.70299 1.55696 0
M  V30 25046 N 2366.12 2.85904 0.520312 0
M  V30 25047 H 2365.66 2.55591 -0.321115 0
M  V30 25048 H 2365.62 2.82134 1.38737 0
M  V30 25049 N 2369.39 1.09715 1.13139 0
M  V30 25050 C 2370.64 0.829883 1.83836 0
M  V30 25051 C 2370.96 -0.646696 1.846 0
M  V30 25052 O 2372.16 -1.0296 2.5122 0
M  V30 25053 C 2370.62 1.43472 3.30066 0
M  V30 25054 C 2370.23 2.94405 3.37682 0
M  V30 25055 C 2371.97 1.24652 4.05786 0
M  V30 25056 C 2369.88 3.4796 4.78202 0
M  V30 25057 H 2368.81 0.306789 0.688765 0
M  V30 25058 H 2371.46 1.32023 1.27445 0
M  V30 25059 H 2369.84 0.872064 3.86278 0
M  V30 25060 H 2371.01 3.56923 2.91449 0
M  V30 25061 H 2369.33 3.12293 2.7543 0
M  V30 25062 H 2371.93 1.62115 5.09532 0
M  V30 25063 H 2372.27 0.18743 4.15878 0
M  V30 25064 H 2372.8 1.77685 3.55912 0
M  V30 25065 H 2369.54 4.53503 4.73303 0
M  V30 25066 H 2369.06 2.90208 5.24919 0
M  V30 25067 H 2370.74 3.45341 5.47127 0
M  V30 25068 N 2370.87 -1.30419 0.88479 0
M  V30 25069 C 2372.1 -2.00845 0.517323 0
M  V30 25070 C 2372.52 -1.65887 -0.88675 0
M  V30 25071 O 2371.88 -0.875382 -1.58766 0
M  V30 25072 C 2371.93 -3.53759 0.699056 0
M  V30 25073 O 2371.03 -4.1161 -0.255136 0
M  V30 25074 H 2370.37 -0.631924 0.203883 0
M  V30 25075 H 2372.9 -1.6627 1.19228 0
M  V30 25076 H 2372.91 -4.03594 0.597983 0
M  V30 25077 H 2371.59 -3.78541 1.72277 0
M  V30 25078 H 2370.17 -3.72744 -0.107774 0
M  V30 25079 N 2372.35 -0.645724 -1.43764 0
M  V30 25080 C 2373.77 -0.312618 -1.56508 0
M  V30 25081 C 2373.97 1.18362 -1.63072 0
M  V30 25082 O 2373.02 1.96821 -1.5817 0
M  V30 25083 C 2374.34 -1.01738 -2.82966 0
M  V30 25084 C 2375.88 -0.996917 -2.96699 0
M  V30 25085 C 2376.36 -1.68243 -4.25979 0
M  V30 25086 N 2377.85 -1.64971 -4.32826 0
M  V30 25087 C 2378.58 -2.14894 -5.31609 0
M  V30 25088 N 2378.08 -2.73072 -6.36713 0
M  V30 25089 N 2379.87 -2.05437 -5.23213 0
M  V30 25090 H 2372.02 -1.61677 -1.37747 0
M  V30 25091 H 2374.29 -0.679492 -0.661055 0
M  V30 25092 H 2373.99 -2.07245 -2.84152 0
M  V30 25093 H 2373.87 -0.564243 -3.72956 0
M  V30 25094 H 2376.25 0.04972 -2.95058 0
M  V30 25095 H 2376.34 -1.48868 -2.08019 0
M  V30 25096 H 2375.98 -2.7286 -4.28381 0
M  V30 25097 H 2375.91 -1.16538 -5.13543 0
M  V30 25098 H 2378.4 -1.2251 -3.57491 0
M  V30 25099 H 2378.71 -3.08861 -7.08396 0
M  V30 25100 H 2377.06 -2.7713 -6.37357 0
M  V30 25101 H 2380.25 -1.59697 -4.40016 0
M  V30 25102 H 2380.42 -2.44653 -6.00041 0
M  V30 25103 N 2373.83 1.5277 -0.38717 0
M  V30 25104 C 2375.06 2.05971 0.195833 0
M  V30 25105 C 2375.47 1.25905 1.40689 0
M  V30 25106 O 2374.83 0.305166 1.79931 0
M  V30 25107 C 2374.88 3.57009 0.568058 0
M  V30 25108 O 2374.6 4.34042 -0.594879 0
M  V30 25109 C 2376.1 4.26547 1.20715 0
M  V30 25110 H 2373.32 0.670327 0.0300461 0
M  V30 25111 H 2375.87 1.96915 -0.551784 0
M  V30 25112 H 2374.02 3.66145 1.26557 0
M  V30 25113 H 2374.43 5.23701 -0.289414 0
M  V30 25114 H 2375.91 5.33477 1.41798 0
M  V30 25115 H 2376.39 3.81627 2.17388 0
M  V30 25116 H 2376.99 4.21723 0.550461 0
M  V30 25117 N 2375.31 0.116931 1.57166 0
M  V30 25118 C 2376.55 -0.542371 1.95413 0
M  V30 25119 C 2376.89 -1.66461 1.00022 0
M  V30 25120 O 2376.16 -1.94465 0.0370688 0
M  V30 25121 C 2376.44 -1.07702 3.43617 0
M  V30 25122 C 2376.3 0.0416659 4.49781 0
M  V30 25123 C 2377.62 -1.96854 3.9362 0
M  V30 25124 H 2374.73 -0.195684 0.710547 0
M  V30 25125 H 2377.38 0.192072 1.89027 0
M  V30 25126 H 2375.53 -1.7029 3.4919 0
M  V30 25127 H 2377.2 0.676873 4.56307 0
M  V30 25128 H 2375.44 0.705094 4.28031 0
M  V30 25129 H 2376.11 -0.373621 5.50734 0
M  V30 25130 H 2378.59 -1.44139 3.90337 0
M  V30 25131 H 2377.46 -2.31181 4.97842 0
M  V30 25132 H 2377.73 -2.89426 3.34193 0
M  V30 25133 N 2376.78 -1.56818 -0.156836 0
M  V30 25134 C 2377.71 -2.00553 -1.19586 0
M  V30 25135 C 2378.7 -0.883452 -1.45359 0
M  V30 25136 O 2379.88 -1.15057 -1.56447 0
M  V30 25137 C 2377.01 -2.37777 -2.53139 0
M  V30 25138 C 2375.96 -3.53079 -2.41907 0
M  V30 25139 C 2375.29 -3.76088 -3.80082 0
M  V30 25140 C 2376.59 -4.86065 -1.91149 0
M  V30 25141 H 2378.28 -2.87601 -0.832243 0
M  V30 25142 H 2375.83 -1.38365 -0.398894 0
M  V30 25143 H 2377.78 -2.66972 -3.26042 0
M  V30 25144 H 2376.51 -1.47655 -2.91317 0
M  V30 25145 H 2375.17 -3.24034 -1.71457 0
M  V30 25146 H 2374.81 -2.83233 -4.15678 0
M  V30 25147 H 2374.51 -4.53677 -3.73431 0
M  V30 25148 H 2376.04 -4.07698 -4.54549 0
M  V30 25149 H 2377.45 -5.14042 -2.53837 0
M  V30 25150 H 2375.85 -5.67392 -1.95412 0
M  V30 25151 H 2376.92 -4.77094 -0.866589 0
M  V30 25152 N 2378.26 0.425871 -1.51737 0
M  V30 25153 C 2379.19 1.53635 -1.70085 0
M  V30 25154 C 2380.21 1.52065 -0.581375 0
M  V30 25155 O 2381.4 1.56634 -0.856044 0
M  V30 25156 C 2378.5 2.92547 -1.71083 0
M  V30 25157 C 2377.67 3.18494 -2.998 0
M  V30 25158 C 2376.73 4.37191 -2.92833 0
M  V30 25159 O 2375.75 4.35285 -3.66764 0
M  V30 25160 N 2376.96 5.4139 -2.0947 0
M  V30 25161 H 2379.72 1.38295 -2.65884 0
M  V30 25162 H 2377.28 0.614962 -1.49766 0
M  V30 25163 H 2379.27 3.69992 -1.63975 0
M  V30 25164 H 2377.84 3.01427 -0.828295 0
M  V30 25165 H 2377.06 2.29244 -3.20688 0
M  V30 25166 H 2378.35 3.32664 -3.84983 0
M  V30 25167 H 2377.75 5.45779 -1.48802 0
M  V30 25168 H 2376.31 6.17643 -2.08232 0
M  V30 25169 N 2379.74 1.42077 0.682052 0
M  V30 25170 C 2380.97 1.45542 1.47055 0
M  V30 25171 C 2381.38 0.064611 1.88689 0
M  V30 25172 O 2380.74 -0.919087 1.57668 0
M  V30 25173 C 2380.79 2.37613 2.72437 0
M  V30 25174 O 2380.51 3.71283 2.32552 0
M  V30 25175 C 2382.01 2.50024 3.66064 0
M  V30 25176 H 2379.23 0.495255 0.452728 0
M  V30 25177 H 2381.78 1.86512 0.838662 0
M  V30 25178 H 2379.93 1.99916 3.31832 0
M  V30 25179 H 2380.35 4.20521 3.13468 0
M  V30 25180 H 2381.82 3.18584 4.50786 0
M  V30 25181 H 2382.3 1.53579 4.11473 0
M  V30 25182 H 2382.9 2.88413 3.12567 0
M  V30 25183 N 2381.22 -0.917649 1.28129 0
M  V30 25184 C 2382.64 -1.19536 1.05751 0
M  V30 25185 C 2382.84 -2.00479 -0.202598 0
M  V30 25186 O 2381.89 -2.35711 -0.905341 0
M  V30 25187 C 2383.2 -1.93374 2.30276 0
M  V30 25188 C 2384.75 -2.06272 2.35416 0
M  V30 25189 C 2385.23 -2.83517 3.59697 0
M  V30 25190 N 2386.72 -2.91081 3.60314 0
M  V30 25191 C 2387.45 -3.5134 4.53153 0
M  V30 25192 N 2386.95 -4.12909 5.56307 0
M  V30 25193 N 2388.74 -3.48841 4.40757 0
M  V30 25194 H 2380.89 -0.377148 2.09025 0
M  V30 25195 H 2383.16 -0.229494 0.919802 0
M  V30 25196 H 2382.86 -1.41323 3.22057 0
M  V30 25197 H 2382.74 -2.93943 2.36384 0
M  V30 25198 H 2385.12 -2.57506 1.44134 0
M  V30 25199 H 2385.2 -1.04891 2.33305 0
M  V30 25200 H 2384.85 -2.32965 4.5132 0
M  V30 25201 H 2384.78 -3.85205 3.59061 0
M  V30 25202 H 2387.27 -2.47333 2.85718 0
M  V30 25203 H 2387.58 -4.56858 6.23298 0
M  V30 25204 H 2385.93 -4.11425 5.60138 0
M  V30 25205 H 2389.12 -2.99948 3.59373 0
M  V30 25206 H 2389.29 -3.95511 5.13298 0
M  V30 25207 N 2382.7 -1.10314 -1.12555 0
M  V30 25208 C 2383.93 -0.865649 -1.8759 0
M  V30 25209 C 2384.34 0.587358 -1.79852 0
M  V30 25210 O 2383.68 1.41662 -1.16951 0
M  V30 25211 C 2383.74 -1.23387 -3.37662 0
M  V30 25212 C 2383.4 -2.69365 -3.69177 0
M  V30 25213 C 2384.4 -3.67604 -3.67646 0
M  V30 25214 C 2382.09 -3.05718 -3.98549 0
M  V30 25215 C 2384.08 -5.00219 -3.95044 0
M  V30 25216 C 2381.77 -4.38522 -4.25608 0
M  V30 25217 C 2382.77 -5.35581 -4.23842 0
M  V30 25218 O 2382.45 -6.65994 -4.5023 0
M  V30 25219 H 2382.19 -0.310567 -0.600436 0
M  V30 25220 H 2384.74 -1.47107 -1.43348 0
M  V30 25221 H 2382.97 -0.571534 -3.82453 0
M  V30 25222 H 2384.66 -0.974063 -3.94039 0
M  V30 25223 H 2385.42 -3.40863 -3.45018 0
M  V30 25224 H 2381.3 -2.30796 -3.99066 0
M  V30 25225 H 2384.85 -5.75969 -3.93581 0
M  V30 25226 H 2380.74 -4.65001 -4.4771 0
M  V30 25227 H 2381.51 -6.71606 -4.67855 0
M  V30 25228 N 2384.18 1.29948 -0.891694 0
M  V30 25229 C 2385.4 2.00031 -0.528695 0
M  V30 25230 C 2385.82 1.66797 0.884545 0
M  V30 25231 O 2385.18 0.908697 1.58269 0
M  V30 25232 C 2385.23 3.54621 -0.701876 0
M  V30 25233 O 2384.95 3.86674 -2.05948 0
M  V30 25234 C 2386.45 4.41973 -0.342761 0
M  V30 25235 H 2383.67 0.639343 -0.20367 0
M  V30 25236 H 2386.21 1.65675 -1.19884 0
M  V30 25237 H 2384.37 3.87319 -0.0790149 0
M  V30 25238 H 2384.78 4.81364 -2.083 0
M  V30 25239 H 2386.26 5.49594 -0.514806 0
M  V30 25240 H 2386.73 4.33264 0.719674 0
M  V30 25241 H 2387.34 4.14731 -0.942227 0
M  V30 25242 N 2385.65 0.653339 1.4342 0
M  V30 25243 C 2386.58 -0.0246246 2.33487 0
M  V30 25244 C 2387.56 -0.811837 1.49476 0
M  V30 25245 O 2388.75 -0.773291 1.7814 0
M  V30 25246 C 2385.88 -0.991601 3.32843 0
M  V30 25247 C 2384.83 -0.314493 4.26843 0
M  V30 25248 C 2384.16 -1.39292 5.16238 0
M  V30 25249 C 2385.46 0.793186 5.16242 0
M  V30 25250 H 2387.15 0.727532 2.90426 0
M  V30 25251 H 2384.7 0.351312 1.39649 0
M  V30 25252 H 2386.65 -1.4748 3.9475 0
M  V30 25253 H 2385.38 -1.77492 2.74161 0
M  V30 25254 H 2384.04 0.148264 3.663 0
M  V30 25255 H 2383.68 -2.16768 4.53895 0
M  V30 25256 H 2383.38 -0.945121 5.79949 0
M  V30 25257 H 2384.91 -1.87749 5.81019 0
M  V30 25258 H 2386.32 0.39214 5.71957 0
M  V30 25259 H 2384.72 1.16547 5.88674 0
M  V30 25260 H 2385.79 1.65111 4.55924 0
M  V30 25261 N 2387.13 -1.52563 0.395266 0
M  V30 25262 C 2388.06 -2.29538 -0.428344 0
M  V30 25263 C 2389.04 -1.33171 -1.05828 0
M  V30 25264 O 2390.23 -1.62069 -1.06992 0
M  V30 25265 C 2387.36 -3.10659 -1.55268 0
M  V30 25266 C 2386.31 -4.14959 -1.04848 0
M  V30 25267 C 2385.64 -4.84341 -2.26535 0
M  V30 25268 C 2386.94 -5.22179 -0.112232 0
M  V30 25269 H 2388.63 -2.98635 0.213919 0
M  V30 25270 H 2386.18 -1.43622 0.104323 0
M  V30 25271 H 2388.13 -3.63269 -2.13573 0
M  V30 25272 H 2386.85 -2.39306 -2.22262 0
M  V30 25273 H 2385.51 -3.63339 -0.487921 0
M  V30 25274 H 2385.16 -4.0953 -2.92052 0
M  V30 25275 H 2384.86 -5.54841 -1.93457 0
M  V30 25276 H 2386.39 -5.39758 -2.85471 0
M  V30 25277 H 2387.8 -5.70113 -0.603652 0
M  V30 25278 H 2386.2 -5.99961 0.129073 0
M  V30 25279 H 2387.27 -4.77619 0.837136 0
M  V30 25280 N 2388.61 -0.125265 -1.57101 0
M  V30 25281 C 2390.02 0.39911 -1.82384 0
M  V30 25282 C 2390.37 1.66194 -1.04279 0
M  V30 25283 O 2389.5 2.14564 -0.281307 0
M  V30 25284 C 2390.09 0.730873 -3.30823 0
M  V30 25285 C 2388.65 1.19986 -3.56764 0
M  V30 25286 C 2387.8 0.211744 -2.7649 0
M  V30 25287 H 2390.75 -0.350304 -1.54786 0
M  V30 25288 H 2390.77 1.58769 -3.45793 0
M  V30 25289 H 2390.28 -0.188413 -3.87642 0
M  V30 25290 H 2388.38 2.13583 -3.05308 0
M  V30 25291 H 2388.5 1.14085 -4.65319 0
M  V30 25292 H 2386.86 0.700042 -2.44891 0
M  V30 25293 H 2387.64 -0.70075 -3.36072 0
M  V30 25294 N 2390.09 1.56899 0.148518 0
M  V30 25295 C 2391.32 1.87152 0.875085 0
M  V30 25296 C 2391.73 0.711293 1.7532 0
M  V30 25297 O 2391.07 -0.32812 1.80746 0
M  V30 25298 C 2391.13 3.12092 1.78434 0
M  V30 25299 C 2390.79 4.43969 1.08354 0
M  V30 25300 C 2391.79 5.1805 0.438156 0
M  V30 25301 C 2389.48 4.90695 1.07349 0
M  V30 25302 C 2391.47 6.37061 -0.207902 0
M  V30 25303 C 2389.16 6.0963 0.423623 0
M  V30 25304 C 2390.16 6.82659 -0.215949 0
M  V30 25305 O 2389.84 7.99335 -0.855519 0
M  V30 25306 H 2389.58 0.624626 0.258493 0
M  V30 25307 H 2392.13 2.04877 0.146484 0
M  V30 25308 H 2390.36 2.90372 2.55384 0
M  V30 25309 H 2392.05 3.28604 2.38273 0
M  V30 25310 H 2392.81 4.83021 0.437732 0
M  V30 25311 H 2388.69 4.33777 1.56072 0
M  V30 25312 H 2392.24 6.94001 -0.707702 0
M  V30 25313 H 2388.13 6.44121 0.421708 0
M  V30 25314 H 2388.9 8.14992 -0.757035 0
M  V30 25315 N 2391.57 -0.417818 1.51961 0
M  V30 25316 C 2392.5 -1.51551 1.77636 0
M  V30 25317 C 2393.48 -1.58125 0.626946 0
M  V30 25318 O 2394.66 -1.73539 0.871662 0
M  V30 25319 C 2391.79 -2.89457 1.91917 0
M  V30 25320 C 2390.75 -2.97737 3.07468 0
M  V30 25321 C 2390.07 -4.37813 3.06959 0
M  V30 25322 C 2391.37 -2.70019 4.47087 0
M  V30 25323 H 2393.07 -1.30315 2.69552 0
M  V30 25324 H 2390.61 -0.625469 1.29707 0
M  V30 25325 H 2392.56 -3.66226 2.08461 0
M  V30 25326 H 2391.29 -3.11967 0.966653 0
M  V30 25327 H 2389.95 -2.23411 2.9066 0
M  V30 25328 H 2389.6 -4.5732 2.09446 0
M  V30 25329 H 2389.3 -4.4428 3.84564 0
M  V30 25330 H 2390.82 -5.16529 3.25622 0
M  V30 25331 H 2392.23 -3.36514 4.64145 0
M  V30 25332 H 2390.63 -2.87872 5.26545 0
M  V30 25333 H 2391.7 -1.65506 4.5578 0
M  V30 25334 N 2393.04 -1.42436 -0.674508 0
M  V30 25335 C 2394.27 -1.46108 -1.46069 0
M  V30 25336 C 2394.68 -0.0709937 -1.89067 0
M  V30 25337 O 2394.02 0.924649 -1.58732 0
M  V30 25338 C 2394.09 -2.32566 -2.74141 0
M  V30 25339 C 2393.75 -3.80434 -2.53217 0
M  V30 25340 C 2394.75 -4.72079 -2.17801 0
M  V30 25341 C 2392.43 -4.24703 -2.68203 0
M  V30 25342 C 2394.43 -6.05985 -1.97637 0
M  V30 25343 C 2392.11 -5.58668 -2.47655 0
M  V30 25344 C 2393.11 -6.49126 -2.12426 0
M  V30 25345 O 2392.8 -7.80616 -1.92076 0
M  V30 25346 H 2392.53 -0.499084 -0.455951 0
M  V30 25347 H 2395.09 -1.8761 -0.83616 0
M  V30 25348 H 2393.32 -1.85914 -3.39077 0
M  V30 25349 H 2395 -2.27689 -3.36024 0
M  V30 25350 H 2395.77 -4.39162 -2.05819 0
M  V30 25351 H 2391.65 -3.54585 -2.94603 0
M  V30 25352 H 2395.19 -6.76553 -1.70063 0
M  V30 25353 H 2391.09 -5.91158 -2.59233 0
M  V30 25354 H 2391.86 -7.91978 -2.06672 0
M  V30 25355 N 2394.52 0.910841 -1.28614 0
M  V30 25356 C 2395.75 1.69397 -1.18795 0
M  V30 25357 C 2396.16 1.87097 0.253006 0
M  V30 25358 O 2395.52 1.40005 1.17068 0
M  V30 25359 C 2395.57 3.08454 -1.88516 0
M  V30 25360 O 2395.29 2.9157 -3.26984 0
M  V30 25361 C 2396.79 4.02836 -1.85036 0
M  V30 25362 H 2394.01 0.529431 -0.412243 0
M  V30 25363 H 2396.56 1.13981 -1.6979 0
M  V30 25364 H 2394.71 3.60679 -1.41385 0
M  V30 25365 H 2395.13 3.79602 -3.61943 0
M  V30 25366 H 2396.6 4.97863 -2.38404 0
M  V30 25367 H 2397.08 4.31413 -0.823379 0
M  V30 25368 H 2397.68 3.56541 -2.31859 0
M  V30 25369 N 2396 1.10909 1.11969 0
M  V30 25370 C 2396.93 0.784511 2.19927 0
M  V30 25371 C 2397.91 -0.244697 1.68331 0
M  V30 25372 O 2399.1 -0.109384 1.93892 0
M  V30 25373 C 2396.23 0.220888 3.46597 0
M  V30 25374 C 2395.18 1.18134 4.11374 0
M  V30 25375 C 2394.51 0.478688 5.32553 0
M  V30 25376 C 2395.81 2.52987 4.56941 0
M  V30 25377 H 2397.5 1.68719 2.47334 0
M  V30 25378 H 2395.05 0.812663 1.18877 0
M  V30 25379 H 2397 -0.0183538 4.21396 0
M  V30 25380 H 2395.72 -0.717057 3.18631 0
M  V30 25381 H 2394.38 1.40612 3.38561 0
M  V30 25382 H 2394.03 -0.463888 5.00856 0
M  V30 25383 H 2393.73 1.11922 5.76842 0
M  V30 25384 H 2395.25 0.248107 6.10096 0
M  V30 25385 H 2396.67 2.3463 5.23089 0
M  V30 25386 H 2395.07 3.12971 5.12025 0
M  V30 25387 H 2396.14 3.1262 3.70671 0
M  V30 25388 N 2397.48 -1.29474 0.898573 0
M  V30 25389 C 2398.41 -2.25945 0.320021 0
M  V30 25390 C 2399.39 -1.52388 -0.567162 0
M  V30 25391 O 2400.57 -1.8135 -0.514222 0
M  V30 25392 C 2397.7 -3.34303 -0.543954 0
M  V30 25393 C 2396.75 -4.25608 0.275757 0
M  V30 25394 S 2397.58 -5.08702 1.67281 0
M  V30 25395 C 2398.74 -6.20562 0.81573 0
M  V30 25396 H 2398.97 -2.74669 1.13772 0
M  V30 25397 H 2396.5 -1.37679 0.698845 0
M  V30 25398 H 2398.46 -3.97195 -1.03666 0
M  V30 25399 H 2397.12 -2.84276 -1.33588 0
M  V30 25400 H 2396.31 -5.02534 -0.384175 0
M  V30 25401 H 2395.92 -3.67361 0.70156 0
M  V30 25402 H 2398.21 -6.77489 0.0386233 0
M  V30 25403 H 2399.15 -6.90769 1.55704 0
M  V30 25404 H 2399.56 -5.63282 0.370615 0
M  V30 25405 N 2398.96 -0.660936 -1.43071 0
M  V30 25406 C 2399.91 0.0484299 -2.27949 0
M  V30 25407 C 2400.89 0.787222 -1.40327 0
M  V30 25408 O 2402.08 0.668417 -1.63894 0
M  V30 25409 C 2399.21 1.00876 -3.28145 0
M  V30 25410 C 2398.3 0.268034 -4.23252 0
M  V30 25411 N 2398.69 -0.719616 -5.00655 0
M  V30 25412 C 2396.99 0.508415 -4.43093 0
M  V30 25413 C 2397.69 -1.15998 -5.70017 0
M  V30 25414 N 2396.66 -0.492679 -5.41363 0
M  V30 25415 H 2400.47 -0.709329 -2.85212 0
M  V30 25416 H 2397.98 -0.488849 -1.54868 0
M  V30 25417 H 2399.98 1.53181 -3.87739 0
M  V30 25418 H 2398.64 1.76649 -2.72443 0
M  V30 25419 H 2399.65 -1.09864 -5.06113 0
M  V30 25420 H 2396.32 1.24672 -3.98451 0
M  V30 25421 H 2397.71 -1.97762 -6.42137 0
M  V30 25422 N 2400.43 1.52351 -0.403352 0
M  V30 25423 C 2401.38 2.26854 0.424972 0
M  V30 25424 C 2402.35 1.29031 1.04596 0
M  V30 25425 O 2403.54 1.57884 1.07132 0
M  V30 25426 C 2400.68 3.08892 1.53882 0
M  V30 25427 C 2399.79 4.21664 0.939322 0
M  V30 25428 C 2398.92 4.91072 2.02539 0
M  V30 25429 C 2397.96 5.95815 1.40252 0
M  V30 25430 N 2397.1 6.58763 2.42849 0
M  V30 25431 H 2401.94 2.9721 -0.216793 0
M  V30 25432 H 2399.48 1.4662 -0.118747 0
M  V30 25433 H 2401.44 3.54757 2.19552 0
M  V30 25434 H 2400.07 2.40717 2.1507 0
M  V30 25435 H 2399.12 3.80012 0.171831 0
M  V30 25436 H 2400.43 4.96818 0.444273 0
M  V30 25437 H 2399.58 5.40312 2.75948 0
M  V30 25438 H 2398.32 4.15473 2.55408 0
M  V30 25439 H 2397.33 5.459 0.653737 0
M  V30 25440 H 2398.55 6.73353 0.881601 0
M  V30 25441 H 2396.5 5.85998 2.94861 0
M  V30 25442 H 2396.42 7.29573 1.98139 0
M  V30 25443 H 2397.68 7.12644 3.15845 0
M  V30 25444 N 2401.91 0.133594 1.57033 0
M  V30 25445 C 2402.88 -0.796957 2.14898 0
M  V30 25446 C 2403.88 -1.18456 1.08742 0
M  V30 25447 O 2405.07 -1.10768 1.34447 0
M  V30 25448 C 2402.2 -2.07968 2.70115 0
M  V30 25449 H 2403.39 -0.29382 2.98457 0
M  V30 25450 H 2400.94 -0.115759 1.55871 0
M  V30 25451 H 2401.68 -2.62679 1.90185 0
M  V30 25452 H 2401.46 -1.81109 3.47767 0
M  V30 25453 H 2402.95 -2.74457 3.14743 0
M  V30 25454 N 2403.39 -1.56975 -0.140195 0
M  V30 25455 C 2404.34 -1.95196 -1.17824 0
M  V30 25456 C 2405.32 -0.8241 -1.38193 0
M  V30 25457 O 2406.52 -1.08762 -1.39641 0
M  V30 25458 C 2403.65 -2.34188 -2.5102 0
M  V30 25459 C 2402.73 -3.5356 -2.34214 0
M  V30 25460 N 2403.12 -4.69892 -1.87176 0
M  V30 25461 C 2401.42 -3.58778 -2.64943 0
M  V30 25462 C 2402.12 -5.51973 -1.83576 0
M  V30 25463 N 2401.1 -4.9387 -2.27141 0
M  V30 25464 H 2404.9 -2.8261 -0.806767 0
M  V30 25465 H 2402.41 -1.58624 -0.34818 0
M  V30 25466 H 2404.41 -2.59778 -3.26069 0
M  V30 25467 H 2403.07 -1.48129 -2.88943 0
M  V30 25468 H 2404.08 -4.93517 -1.5704 0
M  V30 25469 H 2400.76 -2.83275 -3.06695 0
M  V30 25470 H 2402.15 -6.55252 -1.48643 0
M  V30 25471 N 2404.87 0.409753 -1.5218 0
M  V30 25472 C 2406.1 1.1785 -1.70056 0
M  V30 25473 C 2406.51 1.843 -0.409767 0
M  V30 25474 O 2405.87 1.71856 0.614153 0
M  V30 25475 C 2405.92 2.24208 -2.83572 0
M  V30 25476 O 2405.64 1.60471 -4.07653 0
M  V30 25477 C 2407.14 3.13968 -3.12952 0
M  V30 25478 H 2404.36 0.354159 -0.569923 0
M  V30 25479 H 2406.91 0.482163 -1.98735 0
M  V30 25480 H 2405.06 2.89511 -2.57414 0
M  V30 25481 H 2405.47 2.30977 -4.70903 0
M  V30 25482 H 2406.95 3.8467 -3.95896 0
M  V30 25483 H 2407.43 3.76303 -2.26478 0
M  V30 25484 H 2408.03 2.54334 -3.40873 0
M  V30 25485 N 2406.35 1.42792 0.666944 0
M  V30 25486 C 2407.26 1.49302 1.80959 0
M  V30 25487 C 2408.27 0.381138 1.69774 0
M  V30 25488 O 2409.45 0.633222 1.91186 0
M  V30 25489 C 2406.51 1.40051 3.17154 0
M  V30 25490 C 2405.57 2.61796 3.40237 0
M  V30 25491 C 2404.81 2.52977 4.69934 0
M  V30 25492 O 2405.03 1.56995 5.48369 0
M  V30 25493 O 2403.96 3.43246 4.94435 0
M  V30 25494 H 2407.79 2.45762 1.78423 0
M  V30 25495 H 2405.38 1.24642 0.823691 0
M  V30 25496 H 2407.26 1.37283 3.98411 0
M  V30 25497 H 2405.93 0.467194 3.20311 0
M  V30 25498 H 2404.84 2.70138 2.58798 0
M  V30 25499 H 2406.17 3.54053 3.41917 0
M  V30 25500 N 2407.82 -0.904008 1.29095 0
M  V30 25501 C 2409.07 -1.65083 1.16585 0
M  V30 25502 C 2409.39 -1.92922 -0.283899 0
M  V30 25503 O 2408.66 -1.55226 -1.19506 0
M  V30 25504 H 2407.24 -0.611895 0.428478 0
M  V30 25505 H 2409.91 -1.08419 1.61961 0
M  V30 25506 H 2409 -2.60907 1.71271 0
M  V30 25507 N 2409.3 -1.11501 -1.11379 0
M  V30 25508 C 2410.55 -0.865544 -1.83402 0
M  V30 25509 C 2410.88 0.607296 -1.8446 0
M  V30 25510 O 2410.16 1.4484 -1.29814 0
M  V30 25511 C 2410.44 -1.42861 -3.30549 0
M  V30 25512 C 2410.29 -2.96912 -3.37881 0
M  V30 25513 C 2411.61 -1.08007 -4.26641 0
M  V30 25514 H 2408.73 -0.315882 -0.665874 0
M  V30 25515 H 2411.37 -1.38 -1.30598 0
M  V30 25516 H 2409.52 -0.991051 -3.75647 0
M  V30 25517 H 2411.19 -3.49276 -3.01337 0
M  V30 25518 H 2409.44 -3.32946 -2.78082 0
M  V30 25519 H 2410.11 -3.31397 -4.41452 0
M  V30 25520 H 2412.58 -1.45782 -3.89727 0
M  V30 25521 H 2411.46 -1.50081 -5.27984 0
M  V30 25522 H 2411.72 0.00907266 -4.42099 0
M  V30 25523 N 2410.78 1.28995 -0.905426 0
M  V30 25524 C 2412.01 1.99459 -0.549881 0
M  V30 25525 C 2412.42 1.67726 0.866804 0
M  V30 25526 O 2411.78 0.925432 1.57296 0
M  V30 25527 C 2411.83 3.53856 -0.739449 0
M  V30 25528 O 2411.55 3.84468 -2.10038 0
M  V30 25529 C 2413.05 4.41584 -0.389619 0
M  V30 25530 H 2410.27 0.637147 -0.21044 0
M  V30 25531 H 2412.82 1.64394 -1.21635 0
M  V30 25532 H 2410.97 3.87214 -0.120091 0
M  V30 25533 H 2411.39 4.79128 -2.13393 0
M  V30 25534 H 2412.86 5.49017 -0.573068 0
M  V30 25535 H 2413.34 4.34003 0.67368 0
M  V30 25536 H 2413.94 4.13709 -0.986162 0
M  V30 25537 N 2412.26 0.668514 1.42719 0
M  V30 25538 C 2413.51 0.188454 2.01922 0
M  V30 25539 C 2413.84 -1.19976 1.52707 0
M  V30 25540 O 2413.11 -1.80418 0.726597 0
M  V30 25541 C 2413.4 0.216148 3.59451 0
M  V30 25542 C 2413.25 1.63937 4.18861 0
M  V30 25543 C 2414.57 -0.439102 4.37904 0
M  V30 25544 H 2411.69 0.0699541 0.733673 0
M  V30 25545 H 2414.33 0.852106 1.69821 0
M  V30 25546 H 2412.48 -0.348944 3.8693 0
M  V30 25547 H 2414.15 2.25623 4.02358 0
M  V30 25548 H 2412.39 2.18199 3.74929 0
M  V30 25549 H 2413.07 1.61048 5.27984 0
M  V30 25550 H 2415.54 0.0418609 4.16079 0
M  V30 25551 H 2414.42 -0.389061 5.47519 0
M  V30 25552 H 2414.68 -1.5157 4.15306 0
M  V30 25553 N 2413.74 -1.52135 0.411426 0
M  V30 25554 C 2414.98 -2.02137 -0.163852 0
M  V30 25555 C 2415.32 -1.29638 -1.44595 0
M  V30 25556 O 2414.59 -0.403387 -1.90271 0
M  V30 25557 C 2414.87 -3.57767 -0.409208 0
M  V30 25558 C 2414.73 -4.40913 0.889721 0
M  V30 25559 C 2416.05 -4.23697 -1.19035 0
M  V30 25560 H 2413.17 -0.734708 -0.0580766 0
M  V30 25561 H 2415.81 -1.82006 0.545342 0
M  V30 25562 H 2413.96 -3.75052 -1.01333 0
M  V30 25563 H 2415.63 -4.35334 1.52583 0
M  V30 25564 H 2413.87 -4.07034 1.50018 0
M  V30 25565 H 2414.54 -5.47889 0.672411 0
M  V30 25566 H 2417.02 -4.10525 -0.67887 0
M  V30 25567 H 2415.9 -5.32524 -1.33077 0
M  V30 25568 H 2416.16 -3.82807 -2.21159 0
M  V30 25569 N 2415.22 -0.14192 -1.5696 0
M  V30 25570 C 2416.63 0.214532 -1.58152 0
M  V30 25571 C 2416.83 1.65047 -1.15593 0
M  V30 25572 O 2415.89 2.37624 -0.853874 0
M  V30 25573 C 2417.2 -0.0396105 -3.00674 0
M  V30 25574 C 2418.75 0.0244978 -3.1299 0
M  V30 25575 C 2419.22 -0.202247 -4.57553 0
M  V30 25576 N 2420.71 -0.149 -4.6296 0
M  V30 25577 C 2421.45 -0.299025 -5.7262 0
M  V30 25578 N 2420.95 -0.506491 -6.90946 0
M  V30 25579 N 2422.74 -0.236985 -5.616 0
M  V30 25580 H 2414.89 -1.07956 -1.82919 0
M  V30 25581 H 2417.15 -0.426945 -0.846417 0
M  V30 25582 H 2416.86 -1.0332 -3.36181 0
M  V30 25583 H 2416.73 0.682078 -3.70982 0
M  V30 25584 H 2419.12 1.00864 -2.77327 0
M  V30 25585 H 2419.2 -0.729439 -2.45179 0
M  V30 25586 H 2418.84 -1.18346 -4.9392 0
M  V30 25587 H 2418.77 0.571952 -5.23485 0
M  V30 25588 H 2421.27 0.00690373 -3.77899 0
M  V30 25589 H 2421.58 -0.611211 -7.70379 0
M  V30 25590 H 2419.92 -0.54275 -6.92877 0
M  V30 25591 H 2423.11 -0.0757031 -4.68039 0
M  V30 25592 H 2423.29 -0.357341 -6.47014 0
M  V30 25593 N 2416.69 1.57047 0.131868 0
M  V30 25594 C 2418.1 1.73467 0.690376 0
M  V30 25595 C 2418.46 0.758661 1.80939 0
M  V30 25596 O 2417.58 -0.0713433 2.16282 0
M  V30 25597 C 2418.18 3.14535 1.2591 0
M  V30 25598 C 2416.73 3.32504 1.76403 0
M  V30 25599 C 2415.88 2.69367 0.658531 0
M  V30 25600 H 2418.83 1.58422 -0.0939422 0
M  V30 25601 H 2418.85 3.15372 2.12886 0
M  V30 25602 H 2418.37 3.85547 0.444447 0
M  V30 25603 H 2416.47 2.66514 2.60387 0
M  V30 25604 H 2416.58 4.40574 1.88233 0
M  V30 25605 H 2414.94 2.30248 1.08895 0
M  V30 25606 H 2415.73 3.42994 -0.144931 0
M  V30 25607 N 2418.17 -0.401677 1.52395 0
M  V30 25608 C 2419.1 -1.49658 1.79234 0
M  V30 25609 C 2420.08 -1.57451 0.643682 0
M  V30 25610 O 2421.27 -1.72604 0.89002 0
M  V30 25611 C 2418.4 -2.87405 1.94976 0
M  V30 25612 C 2417.35 -2.94459 3.10609 0
M  V30 25613 C 2416.68 -4.34533 3.11585 0
M  V30 25614 C 2417.98 -2.65262 4.49926 0
M  V30 25615 H 2419.67 -1.27449 2.70919 0
M  V30 25616 H 2417.22 -0.611677 1.30363 0
M  V30 25617 H 2419.17 -3.63995 2.12334 0
M  V30 25618 H 2417.89 -3.10924 0.999687 0
M  V30 25619 H 2416.55 -2.20316 2.93013 0
M  V30 25620 H 2416.2 -4.55072 2.14285 0
M  V30 25621 H 2415.9 -4.40176 3.89255 0
M  V30 25622 H 2417.43 -5.13047 3.31082 0
M  V30 25623 H 2418.84 -3.31573 4.67689 0
M  V30 25624 H 2417.24 -2.82271 5.29569 0
M  V30 25625 H 2418.31 -1.60663 4.5751 0
M  V30 25626 N 2419.65 -1.43144 -0.659362 0
M  V30 25627 C 2420.58 -1.50628 -1.78419 0
M  V30 25628 C 2421.56 -0.361472 -1.66215 0
M  V30 25629 O 2422.75 -0.577866 -1.85403 0
M  V30 25630 C 2419.88 -1.42293 -3.16812 0
M  V30 25631 C 2418.83 -2.5496 -3.43772 0
M  V30 25632 C 2418.16 -2.31679 -4.81901 0
M  V30 25633 C 2419.46 -3.97228 -3.39127 0
M  V30 25634 H 2421.15 -2.44774 -1.72413 0
M  V30 25635 H 2418.7 -1.1781 -0.828063 0
M  V30 25636 H 2420.65 -1.46134 -3.9525 0
M  V30 25637 H 2419.37 -0.446492 -3.23534 0
M  V30 25638 H 2418.03 -2.50462 -2.67702 0
M  V30 25639 H 2417.68 -1.32293 -4.85291 0
M  V30 25640 H 2417.38 -3.072 -5.00901 0
M  V30 25641 H 2418.9 -2.37294 -5.62604 0
M  V30 25642 H 2420.32 -4.03247 -4.07511 0
M  V30 25643 H 2418.71 -4.72725 -3.69663 0
M  V30 25644 H 2419.78 -4.22801 -2.37418 0
M  V30 25645 N 2421.13 0.897149 -1.29572 0
M  V30 25646 C 2422.08 1.98853 -1.11542 0
M  V30 25647 C 2423.06 1.60864 -0.0340998 0
M  V30 25648 O 2424.25 1.75138 -0.256093 0
M  V30 25649 C 2421.38 3.33928 -0.796661 0
M  V30 25650 C 2420.47 3.78269 -1.91765 0
M  V30 25651 N 2420.86 3.9482 -3.1615 0
M  V30 25652 C 2419.16 4.07565 -1.81126 0
M  V30 25653 C 2419.86 4.32226 -3.89301 0
M  V30 25654 N 2418.83 4.41413 -3.17263 0
M  V30 25655 H 2422.64 2.09722 -2.05897 0
M  V30 25656 H 2420.15 1.08614 -1.20734 0
M  V30 25657 H 2422.15 4.11825 -0.648531 0
M  V30 25658 H 2420.81 3.24403 0.138946 0
M  V30 25659 H 2421.82 3.80282 -3.51576 0
M  V30 25660 H 2418.5 4.06582 -0.948533 0
M  V30 25661 H 2419.89 4.52856 -4.96357 0
M  V30 25662 N 2422.61 1.1209 1.10786 0
M  V30 25663 C 2423.52 0.798377 2.20597 0
M  V30 25664 C 2424.53 -0.21132 1.72712 0
M  V30 25665 O 2425.71 -0.0458123 2.01348 0
M  V30 25666 C 2422.77 0.253734 3.4577 0
M  V30 25667 C 2421.83 1.3229 4.08409 0
M  V30 25668 C 2421.07 0.804153 5.27607 0
M  V30 25669 O 2421.29 -0.363378 5.69241 0
M  V30 25670 O 2420.22 1.57208 5.81007 0
M  V30 25671 H 2424.05 1.71545 2.50611 0
M  V30 25672 H 2421.63 0.897296 1.19453 0
M  V30 25673 H 2423.52 -0.045295 4.21376 0
M  V30 25674 H 2422.19 -0.635949 3.17392 0
M  V30 25675 H 2421.1 1.67505 3.34504 0
M  V30 25676 H 2422.43 2.18622 4.40982 0
M  V30 25677 N 2424.08 -1.28513 0.912254 0
M  V30 25678 C 2425.33 -1.95038 0.544633 0
M  V30 25679 C 2425.66 -1.71824 -0.911405 0
M  V30 25680 O 2424.91 -1.0314 -1.66315 0
M  V30 25681 C 2425.21 -3.48367 0.798453 0
M  V30 25682 C 2424.88 -3.91678 2.23381 0
M  V30 25683 C 2423.54 -4.03214 2.62624 0
M  V30 25684 C 2425.89 -4.13873 3.16794 0
M  V30 25685 C 2423.22 -4.34323 3.94437 0
M  V30 25686 C 2425.57 -4.46461 4.48169 0
M  V30 25687 C 2424.24 -4.56208 4.87268 0
M  V30 25688 H 2423.51 -0.713696 0.199295 0
M  V30 25689 H 2426.15 -1.52877 1.15329 0
M  V30 25690 H 2424.46 -3.91654 0.106977 0
M  V30 25691 H 2426.16 -3.97955 0.493211 0
M  V30 25692 H 2422.75 -3.83225 1.91929 0
M  V30 25693 H 2426.93 -4.04415 2.87684 0
M  V30 25694 H 2422.19 -4.40075 4.24434 0
M  V30 25695 H 2426.36 -4.62583 5.20567 0
M  V30 25696 H 2423.99 -4.80068 5.89439 0
M  V30 25697 N 2425.56 -0.676073 -1.42362 0
M  V30 25698 C 2426.81 -0.19916 -2.0182 0
M  V30 25699 C 2427.14 1.19165 -1.53341 0
M  V30 25700 O 2426.42 1.80031 -0.736155 0
M  V30 25701 C 2426.7 -0.235207 -3.59331 0
M  V30 25702 C 2426.55 -1.66156 -4.17986 0
M  V30 25703 C 2427.87 0.415873 -4.38131 0
M  V30 25704 H 2424.99 -0.073844 -0.733291 0
M  V30 25705 H 2427.63 -0.8611 -1.69367 0
M  V30 25706 H 2425.78 0.328419 -3.87109 0
M  V30 25707 H 2427.45 -2.27754 -4.01156 0
M  V30 25708 H 2425.7 -2.20184 -3.73766 0
M  V30 25709 H 2426.37 -1.63846 -5.27123 0
M  V30 25710 H 2428.84 -0.063926 -4.16051 0
M  V30 25711 H 2427.72 0.360019 -5.47718 0
M  V30 25712 H 2427.98 1.49365 -4.16104 0
M  V30 25713 N 2427.04 1.51915 -0.419488 0
M  V30 25714 C 2428.27 2.06823 0.154535 0
M  V30 25715 C 2428.69 1.28658 1.37218 0
M  V30 25716 O 2428.05 0.319614 1.78461 0
M  V30 25717 C 2428.1 3.57483 0.473109 0
M  V30 25718 O 2427.2 3.81655 1.56248 0
M  V30 25719 H 2426.54 0.663929 0.00968073 0
M  V30 25720 H 2429.07 1.95737 -0.595676 0
M  V30 25721 H 2429.08 4.01439 0.728754 0
M  V30 25722 H 2427.76 4.13805 -0.416946 0
M  V30 25723 H 2426.33 3.49573 1.29819 0
M  V30 25724 N 2428.52 0.150242 1.56882 0
M  V30 25725 C 2429.8 -0.545294 1.87845 0
M  V30 25726 C 2430.18 -1.82747 1.05673 0
M  V30 25727 O 2429.52 -2.28043 0.144482 0
M  V30 25728 C 2429.73 -0.80761 3.39527 0
M  V30 25729 C 2431.08 -1.14695 4.08816 0
M  V30 25730 O 2432.11 -0.896856 3.44724 0
M  V30 25731 O 2430.96 -1.61775 5.22007 0
M  V30 25732 H 2428.06 -0.278539 0.778681 0
M  V30 25733 H 2430.6 0.187097 1.68665 0
M  V30 25734 H 2429.38 0.0996784 3.91173 0
M  V30 25735 H 2429 -1.59407 3.64246 0
M  V30 25736 N 2430 -1.57115 -0.123538 0
M  V30 25737 C 2430.93 -1.9665 -1.17735 0
M  V30 25738 C 2431.94 -0.865225 -1.37905 0
M  V30 25739 O 2433.13 -1.14354 -1.3706 0
M  V30 25740 C 2430.23 -2.24566 -2.53817 0
M  V30 25741 C 2429.4 -3.55872 -2.54311 0
M  V30 25742 C 2428.46 -3.72054 -3.72105 0
M  V30 25743 O 2427.49 -4.44212 -3.55899 0
M  V30 25744 N 2428.69 -3.1048 -4.90492 0
M  V30 25745 H 2431.46 -2.87655 -0.841097 0
M  V30 25746 H 2429.02 -1.58848 -0.312862 0
M  V30 25747 H 2431.01 -2.32611 -3.31171 0
M  V30 25748 H 2429.58 -1.3971 -2.79642 0
M  V30 25749 H 2428.8 -3.59055 -1.62705 0
M  V30 25750 H 2430.09 -4.42185 -2.51693 0
M  V30 25751 H 2429.48 -2.51815 -5.06563 0
M  V30 25752 H 2428.04 -3.24053 -5.65538 0
M  V30 25753 N 2431.47 0.393589 -1.52606 0
M  V30 25754 C 2432.72 1.14076 -1.67674 0
M  V30 25755 C 2433.05 1.89754 -0.413155 0
M  V30 25756 O 2432.33 1.8537 0.588919 0
M  V30 25757 C 2432.61 2.12271 -2.90883 0
M  V30 25758 C 2432.46 1.40386 -4.27331 0
M  V30 25759 C 2433.78 3.12754 -3.09634 0
M  V30 25760 H 2430.9 0.413346 -0.610176 0
M  V30 25761 H 2433.54 0.424663 -1.85193 0
M  V30 25762 H 2431.69 2.73338 -2.76078 0
M  V30 25763 H 2433.37 0.82319 -4.53896 0
M  V30 25764 H 2431.61 0.705726 -4.28021 0
M  V30 25765 H 2432.28 2.12114 -5.09619 0
M  V30 25766 H 2434.76 2.61774 -3.2344 0
M  V30 25767 H 2433.63 3.7871 -3.97329 0
M  V30 25768 H 2433.89 3.81361 -2.23643 0
M  V30 25769 N 2432.95 1.43492 0.651762 0
M  V30 25770 C 2434.18 1.48629 1.43934 0
M  V30 25771 C 2434.6 0.10462 1.8851 0
M  V30 25772 O 2433.95 -0.885436 1.59582 0
M  V30 25773 C 2434 2.43339 2.67336 0
M  V30 25774 O 2433.72 3.76132 2.24624 0
M  V30 25775 C 2435.23 2.57732 3.60679 0
M  V30 25776 H 2432.45 0.504747 0.442121 0
M  V30 25777 H 2434.99 1.88249 0.798911 0
M  V30 25778 H 2433.14 2.0691 3.27516 0
M  V30 25779 H 2433.56 4.27076 3.04477 0
M  V30 25780 H 2435.03 3.28074 4.43927 0
M  V30 25781 H 2435.51 1.62272 4.08123 0
M  V30 25782 H 2436.12 2.94978 3.06379 0
M  V30 25783 N 2434.43 -0.890264 1.30046 0
M  V30 25784 C 2435.68 -1.64413 1.1975 0
M  V30 25785 C 2436.03 -1.90814 -0.246558 0
M  V30 25786 O 2435.32 -1.51421 -1.17398 0
M  V30 25787 C 2435.52 -2.99246 1.95415 0
M  V30 25788 C 2435.35 -2.86007 3.4703 0
M  V30 25789 C 2434.12 -2.86272 4.16385 0
M  V30 25790 C 2436.32 -2.62343 4.42358 0
M  V30 25791 N 2434.3 -2.63869 5.54298 0
M  V30 25792 C 2435.67 -2.49012 5.67797 0
M  V30 25793 C 2437.72 -2.47525 4.32013 0
M  V30 25794 C 2436.43 -2.22371 6.84064 0
M  V30 25795 C 2438.45 -2.22269 5.48042 0
M  V30 25796 C 2437.81 -2.0971 6.72459 0
M  V30 25797 H 2433.91 -0.606832 0.493234 0
M  V30 25798 H 2436.5 -1.04951 1.63992 0
M  V30 25799 H 2434.67 -3.5675 1.53571 0
M  V30 25800 H 2436.4 -3.63793 1.77304 0
M  V30 25801 H 2433.16 -2.97906 3.6817 0
M  V30 25802 H 2433.58 -2.55695 6.26857 0
M  V30 25803 H 2438.22 -2.55973 3.36508 0
M  V30 25804 H 2435.94 -2.12661 7.79616 0
M  V30 25805 H 2439.53 -2.11634 5.41943 0
M  V30 25806 H 2438.41 -1.9044 7.60725 0
M  V30 25807 N 2435.91 -1.12676 -1.1019 0
M  V30 25808 C 2437.19 -0.794997 -1.78715 0
M  V30 25809 C 2437.57 0.714818 -1.98629 0
M  V30 25810 O 2436.91 1.64939 -1.58138 0
M  V30 25811 C 2437.12 -1.57296 -3.11543 0
M  V30 25812 C 2438.47 -1.76059 -3.86379 0
M  V30 25813 O 2439.5 -1.53829 -3.21271 0
M  V30 25814 O 2438.35 -2.13096 -5.03242 0
M  V30 25815 H 2435.45 -0.289437 -0.774697 0
M  V30 25816 H 2437.99 -1.23093 -1.16817 0
M  V30 25817 H 2436.77 -2.5994 -2.92484 0
M  V30 25818 H 2436.39 -1.13144 -3.81162 0
M  V30 25819 N 2437.39 1.28028 -0.919057 0
M  V30 25820 C 2438.64 1.94033 -0.550836 0
M  V30 25821 C 2438.95 1.73098 0.910847 0
M  V30 25822 O 2440.15 2.3337 1.38746 0
M  V30 25823 C 2438.61 3.47561 -0.93431 0
M  V30 25824 C 2438.22 3.77266 -2.41608 0
M  V30 25825 C 2439.96 4.19695 -0.636928 0
M  V30 25826 C 2437.87 5.24128 -2.73941 0
M  V30 25827 H 2436.8 0.726358 -0.202286 0
M  V30 25828 H 2439.45 1.45456 -1.1187 0
M  V30 25829 H 2437.83 3.94898 -0.295184 0
M  V30 25830 H 2439.01 3.40718 -3.10239 0
M  V30 25831 H 2437.32 3.18316 -2.68447 0
M  V30 25832 H 2439.92 5.27818 -0.855098 0
M  V30 25833 H 2440.26 4.1412 0.425502 0
M  V30 25834 H 2440.79 3.78151 -1.23476 0
M  V30 25835 H 2437.53 5.34785 -3.79058 0
M  V30 25836 H 2437.05 5.61854 -2.09952 0
M  V30 25837 H 2438.73 5.91921 -2.61225 0
M  V30 25838 N 2438.86 0.683613 1.42002 0
M  V30 25839 C 2440.14 0.13811 1.95112 0
M  V30 25840 C 2440.52 -1.34915 1.62361 0
M  V30 25841 O 2439.87 -2.08969 0.924348 0
M  V30 25842 C 2440.08 0.416642 3.46504 0
M  V30 25843 C 2441.43 0.337908 4.23253 0
M  V30 25844 O 2442.45 0.350882 3.54468 0
M  V30 25845 O 2441.31 0.287692 5.45742 0
M  V30 25846 H 2438.4 0.0079945 0.826961 0
M  V30 25847 H 2440.95 0.758951 1.51783 0
M  V30 25848 H 2439.72 1.44657 3.6358 0
M  V30 25849 H 2439.35 -0.23577 3.969 0
M  V30 25850 N 2440.34 -1.5169 0.427538 0
M  V30 25851 C 2441.57 -2.06903 -0.143565 0
M  V30 25852 C 2441.99 -1.29384 -1.36533 0
M  V30 25853 O 2441.35 -0.329074 -1.78289 0
M  V30 25854 C 2441.4 -3.57729 -0.454144 0
M  V30 25855 O 2440.5 -3.82478 -1.54222 0
M  V30 25856 H 2439.84 -0.663971 -0.00615961 0
M  V30 25857 H 2442.37 -1.95418 0.606048 0
M  V30 25858 H 2442.38 -4.0182 -0.707455 0
M  V30 25859 H 2441.06 -4.13578 0.438885 0
M  V30 25860 H 2439.64 -3.50257 -1.27963 0
M  V30 25861 N 2441.82 -0.15856 -1.568 0
M  V30 25862 C 2442.75 0.807885 -2.1449 0
M  V30 25863 C 2443.77 1.20269 -1.09723 0
M  V30 25864 O 2444.96 1.14476 -1.36958 0
M  V30 25865 C 2442.06 2.09713 -2.66221 0
M  V30 25866 C 2441.23 1.86789 -3.95511 0
M  V30 25867 C 2440.29 2.99811 -4.32435 0
M  V30 25868 O 2439.31 2.70999 -5.00548 0
M  V30 25869 N 2440.52 4.27279 -3.92955 0
M  V30 25870 H 2443.28 0.314764 -2.98042 0
M  V30 25871 H 2440.84 0.0246408 -1.61881 0
M  V30 25872 H 2442.83 2.84393 -2.87929 0
M  V30 25873 H 2441.4 2.50253 -1.87329 0
M  V30 25874 H 2440.62 0.960823 -3.82311 0
M  V30 25875 H 2441.91 1.68824 -4.79975 0
M  V30 25876 H 2441.31 4.53551 -3.38095 0
M  V30 25877 H 2439.87 4.98702 -4.1969 0
M  V30 25878 N 2443.3 1.57178 0.115204 0
M  V30 25879 C 2444.55 1.85052 0.822319 0
M  V30 25880 C 2444.87 0.744199 1.797 0
M  V30 25881 O 2444.13 -0.264106 1.9391 0
M  V30 25882 C 2444.43 3.19426 1.60319 0
M  V30 25883 C 2444.09 4.44234 0.772458 0
M  V30 25884 C 2442.76 4.78122 0.543384 0
M  V30 25885 C 2445.11 5.2084 0.193654 0
M  V30 25886 C 2442.44 5.86057 -0.274686 0
M  V30 25887 C 2444.79 6.29636 -0.611628 0
M  V30 25888 C 2443.45 6.62053 -0.850983 0
M  V30 25889 H 2442.72 0.677153 0.300908 0
M  V30 25890 H 2445.37 1.91313 0.0845466 0
M  V30 25891 H 2443.67 3.08757 2.41197 0
M  V30 25892 H 2445.37 3.38215 2.15434 0
M  V30 25893 H 2441.96 4.17685 0.961096 0
M  V30 25894 H 2446.15 4.95008 0.357839 0
M  V30 25895 H 2441.4 6.09596 -0.469313 0
M  V30 25896 H 2445.58 6.88176 -1.06709 0
M  V30 25897 H 2443.2 7.45521 -1.4867 0
M  V30 25898 N 2444.78 -0.38549 1.52813 0
M  V30 25899 C 2445.71 -1.47749 1.80811 0
M  V30 25900 C 2446.69 -1.56759 0.660346 0
M  V30 25901 O 2447.87 -1.71651 0.908277 0
M  V30 25902 C 2445 -2.85321 1.98013 0
M  V30 25903 C 2443.96 -2.91148 3.13714 0
M  V30 25904 C 2443.28 -4.31204 3.16176 0
M  V30 25905 C 2444.58 -2.60475 4.52714 0
M  V30 25906 H 2446.28 -1.24568 2.72256 0
M  V30 25907 H 2443.82 -0.597816 1.31004 0
M  V30 25908 H 2445.78 -3.61722 2.16183 0
M  V30 25909 H 2444.5 -3.09846 1.03261 0
M  V30 25910 H 2443.16 -2.17195 2.95333 0
M  V30 25911 H 2442.81 -4.52774 2.191 0
M  V30 25912 H 2442.51 -4.36022 3.93901 0
M  V30 25913 H 2444.03 -5.09506 3.36505 0
M  V30 25914 H 2445.45 -3.26593 4.71179 0
M  V30 25915 H 2443.84 -2.76639 5.32533 0
M  V30 25916 H 2444.91 -1.55801 4.59188 0
M  V30 25917 N 2446.26 -1.43835 -0.644143 0
M  V30 25918 C 2447.19 -1.52512 -1.76812 0
M  V30 25919 C 2448.17 -0.379081 -1.65822 0
M  V30 25920 O 2449.35 -0.597498 -1.8478 0
M  V30 25921 C 2446.48 -1.45645 -3.15285 0
M  V30 25922 C 2445.44 -2.58592 -3.41049 0
M  V30 25923 C 2444.76 -2.36778 -4.79417 0
M  V30 25924 C 2446.06 -4.00803 -3.34895 0
M  V30 25925 H 2447.76 -2.46588 -1.69807 0
M  V30 25926 H 2445.3 -1.18681 -0.815521 0
M  V30 25927 H 2447.25 -1.50318 -3.93678 0
M  V30 25928 H 2445.98 -0.480781 -3.23042 0
M  V30 25929 H 2444.64 -2.53287 -2.65031 0
M  V30 25930 H 2444.29 -1.37433 -4.83861 0
M  V30 25931 H 2443.99 -3.12496 -4.97614 0
M  V30 25932 H 2445.51 -2.43248 -5.60056 0
M  V30 25933 H 2446.92 -4.07546 -4.03211 0
M  V30 25934 H 2445.32 -4.76619 -3.64628 0
M  V30 25935 H 2446.39 -4.25295 -2.32921 0
M  V30 25936 N 2447.73 0.883355 -1.30517 0
M  V30 25937 C 2448.98 1.63207 -1.19197 0
M  V30 25938 C 2449.3 1.9335 0.253171 0
M  V30 25939 O 2448.57 1.57107 1.17022 0
M  V30 25940 H 2447.15 0.605001 -0.438158 0
M  V30 25941 H 2449.81 1.05829 -1.63665 0
M  V30 25942 H 2448.91 2.5815 -1.754 0
M  V30 25943 N 2449.21 1.13259 1.09591 0
M  V30 25944 C 2450.62 0.906302 1.63227 0
M  V30 25945 C 2450.97 -0.557545 1.88111 0
M  V30 25946 O 2450.1 -1.42388 1.62956 0
M  V30 25947 C 2450.69 1.63872 2.96532 0
M  V30 25948 C 2449.25 1.45834 3.47001 0
M  V30 25949 C 2448.4 1.66902 2.21447 0
M  V30 25950 H 2451.35 1.28613 0.929757 0
M  V30 25951 H 2451.37 1.09482 3.64409 0
M  V30 25952 H 2450.88 2.70409 2.78389 0
M  V30 25953 H 2448.98 0.415913 3.70271 0
M  V30 25954 H 2449.1 2.22027 4.24548 0
M  V30 25955 H 2447.46 1.09375 2.3002 0
M  V30 25956 H 2448.24 2.74756 2.05826 0
M  V30 25957 N 2450.69 -1.27539 0.925834 0
M  V30 25958 C 2451.65 -2.25165 0.428168 0
M  V30 25959 C 2452.65 -1.5431 -0.452234 0
M  V30 25960 O 2453.84 -1.72344 -0.253578 0
M  V30 25961 C 2450.97 -3.38723 -0.384689 0
M  V30 25962 H 2452.17 -2.70704 1.29071 0
M  V30 25963 H 2449.72 -1.39429 0.706347 0
M  V30 25964 H 2450.46 -2.98563 -1.26613 0
M  V30 25965 H 2450.24 -3.91324 0.246523 0
M  V30 25966 H 2451.73 -4.11288 -0.723317 0
M  V30 25967 N 2452.17 -0.691135 -1.41637 0
M  V30 25968 C 2453.41 -0.220228 -2.01299 0
M  V30 25969 C 2453.74 1.17868 -1.54717 0
M  V30 25970 O 2453 1.80873 -0.747225 0
M  V30 25971 C 2453.3 -0.22134 -3.56714 0
M  V30 25972 C 2452.96 -1.56716 -4.22789 0
M  V30 25973 C 2451.62 -1.93561 -4.40554 0
M  V30 25974 C 2453.98 -2.45277 -4.59879 0
M  V30 25975 C 2451.3 -3.18561 -4.92682 0
M  V30 25976 C 2453.66 -3.69604 -5.13396 0
M  V30 25977 C 2452.32 -4.06598 -5.29372 0
M  V30 25978 H 2451.59 -0.0805873 -0.736605 0
M  V30 25979 H 2454.24 -0.889349 -1.69596 0
M  V30 25980 H 2452.54 0.531322 -3.88181 0
M  V30 25981 H 2454.24 0.160476 -4.00679 0
M  V30 25982 H 2450.83 -1.27057 -4.09334 0
M  V30 25983 H 2455.01 -2.18092 -4.45813 0
M  V30 25984 H 2450.27 -3.47223 -5.03236 0
M  V30 25985 H 2454.44 -4.38417 -5.41077 0
M  V30 25986 H 2452.07 -5.03529 -5.69528 0
M  V30 25987 N 2453.65 1.51461 -0.435577 0
M  V30 25988 C 2454.58 2.30592 0.367336 0
M  V30 25989 C 2455.56 1.3593 1.0226 0
M  V30 25990 O 2456.74 1.64848 1.02658 0
M  V30 25991 C 2453.87 3.14667 1.46977 0
M  V30 25992 C 2452.83 4.17593 0.938088 0
M  V30 25993 C 2452.15 4.90177 2.13614 0
M  V30 25994 C 2453.45 5.22293 -0.0262539 0
M  V30 25995 H 2455.15 2.97963 -0.293022 0
M  V30 25996 H 2452.69 1.43295 -0.142365 0
M  V30 25997 H 2454.64 3.68804 2.03867 0
M  V30 25998 H 2453.37 2.45114 2.15839 0
M  V30 25999 H 2452.03 3.64504 0.391417 0
M  V30 26000 H 2451.68 4.17129 2.81091 0
M  V30 26001 H 2451.38 5.59775 1.78678 0
M  V30 26002 H 2452.9 5.47137 2.7106 0
M  V30 26003 H 2454.31 5.71513 0.452284 0
M  V30 26004 H 2452.71 5.99408 -0.288097 0
M  V30 26005 H 2453.78 4.75232 -0.963474 0
M  V30 26006 N 2455.12 0.166873 1.56714 0
M  V30 26007 C 2456.37 -0.479927 1.97039 0
M  V30 26008 C 2456.7 -1.63195 1.05267 0
M  V30 26009 O 2455.98 -1.94248 0.0989175 0
M  V30 26010 C 2456.26 -0.967151 3.46869 0
M  V30 26011 C 2456.11 0.184739 4.4942 0
M  V30 26012 C 2457.43 -1.84231 3.99683 0
M  V30 26013 H 2454.55 -0.172979 0.716413 0
M  V30 26014 H 2457.19 0.252112 1.8832 0
M  V30 26015 H 2455.34 -1.59095 3.54431 0
M  V30 26016 H 2457.02 0.821701 4.53923 0
M  V30 26017 H 2455.26 0.840912 4.25572 0
M  V30 26018 H 2455.93 -0.19822 5.51644 0
M  V30 26019 H 2458.41 -1.31648 3.94725 0
M  V30 26020 H 2457.28 -2.15226 5.04945 0
M  V30 26021 H 2457.54 -2.78648 3.43231 0
M  V30 26022 N 2456.6 -1.57237 -0.106866 0
M  V30 26023 C 2457.83 -1.90057 -0.830254 0
M  V30 26024 C 2458.25 -0.76001 -1.72062 0
M  V30 26025 O 2457.61 0.288959 -1.78982 0
M  V30 26026 C 2457.66 -3.21685 -1.62944 0
M  V30 26027 O 2456.76 -3.08446 -2.73743 0
M  V30 26028 H 2456.1 -0.623319 -0.228844 0
M  V30 26029 H 2458.63 -2.04421 -0.0856221 0
M  V30 26030 H 2458.64 -3.54705 -2.01615 0
M  V30 26031 H 2457.32 -4.04288 -0.975918 0
M  V30 26032 H 2455.9 -2.86917 -2.38186 0
M  V30 26033 N 2458.08 0.377381 -1.53015 0
M  V30 26034 C 2459.49 0.95477 -1.6044 0
M  V30 26035 C 2459.84 1.90623 -0.464451 0
M  V30 26036 O 2458.97 2.12464 0.410833 0
M  V30 26037 C 2459.56 1.73842 -2.908 0
M  V30 26038 C 2458.12 2.26533 -3.00599 0
M  V30 26039 C 2457.27 1.07425 -2.55647 0
M  V30 26040 H 2460.22 0.156548 -1.57926 0
M  V30 26041 H 2460.24 2.59865 -2.77939 0
M  V30 26042 H 2459.75 1.04567 -3.73748 0
M  V30 26043 H 2457.85 2.99085 -2.22214 0
M  V30 26044 H 2457.97 2.55223 -4.0546 0
M  V30 26045 H 2456.33 1.43773 -2.10241 0
M  V30 26046 H 2457.11 0.396669 -3.41001 0
M  V30 26047 N 2459.56 1.44175 0.636506 0
M  V30 26048 C 2460.8 1.46892 1.39823 0
M  V30 26049 C 2461.14 0.0990926 1.93947 0
M  V30 26050 O 2460.41 -0.882514 1.73326 0
M  V30 26051 C 2460.7 2.52494 2.56746 0
M  V30 26052 C 2460.55 3.98815 2.08007 0
M  V30 26053 C 2461.87 2.54655 3.58941 0
M  V30 26054 H 2458.99 0.534839 0.507066 0
M  V30 26055 H 2461.63 1.75823 0.720157 0
M  V30 26056 H 2459.78 2.27955 3.14593 0
M  V30 26057 H 2461.45 4.34468 1.55032 0
M  V30 26058 H 2459.69 4.10848 1.39235 0
M  V30 26059 H 2460.36 4.68344 2.92161 0
M  V30 26060 H 2462.84 2.76568 3.10885 0
M  V30 26061 H 2461.72 3.30457 4.3828 0
M  V30 26062 H 2461.98 1.58653 4.12652 0
M  V30 26063 N 2461.04 -0.876421 1.30983 0
M  V30 26064 C 2461.97 -1.99901 1.20672 0
M  V30 26065 C 2462.95 -1.69832 0.0953838 0
M  V30 26066 O 2464.13 -1.92187 0.278884 0
M  V30 26067 C 2461.26 -3.35258 0.906609 0
M  V30 26068 C 2460.22 -3.79613 1.97681 0
M  V30 26069 C 2459.54 -5.12357 1.52952 0
M  V30 26070 C 2460.84 -3.97416 3.38907 0
M  V30 26071 H 2462.54 -2.08786 2.1459 0
M  V30 26072 H 2460.08 -1.00315 1.0331 0
M  V30 26073 H 2462.04 -4.13323 0.821098 0
M  V30 26074 H 2460.76 -3.26529 -0.0682395 0
M  V30 26075 H 2459.42 -3.03783 2.05211 0
M  V30 26076 H 2459.07 -5.00064 0.542707 0
M  V30 26077 H 2458.77 -5.43005 2.24542 0
M  V30 26078 H 2460.29 -5.92938 1.45796 0
M  V30 26079 H 2461.7 -4.65894 3.34089 0
M  V30 26080 H 2460.1 -4.39453 4.08658 0
M  V30 26081 H 2461.17 -3.00999 3.80168 0
M  V30 26082 N 2462.51 -1.13839 -1.08989 0
M  V30 26083 C 2463.42 -0.833371 -2.19299 0
M  V30 26084 C 2464.44 0.183816 -1.73026 0
M  V30 26085 O 2465.62 0.0137738 -2.01395 0
M  V30 26086 C 2462.68 -0.308711 -3.45323 0
M  V30 26087 C 2461.74 -1.38771 -4.06253 0
M  V30 26088 C 2460.98 -0.887989 -5.26261 0
M  V30 26089 O 2461.2 0.27277 -5.69747 0
M  V30 26090 O 2460.13 -1.66432 -5.78432 0
M  V30 26091 H 2463.96 -1.7551 -2.47851 0
M  V30 26092 H 2461.54 -0.916186 -1.1801 0
M  V30 26093 H 2463.43 -0.0217479 -4.21394 0
M  V30 26094 H 2462.1 0.585375 -3.18363 0
M  V30 26095 H 2461.01 -1.72805 -3.31797 0
M  V30 26096 H 2462.34 -2.2561 -4.37448 0
M  V30 26097 N 2463.99 1.27046 -0.932584 0
M  V30 26098 C 2465.41 1.46486 -0.63357 0
M  V30 26099 C 2465.61 1.84251 0.815714 0
M  V30 26100 O 2464.66 1.95895 1.59316 0
M  V30 26101 C 2465.98 2.55372 -1.58763 0
M  V30 26102 C 2467.53 2.69229 -1.59639 0
M  V30 26103 C 2468 3.81278 -2.53753 0
M  V30 26104 N 2469.49 3.88659 -2.51989 0
M  V30 26105 C 2470.23 4.74791 -3.21499 0
M  V30 26106 N 2469.72 5.65374 -4.00405 0
M  V30 26107 N 2471.52 4.68562 -3.10493 0
M  V30 26108 H 2463.67 1.00818 -1.86948 0
M  V30 26109 H 2465.93 0.50403 -0.802906 0
M  V30 26110 H 2465.64 2.34428 -2.62177 0
M  V30 26111 H 2465.51 3.52858 -1.33307 0
M  V30 26112 H 2467.9 2.89552 -0.569539 0
M  V30 26113 H 2467.98 1.72214 -1.89145 0
M  V30 26114 H 2467.62 3.61709 -3.56551 0
M  V30 26115 H 2467.55 4.77731 -2.21541 0
M  V30 26116 H 2470.04 3.23891 -1.94686 0
M  V30 26117 H 2470.36 6.27968 -4.50417 0
M  V30 26118 H 2468.7 5.65154 -4.04508 0
M  V30 26119 H 2471.89 3.96795 -2.48338 0
M  V30 26120 H 2472.06 5.35469 -3.64934 0
M  V30 26121 N 2465.47 0.698636 1.41269 0
M  V30 26122 C 2466.42 0.0238959 2.32588 0
M  V30 26123 C 2467.41 -0.765265 1.51129 0
M  V30 26124 O 2468.62 -0.670542 1.67044 0
M  V30 26125 H 2464.99 -0.0110739 0.751918 0
M  V30 26126 H 2466.96 0.811082 2.87166 0
M  V30 26127 C 2465.71 -0.89631 3.35949 0
M  V30 26128 H 2465.04 -0.298478 3.98684 0
M  V30 26129 H 2466.48 -1.33669 4.02379 0
M  V30 26130 C 2464.94 -2.01391 2.7008 0
M  V30 26131 O 2465.47 -3.10302 2.55099 0
M  V30 26132 N 2463.67 -1.79255 2.28727 0
M  V30 26133 H 2463.22 -0.906799 2.41112 0
M  V30 26134 H 2463.18 -2.54216 1.84991 0
M  V30 26135 N 2466.95 -1.51228 0.443603 0
M  V30 26136 C 2467.91 -2.26464 -0.353092 0
M  V30 26137 C 2468.91 -1.30151 -0.944315 0
M  V30 26138 O 2470.1 -1.53811 -0.817786 0
M  V30 26139 C 2467.23 -3.06117 -1.50018 0
M  V30 26140 H 2468.43 -2.98331 0.306352 0
M  V30 26141 H 2465.98 -1.55054 0.196929 0
M  V30 26142 H 2466.71 -2.38681 -2.19549 0
M  V30 26143 H 2466.5 -3.76866 -1.08235 0
M  V30 26144 H 2467.99 -3.6309 -2.06289 0
M  V30 26145 N 2468.43 -0.175182 -1.56623 0
M  V30 26146 C 2469.84 0.180938 -1.58571 0
M  V30 26147 C 2470.04 1.62558 -1.19068 0
M  V30 26148 O 2469.1 2.3576 -0.904086 0
M  V30 26149 C 2470.41 -0.103379 -3.00522 0
M  V30 26150 C 2471.96 -0.0418976 -3.12972 0
M  V30 26151 C 2472.43 -0.299255 -4.57021 0
M  V30 26152 N 2473.93 -0.247167 -4.6254 0
M  V30 26153 C 2474.66 -0.420419 -5.71857 0
M  V30 26154 N 2474.16 -0.652937 -6.89716 0
M  V30 26155 N 2475.95 -0.356055 -5.60971 0
M  V30 26156 H 2468.1 -1.11812 -1.80588 0
M  V30 26157 H 2470.36 -0.444803 -0.83717 0
M  V30 26158 H 2470.07 -1.10428 -3.33914 0
M  V30 26159 H 2469.94 0.603234 -3.72345 0
M  V30 26160 H 2472.33 0.949587 -2.79404 0
M  V30 26161 H 2472.41 -0.781281 -2.43577 0
M  V30 26162 H 2472.06 -1.28797 -4.91298 0
M  V30 26163 H 2471.99 0.460784 -5.2458 0
M  V30 26164 H 2474.48 -0.0732559 -3.77829 0
M  V30 26165 H 2474.79 -0.774482 -7.68909 0
M  V30 26166 H 2473.13 -0.689598 -6.9157 0
M  V30 26167 H 2476.33 -0.174964 -4.67773 0
M  V30 26168 H 2476.5 -0.494501 -6.4611 0
M  V30 26169 N 2469.91 1.57292 0.0985263 0
M  V30 26170 C 2470.85 2.02823 1.13866 0
M  V30 26171 C 2471.85 0.928691 1.41675 0
M  V30 26172 O 2473.05 1.11387 1.41396 0
M  V30 26173 H 2469.43 0.646324 0.384408 0
M  V30 26174 H 2471.4 2.89376 0.728296 0
M  V30 26175 C 2470.15 2.46558 2.45162 0
M  V30 26176 H 2469.47 3.30744 2.24607 0
M  V30 26177 H 2470.91 2.82196 3.16451 0
M  V30 26178 C 2469.37 1.33747 3.09214 0
M  V30 26179 O 2469.9 0.66471 3.96162 0
M  V30 26180 N 2468.11 1.08932 2.69411 0
M  V30 26181 H 2467.65 1.63821 1.98798 0
M  V30 26182 H 2467.61 0.336513 3.12594 0
M  V30 26183 N 2471.38 -0.369261 1.53213 0
M  V30 26184 C 2472.63 -1.11394 1.69468 0
M  V30 26185 C 2472.96 -1.89073 0.44329 0
M  V30 26186 O 2472.24 -1.86283 -0.559354 0
M  V30 26187 C 2472.52 -2.07616 2.94224 0
M  V30 26188 C 2472.37 -1.3357 4.2951 0
M  V30 26189 C 2473.69 -3.07788 3.1457 0
M  V30 26190 H 2470.81 -0.403586 0.616674 0
M  V30 26191 H 2473.45 -0.395147 1.85846 0
M  V30 26192 H 2471.6 -2.68911 2.80391 0
M  V30 26193 H 2473.28 -0.750875 4.55148 0
M  V30 26194 H 2471.52 -0.637542 4.2909 0
M  V30 26195 H 2472.19 -2.0398 5.12929 0
M  V30 26196 H 2474.67 -2.56595 3.27564 0
M  V30 26197 H 2473.54 -3.72341 4.03303 0
M  V30 26198 H 2473.8 -3.77755 2.29682 0
M  V30 26199 N 2472.86 -1.4451 -0.628851 0
M  V30 26200 C 2474.09 -1.509 -1.41552 0
M  V30 26201 C 2474.5 -0.134597 -1.8832 0
M  V30 26202 O 2473.86 0.859936 -1.6097 0
M  V30 26203 C 2473.91 -2.47561 -2.63431 0
M  V30 26204 O 2473.63 -3.79658 -2.18612 0
M  V30 26205 C 2475.13 -2.63438 -3.56533 0
M  V30 26206 H 2472.35 -0.511717 -0.434035 0
M  V30 26207 H 2474.9 -1.89496 -0.768861 0
M  V30 26208 H 2473.05 -2.12094 -3.24183 0
M  V30 26209 H 2473.47 -4.31866 -2.97644 0
M  V30 26210 H 2474.94 -3.35095 -4.38651 0
M  V30 26211 H 2475.42 -1.68745 -4.0549 0
M  V30 26212 H 2476.02 -2.99815 -3.01647 0
M  V30 26213 N 2474.34 0.869463 -1.31446 0
M  V30 26214 C 2475.3 1.95828 -1.19097 0
M  V30 26215 C 2476.3 1.60367 -0.117934 0
M  V30 26216 O 2477.49 1.70285 -0.367238 0
M  V30 26217 C 2474.62 3.30686 -0.828223 0
M  V30 26218 H 2475.82 2.08208 -2.15846 0
M  V30 26219 H 2473.37 1.05782 -1.15065 0
M  V30 26220 H 2474.11 3.24006 0.138085 0
M  V30 26221 H 2473.89 3.57797 -1.60387 0
M  V30 26222 H 2475.38 4.1052 -0.76573 0
M  V30 26223 N 2475.82 1.14415 1.08383 0
M  V30 26224 C 2477.05 0.934676 1.84248 0
M  V30 26225 C 2477.46 -0.520202 1.81908 0
M  V30 26226 O 2476.8 -1.37224 1.22128 0
M  V30 26227 C 2476.86 1.35834 3.3285 0
M  V30 26228 C 2476.52 2.82881 3.58925 0
M  V30 26229 C 2477.52 3.80996 3.53749 0
M  V30 26230 C 2475.21 3.20299 3.86928 0
M  V30 26231 C 2477.2 5.14536 3.76207 0
M  V30 26232 C 2474.89 4.54016 4.09039 0
M  V30 26233 C 2475.89 5.50943 4.03672 0
M  V30 26234 O 2475.57 6.82245 4.25202 0
M  V30 26235 H 2475.31 0.332638 0.588496 0
M  V30 26236 H 2477.86 1.52326 1.37789 0
M  V30 26237 H 2476.09 0.713085 3.80068 0
M  V30 26238 H 2477.78 1.11964 3.90152 0
M  V30 26239 H 2478.54 3.53434 3.32129 0
M  V30 26240 H 2474.42 2.45448 3.90226 0
M  V30 26241 H 2477.97 5.90179 3.71933 0
M  V30 26242 H 2473.86 4.81297 4.30143 0
M  V30 26243 H 2474.63 6.88507 4.42606 0
M  V30 26244 N 2477.3 -1.26549 0.939309 0
M  V30 26245 C 2478.54 -1.93839 0.585881 0
M  V30 26246 C 2478.87 -1.73719 -0.874753 0
M  V30 26247 O 2478.13 -1.06645 -1.6409 0
M  V30 26248 C 2478.42 -3.46595 0.872167 0
M  V30 26249 C 2478.09 -3.86852 2.31638 0
M  V30 26250 C 2476.75 -3.97553 2.71118 0
M  V30 26251 C 2479.1 -4.07061 3.25501 0
M  V30 26252 C 2476.43 -4.25859 4.03561 0
M  V30 26253 C 2478.78 -4.36854 4.57538 0
M  V30 26254 C 2477.45 -4.4577 4.96836 0
M  V30 26255 H 2476.72 -0.709308 0.214389 0
M  V30 26256 H 2479.37 -1.50396 1.18546 0
M  V30 26257 H 2477.67 -3.91339 0.190029 0
M  V30 26258 H 2479.37 -3.9682 0.577512 0
M  V30 26259 H 2475.96 -3.79068 2.00014 0
M  V30 26260 H 2480.14 -3.98222 2.96197 0
M  V30 26261 H 2475.4 -4.30973 4.33673 0
M  V30 26262 H 2479.57 -4.51437 5.30262 0
M  V30 26263 H 2477.2 -4.67457 5.9949 0
M  V30 26264 N 2478.77 -0.706118 -1.40896 0
M  V30 26265 C 2480.18 -0.315085 -1.84022 0
M  V30 26266 C 2480.54 1.14863 -1.59062 0
M  V30 26267 O 2479.66 1.88292 -1.06655 0
M  V30 26268 C 2480.26 -0.565097 -3.34054 0
M  V30 26269 C 2478.81 -0.227872 -3.7571 0
M  V30 26270 C 2477.96 -0.842168 -2.64202 0
M  V30 26271 H 2480.91 -0.905986 -1.30298 0
M  V30 26272 H 2480.93 0.172776 -3.80108 0
M  V30 26273 H 2480.45 -1.63048 -3.52189 0
M  V30 26274 H 2478.55 0.832831 -3.63173 0
M  V30 26275 H 2478.66 -0.690257 -4.74102 0
M  V30 26276 H 2477.02 -0.270938 -2.53255 0
M  V30 26277 H 2477.81 -1.91163 -2.85152 0
M  V30 26278 N 2480.25 1.50991 -0.451617 0
M  V30 26279 C 2481.67 1.59256 -0.104675 0
M  V30 26280 C 2481.87 1.46142 1.38725 0
M  V30 26281 O 2480.92 1.30993 2.15863 0
M  V30 26282 C 2482.24 2.93864 -0.63752 0
M  V30 26283 C 2483.78 3.07211 -0.59922 0
M  V30 26284 C 2484.26 4.44364 -1.10928 0
M  V30 26285 N 2485.75 4.50723 -1.06786 0
M  V30 26286 C 2486.49 5.55199 -1.43324 0
M  V30 26287 N 2485.98 6.67025 -1.87216 0
M  V30 26288 N 2487.77 5.45635 -1.3505 0
M  V30 26289 H 2479.93 1.57759 -1.42217 0
M  V30 26290 H 2482.19 0.744454 -0.586934 0
M  V30 26291 H 2481.89 3.08876 -1.68192 0
M  V30 26292 H 2481.77 3.77135 -0.0702802 0
M  V30 26293 H 2484.16 2.91858 0.436226 0
M  V30 26294 H 2484.24 2.25745 -1.20303 0
M  V30 26295 H 2483.88 4.60464 -2.14326 0
M  V30 26296 H 2483.81 5.24391 -0.481865 0
M  V30 26297 H 2486.3 3.70469 -0.745708 0
M  V30 26298 H 2486.61 7.42782 -2.13295 0
M  V30 26299 H 2484.96 6.68195 -1.91154 0
M  V30 26300 H 2488.15 4.57159 -1.00615 0
M  V30 26301 H 2488.32 6.26942 -1.63852 0
M  V30 26302 N 2481.73 0.183486 1.56528 0
M  V30 26303 C 2482.69 -0.728185 2.17325 0
M  V30 26304 C 2483.69 -1.14937 1.12455 0
M  V30 26305 O 2484.88 -1.06434 1.37903 0
M  V30 26306 C 2482.01 -1.99269 2.76595 0
M  V30 26307 H 2483.21 -0.19872 2.99241 0
M  V30 26308 H 2480.76 -0.0661116 1.5616 0
M  V30 26309 H 2481.5 -2.56495 1.98446 0
M  V30 26310 H 2481.28 -1.69953 3.53353 0
M  V30 26311 H 2482.77 -2.64305 3.23315 0
M  V30 26312 N 2483.21 -1.57342 -0.0901833 0
M  V30 26313 C 2484.62 -1.53285 -0.44452 0
M  V30 26314 C 2484.82 -0.900945 -1.80237 0
M  V30 26315 O 2483.88 -0.495556 -2.47589 0
M  V30 26316 C 2485.19 -2.97994 -0.402491 0
M  V30 26317 C 2486.74 -3.09235 -0.483996 0
M  V30 26318 C 2487.22 -4.55561 -0.472064 0
M  V30 26319 N 2488.71 -4.60127 -0.532676 0
M  V30 26320 C 2489.44 -5.70801 -0.545362 0
M  V30 26321 N 2488.94 -6.90891 -0.51396 0
M  V30 26322 N 2490.73 -5.58989 -0.590542 0
M  V30 26323 H 2482.88 -1.96792 0.799156 0
M  V30 26324 H 2485.14 -0.899951 0.29798 0
M  V30 26325 H 2484.85 -3.47711 0.528167 0
M  V30 26326 H 2484.72 -3.56938 -1.21963 0
M  V30 26327 H 2487.11 -2.59503 -1.40507 0
M  V30 26328 H 2487.19 -2.53235 0.361373 0
M  V30 26329 H 2486.84 -5.05946 0.445089 0
M  V30 26330 H 2486.77 -5.09404 -1.33471 0
M  V30 26331 H 2489.26 -3.73699 -0.56194 0
M  V30 26332 H 2489.57 -7.71001 -0.527059 0
M  V30 26333 H 2487.92 -6.93334 -0.480932 0
M  V30 26334 H 2491.11 -4.64074 -0.612638 0
M  V30 26335 H 2491.28 -6.45244 -0.59696 0
M  V30 26336 N 2484.69 0.36113 -1.53407 0
M  V30 26337 C 2485.93 1.10137 -1.71001 0
M  V30 26338 C 2486.29 1.86858 -0.458458 0
M  V30 26339 O 2485.58 1.83578 0.548622 0
M  V30 26340 C 2485.77 2.08591 -2.90215 0
M  V30 26341 C 2485.6 1.41545 -4.26843 0
M  V30 26342 C 2484.37 1.1677 -4.91623 0
M  V30 26343 C 2486.57 0.850826 -5.07213 0
M  V30 26344 N 2484.55 0.461205 -6.12165 0
M  V30 26345 C 2485.92 0.273938 -6.19395 0
M  V30 26346 C 2487.98 0.749949 -4.9222 0
M  V30 26347 C 2486.68 -0.393994 -7.1822 0
M  V30 26348 C 2488.71 0.09579 -5.91322 0
M  V30 26349 C 2488.07 -0.470204 -7.02829 0
M  V30 26350 H 2484.17 0.388016 -0.678946 0
M  V30 26351 H 2486.75 0.387187 -1.90811 0
M  V30 26352 H 2484.92 2.77318 -2.71936 0
M  V30 26353 H 2486.66 2.75325 -2.96611 0
M  V30 26354 H 2483.41 1.45016 -4.50852 0
M  V30 26355 H 2483.84 0.123193 -6.76888 0
M  V30 26356 H 2488.48 1.1733 -4.06194 0
M  V30 26357 H 2486.2 -0.829281 -8.03834 0
M  V30 26358 H 2489.78 0.0186052 -5.81797 0
M  V30 26359 H 2488.66 -0.968378 -7.78198 0
M  V30 26360 N 2486.16 1.44842 0.621179 0
M  V30 26361 C 2487.39 1.51428 1.40545 0
M  V30 26362 C 2487.8 0.141116 1.88673 0
M  V30 26363 O 2487.15 -0.865099 1.62055 0
M  V30 26364 C 2487.21 2.4258 2.65321 0
M  V30 26365 C 2486.87 3.8957 2.38923 0
M  V30 26366 C 2487.87 4.79838 2.0013 0
M  V30 26367 C 2485.55 4.34365 2.52255 0
M  V30 26368 C 2487.55 6.12903 1.7501 0
M  V30 26369 C 2485.23 5.67475 2.2675 0
M  V30 26370 C 2486.23 6.56563 1.88187 0
M  V30 26371 O 2485.92 7.87207 1.62972 0
M  V30 26372 H 2485.65 0.515663 0.437113 0
M  V30 26373 H 2488.21 1.90584 0.765954 0
M  V30 26374 H 2486.44 1.9837 3.31943 0
M  V30 26375 H 2488.13 2.40004 3.27342 0
M  V30 26376 H 2488.89 4.46499 1.89378 0
M  V30 26377 H 2484.77 3.65274 2.8124 0
M  V30 26378 H 2488.31 6.82399 1.44836 0
M  V30 26379 H 2484.21 6.00372 2.37114 0
M  V30 26380 H 2484.98 7.99103 1.77136 0
M  V30 26381 N 2487.64 -0.862479 1.31905 0
M  V30 26382 C 2488.92 -1.59906 1.12647 0
M  V30 26383 C 2489.3 -2.0872 -0.316067 0
M  V30 26384 O 2488.65 -1.87121 -1.31142 0
M  V30 26385 C 2488.86 -2.75126 2.14724 0
M  V30 26386 C 2490.21 -3.44903 2.47644 0
M  V30 26387 O 2491.23 -2.85342 2.1321 0
M  V30 26388 O 2490.09 -4.52365 3.0664 0
M  V30 26389 H 2487.18 -0.703863 0.434172 0
M  V30 26390 H 2489.73 -0.907289 1.4341 0
M  V30 26391 H 2488.5 -2.36524 3.11724 0
M  V30 26392 H 2488.12 -3.51985 1.84911 0
M  V30 26393 N 2489.12 -1.14988 -1.07775 0
M  V30 26394 C 2490.35 -0.944434 -1.8375 0
M  V30 26395 C 2490.76 0.510548 -1.82181 0
M  V30 26396 O 2490.1 1.36574 -1.22854 0
M  V30 26397 C 2490.16 -1.37597 -3.32125 0
M  V30 26398 C 2489.83 -2.84781 -3.5742 0
M  V30 26399 C 2490.82 -3.82866 -3.51724 0
M  V30 26400 C 2488.51 -3.22347 -3.85224 0
M  V30 26401 C 2490.5 -5.16524 -3.73473 0
M  V30 26402 C 2488.19 -4.56178 -4.06626 0
M  V30 26403 C 2489.19 -5.53076 -4.00744 0
M  V30 26404 O 2488.88 -6.84491 -4.21578 0
M  V30 26405 H 2488.61 -0.335755 -0.586724 0
M  V30 26406 H 2491.16 -1.53055 -1.36979 0
M  V30 26407 H 2489.39 -0.733231 -3.79685 0
M  V30 26408 H 2491.08 -1.14031 -3.89553 0
M  V30 26409 H 2491.85 -3.5519 -3.3025 0
M  V30 26410 H 2487.73 -2.47514 -3.88918 0
M  V30 26411 H 2491.27 -5.92144 -3.68798 0
M  V30 26412 H 2487.17 -4.83572 -4.27585 0
M  V30 26413 H 2487.94 -6.90845 -4.38949 0
M  V30 26414 N 2490.6 1.26049 -0.946007 0
M  V30 26415 C 2491.83 1.97322 -0.61217 0
M  V30 26416 C 2492.24 1.70596 0.818141 0
M  V30 26417 O 2491.58 0.97364 1.55775 0
M  V30 26418 C 2491.64 3.50927 -0.780408 0
M  V30 26419 C 2491.31 4.01313 -2.18626 0
M  V30 26420 C 2492.3 4.12678 -3.16217 0
M  V30 26421 C 2489.99 4.35199 -2.50813 0
M  V30 26422 C 2491.98 4.57231 -4.44093 0
M  V30 26423 C 2489.67 4.79439 -3.78921 0
M  V30 26424 C 2490.67 4.90417 -4.75374 0
M  V30 26425 O 2490.35 5.3368 -6.012 0
M  V30 26426 H 2490.09 0.635978 -0.229145 0
M  V30 26427 H 2492.64 1.61401 -1.27039 0
M  V30 26428 H 2490.87 3.86645 -0.0650544 0
M  V30 26429 H 2492.56 4.0341 -0.448913 0
M  V30 26430 H 2493.33 3.86738 -2.92674 0
M  V30 26431 H 2489.2 4.25886 -1.7647 0
M  V30 26432 H 2492.75 4.65714 -5.19381 0
M  V30 26433 H 2488.65 5.04823 -4.02274 0
M  V30 26434 H 2489.41 5.51888 -6.04452 0
M  V30 26435 N 2492.08 0.71358 1.4052 0
M  V30 26436 C 2493.3 0.261811 2.05237 0
M  V30 26437 C 2493.72 -1.09564 1.53757 0
M  V30 26438 O 2493.08 -1.68818 0.693298 0
M  V30 26439 C 2493.13 0.230769 3.60763 0
M  V30 26440 O 2492.85 1.53462 4.10343 0
M  V30 26441 C 2494.35 -0.239796 4.42651 0
M  V30 26442 H 2491.57 0.118069 0.660531 0
M  V30 26443 H 2494.11 0.971224 1.79965 0
M  V30 26444 H 2492.27 -0.429593 3.85011 0
M  V30 26445 H 2492.68 1.43375 5.04523 0
M  V30 26446 H 2494.16 -0.210371 5.51599 0
M  V30 26447 H 2494.63 -1.28163 4.20084 0
M  V30 26448 H 2495.24 0.390216 4.23506 0
M  V30 26449 N 2493.55 -1.50749 0.459618 0
M  V30 26450 C 2494.8 -2.01857 -0.0991177 0
M  V30 26451 C 2495.12 -1.34443 -1.41245 0
M  V30 26452 O 2494.39 -0.486055 -1.89774 0
M  V30 26453 H 2492.97 -0.745949 -0.0396199 0
M  V30 26454 H 2495.64 -1.85193 0.60742 0
M  V30 26455 H 2494.73 -3.11024 -0.258943 0
M  V30 26456 N 2495.03 -0.191784 -1.56429 0
M  V30 26457 C 2496.28 0.448519 -1.97778 0
M  V30 26458 C 2496.61 1.61499 -1.0785 0
M  V30 26459 O 2495.89 1.94066 -0.129808 0
M  V30 26460 C 2496.17 0.911845 -3.48364 0
M  V30 26461 C 2496.02 -0.256215 -4.4907 0
M  V30 26462 C 2497.34 1.77849 -4.02564 0
M  V30 26463 H 2494.46 0.16156 -0.719074 0
M  V30 26464 H 2497.1 -0.28204 -1.87895 0
M  V30 26465 H 2495.25 1.53436 -3.56917 0
M  V30 26466 H 2496.92 -0.893812 -4.52558 0
M  V30 26467 H 2495.17 -0.90851 -4.2418 0
M  V30 26468 H 2495.84 0.110433 -5.5189 0
M  V30 26469 H 2498.31 1.25352 -3.9677 0
M  V30 26470 H 2497.19 2.07165 -5.08305 0
M  V30 26471 H 2497.45 2.73152 -3.47621 0
M  V30 26472 N 2496.51 1.57387 0.0818378 0
M  V30 26473 C 2497.79 1.77798 0.815312 0
M  V30 26474 C 2498.17 0.776825 1.96287 0
M  V30 26475 O 2497.52 -0.192066 2.27691 0
M  V30 26476 C 2497.73 3.23981 1.29759 0
M  V30 26477 C 2499.07 3.87533 1.73504 0
M  V30 26478 O 2500.1 3.27811 1.39351 0
M  V30 26479 O 2498.96 4.9258 2.367 0
M  V30 26480 H 2496.05 0.729319 0.389901 0
M  V30 26481 H 2498.6 1.69584 0.0626915 0
M  V30 26482 H 2497.37 3.88394 0.476012 0
M  V30 26483 H 2496.99 3.36879 2.11183 0
M  V30 26484 N 2497.99 -0.35299 1.53596 0
M  V30 26485 C 2499.24 -1.09165 1.69605 0
M  V30 26486 C 2499.55 -1.90091 0.460959 0
M  V30 26487 O 2500.76 -2.66822 0.501821 0
M  V30 26488 C 2499.21 -1.99005 2.99875 0
M  V30 26489 C 2498.82 -1.23331 4.30689 0
M  V30 26490 C 2500.56 -2.72786 3.25251 0
M  V30 26491 C 2498.47 -2.12146 5.5204 0
M  V30 26492 H 2497.4 -0.41125 0.631973 0
M  V30 26493 H 2500.05 -0.351771 1.80097 0
M  V30 26494 H 2498.43 -2.76775 2.83217 0
M  V30 26495 H 2499.61 -0.505376 4.5802 0
M  V30 26496 H 2497.92 -0.613591 4.11854 0
M  V30 26497 H 2500.52 -3.39487 4.13101 0
M  V30 26498 H 2500.86 -3.38841 2.41852 0
M  V30 26499 H 2501.4 -2.02094 3.42641 0
M  V30 26500 H 2498.14 -1.50648 6.37954 0
M  V30 26501 H 2497.66 -2.82755 5.28971 0
M  V30 26502 H 2499.33 -2.71417 5.87318 0
M  V30 26503 N 2499.47 -1.45169 -0.613489 0
M  V30 26504 C 2500.42 -1.53715 -1.74569 0
M  V30 26505 C 2501.41 -0.407534 -1.64425 0
M  V30 26506 O 2502.62 -0.583206 -1.7029 0
M  V30 26507 H 2498.99 -0.4827 -0.576632 0
M  V30 26508 H 2500.96 -2.48971 -1.64487 0
M  V30 26509 C 2499.71 -1.51537 -3.1294 0
M  V30 26510 H 2499.03 -2.37782 -3.21403 0
M  V30 26511 H 2500.47 -1.61576 -3.92007 0
M  V30 26512 C 2498.93 -0.238857 -3.36052 0
M  V30 26513 O 2499.46 0.68373 -3.95838 0
M  V30 26514 N 2497.67 -0.13641 -2.9028 0
M  V30 26515 H 2497.22 -0.888041 -2.41809 0
M  V30 26516 H 2497.17 0.71689 -3.06118 0
M  V30 26517 N 2500.95 0.855472 -1.32361 0
M  V30 26518 C 2501.91 1.94553 -1.21168 0
M  V30 26519 C 2502.91 1.60233 -0.134936 0
M  V30 26520 O 2504.1 1.69886 -0.385279 0
M  V30 26521 C 2501.23 3.29789 -0.86325 0
M  V30 26522 H 2502.42 2.05907 -2.18042 0
M  V30 26523 H 2499.98 1.04555 -1.1618 0
M  V30 26524 H 2500.71 3.24134 0.103712 0
M  V30 26525 H 2500.5 3.56075 -1.64173 0
M  V30 26526 H 2501.99 4.09684 -0.809228 0
M  V30 26527 N 2502.42 1.15558 1.07164 0
M  V30 26528 C 2503.84 0.898626 1.31897 0
M  V30 26529 C 2504.04 -0.453348 1.96334 0
M  V30 26530 O 2503.1 -1.19485 2.2244 0
M  V30 26531 C 2504.41 2.04103 2.20823 0
M  V30 26532 C 2505.96 2.07578 2.34266 0
M  V30 26533 C 2506.43 3.21147 3.26541 0
M  V30 26534 N 2507.92 3.20807 3.34122 0
M  V30 26535 C 2508.66 4.05322 4.05588 0
M  V30 26536 N 2508.15 4.99905 4.79652 0
M  V30 26537 N 2509.95 3.93339 4.01548 0
M  V30 26538 H 2502.1 2.02615 0.637267 0
M  V30 26539 H 2504.36 0.883597 0.343453 0
M  V30 26540 H 2504.07 3.01706 1.80739 0
M  V30 26541 H 2503.94 1.97502 3.21361 0
M  V30 26542 H 2506.33 1.10573 2.73601 0
M  V30 26543 H 2506.41 2.18246 1.33425 0
M  V30 26544 H 2506.05 4.18405 2.87923 0
M  V30 26545 H 2505.98 3.07715 4.27339 0
M  V30 26546 H 2508.47 2.52311 2.81331 0
M  V30 26547 H 2508.79 5.60831 5.31684 0
M  V30 26548 H 2507.13 5.03892 4.78662 0
M  V30 26549 H 2510.32 3.18757 3.428 0
M  V30 26550 H 2510.5 4.59428 4.56979 0
M  V30 26551 N 2503.9 -1.25546 0.952678 0
M  V30 26552 C 2505.15 -1.92825 0.605209 0
M  V30 26553 C 2505.47 -1.75 -0.860231 0
M  V30 26554 O 2504.74 -1.11247 -1.61248 0
M  V30 26555 H 2503.32 -0.713608 0.220844 0
M  V30 26556 H 2505.98 -1.52751 1.2105 0
M  V30 26557 H 2505.08 -3.00782 0.832851 0
M  V30 26558 N 2505.38 -0.721022 -1.40139 0
M  V30 26559 C 2506.29 -0.0731443 -2.34486 0
M  V30 26560 C 2507.31 0.737696 -1.57588 0
M  V30 26561 O 2508.48 0.669396 -1.8995 0
M  V30 26562 C 2505.55 0.833597 -3.36529 0
M  V30 26563 C 2504.61 0.0120918 -4.29298 0
M  V30 26564 C 2503.84 0.875649 -5.26468 0
M  V30 26565 O 2504.06 2.11476 -5.29749 0
M  V30 26566 O 2503 0.311745 -6.01092 0
M  V30 26567 H 2506.82 -0.851495 -2.91519 0
M  V30 26568 H 2504.41 -0.481552 -1.41426 0
M  V30 26569 H 2506.29 1.35282 -3.99095 0
M  V30 26570 H 2504.97 1.591 -2.81902 0
M  V30 26571 H 2503.87 -0.552327 -3.7 0
M  V30 26572 H 2505.21 -0.707214 -4.87093 0
M  V30 26573 N 2506.86 1.50503 -0.467606 0
M  V30 26574 C 2508.1 2.03239 0.0808512 0
M  V30 26575 C 2508.46 1.34355 1.37719 0
M  V30 26576 O 2507.75 0.459226 1.86015 0
M  V30 26577 C 2507.95 3.55929 0.323932 0
M  V30 26578 C 2507.77 4.39609 -0.947292 0
M  V30 26579 C 2506.54 4.82845 -1.48959 0
M  V30 26580 C 2508.74 4.80192 -1.84174 0
M  V30 26581 N 2506.72 5.50837 -2.7102 0
M  V30 26582 C 2508.1 5.47559 -2.90825 0
M  V30 26583 C 2510.15 4.62153 -1.85254 0
M  V30 26584 C 2508.85 5.98798 -3.98539 0
M  V30 26585 C 2510.88 5.1433 -2.91923 0
M  V30 26586 C 2510.24 5.81669 -3.97292 0
M  V30 26587 H 2506.34 0.781931 -0.0103531 0
M  V30 26588 H 2508.92 1.84053 -0.635036 0
M  V30 26589 H 2507.1 3.75069 1.00886 0
M  V30 26590 H 2508.83 3.95317 0.866423 0
M  V30 26591 H 2505.58 4.62057 -1.03926 0
M  V30 26592 H 2506.01 5.89442 -3.32998 0
M  V30 26593 H 2510.65 4.09526 -1.0511 0
M  V30 26594 H 2508.37 6.50464 -4.79503 0
M  V30 26595 H 2511.95 5.02205 -2.93738 0
M  V30 26596 H 2510.83 6.21316 -4.78473 0
M  V30 26597 N 2508.34 0.200077 1.56325 0
M  V30 26598 C 2509.28 -0.718795 2.19322 0
M  V30 26599 C 2510.25 -1.20613 1.142 0
M  V30 26600 O 2511.44 -1.26912 1.42471 0
M  V30 26601 C 2508.58 -1.93061 2.86044 0
M  V30 26602 C 2507.69 -1.48418 4.05705 0
M  V30 26603 C 2506.83 -2.65188 4.6027 0
M  V30 26604 C 2505.86 -2.17175 5.72277 0
M  V30 26605 N 2505 -3.27141 6.21227 0
M  V30 26606 H 2509.84 -0.174837 2.97487 0
M  V30 26607 H 2507.38 -0.0745536 1.46911 0
M  V30 26608 H 2509.34 -2.64179 3.22902 0
M  V30 26609 H 2507.97 -2.4478 2.10435 0
M  V30 26610 H 2507.02 -0.668689 3.74477 0
M  V30 26611 H 2508.33 -1.09196 4.86701 0
M  V30 26612 H 2507.48 -3.44421 4.99459 0
M  V30 26613 H 2506.22 -3.07687 3.78392 0
M  V30 26614 H 2505.23 -1.36398 5.32612 0
M  V30 26615 H 2506.45 -1.75701 6.55977 0
M  V30 26616 H 2504.4 -3.69161 5.42269 0
M  V30 26617 H 2504.32 -2.92104 6.97289 0
M  V30 26618 H 2505.58 -4.06573 6.6507 0
M  V30 26619 N 2509.81 -1.57429 -0.0734901 0
M  V30 26620 C 2511.04 -1.91391 -0.785936 0
M  V30 26621 C 2511.46 -0.795877 -1.71205 0
M  V30 26622 O 2510.81 0.230883 -1.81034 0
M  V30 26623 C 2510.86 -3.25094 -1.58101 0
M  V30 26624 O 2510.59 -4.32598 -0.692124 0
M  V30 26625 C 2512.09 -3.7306 -2.39461 0
M  V30 26626 H 2509.31 -0.632667 -0.223547 0
M  V30 26627 H 2511.85 -2.04452 -0.044266 0
M  V30 26628 H 2510.01 -3.13566 -2.27498 0
M  V30 26629 H 2510.42 -5.09511 -1.24496 0
M  V30 26630 H 2511.89 -4.69247 -2.90707 0
M  V30 26631 H 2512.37 -3.01984 -3.18908 0
M  V30 26632 H 2512.98 -3.87527 -1.75224 0
M  V30 26633 N 2511.29 0.344839 -1.53781 0
M  V30 26634 C 2512.22 1.42903 -1.84665 0
M  V30 26635 C 2513.2 1.54953 -0.701675 0
M  V30 26636 O 2514.39 1.69182 -0.953467 0
M  V30 26637 C 2511.52 2.79971 -2.05508 0
M  V30 26638 C 2510.47 2.82728 -3.21323 0
M  V30 26639 C 2509.8 4.22669 -3.27498 0
M  V30 26640 C 2511.1 2.48381 -4.59461 0
M  V30 26641 H 2512.79 1.17306 -2.75463 0
M  V30 26642 H 2510.34 0.562872 -1.32543 0
M  V30 26643 H 2512.29 3.55863 -2.25697 0
M  V30 26644 H 2511.01 3.07 -1.1144 0
M  V30 26645 H 2509.67 2.09289 -3.00988 0
M  V30 26646 H 2509.32 4.46806 -2.31027 0
M  V30 26647 H 2509.02 4.25426 -4.05323 0
M  V30 26648 H 2510.55 5.00405 -3.49895 0
M  V30 26649 H 2511.96 3.13986 -4.79672 0
M  V30 26650 H 2510.36 2.62422 -5.3968 0
M  V30 26651 H 2511.43 1.43572 -4.63158 0
M  V30 26652 N 2512.77 1.45492 0.605781 0
M  V30 26653 C 2514.18 1.44047 1.18775 0
M  V30 26654 C 2514.53 0.169035 1.9547 0
M  V30 26655 O 2513.66 -0.729288 2.03741 0
M  V30 26656 C 2514.25 2.60967 2.1606 0
M  V30 26657 C 2512.81 2.62636 2.69628 0
M  V30 26658 C 2511.96 2.36327 1.45068 0
M  V30 26659 H 2514.91 1.53706 0.39499 0
M  V30 26660 H 2514.93 2.35168 2.99125 0
M  V30 26661 H 2514.44 3.53488 1.60211 0
M  V30 26662 H 2512.54 1.74125 3.29411 0
M  V30 26663 H 2512.66 3.61911 3.13938 0
M  V30 26664 H 2511.02 1.8592 1.74085 0
M  V30 26665 H 2511.8 3.30996 0.910841 0
M  V30 26666 N 2514.25 -0.848441 1.32813 0
M  V30 26667 C 2515.21 -1.93908 1.22198 0
M  V30 26668 C 2516.21 -1.60159 0.143432 0
M  V30 26669 O 2517.4 -1.69679 0.394283 0
M  V30 26670 C 2514.53 -3.29327 0.880728 0
M  V30 26671 H 2515.73 -2.04748 2.19131 0
M  V30 26672 H 2513.28 -1.03938 1.16733 0
M  V30 26673 H 2514.01 -3.24185 -0.0865206 0
M  V30 26674 H 2513.8 -3.552 1.66059 0
M  V30 26675 H 2515.29 -4.09249 0.830943 0
M  V30 26676 N 2515.73 -1.16125 -1.06549 0
M  V30 26677 C 2517.14 -0.94926 -1.60767 0
M  V30 26678 C 2517.49 0.507474 -1.89523 0
M  V30 26679 O 2516.61 1.38018 -1.66673 0
M  V30 26680 C 2517.21 -1.71676 -2.92083 0
M  V30 26681 C 2515.77 -1.54983 -3.43012 0
M  V30 26682 C 2514.91 -1.72715 -2.16944 0
M  V30 26683 H 2517.87 -1.31033 -0.895331 0
M  V30 26684 H 2517.89 -1.19105 -3.61378 0
M  V30 26685 H 2517.4 -2.77695 -2.71122 0
M  V30 26686 H 2515.5 -0.513938 -3.69039 0
M  V30 26687 H 2515.61 -2.33206 -4.18512 0
M  V30 26688 H 2513.98 -1.15435 -2.27039 0
M  V30 26689 H 2514.76 -2.80116 -1.98468 0
M  V30 26690 N 2517.2 1.25039 -0.959323 0
M  V30 26691 C 2518.13 2.28053 -0.501429 0
M  V30 26692 C 2519.12 1.63912 0.454644 0
M  V30 26693 O 2520.3 1.90972 0.352584 0
M  V30 26694 C 2517.43 3.4662 0.217163 0
M  V30 26695 C 2516.38 4.22972 -0.654108 0
M  V30 26696 C 2515.71 5.34343 0.195495 0
M  V30 26697 C 2517.01 4.85152 -1.93455 0
M  V30 26698 H 2518.7 2.66605 -1.36242 0
M  V30 26699 H 2516.25 1.28161 -0.656556 0
M  V30 26700 H 2518.2 4.17813 0.548659 0
M  V30 26701 H 2516.93 3.0707 1.11244 0
M  V30 26702 H 2515.59 3.53569 -0.968755 0
M  V30 26703 H 2515.23 4.91033 1.09067 0
M  V30 26704 H 2514.93 5.86343 -0.384194 0
M  V30 26705 H 2516.46 6.08366 0.521851 0
M  V30 26706 H 2517.87 5.48463 -1.66917 0
M  V30 26707 H 2516.27 5.47348 -2.46028 0
M  V30 26708 H 2517.34 4.07075 -2.63474 0
M  V30 26709 N 2518.68 0.728444 1.39755 0
M  V30 26710 C 2519.96 0.200113 1.94574 0
M  V30 26711 C 2520.34 -1.29681 1.66571 0
M  V30 26712 O 2519.69 -2.05923 0.990362 0
M  V30 26713 C 2519.9 0.526669 3.45003 0
M  V30 26714 C 2521.25 0.472392 4.21964 0
M  V30 26715 O 2522.27 0.463475 3.53172 0
M  V30 26716 O 2521.13 0.46117 5.44551 0
M  V30 26717 H 2518.22 0.0342996 0.826288 0
M  V30 26718 H 2520.77 0.806855 1.49291 0
M  V30 26719 H 2519.54 1.5615 3.58793 0
M  V30 26720 H 2519.16 -0.109379 3.9745 0
M  V30 26721 N 2520.16 -1.50253 0.475581 0
M  V30 26722 C 2521.11 -2.25526 -0.334985 0
M  V30 26723 C 2522.09 -1.29301 -0.957603 0
M  V30 26724 O 2523.29 -1.54176 -0.869409 0
M  V30 26725 C 2520.42 -3.12836 -1.4138 0
M  V30 26726 C 2519.5 -4.16511 -0.798689 0
M  V30 26727 N 2519.89 -5.05731 0.0836704 0
M  V30 26728 C 2518.19 -4.33168 -1.06213 0
M  V30 26729 C 2518.89 -5.80085 0.433215 0
M  V30 26730 N 2517.87 -5.43258 -0.192704 0
M  V30 26731 H 2521.67 -2.91872 0.344664 0
M  V30 26732 H 2519.18 -1.59789 0.290014 0
M  V30 26733 H 2521.18 -3.65372 -2.00771 0
M  V30 26734 H 2519.84 -2.48039 -2.09539 0
M  V30 26735 H 2520.85 -5.15917 0.452806 0
M  V30 26736 H 2517.53 -3.79588 -1.73837 0
M  V30 26737 H 2518.92 -6.61923 1.15357 0
M  V30 26738 N 2521.64 -0.208365 -1.56217 0
M  V30 26739 C 2522.89 0.42717 -1.97125 0
M  V30 26740 C 2523.2 1.61833 -1.09861 0
M  V30 26741 O 2524.41 2.32252 -1.4061 0
M  V30 26742 C 2522.86 0.81138 -3.50635 0
M  V30 26743 C 2522.47 -0.356228 -4.46581 0
M  V30 26744 C 2524.21 1.41325 -4.00284 0
M  V30 26745 C 2522.12 0.0496813 -5.91379 0
M  V30 26746 H 2521.05 0.163368 -0.736089 0
M  V30 26747 H 2523.7 -0.302488 -1.8099 0
M  V30 26748 H 2522.08 1.59808 -3.62322 0
M  V30 26749 H 2523.26 -1.13378 -4.46634 0
M  V30 26750 H 2521.57 -0.870467 -4.072 0
M  V30 26751 H 2524.17 1.72963 -5.05953 0
M  V30 26752 H 2524.51 2.32443 -3.45364 0
M  V30 26753 H 2525.05 0.690255 -3.91766 0
M  V30 26754 H 2521.79 -0.827643 -6.50254 0
M  V30 26755 H 2521.31 0.791821 -5.9455 0
M  V30 26756 H 2522.98 0.480929 -6.4521 0
M  V30 26757 N 2523.12 1.57465 0.0651402 0
M  V30 26758 C 2524.06 2.05193 1.09538 0
M  V30 26759 C 2525.06 0.958533 1.39673 0
M  V30 26760 O 2526.26 1.14362 1.39001 0
M  V30 26761 H 2522.64 0.654333 0.370612 0
M  V30 26762 H 2524.61 2.90856 0.666751 0
M  V30 26763 C 2523.36 2.51703 2.39877 0
M  V30 26764 H 2522.68 3.35434 2.17541 0
M  V30 26765 H 2524.12 2.88845 3.10394 0
M  V30 26766 C 2522.58 1.40276 3.06307 0
M  V30 26767 O 2523.11 0.748592 3.94663 0
M  V30 26768 N 2521.32 1.14623 2.67039 0
M  V30 26769 H 2520.86 1.68001 1.95278 0
M  V30 26770 H 2520.82 0.402743 3.1181 0
M  V30 26771 N 2524.59 -0.336679 1.53962 0
M  V30 26772 C 2525.52 -1.41921 1.8542 0
M  V30 26773 C 2526.51 -1.54579 0.709883 0
M  V30 26774 O 2527.69 -1.68674 0.962426 0
M  V30 26775 C 2524.82 -2.78877 2.0699 0
M  V30 26776 C 2523.77 -2.8102 3.22818 0
M  V30 26777 C 2523.1 -4.20927 3.29735 0
M  V30 26778 C 2524.4 -2.45941 4.60772 0
M  V30 26779 H 2526.09 -1.15844 2.76081 0
M  V30 26780 H 2523.64 -0.555835 1.3284 0
M  V30 26781 H 2525.59 -3.54661 2.27581 0
M  V30 26782 H 2524.32 -3.06404 1.13066 0
M  V30 26783 H 2522.98 -2.0769 3.02094 0
M  V30 26784 H 2522.62 -4.45574 2.33393 0
M  V30 26785 H 2522.32 -4.2327 4.07574 0
M  V30 26786 H 2523.85 -4.98543 3.52544 0
M  V30 26787 H 2525.26 -3.11438 4.81331 0
M  V30 26788 H 2523.66 -2.59556 5.41064 0
M  V30 26789 H 2524.73 -1.41113 4.63913 0
M  V30 26790 N 2526.07 -1.45812 -0.598057 0
M  V30 26791 C 2527.02 -1.51632 -1.7027 0
M  V30 26792 C 2528.01 -0.378656 -1.56381 0
M  V30 26793 O 2529.2 -0.626116 -1.65556 0
M  V30 26794 C 2526.33 -1.49498 -3.09039 0
M  V30 26795 C 2525.41 -2.68502 -3.2828 0
M  V30 26796 N 2525.8 -3.93541 -3.17741 0
M  V30 26797 C 2524.1 -2.64401 -3.59177 0
M  V30 26798 C 2524.8 -4.73016 -3.38571 0
M  V30 26799 N 2523.78 -4.0463 -3.63009 0
M  V30 26800 H 2527.58 -2.46121 -1.60629 0
M  V30 26801 H 2525.1 -1.41237 -0.801617 0
M  V30 26802 H 2527.09 -1.51754 -3.88299 0
M  V30 26803 H 2525.75 -0.560739 -3.19822 0
M  V30 26804 H 2526.76 -4.2502 -2.95937 0
M  V30 26805 H 2523.44 -1.79929 -3.76738 0
M  V30 26806 H 2524.83 -5.82006 -3.35736 0
M  V30 26807 N 2527.55 0.841385 -1.33261 0
M  V30 26808 C 2528.8 1.59884 -1.2476 0
M  V30 26809 C 2529.13 1.93299 0.186879 0
M  V30 26810 O 2528.4 1.58482 1.12755 0
M  V30 26811 C 2528.69 2.91051 -2.12041 0
M  V30 26812 C 2528.54 2.64334 -3.63934 0
M  V30 26813 C 2529.86 3.92455 -1.99166 0
M  V30 26814 H 2526.98 0.58013 -0.454553 0
M  V30 26815 H 2529.62 0.970619 -1.63337 0
M  V30 26816 H 2527.77 3.44666 -1.79271 0
M  V30 26817 H 2529.44 2.17171 -4.06982 0
M  V30 26818 H 2527.69 1.98075 -3.85939 0
M  V30 26819 H 2528.36 3.57788 -4.20347 0
M  V30 26820 H 2530.83 3.48139 -2.27901 0
M  V30 26821 H 2529.71 4.82068 -2.62492 0
M  V30 26822 H 2529.97 4.31481 -0.963158 0
M  V30 26823 N 2529.03 1.16688 1.05932 0
M  V30 26824 C 2530.45 0.912565 1.30937 0
M  V30 26825 C 2530.65 -0.432499 1.96804 0
M  V30 26826 O 2529.7 -1.17119 2.23695 0
M  V30 26827 C 2531.01 2.06433 2.18645 0
M  V30 26828 C 2532.56 2.10051 2.32051 0
M  V30 26829 C 2533.04 3.24592 3.23116 0
M  V30 26830 N 2534.53 3.24333 3.307 0
M  V30 26831 C 2535.26 4.09601 4.01266 0
M  V30 26832 N 2534.76 5.04965 4.74323 0
M  V30 26833 N 2536.55 3.97576 3.97354 0
M  V30 26834 H 2528.7 2.03279 0.615741 0
M  V30 26835 H 2530.97 0.88719 0.334062 0
M  V30 26836 H 2530.67 3.03606 1.77529 0
M  V30 26837 H 2530.55 2.00899 3.19248 0
M  V30 26838 H 2532.93 1.13469 2.72413 0
M  V30 26839 H 2533.01 2.19649 1.31103 0
M  V30 26840 H 2532.66 4.21435 2.83469 0
M  V30 26841 H 2532.59 3.1223 4.24052 0
M  V30 26842 H 2535.08 2.55281 2.78639 0
M  V30 26843 H 2535.39 5.66439 5.25706 0
M  V30 26844 H 2533.74 5.08941 4.73291 0
M  V30 26845 H 2536.93 3.22375 3.394 0
M  V30 26846 H 2537.1 4.64249 4.5208 0
M  V30 26847 N 2530.51 -1.24529 0.96594 0
M  V30 26848 C 2531.76 -1.92173 0.625627 0
M  V30 26849 C 2532.08 -1.75903 -0.841621 0
M  V30 26850 O 2531.35 -1.12951 -1.60059 0
M  V30 26851 H 2529.93 -0.711226 0.228401 0
M  V30 26852 H 2532.59 -1.51459 1.22663 0
M  V30 26853 H 2531.68 -2.99882 0.864706 0
M  V30 26854 N 2531.99 -0.735845 -1.39367 0
M  V30 26855 C 2533.23 -0.283597 -2.001 0
M  V30 26856 C 2533.55 1.13335 -1.58682 0
M  V30 26857 O 2532.82 1.77192 -0.835454 0
M  V30 26858 H 2531.4 -0.101864 -0.740022 0
M  V30 26859 H 2534.07 -0.945992 -1.70402 0
M  V30 26860 H 2533.16 -0.332658 -3.10322 0
M  V30 26861 N 2533.46 1.49999 -0.483543 0
M  V30 26862 C 2534.69 2.065 0.0643533 0
M  V30 26863 C 2535.1 1.34617 1.32947 0
M  V30 26864 O 2534.44 0.412787 1.79002 0
M  V30 26865 C 2534.51 3.57201 0.40592 0
M  V30 26866 C 2534.17 4.50654 -0.758954 0
M  V30 26867 C 2535.17 4.93205 -1.64454 0
M  V30 26868 C 2532.85 4.9318 -0.952812 0
M  V30 26869 C 2534.85 5.77002 -2.70828 0
M  V30 26870 C 2532.53 5.76757 -2.01976 0
M  V30 26871 C 2533.53 6.18571 -2.89585 0
M  V30 26872 O 2533.22 7.00479 -3.94441 0
M  V30 26873 H 2532.95 0.675935 -0.00935974 0
M  V30 26874 H 2535.51 1.93992 -0.674994 0
M  V30 26875 H 2533.74 3.67655 1.19863 0
M  V30 26876 H 2535.42 3.96014 0.890364 0
M  V30 26877 H 2536.19 4.61009 -1.50651 0
M  V30 26878 H 2532.07 4.60147 -0.280328 0
M  V30 26879 H 2535.61 6.09559 -3.3924 0
M  V30 26880 H 2531.51 6.08366 -2.15781 0
M  V30 26881 H 2532.28 7.18754 -3.91581 0
M  V30 26882 N 2534.94 0.216646 1.56104 0
M  V30 26883 C 2536.19 -0.41671 1.97348 0
M  V30 26884 C 2536.5 -1.61248 1.10718 0
M  V30 26885 O 2537.71 -2.31503 1.4184 0
M  V30 26886 C 2536.17 -0.792773 3.5106 0
M  V30 26887 C 2535.77 0.379907 4.46386 0
M  V30 26888 C 2537.52 -1.39201 4.01028 0
M  V30 26889 C 2535.42 -0.0183183 5.91397 0
M  V30 26890 H 2534.35 -0.159462 0.736945 0
M  V30 26891 H 2537.01 0.312082 1.80827 0
M  V30 26892 H 2535.39 -1.57885 3.63164 0
M  V30 26893 H 2536.56 1.15745 4.46027 0
M  V30 26894 H 2534.88 0.89205 4.06733 0
M  V30 26895 H 2537.47 -1.70277 5.06863 0
M  V30 26896 H 2537.82 -2.30608 3.46591 0
M  V30 26897 H 2538.35 -0.669469 3.92126 0
M  V30 26898 H 2535.09 0.862116 6.49806 0
M  V30 26899 H 2534.61 -0.76028 5.94962 0
M  V30 26900 H 2536.29 -0.446705 6.45456 0
M  V30 26901 N 2536.42 -1.57498 -0.0567885 0
M  V30 26902 C 2537.35 -2.07752 -1.06589 0
M  V30 26903 C 2538.33 -0.974106 -1.39446 0
M  V30 26904 O 2539.52 -1.24773 -1.48813 0
M  V30 26905 C 2536.65 -2.53394 -2.37505 0
M  V30 26906 C 2535.6 -3.67749 -2.18963 0
M  V30 26907 C 2534.93 -3.99498 -3.55395 0
M  V30 26908 C 2536.23 -4.97238 -1.5985 0
M  V30 26909 H 2537.92 -2.92311 -0.647655 0
M  V30 26910 H 2535.47 -1.40622 -0.310091 0
M  V30 26911 H 2537.42 -2.87167 -3.08404 0
M  V30 26912 H 2536.14 -1.65883 -2.81337 0
M  V30 26913 H 2534.8 -3.34282 -1.50502 0
M  V30 26914 H 2534.45 -3.09095 -3.96824 0
M  V30 26915 H 2534.15 -4.76508 -3.43823 0
M  V30 26916 H 2535.67 -4.3578 -4.27701 0
M  V30 26917 H 2537.09 -5.29145 -2.20632 0
M  V30 26918 H 2535.48 -5.78671 -1.58932 0
M  V30 26919 H 2536.55 -4.81639 -0.561421 0
M  V30 26920 N 2537.9 0.328509 -1.54138 0
M  V30 26921 C 2539.31 0.903244 -1.63396 0
M  V30 26922 C 2539.66 1.89049 -0.524861 0
M  V30 26923 O 2538.78 2.13664 0.343031 0
M  V30 26924 C 2539.38 1.64502 -2.96183 0
M  V30 26925 C 2537.94 2.16855 -3.07654 0
M  V30 26926 C 2537.09 0.992371 -2.58935 0
M  V30 26927 H 2540.04 0.106225 -1.58344 0
M  V30 26928 H 2540.06 2.50892 -2.86066 0
M  V30 26929 H 2539.57 0.926236 -3.76885 0
M  V30 26930 H 2537.67 2.91864 -2.31616 0
M  V30 26931 H 2537.78 2.42195 -4.13375 0
M  V30 26932 H 2536.15 1.37012 -2.14709 0
M  V30 26933 H 2536.93 0.287981 -3.4209 0
M  V30 26934 N 2539.38 1.46127 0.590316 0
M  V30 26935 C 2540.62 1.52254 1.34871 0
M  V30 26936 C 2540.98 0.16884 1.91658 0
M  V30 26937 O 2540.27 -0.821526 1.73094 0
M  V30 26938 C 2540.46 2.55102 2.50315 0
M  V30 26939 C 2540.29 4.0034 2.04836 0
M  V30 26940 C 2539.06 4.68135 1.90205 0
M  V30 26941 C 2541.26 4.88365 1.61258 0
M  V30 26942 N 2539.24 5.98022 1.38717 0
M  V30 26943 C 2540.61 6.08017 1.21308 0
M  V30 26944 C 2542.67 4.7508 1.49007 0
M  V30 26945 C 2541.37 7.15854 0.703274 0
M  V30 26946 C 2543.4 5.82982 0.994298 0
M  V30 26947 C 2542.76 7.01801 0.604536 0
M  V30 26948 H 2538.86 0.612011 0.486792 0
M  V30 26949 H 2541.44 1.827 0.672975 0
M  V30 26950 H 2539.61 2.2658 3.15462 0
M  V30 26951 H 2541.35 2.51271 3.17246 0
M  V30 26952 H 2538.1 4.23541 2.11919 0
M  V30 26953 H 2538.52 6.67134 1.15156 0
M  V30 26954 H 2543.17 3.83615 1.77761 0
M  V30 26955 H 2540.88 8.07093 0.403304 0
M  V30 26956 H 2544.47 5.74741 0.90352 0
M  V30 26957 H 2543.35 7.83872 0.226825 0
M  V30 26958 N 2540.85 -0.834306 1.33705 0
M  V30 26959 C 2541.79 -1.95168 1.20176 0
M  V30 26960 C 2542.8 -1.62267 0.131601 0
M  V30 26961 O 2543.99 -1.74355 0.382437 0
M  V30 26962 C 2541.09 -3.28786 0.821774 0
M  V30 26963 C 2540.26 -3.89789 1.98453 0
M  V30 26964 C 2539.32 -5.01768 1.58478 0
M  V30 26965 O 2538.35 -5.20672 2.29977 0
M  V30 26966 N 2539.55 -5.78408 0.492392 0
M  V30 26967 H 2542.31 -2.07309 2.16432 0
M  V30 26968 H 2539.87 -1.01028 1.2651 0
M  V30 26969 H 2541.87 -4.0113 0.536361 0
M  V30 26970 H 2540.44 -3.1256 -0.0502509 0
M  V30 26971 H 2539.66 -3.09978 2.43531 0
M  V30 26972 H 2540.94 -4.27278 2.76244 0
M  V30 26973 H 2540.34 -5.65608 -0.102249 0
M  V30 26974 H 2538.9 -6.51254 0.266669 0
M  V30 26975 N 2542.33 -1.17248 -1.05312 0
M  V30 26976 C 2543.24 -0.902718 -2.16537 0
M  V30 26977 C 2544.26 0.128676 -1.73524 0
M  V30 26978 O 2545.43 -0.0503055 -2.01337 0
M  V30 26979 C 2542.5 -0.418417 -3.44166 0
M  V30 26980 C 2541.56 -1.51625 -4.01632 0
M  V30 26981 C 2540.79 -1.05497 -5.23169 0
M  V30 26982 O 2541.02 0.0913713 -5.70327 0
M  V30 26983 O 2539.95 -1.8475 -5.72845 0
M  V30 26984 H 2543.78 -1.83306 -2.42141 0
M  V30 26985 H 2541.36 -0.953267 -1.15036 0
M  V30 26986 H 2543.24 -0.1558 -4.21112 0
M  V30 26987 H 2541.92 0.483794 -3.20064 0
M  V30 26988 H 2540.82 -1.83273 -3.26131 0
M  V30 26989 H 2542.16 -2.39413 -4.30049 0
M  V30 26990 N 2543.81 1.24015 -0.972531 0
M  V30 26991 C 2545.22 1.74063 -0.6752 0
M  V30 26992 C 2545.57 1.78749 0.808908 0
M  V30 26993 O 2544.7 1.42012 1.63284 0
M  V30 26994 C 2545.29 3.16112 -1.21895 0
M  V30 26995 C 2543.85 3.63649 -0.971422 0
M  V30 26996 C 2543 2.42142 -1.35138 0
M  V30 26997 H 2545.95 1.09649 -1.14729 0
M  V30 26998 H 2545.97 3.75936 -0.587555 0
M  V30 26999 H 2545.48 3.1267 -2.29911 0
M  V30 27000 H 2543.58 3.72484 0.0930031 0
M  V30 27001 H 2543.7 4.50863 -1.62047 0
M  V30 27002 H 2542.06 2.42789 -0.769794 0
M  V30 27003 H 2542.84 2.41377 -2.44115 0
M  V30 27004 N 2545.29 0.743226 1.38974 0
M  V30 27005 C 2546.25 0.117055 2.28901 0
M  V30 27006 C 2547.25 -0.658477 1.46699 0
M  V30 27007 O 2548.44 -0.486276 1.67275 0
M  V30 27008 C 2545.57 -0.843092 3.3031 0
M  V30 27009 H 2546.77 0.909423 2.85779 0
M  V30 27010 H 2544.32 0.509573 1.4776 0
M  V30 27011 H 2545.05 -1.66152 2.78503 0
M  V30 27012 H 2544.84 -0.289525 3.9103 0
M  V30 27013 H 2546.33 -1.27753 3.97579 0
M  V30 27014 N 2546.77 -1.4974 0.491491 0
M  V30 27015 C 2547.7 -2.31797 -0.2815 0
M  V30 27016 C 2548.68 -1.39631 -0.971448 0
M  V30 27017 O 2549.86 -1.68545 -0.964689 0
M  V30 27018 C 2546.99 -3.19905 -1.35197 0
M  V30 27019 C 2545.95 -4.20787 -0.782455 0
M  V30 27020 C 2545.27 -4.97767 -1.95274 0
M  V30 27021 C 2546.57 -5.21836 0.220082 0
M  V30 27022 H 2548.27 -2.9667 0.403407 0
M  V30 27023 H 2545.81 -1.42667 0.19545 0
M  V30 27024 H 2547.77 -3.76116 -1.90038 0
M  V30 27025 H 2546.49 -2.52956 -2.06593 0
M  V30 27026 H 2545.15 -3.65706 -0.255864 0
M  V30 27027 H 2544.8 -4.27274 -2.65416 0
M  V30 27028 H 2544.5 -5.66021 -1.57779 0
M  V30 27029 H 2546.02 -5.5682 -2.50567 0
M  V30 27030 H 2547.43 -5.72798 -0.239859 0
M  V30 27031 H 2545.83 -5.97926 0.510365 0
M  V30 27032 H 2546.9 -4.71328 1.13919 0
M  V30 27033 N 2548.24 -0.224922 -1.55987 0
M  V30 27034 C 2549.19 0.700244 -2.21809 0
M  V30 27035 C 2550.19 1.19712 -1.19856 0
M  V30 27036 O 2551.39 1.15655 -1.37927 0
M  V30 27037 H 2547.77 0.244245 -0.71123 0
M  V30 27038 H 2549.74 0.121696 -2.98152 0
M  V30 27039 C 2548.49 1.89615 -2.91447 0
M  V30 27040 H 2547.81 1.52293 -3.69658 0
M  V30 27041 H 2549.25 2.52119 -3.40899 0
M  V30 27042 C 2547.71 2.75365 -1.94103 0
M  V30 27043 O 2548.24 3.74224 -1.4601 0
M  V30 27044 N 2546.45 2.41471 -1.61679 0
M  V30 27045 H 2545.99 1.61133 -2.00982 0
M  V30 27046 H 2545.95 2.99124 -0.968089 0
M  V30 27047 N 2549.72 1.57526 0.0484352 0
M  V30 27048 C 2550.95 1.92618 0.755387 0
M  V30 27049 C 2551.37 0.823014 1.69917 0
M  V30 27050 O 2550.72 -0.202053 1.81378 0
M  V30 27051 C 2550.77 3.27568 1.52909 0
M  V30 27052 O 2550.49 4.33645 0.623213 0
M  V30 27053 C 2552 3.76822 2.33495 0
M  V30 27054 H 2549.22 0.636144 0.213453 0
M  V30 27055 H 2551.76 2.04497 0.0117339 0
M  V30 27056 H 2549.91 3.17145 2.2248 0
M  V30 27057 H 2550.33 5.11427 1.16374 0
M  V30 27058 H 2551.8 4.73813 2.83205 0
M  V30 27059 H 2552.28 3.0702 3.14063 0
M  V30 27060 H 2552.89 3.90265 1.69036 0
M  V30 27061 N 2551.2 -0.32033 1.5431 0
M  V30 27062 C 2552.15 -1.39553 1.80302 0
M  V30 27063 C 2553.13 -1.46777 0.659192 0
M  V30 27064 O 2554.33 -1.51255 0.919287 0
M  V30 27065 C 2551.46 -2.76358 2.0367 0
M  V30 27066 C 2550.54 -2.73434 3.24183 0
M  V30 27067 N 2550.93 -2.40129 4.45165 0
M  V30 27068 C 2549.23 -3.04559 3.25822 0
M  V30 27069 C 2549.93 -2.46021 5.27113 0
M  V30 27070 N 2548.91 -2.82593 4.64373 0
M  V30 27071 H 2552.71 -1.12737 2.71418 0
M  V30 27072 H 2550.22 -0.528829 1.53549 0
M  V30 27073 H 2552.22 -3.53858 2.20431 0
M  V30 27074 H 2550.88 -3.04101 1.1381 0
M  V30 27075 H 2551.89 -2.12919 4.72108 0
M  V30 27076 H 2548.57 -3.37323 2.46007 0
M  V30 27077 H 2549.96 -2.23235 6.33732 0
M  V30 27078 N 2552.68 -1.46438 -0.582558 0
M  V30 27079 C 2553.61 -1.59874 -1.70184 0
M  V30 27080 C 2554.59 -0.449071 -1.64065 0
M  V30 27081 O 2555.77 -0.675332 -1.82079 0
M  V30 27082 C 2552.9 -1.58886 -3.08824 0
M  V30 27083 C 2551.86 -2.72824 -3.29774 0
M  V30 27084 C 2551.18 -2.56898 -4.68943 0
M  V30 27085 C 2552.48 -4.14646 -3.17594 0
M  V30 27086 H 2554.18 -2.53569 -1.59196 0
M  V30 27087 H 2551.72 -1.22033 -0.764451 0
M  V30 27088 H 2553.68 -1.6688 -3.86948 0
M  V30 27089 H 2552.4 -0.617362 -3.20712 0
M  V30 27090 H 2551.06 -2.643 -2.54049 0
M  V30 27091 H 2550.71 -1.57831 -4.77596 0
M  V30 27092 H 2550.41 -3.3332 -4.83913 0
M  V30 27093 H 2551.93 -2.66783 -5.49235 0
M  V30 27094 H 2553.35 -4.24281 -3.85563 0
M  V30 27095 H 2551.74 -4.91656 -3.44085 0
M  V30 27096 H 2552.81 -4.34791 -2.14673 0
M  V30 27097 N 2554.16 0.827204 -1.34146 0
M  V30 27098 C 2555.38 1.62019 -1.29479 0
M  V30 27099 C 2555.81 1.87655 0.129259 0
M  V30 27100 O 2555.16 1.44902 1.08964 0
M  V30 27101 C 2555.21 2.94064 -2.08707 0
M  V30 27102 O 2554.32 3.85931 -1.45366 0
M  V30 27103 H 2553.66 0.492919 -0.444889 0
M  V30 27104 H 2556.19 1.02826 -1.76884 0
M  V30 27105 H 2556.2 3.43666 -2.19904 0
M  V30 27106 H 2554.87 2.74728 -3.12245 0
M  V30 27107 H 2553.45 3.44439 -1.42885 0
M  V30 27108 N 2555.63 1.17805 1.04688 0
M  V30 27109 C 2557.05 0.926402 1.29961 0
M  V30 27110 C 2557.25 -0.411601 1.97251 0
M  V30 27111 O 2556.31 -1.1474 2.24924 0
M  V30 27112 C 2557.62 2.08741 2.16444 0
M  V30 27113 C 2559.17 2.125 2.2981 0
M  V30 27114 C 2559.64 3.28001 3.19655 0
M  V30 27115 N 2561.13 3.27822 3.27242 0
M  V30 27116 C 2561.87 4.13834 3.96899 0
M  V30 27117 N 2561.36 5.09967 4.68941 0
M  V30 27118 N 2563.16 4.01768 3.93115 0
M  V30 27119 H 2555.31 2.03921 0.594146 0
M  V30 27120 H 2557.57 0.890684 0.324633 0
M  V30 27121 H 2557.28 3.05472 1.74299 0
M  V30 27122 H 2557.15 2.04274 3.17099 0
M  V30 27123 H 2559.54 1.16352 2.71194 0
M  V30 27124 H 2559.62 2.21027 1.28766 0
M  V30 27125 H 2559.26 4.24418 2.78984 0
M  V30 27126 H 2559.19 3.1671 4.20716 0
M  V30 27127 H 2561.68 2.58222 2.75916 0
M  V30 27128 H 2562 5.71983 5.19669 0
M  V30 27129 H 2560.34 5.13932 4.67866 0
M  V30 27130 H 2563.53 3.25956 3.35962 0
M  V30 27131 H 2563.71 4.69018 4.47131 0
M  V30 27132 N 2557.11 -1.23497 0.979094 0
M  V30 27133 C 2558.04 -2.24196 0.476311 0
M  V30 27134 C 2559.06 -1.57259 -0.421138 0
M  V30 27135 O 2560.25 -1.7707 -0.225484 0
M  V30 27136 C 2557.35 -3.37285 -0.330444 0
M  V30 27137 C 2556.52 -4.33803 0.55982 0
M  V30 27138 C 2555.58 -5.25846 -0.192861 0
M  V30 27139 O 2554.6 -5.6767 0.417078 0
M  V30 27140 N 2555.81 -5.61337 -1.47922 0
M  V30 27141 H 2558.57 -2.67967 1.34216 0
M  V30 27142 H 2556.13 -1.37655 0.852213 0
M  V30 27143 H 2558.12 -3.95838 -0.842291 0
M  V30 27144 H 2556.69 -2.92709 -1.09729 0
M  V30 27145 H 2555.91 -3.73772 1.25251 0
M  V30 27146 H 2557.2 -4.95246 1.16659 0
M  V30 27147 H 2556.6 -5.29305 -1.99631 0
M  V30 27148 H 2555.16 -6.22368 -1.93653 0
M  V30 27149 N 2558.59 -0.750586 -1.38578 0
M  V30 27150 C 2559.54 -0.120876 -2.30483 0
M  V30 27151 C 2560.51 0.712896 -1.50023 0
M  V30 27152 O 2561.69 0.669645 -1.78663 0
M  V30 27153 C 2558.83 0.768606 -3.36432 0
M  V30 27154 C 2557.95 -0.0794681 -4.31927 0
M  V30 27155 C 2557.08 0.812737 -5.24946 0
M  V30 27156 C 2556.12 -0.0391523 -6.12087 0
M  V30 27157 N 2555.26 0.809846 -6.97414 0
M  V30 27158 H 2560.1 -0.9102 -2.83759 0
M  V30 27159 H 2557.63 -0.460488 -1.39707 0
M  V30 27160 H 2559.59 1.29891 -3.96464 0
M  V30 27161 H 2558.22 1.52375 -2.84573 0
M  V30 27162 H 2557.27 -0.727369 -3.73381 0
M  V30 27163 H 2558.59 -0.737488 -4.93318 0
M  V30 27164 H 2557.74 1.41032 -5.9008 0
M  V30 27165 H 2556.48 1.5045 -4.63914 0
M  V30 27166 H 2555.48 -0.649424 -5.45951 0
M  V30 27167 H 2556.71 -0.727928 -6.75187 0
M  V30 27168 H 2554.66 1.48661 -6.38933 0
M  V30 27169 H 2554.57 0.208657 -7.55712 0
M  V30 27170 H 2555.84 1.3925 -7.66961 0
M  V30 27171 N 2560.07 1.49477 -0.499425 0
M  V30 27172 C 2561.32 2.02449 0.0456543 0
M  V30 27173 C 2561.64 1.37924 1.3714 0
M  V30 27174 O 2560.9 0.503578 1.8911 0
M  V30 27175 C 2561.2 3.56536 0.248362 0
M  V30 27176 C 2560.86 4.3969 -0.999185 0
M  V30 27177 C 2559.53 4.62132 -1.34116 0
M  V30 27178 C 2561.88 4.88073 -1.8285 0
M  V30 27179 C 2559.21 5.30203 -2.512 0
M  V30 27180 C 2561.56 5.57432 -2.99086 0
M  V30 27181 C 2560.22 5.78121 -3.33666 0
M  V30 27182 H 2559.49 0.740812 0.0167061 0
M  V30 27183 H 2562.14 1.79794 -0.659262 0
M  V30 27184 H 2560.44 3.77861 1.03579 0
M  V30 27185 H 2562.14 3.95114 0.684535 0
M  V30 27186 H 2558.73 4.22461 -0.722804 0
M  V30 27187 H 2562.92 4.70564 -1.57745 0
M  V30 27188 H 2558.17 5.44424 -2.78231 0
M  V30 27189 H 2562.35 5.93897 -3.63674 0
M  V30 27190 H 2559.97 6.30642 -4.24494 0
M  V30 27191 N 2561.55 0.233191 1.55865 0
M  V30 27192 C 2562.48 -0.712404 2.16795 0
M  V30 27193 C 2563.46 -1.18271 1.11582 0
M  V30 27194 O 2564.64 -1.26334 1.39899 0
M  V30 27195 C 2561.77 -1.96656 2.75761 0
M  V30 27196 C 2560.82 -1.63526 3.93905 0
M  V30 27197 S 2561.65 -0.749856 5.30224 0
M  V30 27198 C 2562.8 -2.01332 5.92635 0
M  V30 27199 H 2563.04 -0.194565 2.96663 0
M  V30 27200 H 2560.57 0.0177696 1.5439 0
M  V30 27201 H 2562.53 -2.68663 3.10372 0
M  V30 27202 H 2561.19 -2.45552 1.95864 0
M  V30 27203 H 2560.38 -2.56739 4.33706 0
M  V30 27204 H 2559.98 -0.99574 3.60501 0
M  V30 27205 H 2562.28 -2.96208 6.09317 0
M  V30 27206 H 2563.22 -1.65903 6.88391 0
M  V30 27207 H 2563.63 -2.15916 5.21575 0
M  V30 27208 N 2563.03 -1.57549 -0.0400806 0
M  V30 27209 C 2564.27 -1.88392 -0.731644 0
M  V30 27210 C 2564.59 -0.829456 -1.7648 0
M  V30 27211 O 2563.86 0.138265 -1.95411 0
M  V30 27212 H 2562.44 -0.695244 -0.273213 0
M  V30 27213 H 2565.11 -1.94898 -0.00864299 0
M  V30 27214 H 2564.2 -2.86921 -1.22811 0
M  V30 27215 N 2564.5 0.312142 -1.54478 0
M  V30 27216 C 2565.75 1.04872 -1.73229 0
M  V30 27217 C 2566.08 1.87638 -0.512075 0
M  V30 27218 O 2565.33 1.89043 0.506098 0
M  V30 27219 C 2565.63 1.99253 -2.96704 0
M  V30 27220 C 2565.3 1.32551 -4.30977 0
M  V30 27221 C 2563.96 1.14092 -4.67479 0
M  V30 27222 C 2566.31 0.847744 -5.14259 0
M  V30 27223 C 2563.64 0.465223 -5.84853 0
M  V30 27224 C 2565.99 0.18582 -6.32327 0
M  V30 27225 C 2564.66 -0.0108251 -6.67499 0
M  V30 27226 H 2563.93 0.383754 -0.633888 0
M  V30 27227 H 2566.57 0.324698 -1.88727 0
M  V30 27228 H 2564.88 2.78145 -2.7594 0
M  V30 27229 H 2566.58 2.56295 -3.08406 0
M  V30 27230 H 2563.17 1.47923 -4.02264 0
M  V30 27231 H 2567.35 0.978106 -4.86566 0
M  V30 27232 H 2562.61 0.301776 -6.10655 0
M  V30 27233 H 2566.78 -0.192333 -6.96134 0
M  V30 27234 H 2564.41 -0.53642 -7.58305 0
M  V30 27235 N 2565.98 1.46745 0.574784 0
M  V30 27236 C 2566.93 1.57908 1.68326 0
M  V30 27237 C 2567.9 0.422955 1.60625 0
M  V30 27238 O 2569.08 0.640742 1.7972 0
M  V30 27239 C 2566.22 1.5828 3.06662 0
M  V30 27240 C 2565.34 2.84683 3.2493 0
M  V30 27241 C 2564.47 2.76507 4.53561 0
M  V30 27242 C 2563.51 3.97814 4.652 0
M  V30 27243 N 2562.65 3.87977 5.85165 0
M  V30 27244 H 2567.49 2.52589 1.58122 0
M  V30 27245 H 2565.02 1.25305 0.77053 0
M  V30 27246 H 2566.98 1.5648 3.86743 0
M  V30 27247 H 2565.61 0.671249 3.15744 0
M  V30 27248 H 2564.66 2.96428 2.384 0
M  V30 27249 H 2565.98 3.74566 3.29397 0
M  V30 27250 H 2565.13 2.72857 5.4188 0
M  V30 27251 H 2563.87 1.84278 4.51545 0
M  V30 27252 H 2562.87 4.01787 3.75296 0
M  V30 27253 H 2564.1 4.91148 4.68988 0
M  V30 27254 H 2562.05 2.9854 5.84132 0
M  V30 27255 H 2561.96 4.71521 5.90935 0
M  V30 27256 H 2563.23 3.88315 6.75893 0
M  V30 27257 N 2567.46 -0.820078 1.34583 0
M  V30 27258 C 2568.71 -1.57149 1.2644 0
M  V30 27259 C 2569.02 -1.94919 -0.163076 0
M  V30 27260 O 2570.23 -2.69013 -0.366675 0
M  V30 27261 C 2568.68 -2.83537 2.21663 0
M  V30 27262 C 2568.29 -2.53058 3.69683 0
M  V30 27263 C 2570.04 -3.61557 2.22434 0
M  V30 27264 C 2567.94 -3.75656 4.56767 0
M  V30 27265 H 2566.87 -0.589815 0.469718 0
M  V30 27266 H 2569.52 -0.902628 1.59765 0
M  V30 27267 H 2567.91 -3.52064 1.81293 0
M  V30 27268 H 2569.08 -1.92624 4.18608 0
M  V30 27269 H 2567.39 -1.88309 3.71387 0
M  V30 27270 H 2569.99 -4.52592 2.84718 0
M  V30 27271 H 2570.33 -3.97887 1.22441 0
M  V30 27272 H 2570.87 -2.99977 2.61264 0
M  V30 27273 H 2567.61 -3.44445 5.57708 0
M  V30 27274 H 2567.13 -4.35363 4.12576 0
M  V30 27275 H 2568.81 -4.43036 4.71517 0
M  V30 27276 N 2568.94 -1.18359 -1.04062 0
M  V30 27277 C 2569.9 -0.912744 -2.10242 0
M  V30 27278 C 2570.9 0.1019 -1.60477 0
M  V30 27279 O 2572.09 -0.131547 -1.73703 0
M  V30 27280 C 2569.22 -0.369446 -3.38892 0
M  V30 27281 H 2570.42 -1.8543 -2.35702 0
M  V30 27282 H 2567.97 -0.995615 -1.20487 0
M  V30 27283 H 2568.7 0.57872 -3.19095 0
M  V30 27284 H 2568.49 -1.10086 -3.76329 0
M  V30 27285 H 2569.98 -0.198648 -4.17127 0
M  V30 27286 N 2570.42 1.22976 -0.98563 0
M  V30 27287 C 2571.35 2.26938 -0.549689 0
M  V30 27288 C 2572.33 1.64839 0.419774 0
M  V30 27289 O 2573.51 1.91677 0.311997 0
M  V30 27290 C 2570.64 3.47003 0.143591 0
M  V30 27291 C 2569.6 4.2149 -0.74368 0
M  V30 27292 C 2568.92 5.34637 0.0821087 0
M  V30 27293 C 2570.22 4.80939 -2.03703 0
M  V30 27294 H 2571.92 2.63655 -1.41867 0
M  V30 27295 H 2569.46 1.2674 -0.683594 0
M  V30 27296 H 2571.41 4.18883 0.459911 0
M  V30 27297 H 2570.14 3.09361 1.04706 0
M  V30 27298 H 2568.8 3.51434 -1.04353 0
M  V30 27299 H 2568.45 4.93236 0.986272 0
M  V30 27300 H 2568.15 5.85396 -0.50848 0
M  V30 27301 H 2569.67 6.09336 0.39269 0
M  V30 27302 H 2571.08 5.44799 -1.78513 0
M  V30 27303 H 2569.48 5.42007 -2.57583 0
M  V30 27304 H 2570.55 4.01394 -2.72049 0
M  V30 27305 N 2571.89 0.757924 1.38178 0
M  V30 27306 C 2573.17 0.24134 1.94105 0
M  V30 27307 C 2573.55 -1.26119 1.69285 0
M  V30 27308 O 2572.9 -2.03775 1.03382 0
M  V30 27309 C 2573.11 0.59973 3.43808 0
M  V30 27310 C 2574.46 0.561791 4.20867 0
M  V30 27311 O 2575.48 0.538284 3.52109 0
M  V30 27312 O 2574.34 0.576574 5.4345 0
M  V30 27313 H 2571.43 0.0518187 0.825375 0
M  V30 27314 H 2573.98 0.838341 1.47546 0
M  V30 27315 H 2572.75 1.63726 3.55401 0
M  V30 27316 H 2572.37 -0.0250498 3.97592 0
M  V30 27317 N 2573.37 -1.4921 0.507345 0
M  V30 27318 C 2574.65 -1.95353 -0.0982359 0
M  V30 27319 C 2575.03 -1.44903 -1.53513 0
M  V30 27320 O 2574.38 -0.665548 -2.18593 0
M  V30 27321 C 2574.59 -3.49 -0.00434148 0
M  V30 27322 C 2575.94 -4.24239 -0.175072 0
M  V30 27323 O 2576.96 -3.56112 -0.0792265 0
M  V30 27324 O 2575.82 -5.45228 -0.372664 0
M  V30 27325 H 2572.91 -0.821888 -0.0918091 0
M  V30 27326 H 2575.46 -1.59829 0.570335 0
M  V30 27327 H 2574.23 -3.78373 0.997468 0
M  V30 27328 H 2573.85 -3.91159 -0.712776 0
M  V30 27329 N 2574.85 -0.241454 -1.55739 0
M  V30 27330 C 2575.76 0.671266 -2.24791 0
M  V30 27331 C 2576.78 1.1977 -1.26219 0
M  V30 27332 O 2577.95 1.23512 -1.59081 0
M  V30 27333 C 2575.02 1.85391 -2.9297 0
M  V30 27334 C 2574.08 1.36749 -4.06938 0
M  V30 27335 C 2573.31 2.49376 -4.71855 0
M  V30 27336 O 2573.53 3.6798 -4.35829 0
M  V30 27337 O 2572.47 2.19444 -5.60471 0
M  V30 27338 H 2576.29 0.112913 -3.0349 0
M  V30 27339 H 2573.88 -0.0101776 -1.49397 0
M  V30 27340 H 2575.76 2.54417 -3.35931 0
M  V30 27341 H 2574.44 2.39998 -2.17215 0
M  V30 27342 H 2573.34 0.644661 -3.68504 0
M  V30 27343 H 2574.68 0.867561 -4.84494 0
M  V30 27344 N 2576.33 1.57568 0.0317248 0
M  V30 27345 C 2577.58 1.88777 0.721642 0
M  V30 27346 C 2577.9 0.838803 1.76037 0
M  V30 27347 O 2577.17 -0.1279 1.95482 0
M  V30 27348 H 2575.75 0.696683 0.269522 0
M  V30 27349 H 2578.41 1.949 -0.00169305 0
M  V30 27350 H 2577.51 2.87569 1.21288 0
M  V30 27351 N 2577.81 -0.303946 1.54641 0
M  V30 27352 C 2579.03 -1.05855 1.7777 0
M  V30 27353 C 2579.45 -1.81039 0.535754 0
M  V30 27354 O 2578.81 -1.75678 -0.494306 0
M  V30 27355 C 2578.86 -2.04141 2.98344 0
M  V30 27356 O 2578.58 -1.32008 4.17739 0
M  V30 27357 C 2580.08 -2.91663 3.33838 0
M  V30 27358 H 2577.3 -0.314057 0.592967 0
M  V30 27359 H 2579.84 -0.344113 2.01584 0
M  V30 27360 H 2578 -2.71091 2.76746 0
M  V30 27361 H 2578.41 -1.97989 4.85696 0
M  V30 27362 H 2579.89 -3.56483 4.21454 0
M  V30 27363 H 2580.36 -3.59808 2.51863 0
M  V30 27364 H 2580.97 -2.30248 3.57583 0
M  V30 27365 N 2579.28 -1.47047 -0.566994 0
M  V30 27366 C 2580.25 -1.58362 -1.65693 0
M  V30 27367 C 2581.25 -0.459469 -1.54096 0
M  V30 27368 O 2582.44 -0.724253 -1.5843 0
M  V30 27369 C 2579.57 -1.51885 -3.05195 0
M  V30 27370 H 2580.76 -2.55512 -1.57014 0
M  V30 27371 H 2578.32 -1.35092 -0.786125 0
M  V30 27372 H 2579.05 -0.560729 -3.19416 0
M  V30 27373 H 2578.84 -2.33461 -3.15021 0
M  V30 27374 H 2580.33 -1.6292 -3.84508 0
M  V30 27375 N 2580.76 0.812929 -1.35016 0
M  V30 27376 C 2582.01 1.56659 -1.27681 0
M  V30 27377 C 2582.33 1.9442 0.150324 0
M  V30 27378 O 2581.6 1.6309 1.08529 0
M  V30 27379 H 2580.18 0.580925 -0.469612 0
M  V30 27380 H 2582.84 0.970047 -1.69045 0
M  V30 27381 H 2581.94 2.48489 -1.88837 0
M  V30 27382 N 2582.24 1.18909 1.03433 0
M  V30 27383 C 2583.49 0.986413 1.76392 0
M  V30 27384 C 2583.81 -0.484534 1.88884 0
M  V30 27385 O 2583.08 -1.35117 1.41846 0
M  V30 27386 H 2581.66 0.361986 0.653433 0
M  V30 27387 H 2584.32 1.49705 1.24797 0
M  V30 27388 H 2583.42 1.42982 2.77421 0
M  V30 27389 N 2583.72 -1.22452 0.992137 0
M  V30 27390 C 2584.96 -1.9176 0.67821 0
M  V30 27391 C 2585.32 -1.75831 -0.78111 0
M  V30 27392 O 2584.61 -1.11598 -1.55745 0
M  V30 27393 C 2584.81 -3.42584 1.01839 0
M  V30 27394 C 2584.64 -3.73186 2.50922 0
M  V30 27395 C 2583.41 -3.93242 3.17315 0
M  V30 27396 C 2585.6 -3.77725 3.49039 0
M  V30 27397 N 2583.59 -4.11149 4.55883 0
M  V30 27398 C 2584.96 -4.00765 4.73062 0
M  V30 27399 C 2587.01 -3.60571 3.43355 0
M  V30 27400 C 2585.71 -4.0843 5.92096 0
M  V30 27401 C 2587.74 -3.69495 4.61766 0
M  V30 27402 C 2587.1 -3.92983 5.84589 0
M  V30 27403 H 2583.2 -0.7224 0.299437 0
M  V30 27404 H 2585.79 -1.47406 1.27199 0
M  V30 27405 H 2583.96 -3.85747 0.453186 0
M  V30 27406 H 2585.69 -3.99273 0.660524 0
M  V30 27407 H 2582.44 -3.90626 2.67785 0
M  V30 27408 H 2582.87 -4.24032 5.27755 0
M  V30 27409 H 2587.51 -3.41398 2.49414 0
M  V30 27410 H 2585.23 -4.26406 6.86442 0
M  V30 27411 H 2588.81 -3.57561 4.58957 0
M  V30 27412 H 2587.69 -3.99716 6.74683 0
M  V30 27413 N 2585.2 -0.765242 -1.37774 0
M  V30 27414 C 2586.13 -0.160994 -2.32944 0
M  V30 27415 C 2587.11 0.690488 -1.55455 0
M  V30 27416 O 2588.29 0.629286 -1.83722 0
M  V30 27417 C 2585.42 0.723971 -3.3967 0
M  V30 27418 C 2584.38 -0.0256925 -4.27992 0
M  V30 27419 C 2583.7 0.97829 -5.25674 0
M  V30 27420 C 2585 -1.20091 -5.08306 0
M  V30 27421 H 2586.7 -0.956019 -2.83726 0
M  V30 27422 H 2584.24 -0.461173 -1.36416 0
M  V30 27423 H 2586.2 1.15645 -4.05221 0
M  V30 27424 H 2584.92 1.55144 -2.87398 0
M  V30 27425 H 2583.58 -0.438876 -3.63964 0
M  V30 27426 H 2583.23 1.80014 -4.69685 0
M  V30 27427 H 2582.93 0.481275 -5.85626 0
M  V30 27428 H 2584.45 1.40984 -5.94101 0
M  V30 27429 H 2585.86 -0.845407 -5.67032 0
M  V30 27430 H 2584.26 -1.62957 -5.77551 0
M  V30 27431 H 2585.33 -2.00819 -4.41361 0
M  V30 27432 N 2586.67 1.48939 -0.515251 0
M  V30 27433 C 2587.92 2.02486 0.0241794 0
M  V30 27434 C 2588.25 1.39371 1.35669 0
M  V30 27435 O 2587.5 0.523607 1.88565 0
M  V30 27436 C 2587.8 3.56779 0.210532 0
M  V30 27437 C 2587.47 4.38605 -1.04576 0
M  V30 27438 C 2586.13 4.60684 -1.3901 0
M  V30 27439 C 2588.48 4.86106 -1.88017 0
M  V30 27440 C 2585.81 5.27509 -2.56809 0
M  V30 27441 C 2588.16 5.54228 -3.04982 0
M  V30 27442 C 2586.83 5.74549 -3.39779 0
M  V30 27443 H 2586.1 0.740947 0.00884786 0
M  V30 27444 H 2588.74 1.79085 -0.678294 0
M  V30 27445 H 2587.05 3.78938 0.995653 0
M  V30 27446 H 2588.75 3.95818 0.64259 0
M  V30 27447 H 2585.34 4.21671 -0.767571 0
M  V30 27448 H 2589.52 4.68864 -1.62727 0
M  V30 27449 H 2584.78 5.41442 -2.8399 0
M  V30 27450 H 2588.95 5.90007 -3.69953 0
M  V30 27451 H 2586.58 6.26104 -4.31159 0
M  V30 27452 N 2588.15 0.249709 1.55609 0
M  V30 27453 C 2589.4 -0.367916 2.00045 0
M  V30 27454 C 2589.75 -1.55361 1.13493 0
M  V30 27455 O 2589.05 -1.90644 0.191113 0
M  V30 27456 C 2589.24 -0.824826 3.47752 0
M  V30 27457 C 2589.07 0.315052 4.48595 0
M  V30 27458 C 2587.84 0.790643 4.99076 0
M  V30 27459 C 2590.04 1.143 5.01438 0
M  V30 27460 N 2588.02 1.90264 5.83672 0
M  V30 27461 C 2589.39 2.10333 5.83232 0
M  V30 27462 C 2591.45 1.17924 4.83734 0
M  V30 27463 C 2590.15 3.09703 6.49212 0
M  V30 27464 C 2592.18 2.16127 5.50494 0
M  V30 27465 C 2591.54 3.10895 6.32079 0
M  V30 27466 H 2587.64 -0.100509 0.775514 0
M  V30 27467 H 2590.22 0.367929 1.91192 0
M  V30 27468 H 2588.39 -1.52996 3.56997 0
M  V30 27469 H 2590.12 -1.41764 3.79058 0
M  V30 27470 H 2586.88 0.374301 4.72119 0
M  V30 27471 H 2587.3 2.46148 6.30666 0
M  V30 27472 H 2591.94 0.460426 4.20286 0
M  V30 27473 H 2589.66 3.82532 7.11825 0
M  V30 27474 H 2593.25 2.19641 5.38748 0
M  V30 27475 H 2592.13 3.85642 6.82825 0
M  V30 27476 N 2589.63 -1.57583 -0.0233682 0
M  V30 27477 C 2590.91 -1.80701 -0.748762 0
M  V30 27478 C 2591.29 -0.84914 -1.93269 0
M  V30 27479 O 2590.64 0.107428 -2.28247 0
M  V30 27480 C 2590.85 -3.28573 -1.17646 0
M  V30 27481 C 2592.19 -3.93705 -1.59001 0
M  V30 27482 O 2593.22 -3.32757 -1.27088 0
M  V30 27483 O 2592.08 -5.01026 -2.18255 0
M  V30 27484 H 2589.17 -0.743287 -0.362564 0
M  V30 27485 H 2591.72 -1.697 0.000291787 0
M  V30 27486 H 2590.49 -3.89893 -0.331534 0
M  V30 27487 H 2590.11 -3.44485 -1.98535 0
M  V30 27488 N 2591.11 0.29574 -1.548 0
M  V30 27489 C 2592.39 1.0502 -1.65016 0
M  V30 27490 C 2592.77 2.05048 -0.501841 0
M  V30 27491 O 2592.11 2.22944 0.50083 0
M  V30 27492 C 2592.32 1.72736 -3.03255 0
M  V30 27493 C 2593.67 2.24739 -3.60246 0
M  V30 27494 O 2594.7 1.8276 -3.05741 0
M  V30 27495 O 2593.56 3.01673 -4.55693 0
M  V30 27496 H 2590.65 0.485732 -0.669323 0
M  V30 27497 H 2593.2 0.293409 -1.67144 0
M  V30 27498 H 2591.97 1.00131 -3.78272 0
M  V30 27499 H 2591.59 2.55158 -3.04927 0
M  V30 27500 N 2592.59 1.47346 0.559187 0
M  V30 27501 C 2593.84 1.53565 1.31385 0
M  V30 27502 C 2594.16 0.198712 1.93985 0
M  V30 27503 O 2593.43 -0.777135 1.79826 0
M  V30 27504 H 2592.01 0.56566 0.487891 0
M  V30 27505 H 2594.67 1.83631 0.653117 0
M  V30 27506 H 2593.76 2.30115 2.1084 0
M  V30 27507 N 2594.07 -0.805758 1.35445 0
M  V30 27508 C 2595 -1.92575 1.24288 0
M  V30 27509 C 2596.01 -1.61952 0.16599 0
M  V30 27510 O 2597.2 -1.73505 0.419334 0
M  V30 27511 C 2594.3 -3.26969 0.89133 0
M  V30 27512 C 2593.47 -3.85492 2.06676 0
M  V30 27513 C 2592.53 -4.98294 1.69086 0
M  V30 27514 O 2591.56 -5.15677 2.40969 0
M  V30 27515 N 2592.76 -5.77233 0.614971 0
M  V30 27516 H 2595.52 -2.02672 2.20781 0
M  V30 27517 H 2593.09 -0.98322 1.28625 0
M  V30 27518 H 2595.08 -3.99902 0.621326 0
M  V30 27519 H 2593.65 -3.12596 0.016059 0
M  V30 27520 H 2592.87 -3.04742 2.50052 0
M  V30 27521 H 2594.16 -4.21323 2.85245 0
M  V30 27522 H 2593.55 -5.65697 0.0177474 0
M  V30 27523 H 2592.11 -6.50542 0.40475 0
M  V30 27524 N 2595.54 -1.19456 -1.02801 0
M  V30 27525 C 2596.77 -1.02367 -1.80377 0
M  V30 27526 C 2597.19 0.422975 -1.83283 0
M  V30 27527 O 2596.55 1.30411 -1.25947 0
M  V30 27528 C 2596.6 -1.59827 -3.23246 0
M  V30 27529 O 2595.7 -0.828176 -4.03999 0
M  V30 27530 H 2595.04 -0.361771 -0.556792 0
M  V30 27531 H 2597.57 -1.58498 -1.29382 0
M  V30 27532 H 2597.58 -1.63079 -3.73991 0
M  V30 27533 H 2596.26 -2.65118 -3.20445 0
M  V30 27534 H 2594.84 -0.868973 -3.62634 0
M  V30 27535 N 2597.02 1.21924 -0.998617 0
M  V30 27536 C 2598.27 1.90137 -0.673119 0
M  V30 27537 C 2598.58 1.7854 0.798919 0
M  V30 27538 O 2599.79 2.41722 1.23624 0
M  V30 27539 C 2598.25 3.40916 -1.15345 0
M  V30 27540 C 2597.85 3.61137 -2.65112 0
M  V30 27541 C 2599.6 4.14794 -0.902549 0
M  V30 27542 C 2597.5 5.05646 -3.06719 0
M  V30 27543 H 2596.43 0.712023 -0.24807 0
M  V30 27544 H 2599.09 1.38047 -1.20894 0
M  V30 27545 H 2597.47 3.92222 -0.545727 0
M  V30 27546 H 2598.64 3.20298 -3.31279 0
M  V30 27547 H 2596.96 3.006 -2.88147 0
M  V30 27548 H 2599.55 5.21312 -1.18904 0
M  V30 27549 H 2599.9 4.15987 0.161276 0
M  V30 27550 H 2600.43 3.69533 -1.47275 0
M  V30 27551 H 2597.17 5.09596 -4.12301 0
M  V30 27552 H 2596.69 5.47365 -2.45259 0
M  V30 27553 H 2598.37 5.7411 -2.98341 0
M  V30 27554 N 2598.5 0.772537 1.37367 0
M  V30 27555 C 2599.78 0.261914 1.93839 0
M  V30 27556 C 2600.16 -1.24316 1.70613 0
M  V30 27557 O 2599.5 -2.02668 1.05537 0
M  V30 27558 C 2599.71 0.636162 3.43153 0
M  V30 27559 C 2601.06 0.606398 4.20248 0
M  V30 27560 O 2602.09 0.5756 3.51519 0
M  V30 27561 O 2600.95 0.634182 5.42808 0
M  V30 27562 H 2598.04 0.06057 0.824779 0
M  V30 27563 H 2600.59 0.853943 1.46649 0
M  V30 27564 H 2599.36 1.67486 3.53644 0
M  V30 27565 H 2598.98 0.0171215 3.97596 0
M  V30 27566 N 2599.98 -1.48664 0.523142 0
M  V30 27567 C 2601.21 -2.06898 -0.00959483 0
M  V30 27568 C 2601.62 -1.38061 -1.28781 0
M  V30 27569 O 2600.98 -0.465924 -1.76452 0
M  V30 27570 C 2601.03 -3.60673 -0.244323 0
M  V30 27571 O 2600.75 -4.26924 0.983247 0
M  V30 27572 C 2602.25 -4.35684 -0.818212 0
M  V30 27573 H 2599.47 -0.67031 0.0304278 0
M  V30 27574 H 2602.01 -1.91148 0.726832 0
M  V30 27575 H 2600.17 -3.76052 -0.930781 0
M  V30 27576 H 2600.58 -5.18968 0.759744 0
M  V30 27577 H 2602.06 -5.44077 -0.931914 0
M  V30 27578 H 2602.53 -3.99649 -1.82146 0
M  V30 27579 H 2603.14 -4.24966 -0.168534 0
M  V30 27580 N 2601.46 -0.257958 -1.55475 0
M  V30 27581 C 2602.69 0.366991 -2.03314 0
M  V30 27582 C 2603.09 1.51279 -1.13628 0
M  V30 27583 O 2602.44 1.83124 -0.145366 0
M  V30 27584 C 2602.5 0.926223 -3.47363 0
M  V30 27585 C 2602.16 -0.0887387 -4.56914 0
M  V30 27586 C 2603.16 -0.902213 -5.12012 0
M  V30 27587 C 2600.84 -0.218025 -5.01827 0
M  V30 27588 C 2602.84 -1.83132 -6.10525 0
M  V30 27589 C 2600.53 -1.15063 -6.0017 0
M  V30 27590 C 2601.52 -1.9558 -6.54399 0
M  V30 27591 O 2601.21 -2.87266 -7.50822 0
M  V30 27592 H 2600.94 0.0900325 -0.669978 0
M  V30 27593 H 2603.5 -0.382709 -2.01803 0
M  V30 27594 H 2601.73 1.72569 -3.46059 0
M  V30 27595 H 2603.42 1.46243 -3.7864 0
M  V30 27596 H 2604.18 -0.812975 -4.78138 0
M  V30 27597 H 2600.06 0.39864 -4.59273 0
M  V30 27598 H 2603.61 -2.4602 -6.52779 0
M  V30 27599 H 2599.5 -1.24075 -6.33463 0
M  V30 27600 H 2600.27 -2.81753 -7.68478 0
M  V30 27601 N 2602.93 1.57593 0.0150108 0
M  V30 27602 C 2604.18 1.89532 0.70158 0
M  V30 27603 C 2604.5 0.857427 1.75138 0
M  V30 27604 O 2603.77 -0.10716 1.95607 0
M  V30 27605 H 2602.35 0.699502 0.262117 0
M  V30 27606 H 2605.02 1.94887 -0.0223647 0
M  V30 27607 H 2604.11 2.88839 1.18231 0
M  V30 27608 N 2604.41 -0.287527 1.54955 0
M  V30 27609 C 2605.36 -1.35502 1.86836 0
M  V30 27610 C 2606.33 -1.49757 0.718479 0
M  V30 27611 O 2607.51 -1.64399 0.968387 0
M  V30 27612 C 2604.65 -2.71282 2.13308 0
M  V30 27613 C 2603.77 -2.65367 3.40887 0
M  V30 27614 C 2602.9 -3.9323 3.57132 0
M  V30 27615 C 2601.94 -3.81767 4.78456 0
M  V30 27616 N 2601.08 -5.01434 4.91435 0
M  V30 27617 H 2605.92 -1.07614 2.77891 0
M  V30 27618 H 2603.46 -0.520216 1.37594 0
M  V30 27619 H 2605.41 -3.50263 2.26653 0
M  V30 27620 H 2604.04 -2.97403 1.25504 0
M  V30 27621 H 2603.1 -1.78176 3.36092 0
M  V30 27622 H 2604.41 -2.52792 4.29997 0
M  V30 27623 H 2603.56 -4.80651 3.70215 0
M  V30 27624 H 2602.3 -4.08656 2.6618 0
M  V30 27625 H 2601.31 -2.9273 4.65391 0
M  V30 27626 H 2602.53 -3.67874 5.70829 0
M  V30 27627 H 2600.48 -5.17297 4.0341 0
M  V30 27628 H 2600.39 -4.91333 5.74567 0
M  V30 27629 H 2601.66 -5.90468 5.08889 0
M  V30 27630 N 2605.89 -1.47641 -0.551365 0
M  V30 27631 C 2607.14 -1.5426 -1.30569 0
M  V30 27632 C 2607.46 -0.208997 -1.93877 0
M  V30 27633 O 2606.73 0.767588 -1.80236 0
M  V30 27634 H 2605.31 -0.56824 -0.484884 0
M  V30 27635 H 2607.97 -1.83975 -0.64337 0
M  V30 27636 H 2607.07 -2.3123 -2.09617 0
M  V30 27637 N 2607.37 0.798563 -1.3587 0
M  V30 27638 C 2608.3 1.92526 -1.32121 0
M  V30 27639 C 2609.28 1.68987 -0.194239 0
M  V30 27640 O 2610.46 1.90234 -0.39046 0
M  V30 27641 C 2607.59 3.29402 -1.10053 0
M  V30 27642 C 2606.55 3.67442 -2.19477 0
M  V30 27643 C 2605.87 5.02568 -1.82564 0
M  V30 27644 C 2607.17 3.7698 -3.61501 0
M  V30 27645 H 2608.87 1.9592 -2.26397 0
M  V30 27646 H 2606.41 0.941211 -1.08983 0
M  V30 27647 H 2608.37 4.07833 -1.06068 0
M  V30 27648 H 2607.09 3.26371 -0.122252 0
M  V30 27649 H 2605.75 2.91302 -2.22573 0
M  V30 27650 H 2605.4 4.96049 -0.833336 0
M  V30 27651 H 2605.1 5.2899 -2.55819 0
M  V30 27652 H 2606.62 5.83429 -1.80118 0
M  V30 27653 H 2608.04 4.45624 -3.60683 0
M  V30 27654 H 2606.43 4.14879 -4.33584 0
M  V30 27655 H 2607.5 2.78322 -3.9707 0
M  V30 27656 N 2608.85 1.19999 1.02166 0
M  V30 27657 C 2610.08 1.03103 1.79035 0
M  V30 27658 C 2610.48 -0.423045 1.8441 0
M  V30 27659 O 2609.83 -1.30557 1.29231 0
M  V30 27660 C 2609.89 1.53287 3.25182 0
M  V30 27661 C 2609.55 3.01509 3.43425 0
M  V30 27662 C 2610.55 3.99211 3.33056 0
M  V30 27663 C 2608.24 3.40359 3.69406 0
M  V30 27664 C 2610.23 5.33755 3.48403 0
M  V30 27665 C 2607.92 4.7506 3.84398 0
M  V30 27666 C 2608.91 5.71566 3.739 0
M  V30 27667 O 2608.6 7.03825 3.8844 0
M  V30 27668 H 2608.33 0.363366 0.570036 0
M  V30 27669 H 2610.89 1.59416 1.29521 0
M  V30 27670 H 2609.12 0.913549 3.75754 0
M  V30 27671 H 2610.81 1.32487 3.83669 0
M  V30 27672 H 2611.57 3.70542 3.12927 0
M  V30 27673 H 2607.45 2.65788 3.76666 0
M  V30 27674 H 2611 6.09065 3.40126 0
M  V30 27675 H 2606.89 5.03422 4.04026 0
M  V30 27676 H 2607.66 7.11001 4.05488 0
M  V30 27677 N 2610.32 -1.21392 1.00507 0
M  V30 27678 C 2611.55 -1.94177 0.705618 0
M  V30 27679 C 2611.96 -1.74305 -0.735815 0
M  V30 27680 O 2611.31 -1.04685 -1.50953 0
M  V30 27681 C 2611.37 -3.46804 0.946951 0
M  V30 27682 C 2611.03 -3.90425 2.37524 0
M  V30 27683 C 2612.03 -3.97121 3.35546 0
M  V30 27684 C 2609.71 -4.22737 2.71291 0
M  V30 27685 C 2611.71 -4.35522 4.65403 0
M  V30 27686 C 2609.39 -4.60815 4.01364 0
M  V30 27687 C 2610.39 -4.67178 4.98231 0
M  V30 27688 O 2610.08 -5.04388 6.25978 0
M  V30 27689 H 2609.81 -0.624321 0.259227 0
M  V30 27690 H 2612.37 -1.55156 1.34595 0
M  V30 27691 H 2610.6 -3.85895 0.249454 0
M  V30 27692 H 2612.29 -4.00809 0.640874 0
M  V30 27693 H 2613.05 -3.72334 3.10793 0
M  V30 27694 H 2608.93 -4.16982 1.96589 0
M  V30 27695 H 2612.47 -4.40403 5.41009 0
M  V30 27696 H 2608.37 -4.85055 4.25901 0
M  V30 27697 H 2609.14 -5.2242 6.30095 0
M  V30 27698 N 2611.8 -0.779811 -1.36955 0
M  V30 27699 C 2612.73 -0.185692 -2.3276 0
M  V30 27700 C 2613.71 0.673961 -1.56179 0
M  V30 27701 O 2614.9 0.609765 -1.84379 0
M  V30 27702 C 2612.03 0.687904 -3.40419 0
M  V30 27703 C 2610.98 -0.0710854 -4.27941 0
M  V30 27704 C 2610.31 0.92248 -5.26682 0
M  V30 27705 C 2611.61 -1.25476 -5.07004 0
M  V30 27706 H 2613.3 -0.986058 -2.82696 0
M  V30 27707 H 2610.85 -0.475616 -1.35919 0
M  V30 27708 H 2612.8 1.1134 -4.06425 0
M  V30 27709 H 2611.53 1.52088 -2.89028 0
M  V30 27710 H 2610.18 -0.477454 -3.63478 0
M  V30 27711 H 2609.83 1.75022 -4.71568 0
M  V30 27712 H 2609.53 0.419134 -5.86103 0
M  V30 27713 H 2611.06 1.34675 -5.95563 0
M  V30 27714 H 2612.47 -0.9055 -5.66104 0
M  V30 27715 H 2610.87 -1.69074 -5.7579 0
M  V30 27716 H 2611.94 -2.05489 -4.39207 0
M  V30 27717 N 2613.28 1.48384 -0.531019 0
M  V30 27718 C 2614.24 2.28137 0.220457 0
M  V30 27719 C 2615.24 1.35435 0.866827 0
M  V30 27720 O 2616.43 1.58318 0.726718 0
M  V30 27721 C 2613.57 3.14342 1.31915 0
M  V30 27722 H 2614.76 2.96038 -0.479767 0
M  V30 27723 H 2612.31 1.53643 -0.286995 0
M  V30 27724 H 2613.05 2.51076 2.0526 0
M  V30 27725 H 2612.83 3.82535 0.860783 0
M  V30 27726 H 2614.32 3.745 1.84769 0
M  V30 27727 N 2614.76 0.2662 1.55336 0
M  V30 27728 C 2615.98 -0.359625 2.04258 0
M  V30 27729 C 2616.41 -1.49342 1.14362 0
M  V30 27730 O 2615.77 -1.80756 0.1404 0
M  V30 27731 C 2615.81 -0.826573 3.50999 0
M  V30 27732 O 2614.92 -1.93459 3.64208 0
M  V30 27733 H 2614.26 -0.0757154 0.659669 0
M  V30 27734 H 2616.79 0.397896 2.00694 0
M  V30 27735 H 2616.8 -1.1247 3.92192 0
M  V30 27736 H 2615.47 0.00300343 4.159 0
M  V30 27737 H 2614.05 -1.63969 3.34916 0
M  V30 27738 N 2616.24 -1.57599 -0.0066531 0
M  V30 27739 C 2617.48 -1.90277 -0.692887 0
M  V30 27740 C 2617.81 -0.866223 -1.74146 0
M  V30 27741 O 2617.07 0.129899 -1.95268 0
M  V30 27742 C 2617.37 -3.29711 -1.37933 0
M  V30 27743 C 2617.03 -4.485 -0.4646 0
M  V30 27744 C 2615.69 -4.8073 -0.212725 0
M  V30 27745 C 2618.05 -5.20937 0.165602 0
M  V30 27746 C 2615.37 -5.82772 0.677756 0
M  V30 27747 C 2617.73 -6.23927 1.04392 0
M  V30 27748 C 2616.39 -6.54618 1.30504 0
M  V30 27749 H 2615.66 -0.696273 -0.253545 0
M  V30 27750 H 2618.31 -1.91441 0.0474459 0
M  V30 27751 H 2616.61 -3.24639 -2.19355 0
M  V30 27752 H 2618.31 -3.52252 -1.91623 0
M  V30 27753 H 2614.9 -4.23314 -0.671079 0
M  V30 27754 H 2619.08 -4.96297 -0.0159884 0
M  V30 27755 H 2614.34 -6.04915 0.888136 0
M  V30 27756 H 2618.51 -6.7919 1.53863 0
M  V30 27757 H 2616.14 -7.33508 1.99675 0
M  V30 27758 N 2617.72 0.279305 -1.55105 0
M  V30 27759 C 2618.94 1.03442 -1.79762 0
M  V30 27760 C 2619.37 1.79383 -0.565984 0
M  V30 27761 O 2618.72 1.74714 0.484229 0
M  V30 27762 C 2618.77 1.97366 -3.01793 0
M  V30 27763 O 2617.88 3.06033 -2.76437 0
M  V30 27764 H 2617.22 0.296069 -0.594339 0
M  V30 27765 H 2619.75 0.31013 -2.02236 0
M  V30 27766 H 2619.76 2.39436 -3.30355 0
M  V30 27767 H 2618.43 1.41503 -3.91088 0
M  V30 27768 H 2617.01 2.68323 -2.58954 0
M  V30 27769 N 2619.19 1.47931 0.543528 0
M  V30 27770 C 2620.16 1.60978 1.63153 0
M  V30 27771 C 2621.16 0.483926 1.53345 0
M  V30 27772 O 2622.35 0.749366 1.57258 0
M  V30 27773 C 2619.48 1.56721 3.0274 0
M  V30 27774 H 2620.67 2.57978 1.52929 0
M  V30 27775 H 2618.22 1.36325 0.764533 0
M  V30 27776 H 2618.96 0.611474 3.18483 0
M  V30 27777 H 2618.74 2.38443 3.11267 0
M  V30 27778 H 2620.23 1.69017 3.81868 0
M  V30 27779 N 2620.67 -0.791347 1.36292 0
M  V30 27780 C 2621.9 -1.58529 1.33729 0
M  V30 27781 C 2622.32 -1.87932 -0.0794603 0
M  V30 27782 O 2621.68 -1.4774 -1.05084 0
M  V30 27783 C 2621.73 -2.88427 2.1643 0
M  V30 27784 O 2620.83 -3.81941 1.55547 0
M  V30 27785 H 2620.17 -0.480951 0.457802 0
M  V30 27786 H 2622.7 -0.980999 1.79548 0
M  V30 27787 H 2622.71 -3.37714 2.28939 0
M  V30 27788 H 2621.39 -2.66353 3.1942 0
M  V30 27789 H 2619.96 -3.4053 1.51967 0
M  V30 27790 N 2622.15 -1.2054 -1.01528 0
M  V30 27791 C 2623.08 -0.913192 -2.10222 0
M  V30 27792 C 2624.09 0.0995712 -1.62495 0
M  V30 27793 O 2625.28 -0.131614 -1.78014 0
M  V30 27794 C 2622.38 -0.347776 -3.37111 0
M  V30 27795 C 2621.56 -1.4124 -4.13969 0
M  V30 27796 C 2620.62 -0.858067 -5.19157 0
M  V30 27797 O 2619.64 -1.53907 -5.47997 0
M  V30 27798 N 2620.84 0.331864 -5.79551 0
M  V30 27799 H 2623.61 -1.84885 -2.35876 0
M  V30 27800 H 2621.17 -1.10925 -1.17929 0
M  V30 27801 H 2623.16 0.0372314 -4.04683 0
M  V30 27802 H 2621.73 0.492473 -3.08696 0
M  V30 27803 H 2620.95 -1.97169 -3.41348 0
M  V30 27804 H 2622.24 -2.12936 -4.62099 0
M  V30 27805 H 2621.64 0.902379 -5.58456 0
M  V30 27806 H 2620.19 0.658496 -6.48465 0
M  V30 27807 N 2623.63 1.20858 -1.01149 0
M  V30 27808 C 2624.58 2.25492 -0.570629 0
M  V30 27809 C 2625.57 1.64895 0.38808 0
M  V30 27810 O 2626.78 1.78133 0.258561 0
M  V30 27811 H 2623.15 0.733403 -0.166204 0
M  V30 27812 H 2625.12 2.6001 -1.46415 0
M  V30 27813 C 2623.87 3.47607 0.080463 0
M  V30 27814 H 2623.19 3.9451 -0.648226 0
M  V30 27815 H 2624.63 4.22535 0.352123 0
M  V30 27816 C 2623.09 3.09891 1.3217 0
M  V30 27817 O 2623.62 3.20964 2.41547 0
M  V30 27818 N 2621.83 2.6449 1.20388 0
M  V30 27819 H 2621.38 2.55681 0.31386 0
M  V30 27820 H 2621.33 2.39625 2.03537 0
M  V30 27821 N 2625.11 0.787064 1.3654 0
M  V30 27822 C 2626.33 0.370235 2.0356 0
M  V30 27823 C 2626.75 -1.0126 1.59348 0
M  V30 27824 O 2626.11 -1.64906 0.78181 0
M  V30 27825 C 2626.16 0.421677 3.59032 0
M  V30 27826 O 2625.88 1.74997 4.01631 0
M  V30 27827 C 2627.38 -0.00481971 4.433 0
M  V30 27828 H 2624.6 0.152916 0.653343 0
M  V30 27829 H 2627.14 1.06525 1.74564 0
M  V30 27830 H 2625.3 -0.224903 3.86747 0
M  V30 27831 H 2625.71 1.69917 4.96214 0
M  V30 27832 H 2627.19 0.0823154 5.51939 0
M  V30 27833 H 2627.66 -1.05716 4.26287 0
M  V30 27834 H 2628.27 0.614159 4.20842 0
M  V30 27835 N 2626.58 -1.48101 0.53888 0
M  V30 27836 C 2627.52 -2.26639 -0.266455 0
M  V30 27837 C 2628.49 -1.32898 -0.936847 0
M  V30 27838 O 2629.68 -1.62254 -0.959478 0
M  V30 27839 C 2626.81 -3.09397 -1.37809 0
M  V30 27840 C 2625.85 -4.18579 -0.818174 0
M  V30 27841 S 2626.68 -5.34537 0.320942 0
M  V30 27842 C 2627.84 -6.20857 -0.79295 0
M  V30 27843 H 2628.07 -2.94596 0.400046 0
M  V30 27844 H 2625.61 -1.50944 0.324835 0
M  V30 27845 H 2627.56 -3.57653 -2.01482 0
M  V30 27846 H 2626.23 -2.40837 -2.01635 0
M  V30 27847 H 2625.42 -4.76143 -1.65238 0
M  V30 27848 H 2625.02 -3.73109 -0.257971 0
M  V30 27849 H 2627.31 -6.56096 -1.68949 0
M  V30 27850 H 2628.26 -7.0764 -0.25508 0
M  V30 27851 H 2628.66 -5.54124 -1.07736 0
M  V30 27852 N 2628.06 -0.274434 -1.55192 0
M  V30 27853 C 2628.99 0.646556 -2.19892 0
M  V30 27854 C 2630.01 1.11799 -1.18342 0
M  V30 27855 O 2631.2 1.04001 -1.45072 0
M  V30 27856 C 2628.3 1.89388 -2.81044 0
M  V30 27857 C 2627.47 1.56936 -4.08277 0
M  V30 27858 C 2626.53 2.66908 -4.53483 0
M  V30 27859 O 2625.55 2.33123 -5.19271 0
M  V30 27860 N 2626.76 3.96953 -4.23566 0
M  V30 27861 H 2629.52 0.092816 -2.99556 0
M  V30 27862 H 2627.08 -0.0955067 -1.61618 0
M  V30 27863 H 2629.07 2.62251 -3.08231 0
M  V30 27864 H 2627.64 2.35668 -2.05376 0
M  V30 27865 H 2626.86 0.674587 -3.88385 0
M  V30 27866 H 2628.15 1.32756 -4.91175 0
M  V30 27867 H 2627.55 4.27222 -3.70807 0
M  V30 27868 H 2626.11 4.66197 -4.55526 0
M  V30 27869 N 2629.54 1.576 -0.00170483 0
M  V30 27870 C 2630.76 1.95325 0.697355 0
M  V30 27871 C 2631.19 0.876735 1.66418 0
M  V30 27872 O 2630.55 -0.164976 1.80548 0
M  V30 27873 C 2630.6 3.32146 1.40397 0
M  V30 27874 O 2629.7 3.2657 2.51844 0
M  V30 27875 H 2629.04 0.637603 0.185362 0
M  V30 27876 H 2631.57 2.04525 -0.0554025 0
M  V30 27877 H 2631.58 3.67751 1.76701 0
M  V30 27878 H 2630.26 4.1005 0.695095 0
M  V30 27879 H 2628.83 3.02644 2.17856 0
M  V30 27880 N 2631.02 -0.271076 1.55251 0
M  V30 27881 C 2631.97 -1.33746 1.84651 0
M  V30 27882 C 2632.95 -1.44605 0.705554 0
M  V30 27883 O 2634.14 -1.48254 0.966942 0
M  V30 27884 C 2631.27 -2.69738 2.12359 0
M  V30 27885 C 2630.36 -2.62982 3.32718 0
M  V30 27886 N 2630.75 -2.25845 4.52579 0
M  V30 27887 C 2629.05 -2.94039 3.35346 0
M  V30 27888 C 2629.75 -2.29127 5.34674 0
M  V30 27889 N 2628.72 -2.67677 4.73128 0
M  V30 27890 H 2632.53 -1.04045 2.74867 0
M  V30 27891 H 2630.04 -0.479711 1.55153 0
M  V30 27892 H 2632.04 -3.46666 2.31578 0
M  V30 27893 H 2630.7 -3.00326 1.23427 0
M  V30 27894 H 2631.71 -1.97791 4.78643 0
M  V30 27895 H 2628.39 -3.29326 2.56614 0
M  V30 27896 H 2629.78 -2.0296 6.40513 0
M  V30 27897 N 2632.5 -1.48217 -0.535675 0
M  V30 27898 C 2633.75 -1.55199 -1.28825 0
M  V30 27899 C 2634.06 -0.228312 -1.94263 0
M  V30 27900 O 2635.26 -0.176326 -2.70927 0
M  V30 27901 C 2633.72 -2.73682 -2.33722 0
M  V30 27902 C 2633.33 -4.12669 -1.74379 0
M  V30 27903 C 2635.07 -2.89973 -3.10025 0
M  V30 27904 C 2632.98 -5.22421 -2.77182 0
M  V30 27905 H 2631.91 -0.577756 -0.484473 0
M  V30 27906 H 2634.56 -1.74539 -0.566429 0
M  V30 27907 H 2632.94 -2.47766 -3.08915 0
M  V30 27908 H 2634.12 -4.48581 -1.05413 0
M  V30 27909 H 2632.43 -4.01447 -1.10588 0
M  V30 27910 H 2635.03 -3.69137 -3.86836 0
M  V30 27911 H 2635.37 -1.99216 -3.65539 0
M  V30 27912 H 2635.9 -3.15764 -2.41947 0
M  V30 27913 H 2632.64 -6.15126 -2.26496 0
M  V30 27914 H 2632.16 -4.91004 -3.44493 0
M  V30 27915 H 2633.84 -5.50292 -3.40275 0
M  V30 27916 N 2633.97 0.784108 -1.3671 0
M  V30 27917 C 2635.22 1.53742 -1.30562 0
M  V30 27918 C 2635.54 1.95283 0.11134 0
M  V30 27919 O 2636.74 2.6989 0.295222 0
M  V30 27920 C 2635.2 2.77561 -2.29103 0
M  V30 27921 C 2634.81 2.43168 -3.76263 0
M  V30 27922 C 2636.55 3.55532 -2.31942 0
M  V30 27923 C 2634.46 3.63414 -4.66566 0
M  V30 27924 H 2633.39 0.577154 -0.48519 0
M  V30 27925 H 2636.04 0.859952 -1.62102 0
M  V30 27926 H 2634.42 3.47133 -1.90564 0
M  V30 27927 H 2635.59 1.81458 -4.23568 0
M  V30 27928 H 2633.91 1.78396 -3.7625 0
M  V30 27929 H 2636.51 4.44884 -2.96618 0
M  V30 27930 H 2636.85 3.94501 -1.32947 0
M  V30 27931 H 2637.38 2.92944 -2.69126 0
M  V30 27932 H 2634.12 3.29537 -5.66644 0
M  V30 27933 H 2633.64 4.24272 -4.23974 0
M  V30 27934 H 2635.32 4.30378 -4.83098 0
M  V30 27935 N 2635.45 1.21076 1.00888 0
M  V30 27936 C 2636.7 1.02563 1.74605 0
M  V30 27937 C 2637.03 -0.441326 1.89427 0
M  V30 27938 O 2636.28 -1.34381 1.42268 0
M  V30 27939 C 2636.58 1.66339 3.16332 0
M  V30 27940 C 2636.25 3.16179 3.21468 0
M  V30 27941 C 2634.91 3.57068 3.22577 0
M  V30 27942 C 2637.26 4.12161 3.19018 0
M  V30 27943 C 2634.59 4.92452 3.18917 0
M  V30 27944 C 2636.94 5.47501 3.16899 0
M  V30 27945 C 2635.61 5.87793 3.16316 0
M  V30 27946 H 2634.88 0.375305 0.638926 0
M  V30 27947 H 2637.52 1.50613 1.18271 0
M  V30 27948 H 2635.83 1.10572 3.75874 0
M  V30 27949 H 2637.52 1.49522 3.72081 0
M  V30 27950 H 2634.11 2.83611 3.21345 0
M  V30 27951 H 2638.3 3.816 3.17325 0
M  V30 27952 H 2633.55 5.22922 3.168 0
M  V30 27953 H 2637.73 6.21614 3.13957 0
M  V30 27954 H 2635.36 6.92668 3.13234 0
M  V30 27955 N 2636.93 -1.2032 1.01789 0
M  V30 27956 C 2637.88 -2.25186 0.58258 0
M  V30 27957 C 2638.87 -1.65098 -0.37933 0
M  V30 27958 O 2640.08 -1.78268 -0.24911 0
M  V30 27959 H 2636.45 -0.732511 0.170091 0
M  V30 27960 H 2638.42 -2.5923 1.47792 0
M  V30 27961 C 2637.17 -3.47645 -0.0620274 0
M  V30 27962 H 2636.5 -3.94161 0.669138 0
M  V30 27963 H 2637.94 -4.22716 -0.32971 0
M  V30 27964 C 2636.4 -3.10588 -1.30525 0
M  V30 27965 O 2636.93 -3.2224 -2.39842 0
M  V30 27966 N 2635.13 -2.65125 -1.18983 0
M  V30 27967 H 2634.68 -2.55844 -0.300296 0
M  V30 27968 H 2634.64 -2.40701 -2.02263 0
M  V30 27969 N 2638.41 -0.794293 -1.3612 0
M  V30 27970 C 2639.36 -0.184064 -2.31871 0
M  V30 27971 C 2640.35 0.659338 -1.56042 0
M  V30 27972 O 2641.56 0.553876 -1.71267 0
M  V30 27973 H 2637.93 -0.0407505 -0.750895 0
M  V30 27974 H 2639.9 -1.00698 -2.80896 0
M  V30 27975 C 2638.65 0.662753 -3.41325 0
M  V30 27976 H 2637.97 0.0231242 -3.99793 0
M  V30 27977 H 2639.41 1.05632 -4.10631 0
M  V30 27978 C 2637.87 1.82308 -2.83312 0
M  V30 27979 O 2638.4 2.91992 -2.75869 0
M  V30 27980 N 2636.61 1.63072 -2.40532 0
M  V30 27981 H 2636.16 0.738548 -2.46786 0
M  V30 27982 H 2636.11 2.40868 -2.02064 0
M  V30 27983 N 2639.89 1.47813 -0.546727 0
M  V30 27984 C 2641.12 2.06587 -0.0232882 0
M  V30 27985 C 2641.52 1.40135 1.27117 0
M  V30 27986 O 2640.87 0.488337 1.7709 0
M  V30 27987 C 2640.93 3.58601 0.254054 0
M  V30 27988 C 2640.59 4.47029 -0.949409 0
M  V30 27989 C 2641.59 4.85786 -1.85225 0
M  V30 27990 C 2639.28 4.88695 -1.16113 0
M  V30 27991 C 2641.27 5.64996 -2.95057 0
M  V30 27992 C 2638.96 5.67672 -2.26256 0
M  V30 27993 C 2639.95 6.05732 -3.1556 0
M  V30 27994 O 2639.64 6.8312 -4.23796 0
M  V30 27995 H 2639.37 0.67493 -0.03802 0
M  V30 27996 H 2641.93 1.90955 -0.756665 0
M  V30 27997 H 2640.16 3.72407 1.04161 0
M  V30 27998 H 2641.85 3.99434 0.721599 0
M  V30 27999 H 2642.61 4.54204 -1.70069 0
M  V30 28000 H 2638.49 4.58544 -0.47524 0
M  V30 28001 H 2642.04 5.94622 -3.64789 0
M  V30 28002 H 2637.93 5.98666 -2.4139 0
M  V30 28003 H 2638.7 7.01499 -4.21713 0
M  V30 28004 N 2641.36 0.28266 1.55044 0
M  V30 28005 C 2642.61 -0.332633 1.98938 0
M  V30 28006 C 2642.93 -1.56407 1.17458 0
M  V30 28007 O 2644.13 -2.25279 1.51531 0
M  V30 28008 C 2642.59 -0.643164 3.54107 0
M  V30 28009 C 2642.2 0.568892 4.44373 0
M  V30 28010 C 2643.94 -1.22066 4.06571 0
M  V30 28011 C 2641.85 0.23253 5.90943 0
M  V30 28012 H 2640.78 -0.128062 0.743045 0
M  V30 28013 H 2643.43 0.388496 1.7934 0
M  V30 28014 H 2641.81 -1.4234 3.69534 0
M  V30 28015 H 2642.98 1.34559 4.40716 0
M  V30 28016 H 2641.3 1.06376 4.02583 0
M  V30 28017 H 2643.9 -1.48626 5.13629 0
M  V30 28018 H 2644.24 -2.157 3.5606 0
M  V30 28019 H 2644.77 -0.502552 3.94613 0
M  V30 28020 H 2641.51 1.13695 6.45565 0
M  V30 28021 H 2641.03 -0.507252 5.97651 0
M  V30 28022 H 2642.71 -0.172543 6.4677 0
M  V30 28023 N 2642.84 -1.57597 0.0100627 0
M  V30 28024 C 2644.07 -1.95288 -0.683378 0
M  V30 28025 C 2644.49 -0.885511 -1.66746 0
M  V30 28026 O 2643.84 0.134597 -1.82003 0
M  V30 28027 C 2643.89 -3.33018 -1.40647 0
M  V30 28028 O 2643.61 -4.35659 -0.46184 0
M  V30 28029 C 2645.12 -3.85228 -2.19349 0
M  V30 28030 H 2642.34 -0.643627 -0.189696 0
M  V30 28031 H 2644.88 -2.04399 0.0641718 0
M  V30 28032 H 2643.03 -3.25184 -2.10556 0
M  V30 28033 H 2643.45 -5.15394 -0.973124 0
M  V30 28034 H 2644.92 -4.83998 -2.65425 0
M  V30 28035 H 2645.4 -3.18464 -3.02452 0
M  V30 28036 H 2646.01 -3.9627 -1.54435 0
M  V30 28037 N 2644.32 0.262839 -1.55393 0
M  V30 28038 C 2645.57 0.991116 -1.76129 0
M  V30 28039 C 2645.89 1.86449 -0.571116 0
M  V30 28040 O 2645.16 1.91483 0.413664 0
M  V30 28041 H 2643.74 0.368936 -0.649534 0
M  V30 28042 H 2646.4 0.284621 -1.92811 0
M  V30 28043 H 2645.5 1.62214 -2.66633 0
M  V30 28044 N 2645.8 1.48499 0.527807 0
M  V30 28045 C 2647.03 1.60292 1.3082 0
M  V30 28046 C 2647.44 0.264007 1.86945 0
M  V30 28047 O 2646.8 -0.747005 1.66512 0
M  V30 28048 C 2646.85 2.6512 2.45751 0
M  V30 28049 O 2646.57 3.93816 1.91939 0
M  V30 28050 C 2648.07 2.87373 3.37538 0
M  V30 28051 H 2645.29 0.540401 0.397753 0
M  V30 28052 H 2647.84 1.94342 0.636495 0
M  V30 28053 H 2645.99 2.33923 3.08802 0
M  V30 28054 H 2646.4 4.51344 2.67187 0
M  V30 28055 H 2647.88 3.64517 4.14525 0
M  V30 28056 H 2648.36 1.96277 3.92902 0
M  V30 28057 H 2648.96 3.19883 2.80277 0
M  V30 28058 N 2647.28 -0.776847 1.37123 0
M  V30 28059 C 2648.23 -1.91135 1.32552 0
M  V30 28060 C 2649.22 -1.68028 0.215149 0
M  V30 28061 O 2650.43 -1.75881 0.382883 0
M  V30 28062 H 2646.8 -0.628463 0.412963 0
M  V30 28063 H 2648.77 -1.92108 2.28335 0
M  V30 28064 C 2647.52 -3.28331 1.14428 0
M  V30 28065 H 2646.84 -3.46686 1.99121 0
M  V30 28066 H 2648.28 -4.08028 1.15279 0
M  V30 28067 C 2646.74 -3.36564 -0.150375 0
M  V30 28068 O 2647.27 -3.85309 -1.13577 0
M  V30 28069 N 2645.48 -2.89916 -0.199339 0
M  V30 28070 H 2645.03 -2.50438 0.603186 0
M  V30 28071 H 2644.98 -2.95805 -1.06521 0
M  V30 28072 N 2648.76 -1.2161 -1.00244 0
M  V30 28073 C 2650.17 -1.03314 -1.55509 0
M  V30 28074 C 2650.52 0.406299 -1.91947 0
M  V30 28075 O 2649.64 1.28989 -1.73755 0
M  V30 28076 C 2650.24 -1.86918 -2.82573 0
M  V30 28077 C 2648.8 -1.72947 -3.34315 0
M  V30 28078 C 2647.94 -1.83972 -2.07484 0
M  V30 28079 H 2650.89 -1.35594 -0.824615 0
M  V30 28080 H 2650.92 -1.38094 -3.54557 0
M  V30 28081 H 2650.43 -2.91676 -2.56021 0
M  V30 28082 H 2648.53 -0.708834 -3.65795 0
M  V30 28083 H 2648.64 -2.55062 -4.05562 0
M  V30 28084 H 2647.01 -1.27308 -2.20601 0
M  V30 28085 H 2647.79 -2.90243 -1.83341 0
M  V30 28086 N 2650.23 1.19778 -1.02425 0
M  V30 28087 C 2651.16 2.25074 -0.621609 0
M  V30 28088 C 2652.14 1.66091 0.367119 0
M  V30 28089 O 2653.33 1.92573 0.250858 0
M  V30 28090 C 2650.46 3.47284 0.0331216 0
M  V30 28091 C 2649.41 4.1891 -0.877397 0
M  V30 28092 C 2648.74 5.34628 -0.0880236 0
M  V30 28093 C 2650.04 4.74215 -2.189 0
M  V30 28094 H 2651.73 2.59008 -1.50183 0
M  V30 28095 H 2649.28 1.24501 -0.723569 0
M  V30 28096 H 2651.23 4.20134 0.326414 0
M  V30 28097 H 2649.96 3.12536 0.948109 0
M  V30 28098 H 2648.62 3.47936 -1.15481 0
M  V30 28099 H 2648.26 4.96124 0.828854 0
M  V30 28100 H 2647.96 5.83482 -0.694461 0
M  V30 28101 H 2649.49 6.10277 0.198636 0
M  V30 28102 H 2650.9 5.38844 -1.95755 0
M  V30 28103 H 2649.3 5.33537 -2.74696 0
M  V30 28104 H 2650.37 3.92536 -2.84681 0
M  V30 28105 N 2651.71 0.801501 1.35697 0
M  V30 28106 C 2652.66 0.206335 2.29876 0
M  V30 28107 C 2653.63 -0.656725 1.52566 0
M  V30 28108 O 2654.81 -0.602874 1.81025 0
M  V30 28109 C 2651.95 -0.643212 3.39053 0
M  V30 28110 C 2651.07 0.23972 4.31334 0
M  V30 28111 C 2650.2 -0.617347 5.276 0
M  V30 28112 C 2649.24 0.266298 6.1152 0
M  V30 28113 N 2648.38 -0.550448 6.99939 0
M  V30 28114 H 2653.22 1.01489 2.80186 0
M  V30 28115 H 2650.75 0.512022 1.37901 0
M  V30 28116 H 2652.71 -1.15087 4.01012 0
M  V30 28117 H 2651.34 -1.41708 2.90032 0
M  V30 28118 H 2650.39 0.865446 3.70424 0
M  V30 28119 H 2651.71 0.920071 4.90241 0
M  V30 28120 H 2650.86 -1.19034 5.94908 0
M  V30 28121 H 2649.6 -1.33128 4.69178 0
M  V30 28122 H 2648.6 0.851603 5.43165 0
M  V30 28123 H 2649.83 0.978018 6.72021 0
M  V30 28124 H 2647.78 -1.24845 6.44011 0
M  V30 28125 H 2647.69 0.0719648 7.55966 0
M  V30 28126 H 2648.96 -1.10688 7.71601 0
M  V30 28127 N 2653.19 -1.47521 0.554558 0
M  V30 28128 C 2654.12 -2.32782 -0.182933 0
M  V30 28129 C 2655.1 -1.43626 -0.911352 0
M  V30 28130 O 2656.29 -1.72485 -0.892336 0
M  V30 28131 C 2653.42 -3.25351 -1.21507 0
M  V30 28132 C 2652.37 -4.23727 -0.603281 0
M  V30 28133 C 2651.7 -5.05602 -1.73986 0
M  V30 28134 C 2653 -5.20433 0.441212 0
M  V30 28135 H 2654.69 -2.94692 0.528872 0
M  V30 28136 H 2652.24 -1.4171 0.255784 0
M  V30 28137 H 2654.19 -3.83838 -1.73915 0
M  V30 28138 H 2652.91 -2.61491 -1.95679 0
M  V30 28139 H 2651.57 -3.66462 -0.100525 0
M  V30 28140 H 2651.22 -4.38147 -2.47055 0
M  V30 28141 H 2650.92 -5.72203 -1.3363 0
M  V30 28142 H 2652.44 -5.66946 -2.26725 0
M  V30 28143 H 2653.86 -5.733 0.00330008 0
M  V30 28144 H 2652.25 -5.95223 0.763506 0
M  V30 28145 H 2653.32 -4.66073 1.33807 0
M  V30 28146 N 2654.67 -0.290879 -1.54892 0
M  V30 28147 C 2655.92 0.320721 -1.99539 0
M  V30 28148 C 2656.24 1.55186 -1.18078 0
M  V30 28149 O 2655.51 1.93972 -0.274196 0
M  V30 28150 H 2654.09 0.121494 -0.737054 0
M  V30 28151 H 2656.75 -0.399866 -1.90754 0
M  V30 28152 H 2655.84 0.599748 -3.06283 0
M  V30 28153 N 2656.15 1.57589 -0.0184203 0
M  V30 28154 C 2657.38 1.95364 0.672036 0
M  V30 28155 C 2657.78 0.892902 1.66805 0
M  V30 28156 O 2657.13 -0.134926 1.83204 0
M  V30 28157 C 2657.19 3.29229 1.44391 0
M  V30 28158 C 2656.85 4.52945 0.607432 0
M  V30 28159 C 2657.85 5.19778 -0.112749 0
M  V30 28160 C 2655.53 4.99302 0.54798 0
M  V30 28161 C 2657.53 6.3128 -0.881168 0
M  V30 28162 C 2655.22 6.10689 -0.224152 0
M  V30 28163 C 2656.21 6.76536 -0.937442 0
M  V30 28164 O 2655.9 7.85786 -1.69694 0
M  V30 28165 H 2655.63 0.648481 0.190913 0
M  V30 28166 H 2658.19 2.05276 -0.0712354 0
M  V30 28167 H 2656.42 3.15777 2.23208 0
M  V30 28168 H 2658.11 3.51983 2.02146 0
M  V30 28169 H 2658.87 4.8494 -0.076085 0
M  V30 28170 H 2654.75 4.47862 1.09273 0
M  V30 28171 H 2658.3 6.82609 -1.43844 0
M  V30 28172 H 2654.19 6.44966 -0.26257 0
M  V30 28173 H 2654.96 8.02397 -1.61558 0
M  V30 28174 N 2657.62 -0.254594 1.5553 0
M  V30 28175 C 2658.87 -0.981581 1.76204 0
M  V30 28176 C 2659.19 -1.86775 0.580916 0
M  V30 28177 O 2660.39 -2.63091 0.670494 0
M  V30 28178 C 2658.85 -1.79531 3.11924 0
M  V30 28179 C 2658.46 -0.956914 4.37661 0
M  V30 28180 C 2660.2 -2.51549 3.4194 0
M  V30 28181 C 2658.11 -1.76609 5.64414 0
M  V30 28182 H 2657.04 -0.370226 0.656848 0
M  V30 28183 H 2659.69 -0.236524 1.81969 0
M  V30 28184 H 2658.07 -2.58203 3.00245 0
M  V30 28185 H 2659.24 -0.213069 4.60307 0
M  V30 28186 H 2657.56 -0.350424 4.14923 0
M  V30 28187 H 2660.16 -3.12529 4.33855 0
M  V30 28188 H 2660.5 -3.22775 2.62911 0
M  V30 28189 H 2661.03 -1.79894 3.548 0
M  V30 28190 H 2657.77 -1.09772 6.46243 0
M  V30 28191 H 2657.29 -2.48542 5.45882 0
M  V30 28192 H 2658.97 -2.33516 6.0339 0
M  V30 28193 N 2659.1 -1.48777 -0.519925 0
M  V30 28194 C 2660.01 -1.66747 -1.65023 0
M  V30 28195 C 2661.03 -0.549983 -1.65079 0
M  V30 28196 O 2662.2 -0.822328 -1.83847 0
M  V30 28197 C 2659.27 -1.71244 -3.01457 0
M  V30 28198 C 2658.33 -2.94693 -3.12177 0
M  V30 28199 C 2657.56 -2.98965 -4.42103 0
M  V30 28200 O 2657.79 -2.1136 -5.29795 0
M  V30 28201 O 2656.72 -3.91241 -4.57399 0
M  V30 28202 H 2660.55 -2.62464 -1.52796 0
M  V30 28203 H 2658.13 -1.32296 -0.694134 0
M  V30 28204 H 2660.01 -1.76664 -3.82581 0
M  V30 28205 H 2658.69 -0.78703 -3.13987 0
M  V30 28206 H 2657.59 -2.94801 -2.30311 0
M  V30 28207 H 2658.93 -3.86652 -3.04568 0
M  V30 28208 N 2660.58 0.769564 -1.37534 0
M  V30 28209 C 2661.83 1.52348 -1.32185 0
M  V30 28210 C 2662.14 1.9539 0.0906211 0
M  V30 28211 O 2663.35 2.70188 0.26658 0
M  V30 28212 C 2661.8 2.75115 -2.32034 0
M  V30 28213 C 2661.41 2.39163 -3.78821 0
M  V30 28214 C 2663.16 3.53052 -2.357 0
M  V30 28215 C 2661.06 3.58445 -4.70395 0
M  V30 28216 H 2659.99 0.571975 -0.491285 0
M  V30 28217 H 2662.64 0.842711 -1.63005 0
M  V30 28218 H 2661.03 3.45093 -1.94235 0
M  V30 28219 H 2662.2 1.76955 -4.25469 0
M  V30 28220 H 2660.51 1.74396 -3.78121 0
M  V30 28221 H 2663.11 4.41713 -3.0132 0
M  V30 28222 H 2663.45 3.93068 -1.37124 0
M  V30 28223 H 2663.99 2.90073 -2.72218 0
M  V30 28224 H 2660.73 3.23508 -5.70108 0
M  V30 28225 H 2660.25 4.19751 -4.2845 0
M  V30 28226 H 2661.93 4.2523 -4.87635 0
M  V30 28227 N 2662.06 1.22139 0.995977 0
M  V30 28228 C 2663.3 1.0557 1.73858 0
M  V30 28229 C 2663.66 -0.405385 1.88081 0
M  V30 28230 O 2662.95 -1.29658 1.41065 0
M  V30 28231 C 2663.15 1.69685 3.1455 0
M  V30 28232 C 2662.98 3.21877 3.14047 0
M  V30 28233 C 2661.75 3.90966 3.20115 0
M  V30 28234 C 2663.94 4.18851 2.98444 0
M  V30 28235 N 2661.93 5.3027 3.09333 0
M  V30 28236 C 2663.3 5.44965 2.95657 0
M  V30 28237 C 2665.35 4.09782 2.82812 0
M  V30 28238 C 2664.05 6.63054 2.7884 0
M  V30 28239 C 2666.08 5.27518 2.67355 0
M  V30 28240 C 2665.44 6.52549 2.65253 0
M  V30 28241 H 2661.54 0.440717 0.645982 0
M  V30 28242 H 2664.13 1.54633 1.18308 0
M  V30 28243 H 2662.3 1.23176 3.68351 0
M  V30 28244 H 2664.03 1.46236 3.77355 0
M  V30 28245 H 2660.78 3.41946 3.27673 0
M  V30 28246 H 2661.21 6.03258 3.0726 0
M  V30 28247 H 2665.85 3.13905 2.83238 0
M  V30 28248 H 2663.57 7.59083 2.77161 0
M  V30 28249 H 2667.15 5.2233 2.56247 0
M  V30 28250 H 2666.03 7.42118 2.53437 0
M  V30 28251 N 2663.54 -1.19233 1.03059 0
M  V30 28252 C 2664.78 -1.88586 0.726614 0
M  V30 28253 C 2665.11 -1.80117 -0.747196 0
M  V30 28254 O 2664.38 -1.21277 -1.53847 0
M  V30 28255 H 2662.96 -0.698119 0.26578 0
M  V30 28256 H 2665.62 -1.44744 1.30519 0
M  V30 28257 H 2664.71 -2.94877 1.02245 0
M  V30 28258 N 2665.01 -0.808686 -1.3527 0
M  V30 28259 C 2666.26 -0.390616 -1.99003 0
M  V30 28260 C 2666.59 1.04007 -1.64001 0
M  V30 28261 O 2665.87 1.72194 -0.904398 0
M  V30 28262 C 2666.15 -0.576629 -3.55453 0
M  V30 28263 C 2666 -2.0524 -4.00246 0
M  V30 28264 C 2667.32 -0.00362013 -4.401 0
M  V30 28265 H 2664.44 -0.143401 -0.722914 0
M  V30 28266 H 2667.08 -1.01861 -1.60388 0
M  V30 28267 H 2665.23 -0.0420449 -3.88477 0
M  V30 28268 H 2666.91 -2.64952 -3.77621 0
M  V30 28269 H 2665.15 -2.54807 -3.51078 0
M  V30 28270 H 2665.82 -2.13342 -5.09106 0
M  V30 28271 H 2668.3 -0.460189 -4.13547 0
M  V30 28272 H 2667.17 -0.163672 -5.48656 0
M  V30 28273 H 2667.43 1.09025 -4.28446 0
M  V30 28274 N 2666.49 1.47225 -0.562374 0
M  V30 28275 C 2667.74 2.0206 -0.0401726 0
M  V30 28276 C 2668.06 1.43854 1.31648 0
M  V30 28277 O 2667.33 0.615632 1.85975 0
M  V30 28278 H 2665.91 0.746906 -0.011861 0
M  V30 28279 H 2668.57 1.80569 -0.733552 0
M  V30 28280 H 2667.67 3.12069 0.0440705 0
M  V30 28281 N 2667.97 0.299089 1.54736 0
M  V30 28282 C 2669.2 -0.316218 2.04975 0
M  V30 28283 C 2669.62 -1.46883 1.17504 0
M  V30 28284 O 2668.98 -1.80417 0.17871 0
M  V30 28285 C 2669.03 -0.751935 3.52673 0
M  V30 28286 O 2668.13 -1.8569 3.68229 0
M  V30 28287 H 2667.47 -0.0617058 0.661127 0
M  V30 28288 H 2670 0.440376 1.99805 0
M  V30 28289 H 2670.01 -1.04126 3.94489 0
M  V30 28290 H 2668.69 0.0912213 4.158 0
M  V30 28291 H 2667.26 -1.56828 3.38319 0
M  V30 28292 N 2669.45 -1.57577 0.0267774 0
M  V30 28293 C 2670.69 -1.91988 -0.653337 0
M  V30 28294 C 2671.03 -0.903293 -1.71913 0
M  V30 28295 O 2670.3 0.0743045 -1.94358 0
M  V30 28296 C 2670.59 -3.36888 -1.27194 0
M  V30 28297 C 2670.44 -4.49282 -0.215859 0
M  V30 28298 C 2671.76 -3.81707 -2.19062 0
M  V30 28299 H 2668.88 -0.698181 -0.236035 0
M  V30 28300 H 2671.52 -1.89816 0.083557 0
M  V30 28301 H 2669.67 -3.3887 -1.89999 0
M  V30 28302 H 2671.34 -4.59433 0.414571 0
M  V30 28303 H 2669.58 -4.31366 0.458931 0
M  V30 28304 H 2670.25 -5.47693 -0.688251 0
M  V30 28305 H 2672.73 -3.81447 -1.66246 0
M  V30 28306 H 2671.61 -4.83793 -2.59299 0
M  V30 28307 H 2671.87 -3.17078 -3.08081 0
M  V30 28308 N 2670.93 0.246342 -1.55663 0
M  V30 28309 C 2672.34 0.815361 -1.67955 0
M  V30 28310 C 2672.69 1.86001 -0.624334 0
M  V30 28311 O 2671.81 2.15182 0.22929 0
M  V30 28312 C 2672.41 1.48571 -3.04487 0
M  V30 28313 C 2670.97 2.00242 -3.18716 0
M  V30 28314 C 2670.11 0.85372 -2.63831 0
M  V30 28315 H 2673.07 0.0221413 -1.58685 0
M  V30 28316 H 2673.09 2.35375 -2.98963 0
M  V30 28317 H 2672.6 0.725155 -3.81265 0
M  V30 28318 H 2670.7 2.79176 -2.46762 0
M  V30 28319 H 2670.81 2.19942 -4.25632 0
M  V30 28320 H 2669.18 1.25438 -2.2167 0
M  V30 28321 H 2669.96 0.106242 -3.43136 0
M  V30 28322 N 2672.4 1.4905 0.512027 0
M  V30 28323 C 2673.65 1.58214 1.26871 0
M  V30 28324 C 2673.98 0.263107 1.92409 0
M  V30 28325 O 2673.26 -0.732444 1.80182 0
M  V30 28326 C 2673.54 2.73345 2.34424 0
M  V30 28327 C 2673.39 4.15009 1.73459 0
M  V30 28328 C 2674.71 2.84159 3.36068 0
M  V30 28329 H 2671.83 0.575889 0.459914 0
M  V30 28330 H 2674.47 1.81294 0.568556 0
M  V30 28331 H 2672.62 2.53797 2.94142 0
M  V30 28332 H 2674.3 4.46044 1.17653 0
M  V30 28333 H 2672.54 4.2117 1.03914 0
M  V30 28334 H 2673.21 4.9142 2.51417 0
M  V30 28335 H 2675.69 3.01921 2.86327 0
M  V30 28336 H 2674.56 3.66413 4.08696 0
M  V30 28337 H 2674.82 1.93054 3.97721 0
M  V30 28338 N 2673.88 -0.762259 1.3794 0
M  V30 28339 C 2675.11 -1.55145 1.36886 0
M  V30 28340 C 2675.53 -1.8875 -0.0435016 0
M  V30 28341 O 2674.88 -1.52148 -1.00783 0
M  V30 28342 C 2674.93 -2.85592 2.21629 0
M  V30 28343 O 2674.65 -2.53423 3.57363 0
M  V30 28344 C 2676.16 -3.79776 2.2866 0
M  V30 28345 H 2673.38 -0.480335 0.468529 0
M  V30 28346 H 2675.92 -0.944047 1.81406 0
M  V30 28347 H 2674.07 -3.42731 1.80594 0
M  V30 28348 H 2674.49 -3.37025 4.01889 0
M  V30 28349 H 2675.96 -4.68283 2.92259 0
M  V30 28350 H 2676.44 -4.19589 1.29774 0
M  V30 28351 H 2677.05 -3.28563 2.70049 0
M  V30 28352 N 2675.36 -1.22666 -0.989486 0
M  V30 28353 C 2676.59 -1.08054 -1.77029 0
M  V30 28354 C 2677.01 0.364451 -1.84536 0
M  V30 28355 O 2676.37 1.26338 -1.30033 0
M  V30 28356 C 2676.42 -1.7003 -3.17997 0
M  V30 28357 O 2675.52 -0.956286 -4.01159 0
M  V30 28358 H 2674.86 -0.379302 -0.545001 0
M  V30 28359 H 2677.39 -1.62534 -1.24274 0
M  V30 28360 H 2677.4 -1.74895 -3.68613 0
M  V30 28361 H 2676.08 -2.75179 -3.11848 0
M  V30 28362 H 2674.65 -0.983903 -3.59686 0
M  V30 28363 N 2676.84 1.18685 -1.0369 0
M  V30 28364 C 2678.09 1.8885 -0.739156 0
M  V30 28365 C 2678.42 1.79916 0.73101 0
M  V30 28366 O 2677.69 1.19691 1.53311 0
M  V30 28367 C 2677.98 3.39478 -1.20112 0
M  V30 28368 C 2677.83 3.57241 -2.73311 0
M  V30 28369 C 2679.15 4.32984 -0.78821 0
M  V30 28370 H 2676.27 0.685765 -0.269991 0
M  V30 28371 H 2678.91 1.39658 -1.28824 0
M  V30 28372 H 2677.06 3.81504 -0.733982 0
M  V30 28373 H 2678.73 3.24333 -3.28033 0
M  V30 28374 H 2676.97 3.00024 -3.13318 0
M  V30 28375 H 2677.65 4.62913 -3.00692 0
M  V30 28376 H 2680.12 3.98717 -1.19012 0
M  V30 28377 H 2679 5.36947 -1.13924 0
M  V30 28378 H 2679.26 4.41019 0.308911 0
M  V30 28379 N 2678.32 0.815849 1.34839 0
M  V30 28380 C 2679.54 0.412296 2.03261 0
M  V30 28381 C 2679.97 -0.971723 1.61056 0
M  V30 28382 O 2679.33 -1.63099 0.791729 0
M  V30 28383 C 2679.37 0.514351 3.56913 0
M  V30 28384 O 2678.48 -0.468603 4.09729 0
M  V30 28385 H 2677.82 0.170782 0.641661 0
M  V30 28386 H 2680.35 1.1043 1.72239 0
M  V30 28387 H 2680.36 0.387528 4.06155 0
M  V30 28388 H 2679.03 1.52381 3.86979 0
M  V30 28389 H 2677.61 -0.301251 3.71681 0
M  V30 28390 N 2679.8 -1.46924 0.570174 0
M  V30 28391 C 2681.04 -2.01641 0.0487707 0
M  V30 28392 C 2681.36 -1.44863 -1.3143 0
M  V30 28393 O 2682.56 -1.91322 -1.92635 0
M  V30 28394 C 2681.02 -3.59881 0.036645 0
M  V30 28395 C 2680.63 -4.25653 1.39727 0
M  V30 28396 C 2682.37 -4.22302 -0.43147 0
M  V30 28397 C 2680.28 -5.75936 1.34355 0
M  V30 28398 H 2679.21 -0.753861 0.0144625 0
M  V30 28399 H 2681.86 -1.68786 0.719957 0
M  V30 28400 H 2680.24 -3.89756 -0.700454 0
M  V30 28401 H 2681.42 -4.07404 2.15311 0
M  V30 28402 H 2679.73 -3.75275 1.80438 0
M  V30 28403 H 2682.33 -5.32448 -0.49026 0
M  V30 28404 H 2682.67 -3.90369 -1.44631 0
M  V30 28405 H 2683.2 -3.97006 0.251171 0
M  V30 28406 H 2679.94 -6.12509 2.33479 0
M  V30 28407 H 2679.46 -5.96485 0.62972 0
M  V30 28408 H 2681.14 -6.38405 1.05111 0
M  V30 28409 N 2681.27 -0.307291 -1.54575 0
M  V30 28410 C 2682.5 0.305343 -2.0514 0
M  V30 28411 C 2682.92 1.46257 -1.18281 0
M  V30 28412 O 2682.28 1.8032 -0.188275 0
M  V30 28413 C 2682.33 0.733221 -3.53067 0
M  V30 28414 O 2681.43 1.83735 -3.69209 0
M  V30 28415 H 2680.77 0.0581989 -0.661445 0
M  V30 28416 H 2683.3 -0.450966 -1.99568 0
M  V30 28417 H 2683.31 1.02032 -3.95036 0
M  V30 28418 H 2681.99 -0.113271 -4.15746 0
M  V30 28419 H 2680.57 1.55031 -3.39146 0
M  V30 28420 N 2682.75 1.57561 -0.0351337 0
M  V30 28421 C 2684 1.92332 0.643146 0
M  V30 28422 C 2684.33 0.912398 1.71432 0
M  V30 28423 O 2683.61 -0.0639962 1.94395 0
M  V30 28424 C 2683.89 3.37558 1.25405 0
M  V30 28425 C 2683.74 4.4939 0.19203 0
M  V30 28426 C 2685.06 3.82863 2.17035 0
M  V30 28427 H 2682.18 0.699423 0.232329 0
M  V30 28428 H 2684.82 1.89769 -0.0936222 0
M  V30 28429 H 2682.97 3.39873 1.88199 0
M  V30 28430 H 2684.64 4.59207 -0.43893 0
M  V30 28431 H 2682.89 4.31116 -0.481801 0
M  V30 28432 H 2683.56 5.4805 0.659196 0
M  V30 28433 H 2686.03 3.82323 1.64221 0
M  V30 28434 H 2684.91 4.85161 2.56729 0
M  V30 28435 H 2685.17 3.18707 3.06395 0
M  V30 28436 N 2684.23 -0.238084 1.55791 0
M  V30 28437 C 2685.45 -0.9864 1.82442 0
M  V30 28438 C 2685.88 -1.77819 0.613345 0
M  V30 28439 O 2685.24 -1.75936 -0.437736 0
M  V30 28440 C 2685.29 -1.89295 3.0692 0
M  V30 28441 O 2684.39 -2.98596 2.84454 0
M  V30 28442 H 2683.73 -0.280207 0.60198 0
M  V30 28443 H 2686.26 -0.256402 2.02987 0
M  V30 28444 H 2686.27 -2.30593 3.36587 0
M  V30 28445 H 2684.95 -1.31084 3.94702 0
M  V30 28446 H 2683.52 -2.61363 2.65977 0
M  V30 28447 N 2685.71 -1.4932 -0.504115 0
M  V30 28448 C 2686.96 -1.58336 -1.25595 0
M  V30 28449 C 2687.28 -0.270572 -1.93114 0
M  V30 28450 O 2686.55 0.709859 -1.82586 0
M  V30 28451 H 2685.13 -0.583378 -0.466561 0
M  V30 28452 H 2687.79 -1.85929 -0.584514 0
M  V30 28453 H 2686.88 -2.37781 -2.02154 0
M  V30 28454 N 2687.19 0.754933 -1.38342 0
M  V30 28455 C 2688.12 1.87661 -1.2984 0
M  V30 28456 C 2689.1 1.61648 -0.175687 0
M  V30 28457 O 2690.28 1.85169 -0.352778 0
M  V30 28458 C 2687.41 3.23244 -1.01147 0
M  V30 28459 C 2686.45 3.68147 -2.15338 0
M  V30 28460 S 2687.29 3.79842 -3.77466 0
M  V30 28461 C 2688.44 5.18247 -3.50957 0
M  V30 28462 H 2688.68 1.94586 -2.24774 0
M  V30 28463 H 2686.21 0.917775 -1.24162 0
M  V30 28464 H 2688.17 4.01545 -0.852757 0
M  V30 28465 H 2686.83 3.14 -0.0793336 0
M  V30 28466 H 2686.02 4.66487 -1.90804 0
M  V30 28467 H 2685.62 2.96996 -2.27309 0
M  V30 28468 H 2687.91 6.03958 -3.06988 0
M  V30 28469 H 2688.86 5.47801 -4.48686 0
M  V30 28470 H 2689.27 4.8698 -2.855 0
M  V30 28471 N 2688.66 1.23189 0.982967 0
M  V30 28472 C 2689.91 1.06401 1.72646 0
M  V30 28473 C 2690.24 -0.398528 1.90067 0
M  V30 28474 O 2689.52 -1.29515 1.45107 0
M  V30 28475 C 2689.8 1.78713 3.12624 0
M  V30 28476 C 2689.65 3.32624 3.02789 0
M  V30 28477 C 2690.97 1.54754 4.11994 0
M  V30 28478 H 2688.09 0.387929 0.626642 0
M  V30 28479 H 2690.73 1.5166 1.14452 0
M  V30 28480 H 2688.88 1.4024 3.62305 0
M  V30 28481 H 2690.56 3.80602 2.60652 0
M  V30 28482 H 2688.8 3.61789 2.39356 0
M  V30 28483 H 2689.47 3.78407 4.01886 0
M  V30 28484 H 2691.95 1.88192 3.7111 0
M  V30 28485 H 2690.82 2.0783 5.08033 0
M  V30 28486 H 2691.08 0.482326 4.39461 0
M  V30 28487 N 2690.14 -1.18133 1.04318 0
M  V30 28488 C 2691.39 -1.87508 0.743223 0
M  V30 28489 C 2691.7 -1.81382 -0.732104 0
M  V30 28490 O 2692.91 -2.46143 -1.14567 0
M  V30 28491 C 2691.37 -3.364 1.27919 0
M  V30 28492 C 2690.97 -3.51048 2.78333 0
M  V30 28493 C 2692.72 -4.11159 1.05588 0
M  V30 28494 C 2690.62 -4.93914 3.25274 0
M  V30 28495 H 2689.55 -0.702326 0.274325 0
M  V30 28496 H 2692.21 -1.33465 1.25934 0
M  V30 28497 H 2690.59 -3.89926 0.690922 0
M  V30 28498 H 2691.76 -3.07782 3.42939 0
M  V30 28499 H 2690.08 -2.89698 2.99105 0
M  V30 28500 H 2692.67 -5.1654 1.3817 0
M  V30 28501 H 2693.02 -4.16299 -0.00677412 0
M  V30 28502 H 2693.55 -3.63813 1.60889 0
M  V30 28503 H 2690.29 -4.93943 4.3093 0
M  V30 28504 H 2689.81 -5.37885 2.65405 0
M  V30 28505 H 2691.49 -5.62641 3.19443 0
M  V30 28506 N 2691.62 -0.822988 -1.34405 0
M  V30 28507 C 2692.85 -0.424075 -2.02507 0
M  V30 28508 C 2693.26 0.969994 -1.61977 0
M  V30 28509 O 2692.62 1.62775 -0.825257 0
M  V30 28510 C 2692.67 -0.51672 -3.57788 0
M  V30 28511 O 2692.39 -1.85584 -3.9685 0
M  V30 28512 C 2693.89 -0.112715 -4.43157 0
M  V30 28513 H 2691.11 -0.170184 -0.64906 0
M  V30 28514 H 2693.66 -1.11116 -1.71678 0
M  V30 28515 H 2691.81 0.122285 -3.87207 0
M  V30 28516 H 2692.23 -1.83014 -4.91535 0
M  V30 28517 H 2693.7 -0.228623 -5.51526 0
M  V30 28518 H 2694.18 0.943761 -4.2894 0
M  V30 28519 H 2694.78 -0.725522 -4.19066 0
M  V30 28520 N 2693.1 1.4662 -0.577957 0
M  V30 28521 C 2694.51 1.86096 -0.150104 0
M  V30 28522 C 2694.86 1.48212 1.2856 0
M  V30 28523 O 2693.99 0.894788 1.97034 0
M  V30 28524 C 2694.58 3.37757 -0.265636 0
M  V30 28525 C 2693.14 3.76247 0.107314 0
M  V30 28526 C 2692.29 2.70647 -0.603758 0
M  V30 28527 H 2695.24 1.37842 -0.786462 0
M  V30 28528 H 2695.26 3.77063 0.510286 0
M  V30 28529 H 2694.77 3.65299 -1.31066 0
M  V30 28530 H 2692.87 3.54323 1.15266 0
M  V30 28531 H 2692.98 4.78363 -0.265694 0
M  V30 28532 H 2691.35 2.54661 -0.0445331 0
M  V30 28533 H 2692.13 3.01029 -1.65034 0
M  V30 28534 N 2694.58 0.315484 1.5441 0
M  V30 28535 C 2695.8 -0.29446 2.05299 0
M  V30 28536 C 2696.23 -1.45628 1.19055 0
M  V30 28537 O 2695.58 -1.80217 0.197835 0
M  V30 28538 C 2695.63 -0.714487 3.53451 0
M  V30 28539 O 2694.74 -1.81774 3.70178 0
M  V30 28540 H 2694.08 -0.0546902 0.661744 0
M  V30 28541 H 2696.61 0.461543 1.99326 0
M  V30 28542 H 2696.62 -0.999357 3.95572 0
M  V30 28543 H 2695.29 0.135317 4.1568 0
M  V30 28544 H 2693.87 -1.5323 3.39963 0
M  V30 28545 N 2696.05 -1.5754 0.0434891 0
M  V30 28546 C 2697.3 -1.92385 -0.632001 0
M  V30 28547 C 2697.63 -0.921187 -1.71302 0
M  V30 28548 O 2696.88 0.0677096 -1.95583 0
M  V30 28549 C 2697.18 -3.33932 -1.27374 0
M  V30 28550 C 2696.85 -4.49751 -0.321678 0
M  V30 28551 C 2695.51 -4.81163 -0.0596765 0
M  V30 28552 C 2697.86 -5.20146 0.33125 0
M  V30 28553 C 2695.19 -5.80321 0.862817 0
M  V30 28554 C 2697.54 -6.2029 1.24189 0
M  V30 28555 C 2696.21 -6.50135 1.51264 0
M  V30 28556 H 2695.48 -0.703987 -0.231266 0
M  V30 28557 H 2698.12 -1.91193 0.108327 0
M  V30 28558 H 2696.43 -3.31454 -2.08915 0
M  V30 28559 H 2698.13 -3.5817 -1.8032 0
M  V30 28560 H 2694.72 -4.25234 -0.536065 0
M  V30 28561 H 2698.9 -4.96097 0.141913 0
M  V30 28562 H 2694.16 -6.01783 1.08014 0
M  V30 28563 H 2698.33 -6.73951 1.75393 0
M  V30 28564 H 2695.96 -7.26784 2.22909 0
M  V30 28565 N 2697.53 0.229818 -1.55915 0
M  V30 28566 C 2698.48 1.30441 -1.92582 0
M  V30 28567 C 2699.47 1.4895 -0.806865 0
M  V30 28568 O 2700.68 1.50222 -0.991633 0
M  V30 28569 H 2697.06 0.43715 -0.611886 0
M  V30 28570 H 2699.03 0.96792 -2.82266 0
M  V30 28571 C 2697.78 2.64936 -2.25176 0
M  V30 28572 H 2697.1 2.51499 -3.10787 0
M  V30 28573 H 2698.54 3.38958 -2.54722 0
M  V30 28574 C 2697 3.19323 -1.074 0
M  V30 28575 O 2697.53 4.00335 -0.330829 0
M  V30 28576 N 2695.73 2.77582 -0.860033 0
M  V30 28577 H 2695.28 2.1181 -1.46609 0
M  V30 28578 H 2695.24 3.14314 -0.0737224 0
M  V30 28579 N 2699.01 1.49585 0.49619 0
M  V30 28580 C 2699.96 1.67101 1.61802 0
M  V30 28581 C 2700.95 0.536905 1.60666 0
M  V30 28582 O 2702.16 0.716683 1.65117 0
M  V30 28583 H 2698.53 0.526996 0.536451 0
M  V30 28584 H 2700.5 2.61255 1.44182 0
M  V30 28585 C 2699.25 1.75926 2.99909 0
M  V30 28586 H 2698.58 2.62571 3.01491 0
M  V30 28587 H 2700.02 1.92215 3.77928 0
M  V30 28588 C 2698.48 0.505146 3.33091 0
M  V30 28589 O 2699.01 -0.367015 4.0002 0
M  V30 28590 N 2697.21 0.36665 2.88278 0
M  V30 28591 H 2696.76 1.07739 2.33987 0
M  V30 28592 H 2696.72 -0.471366 3.10846 0
M  V30 28593 N 2700.49 -0.747586 1.3874 0
M  V30 28594 C 2701.77 -1.49784 1.25794 0
M  V30 28595 C 2702.15 -2.10648 -0.138038 0
M  V30 28596 O 2701.49 -1.97562 -1.14811 0
M  V30 28597 C 2701.7 -2.55938 2.37269 0
M  V30 28598 C 2703.05 -3.22674 2.75983 0
M  V30 28599 O 2704.08 -2.66246 2.36625 0
M  V30 28600 O 2702.93 -4.2475 3.43875 0
M  V30 28601 H 2700.03 -0.664535 0.492263 0
M  V30 28602 H 2702.57 -0.782484 1.50583 0
M  V30 28603 H 2701.35 -2.09255 3.30648 0
M  V30 28604 H 2700.97 -3.35048 2.14077 0
M  V30 28605 N 2701.97 -1.23709 -0.97642 0
M  V30 28606 C 2703.38 -1.0659 -1.53282 0
M  V30 28607 C 2703.73 0.365492 -1.92766 0
M  V30 28608 O 2702.85 1.25274 -1.76452 0
M  V30 28609 C 2703.45 -1.92869 -2.78544 0
M  V30 28610 C 2702.01 -1.8 -3.30571 0
M  V30 28611 C 2701.15 -1.88331 -2.03535 0
M  V30 28612 H 2704.11 -1.37313 -0.795668 0
M  V30 28613 H 2704.13 -1.45583 -3.51548 0
M  V30 28614 H 2703.64 -2.97041 -2.49776 0
M  V30 28615 H 2701.74 -0.786266 -3.6421 0
M  V30 28616 H 2701.85 -2.63607 -4.0006 0
M  V30 28617 H 2700.22 -1.31958 -2.17851 0
M  V30 28618 H 2701 -2.94067 -1.77143 0
M  V30 28619 N 2703.44 1.17579 -1.04943 0
M  V30 28620 C 2704.67 1.91702 -0.778328 0
M  V30 28621 C 2705.09 1.76676 0.665666 0
M  V30 28622 O 2704.44 1.10224 1.45454 0
M  V30 28623 C 2704.5 3.42843 -1.14634 0
M  V30 28624 O 2704.22 3.57404 -2.53365 0
M  V30 28625 C 2705.72 4.34047 -0.901007 0
M  V30 28626 H 2702.94 0.608318 -0.283178 0
M  V30 28627 H 2705.48 1.49117 -1.39944 0
M  V30 28628 H 2703.64 3.83183 -0.57002 0
M  V30 28629 H 2704.05 4.5103 -2.67717 0
M  V30 28630 H 2705.52 5.38614 -1.20827 0
M  V30 28631 H 2706 4.38894 0.163889 0
M  V30 28632 H 2706.61 3.99417 -1.46104 0
M  V30 28633 N 2704.92 0.830104 1.33967 0
M  V30 28634 C 2706.15 0.434808 2.0228 0
M  V30 28635 C 2706.57 -0.96139 1.62489 0
M  V30 28636 O 2705.92 -1.62335 0.833878 0
M  V30 28637 C 2705.97 0.535687 3.57509 0
M  V30 28638 O 2705.69 1.87686 3.9586 0
M  V30 28639 C 2707.2 0.136215 4.43091 0
M  V30 28640 H 2704.42 0.173624 0.648148 0
M  V30 28641 H 2706.96 1.12025 1.71087 0
M  V30 28642 H 2705.11 -0.101749 3.87266 0
M  V30 28643 H 2705.53 1.85618 4.90557 0
M  V30 28644 H 2707 0.257869 5.51397 0
M  V30 28645 H 2707.48 -0.921 4.29435 0
M  V30 28646 H 2708.09 0.747736 4.18675 0
M  V30 28647 N 2706.4 -1.46311 0.585725 0
M  V30 28648 C 2707.33 -2.28463 -0.183647 0
M  V30 28649 C 2708.35 -1.38688 -0.852615 0
M  V30 28650 O 2709.54 -1.63261 -0.721672 0
M  V30 28651 C 2706.64 -3.1381 -1.27971 0
M  V30 28652 C 2705.81 -4.31728 -0.702088 0
M  V30 28653 C 2704.87 -4.9845 -1.68624 0
M  V30 28654 O 2703.89 -5.55947 -1.22111 0
M  V30 28655 N 2705.1 -4.95735 -3.02039 0
M  V30 28656 H 2707.86 -2.95134 0.521178 0
M  V30 28657 H 2705.42 -1.56257 0.423701 0
M  V30 28658 H 2707.41 -3.55311 -1.93743 0
M  V30 28659 H 2705.98 -2.49194 -1.88736 0
M  V30 28660 H 2705.2 -3.93975 0.13317 0
M  V30 28661 H 2706.49 -5.07938 -0.296012 0
M  V30 28662 H 2705.89 -4.50272 -3.42449 0
M  V30 28663 H 2704.45 -5.41167 -3.63292 0
M  V30 28664 N 2707.88 -0.323668 -1.54241 0
M  V30 28665 C 2709.13 0.279288 -2.00868 0
M  V30 28666 C 2709.46 1.51778 -1.21149 0
M  V30 28667 O 2708.73 1.92268 -0.293813 0
M  V30 28668 C 2709.02 0.613324 -3.54838 0
M  V30 28669 C 2708.87 -0.635882 -4.45283 0
M  V30 28670 C 2710.19 1.43092 -4.16188 0
M  V30 28671 H 2707.31 0.100036 -0.730179 0
M  V30 28672 H 2709.95 -0.440267 -1.84829 0
M  V30 28673 H 2708.1 1.22635 -3.68637 0
M  V30 28674 H 2709.77 -1.27414 -4.43355 0
M  V30 28675 H 2708.01 -1.26474 -4.14954 0
M  V30 28676 H 2708.69 -0.357694 -5.5084 0
M  V30 28677 H 2711.16 0.912743 -4.05966 0
M  V30 28678 H 2710.04 1.63341 -5.24033 0
M  V30 28679 H 2710.3 2.42708 -3.6952 0
M  V30 28680 N 2709.36 1.57515 -0.0518432 0
M  V30 28681 C 2710.29 2.14601 0.920246 0
M  V30 28682 C 2711.27 1.06785 1.32404 0
M  V30 28683 O 2712.45 1.34728 1.39864 0
M  V30 28684 C 2709.58 2.69154 2.19485 0
M  V30 28685 C 2708.54 3.81959 1.93109 0
M  V30 28686 C 2707.86 4.23031 3.2703 0
M  V30 28687 C 2709.16 5.07068 1.25217 0
M  V30 28688 H 2710.86 2.96078 0.444749 0
M  V30 28689 H 2708.4 1.42424 0.212483 0
M  V30 28690 H 2710.36 3.0773 2.87889 0
M  V30 28691 H 2709.08 1.8487 2.69241 0
M  V30 28692 H 2707.74 3.43856 1.27117 0
M  V30 28693 H 2707.39 3.35697 3.74589 0
M  V30 28694 H 2707.09 4.99061 3.1018 0
M  V30 28695 H 2708.61 4.64209 3.96665 0
M  V30 28696 H 2710.03 5.43087 1.83656 0
M  V30 28697 H 2708.42 5.88245 1.18691 0
M  V30 28698 H 2709.49 4.84362 0.228297 0
M  V30 28699 N 2710.84 -0.221546 1.56035 0
M  V30 28700 C 2712.06 -0.966994 1.83477 0
M  V30 28701 C 2712.49 -1.77159 0.632171 0
M  V30 28702 O 2711.84 -1.76391 -0.419051 0
M  V30 28703 C 2711.89 -1.86029 3.0891 0
M  V30 28704 O 2711 -2.95562 2.87605 0
M  V30 28705 H 2710.34 -0.273807 0.604918 0
M  V30 28706 H 2712.87 -0.234858 2.03248 0
M  V30 28707 H 2712.88 -2.2701 3.39014 0
M  V30 28708 H 2711.55 -1.26891 3.9607 0
M  V30 28709 H 2710.13 -2.58527 2.68734 0
M  V30 28710 N 2712.31 -1.49846 -0.48825 0
M  V30 28711 C 2713.56 -1.59219 -1.23823 0
M  V30 28712 C 2713.88 -0.29 -1.93438 0
M  V30 28713 O 2715.08 -0.26243 -2.70229 0
M  V30 28714 C 2713.54 -2.8098 -2.24897 0
M  V30 28715 C 2713.15 -4.18008 -1.61162 0
M  V30 28716 C 2714.89 -2.9969 -3.00643 0
M  V30 28717 C 2712.8 -5.30975 -2.60422 0
M  V30 28718 H 2711.73 -0.592876 -0.465847 0
M  V30 28719 H 2714.38 -1.76253 -0.510614 0
M  V30 28720 H 2712.76 -2.57468 -3.00876 0
M  V30 28721 H 2713.93 -4.51707 -0.910888 0
M  V30 28722 H 2712.25 -4.04762 -0.977599 0
M  V30 28723 H 2714.85 -3.81257 -3.74896 0
M  V30 28724 H 2715.19 -2.10745 -3.59016 0
M  V30 28725 H 2715.72 -3.23301 -2.31778 0
M  V30 28726 H 2712.46 -6.2202 -2.06812 0
M  V30 28727 H 2711.98 -5.01715 -3.28698 0
M  V30 28728 H 2713.66 -5.60839 -3.22596 0
M  V30 28729 N 2713.79 0.740218 -1.39135 0
M  V30 28730 C 2715.07 1.49115 -1.26587 0
M  V30 28731 C 2715.45 2.10718 0.126865 0
M  V30 28732 O 2714.8 1.98168 1.13762 0
M  V30 28733 C 2715.01 2.54676 -2.38623 0
M  V30 28734 C 2716.35 3.21206 -2.77691 0
M  V30 28735 O 2717.38 2.64987 -2.38034 0
M  V30 28736 O 2716.24 4.2292 -3.46122 0
M  V30 28737 H 2713.33 0.661915 -0.49578 0
M  V30 28738 H 2715.88 0.774488 -1.50996 0
M  V30 28739 H 2714.65 2.07498 -3.31753 0
M  V30 28740 H 2714.27 3.33908 -2.1585 0
M  V30 28741 N 2715.27 1.24225 0.969846 0
M  V30 28742 C 2716.52 1.08226 1.71508 0
M  V30 28743 C 2716.85 -0.378346 1.90479 0
M  V30 28744 O 2716.12 -1.27969 1.46473 0
M  V30 28745 C 2716.41 1.82019 3.10711 0
M  V30 28746 C 2716.26 3.35817 2.99244 0
M  V30 28747 C 2717.58 1.59115 4.1033 0
M  V30 28748 H 2714.7 0.394554 0.622492 0
M  V30 28749 H 2717.34 1.52865 1.12837 0
M  V30 28750 H 2715.49 1.44075 3.60797 0
M  V30 28751 H 2717.16 3.83345 2.56601 0
M  V30 28752 H 2715.4 3.64307 2.35505 0
M  V30 28753 H 2716.08 3.82648 3.9785 0
M  V30 28754 H 2718.55 1.92118 3.69093 0
M  V30 28755 H 2717.43 2.13207 5.058 0
M  V30 28756 H 2717.69 0.52891 4.38925 0
M  V30 28757 N 2716.75 -1.1702 1.05565 0
M  V30 28758 C 2717.98 -1.91287 0.788484 0
M  V30 28759 C 2718.39 -1.77026 -0.656287 0
M  V30 28760 O 2717.75 -1.10994 -1.44867 0
M  V30 28761 C 2717.8 -3.4223 1.1645 0
M  V30 28762 O 2717.52 -3.56056 2.55257 0
M  V30 28763 C 2719.02 -4.33563 0.924013 0
M  V30 28764 H 2716.24 -0.606808 0.2864 0
M  V30 28765 H 2718.78 -1.48373 1.40733 0
M  V30 28766 H 2716.94 -3.82876 0.590333 0
M  V30 28767 H 2717.35 -4.49604 2.70105 0
M  V30 28768 H 2718.83 -5.37965 1.23682 0
M  V30 28769 H 2719.3 -4.38975 -0.140611 0
M  V30 28770 H 2719.91 -3.98636 1.48221 0
M  V30 28771 N 2718.23 -0.837197 -1.33524 0
M  V30 28772 C 2719.5 -0.354099 -1.92368 0
M  V30 28773 C 2719.88 1.16034 -1.7635 0
M  V30 28774 O 2719.23 1.97401 -1.15087 0
M  V30 28775 C 2719.44 -0.79916 -3.39727 0
M  V30 28776 C 2720.79 -0.806213 -4.16876 0
M  V30 28777 O 2721.81 -0.742658 -3.48372 0
M  V30 28778 O 2720.67 -0.89244 -5.39164 0
M  V30 28779 H 2717.77 -0.0998523 -0.82095 0
M  V30 28780 H 2720.31 -0.922938 -1.42408 0
M  V30 28781 H 2719.08 -1.84168 -3.4525 0
M  V30 28782 H 2718.71 -0.2068 -3.97062 0
M  V30 28783 N 2719.7 1.45999 -0.593476 0
M  V30 28784 C 2721.12 1.57534 -0.255992 0
M  V30 28785 C 2721.32 1.58699 1.24164 0
M  V30 28786 O 2720.38 1.50972 2.02395 0
M  V30 28787 C 2721.69 2.8645 -0.914711 0
M  V30 28788 C 2723.24 3.00101 -0.889306 0
M  V30 28789 C 2723.71 4.31768 -1.52777 0
M  V30 28790 N 2725.2 4.38492 -1.4926 0
M  V30 28791 C 2725.94 5.3901 -1.9559 0
M  V30 28792 N 2725.43 6.46144 -2.49941 0
M  V30 28793 N 2727.23 5.30279 -1.86442 0
M  V30 28794 H 2719.38 1.43486 -1.56606 0
M  V30 28795 H 2721.64 0.685122 -0.655219 0
M  V30 28796 H 2721.35 2.91439 -1.96866 0
M  V30 28797 H 2721.22 3.74748 -0.429422 0
M  V30 28798 H 2723.61 2.94687 0.156059 0
M  V30 28799 H 2723.69 2.13251 -1.41272 0
M  V30 28800 H 2723.33 4.37939 -2.57239 0
M  V30 28801 H 2723.26 5.1741 -0.979489 0
M  V30 28802 H 2725.75 3.61675 -1.09542 0
M  V30 28803 H 2726.07 7.1907 -2.83122 0
M  V30 28804 H 2724.41 6.46934 -2.53972 0
M  V30 28805 H 2727.6 4.45488 -1.4373 0
M  V30 28806 H 2727.78 6.08471 -2.22862 0
M  V30 28807 N 2721.18 0.331843 1.54067 0
M  V30 28808 C 2722.13 -0.545781 2.26106 0
M  V30 28809 C 2723.12 -1.1117 1.27818 0
M  V30 28810 O 2724.33 -1.05879 1.45567 0
M  V30 28811 H 2720.71 -0.19467 0.726366 0
M  V30 28812 H 2722.68 0.0839834 2.98282 0
M  V30 28813 C 2721.43 -1.69087 3.03817 0
M  V30 28814 H 2720.75 -1.26466 3.79271 0
M  V30 28815 H 2722.19 -2.28037 3.57457 0
M  V30 28816 C 2720.65 -2.61339 2.12611 0
M  V30 28817 O 2721.18 -3.63277 1.71443 0
M  V30 28818 N 2719.38 -2.2976 1.77929 0
M  V30 28819 H 2718.93 -1.46905 2.11605 0
M  V30 28820 H 2718.89 -2.91745 1.17185 0
M  V30 28821 N 2722.66 -1.57485 0.0601958 0
M  V30 28822 C 2723.91 -1.92221 -0.611067 0
M  V30 28823 C 2724.22 -0.941189 -1.71467 0
M  V30 28824 O 2725.43 -1.18093 -2.44471 0
M  V30 28825 C 2723.88 -3.41426 -1.13826 0
M  V30 28826 C 2723.49 -4.47951 -0.0662809 0
M  V30 28827 C 2725.24 -3.85182 -1.78425 0
M  V30 28828 C 2723.14 -5.88278 -0.606862 0
M  V30 28829 H 2722.07 -0.717414 -0.232021 0
M  V30 28830 H 2724.72 -1.83035 0.13055 0
M  V30 28831 H 2723.11 -3.45646 -1.93247 0
M  V30 28832 H 2724.28 -4.55332 0.707762 0
M  V30 28833 H 2722.6 -4.13592 0.482788 0
M  V30 28834 H 2725.19 -4.87398 -2.19881 0
M  V30 28835 H 2725.54 -3.21917 -2.6396 0
M  V30 28836 H 2726.07 -3.83516 -1.05644 0
M  V30 28837 H 2722.81 -6.5516 0.211065 0
M  V30 28838 H 2722.33 -5.8444 -1.34869 0
M  V30 28839 H 2724.01 -6.37805 -1.08693 0
M  V30 28840 N 2724.14 0.213268 -1.5615 0
M  V30 28841 C 2725.36 0.95725 -1.83988 0
M  V30 28842 C 2725.79 1.76821 -0.641557 0
M  V30 28843 O 2725.15 1.7661 0.409691 0
M  V30 28844 C 2725.19 1.84388 -3.09893 0
M  V30 28845 O 2724.3 2.94033 -2.89168 0
M  V30 28846 H 2723.64 0.270595 -0.606362 0
M  V30 28847 H 2726.17 0.224076 -2.03369 0
M  V30 28848 H 2726.18 2.25209 -3.40213 0
M  V30 28849 H 2724.85 1.24788 -3.96738 0
M  V30 28850 H 2723.43 2.57098 -2.70101 0
M  V30 28851 N 2725.62 1.50103 0.480296 0
M  V30 28852 C 2726.55 1.71218 1.58766 0
M  V30 28853 C 2727.53 0.561025 1.60582 0
M  V30 28854 O 2728.71 0.799158 1.76995 0
M  V30 28855 C 2725.84 1.79783 2.97145 0
M  V30 28856 C 2724.8 2.94894 3.10196 0
M  V30 28857 C 2724.12 2.88592 4.50132 0
M  V30 28858 C 2725.42 4.35539 2.88276 0
M  V30 28859 H 2727.12 2.63933 1.4135 0
M  V30 28860 H 2724.66 1.2701 0.678569 0
M  V30 28861 H 2726.62 1.9314 3.74533 0
M  V30 28862 H 2725.34 0.836827 3.15697 0
M  V30 28863 H 2724 2.81173 2.35239 0
M  V30 28864 H 2723.65 1.90357 4.65589 0
M  V30 28865 H 2723.35 3.65864 4.59801 0
M  V30 28866 H 2724.87 3.03985 5.29552 0
M  V30 28867 H 2726.28 4.49834 3.55419 0
M  V30 28868 H 2724.68 5.14191 3.09399 0
M  V30 28869 H 2725.75 4.48547 1.84211 0
M  V30 28870 N 2727.09 -0.732829 1.39526 0
M  V30 28871 C 2728.04 -1.83804 1.34908 0
M  V30 28872 C 2729.03 -1.59254 0.229574 0
M  V30 28873 O 2730.22 -1.7072 0.467285 0
M  V30 28874 C 2727.35 -3.21754 1.19704 0
M  V30 28875 C 2726.44 -3.52126 2.36365 0
M  V30 28876 N 2726.83 -3.5342 3.6184 0
M  V30 28877 C 2725.12 -3.82499 2.2937 0
M  V30 28878 C 2725.83 -3.81648 4.38999 0
M  V30 28879 N 2724.8 -3.99531 3.68613 0
M  V30 28880 H 2728.6 -1.83112 2.29885 0
M  V30 28881 H 2726.12 -0.93117 1.33053 0
M  V30 28882 H 2728.11 -4.00874 1.14479 0
M  V30 28883 H 2726.77 -3.23683 0.256796 0
M  V30 28884 H 2727.79 -3.3468 3.95234 0
M  V30 28885 H 2724.46 -3.9202 1.43619 0
M  V30 28886 H 2725.85 -3.89098 5.4777 0
M  V30 28887 N 2728.57 -1.24737 -0.963244 0
M  V30 28888 C 2729.52 -1.04142 -2.07984 0
M  V30 28889 C 2730.51 0.0250258 -1.69382 0
M  V30 28890 O 2731.72 -0.129894 -1.79531 0
M  V30 28891 H 2728.1 -0.31978 -0.680621 0
M  V30 28892 H 2730.07 -1.98822 -2.22514 0
M  V30 28893 C 2728.82 -0.667675 -3.41229 0
M  V30 28894 H 2728.14 -1.48007 -3.71395 0
M  V30 28895 H 2729.58 -0.56321 -4.20243 0
M  V30 28896 C 2728.04 0.625589 -3.31041 0
M  V30 28897 O 2728.57 1.67009 -3.65337 0
M  V30 28898 N 2726.77 0.607983 -2.84169 0
M  V30 28899 H 2726.32 -0.242368 -2.56457 0
M  V30 28900 H 2726.28 1.47347 -2.77734 0
M  V30 28901 N 2730.05 1.16459 -1.06184 0
M  V30 28902 C 2731.3 1.86963 -0.777895 0
M  V30 28903 C 2731.63 1.81637 0.69557 0
M  V30 28904 O 2730.88 1.2261 1.5253 0
M  V30 28905 C 2731.18 3.36064 -1.21639 0
M  V30 28906 C 2730.85 3.61589 -2.69378 0
M  V30 28907 C 2729.51 3.68264 -3.09733 0
M  V30 28908 C 2731.86 3.72253 -3.64797 0
M  V30 28909 C 2729.19 3.83104 -4.44352 0
M  V30 28910 C 2731.54 3.88614 -4.99161 0
M  V30 28911 C 2730.2 3.93531 -5.39156 0
M  V30 28912 H 2729.47 0.684145 -0.284652 0
M  V30 28913 H 2732.12 1.37709 -1.33074 0
M  V30 28914 H 2730.43 3.87442 -0.582719 0
M  V30 28915 H 2732.12 3.88998 -0.97375 0
M  V30 28916 H 2728.71 3.57025 -2.37131 0
M  V30 28917 H 2732.9 3.66407 -3.34753 0
M  V30 28918 H 2728.15 3.85163 -4.74825 0
M  V30 28919 H 2732.33 3.95807 -5.72983 0
M  V30 28920 H 2729.95 4.04782 -6.43471 0
M  V30 28921 N 2731.53 0.844266 1.33079 0
M  V30 28922 C 2732.76 0.456238 2.01807 0
M  V30 28923 C 2733.17 -0.944102 1.635 0
M  V30 28924 O 2732.53 -1.61442 0.851049 0
M  V30 28925 C 2732.58 0.573576 3.56921 0
M  V30 28926 O 2732.3 1.91874 3.93847 0
M  V30 28927 C 2733.8 0.183203 4.42921 0
M  V30 28928 H 2731.02 0.180489 0.64627 0
M  V30 28929 H 2733.57 1.13833 1.69889 0
M  V30 28930 H 2731.72 -0.0606686 3.87352 0
M  V30 28931 H 2732.13 1.90811 4.88561 0
M  V30 28932 H 2733.61 0.316337 5.51093 0
M  V30 28933 H 2734.09 -0.875401 4.30387 0
M  V30 28934 H 2734.69 0.7921 4.17859 0
M  V30 28935 N 2733.01 -1.45682 0.60121 0
M  V30 28936 C 2734.23 -2.07167 0.0982609 0
M  V30 28937 C 2734.66 -1.44398 -1.20544 0
M  V30 28938 O 2734.01 -0.534378 -1.73246 0
M  V30 28939 C 2734.06 -3.60583 -0.0346342 0
M  V30 28940 O 2733.17 -3.9783 -1.0865 0
M  V30 28941 H 2732.51 -0.660174 0.0711734 0
M  V30 28942 H 2735.04 -1.87035 0.829409 0
M  V30 28943 H 2735.05 -4.07323 -0.234897 0
M  V30 28944 H 2733.72 -4.05657 0.917336 0
M  V30 28945 H 2732.3 -3.62771 -0.863211 0
M  V30 28946 N 2734.48 -0.340009 -1.53889 0
M  V30 28947 C 2735.41 0.510816 -2.27844 0
M  V30 28948 C 2736.4 1.1056 -1.29269 0
M  V30 28949 O 2737.58 1.12766 -1.58106 0
M  V30 28950 C 2734.71 1.66367 -3.0486 0
M  V30 28951 C 2733.66 1.19739 -4.10909 0
M  V30 28952 C 2732.99 2.43848 -4.75859 0
M  V30 28953 C 2734.29 0.30041 -5.21435 0
M  V30 28954 H 2735.98 -0.10612 -2.99212 0
M  V30 28955 H 2733.53 -0.0524786 -1.43904 0
M  V30 28956 H 2735.48 2.26531 -3.55333 0
M  V30 28957 H 2734.21 2.30745 -2.31137 0
M  V30 28958 H 2732.87 0.618591 -3.61343 0
M  V30 28959 H 2732.51 3.06626 -3.98735 0
M  V30 28960 H 2732.21 2.13333 -5.47506 0
M  V30 28961 H 2733.74 3.04744 -5.29115 0
M  V30 28962 H 2735.15 0.80879 -5.67566 0
M  V30 28963 H 2733.55 0.0873021 -6.00036 0
M  V30 28964 H 2734.62 -0.664406 -4.80327 0
M  V30 28965 N 2735.96 1.57451 -0.0685468 0
M  V30 28966 C 2737.19 1.9769 0.610427 0
M  V30 28967 C 2737.61 0.946787 1.63344 0
M  V30 28968 O 2736.96 -0.0669548 1.82377 0
M  V30 28969 C 2737.01 3.38008 1.2819 0
M  V30 28970 O 2736.74 4.37073 0.299829 0
M  V30 28971 C 2738.24 3.93104 2.049 0
M  V30 28972 H 2735.46 0.650224 0.165678 0
M  V30 28973 H 2738 2.0402 -0.139989 0
M  V30 28974 H 2736.16 3.32775 1.98342 0
M  V30 28975 H 2736.57 5.1865 0.781169 0
M  V30 28976 H 2738.04 4.93515 2.47279 0
M  V30 28977 H 2738.52 3.2947 2.90424 0
M  V30 28978 H 2739.13 4.01729 1.39622 0
M  V30 28979 N 2737.44 -0.204984 1.56261 0
M  V30 28980 C 2738.69 -0.923773 1.81213 0
M  V30 28981 C 2739.04 -1.81299 0.644096 0
M  V30 28982 O 2738.34 -1.88165 -0.361175 0
M  V30 28983 C 2738.53 -1.7834 3.09725 0
M  V30 28984 C 2738.36 -0.978902 4.38916 0
M  V30 28985 C 2737.13 -0.667244 5.00875 0
M  V30 28986 C 2739.33 -0.336296 5.13199 0
M  V30 28987 N 2737.31 0.156922 6.13699 0
M  V30 28988 C 2738.68 0.350511 6.19008 0
M  V30 28989 C 2740.73 -0.251013 4.97267 0
M  V30 28990 C 2739.44 1.11447 7.10614 0
M  V30 28991 C 2741.46 0.499517 5.89287 0
M  V30 28992 C 2740.83 1.17481 6.94534 0
M  V30 28993 H 2736.92 -0.317751 0.714533 0
M  V30 28994 H 2739.51 -0.193283 1.93738 0
M  V30 28995 H 2737.68 -2.48557 2.98452 0
M  V30 28996 H 2739.41 -2.44092 3.22802 0
M  V30 28997 H 2736.17 -0.989285 4.63152 0
M  V30 28998 H 2736.59 0.558325 6.74694 0
M  V30 28999 H 2741.23 -0.75875 4.15936 0
M  V30 29000 H 2738.95 1.63366 7.91415 0
M  V30 29001 H 2742.54 0.566729 5.79033 0
M  V30 29002 H 2741.42 1.74627 7.6451 0
M  V30 29003 N 2738.92 -1.50356 -0.472329 0
M  V30 29004 C 2740.17 -1.60524 -1.22127 0
M  V30 29005 C 2740.48 -0.3105 -1.9312 0
M  V30 29006 O 2741.69 -0.291076 -2.69935 0
M  V30 29007 C 2740.14 -2.83349 -2.21904 0
M  V30 29008 C 2739.75 -4.19694 -1.5672 0
M  V30 29009 C 2741.5 -3.02862 -2.97448 0
M  V30 29010 C 2739.4 -5.33707 -2.54775 0
M  V30 29011 H 2738.33 -0.597784 -0.459533 0
M  V30 29012 H 2740.98 -1.76784 -0.491891 0
M  V30 29013 H 2739.37 -2.60645 -2.98128 0
M  V30 29014 H 2740.54 -4.52648 -0.862928 0
M  V30 29015 H 2738.85 -4.05776 -0.934613 0
M  V30 29016 H 2741.45 -3.85212 -3.70831 0
M  V30 29017 H 2741.79 -2.14541 -3.56761 0
M  V30 29018 H 2742.33 -3.25741 -2.28336 0
M  V30 29019 H 2739.07 -6.24179 -2.00203 0
M  V30 29020 H 2738.59 -5.05173 -3.23358 0
M  V30 29021 H 2740.27 -5.64229 -3.16629 0
M  V30 29022 N 2740.4 0.725419 -1.39912 0
M  V30 29023 C 2741.62 1.51968 -1.4114 0
M  V30 29024 C 2742.05 1.88097 -0.010295 0
M  V30 29025 O 2741.41 1.52585 0.979157 0
M  V30 29026 C 2741.45 2.77773 -2.29945 0
M  V30 29027 O 2740.56 3.74085 -1.73593 0
M  V30 29028 H 2739.9 0.458561 -0.480227 0
M  V30 29029 H 2742.43 0.894217 -1.84024 0
M  V30 29030 H 2742.44 3.26407 -2.44791 0
M  V30 29031 H 2741.11 2.5081 -3.31764 0
M  V30 29032 H 2739.69 3.32891 -1.68041 0
M  V30 29033 N 2741.88 1.25246 0.956615 0
M  V30 29034 C 2743.1 1.12611 1.73569 0
M  V30 29035 C 2743.52 -0.320292 1.86063 0
M  V30 29036 O 2742.88 -1.22039 1.35693 0
M  V30 29037 C 2742.93 1.77274 3.1505 0
M  V30 29038 O 2742.65 3.1626 3.03169 0
M  V30 29039 C 2744.15 1.70393 4.09245 0
M  V30 29040 H 2741.37 0.392888 0.543948 0
M  V30 29041 H 2743.91 1.6557 1.20028 0
M  V30 29042 H 2742.07 1.2829 3.65541 0
M  V30 29043 H 2742.48 3.48022 3.92404 0
M  V30 29044 H 2743.96 2.203 5.06134 0
M  V30 29045 H 2744.43 0.667315 4.34101 0
M  V30 29046 H 2745.04 2.18855 3.64668 0
M  V30 29047 N 2743.35 -1.15894 1.068 0
M  V30 29048 C 2744.28 -2.22612 0.704716 0
M  V30 29049 C 2745.26 -1.67339 -0.305222 0
M  V30 29050 O 2746.45 -1.93371 -0.179213 0
M  V30 29051 C 2743.58 -3.47168 0.0957935 0
M  V30 29052 C 2742.53 -4.15365 1.03227 0
M  V30 29053 C 2741.86 -5.33933 0.286386 0
M  V30 29054 C 2743.16 -4.65764 2.3635 0
M  V30 29055 H 2744.85 -2.53256 1.59693 0
M  V30 29056 H 2742.4 -1.2173 0.769278 0
M  V30 29057 H 2744.35 -4.21056 -0.170259 0
M  V30 29058 H 2743.08 -3.15839 -0.831461 0
M  V30 29059 H 2741.74 -3.43411 1.28315 0
M  V30 29060 H 2741.38 -4.98858 -0.644149 0
M  V30 29061 H 2741.08 -5.80502 0.910538 0
M  V30 29062 H 2742.61 -6.10594 0.0280011 0
M  V30 29063 H 2744.02 -5.31207 2.15619 0
M  V30 29064 H 2742.42 -5.22975 2.94308 0
M  V30 29065 H 2743.49 -3.817 2.99054 0
M  V30 29066 O 2744.87 -0.985561 -1.27941 0
M  V30 29067 H 2745.56 -0.632035 -1.83098 0
M  V30 END ATOM
M  V30 BEGIN BOND
M  V30 END BOND
M  V30 END CTAB
M  END
$$$$
