drugbank_target|O43447 Peptidyl-prolyl cis-trans isomerase H (DB00172)
 OpenBabel12092120093D

  0  0  0     0  0            999 V3000
M  V30 BEGIN CTAB
M  V30 COUNTS 2688 2719 0 0 0
M  V30 BEGIN ATOM
M  V30 1 H -0.908 1.98254 -0.117106 0
M  V30 2 N 0 1.576 0 0
M  V30 3 C 0.933 2.03868 1.02534 0
M  V30 4 C 1.911 0.928543 1.3348 0
M  V30 5 O 3.095 1.19667 1.45644 0
M  V30 6 C 0.222 2.43627 2.35294 0
M  V30 7 C -0.732 3.65373 2.2001 0
M  V30 8 S 0.101 5.13292 1.52614 0
M  V30 9 C 1.257 5.56322 2.86805 0
M  V30 10 H 1.49 2.90518 0.631377 0
M  V30 11 H -0.977 1.52953 0.210867 0
M  V30 12 H 0.981 2.67203 3.11629 0
M  V30 13 H -0.358 1.57376 2.7183 0
M  V30 14 H -1.165 3.90944 3.18086 0
M  V30 15 H -1.563 3.418 1.51819 0
M  V30 16 H 0.729 5.58782 3.83104 0
M  V30 17 H 1.672 6.56266 2.65933 0
M  V30 18 H 2.08 4.83886 2.90714 0
M  V30 19 N 1.4781 -0.272755 1.55222 0
M  V30 20 C 2.4411 -1.32041 1.87344 0
M  V30 21 C 3.4411 -1.42342 0.74803 0
M  V30 22 O 4.6311 -1.41488 1.0162 0
M  V30 23 C 1.7631 -2.70173 2.07893 0
M  V30 24 H 2.9561 -1.04789 2.80997 0
M  V30 25 H 0.5091 -0.51083 1.47717 0
M  V30 26 H 1.2441 -3.02605 1.16622 0
M  V30 27 H 1.0291 -2.64082 2.89833 0
M  V30 28 H 2.5191 -3.45869 2.34017 0
M  V30 29 N 2.9562 -1.48159 -0.537278 0
M  V30 30 C 4.2022 -1.56035 -1.29541 0
M  V30 31 C 4.5352 -0.230377 -1.92829 0
M  V30 32 O 3.8102 0.762952 -1.78911 0
M  V30 33 C 4.0932 -2.69323 -2.39034 0
M  V30 34 C 3.9462 -4.12002 -1.80485 0
M  V30 35 C 5.2652 -2.78408 -3.40847 0
M  V30 36 H 2.3842 -0.567992 -0.469632 0
M  V30 37 H 5.0262 -1.80302 -0.599277 0
M  V30 38 H 3.1762 -2.48763 -2.98412 0
M  V30 39 H 4.8482 -4.43981 -1.25215 0
M  V30 40 H 3.0912 -4.19344 -1.11055 0
M  V30 41 H 3.7622 -4.87077 -2.59731 0
M  V30 42 H 6.2382 -2.97012 -2.91416 0
M  V30 43 H 5.1142 -3.59416 -4.14863 0
M  V30 44 H 5.3752 -1.86269 -4.00944 0
M  V30 45 N 4.4343 0.785586 -1.36625 0
M  V30 46 C 5.3973 1.87999 -1.31107 0
M  V30 47 C 6.3973 1.59316 -0.217959 0
M  V30 48 O 7.5873 1.67656 -0.472977 0
M  V30 49 C 4.7193 3.24861 -1.03334 0
M  V30 50 H 5.9123 1.94307 -2.2844 0
M  V30 51 H 3.4653 0.983813 -1.21453 0
M  V30 52 H 4.2003 3.24235 -0.0647432 0
M  V30 53 H 3.9853 3.4707 -1.82441 0
M  V30 54 H 5.4753 4.04929 -1.02088 0
M  V30 55 N 5.9124 1.20967 1.01018 0
M  V30 56 C 6.8604 0.961223 2.1181 0
M  V30 57 C 7.8544 -0.0897034 1.69162 0
M  V30 58 O 9.0604 0.0612271 1.79896 0
M  V30 59 H 5.4354 0.29355 0.692338 0
M  V30 60 H 7.4064 1.90178 2.29946 0
M  V30 61 C 6.1554 0.536854 3.4353 0
M  V30 62 H 5.4784 1.33713 3.76777 0
M  V30 63 H 6.9184 0.402286 4.22087 0
M  V30 64 C 5.3774 -0.751574 3.2841 0
M  V30 65 O 5.9074 -1.80841 3.58691 0
M  V30 66 N 4.1134 -0.716079 2.81639 0
M  V30 67 H 3.6604 0.144236 2.57196 0
M  V30 68 H 3.6184 -1.57847 2.71904 0
M  V30 69 N 7.3905 -1.2043 1.01659 0
M  V30 70 C 8.6155 -1.94318 0.724942 0
M  V30 71 C 9.0405 -1.74266 -0.708034 0
M  V30 72 O 8.3985 -1.03694 -1.48719 0
M  V30 73 C 8.4465 -3.44486 1.06591 0
M  V30 74 O 7.5505 -4.12017 0.177599 0
M  V30 75 H 6.8915 -0.60708 0.26898 0
M  V30 76 H 9.4215 -1.52861 1.35995 0
M  V30 77 H 9.4315 -3.95106 1.01762 0
M  V30 78 H 8.1065 -3.58404 2.10997 0
M  V30 79 H 6.6835 -3.71821 0.283421 0
M  V30 80 N 8.8686 -0.792821 -1.36206 0
M  V30 81 C 10.0936 -0.377701 -2.03932 0
M  V30 82 C 10.5186 0.998947 -1.59382 0
M  V30 83 O 9.8766 1.64421 -0.763903 0
M  V30 84 C 9.9246 -0.453635 -3.57735 0
M  V30 85 O 9.0286 0.538151 -4.08874 0
M  V30 86 H 8.3696 -0.159855 -0.644471 0
M  V30 87 H 10.8996 -1.07488 -1.7409 0
M  V30 88 H 10.9096 -0.318464 -4.06755 0
M  V30 89 H 9.5846 -1.45784 -3.89512 0
M  V30 90 H 8.1616 0.364359 -3.71116 0
M  V30 91 N 10.3467 1.47872 -0.545128 0
M  V30 92 C 11.7577 1.86384 -0.108581 0
M  V30 93 C 12.1087 1.45309 1.31832 0
M  V30 94 O 11.2337 0.850641 1.9898 0
M  V30 95 C 11.8287 3.38265 -0.190274 0
M  V30 96 C 10.3877 3.75914 0.191164 0
M  V30 97 C 9.5347 2.71926 -0.543273 0
M  V30 98 H 12.4857 1.39561 -0.755537 0
M  V30 99 H 12.5067 3.75831 0.594217 0
M  V30 100 H 12.0187 3.6813 -1.2289 0
M  V30 101 H 10.1197 3.51665 1.23136 0
M  V30 102 H 10.2327 4.78836 -0.158987 0
M  V30 103 H 8.5967 2.54697 0.0122495 0
M  V30 104 H 9.3797 3.04634 -1.58282 0
M  V30 105 N 11.8248 0.280983 1.55075 0
M  V30 106 C 13.0708 -0.33461 2.00021 0
M  V30 107 C 13.4038 -1.55063 1.16915 0
M  V30 108 O 12.6788 -1.93006 0.240646 0
M  V30 109 C 12.9618 -0.711007 3.53011 0
M  V30 110 C 12.8148 0.512766 4.46868 0
M  V30 111 C 14.1338 -1.54522 4.12081 0
M  V30 112 H 11.2528 -0.120147 0.727141 0
M  V30 113 H 13.8948 0.389097 1.85973 0
M  V30 114 H 12.0448 -1.32761 3.65112 0
M  V30 115 H 13.7168 1.15131 4.46702 0
M  V30 116 H 11.9598 1.14975 4.18286 0
M  V30 117 H 12.6308 0.205556 5.51617 0
M  V30 118 H 15.1068 -1.02442 4.03293 0
M  V30 119 H 13.9828 -1.77739 5.19327 0
M  V30 120 H 14.2438 -2.52813 3.62682 0
M  V30 121 N 13.3029 -1.57598 0.00835791 0
M  V30 122 C 14.2509 -2.10078 -0.998508 0
M  V30 123 C 15.2449 -1.02262 -1.35051 0
M  V30 124 O 16.4509 -1.20719 -1.33518 0
M  V30 125 H 12.8259 -0.670903 -0.339696 0
M  V30 126 H 14.7969 -2.93648 -0.530398 0
M  V30 127 C 13.5459 -2.62615 -2.27879 0
M  V30 128 H 12.8689 -3.45213 -2.01662 0
M  V30 129 H 14.3089 -3.03004 -2.96588 0
M  V30 130 C 12.7679 -1.54407 -2.99433 0
M  V30 131 O 13.2979 -0.931812 -3.90743 0
M  V30 132 N 11.5039 -1.2695 -2.61404 0
M  V30 133 H 11.0509 -1.76924 -1.87232 0
M  V30 134 H 11.0089 -0.547704 -3.09593 0
M  V30 135 N 14.781 0.264519 -1.55364 0
M  V30 136 C 16.192 0.834936 -1.6699 0
M  V30 137 C 16.543 1.86718 -0.602552 0
M  V30 138 O 15.668 2.14899 0.254425 0
M  V30 139 C 16.263 1.5212 -3.02729 0
M  V30 140 C 14.822 2.03954 -3.16354 0
M  V30 141 C 13.969 0.884498 -2.62815 0
M  V30 142 H 16.92 0.0406869 -1.58648 0
M  V30 143 H 16.941 2.38853 -2.96191 0
M  V30 144 H 16.453 0.769668 -3.80392 0
M  V30 145 H 14.554 2.82041 -2.43482 0
M  V30 146 H 14.667 2.24902 -4.23032 0
M  V30 147 H 13.031 1.2802 -2.20188 0
M  V30 148 H 13.814 0.14634 -3.42988 0
M  V30 149 N 16.2591 1.48442 0.529413 0
M  V30 150 C 17.5051 1.5672 1.28711 0
M  V30 151 C 17.8381 0.2406 1.92704 0
M  V30 152 O 17.1131 -0.753454 1.79313 0
M  V30 153 C 17.3961 2.70587 2.37603 0
M  V30 154 C 17.2491 4.12953 1.78297 0
M  V30 155 C 18.5681 2.80212 3.39366 0
M  V30 156 H 15.6871 0.570474 0.466613 0
M  V30 157 H 18.3291 1.80617 0.589706 0
M  V30 158 H 16.4791 2.50342 2.97088 0
M  V30 159 H 18.1511 4.44639 1.22858 0
M  V30 160 H 16.3941 4.19927 1.0883 0
M  V30 161 H 17.0651 4.88448 2.57144 0
M  V30 162 H 19.5411 2.98553 2.89836 0
M  V30 163 H 18.4171 3.61611 4.12951 0
M  V30 164 H 18.6781 1.88393 3.99951 0
M  V30 165 N 17.7372 -0.778329 1.37039 0
M  V30 166 C 18.9832 -1.53892 1.32079 0
M  V30 167 C 19.3162 -1.9396 -0.0965386 0
M  V30 168 O 18.5912 -1.63568 -1.05242 0
M  V30 169 C 18.8742 -2.80847 2.25382 0
M  V30 170 C 18.7272 -2.47076 3.75864 0
M  V30 171 C 20.0462 -3.82741 2.1725 0
M  V30 172 H 17.1652 -0.558303 0.48111 0
M  V30 173 H 19.8072 -0.893397 1.67685 0
M  V30 174 H 17.9572 -3.35931 1.95148 0
M  V30 175 H 19.6292 -1.97957 4.16666 0
M  V30 176 H 17.8722 -1.79863 3.94755 0
M  V30 177 H 18.5432 -3.37798 4.36574 0
M  V30 178 H 21.0192 -3.37133 2.43887 0
M  V30 179 H 19.8952 -4.69303 2.84686 0
M  V30 180 H 20.1562 -4.2652 1.16331 0
M  V30 181 N 19.2153 -1.21501 -1.00376 0
M  V30 182 C 20.4623 -1.03299 -1.74171 0
M  V30 183 C 20.7903 0.433326 -1.89612 0
M  V30 184 O 20.0453 1.33779 -1.42834 0
M  V30 185 C 20.3443 -1.67673 -3.15627 0
M  V30 186 C 20.0103 -3.17533 -3.2013 0
M  V30 187 C 18.6723 -3.58427 -3.21067 0
M  V30 188 C 21.0243 -4.13504 -3.17275 0
M  V30 189 C 18.3523 -4.93794 -3.16835 0
M  V30 190 C 20.7043 -5.48834 -3.14585 0
M  V30 191 C 19.3683 -5.89123 -3.13831 0
M  V30 192 H 18.6383 -0.377999 -0.637336 0
M  V30 193 H 21.2853 -1.51111 -1.17634 0
M  V30 194 H 19.5903 -1.12158 -3.75404 0
M  V30 195 H 21.2873 -1.51091 -3.71446 0
M  V30 196 H 17.8773 -2.84965 -3.20145 0
M  V30 197 H 22.0613 -3.82936 -3.15711 0
M  V30 198 H 17.3173 -5.24255 -3.1459 0
M  V30 199 H 21.4913 -6.22934 -3.1133 0
M  V30 200 H 19.1183 -6.93984 -3.10307 0
M  V30 201 N 20.6934 1.19889 -1.02296 0
M  V30 202 C 21.9404 1.8942 -0.715972 0
M  V30 203 C 22.2684 1.79251 0.754944 0
M  V30 204 O 21.5234 1.17526 1.56481 0
M  V30 205 C 21.8224 3.39883 -1.10518 0
M  V30 206 C 21.4884 3.70254 -2.57337 0
M  V30 207 C 20.1504 3.78254 -2.97452 0
M  V30 208 C 22.5024 3.84052 -3.52354 0
M  V30 209 C 19.8304 3.97514 -4.31509 0
M  V30 210 C 22.1824 4.04824 -4.86108 0
M  V30 211 C 20.8464 4.11054 -5.25919 0
M  V30 212 H 20.1164 0.693138 -0.261993 0
M  V30 213 H 22.7634 1.42012 -1.28472 0
M  V30 214 H 21.0684 3.8915 -0.454953 0
M  V30 215 H 22.7654 3.9199 -0.845261 0
M  V30 216 H 19.3554 3.64632 -2.25258 0
M  V30 217 H 23.5394 3.77221 -3.22518 0
M  V30 218 H 18.7954 4.00574 -4.61898 0
M  V30 219 H 22.9694 4.14442 -5.59653 0
M  V30 220 H 20.5964 4.2573 -6.29808 0
M  V30 221 N 22.1715 0.800033 1.35784 0
M  V30 222 C 23.4485 0.30088 1.93272 0
M  V30 223 C 23.8285 -1.20857 1.73081 0
M  V30 224 O 23.1765 -2.00502 1.09596 0
M  V30 225 C 23.3865 0.70511 3.41803 0
M  V30 226 C 24.7345 0.690871 4.18942 0
M  V30 227 O 25.7585 0.646244 3.50289 0
M  V30 228 O 24.6175 0.74332 5.41421 0
M  V30 229 H 21.7115 0.0771605 0.823393 0
M  V30 230 H 24.2575 0.88329 1.449 0
M  V30 231 H 23.0295 1.74571 3.50201 0
M  V30 232 H 22.6525 0.0971541 3.97481 0
M  V30 233 N 23.6496 -1.47581 0.552962 0
M  V30 234 C 24.8956 -2.02782 0.0273648 0
M  V30 235 C 25.2286 -1.42687 -1.31734 0
M  V30 236 O 24.5036 -0.580897 -1.85623 0
M  V30 237 C 24.7866 -3.60031 -0.0702371 0
M  V30 238 C 24.6396 -4.30566 1.30126 0
M  V30 239 C 25.9586 -4.33028 -0.785771 0
M  V30 240 H 23.0776 -0.736912 0.0114185 0
M  V30 241 H 25.7196 -1.76056 0.714432 0
M  V30 242 H 23.8696 -3.82932 -0.655382 0
M  V30 243 H 25.5416 -4.19018 1.92929 0
M  V30 244 H 23.7846 -3.91086 1.87709 0
M  V30 245 H 24.4556 -5.39114 1.18573 0
M  V30 246 H 26.9316 -4.15095 -0.288982 0
M  V30 247 H 25.8076 -5.42695 -0.823013 0
M  V30 248 H 26.0686 -4.01945 -1.841 0
M  V30 249 N 25.1277 -0.289203 -1.54924 0
M  V30 250 C 26.3527 0.329299 -2.04769 0
M  V30 251 C 26.7777 1.4763 -1.16564 0
M  V30 252 O 26.1357 1.80527 -0.167186 0
M  V30 253 C 26.1837 0.774438 -3.52186 0
M  V30 254 O 25.2877 1.88038 -3.67036 0
M  V30 255 H 24.6287 0.0659259 -0.660719 0
M  V30 256 H 27.1587 -0.42761 -2.00082 0
M  V30 257 H 27.1687 1.06642 -3.93816 0
M  V30 258 H 25.8437 -0.0646707 -4.1585 0
M  V30 259 H 24.4207 1.58985 -3.3731 0
M  V30 260 N 26.6058 1.57591 -0.0167156 0
M  V30 261 C 27.8548 1.90461 0.663877 0
M  V30 262 C 28.1678 0.893515 1.73999 0
M  V30 263 O 29.3738 1.11302 2.47637 0
M  V30 264 C 27.8298 3.38155 1.23204 0
M  V30 265 C 27.4378 4.47597 0.189866 0
M  V30 266 C 29.1818 3.80111 1.88986 0
M  V30 267 C 27.0888 5.86379 0.768964 0
M  V30 268 H 26.0188 0.710738 0.251729 0
M  V30 269 H 28.6698 1.83326 -0.0799926 0
M  V30 270 H 27.0518 3.40182 2.02712 0
M  V30 271 H 28.2258 4.57112 -0.581846 0
M  V30 272 H 26.5408 4.14766 -0.368475 0
M  V30 273 H 29.1378 4.81145 2.33247 0
M  V30 274 H 29.4808 3.14511 2.72743 0
M  V30 275 H 30.0138 3.80454 1.16187 0
M  V30 276 H 26.7528 6.55493 -0.0301957 0
M  V30 277 H 26.2728 5.80496 1.50945 0
M  V30 278 H 27.9518 6.34563 1.26251 0
M  V30 279 N 28.0839 -0.256276 1.55502 0
M  V30 280 C 29.3319 -0.983672 1.76545 0
M  V30 281 C 29.6529 -1.86206 0.578982 0
M  V30 282 O 28.9229 -1.91656 -0.405577 0
M  V30 283 H 27.5029 -0.366191 0.651086 0
M  V30 284 H 30.1649 -0.276479 1.92929 0
M  V30 285 H 29.2609 -1.61087 2.67315 0
M  V30 286 N 29.562 -1.4872 -0.521534 0
M  V30 287 C 30.81 -1.56857 -1.27437 0
M  V30 288 C 31.131 -0.247982 -1.93417 0
M  V30 289 O 30.401 0.731151 -1.81744 0
M  V30 290 H 28.981 -0.577885 -0.473347 0
M  V30 291 H 31.643 -1.85233 -0.606205 0
M  V30 292 H 30.739 -2.35402 -2.0492 0
M  V30 293 N 31.0401 0.771051 -1.3745 0
M  V30 294 C 31.9721 1.89352 -1.29146 0
M  V30 295 C 32.9851 1.61477 -0.207124 0
M  V30 296 O 34.1741 1.72382 -0.463324 0
M  V30 297 C 31.2741 3.24596 -0.974195 0
M  V30 298 C 30.4471 3.80111 -2.16413 0
M  V30 299 C 29.5061 4.93832 -1.81703 0
M  V30 300 O 28.5321 5.09382 -2.54006 0
M  V30 301 N 29.7341 5.75483 -0.761573 0
M  V30 302 H 32.4991 1.96991 -2.25864 0
M  V30 303 H 30.0601 0.950191 -1.31084 0
M  V30 304 H 32.0521 3.98193 -0.722828 0
M  V30 305 H 30.6221 3.12454 -0.0955527 0
M  V30 306 H 29.8421 2.98284 -2.57721 0
M  V30 307 H 31.1301 4.13932 -2.95867 0
M  V30 308 H 30.5281 5.65469 -0.161609 0
M  V30 309 H 29.0851 6.49302 -0.570064 0
M  V30 310 N 32.5182 1.22032 0.997298 0
M  V30 311 C 33.4282 1.00271 2.12092 0
M  V30 312 C 34.4442 -0.047621 1.73935 0
M  V30 313 O 35.6202 0.144136 2.00884 0
M  V30 314 C 32.6852 0.578449 3.4184 0
M  V30 315 C 31.7462 1.70189 3.94125 0
M  V30 316 C 30.9792 1.29778 5.17681 0
M  V30 317 O 31.2022 0.174676 5.70132 0
M  V30 318 O 30.1362 2.11261 5.63607 0
M  V30 319 H 33.9622 1.94398 2.3333 0
M  V30 320 H 31.5472 1.00587 1.10465 0
M  V30 321 H 33.4292 0.351998 4.19927 0
M  V30 322 H 32.1042 -0.334019 3.21972 0
M  V30 323 H 31.0112 1.98282 3.1723 0
M  V30 324 H 32.3442 2.59206 4.18417 0
M  V30 325 N 33.9963 -1.19345 1.0293 0
M  V30 326 C 35.2423 -1.89318 0.727083 0
M  V30 327 C 35.5753 -1.79446 -0.742483 0
M  V30 328 O 34.8503 -1.1871 -1.54072 0
M  V30 329 C 35.1333 -3.40238 1.17942 0
M  V30 330 C 34.9863 -3.58979 2.71024 0
M  V30 331 C 36.3053 -4.33479 0.760548 0
M  V30 332 H 33.4243 -0.687475 0.265606 0
M  V30 333 H 36.0663 -1.40477 1.2793 0
M  V30 334 H 34.2163 -3.81964 0.709608 0
M  V30 335 H 35.8883 -3.26421 3.25955 0
M  V30 336 H 34.1313 -3.02018 3.11396 0
M  V30 337 H 34.8023 -4.64823 2.9773 0
M  V30 338 H 37.2783 -3.99469 1.16464 0
M  V30 339 H 36.1543 -5.37664 1.10493 0
M  V30 340 H 36.4153 -4.40813 -0.337063 0
M  V30 341 N 35.4744 -0.807222 -1.35358 0
M  V30 342 C 36.7224 -0.387122 -1.98358 0
M  V30 343 C 37.0434 1.04942 -1.64354 0
M  V30 344 O 36.3134 1.72615 -0.926339 0
M  V30 345 H 34.8934 -0.140154 -0.733734 0
M  V30 346 H 37.5554 -1.0332 -1.6526 0
M  V30 347 H 36.6514 -0.493352 -3.08176 0
M  V30 348 N 36.9525 1.47285 -0.560781 0
M  V30 349 C 38.3685 1.58065 -0.22081 0
M  V30 350 C 38.5685 1.55892 1.27671 0
M  V30 351 O 37.6245 1.46422 2.0571 0
M  V30 352 C 38.9375 2.88418 -0.850625 0
M  V30 353 C 40.4855 3.02009 -0.822184 0
M  V30 354 C 40.9605 4.35066 -1.43113 0
M  V30 355 N 42.4515 4.41711 -1.39448 0
M  V30 356 C 43.1865 5.43237 -1.83525 0
M  V30 357 N 42.6825 6.51555 -2.35474 0
M  V30 358 N 44.4755 5.34304 -1.74574 0
M  V30 359 H 36.6265 1.46941 -1.53369 0
M  V30 360 H 38.8895 0.699558 -0.639783 0
M  V30 361 H 38.5955 2.95755 -1.9032 0
M  V30 362 H 38.4695 3.75612 -0.345773 0
M  V30 363 H 40.8565 2.94266 0.221714 0
M  V30 364 H 40.9375 2.16347 -1.36483 0
M  V30 365 H 40.5815 4.43565 -2.47412 0
M  V30 366 H 40.5115 5.19465 -0.863899 0
M  V30 367 H 43.0025 3.64027 -1.01452 0
M  V30 368 H 43.3155 7.25203 -2.67021 0
M  V30 369 H 41.6605 6.52435 -2.39487 0
M  V30 370 H 44.8515 4.48581 -1.33763 0
M  V30 371 H 45.0245 6.13288 -2.09242 0
M  V30 372 N 38.4306 0.297415 1.54768 0
M  V30 373 C 39.3636 -0.622188 2.19554 0
M  V30 374 C 40.3416 -1.13558 1.16376 0
M  V30 375 O 41.5256 -1.20444 1.45002 0
M  V30 376 C 38.6526 -1.8509 2.83653 0
M  V30 377 C 37.6986 -1.47106 4.00328 0
M  V30 378 S 38.5316 -0.53006 5.3287 0
M  V30 379 C 39.6876 -1.76665 6.0045 0
M  V30 380 H 39.9206 -0.0717806 2.97213 0
M  V30 381 H 37.4536 0.0815678 1.54184 0
M  V30 382 H 39.4116 -2.55605 3.21211 0
M  V30 383 H 38.0726 -2.37247 2.05846 0
M  V30 384 H 37.2656 -2.38594 4.43947 0
M  V30 385 H 36.8676 -0.845885 3.64309 0
M  V30 386 H 39.1596 -2.7077 6.21039 0
M  V30 387 H 40.1026 -1.37308 6.9466 0
M  V30 388 H 40.5106 -1.94174 5.30054 0
M  V30 389 N 39.9087 -1.5758 0.0250728 0
M  V30 390 C 40.8557 -2.09973 -0.958129 0
M  V30 391 C 41.8257 -1.00085 -1.3256 0
M  V30 392 O 43.0107 -1.27481 -1.41962 0
M  V30 393 C 40.1507 -2.62812 -2.2366 0
M  V30 394 C 39.2637 -3.86693 -1.92594 0
M  V30 395 C 38.3987 -4.27941 -3.14707 0
M  V30 396 C 37.4377 -5.44591 -2.79442 0
M  V30 397 N 36.5747 -5.81014 -3.94167 0
M  V30 398 H 41.4147 -2.937 -0.504428 0
M  V30 399 H 38.9517 -1.45172 -0.237392 0
M  V30 400 H 40.9097 -2.91536 -2.98434 0
M  V30 401 H 39.5397 -1.81922 -2.66654 0
M  V30 402 H 38.5917 -3.64723 -1.0808 0
M  V30 403 H 39.9037 -4.71547 -1.62619 0
M  V30 404 H 39.0577 -4.58079 -3.97804 0
M  V30 405 H 37.7967 -3.41845 -3.4784 0
M  V30 406 H 36.8017 -5.1415 -1.94755 0
M  V30 407 H 38.0267 -6.32382 -2.47528 0
M  V30 408 H 35.9727 -4.97874 -4.2715 0
M  V30 409 H 35.8897 -6.60498 -3.67801 0
M  V30 410 H 37.1577 -6.15756 -4.7798 0
M  V30 411 N 41.3868 0.248026 -1.55636 0
M  V30 412 C 42.6358 0.974134 -1.76617 0
M  V30 413 C 42.9488 1.86528 -0.588796 0
M  V30 414 O 44.1548 2.62805 -0.681594 0
M  V30 415 C 42.6108 1.78213 -3.12679 0
M  V30 416 C 42.2188 0.93843 -4.38061 0
M  V30 417 C 43.9628 2.50104 -3.42999 0
M  V30 418 C 41.8698 1.74225 -5.65155 0
M  V30 419 H 40.7998 0.36745 -0.658405 0
M  V30 420 H 43.4508 0.22884 -1.82067 0
M  V30 421 H 41.8328 2.56933 -3.01333 0
M  V30 422 H 43.0068 0.193635 -4.60393 0
M  V30 423 H 41.3218 0.332905 -4.15067 0
M  V30 424 H 43.9188 3.10694 -4.3517 0
M  V30 425 H 44.2618 3.21662 -2.64271 0
M  V30 426 H 44.7948 1.78395 -3.55556 0
M  V30 427 H 41.5338 1.07043 -6.46701 0
M  V30 428 H 41.0538 2.46235 -5.46926 0
M  V30 429 H 42.7328 2.30967 -6.0437 0
M  V30 430 N 42.8649 1.48995 0.513639 0
M  V30 431 C 43.7749 1.67443 1.64317 0
M  V30 432 C 44.7909 0.556947 1.64846 0
M  V30 433 O 45.9669 0.830082 1.83498 0
M  V30 434 C 43.0319 1.72515 3.00732 0
M  V30 435 C 42.0929 2.96009 3.1093 0
M  V30 436 C 41.3259 3.00829 4.40837 0
M  V30 437 O 41.5489 2.13594 5.28898 0
M  V30 438 O 40.4829 3.93168 4.55744 0
M  V30 439 H 44.3089 2.63106 1.51687 0
M  V30 440 H 41.8939 1.32588 0.688543 0
M  V30 441 H 43.7759 1.78277 3.81831 0
M  V30 442 H 42.4509 0.800278 3.13651 0
M  V30 443 H 41.3579 2.9577 2.29065 0
M  V30 444 H 42.6909 3.87934 3.02933 0
M  V30 445 N 44.343 -0.763751 1.37857 0
M  V30 446 C 45.273 -1.89103 1.36975 0
M  V30 447 C 46.254 -1.68439 0.237152 0
M  V30 448 O 47.439 -1.8918 0.438713 0
M  V30 449 C 44.569 -3.26496 1.18395 0
M  V30 450 C 43.523 -3.61741 2.28751 0
M  V30 451 C 42.849 -4.97762 1.95286 0
M  V30 452 C 44.149 -3.67665 3.70972 0
M  V30 453 H 45.843 -1.90099 2.31307 0
M  V30 454 H 43.389 -0.91319 1.11341 0
M  V30 455 H 45.342 -4.05003 1.16406 0
M  V30 456 H 44.066 -3.25955 0.205215 0
M  V30 457 H 42.725 -2.85547 2.29909 0
M  V30 458 H 42.373 -4.93769 0.959221 0
M  V30 459 H 42.073 -5.22313 2.69189 0
M  V30 460 H 43.597 -5.7866 1.94898 0
M  V30 461 H 45.011 -4.36307 3.719 0
M  V30 462 H 43.408 -4.03718 4.43995 0
M  V30 463 H 44.478 -2.68134 4.0402 0
M  V30 464 N 45.8211 -1.22559 -0.990812 0
M  V30 465 C 47.0681 -1.05141 -1.73065 0
M  V30 466 C 47.3961 0.413191 -1.9006 0
M  V30 467 O 46.6511 1.32257 -1.44245 0
M  V30 468 C 46.9501 -1.71011 -3.13831 0
M  V30 469 C 46.6161 -3.20911 -3.16745 0
M  V30 470 C 45.2781 -3.61812 -3.17247 0
M  V30 471 C 47.6301 -4.16846 -3.12872 0
M  V30 472 C 44.9581 -4.97127 -3.1158 0
M  V30 473 C 47.3101 -5.5214 -3.08746 0
M  V30 474 C 45.9741 -5.92419 -3.07565 0
M  V30 475 H 45.2441 -0.384738 -0.633291 0
M  V30 476 H 47.8911 -1.5235 -1.16025 0
M  V30 477 H 46.1961 -1.16133 -3.74193 0
M  V30 478 H 47.8931 -1.55023 -3.69823 0
M  V30 479 H 44.4831 -2.88344 -3.17105 0
M  V30 480 H 48.6671 -3.86263 -3.11632 0
M  V30 481 H 43.9231 -5.27562 -3.09012 0
M  V30 482 H 48.0971 -6.26201 -3.04705 0
M  V30 483 H 45.7241 -6.97236 -3.02929 0
M  V30 484 N 47.2992 1.18797 -1.03562 0
M  V30 485 C 48.2622 2.20464 -0.626769 0
M  V30 486 C 49.2622 1.57721 0.313173 0
M  V30 487 O 50.4522 1.73917 0.0992615 0
M  V30 488 C 47.5842 3.40802 0.0818498 0
M  V30 489 H 48.7772 2.58149 -1.5264 0
M  V30 490 H 46.3302 1.32593 -0.827578 0
M  V30 491 H 47.0652 3.08642 0.995518 0
M  V30 492 H 46.8502 3.8758 -0.593652 0
M  V30 493 H 48.3402 4.16092 0.354584 0
M  V30 494 N 48.7773 0.814389 1.34928 0
M  V30 495 C 50.0543 0.321363 1.92942 0
M  V30 496 C 50.4343 -1.19014 1.74353 0
M  V30 497 O 49.7823 -1.99328 1.11716 0
M  V30 498 C 49.9923 0.741323 3.41036 0
M  V30 499 C 51.3403 0.735266 4.18185 0
M  V30 500 O 52.3643 0.68336 3.49584 0
M  V30 501 O 51.2233 0.800703 5.40602 0
M  V30 502 H 48.3173 0.0858893 0.822528 0
M  V30 503 H 50.8633 0.898609 1.43955 0
M  V30 504 H 49.6353 1.78276 3.4833 0
M  V30 505 H 49.2583 0.139307 3.97356 0
M  V30 506 N 50.2554 -1.46986 0.568584 0
M  V30 507 C 51.5014 -2.02741 0.0488709 0
M  V30 508 C 51.8344 -1.44077 -1.30214 0
M  V30 509 O 51.1094 -0.600552 -1.84996 0
M  V30 510 C 51.3924 -3.60086 -0.032047 0
M  V30 511 C 51.2454 -4.29162 1.34686 0
M  V30 512 C 52.5644 -4.33838 -0.739798 0
M  V30 513 H 49.6834 -0.736749 0.0192338 0
M  V30 514 H 52.3254 -1.75289 0.733065 0
M  V30 515 H 50.4754 -3.83606 -0.61473 0
M  V30 516 H 52.1474 -4.16948 1.97362 0
M  V30 517 H 50.3904 -3.89073 1.91846 0
M  V30 518 H 51.0614 -5.37826 1.24285 0
M  V30 519 H 53.5374 -4.15378 -0.244939 0
M  V30 520 H 52.4134 -5.43537 -0.765406 0
M  V30 521 H 52.6744 -4.03875 -1.79827 0
M  V30 522 N 51.7335 -0.305618 -1.54608 0
M  V30 523 C 52.9795 0.302746 -2.00528 0
M  V30 524 C 53.3125 1.53184 -1.19367 0
M  V30 525 O 52.5875 1.92598 -0.271321 0
M  V30 526 C 52.8705 0.654756 -3.54097 0
M  V30 527 C 52.7235 -0.583793 -4.45995 0
M  V30 528 C 54.0425 1.47947 -4.14487 0
M  V30 529 H 51.1615 0.108564 -0.72896 0
M  V30 530 H 53.8035 -0.418634 -1.85331 0
M  V30 531 H 51.9535 1.26935 -3.67178 0
M  V30 532 H 53.6255 -1.22224 -4.44814 0
M  V30 533 H 51.8685 -1.21615 -4.16404 0
M  V30 534 H 52.5395 -0.293287 -5.5122 0
M  V30 535 H 55.0155 0.96013 -4.04871 0
M  V30 536 H 53.8915 1.69454 -5.22088 0
M  V30 537 H 54.1525 2.47011 -3.66658 0
M  V30 538 N 53.2116 1.57565 -0.0334293 0
M  V30 539 C 54.6226 1.79746 0.504798 0
M  V30 540 C 54.9736 0.944091 1.71992 0
M  V30 541 O 54.0986 0.155694 2.15839 0
M  V30 542 C 54.6936 3.25997 0.922567 0
M  V30 543 C 53.2526 3.49159 1.40588 0
M  V30 544 C 52.3996 2.74785 0.372633 0
M  V30 545 H 55.3506 1.56565 -0.259436 0
M  V30 546 H 55.3716 3.35945 1.78666 0
M  V30 547 H 54.8836 3.88081 0.0379825 0
M  V30 548 H 52.9846 2.92332 2.31025 0
M  V30 549 H 53.0976 4.57873 1.41028 0
M  V30 550 H 51.4616 2.40391 0.841672 0
M  V30 551 H 52.2446 3.39587 -0.503559 0
M  V30 552 N 54.6897 -0.239769 1.55765 0
M  V30 553 C 55.6367 -1.29696 1.90913 0
M  V30 554 C 56.6067 -1.47478 0.764164 0
M  V30 555 O 57.7917 -1.61345 1.01845 0
M  V30 556 C 54.9317 -2.64598 2.21544 0
M  V30 557 C 54.0447 -2.54765 3.48882 0
M  V30 558 C 53.1797 -3.82069 3.69049 0
M  V30 559 C 52.2187 -3.66883 4.89963 0
M  V30 560 N 51.3557 -4.86094 5.06614 0
M  V30 561 H 56.1957 -0.990224 2.81067 0
M  V30 562 H 53.7327 -0.477684 1.39128 0
M  V30 563 H 55.6907 -3.43132 2.3731 0
M  V30 564 H 54.3207 -2.93405 1.34585 0
M  V30 565 H 53.3727 -1.67763 3.41409 0
M  V30 566 H 54.6847 -2.39457 4.37563 0
M  V30 567 H 53.8387 -4.69046 3.84812 0
M  V30 568 H 52.5777 -4.00282 2.78614 0
M  V30 569 H 51.5827 -2.78289 4.74168 0
M  V30 570 H 52.8077 -3.50157 5.81865 0
M  V30 571 H 50.7537 -5.04655 4.19117 0
M  V30 572 H 50.6707 -4.73443 5.89396 0
M  V30 573 H 51.9387 -5.74549 5.26795 0
M  V30 574 N 56.1678 -1.49265 -0.50573 0
M  V30 575 C 57.3958 -1.62215 -1.28429 0
M  V30 576 C 57.8108 -0.291697 -1.86533 0
M  V30 577 O 57.1678 0.722233 -1.67601 0
M  V30 578 C 57.2188 -2.68735 -2.41793 0
M  V30 579 O 56.9398 -3.96619 -1.86078 0
M  V30 580 C 58.4408 -2.92346 -3.3324 0
M  V30 581 H 55.6608 -0.546239 -0.389697 0
M  V30 582 H 58.2048 -1.95265 -0.607609 0
M  V30 583 H 56.3598 -2.38476 -3.053 0
M  V30 584 H 56.7738 -4.55256 -2.60465 0
M  V30 585 H 58.2478 -3.70623 -4.09075 0
M  V30 586 H 58.7248 -2.02081 -3.89948 0
M  V30 587 H 59.3308 -3.24003 -2.75503 0
M  V30 588 N 57.6459 0.756429 -1.3826 0
M  V30 589 C 58.6089 1.85176 -1.35065 0
M  V30 590 C 59.6089 1.58818 -0.251703 0
M  V30 591 O 60.7989 1.66615 -0.508433 0
M  V30 592 C 57.9309 3.22596 -1.10201 0
M  V30 593 H 59.1239 1.89417 -2.3251 0
M  V30 594 H 56.6769 0.95783 -1.23512 0
M  V30 595 H 57.4119 3.24025 -0.133504 0
M  V30 596 H 57.1969 3.43122 -1.89762 0
M  V30 597 H 58.6869 4.02673 -1.10654 0
M  V30 598 N 59.124 1.23083 0.984299 0
M  V30 599 C 60.034 1.02515 2.11016 0
M  V30 600 C 61.05 -0.0291702 1.73976 0
M  V30 601 O 62.226 0.165434 2.00719 0
M  V30 602 C 59.291 0.614673 3.41208 0
M  V30 603 C 58.352 1.74359 3.92297 0
M  V30 604 C 57.585 1.35261 5.16275 0
M  V30 605 O 57.808 0.235136 5.69915 0
M  V30 606 O 56.742 2.17227 5.61334 0
M  V30 607 H 60.568 1.96862 2.31255 0
M  V30 608 H 58.153 1.01753 1.09392 0
M  V30 609 H 60.035 0.396518 4.1953 0
M  V30 610 H 58.71 -0.299851 3.22308 0
M  V30 611 H 57.617 2.01635 3.1511 0
M  V30 612 H 58.95 2.63629 4.15645 0
M  V30 613 N 60.6021 -1.18246 1.0419 0
M  V30 614 C 61.5501 -2.23968 0.627792 0
M  V30 615 C 62.5441 -1.65828 -0.346019 0
M  V30 616 O 63.7501 -1.78733 -0.213175 0
M  V30 617 H 60.1251 -0.728939 0.184802 0
M  V30 618 H 62.0961 -2.56202 1.52981 0
M  V30 619 C 60.8451 -3.47699 0.00796591 0
M  V30 620 H 60.1681 -3.92734 0.748347 0
M  V30 621 H 61.6081 -4.23294 -0.24455 0
M  V30 622 C 60.0671 -3.13153 -1.24246 0
M  V30 623 O 60.5971 -3.27003 -2.33307 0
M  V30 624 N 58.8031 -2.67467 -1.13622 0
M  V30 625 H 58.3501 -2.56396 -0.248734 0
M  V30 626 H 58.3081 -2.44724 -1.97377 0
M  V30 627 N 62.0802 -0.821533 -1.34494 0
M  V30 628 C 63.3272 -0.408946 -1.98328 0
M  V30 629 C 63.6552 1.02764 -1.65136 0
M  V30 630 O 62.9102 1.73026 -0.914349 0
M  V30 631 C 63.2092 -0.556512 -3.53041 0
M  V30 632 C 62.8752 -1.95861 -4.0614 0
M  V30 633 C 61.5372 -2.34217 -4.20352 0
M  V30 634 C 63.8892 -2.87523 -4.34718 0
M  V30 635 C 61.2172 -3.63572 -4.6047 0
M  V30 636 C 63.5692 -4.1634 -4.76281 0
M  V30 637 C 62.2332 -4.54675 -4.88699 0
M  V30 638 H 61.5032 -0.149644 -0.725732 0
M  V30 639 H 64.1502 -1.04521 -1.6046 0
M  V30 640 H 62.4552 0.163148 -3.9146 0
M  V30 641 H 64.1522 -0.217826 -4.00408 0
M  V30 642 H 60.7422 -1.65066 -3.95539 0
M  V30 643 H 64.9262 -2.59133 -4.23277 0
M  V30 644 H 60.1822 -3.93101 -4.68275 0
M  V30 645 H 64.3562 -4.87455 -4.97354 0
M  V30 646 H 61.9832 -5.54959 -5.19542 0
M  V30 647 N 63.5583 1.46682 -0.576371 0
M  V30 648 C 64.9743 1.57822 -0.237562 0
M  V30 649 C 65.1743 1.57237 1.26011 0
M  V30 650 O 64.2303 1.48596 2.04146 0
M  V30 651 C 65.5433 2.87499 -0.881168 0
M  V30 652 C 67.0913 3.01119 -0.85417 0
M  V30 653 C 67.5663 4.33524 -1.4772 0
M  V30 654 N 69.0573 4.40207 -1.44125 0
M  V30 655 C 69.7923 5.4126 -1.89276 0
M  V30 656 N 69.2883 6.49021 -2.42371 0
M  V30 657 N 71.0813 5.32422 -1.80231 0
M  V30 658 H 63.2323 1.45306 -1.54919 0
M  V30 659 H 65.4953 0.692733 -0.647167 0
M  V30 660 H 65.2013 2.9372 -1.93447 0
M  V30 661 H 65.0753 3.75224 -0.385592 0
M  V30 662 H 67.4623 2.94485 0.190491 0
M  V30 663 H 67.5433 2.14887 -1.3877 0
M  V30 664 H 67.1873 4.40916 -2.52103 0
M  V30 665 H 67.1173 5.1852 -0.918947 0
M  V30 666 H 69.6083 3.62931 -1.05307 0
M  V30 667 H 69.9213 7.2233 -2.74698 0
M  V30 668 H 68.2663 6.49858 -2.46393 0
M  V30 669 H 71.4573 4.47137 -1.38514 0
M  V30 670 H 71.6303 6.11034 -2.15735 0
M  V30 671 N 65.0364 0.313813 1.54444 0
M  V30 672 C 65.9684 -0.590425 2.21465 0
M  V30 673 C 66.9814 -1.08753 1.21147 0
M  V30 674 O 68.1704 -1.00278 1.4767 0
M  V30 675 C 65.2704 -1.82179 2.85769 0
M  V30 676 C 64.4434 -1.46502 4.12136 0
M  V30 677 C 63.5024 -2.55288 4.60124 0
M  V30 678 O 62.5284 -2.19842 5.25032 0
M  V30 679 N 63.7304 -3.86053 4.33525 0
M  V30 680 H 66.4954 -0.0166033 2.99695 0
M  V30 681 H 64.0564 0.136578 1.61323 0
M  V30 682 H 66.0484 -2.54328 3.14801 0
M  V30 683 H 64.6184 -2.30369 2.11303 0
M  V30 684 H 63.8384 -0.575595 3.89975 0
M  V30 685 H 65.1264 -1.20221 4.94393 0
M  V30 686 H 64.5244 -4.17654 3.81552 0
M  V30 687 H 63.0814 -4.54461 4.67235 0
M  V30 688 N 66.5145 -1.57545 0.0417849 0
M  V30 689 C 67.7615 -1.92317 -0.634082 0
M  V30 690 C 68.0895 -0.919334 -1.71402 0
M  V30 691 O 67.3445 0.0698253 -1.95575 0
M  V30 692 C 67.6435 -3.33794 -1.27735 0
M  V30 693 C 67.3095 -4.49716 -0.326543 0
M  V30 694 C 65.9715 -4.81156 -0.0648814 0
M  V30 695 C 68.3235 -5.20182 0.325623 0
M  V30 696 C 65.6515 -5.80414 0.856539 0
M  V30 697 C 68.0035 -6.20424 1.23518 0
M  V30 698 C 66.6675 -6.50298 1.5056 0
M  V30 699 H 65.9375 -0.703736 -0.232027 0
M  V30 700 H 68.5845 -1.91205 0.106259 0
M  V30 701 H 66.8895 -3.31228 -2.09274 0
M  V30 702 H 68.5865 -3.57975 -1.80707 0
M  V30 703 H 65.1765 -4.25176 -0.540665 0
M  V30 704 H 69.3605 -4.96112 0.136546 0
M  V30 705 H 64.6165 -6.019 1.07363 0
M  V30 706 H 68.7905 -6.74141 1.74664 0
M  V30 707 H 66.4175 -7.27025 2.22123 0
M  V30 708 N 67.9926 0.231505 -1.5589 0
M  V30 709 C 69.2326 0.964533 -1.80211 0
M  V30 710 C 69.5966 1.81926 -0.613744 0
M  V30 711 O 70.7976 2.58526 -0.736045 0
M  V30 712 C 69.0686 1.78956 -3.09369 0
M  V30 713 S 70.6276 2.57959 -3.54969 0
M  V30 714 H 67.4456 0.324173 -0.632798 0
M  V30 715 H 70.0476 0.230985 -1.94131 0
M  V30 716 H 68.7516 1.15161 -3.93911 0
M  V30 717 H 68.2826 2.56559 -2.9823 0
M  V30 718 H 70.2976 3.81309 -3.17519 0
M  V30 719 N 69.4707 1.49531 0.497807 0
M  V30 720 C 70.6987 1.62893 1.27567 0
M  V30 721 C 71.1137 0.301585 1.86376 0
M  V30 722 O 70.4707 -0.713335 1.67982 0
M  V30 723 C 70.5217 2.70013 2.40364 0
M  V30 724 O 70.2427 3.976 1.83972 0
M  V30 725 C 71.7437 2.94109 3.31685 0
M  V30 726 H 68.9637 0.548298 0.386794 0
M  V30 727 H 71.5077 1.95584 0.597245 0
M  V30 728 H 69.6627 2.40092 3.04031 0
M  V30 729 H 70.0767 4.56631 2.58047 0
M  V30 730 H 71.5507 3.72788 4.07104 0
M  V30 731 H 72.0277 2.04147 3.88871 0
M  V30 732 H 72.6337 3.2546 2.73781 0
M  V30 733 N 70.9488 -0.749086 1.3866 0
M  V30 734 C 72.1968 -1.50535 1.34847 0
M  V30 735 C 72.5178 -1.94909 -0.0595016 0
M  V30 736 O 71.7878 -1.67973 -1.00806 0
M  V30 737 H 70.3678 -0.558395 0.49619 0
M  V30 738 H 73.0298 -0.890165 1.73384 0
M  V30 739 H 72.1258 -2.39413 2.00219 0
M  V30 740 N 72.4269 -1.23603 -0.977757 0
M  V30 741 C 73.3369 -1.03632 -2.1047 0
M  V30 742 C 74.3529 0.0199435 -1.73989 0
M  V30 743 O 75.5289 -0.176076 -2.00629 0
M  V30 744 C 72.5939 -0.63276 -3.40877 0
M  V30 745 C 71.6549 -1.76437 -3.91367 0
M  V30 746 C 70.8879 -1.37997 -5.15551 0
M  V30 747 O 71.1109 -0.265357 -5.69782 0
M  V30 748 O 70.0449 -2.20201 -5.60174 0
M  V30 749 H 73.8709 -1.98086 -2.30208 0
M  V30 750 H 71.4559 -1.02332 -1.08851 0
M  V30 751 H 73.3379 -0.418761 -4.19314 0
M  V30 752 H 72.0129 0.282754 -3.22463 0
M  V30 753 H 70.9199 -2.03304 -3.14036 0
M  V30 754 H 72.2529 -2.6583 -4.14241 0
M  V30 755 N 73.905 1.17692 -1.04816 0
M  V30 756 C 75.152 1.87859 -0.75599 0
M  V30 757 C 75.48 1.80812 0.716752 0
M  V30 758 O 74.735 1.20819 1.53952 0
M  V30 759 C 75.034 3.37462 -1.17703 0
M  V30 760 C 74.7 3.64713 -2.65133 0
M  V30 761 C 73.362 3.71859 -3.05408 0
M  V30 762 C 75.714 3.76492 -3.60421 0
M  V30 763 C 73.042 3.88271 -4.39843 0
M  V30 764 C 75.394 3.94421 -4.94585 0
M  V30 765 C 74.058 3.99806 -5.3452 0
M  V30 766 H 73.328 0.687425 -0.276636 0
M  V30 767 H 75.975 1.39255 -1.31455 0
M  V30 768 H 74.28 3.88097 -0.537395 0
M  V30 769 H 75.977 3.90109 -0.928218 0
M  V30 770 H 72.567 3.59772 -2.32942 0
M  V30 771 H 76.751 3.70295 -3.30447 0
M  V30 772 H 72.007 3.90687 -4.70291 0
M  V30 773 H 76.181 4.02477 -5.68318 0
M  V30 774 H 73.808 4.12276 -6.38696 0
M  V30 775 N 75.3831 0.828654 1.34056 0
M  V30 776 C 76.7991 0.515135 1.51058 0
M  V30 777 C 76.9991 -0.959581 1.77184 0
M  V30 778 O 76.0551 -1.74382 1.82612 0
M  V30 779 C 77.3681 1.37963 2.67183 0
M  V30 780 C 78.9161 1.37735 2.81066 0
M  V30 781 C 79.3911 2.22645 4.00241 0
M  V30 782 N 80.8821 2.203 4.07458 0
M  V30 783 C 81.6171 2.82744 4.98842 0
M  V30 784 N 81.1131 3.54201 5.9541 0
M  V30 785 N 82.9061 2.72268 4.91759 0
M  V30 786 H 75.0571 1.78343 1.15358 0
M  V30 787 H 77.3201 0.760304 0.566252 0
M  V30 788 H 77.0261 2.42714 2.54525 0
M  V30 789 H 76.9001 1.0484 3.62338 0
M  V30 790 H 79.2871 0.337593 2.93163 0
M  V30 791 H 79.3681 1.74859 1.86703 0
M  V30 792 H 79.0121 3.26674 3.88905 0
M  V30 793 H 78.9421 1.82869 4.93829 0
M  V30 794 H 81.4331 1.68327 3.38341 0
M  V30 795 H 81.7461 3.9908 6.61782 0
M  V30 796 H 80.0911 3.58308 5.95517 0
M  V30 797 H 83.2821 2.16014 4.15278 0
M  V30 798 H 83.4551 3.21219 5.62781 0
M  V30 799 N 76.8612 -1.46375 0.584142 0
M  V30 800 C 77.8082 -2.30323 -0.148286 0
M  V30 801 C 78.7782 -1.40703 -0.882713 0
M  V30 802 O 79.9632 -1.69651 -0.873099 0
M  V30 803 C 77.1032 -3.25196 -1.15507 0
M  V30 804 C 76.2162 -4.29915 -0.423943 0
M  V30 805 C 75.3512 -5.11914 -1.41838 0
M  V30 806 C 74.3902 -6.08381 -0.673736 0
M  V30 807 N 73.5272 -6.83242 -1.6163 0
M  V30 808 H 78.3672 -2.92427 0.573644 0
M  V30 809 H 75.9042 -1.44118 0.294703 0
M  V30 810 H 77.8622 -3.78646 -1.75166 0
M  V30 811 H 76.4922 -2.64898 -1.8447 0
M  V30 812 H 75.5442 -3.7931 0.287714 0
M  V30 813 H 76.8562 -4.98549 0.158128 0
M  V30 814 H 76.0102 -5.69648 -2.08773 0
M  V30 815 H 74.7492 -4.43243 -2.03438 0
M  V30 816 H 73.7542 -5.49799 0.00938483 0
M  V30 817 H 74.9792 -6.79071 -0.0631082 0
M  V30 818 H 72.9252 -6.1728 -2.22038 0
M  V30 819 H 72.8422 -7.48144 -1.08707 0
M  V30 820 H 74.1102 -7.45534 -2.27596 0
M  V30 821 N 78.3393 -0.321999 -1.54275 0
M  V30 822 C 79.6163 0.335232 -1.92706 0
M  V30 823 C 79.9963 1.70006 -1.25145 0
M  V30 824 O 79.3443 2.25067 -0.394596 0
M  V30 825 C 79.5543 0.429008 -3.46353 0
M  V30 826 C 80.9023 0.690029 -4.18956 0
M  V30 827 O 81.9263 0.511992 -3.52501 0
M  V30 828 O 80.7853 1.03338 -5.36641 0
M  V30 829 H 77.8793 0.191143 -0.804608 0
M  V30 830 H 80.4253 -0.3716 -1.65581 0
M  V30 831 H 79.1973 -0.529611 -3.87699 0
M  V30 832 H 78.8203 1.18348 -3.79578 0
M  V30 833 N 79.8174 1.5752 -0.0501392 0
M  V30 834 C 81.0654 1.9227 0.622642 0
M  V30 835 C 81.3864 0.929083 1.71444 0
M  V30 836 O 80.6564 -0.0262186 1.95882 0
M  V30 837 H 79.2364 0.709739 0.232981 0
M  V30 838 H 81.8984 1.94628 -0.102898 0
M  V30 839 H 80.9944 2.93479 1.06191 0
M  V30 840 N 81.2955 -0.223234 1.56011 0
M  V30 841 C 82.5415 -0.949279 1.79211 0
M  V30 842 C 82.8745 -1.84054 0.619494 0
M  V30 843 O 82.1495 -1.90726 -0.381317 0
M  V30 844 C 82.4325 -1.78965 3.12479 0
M  V30 845 C 82.2855 -0.924997 4.40186 0
M  V30 846 C 83.6045 -2.76774 3.42175 0
M  V30 847 H 80.7235 -0.343676 0.651963 0
M  V30 848 H 83.3655 -0.218253 1.88742 0
M  V30 849 H 81.5155 -2.41291 3.04485 0
M  V30 850 H 83.1875 -0.318615 4.60198 0
M  V30 851 H 81.4305 -0.230344 4.33188 0
M  V30 852 H 82.1015 -1.54735 5.29869 0
M  V30 853 H 84.5775 -2.24584 3.50287 0
M  V30 854 H 83.4535 -3.32678 4.36597 0
M  V30 855 H 83.7145 -3.54429 2.64258 0
M  V30 856 N 82.7736 -1.49793 -0.48987 0
M  V30 857 C 84.1846 -1.52914 -1.07118 0
M  V30 858 C 84.5356 -0.321738 -1.93544 0
M  V30 859 O 83.6606 0.567338 -2.08831 0
M  V30 860 C 84.2556 -2.771 -1.94938 0
M  V30 861 C 82.8146 -2.82963 -2.48212 0
M  V30 862 C 81.9616 -2.46972 -1.26096 0
M  V30 863 H 84.9126 -1.56329 -0.273289 0
M  V30 864 H 84.9336 -2.57892 -2.79771 0
M  V30 865 H 84.4456 -3.64959 -1.32009 0
M  V30 866 H 82.5466 -1.99411 -3.14748 0
M  V30 867 H 82.6596 -3.85406 -2.84603 0
M  V30 868 H 81.0236 -1.98994 -1.58976 0
M  V30 869 H 81.8066 -3.37118 -0.648581 0
M  V30 870 N 84.2517 0.741722 -1.39055 0
M  V30 871 C 85.5007 1.49656 -1.35225 0
M  V30 872 C 85.8137 1.95533 0.0512708 0
M  V30 873 O 87.0197 2.7067 0.212138 0
M  V30 874 C 85.4757 2.70389 -2.37525 0
M  V30 875 C 85.0837 2.31489 -3.83558 0
M  V30 876 C 86.8277 3.48236 -2.42759 0
M  V30 877 C 84.7347 3.48903 -4.77515 0
M  V30 878 H 83.6647 0.56197 -0.502699 0
M  V30 879 H 86.3157 0.809727 -1.64668 0
M  V30 880 H 84.6977 3.41113 -2.01142 0
M  V30 881 H 85.8717 1.68354 -4.28945 0
M  V30 882 H 84.1867 1.66749 -3.81554 0
M  V30 883 H 86.7837 4.35558 -3.1015 0
M  V30 884 H 87.1267 3.90229 -1.45008 0
M  V30 885 H 87.6597 2.84535 -2.78002 0
M  V30 886 H 84.3987 3.11966 -5.76504 0
M  V30 887 H 83.9187 4.11041 -4.36813 0
M  V30 888 H 85.5977 4.15328 -4.96096 0
M  V30 889 N 85.7298 1.2412 0.971189 0
M  V30 890 C 86.9778 1.07668 1.71032 0
M  V30 891 C 87.2988 -0.385797 1.91146 0
M  V30 892 O 86.5688 -1.27569 1.4867 0
M  V30 893 H 85.1488 0.395429 0.633755 0
M  V30 894 H 87.8108 1.55984 1.16855 0
M  V30 895 H 86.9068 1.57195 2.69622 0
M  V30 896 N 87.2079 -1.17134 1.05439 0
M  V30 897 C 88.4379 -1.91094 0.785274 0
M  V30 898 C 88.8459 -1.77198 -0.663142 0
M  V30 899 O 88.1889 -1.10835 -1.46497 0
M  V30 900 C 88.2509 -3.42594 1.08949 0
M  V30 901 C 87.9149 -3.80274 2.53458 0
M  V30 902 C 88.9119 -3.82912 3.51673 0
M  V30 903 C 86.5969 -4.11162 2.88532 0
M  V30 904 C 88.5909 -4.15913 4.83006 0
M  V30 905 C 86.2779 -4.43831 4.20068 0
M  V30 906 C 87.2759 -4.46185 5.17115 0
M  V30 907 O 86.9639 -4.78083 6.46291 0
M  V30 908 H 86.6959 -0.613073 0.284811 0
M  V30 909 H 89.2499 -1.49461 1.40893 0
M  V30 910 H 87.4799 -3.84534 0.408741 0
M  V30 911 H 89.1689 -3.97817 0.805991 0
M  V30 912 H 89.9349 -3.5917 3.25917 0
M  V30 913 H 85.8139 -4.085 2.13656 0
M  V30 914 H 89.3579 -4.17665 5.5875 0
M  V30 915 H 85.2549 -4.67037 4.45586 0
M  V30 916 H 86.0229 -4.9593 6.51149 0
M  V30 917 N 88.686 -0.835752 -1.33615 0
M  V30 918 C 89.633 -0.26473 -2.29277 0
M  V30 919 C 90.603 0.617712 -1.54187 0
M  V30 920 O 91.788 0.556641 -1.825 0
M  V30 921 C 88.928 0.556777 -3.40579 0
M  V30 922 C 88.041 -0.349339 -4.30585 0
M  V30 923 C 87.176 0.482969 -5.29 0
M  V30 924 C 86.215 -0.421732 -6.10645 0
M  V30 925 N 85.352 0.372262 -7.01112 0
M  V30 926 H 90.192 -1.08582 -2.77514 0
M  V30 927 H 87.729 -0.546927 -1.36554 0
M  V30 928 H 89.687 1.04852 -4.03809 0
M  V30 929 H 88.317 1.34286 -2.93542 0
M  V30 930 H 87.369 -0.959372 -3.68104 0
M  V30 931 H 88.681 -1.04445 -4.87742 0
M  V30 932 H 87.835 1.03866 -5.97743 0
M  V30 933 H 86.574 1.21153 -4.72412 0
M  V30 934 H 85.579 -0.989464 -5.40823 0
M  V30 935 H 86.804 -1.14861 -6.69316 0
M  V30 936 H 84.75 1.08426 -6.46977 0
M  V30 937 H 84.667 -0.264198 -7.55538 0
M  V30 938 H 85.935 0.910293 -7.74167 0
M  V30 939 N 90.1641 1.46063 -0.591896 0
M  V30 940 C 91.4121 2.01938 -0.0808391 0
M  V30 941 C 91.7331 1.46475 1.28725 0
M  V30 942 O 91.0031 0.652944 1.84698 0
M  V30 943 H 89.5831 0.746516 -0.0268938 0
M  V30 944 H 92.2451 1.79055 -0.769752 0
M  V30 945 H 91.3411 3.12094 -0.0187578 0
M  V30 946 N 91.6422 0.330177 1.54103 0
M  V30 947 C 92.8672 -0.274893 2.0557 0
M  V30 948 C 93.2922 -1.44487 1.20437 0
M  V30 949 O 92.6502 -1.80021 0.214991 0
M  V30 950 C 92.6982 -0.68079 3.54115 0
M  V30 951 O 91.8022 -1.7824 3.71893 0
M  V30 952 H 91.1432 -0.0483849 0.662235 0
M  V30 953 H 93.6732 0.480508 1.98878 0
M  V30 954 H 93.6832 -0.961635 3.96505 0
M  V30 955 H 92.3582 0.174903 4.15532 0
M  V30 956 H 90.9352 -1.49985 3.41407 0
M  V30 957 N 93.1203 -1.57491 0.0584922 0
M  V30 958 C 94.3483 -1.97296 -0.623037 0
M  V30 959 C 94.7633 -0.936338 -1.63946 0
M  V30 960 O 94.1203 0.0785981 -1.82331 0
M  V30 961 C 94.1713 -3.37183 -1.30345 0
M  V30 962 O 93.8923 -4.36872 -0.32773 0
M  V30 963 C 95.3933 -3.91788 -2.07406 0
M  V30 964 H 92.6133 -0.649153 -0.169826 0
M  V30 965 H 95.1573 -2.04106 0.12696 0
M  V30 966 H 93.3123 -3.31502 -2.00463 0
M  V30 967 H 93.7263 -5.18141 -0.814269 0
M  V30 968 H 95.2003 -4.91926 -2.50425 0
M  V30 969 H 95.6773 -3.27609 -2.92521 0
M  V30 970 H 96.2833 -4.00829 -1.42184 0
M  V30 971 N 94.5984 0.214957 -1.56127 0
M  V30 972 C 95.8454 0.938372 -1.79446 0
M  V30 973 C 96.1734 1.8407 -0.628378 0
M  V30 974 O 95.4284 1.91837 0.386925 0
M  V30 975 C 95.7274 1.80314 -3.0858 0
M  V30 976 C 95.3934 1.05349 -4.3842 0
M  V30 977 C 94.0554 0.846435 -4.73697 0
M  V30 978 C 96.4074 0.524588 -5.18553 0
M  V30 979 C 93.7354 0.098683 -5.86617 0
M  V30 980 C 96.0874 -0.209853 -6.32252 0
M  V30 981 C 94.7514 -0.428102 -6.66126 0
M  V30 982 H 94.0214 0.343375 -0.656639 0
M  V30 983 H 96.6684 0.206077 -1.90388 0
M  V30 984 H 94.9734 2.6035 -2.92789 0
M  V30 985 H 96.6704 2.36513 -3.23825 0
M  V30 986 H 93.2604 1.22486 -4.10725 0
M  V30 987 H 97.4444 0.672008 -4.91729 0
M  V30 988 H 92.7004 -0.0805753 -6.11347 0
M  V30 989 H 96.8744 -0.627157 -6.9357 0
M  V30 990 H 94.5014 -1.00944 -7.53468 0
M  V30 991 N 96.0765 1.50051 0.48192 0
M  V30 992 C 97.0265 1.64512 1.5786 0
M  V30 993 C 98.0105 0.500073 1.52932 0
M  V30 994 O 99.2025 0.753964 1.60139 0
M  V30 995 C 96.3315 1.73263 2.9637 0
M  V30 996 C 95.4175 2.93409 3.06222 0
M  V30 997 N 95.8085 4.17236 2.85915 0
M  V30 998 C 94.1065 2.91742 3.37346 0
M  V30 999 C 94.8075 4.981 3.00451 0
M  V30 1000 N 93.7835 4.3184 3.30174 0
M  V30 1001 H 97.5855 2.57955 1.40842 0
M  V30 1002 H 95.0995 1.47086 0.688439 0
M  V30 1003 H 97.0965 1.81724 3.75209 0
M  V30 1004 H 95.7565 0.809711 3.14442 0
M  V30 1005 H 96.7675 4.46909 2.6171 0
M  V30 1006 H 93.4445 2.08907 3.61475 0
M  V30 1007 H 94.8345 6.06532 2.89082 0
M  V30 1008 N 97.5546 -0.734337 1.39446 0
M  V30 1009 C 98.9706 -1.03997 1.21065 0
M  V30 1010 C 99.1706 -2.01369 0.0727019 0
M  V30 1011 O 98.2266 -2.45856 -0.575426 0
M  V30 1012 C 99.5396 -1.60163 2.54496 0
M  V30 1013 C 101.088 -1.7224 2.61347 0
M  V30 1014 C 101.563 -2.31814 3.95002 0
M  V30 1015 N 103.054 -2.39223 3.96644 0
M  V30 1016 C 103.789 -2.86258 4.96834 0
M  V30 1017 N 103.285 -3.33184 6.07421 0
M  V30 1018 N 105.078 -2.85473 4.84213 0
M  V30 1019 H 97.2286 -0.0885624 2.12215 0
M  V30 1020 H 99.4916 -0.10191 0.942506 0
M  V30 1021 H 99.1976 -0.960811 3.38321 0
M  V30 1022 H 99.0716 -2.5896 2.74262 0
M  V30 1023 H 101.459 -2.35443 1.77906 0
M  V30 1024 H 101.54 -0.720939 2.4543 0
M  V30 1025 H 101.184 -1.69238 4.78875 0
M  V30 1026 H 101.114 -3.32638 4.08239 0
M  V30 1027 H 103.605 -2.06057 3.16779 0
M  V30 1028 H 103.918 -3.67586 6.7978 0
M  V30 1029 H 102.263 -3.31191 6.11013 0
M  V30 1030 H 105.454 -2.48136 3.96921 0
M  V30 1031 H 105.627 -3.21814 5.62441 0
M  V30 1032 N 99.0327 -1.24633 -0.964593 0
M  V30 1033 C 100.279 -1.08949 -1.71049 0
M  V30 1034 C 100.612 0.370302 -1.90637 0
M  V30 1035 O 99.8867 1.27349 -1.47011 0
M  V30 1036 C 100.17 -1.83329 -3.0994 0
M  V30 1037 C 100.023 -3.37077 -2.97824 0
M  V30 1038 C 101.342 -1.60846 -4.09654 0
M  V30 1039 H 98.4607 -0.397178 -0.620821 0
M  V30 1040 H 101.103 -1.5334 -1.12191 0
M  V30 1041 H 99.2527 -1.45597 -3.60186 0
M  V30 1042 H 100.925 -3.84425 -2.5498 0
M  V30 1043 H 99.1677 -3.65298 -2.33965 0
M  V30 1044 H 99.8387 -3.84324 -3.96231 0
M  V30 1045 H 102.315 -1.93674 -3.68279 0
M  V30 1046 H 101.191 -2.1534 -5.04896 0
M  V30 1047 H 101.452 -0.547434 -4.38698 0
M  V30 1048 N 100.511 1.16574 -1.06058 0
M  V30 1049 C 101.76 1.86385 -0.770944 0
M  V30 1050 C 102.073 1.82448 0.705129 0
M  V30 1051 O 103.279 2.47815 1.10905 0
M  V30 1052 C 101.735 3.34466 -1.32893 0
M  V30 1053 C 101.343 3.46883 -2.83507 0
M  V30 1054 C 103.087 4.09548 -1.11672 0
M  V30 1055 C 100.994 4.89036 -3.32562 0
M  V30 1056 H 99.9238 0.698181 -0.284709 0
M  V30 1057 H 102.575 1.31583 -1.27899 0
M  V30 1058 H 100.957 3.88859 -0.748662 0
M  V30 1059 H 102.131 3.02663 -3.47465 0
M  V30 1060 H 100.446 2.85232 -3.03368 0
M  V30 1061 H 103.043 5.14434 -1.45814 0
M  V30 1062 H 103.386 4.16264 -0.0549535 0
M  V30 1063 H 103.919 3.61387 -1.66265 0
M  V30 1064 H 100.658 4.87499 -4.38207 0
M  V30 1065 H 100.178 5.3389 -2.73351 0
M  V30 1066 H 101.857 5.57843 -3.2775 0
M  V30 1067 N 101.989 0.842826 1.3317 0
M  V30 1068 C 102.936 0.276885 2.29133 0
M  V30 1069 C 103.906 -0.609527 1.54512 0
M  V30 1070 O 105.091 -0.546955 1.82792 0
M  V30 1071 C 102.231 -0.538707 3.40869 0
M  V30 1072 C 101.344 0.372169 4.30394 0
M  V30 1073 C 100.479 -0.454908 5.29249 0
M  V30 1074 C 99.5179 0.45411 6.10413 0
M  V30 1075 N 98.6549 -0.335075 7.013 0
M  V30 1076 H 103.495 1.10052 2.76934 0
M  V30 1077 H 101.032 0.554161 1.36262 0
M  V30 1078 H 102.99 -1.02709 4.0436 0
M  V30 1079 H 101.62 -1.32727 2.9425 0
M  V30 1080 H 100.672 0.97888 3.6759 0
M  V30 1081 H 101.984 1.0703 4.87182 0
M  V30 1082 H 101.138 -1.00695 5.98285 0
M  V30 1083 H 99.8769 -1.18646 4.73048 0
M  V30 1084 H 98.8819 1.01813 5.40291 0
M  V30 1085 H 100.107 1.18409 6.68697 0
M  V30 1086 H 98.0529 -1.04994 6.47543 0
M  V30 1087 H 97.9699 0.304262 7.55387 0
M  V30 1088 H 99.2379 -0.869224 7.74638 0
M  V30 1089 N 103.467 -1.45747 0.599634 0
M  V30 1090 C 104.744 -1.95585 0.0240846 0
M  V30 1091 C 105.124 -1.54217 -1.44154 0
M  V30 1092 O 104.472 -0.800903 -2.14004 0
M  V30 1093 C 104.682 -3.48344 0.21385 0
M  V30 1094 C 106.03 -4.24504 0.0904902 0
M  V30 1095 O 107.054 -3.55911 0.143558 0
M  V30 1096 O 105.913 -5.46491 -0.0310766 0
M  V30 1097 H 103.007 -0.82602 -0.0402478 0
M  V30 1098 H 105.553 -1.55951 0.669139 0
M  V30 1099 H 104.325 -3.71397 1.23206 0
M  V30 1100 H 103.948 -3.9485 -0.466842 0
M  V30 1101 N 104.945 -0.338344 -1.53925 0
M  V30 1102 C 106.192 0.259758 -2.00827 0
M  V30 1103 C 106.52 1.50973 -1.22628 0
M  V30 1104 O 105.775 1.93379 -0.300509 0
M  V30 1105 C 106.074 0.62448 -3.51902 0
M  V30 1106 C 105.74 -0.528006 -4.47798 0
M  V30 1107 C 104.402 -0.844298 -4.73735 0
M  V30 1108 C 106.754 -1.30143 -5.0469 0
M  V30 1109 C 104.082 -1.93648 -5.53821 0
M  V30 1110 C 106.434 -2.38382 -5.85967 0
M  V30 1111 C 105.098 -2.70576 -6.10201 0
M  V30 1112 H 104.368 0.0950523 -0.734878 0
M  V30 1113 H 107.015 -0.465182 -1.85764 0
M  V30 1114 H 105.32 1.43006 -3.64769 0
M  V30 1115 H 107.017 1.09905 -3.85645 0
M  V30 1116 H 103.607 -0.271421 -4.2774 0
M  V30 1117 H 107.791 -1.07033 -4.84621 0
M  V30 1118 H 103.047 -2.19021 -5.70824 0
M  V30 1119 H 107.221 -2.98746 -6.29066 0
M  V30 1120 H 104.848 -3.55333 -6.72044 0
M  V30 1121 N 106.423 1.57458 -0.0668435 0
M  V30 1122 C 107.356 2.08033 0.93795 0
M  V30 1123 C 108.334 0.984321 1.29421 0
M  V30 1124 O 109.518 1.25736 1.40437 0
M  V30 1125 C 106.645 2.53388 2.24749 0
M  V30 1126 C 105.691 3.74376 2.04315 0
M  V30 1127 S 106.524 5.19303 1.30706 0
M  V30 1128 C 107.68 5.67986 2.62951 0
M  V30 1129 H 107.913 2.92935 0.50759 0
M  V30 1130 H 105.446 1.5371 0.145804 0
M  V30 1131 H 107.404 2.8018 3.00016 0
M  V30 1132 H 106.065 1.68763 2.64911 0
M  V30 1133 H 105.258 4.04083 3.01218 0
M  V30 1134 H 104.86 3.47931 1.37186 0
M  V30 1135 H 107.152 5.74528 3.5906 0
M  V30 1136 H 108.095 6.66955 2.3786 0
M  V30 1137 H 108.503 4.95781 2.69929 0
M  V30 1138 N 107.901 -0.206675 1.56239 0
M  V30 1139 C 109.15 -0.926964 1.79138 0
M  V30 1140 C 109.463 -1.84901 0.638043 0
M  V30 1141 O 110.669 -2.60906 0.751033 0
M  V30 1142 C 109.125 -1.6986 3.17294 0
M  V30 1143 C 108.733 -0.821956 4.40395 0
M  V30 1144 C 110.477 -2.40922 3.4951 0
M  V30 1145 C 108.384 -1.59179 5.69575 0
M  V30 1146 H 107.314 -0.349864 0.667915 0
M  V30 1147 H 109.965 -0.180487 1.8261 0
M  V30 1148 H 108.347 -2.48853 3.08039 0
M  V30 1149 H 109.521 -0.0715019 4.60745 0
M  V30 1150 H 107.836 -0.222741 4.15804 0
M  V30 1151 H 110.433 -2.99047 4.43255 0
M  V30 1152 H 110.776 -3.14542 2.72707 0
M  V30 1153 H 111.309 -1.68905 3.60161 0
M  V30 1154 H 108.048 -0.898589 6.49312 0
M  V30 1155 H 107.568 -2.31648 5.53262 0
M  V30 1156 H 109.247 -2.14862 6.10281 0
M  V30 1157 N 109.379 -1.50304 -0.473955 0
M  V30 1158 C 110.311 -1.65109 -1.58971 0
M  V30 1159 C 111.324 -0.532676 -1.53839 0
M  V30 1160 O 112.513 -0.805751 -1.59279 0
M  V30 1161 C 109.613 -1.61684 -2.97845 0
M  V30 1162 C 108.786 -2.8951 -3.27876 0
M  V30 1163 C 107.845 -2.78768 -4.4629 0
M  V30 1164 O 106.871 -3.52722 -4.46739 0
M  V30 1165 N 108.073 -1.9213 -5.47783 0
M  V30 1166 H 110.838 -2.61347 -1.46689 0
M  V30 1167 H 108.399 -1.47732 -0.662324 0
M  V30 1168 H 110.391 -1.52114 -3.75024 0
M  V30 1169 H 108.961 -0.731925 -3.03911 0
M  V30 1170 H 108.181 -3.13228 -2.39336 0
M  V30 1171 H 109.469 -3.74199 -3.4475 0
M  V30 1172 H 108.867 -1.31353 -5.50239 0
M  V30 1173 H 107.424 -1.88466 -6.23958 0
M  V30 1174 N 110.857 0.726932 -1.39834 0
M  V30 1175 C 112.105 1.4837 -1.37225 0
M  V30 1176 C 112.426 1.94979 0.0284857 0
M  V30 1177 O 111.696 1.69555 0.981213 0
M  V30 1178 H 110.276 0.55043 -0.505011 0
M  V30 1179 H 112.938 0.862468 -1.74778 0
M  V30 1180 H 112.034 2.36198 -2.04003 0
M  V30 1181 N 112.336 1.25143 0.95797 0
M  V30 1182 C 113.584 1.09476 1.69881 0
M  V30 1183 C 113.905 -0.365502 1.91544 0
M  V30 1184 O 113.175 -1.25985 1.50015 0
M  V30 1185 H 111.755 0.402128 0.629525 0
M  V30 1186 H 114.417 1.57214 1.15194 0
M  V30 1187 H 113.513 1.60046 2.6794 0
M  V30 1188 N 113.814 -1.1601 1.06675 0
M  V30 1189 C 115.091 -1.82679 0.699114 0
M  V30 1190 C 115.471 -1.94559 -0.819137 0
M  V30 1191 O 114.819 -1.49169 -1.73092 0
M  V30 1192 C 115.029 -3.19445 1.40555 0
M  V30 1193 C 116.377 -3.95171 1.55323 0
M  V30 1194 O 117.401 -3.28976 1.36577 0
M  V30 1195 O 116.26 -5.13833 1.86112 0
M  V30 1196 H 113.354 -0.788954 0.247951 0
M  V30 1197 H 115.9 -1.23179 1.16726 0
M  V30 1198 H 114.672 -3.05856 2.44065 0
M  V30 1199 H 114.295 -3.86625 0.927733 0
M  V30 1200 N 115.292 -0.849877 -1.32721 0
M  V30 1201 C 116.539 -0.450923 -1.97416 0
M  V30 1202 C 116.867 0.992376 -1.67279 0
M  V30 1203 O 116.122 1.71048 -0.950845 0
M  V30 1204 C 116.421 -0.631272 -3.51781 0
M  V30 1205 C 116.087 -2.04432 -4.01894 0
M  V30 1206 C 114.749 -2.4308 -4.1529 0
M  V30 1207 C 117.101 -2.96679 -4.28522 0
M  V30 1208 C 114.429 -3.73257 -4.52654 0
M  V30 1209 C 116.781 -4.26349 -4.67343 0
M  V30 1210 C 115.445 -4.64939 -4.78945 0
M  V30 1211 H 114.715 -0.165004 -0.722395 0
M  V30 1212 H 117.362 -1.07901 -1.58207 0
M  V30 1213 H 115.667 0.0800767 -3.91718 0
M  V30 1214 H 117.364 -0.302709 -3.99856 0
M  V30 1215 H 113.954 -1.73419 -3.91949 0
M  V30 1216 H 118.138 -2.68054 -4.17685 0
M  V30 1217 H 113.394 -4.02946 -4.59831 0
M  V30 1218 H 117.568 -4.97895 -4.86902 0
M  V30 1219 H 115.195 -5.65855 -5.07654 0
M  V30 1220 N 116.77 1.45427 -0.607355 0
M  V30 1221 C 118.016 2.0254 -0.102607 0
M  V30 1222 C 118.349 1.47478 1.26348 0
M  V30 1223 O 117.624 0.64939 1.83339 0
M  V30 1224 C 117.907 3.60044 -0.0634347 0
M  V30 1225 C 117.76 4.2544 -1.46017 0
M  V30 1226 C 119.079 4.35646 0.624514 0
M  V30 1227 H 116.198 0.73598 -0.0387607 0
M  V30 1228 H 118.84 1.73284 -0.779282 0
M  V30 1229 H 116.99 3.85101 0.512808 0
M  V30 1230 H 118.662 4.11569 -2.08347 0
M  V30 1231 H 116.905 3.83849 -2.02094 0
M  V30 1232 H 117.576 5.34342 -1.385 0
M  V30 1233 H 120.052 4.15882 0.134723 0
M  V30 1234 H 118.928 5.45376 0.621028 0
M  V30 1235 H 119.189 4.08501 1.69055 0
M  V30 1236 N 118.248 0.346503 1.53744 0
M  V30 1237 C 119.196 -0.52422 2.26616 0
M  V30 1238 C 120.19 -1.09948 1.28871 0
M  V30 1239 O 121.396 -1.04488 1.46568 0
M  V30 1240 H 117.771 -0.187743 0.728187 0
M  V30 1241 H 119.742 0.11239 2.98188 0
M  V30 1242 C 118.491 -1.66186 3.05414 0
M  V30 1243 H 117.814 -1.22848 3.80458 0
M  V30 1244 H 119.254 -2.24622 3.59612 0
M  V30 1245 C 117.713 -2.59302 2.1509 0
M  V30 1246 O 118.243 -3.61628 1.74895 0
M  V30 1247 N 116.449 -2.28055 1.8011 0
M  V30 1248 H 115.996 -1.44883 2.12994 0
M  V30 1249 H 115.954 -2.90615 1.19958 0
M  V30 1250 N 119.726 -1.57421 0.075193 0
M  V30 1251 C 120.974 -1.93236 -0.591974 0
M  V30 1252 C 121.295 -0.956241 -1.69944 0
M  V30 1253 O 120.565 -0.00494792 -1.95899 0
M  V30 1254 H 119.145 -0.713355 -0.22166 0
M  V30 1255 H 121.807 -1.9444 0.133848 0
M  V30 1256 H 120.903 -2.95131 -1.01509 0
M  V30 1257 N 121.204 0.198386 -1.56346 0
M  V30 1258 C 122.481 0.944982 -1.71258 0
M  V30 1259 C 122.861 2.0151 -0.629048 0
M  V30 1260 O 122.209 2.25639 0.360473 0
M  V30 1261 C 122.419 1.5344 -3.1346 0
M  V30 1262 C 123.767 2.01778 -3.73591 0
M  V30 1263 O 124.791 1.63288 -3.16568 0
M  V30 1264 O 123.65 2.72594 -4.73661 0
M  V30 1265 H 120.744 0.442939 -0.69838 0
M  V30 1266 H 123.29 0.188342 -1.68652 0
M  V30 1267 H 122.062 0.762869 -3.83792 0
M  V30 1268 H 121.685 2.35596 -3.20282 0
M  V30 1269 N 122.682 1.50554 0.465978 0
M  V30 1270 C 123.93 1.61479 1.21528 0
M  V30 1271 C 124.251 0.319596 1.92363 0
M  V30 1272 O 123.521 -0.663194 1.84333 0
M  V30 1273 H 122.101 0.595055 0.451573 0
M  V30 1274 H 124.763 1.87355 0.53704 0
M  V30 1275 H 123.859 2.42846 1.96042 0
M  V30 1276 N 124.16 -0.719506 1.40217 0
M  V30 1277 C 125.388 -1.50864 1.41589 0
M  V30 1278 C 125.803 -1.88794 0.0145275 0
M  V30 1279 O 125.16 -1.55174 -0.960594 0
M  V30 1280 C 125.211 -2.78646 2.30302 0
M  V30 1281 O 124.932 -2.42321 3.64983 0
M  V30 1282 C 126.433 -3.72569 2.40224 0
M  V30 1283 H 123.653 -0.465709 0.48307 0
M  V30 1284 H 126.197 -0.88785 1.84221 0
M  V30 1285 H 124.352 -3.37019 1.91042 0
M  V30 1286 H 124.766 -3.24514 4.12057 0
M  V30 1287 H 126.24 -4.5908 3.06512 0
M  V30 1288 H 126.717 -4.15403 1.42608 0
M  V30 1289 H 127.323 -3.20109 2.80019 0
M  V30 1290 N 125.638 -1.25649 -0.95132 0
M  V30 1291 C 126.886 -1.10375 -1.69298 0
M  V30 1292 C 127.207 0.355339 -1.91735 0
M  V30 1293 O 126.477 1.25188 -1.50681 0
M  V30 1294 H 125.057 -0.405461 -0.627384 0
M  V30 1295 H 127.719 -1.57823 -1.14358 0
M  V30 1296 H 126.815 -1.61465 -2.67087 0
M  V30 1297 N 127.117 1.15442 -1.07289 0
M  V30 1298 C 128.363 1.86489 -0.796846 0
M  V30 1299 C 128.696 1.82078 0.675371 0
M  V30 1300 O 127.971 1.24346 1.4956 0
M  V30 1301 C 128.254 3.35626 -1.30489 0
M  V30 1302 C 128.107 3.48673 -2.84161 0
M  V30 1303 C 129.426 4.30357 -0.920907 0
M  V30 1304 H 126.545 0.677144 -0.290939 0
M  V30 1305 H 129.187 1.35633 -1.33056 0
M  V30 1306 H 127.337 3.79068 -0.850883 0
M  V30 1307 H 129.009 3.14099 -3.37846 0
M  V30 1308 H 127.252 2.90253 -3.22391 0
M  V30 1309 H 127.923 4.53453 -3.14777 0
M  V30 1310 H 130.399 3.94871 -1.3121 0
M  V30 1311 H 129.275 5.33193 -1.30372 0
M  V30 1312 H 129.536 4.4176 0.173226 0
M  V30 1313 N 128.595 0.856903 1.32268 0
M  V30 1314 C 129.558 0.308171 2.27119 0
M  V30 1315 C 130.558 -0.533421 1.51695 0
M  V30 1316 O 131.748 -0.344607 1.70757 0
M  V30 1317 C 128.88 -0.563757 3.36206 0
M  V30 1318 H 130.073 1.14535 2.77167 0
M  V30 1319 H 127.626 0.631421 1.42978 0
M  V30 1320 H 128.361 -1.42266 2.91429 0
M  V30 1321 H 128.146 0.0386749 3.92081 0
M  V30 1322 H 129.636 -0.940386 4.06874 0
M  V30 1323 N 130.073 -1.45103 0.615059 0
M  V30 1324 C 131.298 -2.07064 0.117988 0
M  V30 1325 C 131.723 -1.4554 -1.19163 0
M  V30 1326 O 131.081 -0.550855 -1.72729 0
M  V30 1327 C 131.129 -3.606 -0.000288387 0
M  V30 1328 O 130.233 -3.98847 -1.04856 0
M  V30 1329 H 129.574 -0.659467 0.0774581 0
M  V30 1330 H 132.104 -1.86236 0.847186 0
M  V30 1331 H 132.114 -4.07529 -0.196091 0
M  V30 1332 H 130.789 -4.04765 0.955932 0
M  V30 1333 H 129.366 -3.63577 -0.828619 0
M  V30 1334 N 131.551 -0.354651 -1.53558 0
M  V30 1335 C 132.8 0.239504 -2.00273 0
M  V30 1336 C 133.113 1.50759 -1.24623 0
M  V30 1337 O 134.319 2.17968 -1.61871 0
M  V30 1338 C 132.775 0.477341 -3.5672 0
M  V30 1339 C 132.383 -0.775488 -4.41237 0
M  V30 1340 C 134.127 1.02975 -4.11821 0
M  V30 1341 C 132.034 -0.507838 -5.89216 0
M  V30 1342 H 130.964 0.0932743 -0.748208 0
M  V30 1343 H 133.615 -0.471701 -1.77334 0
M  V30 1344 H 131.997 1.24953 -3.7577 0
M  V30 1345 H 133.171 -1.54963 -4.33962 0
M  V30 1346 H 131.486 -1.25033 -3.97185 0
M  V30 1347 H 134.083 1.24513 -5.2 0
M  V30 1348 H 134.426 1.98862 -3.65731 0
M  V30 1349 H 134.959 0.317994 -3.96527 0
M  V30 1350 H 131.698 -1.43674 -6.39561 0
M  V30 1351 H 131.218 0.228011 -5.99366 0
M  V30 1352 H 132.897 -0.129238 -6.46871 0
M  V30 1353 N 133.029 1.57378 -0.0835403 0
M  V30 1354 C 134.259 1.97975 0.590713 0
M  V30 1355 C 134.667 0.961083 1.62972 0
M  V30 1356 O 134.01 -0.0590879 1.83605 0
M  V30 1357 C 134.072 3.34915 1.3066 0
M  V30 1358 C 133.736 4.55069 0.419698 0
M  V30 1359 C 134.733 5.18868 -0.32749 0
M  V30 1360 C 132.418 5.0114 0.341137 0
M  V30 1361 C 134.412 6.27098 -1.14134 0
M  V30 1362 C 132.099 6.0924 -0.476374 0
M  V30 1363 C 133.097 6.72083 -1.21627 0
M  V30 1364 O 132.785 7.781 -2.02028 0
M  V30 1365 H 132.517 0.655818 0.163947 0
M  V30 1366 H 135.071 2.04807 -0.156021 0
M  V30 1367 H 133.301 3.24733 2.09966 0
M  V30 1368 H 134.99 3.60037 1.87424 0
M  V30 1369 H 135.756 4.84211 -0.276459 0
M  V30 1370 H 131.635 4.51996 0.90668 0
M  V30 1371 H 135.179 6.7608 -1.71935 0
M  V30 1372 H 131.076 6.43329 -0.528927 0
M  V30 1373 H 131.844 7.95034 -1.94586 0
M  V30 1374 N 134.507 -0.190092 1.56449 0
M  V30 1375 C 135.923 -0.54113 1.50146 0
M  V30 1376 C 136.123 -1.85603 0.784465 0
M  V30 1377 O 135.179 -2.5024 0.337051 0
M  V30 1378 C 136.492 -0.591241 2.9483 0
M  V30 1379 C 138.04 -0.679732 3.0553 0
M  V30 1380 C 138.515 -0.760908 4.51635 0
M  V30 1381 N 140.006 -0.824302 4.55806 0
M  V30 1382 C 140.741 -0.907365 5.66175 0
M  V30 1383 N 140.237 -0.952422 6.86222 0
M  V30 1384 N 142.03 -0.94494 5.541 0
M  V30 1385 H 134.181 0.67235 2.01478 0
M  V30 1386 H 136.444 0.240127 0.917084 0
M  V30 1387 H 136.15 0.305905 3.50367 0
M  V30 1388 H 136.024 -1.44422 3.48457 0
M  V30 1389 H 138.411 -1.56731 2.50039 0
M  V30 1390 H 138.492 0.199549 2.5502 0
M  V30 1391 H 138.136 0.122336 5.07753 0
M  V30 1392 H 138.066 -1.65606 4.99882 0
M  V30 1393 H 140.557 -0.798526 3.69367 0
M  V30 1394 H 140.87 -1.01645 7.66086 0
M  V30 1395 H 139.215 -0.921014 6.8887 0
M  V30 1396 H 142.406 -0.906612 4.59236 0
M  V30 1397 H 142.579 -1.00622 6.4014 0
M  V30 1398 N 135.985 -1.50799 -0.457987 0
M  V30 1399 C 137.233 -1.62121 -1.2067 0
M  V30 1400 C 137.554 -0.329793 -1.92191 0
M  V30 1401 O 136.824 0.653409 -1.84682 0
M  V30 1402 H 135.404 -0.597441 -0.448411 0
M  V30 1403 H 138.066 -1.87637 -0.527096 0
M  V30 1404 H 137.162 -2.43882 -1.94751 0
M  V30 1405 N 137.463 0.71206 -1.40597 0
M  V30 1406 C 138.874 1.29135 -1.34837 0
M  V30 1407 C 139.225 1.96186 -0.0235395 0
M  V30 1408 O 138.35 1.97768 0.878444 0
M  V30 1409 C 138.945 2.34827 -2.44217 0
M  V30 1410 C 137.504 2.88371 -2.41907 0
M  V30 1411 C 136.651 1.62202 -2.24913 0
M  V30 1412 H 139.602 0.507944 -1.50352 0
M  V30 1413 H 139.623 3.15749 -2.12327 0
M  V30 1414 H 139.135 1.85996 -3.40627 0
M  V30 1415 H 137.236 3.41422 -1.49204 0
M  V30 1416 H 137.349 3.39925 -3.37621 0
M  V30 1417 H 135.713 1.874 -1.72492 0
M  V30 1418 H 136.496 1.15391 -3.23326 0
M  V30 1419 N 138.941 1.26152 0.944643 0
M  V30 1420 C 140.188 1.11492 1.69044 0
M  V30 1421 C 140.516 -0.342366 1.91463 0
M  V30 1422 O 139.771 -1.26812 1.49054 0
M  V30 1423 C 140.07 1.82541 3.07268 0
M  V30 1424 C 139.736 3.32445 3.04616 0
M  V30 1425 C 138.398 3.73337 3.036 0
M  V30 1426 C 140.75 4.28171 2.97185 0
M  V30 1427 C 138.078 5.08348 2.92915 0
M  V30 1428 C 140.43 5.63218 2.88041 0
M  V30 1429 C 139.094 6.03426 2.85366 0
M  V30 1430 H 138.364 0.407977 0.618576 0
M  V30 1431 H 141.011 1.56551 1.10291 0
M  V30 1432 H 139.316 1.29941 3.69625 0
M  V30 1433 H 141.013 1.68642 3.63815 0
M  V30 1434 H 137.603 2.99915 3.06185 0
M  V30 1435 H 141.787 3.97563 2.97081 0
M  V30 1436 H 137.043 5.38667 2.89219 0
M  V30 1437 H 141.217 6.37078 2.81254 0
M  V30 1438 H 138.844 7.07999 2.76842 0
M  V30 1439 N 140.419 -1.14872 1.07899 0
M  V30 1440 C 141.382 -2.17986 0.708161 0
M  V30 1441 C 142.382 -1.58775 -0.25442 0
M  V30 1442 O 143.572 -1.74166 -0.034645 0
M  V30 1443 C 140.704 -3.40871 0.0446929 0
M  V30 1444 H 141.897 -2.52306 1.62116 0
M  V30 1445 H 139.45 -1.2943 0.876218 0
M  V30 1446 H 140.185 -3.12124 -0.880281 0
M  V30 1447 H 139.97 -3.8511 0.737091 0
M  V30 1448 H 141.46 -4.17121 -0.19991 0
M  V30 1449 N 141.898 -0.863906 -1.31812 0
M  V30 1450 C 143.175 -0.39275 -1.91616 0
M  V30 1451 C 143.555 1.12461 -1.7865 0
M  V30 1452 O 142.903 1.95045 -1.19037 0
M  V30 1453 C 143.113 -0.867385 -3.38049 0
M  V30 1454 C 144.461 -0.889966 -4.15168 0
M  V30 1455 O 145.485 -0.812635 -3.46806 0
M  V30 1456 O 144.344 -1.00079 -5.37258 0
M  V30 1457 H 141.438 -0.116358 -0.818773 0
M  V30 1458 H 143.984 -0.951418 -1.40521 0
M  V30 1459 H 142.756 -1.91081 -3.41473 0
M  V30 1460 H 142.379 -0.286687 -3.96565 0
M  V30 1461 N 143.376 1.44774 -0.622745 0
M  V30 1462 C 144.286 2.34433 0.0886031 0
M  V30 1463 C 145.302 1.52131 0.844529 0
M  V30 1464 O 146.478 1.84886 0.798691 0
M  V30 1465 C 143.543 3.29986 1.0635 0
M  V30 1466 C 142.604 4.28195 0.307873 0
M  V30 1467 C 141.837 5.19183 1.23633 0
M  V30 1468 O 142.06 5.13918 2.47476 0
M  V30 1469 O 140.994 5.97515 0.725189 0
M  V30 1470 H 144.82 2.96693 -0.648599 0
M  V30 1471 H 142.405 1.44408 -0.382957 0
M  V30 1472 H 144.287 3.88825 1.6246 0
M  V30 1473 H 142.962 2.70269 1.78146 0
M  V30 1474 H 141.869 3.72927 -0.296064 0
M  V30 1475 H 143.202 4.90808 -0.3699 0
M  V30 1476 N 144.854 0.36279 1.53368 0
M  V30 1477 C 145.802 -0.500155 2.27159 0
M  V30 1478 C 146.796 -1.08575 1.3003 0
M  V30 1479 O 148.002 -1.02927 1.47668 0
M  V30 1480 H 144.377 -0.180009 0.730138 0
M  V30 1481 H 146.348 0.14401 2.98052 0
M  V30 1482 C 145.097 -1.62937 3.07159 0
M  V30 1483 H 144.42 -1.18806 3.8174 0
M  V30 1484 H 145.86 -2.20795 3.61975 0
M  V30 1485 C 144.319 -2.57007 2.17829 0
M  V30 1486 O 144.849 -3.59752 1.78721 0
M  V30 1487 N 143.055 -2.26131 1.82518 0
M  V30 1488 H 142.602 -1.42616 2.14519 0
M  V30 1489 H 142.56 -2.89327 1.23034 0
M  V30 1490 N 146.332 -1.57332 0.0918853 0
M  V30 1491 C 147.579 -1.94236 -0.572577 0
M  V30 1492 C 147.907 -0.973398 -1.6839 0
M  V30 1493 O 147.162 0.00756912 -1.95699 0
M  V30 1494 C 147.461 -3.37689 -1.17051 0
M  V30 1495 C 147.127 -4.50527 -0.183304 0
M  V30 1496 C 145.789 -4.81119 0.0882276 0
M  V30 1497 C 148.141 -5.18883 0.49095 0
M  V30 1498 C 145.469 -5.77395 1.04076 0
M  V30 1499 C 147.821 -6.1618 1.43193 0
M  V30 1500 C 146.485 -6.45179 1.71173 0
M  V30 1501 H 145.755 -0.710762 -0.209521 0
M  V30 1502 H 148.402 -1.9077 0.167036 0
M  V30 1503 H 146.707 -3.37718 -1.9863 0
M  V30 1504 H 148.404 -3.63543 -1.69227 0
M  V30 1505 H 144.994 -4.26681 -0.405124 0
M  V30 1506 H 149.178 -4.95427 0.294312 0
M  V30 1507 H 144.434 -5.98179 1.26457 0
M  V30 1508 H 148.608 -6.68243 1.96023 0
M  V30 1509 H 146.235 -7.1959 2.4514 0
M  V30 1510 N 147.81 0.181792 -1.56548 0
M  V30 1511 C 148.757 1.22521 -1.95595 0
M  V30 1512 C 149.727 1.4454 -0.818373 0
M  V30 1513 O 150.912 1.57454 -1.07763 0
M  V30 1514 C 148.052 2.56193 -2.31212 0
M  V30 1515 C 147.165 2.41641 -3.58097 0
M  V30 1516 C 146.3 3.68108 -3.82975 0
M  V30 1517 C 145.339 3.48445 -5.03242 0
M  V30 1518 N 144.476 4.66956 -5.24306 0
M  V30 1519 H 149.316 0.885226 -2.84548 0
M  V30 1520 H 146.853 0.425718 -1.40805 0
M  V30 1521 H 148.811 3.34088 -2.49882 0
M  V30 1522 H 147.441 2.88208 -1.45382 0
M  V30 1523 H 146.493 1.54976 -3.474 0
M  V30 1524 H 147.805 2.23052 -4.46149 0
M  V30 1525 H 146.959 4.54441 -4.01956 0
M  V30 1526 H 145.698 3.89666 -2.93278 0
M  V30 1527 H 144.703 2.60499 -4.8417 0
M  V30 1528 H 145.928 3.2832 -5.9446 0
M  V30 1529 H 143.874 4.88752 -4.37559 0
M  V30 1530 H 143.791 4.51242 -6.06561 0
M  V30 1531 H 145.059 5.54602 -5.47756 0
M  V30 1532 N 149.288 1.51039 0.449983 0
M  V30 1533 C 150.218 1.74379 1.55288 0
M  V30 1534 C 151.199 0.593236 1.5942 0
M  V30 1535 O 152.384 0.834625 1.7535 0
M  V30 1536 C 149.514 1.85728 2.93466 0
M  V30 1537 C 148.468 3.01078 3.04197 0
M  V30 1538 C 147.794 2.97595 4.44231 0
M  V30 1539 C 149.094 4.41254 2.7945 0
M  V30 1540 H 150.788 2.66725 1.36008 0
M  V30 1541 H 148.334 1.2835 0.652864 0
M  V30 1542 H 150.287 2.0064 3.70569 0
M  V30 1543 H 149.011 0.900207 3.13949 0
M  V30 1544 H 147.67 2.85851 2.29531 0
M  V30 1545 H 147.318 1.99691 4.61663 0
M  V30 1546 H 147.018 3.75046 4.52343 0
M  V30 1547 H 148.542 3.14583 5.23326 0
M  V30 1548 H 149.956 4.56897 3.46292 0
M  V30 1549 H 148.353 5.20315 2.98985 0
M  V30 1550 H 149.423 4.52164 1.75144 0
M  V30 1551 N 150.766 -0.704594 1.40972 0
M  V30 1552 C 152.182 -1.01406 1.23244 0
M  V30 1553 C 152.382 -2.01169 0.115399 0
M  V30 1554 O 151.438 -2.47021 -0.523147 0
M  V30 1555 C 152.751 -1.54728 2.57836 0
M  V30 1556 C 154.299 -1.66658 2.64942 0
M  V30 1557 C 154.774 -2.23383 3.9983 0
M  V30 1558 N 156.265 -2.30756 4.01629 0
M  V30 1559 C 157 -2.75655 5.02794 0
M  V30 1560 N 156.496 -3.20225 6.14352 0
M  V30 1561 N 158.289 -2.75138 4.90159 0
M  V30 1562 H 150.44 -0.0435285 2.12355 0
M  V30 1563 H 152.703 -0.0818951 0.944456 0
M  V30 1564 H 152.409 -0.888832 3.40283 0
M  V30 1565 H 152.283 -2.53084 2.79693 0
M  V30 1566 H 154.67 -2.31617 1.8286 0
M  V30 1567 H 154.751 -0.668717 2.46904 0
M  V30 1568 H 154.395 -1.59043 4.82357 0
M  V30 1569 H 154.325 -3.23904 4.15203 0
M  V30 1570 H 156.816 -1.99291 3.21079 0
M  V30 1571 H 157.129 -3.53084 6.87424 0
M  V30 1572 H 155.474 -3.18156 6.17901 0
M  V30 1573 H 158.665 -2.39661 4.02095 0
M  V30 1574 H 158.838 -3.09812 5.6914 0
M  V30 1575 N 152.244 -1.26651 -0.937939 0
M  V30 1576 C 153.194 -1.05156 -2.02302 0
M  V30 1577 C 154.178 0.0171233 -1.60891 0
M  V30 1578 O 155.37 -0.200213 -1.75864 0
M  V30 1579 C 152.499 -0.689962 -3.36295 0
M  V30 1580 C 151.585 -1.79626 -3.84181 0
M  V30 1581 N 151.976 -3.03422 -4.04684 0
M  V30 1582 C 150.274 -1.6806 -4.13124 0
M  V30 1583 C 150.975 -3.75345 -4.444 0
M  V30 1584 N 149.951 -3.03051 -4.51288 0
M  V30 1585 H 153.753 -1.99117 -2.1617 0
M  V30 1586 H 151.267 -1.17216 -1.12402 0
M  V30 1587 H 153.264 -0.517112 -4.13681 0
M  V30 1588 H 151.924 0.242139 -3.23796 0
M  V30 1589 H 152.935 -3.39293 -3.91281 0
M  V30 1590 H 149.612 -0.818629 -4.09396 0
M  V30 1591 H 151.002 -4.81691 -4.68427 0
M  V30 1592 N 153.722 1.14298 -1.08507 0
M  V30 1593 C 154.947 1.8976 -0.837001 0
M  V30 1594 C 155.372 1.78097 0.605228 0
M  V30 1595 O 154.73 1.12188 1.4242 0
M  V30 1596 C 154.778 3.37685 -1.26495 0
M  V30 1597 O 153.882 4.10281 -0.417514 0
M  V30 1598 H 153.223 0.590365 -0.303917 0
M  V30 1599 H 155.753 1.44672 -1.44676 0
M  V30 1600 H 155.763 3.88501 -1.24625 0
M  V30 1601 H 154.438 3.45492 -2.31534 0
M  V30 1602 H 153.015 3.69536 -0.499722 0
M  V30 1603 N 155.201 0.870884 1.31352 0
M  V30 1604 C 156.164 0.332243 2.26779 0
M  V30 1605 C 157.164 -0.517302 1.52252 0
M  V30 1606 O 158.354 -0.326477 1.71113 0
M  V30 1607 C 155.486 -0.528066 3.36785 0
M  V30 1608 H 156.679 1.17469 2.75937 0
M  V30 1609 H 154.232 0.64655 1.423 0
M  V30 1610 H 154.967 -1.39167 2.92922 0
M  V30 1611 H 154.752 0.0802582 3.92018 0
M  V30 1612 H 156.242 -0.897179 4.07849 0
M  V30 1613 N 156.679 -1.44442 0.630414 0
M  V30 1614 C 158.09 -1.85434 0.217063 0
M  V30 1615 C 158.441 -1.52748 -1.23136 0
M  V30 1616 O 157.566 -0.965205 -1.93682 0
M  V30 1617 C 158.161 -3.36581 0.387168 0
M  V30 1618 C 156.72 -3.76389 0.0283297 0
M  V30 1619 C 155.867 -2.68296 0.700889 0
M  V30 1620 H 158.818 -1.34919 0.83562 0
M  V30 1621 H 158.839 -3.78657 -0.374086 0
M  V30 1622 H 158.351 -3.60339 1.44144 0
M  V30 1623 H 156.452 -3.58246 -1.02423 0
M  V30 1624 H 156.565 -4.77095 0.437892 0
M  V30 1625 H 154.929 -2.54335 0.136267 0
M  V30 1626 H 155.712 -2.94887 1.75774 0
M  V30 1627 N 158.157 -0.370918 -1.53173 0
M  V30 1628 C 159.405 0.216673 -2.00935 0
M  V30 1629 C 159.726 1.48845 -1.25977 0
M  V30 1630 O 158.996 1.92286 -0.374551 0
M  V30 1631 H 157.576 0.0830565 -0.742368 0
M  V30 1632 H 160.238 -0.49838 -1.8842 0
M  V30 1633 H 159.334 0.439893 -3.08984 0
M  V30 1634 N 159.635 1.57281 -0.100228 0
M  V30 1635 C 160.565 2.17328 0.853857 0
M  V30 1636 C 161.546 1.10804 1.2906 0
M  V30 1637 O 162.731 1.38963 1.35657 0
M  V30 1638 C 159.861 2.75772 2.11109 0
M  V30 1639 C 158.815 3.87713 1.81279 0
M  V30 1640 C 158.141 4.32882 3.13874 0
M  V30 1641 C 159.441 5.10677 1.09574 0
M  V30 1642 H 161.135 2.97305 0.353545 0
M  V30 1643 H 158.681 1.43009 0.168612 0
M  V30 1644 H 160.634 3.16433 2.78296 0
M  V30 1645 H 159.358 1.93057 2.63432 0
M  V30 1646 H 158.017 3.476 1.16489 0
M  V30 1647 H 157.665 3.47051 3.64095 0
M  V30 1648 H 157.365 5.08358 2.94696 0
M  V30 1649 H 158.889 4.7618 3.82211 0
M  V30 1650 H 160.303 5.48474 1.66879 0
M  V30 1651 H 158.7 5.91615 1.00557 0
M  V30 1652 H 159.77 4.84835 0.0793299 0
M  V30 1653 N 161.113 -0.173488 1.56642 0
M  V30 1654 C 162.043 -1.2171 1.99271 0
M  V30 1655 C 163.024 -1.46289 0.867959 0
M  V30 1656 O 164.209 -1.5766 1.13388 0
M  V30 1657 C 161.339 -2.55651 2.35074 0
M  V30 1658 C 160.293 -2.45645 3.50489 0
M  V30 1659 C 159.619 -3.84056 3.72028 0
M  V30 1660 C 160.919 -1.96302 4.84007 0
M  V30 1661 H 162.613 -0.86275 2.867 0
M  V30 1662 H 160.159 -0.413571 1.37933 0
M  V30 1663 H 162.112 -3.2886 2.63494 0
M  V30 1664 H 160.836 -2.92869 1.44552 0
M  V30 1665 H 159.495 -1.7489 3.22194 0
M  V30 1666 H 159.143 -4.18664 2.788 0
M  V30 1667 H 158.843 -3.7823 4.49684 0
M  V30 1668 H 160.367 -4.58854 4.02846 0
M  V30 1669 H 161.781 -2.59284 5.11317 0
M  V30 1670 H 160.178 -2.01429 5.65284 0
M  V30 1671 H 161.248 -0.917226 4.76146 0
M  V30 1672 N 162.591 -1.51276 -0.441967 0
M  V30 1673 C 163.816 -1.67799 -1.21895 0
M  V30 1674 C 164.241 -0.372864 -1.84367 0
M  V30 1675 O 163.599 0.666501 -1.68604 0
M  V30 1676 C 163.647 -2.79199 -2.28211 0
M  V30 1677 O 162.751 -2.42479 -3.33583 0
M  V30 1678 H 162.092 -0.559649 -0.357336 0
M  V30 1679 H 164.622 -1.97815 -0.522522 0
M  V30 1680 H 164.632 -3.03146 -2.73069 0
M  V30 1681 H 163.307 -3.73906 -1.82118 0
M  V30 1682 H 161.884 -2.29087 -2.94234 0
M  V30 1683 N 164.069 0.697108 -1.41344 0
M  V30 1684 C 165.002 1.82134 -1.37486 0
M  V30 1685 C 165.98 1.60784 -0.242351 0
M  V30 1686 O 167.164 1.83553 -0.429012 0
M  V30 1687 C 164.291 3.18788 -1.14421 0
M  V30 1688 C 163.337 3.58932 -2.3037 0
M  V30 1689 S 164.17 3.63916 -3.92843 0
M  V30 1690 C 165.326 5.03298 -3.72078 0
M  V30 1691 H 165.559 1.85129 -2.32625 0
M  V30 1692 H 163.092 0.865671 -1.2785 0
M  V30 1693 H 165.05 3.97677 -1.018 0
M  V30 1694 H 163.711 3.13404 -0.20905 0
M  V30 1695 H 162.904 4.58202 -2.09922 0
M  V30 1696 H 162.506 2.87347 -2.39391 0
M  V30 1697 H 164.798 5.90753 -3.31688 0
M  V30 1698 H 165.741 5.28788 -4.70945 0
M  V30 1699 H 166.149 4.74764 -3.05384 0
M  V30 1700 N 165.547 1.27147 0.931209 0
M  V30 1701 C 166.51 1.09615 2.01289 0
M  V30 1702 C 167.51 0.0412581 1.60747 0
M  V30 1703 O 168.7 0.285545 1.71844 0
M  V30 1704 C 165.832 0.669447 3.34262 0
M  V30 1705 H 167.025 2.05662 2.18273 0
M  V30 1706 H 164.578 1.09885 1.11153 0
M  V30 1707 H 165.313 -0.292572 3.22978 0
M  V30 1708 H 165.098 1.43127 3.65044 0
M  V30 1709 H 166.588 0.568921 4.13706 0
M  V30 1710 N 167.025 -1.13721 1.09112 0
M  V30 1711 C 167.973 -2.21103 0.722219 0
M  V30 1712 C 168.967 -1.67147 -0.275374 0
M  V30 1713 O 170.173 -1.79477 -0.137176 0
M  V30 1714 H 166.548 -0.720445 0.215553 0
M  V30 1715 H 168.519 -2.49483 1.63709 0
M  V30 1716 C 167.268 -3.47352 0.15543 0
M  V30 1717 H 166.591 -3.89206 0.914246 0
M  V30 1718 H 168.031 -4.2395 -0.0647967 0
M  V30 1719 C 166.49 -3.1814 -1.10852 0
M  V30 1720 O 167.02 -3.36604 -2.19227 0
M  V30 1721 N 165.226 -2.72045 -1.02176 0
M  V30 1722 H 164.773 -2.57221 -0.139764 0
M  V30 1723 H 164.731 -2.52875 -1.8682 0
M  V30 1724 N 168.503 -0.877838 -1.30888 0
M  V30 1725 C 169.728 -0.506629 -2.01117 0
M  V30 1726 C 170.153 0.895564 -1.65412 0
M  V30 1727 O 169.511 1.5923 -0.866922 0
M  V30 1728 C 169.559 -0.680223 -3.54126 0
M  V30 1729 O 168.663 0.277033 -4.11468 0
M  V30 1730 H 168.004 -0.200518 -0.633 0
M  V30 1731 H 170.534 -1.18342 -1.66902 0
M  V30 1732 H 170.544 -0.5765 -4.03907 0
M  V30 1733 H 169.219 -1.70261 -3.79452 0
M  V30 1734 H 167.796 0.127606 -3.72682 0
M  V30 1735 N 169.982 1.44106 -0.638065 0
M  V30 1736 C 171.23 2.01579 -0.145043 0
M  V30 1737 C 171.551 1.50496 1.24 0
M  V30 1738 O 170.821 0.711374 1.82527 0
M  V30 1739 H 169.401 0.745282 -0.05063 0
M  V30 1740 H 172.063 1.76516 -0.826327 0
M  V30 1741 H 171.159 3.11877 -0.118039 0
M  V30 1742 N 171.46 0.379036 1.52974 0
M  V30 1743 C 172.871 -0.0972525 1.86447 0
M  V30 1744 C 173.222 -1.47027 1.29914 0
M  V30 1745 O 172.347 -2.07135 0.626433 0
M  V30 1746 C 172.942 -0.183248 3.38304 0
M  V30 1747 C 171.501 -0.603812 3.71525 0
M  V30 1748 C 170.648 0.240632 2.76254 0
M  V30 1749 H 173.599 0.597316 1.4703 0
M  V30 1750 H 173.62 -1.00432 3.67006 0
M  V30 1751 H 173.132 0.816191 3.79421 0
M  V30 1752 H 171.233 -1.61099 3.35973 0
M  V30 1753 H 171.346 -0.369086 4.77676 0
M  V30 1754 H 169.71 -0.292548 2.53014 0
M  V30 1755 H 170.493 1.23786 3.20206 0
M  V30 1756 N 172.938 -1.57226 0.108567 0
M  V30 1757 C 174.163 -1.99604 -0.563303 0
M  V30 1758 C 174.588 -0.987563 -1.6009 0
M  V30 1759 O 173.946 0.0421687 -1.81251 0
M  V30 1760 C 173.994 -3.40902 -1.17552 0
M  V30 1761 O 173.098 -3.42896 -2.2912 0
M  V30 1762 H 172.439 -0.648704 -0.1417 0
M  V30 1763 H 174.969 -2.03679 0.193961 0
M  V30 1764 H 174.979 -3.78886 -1.51357 0
M  V30 1765 H 173.654 -4.1382 -0.415445 0
M  V30 1766 H 172.231 -3.1672 -1.96832 0
M  V30 1767 N 174.416 0.165178 -1.56732 0
M  V30 1768 C 175.644 0.896218 -1.86482 0
M  V30 1769 C 176.059 1.75555 -0.694675 0
M  V30 1770 O 175.416 1.79379 0.33607 0
M  V30 1771 C 175.467 1.76792 -3.1532 0
M  V30 1772 O 175.188 0.943239 -4.27825 0
M  V30 1773 C 176.689 2.6081 -3.58459 0
M  V30 1774 H 173.909 0.260064 -0.618553 0
M  V30 1775 H 176.453 0.163428 -2.03846 0
M  V30 1776 H 174.608 2.45398 -2.99764 0
M  V30 1777 H 175.022 1.53998 -5.01383 0
M  V30 1778 H 176.496 3.17579 -4.51495 0
M  V30 1779 H 176.973 3.35977 -2.82872 0
M  V30 1780 H 177.579 1.97526 -3.76648 0
M  V30 1781 N 175.894 1.51508 0.433938 0
M  V30 1782 C 176.842 1.73646 1.54757 0
M  V30 1783 C 177.836 0.602854 1.5831 0
M  V30 1784 O 179.042 0.784318 1.62014 0
M  V30 1785 H 175.417 0.548718 0.51421 0
M  V30 1786 H 177.388 2.66991 1.33261 0
M  V30 1787 C 176.137 1.88172 2.92381 0
M  V30 1788 H 175.46 2.74808 2.90381 0
M  V30 1789 H 176.9 2.07672 3.6966 0
M  V30 1790 C 175.359 0.64239 3.30719 0
M  V30 1791 O 175.889 -0.201362 4.01195 0
M  V30 1792 N 174.095 0.485489 2.86516 0
M  V30 1793 H 173.642 1.17318 2.29334 0
M  V30 1794 H 173.6 -0.342482 3.12529 0
M  V30 1795 N 177.372 -0.689602 1.41712 0
M  V30 1796 C 178.62 -1.4468 1.4111 0
M  V30 1797 C 178.941 -1.94986 0.0232196 0
M  V30 1798 O 178.211 -1.72097 -0.935913 0
M  V30 1799 H 176.791 -0.536847 0.519427 0
M  V30 1800 H 179.453 -0.815825 1.77004 0
M  V30 1801 H 178.549 -2.30706 2.10193 0
M  V30 1802 N 178.85 -1.27639 -0.924453 0
M  V30 1803 C 180.09 -1.15407 -1.68703 0
M  V30 1804 C 180.454 0.294581 -1.89727 0
M  V30 1805 O 181.655 0.539385 -2.63333 0
M  V30 1806 C 179.926 -1.9195 -3.0148 0
M  V30 1807 S 181.485 -1.95969 -3.92609 0
M  V30 1808 H 178.303 -0.411937 -0.579507 0
M  V30 1809 H 180.905 -1.61592 -1.10038 0
M  V30 1810 H 179.609 -2.96387 -2.83871 0
M  V30 1811 H 179.14 -1.46272 -3.65196 0
M  V30 1812 H 181.155 -1.05846 -4.84779 0
M  V30 1813 N 180.328 1.1314 -1.09713 0
M  V30 1814 C 181.26 2.18343 -0.697056 0
M  V30 1815 C 182.273 1.60669 0.262551 0
M  V30 1816 O 183.462 1.78435 0.0481527 0
M  V30 1817 C 180.562 3.38899 -0.00684728 0
M  V30 1818 C 179.735 4.26078 -0.988741 0
M  V30 1819 C 178.794 5.25155 -0.331394 0
M  V30 1820 O 177.82 5.60701 -0.979926 0
M  V30 1821 N 179.022 5.73271 0.913261 0
M  V30 1822 H 181.787 2.5328 -1.60216 0
M  V30 1823 H 179.348 1.28491 -0.984971 0
M  V30 1824 H 181.34 4.02255 0.444191 0
M  V30 1825 H 179.91 3.02175 0.800551 0
M  V30 1826 H 179.13 3.59453 -1.61826 0
M  V30 1827 H 180.418 4.81178 -1.65364 0
M  V30 1828 H 179.816 5.46544 1.45966 0
M  V30 1829 H 178.373 6.3855 1.30757 0
M  V30 1830 N 181.806 0.884767 1.30421 0
M  V30 1831 C 183.053 0.503105 1.96151 0
M  V30 1832 C 183.381 -0.947676 1.69851 0
M  V30 1833 O 182.636 -1.68467 0.995861 0
M  V30 1834 C 182.935 0.724318 3.49983 0
M  V30 1835 C 182.601 2.15015 3.96332 0
M  V30 1836 C 181.263 2.54005 4.08699 0
M  V30 1837 C 183.615 3.07936 4.20505 0
M  V30 1838 C 180.943 3.85128 4.42599 0
M  V30 1839 C 183.295 4.3859 4.55874 0
M  V30 1840 C 181.959 4.77474 4.66449 0
M  V30 1841 H 181.229 0.184099 0.717766 0
M  V30 1842 H 183.876 1.12058 1.55291 0
M  V30 1843 H 182.181 0.0238086 3.91793 0
M  V30 1844 H 183.878 0.408617 3.98913 0
M  V30 1845 H 180.468 1.8375 3.87213 0
M  V30 1846 H 184.652 2.79033 4.10431 0
M  V30 1847 H 179.908 4.14996 4.48986 0
M  V30 1848 H 184.082 5.10629 4.7353 0
M  V30 1849 H 181.709 5.79115 4.92473 0
M  V30 1850 N 183.284 -1.43765 0.645699 0
M  V30 1851 C 184.531 -2.01898 0.15604 0
M  V30 1852 C 184.859 -1.50887 -1.22733 0
M  V30 1853 O 184.114 -0.689271 -1.8316 0
M  V30 1854 C 184.413 -3.57238 0.107679 0
M  V30 1855 C 184.079 -4.27564 1.43178 0
M  V30 1856 C 182.741 -4.46492 1.7944 0
M  V30 1857 C 185.093 -4.67454 2.30513 0
M  V30 1858 C 182.421 -5.02573 3.02716 0
M  V30 1859 C 184.773 -5.24901 3.53074 0
M  V30 1860 C 183.437 -5.42046 3.89541 0
M  V30 1861 H 182.707 -0.738797 0.057099 0
M  V30 1862 H 185.354 -1.72341 0.834912 0
M  V30 1863 H 183.659 -3.86293 -0.654618 0
M  V30 1864 H 185.356 -3.99965 -0.287938 0
M  V30 1865 H 181.946 -4.13171 1.13963 0
M  V30 1866 H 186.13 -4.5253 2.0379 0
M  V30 1867 H 181.386 -5.14033 3.31028 0
M  V30 1868 H 185.56 -5.54758 4.20971 0
M  V30 1869 H 183.187 -5.85268 4.85145 0
M  V30 1870 N 184.763 -0.387143 -1.52771 0
M  V30 1871 C 186.012 0.19697 -2.00736 0
M  V30 1872 C 186.325 1.48082 -1.27793 0
M  V30 1873 O 187.531 2.14485 -1.66458 0
M  V30 1874 C 185.987 0.401568 -3.57653 0
M  V30 1875 C 185.595 -0.868907 -4.39493 0
M  V30 1876 C 187.339 0.942164 -4.13912 0
M  V30 1877 C 185.246 -0.632705 -5.88006 0
M  V30 1878 H 184.176 0.0773827 -0.750019 0
M  V30 1879 H 186.827 -0.50921 -1.76293 0
M  V30 1880 H 185.209 1.16954 -3.78335 0
M  V30 1881 H 186.383 -1.64133 -4.30577 0
M  V30 1882 H 184.698 -1.33429 -3.94443 0
M  V30 1883 H 187.295 1.13455 -5.22525 0
M  V30 1884 H 187.638 1.9106 -3.69867 0
M  V30 1885 H 188.171 0.233814 -3.97112 0
M  V30 1886 H 184.91 -1.57208 -6.36369 0
M  V30 1887 H 184.43 0.100825 -5.99715 0
M  V30 1888 H 186.109 -0.26642 -6.46451 0
M  V30 1889 N 186.241 1.57166 -0.116904 0
M  V30 1890 C 187.469 1.99473 0.549383 0
M  V30 1891 C 187.884 0.996541 1.60357 0
M  V30 1892 O 187.241 -0.0108731 1.82497 0
M  V30 1893 C 187.292 3.41788 1.17741 0
M  V30 1894 O 187.013 4.37788 0.165362 0
M  V30 1895 C 188.514 3.99216 1.92722 0
M  V30 1896 H 185.734 0.655009 0.145616 0
M  V30 1897 H 188.278 2.03494 -0.202625 0
M  V30 1898 H 186.433 3.38713 1.88021 0
M  V30 1899 H 186.847 5.20806 0.621403 0
M  V30 1900 H 188.321 5.00882 2.31995 0
M  V30 1901 H 188.798 3.3824 2.80161 0
M  V30 1902 H 189.404 4.0583 1.27209 0
M  V30 1903 N 187.719 -0.156864 1.56817 0
M  V30 1904 C 188.959 -0.877453 1.84608 0
M  V30 1905 C 189.323 -1.78791 0.699845 0
M  V30 1906 O 190.524 -2.5472 0.858553 0
M  V30 1907 C 188.795 -1.63992 3.17555 0
M  V30 1908 S 190.354 -2.40729 3.66872 0
M  V30 1909 H 187.172 -0.293612 0.647544 0
M  V30 1910 H 189.774 -0.138099 1.95012 0
M  V30 1911 H 188.478 -0.962363 3.98957 0
M  V30 1912 H 188.009 -2.42038 3.10131 0
M  V30 1913 H 190.024 -3.65725 3.3535 0
M  V30 1914 N 189.197 -1.51736 -0.425897 0
M  V30 1915 C 190.422 -1.69082 -1.20108 0
M  V30 1916 C 190.847 -0.392398 -1.83962 0
M  V30 1917 O 190.205 0.64858 -1.69302 0
M  V30 1918 C 190.253 -2.81604 -2.25237 0
M  V30 1919 O 189.357 -2.46004 -3.30992 0
M  V30 1920 H 188.698 -0.563408 -0.35138 0
M  V30 1921 H 191.228 -1.98358 -0.501512 0
M  V30 1922 H 191.238 -3.06025 -2.69838 0
M  V30 1923 H 189.913 -3.75817 -1.78142 0
M  V30 1924 H 188.49 -2.32195 -2.91787 0
M  V30 1925 N 190.675 0.682077 -1.42076 0
M  V30 1926 C 191.622 1.79578 -1.44984 0
M  V30 1927 C 192.592 1.6332 -0.302614 0
M  V30 1928 O 193.777 1.83978 -0.505633 0
M  V30 1929 C 190.917 3.1756 -1.35091 0
M  V30 1930 C 190.03 3.45156 -2.59791 0
M  V30 1931 C 189.165 4.72826 -2.42093 0
M  V30 1932 C 188.204 4.93433 -3.62202 0
M  V30 1933 N 187.341 6.12338 -3.43491 0
M  V30 1934 H 192.181 1.76427 -2.40161 0
M  V30 1935 H 189.718 0.861376 -1.19242 0
M  V30 1936 H 191.676 3.97287 -1.27354 0
M  V30 1937 H 190.306 3.19854 -0.435133 0
M  V30 1938 H 189.358 2.59736 -2.77923 0
M  V30 1939 H 190.67 3.5628 -3.49094 0
M  V30 1940 H 189.824 5.60631 -2.319 0
M  V30 1941 H 188.563 4.63973 -1.50268 0
M  V30 1942 H 187.568 4.04073 -3.72834 0
M  V30 1943 H 188.793 5.04136 -4.54998 0
M  V30 1944 H 186.739 6.04672 -2.54377 0
M  V30 1945 H 186.656 6.2429 -4.26377 0
M  V30 1946 H 187.924 7.02841 -3.37097 0
M  V30 1947 N 192.153 1.28127 0.917671 0
M  V30 1948 C 193.393 1.163 1.68088 0
M  V30 1949 C 193.757 -0.284515 1.8988 0
M  V30 1950 O 194.958 -0.525413 2.63615 0
M  V30 1951 C 193.229 1.93546 3.00457 0
M  V30 1952 S 194.788 1.98048 3.91564 0
M  V30 1953 H 191.606 0.415005 0.577315 0
M  V30 1954 H 194.208 1.62173 1.09179 0
M  V30 1955 H 192.912 2.97888 2.82295 0
M  V30 1956 H 192.443 1.48207 3.64415 0
M  V30 1957 H 194.458 1.08415 4.84211 0
M  V30 1958 N 193.631 -1.12557 1.10312 0
M  V30 1959 C 194.908 -1.80363 0.756878 0
M  V30 1960 C 195.288 -1.97067 -0.756824 0
M  V30 1961 O 194.636 -1.54601 -1.68259 0
M  V30 1962 C 194.846 -3.14812 1.50647 0
M  V30 1963 C 196.194 -3.90029 1.67817 0
M  V30 1964 O 197.218 -3.24464 1.46974 0
M  V30 1965 O 196.077 -5.07652 2.02365 0
M  V30 1966 H 193.171 -0.780667 0.272926 0
M  V30 1967 H 195.717 -1.19404 1.20586 0
M  V30 1968 H 194.489 -2.97936 2.53672 0
M  V30 1969 H 194.112 -3.83478 1.05026 0
M  V30 1970 N 195.109 -0.891671 -1.2995 0
M  V30 1971 C 196.355 -0.523649 -1.96544 0
M  V30 1972 C 196.71 0.918394 -1.69066 0
M  V30 1973 O 196.003 1.64122 -0.988659 0
M  V30 1974 C 196.197 -0.742868 -3.49594 0
M  V30 1975 C 196.026 -2.20467 -3.9195 0
M  V30 1976 C 194.796 -2.85055 -4.17219 0
M  V30 1977 C 196.994 -3.17912 -4.04273 0
M  V30 1978 N 194.976 -4.21762 -4.46083 0
M  V30 1979 C 196.347 -4.39712 -4.37097 0
M  V30 1980 C 198.402 -3.1361 -3.86721 0
M  V30 1981 C 197.105 -5.5776 -4.54199 0
M  V30 1982 C 199.131 -4.30936 -4.05028 0
M  V30 1983 C 198.493 -5.51504 -4.38204 0
M  V30 1984 H 194.592 -0.241072 -0.743914 0
M  V30 1985 H 197.176 -1.15081 -1.5705 0
M  V30 1986 H 195.347 -0.14515 -3.88129 0
M  V30 1987 H 197.079 -0.341081 -4.0326 0
M  V30 1988 H 193.834 -2.35889 -4.10674 0
M  V30 1989 H 194.258 -4.92382 -4.64638 0
M  V30 1990 H 198.9 -2.21489 -3.60142 0
M  V30 1991 H 196.618 -6.50379 -4.79618 0
M  V30 1992 H 200.204 -4.29085 -3.92909 0
M  V30 1993 H 199.084 -6.40778 -4.52077 0
M  V30 1994 N 196.587 1.43421 -0.653314 0
M  V30 1995 C 197.517 2.33487 0.0246656 0
M  V30 1996 C 198.498 1.49475 0.811863 0
M  V30 1997 O 199.683 1.78139 0.773322 0
M  V30 1998 C 196.813 3.32841 0.99166 0
M  V30 1999 C 195.767 4.26842 0.314568 0
M  V30 2000 C 195.093 5.16236 1.39302 0
M  V30 2001 C 196.393 5.16243 -0.793095 0
M  V30 2002 H 198.087 2.90427 -0.727481 0
M  V30 2003 H 195.633 1.39649 -0.351287 0
M  V30 2004 H 197.586 3.94747 1.47487 0
M  V30 2005 H 196.31 2.74158 1.77497 0
M  V30 2006 H 194.969 3.663 -0.148199 0
M  V30 2007 H 194.617 4.53891 2.16776 0
M  V30 2008 H 194.317 5.79948 0.945223 0
M  V30 2009 H 195.841 5.81015 1.87759 0
M  V30 2010 H 197.255 5.71958 -0.392039 0
M  V30 2011 H 195.652 5.88676 -1.16536 0
M  V30 2012 H 196.722 4.55927 -1.65103 0
M  V30 2013 N 198.065 0.39524 1.52563 0
M  V30 2014 C 199.342 -0.242908 1.94086 0
M  V30 2015 C 199.722 -1.63841 1.33114 0
M  V30 2016 O 199.07 -2.22928 0.501529 0
M  V30 2017 C 199.28 -0.26327 3.48006 0
M  V30 2018 C 200.628 -0.489354 4.21771 0
M  V30 2019 O 201.652 -0.343226 3.54543 0
M  V30 2020 O 200.511 -0.776169 5.4096 0
M  V30 2021 H 197.605 -0.152536 0.812811 0
M  V30 2022 H 200.151 0.450178 1.6362 0
M  V30 2023 H 198.923 0.713985 3.84731 0
M  V30 2024 H 198.546 -1.00103 3.84792 0
M  V30 2025 N 199.544 -1.57102 0.125237 0
M  V30 2026 C 200.792 -1.95021 -0.530198 0
M  V30 2027 C 201.113 -1.00982 -1.66816 0
M  V30 2028 O 200.383 -0.0672693 -1.95784 0
M  V30 2029 H 198.963 -0.720046 -0.198853 0
M  V30 2030 H 201.625 -1.93916 0.19564 0
M  V30 2031 H 200.721 -2.98211 -0.920681 0
M  V30 2032 N 201.022 0.148545 -1.56898 0
M  V30 2033 C 201.969 1.18345 -1.98149 0
M  V30 2034 C 202.939 1.42772 -0.848848 0
M  V30 2035 O 204.124 1.55132 -1.11079 0
M  V30 2036 C 201.264 2.51231 -2.36594 0
M  V30 2037 C 200.377 2.33991 -3.63142 0
M  V30 2038 C 199.512 3.59902 -3.90697 0
M  V30 2039 C 198.551 3.37692 -5.1052 0
M  V30 2040 N 197.688 4.5573 -5.34092 0
M  V30 2041 H 202.528 0.82467 -2.86362 0
M  V30 2042 H 200.065 0.395756 -1.41676 0
M  V30 2043 H 202.023 3.28713 -2.56912 0
M  V30 2044 H 200.653 2.85059 -1.51463 0
M  V30 2045 H 199.705 1.47572 -3.50609 0
M  V30 2046 H 201.017 2.13539 -4.5078 0
M  V30 2047 H 200.171 4.45813 -4.11505 0
M  V30 2048 H 198.91 3.83357 -3.01477 0
M  V30 2049 H 197.915 2.5017 -4.89587 0
M  V30 2050 H 199.14 3.15637 -6.0129 0
M  V30 2051 H 197.086 4.79361 -4.47827 0
M  V30 2052 H 197.003 4.38274 -6.15996 0
M  V30 2053 H 198.271 5.42858 -5.59397 0
M  V30 2054 N 202.5 1.5196 0.417844 0
M  V30 2055 C 203.45 1.7106 1.5074 0
M  V30 2056 C 204.434 0.564487 1.50673 0
M  V30 2057 O 205.626 0.821206 1.56797 0
M  V30 2058 C 202.755 1.85677 2.88754 0
M  V30 2059 C 201.841 3.06133 2.93502 0
M  V30 2060 N 202.232 4.28987 2.67962 0
M  V30 2061 C 200.53 3.05787 3.24669 0
M  V30 2062 C 201.231 5.10395 2.79055 0
M  V30 2063 N 200.207 4.45455 3.11561 0
M  V30 2064 H 204.009 2.63696 1.29775 0
M  V30 2065 H 201.523 1.49873 0.625436 0
M  V30 2066 H 203.52 1.97475 3.67164 0
M  V30 2067 H 202.18 0.942348 3.10725 0
M  V30 2068 H 203.191 4.57607 2.4252 0
M  V30 2069 H 199.868 2.2405 3.52289 0
M  V30 2070 H 201.258 6.18247 2.63097 0
M  V30 2071 N 203.978 -0.674533 1.42435 0
M  V30 2072 C 205.224 -1.43671 1.43131 0
M  V30 2073 C 205.557 -1.94142 0.0476021 0
M  V30 2074 O 204.832 -1.70924 -0.928188 0
M  V30 2075 C 205.115 -2.63355 2.45594 0
M  V30 2076 C 204.968 -2.18514 3.93156 0
M  V30 2077 C 206.287 -3.65571 2.45043 0
M  V30 2078 H 203.406 -0.521077 0.521198 0
M  V30 2079 H 206.048 -0.766551 1.7385 0
M  V30 2080 H 204.198 -3.2053 2.19528 0
M  V30 2081 H 205.87 -1.66504 4.30202 0
M  V30 2082 H 204.113 -1.50086 4.07009 0
M  V30 2083 H 204.784 -3.04484 4.60428 0
M  V30 2084 H 207.26 -3.18113 2.68223 0
M  V30 2085 H 206.136 -4.46893 3.18713 0
M  V30 2086 H 206.397 -4.16716 1.47649 0
M  V30 2087 N 205.456 -1.28612 -0.910864 0
M  V30 2088 C 206.702 -1.16106 -1.66274 0
M  V30 2089 C 207.035 0.289113 -1.92036 0
M  V30 2090 O 206.31 1.21 -1.52281 0
M  V30 2091 C 206.593 -1.96309 -3.01885 0
M  V30 2092 C 206.446 -3.49405 -2.8326 0
M  V30 2093 C 207.765 -1.78076 -4.02463 0
M  V30 2094 H 204.884 -0.423152 -0.603417 0
M  V30 2095 H 207.526 -1.57961 -1.05586 0
M  V30 2096 H 205.676 -1.60742 -3.53687 0
M  V30 2097 H 207.348 -3.94894 -2.38446 0
M  V30 2098 H 205.591 -3.74893 -2.18261 0
M  V30 2099 H 206.262 -4.00784 -3.79574 0
M  V30 2100 H 208.738 -2.0912 -3.59733 0
M  V30 2101 H 207.614 -2.36561 -4.95308 0
M  V30 2102 H 207.875 -0.733008 -4.35981 0
M  V30 2103 N 206.934 1.1197 -1.10907 0
M  V30 2104 C 208.181 1.83588 -0.854507 0
M  V30 2105 C 208.509 1.84357 0.6199 0
M  V30 2106 O 207.764 1.28809 1.47332 0
M  V30 2107 C 208.063 3.30749 -1.35425 0
M  V30 2108 C 207.729 3.50146 -2.84093 0
M  V30 2109 C 206.391 3.55148 -3.2469 0
M  V30 2110 C 208.743 3.56857 -3.79872 0
M  V30 2111 C 206.071 3.6441 -4.59806 0
M  V30 2112 C 208.423 3.6765 -5.14797 0
M  V30 2113 C 207.087 3.7091 -5.54961 0
M  V30 2114 H 206.357 0.671795 -0.312686 0
M  V30 2115 H 209.004 1.32091 -1.38652 0
M  V30 2116 H 207.309 3.84703 -0.742361 0
M  V30 2117 H 209.006 3.8464 -1.1337 0
M  V30 2118 H 205.596 3.46919 -2.51685 0
M  V30 2119 H 209.78 3.52258 -3.49611 0
M  V30 2120 H 205.036 3.65208 -4.9034 0
M  V30 2121 H 209.21 3.71786 -5.88853 0
M  V30 2122 H 206.837 3.7784 -6.59652 0
M  V30 2123 N 208.412 0.89855 1.29475 0
M  V30 2124 C 209.66 0.522847 1.9522 0
M  V30 2125 C 209.981 -0.93371 1.71192 0
M  V30 2126 O 209.251 -1.65823 1.04305 0
M  V30 2127 H 207.831 0.190366 0.722336 0
M  V30 2128 H 210.493 1.14459 1.5775 0
M  V30 2129 H 209.589 0.704476 3.04045 0
M  V30 2130 N 209.89 -1.43072 0.660911 0
M  V30 2131 C 210.837 -2.30785 -0.0259884 0
M  V30 2132 C 211.807 -1.45184 -0.806888 0
M  V30 2133 O 212.992 -1.74041 -0.781943 0
M  V30 2134 C 210.132 -3.30861 -0.981067 0
M  V30 2135 C 209.245 -4.31558 -0.195458 0
M  V30 2136 C 208.38 -5.18712 -1.14503 0
M  V30 2137 C 207.419 -6.11097 -0.350299 0
M  V30 2138 N 206.556 -6.90849 -1.25186 0
M  V30 2139 H 211.396 -2.88975 0.727846 0
M  V30 2140 H 208.933 -1.42353 0.370682 0
M  V30 2141 H 210.891 -3.87399 -1.54849 0
M  V30 2142 H 209.521 -2.74304 -1.70169 0
M  V30 2143 H 208.573 -3.77252 0.488374 0
M  V30 2144 H 209.885 -4.9701 0.422176 0
M  V30 2145 H 209.039 -5.79914 -1.78284 0
M  V30 2146 H 207.778 -4.53404 -1.79656 0
M  V30 2147 H 206.783 -5.48976 0.300808 0
M  V30 2148 H 208.008 -6.7845 0.296941 0
M  V30 2149 H 205.954 -6.28182 -1.89005 0
M  V30 2150 H 205.871 -7.52854 -0.688971 0
M  V30 2151 H 207.139 -7.5655 -1.87757 0
M  V30 2152 N 211.368 -0.403325 -1.52352 0
M  V30 2153 C 212.617 0.175668 -2.00934 0
M  V30 2154 C 212.93 1.46718 -1.29356 0
M  V30 2155 O 214.136 2.12708 -1.68724 0
M  V30 2156 C 212.592 0.363612 -3.58058 0
M  V30 2157 C 212.2 -0.915472 -4.38547 0
M  V30 2158 C 213.944 0.89821 -4.14888 0
M  V30 2159 C 211.851 -0.695035 -5.87302 0
M  V30 2160 H 210.781 0.0694234 -0.750797 0
M  V30 2161 H 213.432 -0.527879 -1.75743 0
M  V30 2162 H 211.814 1.12935 -3.79555 0
M  V30 2163 H 212.988 -1.68691 -4.28812 0
M  V30 2164 H 211.303 -1.37606 -3.93006 0
M  V30 2165 H 213.9 1.07907 -5.23699 0
M  V30 2166 H 214.243 1.87126 -3.71873 0
M  V30 2167 H 214.776 0.191681 -3.97338 0
M  V30 2168 H 211.515 -1.63948 -6.34666 0
M  V30 2169 H 211.035 0.0372116 -5.99788 0
M  V30 2170 H 212.714 -0.33497 -6.46132 0
M  V30 2171 N 212.846 1.57033 -0.133567 0
M  V30 2172 C 214.095 1.94861 0.520768 0
M  V30 2173 C 214.408 1.02012 1.66892 0
M  V30 2174 O 215.614 1.29365 2.38699 0
M  V30 2175 C 214.07 3.46362 0.977809 0
M  V30 2176 C 213.678 4.47773 -0.142674 0
M  V30 2177 C 215.422 3.93083 1.60269 0
M  V30 2178 C 213.329 5.90468 0.331883 0
M  V30 2179 H 212.259 0.727453 0.198315 0
M  V30 2180 H 214.91 1.82227 -0.215759 0
M  V30 2181 H 213.292 3.54282 1.7692 0
M  V30 2182 H 214.466 4.51536 -0.919317 0
M  V30 2183 H 212.781 4.10891 -0.675124 0
M  V30 2184 H 215.378 4.97121 1.96914 0
M  V30 2185 H 215.721 3.33876 2.48662 0
M  V30 2186 H 216.254 3.88025 0.876453 0
M  V30 2187 H 212.993 6.53463 -0.516341 0
M  V30 2188 H 212.513 5.90094 1.07469 0
M  V30 2189 H 214.192 6.42179 0.788332 0
M  V30 2190 N 214.325 -0.140222 1.56975 0
M  V30 2191 C 215.602 -0.880769 1.74648 0
M  V30 2192 C 215.982 -1.99036 0.703404 0
M  V30 2193 O 215.33 -2.26821 -0.27648 0
M  V30 2194 C 215.54 -1.417 3.18939 0
M  V30 2195 C 216.888 -1.87774 3.80823 0
M  V30 2196 O 217.912 -1.51427 3.2241 0
M  V30 2197 O 216.771 -2.54827 4.83452 0
M  V30 2198 H 213.865 -0.416713 0.714338 0
M  V30 2199 H 216.411 -0.125618 1.69234 0
M  V30 2200 H 215.183 -0.619902 3.86359 0
M  V30 2201 H 214.806 -2.23546 3.28805 0
M  V30 2202 N 215.803 -1.52179 -0.40978 0
M  V30 2203 C 217.051 -1.65878 -1.15451 0
M  V30 2204 C 217.372 -0.390771 -1.91044 0
M  V30 2205 O 216.642 0.594323 -1.86667 0
M  V30 2206 H 215.222 -0.611405 -0.429177 0
M  V30 2207 H 217.884 -1.89219 -0.467134 0
M  V30 2208 H 216.98 -2.49954 -1.86894 0
M  V30 2209 N 217.281 0.66697 -1.42791 0
M  V30 2210 C 218.211 1.79218 -1.49677 0
M  V30 2211 C 219.192 1.66405 -0.352623 0
M  V30 2212 O 220.377 1.85708 -0.567993 0
M  V30 2213 C 217.507 3.17565 -1.40605 0
M  V30 2214 C 216.461 3.45124 -2.53127 0
M  V30 2215 C 215.787 4.83127 -2.29112 0
M  V30 2216 C 217.087 3.41236 -3.95418 0
M  V30 2217 H 218.781 1.73713 -2.43853 0
M  V30 2218 H 216.327 0.83432 -1.17367 0
M  V30 2219 H 218.28 3.96022 -1.44029 0
M  V30 2220 H 217.004 3.23767 -0.429271 0
M  V30 2221 H 215.663 2.69031 -2.49034 0
M  V30 2222 H 215.311 4.85988 -1.29709 0
M  V30 2223 H 215.011 5.02528 -3.04531 0
M  V30 2224 H 216.535 5.63859 -2.34297 0
M  V30 2225 H 217.949 4.09651 -4.01073 0
M  V30 2226 H 216.346 3.72173 -4.70752 0
M  V30 2227 H 217.416 2.39665 -4.21532 0
M  V30 2228 N 218.759 1.29093 0.90403 0
M  V30 2229 C 219.689 1.16401 2.02418 0
M  V30 2230 C 220.67 0.0593085 1.69997 0
M  V30 2231 O 221.855 0.238021 1.92736 0
M  V30 2232 C 218.985 0.835233 3.37107 0
M  V30 2233 C 217.939 1.89578 3.83724 0
M  V30 2234 C 217.265 1.42041 5.15489 0
M  V30 2235 C 218.565 3.30394 4.04521 0
M  V30 2236 H 220.259 2.10109 2.13295 0
M  V30 2237 H 217.805 1.01157 1.02486 0
M  V30 2238 H 219.758 0.733169 4.14973 0
M  V30 2239 H 218.482 -0.137543 3.2631 0
M  V30 2240 H 217.141 1.98715 3.08071 0
M  V30 2241 H 216.789 0.436426 5.01103 0
M  V30 2242 H 216.489 2.12964 5.4765 0
M  V30 2243 H 218.013 1.33176 5.959 0
M  V30 2244 H 219.427 3.24123 4.72882 0
M  V30 2245 H 217.824 3.99237 4.48029 0
M  V30 2246 H 218.894 3.73692 3.09002 0
M  V30 2247 N 220.237 -1.11381 1.11499 0
M  V30 2248 C 221.483 -1.83403 0.865512 0
M  V30 2249 C 221.816 -1.84459 -0.607329 0
M  V30 2250 O 221.091 -1.29811 -1.44842 0
M  V30 2251 C 221.374 -3.30552 1.42855 0
M  V30 2252 C 221.227 -3.37886 2.96906 0
M  V30 2253 C 222.546 -4.26643 1.08 0
M  V30 2254 H 219.665 -0.665879 0.31587 0
M  V30 2255 H 222.307 -1.30601 1.37998 0
M  V30 2256 H 220.457 -3.75648 0.990985 0
M  V30 2257 H 222.129 -3.01343 3.49271 0
M  V30 2258 H 220.372 -2.78088 3.32941 0
M  V30 2259 H 221.043 -4.41458 3.31389 0
M  V30 2260 H 223.519 -3.89729 1.45775 0
M  V30 2261 H 222.395 -5.27986 1.50072 0
M  V30 2262 H 222.656 -4.42099 -0.00915037 0
M  V30 2263 N 221.715 -0.905404 -1.28997 0
M  V30 2264 C 222.648 -0.331959 -2.25773 0
M  V30 2265 C 223.626 0.559099 -1.52685 0
M  V30 2266 O 224.81 0.50463 -1.8162 0
M  V30 2267 C 221.937 0.526276 -3.34586 0
M  V30 2268 C 220.983 -0.298249 -4.25456 0
M  V30 2269 S 221.816 -1.69968 -5.0781 0
M  V30 2270 C 222.972 -0.848519 -6.20122 0
M  V30 2271 H 223.205 -1.15222 -2.74064 0
M  V30 2272 H 220.738 -0.706112 -1.37308 0
M  V30 2273 H 222.696 1.01565 -3.97737 0
M  V30 2274 H 221.357 1.32084 -2.84978 0
M  V30 2275 H 220.55 0.357607 -5.0273 0
M  V30 2276 H 220.152 -0.720968 -3.66985 0
M  V30 2277 H 222.444 -0.0744325 -6.77459 0
M  V30 2278 H 223.387 -1.59353 -6.89937 0
M  V30 2279 H 223.795 -0.400383 -5.63078 0
M  V30 2280 N 223.193 1.4272 -0.668489 0
M  V30 2281 C 224.609 1.55992 -0.33745 0
M  V30 2282 C 224.809 1.64933 1.15756 0
M  V30 2283 O 223.865 1.61278 1.94282 0
M  V30 2284 C 225.178 2.81314 -1.06222 0
M  V30 2285 C 226.726 2.95078 -1.04394 0
M  V30 2286 C 227.201 4.23252 -1.74991 0
M  V30 2287 N 228.692 4.3015 -1.71829 0
M  V30 2288 C 229.427 5.28127 -2.23315 0
M  V30 2289 N 228.923 6.32293 -2.83156 0
M  V30 2290 N 230.716 5.19882 -2.13726 0
M  V30 2291 H 222.867 1.3516 -1.63846 0
M  V30 2292 H 225.13 0.650174 -0.689912 0
M  V30 2293 H 224.836 2.80823 -2.11734 0
M  V30 2294 H 224.71 3.72012 -0.62344 0
M  V30 2295 H 227.097 2.951 0.0028244 0
M  V30 2296 H 227.178 2.05627 -1.52155 0
M  V30 2297 H 226.822 4.2399 -2.79633 0
M  V30 2298 H 226.752 5.11626 -1.24685 0
M  V30 2299 H 229.243 3.55499 -1.28175 0
M  V30 2300 H 229.556 7.03398 -3.20079 0
M  V30 2301 H 227.901 6.32873 -2.87223 0
M  V30 2302 H 231.092 4.37423 -1.66669 0
M  V30 2303 H 231.265 5.96077 -2.54158 0
M  V30 2304 N 224.671 0.411399 1.52136 0
M  V30 2305 C 225.618 -0.412975 2.27075 0
M  V30 2306 C 226.588 -1.03912 1.29582 0
M  V30 2307 O 227.773 -1.06296 1.58448 0
M  V30 2308 C 224.913 -1.52247 3.09701 0
M  V30 2309 C 224.026 -0.917021 4.22155 0
M  V30 2310 C 223.161 -1.9994 4.92135 0
M  V30 2311 C 222.2 -1.37101 5.96548 0
M  V30 2312 N 221.337 -2.39364 6.60038 0
M  V30 2313 H 226.177 0.232499 2.97092 0
M  V30 2314 H 223.714 0.126496 1.46555 0
M  V30 2315 H 225.672 -2.17674 3.55913 0
M  V30 2316 H 224.302 -2.13794 2.41851 0
M  V30 2317 H 223.354 -0.151742 3.80097 0
M  V30 2318 H 224.666 -0.418006 4.97045 0
M  V30 2319 H 223.82 -2.73088 5.41763 0
M  V30 2320 H 222.559 -2.53208 4.16818 0
M  V30 2321 H 221.564 -0.624873 5.46237 0
M  V30 2322 H 222.789 -0.845998 6.7381 0
M  V30 2323 H 220.735 -2.91759 5.87548 0
M  V30 2324 H 220.652 -1.9428 7.3061 0
M  V30 2325 H 221.92 -3.12074 7.14304 0
M  V30 2326 N 226.149 -1.5696 0.141893 0
M  V30 2327 C 227.398 -1.95135 -0.510427 0
M  V30 2328 C 227.711 -1.02896 -1.66348 0
M  V30 2329 O 228.917 -1.30629 -2.38009 0
M  V30 2330 C 227.373 -3.46876 -0.959427 0
M  V30 2331 C 226.981 -4.47691 0.166419 0
M  V30 2332 C 228.725 -3.93927 -1.58183 0
M  V30 2333 C 226.632 -5.90636 -0.300565 0
M  V30 2334 H 225.562 -0.728494 -0.194454 0
M  V30 2335 H 228.213 -1.8211 0.22542 0
M  V30 2336 H 226.595 -3.55215 -1.75038 0
M  V30 2337 H 227.769 -4.51043 0.94325 0
M  V30 2338 H 226.084 -4.10527 0.696905 0
M  V30 2339 H 228.681 -4.98158 -1.94275 0
M  V30 2340 H 229.024 -3.3519 -2.46888 0
M  V30 2341 H 229.557 -3.88484 -0.855863 0
M  V30 2342 H 226.296 -6.5318 0.550989 0
M  V30 2343 H 225.816 -5.90655 -1.04338 0
M  V30 2344 H 227.495 -6.42588 -0.754265 0
M  V30 2345 N 227.627 0.131896 -1.57047 0
M  V30 2346 C 228.537 1.1815 -2.02676 0
M  V30 2347 C 229.553 1.46113 -0.944824 0
M  V30 2348 O 230.729 1.57485 -1.25541 0
M  V30 2349 C 227.794 2.49139 -2.41103 0
M  V30 2350 C 226.855 2.28688 -3.63318 0
M  V30 2351 C 226.088 3.53431 -3.99903 0
M  V30 2352 O 226.311 4.60223 -3.36973 0
M  V30 2353 O 225.245 3.45198 -4.93074 0
M  V30 2354 H 229.071 0.824069 -2.92306 0
M  V30 2355 H 226.656 0.341745 -1.45439 0
M  V30 2356 H 228.538 3.26338 -2.66611 0
M  V30 2357 H 227.213 2.84382 -1.54624 0
M  V30 2358 H 226.12 1.4939 -3.42977 0
M  V30 2359 H 227.453 1.98355 -4.50462 0
M  V30 2360 N 229.106 1.52395 0.401703 0
M  V30 2361 C 230.054 1.7689 1.51039 0
M  V30 2362 C 231.048 0.636298 1.56996 0
M  V30 2363 O 232.254 0.818507 1.60314 0
M  V30 2364 H 228.629 0.559502 0.502456 0
M  V30 2365 H 230.6 2.69757 1.27568 0
M  V30 2366 C 229.349 1.94331 2.88324 0
M  V30 2367 H 228.672 2.80905 2.84486 0
M  V30 2368 H 230.112 2.15466 3.65172 0
M  V30 2369 C 228.571 0.712396 3.29282 0
M  V30 2370 O 229.101 -0.116218 4.01532 0
M  V30 2371 N 227.307 0.546154 2.85422 0
M  V30 2372 H 226.854 1.22156 2.26794 0
M  V30 2373 H 226.812 -0.276113 3.13185 0
M  V30 2374 N 230.584 -0.659388 1.43143 0
M  V30 2375 C 231.83 -1.42145 1.44647 0
M  V30 2376 C 232.163 -1.9408 0.0681907 0
M  V30 2377 O 231.438 -1.71899 -0.910007 0
M  V30 2378 C 231.721 -2.60735 2.48373 0
M  V30 2379 C 231.574 -2.14332 3.95451 0
M  V30 2380 C 232.893 -3.62951 2.48906 0
M  V30 2381 H 230.012 -0.51552 0.526696 0
M  V30 2382 H 232.654 -0.748069 1.74654 0
M  V30 2383 H 230.804 -3.18184 2.22916 0
M  V30 2384 H 232.476 -1.61932 4.31944 0
M  V30 2385 H 230.719 -1.4576 4.08578 0
M  V30 2386 H 231.39 -2.99583 4.63631 0
M  V30 2387 H 233.866 -3.1525 2.71582 0
M  V30 2388 H 232.742 -4.43487 3.23435 0
M  V30 2389 H 233.003 -4.15126 1.52061 0
M  V30 2390 N 232.062 -1.29571 -0.897171 0
M  V30 2391 C 233.473 -1.15964 -1.46319 0
M  V30 2392 C 233.824 0.244267 -1.94674 0
M  V30 2393 O 232.949 1.13998 -1.83939 0
M  V30 2394 C 233.544 -2.09906 -2.65942 0
M  V30 2395 C 232.103 -2.00314 -3.18671 0
M  V30 2396 C 231.25 -2.00687 -1.91363 0
M  V30 2397 H 234.201 -1.42019 -0.708268 0
M  V30 2398 H 234.222 -1.67276 -3.41759 0
M  V30 2399 H 233.734 -3.12075 -2.30718 0
M  V30 2400 H 231.835 -1.01242 -3.58582 0
M  V30 2401 H 231.948 -2.88102 -3.82798 0
M  V30 2402 H 230.312 -1.45319 -2.09175 0
M  V30 2403 H 231.095 -3.04566 -1.58413 0
M  V30 2404 N 233.54 1.10788 -1.12088 0
M  V30 2405 C 234.768 1.86461 -0.896651 0
M  V30 2406 C 235.183 1.80492 0.553912 0
M  V30 2407 O 234.54 1.19102 1.38278 0
M  V30 2408 C 234.591 3.35006 -1.35843 0
M  V30 2409 O 234.312 3.40866 -2.75213 0
M  V30 2410 C 235.813 4.27565 -1.1706 0
M  V30 2411 H 233.033 0.589425 -0.320654 0
M  V30 2412 H 235.577 1.40076 -1.48993 0
M  V30 2413 H 233.732 3.7887 -0.808458 0
M  V30 2414 H 234.146 4.33411 -2.9539 0
M  V30 2415 H 235.62 5.30007 -1.54263 0
M  V30 2416 H 236.097 4.3906 -0.110814 0
M  V30 2417 H 236.703 3.89501 -1.70789 0
M  V30 2418 N 235.018 0.912232 1.28515 0
M  V30 2419 C 236.266 0.543523 1.94654 0
M  V30 2420 C 236.587 -0.9155 1.72173 0
M  V30 2421 O 235.857 -1.64708 1.06058 0
M  V30 2422 H 234.437 0.198017 0.720277 0
M  V30 2423 H 237.099 1.16126 1.56527 0
M  V30 2424 H 236.195 0.736684 3.03281 0
M  V30 2425 N 236.496 -1.42363 0.676048 0
M  V30 2426 C 237.907 -1.84649 0.275948 0
M  V30 2427 C 238.258 -1.56588 -1.18214 0
M  V30 2428 O 237.383 -1.02634 -1.90513 0
M  V30 2429 C 237.978 -3.35178 0.494053 0
M  V30 2430 C 236.537 -3.76109 0.148061 0
M  V30 2431 C 235.684 -2.65931 0.785891 0
M  V30 2432 H 238.635 -1.32192 0.878121 0
M  V30 2433 H 238.656 -3.79655 -0.25343 0
M  V30 2434 H 238.168 -3.55571 1.55535 0
M  V30 2435 H 236.269 -3.61323 -0.909742 0
M  V30 2436 H 236.382 -4.7546 0.589454 0
M  V30 2437 H 234.746 -2.53773 0.217113 0
M  V30 2438 H 235.529 -2.89146 1.85067 0
M  V30 2439 N 237.974 -0.419461 -1.51915 0
M  V30 2440 C 238.922 0.415502 -2.28859 0
M  V30 2441 C 239.916 1.03674 -1.3397 0
M  V30 2442 O 241.122 0.973757 -1.51387 0
M  V30 2443 H 237.497 0.152786 -0.736315 0
M  V30 2444 H 239.468 -0.254531 -2.97312 0
M  V30 2445 C 238.217 1.51425 -3.12995 0
M  V30 2446 H 237.54 1.04556 -3.85886 0
M  V30 2447 H 238.98 2.07208 -3.6992 0
M  V30 2448 C 237.439 2.48745 -2.27217 0
M  V30 2449 O 237.969 3.52871 -1.9195 0
M  V30 2450 N 236.175 2.19202 -1.90785 0
M  V30 2451 H 235.722 1.34556 -2.19664 0
M  V30 2452 H 235.68 2.84561 -1.33687 0
M  V30 2453 N 239.452 1.56882 -0.150215 0
M  V30 2454 C 240.4 2.18214 0.805313 0
M  V30 2455 C 241.394 1.14006 1.25296 0
M  V30 2456 O 242.6 1.3225 1.22107 0
M  V30 2457 H 238.975 0.698762 0.277913 0
M  V30 2458 H 240.946 2.97231 0.263862 0
M  V30 2459 C 239.695 2.82065 2.03309 0
M  V30 2460 H 239.018 3.61968 1.69763 0
M  V30 2461 H 240.458 3.28477 2.68103 0
M  V30 2462 C 238.917 1.80739 2.84315 0
M  V30 2463 O 239.447 1.27983 3.80767 0
M  V30 2464 N 237.653 1.4997 2.48913 0
M  V30 2465 H 237.2 1.93062 1.70542 0
M  V30 2466 H 237.158 0.824217 3.03404 0
M  V30 2467 N 240.93 -0.123565 1.57115 0
M  V30 2468 C 241.877 -1.15177 2.00007 0
M  V30 2469 C 242.847 -1.41403 0.871454 0
M  V30 2470 O 244.032 -1.53346 1.13533 0
M  V30 2471 C 241.172 -2.47436 2.40561 0
M  V30 2472 C 240.285 -2.28184 3.66819 0
M  V30 2473 C 239.42 -3.53641 3.96373 0
M  V30 2474 C 238.459 -3.29528 5.15827 0
M  V30 2475 N 237.596 -4.47175 5.41275 0
M  V30 2476 H 242.436 -0.779008 2.87638 0
M  V30 2477 H 239.973 -0.373166 1.42288 0
M  V30 2478 H 241.931 -3.24584 2.62109 0
M  V30 2479 H 240.561 -2.82614 1.55978 0
M  V30 2480 H 239.613 -1.41976 3.52912 0
M  V30 2481 H 240.925 -2.0634 4.5412 0
M  V30 2482 H 240.079 -4.39209 4.18545 0
M  V30 2483 H 238.818 -3.78512 3.07538 0
M  V30 2484 H 237.823 -2.42349 4.93505 0
M  V30 2485 H 239.048 -3.06031 6.06236 0
M  V30 2486 H 236.994 -4.72175 4.55397 0
M  V30 2487 H 236.911 -4.28419 6.22891 0
M  V30 2488 H 238.179 -5.3389 5.67963 0
M  V30 2489 N 242.408 -1.52605 -0.393616 0
M  V30 2490 C 243.819 -1.59417 -0.971761 0
M  V30 2491 C 244.17 -0.444173 -1.91106 0
M  V30 2492 O 243.295 0.433382 -2.12016 0
M  V30 2493 C 243.89 -2.88936 -1.76921 0
M  V30 2494 C 242.449 -2.98175 -2.29714 0
M  V30 2495 C 241.596 -2.54491 -1.10135 0
M  V30 2496 H 244.547 -1.57751 -0.173317 0
M  V30 2497 H 244.568 -2.75163 -2.62804 0
M  V30 2498 H 244.08 -3.72616 -1.08532 0
M  V30 2499 H 242.181 -2.19024 -3.01429 0
M  V30 2500 H 242.294 -4.02726 -2.59517 0
M  V30 2501 H 240.658 -2.08702 -1.45999 0
M  V30 2502 H 241.441 -3.4056 -0.432874 0
M  V30 2503 N 243.887 0.651787 -1.4349 0
M  V30 2504 C 244.834 1.76462 -1.4876 0
M  V30 2505 C 245.804 1.62641 -0.337189 0
M  V30 2506 O 246.989 1.82864 -0.544544 0
M  V30 2507 C 244.129 3.14623 -1.41796 0
M  V30 2508 C 243.242 3.39568 -2.67053 0
M  V30 2509 C 242.377 4.67585 -2.52068 0
M  V30 2510 C 241.416 4.85639 -3.72587 0
M  V30 2511 N 240.553 6.04915 -3.56402 0
M  V30 2512 H 245.393 1.71293 -2.43849 0
M  V30 2513 H 242.93 0.835889 -1.21043 0
M  V30 2514 H 244.888 3.94496 -1.35753 0
M  V30 2515 H 243.518 3.18859 -0.50288 0
M  V30 2516 H 242.57 2.53783 -2.8337 0
M  V30 2517 H 243.882 3.48795 -3.56572 0
M  V30 2518 H 243.036 5.55586 -2.4374 0
M  V30 2519 H 241.775 4.60681 -1.60075 0
M  V30 2520 H 240.78 3.96073 -3.81321 0
M  V30 2521 H 242.005 4.94372 -4.65589 0
M  V30 2522 H 239.951 5.9914 -2.67146 0
M  V30 2523 H 239.868 6.15106 -4.39524 0
M  V30 2524 H 241.136 6.95533 -3.51929 0
M  V30 2525 N 245.365 1.30045 0.890287 0
M  V30 2526 C 246.295 1.18541 2.01172 0
M  V30 2527 C 247.276 0.0773356 1.69924 0
M  V30 2528 O 248.461 0.25845 1.92473 0
M  V30 2529 C 245.591 0.870941 3.36202 0
M  V30 2530 C 244.545 1.93637 3.81692 0
M  V30 2531 C 243.871 1.475 5.13953 0
M  V30 2532 C 245.171 3.34666 4.00994 0
M  V30 2533 H 246.865 2.12359 2.11054 0
M  V30 2534 H 244.411 1.02238 1.01407 0
M  V30 2535 H 246.364 0.777141 4.14172 0
M  V30 2536 H 245.088 -0.102926 3.26438 0
M  V30 2537 H 243.747 2.01972 3.05946 0
M  V30 2538 H 243.395 0.489551 5.00612 0
M  V30 2539 H 243.095 2.1876 5.4536 0
M  V30 2540 H 244.619 1.39489 5.94454 0
M  V30 2541 H 246.033 3.2912 4.69417 0
M  V30 2542 H 244.43 4.03966 4.43769 0
M  V30 2543 H 245.5 3.76949 3.05021 0
M  V30 2544 N 246.843 -1.10192 1.12674 0
M  V30 2545 C 248.254 -1.63707 0.897604 0
M  V30 2546 C 248.605 -1.87812 -0.567546 0
M  V30 2547 O 247.73 -1.62196 -1.43253 0
M  V30 2548 C 248.325 -2.974 1.62292 0
M  V30 2549 C 246.884 -3.47772 1.43986 0
M  V30 2550 C 246.031 -2.22332 1.65722 0
M  V30 2551 H 248.982 -0.936587 1.28116 0
M  V30 2552 H 249.003 -3.64986 1.07541 0
M  V30 2553 H 248.515 -2.79824 2.68924 0
M  V30 2554 H 246.616 -3.70487 0.396206 0
M  V30 2555 H 246.729 -4.25723 2.19765 0
M  V30 2556 H 245.093 -2.30599 1.08149 0
M  V30 2557 H 245.876 -2.07285 2.73657 0
M  V30 2558 N 248.321 -0.919034 -1.28029 0
M  V30 2559 C 249.567 -0.555757 -1.95036 0
M  V30 2560 C 249.9 0.899198 -1.72128 0
M  V30 2561 O 249.175 1.64023 -1.04531 0
M  V30 2562 C 249.458 -0.872024 -3.49382 0
M  V30 2563 C 249.311 -2.3801 -3.81669 0
M  V30 2564 C 250.63 -0.37185 -4.38526 0
M  V30 2565 H 247.749 -0.203386 -0.708381 0
M  V30 2566 H 250.391 -1.14924 -1.51303 0
M  V30 2567 H 248.541 -0.366946 -3.86763 0
M  V30 2568 H 250.213 -2.9562 -3.54128 0
M  V30 2569 H 248.456 -2.83289 -3.28526 0
M  V30 2570 H 249.127 -2.55192 -4.8947 0
M  V30 2571 H 251.603 -0.804602 -4.08247 0
M  V30 2572 H 250.479 -0.622173 -5.45362 0
M  V30 2573 H 250.74 0.727934 -4.36066 0
M  V30 2574 N 249.799 1.42003 -0.683588 0
M  V30 2575 C 251.045 2.01712 -0.209825 0
M  V30 2576 C 251.378 1.53968 1.18353 0
M  V30 2577 O 250.653 0.745661 1.79639 0
M  V30 2578 C 250.936 3.59202 -0.254197 0
M  V30 2579 C 250.789 4.17102 -1.68363 0
M  V30 2580 C 252.108 4.38344 0.392709 0
M  V30 2581 H 249.227 0.732891 -0.0777189 0
M  V30 2582 H 251.869 1.68909 -0.87004 0
M  V30 2583 H 250.019 3.87278 0.307954 0
M  V30 2584 H 251.691 3.99946 -2.29871 0
M  V30 2585 H 249.934 3.72597 -2.22157 0
M  V30 2586 H 250.605 5.26249 -1.6663 0
M  V30 2587 H 253.081 4.16011 -0.0859162 0
M  V30 2588 H 251.957 5.47901 0.331063 0
M  V30 2589 H 252.218 4.16887 1.47164 0
M  V30 2590 N 251.277 0.427512 1.51691 0
M  V30 2591 C 252.526 -0.143679 2.01188 0
M  V30 2592 C 252.839 -1.44642 1.31674 0
M  V30 2593 O 254.045 -2.09997 1.72086 0
M  V30 2594 C 252.501 -0.306602 3.58592 0
M  V30 2595 C 252.109 0.985125 4.37035 0
M  V30 2596 C 253.853 -0.832091 4.16265 0
M  V30 2597 C 251.76 0.788382 5.86122 0
M  V30 2598 H 250.69 -0.0574701 0.751807 0
M  V30 2599 H 253.341 0.555772 1.74881 0
M  V30 2600 H 251.723 -1.06882 3.81303 0
M  V30 2601 H 252.897 1.75492 4.26074 0
M  V30 2602 H 251.212 1.4384 3.90767 0
M  V30 2603 H 253.809 -0.995617 5.25349 0
M  V30 2604 H 254.152 -1.81186 3.74803 0
M  V30 2605 H 254.685 -0.128444 3.97593 0
M  V30 2606 H 251.424 1.74025 6.31978 0
M  V30 2607 H 250.944 0.0582143 5.99772 0
M  V30 2608 H 252.623 0.437722 6.45518 0
M  V30 2609 N 252.755 -1.56801 0.158532 0
M  V30 2610 C 253.98 -2.01295 -0.499516 0
M  V30 2611 C 254.405 -1.03799 -1.56867 0
M  V30 2612 O 253.763 -0.0155162 -1.81293 0
M  V30 2613 C 253.811 -3.44469 -1.06647 0
M  V30 2614 O 252.915 -3.50012 -2.18095 0
M  V30 2615 H 252.256 -0.652884 -0.12099 0
M  V30 2616 H 254.786 -2.02958 0.258661 0
M  V30 2617 H 254.796 -3.8351 -1.39227 0
M  V30 2618 H 253.471 -4.14932 -0.283581 0
M  V30 2619 H 252.048 -3.22822 -1.86656 0
M  V30 2620 N 254.233 0.115231 -1.57178 0
M  V30 2621 C 255.165 1.16694 -1.97269 0
M  V30 2622 C 256.178 1.37445 -0.872502 0
M  V30 2623 O 257.367 1.36454 -1.15077 0
M  V30 2624 C 254.467 2.52627 -2.25905 0
M  V30 2625 C 253.64 2.52427 -3.57211 0
M  V30 2626 C 252.699 3.70134 -3.74016 0
M  V30 2627 O 251.725 3.53546 -4.46087 0
M  V30 2628 N 252.927 4.88844 -3.13068 0
M  V30 2629 H 255.692 0.82588 -2.88096 0
M  V30 2630 H 253.253 0.304461 -1.59011 0
M  V30 2631 H 255.245 3.29937 -2.34359 0
M  V30 2632 H 253.815 2.789 -1.41186 0
M  V30 2633 H 253.035 1.60805 -3.5991 0
M  V30 2634 H 254.323 2.49353 -4.43509 0
M  V30 2635 H 253.721 5.05225 -2.54489 0
M  V30 2636 H 252.278 5.63817 -3.27037 0
M  V30 2637 N 255.711 1.52812 0.385517 0
M  V30 2638 C 256.951 1.69716 1.13911 0
M  V30 2639 C 257.315 0.42962 1.87132 0
M  V30 2640 O 258.516 0.475071 2.64569 0
M  V30 2641 C 256.787 2.90021 2.0886 0
M  V30 2642 S 258.346 3.27531 2.92009 0
M  V30 2643 H 255.164 0.59739 0.385547 0
M  V30 2644 H 257.766 1.90868 0.423061 0
M  V30 2645 H 256.47 3.80493 1.53797 0
M  V30 2646 H 256.001 2.71213 2.84969 0
M  V30 2647 H 258.016 2.77989 4.11019 0
M  V30 2648 N 257.189 -0.644168 1.43834 0
M  V30 2649 C 258.437 -1.40117 1.45642 0
M  V30 2650 C 258.758 -1.94814 0.0852413 0
M  V30 2651 O 258.028 -1.74988 -0.880688 0
M  V30 2652 H 256.608 -0.52005 0.536243 0
M  V30 2653 H 259.27 -0.7591 1.7951 0
M  V30 2654 H 258.366 -2.23902 2.17427 0
M  V30 2655 N 258.668 -1.30515 -0.883378 0
M  V30 2656 C 259.578 -1.18959 -2.02203 0
M  V30 2657 C 260.594 -0.109172 -1.73657 0
M  V30 2658 O 261.77 -0.324413 -1.9877 0
M  V30 2659 C 258.835 -0.883871 -3.35244 0
M  V30 2660 C 257.896 -2.04982 -3.77201 0
M  V30 2661 C 257.129 -1.75859 -5.03894 0
M  V30 2662 O 257.352 -0.687276 -5.66244 0
M  V30 2663 O 256.286 -2.61146 -5.42297 0
M  V30 2664 H 260.112 -2.14616 -2.1488 0
M  V30 2665 H 257.697 -1.10124 -1.0096 0
M  V30 2666 H 259.579 -0.728644 -4.15053 0
M  V30 2667 H 258.254 0.0427798 -3.23672 0
M  V30 2668 H 257.161 -2.26038 -2.9809 0
M  V30 2669 H 258.494 -2.95825 -3.93381 0
M  V30 2670 N 260.146 1.09593 -1.13257 0
M  V30 2671 C 261.079 2.15451 -0.752061 0
M  V30 2672 C 262.057 1.60493 0.260913 0
M  V30 2673 O 263.241 1.8788 0.152819 0
M  V30 2674 C 260.368 3.38506 -0.114594 0
M  V30 2675 C 259.414 4.12183 -1.09579 0
M  V30 2676 S 260.247 4.6661 -2.62745 0
M  V30 2677 C 261.403 5.92966 -2.00354 0
M  V30 2678 H 261.636 2.47395 -1.64872 0
M  V30 2679 H 259.169 1.21515 -0.952545 0
M  V30 2680 H 261.127 4.09757 0.246808 0
M  V30 2681 H 259.788 3.04784 0.759309 0
M  V30 2682 H 258.981 5.00445 -0.597545 0
M  V30 2683 H 258.583 3.46785 -1.40057 0
M  V30 2684 H 260.875 6.63882 -1.35156 0
M  V30 2685 H 261.818 6.47467 -2.86691 0
M  V30 2686 H 262.226 5.45405 -1.4558 0
M  V30 2687 O 261.663 1.05716 1.22092 0
M  V30 2688 H 262.354 0.735773 1.79182 0
M  V30 END ATOM
M  V30 BEGIN BOND
M  V30 END BOND
M  V30 END CTAB
M  END
$$$$
