drugbank_target|O43519 RET proto-oncogene (DB00619; DB05014; DB12147)
 OpenBabel12092119473D

  0  0  0     0  0            999 V3000
M  V30 BEGIN CTAB
M  V30 COUNTS 1236 1331 0 0 0
M  V30 BEGIN ATOM
M  V30 1 H -1.547 9.37743 -1.21644 0
M  V30 2 O -1.44 8.89599 -0.40059 0
M  V30 3 P 0 8.91 0 0
M  V30 4 O 0.22 10.1726 0.733694 0
M  V30 5 O 0.79 8.73148 -1.23936 0
M  V30 6 O 0.25 7.66872 0.971405 0
M  V30 7 C -0.69 7.42309 2.04641 0
M  V30 8 C 0.04 6.86059 3.24661 0
M  V30 9 O 0.25 5.42847 3.03646 0
M  V30 10 C 1.44 7.41196 3.50753 0
M  V30 11 O 1.83 7.27073 4.86816 0
M  V30 12 C 2.32 6.5273 2.63741 0
M  V30 13 C 1.61 5.1842 2.73198 0
M  V30 14 N 1.66 4.38762 1.4784 0
M  V30 15 C 1.58 4.81605 0.168631 0
M  V30 16 N 1.66 3.85454 -0.713363 0
M  V30 17 C 1.8 2.6994 0.0566958 0
M  V30 18 C 1.93 1.34815 -0.338502 0
M  V30 19 O 1.95 0.869548 -1.47125 0
M  V30 20 N 2.05 0.496304 0.77465 0
M  V30 21 C 2.05 0.908403 2.09122 0
M  V30 22 N 2.18 -0.0517805 3.00955 0
M  V30 23 N 1.92 2.17875 2.46519 0
M  V30 24 C 1.8 3.01988 1.4033 0
M  V30 25 H -1.179 8.36803 2.32493 0
M  V30 26 H -1.449 6.70197 1.71129 0
M  V30 27 H -0.582 7.03551 4.13168 0
M  V30 28 H 2.073 4.59498 3.54415 0
M  V30 29 H 2.352 6.88898 1.59848 0
M  V30 30 H 3.344 6.46749 3.03687 0
M  V30 31 H 1.51 8.46908 3.20714 0
M  V30 32 H 1.461 5.86405 -0.105564 0
M  V30 33 H 2.143 -0.483664 0.597855 0
M  V30 34 H 2.18 0.187865 4.0116 0
M  V30 35 H 2.281 -1.03585 2.71726 0
M  V30 36 P 3.37998 7.20834 5.23717 0
M  V30 37 O 3.59998 7.79853 6.57286 0
M  V30 38 O 4.16998 7.79239 4.12957 0
M  V30 39 O 3.62998 5.63315 5.29344 0
M  V30 40 C 2.68998 4.80255 6.01876 0
M  V30 41 C 3.41998 3.64202 6.65911 0
M  V30 42 O 3.62998 2.60694 5.64732 0
M  V30 43 C 4.81998 3.93473 7.1943 0
M  V30 44 O 5.20998 3.02071 8.21205 0
M  V30 45 C 5.69998 3.73047 5.97036 0
M  V30 46 C 4.98998 2.58828 5.25741 0
M  V30 47 N 5.03998 2.68068 3.77503 0
M  V30 48 H 2.20098 5.40332 6.79951 0
M  V30 49 H 1.93098 4.41613 5.32378 0
M  V30 50 H 2.79798 3.26331 7.47797 0
M  V30 51 P 6.75996 2.75334 8.47391 0
M  V30 52 O 6.97996 2.44571 9.90142 0
M  V30 53 O 7.54996 3.87688 7.92115 0
M  V30 54 O 7.00996 1.4459 7.59357 0
M  V30 55 C 6.06996 0.347608 7.69215 0
M  V30 56 C 6.79996 -0.96767 7.52806 0
M  V30 57 O 7.00996 -1.21036 6.1011 0
M  V30 58 C 8.19996 -1.04544 8.13308 0
M  V30 59 O 8.58996 -2.38311 8.41922 0
M  V30 60 C 9.07996 -0.491279 7.02284 0
M  V30 61 C 8.36996 -0.996264 5.77469 0
M  V30 62 N 8.41996 -0.0501916 4.62973 0
M  V30 63 C 8.33996 1.32786 4.63244 0
M  V30 64 N 8.41996 1.86957 3.44545 0
M  V30 65 C 8.55996 0.780241 2.58481 0
M  V30 66 C 8.68996 0.738536 1.17757 0
M  V30 67 O 8.70996 1.66794 0.372349 0
M  V30 68 N 8.80996 -0.58337 0.711393 0
M  V30 69 C 8.80996 -1.70816 1.51017 0
M  V30 70 N 8.93996 -2.87826 0.880757 0
M  V30 71 N 8.67996 -1.67126 2.8339 0
M  V30 72 C 8.55996 -0.401421 3.30572 0
M  V30 73 H 5.58096 0.374722 8.67691 0
M  V30 74 H 5.31096 0.443485 6.90277 0
M  V30 75 H 6.17796 -1.75537 7.96793 0
M  V30 76 H 8.83296 -1.95076 5.46529 0
M  V30 77 H 9.11196 0.608565 7.04577 0
M  V30 78 H 10.104 -0.889672 7.08939 0
M  V30 79 H 8.26996 -0.43308 9.04564 0
M  V30 80 H 8.22096 1.91249 5.54442 0
M  V30 81 H 8.90296 -0.718054 -0.275244 0
M  V30 82 H 8.93996 -3.75721 1.41832 0
M  V30 83 H 9.04096 -2.90436 -0.145468 0
M  V30 84 P 10.1399 -2.75334 8.47391 0
M  V30 85 O 10.3599 -3.84128 9.44797 0
M  V30 86 O 10.9299 -1.51947 8.68712 0
M  V30 87 O 10.3899 -3.29363 6.99321 0
M  V30 88 C 9.44994 -4.24011 6.4274 0
M  V30 89 C 10.1799 -5.20775 5.52155 0
M  V30 90 O 10.3899 -4.56534 4.22446 0
M  V30 91 C 11.5799 -5.62629 5.96531 0
M  V30 92 O 11.9699 -6.87667 5.41053 0
M  V30 93 C 12.4599 -4.52537 5.39283 0
M  V30 94 C 11.7499 -4.20027 4.08623 0
M  V30 95 N 11.7999 -2.76189 3.71603 0
M  V30 96 H 8.96094 -4.797 7.24003 0
M  V30 97 H 8.69094 -3.69856 5.84513 0
M  V30 98 H 9.55794 -6.10356 5.41441 0
M  V30 99 P 13.5199 -7.20834 5.23717 0
M  V30 100 O 13.7399 -8.66104 5.38572 0
M  V30 101 O 14.3099 -6.33544 6.1349 0
M  V30 102 O 13.7699 -6.7751 3.72168 0
M  V30 103 C 12.8299 -7.20825 2.7076 0
M  V30 104 C 13.5599 -7.45864 1.40599 0
M  V30 105 O 13.7699 -6.17651 0.734225 0
M  V30 106 C 14.9599 -8.05808 1.51899 0
M  V30 107 O 15.3499 -8.74358 0.335205 0
M  V30 108 C 15.8399 -6.83093 1.70294 0
M  V30 109 C 15.1299 -5.79992 0.836974 0
M  V30 110 N 15.1799 -4.41864 1.38293 0
M  V30 111 H 12.3409 -8.13644 3.0377 0
M  V30 112 H 12.0709 -6.42788 2.55485 0
M  V30 113 H 12.9379 -8.12039 0.792769 0
M  V30 114 P 16.8999 -8.91 1.09116e-15 0
M  V30 115 O 17.1199 -10.1726 -0.733694 0
M  V30 116 O 17.6899 -8.73148 1.23936 0
M  V30 117 O 17.1499 -7.66872 -0.971405 0
M  V30 118 C 16.2099 -7.42309 -2.04641 0
M  V30 119 C 16.9399 -6.86059 -3.24661 0
M  V30 120 O 17.1499 -5.42847 -3.03646 0
M  V30 121 C 18.3399 -7.41196 -3.50753 0
M  V30 122 O 18.7299 -7.27073 -4.86816 0
M  V30 123 C 19.2199 -6.5273 -2.63741 0
M  V30 124 C 18.5099 -5.1842 -2.73198 0
M  V30 125 N 18.5599 -4.38762 -1.4784 0
M  V30 126 C 18.4799 -4.81605 -0.168631 0
M  V30 127 N 18.5599 -3.85454 0.713363 0
M  V30 128 C 18.6999 -2.6994 -0.0566958 0
M  V30 129 C 18.8299 -1.34815 0.338502 0
M  V30 130 N 18.9499 -0.496304 -0.77465 0
M  V30 131 C 18.9499 -0.908403 -2.09122 0
M  V30 132 N 19.0799 0.0517805 -3.00955 0
M  V30 133 N 18.8199 -2.17875 -2.46519 0
M  V30 134 C 18.6999 -3.01988 -1.4033 0
M  V30 135 H 15.7209 -8.36803 -2.32493 0
M  V30 136 H 15.4509 -6.70197 -1.71129 0
M  V30 137 H 16.3179 -7.03551 -4.13168 0
M  V30 138 P 20.2799 -7.20834 -5.23717 0
M  V30 139 O 20.4999 -7.7993 -6.57351 0
M  V30 140 O 21.0699 -7.79328 -4.13004 0
M  V30 141 O 20.5299 -5.63315 -5.29344 0
M  V30 142 C 19.5899 -4.80255 -6.01876 0
M  V30 143 C 20.3199 -3.64202 -6.65911 0
M  V30 144 O 20.5299 -2.60694 -5.64732 0
M  V30 145 C 21.7199 -3.93473 -7.1943 0
M  V30 146 O 22.1099 -3.02071 -8.21205 0
M  V30 147 C 22.5999 -3.73047 -5.97036 0
M  V30 148 C 21.8899 -2.58828 -5.25741 0
M  V30 149 N 21.9399 -2.6801 -3.77422 0
M  V30 150 C 22.0899 -1.50173 -3.05038 0
M  V30 151 O 22.1799 -0.428832 -3.665 0
M  V30 152 N 22.1399 -1.70922 -1.55541 0
M  V30 153 C 22.0399 -2.7407 -1.06402 0
M  V30 154 N 22.0899 -2.74764 0.260931 0
M  V30 155 C 21.8899 -3.96781 -1.78296 0
M  V30 156 C 21.8399 -3.87909 -3.13891 0
M  V30 157 H 19.0999 -5.4027 -6.79873 0
M  V30 158 H 18.8309 -4.41549 -5.32301 0
M  V30 159 H 19.6979 -3.26371 -7.47889 0
M  V30 160 H 22.3529 -1.63978 -5.5665 0
M  V30 161 H 22.6319 -4.63439 -5.3432 0
M  V30 162 H 23.6239 -3.44728 -6.25838 0
M  V30 163 H 21.7899 -4.96652 -7.57263 0
M  V30 164 H 21.7179 -4.78425 -3.73088 0
M  V30 165 H 21.8199 -4.92593 -1.26997 0
M  V30 166 H 22.2079 -1.86285 0.77595 0
M  V30 167 H 22.0109 -3.63657 0.773896 0
M  V30 168 P 23.6599 -2.75334 -8.47391 0
M  V30 169 O 23.8799 -2.44571 -9.90142 0
M  V30 170 O 24.4499 -3.87688 -7.92115 0
M  V30 171 O 23.9099 -1.4459 -7.59357 0
M  V30 172 C 22.9699 -0.347608 -7.69215 0
M  V30 173 C 23.6999 0.96767 -7.52806 0
M  V30 174 O 23.9099 1.21036 -6.1011 0
M  V30 175 C 25.0999 1.04544 -8.13308 0
M  V30 176 O 25.4899 2.38311 -8.41922 0
M  V30 177 C 25.9799 0.491279 -7.02284 0
M  V30 178 C 25.2699 0.996264 -5.77469 0
M  V30 179 N 25.3199 0.0501916 -4.62973 0
M  V30 180 C 25.2399 -1.32786 -4.63244 0
M  V30 181 N 25.3199 -1.86957 -3.44545 0
M  V30 182 C 25.4599 -0.780241 -2.58481 0
M  V30 183 C 25.5899 -0.738536 -1.17757 0
M  V30 184 N 25.7099 0.58337 -0.711393 0
M  V30 185 C 25.7099 1.70816 -1.51017 0
M  V30 186 N 25.8399 2.87826 -0.880757 0
M  V30 187 N 25.5799 1.67126 -2.8339 0
M  V30 188 C 25.4599 0.401421 -3.30572 0
M  V30 189 H 22.4809 -0.374722 -8.67691 0
M  V30 190 H 22.2109 -0.443485 -6.90277 0
M  V30 191 H 23.0779 1.75537 -7.96793 0
M  V30 192 P 27.0398 2.75334 -8.47391 0
M  V30 193 O 27.2598 3.84128 -9.44797 0
M  V30 194 O 27.8298 1.51947 -8.68712 0
M  V30 195 O 27.2898 3.29363 -6.99321 0
M  V30 196 C 26.3498 4.24011 -6.4274 0
M  V30 197 C 27.0798 5.20775 -5.52155 0
M  V30 198 O 27.2898 4.56534 -4.22446 0
M  V30 199 C 28.4798 5.62629 -5.96531 0
M  V30 200 O 28.8698 6.87667 -5.41053 0
M  V30 201 C 29.3598 4.52537 -5.39283 0
M  V30 202 C 28.6498 4.20027 -4.08623 0
M  V30 203 N 28.6998 2.76189 -3.71603 0
M  V30 204 C 28.6198 1.64862 -4.52822 0
M  V30 205 N 28.6998 0.512671 -3.88633 0
M  V30 206 C 28.8398 0.888083 -2.54977 0
M  V30 207 C 28.9698 0.094668 -1.38677 0
M  V30 208 O 28.9898 -1.13053 -1.28163 0
M  V30 209 N 29.0898 0.890102 -0.232633 0
M  V30 210 C 29.0898 2.26958 -0.21772 0
M  V30 211 N 29.2198 2.84626 0.97925 0
M  V30 212 N 28.9598 3.0178 -1.31033 0
M  V30 213 C 28.8398 2.26781 -2.43843 0
M  V30 214 H 25.8608 4.797 -7.24003 0
M  V30 215 H 25.5908 3.69856 -5.84513 0
M  V30 216 H 26.4578 6.10356 -5.41441 0
M  V30 217 H 29.1128 4.79061 -3.27488 0
M  V30 218 H 29.3918 3.64906 -6.05785 0
M  V30 219 H 30.3838 4.8868 -5.2125 0
M  V30 220 H 28.5498 5.66726 -7.06352 0
M  V30 221 H 28.5008 1.71169 -5.60966 0
M  V30 222 H 29.1828 0.419134 0.644739 0
M  V30 223 H 29.2198 3.87332 1.06098 0
M  V30 224 H 29.3208 2.26417 1.82483 0
M  V30 225 P 30.4198 7.20834 -5.23717 0
M  V30 226 O 30.6398 8.66274 -5.38678 0
M  V30 227 O 31.2098 6.33687 -6.13629 0
M  V30 228 O 30.6698 6.7751 -3.72168 0
M  V30 229 C 29.7298 7.20919 -2.70795 0
M  V30 230 C 30.4598 7.45864 -1.40599 0
M  V30 231 O 30.6698 6.17751 -0.734343 0
M  V30 232 C 31.8598 8.05906 -1.51917 0
M  V30 233 O 32.2498 8.74358 -0.335205 0
M  V30 234 C 32.7398 6.83093 -1.70294 0
M  V30 235 C 32.0298 5.79992 -0.836974 0
M  V30 236 N 32.0798 4.41864 -1.38293 0
M  V30 237 C 31.9998 4.02089 -2.69407 0
M  V30 238 N 32.0698 2.73403 -2.85089 0
M  V30 239 C 32.2198 2.25086 -1.5642 0
M  V30 240 C 32.3498 0.942887 -1.04836 0
M  V30 241 N 32.3598 -0.150999 -1.80369 0
M  V30 242 N 32.4698 0.812565 0.28167 0
M  V30 243 C 32.4598 1.90572 1.03784 0
M  V30 244 N 32.3398 3.167 0.683905 0
M  V30 245 C 32.2198 3.26538 -0.652815 0
M  V30 246 H 29.2418 8.13738 -3.03804 0
M  V30 247 H 28.9698 6.42974 -2.55559 0
M  V30 248 H 29.8378 8.12139 -0.792866 0
M  V30 249 H 32.4928 5.80178 0.160643 0
M  V30 250 H 32.7728 6.51379 -2.75643 0
M  V30 251 H 33.7638 7.01832 -1.3448 0
M  V30 252 H 31.9298 8.73771 -2.38364 0
M  V30 253 H 31.8888 4.7189 -3.52311 0
M  V30 254 H 32.2698 -0.0721434 -2.82608 0
M  V30 255 H 32.4588 -1.0785 -1.36544 0
M  V30 256 H 32.5668 1.73207 2.10241 0
M  V30 257 P 33.7998 8.91 -2.18232e-15 0
M  V30 258 O 34.0198 10.1746 0.733838 0
M  V30 259 O 34.5898 8.73346 -1.23964 0
M  V30 260 O 34.0498 7.66872 0.971405 0
M  V30 261 C 33.1098 7.42405 2.04668 0
M  V30 262 C 33.8398 6.86059 3.24661 0
M  V30 263 O 34.0498 5.42934 3.03695 0
M  V30 264 C 35.2398 7.41287 3.50796 0
M  V30 265 O 35.6298 7.27073 4.86816 0
M  V30 266 C 36.1198 6.5273 2.63741 0
M  V30 267 C 35.4098 5.1842 2.73198 0
M  V30 268 N 35.4598 4.38762 1.4784 0
M  V30 269 C 35.3798 4.83651 0.183876 0
M  V30 270 N 35.4498 3.88759 -0.699393 0
M  V30 271 C 35.5998 2.7404 0.0575568 0
M  V30 272 C 35.7298 1.37902 -0.293928 0
M  V30 273 N 35.7398 0.938021 -1.54797 0
M  V30 274 N 35.8498 0.491817 0.70549 0
M  V30 275 C 35.8398 0.931735 1.95979 0
M  V30 276 N 35.7198 2.16017 2.41481 0
M  V30 277 C 35.5998 3.02547 1.39121 0
M  V30 278 H 32.6218 8.36899 2.3252 0
M  V30 279 H 32.3498 6.70391 1.71179 0
M  V30 280 H 33.2178 7.03638 4.13219 0
M  V30 281 H 35.8728 4.59931 3.54016 0
M  V30 282 H 36.1528 6.88995 1.59871 0
M  V30 283 H 37.1438 6.4684 3.0373 0
M  V30 284 H 35.3098 8.47002 3.20749 0
M  V30 285 H 35.2688 5.8885 -0.0765548 0
M  V30 286 H 35.6498 1.60276 -2.32875 0
M  V30 287 H 35.8388 -0.0699355 -1.73859 0
M  V30 288 H 35.9468 0.165507 2.71897 0
M  V30 289 P 37.1798 7.20834 5.23717 0
M  V30 290 O 37.3998 7.79853 6.57286 0
M  V30 291 O 37.9698 7.79239 4.12957 0
M  V30 292 O 37.4298 5.63315 5.29344 0
M  V30 293 C 36.4898 4.80255 6.01876 0
M  V30 294 C 37.2198 3.64202 6.65911 0
M  V30 295 O 37.4298 2.60694 5.64732 0
M  V30 296 C 38.6198 3.93473 7.1943 0
M  V30 297 O 39.0098 3.02071 8.21205 0
M  V30 298 C 39.4998 3.73047 5.97036 0
M  V30 299 C 38.7898 2.58828 5.25741 0
M  V30 300 N 38.8398 2.68068 3.77503 0
M  V30 301 H 36.0008 5.40332 6.79951 0
M  V30 302 H 35.7308 4.41613 5.32378 0
M  V30 303 H 36.5978 3.26331 7.47797 0
M  V30 304 P 40.5598 2.75334 8.47391 0
M  V30 305 O 40.7798 2.44619 9.90336 0
M  V30 306 O 41.3498 3.87776 7.92294 0
M  V30 307 O 40.8098 1.4459 7.59357 0
M  V30 308 C 39.8698 0.347653 7.69315 0
M  V30 309 C 40.5998 -0.96767 7.52806 0
M  V30 310 O 40.8098 -1.21055 6.10208 0
M  V30 311 C 41.9998 -1.04557 8.13408 0
M  V30 312 O 42.3898 -2.38311 8.41922 0
M  V30 313 C 42.8798 -0.491279 7.02284 0
M  V30 314 C 42.1698 -0.996264 5.77469 0
M  V30 315 N 42.2198 -0.0501916 4.62973 0
M  V30 316 C 42.1398 1.31969 4.65661 0
M  V30 317 N 42.2098 1.86649 3.48119 0
M  V30 318 C 42.3598 0.792089 2.62406 0
M  V30 319 C 42.4898 0.705684 1.2207 0
M  V30 320 N 42.4998 1.76207 0.413762 0
M  V30 321 N 42.6098 -0.518981 0.685754 0
M  V30 322 C 42.5998 -1.57595 1.49174 0
M  V30 323 N 42.4798 -1.62909 2.80066 0
M  V30 324 C 42.3598 -0.388195 3.3073 0
M  V30 325 H 39.3818 0.374765 8.67791 0
M  V30 326 H 39.1098 0.443613 6.90476 0
M  V30 327 H 39.9778 -1.75559 7.96891 0
M  V30 328 H 42.6328 -1.94563 5.46818 0
M  V30 329 H 42.9128 0.608651 7.04676 0
M  V30 330 H 43.9038 -0.889796 7.09039 0
M  V30 331 H 42.0698 -0.433128 9.04664 0
M  V30 332 H 42.0288 1.89246 5.57664 0
M  V30 333 H 42.4098 2.71005 0.804694 0
M  V30 334 H 42.5988 1.63189 -0.603768 0
M  V30 335 H 42.7068 -2.53475 0.997614 0
M  V30 336 P 43.9397 -2.75334 8.47391 0
M  V30 337 O 44.1597 -3.84128 9.44797 0
M  V30 338 O 44.7297 -1.51947 8.68712 0
M  V30 339 O 44.1897 -3.29363 6.99321 0
M  V30 340 C 43.2497 -4.24011 6.4274 0
M  V30 341 C 43.9797 -5.20775 5.52155 0
M  V30 342 O 44.1897 -4.56534 4.22446 0
M  V30 343 C 45.3797 -5.62629 5.96531 0
M  V30 344 O 45.7697 -6.87667 5.41053 0
M  V30 345 C 46.2597 -4.52537 5.39283 0
M  V30 346 C 45.5497 -4.20027 4.08623 0
M  V30 347 N 45.5997 -2.76189 3.71603 0
M  V30 348 H 42.7607 -4.797 7.24003 0
M  V30 349 H 42.4907 -3.69856 5.84513 0
M  V30 350 H 43.3577 -6.10356 5.41441 0
M  V30 351 P 47.3197 -7.20834 5.23717 0
M  V30 352 O 47.5397 -8.66274 5.38678 0
M  V30 353 O 48.1097 -6.33687 6.13629 0
M  V30 354 O 47.5697 -6.7751 3.72168 0
M  V30 355 C 46.6297 -7.20919 2.70795 0
M  V30 356 C 47.3597 -7.45864 1.40599 0
M  V30 357 O 47.5697 -6.17751 0.734343 0
M  V30 358 C 48.7597 -8.05906 1.51917 0
M  V30 359 O 49.1497 -8.74358 0.335205 0
M  V30 360 C 49.6397 -6.83093 1.70294 0
M  V30 361 C 48.9297 -5.79992 0.836974 0
M  V30 362 N 48.9797 -4.41864 1.38293 0
M  V30 363 C 48.8997 -4.02089 2.69407 0
M  V30 364 N 48.9697 -2.73403 2.85089 0
M  V30 365 C 49.1197 -2.25086 1.5642 0
M  V30 366 C 49.2497 -0.942887 1.04836 0
M  V30 367 N 49.2597 0.150999 1.80369 0
M  V30 368 N 49.3697 -0.812565 -0.28167 0
M  V30 369 C 49.3597 -1.90572 -1.03784 0
M  V30 370 N 49.2397 -3.167 -0.683905 0
M  V30 371 C 49.1197 -3.26538 0.652815 0
M  V30 372 H 46.1417 -8.13738 3.03804 0
M  V30 373 H 45.8697 -6.42974 2.55559 0
M  V30 374 H 46.7377 -8.12139 0.792866 0
M  V30 375 H 49.3927 -5.80178 -0.160643 0
M  V30 376 H 49.6727 -6.51379 2.75643 0
M  V30 377 H 50.6637 -7.01832 1.3448 0
M  V30 378 H 48.8297 -8.73771 2.38364 0
M  V30 379 H 48.7887 -4.7189 3.52311 0
M  V30 380 H 49.1697 0.0721434 2.82608 0
M  V30 381 H 49.3587 1.0785 1.36544 0
M  V30 382 H 49.4667 -1.73207 -2.10241 0
M  V30 383 P 50.6997 -8.91 3.27348e-15 0
M  V30 384 O 50.9197 -10.1746 -0.733838 0
M  V30 385 O 51.4897 -8.73346 1.23964 0
M  V30 386 O 50.9497 -7.66872 -0.971405 0
M  V30 387 C 50.0097 -7.42405 -2.04668 0
M  V30 388 C 50.7397 -6.86059 -3.24661 0
M  V30 389 O 50.9497 -5.42934 -3.03695 0
M  V30 390 C 52.1397 -7.41287 -3.50796 0
M  V30 391 O 52.5297 -7.27073 -4.86816 0
M  V30 392 C 53.0197 -6.5273 -2.63741 0
M  V30 393 C 52.3097 -5.1842 -2.73198 0
M  V30 394 N 52.3597 -4.38762 -1.4784 0
M  V30 395 C 52.2797 -4.83651 -0.183876 0
M  V30 396 N 52.3497 -3.88759 0.699393 0
M  V30 397 C 52.4997 -2.7404 -0.0575568 0
M  V30 398 C 52.6297 -1.37902 0.293928 0
M  V30 399 N 52.6397 -0.938021 1.54797 0
M  V30 400 N 52.7497 -0.491817 -0.70549 0
M  V30 401 C 52.7397 -0.931735 -1.95979 0
M  V30 402 N 52.6197 -2.16017 -2.41481 0
M  V30 403 C 52.4997 -3.02547 -1.39121 0
M  V30 404 H 49.5217 -8.36899 -2.3252 0
M  V30 405 H 49.2497 -6.70391 -1.71179 0
M  V30 406 H 50.1177 -7.03638 -4.13219 0
M  V30 407 H 52.7727 -4.59931 -3.54016 0
M  V30 408 H 53.0527 -6.88995 -1.59871 0
M  V30 409 H 54.0437 -6.4684 -3.0373 0
M  V30 410 H 52.2097 -8.47002 -3.20749 0
M  V30 411 H 52.1687 -5.8885 0.0765548 0
M  V30 412 H 52.5497 -1.60276 2.32875 0
M  V30 413 H 52.7387 0.0699355 1.73859 0
M  V30 414 H 52.8467 -0.165507 -2.71897 0
M  V30 415 P 54.0797 -7.20834 -5.23717 0
M  V30 416 O 54.2997 -7.80006 -6.57415 0
M  V30 417 O 54.8697 -7.79416 -4.13051 0
M  V30 418 O 54.3297 -5.63315 -5.29344 0
M  V30 419 C 53.3897 -4.80318 -6.01954 0
M  V30 420 C 54.1197 -3.64202 -6.65911 0
M  V30 421 O 54.3297 -2.60736 -5.64823 0
M  V30 422 C 55.5197 -3.93521 -7.19518 0
M  V30 423 O 55.9097 -3.02071 -8.21205 0
M  V30 424 C 56.3997 -3.73047 -5.97036 0
M  V30 425 C 55.6897 -2.58828 -5.25741 0
M  V30 426 N 55.7397 -2.68068 -3.77503 0
M  V30 427 C 55.6597 -3.80474 -2.99159 0
M  V30 428 N 55.7297 -3.55622 -1.71925 0
M  V30 429 C 55.8797 -2.1832 -1.65733 0
M  V30 430 C 56.0097 -1.28842 -0.572777 0
M  V30 431 N 56.0197 -1.66875 0.70098 0
M  V30 432 N 56.1297 0.016788 -0.859836 0
M  V30 433 C 56.1197 0.398145 -2.13316 0
M  V30 434 N 55.9997 -0.328224 -3.22333 0
M  V30 435 C 55.8797 -1.62992 -2.90383 0
M  V30 436 H 52.9017 -5.40394 -6.8003 0
M  V30 437 H 52.6297 -4.41741 -5.32532 0
M  V30 438 H 53.4977 -3.26371 -7.47889 0
M  V30 439 H 56.1527 -1.64007 -5.56746 0
M  V30 440 H 56.4327 -4.63439 -5.3432 0
M  V30 441 H 57.4237 -3.44776 -6.25925 0
M  V30 442 H 55.5897 -4.96707 -7.57347 0
M  V30 443 H 55.5487 -4.8089 -3.39924 0
M  V30 444 H 55.9297 -2.66547 0.941919 0
M  V30 445 H 56.1187 -0.965341 1.44766 0
M  V30 446 H 56.2267 1.46427 -2.29697 0
M  V30 447 P 57.4597 -2.75334 -8.47391 0
M  V30 448 O 57.6797 -2.44619 -9.90336 0
M  V30 449 O 58.2497 -3.87776 -7.92294 0
M  V30 450 O 57.7097 -1.4459 -7.59357 0
M  V30 451 C 56.7697 -0.347653 -7.69315 0
M  V30 452 C 57.4997 0.96767 -7.52806 0
M  V30 453 O 57.7097 1.21055 -6.10208 0
M  V30 454 C 58.8997 1.04557 -8.13408 0
M  V30 455 O 59.2897 2.38311 -8.41922 0
M  V30 456 C 59.7797 0.491279 -7.02284 0
M  V30 457 C 59.0697 0.996264 -5.77469 0
M  V30 458 N 59.1197 0.0501916 -4.62973 0
M  V30 459 C 59.0397 -1.31969 -4.65661 0
M  V30 460 N 59.1097 -1.86649 -3.48119 0
M  V30 461 C 59.2597 -0.792089 -2.62406 0
M  V30 462 C 59.3897 -0.705684 -1.2207 0
M  V30 463 N 59.3997 -1.76207 -0.413762 0
M  V30 464 N 59.5097 0.518981 -0.685754 0
M  V30 465 C 59.4997 1.57595 -1.49174 0
M  V30 466 N 59.3797 1.62909 -2.80066 0
M  V30 467 C 59.2597 0.388195 -3.3073 0
M  V30 468 H 56.2817 -0.374765 -8.67791 0
M  V30 469 H 56.0097 -0.443613 -6.90476 0
M  V30 470 H 56.8777 1.75559 -7.96891 0
M  V30 471 H 59.5327 1.94563 -5.46818 0
M  V30 472 H 59.8127 -0.608651 -7.04676 0
M  V30 473 H 60.8037 0.889796 -7.09039 0
M  V30 474 H 58.9697 0.433128 -9.04664 0
M  V30 475 H 58.9287 -1.89246 -5.57664 0
M  V30 476 H 59.3097 -2.71005 -0.804694 0
M  V30 477 H 59.4987 -1.63189 0.603768 0
M  V30 478 H 59.6067 2.53475 -0.997614 0
M  V30 479 P 60.8396 2.75334 -8.47391 0
M  V30 480 O 61.0596 3.84204 -9.44982 0
M  V30 481 O 61.6296 1.51982 -8.68909 0
M  V30 482 O 61.0896 3.29363 -6.99321 0
M  V30 483 C 60.1496 4.24066 -6.42823 0
M  V30 484 C 60.8796 5.20775 -5.52155 0
M  V30 485 O 61.0896 4.56607 -4.22514 0
M  V30 486 C 62.2796 5.62697 -5.96604 0
M  V30 487 O 62.6696 6.87667 -5.41053 0
M  V30 488 C 63.1596 4.52537 -5.39283 0
M  V30 489 C 62.4496 4.20027 -4.08623 0
M  V30 490 N 62.4996 2.76189 -3.71603 0
M  V30 491 C 62.4196 1.66944 -4.54297 0
M  V30 492 N 62.4896 0.536169 -3.91344 0
M  V30 493 C 62.6396 0.901569 -2.58849 0
M  V30 494 C 62.7696 0.146599 -1.40236 0
M  V30 495 N 62.7796 -1.18234 -1.37046 0
M  V30 496 N 62.8896 0.822941 -0.249738 0
M  V30 497 C 62.8796 2.15179 -0.280525 0
M  V30 498 N 62.7596 2.96414 -1.30822 0
M  V30 499 C 62.6396 2.25804 -2.44748 0
M  V30 500 H 59.6616 4.79756 -7.24086 0
M  V30 501 H 59.3896 3.69963 -5.84682 0
M  V30 502 H 60.2576 6.10431 -5.41508 0
M  V30 503 H 62.9126 4.78816 -3.28024 0
M  V30 504 H 63.1926 3.64957 -6.05871 0
M  V30 505 H 64.1836 4.88748 -5.21323 0
M  V30 506 H 62.3496 5.66789 -7.0643 0
M  V30 507 H 62.3086 1.74684 -5.62396 0
M  V30 508 H 62.6896 -1.71949 -2.24394 0
M  V30 509 H 62.8786 -1.67511 -0.470742 0
M  V30 510 H 62.9866 2.63704 0.6828 0
M  V30 511 P 64.2196 7.20834 -5.23717 0
M  V30 512 O 64.4396 8.66274 -5.38678 0
M  V30 513 O 65.0096 6.33687 -6.13629 0
M  V30 514 O 64.4696 6.7751 -3.72168 0
M  V30 515 C 63.5296 7.20919 -2.70795 0
M  V30 516 C 64.2596 7.45864 -1.40599 0
M  V30 517 O 64.4696 6.17751 -0.734343 0
M  V30 518 C 65.6596 8.05906 -1.51917 0
M  V30 519 O 66.0496 8.74358 -0.335205 0
M  V30 520 C 66.5396 6.83093 -1.70294 0
M  V30 521 C 65.8296 5.79992 -0.836974 0
M  V30 522 N 65.8796 4.41864 -1.38293 0
M  V30 523 C 65.7996 4.02089 -2.69407 0
M  V30 524 N 65.8696 2.73403 -2.85089 0
M  V30 525 C 66.0196 2.25086 -1.5642 0
M  V30 526 C 66.1496 0.942887 -1.04836 0
M  V30 527 N 66.1596 -0.150999 -1.80369 0
M  V30 528 N 66.2696 0.812565 0.28167 0
M  V30 529 C 66.2596 1.90572 1.03784 0
M  V30 530 N 66.1396 3.167 0.683905 0
M  V30 531 C 66.0196 3.26538 -0.652815 0
M  V30 532 H 63.0416 8.13738 -3.03804 0
M  V30 533 H 62.7696 6.42974 -2.55559 0
M  V30 534 H 63.6376 8.12139 -0.792866 0
M  V30 535 H 66.2926 5.80178 0.160643 0
M  V30 536 H 66.5726 6.51379 -2.75643 0
M  V30 537 H 67.5636 7.01832 -1.3448 0
M  V30 538 H 65.7296 8.73771 -2.38364 0
M  V30 539 H 65.6886 4.7189 -3.52311 0
M  V30 540 H 66.0696 -0.0721434 -2.82608 0
M  V30 541 H 66.2586 -1.0785 -1.36544 0
M  V30 542 H 66.3666 1.73207 2.10241 0
M  V30 543 P 67.5996 8.91 -4.36464e-15 0
M  V30 544 O 67.8196 10.1746 0.733838 0
M  V30 545 O 68.3896 8.73346 -1.23964 0
M  V30 546 O 67.8496 7.66872 0.971405 0
M  V30 547 C 66.9096 7.42405 2.04668 0
M  V30 548 C 67.6396 6.86059 3.24661 0
M  V30 549 O 67.8496 5.42934 3.03695 0
M  V30 550 C 69.0396 7.41287 3.50796 0
M  V30 551 O 69.4296 7.27073 4.86816 0
M  V30 552 C 69.9196 6.5273 2.63741 0
M  V30 553 C 69.2096 5.1842 2.73198 0
M  V30 554 N 69.2596 4.38762 1.4784 0
M  V30 555 C 69.1796 4.83651 0.183876 0
M  V30 556 N 69.2496 3.88759 -0.699393 0
M  V30 557 C 69.3996 2.7404 0.0575568 0
M  V30 558 C 69.5296 1.37902 -0.293928 0
M  V30 559 N 69.5396 0.938021 -1.54797 0
M  V30 560 N 69.6496 0.491817 0.70549 0
M  V30 561 C 69.6396 0.931735 1.95979 0
M  V30 562 N 69.5196 2.16017 2.41481 0
M  V30 563 C 69.3996 3.02547 1.39121 0
M  V30 564 H 66.4216 8.36899 2.3252 0
M  V30 565 H 66.1496 6.70391 1.71179 0
M  V30 566 H 67.0176 7.03638 4.13219 0
M  V30 567 H 69.6726 4.59931 3.54016 0
M  V30 568 H 69.9526 6.88995 1.59871 0
M  V30 569 H 70.9436 6.4684 3.0373 0
M  V30 570 H 69.1096 8.47002 3.20749 0
M  V30 571 H 69.0686 5.8885 -0.0765548 0
M  V30 572 H 69.4496 1.60276 -2.32875 0
M  V30 573 H 69.6386 -0.0699355 -1.73859 0
M  V30 574 H 69.7466 0.165507 2.71897 0
M  V30 575 P 70.9796 7.20834 5.23717 0
M  V30 576 O 71.1996 7.79853 6.57286 0
M  V30 577 O 71.7696 7.79239 4.12957 0
M  V30 578 O 71.2296 5.63315 5.29344 0
M  V30 579 C 70.2896 4.80255 6.01876 0
M  V30 580 C 71.0196 3.64202 6.65911 0
M  V30 581 O 71.2296 2.60694 5.64732 0
M  V30 582 C 72.4196 3.93473 7.1943 0
M  V30 583 O 72.8096 3.02071 8.21205 0
M  V30 584 C 73.2996 3.73047 5.97036 0
M  V30 585 C 72.5896 2.58828 5.25741 0
M  V30 586 N 72.6396 2.68068 3.77503 0
M  V30 587 C 72.5596 3.79715 2.96723 0
M  V30 588 N 72.6396 3.5377 1.68852 0
M  V30 589 C 72.7796 2.15054 1.63254 0
M  V30 590 C 72.9096 1.28964 0.518571 0
M  V30 591 N 73.0296 -0.0538097 0.918425 0
M  V30 592 C 73.0296 -0.494275 2.22578 0
M  V30 593 N 73.1596 -1.81086 2.40434 0
M  V30 594 N 72.8996 0.313645 3.27502 0
M  V30 595 C 72.7796 1.61829 2.91033 0
M  V30 596 H 69.8006 5.40332 6.79951 0
M  V30 597 H 69.5306 4.41613 5.32378 0
M  V30 598 H 70.3976 3.26331 7.47797 0
M  V30 599 P 74.3596 2.75334 8.47391 0
M  V30 600 O 74.5796 2.44571 9.90142 0
M  V30 601 O 75.1496 3.87688 7.92115 0
M  V30 602 O 74.6096 1.4459 7.59357 0
M  V30 603 C 73.6696 0.347608 7.69215 0
M  V30 604 C 74.3996 -0.96767 7.52806 0
M  V30 605 O 74.6096 -1.21036 6.1011 0
M  V30 606 C 75.7996 -1.04544 8.13308 0
M  V30 607 O 76.1896 -2.38311 8.41922 0
M  V30 608 C 76.6796 -0.491279 7.02284 0
M  V30 609 C 75.9696 -0.996264 5.77469 0
M  V30 610 N 76.0196 -0.0501916 4.62973 0
M  V30 611 H 73.1806 0.374722 8.67691 0
M  V30 612 H 72.9106 0.443485 6.90277 0
M  V30 613 H 73.7776 -1.75537 7.96793 0
M  V30 614 H 76.0586 -2.92663 7.63961 0
M  V30 615 H 80.0806 -0.0909867 -9.51056 0
M  V30 616 O 79.9606 -0.778697 -8.86988 0
M  V30 617 P 78.5196 -1.17771 -8.83182 0
M  V30 618 O 78.2996 -2.07206 -9.98732 0
M  V30 619 O 77.7296 0.0743816 -8.81969 0
M  V30 620 O 78.2696 -1.97652 -7.47304 0
M  V30 621 C 79.2096 -3.01133 -7.08783 0
M  V30 622 C 78.4796 -4.12613 -6.37049 0
M  V30 623 O 78.2696 -3.72827 -4.97879 0
M  V30 624 C 77.0796 -4.45085 -6.88694 0
M  V30 625 O 76.6896 -5.7877 -6.5624 0
M  V30 626 C 76.1996 -3.47817 -6.12078 0
M  V30 627 C 76.9096 -3.39414 -4.77697 0
M  V30 628 N 76.8596 -2.04615 -4.15333 0
M  V30 629 H 79.6986 -3.41248 -7.98759 0
M  V30 630 H 79.9706 -2.5837 -6.41742 0
M  V30 631 H 79.1026 -5.02657 -6.42673 0
M  V30 632 P 75.1396 -6.144 -6.45285 0
M  V30 633 O 74.9196 -7.54673 -6.86199 0
M  V30 634 O 74.3496 -5.12391 -7.179 0
M  V30 635 O 74.8896 -5.99158 -4.88404 0
M  V30 636 C 75.8296 -6.60062 -3.96313 0
M  V30 637 C 75.0996 -7.08259 -2.72856 0
M  V30 638 O 74.8896 -5.9427 -1.83651 0
M  V30 639 C 73.6996 -7.65087 -2.94749 0
M  V30 640 O 73.3096 -8.53963 -1.90717 0
M  V30 641 C 72.8196 -6.41069 -2.90698 0
M  V30 642 C 73.5296 -5.5528 -1.86931 0
M  V30 643 N 73.4796 -4.09575 -2.15696 0
M  V30 644 C 73.3296 -3.24249 -1.08435 0
M  V30 645 O 73.2396 -3.63946 0.0628747 0
M  V30 646 N 73.2896 -1.90009 -1.39973 0
M  V30 647 C 73.3796 -1.34884 -2.65614 0
M  V30 648 C 73.5296 -2.3145 -3.71736 0
M  V30 649 C 73.5796 -3.63518 -3.44754 0
M  V30 650 H 76.3206 -7.45402 -4.45526 0
M  V30 651 H 76.5896 -5.86062 -3.67208 0
M  V30 652 H 75.7226 -7.84412 -2.24479 0
M  V30 653 H 73.0676 -5.73358 -0.888409 0
M  V30 654 H 72.7886 -5.90877 -3.88583 0
M  V30 655 H 71.7966 -6.65867 -2.58821 0
M  V30 656 H 73.6306 -8.16248 -3.92006 0
M  V30 657 H 73.7016 -4.34551 -4.26383 0
M  V30 658 P 71.7596 -8.7635 -1.60911 0
M  V30 659 O 71.5396 -10.1388 -1.11561 0
M  V30 660 O 70.9696 -8.36503 -2.79617 0
M  V30 661 O 71.5096 -7.71806 -0.42951 0
M  V30 662 C 72.4496 -7.66948 0.673514 0
M  V30 663 C 71.7196 -7.33374 1.95559 0
M  V30 664 O 71.5096 -5.88721 2.00726 0
M  V30 665 C 70.3196 -7.92218 2.1125 0
M  V30 666 O 69.9296 -8.02971 3.47653 0
M  V30 667 C 69.4396 -6.89504 1.41631 0
M  V30 668 C 70.1496 -5.59106 1.75155 0
M  V30 669 N 70.0996 -4.58136 0.662409 0
M  V30 670 C 69.9496 -3.26059 1.02863 0
M  V30 671 O 69.8596 -2.90743 2.19009 0
M  V30 672 N 69.9096 -2.35995 -0.0155585 0
M  V30 673 C 69.9996 -2.65248 -1.35603 0
M  V30 674 O 69.9496 -1.75605 -2.20651 0
M  V30 675 C 70.1496 -4.05747 -1.64698 0
M  V30 676 C 70.2596 -4.42345 -3.09553 0
M  V30 677 C 70.1996 -4.96734 -0.652411 0
M  V30 678 H 72.9406 -8.64917 0.776982 0
M  V30 679 H 73.2096 -6.89974 0.474015 0
M  V30 680 H 72.3426 -7.66548 2.79458 0
M  V30 681 H 69.6876 -5.16076 2.65138 0
M  V30 682 H 69.4086 -7.06433 0.329384 0
M  V30 683 H 68.4166 -6.90829 1.81996 0
M  V30 684 H 70.2506 -8.90774 1.62639 0
M  V30 685 H 70.3216 -6.02181 -0.895285 0
M  V30 686 H 69.2916 -4.80252 -3.45468 0
M  V30 687 H 71.0286 -5.20015 -3.22119 0
M  V30 688 H 70.5406 -3.53269 -3.67833 0
M  V30 689 H 69.8046 -1.39558 0.227499 0
M  V30 690 P 68.3796 -8.03563 3.84925 0
M  V30 691 O 68.1596 -8.85821 5.0569 0
M  V30 692 O 67.5896 -8.41101 2.65469 0
M  V30 693 O 68.1296 -6.4965 4.18908 0
M  V30 694 C 69.0696 -5.80886 5.05289 0
M  V30 695 C 68.3396 -4.78366 5.89277 0
M  V30 696 O 68.1296 -3.58302 5.08433 0
M  V30 697 C 66.9396 -5.16748 6.36559 0
M  V30 698 O 66.5496 -4.45271 7.53232 0
M  V30 699 C 66.0596 -4.74572 5.19863 0
M  V30 700 C 66.7696 -3.49373 4.70338 0
M  V30 701 N 66.7196 -3.31704 3.22876 0
M  V30 702 C 66.5696 -2.03326 2.74871 0
M  V30 703 O 66.4796 -1.06486 3.48076 0
M  V30 704 N 66.5296 -1.91838 1.37456 0
M  V30 705 C 66.6196 -2.94295 0.462035 0
M  V30 706 O 66.5696 -2.71763 -0.752928 0
M  V30 707 C 66.7696 -4.25064 1.05249 0
M  V30 708 C 66.8796 -5.39815 0.095697 0
M  V30 709 C 66.8196 -4.40214 2.39192 0
M  V30 710 H 69.5606 -6.54063 5.71245 0
M  V30 711 H 69.8296 -5.30339 4.43905 0
M  V30 712 H 68.9626 -4.55889 6.76652 0
M  V30 713 H 66.3076 -2.6167 5.17842 0
M  V30 714 H 66.0286 -5.52155 4.41878 0
M  V30 715 H 65.0366 -4.51918 5.53297 0
M  V30 716 H 66.8706 -6.25055 6.55162 0
M  V30 717 H 66.9416 -5.39798 2.81523 0
M  V30 718 H 65.9116 -5.91593 0.0279582 0
M  V30 719 H 67.6486 -6.10038 0.450573 0
M  V30 720 H 67.1606 -5.02007 -0.89937 0
M  V30 721 H 66.4246 -0.995326 1.00435 0
M  V30 722 P 64.9996 -4.23843 7.83734 0
M  V30 723 O 64.7796 -4.19407 9.29784 0
M  V30 724 O 64.2096 -5.24426 7.09156 0
M  V30 725 O 64.7496 -2.7935 7.20758 0
M  V30 726 C 65.6896 -1.72945 7.50224 0
M  V30 727 C 64.9596 -0.406376 7.57911 0
M  V30 728 O 64.7496 0.0897726 6.21935 0
M  V30 729 C 63.5596 -0.438983 8.18724 0
M  V30 730 O 63.1696 0.825065 8.71101 0
M  V30 731 C 62.6796 -0.783689 6.99524 0
M  V30 732 C 63.3896 -0.0619086 5.85867 0
M  V30 733 N 63.3396 -0.78573 4.56183 0
M  V30 734 C 63.1896 -0.0292889 3.41887 0
M  V30 735 O 63.0996 1.18445 3.4419 0
M  V30 736 N 63.1496 -0.744061 2.23964 0
M  V30 737 C 63.2396 -2.10932 2.10362 0
M  V30 738 O 63.1896 -2.64117 0.98825 0
M  V30 739 C 63.3896 -2.8202 3.34994 0
M  V30 740 C 63.4996 -4.31095 3.25037 0
M  V30 741 C 63.4396 -2.15547 4.52261 0
M  V30 742 H 66.1806 -1.93379 8.46595 0
M  V30 743 H 66.4496 -1.68132 6.70852 0
M  V30 744 H 65.5826 0.289041 8.15388 0
M  V30 745 H 62.9276 0.926847 5.72749 0
M  V30 746 H 62.6486 -1.86973 6.82036 0
M  V30 747 H 61.6566 -0.403896 7.13257 0
M  V30 748 H 63.4906 -1.20585 8.97435 0
M  V30 749 H 63.5616 -2.71231 5.45042 0
M  V30 750 H 62.5316 -4.76966 3.49992 0
M  V30 751 H 64.2686 -4.67047 3.95024 0
M  V30 752 H 63.7806 -4.58996 2.22312 0
M  V30 753 H 63.0446 -0.214893 1.39758 0
M  V30 754 P 61.6197 1.17771 8.83182 0
M  V30 755 O 61.3997 2.07206 9.98732 0
M  V30 756 O 60.8297 -0.0743816 8.81969 0
M  V30 757 O 61.3697 1.97652 7.47304 0
M  V30 758 C 62.3097 3.01055 7.08599 0
M  V30 759 C 61.5797 4.12613 6.37049 0
M  V30 760 O 61.3697 3.72827 4.97879 0
M  V30 761 C 60.1797 4.45719 6.88164 0
M  V30 762 O 59.7897 5.7877 6.5624 0
M  V30 763 C 59.2997 3.47768 6.11991 0
M  V30 764 C 60.0097 3.39356 4.77615 0
M  V30 765 N 59.9597 2.04571 4.15244 0
M  V30 766 C 59.8097 1.98587 2.78314 0
M  V30 767 O 59.7197 2.98134 2.08835 0
M  V30 768 N 59.7697 0.714467 2.24925 0
M  V30 769 C 59.8597 -0.470001 2.94169 0
M  V30 770 O 59.8097 -1.55587 2.35195 0
M  V30 771 C 60.0097 -0.312541 4.36783 0
M  V30 772 C 60.1197 -1.57711 5.16352 0
M  V30 773 C 60.0597 0.914512 4.92583 0
M  V30 774 H 62.8007 3.41169 7.98575 0
M  V30 775 H 63.0697 2.58295 6.41556 0
M  V30 776 H 62.2027 5.02657 6.42673 0
M  V30 777 H 59.5477 4.11637 4.08885 0
M  V30 778 H 59.2687 2.49626 6.61679 0
M  V30 779 H 58.2767 3.86566 6.00778 0
M  V30 780 H 60.1107 4.29943 7.96918 0
M  V30 781 H 60.1817 1.00937 6.00374 0
M  V30 782 H 59.1517 -1.80153 5.63503 0
M  V30 783 H 60.8887 -1.4566 5.94104 0
M  V30 784 H 60.4007 -2.40664 4.49645 0
M  V30 785 H 59.6647 0.647622 1.25697 0
M  V30 786 P 58.2397 6.144 6.45285 0
M  V30 787 O 58.0197 7.54673 6.86199 0
M  V30 788 O 57.4497 5.12391 7.179 0
M  V30 789 O 57.9897 5.99158 4.88404 0
M  V30 790 C 58.9297 6.60062 3.96313 0
M  V30 791 C 58.1997 7.08259 2.72856 0
M  V30 792 O 57.9897 5.9427 1.83651 0
M  V30 793 C 56.7997 7.65087 2.94749 0
M  V30 794 O 56.4097 8.53963 1.90717 0
M  V30 795 C 55.9197 6.41069 2.90698 0
M  V30 796 C 56.6297 5.5528 1.86931 0
M  V30 797 N 56.5797 4.09575 2.15696 0
M  V30 798 C 56.4297 3.24249 1.08435 0
M  V30 799 O 56.3397 3.63946 -0.0628747 0
M  V30 800 N 56.3897 1.90009 1.39973 0
M  V30 801 C 56.4797 1.34884 2.65614 0
M  V30 802 O 56.4297 0.123716 2.81728 0
M  V30 803 C 56.6297 2.3145 3.71736 0
M  V30 804 C 56.7397 1.75913 5.10438 0
M  V30 805 C 56.6797 3.63518 3.44754 0
M  V30 806 H 59.4207 7.45402 4.45526 0
M  V30 807 H 59.6897 5.86062 3.67208 0
M  V30 808 H 58.8227 7.84412 2.24479 0
M  V30 809 H 56.1677 5.73358 0.888409 0
M  V30 810 H 55.8887 5.90877 3.88583 0
M  V30 811 H 54.8967 6.65867 2.58821 0
M  V30 812 H 56.7307 8.16248 3.92006 0
M  V30 813 H 56.8017 4.34551 4.26383 0
M  V30 814 H 55.7717 1.85471 5.61775 0
M  V30 815 H 57.5087 2.31364 5.66257 0
M  V30 816 H 57.0207 0.695936 5.05229 0
M  V30 817 H 56.2847 1.26277 0.63625 0
M  V30 818 P 54.8597 8.7635 1.60911 0
M  V30 819 O 54.6397 10.1388 1.11561 0
M  V30 820 O 54.0697 8.36503 2.79617 0
M  V30 821 O 54.6097 7.71806 0.42951 0
M  V30 822 C 55.5497 7.66948 -0.673514 0
M  V30 823 C 54.8197 7.33374 -1.95559 0
M  V30 824 O 54.6097 5.88721 -2.00726 0
M  V30 825 C 53.4197 7.92218 -2.1125 0
M  V30 826 O 53.0297 8.02971 -3.47653 0
M  V30 827 C 52.5397 6.89504 -1.41631 0
M  V30 828 C 53.2497 5.59106 -1.75155 0
M  V30 829 N 53.1997 4.58136 -0.662409 0
M  V30 830 C 53.0497 3.26059 -1.02863 0
M  V30 831 O 52.9597 2.90743 -2.19009 0
M  V30 832 N 53.0097 2.35995 0.0155585 0
M  V30 833 C 53.0997 2.65248 1.35603 0
M  V30 834 O 53.0497 1.75605 2.20651 0
M  V30 835 C 53.2497 4.05747 1.64698 0
M  V30 836 C 53.3597 4.42345 3.09553 0
M  V30 837 C 53.2997 4.96734 0.652411 0
M  V30 838 H 56.0407 8.64917 -0.776982 0
M  V30 839 H 56.3097 6.89974 -0.474015 0
M  V30 840 H 55.4427 7.66548 -2.79458 0
M  V30 841 H 52.7877 5.16076 -2.65138 0
M  V30 842 H 52.5087 7.06433 -0.329384 0
M  V30 843 H 51.5167 6.90829 -1.81996 0
M  V30 844 H 53.3507 8.90774 -1.62639 0
M  V30 845 H 53.4217 6.02181 0.895285 0
M  V30 846 H 52.3917 4.80252 3.45468 0
M  V30 847 H 54.1287 5.20015 3.22119 0
M  V30 848 H 53.6407 3.53269 3.67833 0
M  V30 849 H 52.9047 1.39558 -0.227499 0
M  V30 850 P 51.4797 8.03563 -3.84925 0
M  V30 851 O 51.2597 8.85821 -5.0569 0
M  V30 852 O 50.6897 8.41101 -2.65469 0
M  V30 853 O 51.2297 6.4965 -4.18908 0
M  V30 854 C 52.1697 5.80886 -5.05289 0
M  V30 855 C 51.4397 4.78366 -5.89277 0
M  V30 856 O 51.2297 3.58302 -5.08433 0
M  V30 857 C 50.0397 5.16748 -6.36559 0
M  V30 858 O 49.6497 4.45271 -7.53232 0
M  V30 859 C 49.1597 4.74572 -5.19863 0
M  V30 860 C 49.8697 3.49373 -4.70338 0
M  V30 861 N 49.8197 3.31704 -3.22876 0
M  V30 862 C 49.6697 2.03326 -2.74871 0
M  V30 863 O 49.5797 1.06486 -3.48076 0
M  V30 864 N 49.6297 1.91838 -1.37456 0
M  V30 865 C 49.7197 2.94295 -0.462035 0
M  V30 866 O 49.6697 2.71763 0.752928 0
M  V30 867 C 49.8697 4.25064 -1.05249 0
M  V30 868 C 49.9797 5.39815 -0.095697 0
M  V30 869 C 49.9197 4.40214 -2.39192 0
M  V30 870 H 52.6607 6.54063 -5.71245 0
M  V30 871 H 52.9297 5.30339 -4.43905 0
M  V30 872 H 52.0627 4.55889 -6.76652 0
M  V30 873 H 49.4077 2.6167 -5.17842 0
M  V30 874 H 49.1287 5.52155 -4.41878 0
M  V30 875 H 48.1367 4.51918 -5.53297 0
M  V30 876 H 49.9707 6.25055 -6.55162 0
M  V30 877 H 50.0417 5.39798 -2.81523 0
M  V30 878 H 49.0117 5.91593 -0.0279582 0
M  V30 879 H 50.7487 6.10038 -0.450573 0
M  V30 880 H 50.2607 5.02007 0.89937 0
M  V30 881 H 49.5247 0.995326 -1.00435 0
M  V30 882 P 48.0997 4.23843 -7.83734 0
M  V30 883 O 47.8797 4.19407 -9.29784 0
M  V30 884 O 47.3097 5.24426 -7.09156 0
M  V30 885 O 47.8497 2.7935 -7.20758 0
M  V30 886 C 48.7897 1.7299 -7.50419 0
M  V30 887 C 48.0597 0.406376 -7.57911 0
M  V30 888 O 47.8497 -0.0897726 -6.21935 0
M  V30 889 C 46.6597 0.447224 -8.1878 0
M  V30 890 O 46.2697 -0.825065 -8.71101 0
M  V30 891 C 45.7797 0.783801 -6.99623 0
M  V30 892 C 46.4897 0.0619192 -5.85967 0
M  V30 893 N 46.4397 0.7859 -4.56281 0
M  V30 894 H 49.2787 1.93423 -8.4679 0
M  V30 895 H 49.5507 1.68181 -6.71046 0
M  V30 896 H 48.6827 -0.289041 -8.15388 0
M  V30 897 P 44.7198 -1.17771 -8.83182 0
M  V30 898 O 44.4998 -2.07206 -9.98732 0
M  V30 899 O 43.9298 0.0743816 -8.81969 0
M  V30 900 O 44.4698 -1.97652 -7.47304 0
M  V30 901 C 45.4098 -3.01055 -7.08599 0
M  V30 902 C 44.6798 -4.12613 -6.37049 0
M  V30 903 O 44.4698 -3.72827 -4.97879 0
M  V30 904 C 43.2798 -4.45719 -6.88164 0
M  V30 905 O 42.8898 -5.7877 -6.5624 0
M  V30 906 C 42.3998 -3.47768 -6.11991 0
M  V30 907 C 43.1098 -3.39356 -4.77615 0
M  V30 908 N 43.0598 -2.04571 -4.15244 0
M  V30 909 C 42.9098 -1.98587 -2.78314 0
M  V30 910 O 42.8198 -2.98134 -2.08835 0
M  V30 911 N 42.8698 -0.714467 -2.24925 0
M  V30 912 C 42.9598 0.470001 -2.94169 0
M  V30 913 O 42.9098 1.55587 -2.35195 0
M  V30 914 C 43.1098 0.312541 -4.36783 0
M  V30 915 C 43.2198 1.57711 -5.16352 0
M  V30 916 C 43.1598 -0.914512 -4.92583 0
M  V30 917 H 45.9008 -3.41169 -7.98575 0
M  V30 918 H 46.1698 -2.58295 -6.41556 0
M  V30 919 H 45.3028 -5.02657 -6.42673 0
M  V30 920 H 42.6478 -4.11637 -4.08885 0
M  V30 921 H 42.3688 -2.49626 -6.61679 0
M  V30 922 H 41.3768 -3.86566 -6.00778 0
M  V30 923 H 43.2108 -4.29943 -7.96918 0
M  V30 924 H 43.2818 -1.00937 -6.00374 0
M  V30 925 H 42.2518 1.80153 -5.63503 0
M  V30 926 H 43.9888 1.4566 -5.94104 0
M  V30 927 H 43.5008 2.40664 -4.49645 0
M  V30 928 H 42.7648 -0.647622 -1.25697 0
M  V30 929 P 41.3398 -6.144 -6.45285 0
M  V30 930 O 41.1198 -7.54673 -6.86199 0
M  V30 931 O 40.5498 -5.12391 -7.179 0
M  V30 932 O 41.0898 -5.99158 -4.88404 0
M  V30 933 C 42.0298 -6.60234 -3.96415 0
M  V30 934 C 41.2998 -7.08259 -2.72856 0
M  V30 935 O 41.0898 -5.9427 -1.83651 0
M  V30 936 C 39.8998 -7.64886 -2.9555 0
M  V30 937 O 39.5098 -8.53963 -1.90717 0
M  V30 938 C 39.0198 -6.4116 -2.90739 0
M  V30 939 C 39.7298 -5.55375 -1.86963 0
M  V30 940 N 39.6798 -4.09448 -2.16152 0
M  V30 941 H 42.5188 -7.45574 -4.45629 0
M  V30 942 H 42.7908 -5.85864 -3.679 0
M  V30 943 H 41.9228 -7.84412 -2.24479 0
M  V30 944 H 39.2678 -5.73457 -0.888562 0
M  V30 945 H 38.9878 -5.90877 -3.88583 0
M  V30 946 H 37.9968 -6.6596 -2.58858 0
M  V30 947 H 39.8308 -8.16339 -3.92049 0
M  V30 948 P 37.9598 -8.7635 -1.60911 0
M  V30 949 O 37.7398 -10.1388 -1.11561 0
M  V30 950 O 37.1698 -8.36503 -2.79617 0
M  V30 951 O 37.7098 -7.71806 -0.42951 0
M  V30 952 C 38.6498 -7.66948 0.673514 0
M  V30 953 C 37.9198 -7.33374 1.95559 0
M  V30 954 O 37.7098 -5.88721 2.00726 0
M  V30 955 C 36.5198 -7.92218 2.1125 0
M  V30 956 O 36.1298 -8.02971 3.47653 0
M  V30 957 C 35.6398 -6.89504 1.41631 0
M  V30 958 C 36.3498 -5.59106 1.75155 0
M  V30 959 N 36.2998 -4.58136 0.662409 0
M  V30 960 C 36.1498 -3.26059 1.02863 0
M  V30 961 O 36.0598 -2.90743 2.19009 0
M  V30 962 N 36.1098 -2.35995 -0.0155585 0
M  V30 963 C 36.1998 -2.65248 -1.35603 0
M  V30 964 O 36.1498 -1.75605 -2.20651 0
M  V30 965 C 36.3498 -4.05747 -1.64698 0
M  V30 966 C 36.4598 -4.42345 -3.09553 0
M  V30 967 C 36.3998 -4.96734 -0.652411 0
M  V30 968 H 39.1408 -8.64917 0.776982 0
M  V30 969 H 39.4098 -6.89974 0.474015 0
M  V30 970 H 38.5428 -7.66548 2.79458 0
M  V30 971 H 35.8878 -5.16076 2.65138 0
M  V30 972 H 35.6088 -7.06433 0.329384 0
M  V30 973 H 34.6168 -6.90829 1.81996 0
M  V30 974 H 36.4508 -8.90774 1.62639 0
M  V30 975 H 36.5218 -6.02181 -0.895285 0
M  V30 976 H 35.4918 -4.80252 -3.45468 0
M  V30 977 H 37.2288 -5.20015 -3.22119 0
M  V30 978 H 36.7408 -3.53269 -3.67833 0
M  V30 979 H 36.0048 -1.39558 0.227499 0
M  V30 980 P 34.5798 -8.03563 3.84925 0
M  V30 981 O 34.3598 -8.85821 5.0569 0
M  V30 982 O 33.7898 -8.41101 2.65469 0
M  V30 983 O 34.3298 -6.4965 4.18908 0
M  V30 984 C 35.2698 -5.80886 5.05289 0
M  V30 985 C 34.5398 -4.78366 5.89277 0
M  V30 986 O 34.3298 -3.58302 5.08433 0
M  V30 987 C 33.1398 -5.16748 6.36559 0
M  V30 988 O 32.7498 -4.45271 7.53232 0
M  V30 989 C 32.2598 -4.74572 5.19863 0
M  V30 990 C 32.9698 -3.49373 4.70338 0
M  V30 991 N 32.9198 -3.31704 3.22876 0
M  V30 992 C 32.7698 -2.03326 2.74871 0
M  V30 993 O 32.6798 -1.06486 3.48076 0
M  V30 994 N 32.7298 -1.91838 1.37456 0
M  V30 995 C 32.8198 -2.94295 0.462035 0
M  V30 996 O 32.7698 -2.71763 -0.752928 0
M  V30 997 C 32.9698 -4.25064 1.05249 0
M  V30 998 C 33.0798 -5.39815 0.095697 0
M  V30 999 C 33.0198 -4.40214 2.39192 0
M  V30 1000 H 35.7608 -6.54063 5.71245 0
M  V30 1001 H 36.0298 -5.30339 4.43905 0
M  V30 1002 H 35.1628 -4.55889 6.76652 0
M  V30 1003 H 32.5078 -2.6167 5.17842 0
M  V30 1004 H 32.2288 -5.52155 4.41878 0
M  V30 1005 H 31.2368 -4.51918 5.53297 0
M  V30 1006 H 33.0708 -6.25055 6.55162 0
M  V30 1007 H 33.1418 -5.39798 2.81523 0
M  V30 1008 H 32.1118 -5.91593 0.0279582 0
M  V30 1009 H 33.8488 -6.10038 0.450573 0
M  V30 1010 H 33.3608 -5.02007 -0.89937 0
M  V30 1011 H 32.6248 -0.995326 1.00435 0
M  V30 1012 P 31.1998 -4.23843 7.83734 0
M  V30 1013 O 30.9798 -4.19407 9.29784 0
M  V30 1014 O 30.4098 -5.24426 7.09156 0
M  V30 1015 O 30.9498 -2.79386 7.20852 0
M  V30 1016 C 31.8898 -1.7299 7.50419 0
M  V30 1017 C 31.1598 -0.41401 7.5797 0
M  V30 1018 O 30.9498 0.089787 6.22035 0
M  V30 1019 C 29.7598 -0.447224 8.1878 0
M  V30 1020 O 29.3698 0.825159 8.71201 0
M  V30 1021 C 28.8798 -0.783801 6.99623 0
M  V30 1022 C 29.5898 -0.0619192 5.85967 0
M  V30 1023 N 29.5398 -0.7859 4.56281 0
M  V30 1024 C 29.3898 -0.0359258 3.39981 0
M  V30 1025 O 29.2998 1.19723 3.49038 0
M  V30 1026 N 29.3398 -0.869151 2.14025 0
M  V30 1027 C 29.4398 -2.01207 2.14363 0
M  V30 1028 N 29.3898 -2.58978 0.954287 0
M  V30 1029 C 29.5898 -2.80817 3.32215 0
M  V30 1030 C 29.6398 -2.13785 4.50884 0
M  V30 1031 H 32.3798 -1.93401 8.46693 0
M  V30 1032 H 32.6498 -1.68181 6.71046 0
M  V30 1033 H 31.7828 0.289076 8.15488 0
M  V30 1034 H 29.1278 0.927166 5.72947 0
M  V30 1035 H 28.8478 -1.87 6.82132 0
M  V30 1036 H 27.8568 -0.404009 7.13457 0
M  V30 1037 H 29.6908 -1.20599 8.97534 0
M  V30 1038 H 29.7628 -2.70295 5.43162 0
M  V30 1039 H 29.6608 -3.89465 3.27406 0
M  V30 1040 H 29.2728 -2.01616 0.107046 0
M  V30 1041 H 29.4688 -3.61403 0.873101 0
M  V30 1042 P 27.8199 1.17771 8.83182 0
M  V30 1043 O 27.5999 2.07206 9.98732 0
M  V30 1044 O 27.0299 -0.0743816 8.81969 0
M  V30 1045 O 27.5699 1.97652 7.47304 0
M  V30 1046 C 28.5099 3.01055 7.08599 0
M  V30 1047 C 27.7799 4.12613 6.37049 0
M  V30 1048 O 27.5699 3.72827 4.97879 0
M  V30 1049 C 26.3799 4.45719 6.88164 0
M  V30 1050 O 25.9899 5.7877 6.5624 0
M  V30 1051 C 25.4999 3.47768 6.11991 0
M  V30 1052 C 26.2099 3.39356 4.77615 0
M  V30 1053 N 26.1599 2.04571 4.15244 0
M  V30 1054 C 26.0099 1.98587 2.78314 0
M  V30 1055 O 25.9199 2.98134 2.08835 0
M  V30 1056 N 25.9699 0.714467 2.24925 0
M  V30 1057 C 26.0599 -0.470001 2.94169 0
M  V30 1058 C 26.2099 -0.312541 4.36783 0
M  V30 1059 C 26.2599 0.914512 4.92583 0
M  V30 1060 H 29.0009 3.41169 7.98575 0
M  V30 1061 H 29.2699 2.58295 6.41556 0
M  V30 1062 H 28.4029 5.02657 6.42673 0
M  V30 1063 H 25.7479 4.11637 4.08885 0
M  V30 1064 H 25.4689 2.49626 6.61679 0
M  V30 1065 H 24.4769 3.86566 6.00778 0
M  V30 1066 H 26.3109 4.29943 7.96918 0
M  V30 1067 H 26.3819 1.00937 6.00374 0
M  V30 1068 P 24.4399 6.144 6.45285 0
M  V30 1069 O 24.2199 7.54673 6.86199 0
M  V30 1070 O 23.6499 5.12391 7.179 0
M  V30 1071 O 24.1899 5.99158 4.88404 0
M  V30 1072 C 25.1299 6.60234 3.96415 0
M  V30 1073 C 24.3999 7.08259 2.72856 0
M  V30 1074 O 24.1899 5.9427 1.83651 0
M  V30 1075 C 22.9999 7.64886 2.9555 0
M  V30 1076 O 22.6099 8.53963 1.90717 0
M  V30 1077 C 22.1199 6.4116 2.90739 0
M  V30 1078 C 22.8299 5.55375 1.86963 0
M  V30 1079 N 22.7799 4.09664 2.15742 0
M  V30 1080 C 22.8599 3.44381 3.37233 0
M  V30 1081 N 22.7799 2.14131 3.28347 0
M  V30 1082 C 22.6399 1.90247 1.91588 0
M  V30 1083 C 22.5099 0.683992 1.20892 0
M  V30 1084 O 22.4899 -0.46618 1.64523 0
M  V30 1085 N 22.3899 0.903396 -0.173998 0
M  V30 1086 C 22.3899 2.14171 -0.784879 0
M  V30 1087 N 22.2599 2.1435 -2.11317 0
M  V30 1088 N 22.5199 3.28784 -0.119316 0
M  V30 1089 C 22.6399 3.0977 1.22194 0
M  V30 1090 H 25.6189 7.45574 4.45629 0
M  V30 1091 H 25.8909 5.86232 3.67314 0
M  V30 1092 H 25.0229 7.84412 2.24479 0
M  V30 1093 H 22.3679 5.73556 0.888715 0
M  V30 1094 H 22.0879 5.9096 3.88638 0
M  V30 1095 H 21.0969 6.66053 2.58894 0
M  V30 1096 H 22.9309 8.16429 3.92093 0
M  V30 1097 H 22.9799 3.96785 4.32043 0
M  V30 1098 H 22.2979 0.0999567 -0.761467 0
M  V30 1099 H 22.2609 3.03436 -2.63076 0
M  V30 1100 H 22.1599 1.25228 -2.62233 0
M  V30 1101 P 21.0599 8.7635 1.60911 0
M  V30 1102 O 20.8399 10.1388 1.11561 0
M  V30 1103 O 20.2699 8.36503 2.79617 0
M  V30 1104 O 20.8099 7.71806 0.42951 0
M  V30 1105 C 21.7499 7.66948 -0.673514 0
M  V30 1106 C 21.0199 7.33374 -1.95559 0
M  V30 1107 O 20.8099 5.88721 -2.00726 0
M  V30 1108 C 19.6199 7.92218 -2.1125 0
M  V30 1109 O 19.2299 8.02971 -3.47653 0
M  V30 1110 C 18.7399 6.89504 -1.41631 0
M  V30 1111 C 19.4499 5.59106 -1.75155 0
M  V30 1112 N 19.3999 4.58136 -0.662409 0
M  V30 1113 C 19.2499 3.26059 -1.02863 0
M  V30 1114 O 19.1599 2.90743 -2.19009 0
M  V30 1115 N 19.2099 2.35995 0.0155585 0
M  V30 1116 C 19.2999 2.65248 1.35603 0
M  V30 1117 C 19.4499 4.05747 1.64698 0
M  V30 1118 C 19.4999 4.96734 0.652411 0
M  V30 1119 H 22.2409 8.64917 -0.776982 0
M  V30 1120 H 22.5099 6.89974 -0.474015 0
M  V30 1121 H 21.6429 7.66548 -2.79458 0
M  V30 1122 H 18.9879 5.16076 -2.65138 0
M  V30 1123 H 18.7089 7.06433 -0.329384 0
M  V30 1124 H 17.7169 6.90829 -1.81996 0
M  V30 1125 H 19.5509 8.90774 -1.62639 0
M  V30 1126 H 19.6219 6.02181 0.895285 0
M  V30 1127 P 17.6799 8.03563 -3.84925 0
M  V30 1128 O 17.4599 8.85821 -5.0569 0
M  V30 1129 O 16.8899 8.41101 -2.65469 0
M  V30 1130 O 17.4299 6.4965 -4.18908 0
M  V30 1131 C 18.3699 5.81037 -5.05421 0
M  V30 1132 C 17.6399 4.78366 -5.89277 0
M  V30 1133 O 17.4299 3.58302 -5.08433 0
M  V30 1134 C 16.2399 5.17448 -6.36119 0
M  V30 1135 O 15.8499 4.45271 -7.53232 0
M  V30 1136 C 15.3599 4.74639 -5.19936 0
M  V30 1137 C 16.0699 3.49432 -4.70418 0
M  V30 1138 N 16.0199 3.31776 -3.22945 0
M  V30 1139 H 18.8589 6.54213 -5.71376 0
M  V30 1140 H 19.1309 5.30492 -4.44033 0
M  V30 1141 H 18.2629 4.55889 -6.76652 0
M  V30 1142 P 14.2999 4.23843 -7.83734 0
M  V30 1143 O 14.0799 4.19407 -9.29784 0
M  V30 1144 O 13.5099 5.24426 -7.09156 0
M  V30 1145 O 14.0499 2.7935 -7.20758 0
M  V30 1146 C 14.9899 1.7299 -7.50419 0
M  V30 1147 C 14.2599 0.406376 -7.57911 0
M  V30 1148 O 14.0499 -0.0897726 -6.21935 0
M  V30 1149 C 12.8599 0.447224 -8.1878 0
M  V30 1150 O 12.4699 -0.825065 -8.71101 0
M  V30 1151 C 11.9799 0.783801 -6.99623 0
M  V30 1152 C 12.6899 0.0619192 -5.85967 0
M  V30 1153 N 12.6399 0.790462 -4.56202 0
M  V30 1154 H 15.4789 1.93423 -8.4679 0
M  V30 1155 H 15.7509 1.68852 -6.70877 0
M  V30 1156 H 14.8829 -0.289041 -8.15388 0
M  V30 1157 H 12.2279 -0.927006 -5.72848 0
M  V30 1158 H 11.9479 1.86973 -6.82036 0
M  V30 1159 H 10.9569 0.403953 -7.13357 0
M  V30 1160 H 12.7909 1.20599 -8.97534 0
M  V30 1161 P 10.92 -1.17771 -8.83182 0
M  V30 1162 O 10.7 -2.07206 -9.98732 0
M  V30 1163 O 10.13 0.0743816 -8.81969 0
M  V30 1164 O 10.67 -1.97678 -7.474 0
M  V30 1165 C 11.61 -3.01133 -7.08783 0
M  V30 1166 C 10.88 -4.1203 -6.37546 0
M  V30 1167 O 10.67 -3.72887 -4.9796 0
M  V30 1168 C 9.47996 -4.45085 -6.88694 0
M  V30 1169 O 9.08996 -5.78836 -6.56315 0
M  V30 1170 C 8.59996 -3.47817 -6.12078 0
M  V30 1171 C 9.30996 -3.39414 -4.77697 0
M  V30 1172 N 9.25996 -2.04615 -4.15333 0
M  V30 1173 C 9.10996 -1.96929 -2.77162 0
M  V30 1174 O 9.01996 -3.02017 -2.12006 0
M  V30 1175 N 9.05996 -0.55485 -2.24237 0
M  V30 1176 C 9.15996 0.367808 -2.9169 0
M  V30 1177 N 9.10996 1.53426 -2.29427 0
M  V30 1178 C 9.30996 0.319148 -4.33828 0
M  V30 1179 C 9.35996 -0.920672 -4.90433 0
M  V30 1180 H 12.1 -3.41209 -7.98667 0
M  V30 1181 H 12.37 -2.5837 -6.41742 0
M  V30 1182 H 11.503 -5.02718 -6.42752 0
M  V30 1183 H 8.84796 -4.11779 -4.09026 0
M  V30 1184 H 8.56796 -2.49661 -6.61772 0
M  V30 1185 H 7.57696 -3.86674 -6.00946 0
M  V30 1186 H 9.41096 -4.29991 -7.97006 0
M  V30 1187 H 9.48296 -1.00589 -5.98303 0
M  V30 1188 H 9.38096 1.22639 -4.93799 0
M  V30 1189 H 8.99296 1.56819 -1.27167 0
M  V30 1190 H 9.18896 2.41062 -2.83063 0
M  V30 1191 P 7.53998 -6.144 -6.45285 0
M  V30 1192 O 7.31998 -7.54673 -6.86199 0
M  V30 1193 O 6.74998 -5.12391 -7.179 0
M  V30 1194 O 7.28998 -5.99158 -4.88404 0
M  V30 1195 C 8.22998 -6.60234 -3.96415 0
M  V30 1196 C 7.49998 -7.08259 -2.72856 0
M  V30 1197 O 7.28998 -5.9427 -1.83651 0
M  V30 1198 C 6.09998 -7.64886 -2.9555 0
M  V30 1199 O 5.70998 -8.53963 -1.90717 0
M  V30 1200 C 5.21998 -6.4116 -2.90739 0
M  V30 1201 C 5.92998 -5.55375 -1.86963 0
M  V30 1202 N 5.87998 -4.09664 -2.15742 0
M  V30 1203 H 8.71898 -7.45574 -4.45629 0
M  V30 1204 H 8.99098 -5.86232 -3.67314 0
M  V30 1205 H 8.12298 -7.84412 -2.24479 0
M  V30 1206 P 4.16 -8.7635 -1.60911 0
M  V30 1207 O 3.94 -10.1388 -1.11561 0
M  V30 1208 O 3.37 -8.36503 -2.79617 0
M  V30 1209 O 3.91 -7.71906 -0.429565 0
M  V30 1210 C 4.85 -7.67148 0.673689 0
M  V30 1211 C 4.12 -7.33666 1.94851 0
M  V30 1212 O 3.91 -5.88816 2.00759 0
M  V30 1213 C 2.72 -7.92526 2.10483 0
M  V30 1214 O 2.33 -8.03063 3.47693 0
M  V30 1215 C 1.84 -6.89602 1.41652 0
M  V30 1216 C 2.55 -5.59201 1.75185 0
M  V30 1217 N 2.5 -4.58235 0.662552 0
M  V30 1218 C 2.35 -3.24451 1.01643 0
M  V30 1219 O 2.26 -2.94958 2.21722 0
M  V30 1220 N 2.3 -2.30408 -0.165238 0
M  V30 1221 C 2.4 -2.66048 -1.25118 0
M  V30 1222 N 2.35 -1.70787 -2.16813 0
M  V30 1223 C 2.55 -4.02732 -1.64413 0
M  V30 1224 C 2.6 -4.9488 -0.63991 0
M  V30 1225 H 5.34 -8.65017 0.777072 0
M  V30 1226 H 5.61 -6.90173 0.474152 0
M  V30 1227 H 4.743 -7.66642 2.79492 0
M  V30 1228 H 2.088 -5.16254 2.65229 0
M  V30 1229 H 1.808 -7.06532 0.329431 0
M  V30 1230 H 0.817 -6.91023 1.82047 0
M  V30 1231 H 2.651 -8.90873 1.62657 0
M  V30 1232 H 2.723 -6.00104 -0.892197 0
M  V30 1233 H 2.621 -4.31733 -2.69229 0
M  V30 1234 H 2.233 -0.724835 -1.8844 0
M  V30 1235 H 2.429 -1.94716 -3.16734 0
M  V30 1236 H 1.613 -8.66322 3.55694 0
M  V30 END ATOM
M  V30 BEGIN BOND
M  V30 END BOND
M  V30 END CTAB
M  END
$$$$
