drugbank_target|O43676 NADH dehydrogenase [ubiquinone] 1 beta subcomplex subunit 3 (DB00157)
 OpenBabel12092119283D

  0  0  0     0  0            999 V3000
M  V30 BEGIN CTAB
M  V30 COUNTS 1584 1613 0 0 0
M  V30 BEGIN ATOM
M  V30 1 H -0.908 1.98254 -0.117106 0
M  V30 2 N 0 1.576 0 0
M  V30 3 C 0.933 2.03868 1.02534 0
M  V30 4 C 1.911 0.928543 1.3348 0
M  V30 5 O 3.095 1.19667 1.45644 0
M  V30 6 C 0.222 2.43627 2.35294 0
M  V30 7 C -0.732 3.65373 2.2001 0
M  V30 8 S 0.101 5.13292 1.52614 0
M  V30 9 C 1.257 5.56322 2.86805 0
M  V30 10 H 1.49 2.90518 0.631377 0
M  V30 11 H -0.977 1.52953 0.210867 0
M  V30 12 H 0.981 2.67203 3.11629 0
M  V30 13 H -0.358 1.57376 2.7183 0
M  V30 14 H -1.165 3.90944 3.18086 0
M  V30 15 H -1.563 3.418 1.51819 0
M  V30 16 H 0.729 5.58782 3.83104 0
M  V30 17 H 1.672 6.56266 2.65933 0
M  V30 18 H 2.08 4.83886 2.90714 0
M  V30 19 N 1.4781 -0.272755 1.55222 0
M  V30 20 C 2.4411 -1.32041 1.87344 0
M  V30 21 C 3.4411 -1.42342 0.74803 0
M  V30 22 O 4.6311 -1.41488 1.0162 0
M  V30 23 C 1.7631 -2.70173 2.07893 0
M  V30 24 H 2.9561 -1.04789 2.80997 0
M  V30 25 H 0.5091 -0.51083 1.47717 0
M  V30 26 H 1.2441 -3.02605 1.16622 0
M  V30 27 H 1.0291 -2.64082 2.89833 0
M  V30 28 H 2.5191 -3.45869 2.34017 0
M  V30 29 N 2.9562 -1.48159 -0.537278 0
M  V30 30 C 3.9062 -1.5854 -1.63857 0
M  V30 31 C 4.8902 -0.442969 -1.54682 0
M  V30 32 O 6.0822 -0.69401 -1.62827 0
M  V30 33 C 3.2112 -1.62144 -3.02596 0
M  V30 34 C 2.2972 -2.81841 -3.16901 0
M  V30 35 N 2.6882 -4.06337 -3.01204 0
M  V30 36 C 0.9862 -2.79021 -3.47942 0
M  V30 37 C 1.6872 -4.86606 -3.18731 0
M  V30 38 N 0.6632 -4.19288 -3.45974 0
M  V30 39 H 4.4652 -2.5255 -1.50319 0
M  V30 40 H 1.9792 -1.4443 -0.742555 0
M  V30 41 H 3.9762 -1.67674 -3.81695 0
M  V30 42 H 2.6362 -0.69245 -3.17231 0
M  V30 43 H 3.6472 -4.36888 -2.78117 0
M  V30 44 H 0.3242 -1.95347 -3.6898 0
M  V30 45 H 1.7142 -5.95385 -3.11394 0
M  V30 46 N 4.4343 0.785586 -1.36625 0
M  V30 47 C 5.3443 1.92964 -1.33425 0
M  V30 48 C 6.3603 1.72394 -0.235851 0
M  V30 49 O 7.5363 1.95866 -0.468878 0
M  V30 50 C 4.6013 3.27884 -1.12662 0
M  V30 51 C 3.6623 3.61204 -2.32013 0
M  V30 52 C 2.8953 4.89687 -2.12231 0
M  V30 53 O 3.1183 5.59704 -1.09945 0
M  V30 54 O 2.0523 5.21752 -3.00098 0
M  V30 55 H 5.8783 1.98613 -2.29753 0
M  V30 56 H 3.4633 0.926384 -1.17211 0
M  V30 57 H 5.3453 4.08614 -1.03016 0
M  V30 58 H 4.0203 3.23118 -0.193991 0
M  V30 59 H 2.9273 2.80765 -2.47228 0
M  V30 60 H 4.2603 3.70698 -3.23796 0
M  V30 61 N 5.9124 1.20967 1.01018 0
M  V30 62 C 6.8624 0.93182 2.08089 0
M  V30 63 C 7.8464 -0.110898 1.60517 0
M  V30 64 O 9.0384 0.0973392 1.76732 0
M  V30 65 C 6.1674 0.492719 3.39746 0
M  V30 66 C 5.2534 1.56922 3.94 0
M  V30 67 N 5.6444 2.79312 4.21686 0
M  V30 68 C 3.9424 1.43688 4.2222 0
M  V30 69 C 4.6434 3.48797 4.65527 0
M  V30 70 N 3.6194 2.76224 4.68189 0
M  V30 71 H 7.4214 1.86175 2.27412 0
M  V30 72 H 4.9354 1.10463 1.19045 0
M  V30 73 H 6.9324 0.275044 4.15992 0
M  V30 74 H 5.5924 -0.430509 3.21833 0
M  V30 75 H 6.6034 3.15903 4.10397 0
M  V30 76 H 3.2804 0.578548 4.13472 0
M  V30 77 H 4.6704 4.53561 4.95714 0
M  V30 78 N 7.3905 -1.2043 1.01659 0
M  V30 79 C 8.6385 -1.89423 0.704522 0
M  V30 80 C 8.9595 -1.79231 -0.768197 0
M  V30 81 O 8.2295 -1.1947 -1.55254 0
M  V30 82 H 6.8095 -0.701178 0.257602 0
M  V30 83 H 9.4715 -1.4626 1.28818 0
M  V30 84 H 8.5675 -2.96052 0.987916 0
M  V30 85 N 8.8686 -0.792821 -1.36206 0
M  V30 86 C 9.8186 -0.166598 -2.27391 0
M  V30 87 C 10.8026 0.651479 -1.47121 0
M  V30 88 O 11.9946 0.510994 -1.69463 0
M  V30 89 C 9.1236 0.695033 -3.36191 0
M  V30 90 C 8.2096 -0.132019 -4.23894 0
M  V30 91 N 8.6006 -1.18822 -4.91645 0
M  V30 92 C 6.8986 0.0885952 -4.45912 0
M  V30 93 C 7.5996 -1.69198 -5.56549 0
M  V30 94 N 6.5756 -1.00065 -5.34311 0
M  V30 95 H 10.3776 -0.974947 -2.77258 0
M  V30 96 H 7.8916 -0.632616 -1.49572 0
M  V30 97 H 9.8886 1.1596 -4.00448 0
M  V30 98 H 8.5486 1.50189 -2.87877 0
M  V30 99 H 9.5596 -1.57069 -4.93507 0
M  V30 100 H 6.2366 0.865688 -4.08426 0
M  V30 101 H 7.6266 -2.57395 -6.20643 0
M  V30 102 N 10.3467 1.47872 -0.545128 0
M  V30 103 C 11.2567 2.33633 0.212746 0
M  V30 104 C 12.2727 1.4744 0.923983 0
M  V30 105 O 13.4487 1.80393 0.895572 0
M  V30 106 C 10.5137 3.23884 1.23693 0
M  V30 107 C 9.5747 4.25961 0.534417 0
M  V30 108 C 8.8077 5.11899 1.5098 0
M  V30 109 O 9.0307 5.00077 2.7437 0
M  V30 110 O 7.9647 5.92831 1.0409 0
M  V30 111 H 11.7907 2.99714 -0.490416 0
M  V30 112 H 9.3757 1.46235 -0.305871 0
M  V30 113 H 11.2577 3.79666 1.82843 0
M  V30 114 H 9.9327 2.60446 1.92222 0
M  V30 115 H 8.8397 3.73972 -0.0979679 0
M  V30 116 H 10.1727 4.92079 -0.109213 0
M  V30 117 N 11.8248 0.280983 1.55075 0
M  V30 118 C 12.7748 -0.618585 2.19448 0
M  V30 119 C 13.7588 -1.11401 1.16098 0
M  V30 120 O 14.9508 -1.0581 1.41891 0
M  V30 121 C 12.0798 -1.79951 2.92357 0
M  V30 122 C 11.1658 -1.321 4.03002 0
M  V30 123 N 11.5568 -0.559044 5.02701 0
M  V30 124 C 9.8548 -1.60346 4.16179 0
M  V30 125 C 10.5558 -0.306722 5.80891 0
M  V30 126 N 9.5318 -0.880825 5.36416 0
M  V30 127 H 13.3338 -0.0286638 2.93886 0
M  V30 128 H 10.8478 0.0848104 1.62178 0
M  V30 129 H 12.8448 -2.45531 3.36927 0
M  V30 130 H 11.5048 -2.39333 2.19431 0
M  V30 131 H 12.5158 -0.205827 5.17491 0
M  V30 132 H 9.1928 -2.20621 3.54447 0
M  V30 133 H 10.5828 0.30391 6.71212 0
M  V30 134 N 13.3029 -1.57598 0.00835791 0
M  V30 135 C 14.5509 -1.90551 -0.6734 0
M  V30 136 C 14.8719 -0.883301 -1.73847 0
M  V30 137 O 14.1419 0.0781442 -1.95744 0
M  V30 138 H 12.7219 -0.703312 -0.251717 0
M  V30 139 H 15.3839 -1.94833 0.0512592 0
M  V30 140 H 14.4799 -2.9056 -1.13935 0
M  V30 141 N 14.781 0.264519 -1.55364 0
M  V30 142 C 15.731 1.32966 -1.85214 0
M  V30 143 C 16.715 1.44306 -0.711653 0
M  V30 144 O 17.907 1.47844 -0.973192 0
M  V30 145 C 15.036 2.68839 -2.13495 0
M  V30 146 C 14.122 2.61575 -3.33825 0
M  V30 147 N 14.513 2.23933 -4.53528 0
M  V30 148 C 12.811 2.92621 -3.36584 0
M  V30 149 C 13.512 2.26868 -5.35636 0
M  V30 150 N 12.488 2.65677 -4.74254 0
M  V30 151 H 16.29 1.02884 -2.75304 0
M  V30 152 H 13.804 0.473157 -1.55354 0
M  V30 153 H 15.801 3.45685 -2.33039 0
M  V30 154 H 14.461 2.99802 -1.24694 0
M  V30 155 H 15.472 1.95769 -4.79474 0
M  V30 156 H 12.149 3.2824 -2.58002 0
M  V30 157 H 13.539 2.00254 -6.41364 0
M  V30 158 N 16.2591 1.48442 0.529413 0
M  V30 159 C 17.2091 1.59407 1.63014 0
M  V30 160 C 18.1931 0.451166 1.54445 0
M  V30 161 O 19.3851 0.702635 1.62456 0
M  V30 162 C 16.5141 1.63746 3.01732 0
M  V30 163 C 15.6001 2.83518 3.15402 0
M  V30 164 N 15.9911 4.07929 2.99045 0
M  V30 165 C 14.2891 2.80862 3.46457 0
M  V30 166 C 14.9901 4.8829 3.16146 0
M  V30 167 N 13.9661 4.21117 3.43746 0
M  V30 168 H 17.7681 2.53343 1.48978 0
M  V30 169 H 15.2821 1.44821 0.734885 0
M  V30 170 H 17.2791 1.69695 3.80801 0
M  V30 171 H 15.9391 0.709264 3.16859 0
M  V30 172 H 16.9501 4.38357 2.75796 0
M  V30 173 H 13.6271 1.97301 3.67938 0
M  V30 174 H 15.0171 5.97028 3.08232 0
M  V30 175 N 17.7372 -0.778329 1.37039 0
M  V30 176 C 18.6842 -1.89139 1.32269 0
M  V30 177 C 19.6542 -1.65017 0.189387 0
M  V30 178 O 20.8392 -1.87024 0.377693 0
M  V30 179 C 17.9792 -3.26112 1.12894 0
M  V30 180 C 17.0922 -3.62233 2.35396 0
M  V30 181 C 16.2272 -4.8838 2.08946 0
M  V30 182 C 15.2662 -5.17212 3.2735 0
M  V30 183 N 14.4032 -6.34546 3.00492 0
M  V30 184 H 19.2432 -1.92552 2.27437 0
M  V30 185 H 16.7802 -0.941473 1.13025 0
M  V30 186 H 18.7382 -4.05116 0.996835 0
M  V30 187 H 17.3682 -3.22091 0.213758 0
M  V30 188 H 16.4202 -2.78265 2.5937 0
M  V30 189 H 17.7322 -3.79481 3.23721 0
M  V30 190 H 16.8862 -5.75274 1.92729 0
M  V30 191 H 15.6252 -4.73222 1.17949 0
M  V30 192 H 14.6302 -4.28796 3.44113 0
M  V30 193 H 15.8552 -5.34283 4.19188 0
M  V30 194 H 13.8012 -6.20759 2.12118 0
M  V30 195 H 13.7182 -6.52179 3.82358 0
M  V30 196 H 14.9862 -7.24394 2.87879 0
M  V30 197 N 19.2153 -1.21501 -1.00376 0
M  V30 198 C 20.1483 -0.918669 -2.08892 0
M  V30 199 C 21.1263 0.134277 -1.62045 0
M  V30 200 O 22.3103 0.00504255 -1.88499 0
M  V30 201 C 19.4373 -0.379645 -3.36566 0
M  V30 202 C 18.4833 -1.41559 -4.02323 0
M  V30 203 S 19.3163 -2.98521 -4.44574 0
M  V30 204 C 20.4723 -2.46228 -5.75433 0
M  V30 205 H 20.7053 -1.83761 -2.33707 0
M  V30 206 H 18.2383 -1.04489 -1.13673 0
M  V30 207 H 20.1963 -0.0752195 -4.10431 0
M  V30 208 H 18.8573 0.518008 -3.09799 0
M  V30 209 H 18.0503 -0.988076 -4.9422 0
M  V30 210 H 17.6523 -1.66815 -3.34737 0
M  V30 211 H 19.9443 -1.86791 -6.51241 0
M  V30 212 H 20.8873 -3.36572 -6.22997 0
M  V30 213 H 21.2953 -1.87894 -5.32312 0
M  V30 214 N 20.6934 1.19889 -1.02296 0
M  V30 215 C 21.6034 2.26571 -0.608508 0
M  V30 216 C 22.6194 1.70299 0.356964 0
M  V30 217 O 23.7954 2.00235 0.216326 0
M  V30 218 C 20.8604 3.46677 0.0402814 0
M  V30 219 C 19.9214 4.18153 -0.97194 0
M  V30 220 C 19.1544 5.32525 -0.354016 0
M  V30 221 O 19.3774 5.64112 0.844604 0
M  V30 222 O 18.3114 5.92242 -1.07391 0
M  V30 223 H 22.1374 2.64251 -1.49684 0
M  V30 224 H 19.7224 1.26629 -0.792809 0
M  V30 225 H 21.6044 4.19475 0.402324 0
M  V30 226 H 20.2794 3.10858 0.902707 0
M  V30 227 H 19.1864 3.47499 -1.38546 0
M  V30 228 H 20.5194 4.57927 -1.80454 0
M  V30 229 N 22.1715 0.800033 1.35784 0
M  V30 230 C 23.1015 0.220184 2.3246 0
M  V30 231 C 24.0825 -0.65073 1.57161 0
M  V30 232 O 25.2675 -0.582359 1.85263 0
M  V30 233 C 22.3975 -0.637353 3.41402 0
M  V30 234 C 21.3515 0.134531 4.27789 0
M  V30 235 C 20.6775 -0.844285 5.27992 0
M  V30 236 C 21.9775 1.32979 5.05088 0
M  V30 237 H 23.6715 1.02787 2.81203 0
M  V30 238 H 21.2175 0.495717 1.35199 0
M  V30 239 H 23.1705 -1.05302 4.08031 0
M  V30 240 H 21.8945 -1.47785 2.91251 0
M  V30 241 H 20.5535 0.531296 3.6273 0
M  V30 242 H 20.2015 -1.68011 4.74111 0
M  V30 243 H 19.9015 -0.332184 5.8666 0
M  V30 244 H 21.4255 -1.2583 5.97494 0
M  V30 245 H 22.8395 0.98934 5.64699 0
M  V30 246 H 21.2365 1.77593 5.7322 0
M  V30 247 H 22.3065 2.11978 4.36111 0
M  V30 248 N 23.6496 -1.47581 0.552962 0
M  V30 249 C 25.0606 -1.86324 0.118463 0
M  V30 250 C 25.4116 -1.46006 -1.3106 0
M  V30 251 O 24.5366 -0.861182 -1.98526 0
M  V30 252 C 25.1316 -3.3816 0.20821 0
M  V30 253 C 23.6906 -3.7601 -0.171226 0
M  V30 254 C 22.8376 -2.71634 0.557686 0
M  V30 255 H 25.7886 -1.39159 0.762928 0
M  V30 256 H 25.8096 -3.76141 -0.574278 0
M  V30 257 H 25.3216 -3.67473 1.24841 0
M  V30 258 H 23.4226 -3.52313 -1.21269 0
M  V30 259 H 23.5356 -4.78745 0.184379 0
M  V30 260 H 21.8996 -2.547 0.00125792 0
M  V30 261 H 22.6826 -3.0379 1.59896 0
M  V30 262 N 25.1277 -0.289203 -1.54924 0
M  V30 263 C 26.4047 0.376032 -1.91951 0
M  V30 264 C 26.7847 1.72622 -1.21511 0
M  V30 265 O 26.1327 2.25853 -0.346767 0
M  V30 266 C 26.3427 0.502378 -3.45365 0
M  V30 267 C 27.6907 0.778741 -4.17398 0
M  V30 268 O 28.7147 0.586647 -3.51336 0
M  V30 269 O 27.5737 1.14698 -5.34328 0
M  V30 270 H 24.6677 0.208167 -0.800372 0
M  V30 271 H 27.2137 -0.336394 -1.66332 0
M  V30 272 H 25.9857 -0.447255 -3.88736 0
M  V30 273 H 25.6087 1.26373 -3.76982 0
M  V30 274 N 26.6058 1.57591 -0.0167156 0
M  V30 275 C 27.8358 1.95292 0.674149 0
M  V30 276 C 28.2438 0.891097 1.66901 0
M  V30 277 O 27.5868 -0.136908 1.83189 0
M  V30 278 C 27.6488 3.29072 1.44747 0
M  V30 279 C 27.3128 4.52879 0.612331 0
M  V30 280 C 28.3098 5.1979 -0.107126 0
M  V30 281 C 25.9948 4.99242 0.553381 0
M  V30 282 C 27.9888 6.31375 -0.874339 0
M  V30 283 C 25.6758 6.10713 -0.217546 0
M  V30 284 C 26.6738 6.76637 -0.930123 0
M  V30 285 O 26.3618 7.85969 -1.68844 0
M  V30 286 H 26.0938 0.648275 0.191615 0
M  V30 287 H 28.6478 2.05284 -0.0690148 0
M  V30 288 H 26.8778 3.15535 2.2355 0
M  V30 289 H 28.5668 3.51764 2.02526 0
M  V30 290 H 29.3328 4.84948 -0.0708392 0
M  V30 291 H 25.2118 4.47744 1.09757 0
M  V30 292 H 28.7558 6.82764 -1.43106 0
M  V30 293 H 24.6528 6.44994 -0.255593 0
M  V30 294 H 25.4208 8.02571 -1.6069 0
M  V30 295 N 28.0839 -0.256276 1.55502 0
M  V30 296 C 29.4999 -0.604325 1.47716 0
M  V30 297 C 29.6999 -1.88763 0.705039 0
M  V30 298 O 28.7559 -2.51445 0.230613 0
M  V30 299 C 30.0689 -0.715756 2.92057 0
M  V30 300 C 31.6169 -0.808706 3.02372 0
M  V30 301 C 32.0919 -0.951777 4.48001 0
M  V30 302 N 33.5829 -1.01688 4.519 0
M  V30 303 C 34.3179 -1.14668 5.61817 0
M  V30 304 N 33.8139 -1.24261 6.81565 0
M  V30 305 N 35.6069 -1.1791 5.49594 0
M  V30 306 H 27.7579 0.586291 2.04148 0
M  V30 307 H 30.0209 0.201015 0.926443 0
M  V30 308 H 29.7269 0.157027 3.51349 0
M  V30 309 H 29.6009 -1.59071 3.42018 0
M  V30 310 H 31.9879 -1.67195 2.43166 0
M  V30 311 H 32.0689 0.0912063 2.55637 0
M  V30 312 H 31.7129 -0.0931291 5.07815 0
M  V30 313 H 31.6429 -1.86659 4.92408 0
M  V30 314 H 34.1339 -0.954468 3.65648 0
M  V30 315 H 34.4469 -1.34046 7.61086 0
M  V30 316 H 32.7919 -1.21236 6.84344 0
M  V30 317 H 35.9829 -1.10057 4.54978 0
M  V30 318 H 36.1559 -1.27681 6.35296 0
M  V30 319 N 29.562 -1.4872 -0.521534 0
M  V30 320 C 30.494 -1.59968 -1.64143 0
M  V30 321 C 31.507 -0.483463 -1.55456 0
M  V30 322 O 32.696 -0.75467 -1.61762 0
M  V30 323 C 29.796 -1.52127 -3.02838 0
M  V30 324 C 28.969 -2.78932 -3.36921 0
M  V30 325 C 28.028 -2.64428 -4.54933 0
M  V30 326 O 27.054 -3.38331 -4.57735 0
M  V30 327 N 28.256 -1.74606 -5.53618 0
M  V30 328 H 31.021 -2.56548 -1.54929 0
M  V30 329 H 28.582 -1.45551 -0.708988 0
M  V30 330 H 30.574 -1.40106 -3.79674 0
M  V30 331 H 29.144 -0.634868 -3.06085 0
M  V30 332 H 28.364 -3.05455 -2.4918 0
M  V30 333 H 29.652 -3.63041 -3.56481 0
M  V30 334 H 29.05 -1.13782 -5.54139 0
M  V30 335 H 27.607 -1.6852 -6.29638 0
M  V30 336 N 31.0401 0.771051 -1.3745 0
M  V30 337 C 32.2861 1.53109 -1.339 0
M  V30 338 C 32.6411 1.9225 0.0758401 0
M  V30 339 O 31.9341 1.61264 1.03463 0
M  V30 340 C 32.1281 2.80676 -2.2126 0
M  V30 341 C 31.9571 2.54003 -3.71096 0
M  V30 342 C 30.7271 2.48097 -4.402 0
M  V30 343 C 32.9251 2.21953 -4.63941 0
M  V30 344 N 30.9071 2.13515 -5.75573 0
M  V30 345 C 32.2781 1.97516 -5.87697 0
M  V30 346 C 34.3331 2.08114 -4.5232 0
M  V30 347 C 33.0361 1.60638 -7.01133 0
M  V30 348 C 35.0621 1.72636 -5.65642 0
M  V30 349 C 34.4241 1.4906 -6.88448 0
M  V30 350 H 30.5231 0.56055 -0.54526 0
M  V30 351 H 33.1071 0.899472 -1.72678 0
M  V30 352 H 31.2781 3.41674 -1.84698 0
M  V30 353 H 33.0101 3.46578 -2.08963 0
M  V30 354 H 29.7651 2.63974 -3.93211 0
M  V30 355 H 30.1891 1.98919 -6.47117 0
M  V30 356 H 34.8311 2.25024 -3.57944 0
M  V30 357 H 32.5491 1.42467 -7.95443 0
M  V30 358 H 36.1351 1.62586 -5.58621 0
M  V30 359 H 35.0151 1.22014 -7.7465 0
M  V30 360 N 32.5182 1.22032 0.997298 0
M  V30 361 C 33.4652 0.986467 2.08656 0
M  V30 362 C 34.4352 -0.0902671 1.65855 0
M  V30 363 O 35.6202 0.0584294 1.90711 0
M  V30 364 C 32.7602 0.565569 3.40434 0
M  V30 365 C 31.8732 1.71259 3.96604 0
M  V30 366 C 31.0082 1.24011 5.16522 0
M  V30 367 C 30.0472 2.35896 5.64818 0
M  V30 368 N 29.1842 1.89726 6.7598 0
M  V30 369 H 34.0242 1.91892 2.27994 0
M  V30 370 H 31.5612 0.956199 1.11782 0
M  V30 371 H 33.5192 0.302738 4.161 0
M  V30 372 H 32.1492 -0.329879 3.2111 0
M  V30 373 H 31.2012 2.08986 3.17851 0
M  V30 374 H 32.5132 2.55436 4.28432 0
M  V30 375 H 31.6672 0.934395 5.99461 0
M  V30 376 H 30.4062 0.368487 4.86306 0
M  V30 377 H 29.4112 2.67261 4.8047 0
M  V30 378 H 30.6362 3.23567 5.97061 0
M  V30 379 H 28.5822 1.0492 6.47555 0
M  V30 380 H 28.4992 2.67471 7.07103 0
M  V30 381 H 29.7672 1.62211 7.62435 0
M  V30 382 N 33.9963 -1.19345 1.0293 0
M  V30 383 C 35.2453 -1.88363 0.721256 0
M  V30 384 C 35.5583 -1.80514 -0.753254 0
M  V30 385 O 36.7643 -2.44788 -1.17436 0
M  V30 386 C 35.2203 -3.37872 1.23978 0
M  V30 387 C 34.8283 -3.54278 2.74211 0
M  V30 388 C 36.5723 -4.12365 1.00775 0
M  V30 389 C 34.4793 -4.97682 3.19479 0
M  V30 390 H 33.4093 -0.705484 0.266098 0
M  V30 391 H 36.0603 -1.34928 1.24365 0
M  V30 392 H 34.4423 -3.90707 0.6453 0
M  V30 393 H 35.6163 -3.11769 3.39318 0
M  V30 394 H 33.9313 -2.93174 2.95699 0
M  V30 395 H 36.5283 -5.18119 1.32123 0
M  V30 396 H 36.8713 -4.16263 -0.0554308 0
M  V30 397 H 37.4043 -3.65668 1.56625 0
M  V30 398 H 34.1433 -4.98945 4.25128 0
M  V30 399 H 33.6633 -5.4095 2.591 0
M  V30 400 H 35.3423 -5.66337 3.12845 0
M  V30 401 N 35.4744 -0.807222 -1.35358 0
M  V30 402 C 36.3844 -0.219594 -2.3357 0
M  V30 403 C 37.4004 0.637734 -1.61892 0
M  V30 404 O 38.5764 0.549336 -1.93763 0
M  V30 405 C 35.6414 0.62158 -3.41083 0
M  V30 406 C 34.7024 -0.256315 -4.28534 0
M  V30 407 C 33.9354 0.544807 -5.30912 0
M  V30 408 O 34.1584 1.77944 -5.41934 0
M  V30 409 O 33.0924 -0.0646478 -6.01865 0
M  V30 410 H 36.9184 -1.03208 -2.85625 0
M  V30 411 H 34.5034 -0.569025 -1.38139 0
M  V30 412 H 36.3854 1.10067 -4.06772 0
M  V30 413 H 35.0604 1.41165 -2.91297 0
M  V30 414 H 33.9674 -0.782559 -3.65823 0
M  V30 415 H 35.3004 -1.01034 -4.81719 0
M  V30 416 N 36.9525 1.47285 -0.560781 0
M  V30 417 C 38.2005 2.02064 -0.0379868 0
M  V30 418 C 38.5215 1.43711 1.31803 0
M  V30 419 O 37.7915 0.61362 1.86042 0
M  V30 420 H 36.3715 0.746918 -0.0110531 0
M  V30 421 H 39.0335 1.80648 -0.731598 0
M  V30 422 H 38.1295 3.12064 0.0474463 0
M  V30 423 N 38.4306 0.297415 1.54768 0
M  V30 424 C 39.6586 -0.315623 2.04478 0
M  V30 425 C 40.0736 -1.47792 1.17486 0
M  V30 426 O 39.4306 -1.81404 0.19971 0
M  V30 427 C 39.4816 -0.7753 3.53088 0
M  V30 428 O 39.2026 0.340732 4.36773 0
M  V30 429 C 40.7036 -1.45386 4.18781 0
M  V30 430 H 37.9236 -0.0690887 0.667434 0
M  V30 431 H 40.4676 0.436003 1.99798 0
M  V30 432 H 38.6226 -1.47696 3.58141 0
M  V30 433 H 39.0366 -0.0165035 5.24497 0
M  V30 434 H 40.5106 -1.72669 5.24299 0
M  V30 435 H 40.9876 -2.39275 3.68299 0
M  V30 436 H 41.5936 -0.795475 4.17795 0
M  V30 437 N 39.9087 -1.5758 0.0250728 0
M  V30 438 C 41.3197 -1.79476 -0.514323 0
M  V30 439 C 41.6707 -0.934956 -1.72491 0
M  V30 440 O 40.7957 -0.144245 -2.15919 0
M  V30 441 C 41.3907 -3.25503 -0.939842 0
M  V30 442 C 39.9497 -3.48408 -1.42438 0
M  V30 443 C 39.0967 -2.74583 -0.387201 0
M  V30 444 H 42.0477 -1.567 0.25113 0
M  V30 445 H 42.0687 -3.34992 -1.80445 0
M  V30 446 H 41.5807 -3.88056 -0.0585628 0
M  V30 447 H 39.6817 -2.91103 -2.32572 0
M  V30 448 H 39.7947 -4.57119 -1.43455 0
M  V30 449 H 38.1587 -2.39942 -0.854409 0
M  V30 450 H 38.9417 -3.39849 0.485543 0
M  V30 451 N 41.3868 0.248026 -1.55636 0
M  V30 452 C 42.3168 1.31079 -1.93237 0
M  V30 453 C 43.2978 1.50264 -0.797174 0
M  V30 454 O 44.4828 1.62891 -1.05737 0
M  V30 455 C 41.6128 2.66575 -2.22609 0
M  V30 456 C 40.5668 2.62087 -3.3837 0
M  V30 457 C 39.8928 4.01369 -3.53281 0
M  V30 458 C 41.1928 2.19171 -4.7409 0
M  V30 459 H 42.8868 0.998556 -2.82257 0
M  V30 460 H 40.4328 0.47891 -1.35803 0
M  V30 461 H 42.3858 3.41057 -2.47503 0
M  V30 462 H 41.1098 2.99432 -1.30414 0
M  V30 463 H 39.7688 1.90063 -3.13483 0
M  V30 464 H 39.4168 4.31489 -2.58508 0
M  V30 465 H 39.1168 3.99254 -4.31127 0
M  V30 466 H 40.6408 4.77552 -3.80495 0
M  V30 467 H 42.0548 2.83384 -4.98363 0
M  V30 468 H 40.4518 2.2817 -5.5503 0
M  V30 469 H 41.5218 1.14336 -4.71227 0
M  V30 470 N 42.8649 1.48995 0.513639 0
M  V30 471 C 43.7749 1.67443 1.64317 0
M  V30 472 C 44.7909 0.556947 1.64846 0
M  V30 473 O 45.9669 0.830082 1.83498 0
M  V30 474 C 43.0319 1.72515 3.00732 0
M  V30 475 C 42.0929 2.96009 3.1093 0
M  V30 476 C 41.3259 3.00829 4.40837 0
M  V30 477 O 41.5489 2.13594 5.28898 0
M  V30 478 O 40.4829 3.93168 4.55744 0
M  V30 479 H 44.3089 2.63106 1.51687 0
M  V30 480 H 41.8939 1.32588 0.688543 0
M  V30 481 H 43.7759 1.78277 3.81831 0
M  V30 482 H 42.4509 0.800278 3.13651 0
M  V30 483 H 41.3579 2.9577 2.29065 0
M  V30 484 H 42.6909 3.87934 3.02933 0
M  V30 485 N 44.343 -0.763751 1.37857 0
M  V30 486 C 45.571 -1.55293 1.36718 0
M  V30 487 C 45.986 -1.88745 -0.0455434 0
M  V30 488 O 45.343 -1.52039 -1.00947 0
M  V30 489 C 45.394 -2.85831 2.2132 0
M  V30 490 O 45.115 -2.5381 3.57089 0
M  V30 491 C 46.616 -3.80023 2.28249 0
M  V30 492 H 43.836 -0.480841 0.468009 0
M  V30 493 H 46.38 -0.946009 1.81303 0
M  V30 494 H 44.535 -3.42926 1.80223 0
M  V30 495 H 44.949 -3.37459 4.01524 0
M  V30 496 H 46.423 -4.68599 2.91752 0
M  V30 497 H 46.9 -4.1973 1.2932 0
M  V30 498 H 47.506 -3.28855 2.69693 0
M  V30 499 N 45.8211 -1.22559 -0.990812 0
M  V30 500 C 47.0701 -1.04553 -1.72486 0
M  V30 501 C 47.3831 0.419349 -1.91052 0
M  V30 502 O 48.5891 0.719121 -2.61803 0
M  V30 503 C 47.0451 -1.82231 -3.10355 0
M  V30 504 C 46.6531 -3.32981 -2.99713 0
M  V30 505 C 48.3971 -1.7268 -3.87791 0
M  V30 506 C 46.3041 -4.03091 -4.32748 0
M  V30 507 H 45.2341 -0.387614 -0.646739 0
M  V30 508 H 47.8851 -1.46429 -1.10593 0
M  V30 509 H 46.2671 -1.33155 -3.72942 0
M  V30 510 H 47.4411 -3.89466 -2.46278 0
M  V30 511 H 45.7561 -3.43231 -2.35758 0
M  V30 512 H 48.3531 -2.22381 -4.86262 0
M  V30 513 H 48.6961 -0.687607 -4.10582 0
M  V30 514 H 49.2291 -2.1931 -3.31885 0
M  V30 515 H 45.9681 -5.07273 -4.15156 0
M  V30 516 H 45.4881 -3.51394 -4.86089 0
M  V30 517 H 47.1671 -4.08804 -5.01486 0
M  V30 518 N 47.2992 1.18797 -1.03562 0
M  V30 519 C 48.2312 2.21731 -0.580337 0
M  V30 520 C 49.2442 1.59051 0.347349 0
M  V30 521 O 50.4332 1.77929 0.142669 0
M  V30 522 C 47.5332 3.38459 0.172805 0
M  V30 523 C 46.7062 4.3072 -0.761496 0
M  V30 524 C 45.7652 5.26174 -0.0525547 0
M  V30 525 O 44.7912 5.65108 -0.681333 0
M  V30 526 N 45.9932 5.67624 1.21586 0
M  V30 527 H 48.7582 2.61417 -1.46565 0
M  V30 528 H 46.3192 1.33531 -0.915476 0
M  V30 529 H 48.3112 3.99335 0.656793 0
M  V30 530 H 46.8812 2.97507 0.959602 0
M  V30 531 H 46.1012 3.67525 -1.42544 0
M  V30 532 H 47.3892 4.89267 -1.39626 0
M  V30 533 H 46.7872 5.38038 1.74732 0
M  V30 534 H 45.3442 6.30721 1.64421 0
M  V30 535 N 48.7773 0.814389 1.34928 0
M  V30 536 C 49.7243 0.22822 2.29669 0
M  V30 537 C 50.6943 -0.642164 1.53184 0
M  V30 538 O 51.8793 -0.585605 1.81591 0
M  V30 539 C 49.0193 -0.61089 3.3965 0
M  V30 540 C 48.1323 0.280792 4.31086 0
M  V30 541 C 47.2673 -0.567067 5.28165 0
M  V30 542 C 46.3063 0.324531 6.11239 0
M  V30 543 N 45.4433 -0.483756 7.00431 0
M  V30 544 H 50.2833 1.04153 2.79206 0
M  V30 545 H 47.8203 0.525133 1.37407 0
M  V30 546 H 49.7783 -1.11263 4.0209 0
M  V30 547 H 48.4083 -1.38939 2.91369 0
M  V30 548 H 47.4603 0.900688 3.69583 0
M  V30 549 H 48.7723 0.966723 4.89342 0
M  V30 550 H 47.9263 -1.13363 5.96015 0
M  V30 551 H 46.6653 -1.28654 4.70425 0
M  V30 552 H 45.6703 0.903298 5.42329 0
M  V30 553 H 46.8953 1.04198 6.71059 0
M  V30 554 H 44.8413 -1.18706 6.45171 0
M  V30 555 H 44.7583 0.143965 7.55863 0
M  V30 556 H 46.0263 -1.03334 7.7262 0
M  V30 557 N 50.2554 -1.46986 0.568584 0
M  V30 558 C 51.2024 -2.30153 -0.172707 0
M  V30 559 C 52.1724 -1.39759 -0.897586 0
M  V30 560 O 53.3574 -1.68716 -0.891044 0
M  V30 561 C 50.4974 -3.23952 -1.1895 0
M  V30 562 C 49.6104 -4.29441 -0.469517 0
M  V30 563 C 48.7454 -5.1038 -1.47259 0
M  V30 564 C 47.7844 -6.07632 -0.738225 0
M  V30 565 N 46.9214 -6.8149 -1.68868 0
M  V30 566 H 51.7614 -2.93019 0.542596 0
M  V30 567 H 49.2984 -1.44422 0.279401 0
M  V30 568 H 51.2564 -3.76767 -1.79173 0
M  V30 569 H 49.8864 -2.62926 -1.87269 0
M  V30 570 H 48.9384 -3.79594 0.247467 0
M  V30 571 H 50.2504 -4.98689 0.105241 0
M  V30 572 H 49.4044 -5.67402 -2.14803 0
M  V30 573 H 48.1434 -4.4106 -2.08128 0
M  V30 574 H 47.1484 -5.49778 -0.0489293 0
M  V30 575 H 48.3734 -6.78966 -0.135129 0
M  V30 576 H 46.3194 -6.14891 -2.28573 0
M  V30 577 H 46.2364 -7.46948 -1.16636 0
M  V30 578 H 47.5044 -7.43078 -2.3549 0
M  V30 579 N 51.7335 -0.305618 -1.54608 0
M  V30 580 C 52.6635 0.561482 -2.26649 0
M  V30 581 C 53.6445 1.13415 -1.26772 0
M  V30 582 O 54.8295 1.16262 -1.55553 0
M  V30 583 C 51.9595 1.73122 -3.01075 0
M  V30 584 C 50.9135 1.2887 -4.08138 0
M  V30 585 C 50.2395 2.54396 -4.70305 0
M  V30 586 C 51.5395 0.416578 -5.20636 0
M  V30 587 H 53.2335 -0.0393902 -2.99374 0
M  V30 588 H 50.7795 -0.020385 -1.43986 0
M  V30 589 H 52.7325 2.34396 -3.50195 0
M  V30 590 H 51.4565 2.3584 -2.25936 0
M  V30 591 H 50.1155 0.698991 -3.59875 0
M  V30 592 H 49.7635 3.15439 -3.918 0
M  V30 593 H 49.4635 2.25486 -5.42614 0
M  V30 594 H 50.9875 3.16464 -5.2219 0
M  V30 595 H 52.4015 0.935116 -5.65622 0
M  V30 596 H 50.7985 0.221046 -5.99693 0
M  V30 597 H 51.8685 -0.557162 -4.81688 0
M  V30 598 N 53.2116 1.57565 -0.0334293 0
M  V30 599 C 54.1746 2.09393 0.932048 0
M  V30 600 C 55.1746 1.00986 1.25134 0
M  V30 601 O 56.3646 1.27129 1.19096 0
M  V30 602 C 53.4966 2.56338 2.2473 0
M  V30 603 H 54.6896 2.95984 0.483085 0
M  V30 604 H 52.2426 1.54819 0.21468 0
M  V30 605 H 52.9776 1.7309 2.74245 0
M  V30 606 H 52.7626 3.35542 2.02865 0
M  V30 607 H 54.2526 2.96646 2.93923 0
M  V30 608 N 54.6897 -0.239769 1.55765 0
M  V30 609 C 55.6527 -1.28038 1.90103 0
M  V30 610 C 56.6527 -1.40723 0.778055 0
M  V30 611 O 57.8427 -1.39301 1.04599 0
M  V30 612 C 54.9747 -2.65702 2.13577 0
M  V30 613 H 56.1677 -0.988048 2.83157 0
M  V30 614 H 53.7207 -0.479382 1.48767 0
M  V30 615 H 54.4557 -3.00063 1.23015 0
M  V30 616 H 54.2407 -2.57875 2.95369 0
M  V30 617 H 55.7307 -3.40828 2.41301 0
M  V30 618 N 56.1678 -1.49265 -0.50573 0
M  V30 619 C 57.1148 -1.65585 -1.6078 0
M  V30 620 C 58.0848 -0.497396 -1.58478 0
M  V30 621 O 59.2698 -0.72385 -1.76536 0
M  V30 622 C 56.4098 -1.72408 -2.98948 0
M  V30 623 C 55.5228 -2.99525 -3.11301 0
M  V30 624 C 54.6578 -2.97356 -4.40174 0
M  V30 625 C 53.6968 -4.19074 -4.46143 0
M  V30 626 N 52.8338 -4.14841 -5.66437 0
M  V30 627 H 57.6738 -2.59688 -1.46172 0
M  V30 628 H 55.2108 -1.28761 -0.711261 0
M  V30 629 H 57.1688 -1.74344 -3.79025 0
M  V30 630 H 55.7988 -0.817753 -3.1227 0
M  V30 631 H 54.8508 -3.07222 -2.24318 0
M  V30 632 H 56.1628 -3.89518 -3.11572 0
M  V30 633 H 55.3168 -2.97829 -5.28567 0
M  V30 634 H 54.0558 -2.05133 -4.42461 0
M  V30 635 H 53.0608 -4.1885 -3.56153 0
M  V30 636 H 54.2858 -5.12483 -4.45575 0
M  V30 637 H 52.2318 -3.25453 -5.69575 0
M  V30 638 H 52.1488 -4.98564 -5.68304 0
M  V30 639 H 53.4168 -4.1941 -6.57051 0
M  V30 640 N 57.6459 0.756429 -1.3826 0
M  V30 641 C 58.8939 1.51248 -1.34047 0
M  V30 642 C 59.2149 1.94875 0.0698372 0
M  V30 643 O 58.4849 1.67436 1.01696 0
M  V30 644 H 57.0649 0.561018 -0.493222 0
M  V30 645 H 59.7269 0.899347 -1.7291 0
M  V30 646 H 58.8229 2.40472 -1.98947 0
M  V30 647 N 59.124 1.23083 0.984299 0
M  V30 648 C 60.054 1.03292 2.09411 0
M  V30 649 C 61.035 -0.048923 1.7003 0
M  V30 650 O 62.22 0.114967 1.93859 0
M  V30 651 C 59.35 0.619155 3.41736 0
M  V30 652 C 58.304 1.64791 3.95004 0
M  V30 653 C 57.63 1.0897 5.23478 0
M  V30 654 C 58.93 3.03999 4.24714 0
M  V30 655 H 60.624 1.96119 2.26225 0
M  V30 656 H 58.17 0.944344 1.08711 0
M  V30 657 H 60.123 0.467777 4.18796 0
M  V30 658 H 58.847 -0.344786 3.24775 0
M  V30 659 H 57.506 1.78721 3.20085 0
M  V30 660 H 57.154 0.11686 5.02864 0
M  V30 661 H 56.854 1.77704 5.60085 0
M  V30 662 H 58.378 0.950093 6.03163 0
M  V30 663 H 59.792 2.93393 4.92538 0
M  V30 664 H 58.189 3.69936 4.72512 0
M  V30 665 H 59.259 3.53285 3.32142 0
M  V30 666 N 60.6021 -1.18246 1.0419 0
M  V30 667 C 62.0181 -1.40269 0.761366 0
M  V30 668 C 62.2181 -1.90777 -0.648578 0
M  V30 669 O 61.2741 -2.0929 -1.41258 0
M  V30 670 C 62.5871 -2.40237 1.8085 0
M  V30 671 C 64.1351 -2.53961 1.82955 0
M  V30 672 C 64.6101 -3.57194 2.86664 0
M  V30 673 N 66.1011 -3.64702 2.85563 0
M  V30 674 C 66.8361 -4.44309 3.6246 0
M  V30 675 N 66.3321 -5.27514 4.49111 0
M  V30 676 N 68.1251 -4.39084 3.50944 0
M  V30 677 H 60.2761 -0.837882 1.95175 0
M  V30 678 H 62.5391 -0.430608 0.84456 0
M  V30 679 H 62.2451 -2.10176 2.81991 0
M  V30 680 H 62.1191 -3.39601 1.64168 0
M  V30 681 H 64.5061 -2.83338 0.824855 0
M  V30 682 H 64.5871 -1.54706 2.03715 0
M  V30 683 H 64.2311 -3.28558 3.87314 0
M  V30 684 H 64.1611 -4.5613 2.6316 0
M  V30 685 H 66.6521 -3.05289 2.22727 0
M  V30 686 H 66.9651 -5.85411 5.04493 0
M  V30 687 H 65.3101 -5.2693 4.53178 0
M  V30 688 H 68.5011 -3.7313 2.82651 0
M  V30 689 H 68.6741 -5.00883 4.11121 0
M  V30 690 N 62.0802 -0.821533 -1.34494 0
M  V30 691 C 63.3572 -0.33159 -1.92769 0
M  V30 692 C 63.7372 1.18088 -1.74981 0
M  V30 693 O 63.0852 1.98733 -1.12772 0
M  V30 694 C 63.2952 -0.759398 -3.40638 0
M  V30 695 C 64.6432 -0.757433 -4.1779 0
M  V30 696 O 65.6672 -0.70189 -3.49216 0
M  V30 697 O 64.5262 -0.829361 -5.4017 0
M  V30 698 H 61.6202 -0.0902502 -0.822061 0
M  V30 699 H 64.1662 -0.906231 -1.43477 0
M  V30 700 H 62.9382 -1.8012 -3.47379 0
M  V30 701 H 62.5612 -0.160378 -3.97276 0
M  V30 702 N 63.5583 1.46682 -0.576371 0
M  V30 703 C 64.9693 1.86112 -0.148091 0
M  V30 704 C 65.3203 1.48073 1.2872 0
M  V30 705 O 64.4453 0.892656 1.97131 0
M  V30 706 C 65.0403 3.37786 -0.261982 0
M  V30 707 C 63.5993 3.76235 0.111384 0
M  V30 708 C 62.7463 2.70713 -0.60083 0
M  V30 709 H 65.6973 1.37927 -0.78497 0
M  V30 710 H 65.7183 3.77007 0.514364 0
M  V30 711 H 65.2303 3.6544 -1.30671 0
M  V30 712 H 63.3313 3.54198 1.15649 0
M  V30 713 H 63.4443 4.78391 -0.26052 0
M  V30 714 H 61.8083 2.54666 -0.0417783 0
M  V30 715 H 62.5913 3.01208 -1.64708 0
M  V30 716 N 65.0364 0.313813 1.54444 0
M  V30 717 C 66.2824 -0.284918 2.01395 0
M  V30 718 C 66.6374 -1.50537 1.19818 0
M  V30 719 O 65.9304 -1.89692 0.269748 0
M  V30 720 C 66.1244 -0.680386 3.50864 0
M  V30 721 C 65.9534 0.500198 4.4691 0
M  V30 722 C 64.7234 0.996248 4.95382 0
M  V30 723 C 66.9214 1.34928 4.96285 0
M  V30 724 N 64.9034 2.14226 5.75309 0
M  V30 725 C 66.2744 2.3426 5.7404 0
M  V30 726 C 68.3294 1.37818 4.78446 0
M  V30 727 C 67.0324 3.36272 6.35856 0
M  V30 728 C 69.0584 2.38695 5.4109 0
M  V30 729 C 68.4204 3.36755 6.18688 0
M  V30 730 H 64.5194 -0.0683689 0.779006 0
M  V30 731 H 67.1034 0.44664 1.89508 0
M  V30 732 H 65.2744 -1.38109 3.63016 0
M  V30 733 H 67.0064 -1.25975 3.84594 0
M  V30 734 H 63.7614 0.56912 4.70168 0
M  V30 735 H 64.1854 2.72005 6.19953 0
M  V30 736 H 68.8274 0.633747 4.18023 0
M  V30 737 H 66.5454 4.11627 6.95405 0
M  V30 738 H 70.1314 2.41721 5.29209 0
M  V30 739 H 69.0114 4.13535 6.66302 0
M  V30 740 N 66.5145 -1.57545 0.0417849 0
M  V30 741 C 67.7625 -1.91937 -0.632829 0
M  V30 742 C 68.0835 -0.919978 -1.71934 0
M  V30 743 O 67.3535 0.0366064 -1.95866 0
M  V30 744 H 65.9335 -0.708493 -0.236742 0
M  V30 745 H 68.5955 -1.9468 0.0925745 0
M  V30 746 H 67.6915 -2.92912 -1.07746 0
M  V30 747 N 67.9926 0.231505 -1.5589 0
M  V30 748 C 69.4086 0.580748 -1.48659 0
M  V30 749 C 69.6086 1.87617 -0.73498 0
M  V30 750 O 68.6646 2.51046 -0.270586 0
M  V30 751 C 69.9776 0.669202 -2.93159 0
M  V30 752 C 71.5256 0.760499 -3.03621 0
M  V30 753 C 72.0006 0.880383 -4.49459 0
M  V30 754 N 73.4916 0.944861 -4.53461 0
M  V30 755 C 74.2266 1.05716 -5.63571 0
M  V30 756 N 73.7226 1.13403 -6.83456 0
M  V30 757 N 75.5156 1.09152 -5.514 0
M  V30 758 H 67.6666 -0.618695 -2.03189 0
M  V30 759 H 69.9296 -0.215728 -0.923128 0
M  V30 760 H 69.6356 -0.212904 -3.51055 0
M  V30 761 H 69.5096 1.5361 -3.44505 0
M  V30 762 H 71.8966 1.63305 -2.45796 0
M  V30 763 H 71.9776 -0.131864 -2.5546 0
M  V30 764 H 71.6216 0.0123284 -5.07899 0
M  V30 765 H 71.5516 1.78802 -4.95316 0
M  V30 766 H 74.0426 0.896176 -3.6712 0
M  V30 767 H 74.3556 1.21921 -7.63122 0
M  V30 768 H 72.7006 1.10333 -6.86186 0
M  V30 769 H 75.8916 1.02805 -4.56671 0
M  V30 770 H 76.0646 1.17558 -6.37247 0
M  V30 771 N 69.4707 1.49531 0.497807 0
M  V30 772 C 70.4187 1.66926 1.61983 0
M  V30 773 C 71.4127 0.535167 1.60724 0
M  V30 774 O 72.6187 0.714896 1.65195 0
M  V30 775 H 68.9937 0.526415 0.537021 0
M  V30 776 H 70.9647 2.61098 1.44465 0
M  V30 777 C 69.7137 1.75602 3.00099 0
M  V30 778 H 69.0367 2.62244 3.01775 0
M  V30 779 H 70.4767 1.91807 3.78135 0
M  V30 780 C 68.9357 0.501543 3.33146 0
M  V30 781 O 69.4657 -0.371342 3.9998 0
M  V30 782 N 67.6717 0.363531 2.88317 0
M  V30 783 H 67.2187 1.07485 2.34104 0
M  V30 784 H 67.1767 -0.474728 3.10795 0
M  V30 785 N 70.9488 -0.749086 1.3866 0
M  V30 786 C 71.8588 -1.89358 1.38494 0
M  V30 787 C 72.8748 -1.71708 0.281476 0
M  V30 788 O 74.0508 -1.94554 0.520643 0
M  V30 789 C 71.1158 -3.24782 1.21316 0
M  V30 790 C 70.1768 -3.54926 2.41508 0
M  V30 791 C 69.4098 -4.83888 2.2514 0
M  V30 792 O 69.6328 -5.56592 1.24746 0
M  V30 793 O 68.5668 -5.13612 3.13826 0
M  V30 794 H 72.3928 -1.92452 2.34938 0
M  V30 795 H 69.9778 -0.894981 1.19626 0
M  V30 796 H 71.8598 -4.05739 1.13814 0
M  V30 797 H 70.5348 -3.2249 0.279592 0
M  V30 798 H 69.4418 -2.74112 2.54585 0
M  V30 799 H 70.7748 -3.61983 3.3351 0
M  V30 800 N 72.4269 -1.23603 -0.977757 0
M  V30 801 C 73.3899 -1.02069 -2.05218 0
M  V30 802 C 74.3899 0.0184305 -1.60789 0
M  V30 803 O 75.5799 -0.221569 -1.72785 0
M  V30 804 C 72.7119 -0.544926 -3.36517 0
M  V30 805 H 73.9049 -1.9742 -2.25755 0
M  V30 806 H 71.4579 -1.05684 -1.15155 0
M  V30 807 H 72.1929 0.412241 -3.21669 0
M  V30 808 H 71.9779 -1.2948 -3.70105 0
M  V30 809 H 73.4679 -0.414985 -4.15533 0
M  V30 810 N 73.905 1.17692 -1.04816 0
M  V30 811 C 75.151 1.88389 -0.766892 0
M  V30 812 C 75.506 1.79282 0.698269 0
M  V30 813 O 74.799 1.18739 1.50372 0
M  V30 814 C 74.993 3.37462 -1.17703 0
M  V30 815 C 74.822 3.6108 -2.68051 0
M  V30 816 C 73.592 3.78018 -3.35307 0
M  V30 817 C 75.79 3.61039 -3.66273 0
M  V30 818 N 73.772 3.89444 -4.74559 0
M  V30 819 C 75.143 3.78269 -4.91235 0
M  V30 820 C 77.198 3.44168 -3.59796 0
M  V30 821 C 75.901 3.80376 -6.10497 0
M  V30 822 C 77.927 3.4756 -4.78493 0
M  V30 823 C 77.289 3.65295 -6.02278 0
M  V30 824 H 73.388 0.707651 -0.332798 0
M  V30 825 H 75.972 1.41314 -1.33934 0
M  V30 826 H 74.143 3.83214 -0.63257 0
M  V30 827 H 75.875 3.95759 -0.845989 0
M  V30 828 H 72.63 3.77714 -2.85708 0
M  V30 829 H 73.054 3.98962 -5.46954 0
M  V30 830 H 77.696 3.29396 -2.65062 0
M  V30 831 H 75.414 3.93933 -7.05579 0
M  V30 832 H 79 3.3577 -4.75131 0
M  V30 833 H 77.88 3.6782 -6.92588 0
M  V30 834 N 75.3831 0.828654 1.34056 0
M  V30 835 C 76.7991 0.515135 1.51058 0
M  V30 836 C 76.9991 -0.959581 1.77184 0
M  V30 837 O 76.0551 -1.74382 1.82612 0
M  V30 838 C 77.3681 1.37963 2.67183 0
M  V30 839 C 78.9161 1.37735 2.81066 0
M  V30 840 C 79.3911 2.22645 4.00241 0
M  V30 841 N 80.8821 2.203 4.07458 0
M  V30 842 C 81.6171 2.82744 4.98842 0
M  V30 843 N 81.1131 3.54201 5.9541 0
M  V30 844 N 82.9061 2.72268 4.91759 0
M  V30 845 H 75.0571 1.78343 1.15358 0
M  V30 846 H 77.3201 0.760304 0.566252 0
M  V30 847 H 77.0261 2.42714 2.54525 0
M  V30 848 H 76.9001 1.0484 3.62338 0
M  V30 849 H 79.2871 0.337593 2.93163 0
M  V30 850 H 79.3681 1.74859 1.86703 0
M  V30 851 H 79.0121 3.26674 3.88905 0
M  V30 852 H 78.9421 1.82869 4.93829 0
M  V30 853 H 81.4331 1.68327 3.38341 0
M  V30 854 H 81.7461 3.9908 6.61782 0
M  V30 855 H 80.0911 3.58308 5.95517 0
M  V30 856 H 83.2821 2.16014 4.15278 0
M  V30 857 H 83.4551 3.21219 5.62781 0
M  V30 858 N 76.8612 -1.46375 0.584142 0
M  V30 859 C 78.0912 -2.06461 0.0758195 0
M  V30 860 C 78.4992 -1.43322 -1.23512 0
M  V30 861 O 77.8422 -0.533216 -1.75791 0
M  V30 862 C 77.9042 -3.59131 -0.162773 0
M  V30 863 C 77.5682 -4.4447 1.06279 0
M  V30 864 C 78.5652 -4.80918 1.97519 0
M  V30 865 C 76.2502 -4.85584 1.28504 0
M  V30 866 C 78.2442 -5.57309 3.09331 0
M  V30 867 C 75.9312 -5.61734 2.4062 0
M  V30 868 C 76.9292 -5.9751 3.30863 0
M  V30 869 O 76.6172 -6.72121 4.41032 0
M  V30 870 H 76.3492 -0.673745 0.0551725 0
M  V30 871 H 78.9032 -1.88969 0.804984 0
M  V30 872 H 77.1332 -3.74936 -0.946565 0
M  V30 873 H 78.8222 -4.0114 -0.619782 0
M  V30 874 H 79.5882 -4.49732 1.81565 0
M  V30 875 H 75.4672 -4.57187 0.591702 0
M  V30 876 H 79.0112 -5.85152 3.79793 0
M  V30 877 H 74.9082 -5.92334 2.56537 0
M  V30 878 H 75.6762 -6.90547 4.39417 0
M  V30 879 N 78.3393 -0.321999 -1.54275 0
M  V30 880 C 79.2723 0.58718 -2.20516 0
M  V30 881 C 80.2503 1.11693 -1.18167 0
M  V30 882 O 81.4343 1.18122 -1.46899 0
M  V30 883 C 78.5613 1.80554 -2.86562 0
M  V30 884 C 77.6073 1.40718 -4.02617 0
M  V30 885 S 78.4403 0.445218 -5.33646 0
M  V30 886 C 79.5963 1.6709 -6.03185 0
M  V30 887 H 79.8293 0.0244875 -2.9729 0
M  V30 888 H 77.3623 -0.106087 -1.54035 0
M  V30 889 H 79.3203 2.50462 -3.25237 0
M  V30 890 H 77.9813 2.33942 -2.09595 0
M  V30 891 H 77.1743 2.31501 -4.47687 0
M  V30 892 H 76.7763 0.78782 -3.65608 0
M  V30 893 H 79.0683 2.60856 -6.25268 0
M  V30 894 H 80.0113 1.26239 -6.96756 0
M  V30 895 H 80.4193 1.85716 -5.33076 0
M  V30 896 N 79.8174 1.5752 -0.0501392 0
M  V30 897 C 81.0654 1.9227 0.622642 0
M  V30 898 C 81.3864 0.929083 1.71444 0
M  V30 899 O 80.6564 -0.0262186 1.95882 0
M  V30 900 H 79.2364 0.709739 0.232981 0
M  V30 901 H 81.8984 1.94628 -0.102898 0
M  V30 902 H 80.9944 2.93479 1.06191 0
M  V30 903 N 81.2955 -0.223234 1.56011 0
M  V30 904 C 82.5435 -0.946003 1.78592 0
M  V30 905 C 82.8645 -1.84936 0.618349 0
M  V30 906 O 82.1345 -1.92473 -0.364833 0
M  V30 907 H 80.7145 -0.352298 0.658707 0
M  V30 908 H 83.3765 -0.235494 1.93472 0
M  V30 909 H 82.4725 -1.55381 2.70672 0
M  V30 910 N 82.7736 -1.49793 -0.48987 0
M  V30 911 C 84.0206 -1.59841 -1.24327 0
M  V30 912 C 84.3486 -0.290135 -1.92324 0
M  V30 913 O 83.6036 0.722749 -1.81865 0
M  V30 914 C 83.9026 -2.71488 -2.32441 0
M  V30 915 C 83.5686 -4.12614 -1.81826 0
M  V30 916 C 82.2306 -4.51017 -1.67742 0
M  V30 917 C 84.5826 -5.00892 -1.4407 0
M  V30 918 C 81.9106 -5.75459 -1.14297 0
M  V30 919 C 84.2626 -6.25863 -0.920742 0
M  V30 920 C 82.9266 -6.63086 -0.766383 0
M  V30 921 H 82.1966 -0.584899 -0.454944 0
M  V30 922 H 84.8436 -1.83663 -0.542215 0
M  V30 923 H 83.1486 -2.4168 -3.0838 0
M  V30 924 H 84.8456 -2.76469 -2.90458 0
M  V30 925 H 81.4356 -3.82307 -1.93751 0
M  V30 926 H 85.6196 -4.7187 -1.53794 0
M  V30 927 H 80.8756 -6.02989 -1.01068 0
M  V30 928 H 85.0496 -6.9364 -0.619448 0
M  V30 929 H 82.6766 -7.59393 -0.350083 0
M  V30 930 N 84.2517 0.741722 -1.39055 0
M  V30 931 C 85.2147 1.83733 -1.37021 0
M  V30 932 C 86.2147 1.58542 -0.268534 0
M  V30 933 O 87.4047 1.66067 -0.526076 0
M  V30 934 C 84.5367 3.2141 -1.13617 0
M  V30 935 H 85.7297 1.86941 -2.34506 0
M  V30 936 H 83.2827 0.944676 -1.24521 0
M  V30 937 H 84.0177 3.23865 -0.167863 0
M  V30 938 H 83.8027 3.4109 -1.93391 0
M  V30 939 H 85.2927 4.01477 -1.14918 0
M  V30 940 N 85.7298 1.2412 0.971189 0
M  V30 941 C 86.6768 1.0305 2.06517 0
M  V30 942 C 87.6468 -0.0550666 1.66009 0
M  V30 943 O 88.8318 0.0988688 1.90544 0
M  V30 944 C 85.9718 0.637653 3.39158 0
M  V30 945 C 85.0848 1.79633 3.92882 0
M  V30 946 C 84.2198 1.34939 5.13775 0
M  V30 947 C 83.2588 2.47823 5.59687 0
M  V30 948 N 82.3958 2.04022 6.71803 0
M  V30 949 H 87.2358 1.96685 2.23873 0
M  V30 950 H 84.7728 0.979694 1.09729 0
M  V30 951 H 86.7308 0.390931 4.15364 0
M  V30 952 H 85.3608 -0.261693 3.21737 0
M  V30 953 H 84.4128 2.15681 3.13346 0
M  V30 954 H 85.7248 2.64466 4.22918 0
M  V30 955 H 84.8788 1.06134 5.97345 0
M  V30 956 H 83.6178 0.471557 4.85415 0
M  V30 957 H 82.6228 2.77392 4.74693 0
M  V30 958 H 83.8478 3.36158 5.90063 0
M  V30 959 H 81.7938 1.18632 6.45184 0
M  V30 960 H 81.7108 2.82409 7.01271 0
M  V30 961 H 82.9788 1.78347 7.58823 0
M  V30 962 N 87.2079 -1.17134 1.05439 0
M  V30 963 C 88.4329 -1.91913 0.786396 0
M  V30 964 C 88.8579 -1.7643 -0.652234 0
M  V30 965 O 88.2159 -1.08372 -1.45345 0
M  V30 966 C 88.2639 -3.40921 1.17497 0
M  V30 967 O 87.3679 -4.11244 0.308589 0
M  V30 968 H 86.7089 -0.598215 0.288158 0
M  V30 969 H 89.2389 -1.48457 1.4079 0
M  V30 970 H 89.2489 -3.91668 1.14281 0
M  V30 971 H 87.9239 -3.5151 2.22292 0
M  V30 972 H 86.5009 -3.70731 0.40157 0
M  V30 973 N 88.686 -0.835752 -1.33615 0
M  V30 974 C 89.932 -0.430596 -1.98176 0
M  V30 975 C 90.265 1.00684 -1.66061 0
M  V30 976 O 89.54 1.70339 -0.938877 0
M  V30 977 C 89.823 -0.648065 -3.5422 0
M  V30 978 C 89.676 -2.13255 -3.96033 0
M  V30 979 C 90.995 -0.0922113 -4.40003 0
M  V30 980 H 88.114 -0.157924 -0.719881 0
M  V30 981 H 90.756 -1.05069 -1.58305 0
M  V30 982 H 88.906 -0.120237 -3.88314 0
M  V30 983 H 90.578 -2.725 -3.72211 0
M  V30 984 H 88.821 -2.61823 -3.45878 0
M  V30 985 H 89.492 -2.23547 -5.04708 0
M  V30 986 H 91.968 -0.543343 -4.12537 0
M  V30 987 H 90.844 -0.274083 -5.48215 0
M  V30 988 H 91.105 1.00378 -4.30554 0
M  V30 989 N 90.1641 1.46063 -0.591896 0
M  V30 990 C 91.3891 2.07226 -0.0850314 0
M  V30 991 C 91.8141 1.43625 1.21463 0
M  V30 992 O 91.1721 0.523305 1.73583 0
M  V30 993 C 91.2201 3.60554 0.0576567 0
M  V30 994 O 90.3241 3.97128 1.11188 0
M  V30 995 H 89.6651 0.660615 -0.0669568 0
M  V30 996 H 92.1951 1.8756 -0.81745 0
M  V30 997 H 92.2051 4.07165 0.2609 0
M  V30 998 H 90.8801 4.06235 -0.891416 0
M  V30 999 H 89.4571 3.62213 0.886356 0
M  V30 1000 N 91.6422 0.330177 1.54103 0
M  V30 1001 C 92.8892 -0.270405 2.00686 0
M  V30 1002 C 93.2172 -1.51621 1.21825 0
M  V30 1003 O 92.4722 -1.93536 0.29025 0
M  V30 1004 C 92.7712 -0.643134 3.51566 0
M  V30 1005 C 92.4372 0.504251 4.48072 0
M  V30 1006 C 91.0992 0.819163 4.74176 0
M  V30 1007 C 93.4512 1.27465 5.05373 0
M  V30 1008 C 90.7792 1.90708 5.5484 0
M  V30 1009 C 93.1312 2.35271 5.87223 0
M  V30 1010 C 91.7952 2.67336 6.11627 0
M  V30 1011 H 91.0652 -0.0989482 0.734364 0
M  V30 1012 H 93.7122 0.455324 1.86008 0
M  V30 1013 H 92.0172 -1.44938 3.64006 0
M  V30 1014 H 93.7142 -1.11949 3.85056 0
M  V30 1015 H 90.3042 0.248733 4.27878 0
M  V30 1016 H 94.4882 1.04462 4.85182 0
M  V30 1017 H 89.7442 2.15991 5.71977 0
M  V30 1018 H 93.9182 2.95405 6.30641 0
M  V30 1019 H 91.5452 3.51763 6.73919 0
M  V30 1020 N 93.1203 -1.57491 0.0584922 0
M  V30 1021 C 94.3453 -1.97711 -0.62652 0
M  V30 1022 C 94.7703 -0.936132 -1.63151 0
M  V30 1023 O 94.1283 0.099811 -1.81025 0
M  V30 1024 C 94.1763 -3.36989 -1.28338 0
M  V30 1025 O 93.2803 -3.35433 -2.39913 0
M  V30 1026 H 92.6213 -0.643868 -0.162266 0
M  V30 1027 H 95.1513 -2.04193 0.129064 0
M  V30 1028 H 95.1613 -3.73879 -1.63335 0
M  V30 1029 H 93.8363 -4.12289 -0.546889 0
M  V30 1030 H 92.4133 -3.10298 -2.06809 0
M  V30 1031 N 94.5984 0.214957 -1.56127 0
M  V30 1032 C 95.8754 0.963093 -1.70247 0
M  V30 1033 C 96.2554 2.02166 -0.60764 0
M  V30 1034 O 95.6034 2.25244 0.384385 0
M  V30 1035 C 95.8134 1.56756 -3.11815 0
M  V30 1036 C 97.1614 2.0573 -3.7143 0
M  V30 1037 O 98.1854 1.66637 -3.14818 0
M  V30 1038 O 97.0444 2.77603 -4.70743 0
M  V30 1039 H 94.1384 0.450321 -0.693643 0
M  V30 1040 H 96.6844 0.206219 -1.68442 0
M  V30 1041 H 95.4564 0.803533 -3.82961 0
M  V30 1042 H 95.0794 2.3898 -3.17765 0
M  V30 1043 N 96.0765 1.50051 0.48192 0
M  V30 1044 C 97.3225 1.60736 1.2366 0
M  V30 1045 C 97.6555 0.301786 1.91841 0
M  V30 1046 O 96.9305 -0.696025 1.8162 0
M  V30 1047 C 97.2135 2.78009 2.28874 0
M  V30 1048 C 97.0665 4.18416 1.65069 0
M  V30 1049 C 98.3855 2.90867 3.30279 0
M  V30 1050 H 95.5045 0.585031 0.448228 0
M  V30 1051 H 98.1465 1.82402 0.531946 0
M  V30 1052 H 96.2965 2.59667 2.88973 0
M  V30 1053 H 97.9685 4.48322 1.0865 0
M  V30 1054 H 96.2115 4.23177 0.954148 0
M  V30 1055 H 96.8825 4.96381 2.41474 0
M  V30 1056 H 99.3585 3.07623 2.80191 0
M  V30 1057 H 98.2345 3.74566 4.01238 0
M  V30 1058 H 98.4955 2.01021 3.93755 0
M  V30 1059 N 97.5546 -0.734337 1.39446 0
M  V30 1060 C 98.8016 -1.49391 1.36706 0
M  V30 1061 C 99.1296 -1.94465 -0.0367813 0
M  V30 1062 O 98.3846 -1.67154 -1.01774 0
M  V30 1063 C 98.6836 -2.74711 2.28623 0
M  V30 1064 C 98.3496 -2.48501 3.76242 0
M  V30 1065 C 97.0116 -2.41062 4.16464 0
M  V30 1066 C 99.3636 -2.26098 4.69606 0
M  V30 1067 C 96.6916 -2.09262 5.48112 0
M  V30 1068 C 99.0436 -1.95814 6.01531 0
M  V30 1069 C 97.7076 -1.86845 6.40816 0
M  V30 1070 H 96.9776 -0.546661 0.500243 0
M  V30 1071 H 99.6246 -0.842788 1.71957 0
M  V30 1072 H 97.9296 -3.44569 1.86492 0
M  V30 1073 H 99.6266 -3.32741 2.23796 0
M  V30 1074 H 96.2166 -2.55169 3.44364 0
M  V30 1075 H 100.401 -2.30812 4.39363 0
M  V30 1076 H 95.6566 -2.00841 5.77471 0
M  V30 1077 H 99.8306 -1.77488 6.73403 0
M  V30 1078 H 97.4576 -1.6197 7.42745 0
M  V30 1079 N 99.0327 -1.24633 -0.964593 0
M  V30 1080 C 100.28 -1.08788 -1.70796 0
M  V30 1081 C 100.608 0.372783 -1.90894 0
M  V30 1082 O 99.8627 1.29167 -1.47018 0
M  V30 1083 C 100.162 -1.7763 -3.10133 0
M  V30 1084 C 99.8277 -3.27557 -3.09866 0
M  V30 1085 C 98.4897 -3.6846 -3.09501 0
M  V30 1086 C 100.842 -4.23389 -3.03959 0
M  V30 1087 C 98.1697 -5.03624 -3.00965 0
M  V30 1088 C 100.522 -5.58565 -2.96965 0
M  V30 1089 C 99.1857 -5.98809 -2.9493 0
M  V30 1090 H 98.4557 -0.398084 -0.624988 0
M  V30 1091 H 101.103 -1.54777 -1.12767 0
M  V30 1092 H 99.4077 -1.24044 -3.71645 0
M  V30 1093 H 101.105 -1.62832 -3.66451 0
M  V30 1094 H 97.6947 -2.95006 -3.10917 0
M  V30 1095 H 101.879 -3.92787 -3.03368 0
M  V30 1096 H 97.1347 -5.33998 -2.97752 0
M  V30 1097 H 101.309 -6.32523 -2.91354 0
M  V30 1098 H 98.9357 -7.03505 -2.88071 0
M  V30 1099 N 100.511 1.16574 -1.06058 0
M  V30 1100 C 101.458 2.20883 -0.669263 0
M  V30 1101 C 102.428 1.62729 0.332918 0
M  V30 1102 O 103.613 1.895 0.222346 0
M  V30 1103 C 100.753 3.45049 -0.0593572 0
M  V30 1104 C 99.8658 4.17458 -1.11143 0
M  V30 1105 C 99.0008 5.29135 -0.467916 0
M  V30 1106 C 98.0398 5.93343 -1.50369 0
M  V30 1107 N 97.1768 6.96516 -0.883706 0
M  V30 1108 H 102.017 2.53709 -1.5632 0
M  V30 1109 H 99.5538 1.24616 -0.781625 0
M  V30 1110 H 101.512 4.16033 0.311771 0
M  V30 1111 H 100.142 3.12781 0.797992 0
M  V30 1112 H 99.1938 3.45101 -1.60029 0
M  V30 1113 H 100.506 4.61307 -1.89731 0
M  V30 1114 H 99.6598 6.06684 -0.0436871 0
M  V30 1115 H 98.3988 4.86443 0.349864 0
M  V30 1116 H 97.4038 5.14517 -1.93784 0
M  V30 1117 H 98.6288 6.38114 -2.32352 0
M  V30 1118 H 96.5748 6.55943 -0.086595 0
M  V30 1119 H 96.4918 7.38723 -1.607 0
M  V30 1120 H 97.7598 7.77993 -0.484543 0
M  V30 1121 N 101.989 0.842826 1.3317 0
M  V30 1122 C 103.237 0.439577 1.97262 0
M  V30 1123 C 103.558 -1.00548 1.67078 0
M  V30 1124 O 102.828 -1.70098 0.971779 0
M  V30 1125 H 101.408 0.159558 0.72976 0
M  V30 1126 H 104.07 1.07665 1.62463 0
M  V30 1127 H 103.166 0.574886 3.0676 0
M  V30 1128 N 103.467 -1.45747 0.599634 0
M  V30 1129 C 104.714 -2.02292 0.0917284 0
M  V30 1130 C 105.042 -1.46906 -1.27472 0
M  V30 1131 O 104.297 -0.630652 -1.8526 0
M  V30 1132 C 104.596 -3.57399 -0.00602758 0
M  V30 1133 C 104.262 -4.31902 1.29503 0
M  V30 1134 C 102.924 -4.51974 1.65144 0
M  V30 1135 C 105.276 -4.74551 2.15525 0
M  V30 1136 C 102.604 -5.11949 2.86574 0
M  V30 1137 C 104.956 -5.35868 3.36196 0
M  V30 1138 C 103.62 -5.54165 3.72099 0
M  V30 1139 H 102.89 -0.740239 0.0335658 0
M  V30 1140 H 105.537 -1.7491 0.779661 0
M  V30 1141 H 103.842 -3.84014 -0.777183 0
M  V30 1142 H 105.539 -3.98846 -0.415038 0
M  V30 1143 H 102.129 -4.16588 1.00761 0
M  V30 1144 H 106.313 -4.58784 1.8929 0
M  V30 1145 H 101.569 -5.24305 3.14507 0
M  V30 1146 H 105.743 -5.6787 4.03109 0
M  V30 1147 H 103.37 -6.00406 4.6628 0
M  V30 1148 N 104.945 -0.338344 -1.53925 0
M  V30 1149 C 105.892 0.520845 -2.24846 0
M  V30 1150 C 106.862 1.09976 -1.24477 0
M  V30 1151 O 108.047 1.13735 -1.53196 0
M  V30 1152 C 105.187 1.6685 -3.02084 0
M  V30 1153 C 104.3 1.11739 -4.17299 0
M  V30 1154 C 103.435 2.23193 -4.82036 0
M  V30 1155 C 102.474 1.65407 -5.89328 0
M  V30 1156 N 101.611 2.70582 -6.47866 0
M  V30 1157 H 106.451 -0.0904881 -2.97863 0
M  V30 1158 H 103.988 -0.0564282 -1.46992 0
M  V30 1159 H 105.946 2.34407 -3.45122 0
M  V30 1160 H 104.576 2.2509 -2.31375 0
M  V30 1161 H 103.628 0.332919 -3.7894 0
M  V30 1162 H 104.94 0.654677 -4.94485 0
M  V30 1163 H 104.094 2.98626 -5.28117 0
M  V30 1164 H 102.833 2.72807 -4.04262 0
M  V30 1165 H 101.838 0.884779 -5.42634 0
M  V30 1166 H 103.063 1.16652 -6.69006 0
M  V30 1167 H 101.009 3.1946 -5.72959 0
M  V30 1168 H 100.926 2.28917 -7.20509 0
M  V30 1169 H 102.194 3.45799 -6.98601 0
M  V30 1170 N 106.423 1.57458 -0.0668435 0
M  V30 1171 C 107.669 1.94401 0.598316 0
M  V30 1172 C 108.024 0.946335 1.67518 0
M  V30 1173 O 107.317 -0.0321442 1.91573 0
M  V30 1174 C 107.511 3.35784 1.22409 0
M  V30 1175 C 107.34 4.49212 0.209367 0
M  V30 1176 C 106.11 5.04887 -0.204218 0
M  V30 1177 C 108.308 5.11335 -0.551431 0
M  V30 1178 N 106.29 6.01854 -1.21016 0
M  V30 1179 C 107.661 6.03754 -1.41 0
M  V30 1180 C 109.716 4.94173 -0.608038 0
M  V30 1181 C 108.419 6.80854 -2.32013 0
M  V30 1182 C 110.445 5.71912 -1.50566 0
M  V30 1183 C 109.807 6.63976 -2.35191 0
M  V30 1184 H 105.906 0.758538 0.190114 0
M  V30 1185 H 108.49 1.94175 -0.142832 0
M  V30 1186 H 106.661 3.36757 1.93518 0
M  V30 1187 H 108.393 3.59976 1.84931 0
M  V30 1188 H 105.148 4.73266 0.177908 0
M  V30 1189 H 105.572 6.55035 -1.71049 0
M  V30 1190 H 110.214 4.22788 0.032022 0
M  V30 1191 H 107.932 7.5152 -2.97057 0
M  V30 1192 H 111.518 5.60656 -1.55423 0
M  V30 1193 H 110.398 7.2308 -3.03522 0
M  V30 1194 N 107.901 -0.206675 1.56239 0
M  V30 1195 C 109.149 -0.927007 1.79586 0
M  V30 1196 C 109.47 -1.8427 0.637929 0
M  V30 1197 O 108.74 -1.92849 -0.344398 0
M  V30 1198 H 107.32 -0.345292 0.662407 0
M  V30 1199 H 109.982 -0.21496 1.93711 0
M  V30 1200 H 109.078 -1.52501 2.72305 0
M  V30 1201 N 109.379 -1.50304 -0.473955 0
M  V30 1202 C 110.626 -1.6115 -1.22625 0
M  V30 1203 C 110.954 -0.310517 -1.92005 0
M  V30 1204 O 110.209 0.703419 -1.82621 0
M  V30 1205 C 110.508 -2.73938 -2.29549 0
M  V30 1206 C 110.174 -4.14519 -1.7744 0
M  V30 1207 C 108.836 -4.5277 -1.62949 0
M  V30 1208 C 111.188 -5.02392 -1.3875 0
M  V30 1209 C 108.516 -5.76639 -1.08187 0
M  V30 1210 C 110.868 -6.26805 -0.854309 0
M  V30 1211 C 109.532 -6.63861 -0.696011 0
M  V30 1212 H 108.802 -0.589691 -0.448715 0
M  V30 1213 H 111.449 -1.84228 -0.522705 0
M  V30 1214 H 109.754 -2.44937 -3.05799 0
M  V30 1215 H 111.451 -2.79534 -2.87509 0
M  V30 1216 H 108.041 -3.8434 -1.89685 0
M  V30 1217 H 112.225 -4.73474 -1.4878 0
M  V30 1218 H 107.481 -6.04027 -0.946666 0
M  V30 1219 H 111.655 -6.94258 -0.545843 0
M  V30 1220 H 109.282 -7.59722 -0.26952 0
M  V30 1221 N 110.857 0.726932 -1.39834 0
M  V30 1222 C 111.82 1.82269 -1.38962 0
M  V30 1223 C 112.82 1.58248 -0.285334 0
M  V30 1224 O 114.01 1.65499 -0.54366 0
M  V30 1225 C 111.142 3.20186 -1.17019 0
M  V30 1226 H 112.335 1.84443 -2.36476 0
M  V30 1227 H 109.888 0.931416 -1.25516 0
M  V30 1228 H 110.623 3.23669 -0.202204 0
M  V30 1229 H 110.408 3.3902 -1.96998 0
M  V30 1230 H 111.898 4.00235 -1.1917 0
M  V30 1231 N 112.336 1.25143 0.95797 0
M  V30 1232 C 113.299 1.05321 2.03569 0
M  V30 1233 C 114.299 0.007152 1.60798 0
M  V30 1234 O 115.489 0.24903 1.72411 0
M  V30 1235 C 112.621 0.598394 3.35607 0
M  V30 1236 H 113.814 2.00986 2.22586 0
M  V30 1237 H 111.367 1.07502 1.13459 0
M  V30 1238 H 112.102 -0.361014 3.22284 0
M  V30 1239 H 111.887 1.35351 3.67998 0
M  V30 1240 H 113.377 0.48104 4.1482 0
M  V30 1241 N 113.814 -1.1601 1.06675 0
M  V30 1242 C 115.061 -1.86633 0.785781 0
M  V30 1243 C 115.389 -1.81929 -0.687896 0
M  V30 1244 O 114.644 -1.23253 -1.52011 0
M  V30 1245 C 114.943 -3.35547 1.23057 0
M  V30 1246 C 114.609 -3.60448 2.70902 0
M  V30 1247 C 113.271 -3.66954 3.11285 0
M  V30 1248 C 115.623 -3.7071 3.66365 0
M  V30 1249 C 112.951 -3.81225 4.45965 0
M  V30 1250 C 115.303 -3.86503 5.00797 0
M  V30 1251 C 113.967 -3.91252 5.40813 0
M  V30 1252 H 113.237 -0.682937 0.287538 0
M  V30 1253 H 115.884 -1.37146 1.33654 0
M  V30 1254 H 114.189 -3.87193 0.59907 0
M  V30 1255 H 115.886 -3.88583 0.990163 0
M  V30 1256 H 112.476 -3.56021 2.38636 0
M  V30 1257 H 116.66 -3.64991 3.36296 0
M  V30 1258 H 111.916 -3.83155 4.76447 0
M  V30 1259 H 116.09 -3.93385 5.74649 0
M  V30 1260 H 113.717 -4.02062 6.45174 0
M  V30 1261 N 115.292 -0.849877 -1.32721 0
M  V30 1262 C 116.538 -0.451591 -1.97708 0
M  V30 1263 C 116.871 0.989175 -1.6712 0
M  V30 1264 O 116.146 1.69334 -0.956891 0
M  V30 1265 C 116.429 -0.685598 -3.53513 0
M  V30 1266 C 116.282 -2.17444 -3.93749 0
M  V30 1267 C 117.601 -0.138874 -4.39881 0
M  V30 1268 H 114.72 -0.16555 -0.718166 0
M  V30 1269 H 117.362 -1.06742 -1.57182 0
M  V30 1270 H 115.512 -0.161416 -3.88165 0
M  V30 1271 H 117.184 -2.76433 -3.693 0
M  V30 1272 H 115.427 -2.65476 -3.43081 0
M  V30 1273 H 116.098 -2.28888 -5.02309 0
M  V30 1274 H 118.574 -0.587068 -4.11938 0
M  V30 1275 H 117.45 -0.332213 -5.47894 0
M  V30 1276 H 117.711 0.95806 -4.31594 0
M  V30 1277 N 116.77 1.45427 -0.607355 0
M  V30 1278 C 118.016 2.0254 -0.102607 0
M  V30 1279 C 118.349 1.47478 1.26348 0
M  V30 1280 O 117.624 0.64939 1.83339 0
M  V30 1281 C 117.907 3.60044 -0.0634347 0
M  V30 1282 C 117.76 4.2544 -1.46017 0
M  V30 1283 C 119.079 4.35646 0.624514 0
M  V30 1284 H 116.198 0.73598 -0.0387607 0
M  V30 1285 H 118.84 1.73284 -0.779282 0
M  V30 1286 H 116.99 3.85101 0.512808 0
M  V30 1287 H 118.662 4.11569 -2.08347 0
M  V30 1288 H 116.905 3.83849 -2.02094 0
M  V30 1289 H 117.576 5.34342 -1.385 0
M  V30 1290 H 120.052 4.15882 0.134723 0
M  V30 1291 H 118.928 5.45376 0.621028 0
M  V30 1292 H 119.189 4.08501 1.69055 0
M  V30 1293 N 118.248 0.346503 1.53744 0
M  V30 1294 C 119.211 -0.496439 2.23759 0
M  V30 1295 C 120.211 -1.0252 1.2388 0
M  V30 1296 O 121.401 -0.913974 1.48297 0
M  V30 1297 C 118.533 -1.69187 2.95954 0
M  V30 1298 H 119.726 0.115952 2.99676 0
M  V30 1299 H 117.279 0.0978939 1.55993 0
M  V30 1300 H 118.014 -2.34288 2.24231 0
M  V30 1301 H 117.799 -1.31989 3.69217 0
M  V30 1302 H 119.289 -2.28969 3.49232 0
M  V30 1303 N 119.726 -1.57421 0.075193 0
M  V30 1304 C 120.972 -1.93905 -0.594025 0
M  V30 1305 C 121.305 -0.955701 -1.69056 0
M  V30 1306 O 120.58 0.0145373 -1.94495 0
M  V30 1307 C 120.863 -3.40638 -1.1678 0
M  V30 1308 C 120.716 -4.49733 -0.0776792 0
M  V30 1309 C 122.035 -3.88259 -2.07228 0
M  V30 1310 H 119.154 -0.705105 -0.214466 0
M  V30 1311 H 121.796 -1.8947 0.141854 0
M  V30 1312 H 119.946 -3.44549 -1.79494 0
M  V30 1313 H 121.618 -4.57942 0.555573 0
M  V30 1314 H 119.861 -4.29751 0.591286 0
M  V30 1315 H 120.532 -5.49549 -0.519603 0
M  V30 1316 H 123.008 -3.86376 -1.54445 0
M  V30 1317 H 121.884 -4.91533 -2.44308 0
M  V30 1318 H 122.145 -3.26396 -2.98191 0
M  V30 1319 N 121.204 0.198386 -1.56346 0
M  V30 1320 C 122.452 0.91747 -1.80075 0
M  V30 1321 C 122.773 1.83929 -0.647692 0
M  V30 1322 O 122.043 1.93029 0.334166 0
M  V30 1323 H 120.623 0.341774 -0.664228 0
M  V30 1324 H 123.285 0.204684 -1.93822 0
M  V30 1325 H 122.381 1.51055 -2.7311 0
M  V30 1326 N 122.682 1.50554 0.465978 0
M  V30 1327 C 123.645 1.69233 1.54574 0
M  V30 1328 C 124.645 0.562901 1.50626 0
M  V30 1329 O 125.835 0.830016 1.53155 0
M  V30 1330 C 122.967 1.7223 2.94193 0
M  V30 1331 H 124.16 2.65571 1.39327 0
M  V30 1332 H 121.713 1.40111 0.692711 0
M  V30 1333 H 122.448 0.77603 3.14878 0
M  V30 1334 H 122.233 2.54285 2.98466 0
M  V30 1335 H 123.723 1.88618 3.72576 0
M  V30 1336 N 124.16 -0.719506 1.40217 0
M  V30 1337 C 125.07 -1.86378 1.42479 0
M  V30 1338 C 126.086 -1.71073 0.317834 0
M  V30 1339 O 127.262 -1.93406 0.561794 0
M  V30 1340 C 124.327 -3.22136 1.28178 0
M  V30 1341 C 123.388 -3.49723 2.48982 0
M  V30 1342 C 122.621 -4.79004 2.35353 0
M  V30 1343 O 122.844 -5.53821 1.36524 0
M  V30 1344 O 121.778 -5.06839 3.2465 0
M  V30 1345 H 125.604 -1.87425 2.38968 0
M  V30 1346 H 123.189 -0.869405 1.21498 0
M  V30 1347 H 125.071 -4.03234 1.22395 0
M  V30 1348 H 123.746 -3.21825 0.347934 0
M  V30 1349 H 122.653 -2.6865 2.60342 0
M  V30 1350 H 123.986 -3.54828 3.41113 0
M  V30 1351 N 125.638 -1.25649 -0.95132 0
M  V30 1352 C 126.868 -1.13179 -1.72841 0
M  V30 1353 C 127.276 0.316827 -1.86528 0
M  V30 1354 O 126.619 1.22948 -1.3649 0
M  V30 1355 C 126.681 -1.71644 -3.15878 0
M  V30 1356 C 126.345 -3.20667 -3.25609 0
M  V30 1357 C 127.342 -4.17616 -3.09666 0
M  V30 1358 C 125.027 -3.6094 -3.49324 0
M  V30 1359 C 127.021 -5.52817 -3.17289 0
M  V30 1360 C 124.708 -4.96278 -3.56584 0
M  V30 1361 C 125.706 -5.92025 -3.40581 0
M  V30 1362 O 125.394 -7.24899 -3.47528 0
M  V30 1363 H 125.126 -0.395389 -0.54831 0
M  V30 1364 H 127.68 -1.66566 -1.20187 0
M  V30 1365 H 125.91 -1.12707 -3.69911 0
M  V30 1366 H 127.599 -1.54225 -3.75459 0
M  V30 1367 H 128.365 -3.87842 -2.91211 0
M  V30 1368 H 124.244 -2.86907 -3.6084 0
M  V30 1369 H 127.788 -6.2753 -3.04716 0
M  V30 1370 H 123.685 -5.25716 -3.74556 0
M  V30 1371 H 124.453 -7.33039 -3.64138 0
M  V30 1372 N 127.117 1.15442 -1.07289 0
M  V30 1373 C 128.347 1.89821 -0.815576 0
M  V30 1374 C 128.755 1.7823 0.634867 0
M  V30 1375 O 128.098 1.13152 1.44715 0
M  V30 1376 C 128.16 3.40817 -1.14385 0
M  V30 1377 C 127.824 3.76193 -2.59476 0
M  V30 1378 C 128.821 3.77269 -3.57721 0
M  V30 1379 C 126.506 4.0652 -2.95037 0
M  V30 1380 C 128.5 4.08176 -4.89562 0
M  V30 1381 C 126.187 4.37092 -4.27076 0
M  V30 1382 C 127.185 4.37902 -5.24148 0
M  V30 1383 O 126.873 4.67741 -6.53815 0
M  V30 1384 H 126.605 0.608465 -0.294528 0
M  V30 1385 H 129.159 1.472 -1.43252 0
M  V30 1386 H 127.389 3.83835 -0.469865 0
M  V30 1387 H 129.078 3.96485 -0.869179 0
M  V30 1388 H 129.844 3.5394 -3.3159 0
M  V30 1389 H 125.723 4.05049 -2.20128 0
M  V30 1390 H 129.267 4.08723 -5.65324 0
M  V30 1391 H 125.164 4.59889 -4.5296 0
M  V30 1392 H 125.932 4.85509 -6.58957 0
M  V30 1393 N 128.595 0.856903 1.32268 0
M  V30 1394 C 129.525 0.31858 2.31316 0
M  V30 1395 C 130.506 -0.583487 1.59779 0
M  V30 1396 O 131.691 -0.503259 1.87566 0
M  V30 1397 C 128.821 -0.491979 3.43798 0
M  V30 1398 C 127.775 0.315849 4.26833 0
M  V30 1399 C 127.101 -0.619586 5.31098 0
M  V30 1400 C 128.401 1.54282 4.98993 0
M  V30 1401 H 130.095 1.14621 2.76591 0
M  V30 1402 H 127.641 0.552613 1.32974 0
M  V30 1403 H 129.594 -0.879012 4.1213 0
M  V30 1404 H 128.318 -1.35299 2.97257 0
M  V30 1405 H 126.977 0.684664 3.6015 0
M  V30 1406 H 126.625 -1.47751 4.8081 0
M  V30 1407 H 126.325 -0.0830621 5.87541 0
M  V30 1408 H 127.849 -1.00375 6.02293 0
M  V30 1409 H 129.263 1.22796 5.59995 0
M  V30 1410 H 127.66 2.01745 5.65172 0
M  V30 1411 H 128.73 2.30285 4.26728 0
M  V30 1412 N 130.073 -1.45103 0.615059 0
M  V30 1413 C 130.983 -2.34382 -0.101034 0
M  V30 1414 C 131.999 -1.51681 -0.852585 0
M  V30 1415 O 133.175 -1.8446 -0.808484 0
M  V30 1416 C 130.24 -3.29417 -1.08099 0
M  V30 1417 C 129.301 -4.28025 -0.330577 0
M  V30 1418 C 128.534 -5.1852 -1.26385 0
M  V30 1419 O 128.757 -5.12598 -2.50198 0
M  V30 1420 O 127.691 -5.97122 -0.756866 0
M  V30 1421 H 131.517 -2.97033 0.632855 0
M  V30 1422 H 129.102 -1.4461 0.375293 0
M  V30 1423 H 130.984 -3.87958 -1.6452 0
M  V30 1424 H 129.659 -2.69321 -1.79577 0
M  V30 1425 H 128.566 -3.73078 0.276283 0
M  V30 1426 H 129.899 -4.90997 0.343866 0
M  V30 1427 N 131.551 -0.354651 -1.53558 0
M  V30 1428 C 132.776 0.242153 -2.05981 0
M  V30 1429 C 133.201 1.42553 -1.2272 0
M  V30 1430 O 132.559 1.79656 -0.243604 0
M  V30 1431 C 132.607 0.624367 -3.55154 0
M  V30 1432 O 131.711 1.72301 -3.74681 0
M  V30 1433 H 131.052 0.0378432 -0.662921 0
M  V30 1434 H 133.582 -0.512087 -1.98088 0
M  V30 1435 H 133.592 0.898433 -3.97985 0
M  V30 1436 H 132.267 -0.240989 -4.15201 0
M  V30 1437 H 130.844 1.44535 -3.4375 0
M  V30 1438 N 133.029 1.57378 -0.0835403 0
M  V30 1439 C 133.959 2.1641 0.87686 0
M  V30 1440 C 134.94 1.09429 1.30228 0
M  V30 1441 O 136.125 1.37516 1.37124 0
M  V30 1442 C 133.255 2.73517 2.14022 0
M  V30 1443 C 132.209 3.85769 1.85381 0
M  V30 1444 C 131.535 4.29529 3.18448 0
M  V30 1445 C 132.835 5.09486 1.14984 0
M  V30 1446 H 134.529 2.96914 0.385059 0
M  V30 1447 H 132.075 1.42823 0.18377 0
M  V30 1448 H 134.028 3.13463 2.81636 0
M  V30 1449 H 132.752 1.90252 2.65465 0
M  V30 1450 H 131.411 3.46345 1.20169 0
M  V30 1451 H 131.059 3.43169 3.67755 0
M  V30 1452 H 130.759 5.05204 3.00071 0
M  V30 1453 H 132.283 4.72099 3.8724 0
M  V30 1454 H 133.697 5.46674 1.72687 0
M  V30 1455 H 132.094 5.90515 1.06826 0
M  V30 1456 H 133.164 4.84724 0.130749 0
M  V30 1457 N 134.507 -0.190092 1.56449 0
M  V30 1458 C 135.455 -1.25501 1.95837 0
M  V30 1459 C 136.449 -1.4685 0.844485 0
M  V30 1460 O 137.655 -1.47651 1.02952 0
M  V30 1461 H 134.03 -0.421447 0.622805 0
M  V30 1462 H 136.001 -0.895821 2.84636 0
M  V30 1463 C 134.75 -2.59124 2.31841 0
M  V30 1464 H 134.073 -2.43514 3.17082 0
M  V30 1465 H 135.513 -3.32371 2.6326 0
M  V30 1466 C 133.972 -3.16488 1.15486 0
M  V30 1467 O 134.502 -3.99365 0.432535 0
M  V30 1468 N 132.708 -2.75305 0.930349 0
M  V30 1469 H 132.255 -2.08013 1.51948 0
M  V30 1470 H 132.213 -3.14024 0.153634 0
M  V30 1471 N 135.985 -1.50799 -0.457987 0
M  V30 1472 C 136.932 -1.70617 -1.5543 0
M  V30 1473 C 137.902 -0.547562 -1.56815 0
M  V30 1474 O 139.087 -0.779647 -1.74144 0
M  V30 1475 C 136.227 -1.81831 -2.93311 0
M  V30 1476 C 135.34 -3.09278 -3.01615 0
M  V30 1477 C 134.475 -3.11209 -4.30491 0
M  V30 1478 C 133.514 -4.33055 -4.32585 0
M  V30 1479 N 132.651 -4.32652 -5.52952 0
M  V30 1480 H 137.491 -2.64207 -1.37836 0
M  V30 1481 H 135.028 -1.30959 -0.669937 0
M  V30 1482 H 136.986 -1.86314 -3.73287 0
M  V30 1483 H 135.616 -0.916685 -3.0951 0
M  V30 1484 H 134.668 -3.14203 -2.1443 0
M  V30 1485 H 135.98 -3.99233 -2.99022 0
M  V30 1486 H 135.134 -3.14494 -5.18824 0
M  V30 1487 H 133.873 -2.19106 -4.35711 0
M  V30 1488 H 132.878 -4.29969 -3.42647 0
M  V30 1489 H 134.103 -5.264 -4.29046 0
M  V30 1490 H 132.049 -3.43409 -5.58933 0
M  V30 1491 H 131.966 -5.16392 -5.52155 0
M  V30 1492 H 133.234 -4.40101 -6.43375 0
M  V30 1493 N 137.463 0.71206 -1.40597 0
M  V30 1494 C 138.74 1.46536 -1.29563 0
M  V30 1495 C 139.12 2.10931 0.0844217 0
M  V30 1496 O 138.468 2.00418 1.0975 0
M  V30 1497 C 138.678 2.49821 -2.43701 0
M  V30 1498 C 140.026 3.15551 -2.841 0
M  V30 1499 O 141.05 2.60142 -2.4332 0
M  V30 1500 O 139.909 4.15867 -3.54566 0
M  V30 1501 H 137.003 0.651801 -0.509004 0
M  V30 1502 H 139.549 0.743935 -1.52524 0
M  V30 1503 H 138.321 2.00778 -3.35863 0
M  V30 1504 H 137.944 3.29495 -2.22528 0
M  V30 1505 N 138.941 1.26152 0.944643 0
M  V30 1506 C 139.888 1.07408 2.04285 0
M  V30 1507 C 140.858 -0.0198413 1.66088 0
M  V30 1508 O 142.043 0.139264 1.90291 0
M  V30 1509 C 139.183 0.70945 3.37729 0
M  V30 1510 C 138.296 1.87926 3.88983 0
M  V30 1511 C 137.431 1.45807 5.10797 0
M  V30 1512 C 136.47 2.5964 5.54305 0
M  V30 1513 N 135.607 2.18226 6.67324 0
M  V30 1514 H 140.447 2.01389 2.1965 0
M  V30 1515 H 137.984 1.00275 1.07626 0
M  V30 1516 H 139.942 0.478948 4.14442 0
M  V30 1517 H 138.572 -0.193389 3.2222 0
M  V30 1518 H 137.624 2.22279 3.08701 0
M  V30 1519 H 138.936 2.73377 4.17213 0
M  V30 1520 H 138.09 1.18781 5.94959 0
M  V30 1521 H 136.829 0.574414 4.84305 0
M  V30 1522 H 135.834 2.87399 4.68702 0
M  V30 1523 H 137.059 3.48599 5.828 0
M  V30 1524 H 135.005 1.3229 6.42523 0
M  V30 1525 H 134.922 2.97221 6.95123 0
M  V30 1526 H 136.19 1.94403 7.54869 0
M  V30 1527 N 140.419 -1.14872 1.07899 0
M  V30 1528 C 141.366 -2.19791 0.704319 0
M  V30 1529 C 142.336 -1.63238 -0.306987 0
M  V30 1530 O 143.521 -1.8983 -0.192171 0
M  V30 1531 C 140.661 -3.44911 0.114244 0
M  V30 1532 C 139.774 -4.15637 1.1777 0
M  V30 1533 C 138.909 -5.28324 0.552037 0
M  V30 1534 C 137.948 -5.90875 1.59789 0
M  V30 1535 N 137.085 -6.95022 0.994404 0
M  V30 1536 H 141.925 -2.5119 1.60336 0
M  V30 1537 H 139.462 -1.23356 0.801352 0
M  V30 1538 H 141.42 -4.16477 -0.245544 0
M  V30 1539 H 140.05 -3.14011 -0.74813 0
M  V30 1540 H 139.102 -3.42512 1.65499 0
M  V30 1541 H 140.414 -4.5823 1.97046 0
M  V30 1542 H 139.568 -6.06538 0.1402 0
M  V30 1543 H 138.307 -4.86939 -0.272431 0
M  V30 1544 H 137.312 -5.11369 2.01945 0
M  V30 1545 H 138.537 -6.34337 2.42474 0
M  V30 1546 H 136.483 -6.55722 0.190939 0
M  V30 1547 H 136.4 -7.36073 1.72432 0
M  V30 1548 H 137.668 -7.77123 0.608253 0
M  V30 1549 N 141.898 -0.863906 -1.31812 0
M  V30 1550 C 142.848 -0.286898 -2.26188 0
M  V30 1551 C 143.832 0.572577 -1.50367 0
M  V30 1552 O 145.024 0.420447 -1.71934 0
M  V30 1553 C 142.153 0.515849 -3.39402 0
M  V30 1554 C 141.239 -0.356531 -4.22599 0
M  V30 1555 N 141.63 -1.44716 -4.84656 0
M  V30 1556 C 139.928 -0.147898 -4.45755 0
M  V30 1557 C 140.629 -1.98462 -5.46798 0
M  V30 1558 N 139.605 -1.28247 -5.28255 0
M  V30 1559 H 143.407 -1.12055 -2.717 0
M  V30 1560 H 140.921 -0.711012 -1.46008 0
M  V30 1561 H 142.918 0.945701 -4.06032 0
M  V30 1562 H 141.578 1.34718 -2.95434 0
M  V30 1563 H 142.589 -1.83008 -4.84488 0
M  V30 1564 H 139.266 0.647973 -4.12441 0
M  V30 1565 H 140.656 -2.89932 -6.06126 0
M  V30 1566 N 143.376 1.44774 -0.622745 0
M  V30 1567 C 144.326 2.2774 0.108889 0
M  V30 1568 C 145.31 1.38189 0.824175 0
M  V30 1569 O 146.502 1.62063 0.711664 0
M  V30 1570 C 143.631 3.25353 1.09546 0
M  V30 1571 C 142.717 4.22392 0.380232 0
M  V30 1572 N 143.108 5.02388 -0.586535 0
M  V30 1573 C 141.406 4.41588 0.625792 0
M  V30 1574 C 142.107 5.72894 -1.00834 0
M  V30 1575 N 141.083 5.42479 -0.348878 0
M  V30 1576 H 144.885 2.86993 -0.63341 0
M  V30 1577 H 142.399 1.5611 -0.447589 0
M  V30 1578 H 144.396 3.83538 1.63414 0
M  V30 1579 H 143.056 2.6766 1.83815 0
M  V30 1580 H 144.067 5.0885 -0.963975 0
M  V30 1581 H 140.744 3.95003 1.352 0
M  V30 1582 H 142.134 6.47158 -1.80656 0
M  V30 1583 O 144.893 0.504988 1.53402 0
M  V30 1584 H 145.584 -0.0115839 1.93697 0
M  V30 END ATOM
M  V30 BEGIN BOND
M  V30 END BOND
M  V30 END CTAB
M  END
$$$$
