drugbank_target|O43613 Orexin receptor type 1 (DB09034; DB11951)
 OpenBabel12092121033D

  0  0  0     0  0            999 V3000
M  V30 BEGIN CTAB
M  V30 COUNTS 6762 6854 0 0 0
M  V30 BEGIN ATOM
M  V30 1 H -0.908 1.98254 -0.117106 0
M  V30 2 N 0 1.576 0 0
M  V30 3 C 0.933 2.03868 1.02534 0
M  V30 4 C 1.911 0.928543 1.3348 0
M  V30 5 O 3.095 1.19667 1.45644 0
M  V30 6 C 0.222 2.43627 2.35294 0
M  V30 7 C -0.732 3.65373 2.2001 0
M  V30 8 S 0.101 5.13292 1.52614 0
M  V30 9 C 1.257 5.56322 2.86805 0
M  V30 10 H 1.49 2.90518 0.631377 0
M  V30 11 H -0.977 1.52953 0.210867 0
M  V30 12 H 0.981 2.67203 3.11629 0
M  V30 13 H -0.358 1.57376 2.7183 0
M  V30 14 H -1.165 3.90944 3.18086 0
M  V30 15 H -1.563 3.418 1.51819 0
M  V30 16 H 0.729 5.58782 3.83104 0
M  V30 17 H 1.672 6.56266 2.65933 0
M  V30 18 H 2.08 4.83886 2.90714 0
M  V30 19 N 1.4781 -0.272755 1.55222 0
M  V30 20 C 2.3881 -1.35918 1.91216 0
M  V30 21 C 3.4041 -1.54026 0.809436 0
M  V30 22 O 4.5801 -1.68148 1.10852 0
M  V30 23 C 1.6451 -2.69834 2.17693 0
M  V30 24 C 0.7061 -2.6047 3.41253 0
M  V30 25 C -0.0609 -3.88 3.66458 0
M  V30 26 O 0.1621 -4.88693 2.94169 0
M  V30 27 O -0.9039 -3.88189 4.59992 0
M  V30 28 H 2.9221 -1.0839 2.83699 0
M  V30 29 H 0.5071 -0.471301 1.41771 0
M  V30 30 H 2.3891 -3.49017 2.36147 0
M  V30 31 H 1.0641 -2.97148 1.28392 0
M  V30 32 H -0.0289 -1.79663 3.28134 0
M  V30 33 H 1.3041 -2.38106 4.30774 0
M  V30 34 N 2.9562 -1.48159 -0.537278 0
M  V30 35 C 4.3672 -1.49429 -1.11928 0
M  V30 36 C 4.7182 -0.26 -1.9447 0
M  V30 37 O 3.8432 0.633489 -2.0692 0
M  V30 38 C 4.4382 -2.70758 -2.03656 0
M  V30 39 C 2.9972 -2.74923 -2.57088 0
M  V30 40 C 2.1442 -2.42835 -1.3389 0
M  V30 41 H 5.0952 -1.55381 -0.322886 0
M  V30 42 H 5.1162 -2.48861 -2.87834 0
M  V30 43 H 4.6282 -3.60575 -1.43553 0
M  V30 44 H 2.7292 -1.89296 -3.20933 0
M  V30 45 H 2.8422 -3.76157 -2.9672 0
M  V30 46 H 1.2062 -1.93836 -1.65226 0
M  V30 47 H 1.9892 -3.34884 -0.755504 0
M  V30 48 N 4.4343 0.785586 -1.36625 0
M  V30 49 C 5.6593 1.57963 -1.34397 0
M  V30 50 C 6.0843 1.87964 0.071526 0
M  V30 51 O 5.4423 1.48182 1.0446 0
M  V30 52 C 5.4903 2.87511 -2.17646 0
M  V30 53 O 4.5943 3.81281 -1.57158 0
M  V30 54 H 3.9353 0.479014 -0.459828 0
M  V30 55 H 6.4653 0.973411 -1.79961 0
M  V30 56 H 6.4753 3.36745 -2.30362 0
M  V30 57 H 5.1503 2.65002 -3.20541 0
M  V30 58 H 3.7273 3.39885 -1.53403 0
M  V30 59 N 5.9124 1.20967 1.01018 0
M  V30 60 C 6.8754 0.965918 2.07853 0
M  V30 61 C 7.8754 -0.0610545 1.60684 0
M  V30 62 O 9.0654 0.175681 1.73312 0
M  V30 63 C 6.1974 0.455513 3.37843 0
M  V30 64 H 7.3904 1.91365 2.3091 0
M  V30 65 H 4.9434 1.02594 1.17916 0
M  V30 66 H 5.6784 -0.497381 3.20463 0
M  V30 67 H 5.4634 1.19622 3.73407 0
M  V30 68 H 6.9534 0.304667 4.16487 0
M  V30 69 N 7.3905 -1.2043 1.01659 0
M  V30 70 C 8.6185 -1.93777 0.725132 0
M  V30 71 C 9.0335 -1.74772 -0.714166 0
M  V30 72 O 8.3905 -1.06169 -1.4844 0
M  V30 73 C 8.4415 -3.45876 1.05129 0
M  V30 74 O 8.1625 -3.6426 2.43406 0
M  V30 75 C 9.6635 -4.36368 0.780891 0
M  V30 76 H 6.8835 -0.615901 0.266284 0
M  V30 77 H 9.4275 -1.52922 1.35776 0
M  V30 78 H 7.5825 -3.8461 0.464065 0
M  V30 79 H 7.9965 -4.58246 2.55169 0
M  V30 80 H 9.4705 -5.41743 1.05918 0
M  V30 81 H 9.9475 -4.38275 -0.284937 0
M  V30 82 H 10.5535 -4.03296 1.35027 0
M  V30 83 N 8.8686 -0.792821 -1.36206 0
M  V30 84 C 10.2796 -0.429513 -1.81692 0
M  V30 85 C 10.6306 1.04695 -1.65932 0
M  V30 86 O 9.7556 1.81256 -1.18218 0
M  V30 87 C 10.3506 -0.772831 -3.29868 0
M  V30 88 C 8.9096 -0.462307 -3.7355 0
M  V30 89 C 8.0566 -1.00569 -2.5842 0
M  V30 90 H 11.0076 -0.985672 -1.24379 0
M  V30 91 H 11.0286 -0.0651928 -3.80444 0
M  V30 92 H 10.5406 -1.84747 -3.41307 0
M  V30 93 H 8.6416 0.604158 -3.67669 0
M  V30 94 H 8.7546 -0.985299 -4.68859 0
M  V30 95 H 7.1186 -0.428734 -2.51066 0
M  V30 96 H 7.9016 -2.08616 -2.72643 0
M  V30 97 N 10.3467 1.47872 -0.545128 0
M  V30 98 C 11.5947 2.02093 -0.016553 0
M  V30 99 C 11.9157 1.42305 1.3332 0
M  V30 100 O 11.1857 0.593853 1.86682 0
M  V30 101 H 9.7657 0.746993 -0.00313038 0
M  V30 102 H 12.4277 1.81414 -0.712397 0
M  V30 103 H 11.5237 3.11996 0.0805422 0
M  V30 104 N 11.8248 0.280983 1.55075 0
M  V30 105 C 12.7878 -0.590896 2.21452 0
M  V30 106 C 13.7878 -1.07682 1.19421 0
M  V30 107 O 14.9778 -0.97605 1.44288 0
M  V30 108 C 12.1098 -1.81587 2.88511 0
M  V30 109 H 13.3028 -0.0112554 2.99898 0
M  V30 110 H 10.8558 0.0316438 1.56268 0
M  V30 111 H 11.5908 -2.43587 2.14093 0
M  V30 112 H 11.3758 -1.4753 3.63287 0
M  V30 113 H 12.8658 -2.43575 3.39206 0
M  V30 114 N 13.3029 -1.57598 0.00835791 0
M  V30 115 C 14.2349 -2.05811 -1.00868 0
M  V30 116 C 15.2479 -0.977579 -1.30182 0
M  V30 117 O 16.4369 -1.25421 -1.27011 0
M  V30 118 C 13.5369 -2.45016 -2.34137 0
M  V30 119 C 12.7099 -3.75903 -2.23643 0
M  V30 120 C 11.7689 -4.01884 -3.3967 0
M  V30 121 O 10.7949 -4.72433 -3.17483 0
M  V30 122 N 11.9969 -3.50432 -4.62793 0
M  V30 123 H 14.7619 -2.93684 -0.597458 0
M  V30 124 H 12.3229 -1.60909 -0.178852 0
M  V30 125 H 14.3149 -2.59506 -3.10546 0
M  V30 126 H 12.8849 -1.62618 -2.66972 0
M  V30 127 H 12.1049 -3.7141 -1.32091 0
M  V30 128 H 13.3929 -4.61695 -2.13812 0
M  V30 129 H 12.7909 -2.93317 -4.83716 0
M  V30 130 H 11.3479 -3.70236 -5.3644 0
M  V30 131 N 14.781 0.264519 -1.55364 0
M  V30 132 C 15.714 1.35297 -1.83766 0
M  V30 133 C 16.692 1.47171 -0.691336 0
M  V30 134 O 17.876 1.63663 -0.935238 0
M  V30 135 C 15.003 2.72847 -2.00679 0
M  V30 136 C 14.049 2.78214 -3.23263 0
M  V30 137 S 14.882 2.36601 -4.80396 0
M  V30 138 C 16.038 3.7611 -5.00292 0
M  V30 139 H 16.271 1.11003 -2.758 0
M  V30 140 H 13.804 0.464596 -1.47244 0
M  V30 141 H 15.762 3.52057 -2.11108 0
M  V30 142 H 14.423 2.94388 -1.09518 0
M  V30 143 H 13.616 3.7919 -3.3201 0
M  V30 144 H 13.218 2.07034 -3.11469 0
M  V30 145 H 15.51 4.71457 -4.86554 0
M  V30 146 H 16.453 3.7231 -6.02321 0
M  V30 147 H 16.861 3.67806 -4.28228 0
M  V30 148 N 16.2591 1.48442 0.529413 0
M  V30 149 C 17.5071 1.56179 1.28267 0
M  V30 150 C 17.8281 0.237721 1.93546 0
M  V30 151 O 17.0981 -0.740779 1.81354 0
M  V30 152 H 15.6781 0.575367 0.476405 0
M  V30 153 H 18.3401 1.84909 0.61602 0
M  V30 154 H 17.4361 2.34312 2.06165 0
M  V30 155 N 17.7372 -0.778329 1.37039 0
M  V30 156 C 18.9832 -1.53892 1.32079 0
M  V30 157 C 19.3162 -1.9396 -0.0965386 0
M  V30 158 O 18.5912 -1.63568 -1.05242 0
M  V30 159 C 18.8742 -2.80847 2.25382 0
M  V30 160 C 18.7272 -2.47076 3.75864 0
M  V30 161 C 20.0462 -3.82741 2.1725 0
M  V30 162 H 17.1652 -0.558303 0.48111 0
M  V30 163 H 19.8072 -0.893397 1.67685 0
M  V30 164 H 17.9572 -3.35931 1.95148 0
M  V30 165 H 19.6292 -1.97957 4.16666 0
M  V30 166 H 17.8722 -1.79863 3.94755 0
M  V30 167 H 18.5432 -3.37798 4.36574 0
M  V30 168 H 21.0192 -3.37133 2.43887 0
M  V30 169 H 19.8952 -4.69303 2.84686 0
M  V30 170 H 20.1562 -4.2652 1.16331 0
M  V30 171 N 19.2153 -1.21501 -1.00376 0
M  V30 172 C 20.6263 -1.03146 -1.55621 0
M  V30 173 C 20.9773 0.408375 -1.91903 0
M  V30 174 O 20.1023 1.29177 -1.73616 0
M  V30 175 C 20.6973 -1.86612 -2.82775 0
M  V30 176 C 19.2563 -1.72586 -3.34501 0
M  V30 177 C 18.4033 -1.83747 -2.07683 0
M  V30 178 H 21.3543 -1.35505 -0.826081 0
M  V30 179 H 21.3753 -1.3771 -3.54706 0
M  V30 180 H 20.8873 -2.91399 -2.56336 0
M  V30 181 H 18.9883 -0.704877 -3.65872 0
M  V30 182 H 19.1013 -2.54623 -4.05837 0
M  V30 183 H 17.4653 -1.27069 -2.20739 0
M  V30 184 H 18.2483 -2.90044 -1.83655 0
M  V30 185 N 20.6934 1.19889 -1.02296 0
M  V30 186 C 22.1044 1.71124 -0.746568 0
M  V30 187 C 22.4554 1.81939 0.734335 0
M  V30 188 O 21.5804 1.48639 1.57275 0
M  V30 189 C 22.1754 3.10804 -1.34857 0
M  V30 190 C 20.7344 3.59323 -1.1209 0
M  V30 191 C 19.8814 2.3635 -1.45031 0
M  V30 192 H 22.8324 1.04813 -1.19163 0
M  V30 193 H 22.8534 3.73186 -0.742437 0
M  V30 194 H 22.3654 3.029 -2.42638 0
M  V30 195 H 20.4664 3.7255 -0.0610337 0
M  V30 196 H 20.5794 4.4378 -1.80544 0
M  V30 197 H 18.9434 2.39399 -0.869487 0
M  V30 198 H 19.7264 2.31081 -2.53883 0
M  V30 199 N 22.1715 0.800033 1.35784 0
M  V30 200 C 23.4195 0.376597 1.9856 0
M  V30 201 C 23.7405 -1.05812 1.63795 0
M  V30 202 O 23.0105 -1.73103 0.917171 0
M  V30 203 H 21.5905 0.136261 0.734467 0
M  V30 204 H 24.2525 1.02442 1.65806 0
M  V30 205 H 23.3485 0.477002 3.08433 0
M  V30 206 N 23.6496 -1.47581 0.552962 0
M  V30 207 C 24.8746 -2.07378 0.0300593 0
M  V30 208 C 25.2996 -1.40355 -1.25229 0
M  V30 209 O 24.6576 -0.477099 -1.7491 0
M  V30 210 C 24.7056 -3.60274 -0.153231 0
M  V30 211 O 23.8096 -3.94041 -1.21678 0
M  V30 212 H 23.1506 -0.662158 0.0494182 0
M  V30 213 H 25.6806 -1.89662 0.767434 0
M  V30 214 H 25.6906 -4.0633 -0.368761 0
M  V30 215 H 24.3656 -4.08455 0.783397 0
M  V30 216 H 22.9426 -3.59735 -0.982079 0
M  V30 217 N 25.1277 -0.289203 -1.54924 0
M  V30 218 C 26.5437 0.0645403 -1.59469 0
M  V30 219 C 26.7437 1.53419 -1.30632 0
M  V30 220 O 25.7997 2.2852 -1.074 0
M  V30 221 C 27.1127 -0.32278 -2.98963 0
M  V30 222 C 28.6607 -0.270564 -3.11828 0
M  V30 223 C 29.1357 -0.632532 -4.53611 0
M  V30 224 N 30.6267 -0.584617 -4.59496 0
M  V30 225 C 31.3617 -0.837314 -5.67254 0
M  V30 226 N 30.8577 -1.15536 -6.83098 0
M  V30 227 N 32.6507 -0.765166 -5.56868 0
M  V30 228 H 24.8017 -1.24714 -1.71931 0
M  V30 229 H 27.0647 -0.504809 -0.802416 0
M  V30 230 H 26.7707 -1.34541 -3.24948 0
M  V30 231 H 26.6447 0.32944 -3.75759 0
M  V30 232 H 29.0317 0.742805 -2.85598 0
M  V30 233 H 29.1127 -0.957242 -2.37214 0
M  V30 234 H 28.7567 -1.64365 -4.80569 0
M  V30 235 H 28.6867 0.07609 -5.26545 0
M  V30 236 H 31.1777 -0.349248 -3.76283 0
M  V30 237 H 31.4907 -1.33447 -7.61191 0
M  V30 238 H 29.8357 -1.19328 -6.84679 0
M  V30 239 H 33.0267 -0.516432 -4.65243 0
M  V30 240 H 33.1997 -0.965477 -6.40767 0
M  V30 241 N 26.6058 1.57591 -0.0167156 0
M  V30 242 C 27.5158 2.1291 0.98521 0
M  V30 243 C 28.5318 1.07834 1.36557 0
M  V30 244 O 29.7078 1.39826 1.44951 0
M  V30 245 C 26.7728 2.63512 2.25305 0
M  V30 246 C 25.8338 3.83256 1.93426 0
M  V30 247 C 25.0668 4.31435 3.14165 0
M  V30 248 O 25.2898 3.78851 4.26413 0
M  V30 249 O 24.2238 5.23416 2.97186 0
M  V30 250 H 28.0498 2.98772 0.544888 0
M  V30 251 H 25.6348 1.48012 0.203141 0
M  V30 252 H 27.5168 2.96183 2.99756 0
M  V30 253 H 26.1918 1.8074 2.68542 0
M  V30 254 H 25.0988 3.55531 1.16398 0
M  V30 255 H 26.4318 4.67153 1.55013 0
M  V30 256 N 28.0839 -0.256276 1.55502 0
M  V30 257 C 29.4949 -0.826068 1.67431 0
M  V30 258 C 29.8459 -1.86396 0.612446 0
M  V30 259 O 28.9709 -2.15031 -0.243025 0
M  V30 260 C 29.5659 -1.50512 3.03532 0
M  V30 261 C 28.1249 -2.02273 3.17431 0
M  V30 262 C 27.2719 -0.870548 2.63281 0
M  V30 263 H 30.2229 -0.0322728 1.58667 0
M  V30 264 H 30.2439 -2.37279 2.97454 0
M  V30 265 H 29.7559 -0.749484 3.80794 0
M  V30 266 H 27.8569 -2.80746 2.44974 0
M  V30 267 H 27.9699 -2.22655 4.24219 0
M  V30 268 H 26.3339 -1.26851 2.20864 0
M  V30 269 H 27.1169 -0.128149 3.43061 0
M  V30 270 N 29.562 -1.4872 -0.521534 0
M  V30 271 C 30.787 -1.61101 -1.30618 0
M  V30 272 C 31.212 -0.274611 -1.86085 0
M  V30 273 O 30.57 0.754937 -1.64834 0
M  V30 274 C 30.618 -2.66709 -2.4269 0
M  V30 275 O 29.722 -2.24456 -3.45967 0
M  V30 276 H 29.063 -0.539921 -0.386499 0
M  V30 277 H 31.593 -1.94767 -0.626645 0
M  V30 278 H 31.603 -2.88245 -2.88754 0
M  V30 279 H 30.278 -3.63727 -2.01682 0
M  V30 280 H 28.855 -2.13168 -3.05964 0
M  V30 281 N 31.0401 0.771051 -1.3745 0
M  V30 282 C 32.4511 1.34737 -1.29239 0
M  V30 283 C 32.8021 1.96109 0.0596908 0
M  V30 284 O 31.9271 1.93865 0.961534 0
M  V30 285 C 32.5221 2.44973 -2.34037 0
M  V30 286 C 31.0811 2.98372 -2.29458 0
M  V30 287 C 30.2281 1.71595 -2.17831 0
M  V30 288 H 33.1791 0.571256 -1.48062 0
M  V30 289 H 33.2001 3.24471 -1.98744 0
M  V30 290 H 32.7121 2.00276 -3.32432 0
M  V30 291 H 30.8131 3.47443 -1.34589 0
M  V30 292 H 30.9261 3.53939 -3.229 0
M  V30 293 H 29.2901 1.94547 -1.64388 0
M  V30 294 H 30.0731 1.29001 -3.18141 0
M  V30 295 N 32.5182 1.22032 0.997298 0
M  V30 296 C 33.7642 1.04376 1.73878 0
M  V30 297 C 34.0972 -0.420716 1.89588 0
M  V30 298 O 33.3722 -1.31202 1.43583 0
M  V30 299 C 33.6552 1.75047 3.14691 0
M  V30 300 C 33.5082 3.29062 3.06656 0
M  V30 301 C 34.8272 1.49928 4.13775 0
M  V30 302 H 31.9462 0.380578 0.631133 0
M  V30 303 H 34.5882 1.50312 1.16217 0
M  V30 304 H 32.7382 1.35996 3.63919 0
M  V30 305 H 34.4102 3.7753 2.65083 0
M  V30 306 H 32.6532 3.58967 2.43568 0
M  V30 307 H 33.3242 3.73683 4.06282 0
M  V30 308 H 35.8002 1.83842 3.73285 0
M  V30 309 H 34.6762 2.01878 5.10428 0
M  V30 310 H 34.9372 0.430929 4.39995 0
M  V30 311 N 33.9963 -1.19345 1.0293 0
M  V30 312 C 35.4073 -1.70725 0.755633 0
M  V30 313 C 35.7583 -1.82326 -0.724676 0
M  V30 314 O 34.8833 -1.49471 -1.56484 0
M  V30 315 C 35.4783 -3.10084 1.36503 0
M  V30 316 C 34.0373 -3.58723 1.13994 0
M  V30 317 C 33.1843 -2.35577 1.46283 0
M  V30 318 H 36.1353 -1.0418 1.19718 0
M  V30 319 H 36.1563 -3.72787 0.762217 0
M  V30 320 H 35.6683 -3.01609 2.44241 0
M  V30 321 H 33.7693 -3.72512 0.0807901 0
M  V30 322 H 33.8823 -4.42816 1.82894 0
M  V30 323 H 32.2463 -2.38935 0.88217 0
M  V30 324 H 33.0293 -2.29731 2.55105 0
M  V30 325 N 35.4744 -0.807222 -1.35358 0
M  V30 326 C 36.8854 -0.44876 -1.81226 0
M  V30 327 C 37.2364 1.02929 -1.67033 0
M  V30 328 O 36.3614 1.79991 -1.20133 0
M  V30 329 C 36.9564 -0.807774 -3.2903 0
M  V30 330 C 35.5154 -0.501901 -3.73039 0
M  V30 331 C 34.6624 -1.03304 -2.57339 0
M  V30 332 H 37.6134 -0.998808 -1.23327 0
M  V30 333 H 37.6344 -0.10554 -3.80354 0
M  V30 334 H 37.1464 -1.88357 -3.39328 0
M  V30 335 H 35.2474 0.565128 -3.68289 0
M  V30 336 H 35.3604 -1.03497 -4.67787 0
M  V30 337 H 33.7244 -0.455339 -2.50597 0
M  V30 338 H 34.5074 -2.11496 -2.70415 0
M  V30 339 N 36.9525 1.47285 -0.560781 0
M  V30 340 C 38.2295 1.9558 0.0277798 0
M  V30 341 C 38.6095 1.5034 1.48192 0
M  V30 342 O 37.9575 0.743882 2.16052 0
M  V30 343 C 38.1675 3.48789 -0.121418 0
M  V30 344 C 39.5155 4.24594 0.0220912 0
M  V30 345 O 40.5395 3.56166 -0.0491439 0
M  V30 346 O 39.3985 5.46217 0.175958 0
M  V30 347 H 36.4925 0.824663 0.0621342 0
M  V30 348 H 39.0385 1.5767 -0.627556 0
M  V30 349 H 37.8105 3.74533 -1.13316 0
M  V30 350 H 37.4335 3.93473 0.571366 0
M  V30 351 N 38.4306 0.297415 1.54768 0
M  V30 352 C 39.6606 -0.315165 2.04182 0
M  V30 353 C 40.0686 -1.4834 1.17439 0
M  V30 354 O 39.4116 -1.82695 0.191891 0
M  V30 355 C 39.4736 -0.837583 3.49607 0
M  V30 356 C 39.1376 0.204912 4.5654 0
M  V30 357 C 40.1346 1.03214 5.09552 0
M  V30 358 C 37.8196 0.345578 5.0111 0
M  V30 359 C 39.8136 1.986 6.05671 0
M  V30 360 C 37.5006 1.30289 5.97049 0
M  V30 361 C 38.4986 2.12159 6.49213 0
M  V30 362 O 38.1866 3.06268 7.43273 0
M  V30 363 H 37.9186 -0.0729646 0.672051 0
M  V30 364 H 40.4726 0.433907 2.00765 0
M  V30 365 H 38.7026 -1.63712 3.50336 0
M  V30 366 H 40.3916 -1.36566 3.82236 0
M  V30 367 H 41.1576 0.934312 4.75916 0
M  V30 368 H 37.0366 -0.28171 4.60138 0
M  V30 369 H 40.5806 2.62542 6.46311 0
M  V30 370 H 36.4776 1.40145 6.30103 0
M  V30 371 H 37.2456 3.01205 7.61064 0
M  V30 372 N 39.9087 -1.5758 0.0250728 0
M  V30 373 C 40.8187 -2.1343 -0.973905 0
M  V30 374 C 41.8347 -1.08556 -1.35984 0
M  V30 375 O 43.0107 -1.40592 -1.44207 0
M  V30 376 C 40.0757 -2.64703 -2.23904 0
M  V30 377 C 39.1367 -3.84276 -1.91391 0
M  V30 378 C 38.3697 -4.33095 -3.11873 0
M  V30 379 O 38.5927 -3.81107 -4.24398 0
M  V30 380 O 37.5267 -5.24984 -2.94406 0
M  V30 381 H 41.3527 -2.99057 -0.529036 0
M  V30 382 H 38.9377 -1.48118 -0.195288 0
M  V30 383 H 40.8197 -2.97769 -2.98181 0
M  V30 384 H 39.4947 -1.82161 -2.6758 0
M  V30 385 H 38.4017 -3.56143 -1.14511 0
M  V30 386 H 39.7347 -4.67968 -1.52534 0
M  V30 387 N 41.3868 0.248026 -1.55636 0
M  V30 388 C 42.6638 0.998988 -1.68165 0
M  V30 389 C 43.0438 2.03409 -0.564621 0
M  V30 390 O 42.3918 2.24378 0.432076 0
M  V30 391 C 42.6018 1.63334 -3.0842 0
M  V30 392 C 43.9498 2.13562 -3.66983 0
M  V30 393 O 44.9738 1.73277 -3.11213 0
M  V30 394 O 43.8328 2.87526 -4.64749 0
M  V30 395 H 40.9268 0.464933 -0.683935 0
M  V30 396 H 43.4728 0.241902 -1.67967 0
M  V30 397 H 42.2448 0.884583 -3.8117 0
M  V30 398 H 41.8678 2.45666 -3.12624 0
M  V30 399 N 42.8649 1.48995 0.513639 0
M  V30 400 C 43.7749 1.67443 1.64317 0
M  V30 401 C 44.7909 0.556947 1.64846 0
M  V30 402 O 45.9669 0.830082 1.83498 0
M  V30 403 C 43.0319 1.72515 3.00732 0
M  V30 404 C 42.0929 2.96009 3.1093 0
M  V30 405 C 41.3259 3.00829 4.40837 0
M  V30 406 O 41.5489 2.13594 5.28898 0
M  V30 407 O 40.4829 3.93168 4.55744 0
M  V30 408 H 44.3089 2.63106 1.51687 0
M  V30 409 H 41.8939 1.32588 0.688543 0
M  V30 410 H 43.7759 1.78277 3.81831 0
M  V30 411 H 42.4509 0.800278 3.13651 0
M  V30 412 H 41.3579 2.9577 2.29065 0
M  V30 413 H 42.6909 3.87934 3.02933 0
M  V30 414 N 44.343 -0.763751 1.37857 0
M  V30 415 C 45.59 -1.52257 1.33506 0
M  V30 416 C 45.918 -1.94343 -0.078022 0
M  V30 417 O 45.173 -1.64958 -1.05297 0
M  V30 418 C 45.472 -2.79499 2.22745 0
M  V30 419 C 45.138 -2.56426 3.70886 0
M  V30 420 C 43.8 -2.49842 4.11257 0
M  V30 421 C 46.152 -2.36008 4.64704 0
M  V30 422 C 43.48 -2.20841 5.43549 0
M  V30 423 C 45.832 -2.0853 5.97242 0
M  V30 424 C 44.496 -2.00396 6.36709 0
M  V30 425 H 43.766 -0.557149 0.488534 0
M  V30 426 H 46.413 -0.879073 1.70131 0
M  V30 427 H 44.718 -3.48447 1.79142 0
M  V30 428 H 46.415 -3.37413 2.16688 0
M  V30 429 H 43.005 -2.62416 3.38874 0
M  V30 430 H 47.189 -2.40079 4.34368 0
M  V30 431 H 42.445 -2.13045 5.73081 0
M  V30 432 H 46.619 -1.91732 6.69486 0
M  V30 433 H 44.246 -1.77688 7.39142 0
M  V30 434 N 45.8211 -1.22559 -0.990812 0
M  V30 435 C 46.7511 -1.0218 -2.09956 0
M  V30 436 C 47.7321 0.0579394 -1.70001 0
M  V30 437 O 48.9171 -0.104684 -1.93918 0
M  V30 438 C 46.0471 -0.601023 -3.4206 0
M  V30 439 C 45.0011 -1.62694 -3.95872 0
M  V30 440 C 44.3271 -1.06193 -5.24049 0
M  V30 441 C 45.6271 -3.01743 -4.2632 0
M  V30 442 H 47.3211 -1.94916 -2.27262 0
M  V30 443 H 44.8671 -0.938566 -1.09211 0
M  V30 444 H 46.8201 -0.445561 -4.19038 0
M  V30 445 H 45.5441 0.362005 -3.24588 0
M  V30 446 H 44.2031 -1.77021 -3.21028 0
M  V30 447 H 43.8511 -0.0901903 -5.02919 0
M  V30 448 H 43.5511 -1.74732 -5.61019 0
M  V30 449 H 45.0751 -0.918092 -6.03658 0
M  V30 450 H 46.4891 -2.90777 -4.94087 0
M  V30 451 H 44.8861 -3.67425 -4.74467 0
M  V30 452 H 45.9561 -3.51518 -3.34011 0
M  V30 453 N 47.2992 1.18797 -1.03562 0
M  V30 454 C 48.7152 1.40671 -0.753917 0
M  V30 455 C 48.9152 1.9043 0.658686 0
M  V30 456 O 47.9712 2.08538 1.42366 0
M  V30 457 C 49.2842 2.41192 -1.79574 0
M  V30 458 C 50.8322 2.54928 -1.81606 0
M  V30 459 C 51.3072 3.58709 -2.84766 0
M  V30 460 N 52.7982 3.66212 -2.83625 0
M  V30 461 C 53.5332 4.46225 -3.60098 0
M  V30 462 N 53.0292 5.29888 -4.46308 0
M  V30 463 N 54.8222 4.40939 -3.4861 0
M  V30 464 H 46.9732 0.848221 -1.94728 0
M  V30 465 H 49.2362 0.435081 -0.842264 0
M  V30 466 H 48.9422 2.11669 -2.80872 0
M  V30 467 H 48.8162 3.40467 -1.62365 0
M  V30 468 H 51.2032 2.83771 -0.809817 0
M  V30 469 H 51.2842 1.55784 -2.02891 0
M  V30 470 H 50.9282 3.30607 -3.85566 0
M  V30 471 H 50.8582 4.57519 -2.60737 0
M  V30 472 H 53.3492 3.06466 -2.21105 0
M  V30 473 H 53.6622 5.88078 -5.01382 0
M  V30 474 H 52.0072 5.29326 -4.50377 0
M  V30 475 H 55.1982 3.74624 -2.80668 0
M  V30 476 H 55.3712 5.03056 -4.08459 0
M  V30 477 N 48.7773 0.814389 1.34928 0
M  V30 478 C 50.0073 0.41054 2.0248 0
M  V30 479 C 50.4153 -0.985625 1.61499 0
M  V30 480 O 49.7583 -1.64781 0.811976 0
M  V30 481 C 49.8203 0.423384 3.56998 0
M  V30 482 C 49.4843 1.77141 4.21272 0
M  V30 483 C 50.4813 2.73093 4.42398 0
M  V30 484 C 48.1663 2.05755 4.58225 0
M  V30 485 C 50.1603 3.95838 4.9959 0
M  V30 486 C 47.8473 3.28762 5.1513 0
M  V30 487 C 48.8453 4.23621 5.35755 0
M  V30 488 O 48.5333 5.44456 5.91458 0
M  V30 489 H 48.2653 0.163997 0.655806 0
M  V30 490 H 50.8193 1.10155 1.73364 0
M  V30 491 H 49.0493 -0.324276 3.85338 0
M  V30 492 H 50.7383 0.0407683 4.0588 0
M  V30 493 H 51.5043 2.5228 4.14222 0
M  V30 494 H 47.3833 1.32727 4.4148 0
M  V30 495 H 50.9273 4.69891 5.15605 0
M  V30 496 H 46.8243 3.49443 5.42734 0
M  V30 497 H 47.5923 5.4586 6.09901 0
M  V30 498 N 50.2554 -1.46986 0.568584 0
M  V30 499 C 51.1854 -2.32946 -0.160753 0
M  V30 500 C 52.1664 -1.44487 -0.897631 0
M  V30 501 O 53.3514 -1.73327 -0.875867 0
M  V30 502 C 50.4814 -3.26494 -1.18403 0
M  V30 503 C 49.4354 -4.24282 -0.562895 0
M  V30 504 C 48.7614 -5.07236 -1.69163 0
M  V30 505 C 50.0614 -5.19989 0.490761 0
M  V30 506 H 51.7554 -2.94175 0.556916 0
M  V30 507 H 49.3014 -1.4146 0.26927 0
M  V30 508 H 51.2544 -3.85477 -1.70251 0
M  V30 509 H 49.9784 -2.63343 -1.93179 0
M  V30 510 H 48.6374 -3.66541 -0.0656164 0
M  V30 511 H 48.2854 -4.4048 -2.42871 0
M  V30 512 H 47.9854 -5.7345 -1.28174 0
M  V30 513 H 49.5094 -5.6908 -2.21314 0
M  V30 514 H 50.9234 -5.73271 0.0579047 0
M  V30 515 H 49.3204 -5.94469 0.820165 0
M  V30 516 H 50.3904 -4.64777 1.3824 0
M  V30 517 N 51.7335 -0.305618 -1.54608 0
M  V30 518 C 52.9795 0.295595 -2.01241 0
M  V30 519 C 53.3345 1.51171 -1.19018 0
M  V30 520 O 52.6275 1.89832 -0.259684 0
M  V30 521 C 52.8215 0.698983 -3.50498 0
M  V30 522 C 52.6505 -0.476491 -4.47168 0
M  V30 523 C 51.4205 -0.969963 -4.95903 0
M  V30 524 C 53.6185 -1.32294 -4.96994 0
M  V30 525 N 51.6005 -2.11172 -5.76437 0
M  V30 526 C 52.9715 -2.31212 -5.75275 0
M  V30 527 C 55.0265 -1.35278 -4.7917 0
M  V30 528 C 53.7295 -3.32896 -6.37631 0
M  V30 529 C 55.7555 -2.35823 -5.42348 0
M  V30 530 C 55.1175 -3.33469 -6.20466 0
M  V30 531 H 51.2165 0.0724992 -0.778632 0
M  V30 532 H 53.8005 -0.436583 -1.89742 0
M  V30 533 H 51.9715 1.40032 -3.62278 0
M  V30 534 H 53.7035 1.28013 -3.8392 0
M  V30 535 H 50.4585 -0.544178 -4.70463 0
M  V30 536 H 50.8825 -2.68714 -6.21387 0
M  V30 537 H 55.5245 -0.61157 -4.18354 0
M  V30 538 H 53.2425 -4.07933 -6.97579 0
M  V30 539 H 56.8285 -2.38911 -5.30484 0
M  V30 540 H 55.7085 -4.09996 -6.68485 0
M  V30 541 N 53.2116 1.57565 -0.0334293 0
M  V30 542 C 54.6276 1.56297 0.322997 0
M  V30 543 C 54.8276 1.03945 1.7262 0
M  V30 544 O 53.8836 0.688109 2.42943 0
M  V30 545 C 55.1966 3.00232 0.167664 0
M  V30 546 C 56.7446 3.12078 0.240107 0
M  V30 547 C 57.2196 4.57859 0.113513 0
M  V30 548 N 58.7106 4.62887 0.170359 0
M  V30 549 C 59.4456 5.73319 0.0962517 0
M  V30 550 N 58.9416 6.92794 -0.0291881 0
M  V30 551 N 60.7346 5.61898 0.150551 0
M  V30 552 H 52.8856 1.89923 -0.950956 0
M  V30 553 H 55.1486 0.873824 -0.367608 0
M  V30 554 H 54.8546 3.42501 -0.799102 0
M  V30 555 H 54.7286 3.654 0.936083 0
M  V30 556 H 57.1156 2.69718 1.19733 0
M  V30 557 H 57.1966 2.49623 -0.558763 0
M  V30 558 H 56.8406 5.009 -0.840314 0
M  V30 559 H 56.7706 5.18299 0.931302 0
M  V30 560 H 59.2616 3.76954 0.26728 0
M  V30 561 H 59.5746 7.7276 -0.0789252 0
M  V30 562 H 57.9196 6.94971 -0.0640299 0
M  V30 563 H 61.1106 4.67448 0.246981 0
M  V30 564 H 61.2836 6.47938 0.0893365 0
M  V30 565 N 54.6897 -0.239769 1.55765 0
M  V30 566 C 55.9667 -0.990056 1.68693 0
M  V30 567 C 56.3467 -2.03107 0.5754 0
M  V30 568 O 55.6947 -2.24604 -0.42017 0
M  V30 569 C 55.9047 -1.61696 3.09282 0
M  V30 570 C 57.2527 -2.11613 3.6811 0
M  V30 571 O 58.2767 -1.71624 3.12127 0
M  V30 572 O 57.1357 -2.85057 4.66267 0
M  V30 573 H 54.2297 -0.461299 0.686391 0
M  V30 574 H 56.7757 -0.232991 1.68093 0
M  V30 575 H 55.5477 -0.864357 3.81634 0
M  V30 576 H 55.1707 -2.44005 3.13923 0
M  V30 577 N 56.1678 -1.49265 -0.50573 0
M  V30 578 C 57.3978 -1.61979 -1.28243 0
M  V30 579 C 57.8058 -0.288576 -1.86986 0
M  V30 580 O 57.1488 0.735408 -1.68337 0
M  V30 581 C 57.2108 -2.62632 -2.45489 0
M  V30 582 C 56.8748 -4.071 -2.07651 0
M  V30 583 C 57.8718 -4.94049 -1.61901 0
M  V30 584 C 55.5568 -4.52801 -2.17431 0
M  V30 585 C 57.5508 -6.24736 -1.26428 0
M  V30 586 C 55.2378 -5.83503 -1.8157 0
M  V30 587 C 56.2358 -6.69294 -1.36142 0
M  V30 588 O 55.9238 -7.9756 -1.00764 0
M  V30 589 H 55.6558 -0.54834 -0.395347 0
M  V30 590 H 58.2098 -1.96002 -0.614204 0
M  V30 591 H 56.4398 -2.2378 -3.15372 0
M  V30 592 H 58.1288 -2.64925 -3.07522 0
M  V30 593 H 58.8948 -4.5997 -1.53795 0
M  V30 594 H 54.7738 -3.86196 -2.51742 0
M  V30 595 H 58.3178 -6.91652 -0.908992 0
M  V30 596 H 54.2148 -6.17112 -1.89324 0
M  V30 597 H 54.9828 -8.10529 -1.13952 0
M  V30 598 N 57.6459 0.756429 -1.3826 0
M  V30 599 C 58.5759 1.88374 -1.37976 0
M  V30 600 C 59.5569 1.68311 -0.246082 0
M  V30 601 O 60.7419 1.88944 -0.44874 0
M  V30 602 C 57.8719 3.25864 -1.20125 0
M  V30 603 C 56.8259 3.60523 -2.30666 0
M  V30 604 C 56.1519 4.9672 -1.97923 0
M  V30 605 C 57.4519 3.65692 -3.72916 0
M  V30 606 H 59.1459 1.88869 -2.32312 0
M  V30 607 H 56.6919 0.907272 -1.11824 0
M  V30 608 H 58.6449 4.0438 -1.18552 0
M  V30 609 H 57.3689 3.25841 -0.222498 0
M  V30 610 H 56.0279 2.84324 -2.3142 0
M  V30 611 H 55.6759 4.93253 -0.985393 0
M  V30 612 H 55.3759 5.20878 -2.71955 0
M  V30 613 H 56.8999 5.77618 -1.97964 0
M  V30 614 H 58.3139 4.34328 -3.74208 0
M  V30 615 H 56.7109 4.01358 -4.4613 0
M  V30 616 H 57.7809 2.65987 -4.05436 0
M  V30 617 N 59.124 1.23083 0.984299 0
M  V30 618 C 60.354 1.08556 1.75781 0
M  V30 619 C 60.762 -0.366171 1.85623 0
M  V30 620 O 60.105 -1.26524 1.33182 0
M  V30 621 C 60.167 1.63208 3.20318 0
M  V30 622 C 59.831 3.11922 3.33997 0
M  V30 623 C 60.828 4.09259 3.2063 0
M  V30 624 C 58.513 3.51552 3.58771 0
M  V30 625 C 60.507 5.4421 3.31835 0
M  V30 626 C 58.194 4.86649 3.69616 0
M  V30 627 C 59.192 5.82787 3.56157 0
M  V30 628 O 58.88 7.15431 3.66626 0
M  V30 629 H 58.612 0.380713 0.5586 0
M  V30 630 H 61.166 1.63321 1.2456 0
M  V30 631 H 59.396 1.0286 3.72769 0
M  V30 632 H 61.085 1.44216 3.79416 0
M  V30 633 H 61.851 3.79984 3.01392 0
M  V30 634 H 57.73 2.77239 3.6832 0
M  V30 635 H 61.274 6.1923 3.21247 0
M  V30 636 H 57.171 5.15601 3.88363 0
M  V30 637 H 57.939 7.23127 3.83445 0
M  V30 638 N 60.6021 -1.18246 1.0419 0
M  V30 639 C 62.0131 -1.69914 0.773698 0
M  V30 640 C 62.3641 -1.83085 -0.705297 0
M  V30 641 O 61.4891 -1.51123 -1.5489 0
M  V30 642 C 62.0841 -3.08619 1.39784 0
M  V30 643 C 60.6431 -3.57494 1.17792 0
M  V30 644 C 59.7901 -2.34013 1.48773 0
M  V30 645 H 62.7411 -1.02904 1.20816 0
M  V30 646 H 62.7621 -3.71958 0.801714 0
M  V30 647 H 62.2741 -2.99001 2.47426 0
M  V30 648 H 60.3751 -3.72406 0.120295 0
M  V30 649 H 60.4881 -4.40852 1.87581 0
M  V30 650 H 58.8521 -2.37986 0.907463 0
M  V30 651 H 59.6351 -2.27013 2.57527 0
M  V30 652 N 62.0802 -0.821533 -1.34494 0
M  V30 653 C 63.0272 -0.240397 -2.29545 0
M  V30 654 C 63.9972 0.634031 -1.53523 0
M  V30 655 O 65.1822 0.575966 -1.81899 0
M  V30 656 C 62.3222 0.592869 -3.39969 0
M  V30 657 C 61.4352 -0.30365 -4.30932 0
M  V30 658 C 60.5702 0.539049 -5.28458 0
M  V30 659 C 59.6092 -0.356942 -6.11058 0
M  V30 660 N 58.7462 0.446603 -7.00678 0
M  V30 661 H 63.5862 -1.05632 -2.7865 0
M  V30 662 H 61.1232 -0.532413 -1.37127 0
M  V30 663 H 63.0812 1.09129 -4.02675 0
M  V30 664 H 61.7112 1.37392 -2.92102 0
M  V30 665 H 60.7632 -0.920276 -3.691 0
M  V30 666 H 62.0752 -0.992661 -4.88823 0
M  V30 667 H 61.2292 1.102 -5.96608 0
M  V30 668 H 59.9682 1.26157 -4.71101 0
M  V30 669 H 58.9732 -0.932047 -5.41842 0
M  V30 670 H 60.1982 -1.07755 -6.70497 0
M  V30 671 H 58.1442 1.15282 -6.45791 0
M  V30 672 H 58.0612 -0.184048 -7.55776 0
M  V30 673 H 59.3292 0.992352 -7.73158 0
M  V30 674 N 63.5583 1.46682 -0.576371 0
M  V30 675 C 64.4903 2.28341 0.198231 0
M  V30 676 C 65.5033 1.38141 0.861453 0
M  V30 677 O 66.6923 1.62797 0.732082 0
M  V30 678 C 63.7923 3.12986 1.29972 0
M  V30 679 C 62.9653 4.31271 0.729639 0
M  V30 680 C 62.0243 4.97363 1.71803 0
M  V30 681 O 61.0503 5.55156 1.25658 0
M  V30 682 N 62.2523 4.93796 3.05198 0
M  V30 683 H 65.0173 2.9546 -0.502324 0
M  V30 684 H 62.5783 1.56525 -0.413715 0
M  V30 685 H 64.5703 3.54066 1.96008 0
M  V30 686 H 63.1403 2.47984 1.90323 0
M  V30 687 H 62.3603 3.94052 -0.108012 0
M  V30 688 H 63.6483 5.07739 0.328438 0
M  V30 689 H 63.0463 4.48077 3.45317 0
M  V30 690 H 61.6033 5.38837 3.6674 0
M  V30 691 N 65.0364 0.313813 1.54444 0
M  V30 692 C 66.2664 -0.293491 2.04505 0
M  V30 693 C 66.6744 -1.47086 1.19005 0
M  V30 694 O 66.0174 -1.82481 0.211257 0
M  V30 695 C 66.0794 -0.800455 3.50475 0
M  V30 696 C 65.7434 0.253322 4.56297 0
M  V30 697 C 66.7404 1.08612 5.08428 0
M  V30 698 C 64.4254 0.398708 5.00715 0
M  V30 699 C 66.4194 2.05013 6.0353 0
M  V30 700 C 64.1064 1.36614 5.95634 0
M  V30 701 C 65.1044 2.19033 6.46926 0
M  V30 702 O 64.7924 3.14134 7.39983 0
M  V30 703 H 64.5244 -0.0658325 0.672787 0
M  V30 704 H 67.0784 0.455177 2.00293 0
M  V30 705 H 65.3084 -1.59987 3.52053 0
M  V30 706 H 66.9974 -1.32504 3.83663 0
M  V30 707 H 67.7634 0.984736 4.74898 0
M  V30 708 H 63.6424 -0.23289 4.60411 0
M  V30 709 H 67.1864 2.69382 6.4349 0
M  V30 710 H 63.0834 1.4682 6.28581 0
M  V30 711 H 63.8514 3.0926 7.57826 0
M  V30 712 N 66.5145 -1.57545 0.0417849 0
M  V30 713 C 67.4245 -2.14451 -0.951213 0
M  V30 714 C 68.4405 -1.09992 -1.34825 0
M  V30 715 O 69.6165 -1.42114 -1.42708 0
M  V30 716 C 66.6815 -2.67063 -2.21084 0
M  V30 717 C 65.7425 -3.86284 -1.87304 0
M  V30 718 C 64.9755 -4.36378 -3.07261 0
M  V30 719 O 65.1985 -3.85587 -4.20332 0
M  V30 720 O 64.1325 -5.28077 -2.88822 0
M  V30 721 H 67.9585 -2.99601 -0.497287 0
M  V30 722 H 65.5435 -1.48317 -0.179567 0
M  V30 723 H 67.4255 -3.00914 -2.95006 0
M  V30 724 H 66.1005 -1.84989 -2.65633 0
M  V30 725 H 65.0075 -3.57338 -1.10727 0
M  V30 726 H 66.3405 -4.6956 -1.47562 0
M  V30 727 N 67.9926 0.231505 -1.5589 0
M  V30 728 C 69.2386 0.954429 -1.79617 0
M  V30 729 C 69.5936 1.82367 -0.613199 0
M  V30 730 O 68.8866 1.87524 0.393094 0
M  V30 731 C 69.0806 1.83577 -3.0665 0
M  V30 732 C 68.9096 1.05334 -4.3719 0
M  V30 733 C 67.6796 0.75225 -4.99669 0
M  V30 734 C 69.8776 0.423444 -5.12554 0
M  V30 735 N 67.8596 -0.052627 -6.13877 0
M  V30 736 C 69.2306 -0.245287 -6.19515 0
M  V30 737 C 71.2856 0.335466 -4.96769 0
M  V30 738 C 69.9886 -0.993566 -7.12405 0
M  V30 739 C 72.0146 -0.399321 -5.9005 0
M  V30 740 C 71.3766 -1.05663 -6.9643 0
M  V30 741 H 67.4756 0.329846 -0.709031 0
M  V30 742 H 70.0596 0.226172 -1.93382 0
M  V30 743 H 68.2306 2.53592 -2.94186 0
M  V30 744 H 69.9626 2.49541 -3.18608 0
M  V30 745 H 66.7176 1.06783 -4.61405 0
M  V30 746 H 67.1416 -0.443609 -6.75545 0
M  V30 747 H 71.7836 0.829311 -4.14587 0
M  V30 748 H 69.5016 -1.49896 -7.94076 0
M  V30 749 H 73.0876 -0.468265 -5.79913 0
M  V30 750 H 71.9676 -1.61612 -7.67366 0
M  V30 751 N 69.4707 1.49531 0.497807 0
M  V30 752 C 70.7167 1.59415 1.25358 0
M  V30 753 C 71.0497 0.281422 1.9215 0
M  V30 754 O 70.3247 -0.715249 1.80871 0
M  V30 755 C 70.6077 2.75566 2.3181 0
M  V30 756 C 70.4607 4.16642 1.69498 0
M  V30 757 C 71.7797 2.87347 3.33346 0
M  V30 758 H 68.8987 0.580244 0.454408 0
M  V30 759 H 71.5407 1.81827 0.551262 0
M  V30 760 H 69.6907 2.56587 2.91711 0
M  V30 761 H 71.3627 4.47145 1.13399 0
M  V30 762 H 69.6057 4.22141 0.998978 0
M  V30 763 H 70.2767 4.93792 2.46725 0
M  V30 764 H 72.7527 3.04634 2.83438 0
M  V30 765 H 71.6287 3.70289 4.05188 0
M  V30 766 H 71.8897 1.96834 3.95865 0
M  V30 767 N 70.9488 -0.749086 1.3866 0
M  V30 768 C 71.8788 -1.8764 1.38973 0
M  V30 769 C 72.8598 -1.68178 0.255004 0
M  V30 770 O 74.0448 -1.88704 0.458754 0
M  V30 771 C 71.1748 -3.25222 1.21851 0
M  V30 772 C 70.1288 -3.59295 2.32575 0
M  V30 773 C 69.4548 -4.95663 2.00555 0
M  V30 774 C 70.7548 -3.63709 3.7485 0
M  V30 775 H 72.4488 -1.87635 2.3331 0
M  V30 776 H 69.9948 -0.901329 1.12303 0
M  V30 777 H 71.9478 -4.03746 1.20695 0
M  V30 778 H 70.6718 -3.25719 0.239775 0
M  V30 779 H 69.3308 -2.83093 2.32925 0
M  V30 780 H 68.9788 -4.92724 1.01154 0
M  V30 781 H 68.6788 -5.19429 2.74714 0
M  V30 782 H 70.2028 -5.7656 2.01024 0
M  V30 783 H 71.6168 -4.32338 3.76506 0
M  V30 784 H 70.0138 -3.98986 4.48252 0
M  V30 785 H 71.0838 -2.63834 4.06841 0
M  V30 786 N 72.4269 -1.23603 -0.977757 0
M  V30 787 C 73.6759 -1.06377 -1.71368 0
M  V30 788 C 73.9889 0.399062 -1.91486 0
M  V30 789 O 75.1949 0.691312 -2.62551 0
M  V30 790 C 73.6509 -1.85512 -3.08404 0
M  V30 791 C 73.2589 -3.36141 -2.96164 0
M  V30 792 C 75.0029 -1.76783 -3.85938 0
M  V30 793 C 72.9099 -4.07659 -4.28449 0
M  V30 794 H 71.8399 -0.394452 -0.642591 0
M  V30 795 H 74.4909 -1.47594 -1.09034 0
M  V30 796 H 72.8729 -1.37103 -3.71509 0
M  V30 797 H 74.0469 -3.92056 -2.42133 0
M  V30 798 H 72.3619 -3.45712 -2.32104 0
M  V30 799 H 74.9589 -2.27526 -4.83876 0
M  V30 800 H 75.3019 -0.731116 -4.0983 0
M  V30 801 H 75.8349 -2.22818 -3.2954 0
M  V30 802 H 72.5739 -5.11648 -4.09752 0
M  V30 803 H 72.0939 -3.5653 -4.82334 0
M  V30 804 H 73.7729 -4.141 -4.97122 0
M  V30 805 N 73.905 1.17692 -1.04816 0
M  V30 806 C 74.868 2.19787 -0.650117 0
M  V30 807 C 75.868 1.58044 0.296427 0
M  V30 808 O 77.058 1.74012 0.0808097 0
M  V30 809 C 74.19 3.40869 0.0456987 0
M  V30 810 H 75.383 2.56516 -1.5537 0
M  V30 811 H 72.936 1.31708 -0.841594 0
M  V30 812 H 73.671 3.09681 0.962726 0
M  V30 813 H 73.456 3.86928 -0.634727 0
M  V30 814 H 74.946 4.16445 0.310432 0
M  V30 815 N 75.3831 0.828654 1.34056 0
M  V30 816 C 76.3461 0.259927 2.27721 0
M  V30 817 C 77.3461 -0.565478 1.50529 0
M  V30 818 O 78.5361 -0.38075 1.69988 0
M  V30 819 C 75.6681 -0.634944 3.34935 0
M  V30 820 H 76.8611 1.0863 2.79534 0
M  V30 821 H 74.4141 0.600951 1.44285 0
M  V30 822 H 75.1491 -1.48416 2.88346 0
M  V30 823 H 74.9341 -0.0444999 3.92075 0
M  V30 824 H 76.4241 -1.02648 4.04788 0
M  V30 825 N 76.8612 -1.46375 0.584142 0
M  V30 826 C 78.0912 -2.06461 0.0758195 0
M  V30 827 C 78.4992 -1.43322 -1.23512 0
M  V30 828 O 77.8422 -0.533216 -1.75791 0
M  V30 829 C 77.9042 -3.59131 -0.162773 0
M  V30 830 C 77.5682 -4.4447 1.06279 0
M  V30 831 C 78.5652 -4.80918 1.97519 0
M  V30 832 C 76.2502 -4.85584 1.28504 0
M  V30 833 C 78.2442 -5.57309 3.09331 0
M  V30 834 C 75.9312 -5.61734 2.4062 0
M  V30 835 C 76.9292 -5.9751 3.30863 0
M  V30 836 O 76.6172 -6.72121 4.41032 0
M  V30 837 H 76.3492 -0.673745 0.0551725 0
M  V30 838 H 78.9032 -1.88969 0.804984 0
M  V30 839 H 77.1332 -3.74936 -0.946565 0
M  V30 840 H 78.8222 -4.0114 -0.619782 0
M  V30 841 H 79.5882 -4.49732 1.81565 0
M  V30 842 H 75.4672 -4.57187 0.591702 0
M  V30 843 H 79.0112 -5.85152 3.79793 0
M  V30 844 H 74.9082 -5.92334 2.56537 0
M  V30 845 H 75.6762 -6.90547 4.39417 0
M  V30 846 N 78.3393 -0.321999 -1.54275 0
M  V30 847 C 79.5853 0.281461 -2.00837 0
M  V30 848 C 79.9183 1.51909 -1.20985 0
M  V30 849 O 79.1933 1.923 -0.291733 0
M  V30 850 C 79.4763 0.617162 -3.54772 0
M  V30 851 C 79.3293 -0.631064 -4.45351 0
M  V30 852 C 80.6483 1.43542 -4.16033 0
M  V30 853 H 77.7673 0.100826 -0.730071 0
M  V30 854 H 80.4093 -0.438268 -1.84876 0
M  V30 855 H 78.5593 1.23034 -3.68504 0
M  V30 856 H 80.2313 -1.26934 -4.43492 0
M  V30 857 H 78.4743 -1.26025 -4.15091 0
M  V30 858 H 79.1453 -0.351735 -5.50878 0
M  V30 859 H 81.6213 0.917134 -4.05867 0
M  V30 860 H 80.4973 1.63907 -5.23856 0
M  V30 861 H 80.7583 2.43108 -3.69257 0
M  V30 862 N 79.8174 1.5752 -0.0501392 0
M  V30 863 C 80.7804 2.1037 0.909786 0
M  V30 864 C 81.7804 1.02308 1.24056 0
M  V30 865 O 82.9704 1.28385 1.17741 0
M  V30 866 C 80.1024 2.58708 2.21998 0
M  V30 867 H 81.2954 2.96479 0.451665 0
M  V30 868 H 78.8484 1.55038 0.198248 0
M  V30 869 H 79.5834 1.75989 2.72394 0
M  V30 870 H 79.3684 3.37675 1.99295 0
M  V30 871 H 80.8584 2.99747 2.9076 0
M  V30 872 N 81.2955 -0.223234 1.56011 0
M  V30 873 C 82.5415 -0.949279 1.79211 0
M  V30 874 C 82.8745 -1.84054 0.619494 0
M  V30 875 O 82.1495 -1.90726 -0.381317 0
M  V30 876 C 82.4325 -1.78965 3.12479 0
M  V30 877 C 82.2855 -0.924997 4.40186 0
M  V30 878 C 83.6045 -2.76774 3.42175 0
M  V30 879 H 80.7235 -0.343676 0.651963 0
M  V30 880 H 83.3655 -0.218253 1.88742 0
M  V30 881 H 81.5155 -2.41291 3.04485 0
M  V30 882 H 83.1875 -0.318615 4.60198 0
M  V30 883 H 81.4305 -0.230344 4.33188 0
M  V30 884 H 82.1015 -1.54735 5.29869 0
M  V30 885 H 84.5775 -2.24584 3.50287 0
M  V30 886 H 83.4535 -3.32678 4.36597 0
M  V30 887 H 83.7145 -3.54429 2.64258 0
M  V30 888 N 82.7736 -1.49793 -0.48987 0
M  V30 889 C 84.0206 -1.59841 -1.24327 0
M  V30 890 C 84.3486 -0.290135 -1.92324 0
M  V30 891 O 83.6036 0.722749 -1.81865 0
M  V30 892 C 83.9026 -2.71488 -2.32441 0
M  V30 893 C 83.5686 -4.12614 -1.81826 0
M  V30 894 C 82.2306 -4.51017 -1.67742 0
M  V30 895 C 84.5826 -5.00892 -1.4407 0
M  V30 896 C 81.9106 -5.75459 -1.14297 0
M  V30 897 C 84.2626 -6.25863 -0.920742 0
M  V30 898 C 82.9266 -6.63086 -0.766383 0
M  V30 899 H 82.1966 -0.584899 -0.454944 0
M  V30 900 H 84.8436 -1.83663 -0.542215 0
M  V30 901 H 83.1486 -2.4168 -3.0838 0
M  V30 902 H 84.8456 -2.76469 -2.90458 0
M  V30 903 H 81.4356 -3.82307 -1.93751 0
M  V30 904 H 85.6196 -4.7187 -1.53794 0
M  V30 905 H 80.8756 -6.02989 -1.01068 0
M  V30 906 H 85.0496 -6.9364 -0.619448 0
M  V30 907 H 82.6766 -7.59393 -0.350083 0
M  V30 908 N 84.2517 0.741722 -1.39055 0
M  V30 909 C 85.4977 1.50336 -1.36113 0
M  V30 910 C 85.8307 1.94148 0.0450796 0
M  V30 911 O 85.1057 1.66301 1.00868 0
M  V30 912 C 85.3887 2.74773 -2.32749 0
M  V30 913 C 85.2417 2.37023 -3.82283 0
M  V30 914 C 86.5607 3.76846 -2.27322 0
M  V30 915 H 83.6797 0.545351 -0.495743 0
M  V30 916 H 86.3217 0.848624 -1.69995 0
M  V30 917 H 84.4717 3.30639 -2.03986 0
M  V30 918 H 86.1437 1.8684 -4.21768 0
M  V30 919 H 84.3867 1.69334 -3.99385 0
M  V30 920 H 85.0577 3.26104 -4.45376 0
M  V30 921 H 87.5337 3.30548 -2.5274 0
M  V30 922 H 86.4097 4.6159 -2.97028 0
M  V30 923 H 86.6707 4.23286 -1.27599 0
M  V30 924 N 85.7298 1.2412 0.971189 0
M  V30 925 C 86.9758 1.08041 1.71625 0
M  V30 926 C 87.3088 -0.380407 1.90438 0
M  V30 927 O 86.5838 -1.28127 1.46334 0
M  V30 928 C 86.8668 1.81682 3.10908 0
M  V30 929 C 86.7198 3.35493 2.99608 0
M  V30 930 C 88.0388 1.58671 4.10501 0
M  V30 931 H 85.1578 0.39388 0.622919 0
M  V30 932 H 87.7998 1.52743 1.13003 0
M  V30 933 H 85.9498 1.43684 3.60953 0
M  V30 934 H 87.6218 3.83068 2.57015 0
M  V30 935 H 85.8648 3.64052 2.35899 0
M  V30 936 H 86.5358 3.82217 3.98264 0
M  V30 937 H 89.0118 1.91719 3.69301 0
M  V30 938 H 87.8878 2.1266 5.06031 0
M  V30 939 H 88.1488 0.524161 4.38982 0
M  V30 940 N 87.2079 -1.17134 1.05439 0
M  V30 941 C 88.1709 -2.19439 0.661764 0
M  V30 942 C 89.1709 -1.58199 -0.288042 0
M  V30 943 O 90.3609 -1.74053 -0.0715803 0
M  V30 944 C 87.4929 -3.40889 -0.0276209 0
M  V30 945 H 88.6859 -2.55688 1.56728 0
M  V30 946 H 86.2389 -1.31259 0.848567 0
M  V30 947 H 86.9739 -3.10187 -0.94629 0
M  V30 948 H 86.7589 -3.86586 0.655238 0
M  V30 949 H 88.2489 -4.16603 -0.288342 0
M  V30 950 N 88.686 -0.835752 -1.33615 0
M  V30 951 C 89.616 -0.281739 -2.31794 0
M  V30 952 C 90.597 0.608833 -1.58831 0
M  V30 953 O 91.782 0.533035 -1.86741 0
M  V30 954 C 88.912 0.546612 -3.42971 0
M  V30 955 C 87.866 -0.247904 -4.27281 0
M  V30 956 C 87.192 0.704001 -5.30045 0
M  V30 957 C 88.492 -1.46324 -5.01385 0
M  V30 958 H 90.186 -1.10206 -2.78379 0
M  V30 959 H 87.732 -0.531388 -1.33837 0
M  V30 960 H 89.685 0.944467 -4.1068 0
M  V30 961 H 88.409 1.40011 -2.95067 0
M  V30 962 H 87.068 -0.627281 -3.61194 0
M  V30 963 H 86.716 1.55381 -4.78399 0
M  V30 964 H 86.416 0.176524 -5.87335 0
M  V30 965 H 87.94 1.09944 -6.0062 0
M  V30 966 H 89.354 -1.13871 -5.61877 0
M  V30 967 H 87.751 -1.92728 -5.6831 0
M  V30 968 H 88.821 -2.23467 -4.30338 0
M  V30 969 N 90.1641 1.46063 -0.591896 0
M  V30 970 C 91.4101 2.02638 -0.0811191 0
M  V30 971 C 91.7431 1.4613 1.27905 0
M  V30 972 O 91.0181 0.629908 1.84017 0
M  V30 973 C 91.3011 3.60091 -0.0252436 0
M  V30 974 C 91.1541 4.26965 -1.41496 0
M  V30 975 C 92.4731 4.3496 0.670685 0
M  V30 976 H 89.5921 0.73635 -0.0309524 0
M  V30 977 H 92.2341 1.741 -0.760859 0
M  V30 978 H 90.3841 3.84535 0.553624 0
M  V30 979 H 92.0561 4.13756 -2.0397 0
M  V30 980 H 90.2991 3.85971 -1.98011 0
M  V30 981 H 90.9701 5.35781 -1.32825 0
M  V30 982 H 93.4461 4.15716 0.178825 0
M  V30 983 H 92.3221 5.44686 0.678837 0
M  V30 984 H 92.5831 4.06685 1.73379 0
M  V30 985 N 91.6422 0.330177 1.54103 0
M  V30 986 C 92.8902 -0.269871 2.0029 0
M  V30 987 C 93.2112 -1.52133 1.21986 0
M  V30 988 O 92.4812 -1.93212 0.323438 0
M  V30 989 H 91.0612 -0.10271 0.739905 0
M  V30 990 H 93.7232 0.448249 1.89675 0
M  V30 991 H 92.8192 -0.52166 3.07709 0
M  V30 992 N 93.1203 -1.57491 0.0584922 0
M  V30 993 C 94.0683 -2.13148 -0.931168 0
M  V30 994 C 95.0623 -1.06507 -1.31729 0
M  V30 995 O 96.2683 -1.24906 -1.29609 0
M  V30 996 H 92.6433 -0.68137 -0.31818 0
M  V30 997 H 94.6143 -2.95187 -0.436707 0
M  V30 998 C 93.3633 -2.69732 -2.19408 0
M  V30 999 H 92.6863 -3.51454 -1.90578 0
M  V30 1000 H 94.1263 -3.12287 -2.86798 0
M  V30 1001 C 92.5853 -1.63855 -2.94369 0
M  V30 1002 O 93.1153 -1.05565 -3.87581 0
M  V30 1003 N 91.3213 -1.35202 -2.57233 0
M  V30 1004 H 90.8683 -1.82791 -1.81508 0
M  V30 1005 H 90.8263 -0.645922 -3.07693 0
M  V30 1006 N 94.5984 0.214957 -1.56127 0
M  V30 1007 C 95.8264 0.955092 -1.83536 0
M  V30 1008 C 96.2414 1.77677 -0.638472 0
M  V30 1009 O 95.5984 1.78219 0.392968 0
M  V30 1010 C 95.6494 1.86734 -3.09536 0
M  V30 1011 O 95.3704 1.07887 -4.24608 0
M  V30 1012 C 96.8714 2.72082 -3.4998 0
M  V30 1013 H 94.0914 0.279611 -0.609966 0
M  V30 1014 H 96.6354 0.228197 -2.03223 0
M  V30 1015 H 94.7904 2.5481 -2.91806 0
M  V30 1016 H 95.2044 1.69872 -4.9623 0
M  V30 1017 H 96.6784 3.31782 -4.41163 0
M  V30 1018 H 97.1554 3.44806 -2.7204 0
M  V30 1019 H 97.7614 2.09409 -3.70173 0
M  V30 1020 N 96.0765 1.50051 0.48192 0
M  V30 1021 C 97.0065 1.71046 1.58951 0
M  V30 1022 C 97.9875 0.559288 1.60642 0
M  V30 1023 O 99.1725 0.797243 1.77081 0
M  V30 1024 C 96.3025 1.79462 2.97339 0
M  V30 1025 C 95.2565 2.94558 3.10515 0
M  V30 1026 C 94.5825 2.88105 4.50444 0
M  V30 1027 C 95.8825 4.35227 2.88747 0
M  V30 1028 H 97.5765 2.6378 1.41635 0
M  V30 1029 H 95.1225 1.26936 0.679942 0
M  V30 1030 H 97.0755 1.92734 3.74742 0
M  V30 1031 H 95.7995 0.833412 3.15788 0
M  V30 1032 H 94.4585 2.80918 2.35543 0
M  V30 1033 H 94.1065 1.89853 4.65795 0
M  V30 1034 H 93.8065 3.65366 4.60197 0
M  V30 1035 H 95.3305 3.03412 5.29881 0
M  V30 1036 H 96.7445 4.49449 3.55905 0
M  V30 1037 H 95.1415 5.13856 3.09955 0
M  V30 1038 H 96.2115 4.48347 1.84696 0
M  V30 1039 N 97.5546 -0.734337 1.39446 0
M  V30 1040 C 98.8006 -1.49613 1.36908 0
M  V30 1041 C 99.1336 -1.94169 -0.0347829 0
M  V30 1042 O 98.4086 -1.66833 -0.999847 0
M  V30 1043 C 98.6916 -2.73534 2.34203 0
M  V30 1044 C 98.5446 -2.34993 3.83534 0
M  V30 1045 C 99.8636 -3.75635 2.29317 0
M  V30 1046 H 96.9826 -0.542714 0.498629 0
M  V30 1047 H 99.6246 -0.839597 1.70443 0
M  V30 1048 H 97.7746 -3.29553 2.05736 0
M  V30 1049 H 99.4466 -1.84601 4.22753 0
M  V30 1050 H 97.6896 -1.67213 4.00278 0
M  V30 1051 H 98.3606 -3.23738 4.47099 0
M  V30 1052 H 100.837 -3.29203 2.54489 0
M  V30 1053 H 99.7126 -4.60008 2.99472 0
M  V30 1054 H 99.9736 -4.22603 1.29842 0
M  V30 1055 N 99.0327 -1.24633 -0.964593 0
M  V30 1056 C 100.273 -1.09981 -1.72289 0
M  V30 1057 C 100.637 0.354792 -1.88693 0
M  V30 1058 O 101.838 0.62289 -2.61483 0
M  V30 1059 C 100.109 -1.82262 -3.07434 0
M  V30 1060 S 101.668 -1.83379 -3.98645 0
M  V30 1061 H 98.4857 -0.393292 -0.59232 0
M  V30 1062 H 101.088 -1.58009 -1.15123 0
M  V30 1063 H 99.7917 -2.87206 -2.93157 0
M  V30 1064 H 99.3227 -1.3458 -3.69664 0
M  V30 1065 H 101.338 -0.903691 -4.87901 0
M  V30 1066 N 100.511 1.16574 -1.06058 0
M  V30 1067 C 101.441 2.23057 -0.690488 0
M  V30 1068 C 102.422 1.67141 0.315901 0
M  V30 1069 O 103.607 1.93253 0.191556 0
M  V30 1070 C 100.737 3.47222 -0.073625 0
M  V30 1071 C 99.6908 4.16016 -1.00573 0
M  V30 1072 C 99.0168 5.34104 -0.252289 0
M  V30 1073 C 100.317 4.67264 -2.33371 0
M  V30 1074 H 102.011 2.54271 -1.58072 0
M  V30 1075 H 99.5568 1.22218 -0.76149 0
M  V30 1076 H 101.51 4.20939 0.19714 0
M  V30 1077 H 100.234 3.15302 0.85161 0
M  V30 1078 H 98.8928 3.44223 -1.2612 0
M  V30 1079 H 98.5408 4.98437 0.675988 0
M  V30 1080 H 98.2408 5.81072 -0.873455 0
M  V30 1081 H 99.7648 6.10599 0.0109857 0
M  V30 1082 H 101.179 5.32573 -2.12223 0
M  V30 1083 H 99.5758 5.24843 -2.90963 0
M  V30 1084 H 100.646 3.83602 -2.96611 0
M  V30 1085 N 101.989 0.842826 1.3317 0
M  V30 1086 C 102.952 0.284065 2.27433 0
M  V30 1087 C 103.952 -0.54948 1.5112 0
M  V30 1088 O 105.142 -0.362699 1.70382 0
M  V30 1089 C 102.274 -0.599384 3.35589 0
M  V30 1090 H 103.467 1.11589 2.78366 0
M  V30 1091 H 101.02 0.616221 1.4364 0
M  V30 1092 H 101.755 -1.45349 2.89904 0
M  V30 1093 H 101.54 -0.00291266 3.921 0
M  V30 1094 H 103.03 -0.983488 4.05854 0
M  V30 1095 N 103.467 -1.45747 0.599634 0
M  V30 1096 C 104.713 -2.02592 0.0918643 0
M  V30 1097 C 105.046 -1.46806 -1.27128 0
M  V30 1098 O 104.321 -0.639658 -1.83681 0
M  V30 1099 C 104.604 -3.60073 0.0443398 0
M  V30 1100 C 104.457 -4.26208 1.43759 0
M  V30 1101 C 105.776 -4.35309 -0.647608 0
M  V30 1102 H 102.895 -0.736175 0.034857 0
M  V30 1103 H 105.537 -1.73694 0.770081 0
M  V30 1104 H 103.687 -3.84823 -0.533224 0
M  V30 1105 H 105.359 -4.12668 2.06162 0
M  V30 1106 H 103.602 -3.84916 2.00056 0
M  V30 1107 H 104.273 -5.35069 1.35665 0
M  V30 1108 H 106.749 -4.15805 -0.156776 0
M  V30 1109 H 105.625 -5.45038 -0.649942 0
M  V30 1110 H 105.886 -4.07598 -1.71219 0
M  V30 1111 N 104.945 -0.338344 -1.53925 0
M  V30 1112 C 106.191 0.252842 -2.01822 0
M  V30 1113 C 106.546 1.48612 -1.22197 0
M  V30 1114 O 105.839 1.89238 -0.299892 0
M  V30 1115 C 106.033 0.62448 -3.51902 0
M  V30 1116 C 105.862 -0.571235 -4.46057 0
M  V30 1117 C 104.632 -1.07493 -4.93734 0
M  V30 1118 C 106.83 -1.42807 -4.94076 0
M  V30 1119 N 104.812 -2.23351 -5.71828 0
M  V30 1120 C 106.183 -2.43362 -5.70241 0
M  V30 1121 C 108.238 -1.45412 -4.76193 0
M  V30 1122 C 106.941 -3.46346 -6.30426 0
M  V30 1123 C 108.967 -2.47274 -5.37224 0
M  V30 1124 C 108.329 -3.46555 -6.13253 0
M  V30 1125 H 104.428 0.0559669 -0.779995 0
M  V30 1126 H 107.012 -0.476732 -1.88773 0
M  V30 1127 H 105.183 1.32317 -3.65167 0
M  V30 1128 H 106.915 1.19841 -3.86549 0
M  V30 1129 H 103.67 -0.643848 -4.69203 0
M  V30 1130 H 104.094 -2.81834 -6.15548 0
M  V30 1131 H 108.736 -0.700171 -4.16962 0
M  V30 1132 H 106.454 -4.22638 -6.88769 0
M  V30 1133 H 110.04 -2.50109 -5.25297 0
M  V30 1134 H 108.92 -4.24083 -6.59638 0
M  V30 1135 N 106.423 1.57458 -0.0668435 0
M  V30 1136 C 107.839 1.56947 0.289772 0
M  V30 1137 C 108.039 1.07584 1.70376 0
M  V30 1138 O 107.095 0.739486 2.41429 0
M  V30 1139 C 108.408 3.0052 0.103943 0
M  V30 1140 C 109.956 3.12517 0.173857 0
M  V30 1141 C 110.431 4.57997 0.0163682 0
M  V30 1142 N 111.922 4.63144 0.0721352 0
M  V30 1143 C 112.657 5.73394 -0.0253794 0
M  V30 1144 N 112.153 6.92576 -0.176133 0
M  V30 1145 N 113.946 5.62091 0.0313305 0
M  V30 1146 H 106.097 1.87863 -0.991027 0
M  V30 1147 H 108.36 0.86583 -0.38606 0
M  V30 1148 H 108.066 3.40729 -0.871572 0
M  V30 1149 H 107.94 3.67304 0.858366 0
M  V30 1150 H 110.327 2.72197 1.13985 0
M  V30 1151 H 110.408 2.48381 -0.611586 0
M  V30 1152 H 110.052 4.99005 -0.946374 0
M  V30 1153 H 109.982 5.20158 0.821153 0
M  V30 1154 H 112.473 3.77436 0.187263 0
M  V30 1155 H 112.786 7.72418 -0.242821 0
M  V30 1156 H 111.131 6.94678 -0.211429 0
M  V30 1157 H 114.322 4.67867 0.147773 0
M  V30 1158 H 114.495 6.47982 -0.048121 0
M  V30 1159 N 107.901 -0.206675 1.56239 0
M  V30 1160 C 108.849 -1.27571 1.94495 0
M  V30 1161 C 109.843 -1.47737 0.828862 0
M  V30 1162 O 111.049 -1.48735 1.0138 0
M  V30 1163 H 107.424 -0.428029 0.6183 0
M  V30 1164 H 109.395 -0.925961 2.8367 0
M  V30 1165 C 108.144 -2.61568 2.29079 0
M  V30 1166 H 107.467 -2.46863 3.14482 0
M  V30 1167 H 108.907 -3.35144 2.5972 0
M  V30 1168 C 107.366 -3.17695 1.12123 0
M  V30 1169 O 107.896 -3.99801 0.390153 0
M  V30 1170 N 106.102 -2.76276 0.901097 0
M  V30 1171 H 105.649 -2.09613 1.49733 0
M  V30 1172 H 105.607 -3.1417 0.120319 0
M  V30 1173 N 109.379 -1.50304 -0.473955 0
M  V30 1174 C 110.329 -1.65347 -1.56985 0
M  V30 1175 C 111.313 -0.508176 -1.52664 0
M  V30 1176 O 112.505 -0.762446 -1.59737 0
M  V30 1177 C 109.634 -1.74832 -2.95447 0
M  V30 1178 C 108.72 -2.95028 -3.04662 0
M  V30 1179 N 109.111 -4.18747 -2.83698 0
M  V30 1180 C 107.409 -2.93527 -3.35795 0
M  V30 1181 C 108.11 -4.99687 -2.97805 0
M  V30 1182 N 107.086 -4.33585 -3.2788 0
M  V30 1183 H 110.888 -2.58698 -1.39472 0
M  V30 1184 H 108.402 -1.47449 -0.680629 0
M  V30 1185 H 110.399 -1.83712 -3.7424 0
M  V30 1186 H 109.059 -0.826376 -3.14008 0
M  V30 1187 H 110.07 -4.48291 -2.59337 0
M  V30 1188 H 106.747 -2.10821 -3.60362 0
M  V30 1189 H 108.137 -6.08057 -2.85861 0
M  V30 1190 N 110.857 0.726932 -1.39834 0
M  V30 1191 C 111.807 1.83232 -1.35683 0
M  V30 1192 C 112.791 1.59155 -0.236295 0
M  V30 1193 O 113.983 1.70522 -0.474488 0
M  V30 1194 C 111.112 3.21246 -1.21062 0
M  V30 1195 C 110.198 3.51125 -2.37849 0
M  V30 1196 N 110.589 3.51889 -3.63329 0
M  V30 1197 C 108.887 3.81527 -2.30982 0
M  V30 1198 C 109.588 3.79791 -4.40606 0
M  V30 1199 N 108.564 3.97971 -3.70297 0
M  V30 1200 H 112.366 1.8214 -2.30656 0
M  V30 1201 H 109.88 0.925545 -1.33444 0
M  V30 1202 H 111.877 4.00387 -1.16171 0
M  V30 1203 H 110.537 3.23572 -0.270458 0
M  V30 1204 H 111.548 3.33008 -3.96643 0
M  V30 1205 H 108.225 3.91411 -1.45272 0
M  V30 1206 H 109.615 3.86783 -5.49408 0
M  V30 1207 N 112.336 1.25143 0.95797 0
M  V30 1208 C 113.269 0.995565 2.05338 0
M  V30 1209 C 114.247 -0.0740423 1.62431 0
M  V30 1210 O 115.431 0.0649212 1.88388 0
M  V30 1211 C 112.558 0.504298 3.34925 0
M  V30 1212 C 111.604 1.56393 3.96792 0
M  V30 1213 S 112.437 3.14815 4.33188 0
M  V30 1214 C 113.593 2.67415 5.65898 0
M  V30 1215 H 113.826 1.92309 2.26726 0
M  V30 1216 H 111.359 1.08635 1.09716 0
M  V30 1217 H 113.317 0.227497 4.09869 0
M  V30 1218 H 111.978 -0.402671 3.11508 0
M  V30 1219 H 111.171 1.17082 4.90212 0
M  V30 1220 H 110.773 1.79124 3.28315 0
M  V30 1221 H 113.065 2.10833 6.4386 0
M  V30 1222 H 114.008 3.59463 6.10076 0
M  V30 1223 H 114.416 2.07521 5.24972 0
M  V30 1224 N 113.814 -1.1601 1.06675 0
M  V30 1225 C 115.23 -1.38622 0.790948 0
M  V30 1226 C 115.43 -1.92109 -0.607965 0
M  V30 1227 O 114.486 -2.12239 -1.36787 0
M  V30 1228 C 115.799 -2.36347 1.85905 0
M  V30 1229 C 117.347 -2.50023 1.88301 0
M  V30 1230 C 117.822 -3.51033 2.94176 0
M  V30 1231 N 119.313 -3.58563 2.93235 0
M  V30 1232 C 120.048 -4.36521 3.71803 0
M  V30 1233 N 119.544 -5.17869 4.602 0
M  V30 1234 N 121.337 -4.31541 3.60178 0
M  V30 1235 H 113.488 -0.796294 1.96908 0
M  V30 1236 H 115.751 -0.412597 0.853503 0
M  V30 1237 H 115.457 -2.04147 2.86386 0
M  V30 1238 H 115.331 -3.36042 1.71334 0
M  V30 1239 H 117.718 -2.81524 0.884769 0
M  V30 1240 H 117.799 -1.5035 2.06951 0
M  V30 1241 H 117.443 -3.20268 3.94196 0
M  V30 1242 H 117.373 -4.50445 2.72776 0
M  V30 1243 H 119.864 -3.00496 2.29152 0
M  V30 1244 H 120.177 -5.74578 5.16797 0
M  V30 1245 H 118.522 -5.17199 4.64253 0
M  V30 1246 H 121.713 -3.67051 2.90502 0
M  V30 1247 H 121.886 -4.9205 4.21653 0
M  V30 1248 N 115.292 -0.849877 -1.32721 0
M  V30 1249 C 116.52 -0.464754 -2.01613 0
M  V30 1250 C 116.935 0.937191 -1.63897 0
M  V30 1251 O 116.292 1.61081 -0.857856 0
M  V30 1252 C 116.343 -0.588638 -3.56675 0
M  V30 1253 O 116.064 -1.93535 -3.93034 0
M  V30 1254 C 117.565 -0.2019 -4.4284 0
M  V30 1255 H 114.785 -0.183215 -0.645502 0
M  V30 1256 H 117.329 -1.1455 -1.69407 0
M  V30 1257 H 115.484 0.0443159 -3.87375 0
M  V30 1258 H 115.898 -1.92871 -4.87751 0
M  V30 1259 H 117.372 -0.339599 -5.50954 0
M  V30 1260 H 117.849 0.857224 -4.30753 0
M  V30 1261 H 118.455 -0.809733 -4.17521 0
M  V30 1262 N 116.77 1.45427 -0.607355 0
M  V30 1263 C 118.016 2.0254 -0.102607 0
M  V30 1264 C 118.349 1.47478 1.26348 0
M  V30 1265 O 117.624 0.64939 1.83339 0
M  V30 1266 C 117.907 3.60044 -0.0634347 0
M  V30 1267 C 117.76 4.2544 -1.46017 0
M  V30 1268 C 119.079 4.35646 0.624514 0
M  V30 1269 H 116.198 0.73598 -0.0387607 0
M  V30 1270 H 118.84 1.73284 -0.779282 0
M  V30 1271 H 116.99 3.85101 0.512808 0
M  V30 1272 H 118.662 4.11569 -2.08347 0
M  V30 1273 H 116.905 3.83849 -2.02094 0
M  V30 1274 H 117.576 5.34342 -1.385 0
M  V30 1275 H 120.052 4.15882 0.134723 0
M  V30 1276 H 118.928 5.45376 0.621028 0
M  V30 1277 H 119.189 4.08501 1.69055 0
M  V30 1278 N 118.248 0.346503 1.53744 0
M  V30 1279 C 119.476 -0.25041 2.05379 0
M  V30 1280 C 119.891 -1.43979 1.22129 0
M  V30 1281 O 119.248 -1.80677 0.257321 0
M  V30 1282 C 119.299 -0.662575 3.55376 0
M  V30 1283 O 119.02 0.479515 4.35468 0
M  V30 1284 C 120.521 -1.31989 4.23195 0
M  V30 1285 H 117.741 -0.0478198 0.669294 0
M  V30 1286 H 120.285 0.499346 1.9831 0
M  V30 1287 H 118.44 -1.36227 3.62658 0
M  V30 1288 H 118.854 0.15037 5.24284 0
M  V30 1289 H 120.328 -1.55902 5.29527 0
M  V30 1290 H 120.805 -2.27436 3.75725 0
M  V30 1291 H 121.411 -0.662154 4.20114 0
M  V30 1292 N 119.726 -1.57421 0.075193 0
M  V30 1293 C 120.674 -2.14124 -0.908508 0
M  V30 1294 C 121.668 -1.07898 -1.30592 0
M  V30 1295 O 122.874 -1.26273 -1.28277 0
M  V30 1296 H 119.249 -0.684707 -0.310935 0
M  V30 1297 H 121.22 -2.95634 -0.405374 0
M  V30 1298 C 119.969 -2.72044 -2.16535 0
M  V30 1299 H 119.292 -3.53456 -1.86839 0
M  V30 1300 H 120.732 -3.15311 -2.83469 0
M  V30 1301 C 119.191 -1.66968 -2.92615 0
M  V30 1302 O 119.721 -1.0967 -3.86439 0
M  V30 1303 N 117.927 -1.37923 -2.55784 0
M  V30 1304 H 117.474 -1.84706 -1.79559 0
M  V30 1305 H 117.432 -0.67852 -3.06991 0
M  V30 1306 N 121.204 0.198386 -1.56346 0
M  V30 1307 C 122.434 0.934215 -1.84271 0
M  V30 1308 C 122.842 1.77496 -0.655125 0
M  V30 1309 O 122.185 1.7961 0.385488 0
M  V30 1310 C 122.247 1.88278 -3.06254 0
M  V30 1311 C 121.911 1.22431 -4.40295 0
M  V30 1312 C 122.908 0.602839 -5.16393 0
M  V30 1313 C 120.593 1.22915 -4.87029 0
M  V30 1314 C 122.587 -0.0050083 -6.374 0
M  V30 1315 C 120.274 0.617465 -6.07973 0
M  V30 1316 C 121.272 0.00146341 -6.83 0
M  V30 1317 O 120.96 -0.600642 -8.01653 0
M  V30 1318 H 120.692 0.278245 -0.616081 0
M  V30 1319 H 123.246 0.211626 -2.04307 0
M  V30 1320 H 121.476 2.64498 -2.82095 0
M  V30 1321 H 123.165 2.48612 -3.20853 0
M  V30 1322 H 123.931 0.591265 -4.81382 0
M  V30 1323 H 119.81 1.69801 -4.28589 0
M  V30 1324 H 123.354 -0.48643 -6.95902 0
M  V30 1325 H 119.251 0.62653 -6.42452 0
M  V30 1326 H 120.019 -0.497225 -8.16988 0
M  V30 1327 N 122.682 1.50554 0.465978 0
M  V30 1328 C 123.929 1.61798 1.21768 0
M  V30 1329 C 124.257 0.320696 1.91838 0
M  V30 1330 O 123.512 -0.693724 1.82992 0
M  V30 1331 C 123.811 2.75152 2.28093 0
M  V30 1332 C 123.477 4.15454 1.75239 0
M  V30 1333 C 122.139 4.53628 1.60546 0
M  V30 1334 C 124.491 5.03121 1.36083 0
M  V30 1335 C 121.819 5.77204 1.05128 0
M  V30 1336 C 124.171 6.27249 0.821056 0
M  V30 1337 C 122.835 6.64221 0.660795 0
M  V30 1338 H 122.105 0.592063 0.445582 0
M  V30 1339 H 124.752 1.84503 0.512927 0
M  V30 1340 H 123.057 2.46556 3.04496 0
M  V30 1341 H 124.754 2.81055 2.86023 0
M  V30 1342 H 121.344 3.85341 1.87644 0
M  V30 1343 H 125.528 4.74257 1.46267 0
M  V30 1344 H 120.784 6.0452 0.91462 0
M  V30 1345 H 124.958 6.94537 0.509018 0
M  V30 1346 H 122.585 7.59854 0.229226 0
M  V30 1347 N 124.16 -0.719506 1.40217 0
M  V30 1348 C 125.409 -1.47486 1.37589 0
M  V30 1349 C 125.722 -1.9559 -0.0201568 0
M  V30 1350 O 126.928 -2.70973 -0.169049 0
M  V30 1351 C 125.384 -2.66575 2.41796 0
M  V30 1352 C 124.992 -2.25358 3.87192 0
M  V30 1353 C 126.736 -3.4433 2.48269 0
M  V30 1354 C 124.643 -3.41262 4.83005 0
M  V30 1355 H 123.573 -0.553901 0.511576 0
M  V30 1356 H 126.224 -0.783427 1.65936 0
M  V30 1357 H 124.606 -3.3787 2.06543 0
M  V30 1358 H 125.78 -1.61509 4.31569 0
M  V30 1359 H 124.095 -1.60657 3.84159 0
M  V30 1360 H 126.692 -4.30569 3.17041 0
M  V30 1361 H 127.035 -3.87872 1.51198 0
M  V30 1362 H 127.568 -2.80076 2.82493 0
M  V30 1363 H 124.307 -3.02755 5.81394 0
M  V30 1364 H 123.827 -4.0404 4.43297 0
M  V30 1365 H 125.506 -4.07383 5.02641 0
M  V30 1366 N 125.638 -1.25649 -0.95132 0
M  V30 1367 C 126.884 -1.10757 -1.69884 0
M  V30 1368 C 127.217 0.350061 -1.91019 0
M  V30 1369 O 126.492 1.25783 -1.48354 0
M  V30 1370 C 126.775 -1.86606 -3.07978 0
M  V30 1371 C 126.628 -3.40217 -2.94232 0
M  V30 1372 C 127.947 -1.65182 -4.07925 0
M  V30 1373 H 125.066 -0.40374 -0.616574 0
M  V30 1374 H 127.708 -1.54521 -1.10558 0
M  V30 1375 H 125.858 -1.49409 -3.58621 0
M  V30 1376 H 127.53 -3.87108 -2.50889 0
M  V30 1377 H 125.773 -3.67759 -2.30078 0
M  V30 1378 H 126.444 -3.88505 -3.92133 0
M  V30 1379 H 128.92 -1.9757 -3.66204 0
M  V30 1380 H 127.796 -2.20683 -5.02583 0
M  V30 1381 H 128.057 -0.593933 -4.38092 0
M  V30 1382 N 127.117 1.15442 -1.07289 0
M  V30 1383 C 128.065 2.22225 -0.686952 0
M  V30 1384 C 129.059 1.66688 0.30193 0
M  V30 1385 O 130.265 1.79236 0.165712 0
M  V30 1386 H 126.64 0.723783 -0.204064 0
M  V30 1387 H 128.611 2.52056 -1.5972 0
M  V30 1388 C 127.36 3.47556 -0.100149 0
M  V30 1389 H 126.683 3.90612 -0.852211 0
M  V30 1390 H 128.123 4.23794 0.132235 0
M  V30 1391 C 126.582 3.16337 1.159 0
M  V30 1392 O 127.112 3.33074 2.24555 0
M  V30 1393 N 125.318 2.70385 1.06491 0
M  V30 1394 H 124.865 2.56966 0.180668 0
M  V30 1395 H 124.823 2.49871 1.90819 0
M  V30 1396 N 128.595 0.856903 1.32268 0
M  V30 1397 C 129.525 0.31858 2.31316 0
M  V30 1398 C 130.506 -0.583487 1.59779 0
M  V30 1399 O 131.691 -0.503259 1.87566 0
M  V30 1400 C 128.821 -0.491979 3.43798 0
M  V30 1401 C 127.775 0.315849 4.26833 0
M  V30 1402 C 127.101 -0.619586 5.31098 0
M  V30 1403 C 128.401 1.54282 4.98993 0
M  V30 1404 H 130.095 1.14621 2.76591 0
M  V30 1405 H 127.641 0.552613 1.32974 0
M  V30 1406 H 129.594 -0.879012 4.1213 0
M  V30 1407 H 128.318 -1.35299 2.97257 0
M  V30 1408 H 126.977 0.684664 3.6015 0
M  V30 1409 H 126.625 -1.47751 4.8081 0
M  V30 1410 H 126.325 -0.0830621 5.87541 0
M  V30 1411 H 127.849 -1.00375 6.02293 0
M  V30 1412 H 129.263 1.22796 5.59995 0
M  V30 1413 H 127.66 2.01745 5.65172 0
M  V30 1414 H 128.73 2.30285 4.26728 0
M  V30 1415 N 130.073 -1.45103 0.615059 0
M  V30 1416 C 131.298 -2.07064 0.117988 0
M  V30 1417 C 131.723 -1.4554 -1.19163 0
M  V30 1418 O 131.081 -0.550855 -1.72729 0
M  V30 1419 C 131.129 -3.606 -0.000288387 0
M  V30 1420 O 130.233 -3.98847 -1.04856 0
M  V30 1421 H 129.574 -0.659467 0.0774581 0
M  V30 1422 H 132.104 -1.86236 0.847186 0
M  V30 1423 H 132.114 -4.07529 -0.196091 0
M  V30 1424 H 130.789 -4.04765 0.955932 0
M  V30 1425 H 129.366 -3.63577 -0.828619 0
M  V30 1426 N 131.551 -0.354651 -1.53558 0
M  V30 1427 C 132.481 0.489091 -2.2832 0
M  V30 1428 C 133.462 1.09324 -1.30316 0
M  V30 1429 O 134.647 1.11255 -1.59173 0
M  V30 1430 C 131.777 1.63456 -3.0643 0
M  V30 1431 C 130.731 1.1582 -4.12031 0
M  V30 1432 C 130.057 2.39305 -4.7816 0
M  V30 1433 C 131.357 0.250731 -5.21698 0
M  V30 1434 H 133.051 -0.134614 -2.99097 0
M  V30 1435 H 130.597 -0.0661826 -1.43848 0
M  V30 1436 H 132.55 2.23136 -3.57475 0
M  V30 1437 H 131.274 2.28533 -2.33325 0
M  V30 1438 H 129.933 0.584146 -3.61916 0
M  V30 1439 H 129.581 3.02814 -4.01637 0
M  V30 1440 H 129.281 2.08109 -5.49513 0
M  V30 1441 H 130.805 2.99691 -5.31994 0
M  V30 1442 H 132.219 0.754695 -5.68311 0
M  V30 1443 H 130.616 0.0301468 -6.00092 0
M  V30 1444 H 131.686 -0.710125 -4.79672 0
M  V30 1445 N 133.029 1.57378 -0.0835403 0
M  V30 1446 C 133.992 2.12252 0.864959 0
M  V30 1447 C 134.992 1.04916 1.21858 0
M  V30 1448 O 136.182 1.30853 1.14991 0
M  V30 1449 C 133.314 2.63358 2.16461 0
M  V30 1450 H 134.507 2.97371 0.388676 0
M  V30 1451 H 132.06 1.55423 0.165317 0
M  V30 1452 H 132.795 1.81727 2.686 0
M  V30 1453 H 132.58 3.41826 1.92087 0
M  V30 1454 H 134.07 3.05847 2.84337 0
M  V30 1455 N 134.507 -0.190092 1.56449 0
M  V30 1456 C 135.784 -0.935886 1.71757 0
M  V30 1457 C 136.164 -2.01173 0.639726 0
M  V30 1458 O 135.512 -2.25827 -0.348502 0
M  V30 1459 C 135.722 -1.51775 3.1427 0
M  V30 1460 C 137.07 -1.99794 3.74656 0
M  V30 1461 O 138.094 -1.61607 3.1743 0
M  V30 1462 O 136.953 -2.70079 4.751 0
M  V30 1463 H 134.047 -0.439229 0.700719 0
M  V30 1464 H 136.593 -0.179395 1.68749 0
M  V30 1465 H 135.365 -0.742505 3.84191 0
M  V30 1466 H 134.988 -2.33894 3.21527 0
M  V30 1467 N 135.985 -1.50799 -0.457987 0
M  V30 1468 C 137.231 -1.62683 -1.21088 0
M  V30 1469 C 137.564 -0.332268 -1.91336 0
M  V30 1470 O 136.839 0.667043 -1.82704 0
M  V30 1471 C 137.122 -2.81615 -2.24422 0
M  V30 1472 C 136.975 -4.20989 -1.58392 0
M  V30 1473 C 138.294 -2.96085 -3.2561 0
M  V30 1474 H 135.413 -0.592087 -0.438864 0
M  V30 1475 H 138.055 -1.83225 -0.50286 0
M  V30 1476 H 136.205 -2.64231 -2.84806 0
M  V30 1477 H 137.877 -4.49994 -1.01504 0
M  V30 1478 H 136.12 -4.24641 -0.886704 0
M  V30 1479 H 136.791 -5.0016 -2.33547 0
M  V30 1480 H 139.267 -3.12042 -2.75262 0
M  V30 1481 H 138.143 -3.80902 -3.95228 0
M  V30 1482 H 138.404 -2.0726 -3.90507 0
M  V30 1483 N 137.463 0.71206 -1.40597 0
M  V30 1484 C 138.393 1.83889 -1.43899 0
M  V30 1485 C 139.374 1.67442 -0.299504 0
M  V30 1486 O 140.559 1.87421 -0.508624 0
M  V30 1487 C 137.689 3.21877 -1.30431 0
M  V30 1488 C 136.643 3.53002 -2.42019 0
M  V30 1489 C 135.969 4.90172 -2.13626 0
M  V30 1490 C 137.269 3.53643 -3.84362 0
M  V30 1491 H 138.963 1.81383 -2.38203 0
M  V30 1492 H 136.509 0.871237 -1.14654 0
M  V30 1493 H 138.462 4.00404 -1.31357 0
M  V30 1494 H 137.186 3.24968 -0.326049 0
M  V30 1495 H 135.845 2.76818 -2.40349 0
M  V30 1496 H 135.493 4.89869 -1.14182 0
M  V30 1497 H 135.193 5.11962 -2.88389 0
M  V30 1498 H 136.717 5.71028 -2.1624 0
M  V30 1499 H 138.131 4.22203 -3.87837 0
M  V30 1500 H 136.528 3.86961 -4.58673 0
M  V30 1501 H 137.598 2.52954 -4.13693 0
M  V30 1502 N 138.941 1.26152 0.944643 0
M  V30 1503 C 140.187 1.11657 1.69294 0
M  V30 1504 C 140.52 -0.339926 1.91202 0
M  V30 1505 O 139.795 -1.24994 1.49019 0
M  V30 1506 C 140.078 1.88236 3.06984 0
M  V30 1507 C 139.931 3.41772 2.92424 0
M  V30 1508 C 141.25 1.67343 4.07043 0
M  V30 1509 H 138.369 0.407004 0.614424 0
M  V30 1510 H 141.011 1.55106 1.09737 0
M  V30 1511 H 139.161 1.51308 3.57824 0
M  V30 1512 H 140.833 3.88433 2.48832 0
M  V30 1513 H 139.076 3.68974 2.28124 0
M  V30 1514 H 139.747 3.90579 3.90067 0
M  V30 1515 H 142.223 1.99509 3.65151 0
M  V30 1516 H 141.099 2.23346 5.01406 0
M  V30 1517 H 141.36 0.617158 4.37771 0
M  V30 1518 N 140.419 -1.14872 1.07899 0
M  V30 1519 C 141.647 -1.89661 0.82683 0
M  V30 1520 C 142.062 -1.78312 -0.620519 0
M  V30 1521 O 141.419 -1.13888 -1.42604 0
M  V30 1522 C 141.47 -3.39817 1.23316 0
M  V30 1523 O 141.191 -3.50845 2.62372 0
M  V30 1524 C 142.692 -4.31615 1.0111 0
M  V30 1525 H 139.912 -0.60092 0.298557 0
M  V30 1526 H 142.456 -1.4551 1.43691 0
M  V30 1527 H 140.611 -3.8161 0.667286 0
M  V30 1528 H 141.025 -4.44076 2.79101 0
M  V30 1529 H 142.499 -5.35367 1.34486 0
M  V30 1530 H 142.976 -4.39169 -0.0522168 0
M  V30 1531 H 143.582 -3.95572 1.56215 0
M  V30 1532 N 141.898 -0.863906 -1.31812 0
M  V30 1533 C 142.861 -0.320212 -2.26952 0
M  V30 1534 C 143.861 0.525369 -1.51975 0
M  V30 1535 O 145.051 0.335547 -1.70938 0
M  V30 1536 C 142.183 0.545919 -3.365 0
M  V30 1537 H 143.376 -1.16004 -2.76556 0
M  V30 1538 H 140.929 -0.638995 -1.42641 0
M  V30 1539 H 141.664 1.40718 -2.92179 0
M  V30 1540 H 141.449 -0.0594674 -3.92055 0
M  V30 1541 H 142.939 0.918796 -4.07367 0
M  V30 1542 N 143.376 1.44774 -0.622745 0
M  V30 1543 C 144.625 2.01334 -0.121397 0
M  V30 1544 C 144.938 1.49505 1.26125 0
M  V30 1545 O 146.144 1.98139 1.85616 0
M  V30 1546 C 144.6 3.59516 -0.166298 0
M  V30 1547 C 144.208 4.20342 -1.54974 0
M  V30 1548 C 145.952 4.23582 0.279021 0
M  V30 1549 C 143.859 5.70721 -1.55021 0
M  V30 1550 H 142.789 0.752851 -0.0416172 0
M  V30 1551 H 145.44 1.66083 -0.780309 0
M  V30 1552 H 143.822 3.92027 0.559557 0
M  V30 1553 H 144.996 3.99381 -2.29851 0
M  V30 1554 H 143.311 3.68529 -1.93843 0
M  V30 1555 H 145.908 5.33868 0.298083 0
M  V30 1556 H 146.251 3.95327 1.30471 0
M  V30 1557 H 146.784 3.95843 -0.394063 0
M  V30 1558 H 143.523 6.03698 -2.55399 0
M  V30 1559 H 143.043 5.93829 -0.844245 0
M  V30 1560 H 144.722 6.34203 -1.28047 0
M  V30 1561 N 144.854 0.36279 1.53368 0
M  V30 1562 C 146.094 -0.227882 2.03126 0
M  V30 1563 C 146.458 -1.4622 1.24434 0
M  V30 1564 O 147.659 -2.12831 1.64184 0
M  V30 1565 C 145.93 -0.515427 3.53664 0
M  V30 1566 S 147.489 -1.08017 4.25297 0
M  V30 1567 H 144.307 -0.0665377 0.70788 0
M  V30 1568 H 146.909 0.50501 1.88865 0
M  V30 1569 H 145.613 0.390436 4.08539 0
M  V30 1570 H 145.144 -1.27747 3.72081 0
M  V30 1571 H 147.159 -2.36462 4.36234 0
M  V30 1572 N 146.332 -1.57332 0.0918853 0
M  V30 1573 C 147.262 -2.16872 -0.865371 0
M  V30 1574 C 148.243 -1.10118 -1.29646 0
M  V30 1575 O 149.428 -1.38242 -1.36392 0
M  V30 1576 C 146.558 -2.74649 -2.12569 0
M  V30 1577 C 145.512 -3.86747 -1.83333 0
M  V30 1578 C 144.838 -4.31212 -3.16166 0
M  V30 1579 C 146.138 -5.10089 -1.1228 0
M  V30 1580 H 147.832 -2.97114 -0.369307 0
M  V30 1581 H 145.378 -1.42918 -0.176194 0
M  V30 1582 H 147.331 -3.14952 -2.7997 0
M  V30 1583 H 146.055 -1.91657 -2.64452 0
M  V30 1584 H 144.714 -3.46978 -1.18331 0
M  V30 1585 H 144.362 -3.45115 -3.6593 0
M  V30 1586 H 144.062 -5.06788 -2.97388 0
M  V30 1587 H 145.586 -4.74146 -3.84731 0
M  V30 1588 H 147 -5.47582 -1.69785 0
M  V30 1589 H 145.397 -5.91073 -1.03693 0
M  V30 1590 H 146.467 -4.84786 -0.105041 0
M  V30 1591 N 147.81 0.181792 -1.56548 0
M  V30 1592 C 149.221 0.745244 -1.71181 0
M  V30 1593 C 149.572 1.83262 -0.70068 0
M  V30 1594 O 148.697 2.15946 0.140154 0
M  V30 1595 C 149.292 1.35859 -3.10367 0
M  V30 1596 C 147.851 1.86898 -3.2672 0
M  V30 1597 C 146.998 0.743942 -2.67134 0
M  V30 1598 H 149.949 -0.0434661 -1.5864 0
M  V30 1599 H 149.97 2.22817 -3.08436 0
M  V30 1600 H 149.482 0.566948 -3.83937 0
M  V30 1601 H 147.583 2.68738 -2.5809 0
M  V30 1602 H 147.696 2.02162 -4.34359 0
M  V30 1603 H 146.06 1.16169 -2.26665 0
M  V30 1604 H 146.843 -0.035676 -3.43281 0
M  V30 1605 N 149.288 1.51039 0.449983 0
M  V30 1606 C 150.251 1.70863 1.5277 0
M  V30 1607 C 151.251 0.578846 1.5002 0
M  V30 1608 O 152.441 0.846213 1.52266 0
M  V30 1609 C 149.573 1.75341 2.9235 0
M  V30 1610 H 150.766 2.67034 1.36502 0
M  V30 1611 H 148.319 1.40838 0.677812 0
M  V30 1612 H 149.054 0.809383 3.14037 0
M  V30 1613 H 148.839 2.57436 2.95752 0
M  V30 1614 H 150.329 1.92559 3.70555 0
M  V30 1615 N 150.766 -0.704594 1.40972 0
M  V30 1616 C 151.991 -1.49858 1.43378 0
M  V30 1617 C 152.416 -1.88061 0.038184 0
M  V30 1618 O 151.774 -1.5402 -0.956425 0
M  V30 1619 C 151.822 -2.74333 2.34038 0
M  V30 1620 O 150.926 -3.7147 1.7912 0
M  V30 1621 H 150.267 -0.45139 0.486974 0
M  V30 1622 H 152.797 -0.866832 1.8533 0
M  V30 1623 H 152.807 -3.22741 2.49604 0
M  V30 1624 H 151.482 -2.45863 3.35446 0
M  V30 1625 H 150.059 -3.30363 1.72958 0
M  V30 1626 N 152.244 -1.26651 -0.937939 0
M  V30 1627 C 153.174 -1.10993 -2.05433 0
M  V30 1628 C 154.155 -0.0142161 -1.70094 0
M  V30 1629 O 155.34 -0.186837 -1.93299 0
M  V30 1630 C 152.47 -0.745561 -3.39203 0
M  V30 1631 C 151.424 -1.79337 -3.88616 0
M  V30 1632 C 150.75 -1.28324 -5.19073 0
M  V30 1633 C 152.05 -3.19553 -4.13138 0
M  V30 1634 H 153.744 -2.0438 -2.1879 0
M  V30 1635 H 151.29 -0.984041 -1.05131 0
M  V30 1636 H 153.243 -0.622888 -4.16771 0
M  V30 1637 H 151.967 0.22401 -3.25831 0
M  V30 1638 H 150.626 -1.90477 -3.13231 0
M  V30 1639 H 150.274 -0.303414 -5.02084 0
M  V30 1640 H 149.974 -1.98369 -5.53103 0
M  V30 1641 H 151.498 -1.1733 -5.99221 0
M  V30 1642 H 152.912 -3.11471 -4.81309 0
M  V30 1643 H 151.309 -3.87218 -4.58457 0
M  V30 1644 H 152.379 -3.65368 -3.18801 0
M  V30 1645 N 153.722 1.14298 -1.08507 0
M  V30 1646 C 154.652 2.21542 -0.737646 0
M  V30 1647 C 155.633 1.67773 0.280377 0
M  V30 1648 O 156.818 1.93616 0.150521 0
M  V30 1649 C 153.948 3.46988 -0.147259 0
M  V30 1650 C 152.902 4.13789 -1.09374 0
M  V30 1651 C 152.228 5.33449 -0.365524 0
M  V30 1652 C 153.528 4.62208 -2.4323 0
M  V30 1653 H 155.222 2.5086 -1.6343 0
M  V30 1654 H 152.768 1.20576 -0.787243 0
M  V30 1655 H 154.721 4.21262 0.107808 0
M  V30 1656 H 153.445 3.17037 0.784538 0
M  V30 1657 H 152.104 3.4147 -1.33393 0
M  V30 1658 H 151.752 4.99759 0.57011 0
M  V30 1659 H 151.452 5.79088 -0.996512 0
M  V30 1660 H 152.976 6.10485 -0.118534 0
M  V30 1661 H 154.39 5.27952 -2.23472 0
M  V30 1662 H 152.787 5.18553 -3.02031 0
M  V30 1663 H 153.857 3.77224 -3.04681 0
M  V30 1664 N 155.201 0.870884 1.31352 0
M  V30 1665 C 156.447 0.482987 1.96965 0
M  V30 1666 C 156.78 -0.962462 1.68672 0
M  V30 1667 O 156.055 -1.6779 0.98371 0
M  V30 1668 C 156.338 0.741752 3.52378 0
M  V30 1669 C 156.191 2.2368 3.9024 0
M  V30 1670 C 157.51 0.208838 4.39604 0
M  V30 1671 H 154.629 0.176955 0.715441 0
M  V30 1672 H 157.271 1.09229 1.55464 0
M  V30 1673 H 155.421 0.223149 3.87859 0
M  V30 1674 H 157.093 2.82273 3.64856 0
M  V30 1675 H 155.336 2.70901 3.38814 0
M  V30 1676 H 156.007 2.3685 4.98604 0
M  V30 1677 H 158.483 0.652529 4.10952 0
M  V30 1678 H 157.359 0.419336 5.47296 0
M  V30 1679 H 157.62 -0.889275 4.33064 0
M  V30 1680 N 156.679 -1.44442 0.630414 0
M  V30 1681 C 157.956 -1.9549 0.0655657 0
M  V30 1682 C 158.336 -1.5724 -1.40851 0
M  V30 1683 O 157.684 -0.846116 -2.12257 0
M  V30 1684 C 157.894 -3.47812 0.287691 0
M  V30 1685 C 159.242 -4.24216 0.180513 0
M  V30 1686 O 160.266 -3.55526 0.219019 0
M  V30 1687 O 159.125 -5.46434 0.0848493 0
M  V30 1688 H 156.219 -0.826688 -0.0227177 0
M  V30 1689 H 158.765 -1.54496 0.702068 0
M  V30 1690 H 157.537 -3.687 1.31056 0
M  V30 1691 H 157.16 -3.95751 -0.382984 0
M  V30 1692 N 158.157 -0.370918 -1.53173 0
M  V30 1693 C 159.406 0.218249 -2.00516 0
M  V30 1694 C 159.719 1.49429 -1.26215 0
M  V30 1695 O 160.925 2.16239 -1.64174 0
M  V30 1696 C 159.381 0.43948 -3.57207 0
M  V30 1697 C 158.989 -0.822244 -4.4039 0
M  V30 1698 C 160.733 0.986012 -4.1289 0
M  V30 1699 C 158.64 -0.570304 -5.88644 0
M  V30 1700 H 157.57 0.0853333 -0.749156 0
M  V30 1701 H 160.221 -0.490483 -1.76823 0
M  V30 1702 H 158.603 1.20961 -3.77074 0
M  V30 1703 H 159.777 -1.59557 -4.32294 0
M  V30 1704 H 158.092 -1.29238 -3.95836 0
M  V30 1705 H 160.689 1.18991 -5.21292 0
M  V30 1706 H 161.032 1.94972 -3.6782 0
M  V30 1707 H 161.565 0.27592 -3.96842 0
M  V30 1708 H 158.304 -1.50449 -6.38001 0
M  V30 1709 H 157.824 0.164427 -5.99575 0
M  V30 1710 H 159.503 -0.19784 -6.46697 0
M  V30 1711 N 159.635 1.57281 -0.100228 0
M  V30 1712 C 160.863 1.98879 0.570509 0
M  V30 1713 C 161.278 0.979476 1.61405 0
M  V30 1714 O 160.635 -0.0302288 1.82475 0
M  V30 1715 C 160.686 3.4052 1.2136 0
M  V30 1716 O 160.407 4.37588 0.211786 0
M  V30 1717 C 161.908 3.97149 1.96945 0
M  V30 1718 H 159.128 0.653428 0.152555 0
M  V30 1719 H 161.672 2.03697 -0.18103 0
M  V30 1720 H 159.827 3.367 1.91603 0
M  V30 1721 H 160.241 5.20118 0.676607 0
M  V30 1722 H 161.715 4.98393 2.37294 0
M  V30 1723 H 162.192 3.3525 2.83733 0
M  V30 1724 H 162.798 4.04458 1.31506 0
M  V30 1725 N 161.113 -0.173488 1.56642 0
M  V30 1726 C 162.023 -1.23482 1.99473 0
M  V30 1727 C 163.039 -1.48567 0.905752 0
M  V30 1728 O 164.215 -1.60758 1.21321 0
M  V30 1729 C 161.28 -2.55444 2.34413 0
M  V30 1730 C 160.341 -2.38241 3.57127 0
M  V30 1731 C 159.574 -3.63909 3.90392 0
M  V30 1732 O 159.797 -4.68996 3.24653 0
M  V30 1733 O 158.731 -3.58149 4.83749 0
M  V30 1734 H 162.557 -0.901279 2.90018 0
M  V30 1735 H 160.142 -0.380185 1.44482 0
M  V30 1736 H 162.024 -3.33292 2.57865 0
M  V30 1737 H 160.699 -2.88382 1.4703 0
M  V30 1738 H 159.606 -1.58431 3.38896 0
M  V30 1739 H 160.939 -2.10228 4.45045 0
M  V30 1740 N 162.591 -1.51276 -0.441967 0
M  V30 1741 C 163.816 -1.67799 -1.21895 0
M  V30 1742 C 164.241 -0.372864 -1.84367 0
M  V30 1743 O 163.599 0.666501 -1.68604 0
M  V30 1744 C 163.647 -2.79199 -2.28211 0
M  V30 1745 O 162.751 -2.42479 -3.33583 0
M  V30 1746 H 162.092 -0.559649 -0.357336 0
M  V30 1747 H 164.622 -1.97815 -0.522522 0
M  V30 1748 H 164.632 -3.03146 -2.73069 0
M  V30 1749 H 163.307 -3.73906 -1.82118 0
M  V30 1750 H 161.884 -2.29087 -2.94234 0
M  V30 1751 N 164.069 0.697108 -1.41344 0
M  V30 1752 C 165.315 1.45796 -1.41828 0
M  V30 1753 C 165.67 1.92382 -0.0261743 0
M  V30 1754 O 164.963 1.66522 0.947688 0
M  V30 1755 C 165.157 2.68553 -2.35826 0
M  V30 1756 C 164.986 2.33975 -3.84039 0
M  V30 1757 C 163.756 2.24414 -4.52732 0
M  V30 1758 C 165.954 1.97048 -4.75054 0
M  V30 1759 N 163.936 1.82705 -5.86082 0
M  V30 1760 C 165.307 1.66086 -5.9734 0
M  V30 1761 C 167.362 1.83845 -4.62715 0
M  V30 1762 C 166.065 1.23246 -7.08663 0
M  V30 1763 C 168.091 1.4241 -5.73998 0
M  V30 1764 C 167.453 1.12357 -6.95381 0
M  V30 1765 H 163.552 0.530859 -0.574206 0
M  V30 1766 H 166.136 0.806674 -1.77203 0
M  V30 1767 H 164.307 3.31404 -2.02549 0
M  V30 1768 H 166.039 3.35015 -2.2704 0
M  V30 1769 H 162.794 2.4276 -4.0665 0
M  V30 1770 H 163.218 1.64337 -6.56751 0
M  V30 1771 H 167.86 2.05734 -3.69369 0
M  V30 1772 H 165.578 1.00102 -8.01876 0
M  V30 1773 H 169.164 1.32746 -5.66454 0
M  V30 1774 H 168.044 0.807795 -7.80028 0
M  V30 1775 N 165.547 1.27147 0.931209 0
M  V30 1776 C 166.477 1.12081 2.04842 0
M  V30 1777 C 167.458 0.0232364 1.70084 0
M  V30 1778 O 168.643 0.197085 1.93197 0
M  V30 1779 C 165.773 0.76354 3.38803 0
M  V30 1780 C 164.727 1.81396 3.87659 0
M  V30 1781 C 164.053 1.31075 5.18385 0
M  V30 1782 C 165.353 3.21739 4.11438 0
M  V30 1783 H 167.047 2.05537 2.17703 0
M  V30 1784 H 164.593 0.989603 1.04608 0
M  V30 1785 H 166.546 0.644982 4.16435 0
M  V30 1786 H 165.27 -0.206727 3.25945 0
M  V30 1787 H 163.929 1.92136 3.12217 0
M  V30 1788 H 163.577 0.330037 5.01916 0
M  V30 1789 H 163.277 2.013 5.52044 0
M  V30 1790 H 164.801 1.20506 5.98591 0
M  V30 1791 H 166.215 3.14019 4.79651 0
M  V30 1792 H 164.612 3.89644 4.56397 0
M  V30 1793 H 165.682 3.67054 3.16859 0
M  V30 1794 N 167.025 -1.13721 1.09112 0
M  V30 1795 C 168.272 -1.84924 0.825192 0
M  V30 1796 C 168.6 -1.83347 -0.649151 0
M  V30 1797 O 167.855 -1.26449 -1.49362 0
M  V30 1798 C 168.154 -3.32861 1.30146 0
M  V30 1799 C 167.82 -3.54621 2.78486 0
M  V30 1800 C 166.482 -3.60268 3.18999 0
M  V30 1801 C 168.834 -3.62855 3.74146 0
M  V30 1802 C 166.162 -3.71679 4.53951 0
M  V30 1803 C 168.514 -3.75793 5.08883 0
M  V30 1804 C 167.178 -3.79692 5.4899 0
M  V30 1805 H 166.448 -0.676684 0.301959 0
M  V30 1806 H 169.095 -1.3428 1.36533 0
M  V30 1807 H 167.4 -3.85835 0.681064 0
M  V30 1808 H 169.097 -3.86395 1.07236 0
M  V30 1809 H 165.687 -3.50879 2.46134 0
M  V30 1810 H 169.871 -3.57775 3.43963 0
M  V30 1811 H 165.127 -3.72963 4.84467 0
M  V30 1812 H 169.301 -3.81107 5.82864 0
M  V30 1813 H 166.928 -3.88287 6.53558 0
M  V30 1814 N 168.503 -0.877838 -1.30888 0
M  V30 1815 C 169.751 -0.491723 -1.96027 0
M  V30 1816 C 170.072 0.960827 -1.69685 0
M  V30 1817 O 169.342 1.67462 -1.01654 0
M  V30 1818 H 167.922 -0.17885 -0.725273 0
M  V30 1819 H 170.584 -1.11935 -1.59551 0
M  V30 1820 H 169.68 -0.656016 -3.05128 0
M  V30 1821 N 169.982 1.44106 -0.638065 0
M  V30 1822 C 170.932 2.27843 0.0847285 0
M  V30 1823 C 171.916 1.39055 0.809471 0
M  V30 1824 O 173.108 1.62808 0.694435 0
M  V30 1825 C 170.237 3.26497 1.06089 0
M  V30 1826 C 169.323 4.22772 0.33541 0
M  V30 1827 N 169.714 5.01737 -0.639787 0
M  V30 1828 C 168.012 4.42227 0.578921 0
M  V30 1829 C 168.713 5.71792 -1.06904 0
M  V30 1830 N 167.689 5.42079 -0.406395 0
M  V30 1831 H 171.491 2.86305 -0.663814 0
M  V30 1832 H 169.005 1.55627 -0.464122 0
M  V30 1833 H 171.002 3.8525 1.59337 0
M  V30 1834 H 169.662 2.69595 1.80966 0
M  V30 1835 H 170.673 5.07799 -1.01789 0
M  V30 1836 H 167.35 3.96415 1.31003 0
M  V30 1837 H 168.74 6.45205 -1.8751 0
M  V30 1838 N 171.46 0.379036 1.52974 0
M  V30 1839 C 172.423 -0.448865 2.24762 0
M  V30 1840 C 173.423 -0.998689 1.26027 0
M  V30 1841 O 174.613 -0.882313 1.50203 0
M  V30 1842 C 171.745 -1.62872 2.99476 0
M  V30 1843 H 172.938 0.179491 2.99362 0
M  V30 1844 H 170.491 0.13096 1.5575 0
M  V30 1845 H 171.226 -2.29479 2.29151 0
M  V30 1846 H 171.011 -1.24128 3.71934 0
M  V30 1847 H 172.501 -2.2151 3.5401 0
M  V30 1848 N 172.938 -1.57226 0.108567 0
M  V30 1849 C 173.868 -2.17778 -0.84232 0
M  V30 1850 C 174.849 -1.11487 -1.2847 0
M  V30 1851 O 176.034 -1.39681 -1.34918 0
M  V30 1852 C 173.164 -2.76888 -2.09644 0
M  V30 1853 C 172.118 -3.88669 -1.79221 0
M  V30 1854 C 171.444 -4.34541 -3.11574 0
M  V30 1855 C 172.744 -5.11251 -1.06864 0
M  V30 1856 H 174.438 -2.97489 -0.337774 0
M  V30 1857 H 171.984 -1.43097 -0.161025 0
M  V30 1858 H 173.937 -3.17904 -2.76614 0
M  V30 1859 H 172.661 -1.94451 -2.62405 0
M  V30 1860 H 171.32 -3.48213 -1.14644 0
M  V30 1861 H 170.968 -3.48977 -3.62249 0
M  V30 1862 H 170.668 -5.09914 -2.91996 0
M  V30 1863 H 172.192 -4.782 -3.7968 0
M  V30 1864 H 173.606 -5.49352 -1.63968 0
M  V30 1865 H 172.003 -5.9214 -0.974178 0
M  V30 1866 H 173.073 -4.8487 -0.0536168 0
M  V30 1867 N 174.416 0.165178 -1.56732 0
M  V30 1868 C 175.656 0.887231 -1.8414 0
M  V30 1869 C 176.02 1.79159 -0.690353 0
M  V30 1870 O 177.221 2.55172 -0.845032 0
M  V30 1871 C 175.492 1.65674 -3.16681 0
M  V30 1872 S 177.051 2.42671 -3.6559 0
M  V30 1873 H 173.869 0.297042 -0.645978 0
M  V30 1874 H 176.471 0.148439 -1.94936 0
M  V30 1875 H 175.175 0.983507 -3.98441 0
M  V30 1876 H 174.706 2.43679 -3.08843 0
M  V30 1877 H 176.721 3.67499 -3.33406 0
M  V30 1878 N 175.894 1.51508 0.433938 0
M  V30 1879 C 176.841 1.73068 1.52696 0
M  V30 1880 C 177.811 0.572441 1.55924 0
M  V30 1881 O 178.996 0.807253 1.72882 0
M  V30 1882 C 176.136 1.86474 2.90381 0
M  V30 1883 C 175.249 3.14037 2.96656 0
M  V30 1884 C 174.384 3.18019 4.25485 0
M  V30 1885 C 173.423 4.39882 4.2564 0
M  V30 1886 N 172.56 4.41394 5.45999 0
M  V30 1887 H 177.4 2.66366 1.33615 0
M  V30 1888 H 174.937 1.32008 0.649018 0
M  V30 1889 H 176.895 1.92229 3.70275 0
M  V30 1890 H 175.525 0.965809 3.08013 0
M  V30 1891 H 174.577 3.17575 2.09404 0
M  V30 1892 H 175.889 4.0394 2.92633 0
M  V30 1893 H 175.043 3.22708 5.13755 0
M  V30 1894 H 173.782 2.2601 4.3217 0
M  V30 1895 H 172.787 4.35366 3.35763 0
M  V30 1896 H 174.012 5.33159 4.20617 0
M  V30 1897 H 171.958 3.52258 5.53399 0
M  V30 1898 H 171.875 5.25111 5.4387 0
M  V30 1899 H 173.143 4.50281 6.36292 0
M  V30 1900 N 177.372 -0.689602 1.41712 0
M  V30 1901 C 178.618 -1.45181 1.41599 0
M  V30 1902 C 178.951 -1.94181 0.0270081 0
M  V30 1903 O 178.226 -1.6993 -0.946265 0
M  V30 1904 C 178.509 -2.65945 2.42787 0
M  V30 1905 C 178.362 -2.22672 3.90816 0
M  V30 1906 C 179.681 -3.68149 2.41151 0
M  V30 1907 H 176.8 -0.526576 0.515642 0
M  V30 1908 H 179.442 -0.784947 1.73028 0
M  V30 1909 H 177.592 -3.2284 2.16116 0
M  V30 1910 H 179.264 -1.71058 4.28412 0
M  V30 1911 H 177.507 -1.54394 4.05395 0
M  V30 1912 H 178.178 -3.0935 4.57172 0
M  V30 1913 H 180.654 -3.2094 2.64834 0
M  V30 1914 H 179.53 -4.50248 3.13955 0
M  V30 1915 H 179.791 -4.18259 1.43221 0
M  V30 1916 N 178.85 -1.27639 -0.924453 0
M  V30 1917 C 180.099 -1.13549 -1.66702 0
M  V30 1918 C 180.412 0.317487 -1.93006 0
M  V30 1919 O 181.618 0.579333 -2.65247 0
M  V30 1920 C 180.074 -1.98426 -3.00259 0
M  V30 1921 C 179.682 -3.484 -2.81641 0
M  V30 1922 C 181.426 -1.92993 -3.78092 0
M  V30 1923 C 179.333 -4.25464 -4.10773 0
M  V30 1924 H 178.263 -0.421351 -0.625283 0
M  V30 1925 H 180.914 -1.52085 -1.02676 0
M  V30 1926 H 179.296 -1.52736 -3.6536 0
M  V30 1927 H 180.47 -4.01973 -2.25287 0
M  V30 1928 H 178.785 -3.55245 -2.17232 0
M  V30 1929 H 181.382 -2.47844 -4.7379 0
M  V30 1930 H 181.725 -0.904281 -4.0636 0
M  V30 1931 H 182.258 -2.36595 -3.19793 0
M  V30 1932 H 178.997 -5.28566 -3.87683 0
M  V30 1933 H 178.517 -3.76667 -4.66779 0
M  V30 1934 H 180.196 -4.34812 -4.79111 0
M  V30 1935 N 180.328 1.1314 -1.09713 0
M  V30 1936 C 181.739 1.66029 -0.853885 0
M  V30 1937 C 182.09 1.86241 0.617142 0
M  V30 1938 O 181.215 1.5834 1.47503 0
M  V30 1939 C 181.81 3.01599 -1.5435 0
M  V30 1940 C 180.369 3.51467 -1.34714 0
M  V30 1941 C 179.516 2.26648 -1.59769 0
M  V30 1942 H 182.467 0.970226 -1.25588 0
M  V30 1943 H 182.488 3.67709 -0.978267 0
M  V30 1944 H 182 2.86856 -2.6141 0
M  V30 1945 H 180.101 3.71408 -0.297838 0
M  V30 1946 H 180.214 4.314 -2.08401 0
M  V30 1947 H 178.578 2.33385 -1.01998 0
M  V30 1948 H 179.361 2.14467 -2.68065 0
M  V30 1949 N 181.806 0.884767 1.30421 0
M  V30 1950 C 183.036 0.517293 2.00019 0
M  V30 1951 C 183.444 -0.898632 1.66497 0
M  V30 1952 O 182.787 -1.60245 0.898181 0
M  V30 1953 C 182.849 0.612025 3.54252 0
M  V30 1954 C 182.513 1.99222 4.1129 0
M  V30 1955 C 183.51 2.9616 4.273 0
M  V30 1956 C 181.195 2.29755 4.46674 0
M  V30 1957 C 183.189 4.21764 4.77906 0
M  V30 1958 C 180.876 3.55606 4.96979 0
M  V30 1959 C 181.874 4.51425 5.12547 0
M  V30 1960 O 181.562 5.75043 5.61766 0
M  V30 1961 H 181.294 0.198529 0.64619 0
M  V30 1962 H 183.848 1.1919 1.67281 0
M  V30 1963 H 182.078 -0.119561 3.86515 0
M  V30 1964 H 183.767 0.255859 4.05093 0
M  V30 1965 H 184.533 2.73882 4.00267 0
M  V30 1966 H 180.412 1.55942 4.33824 0
M  V30 1967 H 183.956 4.96561 4.89972 0
M  V30 1968 H 179.853 3.7772 5.23448 0
M  V30 1969 H 180.621 5.77422 5.80109 0
M  V30 1970 N 183.284 -1.43765 0.645699 0
M  V30 1971 C 184.214 -2.33471 -0.0370477 0
M  V30 1972 C 185.195 -1.49042 -0.819779 0
M  V30 1973 O 186.38 -1.77726 -0.782758 0
M  V30 1974 C 183.51 -3.32311 -1.0093 0
M  V30 1975 C 182.464 -4.2667 -0.337201 0
M  V30 1976 C 181.79 -5.1549 -1.42037 0
M  V30 1977 C 183.09 -5.16657 0.765706 0
M  V30 1978 H 184.784 -2.90809 0.712069 0
M  V30 1979 H 182.33 -1.39834 0.343876 0
M  V30 1980 H 184.283 -3.9396 -1.49578 0
M  V30 1981 H 183.007 -2.73213 -1.78948 0
M  V30 1982 H 181.666 -3.66374 0.128771 0
M  V30 1983 H 181.314 -4.52735 -2.1918 0
M  V30 1984 H 181.014 -5.79438 -0.975966 0
M  V30 1985 H 182.538 -5.80012 -1.90838 0
M  V30 1986 H 183.952 -5.72158 0.361702 0
M  V30 1987 H 182.349 -5.89286 1.13413 0
M  V30 1988 H 183.419 -4.56796 1.62683 0
M  V30 1989 N 184.763 -0.387143 -1.52771 0
M  V30 1990 C 185.695 0.484089 -2.2403 0
M  V30 1991 C 186.708 1.02849 -1.26198 0
M  V30 1992 O 187.897 0.931186 -1.52286 0
M  V30 1993 C 184.997 1.68337 -2.94136 0
M  V30 1994 C 184.17 1.26672 -4.18656 0
M  V30 1995 C 183.229 2.33045 -4.7178 0
M  V30 1996 O 182.255 1.94541 -5.34923 0
M  V30 1997 N 183.457 3.64929 -4.5145 0
M  V30 1998 H 186.222 -0.126404 -2.99433 0
M  V30 1999 H 183.783 -0.213392 -1.60488 0
M  V30 2000 H 185.775 2.39019 -3.26577 0
M  V30 2001 H 184.345 2.20025 -2.22053 0
M  V30 2002 H 183.565 0.388878 -3.92277 0
M  V30 2003 H 184.853 0.964964 -4.99566 0
M  V30 2004 H 184.251 3.98974 -4.01044 0
M  V30 2005 H 182.808 4.31651 -4.88386 0
M  V30 2006 N 186.241 1.57166 -0.116904 0
M  V30 2007 C 187.204 2.14039 0.819742 0
M  V30 2008 C 188.204 1.07477 1.19605 0
M  V30 2009 O 189.394 1.33263 1.1219 0
M  V30 2010 C 186.526 2.67891 2.10826 0
M  V30 2011 H 187.719 2.98128 0.325511 0
M  V30 2012 H 185.272 1.55739 0.132312 0
M  V30 2013 H 186.007 1.87384 2.64685 0
M  V30 2014 H 185.792 3.45823 1.84793 0
M  V30 2015 H 187.282 3.11809 2.77785 0
M  V30 2016 N 187.719 -0.156864 1.56817 0
M  V30 2017 C 188.965 -0.872416 1.83076 0
M  V30 2018 C 189.298 -1.81261 0.697001 0
M  V30 2019 O 188.573 -1.92171 -0.30008 0
M  V30 2020 C 188.856 -1.65551 3.19789 0
M  V30 2021 C 188.709 -0.737467 4.43713 0
M  V30 2022 C 190.028 -2.62012 3.53606 0
M  V30 2023 H 187.147 -0.315715 0.665953 0
M  V30 2024 H 189.789 -0.138004 1.89498 0
M  V30 2025 H 187.939 -2.28159 3.14445 0
M  V30 2026 H 189.611 -0.123143 4.61136 0
M  V30 2027 H 187.854 -0.0464067 4.33775 0
M  V30 2028 H 188.525 -1.32122 5.35955 0
M  V30 2029 H 191.001 -2.09525 3.59497 0
M  V30 2030 H 189.877 -3.13861 4.50314 0
M  V30 2031 H 190.138 -3.42902 2.79053 0
M  V30 2032 N 189.197 -1.51736 -0.425897 0
M  V30 2033 C 190.422 -1.69082 -1.20108 0
M  V30 2034 C 190.847 -0.392398 -1.83962 0
M  V30 2035 O 190.205 0.64858 -1.69302 0
M  V30 2036 C 190.253 -2.81604 -2.25237 0
M  V30 2037 O 189.357 -2.46004 -3.30992 0
M  V30 2038 H 188.698 -0.563408 -0.35138 0
M  V30 2039 H 191.228 -1.98358 -0.501512 0
M  V30 2040 H 191.238 -3.06025 -2.69838 0
M  V30 2041 H 189.913 -3.75817 -1.78142 0
M  V30 2042 H 188.49 -2.32195 -2.91787 0
M  V30 2043 N 190.675 0.682077 -1.42076 0
M  V30 2044 C 191.921 1.44428 -1.42367 0
M  V30 2045 C 192.254 1.94164 -0.0373056 0
M  V30 2046 O 191.529 1.70429 0.937239 0
M  V30 2047 C 191.812 2.64654 -2.44194 0
M  V30 2048 C 191.665 2.20596 -3.91991 0
M  V30 2049 C 192.984 3.66865 -2.431 0
M  V30 2050 H 190.103 0.523834 -0.518428 0
M  V30 2051 H 192.745 0.77576 -1.73442 0
M  V30 2052 H 190.895 3.2169 -2.17826 0
M  V30 2053 H 192.567 1.68783 -4.29313 0
M  V30 2054 H 190.81 1.52242 -4.06208 0
M  V30 2055 H 191.481 3.06921 -4.58807 0
M  V30 2056 H 193.957 3.19531 -2.66532 0
M  V30 2057 H 192.833 4.48577 -3.16339 0
M  V30 2058 H 193.094 4.17493 -1.45437 0
M  V30 2059 N 192.153 1.28127 0.917671 0
M  V30 2060 C 193.378 1.18007 1.70555 0
M  V30 2061 C 193.803 -0.258257 1.86319 0
M  V30 2062 O 193.161 -1.1869 1.37049 0
M  V30 2063 C 193.209 1.87948 3.07746 0
M  V30 2064 O 192.313 1.18427 3.9503 0
M  V30 2065 H 191.654 0.409867 0.522403 0
M  V30 2066 H 194.184 1.69379 1.1477 0
M  V30 2067 H 194.194 1.95701 3.58001 0
M  V30 2068 H 192.869 2.92573 2.95591 0
M  V30 2069 H 191.446 1.18811 3.53466 0
M  V30 2070 N 193.631 -1.12557 1.10312 0
M  V30 2071 C 194.877 -1.84311 0.846011 0
M  V30 2072 C 195.21 -1.83805 -0.626859 0
M  V30 2073 O 194.485 -1.28268 -1.46211 0
M  V30 2074 C 194.768 -3.32048 1.39341 0
M  V30 2075 C 194.621 -3.41016 2.93305 0
M  V30 2076 C 195.94 -4.27764 1.03468 0
M  V30 2077 H 193.059 -0.669192 0.30879 0
M  V30 2078 H 195.701 -1.32057 1.36605 0
M  V30 2079 H 193.851 -3.76678 0.951087 0
M  V30 2080 H 195.523 -3.05031 3.46055 0
M  V30 2081 H 193.766 -2.81603 3.29973 0
M  V30 2082 H 194.437 -4.44948 3.26689 0
M  V30 2083 H 196.913 -3.91253 1.41633 0
M  V30 2084 H 195.789 -5.29549 1.44463 0
M  V30 2085 H 196.05 -4.42064 -0.0560404 0
M  V30 2086 N 195.109 -0.891671 -1.2995 0
M  V30 2087 C 196.072 -0.36828 -2.26222 0
M  V30 2088 C 197.072 0.493014 -1.53056 0
M  V30 2089 O 198.262 0.299213 -1.71611 0
M  V30 2090 C 195.394 0.47442 -3.37583 0
M  V30 2091 H 196.587 -1.21844 -2.74033 0
M  V30 2092 H 194.14 -0.669107 -1.41254 0
M  V30 2093 H 194.875 1.34489 -2.95099 0
M  V30 2094 H 194.66 -0.142615 -3.91841 0
M  V30 2095 H 196.15 0.83218 -4.09224 0
M  V30 2096 N 196.587 1.43421 -0.653314 0
M  V30 2097 C 197.833 2.02111 -0.166992 0
M  V30 2098 C 198.166 1.51423 1.21592 0
M  V30 2099 O 197.441 0.707389 1.8118 0
M  V30 2100 C 197.724 3.5966 -0.177948 0
M  V30 2101 C 197.577 4.20579 -1.59478 0
M  V30 2102 C 198.896 4.37413 0.4856 0
M  V30 2103 H 196.015 0.734374 -0.0621557 0
M  V30 2104 H 198.657 1.70717 -0.834016 0
M  V30 2105 H 196.807 3.86537 0.390032 0
M  V30 2106 H 198.479 4.04732 -2.21336 0
M  V30 2107 H 196.722 3.77226 -2.14204 0
M  V30 2108 H 197.393 5.29665 -1.5543 0
M  V30 2109 H 199.869 4.161 0.00234528 0
M  V30 2110 H 198.745 5.47075 0.447207 0
M  V30 2111 H 199.006 4.13672 1.55974 0
M  V30 2112 N 198.065 0.39524 1.52563 0
M  V30 2113 C 198.995 -0.428384 2.29537 0
M  V30 2114 C 199.976 -1.05831 1.33169 0
M  V30 2115 O 201.161 -1.06995 1.62067 0
M  V30 2116 C 198.291 -1.55274 3.10656 0
M  V30 2117 C 197.245 -1.04855 4.14957 0
M  V30 2118 C 196.571 -2.26543 4.84337 0
M  V30 2119 C 197.871 -0.112324 5.22179 0
M  V30 2120 H 199.565 0.213867 2.98635 0
M  V30 2121 H 197.111 0.104298 1.43622 0
M  V30 2122 H 199.064 -2.1358 3.63265 0
M  V30 2123 H 197.788 -2.22266 2.39302 0
M  V30 2124 H 196.447 -0.487985 3.63338 0
M  V30 2125 H 196.095 -2.92059 4.09525 0
M  V30 2126 H 195.795 -1.93466 5.54837 0
M  V30 2127 H 197.319 -2.85481 5.39753 0
M  V30 2128 H 198.733 -0.603752 5.70112 0
M  V30 2129 H 197.13 0.128968 5.99961 0
M  V30 2130 H 198.2 0.837052 4.77621 0
M  V30 2131 N 199.544 -1.57102 0.125237 0
M  V30 2132 C 200.772 -1.99761 -0.538797 0
M  V30 2133 C 201.187 -1.00503 -1.59827 0
M  V30 2134 O 200.544 0.00119474 -1.825 0
M  V30 2135 C 200.595 -3.42408 -1.15927 0
M  V30 2136 O 200.316 -4.37869 -0.142143 0
M  V30 2137 C 201.817 -4.00232 -1.90602 0
M  V30 2138 H 199.037 -0.655772 -0.14214 0
M  V30 2139 H 201.581 -2.03383 0.213413 0
M  V30 2140 H 199.736 -3.39706 -1.86223 0
M  V30 2141 H 200.15 -5.21128 -0.593775 0
M  V30 2142 H 201.624 -5.02105 -2.29335 0
M  V30 2143 H 202.101 -3.39721 -2.78363 0
M  V30 2144 H 202.707 -4.06499 -1.25055 0
M  V30 2145 N 201.022 0.148545 -1.56898 0
M  V30 2146 C 201.952 1.18524 -2.01182 0
M  V30 2147 C 202.933 1.4489 -0.891123 0
M  V30 2148 O 204.118 1.55836 -1.15882 0
M  V30 2149 C 201.248 2.51879 -2.39112 0
M  V30 2150 C 200.202 2.40038 -3.54353 0
M  V30 2151 C 199.528 3.78089 -3.78091 0
M  V30 2152 C 200.828 1.88577 -4.87069 0
M  V30 2153 H 202.522 0.817029 -2.88036 0
M  V30 2154 H 200.068 0.391575 -1.38574 0
M  V30 2155 H 202.021 3.24627 -2.68692 0
M  V30 2156 H 200.745 2.90532 -1.49193 0
M  V30 2157 H 199.404 1.69742 -3.24936 0
M  V30 2158 H 199.052 4.14175 -2.85426 0
M  V30 2159 H 198.752 3.71028 -4.55645 0
M  V30 2160 H 200.276 4.52387 -4.10095 0
M  V30 2161 H 201.69 2.51117 -5.15377 0
M  V30 2162 H 200.087 1.9241 -5.68417 0
M  V30 2163 H 201.157 0.84136 -4.77545 0
M  V30 2164 N 202.5 1.5196 0.417844 0
M  V30 2165 C 203.725 1.69717 1.1921 0
M  V30 2166 C 204.15 0.402148 1.83751 0
M  V30 2167 O 203.508 -0.639593 1.69643 0
M  V30 2168 C 203.556 2.82794 2.2374 0
M  V30 2169 O 202.66 2.47756 3.29683 0
M  V30 2170 H 202.001 0.565263 0.348387 0
M  V30 2171 H 204.531 1.98621 0.490985 0
M  V30 2172 H 204.541 3.07452 2.68212 0
M  V30 2173 H 203.216 3.76756 1.76146 0
M  V30 2174 H 201.793 2.33739 2.90552 0
M  V30 2175 N 203.978 -0.674533 1.42435 0
M  V30 2176 C 205.225 -1.43459 1.42919 0
M  V30 2177 C 205.553 -1.94446 0.0457312 0
M  V30 2178 O 204.808 -1.7132 -0.94593 0
M  V30 2179 C 205.107 -2.64767 2.40069 0
M  V30 2180 C 204.773 -2.3232 3.86443 0
M  V30 2181 C 203.435 -2.23182 4.26314 0
M  V30 2182 C 205.787 -2.05977 4.78773 0
M  V30 2183 C 203.115 -1.85827 5.56494 0
M  V30 2184 C 205.467 -1.70125 6.09295 0
M  V30 2185 C 204.131 -1.59498 6.48164 0
M  V30 2186 H 203.401 -0.524952 0.522978 0
M  V30 2187 H 206.048 -0.769097 1.75377 0
M  V30 2188 H 204.353 -3.36349 2.00939 0
M  V30 2189 H 206.05 -3.22949 2.37707 0
M  V30 2190 H 202.64 -2.40334 3.54877 0
M  V30 2191 H 206.824 -2.11969 4.48757 0
M  V30 2192 H 202.08 -1.76168 5.8547 0
M  V30 2193 H 206.254 -1.48767 6.80324 0
M  V30 2194 H 203.881 -1.30322 7.48946 0
M  V30 2195 N 205.456 -1.28612 -0.910864 0
M  V30 2196 C 206.705 -1.15311 -1.65488 0
M  V30 2197 C 207.018 0.296999 -1.93332 0
M  V30 2198 O 208.224 0.551168 -2.65847 0
M  V30 2199 C 206.68 -2.01599 -2.98137 0
M  V30 2200 C 206.288 -3.51367 -2.7793 0
M  V30 2201 C 208.032 -1.96993 -3.76024 0
M  V30 2202 C 205.939 -4.29797 -4.06237 0
M  V30 2203 H 204.869 -0.42796 -0.620779 0
M  V30 2204 H 207.52 -1.53166 -1.01057 0
M  V30 2205 H 205.902 -1.56603 -3.63719 0
M  V30 2206 H 207.076 -4.0434 -2.21011 0
M  V30 2207 H 205.391 -3.57529 -2.13452 0
M  V30 2208 H 207.988 -2.52856 -4.71135 0
M  V30 2209 H 208.331 -0.94733 -4.05378 0
M  V30 2210 H 208.864 -2.39973 -3.17266 0
M  V30 2211 H 205.603 -5.32648 -3.82055 0
M  V30 2212 H 205.123 -3.81596 -4.62757 0
M  V30 2213 H 206.802 -4.39869 -4.74473 0
M  V30 2214 N 206.934 1.1197 -1.10907 0
M  V30 2215 C 207.897 2.16031 -0.765707 0
M  V30 2216 C 208.897 1.59393 0.212235 0
M  V30 2217 O 210.087 1.74196 -0.0115441 0
M  V30 2218 C 207.219 3.40632 -0.135053 0
M  V30 2219 H 208.412 2.47919 -1.68748 0
M  V30 2220 H 205.965 1.27061 -0.910226 0
M  V30 2221 H 206.7 3.14348 0.797218 0
M  V30 2222 H 206.485 3.8302 -0.838937 0
M  V30 2223 H 207.975 4.17505 0.0892469 0
M  V30 2224 N 208.412 0.89855 1.29475 0
M  V30 2225 C 209.342 0.39201 2.30186 0
M  V30 2226 C 210.323 -0.532359 1.61555 0
M  V30 2227 O 211.508 -0.443331 1.89072 0
M  V30 2228 C 208.638 -0.382353 3.45189 0
M  V30 2229 C 207.592 0.451483 4.25612 0
M  V30 2230 C 206.918 -0.450307 5.328 0
M  V30 2231 C 208.218 1.70079 4.93832 0
M  V30 2232 H 209.912 1.23362 2.72804 0
M  V30 2233 H 207.458 0.594638 1.31149 0
M  V30 2234 H 209.411 -0.747451 4.14718 0
M  V30 2235 H 208.135 -1.25774 3.01411 0
M  V30 2236 H 206.794 0.798897 3.57789 0
M  V30 2237 H 206.442 -1.32379 4.85268 0
M  V30 2238 H 206.142 0.103902 5.87508 0
M  V30 2239 H 207.666 -0.811623 6.05182 0
M  V30 2240 H 209.08 1.40549 5.55805 0
M  V30 2241 H 207.477 2.19623 5.58467 0
M  V30 2242 H 208.547 2.43744 4.19186 0
M  V30 2243 N 209.89 -1.43072 0.660911 0
M  V30 2244 C 211.167 -1.95307 0.107017 0
M  V30 2245 C 211.547 -1.60192 -1.37484 0
M  V30 2246 O 210.895 -0.890949 -2.10415 0
M  V30 2247 C 211.105 -3.47124 0.361402 0
M  V30 2248 C 212.453 -4.23738 0.270455 0
M  V30 2249 O 213.477 -3.54981 0.294382 0
M  V30 2250 O 212.336 -5.46131 0.200737 0
M  V30 2251 H 209.43 -0.826984 -0.00517729 0
M  V30 2252 H 211.976 -1.52972 0.734681 0
M  V30 2253 H 210.748 -3.65837 1.38848 0
M  V30 2254 H 210.371 -3.96475 -0.298953 0
M  V30 2255 N 211.368 -0.403325 -1.52352 0
M  V30 2256 C 212.784 -0.0539281 -1.59509 0
M  V30 2257 C 212.984 1.43307 -1.41652 0
M  V30 2258 O 212.04 2.19924 -1.24056 0
M  V30 2259 C 213.353 -0.543654 -2.95745 0
M  V30 2260 C 214.901 -0.501125 -3.08962 0
M  V30 2261 C 215.376 -0.967267 -4.47669 0
M  V30 2262 N 216.867 -0.923849 -4.53893 0
M  V30 2263 C 217.602 -1.25578 -5.5948 0
M  V30 2264 N 217.098 -1.65889 -6.72646 0
M  V30 2265 N 218.891 -1.17613 -5.49658 0
M  V30 2266 H 211.042 -1.37123 -1.62206 0
M  V30 2267 H 213.305 -0.56294 -0.76276 0
M  V30 2268 H 213.011 -1.58275 -3.14073 0
M  V30 2269 H 212.885 0.0498042 -3.77167 0
M  V30 2270 H 215.272 0.528909 -2.90321 0
M  V30 2271 H 215.353 -1.13056 -2.2946 0
M  V30 2272 H 214.997 -1.9956 -4.67053 0
M  V30 2273 H 214.927 -0.314698 -5.25659 0
M  V30 2274 H 217.418 -0.627403 -3.72655 0
M  V30 2275 H 217.731 -1.89543 -7.49195 0
M  V30 2276 H 216.076 -1.69787 -6.73942 0
M  V30 2277 H 219.267 -0.860115 -4.6013 0
M  V30 2278 H 219.44 -1.43812 -6.3184 0
M  V30 2279 N 212.846 1.57033 -0.133567 0
M  V30 2280 C 214.092 1.96764 0.515326 0
M  V30 2281 C 214.447 1.01653 1.63353 0
M  V30 2282 O 213.74 0.0491374 1.91537 0
M  V30 2283 C 213.934 3.40674 1.08057 0
M  V30 2284 C 213.763 4.49696 0.0186522 0
M  V30 2285 C 212.533 5.03567 -0.418174 0
M  V30 2286 C 214.731 5.08536 -0.767809 0
M  V30 2287 N 212.713 5.9618 -1.46434 0
M  V30 2288 C 214.084 5.97231 -1.6648 0
M  V30 2289 C 216.139 4.9115 -0.817087 0
M  V30 2290 C 214.842 6.70401 -2.60681 0
M  V30 2291 C 216.868 5.65012 -1.74687 0
M  V30 2292 C 216.23 6.53403 -2.63141 0
M  V30 2293 H 212.329 0.765919 0.157771 0
M  V30 2294 H 214.913 1.93395 -0.22506 0
M  V30 2295 H 213.084 3.44662 1.79061 0
M  V30 2296 H 214.816 3.67495 1.69497 0
M  V30 2297 H 211.571 4.73594 -0.0229803 0
M  V30 2298 H 211.995 6.47191 -1.98678 0
M  V30 2299 H 216.637 4.22543 -0.147326 0
M  V30 2300 H 214.355 7.38245 -3.28664 0
M  V30 2301 H 217.941 5.53559 -1.79063 0
M  V30 2302 H 216.821 7.09556 -3.33917 0
M  V30 2303 N 214.325 -0.140222 1.56975 0
M  V30 2304 C 215.555 -0.865181 1.87612 0
M  V30 2305 C 215.963 -1.74942 0.72055 0
M  V30 2306 O 215.306 -1.80917 -0.318561 0
M  V30 2307 C 215.368 -1.76782 3.13031 0
M  V30 2308 C 215.032 -1.06005 4.44536 0
M  V30 2309 C 216.029 -0.410768 5.18275 0
M  V30 2310 C 213.714 -1.04754 4.91255 0
M  V30 2311 C 215.708 0.241572 6.36942 0
M  V30 2312 C 213.395 -0.391394 6.09845 0
M  V30 2313 C 214.393 0.252029 6.82535 0
M  V30 2314 O 214.081 0.897757 7.98871 0
M  V30 2315 H 213.813 -0.255188 0.625983 0
M  V30 2316 H 216.367 -0.135653 2.04952 0
M  V30 2317 H 214.597 -2.53846 2.91718 0
M  V30 2318 H 216.286 -2.36533 3.29859 0
M  V30 2319 H 217.052 -0.412195 4.83245 0
M  V30 2320 H 212.931 -1.53777 4.34596 0
M  V30 2321 H 216.475 0.744375 6.93617 0
M  V30 2322 H 212.372 -0.387656 6.44335 0
M  V30 2323 H 213.14 0.800102 8.1458 0
M  V30 2324 N 215.803 -1.52179 -0.40978 0
M  V30 2325 C 216.766 -1.74853 -1.48186 0
M  V30 2326 C 217.766 -0.618417 -1.48433 0
M  V30 2327 O 218.956 -0.886286 -1.49969 0
M  V30 2328 C 216.088 -1.8303 -2.87598 0
M  V30 2329 H 217.281 -2.70559 -1.29374 0
M  V30 2330 H 214.834 -1.42586 -0.640233 0
M  V30 2331 H 215.569 -0.89236 -3.11781 0
M  V30 2332 H 215.354 -2.65187 -2.88822 0
M  V30 2333 H 216.844 -2.02316 -3.65319 0
M  V30 2334 N 217.281 0.66697 -1.42791 0
M  V30 2335 C 218.53 1.42278 -1.42968 0
M  V30 2336 C 218.843 1.9553 -0.0524489 0
M  V30 2337 O 220.049 2.71414 0.068363 0
M  V30 2338 C 218.505 2.57418 -2.51524 0
M  V30 2339 C 218.113 2.10832 -3.9529 0
M  V30 2340 C 219.857 3.34878 -2.60877 0
M  V30 2341 C 217.764 3.23101 -4.95338 0
M  V30 2342 H 216.694 0.534533 -0.531781 0
M  V30 2343 H 219.345 0.721302 -1.68729 0
M  V30 2344 H 217.727 3.29971 -2.18941 0
M  V30 2345 H 218.901 1.4538 -4.37266 0
M  V30 2346 H 217.216 1.46289 -3.89857 0
M  V30 2347 H 219.813 4.18505 -3.32802 0
M  V30 2348 H 220.156 3.81993 -1.6549 0
M  V30 2349 H 220.689 2.69398 -2.92693 0
M  V30 2350 H 217.428 2.80969 -5.9223 0
M  V30 2351 H 216.948 3.87309 -4.57987 0
M  V30 2352 H 218.627 3.88447 -5.17415 0
M  V30 2353 N 218.759 1.29093 0.90403 0
M  V30 2354 C 219.999 1.18076 1.66845 0
M  V30 2355 C 220.363 -0.26436 1.90171 0
M  V30 2356 O 221.564 -0.497423 2.64157 0
M  V30 2357 C 219.835 1.96722 2.98388 0
M  V30 2358 S 221.394 2.0219 3.89441 0
M  V30 2359 H 218.212 0.421104 0.572881 0
M  V30 2360 H 220.814 1.63322 1.07453 0
M  V30 2361 H 219.518 3.00866 2.7912 0
M  V30 2362 H 219.049 1.52064 3.62823 0
M  V30 2363 H 221.064 1.13545 4.83034 0
M  V30 2364 N 220.237 -1.11381 1.11499 0
M  V30 2365 C 221.187 -2.15555 0.74298 0
M  V30 2366 C 222.171 -1.58894 -0.253276 0
M  V30 2367 O 223.363 -1.76897 -0.0602918 0
M  V30 2368 C 220.492 -3.42782 0.188481 0
M  V30 2369 C 219.578 -4.064 1.21244 0
M  V30 2370 N 219.969 -4.44864 2.40685 0
M  V30 2371 C 218.267 -4.3333 1.05552 0
M  V30 2372 C 218.968 -4.94715 3.05994 0
M  V30 2373 N 217.944 -4.90909 2.33472 0
M  V30 2374 H 221.746 -2.43074 1.65203 0
M  V30 2375 H 219.26 -1.28401 0.994329 0
M  V30 2376 H 221.257 -4.16789 -0.0961693 0
M  V30 2377 H 219.917 -3.16727 -0.715149 0
M  V30 2378 H 220.928 -4.36876 2.78136 0
M  V30 2379 H 217.605 -4.1698 0.208372 0
M  V30 2380 H 218.995 -5.34103 4.07656 0
M  V30 2381 N 221.715 -0.905404 -1.28997 0
M  V30 2382 C 223.126 -0.581953 -1.77398 0
M  V30 2383 C 223.477 0.902552 -1.74208 0
M  V30 2384 O 222.602 1.70584 -1.33154 0
M  V30 2385 C 223.197 -1.04961 -3.22131 0
M  V30 2386 C 221.756 -0.777229 -3.68288 0
M  V30 2387 C 220.903 -1.22109 -2.48967 0
M  V30 2388 H 223.854 -1.08754 -1.15578 0
M  V30 2389 H 223.875 -0.387387 -3.78523 0
M  V30 2390 H 223.387 -2.13008 -3.24421 0
M  V30 2391 H 221.488 0.290383 -3.71467 0
M  V30 2392 H 221.601 -1.37911 -4.58822 0
M  V30 2393 H 219.965 -0.639971 -2.46529 0
M  V30 2394 H 220.748 -2.30972 -2.53982 0
M  V30 2395 N 223.193 1.4272 -0.668489 0
M  V30 2396 C 224.123 2.335 -0.000100175 0
M  V30 2397 C 225.104 1.50328 0.795964 0
M  V30 2398 O 226.289 1.78949 0.754385 0
M  V30 2399 C 223.419 3.33874 0.956302 0
M  V30 2400 C 222.373 4.27152 0.269278 0
M  V30 2401 C 221.699 5.17684 1.33818 0
M  V30 2402 C 222.999 5.15373 -0.847805 0
M  V30 2403 H 224.693 2.89639 -0.758244 0
M  V30 2404 H 222.239 1.39269 -0.366079 0
M  V30 2405 H 224.192 3.9629 1.43292 0
M  V30 2406 H 222.916 2.76025 1.74579 0
M  V30 2407 H 221.575 3.66123 -0.187042 0
M  V30 2408 H 221.223 4.56165 2.1195 0
M  V30 2409 H 220.923 5.80918 0.883659 0
M  V30 2410 H 222.447 5.82974 1.81586 0
M  V30 2411 H 223.861 5.7151 -0.452681 0
M  V30 2412 H 222.258 5.87407 -1.22773 0
M  V30 2413 H 223.328 4.5415 -1.69929 0
M  V30 2414 N 224.671 0.411399 1.52136 0
M  V30 2415 C 225.601 -0.404015 2.29978 0
M  V30 2416 C 226.582 -1.04412 1.34284 0
M  V30 2417 O 227.767 -1.0527 1.63192 0
M  V30 2418 C 224.897 -1.5197 3.12286 0
M  V30 2419 C 223.851 -1.00448 4.16046 0
M  V30 2420 C 223.177 -2.21393 4.86712 0
M  V30 2421 C 224.477 -0.0569336 5.22269 0
M  V30 2422 H 226.171 0.245529 2.98392 0
M  V30 2423 H 223.717 0.119525 1.43503 0
M  V30 2424 H 225.67 -2.09715 3.6551 0
M  V30 2425 H 224.394 -2.19716 2.41646 0
M  V30 2426 H 223.053 -0.449421 3.63835 0
M  V30 2427 H 222.701 -2.87699 4.12599 0
M  V30 2428 H 222.401 -1.87571 5.56858 0
M  V30 2429 H 223.925 -2.7974 5.4275 0
M  V30 2430 H 225.339 -0.54325 5.7072 0
M  V30 2431 H 223.736 0.192594 5.99791 0
M  V30 2432 H 224.806 0.887663 4.76706 0
M  V30 2433 N 226.149 -1.5696 0.141893 0
M  V30 2434 C 227.396 -1.9596 -0.510492 0
M  V30 2435 C 227.724 -1.02648 -1.65208 0
M  V30 2436 O 226.979 -0.0546947 -1.95624 0
M  V30 2437 C 227.278 -3.41242 -1.06249 0
M  V30 2438 C 226.944 -4.50882 -0.0398791 0
M  V30 2439 C 225.606 -4.80595 0.241247 0
M  V30 2440 C 227.958 -5.17058 0.65578 0
M  V30 2441 C 225.286 -5.73792 1.22393 0
M  V30 2442 C 227.638 -6.11313 1.62724 0
M  V30 2443 C 226.302 -6.39407 1.91612 0
M  V30 2444 H 225.572 -0.717068 -0.186802 0
M  V30 2445 H 228.219 -1.90142 0.227643 0
M  V30 2446 H 226.524 -3.43866 -1.87785 0
M  V30 2447 H 228.221 -3.68742 -1.57576 0
M  V30 2448 H 224.811 -4.27754 -0.269174 0
M  V30 2449 H 228.995 -4.94239 0.451779 0
M  V30 2450 H 224.251 -5.93853 1.45424 0
M  V30 2451 H 228.425 -6.61668 2.17183 0
M  V30 2452 H 226.052 -7.11427 2.6791 0
M  V30 2453 N 227.627 0.131896 -1.57047 0
M  V30 2454 C 228.574 1.16236 -1.99393 0
M  V30 2455 C 229.544 1.41863 -0.863943 0
M  V30 2456 O 230.729 1.53946 -1.12718 0
M  V30 2457 C 227.869 2.48708 -2.39245 0
M  V30 2458 C 226.982 2.30127 -3.65603 0
M  V30 2459 C 226.117 3.55738 -3.94492 0
M  V30 2460 C 225.156 3.32259 -5.14073 0
M  V30 2461 N 224.293 4.50039 -5.38896 0
M  V30 2462 H 229.133 0.794251 -2.87221 0
M  V30 2463 H 226.67 0.380707 -1.42088 0
M  V30 2464 H 228.628 3.25969 -2.60384 0
M  V30 2465 H 227.258 2.83437 -1.54478 0
M  V30 2466 H 226.31 1.43845 -3.52154 0
M  V30 2467 H 227.622 2.08746 -4.5302 0
M  V30 2468 H 226.776 4.41423 -4.1621 0
M  V30 2469 H 225.515 3.80138 -3.05526 0
M  V30 2470 H 224.52 2.44963 -4.92212 0
M  V30 2471 H 225.745 3.09242 -6.04604 0
M  V30 2472 H 223.691 4.74584 -4.52886 0
M  V30 2473 H 223.608 4.31716 -6.2061 0
M  V30 2474 H 224.876 5.36895 -5.65123 0
M  V30 2475 N 229.106 1.52395 0.401703 0
M  V30 2476 C 230.331 1.70972 1.17403 0
M  V30 2477 C 230.756 0.421615 1.83314 0
M  V30 2478 O 230.114 -0.621564 1.70312 0
M  V30 2479 C 230.162 2.85151 2.20728 0
M  V30 2480 O 229.266 2.51238 3.27037 0
M  V30 2481 H 228.607 0.568927 0.342372 0
M  V30 2482 H 231.137 1.99131 0.469891 0
M  V30 2483 H 231.147 3.10279 2.64936 0
M  V30 2484 H 229.822 3.78603 1.7214 0
M  V30 2485 H 228.399 2.36808 2.88057 0
M  V30 2486 N 230.584 -0.659388 1.43143 0
M  V30 2487 C 231.812 -1.44723 1.47861 0
M  V30 2488 C 232.227 -1.88563 0.0945886 0
M  V30 2489 O 231.584 -1.59108 -0.893915 0
M  V30 2490 C 231.635 -2.68627 2.41913 0
M  V30 2491 O 231.356 -2.26623 3.74932 0
M  V30 2492 C 232.857 -3.62045 2.55809 0
M  V30 2493 H 230.077 -0.444801 0.502387 0
M  V30 2494 H 232.621 -0.808916 1.87821 0
M  V30 2495 H 230.776 -3.28613 2.05164 0
M  V30 2496 H 231.19 -3.06745 4.2545 0
M  V30 2497 H 232.664 -4.45666 3.25708 0
M  V30 2498 H 233.141 -4.08981 1.60099 0
M  V30 2499 H 233.747 -3.07944 2.93344 0
M  V30 2500 N 232.062 -1.29571 -0.897171 0
M  V30 2501 C 233.025 -1.14913 -1.98312 0
M  V30 2502 C 234.025 -0.0838629 -1.60581 0
M  V30 2503 O 235.215 -0.331006 -1.71026 0
M  V30 2504 C 232.347 -0.757835 -3.3237 0
M  V30 2505 H 233.54 -2.11377 -2.12743 0
M  V30 2506 H 231.093 -1.12793 -1.08201 0
M  V30 2507 H 231.828 0.206837 -3.2364 0
M  V30 2508 H 231.613 -1.52755 -3.61121 0
M  V30 2509 H 233.103 -0.678408 -4.12053 0
M  V30 2510 N 233.54 1.10788 -1.12088 0
M  V30 2511 C 234.956 1.34691 -0.856186 0
M  V30 2512 C 235.156 1.94791 0.515615 0
M  V30 2513 O 234.212 2.18524 1.26505 0
M  V30 2514 C 235.525 2.27208 -1.9697 0
M  V30 2515 C 237.073 2.40755 -2.00016 0
M  V30 2516 C 237.548 3.36598 -3.1059 0
M  V30 2517 N 239.039 3.44164 -3.10008 0
M  V30 2518 C 239.774 4.18284 -3.92206 0
M  V30 2519 N 239.27 4.95322 -4.84384 0
M  V30 2520 N 241.063 4.13865 -3.80357 0
M  V30 2521 H 233.214 0.70144 -2.00483 0
M  V30 2522 H 235.477 0.371405 -0.872217 0
M  V30 2523 H 235.183 1.90251 -2.958 0
M  V30 2524 H 235.057 3.27485 -1.87172 0
M  V30 2525 H 237.444 2.76982 -1.01808 0
M  V30 2526 H 237.525 1.40305 -2.13888 0
M  V30 2527 H 237.169 3.01096 -4.09028 0
M  V30 2528 H 237.099 4.36918 -2.93956 0
M  V30 2529 H 239.59 2.8922 -2.43228 0
M  V30 2530 H 239.903 5.49267 -5.43623 0
M  V30 2531 H 238.248 4.94459 -4.884 0
M  V30 2532 H 241.439 3.52773 -3.07683 0
M  V30 2533 H 241.612 4.71372 -4.44649 0
M  V30 2534 N 235.018 0.912232 1.28515 0
M  V30 2535 C 236.434 0.610159 1.47476 0
M  V30 2536 C 236.634 -0.844955 1.82928 0
M  V30 2537 O 235.69 -1.62416 1.93332 0
M  V30 2538 C 237.003 1.54675 2.57868 0
M  V30 2539 C 238.551 1.55331 2.71738 0
M  V30 2540 C 239.026 2.47649 3.85272 0
M  V30 2541 N 240.517 2.45767 3.92623 0
M  V30 2542 C 241.252 3.13896 4.79851 0
M  V30 2543 N 240.748 3.9135 5.71679 0
M  V30 2544 N 242.541 3.02991 4.73448 0
M  V30 2545 H 234.692 1.85318 1.03783 0
M  V30 2546 H 236.955 0.794777 0.516753 0
M  V30 2547 H 236.661 2.5841 2.38574 0
M  V30 2548 H 236.535 1.27671 3.54937 0
M  V30 2549 H 238.922 0.52335 2.90422 0
M  V30 2550 H 239.003 1.86378 1.75205 0
M  V30 2551 H 238.647 3.50745 3.67342 0
M  V30 2552 H 238.577 2.13904 4.81199 0
M  V30 2553 H 241.068 1.89503 3.26951 0
M  V30 2554 H 241.381 4.40359 6.35062 0
M  V30 2555 H 239.726 3.95455 5.71524 0
M  V30 2556 H 242.917 2.41987 4.007 0
M  V30 2557 H 243.09 3.5636 5.41213 0
M  V30 2558 N 236.496 -1.42363 0.676048 0
M  V30 2559 C 237.459 -2.29199 0.00766941 0
M  V30 2560 C 238.459 -1.43389 -0.727745 0
M  V30 2561 O 239.649 -1.64764 -0.56556 0
M  V30 2562 C 236.781 -3.2591 -0.999785 0
M  V30 2563 H 237.974 -2.89794 0.771988 0
M  V30 2564 H 235.527 -1.50024 0.438468 0
M  V30 2565 H 236.262 -2.70256 -1.79255 0
M  V30 2566 H 236.047 -3.89202 -0.475829 0
M  V30 2567 H 237.537 -3.91028 -1.46583 0
M  V30 2568 N 237.974 -0.419461 -1.51915 0
M  V30 2569 C 239.39 -0.0708431 -1.59443 0
M  V30 2570 C 239.59 1.41796 -1.43164 0
M  V30 2571 O 238.646 2.18596 -1.26381 0
M  V30 2572 C 239.959 -0.574991 -2.95151 0
M  V30 2573 C 241.507 -0.533867 -3.08413 0
M  V30 2574 C 241.982 -1.01469 -4.46618 0
M  V30 2575 N 243.473 -0.971939 -4.52888 0
M  V30 2576 C 244.208 -1.31505 -5.58116 0
M  V30 2577 N 243.704 -1.73014 -6.70849 0
M  V30 2578 N 245.497 -1.23436 -5.48379 0
M  V30 2579 H 237.648 -1.38836 -1.60743 0
M  V30 2580 H 239.911 -0.570998 -0.756747 0
M  V30 2581 H 239.617 -1.61597 -3.12377 0
M  V30 2582 H 239.491 0.00979777 -3.77199 0
M  V30 2583 H 241.878 0.498086 -2.90866 0
M  V30 2584 H 241.959 -1.15484 -2.28248 0
M  V30 2585 H 241.603 -2.04502 -4.6491 0
M  V30 2586 H 241.533 -0.370433 -5.25295 0
M  V30 2587 H 244.024 -0.666893 -3.71969 0
M  V30 2588 H 244.337 -1.97479 -7.47143 0
M  V30 2589 H 242.682 -1.76926 -6.72103 0
M  V30 2590 H 245.873 -0.908869 -4.59192 0
M  V30 2591 H 246.046 -1.50506 -6.30279 0
M  V30 2592 N 239.452 1.56882 -0.150215 0
M  V30 2593 C 240.7 1.9584 0.499105 0
M  V30 2594 C 241.021 1.03623 1.65188 0
M  V30 2595 O 240.291 0.0984084 1.95653 0
M  V30 2596 H 238.871 0.723119 0.187373 0
M  V30 2597 H 241.533 1.9358 -0.226466 0
M  V30 2598 H 240.629 2.99638 0.873122 0
M  V30 2599 N 240.93 -0.123565 1.57115 0
M  V30 2600 C 242.155 -0.850398 1.89164 0
M  V30 2601 C 242.58 -1.7286 0.741688 0
M  V30 2602 O 241.938 -1.78665 -0.307958 0
M  V30 2603 C 241.986 -1.66353 3.19936 0
M  V30 2604 O 241.09 -2.77004 3.0552 0
M  V30 2605 H 240.431 -0.235454 0.620852 0
M  V30 2606 H 242.961 -0.107335 2.04318 0
M  V30 2607 H 242.971 -2.05372 3.52543 0
M  V30 2608 H 241.646 -1.01881 4.03228 0
M  V30 2609 H 240.223 -2.41221 2.84371 0
M  V30 2610 N 242.408 -1.52605 -0.393616 0
M  V30 2611 C 243.657 -1.66649 -1.13627 0
M  V30 2612 C 243.97 -0.410364 -1.91247 0
M  V30 2613 O 245.176 -0.430854 -2.68059 0
M  V30 2614 C 243.632 -2.9449 -2.06891 0
M  V30 2615 C 243.24 -4.27266 -1.34714 0
M  V30 2616 C 244.984 -3.17899 -2.81319 0
M  V30 2617 C 242.891 -5.46217 -2.26717 0
M  V30 2618 H 241.821 -0.62084 -0.427871 0
M  V30 2619 H 244.472 -1.791 -0.399428 0
M  V30 2620 H 242.854 -2.75774 -2.84191 0
M  V30 2621 H 244.028 -4.56518 -0.626714 0
M  V30 2622 H 242.343 -4.10081 -0.722643 0
M  V30 2623 H 244.94 -4.03949 -3.50328 0
M  V30 2624 H 245.283 -2.32777 -3.45139 0
M  V30 2625 H 245.816 -3.37159 -2.11113 0
M  V30 2626 H 242.555 -6.33733 -1.67521 0
M  V30 2627 H 242.075 -5.21283 -2.96689 0
M  V30 2628 H 243.754 -5.7991 -2.86903 0
M  V30 2629 N 243.887 0.651787 -1.4349 0
M  V30 2630 C 244.817 1.77621 -1.51569 0
M  V30 2631 C 245.798 1.66022 -0.370253 0
M  V30 2632 O 246.983 1.85095 -0.587658 0
M  V30 2633 C 244.113 3.16056 -1.43966 0
M  V30 2634 C 243.067 3.4242 -2.56774 0
M  V30 2635 C 242.393 4.8067 -2.34223 0
M  V30 2636 C 243.693 3.37023 -3.99015 0
M  V30 2637 H 245.387 1.71117 -2.45681 0
M  V30 2638 H 242.933 0.821825 -1.18246 0
M  V30 2639 H 244.886 3.94472 -1.48221 0
M  V30 2640 H 243.61 3.23293 -0.463586 0
M  V30 2641 H 242.269 2.66375 -2.51873 0
M  V30 2642 H 241.917 4.84585 -1.34856 0
M  V30 2643 H 241.617 4.9927 -3.09844 0
M  V30 2644 H 243.141 5.61342 -2.40265 0
M  V30 2645 H 244.555 4.05374 -4.05395 0
M  V30 2646 H 242.952 3.67159 -4.74673 0
M  V30 2647 H 244.022 2.3518 -4.2405 0
M  V30 2648 N 245.365 1.30045 0.890287 0
M  V30 2649 C 246.613 1.18327 1.63839 0
M  V30 2650 C 246.934 -0.263455 1.93212 0
M  V30 2651 O 246.204 -1.17856 1.56482 0
M  V30 2652 H 244.784 0.434933 0.607324 0
M  V30 2653 H 247.446 1.631 1.06698 0
M  V30 2654 H 246.542 1.74024 2.59079 0
M  V30 2655 N 246.843 -1.10192 1.12674 0
M  V30 2656 C 248.092 -1.81573 0.8783 0
M  V30 2657 C 248.405 -1.86249 -0.597557 0
M  V30 2658 O 249.611 -2.5386 -0.962681 0
M  V30 2659 C 248.067 -3.26149 1.52167 0
M  V30 2660 C 247.675 -3.29763 3.03249 0
M  V30 2661 C 249.419 -4.0234 1.3536 0
M  V30 2662 C 247.326 -4.68815 3.60508 0
M  V30 2663 H 246.256 -0.680394 0.324931 0
M  V30 2664 H 248.907 -1.23902 1.35353 0
M  V30 2665 H 247.289 -3.83832 0.974104 0
M  V30 2666 H 248.463 -2.8189 3.6452 0
M  V30 2667 H 246.778 -2.67059 3.19481 0
M  V30 2668 H 249.375 -5.05058 1.75559 0
M  V30 2669 H 249.718 -4.15235 0.297554 0
M  V30 2670 H 250.251 -3.51079 1.87052 0
M  V30 2671 H 246.99 -4.61121 4.65884 0
M  V30 2672 H 246.51 -5.17045 3.04014 0
M  V30 2673 H 248.189 -5.37785 3.59717 0
M  V30 2674 N 248.321 -0.919034 -1.28029 0
M  V30 2675 C 249.567 -0.565221 -1.95389 0
M  V30 2676 C 249.922 0.882325 -1.70976 0
M  V30 2677 O 249.215 1.61988 -1.02325 0
M  V30 2678 C 249.409 -0.816855 -3.4794 0
M  V30 2679 C 249.238 -2.28731 -3.87185 0
M  V30 2680 C 248.008 -2.93841 -4.11079 0
M  V30 2681 C 250.206 -3.26415 -3.97439 0
M  V30 2682 N 248.188 -4.31129 -4.37037 0
M  V30 2683 C 249.559 -4.48884 -4.27672 0
M  V30 2684 C 251.614 -3.21742 -3.79982 0
M  V30 2685 C 250.317 -5.67268 -4.42266 0
M  V30 2686 C 252.343 -4.39431 -3.95796 0
M  V30 2687 C 251.705 -5.60675 -4.26407 0
M  V30 2688 H 247.804 -0.256797 -0.738633 0
M  V30 2689 H 250.388 -1.18386 -1.54573 0
M  V30 2690 H 248.559 -0.227445 -3.87733 0
M  V30 2691 H 250.291 -0.426542 -4.02446 0
M  V30 2692 H 247.046 -2.44547 -4.05578 0
M  V30 2693 H 247.47 -5.02127 -4.5409 0
M  V30 2694 H 252.112 -2.29079 -3.55363 0
M  V30 2695 H 249.83 -6.60406 -4.65714 0
M  V30 2696 H 253.416 -4.37323 -3.83719 0
M  V30 2697 H 252.296 -6.50223 -4.38383 0
M  V30 2698 N 249.799 1.42003 -0.683588 0
M  V30 2699 C 250.762 2.29191 -0.0198243 0
M  V30 2700 C 251.762 1.43773 0.72013 0
M  V30 2701 O 252.952 1.65061 0.556815 0
M  V30 2702 C 250.084 3.26435 0.982487 0
M  V30 2703 H 251.277 2.8938 -0.787345 0
M  V30 2704 H 248.83 1.49789 -0.446418 0
M  V30 2705 H 249.565 2.71203 1.77819 0
M  V30 2706 H 249.35 3.89449 0.455182 0
M  V30 2707 H 250.84 3.918 1.44508 0
M  V30 2708 N 251.277 0.427512 1.51691 0
M  V30 2709 C 252.523 -0.142439 2.02299 0
M  V30 2710 C 252.856 -1.43214 1.31162 0
M  V30 2711 O 252.131 -1.89833 0.423511 0
M  V30 2712 C 252.414 -0.371301 3.58181 0
M  V30 2713 C 252.267 0.936358 4.39946 0
M  V30 2714 C 253.586 -1.14542 4.24933 0
M  V30 2715 H 250.705 -0.0502937 0.735282 0
M  V30 2716 H 253.347 0.564584 1.81418 0
M  V30 2717 H 251.497 -0.973559 3.76104 0
M  V30 2718 H 253.169 1.57184 4.33694 0
M  V30 2719 H 251.412 1.5432 4.05423 0
M  V30 2720 H 252.083 0.730388 5.47147 0
M  V30 2721 H 254.559 -0.635362 4.11221 0
M  V30 2722 H 253.435 -1.27431 5.33903 0
M  V30 2723 H 253.696 -2.17093 3.85127 0
M  V30 2724 N 252.755 -1.56801 0.158532 0
M  V30 2725 C 253.98 -2.01295 -0.499516 0
M  V30 2726 C 254.405 -1.03799 -1.56867 0
M  V30 2727 O 253.763 -0.0155162 -1.81293 0
M  V30 2728 C 253.811 -3.44469 -1.06647 0
M  V30 2729 O 252.915 -3.50012 -2.18095 0
M  V30 2730 H 252.256 -0.652884 -0.12099 0
M  V30 2731 H 254.786 -2.02958 0.258661 0
M  V30 2732 H 254.796 -3.8351 -1.39227 0
M  V30 2733 H 253.471 -4.14932 -0.283581 0
M  V30 2734 H 252.048 -3.22822 -1.86656 0
M  V30 2735 N 254.233 0.115231 -1.57178 0
M  V30 2736 C 255.163 1.1423 -2.03651 0
M  V30 2737 C 256.144 1.42967 -0.921655 0
M  V30 2738 O 257.329 1.53343 -1.19162 0
M  V30 2739 C 254.459 2.4675 -2.44401 0
M  V30 2740 C 253.413 2.32467 -3.59365 0
M  V30 2741 C 252.739 3.69984 -3.86026 0
M  V30 2742 C 254.039 1.78203 -4.90959 0
M  V30 2743 H 255.733 0.755749 -2.89705 0
M  V30 2744 H 253.279 0.362093 -1.39373 0
M  V30 2745 H 255.232 3.18854 -2.75517 0
M  V30 2746 H 253.956 2.87302 -1.55322 0
M  V30 2747 H 252.615 1.62811 -3.28463 0
M  V30 2748 H 252.263 4.08028 -2.94147 0
M  V30 2749 H 251.963 3.61279 -4.63412 0
M  V30 2750 H 253.487 4.43587 -4.19599 0
M  V30 2751 H 254.901 2.40128 -5.20587 0
M  V30 2752 H 253.298 1.8031 -5.72371 0
M  V30 2753 H 254.368 0.739876 -4.79222 0
M  V30 2754 N 255.711 1.52812 0.385517 0
M  V30 2755 C 256.674 1.77188 1.45386 0
M  V30 2756 C 257.674 0.641953 1.4743 0
M  V30 2757 O 258.864 0.910033 1.4854 0
M  V30 2758 C 255.996 1.87582 2.8465 0
M  V30 2759 H 257.189 2.72583 1.25054 0
M  V30 2760 H 254.742 1.43586 0.617467 0
M  V30 2761 H 255.477 0.941849 3.10322 0
M  V30 2762 H 255.262 2.69748 2.84567 0
M  V30 2763 H 256.752 2.08102 3.62054 0
M  V30 2764 N 257.189 -0.644168 1.43834 0
M  V30 2765 C 258.438 -1.39985 1.45214 0
M  V30 2766 C 258.751 -1.95421 0.0835494 0
M  V30 2767 O 259.957 -2.71488 -0.0251748 0
M  V30 2768 C 258.413 -2.53384 2.55587 0
M  V30 2769 C 258.021 -2.04517 3.98594 0
M  V30 2770 C 259.765 -3.30685 2.66172 0
M  V30 2771 C 257.672 -3.1518 5.00416 0
M  V30 2772 H 256.602 -0.526005 0.540218 0
M  V30 2773 H 259.253 -0.694367 1.69855 0
M  V30 2774 H 257.635 -3.26446 2.24163 0
M  V30 2775 H 258.809 -1.38405 4.39523 0
M  V30 2776 H 257.124 -1.40068 3.92135 0
M  V30 2777 H 259.721 -4.13158 3.39418 0
M  V30 2778 H 260.064 -3.79312 1.71546 0
M  V30 2779 H 260.597 -2.64708 2.96942 0
M  V30 2780 H 257.336 -2.71511 5.96625 0
M  V30 2781 H 256.856 -3.79974 4.64091 0
M  V30 2782 H 258.535 -3.80166 5.23529 0
M  V30 2783 N 258.668 -1.30515 -0.883378 0
M  V30 2784 C 259.601 -1.11359 -1.99184 0
M  V30 2785 C 260.579 -0.0207858 -1.62587 0
M  V30 2786 O 261.763 -0.174646 -1.87689 0
M  V30 2787 C 258.89 -0.69871 -3.31415 0
M  V30 2788 C 257.936 -1.79261 -3.86998 0
M  V30 2789 S 258.769 -3.39536 -4.14096 0
M  V30 2790 C 259.925 -2.99954 -5.49344 0
M  V30 2791 H 260.158 -2.052 -2.15128 0
M  V30 2792 H 257.691 -1.14847 -1.03196 0
M  V30 2793 H 259.649 -0.466075 -4.07846 0
M  V30 2794 H 258.31 0.220368 -3.13326 0
M  V30 2795 H 257.503 -1.45464 -4.82552 0
M  V30 2796 H 257.105 -1.97961 -3.17313 0
M  V30 2797 H 259.397 -2.48013 -6.30473 0
M  V30 2798 H 260.34 -3.9442 -5.8808 0
M  V30 2799 H 260.748 -2.37775 -5.1198 0
M  V30 2800 N 260.146 1.09593 -1.13257 0
M  V30 2801 C 261.392 1.82003 -0.89458 0
M  V30 2802 C 261.725 1.85402 0.577906 0
M  V30 2803 O 261 1.32099 1.42759 0
M  V30 2804 C 261.283 3.28237 -1.48096 0
M  V30 2805 C 261.136 3.3312 -3.02244 0
M  V30 2806 C 262.455 4.24871 -1.14774 0
M  V30 2807 H 259.574 0.66077 -0.326424 0
M  V30 2808 H 262.216 1.28389 -1.40058 0
M  V30 2809 H 260.366 3.74024 -1.05062 0
M  V30 2810 H 262.038 2.95748 -3.54021 0
M  V30 2811 H 260.281 2.72756 -3.37323 0
M  V30 2812 H 260.952 4.3613 -3.38371 0
M  V30 2813 H 263.428 3.87361 -1.51957 0
M  V30 2814 H 262.304 5.25532 -1.58452 0
M  V30 2815 H 262.565 4.42058 -0.0611849 0
M  V30 2816 N 261.624 0.925811 1.2754 0
M  V30 2817 C 263.035 0.610102 1.7645 0
M  V30 2818 C 263.386 -0.874723 1.75622 0
M  V30 2819 O 262.511 -1.68444 1.35851 0
M  V30 2820 C 263.106 1.10073 3.20421 0
M  V30 2821 C 261.665 0.835723 3.67005 0
M  V30 2822 C 260.812 1.26054 2.46993 0
M  V30 2823 H 263.763 1.10579 1.13833 0
M  V30 2824 H 263.784 0.447557 3.77859 0
M  V30 2825 H 263.296 2.18143 3.20991 0
M  V30 2826 H 261.397 -0.231249 3.71882 0
M  V30 2827 H 261.51 1.45193 4.56569 0
M  V30 2828 H 259.874 0.679111 2.45479 0
M  V30 2829 H 260.657 2.34984 2.50275 0
M  V30 2830 N 263.102 -1.41638 0.69111 0
M  V30 2831 C 264.034 -2.29194 -0.0161523 0
M  V30 2832 C 265.047 -1.44549 -0.748955 0
M  V30 2833 O 266.236 -1.681 -0.6004 0
M  V30 2834 C 263.336 -3.22325 -1.0469 0
M  V30 2835 C 262.509 -4.35706 -0.384621 0
M  V30 2836 C 261.568 -5.09443 -1.31737 0
M  V30 2837 O 260.594 -5.63386 -0.811451 0
M  V30 2838 N 261.796 -5.16487 -2.64993 0
M  V30 2839 H 264.561 -2.90534 0.735523 0
M  V30 2840 H 262.122 -1.52742 0.53679 0
M  V30 2841 H 264.114 -3.68522 -1.67252 0
M  V30 2842 H 262.684 -2.62323 -1.70015 0
M  V30 2843 H 261.904 -3.91948 0.420804 0
M  V30 2844 H 263.192 -5.08743 0.0760765 0
M  V30 2845 H 262.59 -4.741 -3.08619 0
M  V30 2846 H 261.147 -5.66276 -3.22761 0
M  V30 2847 N 264.58 -0.43555 -1.51462 0
M  V30 2848 C 265.543 0.365137 -2.26273 0
M  V30 2849 C 266.543 0.951227 -1.29647 0
M  V30 2850 O 267.733 0.825958 -1.53374 0
M  V30 2851 C 264.865 1.51645 -3.05314 0
M  V30 2852 H 266.058 -0.290474 -2.9849 0
M  V30 2853 H 263.611 -0.188676 -1.55157 0
M  V30 2854 H 264.346 2.20816 -2.3751 0
M  V30 2855 H 264.131 1.10238 -3.76284 0
M  V30 2856 H 265.621 2.08218 -3.61987 0
M  V30 2857 N 266.058 1.56714 -0.166846 0
M  V30 2858 C 267.021 2.16539 0.751232 0
M  V30 2859 C 268.021 1.11228 1.16125 0
M  V30 2860 O 269.211 1.36765 1.07894 0
M  V30 2861 C 266.343 2.74462 2.02196 0
M  V30 2862 H 267.536 2.99013 0.230499 0
M  V30 2863 H 265.089 1.56081 0.0826982 0
M  V30 2864 H 265.824 1.95709 2.58589 0
M  V30 2865 H 265.609 3.51527 1.73698 0
M  V30 2866 H 267.099 3.20489 2.67725 0
M  V30 2867 N 267.536 -0.106894 1.57237 0
M  V30 2868 C 268.782 -0.81373 1.85759 0
M  V30 2869 C 269.115 -1.78952 0.754315 0
M  V30 2870 O 268.39 -1.93029 -0.23879 0
M  V30 2871 C 268.673 -1.55293 3.24894 0
M  V30 2872 C 268.526 -0.595929 4.45835 0
M  V30 2873 C 269.845 -2.5063 3.61763 0
M  V30 2874 H 266.964 -0.294369 0.67566 0
M  V30 2875 H 269.606 -0.0776472 1.89841 0
M  V30 2876 H 267.756 -2.1804 3.21544 0
M  V30 2877 H 269.428 0.0236262 4.61294 0
M  V30 2878 H 267.671 0.0916191 4.33703 0
M  V30 2879 H 268.342 -1.15004 5.39887 0
M  V30 2880 H 270.818 -1.97982 3.65981 0
M  V30 2881 H 269.694 -2.99376 4.60071 0
M  V30 2882 H 269.955 -3.3385 2.89821 0
M  V30 2883 N 269.014 -1.53014 -0.377408 0
M  V30 2884 C 269.947 -1.73382 -1.48371 0
M  V30 2885 C 270.925 -0.581879 -1.51832 0
M  V30 2886 O 272.109 -0.81307 -1.70063 0
M  V30 2887 C 269.236 -1.80192 -2.8679 0
M  V30 2888 C 268.282 -3.02056 -3.01105 0
M  V30 2889 S 269.115 -4.61811 -2.71093 0
M  V30 2890 C 270.271 -4.71453 -4.11683 0
M  V30 2891 H 270.504 -2.66946 -1.30872 0
M  V30 2892 H 268.037 -1.43453 -0.571012 0
M  V30 2893 H 269.995 -1.84802 -3.6655 0
M  V30 2894 H 268.656 -0.877008 -3.01608 0
M  V30 2895 H 267.849 -3.03396 -4.02451 0
M  V30 2896 H 267.451 -2.95498 -2.29253 0
M  V30 2897 H 269.743 -4.50781 -5.0577 0
M  V30 2898 H 270.686 -5.73487 -4.15353 0
M  V30 2899 H 271.094 -4.00189 -3.98132 0
M  V30 2900 N 270.492 0.636531 -1.44174 0
M  V30 2901 C 271.402 1.77754 -1.53103 0
M  V30 2902 C 272.418 1.68928 -0.417034 0
M  V30 2903 O 273.594 1.89801 -0.6736 0
M  V30 2904 C 270.659 3.14115 -1.46741 0
M  V30 2905 C 269.72 3.34612 -2.68948 0
M  V30 2906 C 268.953 4.64467 -2.6288 0
M  V30 2907 O 269.176 5.44919 -1.68581 0
M  V30 2908 O 268.11 4.87049 -3.53648 0
M  V30 2909 H 271.936 1.73174 -2.49489 0
M  V30 2910 H 269.521 0.79709 -1.2636 0
M  V30 2911 H 271.403 3.95412 -1.45696 0
M  V30 2912 H 270.078 3.19249 -0.534975 0
M  V30 2913 H 268.985 2.53014 -2.75562 0
M  V30 2914 H 270.318 3.34336 -3.61221 0
M  V30 2915 N 271.97 1.30982 0.876444 0
M  V30 2916 C 273.21 1.21589 1.64303 0
M  V30 2917 C 273.574 -0.223962 1.90689 0
M  V30 2918 O 274.775 -0.44128 2.65153 0
M  V30 2919 C 273.046 2.03007 2.94148 0
M  V30 2920 S 274.605 2.10405 3.85065 0
M  V30 2921 H 271.423 0.433161 0.563819 0
M  V30 2922 H 274.025 1.65565 1.03964 0
M  V30 2923 H 272.729 3.06719 2.72675 0
M  V30 2924 H 272.26 1.59725 3.59515 0
M  V30 2925 H 274.275 1.23765 4.80517 0
M  V30 2926 N 273.449 -1.08991 1.13837 0
M  V30 2927 C 274.674 -1.85551 0.926585 0
M  V30 2928 C 275.099 -1.80782 -0.519566 0
M  V30 2929 O 274.457 -1.18855 -1.36906 0
M  V30 2930 C 274.505 -3.31266 1.42462 0
M  V30 2931 O 273.609 -4.07822 0.612789 0
M  V30 2932 H 272.95 -0.575192 0.331738 0
M  V30 2933 H 275.48 -1.37604 1.51414 0
M  V30 2934 H 275.49 -3.82112 1.43019 0
M  V30 2935 H 274.165 -3.34052 2.47754 0
M  V30 2936 H 272.742 -3.66731 0.675463 0
M  V30 2937 N 274.927 -0.932562 -1.27047 0
M  V30 2938 C 276.152 -0.591474 -1.98787 0
M  V30 2939 C 276.577 0.824601 -1.69062 0
M  V30 2940 O 275.935 1.5541 -0.933677 0
M  V30 2941 C 275.983 -0.829808 -3.50922 0
M  V30 2942 O 275.087 0.102266 -4.12273 0
M  V30 2943 H 274.428 -0.227185 -0.623926 0
M  V30 2944 H 276.958 -1.25314 -1.61733 0
M  V30 2945 H 276.968 -0.747292 -4.01098 0
M  V30 2946 H 275.643 -1.86201 -3.7189 0
M  V30 2947 H 274.22 -0.0305761 -3.72887 0
M  V30 2948 N 276.405 1.4127 -0.698611 0
M  V30 2949 C 277.651 2.01478 -0.231207 0
M  V30 2950 C 277.984 1.55215 1.16713 0
M  V30 2951 O 277.259 0.764672 1.78838 0
M  V30 2952 C 277.542 3.58912 -0.292281 0
M  V30 2953 C 277.395 4.15293 -1.72778 0
M  V30 2954 C 278.714 4.38736 0.346194 0
M  V30 2955 H 275.833 0.732025 -0.0854878 0
M  V30 2956 H 278.475 1.67977 -0.887906 0
M  V30 2957 H 276.625 3.87582 0.26686 0
M  V30 2958 H 278.297 3.97486 -2.341 0
M  V30 2959 H 276.54 3.7022 -2.26096 0
M  V30 2960 H 277.211 5.24452 -1.72202 0
M  V30 2961 H 279.687 4.15897 -0.130035 0
M  V30 2962 H 278.563 5.48221 0.272932 0
M  V30 2963 H 278.824 4.18425 1.42734 0
M  V30 2964 N 277.883 0.443576 1.51229 0
M  V30 2965 C 278.813 -0.355142 2.30783 0
M  V30 2966 C 279.794 -1.0154 1.36468 0
M  V30 2967 O 280.979 -1.01785 1.65389 0
M  V30 2968 C 278.109 -1.45312 3.15439 0
M  V30 2969 C 277.063 -0.916002 4.18083 0
M  V30 2970 C 276.389 -2.1102 4.91299 0
M  V30 2971 C 277.689 0.0538602 5.22272 0
M  V30 2972 H 279.383 0.308767 2.97804 0
M  V30 2973 H 276.929 0.149937 1.43217 0
M  V30 2974 H 278.882 -2.01914 3.69876 0
M  V30 2975 H 277.606 -2.14541 2.46252 0
M  V30 2976 H 276.265 -0.372145 3.64706 0
M  V30 2977 H 275.913 -2.78882 4.18609 0
M  V30 2978 H 275.613 -1.75717 5.60712 0
M  V30 2979 H 277.137 -2.68164 5.48562 0
M  V30 2980 H 278.551 -0.422069 5.71744 0
M  V30 2981 H 276.948 0.319776 5.99247 0
M  V30 2982 H 278.018 0.98858 4.74716 0
M  V30 2983 N 279.361 -1.56624 0.175154 0
M  V30 2984 C 280.772 -1.83561 -0.340916 0
M  V30 2985 C 281.123 -1.09511 -1.62794 0
M  V30 2986 O 280.248 -0.349389 -2.13561 0
M  V30 2987 C 280.843 -3.32979 -0.625313 0
M  V30 2988 C 279.402 -3.60399 -1.08581 0
M  V30 2989 C 278.549 -2.77024 -0.123722 0
M  V30 2990 H 281.5 -1.53593 0.399344 0
M  V30 2991 H 281.521 -3.50666 -1.47694 0
M  V30 2992 H 281.033 -3.86847 0.311575 0
M  V30 2993 H 279.134 -3.11945 -2.03767 0
M  V30 2994 H 279.247 -4.68711 -0.992317 0
M  V30 2995 H 277.611 -2.46993 -0.621821 0
M  V30 2996 H 278.394 -3.33674 0.807256 0
M  V30 2997 N 280.839 0.0985539 -1.57292 0
M  V30 2998 C 281.749 1.13824 -2.05137 0
M  V30 2999 C 282.765 1.44076 -0.975604 0
M  V30 3000 O 283.941 1.54786 -1.28853 0
M  V30 3001 C 281.006 2.43969 -2.46333 0
M  V30 3002 C 280.067 2.2093 -3.68087 0
M  V30 3003 C 279.3 3.44869 -4.0731 0
M  V30 3004 O 279.523 4.52972 -3.46659 0
M  V30 3005 O 278.457 3.34661 -5.00285 0
M  V30 3006 H 282.283 0.761881 -2.93988 0
M  V30 3007 H 279.868 0.310818 -1.46131 0
M  V30 3008 H 281.75 3.20609 -2.73473 0
M  V30 3009 H 280.425 2.81038 -1.60621 0
M  V30 3010 H 279.332 1.42081 -3.46069 0
M  V30 3011 H 280.665 1.88755 -4.54568 0
M  V30 3012 N 282.317 1.53212 0.369288 0
M  V30 3013 C 283.247 1.82365 1.45826 0
M  V30 3014 C 284.228 0.676907 1.56051 0
M  V30 3015 O 285.413 0.926401 1.70679 0
M  V30 3016 C 282.543 2.01023 2.83208 0
M  V30 3017 C 281.497 3.1678 2.8781 0
M  V30 3018 C 280.823 3.20724 4.27832 0
M  V30 3019 C 282.123 4.55447 2.55667 0
M  V30 3020 H 283.817 2.73559 1.21678 0
M  V30 3021 H 281.363 1.3163 0.583911 0
M  V30 3022 H 283.316 2.20001 3.59413 0
M  V30 3023 H 282.04 1.06536 3.08736 0
M  V30 3024 H 280.699 2.97616 2.14056 0
M  V30 3025 H 280.347 2.23882 4.50429 0
M  V30 3026 H 280.047 3.98496 4.31827 0
M  V30 3027 H 281.571 3.41881 5.05915 0
M  V30 3028 H 282.985 4.74611 3.21586 0
M  V30 3029 H 281.382 5.35432 2.70984 0
M  V30 3030 H 282.452 4.60812 1.5093 0
M  V30 3031 N 283.795 -0.628877 1.44509 0
M  V30 3032 C 284.758 -1.72263 1.51188 0
M  V30 3033 C 285.758 -1.55907 0.39367 0
M  V30 3034 O 286.948 -1.61361 0.656377 0
M  V30 3035 C 284.08 -3.11365 1.38798 0
M  V30 3036 H 285.273 -1.67714 2.4862 0
M  V30 3037 H 282.826 -0.842737 1.31634 0
M  V30 3038 H 283.561 -3.21507 0.424693 0
M  V30 3039 H 283.346 -3.24644 2.19884 0
M  V30 3040 H 284.836 -3.91075 1.46458 0
M  V30 3041 N 285.273 -1.31445 -0.869486 0
M  V30 3042 C 286.221 -1.19067 -1.99814 0
M  V30 3043 C 287.215 -0.0988569 -1.69111 0
M  V30 3044 O 288.421 -0.260781 -1.78101 0
M  V30 3045 H 284.796 -0.368677 -0.655425 0
M  V30 3046 H 286.767 -2.14555 -2.07385 0
M  V30 3047 C 285.516 -0.915323 -3.35436 0
M  V30 3048 H 284.839 -1.74759 -3.59582 0
M  V30 3049 H 286.279 -0.868895 -4.15001 0
M  V30 3050 C 284.738 0.381928 -3.34728 0
M  V30 3051 O 285.268 1.39857 -3.76567 0
M  V30 3052 N 283.474 0.398633 -2.87853 0
M  V30 3053 H 283.021 -0.429186 -2.54 0
M  V30 3054 H 282.979 1.26651 -2.87762 0
M  V30 3055 N 286.751 1.08385 -1.14413 0
M  V30 3056 C 288.167 1.32844 -0.884563 0
M  V30 3057 C 288.367 1.95841 0.474181 0
M  V30 3058 O 287.423 2.21158 1.21842 0
M  V30 3059 C 288.736 2.22978 -2.01745 0
M  V30 3060 C 290.284 2.36458 -2.05077 0
M  V30 3061 C 290.759 3.29934 -3.1766 0
M  V30 3062 N 292.25 3.37511 -3.17239 0
M  V30 3063 C 292.985 4.09871 -4.0099 0
M  V30 3064 N 292.481 4.84936 -4.94781 0
M  V30 3065 N 294.274 4.05704 -3.89051 0
M  V30 3066 H 286.425 0.658756 -2.01926 0
M  V30 3067 H 288.688 0.352821 -0.879899 0
M  V30 3068 H 288.394 1.83934 -2.99769 0
M  V30 3069 H 288.268 3.23441 -1.94077 0
M  V30 3070 H 290.655 2.7476 -1.0766 0
M  V30 3071 H 290.736 1.35736 -2.16816 0
M  V30 3072 H 290.38 2.92352 -4.15322 0
M  V30 3073 H 290.31 4.30584 -3.03158 0
M  V30 3074 H 292.801 2.83996 -2.49308 0
M  V30 3075 H 293.114 5.37612 -5.55151 0
M  V30 3076 H 291.459 4.83988 -4.98779 0
M  V30 3077 H 294.65 3.46167 -3.15097 0
M  V30 3078 H 294.823 4.61834 -4.54547 0
M  V30 3079 N 288.23 0.939286 1.26551 0
M  V30 3080 C 289.458 0.602536 1.97932 0
M  V30 3081 C 289.873 -0.82206 1.69964 0
M  V30 3082 O 289.23 -1.54789 0.966784 0
M  V30 3083 C 289.281 0.832946 3.51773 0
M  V30 3084 O 289.002 2.20151 3.78768 0
M  V30 3085 C 290.503 0.506483 4.40397 0
M  V30 3086 H 287.723 0.227248 0.631347 0
M  V30 3087 H 290.267 1.25948 1.61113 0
M  V30 3088 H 288.422 0.222644 3.8676 0
M  V30 3089 H 288.836 2.26013 4.73306 0
M  V30 3090 H 290.31 0.718333 5.47306 0
M  V30 3091 H 290.787 -0.558451 4.35635 0
M  V30 3092 H 291.393 1.09543 4.10951 0
M  V30 3093 N 289.708 -1.40897 0.706093 0
M  V30 3094 C 291.124 -1.55042 0.37869 0
M  V30 3095 C 291.324 -1.67944 -1.11342 0
M  V30 3096 O 290.38 -1.66372 -1.89938 0
M  V30 3097 C 291.693 -2.78398 1.13643 0
M  V30 3098 C 293.241 -2.92206 1.12181 0
M  V30 3099 C 293.716 -4.18463 1.86152 0
M  V30 3100 N 295.207 -4.25443 1.83173 0
M  V30 3101 C 295.942 -5.2202 2.37239 0
M  V30 3102 N 295.438 -6.24563 2.99821 0
M  V30 3103 N 297.231 -5.14033 2.27435 0
M  V30 3104 H 289.382 -1.30769 1.67372 0
M  V30 3105 H 291.645 -0.631653 0.706907 0
M  V30 3106 H 291.351 -2.7511 2.19106 0
M  V30 3107 H 291.225 -3.70228 0.721853 0
M  V30 3108 H 293.612 -2.95004 0.0754171 0
M  V30 3109 H 293.693 -2.01521 1.57554 0
M  V30 3110 H 293.337 -4.16427 2.90776 0
M  V30 3111 H 293.267 -5.08141 1.38206 0
M  V30 3112 H 295.758 -3.51976 1.37556 0
M  V30 3113 H 296.071 -6.94665 3.38616 0
M  V30 3114 H 294.416 -6.25035 3.03902 0
M  V30 3115 H 297.607 -4.3285 1.78208 0
M  V30 3116 H 297.78 -5.89129 2.69873 0
M  V30 3117 N 291.186 -0.45159 -1.50991 0
M  V30 3118 C 292.116 0.342898 -2.30969 0
M  V30 3119 C 293.097 1.00815 -1.37005 0
M  V30 3120 O 294.282 1.00907 -1.65926 0
M  V30 3121 C 291.412 1.43637 -3.16205 0
M  V30 3122 C 290.366 0.893818 -4.18563 0
M  V30 3123 C 289.692 2.08411 -4.92411 0
M  V30 3124 C 290.992 -0.0815568 -5.22236 0
M  V30 3125 H 292.686 -0.324556 -2.97636 0
M  V30 3126 H 290.232 -0.157531 -1.43136 0
M  V30 3127 H 292.185 1.9995 -3.70942 0
M  V30 3128 H 290.909 2.13232 -2.47386 0
M  V30 3129 H 289.568 0.352798 -3.64898 0
M  V30 3130 H 289.216 2.76658 -4.20082 0
M  V30 3131 H 288.916 1.72741 -5.61636 0
M  V30 3132 H 290.44 2.65251 -5.49976 0
M  V30 3133 H 291.854 0.391742 -5.7196 0
M  V30 3134 H 290.251 -0.351551 -5.99069 0
M  V30 3135 H 291.321 -1.01374 -4.74185 0
M  V30 3136 N 292.664 1.56529 -0.183458 0
M  V30 3137 C 293.911 1.97244 0.458357 0
M  V30 3138 C 294.239 1.06992 1.62428 0
M  V30 3139 O 293.494 0.106542 1.9541 0
M  V30 3140 C 293.793 3.43939 0.971637 0
M  V30 3141 C 293.459 4.5083 -0.0796784 0
M  V30 3142 C 292.121 4.79786 -0.368584 0
M  V30 3143 C 294.473 5.15138 -0.792638 0
M  V30 3144 C 291.801 5.70345 -1.37563 0
M  V30 3145 C 294.153 6.06784 -1.78875 0
M  V30 3146 C 292.817 6.34102 -2.08497 0
M  V30 3147 H 292.087 0.721768 0.167725 0
M  V30 3148 H 294.734 1.89472 -0.277976 0
M  V30 3149 H 293.039 3.48724 1.78602 0
M  V30 3150 H 294.736 3.72791 1.47744 0
M  V30 3151 H 291.326 4.28317 0.155668 0
M  V30 3152 H 295.51 4.92868 -0.582659 0
M  V30 3153 H 290.766 5.89789 -1.61118 0
M  V30 3154 H 294.94 6.55677 -2.3465 0
M  V30 3155 H 292.567 7.04074 -2.86678 0
M  V30 3156 N 294.142 -0.090211 1.57342 0
M  V30 3157 C 295.367 -0.810082 1.90925 0
M  V30 3158 C 295.792 -1.71248 0.778187 0
M  V30 3159 O 295.15 -1.79278 -0.269991 0
M  V30 3160 C 295.198 -1.59529 3.23393 0
M  V30 3161 O 294.302 -2.70461 3.11327 0
M  V30 3162 H 293.643 -0.222231 0.625707 0
M  V30 3163 H 296.173 -0.0639716 2.045 0
M  V30 3164 H 296.183 -1.97847 3.5682 0
M  V30 3165 H 294.858 -0.933055 4.05299 0
M  V30 3166 H 293.435 -2.35135 2.89423 0
M  V30 3167 N 295.62 -1.53406 -0.361157 0
M  V30 3168 C 296.866 -1.70054 -1.10496 0
M  V30 3169 C 297.199 -0.453278 -1.88836 0
M  V30 3170 O 296.474 0.5495 -1.86576 0
M  V30 3171 C 296.757 -2.95317 -2.06058 0
M  V30 3172 C 296.61 -4.3021 -1.31298 0
M  V30 3173 C 297.929 -3.16193 -3.06121 0
M  V30 3174 H 295.048 -0.618799 -0.400321 0
M  V30 3175 H 297.69 -1.86052 -0.385318 0
M  V30 3176 H 295.84 -2.81809 -2.67425 0
M  V30 3177 H 297.512 -4.55538 -0.726807 0
M  V30 3178 H 295.755 -4.29421 -0.614853 0
M  V30 3179 H 296.426 -5.14 -2.01265 0
M  V30 3180 H 298.902 -3.28916 -2.5486 0
M  V30 3181 H 297.778 -4.05266 -3.70204 0
M  V30 3182 H 298.039 -2.31676 -3.76535 0
M  V30 3183 N 297.098 0.621204 -1.44841 0
M  V30 3184 C 298.338 1.39201 -1.49674 0
M  V30 3185 C 298.702 1.91561 -0.129764 0
M  V30 3186 O 299.903 2.68748 -0.0527814 0
M  V30 3187 C 298.174 2.519 -2.53537 0
M  V30 3188 S 299.733 3.39916 -2.77494 0
M  V30 3189 H 296.551 0.474758 -0.529269 0
M  V30 3190 H 299.153 0.718171 -1.81831 0
M  V30 3191 H 297.857 2.11761 -3.51547 0
M  V30 3192 H 297.388 3.241 -2.22986 0
M  V30 3193 H 299.403 4.49646 -2.0984 0
M  V30 3194 N 298.576 1.31904 0.862503 0
M  V30 3195 C 299.853 1.12644 1.59908 0
M  V30 3196 C 300.233 -0.316104 2.0872 0
M  V30 3197 O 299.581 -1.31145 1.87118 0
M  V30 3198 C 299.791 2.1472 2.7513 0
M  V30 3199 C 301.139 2.47637 3.44907 0
M  V30 3200 O 302.163 2.13205 2.85346 0
M  V30 3201 O 301.022 3.06632 4.52371 0
M  V30 3202 H 298.116 0.43416 0.703871 0
M  V30 3203 H 300.662 1.43408 0.907314 0
M  V30 3204 H 299.434 3.1172 2.3653 0
M  V30 3205 H 299.057 1.84905 3.51989 0
M  V30 3206 N 300.054 -1.07777 1.14986 0
M  V30 3207 C 300.964 -2.18404 0.856546 0
M  V30 3208 C 301.98 -1.73211 -0.165485 0
M  V30 3209 O 303.156 -2.01399 0.00755219 0
M  V30 3210 C 300.221 -3.44977 0.34526 0
M  V30 3211 C 299.282 -4.0476 1.43065 0
M  V30 3212 C 298.515 -5.25291 0.943663 0
M  V30 3213 O 298.738 -5.70004 -0.212426 0
M  V30 3214 O 297.672 -5.76638 1.72547 0
M  V30 3215 H 301.498 -2.45978 1.78125 0
M  V30 3216 H 299.083 -1.17033 0.928631 0
M  V30 3217 H 300.965 -4.21348 0.0663671 0
M  V30 3218 H 299.64 -3.18965 -0.551631 0
M  V30 3219 H 298.547 -3.29949 1.76309 0
M  V30 3220 H 299.88 -4.35035 2.30229 0
M  V30 3221 N 301.532 -0.945985 -1.26051 0
M  V30 3222 C 302.948 -0.649045 -1.45807 0
M  V30 3223 C 303.148 0.796158 -1.85104 0
M  V30 3224 O 302.204 1.57233 -1.97571 0
M  V30 3225 C 303.517 -1.61458 -2.53677 0
M  V30 3226 C 305.065 -1.62481 -2.67524 0
M  V30 3227 C 305.54 -2.57776 -3.7857 0
M  V30 3228 N 307.031 -2.5609 -3.85969 0
M  V30 3229 C 307.766 -3.26508 -4.7136 0
M  V30 3230 N 307.262 -4.0637 -5.61102 0
M  V30 3231 N 309.055 -3.15437 -4.65248 0
M  V30 3232 H 301.206 -1.88005 -0.988328 0
M  V30 3233 H 303.469 -0.808198 -0.4955 0
M  V30 3234 H 303.175 -2.64644 -2.31638 0
M  V30 3235 H 303.049 -1.37036 -3.51427 0
M  V30 3236 H 305.436 -0.600167 -2.88933 0
M  V30 3237 H 305.517 -1.90958 -1.70202 0
M  V30 3238 H 305.161 -3.60361 -3.57913 0
M  V30 3239 H 305.091 -2.26587 -4.75359 0
M  V30 3240 H 307.582 -1.98105 -3.21812 0
M  V30 3241 H 307.895 -4.57042 -6.23164 0
M  V30 3242 H 306.24 -4.10469 -5.60839 0
M  V30 3243 H 309.431 -2.52525 -3.94143 0
M  V30 3244 H 309.604 -3.70584 -5.31575 0
M  V30 3245 N 303.011 1.40521 -0.713556 0
M  V30 3246 C 304.257 2.01714 -0.261382 0
M  V30 3247 C 304.612 1.55562 1.13217 0
M  V30 3248 O 303.905 0.764893 1.7567 0
M  V30 3249 C 304.099 3.56317 -0.278 0
M  V30 3250 C 303.928 4.17476 -1.67163 0
M  V30 3251 C 302.698 4.50998 -2.2788 0
M  V30 3252 C 304.896 4.42472 -2.6215 0
M  V30 3253 N 302.878 4.9754 -3.5962 0
M  V30 3254 C 304.249 4.90985 -3.78594 0
M  V30 3255 C 306.304 4.24508 -2.60188 0
M  V30 3256 C 305.007 5.2342 -4.9338 0
M  V30 3257 C 307.033 4.58043 -3.741 0
M  V30 3258 C 306.395 5.06743 -4.89276 0
M  V30 3259 H 302.494 0.769104 -0.141434 0
M  V30 3260 H 305.078 1.70785 -0.934915 0
M  V30 3261 H 303.249 3.8668 0.36509 0
M  V30 3262 H 304.981 4.0425 0.190695 0
M  V30 3263 H 301.736 4.38062 -1.79997 0
M  V30 3264 H 302.16 5.25196 -4.27198 0
M  V30 3265 H 306.802 3.86078 -1.72348 0
M  V30 3266 H 304.52 5.60765 -5.81866 0
M  V30 3267 H 308.106 4.45785 -3.73854 0
M  V30 3268 H 306.986 5.32204 -5.75959 0
M  V30 3269 N 304.489 0.459591 1.5075 0
M  V30 3270 C 305.452 -0.329093 2.26825 0
M  V30 3271 C 306.452 -0.930481 1.31144 0
M  V30 3272 O 307.642 -0.801453 1.54669 0
M  V30 3273 C 304.774 -1.46768 3.07688 0
M  V30 3274 H 305.967 0.337924 2.9799 0
M  V30 3275 H 303.52 0.213336 1.54837 0
M  V30 3276 H 304.255 -2.17009 2.40993 0
M  V30 3277 H 304.04 -1.04238 3.77991 0
M  V30 3278 H 305.53 -2.02433 3.65254 0
M  V30 3279 N 305.967 -1.56429 0.191757 0
M  V30 3280 C 307.244 -1.89224 -0.495332 0
M  V30 3281 C 307.624 -1.10478 -1.79883 0
M  V30 3282 O 306.972 -0.204852 -2.2758 0
M  V30 3283 C 307.182 -3.41548 -0.717367 0
M  V30 3284 C 308.53 -4.11711 -1.03823 0
M  V30 3285 O 309.554 -3.4698 -0.805204 0
M  V30 3286 O 308.413 -5.2611 -1.47887 0
M  V30 3287 H 305.507 -0.785788 -0.25781 0
M  V30 3288 H 308.053 -1.68111 0.231721 0
M  V30 3289 H 306.825 -3.90772 0.203287 0
M  V30 3290 H 306.448 -3.68342 -1.497 0
M  V30 3291 N 307.445 0.0818655 -1.57387 0
M  V30 3292 C 308.722 0.815343 -1.77796 0
M  V30 3293 C 309.102 1.96289 -0.77679 0
M  V30 3294 O 308.45 2.27691 0.192106 0
M  V30 3295 C 308.66 1.29765 -3.23978 0
M  V30 3296 C 310.008 1.7351 -3.8753 0
M  V30 3297 O 311.032 1.39356 -3.27808 0
M  V30 3298 O 309.891 2.36708 -4.92576 0
M  V30 3299 H 306.985 0.389914 -0.729312 0
M  V30 3300 H 309.531 0.0627213 -1.69584 0
M  V30 3301 H 308.303 0.47608 -3.88393 0
M  V30 3302 H 307.926 2.11189 -3.36875 0
M  V30 3303 N 308.923 1.53595 0.353017 0
M  V30 3304 C 309.853 1.83902 1.43883 0
M  V30 3305 C 310.834 0.693421 1.55324 0
M  V30 3306 O 312.019 0.944452 1.69687 0
M  V30 3307 C 309.149 2.04016 2.8106 0
M  V30 3308 C 308.103 3.19814 2.84434 0
M  V30 3309 C 307.429 3.25244 4.24406 0
M  V30 3310 C 308.729 4.58133 2.50822 0
M  V30 3311 H 310.423 2.74835 1.1877 0
M  V30 3312 H 307.969 1.32242 0.569917 0
M  V30 3313 H 309.922 2.238 3.57059 0
M  V30 3314 H 308.646 1.09804 3.07588 0
M  V30 3315 H 307.305 2.9987 2.10887 0
M  V30 3316 H 306.953 2.28646 4.48029 0
M  V30 3317 H 306.653 4.03054 4.27576 0
M  V30 3318 H 308.177 3.47228 5.0226 0
M  V30 3319 H 309.591 4.77995 3.16534 0
M  V30 3320 H 307.988 5.38276 2.6529 0
M  V30 3321 H 309.058 4.62387 1.46034 0
M  V30 3322 N 310.401 -0.613514 1.45168 0
M  V30 3323 C 311.631 -1.39743 1.52169 0
M  V30 3324 C 312.039 -1.88596 0.151086 0
M  V30 3325 O 311.382 -1.6251 -0.856521 0
M  V30 3326 C 311.444 -2.64035 2.43979 0
M  V30 3327 C 311.108 -2.36861 3.90827 0
M  V30 3328 C 312.105 -1.97591 4.80889 0
M  V30 3329 C 309.79 -2.49956 4.35692 0
M  V30 3330 C 311.784 -1.71768 6.1382 0
M  V30 3331 C 309.471 -2.23747 5.68665 0
M  V30 3332 C 310.469 -1.84714 6.57548 0
M  V30 3333 O 310.157 -1.58809 7.88058 0
M  V30 3334 H 309.889 -0.434382 0.517966 0
M  V30 3335 H 312.443 -0.75587 1.90986 0
M  V30 3336 H 310.673 -3.3089 2.00122 0
M  V30 3337 H 312.362 -3.26069 2.41731 0
M  V30 3338 H 313.128 -1.87015 4.47493 0
M  V30 3339 H 309.007 -2.79305 3.66756 0
M  V30 3340 H 312.551 -1.41227 6.83155 0
M  V30 3341 H 308.448 -2.33938 6.01617 0
M  V30 3342 H 309.216 -1.7291 8.00028 0
M  V30 3343 N 311.879 -1.3236 -0.855495 0
M  V30 3344 C 313.29 -1.2056 -1.42556 0
M  V30 3345 C 313.641 0.182209 -1.95352 0
M  V30 3346 O 312.766 1.08088 -1.87472 0
M  V30 3347 C 313.361 -2.1826 -2.59129 0
M  V30 3348 C 311.92 -2.10351 -3.12137 0
M  V30 3349 C 311.067 -2.06674 -1.84882 0
M  V30 3350 H 314.018 -1.442 -0.662727 0
M  V30 3351 H 314.039 -1.78064 -3.36264 0
M  V30 3352 H 313.551 -3.19257 -2.20673 0
M  V30 3353 H 311.652 -1.12599 -3.55179 0
M  V30 3354 H 311.765 -3.00135 -3.73438 0
M  V30 3355 H 310.129 -1.51901 -2.04446 0
M  V30 3356 H 310.912 -3.09451 -1.48643 0
M  V30 3357 N 313.357 1.07166 -1.15556 0
M  V30 3358 C 314.304 2.14417 -0.854055 0
M  V30 3359 C 315.274 1.64965 0.193806 0
M  V30 3360 O 316.459 1.90703 0.0609443 0
M  V30 3361 C 313.599 3.43304 -0.351574 0
M  V30 3362 C 312.712 4.06537 -1.46123 0
M  V30 3363 C 311.847 5.23266 -0.914677 0
M  V30 3364 C 310.886 5.78464 -2.00114 0
M  V30 3365 N 310.023 6.86521 -1.47083 0
M  V30 3366 H 314.863 2.39548 -1.77259 0
M  V30 3367 H 312.4 1.17543 -0.884425 0
M  V30 3368 H 314.358 4.17179 -0.0419409 0
M  V30 3369 H 312.988 3.18419 0.530037 0
M  V30 3370 H 312.04 3.30297 -1.88701 0
M  V30 3371 H 313.352 4.43567 -2.28144 0
M  V30 3372 H 312.506 6.04131 -0.557698 0
M  V30 3373 H 311.245 4.87658 -0.0636583 0
M  V30 3374 H 310.25 4.96243 -2.36692 0
M  V30 3375 H 311.475 6.16126 -2.85597 0
M  V30 3376 H 309.421 6.52849 -0.642198 0
M  V30 3377 H 309.338 7.22446 -2.22729 0
M  V30 3378 H 310.606 7.71087 -1.14215 0
M  V30 3379 N 314.835 0.952656 1.25548 0
M  V30 3380 C 316.084 0.602053 1.92505 0
M  V30 3381 C 316.397 -0.864663 1.75451 0
M  V30 3382 O 317.603 -1.32514 2.36965 0
M  V30 3383 C 316.059 1.02607 3.44963 0
M  V30 3384 C 315.667 2.51519 3.70732 0
M  V30 3385 C 317.411 0.747905 4.1786 0
M  V30 3386 C 315.318 2.87732 5.16686 0
M  V30 3387 H 314.248 0.22146 0.720744 0
M  V30 3388 H 316.899 1.15684 1.42441 0
M  V30 3389 H 315.281 0.399712 3.93978 0
M  V30 3390 H 316.455 3.19157 3.32378 0
M  V30 3391 H 314.77 2.76786 3.11092 0
M  V30 3392 H 317.367 0.994647 5.25367 0
M  V30 3393 H 317.71 -0.315629 4.15102 0
M  V30 3394 H 318.243 1.33452 3.74747 0
M  V30 3395 H 314.982 3.93095 5.24554 0
M  V30 3396 H 314.502 2.24765 5.56094 0
M  V30 3397 H 316.181 2.76817 5.84792 0
M  V30 3398 N 316.313 -1.40141 0.720998 0
M  V30 3399 C 317.543 -2.04798 0.27226 0
M  V30 3400 C 317.951 -1.54442 -1.09289 0
M  V30 3401 O 317.294 -0.698342 -1.69908 0
M  V30 3402 C 317.356 -3.59048 0.18027 0
M  V30 3403 C 317.02 -4.32317 1.48159 0
M  V30 3404 C 318.017 -4.59902 2.42458 0
M  V30 3405 C 315.702 -4.71125 1.74202 0
M  V30 3406 C 317.696 -5.25288 3.61042 0
M  V30 3407 C 315.383 -5.36242 2.93066 0
M  V30 3408 C 316.381 -5.63254 3.86308 0
M  V30 3409 O 316.069 -6.27024 5.03086 0
M  V30 3410 H 315.801 -0.665419 0.119139 0
M  V30 3411 H 318.355 -1.80436 0.981432 0
M  V30 3412 H 316.585 -3.82251 -0.58489 0
M  V30 3413 H 318.274 -4.05221 -0.234618 0
M  V30 3414 H 319.04 -4.30379 2.23604 0
M  V30 3415 H 314.919 -4.49466 1.02477 0
M  V30 3416 H 318.463 -5.46289 4.33837 0
M  V30 3417 H 314.36 -5.65185 3.11826 0
M  V30 3418 H 315.128 -6.4552 5.03235 0
M  V30 3419 N 317.792 -0.46758 -1.50504 0
M  V30 3420 C 318.742 0.34698 -2.25344 0
M  V30 3421 C 319.726 0.964469 -1.2879 0
M  V30 3422 O 320.918 0.8776 -1.53711 0
M  V30 3423 C 318.047 1.43042 -3.1208 0
M  V30 3424 C 317.133 0.82084 -4.16081 0
M  V30 3425 N 317.524 -0.0567602 -5.05768 0
M  V30 3426 C 315.822 1.08517 -4.32597 0
M  V30 3427 C 316.523 -0.402343 -5.80307 0
M  V30 3428 N 315.499 0.221607 -5.43148 0
M  V30 3429 H 319.301 -0.329129 -2.92051 0
M  V30 3430 H 316.815 -0.281508 -1.59942 0
M  V30 3431 H 318.812 2.02712 -3.64299 0
M  V30 3432 H 317.472 2.10856 -2.46921 0
M  V30 3433 H 318.483 -0.425349 -5.1615 0
M  V30 3434 H 315.16 1.75855 -3.78657 0
M  V30 3435 H 316.55 -1.11834 -6.62528 0
M  V30 3436 N 319.27 1.56325 -0.20005 0
M  V30 3437 C 320.495 2.02548 0.44597 0
M  V30 3438 C 320.92 1.07922 1.5406 0
M  V30 3439 O 320.278 0.0635775 1.81188 0
M  V30 3440 C 320.326 3.47175 0.974761 0
M  V30 3441 O 319.43 3.55671 2.08739 0
M  V30 3442 H 318.771 0.655862 0.103638 0
M  V30 3443 H 321.301 2.02201 -0.312381 0
M  V30 3444 H 321.311 3.87067 1.2901 0
M  V30 3445 H 319.986 4.15538 0.17347 0
M  V30 3446 H 318.563 3.27657 1.78032 0
M  V30 3447 N 320.748 -0.0735177 1.57428 0
M  V30 3448 C 321.988 -0.778363 1.89 0
M  V30 3449 C 322.352 -1.7483 0.793634 0
M  V30 3450 O 323.553 -2.49811 0.992367 0
M  V30 3451 C 321.824 -1.46929 3.25802 0
M  V30 3452 S 323.383 -2.20943 3.79117 0
M  V30 3453 H 320.201 -0.258874 0.662197 0
M  V30 3454 H 322.803 -0.0345338 1.95469 0
M  V30 3455 H 321.507 -0.749532 4.03497 0
M  V30 3456 H 321.038 -2.25258 3.22525 0
M  V30 3457 H 323.053 -3.47435 3.54265 0
M  V30 3458 N 322.226 -1.5378 -0.344866 0
M  V30 3459 C 323.473 -1.70963 -1.08526 0
M  V30 3460 C 323.801 -0.472126 -1.88683 0
M  V30 3461 O 323.056 0.546116 -1.87926 0
M  V30 3462 C 323.355 -2.92407 -2.05506 0
M  V30 3463 C 323.021 -4.28066 -1.41671 0
M  V30 3464 C 321.683 -4.64951 -1.2399 0
M  V30 3465 C 324.035 -5.12344 -0.956726 0
M  V30 3466 C 321.363 -5.83733 -0.589277 0
M  V30 3467 C 323.715 -6.3179 -0.320015 0
M  V30 3468 C 322.379 -6.67372 -0.130881 0
M  V30 3469 H 321.649 -0.625598 -0.397124 0
M  V30 3470 H 324.296 -1.87995 -0.36469 0
M  V30 3471 H 322.601 -2.69973 -2.8394 0
M  V30 3472 H 324.298 -3.02895 -2.62784 0
M  V30 3473 H 320.888 -3.99034 -1.56429 0
M  V30 3474 H 325.072 -4.8438 -1.08118 0
M  V30 3475 H 320.328 -6.09877 -0.431344 0
M  V30 3476 H 324.502 -6.96386 0.0445072 0
M  V30 3477 H 322.129 -7.59273 0.375318 0
M  V30 3478 N 323.704 0.605807 -1.45491 0
M  V30 3479 C 324.951 1.36476 -1.49601 0
M  V30 3480 C 325.279 1.94007 -0.138452 0
M  V30 3481 O 324.534 1.75638 0.863114 0
M  V30 3482 C 324.833 2.53012 -2.52428 0
M  V30 3483 C 324.499 2.13617 -3.97087 0
M  V30 3484 C 323.161 2.02587 -4.36477 0
M  V30 3485 C 325.513 1.82899 -4.88055 0
M  V30 3486 C 322.841 1.59064 -5.64726 0
M  V30 3487 C 325.193 1.40861 -6.16718 0
M  V30 3488 C 323.857 1.28391 -6.55036 0
M  V30 3489 H 323.127 0.499402 -0.547429 0
M  V30 3490 H 325.774 0.684546 -1.78847 0
M  V30 3491 H 324.079 3.26379 -2.16758 0
M  V30 3492 H 325.776 3.1124 -2.52845 0
M  V30 3493 H 322.366 2.23129 -3.65939 0
M  V30 3494 H 326.55 1.90317 -4.58359 0
M  V30 3495 H 321.806 1.48034 -5.93208 0
M  V30 3496 H 325.98 1.16138 -6.86648 0
M  V30 3497 H 323.607 0.944403 -7.54311 0
M  V30 3498 N 325.182 1.32811 0.848464 0
M  V30 3499 C 326.431 1.23075 1.59798 0
M  V30 3500 C 326.744 -0.204419 1.94529 0
M  V30 3501 O 327.95 -0.423701 2.68173 0
M  V30 3502 C 326.406 2.15594 2.88179 0
M  V30 3503 C 326.014 3.64228 2.60849 0
M  V30 3504 C 327.758 2.14709 3.66197 0
M  V30 3505 C 325.665 4.48689 3.85269 0
M  V30 3506 H 324.595 0.457091 0.599653 0
M  V30 3507 H 327.246 1.57813 0.936342 0
M  V30 3508 H 325.628 1.73778 3.55833 0
M  V30 3509 H 326.802 4.14424 2.01467 0
M  V30 3510 H 325.117 3.67306 1.96151 0
M  V30 3511 H 327.714 2.75046 4.58534 0
M  V30 3512 H 328.057 1.13966 4.00397 0
M  V30 3513 H 328.59 2.54837 3.05455 0
M  V30 3514 H 325.329 5.5027 3.56207 0
M  V30 3515 H 324.849 4.03241 4.44024 0
M  V30 3516 H 326.528 4.62006 4.52946 0
M  V30 3517 N 326.66 -1.06551 1.16123 0
M  V30 3518 C 327.906 -1.79567 0.94252 0
M  V30 3519 C 328.239 -1.86869 -0.528547 0
M  V30 3520 O 327.514 -1.35838 -1.39206 0
M  V30 3521 C 327.797 -3.24195 1.56747 0
M  V30 3522 C 327.65 -3.24989 3.10969 0
M  V30 3523 C 328.969 -4.21678 1.25998 0
M  V30 3524 H 326.088 -0.651883 0.343828 0
M  V30 3525 H 328.73 -1.2463 1.43413 0
M  V30 3526 H 326.88 -3.71107 1.14942 0
M  V30 3527 H 328.552 -2.86258 3.61737 0
M  V30 3528 H 326.795 -2.63716 3.44436 0
M  V30 3529 H 327.466 -4.27005 3.49815 0
M  V30 3530 H 329.942 -3.83196 1.62174 0
M  V30 3531 H 328.818 -5.21146 1.7233 0
M  V30 3532 H 329.079 -4.4174 0.178367 0
M  V30 3533 N 328.138 -0.959301 -1.25041 0
M  V30 3534 C 329.366 -0.633949 -1.96948 0
M  V30 3535 C 329.781 0.794916 -1.7125 0
M  V30 3536 O 329.138 1.53231 -0.991287 0
M  V30 3537 C 329.189 -0.888805 -3.50403 0
M  V30 3538 O 328.91 -2.26149 -3.75218 0
M  V30 3539 C 330.411 -0.576482 -4.39536 0
M  V30 3540 H 327.631 -0.237263 -0.627652 0
M  V30 3541 H 330.175 -1.28495 -1.59089 0
M  V30 3542 H 328.33 -0.284145 -3.86357 0
M  V30 3543 H 328.744 -2.33514 -4.6965 0
M  V30 3544 H 330.218 -0.805314 -5.46094 0
M  V30 3545 H 330.695 0.489075 -4.36468 0
M  V30 3546 H 331.301 -1.16067 -4.09156 0
M  V30 3547 N 329.616 1.39756 -0.72842 0
M  V30 3548 C 330.846 2.04651 -0.283117 0
M  V30 3549 C 331.254 1.5502 1.08469 0
M  V30 3550 O 330.597 0.707343 1.69536 0
M  V30 3551 C 330.659 3.58947 -0.199309 0
M  V30 3552 C 330.323 4.31525 -1.5045 0
M  V30 3553 C 331.32 4.5861 -2.44894 0
M  V30 3554 C 329.005 4.70195 -1.76698 0
M  V30 3555 C 330.999 5.23366 -3.63822 0
M  V30 3556 C 328.686 5.3468 -2.95906 0
M  V30 3557 C 329.684 5.61198 -3.89289 0
M  V30 3558 O 329.372 6.24347 -5.06404 0
M  V30 3559 H 329.104 0.664777 -0.122666 0
M  V30 3560 H 331.658 1.79913 -0.990987 0
M  V30 3561 H 329.888 3.82556 0.56461 0
M  V30 3562 H 331.577 4.0534 0.213125 0
M  V30 3563 H 332.343 4.29187 -2.25883 0
M  V30 3564 H 328.222 4.48916 -1.04859 0
M  V30 3565 H 331.766 5.4398 -4.36728 0
M  V30 3566 H 327.663 5.63524 -3.14819 0
M  V30 3567 H 328.431 6.42842 -5.06652 0
M  V30 3568 N 331.094 0.475555 1.50254 0
M  V30 3569 C 332.024 -0.30611 2.31485 0
M  V30 3570 C 333.005 -0.986228 1.38591 0
M  V30 3571 O 334.19 -0.982541 1.67511 0
M  V30 3572 C 331.32 -1.38588 3.1845 0
M  V30 3573 C 330.274 -0.827115 4.19932 0
M  V30 3574 C 329.6 -2.00551 4.95665 0
M  V30 3575 C 330.9 0.16463 5.2204 0
M  V30 3576 H 332.594 0.371866 2.97082 0
M  V30 3577 H 330.14 0.180282 1.42867 0
M  V30 3578 H 332.093 -1.94023 3.74076 0
M  V30 3579 H 330.817 -2.09269 2.50747 0
M  V30 3580 H 329.476 -0.294702 3.65414 0
M  V30 3581 H 329.124 -2.6994 4.2443 0
M  V30 3582 H 328.824 -1.63784 5.64313 0
M  V30 3583 H 330.348 -2.56468 5.54127 0
M  V30 3584 H 331.762 -0.300699 5.72511 0
M  V30 3585 H 330.159 0.446813 5.98434 0
M  V30 3586 H 331.229 1.08905 4.72512 0
M  V30 3587 N 332.573 -1.56217 0.208337 0
M  V30 3588 C 333.536 -2.18455 -0.693557 0
M  V30 3589 C 334.536 -1.14268 -1.13135 0
M  V30 3590 O 335.726 -1.39577 -1.0423 0
M  V30 3591 C 332.858 -2.79727 -1.94848 0
M  V30 3592 H 334.051 -2.99519 -0.15114 0
M  V30 3593 H 331.604 -1.56245 -0.041287 0
M  V30 3594 H 332.339 -2.02497 -2.53309 0
M  V30 3595 H 332.124 -3.56009 -1.64316 0
M  V30 3596 H 333.614 -3.27475 -2.59133 0
M  V30 3597 N 334.051 0.0651679 -1.57465 0
M  V30 3598 C 335.462 0.616213 -1.76238 0
M  V30 3599 C 335.813 1.7756 -0.834689 0
M  V30 3600 O 334.938 2.1639 -0.0204156 0
M  V30 3601 C 335.533 1.12462 -3.1959 0
M  V30 3602 C 334.092 1.62147 -3.39684 0
M  V30 3603 C 333.239 0.543739 -2.71917 0
M  V30 3604 H 336.19 -0.161022 -1.57881 0
M  V30 3605 H 336.211 1.99324 -3.24114 0
M  V30 3606 H 335.723 0.280592 -3.87084 0
M  V30 3607 H 333.824 2.48854 -2.77313 0
M  V30 3608 H 333.937 1.69385 -4.48158 0
M  V30 3609 H 332.301 0.990352 -2.34657 0
M  V30 3610 H 333.084 -0.290216 -3.42071 0
M  V30 3611 N 335.529 1.53961 0.336706 0
M  V30 3612 C 336.459 1.85417 1.41925 0
M  V30 3613 C 337.44 0.709856 1.5458 0
M  V30 3614 O 338.625 0.962396 1.68676 0
M  V30 3615 C 335.755 2.06985 2.78881 0
M  V30 3616 C 334.709 3.22813 2.81026 0
M  V30 3617 C 334.035 3.29727 4.20932 0
M  V30 3618 C 335.335 4.60767 2.45949 0
M  V30 3619 H 337.029 2.76079 1.15848 0
M  V30 3620 H 334.575 1.32839 0.555859 0
M  V30 3621 H 336.528 2.27575 3.54665 0
M  V30 3622 H 335.252 1.13061 3.06406 0
M  V30 3623 H 333.911 3.0209 2.07695 0
M  V30 3624 H 333.559 2.33385 4.45579 0
M  V30 3625 H 333.259 4.07566 4.23277 0
M  V30 3626 H 334.783 3.52536 4.98549 0
M  V30 3627 H 336.197 4.81325 3.11446 0
M  V30 3628 H 334.594 5.4106 2.59566 0
M  V30 3629 H 335.664 4.6391 1.41122 0
M  V30 3630 N 337.007 -0.598083 1.45811 0
M  V30 3631 C 338.255 -1.35413 1.50026 0
M  V30 3632 C 338.576 -1.94444 0.147177 0
M  V30 3633 O 337.846 -1.77701 -0.824571 0
M  V30 3634 H 336.426 -0.502727 0.552517 0
M  V30 3635 H 339.088 -0.701606 1.81834 0
M  V30 3636 H 338.184 -2.16871 2.2444 0
M  V30 3637 N 338.485 -1.33259 -0.841409 0
M  V30 3638 C 339.415 -1.25926 -1.96634 0
M  V30 3639 C 340.396 -0.140349 -1.6952 0
M  V30 3640 O 341.581 -0.329707 -1.91381 0
M  V30 3641 C 338.711 -0.99512 -3.32738 0
M  V30 3642 C 337.665 -2.0767 -3.74242 0
M  V30 3643 C 336.991 -1.66474 -5.08125 0
M  V30 3644 C 338.291 -3.49318 -3.88297 0
M  V30 3645 H 339.985 -2.20046 -2.03027 0
M  V30 3646 H 337.531 -1.05931 -0.975425 0
M  V30 3647 H 339.484 -0.930323 -4.11002 0
M  V30 3648 H 338.208 -0.0183004 -3.26595 0
M  V30 3649 H 336.867 -2.13187 -2.98239 0
M  V30 3650 H 336.515 -0.675012 -4.9845 0
M  V30 3651 H 336.215 -2.3885 -5.36865 0
M  V30 3652 H 337.739 -1.61455 -5.88867 0
M  V30 3653 H 339.153 -3.46316 -4.56879 0
M  V30 3654 H 337.55 -4.20158 -4.28471 0
M  V30 3655 H 338.62 -3.8801 -2.9082 0
M  V30 3656 N 339.963 1.05934 -1.16686 0
M  V30 3657 C 340.896 2.1295 -0.820225 0
M  V30 3658 C 341.874 1.61242 0.209722 0
M  V30 3659 O 343.058 1.88271 0.0929688 0
M  V30 3660 C 340.185 3.3797 -0.22223 0
M  V30 3661 C 339.231 4.08488 -1.22637 0
M  V30 3662 S 340.064 4.58015 -2.77457 0
M  V30 3663 C 341.22 5.86292 -2.19117 0
M  V30 3664 H 341.453 2.42025 -1.72659 0
M  V30 3665 H 338.986 1.18423 -0.990722 0
M  V30 3666 H 340.944 4.10335 0.116322 0
M  V30 3667 H 339.605 3.07045 0.66196 0
M  V30 3668 H 338.798 4.98291 -0.756455 0
M  V30 3669 H 338.4 3.42154 -1.51019 0
M  V30 3670 H 340.692 6.59246 -1.56209 0
M  V30 3671 H 341.635 6.38019 -3.07144 0
M  V30 3672 H 342.043 5.40497 -1.62858 0
M  V30 3673 N 341.441 0.965919 1.2453 0
M  V30 3674 C 342.404 0.499547 2.2369 0
M  V30 3675 C 343.404 -0.40294 1.5567 0
M  V30 3676 O 344.594 -0.19865 1.73064 0
M  V30 3677 C 341.726 -0.276792 3.39774 0
M  V30 3678 H 342.919 1.37613 2.66463 0
M  V30 3679 H 340.472 0.750324 1.37112 0
M  V30 3680 H 341.207 -1.17055 3.02438 0
M  V30 3681 H 340.992 0.370826 3.90343 0
M  V30 3682 H 342.482 -0.592175 4.1338 0
M  V30 3683 N 342.919 -1.39368 0.735821 0
M  V30 3684 C 343.852 -2.28155 0.0451175 0
M  V30 3685 C 344.83 -1.44433 -0.746852 0
M  V30 3686 O 346.014 -1.73823 -0.729237 0
M  V30 3687 C 343.141 -3.253 -0.943266 0
M  V30 3688 C 342.187 -4.25826 -0.239685 0
M  V30 3689 S 343.02 -5.25166 1.04693 0
M  V30 3690 C 344.176 -6.2587 0.0611639 0
M  V30 3691 H 344.409 -2.86388 0.79807 0
M  V30 3692 H 341.942 -1.45104 0.527653 0
M  V30 3693 H 343.9 -3.81789 -1.50824 0
M  V30 3694 H 342.561 -2.66085 -1.66906 0
M  V30 3695 H 341.754 -4.94229 -0.987596 0
M  V30 3696 H 341.356 -3.73141 0.253274 0
M  V30 3697 H 343.648 -6.73007 -0.778941 0
M  V30 3698 H 344.591 -7.04508 0.712362 0
M  V30 3699 H 344.999 -5.63639 -0.311602 0
M  V30 3700 N 344.397 -0.483516 -1.5 0
M  V30 3701 C 345.36 0.292965 -2.2732 0
M  V30 3702 C 346.36 0.909499 -1.32608 0
M  V30 3703 O 347.55 0.776745 -1.55924 0
M  V30 3704 C 344.682 1.41854 -3.09984 0
M  V30 3705 H 345.875 -0.385289 -2.97415 0
M  V30 3706 H 343.428 -0.237942 -1.54478 0
M  V30 3707 H 344.163 2.13148 -2.44414 0
M  V30 3708 H 343.948 0.982114 -3.79601 0
M  V30 3709 H 345.438 1.96597 -3.68429 0
M  V30 3710 N 345.875 1.56104 -0.216619 0
M  V30 3711 C 347.105 2.02269 0.420802 0
M  V30 3712 C 347.513 1.09575 1.5424 0
M  V30 3713 O 346.856 0.0967308 1.83445 0
M  V30 3714 C 346.918 3.44784 1.01806 0
M  V30 3715 C 346.582 4.56988 0.0325154 0
M  V30 3716 C 347.579 5.14225 -0.766055 0
M  V30 3717 C 345.264 5.02228 -0.0848092 0
M  V30 3718 C 347.258 6.15169 -1.6687 0
M  V30 3719 C 344.945 6.03011 -0.990994 0
M  V30 3720 C 345.943 6.59357 -1.78149 0
M  V30 3721 O 345.631 7.58179 -2.67245 0
M  V30 3722 H 345.363 0.667353 0.107776 0
M  V30 3723 H 347.917 2.02747 -0.329034 0
M  V30 3724 H 346.147 3.41359 1.81689 0
M  V30 3725 H 347.836 3.74626 1.56237 0
M  V30 3726 H 348.602 4.80126 -0.685836 0
M  V30 3727 H 344.481 4.58054 0.520349 0
M  V30 3728 H 348.025 6.59076 -2.28615 0
M  V30 3729 H 343.922 6.36532 -1.07225 0
M  V30 3730 H 344.69 7.75682 -2.61265 0
M  V30 3731 N 347.353 -0.0568162 1.57498 0
M  V30 3732 C 348.6 -0.753104 1.87975 0
M  V30 3733 C 348.928 -1.76815 0.81035 0
M  V30 3734 O 348.183 -1.94756 -0.19199 0
M  V30 3735 C 348.482 -1.48359 3.25153 0
M  V30 3736 C 348.148 -0.60713 4.46794 0
M  V30 3737 C 346.81 -0.365642 4.79809 0
M  V30 3738 C 349.162 -0.000305978 5.212 0
M  V30 3739 C 346.49 0.491905 5.84634 0
M  V30 3740 C 348.842 0.844781 6.26934 0
M  V30 3741 C 347.506 1.096 6.58441 0
M  V30 3742 H 346.776 -0.27558 0.687849 0
M  V30 3743 H 349.423 -0.0135173 1.91495 0
M  V30 3744 H 347.728 -2.29577 3.17492 0
M  V30 3745 H 349.425 -2.02739 3.45974 0
M  V30 3746 H 346.015 -0.805487 4.20963 0
M  V30 3747 H 350.199 -0.173961 4.95995 0
M  V30 3748 H 345.455 0.695131 6.07436 0
M  V30 3749 H 349.629 1.32165 6.83744 0
M  V30 3750 H 347.256 1.76224 7.39492 0
M  V30 3751 N 348.832 -1.54138 -0.328536 0
M  V30 3752 C 349.764 -1.79509 -1.4251 0
M  V30 3753 C 350.777 -0.67688 -1.48061 0
M  V30 3754 O 351.966 -0.953898 -1.50874 0
M  V30 3755 C 349.066 -1.89337 -2.81078 0
M  V30 3756 C 348.239 -3.19443 -2.98789 0
M  V30 3757 C 347.298 -3.20036 -4.17688 0
M  V30 3758 O 346.324 -3.93697 -4.11086 0
M  V30 3759 N 347.526 -2.43467 -5.26976 0
M  V30 3760 H 350.291 -2.74139 -1.21111 0
M  V30 3761 H 347.852 -1.53373 -0.518499 0
M  V30 3762 H 349.844 -1.87167 -3.58818 0
M  V30 3763 H 348.414 -1.01826 -2.95551 0
M  V30 3764 H 347.634 -3.34614 -2.08391 0
M  V30 3765 H 348.922 -4.05354 -3.07515 0
M  V30 3766 H 348.32 -1.83201 -5.35214 0
M  V30 3767 H 346.877 -2.4708 -6.03154 0
M  V30 3768 N 350.31 0.590341 -1.46126 0
M  V30 3769 C 351.559 1.34499 -1.50309 0
M  V30 3770 C 351.872 1.94977 -0.156021 0
M  V30 3771 O 353.078 2.71395 -0.0756037 0
M  V30 3772 C 351.534 2.43723 -2.64815 0
M  V30 3773 C 351.142 1.89582 -4.0591 0
M  V30 3774 C 352.886 3.20579 -2.78262 0
M  V30 3775 C 350.793 2.9639 -5.11769 0
M  V30 3776 H 349.723 0.505593 -0.559368 0
M  V30 3777 H 352.374 0.630848 -1.72315 0
M  V30 3778 H 350.756 3.17902 -2.36124 0
M  V30 3779 H 351.93 1.21997 -4.44357 0
M  V30 3780 H 350.245 1.25418 -3.97063 0
M  V30 3781 H 352.842 4.00276 -3.54519 0
M  V30 3782 H 353.185 3.72684 -1.85505 0
M  V30 3783 H 353.718 2.53505 -3.06562 0
M  V30 3784 H 350.457 2.49181 -6.06291 0
M  V30 3785 H 349.977 3.62487 -4.77873 0
M  V30 3786 H 351.656 3.60474 -5.37278 0
M  V30 3787 N 351.788 1.33704 0.83433 0
M  V30 3788 C 353.035 1.25417 1.58987 0
M  V30 3789 C 353.363 -0.178869 1.93676 0
M  V30 3790 O 352.618 -1.13723 1.59265 0
M  V30 3791 C 352.917 2.07926 2.90692 0
M  V30 3792 C 352.583 3.57066 2.75345 0
M  V30 3793 C 351.245 3.97724 2.70867 0
M  V30 3794 C 353.597 4.51817 2.59828 0
M  V30 3795 C 350.925 5.31344 2.48778 0
M  V30 3796 C 353.277 5.85604 2.39272 0
M  V30 3797 C 351.941 6.25439 2.33199 0
M  V30 3798 H 351.211 0.458934 0.581774 0
M  V30 3799 H 353.858 1.65335 0.966261 0
M  V30 3800 H 352.163 1.608 3.57282 0
M  V30 3801 H 353.86 1.98868 3.48213 0
M  V30 3802 H 350.45 3.24785 2.79665 0
M  V30 3803 H 354.634 4.21311 2.62319 0
M  V30 3804 H 349.89 5.61241 2.42526 0
M  V30 3805 H 354.064 6.58623 2.2625 0
M  V30 3806 H 351.691 7.28914 2.15843 0
M  V30 3807 N 353.266 -1.05314 1.17247 0
M  V30 3808 C 354.682 -1.30452 0.919473 0
M  V30 3809 C 354.882 -1.9703 -0.42209 0
M  V30 3810 O 353.938 -2.24311 -1.15935 0
M  V30 3811 C 355.251 -2.17551 2.07586 0
M  V30 3812 C 356.799 -2.30937 2.11275 0
M  V30 3813 C 357.274 -3.21396 3.26296 0
M  V30 3814 N 358.765 -3.28981 3.26076 0
M  V30 3815 C 359.5 -3.99095 4.11716 0
M  V30 3816 N 358.996 -4.71648 5.07465 0
M  V30 3817 N 360.789 -3.95247 3.9967 0
M  V30 3818 H 352.94 -0.604988 2.03602 0
M  V30 3819 H 355.203 -0.329368 0.888944 0
M  V30 3820 H 354.909 -1.75921 3.0454 0
M  V30 3821 H 354.783 -3.18182 2.02584 0
M  V30 3822 H 357.17 -2.71809 1.14907 0
M  V30 3823 H 357.251 -1.2994 2.20339 0
M  V30 3824 H 356.895 -2.81238 4.22927 0
M  V30 3825 H 356.825 -4.22395 3.14467 0
M  V30 3826 H 359.316 -2.77286 2.5675 0
M  V30 3827 H 359.629 -5.22705 5.6921 0
M  V30 3828 H 357.974 -4.70594 5.11435 0
M  V30 3829 H 361.165 -3.37691 3.24164 0
M  V30 3830 H 361.338 -4.4962 4.66632 0
M  V30 3831 N 354.744 -0.972509 -1.24016 0
M  V30 3832 C 355.691 -0.505969 -2.25186 0
M  V30 3833 C 356.661 0.451009 -1.5986 0
M  V30 3834 O 357.846 0.360307 -1.87367 0
M  V30 3835 C 354.986 0.193089 -3.44559 0
M  V30 3836 C 354.099 -0.803222 -4.24467 0
M  V30 3837 C 353.234 -0.0797793 -5.3114 0
M  V30 3838 C 352.273 -1.06583 -6.02749 0
M  V30 3839 N 351.41 -0.372074 -7.01113 0
M  V30 3840 H 356.25 -1.37351 -2.64459 0
M  V30 3841 H 353.787 -0.688419 -1.29997 0
M  V30 3842 H 355.745 0.615125 -4.1264 0
M  V30 3843 H 354.375 1.02455 -3.06109 0
M  V30 3844 H 353.427 -1.34368 -3.55878 0
M  V30 3845 H 354.739 -1.55494 -4.73944 0
M  V30 3846 H 353.893 0.400015 -6.0538 0
M  V30 3847 H 352.632 0.704597 -4.82583 0
M  V30 3848 H 351.637 -1.55645 -5.27309 0
M  V30 3849 H 352.862 -1.85074 -6.53395 0
M  V30 3850 H 350.808 0.393238 -6.5482 0
M  V30 3851 H 350.725 -1.06258 -7.48495 0
M  V30 3852 H 351.993 0.0855932 -7.79453 0
M  V30 3853 N 356.222 1.38976 -0.743202 0
M  V30 3854 C 357.152 2.33171 -0.123873 0
M  V30 3855 C 358.133 1.54336 0.71516 0
M  V30 3856 O 359.318 1.82696 0.658467 0
M  V30 3857 C 356.448 3.38474 0.777978 0
M  V30 3858 C 355.402 4.27979 0.0424758 0
M  V30 3859 C 354.728 5.2405 1.06189 0
M  V30 3860 C 356.028 5.10155 -1.1198 0
M  V30 3861 H 357.722 2.85213 -0.910709 0
M  V30 3862 H 355.268 1.37133 -0.439388 0
M  V30 3863 H 357.221 4.03328 1.22084 0
M  V30 3864 H 355.945 2.84891 1.59702 0
M  V30 3865 H 354.604 3.64616 -0.380853 0
M  V30 3866 H 354.252 4.66758 1.87472 0
M  V30 3867 H 353.952 5.84785 0.574485 0
M  V30 3868 H 355.476 5.9178 1.50428 0
M  V30 3869 H 356.89 5.68307 -0.75499 0
M  V30 3870 H 355.287 5.80073 -1.53738 0
M  V30 3871 H 356.357 4.44504 -1.93764 0
M  V30 3872 N 357.7 0.491464 1.49741 0
M  V30 3873 C 358.946 -0.0485431 2.03342 0
M  V30 3874 C 359.301 -1.35566 1.36527 0
M  V30 3875 O 358.594 -1.85262 0.488729 0
M  V30 3876 C 358.788 -0.267329 3.56399 0
M  V30 3877 C 358.617 1.01703 4.38049 0
M  V30 3878 C 357.387 1.56614 4.80417 0
M  V30 3879 C 359.585 1.91782 4.77204 0
M  V30 3880 N 357.567 2.7974 5.4646 0
M  V30 3881 C 358.938 2.99489 5.42868 0
M  V30 3882 C 360.993 1.92575 4.5915 0
M  V30 3883 C 359.696 4.08005 5.92389 0
M  V30 3884 C 361.722 3.0006 5.09626 0
M  V30 3885 C 361.084 4.06485 5.75282 0
M  V30 3886 H 357.183 0.0227779 0.781668 0
M  V30 3887 H 359.767 0.664204 1.8302 0
M  V30 3888 H 357.938 -0.949126 3.76625 0
M  V30 3889 H 359.67 -0.803492 3.96644 0
M  V30 3890 H 356.425 1.11256 4.60347 0
M  V30 3891 H 356.849 3.42323 5.84075 0
M  V30 3892 H 361.491 1.11605 4.07804 0
M  V30 3893 H 359.209 4.89779 6.42761 0
M  V30 3894 H 362.795 3.01681 4.97473 0
M  V30 3895 H 361.675 4.88287 6.13633 0
M  V30 3896 N 359.178 -1.55987 0.224894 0
M  V30 3897 C 360.426 -1.97998 -0.405099 0
M  V30 3898 C 360.747 -1.11387 -1.60056 0
M  V30 3899 O 360.017 -0.191645 -1.9496 0
M  V30 3900 H 358.597 -0.731235 -0.152658 0
M  V30 3901 H 361.259 -1.92279 0.318567 0
M  V30 3902 H 360.355 -3.03463 -0.729167 0
M  V30 3903 N 360.656 0.0484629 -1.57525 0
M  V30 3904 C 362.072 0.40375 -1.54409 0
M  V30 3905 C 362.272 1.77786 -0.948384 0
M  V30 3906 O 361.328 2.46189 -0.560983 0
M  V30 3907 C 362.641 0.323394 -2.98956 0
M  V30 3908 C 364.189 0.401892 -3.10409 0
M  V30 3909 C 364.664 0.351195 -4.56652 0
M  V30 3910 N 366.155 0.410576 -4.61377 0
M  V30 3911 C 366.89 0.393933 -5.72045 0
M  V30 3912 N 366.386 0.330724 -6.9201 0
M  V30 3913 N 368.179 0.442227 -5.60358 0
M  V30 3914 H 360.33 -0.851016 -1.94606 0
M  V30 3915 H 362.593 -0.321721 -0.89174 0
M  V30 3916 H 362.299 -0.62011 -3.4619 0
M  V30 3917 H 362.173 1.12463 -3.60044 0
M  V30 3918 H 364.56 1.33582 -2.63134 0
M  V30 3919 H 364.641 -0.428342 -2.52188 0
M  V30 3920 H 364.285 -0.578987 -5.04589 0
M  V30 3921 H 364.215 1.19928 -5.12762 0
M  V30 3922 H 366.706 0.462729 -3.75056 0
M  V30 3923 H 367.019 0.322592 -7.72126 0
M  V30 3924 H 365.364 0.29706 -6.94365 0
M  V30 3925 H 368.555 0.489464 -4.65534 0
M  V30 3926 H 368.728 0.425788 -6.466 0
M  V30 3927 N 362.134 1.5431 0.320358 0
M  V30 3928 C 363.066 1.80262 1.41556 0
M  V30 3929 C 364.079 0.684723 1.477 0
M  V30 3930 O 365.268 0.961886 1.50366 0
M  V30 3931 C 362.368 1.90825 2.8007 0
M  V30 3932 C 361.541 3.21023 2.97091 0
M  V30 3933 C 360.6 3.22247 4.15985 0
M  V30 3934 O 359.626 3.95871 4.08992 0
M  V30 3935 N 360.828 2.46258 5.25678 0
M  V30 3936 H 363.593 2.74778 1.19655 0
M  V30 3937 H 361.154 1.53646 0.510358 0
M  V30 3938 H 363.146 1.89067 3.57821 0
M  V30 3939 H 361.716 1.03392 2.95006 0
M  V30 3940 H 360.936 3.35715 2.06614 0
M  V30 3941 H 362.224 4.0698 3.05361 0
M  V30 3942 H 361.622 1.86037 5.34235 0
M  V30 3943 H 360.179 2.50275 6.01835 0
M  V30 3944 N 363.613 -0.582584 1.46437 0
M  V30 3945 C 364.862 -1.337 1.5102 0
M  V30 3946 C 365.175 -1.94891 0.166359 0
M  V30 3947 O 366.381 -2.71351 0.0899954 0
M  V30 3948 C 364.837 -2.42315 2.66104 0
M  V30 3949 C 364.445 -1.87427 4.06909 0
M  V30 3950 C 366.189 -3.19099 2.79958 0
M  V30 3951 C 364.096 -2.93672 5.13333 0
M  V30 3952 H 363.026 -0.502619 0.562041 0
M  V30 3953 H 365.677 -0.621701 1.72647 0
M  V30 3954 H 364.059 -3.16645 2.37807 0
M  V30 3955 H 365.233 -1.19639 4.44998 0
M  V30 3956 H 363.548 -1.2331 3.97723 0
M  V30 3957 H 366.145 -3.9839 3.56636 0
M  V30 3958 H 366.488 -3.71695 1.87479 0
M  V30 3959 H 367.021 -2.51875 3.07902 0
M  V30 3960 H 363.76 -2.45962 6.07604 0
M  V30 3961 H 363.28 -3.59948 4.79789 0
M  V30 3962 H 364.959 -3.5762 5.39182 0
M  V30 3963 N 365.091 -1.34144 -0.827227 0
M  V30 3964 C 366.502 -1.23557 -1.39966 0
M  V30 3965 C 366.853 0.140731 -1.95695 0
M  V30 3966 O 365.978 1.04087 -1.89723 0
M  V30 3967 C 366.573 -2.23708 -2.54441 0
M  V30 3968 C 365.132 -2.16924 -3.07605 0
M  V30 3969 C 364.279 -2.10549 -1.80456 0
M  V30 3970 H 367.23 -1.45573 -0.631991 0
M  V30 3971 H 367.251 -1.85157 -3.32411 0
M  V30 3972 H 366.763 -3.23866 -2.13851 0
M  V30 3973 H 364.864 -1.20107 -3.52711 0
M  V30 3974 H 364.977 -3.07988 -3.66988 0
M  V30 3975 H 363.341 -1.56203 -2.01178 0
M  V30 3976 H 364.124 -3.12535 -1.42046 0
M  V30 3977 N 366.569 1.04691 -1.17803 0
M  V30 3978 C 367.817 1.7743 -0.967617 0
M  V30 3979 C 368.138 1.88359 0.504574 0
M  V30 3980 O 367.408 1.40402 1.36617 0
M  V30 3981 H 365.988 0.657242 -0.355024 0
M  V30 3982 H 368.65 1.2638 -1.48371 0
M  V30 3983 H 367.746 2.78924 -1.40027 0
M  V30 3984 N 368.047 0.979072 1.23499 0
M  V30 3985 C 369.275 0.665202 1.95915 0
M  V30 3986 C 369.69 -0.767571 1.72493 0
M  V30 3987 O 369.047 -1.51635 1.01554 0
M  V30 3988 C 369.098 0.944438 3.48945 0
M  V30 3989 O 368.819 2.3209 3.71572 0
M  V30 3990 C 370.32 0.646336 4.38563 0
M  V30 3991 H 367.54 0.247218 0.623798 0
M  V30 3992 H 370.084 1.31009 1.57025 0
M  V30 3993 H 368.239 0.345575 3.85856 0
M  V30 3994 H 368.653 2.40957 4.65876 0
M  V30 3995 H 370.127 0.892091 5.44744 0
M  V30 3996 H 370.604 -0.419575 4.37191 0
M  V30 3997 H 371.21 1.22562 4.07258 0
M  V30 3998 N 369.525 -1.3858 0.750561 0
M  V30 3999 C 370.753 -2.04471 0.316098 0
M  V30 4000 C 371.168 -1.56606 -1.05452 0
M  V30 4001 O 370.525 -0.737784 -1.66922 0
M  V30 4002 C 370.576 -3.60025 0.326275 0
M  V30 4003 O 370.297 -4.06133 1.6428 0
M  V30 4004 C 371.798 -4.43131 -0.122429 0
M  V30 4005 H 369.018 -0.65717 0.135528 0
M  V30 4006 H 371.562 -1.77329 1.01857 0
M  V30 4007 H 369.717 -3.86014 -0.327431 0
M  V30 4008 H 370.131 -5.00547 1.56693 0
M  V30 4009 H 371.605 -5.51963 -0.0641473 0
M  V30 4010 H 372.082 -4.23333 -1.16988 0
M  V30 4011 H 372.688 -4.22323 0.50229 0
M  V30 4012 N 371.003 -0.499398 -1.49478 0
M  V30 4013 C 372.228 0.044722 -2.07352 0
M  V30 4014 C 372.653 1.30207 -1.35749 0
M  V30 4015 O 372.011 1.76516 -0.413732 0
M  V30 4016 C 372.059 0.283013 -3.59488 0
M  V30 4017 O 371.163 1.35804 -3.89398 0
M  V30 4018 H 370.504 -0.0255147 -0.66351 0
M  V30 4019 H 373.034 -0.698561 -1.92305 0
M  V30 4020 H 373.044 0.515007 -4.04737 0
M  V30 4021 H 371.719 -0.635636 -4.11014 0
M  V30 4022 H 370.296 1.11113 -3.55961 0
M  V30 4023 N 372.481 1.55866 -0.233164 0
M  V30 4024 C 373.444 2.1953 0.658715 0
M  V30 4025 C 374.444 1.16053 1.11303 0
M  V30 4026 O 375.634 1.41218 1.01996 0
M  V30 4027 C 372.766 2.82791 1.90373 0
M  V30 4028 H 373.959 2.99721 0.10347 0
M  V30 4029 H 371.512 1.56291 0.0164245 0
M  V30 4030 H 372.247 2.06501 2.50056 0
M  V30 4031 H 372.032 3.58578 1.58632 0
M  V30 4032 H 373.522 3.31556 2.53891 0
M  V30 4033 N 373.959 -0.0401083 1.57549 0
M  V30 4034 C 374.889 -1.04384 2.08869 0
M  V30 4035 C 375.87 -1.38407 0.988817 0
M  V30 4036 O 377.055 -1.47483 1.26342 0
M  V30 4037 C 374.185 -2.34808 2.55895 0
M  V30 4038 C 373.139 -2.15057 3.70047 0
M  V30 4039 C 372.465 -3.51145 4.03239 0
M  V30 4040 C 373.765 -1.54576 4.98902 0
M  V30 4041 H 375.459 -0.616666 2.92981 0
M  V30 4042 H 373.005 -0.295184 1.40942 0
M  V30 4043 H 374.958 -3.05346 2.90417 0
M  V30 4044 H 373.682 -2.79565 1.68853 0
M  V30 4045 H 372.341 -1.46954 3.35857 0
M  V30 4046 H 371.989 -3.93529 3.13279 0
M  V30 4047 H 371.689 -3.38758 4.80122 0
M  V30 4048 H 373.213 -4.23062 4.40285 0
M  V30 4049 H 374.627 -2.15017 5.31451 0
M  V30 4050 H 373.024 -1.52796 5.80322 0
M  V30 4051 H 374.094 -0.51039 4.82206 0
M  V30 4052 N 375.437 -1.54477 -0.31217 0
M  V30 4053 C 376.683 -1.73483 -1.0503 0
M  V30 4054 C 377.016 -0.513125 -1.87298 0
M  V30 4055 O 376.291 0.489864 -1.8823 0
M  V30 4056 C 376.574 -3.01723 -1.96558 0
M  V30 4057 C 376.427 -4.3417 -1.17545 0
M  V30 4058 C 377.746 -3.25772 -2.95907 0
M  V30 4059 H 374.865 -0.631222 -0.380432 0
M  V30 4060 H 377.507 -1.87184 -0.325932 0
M  V30 4061 H 375.657 -2.90174 -2.58324 0
M  V30 4062 H 377.329 -4.5762 -0.581513 0
M  V30 4063 H 375.572 -4.31159 -0.477925 0
M  V30 4064 H 376.243 -5.20143 -1.84811 0
M  V30 4065 H 378.719 -3.36857 -2.44267 0
M  V30 4066 H 377.595 -4.16838 -3.57123 0
M  V30 4067 H 377.856 -2.43537 -3.68974 0
M  V30 4068 N 376.915 0.57481 -1.46744 0
M  V30 4069 C 378.331 0.898981 -1.31873 0
M  V30 4070 C 378.531 1.99313 -0.29605 0
M  V30 4071 O 377.587 2.50728 0.298621 0
M  V30 4072 C 378.9 1.30886 -2.7072 0
M  V30 4073 C 380.448 1.42127 -2.78871 0
M  V30 4074 C 380.923 1.86478 -4.18318 0
M  V30 4075 N 382.414 1.93658 -4.20774 0
M  V30 4076 C 383.149 2.29267 -5.2557 0
M  V30 4077 N 382.645 2.63612 -6.40688 0
M  V30 4078 N 384.438 2.29889 -5.1294 0
M  V30 4079 H 376.589 -0.147839 -2.11885 0
M  V30 4080 H 378.852 -0.00347013 -0.947994 0
M  V30 4081 H 378.558 0.578853 -3.46904 0
M  V30 4082 H 378.432 2.26874 -3.01343 0
M  V30 4083 H 380.819 2.14213 -2.0297 0
M  V30 4084 H 380.9 0.443705 -2.51922 0
M  V30 4085 H 380.544 1.14968 -4.94717 0
M  V30 4086 H 380.474 2.85207 -4.42679 0
M  V30 4087 H 382.965 1.69574 -3.37718 0
M  V30 4088 H 383.278 2.89759 -7.16421 0
M  V30 4089 H 381.623 2.61232 -6.44036 0
M  V30 4090 H 384.814 2.02485 -4.22039 0
M  V30 4091 H 384.987 2.57312 -5.94722 0
M  V30 4092 N 378.394 1.34581 0.820102 0
M  V30 4093 C 379.342 1.26401 1.95258 0
M  V30 4094 C 380.336 0.161553 1.68628 0
M  V30 4095 O 381.542 0.326703 1.7701 0
M  V30 4096 H 377.917 0.392749 0.64129 0
M  V30 4097 H 379.888 2.22105 1.99279 0
M  V30 4098 C 378.637 1.03919 3.31807 0
M  V30 4099 H 377.96 1.87984 3.52848 0
M  V30 4100 H 379.4 1.02232 4.11491 0
M  V30 4101 C 377.859 -0.257433 3.35915 0
M  V30 4102 O 378.389 -1.25784 3.81499 0
M  V30 4103 N 376.595 -0.291524 2.89134 0
M  V30 4104 H 376.142 0.523161 2.52232 0
M  V30 4105 H 376.1 -1.15883 2.92264 0
M  V30 4106 N 379.872 -1.04064 1.18357 0
M  V30 4107 C 381.118 -1.77658 0.990412 0
M  V30 4108 C 381.473 -1.86446 -0.474944 0
M  V30 4109 O 380.766 -1.36153 -1.34807 0
M  V30 4110 C 380.96 -3.20634 1.57888 0
M  V30 4111 C 380.789 -3.25782 3.09994 0
M  V30 4112 C 379.559 -3.34411 3.7881 0
M  V30 4113 C 381.757 -3.13791 4.0748 0
M  V30 4114 N 379.739 -3.28809 5.18418 0
M  V30 4115 C 381.11 -3.15689 5.33611 0
M  V30 4116 C 383.165 -2.97833 3.98998 0
M  V30 4117 C 381.868 -3.03268 6.52243 0
M  V30 4118 C 383.894 -2.86759 5.17227 0
M  V30 4119 C 383.256 -2.893 6.4225 0
M  V30 4120 H 379.355 -0.661901 0.416427 0
M  V30 4121 H 381.939 -1.23968 1.50133 0
M  V30 4122 H 380.11 -3.7267 1.09414 0
M  V30 4123 H 381.842 -3.82525 1.32124 0
M  V30 4124 H 378.597 -3.40144 3.29543 0
M  V30 4125 H 379.021 -3.29448 5.91433 0
M  V30 4126 H 383.663 -2.94698 3.03171 0
M  V30 4127 H 381.381 -3.05156 7.48268 0
M  V30 4128 H 384.967 -2.75465 5.12455 0
M  V30 4129 H 383.847 -2.80818 7.32196 0
M  V30 4130 N 381.35 -0.985608 -1.22978 0
M  V30 4131 C 382.297 -0.529825 -2.24636 0
M  V30 4132 C 383.267 0.434028 -1.60329 0
M  V30 4133 O 384.452 0.340414 -1.87739 0
M  V30 4134 C 381.592 0.156533 -3.44745 0
M  V30 4135 C 380.705 -0.848197 -4.23591 0
M  V30 4136 C 379.84 -0.136109 -5.31026 0
M  V30 4137 C 378.879 -1.1297 -6.01585 0
M  V30 4138 N 378.016 -0.446415 -7.00679 0
M  V30 4139 H 382.856 -1.40148 -2.62988 0
M  V30 4140 H 380.393 -0.702168 -1.29259 0
M  V30 4141 H 382.351 0.571324 -4.1327 0
M  V30 4142 H 380.981 0.992025 -3.07179 0
M  V30 4143 H 380.033 -1.38135 -3.54433 0
M  V30 4144 H 381.345 -1.60512 -4.72268 0
M  V30 4145 H 380.499 0.335784 -6.0577 0
M  V30 4146 H 379.238 0.653373 -4.83304 0
M  V30 4147 H 378.243 -1.6123 -5.25628 0
M  V30 4148 H 379.468 -1.91993 -6.51395 0
M  V30 4149 H 377.414 0.323763 -6.55201 0
M  V30 4150 H 377.331 -1.1419 -7.47326 0
M  V30 4151 H 378.599 0.00291697 -7.795 0
M  V30 4152 N 382.828 1.3818 -0.7579 0
M  V30 4153 C 384.244 1.5353 -0.435972 0
M  V30 4154 C 384.444 1.71961 1.05032 0
M  V30 4155 O 383.5 1.73307 1.83633 0
M  V30 4156 C 384.813 2.73989 -1.23898 0
M  V30 4157 C 386.361 2.87841 -1.22949 0
M  V30 4158 C 386.836 4.11266 -2.01554 0
M  V30 4159 N 388.327 4.18352 -1.98837 0
M  V30 4160 C 389.062 5.12856 -2.5645 0
M  V30 4161 N 388.558 6.13005 -3.22794 0
M  V30 4162 N 390.351 5.05238 -2.46356 0
M  V30 4163 H 382.502 1.24467 -1.7211 0
M  V30 4164 H 384.765 0.604982 -0.729864 0
M  V30 4165 H 384.471 2.66789 -2.29165 0
M  V30 4166 H 384.345 3.67294 -0.858764 0
M  V30 4167 H 386.732 2.9452 -0.184854 0
M  V30 4168 H 386.813 1.95534 -1.64924 0
M  V30 4169 H 386.457 4.05349 -3.06031 0
M  V30 4170 H 386.387 5.02661 -1.5697 0
M  V30 4171 H 388.878 3.46628 -1.50524 0
M  V30 4172 H 389.191 6.81619 -3.64165 0
M  V30 4173 H 387.536 6.13325 -3.2689 0
M  V30 4174 H 390.727 4.25938 -1.9415 0
M  V30 4175 H 390.9 5.78707 -2.91552 0
M  V30 4176 N 384.306 0.507319 1.49211 0
M  V30 4177 C 385.717 0.0611118 1.866 0
M  V30 4178 C 386.068 -1.35488 1.41907 0
M  V30 4179 O 385.193 -2.0108 0.799726 0
M  V30 4180 C 385.788 0.104125 3.3864 0
M  V30 4181 C 384.347 -0.28677 3.75306 0
M  V30 4182 C 383.494 0.473893 2.73221 0
M  V30 4183 H 386.445 0.719775 1.41439 0
M  V30 4184 H 386.466 -0.689672 3.74198 0
M  V30 4185 H 385.978 1.13482 3.71138 0
M  V30 4186 H 384.079 -1.32046 3.48417 0
M  V30 4187 H 384.192 0.0370745 4.79086 0
M  V30 4188 H 382.556 -0.0770644 2.54583 0
M  V30 4189 H 383.339 1.50478 3.08563 0
M  V30 4190 N 385.784 -1.5574 0.241426 0
M  V30 4191 C 387.009 -2.0366 -0.392111 0
M  V30 4192 C 387.434 -1.11969 -1.51144 0
M  V30 4193 O 386.792 -0.111594 -1.80956 0
M  V30 4194 C 386.84 -3.49638 -0.882371 0
M  V30 4195 O 385.944 -3.6108 -1.99235 0
M  V30 4196 H 385.285 -0.658379 -0.0862122 0
M  V30 4197 H 387.815 -2.01302 0.365881 0
M  V30 4198 H 387.825 -3.90351 -1.18702 0
M  V30 4199 H 386.5 -4.15852 -0.0632361 0
M  V30 4200 H 385.077 -3.32262 -1.69282 0
M  V30 4201 N 387.262 0.0317525 -1.57568 0
M  V30 4202 C 388.539 0.758366 -1.803 0
M  V30 4203 C 388.919 1.93718 -0.838845 0
M  V30 4204 O 388.267 2.28187 0.119571 0
M  V30 4205 C 388.477 1.19392 -3.27943 0
M  V30 4206 C 389.825 1.61094 -3.92854 0
M  V30 4207 O 390.849 1.28857 -3.32076 0
M  V30 4208 O 389.708 2.20918 -4.99858 0
M  V30 4209 H 386.802 0.366514 -0.741348 0
M  V30 4210 H 389.348 0.00873765 -1.69698 0
M  V30 4211 H 388.12 0.352275 -3.89711 0
M  V30 4212 H 387.743 2.00365 -3.43424 0
M  V30 4213 N 388.74 1.54641 0.303973 0
M  V30 4214 C 389.672 1.81754 1.39636 0
M  V30 4215 C 390.685 0.70035 1.46966 0
M  V30 4216 O 391.874 0.97778 1.49338 0
M  V30 4217 C 388.974 1.93785 2.7803 0
M  V30 4218 C 388.147 3.24156 2.93669 0
M  V30 4219 C 387.206 3.26641 4.12544 0
M  V30 4220 O 386.232 4.00187 4.04771 0
M  V30 4221 N 387.434 2.5182 5.23036 0
M  V30 4222 H 390.199 2.76031 1.16734 0
M  V30 4223 H 387.76 1.54178 0.494033 0
M  V30 4224 H 389.752 1.92852 3.55795 0
M  V30 4225 H 388.322 1.06515 2.93893 0
M  V30 4226 H 387.542 3.37887 2.03042 0
M  V30 4227 H 388.83 4.10195 3.01027 0
M  V30 4228 H 388.228 1.91692 5.32232 0
M  V30 4229 H 386.785 2.56644 5.99147 0
M  V30 4230 N 390.218 -0.567019 1.47046 0
M  V30 4231 C 391.148 -1.68482 1.61667 0
M  V30 4232 C 392.129 -1.6358 0.466418 0
M  V30 4233 O 393.314 -1.81354 0.694574 0
M  V30 4234 C 390.444 -3.07124 1.62148 0
M  V30 4235 C 389.398 -3.26867 2.76301 0
M  V30 4236 C 388.724 -4.66196 2.61849 0
M  V30 4237 C 390.024 -3.13186 4.17986 0
M  V30 4238 H 391.718 -1.56502 2.5524 0
M  V30 4239 H 389.264 -0.751486 1.22836 0
M  V30 4240 H 391.217 -3.8516 1.70968 0
M  V30 4241 H 389.941 -3.2004 0.651287 0
M  V30 4242 H 388.6 -2.51237 2.66975 0
M  V30 4243 H 388.248 -4.75898 1.62879 0
M  V30 4244 H 387.948 -4.80356 3.38425 0
M  V30 4245 H 389.472 -5.46379 2.72584 0
M  V30 4246 H 390.886 -3.81049 4.2834 0
M  V30 4247 H 389.283 -3.3886 4.95272 0
M  V30 4248 H 390.353 -2.10057 4.3704 0
M  V30 4249 N 391.696 -1.35014 -0.812953 0
M  V30 4250 C 392.944 -1.27678 -1.56661 0
M  V30 4251 C 393.265 0.150359 -1.94419 0
M  V30 4252 O 392.535 1.08532 -1.63088 0
M  V30 4253 H 391.115 -0.469602 -0.580933 0
M  V30 4254 H 393.777 -1.69043 -0.970076 0
M  V30 4255 H 392.873 -1.88833 -2.48492 0
M  V30 4256 N 393.175 1.03435 -1.18907 0
M  V30 4257 C 394.452 1.73778 -0.89781 0
M  V30 4258 C 394.832 2.02458 0.597832 0
M  V30 4259 O 394.18 1.67482 1.55441 0
M  V30 4260 C 394.39 3.01845 -1.75187 0
M  V30 4261 C 395.738 3.7546 -1.9828 0
M  V30 4262 O 396.762 3.11759 -1.72293 0
M  V30 4263 O 395.621 4.89966 -2.42065 0
M  V30 4264 H 392.715 0.75651 -0.334098 0
M  V30 4265 H 395.261 1.09444 -1.29693 0
M  V30 4266 H 394.033 2.76836 -2.76545 0
M  V30 4267 H 393.656 3.73919 -1.35167 0
M  V30 4268 N 394.653 0.992116 1.22453 0
M  V30 4269 C 395.583 0.561677 2.26644 0
M  V30 4270 C 396.564 -0.411055 1.65059 0
M  V30 4271 O 397.749 -0.301861 1.9184 0
M  V30 4272 C 394.879 -0.125247 3.47074 0
M  V30 4273 C 393.833 0.765948 4.21091 0
M  V30 4274 C 393.159 -0.0538484 5.34673 0
M  V30 4275 C 394.459 2.06242 4.79856 0
M  V30 4276 H 396.153 1.43259 2.62902 0
M  V30 4277 H 393.699 0.690283 1.26377 0
M  V30 4278 H 395.652 -0.437764 4.1912 0
M  V30 4279 H 394.376 -1.03069 3.0991 0
M  V30 4280 H 393.035 1.0621 3.50878 0
M  V30 4281 H 392.683 -0.960188 4.9375 0
M  V30 4282 H 392.383 0.539415 5.85119 0
M  V30 4283 H 393.907 -0.360477 6.09535 0
M  V30 4284 H 395.321 1.8139 5.43848 0
M  V30 4285 H 393.718 2.60444 5.40638 0
M  V30 4286 H 394.788 2.74167 3.99951 0
M  V30 4287 N 396.131 -1.37776 0.765217 0
M  V30 4288 C 397.041 -2.34135 0.147666 0
M  V30 4289 C 398.057 -1.59854 -0.687215 0
M  V30 4290 O 399.233 -1.91983 -0.608659 0
M  V30 4291 C 396.298 -3.3901 -0.72617 0
M  V30 4292 C 395.359 -4.2912 0.124417 0
M  V30 4293 C 394.592 -5.28986 -0.707807 0
M  V30 4294 O 394.815 -5.36205 -1.94525 0
M  V30 4295 O 393.749 -6.01779 -0.12046 0
M  V30 4296 H 397.575 -2.88664 0.943758 0
M  V30 4297 H 395.16 -1.39824 0.526277 0
M  V30 4298 H 397.042 -4.03195 -1.22524 0
M  V30 4299 H 395.717 -2.86819 -1.50056 0
M  V30 4300 H 394.624 -3.68057 0.669696 0
M  V30 4301 H 395.957 -4.84598 0.861736 0
M  V30 4302 N 397.609 -0.515225 -1.4894 0
M  V30 4303 C 398.541 0.292481 -2.27326 0
M  V30 4304 C 399.554 0.917838 -1.3446 0
M  V30 4305 O 400.743 0.798772 -1.5963 0
M  V30 4306 C 397.843 1.42803 -3.07344 0
M  V30 4307 C 397.016 0.907347 -4.27885 0
M  V30 4308 C 396.075 1.92222 -4.89834 0
M  V30 4309 O 395.101 1.48506 -5.49486 0
M  V30 4310 N 396.303 3.25355 -4.80754 0
M  V30 4311 H 399.068 -0.379721 -2.97285 0
M  V30 4312 H 396.629 -0.348638 -1.58102 0
M  V30 4313 H 398.621 2.10481 -3.45658 0
M  V30 4314 H 397.191 2.00414 -2.39902 0
M  V30 4315 H 396.411 0.0550218 -3.94162 0
M  V30 4316 H 397.699 0.538108 -5.05946 0
M  V30 4317 H 397.097 3.6355 -4.33414 0
M  V30 4318 H 395.654 3.88707 -5.23211 0
M  V30 4319 N 399.087 1.5561 -0.249682 0
M  V30 4320 C 400.335 1.98618 0.373548 0
M  V30 4321 C 400.656 1.13919 1.58264 0
M  V30 4322 O 399.926 0.222637 1.94631 0
M  V30 4323 H 398.506 0.733571 0.141006 0
M  V30 4324 H 401.168 1.91748 -0.349117 0
M  V30 4325 H 400.264 3.04584 0.680796 0
M  V30 4326 N 400.565 -0.0233959 1.57583 0
M  V30 4327 C 401.495 -1.02162 2.09965 0
M  V30 4328 C 402.476 -1.3735 1.00344 0
M  V30 4329 O 403.661 -1.46135 1.27899 0
M  V30 4330 C 400.791 -2.32081 2.58371 0
M  V30 4331 C 399.745 -2.1112 3.72307 0
M  V30 4332 C 399.071 -3.46848 4.06941 0
M  V30 4333 C 400.371 -1.49276 5.00514 0
M  V30 4334 H 402.065 -0.585557 2.93618 0
M  V30 4335 H 399.611 -0.280218 1.41247 0
M  V30 4336 H 401.564 -3.02249 2.93639 0
M  V30 4337 H 400.288 -2.77758 1.71808 0
M  V30 4338 H 398.947 -1.43384 3.37397 0
M  V30 4339 H 398.595 -3.90184 3.17436 0
M  V30 4340 H 398.295 -3.33646 4.83688 0
M  V30 4341 H 399.819 -4.18369 4.44747 0
M  V30 4342 H 401.233 -2.09368 5.33702 0
M  V30 4343 H 399.63 -1.46632 5.8191 0
M  V30 4344 H 400.7 -0.459217 4.82721 0
M  V30 4345 N 402.043 -1.548 -0.295768 0
M  V30 4346 C 403.268 -1.78653 -1.05346 0
M  V30 4347 C 403.693 -0.546894 -1.79974 0
M  V30 4348 O 403.051 0.502763 -1.7419 0
M  V30 4349 C 403.099 -2.99679 -2.00561 0
M  V30 4350 O 402.203 -2.7317 -3.08953 0
M  V30 4351 H 401.544 -0.59116 -0.302367 0
M  V30 4352 H 404.074 -2.01895 -0.331598 0
M  V30 4353 H 404.084 -3.27793 -2.42932 0
M  V30 4354 H 402.759 -3.89562 -1.4565 0
M  V30 4355 H 401.336 -2.56089 -2.71059 0
M  V30 4356 N 403.521 0.559213 -1.47345 0
M  V30 4357 C 404.769 1.31388 -1.53563 0
M  V30 4358 C 405.09 1.93985 -0.198678 0
M  V30 4359 O 404.36 1.79825 0.777167 0
M  V30 4360 H 402.94 0.487901 -0.565652 0
M  V30 4361 H 405.602 0.65315 -1.8363 0
M  V30 4362 H 404.698 2.10844 -2.30111 0
M  V30 4363 N 404.999 1.35443 0.805782 0
M  V30 4364 C 405.909 1.30546 1.94923 0
M  V30 4365 C 406.925 0.210233 1.72725 0
M  V30 4366 O 408.101 0.43975 1.9654 0
M  V30 4367 C 405.166 1.07782 3.29521 0
M  V30 4368 C 404.227 2.26625 3.64609 0
M  V30 4369 C 403.46 2.04938 4.92784 0
M  V30 4370 O 403.683 1.01624 5.61274 0
M  V30 4371 O 402.617 2.9232 5.26149 0
M  V30 4372 H 406.443 2.26779 2.02002 0
M  V30 4373 H 404.028 1.15823 0.943682 0
M  V30 4374 H 405.91 0.969392 4.10098 0
M  V30 4375 H 404.585 0.146003 3.23371 0
M  V30 4376 H 403.492 2.43033 2.84404 0
M  V30 4377 H 404.825 3.18257 3.75464 0
M  V30 4378 N 406.477 -1.02803 1.19454 0
M  V30 4379 C 407.888 -1.57667 0.999899 0
M  V30 4380 C 408.239 -1.91041 -0.446956 0
M  V30 4381 O 407.364 -1.70978 -1.32648 0
M  V30 4382 C 407.959 -2.86477 1.80877 0
M  V30 4383 C 406.518 -3.37911 1.65811 0
M  V30 4384 C 405.665 -2.11343 1.79526 0
M  V30 4385 H 408.616 -0.853214 1.33813 0
M  V30 4386 H 408.637 -3.57408 1.30536 0
M  V30 4387 H 408.149 -2.62155 2.86175 0
M  V30 4388 H 406.25 -3.67218 0.63102 0
M  V30 4389 H 406.363 -4.10885 2.46395 0
M  V30 4390 H 404.727 -2.23254 1.22596 0
M  V30 4391 H 405.51 -1.89461 2.86285 0
M  V30 4392 N 407.956 -0.998596 -1.21925 0
M  V30 4393 C 408.888 -0.511879 -2.23411 0
M  V30 4394 C 409.901 0.396094 -1.57908 0
M  V30 4395 O 411.09 0.197316 -1.77406 0
M  V30 4396 C 408.19 0.276802 -3.37768 0
M  V30 4397 C 407.363 -0.628687 -4.32858 0
M  V30 4398 C 406.422 0.109272 -5.26087 0
M  V30 4399 O 405.448 -0.507237 -5.66935 0
M  V30 4400 N 406.65 1.38983 -5.63617 0
M  V30 4401 H 409.415 -1.38457 -2.658 0
M  V30 4402 H 406.976 -0.873981 -1.36283 0
M  V30 4403 H 408.968 0.77928 -3.97126 0
M  V30 4404 H 407.538 1.05063 -2.94415 0
M  V30 4405 H 406.758 -1.31175 -3.71735 0
M  V30 4406 H 408.046 -1.24514 -4.93329 0
M  V30 4407 H 407.444 1.91194 -5.32411 0
M  V30 4408 H 406.001 1.83739 -6.25367 0
M  V30 4409 N 409.434 1.37368 -0.772513 0
M  V30 4410 C 410.845 1.8231 -0.402493 0
M  V30 4411 C 411.196 1.6436 1.07146 0
M  V30 4412 O 410.321 1.15514 1.82991 0
M  V30 4413 C 410.916 3.30979 -0.723776 0
M  V30 4414 C 409.475 3.74195 -0.406802 0
M  V30 4415 C 408.622 2.59885 -0.967218 0
M  V30 4416 H 411.573 1.25829 -0.967099 0
M  V30 4417 H 411.594 3.80499 -0.00870832 0
M  V30 4418 H 411.106 3.44011 -1.7966 0
M  V30 4419 H 409.207 3.66732 0.658673 0
M  V30 4420 H 409.32 4.7027 -0.915588 0
M  V30 4421 H 407.684 2.51674 -0.391416 0
M  V30 4422 H 408.467 2.7571 -2.04546 0
M  V30 4423 N 410.912 0.523116 1.48665 0
M  V30 4424 C 412.328 0.180511 1.58576 0
M  V30 4425 C 412.528 -1.31597 1.52592 0
M  V30 4426 O 411.584 -2.0937 1.4114 0
M  V30 4427 C 412.897 0.776949 2.90489 0
M  V30 4428 C 414.445 0.745058 3.04003 0
M  V30 4429 C 414.92 1.31995 4.38567 0
M  V30 4430 N 416.411 1.28162 4.45117 0
M  V30 4431 C 417.146 1.6964 5.47731 0
M  V30 4432 N 416.642 2.18816 6.57337 0
M  V30 4433 N 418.435 1.6092 5.38573 0
M  V30 4434 H 410.586 1.4958 1.50797 0
M  V30 4435 H 412.849 0.621772 0.715614 0
M  V30 4436 H 412.555 1.82732 3.00503 0
M  V30 4437 H 412.429 0.25007 3.7637 0
M  V30 4438 H 414.816 -0.296532 2.93606 0
M  V30 4439 H 414.897 1.30933 2.1975 0
M  V30 4440 H 414.541 2.36043 4.49718 0
M  V30 4441 H 414.471 0.731418 5.21496 0
M  V30 4442 H 416.962 0.92155 3.66491 0
M  V30 4443 H 417.275 2.48478 7.31764 0
M  V30 4444 H 415.62 2.22805 6.58318 0
M  V30 4445 H 418.811 1.22304 4.5184 0
M  V30 4446 H 418.984 1.93567 6.18414 0
M  V30 4447 N 412.39 -1.55475 0.257931 0
M  V30 4448 C 413.353 -2.20551 -0.623706 0
M  V30 4449 C 414.353 -1.17809 -1.09443 0
M  V30 4450 O 415.543 -1.42823 -0.997362 0
M  V30 4451 C 412.675 -2.85784 -1.8585 0
M  V30 4452 H 413.868 -2.99848 -0.0557743 0
M  V30 4453 H 411.421 -1.56298 0.0084422 0
M  V30 4454 H 412.156 -2.10453 -2.46739 0
M  V30 4455 H 411.941 -3.61057 -1.52907 0
M  V30 4456 H 413.431 -3.35553 -2.48584 0
M  V30 4457 N 413.868 0.0150385 -1.57593 0
M  V30 4458 C 415.284 0.370907 -1.5523 0
M  V30 4459 C 415.484 1.75735 -0.985882 0
M  V30 4460 O 414.54 2.44944 -0.613077 0
M  V30 4461 C 415.853 0.259908 -2.99575 0
M  V30 4462 C 417.401 0.335959 -3.11192 0
M  V30 4463 C 417.876 0.254253 -4.57294 0
M  V30 4464 N 419.367 0.312618 -4.62144 0
M  V30 4465 C 420.102 0.272505 -5.72752 0
M  V30 4466 N 419.598 0.183864 -6.92556 0
M  V30 4467 N 421.391 0.323267 -5.6117 0
M  V30 4468 H 413.542 -0.892104 -1.92757 0
M  V30 4469 H 415.805 -0.340563 -0.884715 0
M  V30 4470 H 415.511 -0.693403 -3.44797 0
M  V30 4471 H 415.385 1.048 -3.62349 0
M  V30 4472 H 417.772 1.27971 -2.65909 0
M  V30 4473 H 417.853 -0.481739 -2.51223 0
M  V30 4474 H 417.497 -0.685887 -5.03247 0
M  V30 4475 H 417.427 1.09024 -5.15191 0
M  V30 4476 H 419.918 0.38307 -3.75953 0
M  V30 4477 H 420.231 0.15874 -7.72637 0
M  V30 4478 H 418.576 0.149708 -6.94839 0
M  V30 4479 H 421.767 0.390607 -4.66467 0
M  V30 4480 H 421.94 0.288539 -6.47357 0
M  V30 4481 N 415.346 1.54954 0.287554 0
M  V30 4482 C 416.309 1.86076 1.33823 0
M  V30 4483 C 417.309 0.734414 1.43049 0
M  V30 4484 O 418.499 1.00266 1.42452 0
M  V30 4485 C 415.631 2.05305 2.72144 0
M  V30 4486 H 416.824 2.79984 1.07465 0
M  V30 4487 H 414.377 1.47223 0.524902 0
M  V30 4488 H 415.112 1.1373 3.03704 0
M  V30 4489 H 414.897 2.873 2.66836 0
M  V30 4490 H 416.387 2.30706 3.48087 0
M  V30 4491 N 416.824 -0.551391 1.4764 0
M  V30 4492 C 418.071 -1.3083 1.54563 0
M  V30 4493 C 418.399 -1.93359 0.210361 0
M  V30 4494 O 417.654 -1.78721 -0.797332 0
M  V30 4495 C 417.953 -2.43469 2.61644 0
M  V30 4496 C 417.619 -1.98732 4.04742 0
M  V30 4497 C 416.281 -1.86248 4.43695 0
M  V30 4498 C 418.633 -1.64659 4.94507 0
M  V30 4499 C 415.961 -1.37995 5.70241 0
M  V30 4500 C 418.313 -1.17875 6.21521 0
M  V30 4501 C 416.977 -1.03992 6.5935 0
M  V30 4502 H 416.247 -0.478741 0.565587 0
M  V30 4503 H 418.894 -0.617697 1.81264 0
M  V30 4504 H 417.199 -3.18109 2.28722 0
M  V30 4505 H 418.896 -3.01642 2.64222 0
M  V30 4506 H 415.486 -2.09393 3.73968 0
M  V30 4507 H 419.67 -1.73174 4.65107 0
M  V30 4508 H 414.926 -1.25915 5.98294 0
M  V30 4509 H 419.1 -0.905739 6.90485 0
M  V30 4510 H 416.727 -0.663794 7.57296 0
M  V30 4511 N 418.302 -1.35869 -0.798587 0
M  V30 4512 C 419.232 -1.32118 -1.92528 0
M  V30 4513 C 420.213 -0.194209 -1.68988 0
M  V30 4514 O 421.398 -0.390426 -1.90235 0
M  V30 4515 C 418.528 -1.10047 -3.29404 0
M  V30 4516 C 417.482 -2.19471 -3.67446 0
M  V30 4517 C 416.808 -1.82555 -5.02571 0
M  V30 4518 C 418.108 -3.61495 -3.76987 0
M  V30 4519 H 419.802 -2.26394 -1.95924 0
M  V30 4520 H 417.348 -1.08981 -0.94123 0
M  V30 4521 H 419.301 -1.06061 -4.07835 0
M  V30 4522 H 418.025 -0.122195 -3.26371 0
M  V30 4523 H 416.684 -2.22568 -2.91306 0
M  V30 4524 H 416.332 -0.833249 -4.9605 0
M  V30 4525 H 416.032 -2.5581 -5.28995 0
M  V30 4526 H 417.556 -1.80108 -5.83432 0
M  V30 4527 H 418.97 -3.60676 -4.4563 0
M  V30 4528 H 417.367 -4.33577 -4.14887 0
M  V30 4529 H 418.437 -3.97065 -2.78329 0
M  V30 4530 N 419.78 1.02168 -1.19998 0
M  V30 4531 C 420.743 2.08765 -0.94604 0
M  V30 4532 C 421.743 1.60618 0.0763846 0
M  V30 4533 O 422.933 1.73472 -0.159135 0
M  V30 4534 C 420.065 3.38262 -0.423255 0
M  V30 4535 H 421.258 2.32726 -1.89153 0
M  V30 4536 H 418.811 1.1889 -1.01464 0
M  V30 4537 H 419.546 3.19974 0.527938 0
M  V30 4538 H 419.331 3.74532 -1.16053 0
M  V30 4539 H 420.821 4.16759 -0.264911 0
M  V30 4540 N 421.258 1.00505 1.21394 0
M  V30 4541 C 422.168 0.574806 2.27449 0
M  V30 4542 C 423.184 -0.382206 1.6975 0
M  V30 4543 O 424.36 -0.246027 1.99892 0
M  V30 4544 C 421.425 -0.0917414 3.46579 0
M  V30 4545 C 420.486 0.909758 4.1955 0
M  V30 4546 C 419.719 0.274924 5.32991 0
M  V30 4547 O 419.942 -0.928254 5.62796 0
M  V30 4548 O 418.876 0.985877 5.93771 0
M  V30 4549 H 422.702 1.45744 2.66444 0
M  V30 4550 H 420.287 0.773923 1.27792 0
M  V30 4551 H 422.169 -0.464551 4.18832 0
M  V30 4552 H 420.844 -0.948755 3.09484 0
M  V30 4553 H 419.751 1.33372 3.49518 0
M  V30 4554 H 421.084 1.73636 4.60555 0
M  V30 4555 N 422.737 -1.36956 0.779787 0
M  V30 4556 C 423.983 -1.99787 0.348281 0
M  V30 4557 C 424.316 -1.61756 -1.07465 0
M  V30 4558 O 423.591 -0.867639 -1.74075 0
M  V30 4559 C 423.874 -3.56597 0.50104 0
M  V30 4560 C 423.727 -4.04513 1.96697 0
M  V30 4561 C 425.046 -4.40008 -0.0898097 0
M  V30 4562 H 422.165 -0.725796 0.128022 0
M  V30 4563 H 424.807 -1.62514 0.984331 0
M  V30 4564 H 422.957 -3.88479 -0.0404347 0
M  V30 4565 H 424.629 -3.83161 2.56876 0
M  V30 4566 H 422.872 -3.56408 2.47297 0
M  V30 4567 H 423.543 -5.1352 2.02486 0
M  V30 4568 H 426.019 -4.14431 0.372293 0
M  V30 4569 H 424.895 -5.4888 0.0471605 0
M  V30 4570 H 425.156 -4.26035 -1.18096 0
M  V30 4571 N 424.215 -0.530993 -1.48385 0
M  V30 4572 C 425.162 0.231223 -2.29639 0
M  V30 4573 C 426.132 0.932864 -1.37429 0
M  V30 4574 O 427.317 0.933692 -1.66394 0
M  V30 4575 C 424.457 1.27155 -3.2082 0
M  V30 4576 C 423.57 0.578655 -4.28107 0
M  V30 4577 C 422.705 1.602 -5.06467 0
M  V30 4578 C 421.744 0.892625 -6.05556 0
M  V30 4579 N 420.881 1.86157 -6.76971 0
M  V30 4580 H 425.721 -0.467848 -2.94305 0
M  V30 4581 H 423.258 -0.242556 -1.45086 0
M  V30 4582 H 425.216 1.88703 -3.72085 0
M  V30 4583 H 423.846 1.939 -2.58075 0
M  V30 4584 H 422.898 -0.150782 -3.80101 0
M  V30 4585 H 424.21 0.0217065 -4.98795 0
M  V30 4586 H 423.364 2.29173 -5.61751 0
M  V30 4587 H 422.103 2.19285 -4.35621 0
M  V30 4588 H 421.108 0.188829 -5.49476 0
M  V30 4589 H 422.333 0.307878 -6.78402 0
M  V30 4590 H 420.279 2.44147 -6.08875 0
M  V30 4591 H 420.196 1.35608 -7.43738 0
M  V30 4592 H 421.464 2.54325 -7.36844 0
M  V30 4593 N 425.693 1.55336 -0.266172 0
M  V30 4594 C 426.625 2.19544 0.658247 0
M  V30 4595 C 427.638 1.17746 1.12427 0
M  V30 4596 O 428.827 1.44517 1.04772 0
M  V30 4597 C 425.927 2.80032 1.9088 0
M  V30 4598 C 425.1 4.07436 1.59106 0
M  V30 4599 C 424.159 4.52056 2.69317 0
M  V30 4600 O 423.185 5.18023 2.35883 0
M  V30 4601 N 424.387 4.21448 3.99201 0
M  V30 4602 H 427.152 2.99503 0.108754 0
M  V30 4603 H 424.713 1.61667 -0.0869059 0
M  V30 4604 H 426.705 3.06831 2.63888 0
M  V30 4605 H 425.275 2.04119 2.36758 0
M  V30 4606 H 424.495 3.88021 0.695243 0
M  V30 4607 H 425.783 4.90462 1.35367 0
M  V30 4608 H 425.181 3.68528 4.29189 0
M  V30 4609 H 423.738 4.53039 4.68614 0
M  V30 4610 N 427.171 -0.0066808 1.57599 0
M  V30 4611 C 428.104 -1.03397 2.03431 0
M  V30 4612 C 429.082 -1.33872 0.922877 0
M  V30 4613 O 430.266 -1.4615 1.19048 0
M  V30 4614 C 427.393 -2.36325 2.42628 0
M  V30 4615 C 426.439 -2.21557 3.64438 0
M  V30 4616 S 427.272 -1.54789 5.12641 0
M  V30 4617 C 428.428 -2.8916 5.55101 0
M  V30 4618 H 428.661 -0.643687 2.90248 0
M  V30 4619 H 426.194 -0.217349 1.52863 0
M  V30 4620 H 428.152 -3.12759 2.65879 0
M  V30 4621 H 426.813 -2.72495 1.56222 0
M  V30 4622 H 426.006 -3.1974 3.89592 0
M  V30 4623 H 425.608 -1.53267 3.41153 0
M  V30 4624 H 427.9 -3.8547 5.57153 0
M  V30 4625 H 428.843 -2.68713 6.55133 0
M  V30 4626 H 429.251 -2.92762 4.82649 0
M  V30 4627 N 428.649 -1.55105 -0.279332 0
M  V30 4628 C 430.065 -1.46803 -0.626187 0
M  V30 4629 C 430.265 -0.676939 -1.89789 0
M  V30 4630 O 429.321 -0.19326 -2.51759 0
M  V30 4631 C 430.634 -2.90962 -0.759034 0
M  V30 4632 C 432.182 -3.01138 -0.853504 0
M  V30 4633 C 432.657 -4.46539 -1.01818 0
M  V30 4634 N 434.148 -4.50341 -1.08386 0
M  V30 4635 C 434.883 -5.60053 -1.22996 0
M  V30 4636 N 434.379 -6.79645 -1.34366 0
M  V30 4637 N 436.172 -5.47783 -1.26056 0
M  V30 4638 H 428.323 -2.04996 0.555921 0
M  V30 4639 H 430.586 -0.929325 0.187239 0
M  V30 4640 H 430.292 -3.51544 0.104852 0
M  V30 4641 H 430.166 -3.39619 -1.64131 0
M  V30 4642 H 432.553 -2.40658 -1.70786 0
M  V30 4643 H 432.634 -2.55745 0.0532466 0
M  V30 4644 H 432.278 -5.0762 -0.168504 0
M  V30 4645 H 432.208 -4.89583 -1.93948 0
M  V30 4646 H 434.699 -3.64191 -1.00864 0
M  V30 4647 H 435.012 -7.59012 -1.4533 0
M  V30 4648 H 433.357 -6.82469 -1.31382 0
M  V30 4649 H 436.548 -4.53294 -1.168 0
M  V30 4650 H 436.721 -6.33331 -1.37098 0
M  V30 4651 N 430.127 0.543554 -1.4793 0
M  V30 4652 C 431.09 1.63156 -1.60975 0
M  V30 4653 C 432.09 1.53346 -0.483899 0
M  V30 4654 O 433.28 1.5726 -0.749339 0
M  V30 4655 C 430.412 3.02743 -1.56716 0
M  V30 4656 H 431.605 1.52934 -2.57975 0
M  V30 4657 H 429.158 0.764557 -1.36324 0
M  V30 4658 H 429.893 3.18484 -0.611418 0
M  V30 4659 H 429.678 3.11272 -2.38438 0
M  V30 4660 H 431.168 3.81871 -1.6901 0
M  V30 4661 N 431.605 1.3629 0.791371 0
M  V30 4662 C 433.021 1.16661 1.08914 0
M  V30 4663 C 433.221 -0.0106266 2.01497 0
M  V30 4664 O 432.277 -0.676596 2.43266 0
M  V30 4665 C 433.59 2.47656 1.70549 0
M  V30 4666 C 435.138 2.54002 1.82899 0
M  V30 4667 C 435.613 3.85078 2.47949 0
M  V30 4668 N 437.104 3.86413 2.5542 0
M  V30 4669 C 437.839 4.84572 3.06557 0
M  V30 4670 N 437.335 5.93124 3.58016 0
M  V30 4671 N 439.128 4.71994 3.05251 0
M  V30 4672 H 431.279 2.11668 0.176238 0
M  V30 4673 H 433.542 0.937486 0.140796 0
M  V30 4674 H 433.248 3.34059 1.09989 0
M  V30 4675 H 433.122 2.63319 2.70079 0
M  V30 4676 H 435.509 1.68018 2.42598 0
M  V30 4677 H 435.59 2.42239 0.821808 0
M  V30 4678 H 435.234 4.71467 1.88895 0
M  V30 4679 H 435.164 3.94135 3.49235 0
M  V30 4680 H 437.655 3.07988 2.18979 0
M  V30 4681 H 437.968 6.63999 3.95381 0
M  V30 4682 H 436.313 5.96796 3.56173 0
M  V30 4683 H 439.504 3.86321 2.64336 0
M  V30 4684 H 439.677 5.48653 3.44796 0
M  V30 4685 N 433.083 -1.0153 1.20538 0
M  V30 4686 C 434.499 -1.27461 0.96051 0
M  V30 4687 C 434.699 -1.98273 -0.359193 0
M  V30 4688 O 433.755 -2.27886 -1.0874 0
M  V30 4689 C 435.068 -2.10837 2.14402 0
M  V30 4690 C 436.616 -2.24099 2.18515 0
M  V30 4691 C 437.091 -3.10852 3.36355 0
M  V30 4692 N 438.582 -3.18441 3.36377 0
M  V30 4693 C 439.317 -3.85795 4.24205 0
M  V30 4694 N 438.813 -4.55264 5.22213 0
M  V30 4695 N 440.606 -3.82331 4.12043 0
M  V30 4696 H 432.757 -0.539907 2.05423 0
M  V30 4697 H 435.02 -0.30092 0.898972 0
M  V30 4698 H 434.726 -1.66144 3.09983 0
M  V30 4699 H 434.6 -3.11576 2.12604 0
M  V30 4700 H 436.987 -2.68016 1.23497 0
M  V30 4701 H 437.068 -1.22865 2.24361 0
M  V30 4702 H 436.712 -2.6764 4.31661 0
M  V30 4703 H 436.642 -4.12177 3.27746 0
M  V30 4704 H 439.133 -2.68978 2.65442 0
M  V30 4705 H 439.446 -5.04331 5.85551 0
M  V30 4706 H 437.791 -4.54085 5.26148 0
M  V30 4707 H 440.982 -3.27207 3.34743 0
M  V30 4708 H 441.155 -4.34547 4.807 0
M  V30 4709 N 434.561 -1.01147 -1.20859 0
M  V30 4710 C 435.508 -0.577354 -2.23462 0
M  V30 4711 C 436.478 0.399922 -1.61214 0
M  V30 4712 O 437.663 0.300515 -1.88419 0
M  V30 4713 C 434.803 0.083372 -3.44999 0
M  V30 4714 C 433.916 -0.937856 -4.21697 0
M  V30 4715 C 433.051 -0.248717 -5.30617 0
M  V30 4716 C 432.09 -1.25705 -5.99053 0
M  V30 4717 N 431.227 -0.594939 -6.99575 0
M  V30 4718 H 436.067 -1.45695 -2.59956 0
M  V30 4719 H 433.604 -0.729428 -1.27741 0
M  V30 4720 H 435.562 0.483535 -4.14388 0
M  V30 4721 H 434.192 0.926645 -3.09214 0
M  V30 4722 H 433.244 -1.45622 -3.51423 0
M  V30 4723 H 434.556 -1.70493 -4.68757 0
M  V30 4724 H 433.71 0.207215 -6.06346 0
M  V30 4725 H 432.449 0.55071 -4.84581 0
M  V30 4726 H 431.454 -1.72343 -5.2209 0
M  V30 4727 H 432.679 -2.05767 -6.47176 0
M  V30 4728 H 430.625 0.184713 -6.5574 0
M  V30 4729 H 430.542 -1.30017 -7.44736 0
M  V30 4730 H 431.81 -0.162427 -7.79331 0
M  V30 4731 N 436.039 1.36541 -0.78704 0
M  V30 4732 C 437.267 2.03561 -0.370199 0
M  V30 4733 C 437.682 1.59347 1.01263 0
M  V30 4734 O 437.039 0.781781 1.64907 0
M  V30 4735 C 437.09 3.59033 -0.421614 0
M  V30 4736 O 436.811 4.01634 -1.7499 0
M  V30 4737 C 438.312 4.433 0.00489763 0
M  V30 4738 H 435.532 0.653346 -0.152904 0
M  V30 4739 H 438.076 1.74566 -1.06522 0
M  V30 4740 H 436.231 3.86746 0.224971 0
M  V30 4741 H 436.645 4.96217 -1.69909 0
M  V30 4742 H 438.119 5.51939 -0.0822184 0
M  V30 4743 H 438.596 4.26285 1.05723 0
M  V30 4744 H 439.202 4.20843 -0.614085 0
M  V30 4745 N 437.518 0.538854 1.48102 0
M  V30 4746 C 438.481 -0.208395 2.28251 0
M  V30 4747 C 439.481 -0.859656 1.35892 0
M  V30 4748 O 440.671 -0.71834 1.58699 0
M  V30 4749 C 437.803 -1.30252 3.15035 0
M  V30 4750 H 438.996 0.495407 2.9578 0
M  V30 4751 H 436.549 0.295112 1.53489 0
M  V30 4752 H 437.284 -2.0393 2.52157 0
M  V30 4753 H 437.069 -0.840551 3.82985 0
M  V30 4754 H 438.559 -1.82787 3.75471 0
M  V30 4755 N 438.996 -1.55193 0.274407 0
M  V30 4756 C 439.943 -2.225 -0.613374 0
M  V30 4757 C 440.913 -1.19823 -1.15029 0
M  V30 4758 O 442.098 -1.48362 -1.19973 0
M  V30 4759 C 439.238 -2.94927 -1.79199 0
M  V30 4760 C 438.351 -4.12322 -1.28899 0
M  V30 4761 C 437.486 -4.72394 -2.42934 0
M  V30 4762 C 436.525 -5.81984 -1.89634 0
M  V30 4763 N 435.662 -6.36123 -2.9714 0
M  V30 4764 H 440.502 -2.97982 -0.032756 0
M  V30 4765 H 438.039 -1.47099 -0.00440146 0
M  V30 4766 H 439.997 -3.35134 -2.48478 0
M  V30 4767 H 438.627 -2.2187 -2.34465 0
M  V30 4768 H 437.679 -3.7724 -0.489327 0
M  V30 4769 H 438.991 -4.91355 -0.858587 0
M  V30 4770 H 438.145 -5.15317 -3.20208 0
M  V30 4771 H 436.884 -3.92636 -2.8929 0
M  V30 4772 H 435.889 -5.38511 -1.1084 0
M  V30 4773 H 437.114 -6.6361 -1.44215 0
M  V30 4774 H 435.06 -5.59259 -3.42878 0
M  V30 4775 H 434.977 -7.10427 -2.58515 0
M  V30 4776 H 436.245 -6.83704 -3.74391 0
M  V30 4777 N 440.474 -0.00167713 -1.576 0
M  V30 4778 C 441.407 1.02317 -2.03977 0
M  V30 4779 C 442.385 1.33381 -0.929963 0
M  V30 4780 O 443.569 1.45517 -1.19822 0
M  V30 4781 C 440.696 2.35035 -2.43878 0
M  V30 4782 C 439.742 2.19621 -3.65607 0
M  V30 4783 S 440.575 1.52068 -5.13455 0
M  V30 4784 C 441.731 2.86212 -5.56627 0
M  V30 4785 H 441.964 0.628285 -2.90585 0
M  V30 4786 H 439.497 0.209239 -1.52976 0
M  V30 4787 H 441.455 3.11345 -2.67534 0
M  V30 4788 H 440.116 2.71663 -1.57665 0
M  V30 4789 H 439.309 3.1767 -3.91282 0
M  V30 4790 H 438.911 1.51455 -3.41961 0
M  V30 4791 H 441.203 3.82509 -5.59189 0
M  V30 4792 H 442.146 2.65235 -6.56549 0
M  V30 4793 H 442.554 2.90199 -4.84195 0
M  V30 4794 N 441.952 1.55251 0.271103 0
M  V30 4795 C 442.882 1.9127 1.33933 0
M  V30 4796 C 443.863 0.77478 1.5143 0
M  V30 4797 O 445.048 1.03307 1.64442 0
M  V30 4798 C 442.178 2.18627 2.69851 0
M  V30 4799 C 441.132 3.34442 2.67081 0
M  V30 4800 C 440.458 3.47284 4.06569 0
M  V30 4801 C 441.758 4.70784 2.26185 0
M  V30 4802 H 443.452 2.80744 1.04035 0
M  V30 4803 H 440.998 1.35077 0.499017 0
M  V30 4804 H 442.951 2.42413 3.44694 0
M  V30 4805 H 441.675 1.25955 3.01335 0
M  V30 4806 H 440.334 3.10627 1.94695 0
M  V30 4807 H 439.982 2.52074 4.35279 0
M  V30 4808 H 439.682 4.25152 4.0561 0
M  V30 4809 H 441.206 3.73363 4.83148 0
M  V30 4810 H 442.62 4.94102 2.90751 0
M  V30 4811 H 441.017 5.51582 2.36384 0
M  V30 4812 H 442.087 4.69478 1.21319 0
M  V30 4813 N 443.43 -0.535701 1.48216 0
M  V30 4814 C 444.363 -1.65726 1.56876 0
M  V30 4815 C 445.341 -1.57094 0.419542 0
M  V30 4816 O 446.525 -1.77648 0.630352 0
M  V30 4817 C 443.652 -3.04096 1.49142 0
M  V30 4818 C 442.698 -3.31105 2.68834 0
M  V30 4819 S 443.531 -3.18001 4.30854 0
M  V30 4820 C 444.687 -4.58828 4.25709 0
M  V30 4821 H 444.92 -1.58129 2.51759 0
M  V30 4822 H 442.453 -0.718218 1.36678 0
M  V30 4823 H 444.411 -3.839 1.45366 0
M  V30 4824 H 443.072 -3.09139 0.556067 0
M  V30 4825 H 442.265 -4.32033 2.59545 0
M  V30 4826 H 441.867 -2.58961 2.69843 0
M  V30 4827 H 444.159 -5.5023 3.95289 0
M  V30 4828 H 445.102 -4.73172 5.26796 0
M  V30 4829 H 445.51 -4.37883 3.56257 0
M  V30 4830 N 444.908 -1.36708 -0.784132 0
M  V30 4831 C 446.154 -1.31426 -1.54451 0
M  V30 4832 C 446.487 0.10476 -1.93917 0
M  V30 4833 O 445.762 1.05934 -1.6312 0
M  V30 4834 C 446.045 -2.24189 -2.818 0
M  V30 4835 C 445.898 -3.74813 -2.48667 0
M  V30 4836 C 447.217 -2.15626 -3.83658 0
M  V30 4837 H 444.336 -0.478739 -0.560337 0
M  V30 4838 H 446.978 -1.67305 -0.900498 0
M  V30 4839 H 445.128 -1.93722 -3.36755 0
M  V30 4840 H 446.8 -4.15823 -1.99722 0
M  V30 4841 H 445.043 -3.93989 -1.81535 0
M  V30 4842 H 445.714 -4.35138 -3.39646 0
M  V30 4843 H 448.19 -2.42456 -3.38163 0
M  V30 4844 H 447.066 -2.82694 -4.70506 0
M  V30 4845 H 447.327 -1.14522 -4.27009 0
M  V30 4846 N 446.386 1.0089 -1.21074 0
M  V30 4847 C 447.632 1.74866 -1.02712 0
M  V30 4848 C 447.965 1.89178 0.438787 0
M  V30 4849 O 447.24 1.42325 1.32567 0
M  V30 4850 C 447.523 3.16347 -1.72036 0
M  V30 4851 C 447.376 3.09782 -3.26121 0
M  V30 4852 C 448.695 4.15187 -1.45973 0
M  V30 4853 H 445.814 0.634736 -0.374539 0
M  V30 4854 H 448.456 1.17646 -1.49196 0
M  V30 4855 H 446.606 3.65201 -1.32517 0
M  V30 4856 H 448.278 2.68673 -3.74983 0
M  V30 4857 H 446.521 2.46982 -3.56626 0
M  V30 4858 H 447.192 4.09829 -3.6979 0
M  V30 4859 H 449.668 3.75022 -1.80272 0
M  V30 4860 H 448.544 5.12331 -1.96999 0
M  V30 4861 H 448.805 4.40386 -0.388924 0
M  V30 4862 N 447.864 1.01787 1.20321 0
M  V30 4863 C 448.794 0.609625 2.25401 0
M  V30 4864 C 449.775 -0.375951 1.65893 0
M  V30 4865 O 450.96 -0.261101 1.92437 0
M  V30 4866 C 448.09 -0.0515995 3.47262 0
M  V30 4867 C 447.044 0.855095 4.19371 0
M  V30 4868 C 446.37 0.0595757 5.34667 0
M  V30 4869 C 447.67 2.16374 4.75373 0
M  V30 4870 H 449.364 1.48803 2.59804 0
M  V30 4871 H 446.91 0.716934 1.24884 0
M  V30 4872 H 448.863 -0.348764 4.19954 0
M  V30 4873 H 447.587 -0.964726 3.12027 0
M  V30 4874 H 446.246 1.13628 3.48546 0
M  V30 4875 H 445.894 -0.85524 4.95676 0
M  V30 4876 H 445.594 0.663406 5.83843 0
M  V30 4877 H 447.118 -0.231105 6.10162 0
M  V30 4878 H 448.532 1.92885 5.39878 0
M  V30 4879 H 446.929 2.71853 5.34991 0
M  V30 4880 H 447.999 2.82589 3.94045 0
M  V30 4881 N 449.342 -1.36122 0.79427 0
M  V30 4882 C 450.272 -2.32551 0.210328 0
M  V30 4883 C 451.253 -1.56884 -0.657386 0
M  V30 4884 O 452.438 -1.85014 -0.590207 0
M  V30 4885 C 449.568 -3.41128 -0.651819 0
M  V30 4886 C 448.522 -4.27842 0.116395 0
M  V30 4887 C 447.848 -5.2763 -0.86666 0
M  V30 4888 C 449.148 -5.05647 1.30837 0
M  V30 4889 H 450.842 -2.81636 1.01594 0
M  V30 4890 H 448.388 -1.35407 0.489981 0
M  V30 4891 H 450.341 -4.07581 -1.07031 0
M  V30 4892 H 449.065 -2.90622 -1.49019 0
M  V30 4893 H 447.724 -3.62952 0.515915 0
M  V30 4894 H 447.372 -4.73395 -1.70019 0
M  V30 4895 H 447.072 -5.86514 -0.35705 0
M  V30 4896 H 448.596 -5.96955 -1.28361 0
M  V30 4897 H 450.01 -5.65113 0.965393 0
M  V30 4898 H 448.407 -5.73967 1.75161 0
M  V30 4899 H 449.477 -4.37006 2.10128 0
M  V30 4900 N 450.82 -0.546701 -1.47814 0
M  V30 4901 C 452.066 -0.0187684 -2.02791 0
M  V30 4902 C 452.399 1.32338 -1.42128 0
M  V30 4903 O 451.674 1.85867 -0.573023 0
M  V30 4904 C 451.957 0.0854985 -3.59998 0
M  V30 4905 C 451.81 -1.283 -4.31114 0
M  V30 4906 C 453.129 0.80412 -4.32691 0
M  V30 4907 H 450.248 -0.0082946 -0.736953 0
M  V30 4908 H 452.89 -0.706962 -1.76358 0
M  V30 4909 H 451.04 0.671609 -3.82651 0
M  V30 4910 H 452.712 -1.91151 -4.19832 0
M  V30 4911 H 450.955 -1.86049 -3.91878 0
M  V30 4912 H 451.626 -1.16287 -5.39612 0
M  V30 4913 H 454.102 0.306576 -4.14969 0
M  V30 4914 H 452.978 0.846011 -5.42341 0
M  V30 4915 H 453.239 1.85802 -4.01161 0
M  V30 4916 N 452.299 1.55045 -0.282633 0
M  V30 4917 C 453.546 1.9976 0.33199 0
M  V30 4918 C 453.874 1.17105 1.55295 0
M  V30 4919 O 453.129 0.230599 1.94337 0
M  V30 4920 C 453.428 3.49422 0.750938 0
M  V30 4921 C 453.094 4.4941 -0.366228 0
M  V30 4922 C 451.756 4.76471 -0.672964 0
M  V30 4923 C 454.108 5.09054 -1.11864 0
M  V30 4924 C 451.436 5.60442 -1.73556 0
M  V30 4925 C 453.788 5.9418 -2.17102 0
M  V30 4926 C 452.452 6.19558 -2.48402 0
M  V30 4927 H 451.722 0.730974 0.121484 0
M  V30 4928 H 454.369 1.8732 -0.39791 0
M  V30 4929 H 452.674 3.59377 1.56063 0
M  V30 4930 H 454.371 3.81432 1.23736 0
M  V30 4931 H 450.961 4.2844 -0.117041 0
M  V30 4932 H 455.145 4.88165 -0.894925 0
M  V30 4933 H 450.401 5.78349 -1.983 0
M  V30 4934 H 454.575 6.39427 -2.75873 0
M  V30 4935 H 452.202 6.84417 -3.30874 0
M  V30 4936 N 453.777 0.010035 1.57597 0
M  V30 4937 C 454.74 -0.963029 2.07986 0
M  V30 4938 C 455.74 -1.26619 0.991173 0
M  V30 4939 O 456.93 -1.2097 1.25347 0
M  V30 4940 C 454.062 -2.2851 2.52974 0
M  V30 4941 H 455.255 -0.526971 2.95234 0
M  V30 4942 H 452.808 -0.237639 1.54483 0
M  V30 4943 H 453.543 -2.76784 1.69 0
M  V30 4944 H 453.328 -2.07824 3.32493 0
M  V30 4945 H 454.818 -2.98294 2.9225 0
M  V30 4946 N 455.255 -1.55392 -0.262866 0
M  V30 4947 C 456.185 -1.91978 -1.32917 0
M  V30 4948 C 457.166 -0.7828 -1.51017 0
M  V30 4949 O 458.351 -1.04178 -1.63892 0
M  V30 4950 C 455.481 -2.20055 -2.68687 0
M  V30 4951 C 454.435 -3.35854 -2.65304 0
M  V30 4952 C 453.761 -3.49435 -4.04721 0
M  V30 4953 C 455.061 -4.71977 -2.23685 0
M  V30 4954 H 456.755 -2.81292 -1.02544 0
M  V30 4955 H 454.301 -1.3534 -0.491846 0
M  V30 4956 H 456.254 -2.44237 -3.43404 0
M  V30 4957 H 454.978 -1.27551 -3.00663 0
M  V30 4958 H 453.637 -3.11655 -1.93045 0
M  V30 4959 H 453.285 -2.54379 -4.33936 0
M  V30 4960 H 452.985 -4.27297 -4.0335 0
M  V30 4961 H 454.509 -3.7592 -4.81161 0
M  V30 4962 H 455.923 -4.95637 -2.88127 0
M  V30 4963 H 454.32 -5.52828 -2.33456 0
M  V30 4964 H 455.39 -4.70115 -1.18827 0
M  V30 4965 N 456.733 0.527833 -1.48498 0
M  V30 4966 C 457.973 1.29401 -1.58224 0
M  V30 4967 C 458.337 1.90348 -0.251327 0
M  V30 4968 O 459.538 2.67868 -0.223588 0
M  V30 4969 C 457.809 2.35266 -2.69044 0
M  V30 4970 S 459.368 3.2158 -2.98549 0
M  V30 4971 H 456.186 0.440138 -0.558391 0
M  V30 4972 H 458.788 0.601079 -1.8603 0
M  V30 4973 H 457.492 1.88975 -3.64303 0
M  V30 4974 H 457.023 3.09263 -2.43146 0
M  V30 4975 H 459.038 4.35391 -2.38011 0
M  V30 4976 N 458.211 1.37122 0.776871 0
M  V30 4977 C 459.441 1.35034 1.56363 0
M  V30 4978 C 459.849 -0.0674681 1.8908 0
M  V30 4979 O 459.192 -1.03826 1.51545 0
M  V30 4980 C 459.254 2.11894 2.90415 0
M  V30 4981 C 458.918 3.60897 2.80362 0
M  V30 4982 C 459.915 4.54887 2.51742 0
M  V30 4983 C 457.6 4.03951 2.98545 0
M  V30 4984 C 459.594 5.89909 2.41426 0
M  V30 4985 C 457.281 5.3906 2.87849 0
M  V30 4986 C 458.279 6.31852 2.5933 0
M  V30 4987 O 457.967 7.64479 2.48651 0
M  V30 4988 H 457.699 0.464402 0.49123 0
M  V30 4989 H 460.253 1.80992 0.971127 0
M  V30 4990 H 458.483 1.60618 3.51765 0
M  V30 4991 H 460.172 2.02505 3.51776 0
M  V30 4992 H 460.938 4.22934 2.37385 0
M  V30 4993 H 456.817 3.3209 3.19746 0
M  V30 4994 H 460.361 6.62304 2.19086 0
M  V30 4995 H 456.258 5.70617 3.01773 0
M  V30 4996 H 457.026 7.74742 2.64039 0
M  V30 4997 N 459.689 -1.00246 1.21608 0
M  V30 4998 C 460.619 -2.10921 1.00172 0
M  V30 4999 C 461.6 -1.69938 -0.0741587 0
M  V30 5000 O 462.785 -1.94009 0.0861753 0
M  V30 5001 C 459.915 -3.42618 0.568355 0
M  V30 5002 C 458.869 -3.97407 1.58909 0
M  V30 5003 C 458.195 -5.25038 1.01187 0
M  V30 5004 C 459.495 -4.2918 2.97661 0
M  V30 5005 H 461.189 -2.29112 1.92739 0
M  V30 5006 H 458.735 -1.10101 0.928102 0
M  V30 5007 H 460.688 -4.19444 0.405555 0
M  V30 5008 H 459.412 -3.24227 -0.392961 0
M  V30 5009 H 458.071 -3.22703 1.73949 0
M  V30 5010 H 457.719 -5.02982 0.0421965 0
M  V30 5011 H 457.419 -5.62661 1.6937 0
M  V30 5012 H 458.943 -6.04507 0.860448 0
M  V30 5013 H 460.357 -4.96839 2.86049 0
M  V30 5014 H 458.754 -4.77952 3.6288 0
M  V30 5015 H 459.824 -3.3735 3.48315 0
M  V30 5016 N 461.167 -1.02423 -1.1978 0
M  V30 5017 C 462.578 -0.748389 -1.71044 0
M  V30 5018 C 462.929 0.732398 -1.82017 0
M  V30 5019 O 462.054 1.57116 -1.48807 0
M  V30 5020 C 462.649 -1.35187 -3.1066 0
M  V30 5021 C 461.208 -1.12472 -3.59203 0
M  V30 5022 C 460.355 -1.45283 -2.36195 0
M  V30 5023 H 463.306 -1.19275 -1.04686 0
M  V30 5024 H 463.327 -0.746408 -3.73107 0
M  V30 5025 H 462.839 -2.4296 -3.02642 0
M  V30 5026 H 460.94 -0.0649983 -3.72543 0
M  V30 5027 H 461.053 -1.81016 -4.43588 0
M  V30 5028 H 459.417 -0.872034 -2.39307 0
M  V30 5029 H 460.2 -2.54129 -2.30811 0
M  V30 5030 N 462.645 1.35699 -0.801477 0
M  V30 5031 C 463.894 1.98165 -0.375979 0
M  V30 5032 C 464.207 1.64306 1.06127 0
M  V30 5033 O 465.413 2.20097 1.58964 0
M  V30 5034 C 463.869 3.54497 -0.621305 0
M  V30 5035 C 463.477 3.9727 -2.07076 0
M  V30 5036 C 465.221 4.23697 -0.26091 0
M  V30 5037 C 463.128 5.46427 -2.26211 0
M  V30 5038 H 462.058 0.741478 -0.136844 0
M  V30 5039 H 464.709 1.54834 -0.984814 0
M  V30 5040 H 463.091 3.95958 0.0574112 0
M  V30 5041 H 464.265 3.66974 -2.78687 0
M  V30 5042 H 462.58 3.40943 -2.39054 0
M  V30 5043 H 465.177 5.33334 -0.381994 0
M  V30 5044 H 465.52 4.0869 0.792344 0
M  V30 5045 H 466.053 3.87639 -0.893339 0
M  V30 5046 H 462.792 5.66396 -3.29963 0
M  V30 5047 H 462.312 5.78309 -1.59119 0
M  V30 5048 H 463.991 6.12819 -2.07513 0
M  V30 5049 N 464.123 0.554532 1.47522 0
M  V30 5050 C 465.348 0.0322661 2.07375 0
M  V30 5051 C 465.773 -1.25079 1.40488 0
M  V30 5052 O 465.131 -1.74859 0.47896 0
M  V30 5053 C 465.179 -0.149397 3.6029 0
M  V30 5054 O 464.283 -1.21259 3.9417 0
M  V30 5055 H 463.624 0.0501228 0.662106 0
M  V30 5056 H 466.154 0.769452 1.8958 0
M  V30 5057 H 466.164 -0.364437 4.06369 0
M  V30 5058 H 464.839 0.787743 4.08372 0
M  V30 5059 H 463.416 -0.97825 3.5984 0
M  V30 5060 N 465.601 -1.54893 0.290851 0
M  V30 5061 C 466.847 -2.0023 -0.321867 0
M  V30 5062 C 467.18 -1.179 -1.54316 0
M  V30 5063 O 466.455 -0.25293 -1.92848 0
M  V30 5064 C 466.738 -3.53456 -0.688515 0
M  V30 5065 C 466.591 -4.46532 0.541209 0
M  V30 5066 C 467.91 -4.13057 -1.51895 0
M  V30 5067 H 465.029 -0.727891 -0.115515 0
M  V30 5068 H 467.671 -1.85722 0.400931 0
M  V30 5069 H 465.821 -3.6595 -1.30433 0
M  V30 5070 H 467.493 -4.4596 1.17973 0
M  V30 5071 H 465.736 -4.17545 1.17636 0
M  V30 5072 H 466.407 -5.51475 0.240675 0
M  V30 5073 H 468.883 -4.03937 -0.99872 0
M  V30 5074 H 467.759 -5.20448 -1.74429 0
M  V30 5075 H 468.02 -3.64284 -2.50498 0
M  V30 5076 N 467.08 -0.0183926 -1.57589 0
M  V30 5077 C 468.01 0.965596 -2.12599 0
M  V30 5078 C 468.991 1.34641 -1.0395 0
M  V30 5079 O 470.176 1.42693 -1.31729 0
M  V30 5080 C 467.306 2.25149 -2.64434 0
M  V30 5081 C 466.26 2.01175 -3.77773 0
M  V30 5082 C 465.586 3.35937 -4.15994 0
M  V30 5083 C 466.886 1.35953 -5.04296 0
M  V30 5084 H 468.58 0.507504 -2.95067 0
M  V30 5085 H 466.126 0.242671 -1.41941 0
M  V30 5086 H 468.079 2.94357 -3.01549 0
M  V30 5087 H 466.803 2.73105 -1.79112 0
M  V30 5088 H 465.462 1.34388 -3.4108 0
M  V30 5089 H 465.11 3.81631 -3.27669 0
M  V30 5090 H 464.81 3.20705 -4.92364 0
M  V30 5091 H 466.334 4.0643 -4.55683 0
M  V30 5092 H 467.748 1.95144 -5.39065 0
M  V30 5093 H 466.145 1.31152 -5.85593 0
M  V30 5094 H 467.215 0.331071 -4.83768 0
M  V30 5095 N 468.558 1.5553 0.254621 0
M  V30 5096 C 469.506 1.9048 1.33492 0
M  V30 5097 C 470.5 0.78304 1.50216 0
M  V30 5098 O 471.706 0.967582 1.51782 0
M  V30 5099 H 468.081 0.604846 0.44684 0
M  V30 5100 H 470.052 2.80688 1.01275 0
M  V30 5101 C 468.801 2.20928 2.68489 0
M  V30 5102 H 468.124 3.06742 2.56417 0
M  V30 5103 H 469.564 2.49291 3.42972 0
M  V30 5104 C 468.023 1.023 3.20993 0
M  V30 5105 O 468.553 0.267027 4.00811 0
M  V30 5106 N 466.759 0.815714 2.78917 0
M  V30 5107 H 466.306 1.43217 2.14119 0
M  V30 5108 H 466.264 0.0236532 3.14391 0
M  V30 5109 N 470.036 -0.519951 1.48776 0
M  V30 5110 C 471.282 -1.27711 1.57536 0
M  V30 5111 C 471.615 -1.92547 0.252866 0
M  V30 5112 O 470.89 -1.7979 -0.742021 0
M  V30 5113 C 471.173 -2.35875 2.72094 0
M  V30 5114 C 471.026 -1.75664 4.1408 0
M  V30 5115 C 472.345 -3.37575 2.82367 0
M  V30 5116 H 469.464 -0.462971 0.573434 0
M  V30 5117 H 472.106 -0.578194 1.80989 0
M  V30 5118 H 470.256 -2.95488 2.52228 0
M  V30 5119 H 471.928 -1.20025 4.45412 0
M  V30 5120 H 470.171 -1.06154 4.20611 0
M  V30 5121 H 470.842 -2.54029 4.90075 0
M  V30 5122 H 473.318 -2.87929 3.00393 0
M  V30 5123 H 472.194 -4.1064 3.64233 0
M  V30 5124 H 472.455 -3.98743 1.90936 0
M  V30 5125 N 471.514 -1.37532 -0.769588 0
M  V30 5126 C 472.444 -1.36172 -1.89682 0
M  V30 5127 C 473.425 -0.23001 -1.68538 0
M  V30 5128 O 474.61 -0.43069 -1.89364 0
M  V30 5129 C 471.74 -1.1701 -3.26995 0
M  V30 5130 C 470.694 -2.27216 -3.62708 0
M  V30 5131 C 470.02 -1.93174 -4.98586 0
M  V30 5132 C 471.32 -3.6941 -3.69234 0
M  V30 5133 H 473.014 -2.30499 -1.91078 0
M  V30 5134 H 470.56 -1.10953 -0.917902 0
M  V30 5135 H 472.513 -1.14688 -4.05493 0
M  V30 5136 H 471.237 -0.191395 -3.26039 0
M  V30 5137 H 469.896 -2.28697 -2.86519 0
M  V30 5138 H 469.544 -0.938281 -4.94171 0
M  V30 5139 H 469.244 -2.66973 -5.23449 0
M  V30 5140 H 470.768 -1.92443 -5.79481 0
M  V30 5141 H 472.182 -3.70047 -4.37879 0
M  V30 5142 H 470.579 -4.4228 -4.05597 0
M  V30 5143 H 471.649 -4.0288 -2.69844 0
M  V30 5144 N 472.992 0.995999 -1.22138 0
M  V30 5145 C 473.939 2.08551 -0.988687 0
M  V30 5146 C 474.909 1.65864 0.0885021 0
M  V30 5147 O 476.094 1.90704 -0.0604589 0
M  V30 5148 C 473.234 3.40374 -0.569191 0
M  V30 5149 C 472.347 3.96421 -1.71681 0
M  V30 5150 C 471.482 5.1639 -1.2456 0
M  V30 5151 C 470.521 5.64567 -2.36497 0
M  V30 5152 N 469.658 6.75777 -1.90445 0
M  V30 5153 H 474.498 2.2779 -1.92135 0
M  V30 5154 H 472.035 1.1168 -0.957388 0
M  V30 5155 H 473.993 4.16068 -0.307166 0
M  V30 5156 H 472.623 3.21145 0.326462 0
M  V30 5157 H 471.675 3.17628 -2.09324 0
M  V30 5158 H 472.987 4.2816 -2.55891 0
M  V30 5159 H 472.141 5.99362 -0.940774 0
M  V30 5160 H 470.88 4.86266 -0.373662 0
M  V30 5161 H 469.885 4.80185 -2.67772 0
M  V30 5162 H 471.11 5.96716 -3.24202 0
M  V30 5163 H 469.056 6.47443 -1.05609 0
M  V30 5164 H 468.973 7.06818 -2.68223 0
M  V30 5165 H 470.241 7.62262 -1.63022 0
M  V30 5166 N 474.47 1.03057 1.19235 0
M  V30 5167 C 475.886 0.747947 1.40989 0
M  V30 5168 C 476.086 -0.666752 1.90149 0
M  V30 5169 O 475.142 -1.43249 2.07933 0
M  V30 5170 C 476.455 1.7855 2.41951 0
M  V30 5171 C 478.003 1.80524 2.55695 0
M  V30 5172 C 478.478 2.83243 3.59913 0
M  V30 5173 N 479.969 2.8207 3.67411 0
M  V30 5174 C 480.704 3.58204 4.47747 0
M  V30 5175 N 480.2 4.44057 5.31775 0
M  V30 5176 N 481.993 3.46738 4.42413 0
M  V30 5177 H 474.144 1.94367 0.856468 0
M  V30 5178 H 476.407 0.840412 0.438647 0
M  V30 5179 H 476.113 2.79973 2.12857 0
M  V30 5180 H 475.987 1.6092 3.41152 0
M  V30 5181 H 478.374 0.79778 2.84112 0
M  V30 5182 H 478.455 2.02229 1.56643 0
M  V30 5183 H 478.099 3.84161 3.32239 0
M  V30 5184 H 478.029 2.58795 4.5862 0
M  V30 5185 H 480.52 2.19803 3.074 0
M  V30 5186 H 480.833 4.98884 5.90199 0
M  V30 5187 H 479.178 4.48129 5.3123 0
M  V30 5188 H 482.369 2.79077 3.75811 0
M  V30 5189 H 482.542 4.06322 5.04783 0
M  V30 5190 N 475.948 -1.35272 0.808662 0
M  V30 5191 C 477.194 -1.99003 0.390581 0
M  V30 5192 C 477.527 -1.63999 -1.0401 0
M  V30 5193 O 476.802 -0.904368 -1.72196 0
M  V30 5194 C 477.085 -3.55454 0.576566 0
M  V30 5195 C 476.938 -4.00249 2.05233 0
M  V30 5196 C 478.257 -4.401 0.00354277 0
M  V30 5197 H 475.376 -0.722917 0.143388 0
M  V30 5198 H 478.018 -1.6039 1.01858 0
M  V30 5199 H 476.168 -3.88477 0.0419766 0
M  V30 5200 H 477.84 -3.77626 2.64946 0
M  V30 5201 H 476.083 -3.51082 2.54801 0
M  V30 5202 H 476.754 -5.0911 2.13333 0
M  V30 5203 H 479.23 -4.13548 0.460117 0
M  V30 5204 H 478.106 -5.48656 0.163575 0
M  V30 5205 H 478.367 -4.28444 -1.09032 0
M  V30 5206 N 477.426 -0.562348 -1.47226 0
M  V30 5207 C 478.673 -0.0402165 -2.0246 0
M  V30 5208 C 479.001 1.31169 -1.43614 0
M  V30 5209 O 478.256 1.86805 -0.5833 0
M  V30 5210 C 478.555 0.0969817 -3.57268 0
M  V30 5211 C 478.221 -1.1847 -4.35058 0
M  V30 5212 C 476.883 -1.53588 -4.56031 0
M  V30 5213 C 479.235 -2.03378 -4.79882 0
M  V30 5214 C 476.563 -2.73452 -5.19077 0
M  V30 5215 C 478.915 -3.2245 -5.44251 0
M  V30 5216 C 477.579 -3.57876 -5.63455 0
M  V30 5217 H 476.849 -0.0147163 -0.740854 0
M  V30 5218 H 479.496 -0.734895 -1.76838 0
M  V30 5219 H 477.801 0.87466 -3.81912 0
M  V30 5220 H 479.498 0.516408 -3.97661 0
M  V30 5221 H 476.088 -0.90126 -4.19017 0
M  V30 5222 H 480.272 -1.77553 -4.63453 0
M  V30 5223 H 475.528 -3.01062 -5.32139 0
M  V30 5224 H 479.702 -3.88526 -5.77945 0
M  V30 5225 H 477.329 -4.50849 -6.12078 0
M  V30 5226 N 478.904 1.54736 -0.299062 0
M  V30 5227 C 480.152 1.99706 0.31017 0
M  V30 5228 C 480.473 1.18896 1.54559 0
M  V30 5229 O 479.743 0.284445 1.93824 0
M  V30 5230 H 478.323 0.737686 0.117596 0
M  V30 5231 H 480.985 1.9054 -0.409943 0
M  V30 5232 H 480.081 3.06596 0.58355 0
M  V30 5233 N 480.382 0.0267497 1.57577 0
M  V30 5234 C 481.315 -0.99059 2.05579 0
M  V30 5235 C 482.293 -1.31884 0.951065 0
M  V30 5236 O 483.477 -1.43592 1.22121 0
M  V30 5237 C 480.604 -2.31125 2.47586 0
M  V30 5238 C 479.65 -2.13777 3.69055 0
M  V30 5239 S 480.483 -1.4388 5.15809 0
M  V30 5240 C 481.639 -2.77321 5.6111 0
M  V30 5241 H 481.872 -0.581976 2.91548 0
M  V30 5242 H 479.405 -0.184876 1.53289 0
M  V30 5243 H 481.363 -3.07049 2.72454 0
M  V30 5244 H 480.024 -2.6912 1.61967 0
M  V30 5245 H 479.217 -3.11405 3.96287 0
M  V30 5246 H 478.819 -1.45996 3.44327 0
M  V30 5247 H 481.111 -3.73565 5.65204 0
M  V30 5248 H 482.054 -2.54756 6.60685 0
M  V30 5249 H 482.462 -2.82459 4.88751 0
M  V30 5250 N 481.861 -1.55662 -0.24637 0
M  V30 5251 C 483.108 -1.77519 -0.974335 0
M  V30 5252 C 483.436 -0.591165 -1.85298 0
M  V30 5253 O 482.691 0.425497 -1.91018 0
M  V30 5254 C 482.99 -3.04885 -1.86494 0
M  V30 5255 C 482.656 -4.36209 -1.14161 0
M  V30 5256 C 481.318 -4.71896 -0.941701 0
M  V30 5257 C 483.67 -5.17391 -0.628957 0
M  V30 5258 C 480.998 -5.86299 -0.216852 0
M  V30 5259 C 483.35 -6.32546 0.0824273 0
M  V30 5260 C 482.014 -6.66853 0.293807 0
M  V30 5261 H 481.284 -0.649588 -0.356535 0
M  V30 5262 H 483.931 -1.89934 -0.244394 0
M  V30 5263 H 482.236 -2.87484 -2.66196 0
M  V30 5264 H 483.933 -3.18994 -2.42989 0
M  V30 5265 H 480.523 -4.08174 -1.30736 0
M  V30 5266 H 484.707 -4.90276 -0.770943 0
M  V30 5267 H 479.963 -6.11385 -0.0426124 0
M  V30 5268 H 484.137 -6.94693 0.487292 0
M  V30 5269 H 481.764 -7.55349 0.857428 0
M  V30 5270 N 483.339 0.512053 -1.4905 0
M  V30 5271 C 484.755 0.84224 -1.35567 0
M  V30 5272 C 484.955 1.97878 -0.380319 0
M  V30 5273 O 484.011 2.51769 0.19201 0
M  V30 5274 C 485.324 1.19286 -2.76028 0
M  V30 5275 C 486.872 1.30171 -2.84648 0
M  V30 5276 C 487.347 1.68568 -4.25851 0
M  V30 5277 N 488.838 1.75638 -4.28609 0
M  V30 5278 C 489.573 2.06769 -5.34821 0
M  V30 5279 N 489.069 2.36201 -6.51292 0
M  V30 5280 N 490.862 2.07927 -5.22229 0
M  V30 5281 H 483.013 -0.237574 -2.11067 0
M  V30 5282 H 485.276 -0.0436747 -0.946993 0
M  V30 5283 H 484.982 0.431199 -3.49047 0
M  V30 5284 H 484.856 2.13889 -3.10695 0
M  V30 5285 H 487.243 2.05411 -2.11873 0
M  V30 5286 H 487.324 0.336457 -2.53578 0
M  V30 5287 H 486.968 0.938824 -4.99148 0
M  V30 5288 H 486.898 2.66174 -4.54377 0
M  V30 5289 H 489.389 1.55097 -3.44606 0
M  V30 5290 H 489.702 2.59112 -7.28066 0
M  V30 5291 H 488.047 2.33681 -6.54536 0
M  V30 5292 H 491.238 1.84403 -4.30248 0
M  V30 5293 H 491.411 2.31856 -6.05101 0
M  V30 5294 N 484.817 1.37938 0.762283 0
M  V30 5295 C 485.749 1.30349 1.88525 0
M  V30 5296 C 486.762 0.217402 1.61342 0
M  V30 5297 O 487.951 0.474291 1.72084 0
M  V30 5298 C 485.051 0.994844 3.23969 0
M  V30 5299 C 484.224 2.18829 3.78725 0
M  V30 5300 C 483.283 1.84844 4.92665 0
M  V30 5301 O 482.309 2.57244 5.07754 0
M  V30 5302 N 483.511 0.798201 5.74986 0
M  V30 5303 H 486.276 2.27114 1.95549 0
M  V30 5304 H 483.837 1.31686 0.941825 0
M  V30 5305 H 485.829 0.748168 3.97724 0
M  V30 5306 H 484.399 0.115446 3.12387 0
M  V30 5307 H 483.619 2.59615 2.96637 0
M  V30 5308 H 484.907 2.98497 4.1204 0
M  V30 5309 H 484.305 0.197611 5.65355 0
M  V30 5310 H 482.862 0.611396 6.48926 0
M  V30 5311 N 486.295 -0.989507 1.22664 0
M  V30 5312 C 487.258 -2.06183 1.00106 0
M  V30 5313 C 488.258 -1.60765 -0.0337726 0
M  V30 5314 O 489.448 -1.72989 0.205072 0
M  V30 5315 C 486.58 -3.37021 0.51279 0
M  V30 5316 H 487.773 -2.27629 1.95256 0
M  V30 5317 H 485.326 -1.16158 1.0458 0
M  V30 5318 H 486.061 -3.21261 -0.442917 0
M  V30 5319 H 485.846 -3.71323 1.25942 0
M  V30 5320 H 487.336 -4.1591 0.375315 0
M  V30 5321 N 487.773 -1.03688 -1.18687 0
M  V30 5322 C 488.998 -0.757819 -1.93059 0
M  V30 5323 C 489.423 0.678353 -1.75442 0
M  V30 5324 O 488.781 1.46938 -1.06203 0
M  V30 5325 C 488.829 -1.12423 -3.42627 0
M  V30 5326 O 487.933 -0.247505 -4.11657 0
M  V30 5327 H 487.274 -0.279245 -0.602427 0
M  V30 5328 H 489.804 -1.3857 -1.5053 0
M  V30 5329 H 489.814 -1.08454 -3.93322 0
M  V30 5330 H 488.489 -2.17049 -3.54771 0
M  V30 5331 H 487.066 -0.34649 -3.71287 0
M  V30 5332 N 489.251 1.34841 -0.815825 0
M  V30 5333 C 490.528 1.92908 -0.323416 0
M  V30 5334 C 490.908 1.74479 1.18828 0
M  V30 5335 O 490.256 1.11928 1.99209 0
M  V30 5336 C 490.466 3.40957 -0.744952 0
M  V30 5337 C 491.814 4.18107 -0.739716 0
M  V30 5338 O 492.838 3.49511 -0.68708 0
M  V30 5339 O 491.697 5.40517 -0.806456 0
M  V30 5340 H 488.791 0.822436 -0.0867646 0
M  V30 5341 H 491.337 1.4386 -0.90014 0
M  V30 5342 H 490.109 3.4814 -1.78646 0
M  V30 5343 H 489.732 3.97341 -0.143535 0
M  V30 5344 N 490.729 0.570148 1.46925 0
M  V30 5345 C 492.145 0.23087 1.57921 0
M  V30 5346 C 492.345 -1.26676 1.56702 0
M  V30 5347 O 491.401 -2.04774 1.47729 0
M  V30 5348 C 492.714 0.868973 2.8787 0
M  V30 5349 C 494.262 0.841397 3.01479 0
M  V30 5350 C 494.737 1.45881 4.34146 0
M  V30 5351 N 496.228 1.42258 4.40814 0
M  V30 5352 C 496.963 1.8698 5.42057 0
M  V30 5353 N 496.459 2.39618 6.50042 0
M  V30 5354 N 498.252 1.77972 5.33181 0
M  V30 5355 H 490.403 1.54301 1.45962 0
M  V30 5356 H 492.666 0.644224 0.69547 0
M  V30 5357 H 492.372 1.922 2.94537 0
M  V30 5358 H 492.246 0.369682 3.75384 0
M  V30 5359 H 494.633 -0.202973 2.94401 0
M  V30 5360 H 494.714 1.37858 2.15474 0
M  V30 5361 H 494.358 2.50231 4.4198 0
M  V30 5362 H 494.288 0.896958 5.18905 0
M  V30 5363 H 496.779 1.03768 3.63374 0
M  V30 5364 H 497.092 2.71633 7.23488 0
M  V30 5365 H 495.437 2.43636 6.50897 0
M  V30 5366 H 498.628 1.36617 4.4772 0
M  V30 5367 H 498.801 2.13143 6.11943 0
M  V30 5368 N 492.207 -1.54576 0.307264 0
M  V30 5369 C 493.117 -2.27435 -0.57536 0
M  V30 5370 C 494.133 -1.31183 -1.14311 0
M  V30 5371 O 495.309 -1.64175 -1.16656 0
M  V30 5372 C 492.374 -3.00566 -1.72803 0
M  V30 5373 C 491.435 -4.12369 -1.19373 0
M  V30 5374 C 490.668 -4.82003 -2.29147 0
M  V30 5375 O 490.891 -4.51038 -3.49171 0
M  V30 5376 O 489.825 -5.69271 -1.95485 0
M  V30 5377 H 493.651 -3.03696 0.0158558 0
M  V30 5378 H 491.236 -1.49219 0.0735064 0
M  V30 5379 H 493.118 -3.46416 -2.39946 0
M  V30 5380 H 491.793 -2.27195 -2.30574 0
M  V30 5381 H 490.7 -3.70905 -0.487851 0
M  V30 5382 H 492.033 -4.87736 -0.661376 0
M  V30 5383 N 493.685 -0.035106 -1.57561 0
M  V30 5384 C 494.648 0.929819 -2.09492 0
M  V30 5385 C 495.648 1.25026 -1.01119 0
M  V30 5386 O 496.838 1.18961 -1.27255 0
M  V30 5387 C 493.97 2.24457 -2.56577 0
M  V30 5388 H 495.163 0.479935 -2.96035 0
M  V30 5389 H 492.716 0.213033 -1.54841 0
M  V30 5390 H 493.451 2.74061 -1.73382 0
M  V30 5391 H 493.236 2.02508 -3.35757 0
M  V30 5392 H 494.726 2.93607 -2.96959 0
M  V30 5393 N 495.163 1.55791 0.238111 0
M  V30 5394 C 496.409 1.78297 0.966337 0
M  V30 5395 C 496.742 0.601903 1.84637 0
M  V30 5396 O 496.017 -0.399499 1.90353 0
M  V30 5397 C 496.3 3.10758 1.81939 0
M  V30 5398 C 496.153 4.39283 0.966958 0
M  V30 5399 C 497.472 3.39519 2.80027 0
M  V30 5400 H 494.591 0.648654 0.349882 0
M  V30 5401 H 497.233 1.88525 0.236253 0
M  V30 5402 H 495.383 3.02168 2.44185 0
M  V30 5403 H 497.055 4.59873 0.362514 0
M  V30 5404 H 495.298 4.32948 0.271669 0
M  V30 5405 H 495.969 5.28368 1.59784 0
M  V30 5406 H 498.445 3.48128 2.27917 0
M  V30 5407 H 497.321 4.33402 3.36829 0
M  V30 5408 H 497.582 2.60864 3.56934 0
M  V30 5409 N 496.642 -0.504142 1.49319 0
M  V30 5410 C 497.872 -1.28071 1.62116 0
M  V30 5411 C 498.28 -1.86955 0.290566 0
M  V30 5412 O 497.623 -1.68415 -0.733616 0
M  V30 5413 C 497.685 -2.4521 2.62893 0
M  V30 5414 C 497.349 -2.07218 4.0732 0
M  V30 5415 C 498.346 -1.61375 4.94221 0
M  V30 5416 C 496.031 -2.16949 4.53033 0
M  V30 5417 C 498.025 -1.25763 6.2487 0
M  V30 5418 C 495.712 -1.80949 5.83696 0
M  V30 5419 C 496.71 -1.3543 6.69438 0
M  V30 5420 O 496.398 -0.99915 7.97667 0
M  V30 5421 H 496.13 -0.394763 0.54876 0
M  V30 5422 H 498.684 -0.612118 1.96067 0
M  V30 5423 H 496.914 -3.15134 2.24115 0
M  V30 5424 H 498.603 -3.0724 2.65252 0
M  V30 5425 H 499.369 -1.53306 4.60133 0
M  V30 5426 H 495.248 -2.5133 3.86463 0
M  V30 5427 H 498.792 -0.901631 6.91749 0
M  V30 5428 H 494.689 -1.88667 6.17313 0
M  V30 5429 H 495.457 -1.13089 8.1065 0
M  V30 5430 N 498.12 -1.38341 -0.754957 0
M  V30 5431 C 499.083 -1.35262 -1.85032 0
M  V30 5432 C 500.083 -0.253393 -1.58791 0
M  V30 5433 O 501.273 -0.510205 -1.66561 0
M  V30 5434 C 498.405 -1.10544 -3.22479 0
M  V30 5435 H 499.598 -2.32712 -1.8917 0
M  V30 5436 H 497.151 -1.23614 -0.956515 0
M  V30 5437 H 497.886 -0.136952 -3.24011 0
M  V30 5438 H 497.671 -1.90127 -3.4292 0
M  V30 5439 H 499.161 -1.11082 -4.02555 0
M  V30 5440 N 499.598 0.982988 -1.23187 0
M  V30 5441 C 500.838 1.73903 -1.07412 0
M  V30 5442 C 501.202 1.88146 0.382764 0
M  V30 5443 O 502.403 2.6053 0.661638 0
M  V30 5444 C 500.674 3.10105 -1.77678 0
M  V30 5445 S 502.233 4.01323 -1.77441 0
M  V30 5446 H 499.051 0.598093 -0.384456 0
M  V30 5447 H 501.653 1.17456 -1.56283 0
M  V30 5448 H 500.357 2.97388 -2.82822 0
M  V30 5449 H 499.888 3.71622 -1.29077 0
M  V30 5450 H 501.903 4.89189 -0.831162 0
M  V30 5451 N 501.076 1.04316 1.18135 0
M  V30 5452 C 502.323 0.74802 1.88178 0
M  V30 5453 C 502.651 -0.72441 1.80506 0
M  V30 5454 O 501.906 -1.54463 1.20165 0
M  V30 5455 C 502.205 1.16271 3.37958 0
M  V30 5456 C 501.871 2.63585 3.65833 0
M  V30 5457 C 500.533 3.03829 3.73151 0
M  V30 5458 C 502.885 3.58822 3.78016 0
M  V30 5459 C 500.213 4.38194 3.90132 0
M  V30 5460 C 502.565 4.92909 3.96514 0
M  V30 5461 C 501.229 5.3282 4.02068 0
M  V30 5462 H 500.499 0.27372 0.688592 0
M  V30 5463 H 503.146 1.30863 1.39811 0
M  V30 5464 H 501.451 0.520938 3.88321 0
M  V30 5465 H 503.148 0.911672 3.90499 0
M  V30 5466 H 499.738 2.31414 3.60757 0
M  V30 5467 H 503.922 3.28875 3.71692 0
M  V30 5468 H 499.178 4.68631 3.92677 0
M  V30 5469 H 503.352 5.66606 4.04883 0
M  V30 5470 H 500.979 6.36943 4.14979 0
M  V30 5471 N 502.554 -1.34406 0.822964 0
M  V30 5472 C 503.782 -2.02508 0.424039 0
M  V30 5473 C 504.197 -1.61975 -0.970022 0
M  V30 5474 O 503.554 -0.825228 -1.62777 0
M  V30 5475 C 503.605 -3.57789 0.516657 0
M  V30 5476 O 503.326 -3.96853 1.85577 0
M  V30 5477 C 504.827 -4.43157 0.112637 0
M  V30 5478 H 502.047 -0.649063 0.170173 0
M  V30 5479 H 504.591 -1.7168 1.11113 0
M  V30 5480 H 502.746 -3.87207 -0.122353 0
M  V30 5481 H 503.16 -4.91538 1.83005 0
M  V30 5482 H 504.634 -5.51527 0.228526 0
M  V30 5483 H 505.111 -4.28939 -0.943837 0
M  V30 5484 H 505.717 -4.19067 0.725449 0
M  V30 5485 N 504.032 -0.577932 -1.46621 0
M  V30 5486 C 505.279 -0.0616879 -2.02406 0
M  V30 5487 C 505.607 1.29638 -1.44997 0
M  V30 5488 O 504.862 1.86176 -0.60308 0
M  V30 5489 C 505.161 0.0590832 -3.57351 0
M  V30 5490 C 504.827 -1.23077 -4.33777 0
M  V30 5491 C 503.489 -1.58416 -4.54376 0
M  V30 5492 C 505.841 -2.08457 -4.77698 0
M  V30 5493 C 503.169 -2.78943 -5.16147 0
M  V30 5494 C 505.521 -3.28204 -5.408 0
M  V30 5495 C 504.185 -3.63832 -5.59627 0
M  V30 5496 H 503.455 -0.0225732 -0.740656 0
M  V30 5497 H 506.102 -0.753609 -1.76048 0
M  V30 5498 H 504.407 0.834104 -3.82818 0
M  V30 5499 H 506.104 0.474202 -3.98186 0
M  V30 5500 H 502.694 -0.945652 -4.18038 0
M  V30 5501 H 506.878 -1.82459 -4.61544 0
M  V30 5502 H 502.134 -3.06689 -5.28916 0
M  V30 5503 H 506.308 -3.94634 -5.73792 0
M  V30 5504 H 503.935 -4.57315 -6.07262 0
M  V30 5505 N 505.51 1.54411 -0.315457 0
M  V30 5506 C 506.735 2.05299 0.294496 0
M  V30 5507 C 507.16 1.19052 1.4563 0
M  V30 5508 O 506.518 0.197804 1.80218 0
M  V30 5509 C 506.566 3.5345 0.714549 0
M  V30 5510 O 505.67 3.70175 1.81781 0
M  V30 5511 H 505.011 0.661743 0.0547019 0
M  V30 5512 H 507.541 1.99327 -0.461508 0
M  V30 5513 H 507.551 3.9557 0.999426 0
M  V30 5514 H 506.226 4.1568 -0.135244 0
M  V30 5515 H 504.803 3.3996 1.53236 0
M  V30 5516 N 506.988 0.0434614 1.5754 0
M  V30 5517 C 507.938 -0.943039 2.07583 0
M  V30 5518 C 508.922 -1.27662 0.979342 0
M  V30 5519 O 510.114 -1.26034 1.24276 0
M  V30 5520 C 507.243 -2.22056 2.61813 0
M  V30 5521 C 506.329 -1.91471 3.78417 0
M  V30 5522 N 506.72 -1.31214 4.88484 0
M  V30 5523 C 505.018 -2.21384 3.87176 0
M  V30 5524 C 505.719 -1.18084 5.69588 0
M  V30 5525 N 504.695 -1.68116 5.16951 0
M  V30 5526 H 508.497 -0.472354 2.90079 0
M  V30 5527 H 506.011 -0.161191 1.61598 0
M  V30 5528 H 508.008 -2.93618 2.95963 0
M  V30 5529 H 506.668 -2.69738 1.80752 0
M  V30 5530 H 507.679 -0.985318 5.08441 0
M  V30 5531 H 504.356 -2.7164 3.17046 0
M  V30 5532 H 505.746 -0.713684 6.68099 0
M  V30 5533 N 508.466 -1.55915 -0.229846 0
M  V30 5534 C 509.712 -1.79718 -0.952517 0
M  V30 5535 C 510.067 -0.61514 -1.82301 0
M  V30 5536 O 509.36 0.391098 -1.87566 0
M  V30 5537 C 509.554 -3.06845 -1.8325 0
M  V30 5538 C 509.383 -4.37302 -1.04868 0
M  V30 5539 C 508.153 -4.99749 -0.746932 0
M  V30 5540 C 510.351 -5.12599 -0.417989 0
M  V30 5541 N 508.333 -6.13871 0.0591596 0
M  V30 5542 C 509.704 -6.19488 0.251879 0
M  V30 5543 C 511.759 -4.96804 -0.33018 0
M  V30 5544 C 510.462 -7.12299 1.00115 0
M  V30 5545 C 512.488 -5.90007 0.4056 0
M  V30 5546 C 511.85 -6.96317 1.06404 0
M  V30 5547 H 507.949 -0.709382 -0.329091 0
M  V30 5548 H 510.533 -1.93406 -0.224114 0
M  V30 5549 H 508.704 -2.94456 -2.53279 0
M  V30 5550 H 510.436 -3.18874 -2.49202 0
M  V30 5551 H 507.191 -4.61518 -1.06292 0
M  V30 5552 H 507.615 -6.75497 0.450798 0
M  V30 5553 H 512.257 -4.14675 -0.824898 0
M  V30 5554 H 509.975 -7.93916 1.50741 0
M  V30 5555 H 513.561 -5.79862 0.474436 0
M  V30 5556 H 512.441 -7.67194 1.62429 0
M  V30 5557 N 509.944 0.496216 -1.49584 0
M  V30 5558 C 510.874 1.60576 -1.69521 0
M  V30 5559 C 511.855 1.61169 -0.543933 0
M  V30 5560 O 513.04 1.77834 -0.78031 0
M  V30 5561 C 510.17 2.99038 -1.76616 0
M  V30 5562 C 509.124 3.13312 -2.91581 0
M  V30 5563 C 508.45 4.53172 -2.83794 0
M  V30 5564 C 509.75 2.92886 -4.32452 0
M  V30 5565 H 511.444 1.44146 -2.62416 0
M  V30 5566 H 508.99 0.692024 -1.26282 0
M  V30 5567 H 510.943 3.76564 -1.8915 0
M  V30 5568 H 509.667 3.16568 -0.80324 0
M  V30 5569 H 508.326 2.38213 -2.78658 0
M  V30 5570 H 507.974 4.67585 -1.854 0
M  V30 5571 H 507.674 4.63662 -3.60958 0
M  V30 5572 H 509.198 5.32752 -2.98342 0
M  V30 5573 H 510.612 3.60178 -4.46032 0
M  V30 5574 H 509.009 3.14844 -5.10875 0
M  V30 5575 H 510.079 1.88966 -4.46565 0
M  V30 5576 N 511.423 1.38739 0.74761 0
M  V30 5577 C 512.669 1.35475 1.50912 0
M  V30 5578 C 513.002 -0.0533093 1.94127 0
M  V30 5579 O 512.277 -1.01572 1.65871 0
M  V30 5580 C 512.56 2.31582 2.75757 0
M  V30 5581 C 512.413 3.81274 2.38642 0
M  V30 5582 C 513.732 2.25722 3.77806 0
M  V30 5583 H 510.851 0.493427 0.547447 0
M  V30 5584 H 513.493 1.69634 0.855823 0
M  V30 5585 H 511.643 2.02582 3.31501 0
M  V30 5586 H 513.315 4.20972 1.88626 0
M  V30 5587 H 511.558 3.98664 1.71025 0
M  V30 5588 H 512.229 4.4399 3.27989 0
M  V30 5589 H 514.705 2.51336 3.31616 0
M  V30 5590 H 513.581 2.95069 4.62845 0
M  V30 5591 H 513.842 1.25803 4.23823 0
M  V30 5592 N 512.901 -0.976442 1.23707 0
M  V30 5593 C 514.131 -1.75087 1.09673 0
M  V30 5594 C 514.539 -1.85852 -0.354344 0
M  V30 5595 O 513.882 -1.33985 -1.25673 0
M  V30 5596 C 513.944 -3.19272 1.65245 0
M  V30 5597 C 513.608 -3.32004 3.14042 0
M  V30 5598 C 514.605 -3.18017 4.11292 0
M  V30 5599 C 512.29 -3.56525 3.53829 0
M  V30 5600 C 514.284 -3.28363 5.46312 0
M  V30 5601 C 511.971 -3.6651 4.88993 0
M  V30 5602 C 512.969 -3.52439 5.85043 0
M  V30 5603 O 512.657 -3.62063 7.1775 0
M  V30 5604 H 512.389 -0.556164 0.384262 0
M  V30 5605 H 514.943 -1.23518 1.64111 0
M  V30 5606 H 513.173 -3.72107 1.05231 0
M  V30 5607 H 514.862 -3.7849 1.46629 0
M  V30 5608 H 515.628 -2.98966 3.81896 0
M  V30 5609 H 511.507 -3.66547 2.79579 0
M  V30 5610 H 515.051 -3.17297 6.21263 0
M  V30 5611 H 510.948 -3.85072 5.18063 0
M  V30 5612 H 511.716 -3.78833 7.25553 0
M  V30 5613 N 514.379 -1.04941 -1.1758 0
M  V30 5614 C 515.342 -0.652456 -2.19717 0
M  V30 5615 C 516.342 0.294745 -1.58076 0
M  V30 5616 O 517.532 0.0789579 -1.74021 0
M  V30 5617 C 514.664 0.0420712 -3.40874 0
M  V30 5618 H 515.857 -1.55642 -2.5635 0
M  V30 5619 H 513.41 -0.842995 -1.31618 0
M  V30 5620 H 514.145 0.95943 -3.09783 0
M  V30 5621 H 513.93 -0.638844 -3.86861 0
M  V30 5622 H 515.42 0.306 -4.16477 0
M  V30 5623 N 515.857 1.33968 -0.830081 0
M  V30 5624 C 516.805 2.31301 -0.245435 0
M  V30 5625 C 517.799 1.57734 0.617762 0
M  V30 5626 O 519.005 1.72674 0.508303 0
M  V30 5627 H 515.38 0.749552 -0.0606316 0
M  V30 5628 H 517.351 2.78129 -1.08105 0
M  V30 5629 C 516.1 3.42961 0.572084 0
M  V30 5630 H 515.423 3.99714 -0.0828118 0
M  V30 5631 H 516.863 4.13286 0.94715 0
M  V30 5632 C 515.322 2.88043 1.74737 0
M  V30 5633 O 515.852 2.83508 2.8458 0
M  V30 5634 N 514.058 2.44768 1.56642 0
M  V30 5635 H 513.605 2.48656 0.672901 0
M  V30 5636 H 513.563 2.08375 2.3543 0
M  V30 5637 N 517.335 0.585699 1.46312 0
M  V30 5638 C 518.56 0.0762461 2.0726 0
M  V30 5639 C 518.985 -1.22071 1.43109 0
M  V30 5640 O 518.343 -1.73804 0.515942 0
M  V30 5641 C 518.391 -0.0729404 3.60526 0
M  V30 5642 O 517.495 -1.1287 3.96654 0
M  V30 5643 H 516.836 0.0641558 0.660893 0
M  V30 5644 H 519.366 0.809492 1.87905 0
M  V30 5645 H 519.376 -0.278158 4.07051 0
M  V30 5646 H 518.051 0.874188 4.06609 0
M  V30 5647 H 516.628 -0.901703 3.61834 0
M  V30 5648 N 518.813 -1.54241 0.323641 0
M  V30 5649 C 519.776 -2.22997 -0.529602 0
M  V30 5650 C 520.776 -1.22345 -1.04347 0
M  V30 5651 O 521.966 -1.46924 -0.935889 0
M  V30 5652 C 519.098 -2.93409 -1.73562 0
M  V30 5653 H 520.291 -2.99815 0.0714518 0
M  V30 5654 H 517.844 -1.56121 0.0747258 0
M  V30 5655 H 518.579 -2.20729 -2.37591 0
M  V30 5656 H 518.364 -3.67217 -1.37456 0
M  V30 5657 H 519.854 -3.45794 -2.34128 0
M  V30 5658 N 520.291 -0.0518155 -1.57515 0
M  V30 5659 C 521.254 0.907547 -2.10467 0
M  V30 5660 C 522.254 1.23947 -1.02439 0
M  V30 5661 O 523.444 1.17604 -1.2851 0
M  V30 5662 C 520.576 2.21723 -2.58944 0
M  V30 5663 H 521.769 0.44851 -2.96527 0
M  V30 5664 H 519.322 0.196598 -1.55059 0
M  V30 5665 H 520.057 2.72206 -1.76279 0
M  V30 5666 H 519.842 1.98935 -3.37886 0
M  V30 5667 H 521.332 2.90441 -3.00056 0
M  V30 5668 N 521.769 1.56035 0.221574 0
M  V30 5669 C 522.717 1.93269 1.29421 0
M  V30 5670 C 523.711 0.814727 1.48521 0
M  V30 5671 O 524.917 0.999559 1.49696 0
M  V30 5672 H 521.292 0.614188 0.43391 0
M  V30 5673 H 523.263 2.82773 0.952987 0
M  V30 5674 C 522.012 2.26573 2.63742 0
M  V30 5675 H 521.335 3.12112 2.49853 0
M  V30 5676 H 522.775 2.5651 3.37607 0
M  V30 5677 C 521.234 1.09086 3.1875 0
M  V30 5678 O 521.764 0.351985 4.00155 0
M  V30 5679 N 519.97 0.874693 2.77124 0
M  V30 5680 H 519.517 1.47726 2.11033 0
M  V30 5681 H 519.475 0.0903349 3.1427 0
M  V30 5682 N 523.247 -0.488276 1.49845 0
M  V30 5683 C 524.658 -1.06955 1.53028 0
M  V30 5684 C 525.009 -1.9351 0.323797 0
M  V30 5685 O 524.134 -2.08891 -0.565116 0
M  V30 5686 C 524.729 -1.94643 2.77307 0
M  V30 5687 C 523.288 -2.4791 2.83227 0
M  V30 5688 C 522.435 -1.25833 2.47106 0
M  V30 5689 H 525.386 -0.271626 1.56358 0
M  V30 5690 H 525.407 -2.79496 2.5819 0
M  V30 5691 H 524.919 -1.31621 3.65099 0
M  V30 5692 H 523.02 -3.14535 1.99745 0
M  V30 5693 H 523.133 -2.84193 3.85709 0
M  V30 5694 H 521.497 -1.58764 1.99163 0
M  V30 5695 H 522.28 -0.644993 3.37186 0
M  V30 5696 N 524.725 -1.39134 -0.740242 0
M  V30 5697 C 525.974 -1.35384 -1.49512 0
M  V30 5698 C 526.287 0.04919 -1.95538 0
M  V30 5699 O 527.493 0.209257 -2.70692 0
M  V30 5700 C 525.949 -2.37812 -2.70136 0
M  V30 5701 C 525.557 -3.83804 -2.31081 0
M  V30 5702 C 527.301 -2.4313 -3.47977 0
M  V30 5703 C 525.208 -4.77886 -3.48395 0
M  V30 5704 H 524.138 -0.503297 -0.561434 0
M  V30 5705 H 526.789 -1.64754 -0.807974 0
M  V30 5706 H 525.171 -2.01505 -3.40899 0
M  V30 5707 H 526.345 -4.29123 -1.67898 0
M  V30 5708 H 524.66 -3.81732 -1.66343 0
M  V30 5709 H 527.257 -3.10614 -4.35228 0
M  V30 5710 H 527.6 -1.45423 -3.90074 0
M  V30 5711 H 528.133 -2.78304 -2.84239 0
M  V30 5712 H 524.872 -5.76836 -3.11353 0
M  V30 5713 H 524.392 -4.3725 -4.10576 0
M  V30 5714 H 526.071 -4.96538 -4.148 0
M  V30 5715 N 526.204 0.969867 -1.24223 0
M  V30 5716 C 527.453 1.70687 -1.07466 0
M  V30 5717 C 527.766 1.91736 0.386861 0
M  V30 5718 O 528.972 2.62986 0.674581 0
M  V30 5719 C 527.428 3.07217 -1.87472 0
M  V30 5720 C 527.036 2.94018 -3.3802 0
M  V30 5721 C 528.78 3.84804 -1.79237 0
M  V30 5722 C 526.687 4.25844 -4.10379 0
M  V30 5723 H 525.617 0.640067 -0.398536 0
M  V30 5724 H 528.268 1.08092 -1.48285 0
M  V30 5725 H 526.65 3.70628 -1.39466 0
M  V30 5726 H 527.824 2.39632 -3.9359 0
M  V30 5727 H 526.139 2.29898 -3.47183 0
M  V30 5728 H 528.736 4.82417 -2.30603 0
M  V30 5729 H 529.079 4.09356 -0.757197 0
M  V30 5730 H 529.612 3.28115 -2.24912 0
M  V30 5731 H 526.351 4.06486 -5.14246 0
M  V30 5732 H 525.871 4.80054 -3.59594 0
M  V30 5733 H 527.55 4.94475 -4.17257 0
M  V30 5734 N 527.682 1.05563 1.17022 0
M  V30 5735 C 528.912 0.787307 1.91011 0
M  V30 5736 C 529.32 -0.661256 1.77268 0
M  V30 5737 O 528.663 -1.46379 1.10991 0
M  V30 5738 C 528.725 1.09313 3.42478 0
M  V30 5739 C 528.389 2.53863 3.80004 0
M  V30 5740 C 529.386 3.52081 3.82538 0
M  V30 5741 C 527.071 2.88969 4.10855 0
M  V30 5742 C 529.065 4.83449 4.15399 0
M  V30 5743 C 526.752 4.2054 4.43384 0
M  V30 5744 C 527.75 5.17589 4.45635 0
M  V30 5745 O 527.438 6.46799 4.77395 0
M  V30 5746 H 527.17 0.285463 0.61277 0
M  V30 5747 H 529.724 1.41051 1.49311 0
M  V30 5748 H 527.954 0.412833 3.8449 0
M  V30 5749 H 529.643 0.810224 3.97731 0
M  V30 5750 H 530.409 3.26299 3.58823 0
M  V30 5751 H 526.288 2.1409 4.08272 0
M  V30 5752 H 529.832 5.59194 4.1707 0
M  V30 5753 H 525.729 4.46083 4.66563 0
M  V30 5754 H 526.497 6.51677 4.95237 0
M  V30 5755 N 529.16 -1.33526 0.837174 0
M  V30 5756 C 530.108 -2.31168 0.257698 0
M  V30 5757 C 531.102 -1.5806 -0.609388 0
M  V30 5758 O 532.308 -1.72941 -0.499139 0
M  V30 5759 H 528.683 -0.74922 0.0646058 0
M  V30 5760 H 530.654 -2.77552 1.09578 0
M  V30 5761 C 529.403 -3.4326 -0.553887 0
M  V30 5762 H 528.726 -3.99665 0.104008 0
M  V30 5763 H 530.166 -4.13782 -0.925219 0
M  V30 5764 C 528.625 -2.88965 -1.73207 0
M  V30 5765 O 529.155 -2.85013 -2.83073 0
M  V30 5766 N 527.361 -2.45596 -1.55342 0
M  V30 5767 H 526.908 -2.49009 -0.659705 0
M  V30 5768 H 526.866 -2.0962 -2.34322 0
M  V30 5769 N 530.638 -0.59345 -1.46 0
M  V30 5770 C 531.885 -0.0831523 -2.02329 0
M  V30 5771 C 532.213 1.28093 -1.46364 0
M  V30 5772 O 531.468 1.85526 -0.622793 0
M  V30 5773 C 531.767 0.021178 -3.57394 0
M  V30 5774 C 531.433 -1.27671 -4.32448 0
M  V30 5775 C 530.095 -1.63227 -4.5267 0
M  V30 5776 C 532.447 -2.13511 -4.7546 0
M  V30 5777 C 529.775 -2.84401 -5.1316 0
M  V30 5778 C 532.127 -3.33922 -5.37289 0
M  V30 5779 C 530.791 -3.69747 -5.55737 0
M  V30 5780 H 530.061 -0.0304276 -0.740375 0
M  V30 5781 H 532.708 -0.772239 -1.75239 0
M  V30 5782 H 531.013 0.793454 -3.83682 0
M  V30 5783 H 532.71 0.431942 -3.98667 0
M  V30 5784 H 529.3 -0.989937 -4.17011 0
M  V30 5785 H 533.484 -1.87344 -4.59582 0
M  V30 5786 H 528.74 -3.12282 -5.25633 0
M  V30 5787 H 532.914 -4.00698 -5.69574 0
M  V30 5788 H 530.541 -4.6373 -6.02377 0
M  V30 5789 N 532.116 1.54067 -0.331816 0
M  V30 5790 C 533.046 2.27569 0.522932 0
M  V30 5791 C 534.027 1.28679 1.11247 0
M  V30 5792 O 535.212 1.57504 1.13605 0
M  V30 5793 C 532.342 3.0397 1.67987 0
M  V30 5794 C 531.296 4.10267 1.21924 0
M  V30 5795 C 530.622 4.74555 2.46377 0
M  V30 5796 C 531.922 5.21268 0.32815 0
M  V30 5797 H 533.616 2.99264 -0.0901977 0
M  V30 5798 H 531.162 1.4393 -0.044821 0
M  V30 5799 H 533.115 3.54123 2.28418 0
M  V30 5800 H 531.839 2.29906 2.31971 0
M  V30 5801 H 530.498 3.61009 0.637809 0
M  V30 5802 H 530.146 3.97098 3.08743 0
M  V30 5803 H 529.846 5.46363 2.16243 0
M  V30 5804 H 531.37 5.27487 3.07555 0
M  V30 5805 H 532.784 5.67128 0.838978 0
M  V30 5806 H 531.181 5.99982 0.119228 0
M  V30 5807 H 532.251 4.80673 -0.638839 0
M  V30 5808 N 533.594 0.0601682 1.57485 0
M  V30 5809 C 534.819 -0.624416 1.97777 0
M  V30 5810 C 535.244 -1.63051 0.937867 0
M  V30 5811 O 534.602 -1.81036 -0.0978845 0
M  V30 5812 C 534.65 -1.27979 3.37126 0
M  V30 5813 O 533.754 -2.39556 3.35688 0
M  V30 5814 H 533.095 -0.161581 0.64404 0
M  V30 5815 H 535.625 0.131237 2.04179 0
M  V30 5816 H 535.635 -1.62937 3.74053 0
M  V30 5817 H 534.31 -0.542501 4.12347 0
M  V30 5818 H 532.887 -2.06478 3.10517 0
M  V30 5819 N 535.072 -1.5615 -0.213296 0
M  V30 5820 C 536.32 -1.79191 -0.934612 0
M  V30 5821 C 536.641 -0.630112 -1.84539 0
M  V30 5822 O 535.911 0.35257 -1.92701 0
M  V30 5823 H 534.491 -0.660937 -0.348097 0
M  V30 5824 H 537.153 -1.93618 -0.22317 0
M  V30 5825 H 536.249 -2.71656 -1.53654 0
M  V30 5826 N 536.55 0.480323 -1.50102 0
M  V30 5827 C 537.497 1.57946 -1.6829 0
M  V30 5828 C 538.467 1.57611 -0.524223 0
M  V30 5829 O 539.652 1.75282 -0.753709 0
M  V30 5830 C 536.792 2.95978 -1.77457 0
M  V30 5831 C 535.905 3.06173 -3.04766 0
M  V30 5832 C 535.04 4.35063 -3.04784 0
M  V30 5833 C 534.079 4.38966 -4.26586 0
M  V30 5834 N 533.216 5.59314 -4.24396 0
M  V30 5835 H 538.056 1.41743 -2.62131 0
M  V30 5836 H 535.593 0.689304 -1.2995 0
M  V30 5837 H 537.551 3.76011 -1.80752 0
M  V30 5838 H 536.181 3.10837 -0.870637 0
M  V30 5839 H 535.233 2.19071 -3.10986 0
M  V30 5840 H 536.545 3.04916 -3.9475 0
M  V30 5841 H 535.699 5.23436 -3.06757 0
M  V30 5842 H 534.438 4.38915 -2.12614 0
M  V30 5843 H 533.443 3.48992 -4.24835 0
M  V30 5844 H 534.668 4.36813 -5.19972 0
M  V30 5845 H 532.614 5.63969 -3.35074 0
M  V30 5846 H 532.531 5.5976 -5.08138 0
M  V30 5847 H 533.799 6.49837 -4.30502 0
M  V30 5848 N 538.028 1.39524 0.732853 0
M  V30 5849 C 539.275 1.36865 1.49246 0
M  V30 5850 C 539.603 -0.0347118 1.94469 0
M  V30 5851 O 538.858 -1.01596 1.67262 0
M  V30 5852 C 539.157 2.28916 2.74468 0
M  V30 5853 C 538.823 3.76506 2.481 0
M  V30 5854 C 537.485 4.16721 2.40619 0
M  V30 5855 C 539.837 4.69846 2.25598 0
M  V30 5856 C 537.165 5.48334 2.08679 0
M  V30 5857 C 539.517 6.01739 1.95174 0
M  V30 5858 C 538.181 6.41015 1.86163 0
M  V30 5859 H 537.451 0.500824 0.546129 0
M  V30 5860 H 540.098 1.72047 0.840958 0
M  V30 5861 H 538.403 1.86859 3.4437 0
M  V30 5862 H 540.1 2.2415 3.32502 0
M  V30 5863 H 536.69 3.44635 2.54803 0
M  V30 5864 H 540.874 4.39608 2.30344 0
M  V30 5865 H 536.13 5.77685 2.00226 0
M  V30 5866 H 540.304 6.73591 1.76771 0
M  V30 5867 H 537.931 7.42917 1.61179 0
M  V30 5868 N 539.506 -0.963266 1.24736 0
M  V30 5869 C 540.922 -1.23273 1.01371 0
M  V30 5870 C 541.122 -1.99618 -0.274776 0
M  V30 5871 O 540.178 -2.32293 -0.989769 0
M  V30 5872 C 541.491 -2.01554 2.23152 0
M  V30 5873 C 543.039 -2.14629 2.27823 0
M  V30 5874 C 543.514 -2.96307 3.49237 0
M  V30 5875 N 545.005 -3.03887 3.49581 0
M  V30 5876 C 545.74 -3.67456 4.40186 0
M  V30 5877 N 545.236 -4.32706 5.41052 0
M  V30 5878 N 547.029 -3.64511 4.27888 0
M  V30 5879 H 539.18 -0.452294 2.07528 0
M  V30 5880 H 541.443 -0.262521 0.910926 0
M  V30 5881 H 541.149 -1.52847 3.1675 0
M  V30 5882 H 541.023 -3.02278 2.25628 0
M  V30 5883 H 543.41 -2.62537 1.34753 0
M  V30 5884 H 543.491 -1.13238 2.2937 0
M  V30 5885 H 543.135 -2.49091 4.42624 0
M  V30 5886 H 543.065 -3.97905 3.44933 0
M  V30 5887 H 545.556 -2.57477 2.76611 0
M  V30 5888 H 545.869 -4.79042 6.06415 0
M  V30 5889 H 544.214 -4.31361 5.44934 0
M  V30 5890 H 547.405 -3.12715 3.4832 0
M  V30 5891 H 547.578 -4.13768 4.98698 0
M  V30 5892 N 540.985 -1.06182 -1.16461 0
M  V30 5893 C 541.895 -0.682671 -2.24448 0
M  V30 5894 C 542.911 0.30078 -1.71381 0
M  V30 5895 O 544.087 0.150376 -2.00838 0
M  V30 5896 C 541.152 -0.0737202 -3.46622 0
M  V30 5897 C 540.213 -1.10889 -4.14731 0
M  V30 5898 C 539.446 -0.528908 -5.31073 0
M  V30 5899 O 539.669 0.65868 -5.66584 0
M  V30 5900 O 538.603 -1.26805 -5.88391 0
M  V30 5901 H 542.429 -1.58291 -2.59187 0
M  V30 5902 H 540.014 -0.834013 -1.23954 0
M  V30 5903 H 541.896 0.264192 -4.20571 0
M  V30 5904 H 540.571 0.800015 -3.13658 0
M  V30 5905 H 539.478 -1.49896 -3.42756 0
M  V30 5906 H 540.811 -1.95412 -4.51747 0
M  V30 5907 N 542.463 1.3308 -0.844243 0
M  V30 5908 C 543.395 2.27954 -0.238671 0
M  V30 5909 C 544.408 1.51978 0.583665 0
M  V30 5910 O 545.597 1.73731 0.409857 0
M  V30 5911 C 542.697 3.31963 0.682185 0
M  V30 5912 C 541.87 4.37281 -0.101998 0
M  V30 5913 C 540.929 5.20928 0.743022 0
M  V30 5914 O 539.955 5.68914 0.180285 0
M  V30 5915 N 541.157 5.42738 2.0595 0
M  V30 5916 H 543.922 2.8056 -1.05386 0
M  V30 5917 H 541.483 1.4583 -0.70322 0
M  V30 5918 H 543.475 3.84828 1.25259 0
M  V30 5919 H 542.045 2.79594 1.39808 0
M  V30 5920 H 541.265 3.84843 -0.853802 0
M  V30 5921 H 542.553 5.04746 -0.641015 0
M  V30 5922 H 541.951 5.05463 2.54016 0
M  V30 5923 H 540.508 5.98639 2.57827 0
M  V30 5924 N 543.941 0.601185 1.45683 0
M  V30 5925 C 545.188 0.0938811 2.02282 0
M  V30 5926 C 545.516 -1.27315 1.47041 0
M  V30 5927 O 544.771 -1.85193 0.632623 0
M  V30 5928 C 545.07 -0.00222425 3.574 0
M  V30 5929 C 544.736 1.29963 4.31764 0
M  V30 5930 C 543.398 1.65625 4.51798 0
M  V30 5931 C 545.75 2.1603 4.74321 0
M  V30 5932 C 543.078 2.87119 5.11644 0
M  V30 5933 C 545.43 3.36766 5.3551 0
M  V30 5934 C 544.094 3.72689 5.53768 0
M  V30 5935 H 543.364 0.0343535 0.740203 0
M  V30 5936 H 546.011 0.781522 1.74827 0
M  V30 5937 H 544.316 -0.773096 3.84097 0
M  V30 5938 H 546.013 -0.410794 3.9889 0
M  V30 5939 H 542.603 1.01204 4.1648 0
M  V30 5940 H 546.787 1.89778 4.58582 0
M  V30 5941 H 542.043 3.15065 5.2397 0
M  V30 5942 H 546.217 4.03713 5.67441 0
M  V30 5943 H 543.844 4.66918 5.99909 0
M  V30 5944 N 545.419 -1.53889 0.339982 0
M  V30 5945 C 546.366 -2.24902 -0.518452 0
M  V30 5946 C 547.336 -1.24593 -1.09844 0
M  V30 5947 O 548.521 -1.53317 -1.13572 0
M  V30 5948 C 545.661 -3.02262 -1.66529 0
M  V30 5949 C 544.774 -4.17418 -1.11295 0
M  V30 5950 C 543.909 -4.82273 -2.2268 0
M  V30 5951 C 542.948 -5.89503 -1.6478 0
M  V30 5952 N 542.085 -6.48153 -2.69893 0
M  V30 5953 H 546.925 -2.97853 0.0936579 0
M  V30 5954 H 544.462 -1.46986 0.0579924 0
M  V30 5955 H 546.42 -3.45371 -2.3404 0
M  V30 5956 H 545.05 -2.31614 -2.24844 0
M  V30 5957 H 544.102 -3.78976 -0.328886 0
M  V30 5958 H 545.414 -4.94554 -0.649414 0
M  V30 5959 H 544.568 -5.28435 -2.98063 0
M  V30 5960 H 543.307 -4.04552 -2.72376 0
M  V30 5961 H 542.312 -5.42728 -0.879004 0
M  V30 5962 H 543.537 -6.6913 -1.1594 0
M  V30 5963 H 541.483 -5.73298 -3.1885 0
M  V30 5964 H 541.4 -7.20752 -2.28151 0
M  V30 5965 H 542.668 -6.98968 -3.45056 0
M  V30 5966 N 546.897 -0.0685191 -1.57451 0
M  V30 5967 C 547.86 0.885173 -2.11417 0
M  V30 5968 C 548.86 1.22853 -1.03748 0
M  V30 5969 O 550.05 1.16235 -1.2975 0
M  V30 5970 C 547.182 2.18964 -2.61281 0
M  V30 5971 H 548.375 0.417034 -2.96986 0
M  V30 5972 H 545.928 0.18014 -1.55258 0
M  V30 5973 H 546.663 2.70321 -1.79156 0
M  V30 5974 H 546.448 1.9534 -3.39977 0
M  V30 5975 H 547.938 2.87242 -3.0312 0
M  V30 5976 N 548.375 1.56261 0.205012 0
M  V30 5977 C 549.338 1.92908 1.23771 0
M  V30 5978 C 550.338 0.809208 1.38955 0
M  V30 5979 O 551.528 1.07676 1.36936 0
M  V30 5980 C 548.66 2.19442 2.60879 0
M  V30 5981 H 549.853 2.85287 0.924728 0
M  V30 5982 H 547.406 1.49798 0.446125 0
M  V30 5983 H 548.141 1.29668 2.97248 0
M  V30 5984 H 547.926 3.0104 2.51232 0
M  V30 5985 H 549.416 2.48833 3.35368 0
M  V30 5986 N 549.853 -0.472356 1.50355 0
M  V30 5987 C 551.1 -1.22453 1.61281 0
M  V30 5988 C 551.428 -1.91972 0.31256 0
M  V30 5989 O 550.683 -1.82696 -0.701475 0
M  V30 5990 C 550.982 -2.29257 2.74182 0
M  V30 5991 C 550.648 -1.76999 4.14708 0
M  V30 5992 C 549.31 -1.62467 4.52944 0
M  V30 5993 C 551.662 -1.38215 5.0254 0
M  V30 5994 C 548.99 -1.07574 5.76754 0
M  V30 5995 C 551.342 -0.847638 6.26895 0
M  V30 5996 C 550.006 -0.688946 6.63935 0
M  V30 5997 H 549.276 -0.448087 0.590168 0
M  V30 5998 H 551.923 -0.520744 1.84284 0
M  V30 5999 H 550.228 -3.05538 2.45263 0
M  V30 6000 H 551.925 -2.87212 2.7984 0
M  V30 6001 H 548.515 -1.89276 3.84542 0
M  V30 6002 H 552.699 -1.48276 4.73633 0
M  V30 6003 H 547.955 -0.940237 6.04127 0
M  V30 6004 H 552.129 -0.538455 6.94315 0
M  V30 6005 H 549.756 -0.261435 7.5975 0
M  V30 6006 N 551.331 -1.39911 -0.725443 0
M  V30 6007 C 552.556 -1.41137 -1.5197 0
M  V30 6008 C 552.981 -0.010262 -1.88097 0
M  V30 6009 O 552.339 0.979184 -1.52583 0
M  V30 6010 C 552.387 -2.2994 -2.77777 0
M  V30 6011 O 551.491 -1.73586 -3.74088 0
M  V30 6012 H 550.832 -0.480219 -0.458569 0
M  V30 6013 H 553.362 -1.84023 -0.894249 0
M  V30 6014 H 553.372 -2.44785 -3.26411 0
M  V30 6015 H 552.047 -3.31759 -2.50816 0
M  V30 6016 H 550.624 -1.68035 -3.32894 0
M  V30 6017 N 552.809 0.956637 -1.25245 0
M  V30 6018 C 554.049 1.71585 -1.11076 0
M  V30 6019 C 554.413 1.88916 0.34277 0
M  V30 6020 O 555.614 2.61875 0.606227 0
M  V30 6021 C 553.885 3.06267 -1.84215 0
M  V30 6022 S 555.444 3.97469 -1.85914 0
M  V30 6023 H 552.262 0.589803 -0.397055 0
M  V30 6024 H 554.864 1.14114 -1.58739 0
M  V30 6025 H 553.568 2.91322 -2.89067 0
M  V30 6026 H 553.099 3.688 -1.36931 0
M  V30 6027 H 555.114 4.87316 -0.93474 0
M  V30 6028 N 554.287 1.06798 1.15896 0
M  V30 6029 C 555.527 0.797041 1.8822 0
M  V30 6030 C 555.891 -0.664549 1.80133 0
M  V30 6031 O 557.092 -1.0503 2.47431 0
M  V30 6032 C 555.363 1.28431 3.33527 0
M  V30 6033 S 556.922 1.14319 4.23647 0
M  V30 6034 H 553.74 0.288988 0.649621 0
M  V30 6035 H 556.342 1.36594 1.39865 0
M  V30 6036 H 555.046 2.34286 3.36954 0
M  V30 6037 H 554.577 0.710371 3.86933 0
M  V30 6038 H 556.592 0.0772467 4.9614 0
M  V30 6039 N 555.766 -1.3263 0.851289 0
M  V30 6040 C 556.696 -2.31449 0.308771 0
M  V30 6041 C 557.677 -1.59531 -0.590255 0
M  V30 6042 O 558.862 -1.87351 -0.511205 0
M  V30 6043 C 555.992 -3.43586 -0.506548 0
M  V30 6044 C 554.946 -4.26963 0.297753 0
M  V30 6045 C 554.272 -5.30831 -0.642094 0
M  V30 6046 C 555.572 -4.99643 1.52166 0
M  V30 6047 H 557.266 -2.77074 1.13447 0
M  V30 6048 H 554.812 -1.33207 0.546971 0
M  V30 6049 H 556.765 -4.11754 -0.896474 0
M  V30 6050 H 555.489 -2.96681 -1.36558 0
M  V30 6051 H 554.148 -3.60437 0.669391 0
M  V30 6052 H 553.796 -4.8018 -1.49788 0
M  V30 6053 H 553.496 -5.87501 -0.107968 0
M  V30 6054 H 555.02 -6.01862 -1.02927 0
M  V30 6055 H 556.434 -5.6051 1.20421 0
M  V30 6056 H 554.831 -5.66022 1.99347 0
M  V30 6057 H 555.901 -4.27701 2.28474 0
M  V30 6058 N 557.244 -0.608902 -1.45362 0
M  V30 6059 C 558.655 -0.189511 -1.85736 0
M  V30 6060 C 559.006 1.2539 -1.50903 0
M  V30 6061 O 558.131 1.95094 -0.936347 0
M  V30 6062 C 558.726 -0.33716 -3.37118 0
M  V30 6063 C 557.285 0.0275487 -3.7639 0
M  V30 6064 C 556.432 -0.660983 -2.69307 0
M  V30 6065 H 559.383 -0.815499 -1.36144 0
M  V30 6066 H 559.404 0.430257 -3.7806 0
M  V30 6067 H 558.916 -1.38779 -3.62439 0
M  V30 6068 H 557.017 1.0773 -3.56686 0
M  V30 6069 H 557.13 -0.367018 -4.77692 0
M  V30 6070 H 555.494 -0.0984958 -2.54509 0
M  V30 6071 H 556.277 -1.71377 -2.97464 0
M  V30 6072 N 558.722 1.53707 -0.348139 0
M  V30 6073 C 559.97 2.00591 0.246478 0
M  V30 6074 C 560.291 1.23753 1.50699 0
M  V30 6075 O 559.561 0.345964 1.92821 0
M  V30 6076 H 558.141 0.741053 0.0940679 0
M  V30 6077 H 560.803 1.89139 -0.470354 0
M  V30 6078 H 559.899 3.08297 0.485714 0
M  V30 6079 N 560.2 0.0768682 1.57412 0
M  V30 6080 C 561.13 -0.886026 2.16037 0
M  V30 6081 C 562.111 -1.30691 1.08876 0
M  V30 6082 O 563.296 -1.37705 1.36934 0
M  V30 6083 C 560.426 -2.1518 2.72608 0
M  V30 6084 C 559.38 -1.87015 3.8498 0
M  V30 6085 C 558.706 -3.20266 4.28175 0
M  V30 6086 C 560.006 -1.17143 5.08994 0
M  V30 6087 H 561.7 -0.397642 2.96748 0
M  V30 6088 H 559.246 -0.189823 1.42743 0
M  V30 6089 H 561.199 -2.82962 3.12266 0
M  V30 6090 H 559.923 -2.66269 1.89125 0
M  V30 6091 H 558.582 -1.21636 3.45833 0
M  V30 6092 H 558.23 -3.69207 3.41607 0
M  V30 6093 H 557.93 -3.0221 5.03927 0
M  V30 6094 H 559.454 -3.89237 4.70454 0
M  V30 6095 H 560.868 -1.75003 5.45937 0
M  V30 6096 H 559.265 -1.09328 5.90057 0
M  V30 6097 H 560.335 -0.151295 4.84664 0
M  V30 6098 N 561.678 -1.56367 -0.196722 0
M  V30 6099 C 562.926 -1.80172 -0.915554 0
M  V30 6100 C 563.247 -0.649649 -1.8386 0
M  V30 6101 O 562.517 0.332111 -1.93064 0
M  V30 6102 H 561.097 -0.664592 -0.341067 0
M  V30 6103 H 563.759 -1.93844 -0.202622 0
M  V30 6104 H 562.855 -2.7327 -1.50764 0
M  V30 6105 N 563.156 0.464375 -1.50603 0
M  V30 6106 C 564.567 1.04507 -1.5471 0
M  V30 6107 C 564.918 1.9297 -0.354542 0
M  V30 6108 O 564.043 2.09763 0.531812 0
M  V30 6109 C 564.638 1.90207 -2.80369 0
M  V30 6110 C 563.197 2.43373 -2.87135 0
M  V30 6111 C 562.344 1.21886 -2.49076 0
M  V30 6112 H 565.295 0.246716 -1.56771 0
M  V30 6113 H 565.316 2.75353 -2.62604 0
M  V30 6114 H 564.828 1.25796 -3.67147 0
M  V30 6115 H 562.929 3.11318 -2.04724 0
M  V30 6116 H 563.042 2.7802 -3.90181 0
M  V30 6117 H 561.406 1.55575 -2.01664 0
M  V30 6118 H 562.189 0.591268 -3.3817 0
M  V30 6119 N 564.634 1.40294 0.718013 0
M  V30 6120 C 565.874 1.39888 1.49032 0
M  V30 6121 C 566.238 -0.000462935 1.92 0
M  V30 6122 O 567.439 -0.129622 2.68487 0
M  V30 6123 C 565.71 2.35868 2.68516 0
M  V30 6124 S 567.269 2.53799 3.57954 0
M  V30 6125 H 564.087 0.495849 0.509563 0
M  V30 6126 H 566.689 1.76541 0.839846 0
M  V30 6127 H 565.393 3.36375 2.35117 0
M  V30 6128 H 564.924 2.0049 3.38478 0
M  V30 6129 H 566.939 1.78859 4.62843 0
M  V30 6130 N 566.112 -0.949982 1.2575 0
M  V30 6131 C 567.36 -1.6918 1.10555 0
M  V30 6132 C 567.681 -1.91773 -0.353298 0
M  V30 6133 O 566.951 -1.50814 -1.25027 0
M  V30 6134 H 565.531 -0.626952 0.406129 0
M  V30 6135 H 568.193 -1.1419 1.57945 0
M  V30 6136 H 567.289 -2.66915 1.61749 0
M  V30 6137 N 567.59 -1.07411 -1.15328 0
M  V30 6138 C 568.815 -0.818856 -1.90551 0
M  V30 6139 C 569.24 0.622194 -1.77512 0
M  V30 6140 O 568.598 1.43484 -1.10824 0
M  V30 6141 C 568.646 -1.23267 -3.38877 0
M  V30 6142 O 567.75 -0.378345 -4.10661 0
M  V30 6143 H 567.091 -0.29827 -0.593238 0
M  V30 6144 H 569.621 -1.43289 -1.46046 0
M  V30 6145 H 569.631 -1.20912 -3.89672 0
M  V30 6146 H 568.306 -2.28226 -3.47686 0
M  V30 6147 H 566.883 -0.464437 -3.69996 0
M  V30 6148 N 569.068 1.32177 -0.85831 0
M  V30 6149 C 569.998 2.31282 -0.321041 0
M  V30 6150 C 570.979 1.59841 0.581786 0
M  V30 6151 O 572.164 1.87619 0.501262 0
M  V30 6152 C 569.294 3.4385 0.48832 0
M  V30 6153 C 568.248 4.26799 -0.320391 0
M  V30 6154 C 567.574 5.31164 0.613934 0
M  V30 6155 C 568.874 4.98829 -1.54813 0
M  V30 6156 H 570.568 2.76469 -1.14915 0
M  V30 6157 H 568.114 1.32916 -0.554028 0
M  V30 6158 H 570.067 4.12224 0.874626 0
M  V30 6159 H 568.791 2.97401 1.34983 0
M  V30 6160 H 567.45 3.60077 -0.688497 0
M  V30 6161 H 567.098 4.80967 1.47239 0
M  V30 6162 H 566.798 5.8755 0.0768097 0
M  V30 6163 H 568.322 6.024 0.997336 0
M  V30 6164 H 569.736 5.59864 -1.23392 0
M  V30 6165 H 568.133 5.64957 -2.02346 0
M  V30 6166 H 569.203 4.26483 -2.30739 0
M  V30 6167 N 570.547 0.616602 1.45037 0
M  V30 6168 C 571.494 -0.0969439 2.30596 0
M  V30 6169 C 572.464 -0.851151 1.42635 0
M  V30 6170 O 573.649 -0.835092 1.71554 0
M  V30 6171 C 570.789 -1.08234 3.27688 0
M  V30 6172 C 569.902 -0.328072 4.30752 0
M  V30 6173 C 569.037 -1.30399 5.14946 0
M  V30 6174 C 568.076 -0.538049 6.09731 0
M  V30 6175 N 567.213 -1.46371 6.86673 0
M  V30 6176 H 572.053 0.63864 2.91076 0
M  V30 6177 H 569.59 0.326733 1.43425 0
M  V30 6178 H 571.548 -1.66688 3.82454 0
M  V30 6179 H 570.178 -1.78523 2.68941 0
M  V30 6180 H 569.23 0.372136 3.78575 0
M  V30 6181 H 570.542 0.269142 4.98073 0
M  V30 6182 H 569.696 -1.96032 5.74157 0
M  V30 6183 H 568.435 -1.93514 4.47665 0
M  V30 6184 H 567.44 0.131852 5.49642 0
M  V30 6185 H 568.665 0.0881732 6.79043 0
M  V30 6186 H 566.611 -2.08233 6.22073 0
M  V30 6187 H 566.528 -0.920152 7.50379 0
M  V30 6188 H 567.796 -2.10932 7.50418 0
M  V30 6189 N 572.025 -1.5352 0.356285 0
M  V30 6190 C 572.988 -2.24071 -0.482182 0
M  V30 6191 C 573.988 -1.24531 -1.01729 0
M  V30 6192 O 575.178 -1.48876 -0.904513 0
M  V30 6193 C 572.31 -2.97025 -1.67299 0
M  V30 6194 H 573.503 -2.99596 0.135031 0
M  V30 6195 H 571.056 -1.55928 0.107825 0
M  V30 6196 H 571.791 -2.25719 -2.32855 0
M  V30 6197 H 571.576 -3.7005 -1.29636 0
M  V30 6198 H 573.066 -3.50683 -2.26741 0
M  V30 6199 N 573.503 -0.0852151 -1.57369 0
M  V30 6200 C 574.914 0.445428 -1.81309 0
M  V30 6201 C 575.265 1.68795 -1.00013 0
M  V30 6202 O 574.39 2.15211 -0.226573 0
M  V30 6203 C 574.985 0.814887 -3.28854 0
M  V30 6204 C 573.544 1.29032 -3.53592 0
M  V30 6205 C 572.691 0.282089 -2.75861 0
M  V30 6206 H 575.642 -0.310771 -1.55627 0
M  V30 6207 H 575.663 1.67524 -3.41637 0
M  V30 6208 H 575.175 -0.0896309 -3.87996 0
M  V30 6209 H 573.276 2.21289 -2.9977 0
M  V30 6210 H 573.389 1.25898 -4.62262 0
M  V30 6211 H 571.753 0.762182 -2.43029 0
M  V30 6212 H 572.536 -0.614936 -3.37748 0
M  V30 6213 N 574.981 1.5647 0.188427 0
M  V30 6214 C 576.206 1.85486 0.927891 0
M  V30 6215 C 576.631 0.669575 1.75779 0
M  V30 6216 O 575.989 -0.381573 1.77239 0
M  V30 6217 C 576.037 3.12784 1.7944 0
M  V30 6218 O 575.141 2.93805 2.894 0
M  V30 6219 H 574.482 0.610585 0.260925 0
M  V30 6220 H 577.012 2.037 0.191729 0
M  V30 6221 H 577.022 3.43749 2.19774 0
M  V30 6222 H 575.697 3.98671 1.18468 0
M  V30 6223 H 574.274 2.74153 2.52774 0
M  V30 6224 N 576.459 -0.456382 1.50847 0
M  V30 6225 C 577.87 -1.03685 1.55262 0
M  V30 6226 C 578.221 -1.92779 0.364771 0
M  V30 6227 O 577.346 -2.10043 -0.52068 0
M  V30 6228 C 577.941 -1.88718 2.81374 0
M  V30 6229 C 576.5 -2.41847 2.88422 0
M  V30 6230 C 575.647 -1.20564 2.49719 0
M  V30 6231 H 578.598 -0.238399 1.56899 0
M  V30 6232 H 578.619 -2.73957 2.6406 0
M  V30 6233 H 578.131 -1.23847 3.67809 0
M  V30 6234 H 576.232 -3.10228 2.06372 0
M  V30 6235 H 576.345 -2.75947 3.9165 0
M  V30 6236 H 574.709 -1.54504 2.02486 0
M  V30 6237 H 575.492 -0.573326 3.38479 0
M  V30 6238 N 577.937 -1.40673 -0.710563 0
M  V30 6239 C 579.353 -1.22813 -1.01928 0
M  V30 6240 C 579.553 -0.10687 -2.01216 0
M  V30 6241 O 578.609 0.533614 -2.46797 0
M  V30 6242 C 579.922 -2.57178 -1.5582 0
M  V30 6243 C 581.47 -2.64233 -1.67779 0
M  V30 6244 C 581.945 -3.98879 -2.25076 0
M  V30 6245 N 583.436 -4.00647 -2.32456 0
M  V30 6246 C 584.171 -5.01621 -2.77784 0
M  V30 6247 N 583.667 -6.12989 -3.22826 0
M  V30 6248 N 585.46 -4.88988 -2.77213 0
M  V30 6249 H 577.611 -2.12335 -0.05253 0
M  V30 6250 H 579.874 -0.9441 -0.085898 0
M  V30 6251 H 579.58 -3.39903 -0.903249 0
M  V30 6252 H 579.454 -2.78618 -2.54267 0
M  V30 6253 H 581.841 -1.81876 -2.3239 0
M  V30 6254 H 581.922 -2.46619 -0.679178 0
M  V30 6255 H 581.566 -4.81678 -1.61086 0
M  V30 6256 H 581.496 -4.13826 -3.25661 0
M  V30 6257 H 583.987 -3.20231 -2.0065 0
M  V30 6258 H 584.3 -6.85921 -3.55995 0
M  V30 6259 H 582.645 -6.16547 -3.20773 0
M  V30 6260 H 585.836 -4.01075 -2.41363 0
M  V30 6261 H 586.009 -5.67822 -3.12221 0
M  V30 6262 N 579.415 0.9433 -1.26252 0
M  V30 6263 C 580.64 1.72898 -1.14547 0
M  V30 6264 C 581.065 1.85761 0.295743 0
M  V30 6265 O 580.423 1.3463 1.21427 0
M  V30 6266 C 580.471 3.11471 -1.8171 0
M  V30 6267 O 579.575 3.97336 -1.10445 0
M  V30 6268 H 578.916 0.530555 -0.399259 0
M  V30 6269 H 581.446 1.18159 -1.67032 0
M  V30 6270 H 581.456 3.61872 -1.88449 0
M  V30 6271 H 580.131 3.01425 -2.86558 0
M  V30 6272 H 578.708 3.55788 -1.11666 0
M  V30 6273 N 580.893 1.08022 1.14757 0
M  V30 6274 C 582.118 0.82895 1.90114 0
M  V30 6275 C 582.543 -0.612772 1.77839 0
M  V30 6276 O 581.901 -1.42895 1.11583 0
M  V30 6277 C 581.949 1.25062 3.38219 0
M  V30 6278 O 581.053 0.400119 4.10454 0
M  V30 6279 H 580.394 0.301412 0.591648 0
M  V30 6280 H 582.924 1.44062 1.45284 0
M  V30 6281 H 582.934 1.22977 3.89025 0
M  V30 6282 H 581.609 2.30067 3.46471 0
M  V30 6283 H 580.186 0.484052 3.69745 0
M  V30 6284 N 582.371 -1.3172 0.865308 0
M  V30 6285 C 583.334 -2.26918 0.322627 0
M  V30 6286 C 584.334 -1.52031 -0.523751 0
M  V30 6287 O 585.524 -1.70973 -0.333727 0
M  V30 6288 C 582.656 -3.36558 -0.542338 0
M  V30 6289 H 583.849 -2.76432 1.16298 0
M  V30 6290 H 581.402 -1.42573 0.640512 0
M  V30 6291 H 582.137 -2.92329 -1.40407 0
M  V30 6292 H 581.922 -3.92048 0.0636395 0
M  V30 6293 H 583.412 -4.07465 -0.91446 0
M  V30 6294 N 583.85 -0.624285 -1.44708 0
M  V30 6295 C 585.075 -0.131171 -2.06985 0
M  V30 6296 C 585.5 1.18234 -1.46295 0
M  V30 6297 O 584.858 1.72375 -0.561842 0
M  V30 6298 C 584.906 -0.0226724 -3.60593 0
M  V30 6299 O 584.01 1.02314 -3.99507 0
M  V30 6300 H 583.351 -0.0816556 -0.65896 0
M  V30 6301 H 585.88 -0.859027 -1.85693 0
M  V30 6302 H 585.891 0.170138 -4.07645 0
M  V30 6303 H 584.566 -0.981685 -4.04148 0
M  V30 6304 H 583.143 0.805452 -3.64097 0
M  V30 6305 N 585.328 1.53329 -0.364422 0
M  V30 6306 C 586.278 2.22472 0.499024 0
M  V30 6307 C 587.262 1.21952 1.0496 0
M  V30 6308 O 588.454 1.47405 0.979836 0
M  V30 6309 C 585.583 3.01659 1.6388 0
M  V30 6310 C 584.669 4.09555 1.10116 0
M  V30 6311 N 585.06 5.04988 0.286414 0
M  V30 6312 C 583.358 4.2424 1.37608 0
M  V30 6313 C 584.059 5.81699 -0.00781682 0
M  V30 6314 N 583.035 5.40394 0.589494 0
M  V30 6315 H 586.837 2.93611 -0.130284 0
M  V30 6316 H 584.351 1.61483 -0.172377 0
M  V30 6317 H 586.348 3.4971 2.26954 0
M  V30 6318 H 585.008 2.32051 2.27118 0
M  V30 6319 H 586.019 5.17847 -0.0742839 0
M  V30 6320 H 582.696 3.65858 2.01133 0
M  V30 6321 H 584.086 6.68587 -0.666394 0
M  V30 6322 N 586.806 0.0935595 1.57322 0
M  V30 6323 C 587.753 -0.865935 2.1394 0
M  V30 6324 C 588.723 -1.28083 1.05754 0
M  V30 6325 O 589.908 -1.36285 1.33533 0
M  V30 6326 C 587.048 -2.12023 2.72287 0
M  V30 6327 C 586.161 -1.756 3.94701 0
M  V30 6328 C 585.296 -2.95804 4.41218 0
M  V30 6329 C 584.335 -2.555 5.56225 0
M  V30 6330 N 583.472 -3.68534 5.97601 0
M  V30 6331 H 588.312 -0.376261 2.95615 0
M  V30 6332 H 585.849 -0.174052 1.46067 0
M  V30 6333 H 587.807 -2.85477 3.04235 0
M  V30 6334 H 586.437 -2.58492 1.93343 0
M  V30 6335 H 585.489 -0.921208 3.69077 0
M  V30 6336 H 586.801 -1.41964 4.78171 0
M  V30 6337 H 585.955 -3.77513 4.74941 0
M  V30 6338 H 584.694 -3.32649 3.56645 0
M  V30 6339 H 583.699 -1.72218 5.22131 0
M  V30 6340 H 584.924 -2.19801 6.42545 0
M  V30 6341 H 582.87 -4.051 5.15974 0
M  V30 6342 H 582.787 -3.38737 6.75865 0
M  V30 6343 H 584.055 -4.50757 6.35955 0
M  V30 6344 N 588.284 -1.56567 -0.180126 0
M  V30 6345 C 589.509 -1.85975 -0.918041 0
M  V30 6346 C 589.934 -0.678888 -1.75422 0
M  V30 6347 O 589.292 0.372168 -1.77439 0
M  V30 6348 C 589.34 -3.13731 -1.77779 0
M  V30 6349 O 588.444 -2.95335 -2.87838 0
M  V30 6350 H 587.785 -0.61196 -0.257683 0
M  V30 6351 H 590.315 -2.03798 -0.180923 0
M  V30 6352 H 590.325 -3.4491 -2.17948 0
M  V30 6353 H 589 -3.99293 -1.16352 0
M  V30 6354 H 587.577 -2.7549 -2.51316 0
M  V30 6355 N 589.762 0.448376 -1.51087 0
M  V30 6356 C 590.692 1.55102 -1.74544 0
M  V30 6357 C 591.673 1.59357 -0.594932 0
M  V30 6358 O 592.858 1.75261 -0.836491 0
M  V30 6359 C 589.988 2.93268 -1.86041 0
M  V30 6360 C 588.942 3.03877 -3.01402 0
M  V30 6361 C 588.268 4.43914 -2.98068 0
M  V30 6362 C 589.568 2.7898 -4.41551 0
M  V30 6363 H 591.262 1.35724 -2.66869 0
M  V30 6364 H 588.808 0.651498 -1.28419 0
M  V30 6365 H 590.761 3.70356 -2.01034 0
M  V30 6366 H 589.485 3.13853 -0.903548 0
M  V30 6367 H 588.144 2.29227 -2.86096 0
M  V30 6368 H 587.792 4.6145 -2.00182 0
M  V30 6369 H 587.492 4.51944 -3.75527 0
M  V30 6370 H 589.016 5.22991 -3.1514 0
M  V30 6371 H 590.43 3.45805 -4.57265 0
M  V30 6372 H 588.827 2.98431 -5.20633 0
M  V30 6373 H 589.897 1.74663 -4.5235 0
M  V30 6374 N 591.24 1.41047 0.703093 0
M  V30 6375 C 592.465 1.43537 1.49706 0
M  V30 6376 C 592.89 0.0401853 1.88057 0
M  V30 6377 O 592.248 -0.954785 1.54122 0
M  V30 6378 C 592.296 2.3433 2.74084 0
M  V30 6379 O 591.4 1.79515 3.71279 0
M  V30 6380 H 590.741 0.487454 0.450871 0
M  V30 6381 H 593.271 1.85422 0.86486 0
M  V30 6382 H 593.281 2.49947 3.22476 0
M  V30 6383 H 591.956 3.35708 2.45506 0
M  V30 6384 H 590.533 1.7331 3.30179 0
M  V30 6385 N 592.718 -0.936591 1.26751 0
M  V30 6386 C 593.648 -2.05315 1.11212 0
M  V30 6387 C 594.629 -1.70092 0.0160262 0
M  V30 6388 O 595.814 -1.93279 0.188894 0
M  V30 6389 C 592.944 -3.39123 0.749171 0
M  V30 6390 C 591.898 -3.88425 1.79751 0
M  V30 6391 C 591.224 -5.18936 1.28876 0
M  V30 6392 C 592.524 -4.12798 3.19992 0
M  V30 6393 H 594.218 -2.18573 2.04613 0
M  V30 6394 H 591.764 -1.05027 0.985159 0
M  V30 6395 H 593.717 -4.16704 0.627323 0
M  V30 6396 H 592.441 -3.25855 -0.220543 0
M  V30 6397 H 591.1 -3.13028 1.90811 0
M  V30 6398 H 590.748 -5.02051 0.308757 0
M  V30 6399 H 590.448 -5.52892 1.98958 0
M  V30 6400 H 591.972 -5.99096 1.17967 0
M  V30 6401 H 593.386 -4.80977 3.11983 0
M  V30 6402 H 591.783 -4.58044 3.87705 0
M  V30 6403 H 592.853 -3.18412 3.65707 0
M  V30 6404 N 594.196 -1.08629 -1.14182 0
M  V30 6405 C 595.128 -0.676189 -2.18998 0
M  V30 6406 C 596.141 0.277871 -1.60411 0
M  V30 6407 O 597.33 0.0651771 -1.78381 0
M  V30 6408 C 594.43 0.0254916 -3.3889 0
M  V30 6409 C 593.603 -0.948039 -4.27002 0
M  V30 6410 C 592.662 -0.281268 -5.25448 0
M  V30 6411 O 591.688 -0.926378 -5.61611 0
M  V30 6412 N 592.89 0.967923 -5.72374 0
M  V30 6413 H 595.655 -1.57792 -2.54798 0
M  V30 6414 H 593.216 -0.972665 -1.29425 0
M  V30 6415 H 595.208 0.482554 -4.01813 0
M  V30 6416 H 593.778 0.829348 -3.01398 0
M  V30 6417 H 592.998 -1.58388 -3.6098 0
M  V30 6418 H 594.286 -1.60765 -4.82734 0
M  V30 6419 H 593.684 1.51175 -5.45126 0
M  V30 6420 H 592.241 1.36844 -6.37273 0
M  V30 6421 N 595.674 1.31259 -0.872281 0
M  V30 6422 C 596.899 2.0133 -0.498099 0
M  V30 6423 C 597.324 1.65031 0.902568 0
M  V30 6424 O 596.682 0.860164 1.59596 0
M  V30 6425 C 596.73 3.54411 -0.665205 0
M  V30 6426 O 595.834 4.11347 0.294473 0
M  V30 6427 H 595.175 0.633844 -0.197832 0
M  V30 6428 H 597.705 1.67402 -1.17633 0
M  V30 6429 H 597.715 4.04147 -0.559373 0
M  V30 6430 H 596.39 3.80171 -1.68651 0
M  V30 6431 H 594.967 3.72624 0.143403 0
M  V30 6432 N 597.152 0.631951 1.44375 0
M  V30 6433 C 598.568 0.297642 1.568 0
M  V30 6434 C 598.768 -1.19916 1.61934 0
M  V30 6435 O 597.824 -1.98324 1.56281 0
M  V30 6436 C 599.137 0.990286 2.83926 0
M  V30 6437 C 600.685 0.968507 2.97639 0
M  V30 6438 C 601.16 1.64163 4.27568 0
M  V30 6439 N 602.651 1.60826 4.34384 0
M  V30 6440 C 603.386 2.09802 5.33639 0
M  V30 6441 N 602.882 2.66973 6.39294 0
M  V30 6442 N 604.675 2.00426 5.25153 0
M  V30 6443 H 596.826 1.60353 1.39286 0
M  V30 6444 H 599.089 0.673142 0.667521 0
M  V30 6445 H 598.795 2.04519 2.8612 0
M  V30 6446 H 598.669 0.528563 3.73478 0
M  V30 6447 H 601.056 -0.0779247 2.94997 0
M  V30 6448 H 601.137 1.46873 2.09433 0
M  V30 6449 H 600.781 2.68752 4.3097 0
M  V30 6450 H 600.711 1.11624 5.14634 0
M  V30 6451 H 603.202 1.19087 3.58646 0
M  V30 6452 H 603.515 3.02074 7.11316 0
M  V30 6453 H 601.86 2.71024 6.39977 0
M  V30 6454 H 605.051 1.55483 4.41523 0
M  V30 6455 H 605.224 2.38906 6.02352 0
M  V30 6456 N 598.631 -1.53133 0.372548 0
M  V30 6457 C 599.871 -2.03267 -0.214943 0
M  V30 6458 C 600.235 -1.25362 -1.45425 0
M  V30 6459 O 601.436 -1.65536 -2.11781 0
M  V30 6460 C 599.707 -3.53985 -0.492897 0
M  V30 6461 S 601.266 -4.25977 -1.05307 0
M  V30 6462 H 598.084 -0.708289 -0.062029 0
M  V30 6463 H 600.686 -1.88539 0.517025 0
M  V30 6464 H 599.39 -4.08282 0.416442 0
M  V30 6465 H 598.921 -3.72887 -1.25375 0
M  V30 6466 H 600.936 -4.37731 -2.33679 0
M  V30 6467 N 600.109 -0.101901 -1.5727 0
M  V30 6468 C 601.334 0.571759 -1.99363 0
M  V30 6469 C 601.759 1.60507 -0.980768 0
M  V30 6470 O 601.117 1.81231 0.0498517 0
M  V30 6471 C 601.165 1.18996 -3.404 0
M  V30 6472 O 600.269 2.30572 -3.41922 0
M  V30 6473 H 599.61 0.144449 -0.648098 0
M  V30 6474 H 602.14 -0.185325 -2.03759 0
M  V30 6475 H 602.15 1.52962 -3.78241 0
M  V30 6476 H 600.825 0.432984 -4.1364 0
M  V30 6477 H 599.402 1.98173 -3.15883 0
M  V30 6478 N 601.587 1.56661 0.17182 0
M  V30 6479 C 602.836 1.81158 0.886831 0
M  V30 6480 C 603.149 0.679072 1.83434 0
M  V30 6481 O 604.355 0.808964 2.59168 0
M  V30 6482 C 602.811 3.20999 1.6275 0
M  V30 6483 C 602.419 4.42117 0.723652 0
M  V30 6484 C 604.163 3.5479 2.33076 0
M  V30 6485 C 602.07 5.7298 1.46452 0
M  V30 6486 H 601 0.675543 0.334899 0
M  V30 6487 H 603.651 1.82967 0.139765 0
M  V30 6488 H 602.033 3.13506 2.4193 0
M  V30 6489 H 603.207 4.60789 -0.0311485 0
M  V30 6490 H 601.522 4.16197 0.130063 0
M  V30 6491 H 604.119 4.49806 2.89099 0
M  V30 6492 H 604.462 2.79646 3.08389 0
M  V30 6493 H 604.995 3.63834 1.6084 0
M  V30 6494 H 601.734 6.51152 0.753729 0
M  V30 6495 H 601.254 5.58285 2.19266 0
M  V30 6496 H 602.933 6.14916 2.01214 0
M  V30 6497 N 603.065 -0.440357 1.51323 0
M  V30 6498 C 604.29 -1.21716 1.67928 0
M  V30 6499 C 604.715 -1.84328 0.374826 0
M  V30 6500 O 604.073 -1.68675 -0.664706 0
M  V30 6501 C 604.121 -2.27914 2.79442 0
M  V30 6502 O 603.225 -3.33325 2.42834 0
M  V30 6503 H 602.566 -0.35674 0.560029 0
M  V30 6504 H 605.096 -0.520417 1.97871 0
M  V30 6505 H 605.106 -2.72746 3.03436 0
M  V30 6506 H 603.781 -1.8172 3.741 0
M  V30 6507 H 602.358 -2.9399 2.294 0
M  V30 6508 N 604.543 -1.41418 -0.695603 0
M  V30 6509 C 605.49 -1.43264 -1.80954 0
M  V30 6510 C 606.46 -0.287016 -1.63601 0
M  V30 6511 O 607.645 -0.488054 -1.84452 0
M  V30 6512 C 604.785 -1.32054 -3.18835 0
M  V30 6513 C 603.898 -2.56485 -3.4762 0
M  V30 6514 C 603.033 -2.3757 -4.75115 0
M  V30 6515 C 602.072 -3.57477 -4.96867 0
M  V30 6516 N 601.209 -3.37632 -6.15588 0
M  V30 6517 H 606.049 -2.38467 -1.78711 0
M  V30 6518 H 603.586 -1.18415 -0.872715 0
M  V30 6519 H 605.544 -1.23558 -3.98484 0
M  V30 6520 H 604.174 -0.404592 -3.20254 0
M  V30 6521 H 603.226 -2.75432 -2.62376 0
M  V30 6522 H 604.538 -3.45678 -3.59594 0
M  V30 6523 H 603.692 -2.2654 -5.62818 0
M  V30 6524 H 602.431 -1.45834 -4.65386 0
M  V30 6525 H 601.436 -3.68961 -4.07612 0
M  V30 6526 H 602.661 -4.50167 -5.08455 0
M  V30 6527 H 600.607 -2.48596 -6.07072 0
M  V30 6528 H 600.524 -4.20401 -6.2833 0
M  V30 6529 H 601.792 -3.30375 -7.06026 0
M  V30 6530 N 606.021 0.929856 -1.27246 0
M  V30 6531 C 607.27 1.67182 -1.12842 0
M  V30 6532 C 607.583 1.9287 0.325666 0
M  V30 6533 O 608.789 2.64999 0.590572 0
M  V30 6534 C 607.245 3.01097 -1.97151 0
M  V30 6535 C 606.853 2.83115 -3.47203 0
M  V30 6536 C 608.597 3.78907 -1.91389 0
M  V30 6537 C 606.504 4.12573 -4.23719 0
M  V30 6538 H 605.434 0.627064 -0.418697 0
M  V30 6539 H 608.085 1.0332 -1.51649 0
M  V30 6540 H 606.467 3.66004 -1.51186 0
M  V30 6541 H 607.641 2.26989 -4.01015 0
M  V30 6542 H 605.956 2.18736 -3.54321 0
M  V30 6543 H 608.553 4.74837 -2.45834 0
M  V30 6544 H 608.896 4.0674 -0.887047 0
M  V30 6545 H 609.429 3.20794 -2.35237 0
M  V30 6546 H 606.168 3.8992 -5.26918 0
M  V30 6547 H 605.688 4.68371 -3.74685 0
M  V30 6548 H 607.367 4.8095 -4.32777 0
M  V30 6549 N 607.499 1.09233 1.13605 0
M  V30 6550 C 608.724 0.849067 1.89224 0
M  V30 6551 C 609.149 -0.593875 1.78479 0
M  V30 6552 O 608.507 -1.41703 1.13092 0
M  V30 6553 C 608.555 1.28642 3.36873 0
M  V30 6554 O 607.659 0.44363 4.10007 0
M  V30 6555 H 607 0.30767 0.588417 0
M  V30 6556 H 609.53 1.45595 1.43748 0
M  V30 6557 H 609.54 1.27096 3.87699 0
M  V30 6558 H 608.215 2.33729 3.44011 0
M  V30 6559 H 606.792 0.523241 3.69211 0
M  V30 6560 N 608.977 -1.30795 0.87923 0
M  V30 6561 C 609.887 -2.32041 0.345565 0
M  V30 6562 C 610.903 -1.65103 -0.549265 0
M  V30 6563 O 612.079 -1.9645 -0.443763 0
M  V30 6564 C 609.144 -3.43944 -0.436245 0
M  V30 6565 C 608.205 -4.26521 0.48765 0
M  V30 6566 C 607.438 -5.33081 -0.256943 0
M  V30 6567 O 607.661 -5.50762 -1.48381 0
M  V30 6568 O 606.595 -6.00635 0.389985 0
M  V30 6569 H 610.421 -2.79627 1.18501 0
M  V30 6570 H 608.006 -1.3486 0.642885 0
M  V30 6571 H 609.888 -4.12128 -0.879119 0
M  V30 6572 H 608.563 -2.98504 -1.25208 0
M  V30 6573 H 607.47 -3.61057 0.979216 0
M  V30 6574 H 608.803 -4.75551 1.26933 0
M  V30 6575 N 610.455 -0.639598 -1.44038 0
M  V30 6576 C 611.405 0.0823038 -2.27851 0
M  V30 6577 C 612.389 0.807991 -1.39141 0
M  V30 6578 O 613.581 0.692702 -1.62882 0
M  V30 6579 C 610.71 1.05742 -3.26609 0
M  V30 6580 C 609.796 0.330911 -4.22807 0
M  V30 6581 N 610.187 -0.645126 -5.01669 0
M  V30 6582 C 608.485 0.574214 -4.42288 0
M  V30 6583 C 609.186 -1.07513 -5.71678 0
M  V30 6584 N 608.162 -0.412164 -5.42035 0
M  V30 6585 H 611.964 -0.666861 -2.86234 0
M  V30 6586 H 609.478 -0.465777 -1.55577 0
M  V30 6587 H 611.475 1.58927 -3.85419 0
M  V30 6588 H 610.135 1.80679 -2.69787 0
M  V30 6589 H 611.146 -1.02329 -5.0769 0
M  V30 6590 H 607.823 1.30581 -3.96554 0
M  V30 6591 H 609.213 -1.88196 -6.45005 0
M  V30 6592 N 611.933 1.52934 -0.380664 0
M  V30 6593 C 613.179 2.01765 0.20458 0
M  V30 6594 C 613.512 1.26696 1.47179 0
M  V30 6595 O 612.787 0.364936 1.91046 0
M  V30 6596 C 613.07 3.56869 0.481269 0
M  V30 6597 C 612.923 4.42617 -0.800629 0
M  V30 6598 C 614.242 4.2121 1.27554 0
M  V30 6599 H 611.361 0.733388 0.0728803 0
M  V30 6600 H 614.003 1.83068 -0.50853 0
M  V30 6601 H 612.153 3.72932 1.08875 0
M  V30 6602 H 613.825 4.38323 -1.43773 0
M  V30 6603 H 612.068 4.09977 -1.4178 0
M  V30 6604 H 612.739 5.49134 -0.561791 0
M  V30 6605 H 615.215 4.09072 0.761514 0
M  V30 6606 H 614.091 5.29732 1.43788 0
M  V30 6607 H 614.352 3.78269 2.28833 0
M  V30 6608 N 613.412 0.11024 1.57214 0
M  V30 6609 C 614.658 -0.550684 1.9518 0
M  V30 6610 C 614.991 -1.66885 0.993122 0
M  V30 6611 O 614.266 -1.94479 0.0287907 0
M  V30 6612 C 614.549 -1.09163 3.43155 0
M  V30 6613 C 614.402 0.0225198 4.49794 0
M  V30 6614 C 615.721 -1.98527 3.92778 0
M  V30 6615 H 612.84 -0.198706 0.709708 0
M  V30 6616 H 615.482 0.184024 1.89107 0
M  V30 6617 H 613.632 -1.71775 3.48462 0
M  V30 6618 H 615.304 0.657443 4.56591 0
M  V30 6619 H 613.547 0.686868 4.28328 0
M  V30 6620 H 614.218 -0.39706 5.5057 0
M  V30 6621 H 616.694 -1.458 3.8972 0
M  V30 6622 H 615.57 -2.33298 4.96853 0
M  V30 6623 H 615.831 -2.90846 3.32958 0
M  V30 6624 N 614.89 -1.56749 -0.16351 0
M  V30 6625 C 615.82 -2.00042 -1.20438 0
M  V30 6626 C 616.801 -0.877256 -1.45733 0
M  V30 6627 O 617.986 -1.1439 -1.56935 0
M  V30 6628 C 615.116 -2.36697 -2.54149 0
M  V30 6629 C 614.07 -3.52046 -2.43408 0
M  V30 6630 C 613.396 -3.74466 -3.81679 0
M  V30 6631 C 614.696 -4.85247 -1.93216 0
M  V30 6632 H 616.39 -2.87244 -0.844477 0
M  V30 6633 H 613.936 -1.38194 -0.40478 0
M  V30 6634 H 615.889 -2.65582 -3.27176 0
M  V30 6635 H 614.613 -1.46414 -2.91943 0
M  V30 6636 H 613.272 -3.23301 -1.72834 0
M  V30 6637 H 612.92 -2.81461 -4.1688 0
M  V30 6638 H 612.62 -4.52084 -3.75359 0
M  V30 6639 H 614.144 -4.0576 -4.5628 0
M  V30 6640 H 615.558 -5.12957 -2.56023 0
M  V30 6641 H 613.955 -5.66556 -1.97825 0
M  V30 6642 H 615.025 -4.7672 -0.88689 0
M  V30 6643 N 616.368 0.432326 -1.51554 0
M  V30 6644 C 617.596 1.20364 -1.68286 0
M  V30 6645 C 618.011 1.84888 -0.38233 0
M  V30 6646 O 617.368 1.70924 0.639627 0
M  V30 6647 C 617.419 2.28398 -2.80208 0
M  V30 6648 O 617.14 1.66512 -4.05223 0
M  V30 6649 C 618.641 3.18584 -3.08251 0
M  V30 6650 H 615.861 0.36259 -0.564596 0
M  V30 6651 H 618.405 0.511647 -1.97996 0
M  V30 6652 H 616.56 2.93305 -2.53083 0
M  V30 6653 H 616.974 2.37951 -4.67418 0
M  V30 6654 H 618.448 3.90511 -3.90135 0
M  V30 6655 H 618.925 3.79628 -2.2086 0
M  V30 6656 H 619.531 2.59372 -3.37055 0
M  V30 6657 N 617.846 1.41785 0.688094 0
M  V30 6658 C 619.071 1.45117 1.48175 0
M  V30 6659 C 619.496 0.060129 1.88004 0
M  V30 6660 O 618.854 -0.938385 1.55126 0
M  V30 6661 C 618.902 2.37224 2.71583 0
M  V30 6662 O 618.006 1.83443 3.69354 0
M  V30 6663 H 617.347 0.492208 0.445676 0
M  V30 6664 H 619.877 1.86329 0.845145 0
M  V30 6665 H 619.887 2.53353 3.19806 0
M  V30 6666 H 618.562 3.38293 2.41931 0
M  V30 6667 H 617.139 1.76802 3.28322 0
M  V30 6668 N 619.324 -0.923095 1.27737 0
M  V30 6669 C 620.57 -1.67375 1.14514 0
M  V30 6670 C 620.903 -1.91751 -0.307424 0
M  V30 6671 O 620.178 -1.51119 -1.22447 0
M  V30 6672 C 620.461 -3.03745 1.9342 0
M  V30 6673 C 620.314 -2.86581 3.46686 0
M  V30 6674 C 621.633 -4.04144 1.74228 0
M  V30 6675 H 618.752 -0.607427 0.417374 0
M  V30 6676 H 621.394 -1.07089 1.56946 0
M  V30 6677 H 619.544 -3.55204 1.5736 0
M  V30 6678 H 621.216 -2.42203 3.92601 0
M  V30 6679 H 619.459 -2.21829 3.72793 0
M  V30 6680 H 620.13 -3.83381 3.97143 0
M  V30 6681 H 622.606 -3.61712 2.05678 0
M  V30 6682 H 621.482 -4.97543 2.31824 0
M  V30 6683 H 621.743 -4.36661 0.691373 0
M  V30 6684 N 620.802 -1.09834 -1.13024 0
M  V30 6685 C 622.03 -0.858902 -1.8823 0
M  V30 6686 C 622.445 0.590164 -1.79339 0
M  V30 6687 O 621.802 1.4065 -1.16292 0
M  V30 6688 C 621.853 -1.29066 -3.37675 0
M  V30 6689 O 621.574 -2.6829 -3.46341 0
M  V30 6690 C 623.075 -1.08421 -4.29837 0
M  V30 6691 H 620.295 -0.308713 -0.595766 0
M  V30 6692 H 622.839 -1.4614 -1.4305 0
M  V30 6693 H 620.994 -0.731961 -3.80422 0
M  V30 6694 H 621.408 -2.86598 -4.39274 0
M  V30 6695 H 622.882 -1.43553 -5.33007 0
M  V30 6696 H 623.359 -0.0223315 -4.39194 0
M  V30 6697 H 623.965 -1.62907 -3.92863 0
M  V30 6698 N 622.28 1.30327 -0.886154 0
M  V30 6699 C 623.508 2.00254 -0.520176 0
M  V30 6700 C 623.923 1.66419 0.891637 0
M  V30 6701 O 623.28 0.901951 1.58654 0
M  V30 6702 C 623.331 3.54916 -0.686775 0
M  V30 6703 O 623.052 3.87547 -2.04301 0
M  V30 6704 C 624.553 4.42115 -0.323945 0
M  V30 6705 H 621.773 0.640204 -0.200947 0
M  V30 6706 H 624.317 1.66183 -1.19178 0
M  V30 6707 H 622.472 3.8735 -0.0625273 0
M  V30 6708 H 622.886 4.82247 -2.06249 0
M  V30 6709 H 624.36 5.49808 -0.491407 0
M  V30 6710 H 624.837 4.32953 0.73811 0
M  V30 6711 H 625.443 4.15129 -0.924565 0
M  V30 6712 N 623.758 0.647228 1.43697 0
M  V30 6713 C 625.004 0.158422 2.0218 0
M  V30 6714 C 625.337 -1.22233 1.50907 0
M  V30 6715 O 624.612 -1.81478 0.699702 0
M  V30 6716 C 624.895 0.1627 3.59732 0
M  V30 6717 C 624.748 1.57694 4.21251 0
M  V30 6718 C 626.067 -0.504138 4.37203 0
M  V30 6719 H 623.186 0.059042 0.734631 0
M  V30 6720 H 625.828 0.826772 1.71069 0
M  V30 6721 H 623.978 -0.406414 3.86368 0
M  V30 6722 H 625.65 2.19618 4.05667 0
M  V30 6723 H 623.893 2.12603 3.7813 0
M  V30 6724 H 624.564 1.53183 5.3032 0
M  V30 6725 H 627.04 -0.0199841 4.16095 0
M  V30 6726 H 625.916 -0.470394 5.46881 0
M  V30 6727 H 626.177 -1.57726 4.13007 0
M  V30 6728 N 625.236 -1.5273 0.388769 0
M  V30 6729 C 626.166 -2.29353 -0.438111 0
M  V30 6730 C 627.147 -1.32719 -1.06394 0
M  V30 6731 O 628.332 -1.61612 -1.07681 0
M  V30 6732 C 625.462 -3.09995 -1.56589 0
M  V30 6733 C 624.416 -4.14509 -1.06613 0
M  V30 6734 C 623.742 -4.83372 -2.28594 0
M  V30 6735 C 625.042 -5.22127 -0.134459 0
M  V30 6736 H 626.736 -2.98723 0.201206 0
M  V30 6737 H 624.282 -1.43665 0.0982089 0
M  V30 6738 H 626.235 -3.62357 -2.15118 0
M  V30 6739 H 624.959 -2.38357 -2.23279 0
M  V30 6740 H 623.618 -3.63128 -0.503383 0
M  V30 6741 H 623.266 -4.08283 -2.93792 0
M  V30 6742 H 622.966 -5.54012 -1.95817 0
M  V30 6743 H 624.49 -5.38538 -2.87766 0
M  V30 6744 H 625.904 -5.69851 -0.627914 0
M  V30 6745 H 624.301 -6.00011 0.103534 0
M  V30 6746 H 625.371 -4.77971 0.816798 0
M  V30 6747 N 626.714 -0.118576 -1.57153 0
M  V30 6748 C 628.125 0.40687 -1.82213 0
M  V30 6749 C 628.476 1.66636 -1.03571 0
M  V30 6750 O 627.601 2.14682 -0.272171 0
M  V30 6751 C 628.196 0.744949 -3.30509 0
M  V30 6752 C 626.755 1.21503 -3.5625 0
M  V30 6753 C 625.902 0.223511 -2.76398 0
M  V30 6754 H 628.853 -0.343712 -1.54933 0
M  V30 6755 H 628.874 1.6024 -3.45114 0
M  V30 6756 H 628.386 -0.171911 -3.87719 0
M  V30 6757 H 626.487 2.1488 -3.04396 0
M  V30 6758 H 626.6 1.16065 -4.64829 0
M  V30 6759 H 624.964 0.71046 -2.44591 0
M  V30 6760 H 625.747 -0.686439 -3.36367 0
M  V30 6761 O 628.231 1.61487 0.0208228 0
M  V30 6762 H 628.922 1.82811 0.640289 0
M  V30 END ATOM
M  V30 BEGIN BOND
M  V30 END BOND
M  V30 END CTAB
M  END
$$$$
