drugbank_target|O43614 Orexin receptor type 2 (DB09034; DB11951)
 OpenBabel12092121033D

  0  0  0     0  0            999 V3000
M  V30 BEGIN CTAB
M  V30 COUNTS 7186 7280 0 0 0
M  V30 BEGIN ATOM
M  V30 1 H -0.908 1.98254 -0.117106 0
M  V30 2 N 0 1.576 0 0
M  V30 3 C 0.933 2.03868 1.02534 0
M  V30 4 C 1.911 0.928543 1.3348 0
M  V30 5 O 3.095 1.19667 1.45644 0
M  V30 6 C 0.222 2.43627 2.35294 0
M  V30 7 C -0.732 3.65373 2.2001 0
M  V30 8 S 0.101 5.13292 1.52614 0
M  V30 9 C 1.257 5.56322 2.86805 0
M  V30 10 H 1.49 2.90518 0.631377 0
M  V30 11 H -0.977 1.52953 0.210867 0
M  V30 12 H 0.981 2.67203 3.11629 0
M  V30 13 H -0.358 1.57376 2.7183 0
M  V30 14 H -1.165 3.90944 3.18086 0
M  V30 15 H -1.563 3.418 1.51819 0
M  V30 16 H 0.729 5.58782 3.83104 0
M  V30 17 H 1.672 6.56266 2.65933 0
M  V30 18 H 2.08 4.83886 2.90714 0
M  V30 19 N 1.4781 -0.272755 1.55222 0
M  V30 20 C 2.7031 -1.02683 1.80197 0
M  V30 21 C 3.1281 -1.79142 0.573551 0
M  V30 22 O 2.4861 -1.74917 -0.476849 0
M  V30 23 C 2.5341 -1.9609 3.02624 0
M  V30 24 O 1.6381 -3.04863 2.77727 0
M  V30 25 H 0.9791 -0.293557 0.595584 0
M  V30 26 H 3.5091 -0.30159 2.02365 0
M  V30 27 H 3.5191 -2.38039 3.31363 0
M  V30 28 H 2.1941 -1.39851 3.91682 0
M  V30 29 H 0.7711 -2.67228 2.60084 0
M  V30 30 N 2.9562 -1.48159 -0.537278 0
M  V30 31 C 4.2042 -1.55497 -1.29094 0
M  V30 32 C 4.5252 -0.227454 -1.93669 0
M  V30 33 O 3.7952 0.750386 -1.80959 0
M  V30 34 H 2.3752 -0.572832 -0.47945 0
M  V30 35 H 5.0372 -1.84579 -0.625818 0
M  V30 36 H 4.1332 -2.33216 -2.07405 0
M  V30 37 N 4.4343 0.785586 -1.36625 0
M  V30 38 C 5.6623 1.57448 -1.3423 0
M  V30 39 C 6.0773 1.88649 0.0755653 0
M  V30 40 O 5.4343 1.50414 1.03354 0
M  V30 41 C 5.4853 2.89316 -2.16745 0
M  V30 42 O 5.2063 2.59459 -3.53005 0
M  V30 43 C 6.7073 3.83606 -2.22174 0
M  V30 44 H 3.9273 0.488226 -0.4603 0
M  V30 45 H 6.4713 0.974733 -1.79775 0
M  V30 46 H 4.6263 3.4575 -1.74745 0
M  V30 47 H 5.0403 3.43804 -3.96105 0
M  V30 48 H 6.5143 4.73181 -2.8426 0
M  V30 49 H 6.9913 4.21734 -1.22627 0
M  V30 50 H 7.5973 3.33104 -2.64427 0
M  V30 51 N 5.9124 1.20967 1.01018 0
M  V30 52 C 6.8594 0.964281 2.09691 0
M  V30 53 C 7.8294 -0.107853 1.65749 0
M  V30 54 O 9.0144 0.0381987 1.90762 0
M  V30 55 C 6.1544 0.52943 3.41015 0
M  V30 56 C 5.2674 1.67043 3.98398 0
M  V30 57 C 4.4024 1.18525 5.17808 0
M  V30 58 C 3.4414 2.29892 5.67288 0
M  V30 59 N 2.5784 1.82546 6.77954 0
M  V30 60 H 7.4184 1.89463 2.30017 0
M  V30 61 H 4.9554 0.944289 1.1279 0
M  V30 62 H 6.9134 0.258588 4.16398 0
M  V30 63 H 5.5434 -0.363919 3.20742 0
M  V30 64 H 4.5954 2.05603 3.20049 0
M  V30 65 H 5.9074 2.50877 4.31117 0
M  V30 66 H 5.0614 0.870762 6.00419 0
M  V30 67 H 3.8004 0.316887 4.86669 0
M  V30 68 H 2.8054 2.6215 4.83278 0
M  V30 69 H 4.0304 3.17216 6.00459 0
M  V30 70 H 1.9764 0.980454 6.48632 0
M  V30 71 H 1.8934 2.59956 7.09901 0
M  V30 72 H 3.1614 1.54115 7.64113 0
M  V30 73 N 7.3905 -1.2043 1.01659 0
M  V30 74 C 8.3205 -2.25466 0.607226 0
M  V30 75 C 9.3015 -1.65853 -0.377716 0
M  V30 76 O 10.4865 -1.92409 -0.263149 0
M  V30 77 C 7.6165 -3.47256 -0.0552949 0
M  V30 78 C 6.5705 -4.19462 0.850632 0
M  V30 79 C 5.8965 -5.34673 0.0538859 0
M  V30 80 C 7.1965 -4.75603 2.15868 0
M  V30 81 H 8.8905 -2.59962 1.48526 0
M  V30 82 H 6.4365 -1.2496 0.715605 0
M  V30 83 H 8.3895 -4.19917 -0.353233 0
M  V30 84 H 7.1135 -3.11924 -0.968045 0
M  V30 85 H 5.7725 -3.48667 1.13257 0
M  V30 86 H 5.4205 -4.95585 -0.860514 0
M  V30 87 H 5.1205 -5.83913 0.657192 0
M  V30 88 H 6.6445 -6.10138 -0.237598 0
M  V30 89 H 8.0585 -5.40083 1.92311 0
M  V30 90 H 6.4555 -5.3528 2.71284 0
M  V30 91 H 7.5255 -3.94346 2.82169 0
M  V30 92 N 8.8686 -0.792821 -1.36206 0
M  V30 93 C 9.7786 -0.194808 -2.3379 0
M  V30 94 C 10.7946 0.654869 -1.61206 0
M  V30 95 O 11.9706 0.569856 -1.9317 0
M  V30 96 C 9.0356 0.657721 -3.40404 0
M  V30 97 C 8.0966 -0.210849 -4.28782 0
M  V30 98 C 7.3296 0.601086 -5.30304 0
M  V30 99 O 7.5526 1.83682 -5.40016 0
M  V30 100 O 6.4866 -0.000808277 -6.019 0
M  V30 101 H 10.3126 -1.00172 -2.86704 0
M  V30 102 H 7.8976 -0.554341 -1.38735 0
M  V30 103 H 9.7796 1.14375 -4.05581 0
M  V30 104 H 8.4546 1.44247 -2.89784 0
M  V30 105 H 7.3616 -0.743714 -3.66633 0
M  V30 106 H 8.6946 -0.959195 -4.82763 0
M  V30 107 N 10.3467 1.47872 -0.545128 0
M  V30 108 C 11.6237 1.9554 0.0485222 0
M  V30 109 C 12.0037 1.4876 1.49779 0
M  V30 110 O 11.3517 0.720925 2.16829 0
M  V30 111 C 11.5617 3.48898 -0.084417 0
M  V30 112 C 12.9097 4.24547 0.0671239 0
M  V30 113 O 13.9337 3.56198 -0.0113649 0
M  V30 114 O 12.7927 5.45999 0.233882 0
M  V30 115 H 9.8867 0.823957 0.0708773 0
M  V30 116 H 12.4327 1.58327 -0.610798 0
M  V30 117 H 11.2047 3.75714 -1.09337 0
M  V30 118 H 10.8277 3.92845 0.613066 0
M  V30 119 N 11.8248 0.280983 1.55075 0
M  V30 120 C 13.0498 -0.340154 2.04592 0
M  V30 121 C 13.4748 -1.48246 1.15779 0
M  V30 122 O 12.8328 -1.80614 0.15761 0
M  V30 123 C 12.8808 -0.793104 3.5177 0
M  V30 124 O 11.9848 -1.89981 3.66034 0
M  V30 125 H 11.3258 -0.0694289 0.66036 0
M  V30 126 H 13.8558 0.416993 2.00306 0
M  V30 127 H 13.8658 -1.08729 3.93245 0
M  V30 128 H 12.5408 0.0426163 4.15878 0
M  V30 129 H 11.1178 -1.60771 3.36463 0
M  V30 130 N 13.3029 -1.57598 0.00835791 0
M  V30 131 C 14.7139 -1.7892 -0.53333 0
M  V30 132 C 15.0649 -0.916609 -1.73473 0
M  V30 133 O 14.1899 -0.121336 -2.1606 0
M  V30 134 C 14.7849 -3.24488 -0.974313 0
M  V30 135 C 13.3439 -3.46878 -1.46125 0
M  V30 136 C 12.4909 -2.74157 -0.416302 0
M  V30 137 H 15.4419 -1.56958 0.234495 0
M  V30 138 H 15.4629 -3.3306 -1.83988 0
M  V30 139 H 14.9749 -3.87972 -0.099718 0
M  V30 140 H 13.0759 -2.8862 -2.35646 0
M  V30 141 H 13.1889 -4.55572 -1.48295 0
M  V30 142 H 11.5529 -2.39022 -0.87981 0
M  V30 143 H 12.3359 -3.40345 0.44947 0
M  V30 144 N 14.781 0.264519 -1.55364 0
M  V30 145 C 16.192 0.834936 -1.6699 0
M  V30 146 C 16.543 1.86718 -0.602552 0
M  V30 147 O 15.668 2.14899 0.254425 0
M  V30 148 C 16.263 1.5212 -3.02729 0
M  V30 149 C 14.822 2.03954 -3.16354 0
M  V30 150 C 13.969 0.884498 -2.62815 0
M  V30 151 H 16.92 0.0406869 -1.58648 0
M  V30 152 H 16.941 2.38853 -2.96191 0
M  V30 153 H 16.453 0.769668 -3.80392 0
M  V30 154 H 14.554 2.82041 -2.43482 0
M  V30 155 H 14.667 2.24902 -4.23032 0
M  V30 156 H 13.031 1.2802 -2.20188 0
M  V30 157 H 13.814 0.14634 -3.42988 0
M  V30 158 N 16.2591 1.48442 0.529413 0
M  V30 159 C 17.4991 1.58086 1.29569 0
M  V30 160 C 17.8631 0.249302 1.90375 0
M  V30 161 O 19.0641 0.220738 2.67892 0
M  V30 162 C 17.3351 2.68793 2.35552 0
M  V30 163 S 18.8941 2.98207 3.21898 0
M  V30 164 H 15.7121 0.557922 0.440732 0
M  V30 165 H 18.3141 1.85966 0.603059 0
M  V30 166 H 17.0181 3.64102 1.89363 0
M  V30 167 H 16.5491 2.42817 3.09522 0
M  V30 168 H 18.5641 2.37548 4.35644 0
M  V30 169 N 17.7372 -0.778329 1.37039 0
M  V30 170 C 19.1532 -1.07796 1.17695 0
M  V30 171 C 19.3532 -2.01498 0.00860115 0
M  V30 172 O 18.4092 -2.43901 -0.653352 0
M  V30 173 C 19.7222 -1.68178 2.49272 0
M  V30 174 C 21.2702 -1.80467 2.55735 0
M  V30 175 C 21.7452 -2.44263 3.87427 0
M  V30 176 N 23.2362 -2.51721 3.88833 0
M  V30 177 C 23.9712 -3.01919 4.87476 0
M  V30 178 N 23.4672 -3.5234 5.96513 0
M  V30 179 N 25.2602 -3.00733 4.74885 0
M  V30 180 H 17.4112 -0.156032 2.11826 0
M  V30 181 H 19.6742 -0.131844 0.938787 0
M  V30 182 H 19.3802 -1.06796 3.35093 0
M  V30 183 H 19.2542 -2.67554 2.65885 0
M  V30 184 H 21.6412 -2.40984 1.70325 0
M  V30 185 H 21.7222 -0.798656 2.43013 0
M  V30 186 H 21.3662 -1.84388 4.73248 0
M  V30 187 H 21.2962 -3.45458 3.9745 0
M  V30 188 H 23.7872 -2.1603 3.10063 0
M  V30 189 H 24.1002 -3.89027 6.67741 0
M  V30 190 H 22.4452 -3.50462 6.00168 0
M  V30 191 H 25.6362 -2.60638 3.88826 0
M  V30 192 H 25.8092 -3.39545 5.51918 0
M  V30 193 N 19.2153 -1.21501 -1.00376 0
M  V30 194 C 20.1633 -0.972442 -2.11297 0
M  V30 195 C 21.1573 0.080731 -1.69208 0
M  V30 196 O 22.3633 -0.0707666 -1.79861 0
M  V30 197 H 18.7383 -0.297218 -0.690772 0
M  V30 198 H 20.7093 -1.91394 -2.28934 0
M  V30 199 C 19.4583 -0.555065 -3.43241 0
M  V30 200 H 18.7813 -1.35709 -3.76062 0
M  V30 201 H 20.2213 -0.424664 -4.21868 0
M  V30 202 C 18.6803 0.734147 -3.28804 0
M  V30 203 O 19.2103 1.78937 -3.59645 0
M  V30 204 N 17.4163 0.701133 -2.82015 0
M  V30 205 H 16.9633 -0.157874 -2.57116 0
M  V30 206 H 16.9213 1.56403 -2.72737 0
M  V30 207 N 20.6934 1.19889 -1.02296 0
M  V30 208 C 21.9394 1.89973 -0.726759 0
M  V30 209 C 22.2944 1.7776 0.73614 0
M  V30 210 O 21.5874 1.15523 1.52856 0
M  V30 211 C 21.7814 3.39883 -1.10518 0
M  V30 212 C 21.6104 3.66684 -2.60332 0
M  V30 213 C 20.3804 3.85045 -3.27213 0
M  V30 214 C 22.5784 3.68727 -3.58532 0
M  V30 215 N 20.5604 3.99422 -4.66192 0
M  V30 216 C 21.9314 3.88604 -4.83101 0
M  V30 217 C 23.9864 3.51722 -3.52414 0
M  V30 218 C 22.6894 3.9324 -6.02292 0
M  V30 219 C 24.7154 3.57632 -4.71013 0
M  V30 220 C 24.0774 3.77988 -5.94394 0
M  V30 221 H 20.1764 0.714551 -0.317712 0
M  V30 222 H 22.7604 1.44123 -1.30907 0
M  V30 223 H 20.9314 3.8447 -0.551142 0
M  V30 224 H 22.6634 3.97464 -0.761853 0
M  V30 225 H 19.4184 3.83689 -2.77632 0
M  V30 226 H 19.8424 4.10473 -5.38368 0
M  V30 227 H 24.4844 3.34945 -2.58015 0
M  V30 228 H 22.2024 4.08811 -6.97065 0
M  V30 229 H 25.7884 3.45773 -4.67902 0
M  V30 230 H 24.6684 3.82428 -6.8463 0
M  V30 231 N 22.1715 0.800033 1.35784 0
M  V30 232 C 23.3965 0.388511 2.03729 0
M  V30 233 C 23.8215 -0.990481 1.5991 0
M  V30 234 O 23.1795 -1.64013 0.772612 0
M  V30 235 C 23.2275 0.4726 3.5749 0
M  V30 236 O 22.3315 -0.51646 4.09153 0
M  V30 237 H 21.6725 0.163271 0.643614 0
M  V30 238 H 24.2025 1.0841 1.73518 0
M  V30 239 H 24.2125 0.34003 4.06581 0
M  V30 240 H 22.8875 1.47848 3.88734 0
M  V30 241 H 21.4645 -0.344673 3.71304 0
M  V30 242 N 23.6496 -1.47581 0.552962 0
M  V30 243 C 24.8746 -2.07378 0.0300593 0
M  V30 244 C 25.2996 -1.40355 -1.25229 0
M  V30 245 O 24.6576 -0.477099 -1.7491 0
M  V30 246 C 24.7056 -3.60274 -0.153231 0
M  V30 247 O 23.8096 -3.94041 -1.21678 0
M  V30 248 H 23.1506 -0.662158 0.0494182 0
M  V30 249 H 25.6806 -1.89662 0.767434 0
M  V30 250 H 25.6906 -4.0633 -0.368761 0
M  V30 251 H 24.3656 -4.08455 0.783397 0
M  V30 252 H 22.9426 -3.59735 -0.982079 0
M  V30 253 N 25.1277 -0.289203 -1.54924 0
M  V30 254 C 26.0907 0.579144 -2.21762 0
M  V30 255 C 27.0907 1.07047 -1.1999 0
M  V30 256 O 28.2807 0.968384 -1.44803 0
M  V30 257 C 25.4127 1.80055 -2.8947 0
M  V30 258 H 26.6057 -0.00464908 -2.999 0
M  V30 259 H 24.1587 -0.0399306 -1.56249 0
M  V30 260 H 24.8937 2.42449 -2.15381 0
M  V30 261 H 24.6787 1.45602 -3.64064 0
M  V30 262 H 26.1687 2.41773 -3.40493 0
M  V30 263 N 26.6058 1.57591 -0.0167156 0
M  V30 264 C 27.8308 1.9598 0.67872 0
M  V30 265 C 28.2558 0.892546 1.65575 0
M  V30 266 O 27.6138 -0.147772 1.80697 0
M  V30 267 C 27.6618 3.33468 1.37227 0
M  V30 268 O 26.7658 3.28954 2.48722 0
M  V30 269 H 26.1068 0.639339 0.17928 0
M  V30 270 H 28.6368 2.04463 -0.0748802 0
M  V30 271 H 28.6468 3.69417 1.7319 0
M  V30 272 H 27.3218 4.10694 0.656007 0
M  V30 273 H 25.8988 3.04705 2.14963 0
M  V30 274 N 28.0839 -0.256276 1.55502 0
M  V30 275 C 28.9939 -1.33882 1.92647 0
M  V30 276 C 30.0099 -1.53159 0.825727 0
M  V30 277 O 31.1859 -1.66963 1.12629 0
M  V30 278 C 28.2509 -2.6751 2.20543 0
M  V30 279 C 27.3119 -2.56836 3.43997 0
M  V30 280 C 26.5449 -3.84092 3.70553 0
M  V30 281 O 26.7679 -4.85545 2.99336 0
M  V30 282 O 25.7019 -3.83288 4.64084 0
M  V30 283 H 29.5279 -1.05374 2.84833 0
M  V30 284 H 27.1129 -0.456237 1.42263 0
M  V30 285 H 28.9949 -3.46492 2.39835 0
M  V30 286 H 27.6699 -2.9577 1.31536 0
M  V30 287 H 26.5769 -1.76172 3.30021 0
M  V30 288 H 27.9099 -2.33523 4.33275 0
M  V30 289 N 29.562 -1.4872 -0.521534 0
M  V30 290 C 30.492 -1.66771 -1.63431 0
M  V30 291 C 31.473 -0.516499 -1.62069 0
M  V30 292 O 32.658 -0.750013 -1.79132 0
M  V30 293 C 29.788 -1.71515 -3.01993 0
M  V30 294 C 28.742 -2.86222 -3.18216 0
M  V30 295 C 28.068 -2.76061 -4.57924 0
M  V30 296 C 29.368 -4.27419 -3.00184 0
M  V30 297 H 31.062 -2.59932 -1.48579 0
M  V30 298 H 28.608 -1.25089 -0.713358 0
M  V30 299 H 30.561 -1.82731 -3.7972 0
M  V30 300 H 29.285 -0.749393 -3.17886 0
M  V30 301 H 27.944 -2.74575 -2.42908 0
M  V30 302 H 27.592 -1.77437 -4.70665 0
M  V30 303 H 27.292 -3.53037 -4.69722 0
M  V30 304 H 28.816 -2.89256 -5.37739 0
M  V30 305 H 30.23 -4.39855 -3.67697 0
M  V30 306 H 28.627 -5.05458 -3.2347 0
M  V30 307 H 29.697 -4.43293 -1.96518 0
M  V30 308 N 31.0401 0.771051 -1.3745 0
M  V30 309 C 31.9881 1.90574 -1.33358 0
M  V30 310 C 32.9821 1.67936 -0.22224 0
M  V30 311 O 34.1881 1.75717 -0.390304 0
M  V30 312 H 30.5631 0.626714 -0.415612 0
M  V30 313 H 32.5341 1.91142 -2.29144 0
M  V30 314 C 31.2831 3.27845 -1.15813 0
M  V30 315 H 30.6061 3.45842 -2.00583 0
M  V30 316 H 32.0461 4.07538 -1.17 0
M  V30 317 C 30.5051 3.36625 0.136165 0
M  V30 318 O 31.0351 3.85785 1.11949 0
M  V30 319 N 29.2411 2.89997 0.187099 0
M  V30 320 H 28.7881 2.50182 -0.613753 0
M  V30 321 H 28.7461 2.96252 1.05272 0
M  V30 322 N 32.5182 1.22032 0.997298 0
M  V30 323 C 33.4282 1.00271 2.12092 0
M  V30 324 C 34.4442 -0.047621 1.73935 0
M  V30 325 O 35.6202 0.144136 2.00884 0
M  V30 326 C 32.6852 0.578449 3.4184 0
M  V30 327 C 31.7462 1.70189 3.94125 0
M  V30 328 C 30.9792 1.29778 5.17681 0
M  V30 329 O 31.2022 0.174676 5.70132 0
M  V30 330 O 30.1362 2.11261 5.63607 0
M  V30 331 H 33.9622 1.94398 2.3333 0
M  V30 332 H 31.5472 1.00587 1.10465 0
M  V30 333 H 33.4292 0.351998 4.19927 0
M  V30 334 H 32.1042 -0.334019 3.21972 0
M  V30 335 H 31.0112 1.98282 3.1723 0
M  V30 336 H 32.3442 2.59206 4.18417 0
M  V30 337 N 33.9963 -1.19345 1.0293 0
M  V30 338 C 35.2243 -1.92997 0.745644 0
M  V30 339 C 35.6393 -1.75519 -0.695589 0
M  V30 340 O 34.9963 -1.07737 -1.47306 0
M  V30 341 C 35.0473 -3.44741 1.08792 0
M  V30 342 O 34.7683 -3.61658 2.47256 0
M  V30 343 C 36.2693 -4.35515 0.827129 0
M  V30 344 H 33.4893 -0.613042 0.272801 0
M  V30 345 H 36.0333 -1.51473 1.3739 0
M  V30 346 H 34.1883 -3.84097 0.504832 0
M  V30 347 H 34.6023 -4.55514 2.60015 0
M  V30 348 H 36.0763 -5.40589 1.11658 0
M  V30 349 H 36.5533 -4.38552 -0.238436 0
M  V30 350 H 37.1593 -4.01841 1.39297 0
M  V30 351 N 35.4744 -0.807222 -1.35358 0
M  V30 352 C 36.4064 -0.175717 -2.28525 0
M  V30 353 C 37.4194 0.625354 -1.5031 0
M  V30 354 O 38.6084 0.457611 -1.72535 0
M  V30 355 C 35.7084 0.773471 -3.29956 0
M  V30 356 C 34.8814 0.0186296 -4.37396 0
M  V30 357 C 33.9404 0.886395 -5.18681 0
M  V30 358 O 32.9664 0.337106 -5.68201 0
M  V30 359 N 34.1684 2.20839 -5.36852 0
M  V30 360 H 36.9334 -0.976091 -2.83359 0
M  V30 361 H 34.4944 -0.662737 -1.47714 0
M  V30 362 H 36.4864 1.35824 -3.81227 0
M  V30 363 H 35.0564 1.47465 -2.75632 0
M  V30 364 H 34.2764 -0.747349 -3.87051 0
M  V30 365 H 35.5644 -0.501577 -5.06322 0
M  V30 366 H 34.9624 2.67858 -4.98265 0
M  V30 367 H 33.5194 2.74237 -5.91301 0
M  V30 368 N 36.9525 1.47285 -0.560781 0
M  V30 369 C 37.8625 2.33846 0.187954 0
M  V30 370 C 38.8785 1.48412 0.908293 0
M  V30 371 O 40.0545 1.81332 0.876388 0
M  V30 372 C 37.1195 3.25178 1.2025 0
M  V30 373 C 36.1805 4.26504 0.489208 0
M  V30 374 C 35.4135 5.13472 1.45542 0
M  V30 375 O 35.6365 5.02959 2.6905 0
M  V30 376 O 34.5705 5.93902 0.977963 0
M  V30 377 H 38.3965 2.99177 -0.522177 0
M  V30 378 H 35.9815 1.45903 -0.321364 0
M  V30 379 H 37.8635 3.81584 1.78805 0
M  V30 380 H 36.5385 2.6247 1.89449 0
M  V30 381 H 35.4455 3.73847 -0.137627 0
M  V30 382 H 36.7785 4.91935 -0.161399 0
M  V30 383 N 38.4306 0.297415 1.54768 0
M  V30 384 C 39.8416 -0.195947 1.85669 0
M  V30 385 C 40.1926 -1.53707 1.21937 0
M  V30 386 O 39.3176 -2.10164 0.515754 0
M  V30 387 C 39.9126 -0.362318 3.36857 0
M  V30 388 C 38.4716 -0.799901 3.67802 0
M  V30 389 C 37.6186 0.0938578 2.77141 0
M  V30 390 H 40.5696 0.518538 1.4999 0
M  V30 391 H 40.5906 -1.19745 3.61167 0
M  V30 392 H 40.1026 0.613921 3.83214 0
M  V30 393 H 38.2036 -1.78682 3.26961 0
M  V30 394 H 38.3166 -0.621773 4.75048 0
M  V30 395 H 36.6806 -0.426254 2.51108 0
M  V30 396 H 37.4636 1.06639 3.26318 0
M  V30 397 N 39.9087 -1.5758 0.0250728 0
M  V30 398 C 41.1557 -1.91633 -0.654444 0
M  V30 399 C 41.4837 -0.901103 -1.72367 0
M  V30 400 O 40.7387 0.0905647 -1.9549 0
M  V30 401 C 41.0377 -3.32421 -1.31268 0
M  V30 402 C 40.7037 -4.49344 -0.374223 0
M  V30 403 C 39.3657 -4.8106 -0.115911 0
M  V30 404 C 41.7177 -5.20498 0.270432 0
M  V30 405 C 39.0457 -5.8129 0.79493 0
M  V30 406 C 41.3977 -6.21699 1.1693 0
M  V30 407 C 40.0617 -6.51859 1.43655 0
M  V30 408 H 39.3317 -0.701236 -0.239478 0
M  V30 409 H 41.9787 -1.91307 0.0859734 0
M  V30 410 H 40.2837 -3.28989 -2.12775 0
M  V30 411 H 41.9807 -3.56038 -1.84494 0
M  V30 412 H 38.5707 -4.24579 -0.58573 0
M  V30 413 H 42.7547 -4.96229 0.0839194 0
M  V30 414 H 38.0107 -6.03005 1.00973 0
M  V30 415 H 42.1847 -6.75955 1.67504 0
M  V30 416 H 39.8117 -7.2934 2.144 0
M  V30 417 N 41.3868 0.248026 -1.55636 0
M  V30 418 C 42.3168 1.31079 -1.93237 0
M  V30 419 C 43.2978 1.50264 -0.797174 0
M  V30 420 O 44.4828 1.62891 -1.05737 0
M  V30 421 C 41.6128 2.66575 -2.22609 0
M  V30 422 C 40.5668 2.62087 -3.3837 0
M  V30 423 C 39.8928 4.01369 -3.53281 0
M  V30 424 C 41.1928 2.19171 -4.7409 0
M  V30 425 H 42.8868 0.998556 -2.82257 0
M  V30 426 H 40.4328 0.47891 -1.35803 0
M  V30 427 H 42.3858 3.41057 -2.47503 0
M  V30 428 H 41.1098 2.99432 -1.30414 0
M  V30 429 H 39.7688 1.90063 -3.13483 0
M  V30 430 H 39.4168 4.31489 -2.58508 0
M  V30 431 H 39.1168 3.99254 -4.31127 0
M  V30 432 H 40.6408 4.77552 -3.80495 0
M  V30 433 H 42.0548 2.83384 -4.98363 0
M  V30 434 H 40.4518 2.2817 -5.5503 0
M  V30 435 H 41.5218 1.14336 -4.71227 0
M  V30 436 N 42.8649 1.48995 0.513639 0
M  V30 437 C 43.8129 1.65199 1.63744 0
M  V30 438 C 44.8069 0.51809 1.61283 0
M  V30 439 O 46.0129 0.697335 1.65943 0
M  V30 440 H 42.3879 0.52069 0.542574 0
M  V30 441 H 44.3589 2.59552 1.47226 0
M  V30 442 C 43.1079 1.72409 3.01945 0
M  V30 443 H 42.4309 2.59029 3.04539 0
M  V30 444 H 43.8709 1.87785 3.80148 0
M  V30 445 C 42.3299 0.46618 3.33659 0
M  V30 446 O 42.8599 -0.413744 3.99564 0
M  V30 447 N 41.0659 0.332931 2.88687 0
M  V30 448 H 40.6129 1.04996 2.35231 0
M  V30 449 H 40.5709 -0.507665 3.10274 0
M  V30 450 N 44.343 -0.763751 1.37857 0
M  V30 451 C 45.754 -1.3405 1.29952 0
M  V30 452 C 46.105 -1.96138 -0.0492898 0
M  V30 453 O 45.23 -1.94372 -0.951239 0
M  V30 454 C 45.825 -2.43729 2.35333 0
M  V30 455 C 44.384 -2.97151 2.31037 0
M  V30 456 C 43.531 -1.70438 2.18738 0
M  V30 457 H 46.482 -0.563396 1.48363 0
M  V30 458 H 46.503 -3.23412 2.00462 0
M  V30 459 H 46.015 -1.9851 3.33489 0
M  V30 460 H 44.116 -3.46724 1.3643 0
M  V30 461 H 44.229 -3.52221 3.24772 0
M  V30 462 H 42.593 -1.93673 1.65418 0
M  V30 463 H 43.376 -1.27312 3.18821 0
M  V30 464 N 45.8211 -1.22559 -0.990812 0
M  V30 465 C 47.0491 -1.07779 -1.76611 0
M  V30 466 C 47.4641 0.371513 -1.85109 0
M  V30 467 O 46.8211 1.25737 -1.32274 0
M  V30 468 C 46.8721 -1.68512 -3.19822 0
M  V30 469 O 46.5931 -3.07774 -3.1178 0
M  V30 470 C 48.0941 -1.59035 -4.13791 0
M  V30 471 H 45.3141 -0.377729 -0.554583 0
M  V30 472 H 47.8581 -1.62195 -1.24551 0
M  V30 473 H 46.0131 -1.18154 -3.68942 0
M  V30 474 H 46.4271 -3.37062 -4.01858 0
M  V30 475 H 47.9011 -2.0625 -5.1202 0
M  V30 476 H 48.3781 -0.547273 -4.35777 0
M  V30 477 H 48.9841 -2.08709 -3.70568 0
M  V30 478 N 47.2992 1.18797 -1.03562 0
M  V30 479 C 48.5762 1.84469 -0.650434 0
M  V30 480 C 48.9562 1.92319 0.870433 0
M  V30 481 O 48.3042 1.44528 1.76986 0
M  V30 482 C 48.5142 3.2306 -1.32036 0
M  V30 483 C 49.8622 3.9915 -1.44792 0
M  V30 484 O 50.8862 3.32481 -1.27806 0
M  V30 485 O 49.7452 5.18587 -1.72423 0
M  V30 486 H 46.8392 0.795251 -0.226946 0
M  V30 487 H 49.3852 1.26231 -1.13419 0
M  V30 488 H 48.1572 3.1222 -2.3587 0
M  V30 489 H 47.7802 3.88949 -0.8249 0
M  V30 490 N 48.7773 0.814389 1.34928 0
M  V30 491 C 50.0073 0.41054 2.0248 0
M  V30 492 C 50.4153 -0.985625 1.61499 0
M  V30 493 O 49.7583 -1.64781 0.811976 0
M  V30 494 C 49.8203 0.423384 3.56998 0
M  V30 495 C 49.4843 1.77141 4.21272 0
M  V30 496 C 50.4813 2.73093 4.42398 0
M  V30 497 C 48.1663 2.05755 4.58225 0
M  V30 498 C 50.1603 3.95838 4.9959 0
M  V30 499 C 47.8473 3.28762 5.1513 0
M  V30 500 C 48.8453 4.23621 5.35755 0
M  V30 501 O 48.5333 5.44456 5.91458 0
M  V30 502 H 48.2653 0.163997 0.655806 0
M  V30 503 H 50.8193 1.10155 1.73364 0
M  V30 504 H 49.0493 -0.324276 3.85338 0
M  V30 505 H 50.7383 0.0407683 4.0588 0
M  V30 506 H 51.5043 2.5228 4.14222 0
M  V30 507 H 47.3833 1.32727 4.4148 0
M  V30 508 H 50.9273 4.69891 5.15605 0
M  V30 509 H 46.8243 3.49443 5.42734 0
M  V30 510 H 47.5923 5.4586 6.09901 0
M  V30 511 N 50.2554 -1.46986 0.568584 0
M  V30 512 C 51.5324 -1.95592 -0.0174074 0
M  V30 513 C 51.9124 -1.51124 -1.47393 0
M  V30 514 O 51.2604 -0.755329 -2.15655 0
M  V30 515 C 51.4704 -3.48719 0.139913 0
M  V30 516 C 52.8184 -4.246 0.000426376 0
M  V30 517 O 53.8424 -3.56135 0.0680316 0
M  V30 518 O 52.7014 -5.46302 -0.146988 0
M  V30 519 H 49.7954 -0.82498 -0.0577599 0
M  V30 520 H 52.3414 -1.57335 0.635909 0
M  V30 521 H 51.1134 -3.73927 1.15301 0
M  V30 522 H 50.7364 -3.93771 -0.550491 0
M  V30 523 N 51.7335 -0.305618 -1.54608 0
M  V30 524 C 53.0105 0.355652 -1.92339 0
M  V30 525 C 53.3905 1.71324 -1.23335 0
M  V30 526 O 52.7385 2.25473 -0.370702 0
M  V30 527 C 52.9485 0.46572 -3.45879 0
M  V30 528 C 54.2965 0.734426 -4.182 0
M  V30 529 O 55.3205 0.54935 -3.51938 0
M  V30 530 O 54.1795 1.09024 -5.35515 0
M  V30 531 H 51.2735 0.199666 -0.802535 0
M  V30 532 H 53.8195 -0.354017 -1.65966 0
M  V30 533 H 52.5915 -0.488461 -3.88239 0
M  V30 534 H 52.2145 1.22367 -3.78301 0
M  V30 535 N 53.2116 1.57565 -0.0334293 0
M  V30 536 C 54.1216 2.13943 0.962572 0
M  V30 537 C 55.1376 1.09276 1.35406 0
M  V30 538 O 56.3136 1.41355 1.4346 0
M  V30 539 C 53.3786 2.65887 2.22497 0
M  V30 540 C 52.4396 3.85286 1.8935 0
M  V30 541 C 51.6726 4.34743 3.09571 0
M  V30 542 O 51.8956 3.83352 4.22371 0
M  V30 543 O 50.8296 5.26538 2.91618 0
M  V30 544 H 54.6556 2.99333 0.513169 0
M  V30 545 H 52.2406 1.4822 0.18743 0
M  V30 546 H 54.1226 2.99346 2.96598 0
M  V30 547 H 52.7976 1.83578 2.6661 0
M  V30 548 H 51.7046 3.56746 1.1262 0
M  V30 549 H 53.0376 4.68771 1.5005 0
M  V30 550 N 54.6897 -0.239769 1.55765 0
M  V30 551 C 55.5997 -1.31831 1.94056 0
M  V30 552 C 56.6157 -1.52275 0.841925 0
M  V30 553 O 57.7917 -1.65759 1.14394 0
M  V30 554 C 54.8567 -2.65156 2.23368 0
M  V30 555 C 53.9177 -2.53173 3.46701 0
M  V30 556 C 53.1507 -3.8014 3.74606 0
M  V30 557 O 53.3737 -4.82343 3.04469 0
M  V30 558 O 52.3077 -3.78344 4.68123 0
M  V30 559 H 56.1337 -1.02347 2.85935 0
M  V30 560 H 53.7187 -0.441123 1.42739 0
M  V30 561 H 55.6007 -3.43929 2.43497 0
M  V30 562 H 54.2757 -2.94358 1.34666 0
M  V30 563 H 53.1827 -1.72662 3.31871 0
M  V30 564 H 54.5157 -2.28915 4.35728 0
M  V30 565 N 56.1678 -1.49265 -0.50573 0
M  V30 566 C 57.4148 -1.58513 -1.26015 0
M  V30 567 C 57.7428 -0.26972 -1.92621 0
M  V30 568 O 56.9978 0.741997 -1.81088 0
M  V30 569 C 57.2968 -2.69008 -2.35308 0
M  V30 570 C 56.9628 -4.10662 -1.86192 0
M  V30 571 C 55.6248 -4.49212 -1.72516 0
M  V30 572 C 57.9768 -4.99336 -1.49375 0
M  V30 573 C 55.3048 -5.74214 -1.20394 0
M  V30 574 C 57.6568 -6.24852 -0.987072 0
M  V30 575 C 56.3208 -6.62236 -0.836669 0
M  V30 576 H 55.5908 -0.580041 -0.461122 0
M  V30 577 H 58.2378 -1.83078 -0.561665 0
M  V30 578 H 56.5428 -2.38396 -3.10926 0
M  V30 579 H 58.2398 -2.73373 -2.93374 0
M  V30 580 H 54.8298 -3.8023 -1.97795 0
M  V30 581 H 59.0138 -4.70212 -1.5879 0
M  V30 582 H 54.2698 -6.01883 -1.07458 0
M  V30 583 H 58.4438 -6.92944 -0.692983 0
M  V30 584 H 56.0708 -7.58979 -0.430607 0
M  V30 585 N 57.6459 0.756429 -1.3826 0
M  V30 586 C 58.5759 1.88374 -1.37976 0
M  V30 587 C 59.5569 1.68311 -0.246082 0
M  V30 588 O 60.7419 1.88944 -0.44874 0
M  V30 589 C 57.8719 3.25864 -1.20125 0
M  V30 590 C 56.8259 3.60523 -2.30666 0
M  V30 591 C 56.1519 4.9672 -1.97923 0
M  V30 592 C 57.4519 3.65692 -3.72916 0
M  V30 593 H 59.1459 1.88869 -2.32312 0
M  V30 594 H 56.6919 0.907272 -1.11824 0
M  V30 595 H 58.6449 4.0438 -1.18552 0
M  V30 596 H 57.3689 3.25841 -0.222498 0
M  V30 597 H 56.0279 2.84324 -2.3142 0
M  V30 598 H 55.6759 4.93253 -0.985393 0
M  V30 599 H 55.3759 5.20878 -2.71955 0
M  V30 600 H 56.8999 5.77618 -1.97964 0
M  V30 601 H 58.3139 4.34328 -3.74208 0
M  V30 602 H 56.7109 4.01358 -4.4613 0
M  V30 603 H 57.7809 2.65987 -4.05436 0
M  V30 604 N 59.124 1.23083 0.984299 0
M  V30 605 C 60.54 0.992637 1.24975 0
M  V30 606 C 60.74 -0.308618 1.99123 0
M  V30 607 O 59.796 -1.02905 2.30579 0
M  V30 608 C 61.109 2.19698 2.05312 0
M  V30 609 C 62.657 2.24147 2.18465 0
M  V30 610 C 63.132 3.44157 3.02192 0
M  V30 611 N 64.623 3.44372 3.09777 0
M  V30 612 C 65.358 4.33886 3.74874 0
M  V30 613 N 64.854 5.3363 4.41827 0
M  V30 614 N 66.647 4.21639 3.71721 0
M  V30 615 H 58.798 2.06731 0.487453 0
M  V30 616 H 61.061 0.906339 0.277944 0
M  V30 617 H 60.767 3.1411 1.58201 0
M  V30 618 H 60.641 2.20465 3.06064 0
M  V30 619 H 63.028 1.30277 2.64786 0
M  V30 620 H 63.109 2.27415 1.17115 0
M  V30 621 H 62.753 4.38332 2.56568 0
M  V30 622 H 62.683 3.3813 4.03702 0
M  V30 623 H 65.174 2.72201 2.62135 0
M  V30 624 H 65.487 5.98196 4.89266 0
M  V30 625 H 63.832 5.37534 4.40548 0
M  V30 626 H 67.023 3.42962 3.18582 0
M  V30 627 H 67.196 4.91604 4.22173 0
M  V30 628 N 60.6021 -1.18246 1.0419 0
M  V30 629 C 61.8321 -1.91916 0.764961 0
M  V30 630 C 62.2401 -1.76485 -0.681898 0
M  V30 631 O 61.5831 -1.09275 -1.47664 0
M  V30 632 C 61.6451 -3.4373 1.05309 0
M  V30 633 C 61.3091 -3.8294 2.4941 0
M  V30 634 C 62.3061 -3.86621 3.47592 0
M  V30 635 C 59.9911 -4.142 2.84155 0
M  V30 636 C 61.9851 -4.21013 4.78568 0
M  V30 637 C 59.6721 -4.48262 4.15337 0
M  V30 638 C 60.6701 -4.51645 5.12353 0
M  V30 639 O 60.3581 -4.84911 6.41183 0
M  V30 640 H 60.0901 -0.61606 0.278292 0
M  V30 641 H 62.6441 -1.50947 1.39299 0
M  V30 642 H 60.8741 -3.84946 0.367933 0
M  V30 643 H 62.5631 -3.9865 0.763752 0
M  V30 644 H 63.3291 -3.62607 3.22089 0
M  V30 645 H 59.2081 -4.10743 2.09311 0
M  V30 646 H 62.7521 -4.23568 5.54289 0
M  V30 647 H 58.6491 -4.71737 4.40607 0
M  V30 648 H 59.4171 -5.02809 6.45852 0
M  V30 649 N 62.0802 -0.821533 -1.34494 0
M  V30 650 C 63.0102 -0.257138 -2.3208 0
M  V30 651 C 63.9912 0.625645 -1.58176 0
M  V30 652 O 65.1762 0.552811 -1.86166 0
M  V30 653 C 62.3062 0.582958 -3.42372 0
M  V30 654 C 61.2602 -0.202571 -4.2752 0
M  V30 655 C 60.5862 0.760179 -5.29269 0
M  V30 656 C 61.8862 -1.40998 -5.02908 0
M  V30 657 H 63.5802 -1.07247 -2.79532 0
M  V30 658 H 61.1262 -0.517163 -1.34393 0
M  V30 659 H 63.0792 0.987972 -4.09655 0
M  V30 660 H 61.8032 1.43133 -2.93565 0
M  V30 661 H 60.4622 -0.588936 -3.61838 0
M  V30 662 H 60.1102 1.60447 -4.76724 0
M  V30 663 H 59.8102 0.238809 -5.87115 0
M  V30 664 H 61.3342 1.16308 -5.9942 0
M  V30 665 H 62.7482 -1.07905 -5.63054 0
M  V30 666 H 61.1452 -1.86689 -5.70322 0
M  V30 667 H 62.2152 -2.1889 -4.32684 0
M  V30 668 N 63.5583 1.46682 -0.576371 0
M  V30 669 C 64.8043 2.03287 -0.0679305 0
M  V30 670 C 65.1593 1.44063 1.27529 0
M  V30 671 O 64.4523 0.593973 1.82161 0
M  V30 672 C 64.6463 3.57345 0.062886 0
M  V30 673 C 64.4753 4.31509 -1.26611 0
M  V30 674 C 63.2453 4.70664 -1.83856 0
M  V30 675 C 65.4433 4.65444 -2.18783 0
M  V30 676 N 63.4253 5.29552 -3.10561 0
M  V30 677 C 64.7963 5.24835 -3.30072 0
M  V30 678 C 66.8513 4.47375 -2.18542 0
M  V30 679 C 65.5543 5.68063 -4.41244 0
M  V30 680 C 67.5803 4.91614 -3.28739 0
M  V30 681 C 66.9423 5.51071 -4.38748 0
M  V30 682 H 63.0413 0.779083 -0.0674836 0
M  V30 683 H 65.6253 1.78918 -0.767877 0
M  V30 684 H 63.7963 3.8144 0.731988 0
M  V30 685 H 65.5283 4.00592 0.575134 0
M  V30 686 H 62.2833 4.53224 -1.37424 0
M  V30 687 H 62.7073 5.63523 -3.75195 0
M  V30 688 H 67.3493 4.00747 -1.34765 0
M  V30 689 H 65.0673 6.13672 -5.25768 0
M  V30 690 H 68.6533 4.79389 -3.29662 0
M  V30 691 H 67.5333 5.84678 -5.22611 0
M  V30 692 N 65.0364 0.313813 1.54444 0
M  V30 693 C 66.4524 -0.0391619 1.59552 0
M  V30 694 C 66.6524 -1.51322 1.33056 0
M  V30 695 O 65.7084 -2.26782 1.11022 0
M  V30 696 C 67.0214 0.370302 2.98411 0
M  V30 697 C 68.5694 0.320139 3.11358 0
M  V30 698 C 69.0444 0.704617 4.52547 0
M  V30 699 N 70.5354 0.657645 4.58508 0
M  V30 700 C 71.2704 0.927453 5.6585 0
M  V30 701 N 70.7664 1.26389 6.81174 0
M  V30 702 N 72.5594 0.853662 5.5558 0
M  V30 703 H 64.7104 1.27433 1.69925 0
M  V30 704 H 66.9734 0.517511 0.794284 0
M  V30 705 H 66.6794 1.39694 3.22767 0
M  V30 706 H 66.5534 -0.269619 3.76235 0
M  V30 707 H 68.9404 -0.697275 2.86744 0
M  V30 708 H 69.0214 0.99486 2.35661 0
M  V30 709 H 68.6654 1.7199 4.77893 0
M  V30 710 H 68.5954 0.00768843 5.26599 0
M  V30 711 H 71.0864 0.409067 3.75679 0
M  V30 712 H 71.3994 1.4554 7.58972 0
M  V30 713 H 69.7444 1.30206 6.82694 0
M  V30 714 H 72.9354 0.590383 4.64362 0
M  V30 715 H 73.1084 1.0673 6.3915 0
M  V30 716 N 66.5145 -1.57545 0.0417849 0
M  V30 717 C 67.4245 -2.14451 -0.951213 0
M  V30 718 C 68.4405 -1.09992 -1.34825 0
M  V30 719 O 69.6165 -1.42114 -1.42708 0
M  V30 720 C 66.6815 -2.67063 -2.21084 0
M  V30 721 C 65.7425 -3.86284 -1.87304 0
M  V30 722 C 64.9755 -4.36378 -3.07261 0
M  V30 723 O 65.1985 -3.85587 -4.20332 0
M  V30 724 O 64.1325 -5.28077 -2.88822 0
M  V30 725 H 67.9585 -2.99601 -0.497287 0
M  V30 726 H 65.5435 -1.48317 -0.179567 0
M  V30 727 H 67.4255 -3.00914 -2.95006 0
M  V30 728 H 66.1005 -1.84989 -2.65633 0
M  V30 729 H 65.0075 -3.57338 -1.10727 0
M  V30 730 H 66.3405 -4.6956 -1.47562 0
M  V30 731 N 67.9926 0.231505 -1.5589 0
M  V30 732 C 69.2226 0.973092 -1.82248 0
M  V30 733 C 69.6306 1.78845 -0.617328 0
M  V30 734 O 68.9736 1.78752 0.423499 0
M  V30 735 C 69.0356 1.94732 -3.02192 0
M  V30 736 C 68.6996 1.31743 -4.37599 0
M  V30 737 C 69.6966 0.712238 -5.14998 0
M  V30 738 C 67.3816 1.33218 -4.84312 0
M  V30 739 C 69.3756 0.130195 -6.37267 0
M  V30 740 C 67.0626 0.746286 -6.06526 0
M  V30 741 C 68.0606 0.146337 -6.82843 0
M  V30 742 O 67.7486 -0.430465 -8.02747 0
M  V30 743 H 67.4806 0.29125 -0.61004 0
M  V30 744 H 70.0346 0.254915 -2.03812 0
M  V30 745 H 68.2646 2.70422 -2.76422 0
M  V30 746 H 69.9536 2.55362 -3.15508 0
M  V30 747 H 70.7196 0.69324 -4.8002 0
M  V30 748 H 66.5986 1.78854 -4.24891 0
M  V30 749 H 70.1426 -0.33871 -6.96777 0
M  V30 750 H 66.0396 0.762663 -6.40979 0
M  V30 751 H 66.8076 -0.323818 -8.17859 0
M  V30 752 N 69.4707 1.49531 0.497807 0
M  V30 753 C 70.4007 1.6935 1.60757 0
M  V30 754 C 71.3817 0.542218 1.61227 0
M  V30 755 O 72.5667 0.778417 1.77917 0
M  V30 756 C 69.6967 1.76298 2.99226 0
M  V30 757 C 68.6507 2.91248 3.13622 0
M  V30 758 C 67.9767 2.83312 4.53474 0
M  V30 759 C 69.2767 4.3214 2.93346 0
M  V30 760 H 70.9707 2.62263 1.44425 0
M  V30 761 H 68.5167 1.26208 0.693367 0
M  V30 762 H 70.4697 1.88749 3.76765 0
M  V30 763 H 69.1937 0.799871 3.16654 0
M  V30 764 H 67.8527 2.78404 2.38509 0
M  V30 765 H 67.5007 1.84902 4.67782 0
M  V30 766 H 67.2007 3.60465 4.64046 0
M  V30 767 H 68.7247 2.97775 5.33069 0
M  V30 768 H 70.1387 4.45649 3.60652 0
M  V30 769 H 68.5357 5.1054 3.15387 0
M  V30 770 H 69.6057 4.46363 1.89441 0
M  V30 771 N 70.9488 -0.749086 1.3866 0
M  V30 772 C 71.8988 -1.85368 1.32751 0
M  V30 773 C 72.8828 -1.59511 0.210945 0
M  V30 774 O 74.0748 -1.71255 0.447299 0
M  V30 775 C 71.2038 -3.23131 1.15935 0
M  V30 776 C 70.2898 -3.54864 2.32233 0
M  V30 777 N 70.6808 -3.57625 3.57684 0
M  V30 778 C 68.9788 -3.85154 2.24883 0
M  V30 779 C 69.6798 -3.86753 4.34508 0
M  V30 780 N 68.6558 -4.03812 3.63918 0
M  V30 781 H 72.4578 -1.85787 2.27729 0
M  V30 782 H 69.9718 -0.946658 1.31955 0
M  V30 783 H 71.9688 -4.02185 1.09786 0
M  V30 784 H 70.6288 -3.23961 0.218947 0
M  V30 785 H 71.6398 -3.39276 3.91295 0
M  V30 786 H 68.3168 -3.93672 1.39027 0
M  V30 787 H 69.7068 -3.95474 5.43185 0
M  V30 788 N 72.4269 -1.23603 -0.977757 0
M  V30 789 C 73.8379 -1.06424 -1.53398 0
M  V30 790 C 74.1889 0.367578 -1.92726 0
M  V30 791 O 73.3139 1.25465 -1.76316 0
M  V30 792 C 73.9089 -1.92568 -2.78753 0
M  V30 793 C 72.4679 -1.79642 -3.30765 0
M  V30 794 C 71.6149 -1.88111 -2.03739 0
M  V30 795 H 74.5659 -1.37227 -0.797152 0
M  V30 796 H 74.5869 -1.45203 -3.51705 0
M  V30 797 H 74.0989 -2.96771 -2.50098 0
M  V30 798 H 72.1999 -0.782325 -3.64294 0
M  V30 799 H 72.3129 -2.63174 -4.00345 0
M  V30 800 H 70.6769 -1.31723 -2.17994 0
M  V30 801 H 71.4599 -2.93875 -1.77461 0
M  V30 802 N 73.905 1.17692 -1.04816 0
M  V30 803 C 74.852 2.21581 -0.645797 0
M  V30 804 C 75.822 1.62367 0.350159 0
M  V30 805 O 77.007 1.89254 0.242433 0
M  V30 806 C 74.147 3.45092 -0.0227568 0
M  V30 807 C 73.26 4.18613 -1.06709 0
M  V30 808 C 72.395 5.29602 -0.411767 0
M  V30 809 C 71.434 5.94904 -1.44067 0
M  V30 810 N 70.571 6.97414 -0.809781 0
M  V30 811 H 75.411 2.55353 -1.5362 0
M  V30 812 H 72.948 1.25438 -0.768364 0
M  V30 813 H 74.906 4.15679 0.35588 0
M  V30 814 H 73.536 3.11917 0.831122 0
M  V30 815 H 72.588 3.46779 -1.5636 0
M  V30 816 H 73.9 4.63293 -1.84827 0
M  V30 817 H 73.054 6.06696 0.0206623 0
M  V30 818 H 71.793 4.86045 0.401438 0
M  V30 819 H 70.798 5.16544 -1.88316 0
M  V30 820 H 72.023 6.40542 -2.25571 0
M  V30 821 H 69.969 6.55998 -0.0170186 0
M  V30 822 H 69.886 7.40386 -1.52856 0
M  V30 823 H 71.154 7.78463 -0.401999 0
M  V30 824 N 75.3831 0.828654 1.34056 0
M  V30 825 C 76.2931 0.256725 2.33191 0
M  V30 826 C 77.3091 -0.611898 1.62886 0
M  V30 827 O 78.4851 -0.51844 1.94613 0
M  V30 828 C 75.5501 -0.567238 3.42028 0
M  V30 829 C 74.6111 0.324458 4.28072 0
M  V30 830 C 73.8441 -0.460274 5.31712 0
M  V30 831 O 74.0671 -1.693 5.44696 0
M  V30 832 O 73.0011 0.160391 6.01686 0
M  V30 833 H 76.8271 1.07739 2.83947 0
M  V30 834 H 74.4121 0.59093 1.37217 0
M  V30 835 H 76.2941 -1.03582 4.08471 0
M  V30 836 H 74.9691 -1.36513 2.93506 0
M  V30 837 H 73.8761 0.840659 3.64532 0
M  V30 838 H 75.2091 1.08685 4.8005 0
M  V30 839 N 76.8612 -1.46375 0.584142 0
M  V30 840 C 78.0912 -2.06461 0.0758195 0
M  V30 841 C 78.4992 -1.43322 -1.23512 0
M  V30 842 O 77.8422 -0.533216 -1.75791 0
M  V30 843 C 77.9042 -3.59131 -0.162773 0
M  V30 844 C 77.5682 -4.4447 1.06279 0
M  V30 845 C 78.5652 -4.80918 1.97519 0
M  V30 846 C 76.2502 -4.85584 1.28504 0
M  V30 847 C 78.2442 -5.57309 3.09331 0
M  V30 848 C 75.9312 -5.61734 2.4062 0
M  V30 849 C 76.9292 -5.9751 3.30863 0
M  V30 850 O 76.6172 -6.72121 4.41032 0
M  V30 851 H 76.3492 -0.673745 0.0551725 0
M  V30 852 H 78.9032 -1.88969 0.804984 0
M  V30 853 H 77.1332 -3.74936 -0.946565 0
M  V30 854 H 78.8222 -4.0114 -0.619782 0
M  V30 855 H 79.5882 -4.49732 1.81565 0
M  V30 856 H 75.4672 -4.57187 0.591702 0
M  V30 857 H 79.0112 -5.85152 3.79793 0
M  V30 858 H 74.9082 -5.92334 2.56537 0
M  V30 859 H 75.6762 -6.90547 4.39417 0
M  V30 860 N 78.3393 -0.321999 -1.54275 0
M  V30 861 C 79.2493 0.553631 -2.27974 0
M  V30 862 C 80.2653 1.13054 -1.32268 0
M  V30 863 O 81.4413 1.15084 -1.6528 0
M  V30 864 C 78.5063 1.69927 -3.02201 0
M  V30 865 C 77.5673 1.15433 -4.1349 0
M  V30 866 C 76.8003 2.24537 -4.84168 0
M  V30 867 O 77.0233 3.44852 -4.5435 0
M  V30 868 O 75.9573 1.90044 -5.7111 0
M  V30 869 H 79.7833 -0.0448345 -3.03667 0
M  V30 870 H 77.3683 -0.0877418 -1.49142 0
M  V30 871 H 79.2503 2.3663 -3.48689 0
M  V30 872 H 77.9253 2.28395 -2.29385 0
M  V30 873 H 76.8323 0.452436 -3.71354 0
M  V30 874 H 78.1653 0.614805 -4.88345 0
M  V30 875 N 79.8174 1.5752 -0.0501392 0
M  V30 876 C 81.0634 1.93755 0.618901 0
M  V30 877 C 81.4184 0.928514 1.68512 0
M  V30 878 O 80.7114 -0.0524613 1.91528 0
M  V30 879 C 80.9054 3.34467 1.25963 0
M  V30 880 C 80.7344 4.48965 0.257 0
M  V30 881 C 79.5044 5.05075 -0.150656 0
M  V30 882 C 81.7024 5.11891 -0.497166 0
M  V30 883 N 79.6844 6.03104 -1.14626 0
M  V30 884 C 81.0554 6.05216 -1.34588 0
M  V30 885 C 83.1104 4.9479 -0.55559 0
M  V30 886 C 81.8134 6.83277 -2.24778 0
M  V30 887 C 83.8394 5.73477 -1.44492 0
M  V30 888 C 83.2014 6.66433 -2.28136 0
M  V30 889 H 79.3004 0.756479 0.198149 0
M  V30 890 H 81.8844 1.94316 -0.122229 0
M  V30 891 H 80.0554 3.34685 1.97079 0
M  V30 892 H 81.7874 3.57994 1.88739 0
M  V30 893 H 78.5424 4.7305 0.228094 0
M  V30 894 H 78.9664 6.56813 -1.64092 0
M  V30 895 H 83.6084 4.2273 0.0768625 0
M  V30 896 H 81.3264 7.54629 -2.89069 0
M  V30 897 H 84.9124 5.62273 -1.49468 0
M  V30 898 H 83.7924 7.26258 -2.95835 0
M  V30 899 N 81.2955 -0.223234 1.56011 0
M  V30 900 C 82.5415 -0.949279 1.79211 0
M  V30 901 C 82.8745 -1.84054 0.619494 0
M  V30 902 O 82.1495 -1.90726 -0.381317 0
M  V30 903 C 82.4325 -1.78965 3.12479 0
M  V30 904 C 82.2855 -0.924997 4.40186 0
M  V30 905 C 83.6045 -2.76774 3.42175 0
M  V30 906 H 80.7235 -0.343676 0.651963 0
M  V30 907 H 83.3655 -0.218253 1.88742 0
M  V30 908 H 81.5155 -2.41291 3.04485 0
M  V30 909 H 83.1875 -0.318615 4.60198 0
M  V30 910 H 81.4305 -0.230344 4.33188 0
M  V30 911 H 82.1015 -1.54735 5.29869 0
M  V30 912 H 84.5775 -2.24584 3.50287 0
M  V30 913 H 83.4535 -3.32678 4.36597 0
M  V30 914 H 83.7145 -3.54429 2.64258 0
M  V30 915 N 82.7736 -1.49793 -0.48987 0
M  V30 916 C 83.7036 -1.70201 -1.59856 0
M  V30 917 C 84.6846 -0.55076 -1.60937 0
M  V30 918 O 85.8696 -0.787841 -1.77501 0
M  V30 919 C 82.9996 -1.77882 -2.98287 0
M  V30 920 C 81.9536 -2.92907 -3.12073 0
M  V30 921 C 81.2796 -2.85712 -4.51965 0
M  V30 922 C 82.5796 -4.3369 -2.91051 0
M  V30 923 H 84.2736 -2.63025 -1.43032 0
M  V30 924 H 81.8196 -1.26574 -0.686664 0
M  V30 925 H 83.7726 -1.90744 -3.75759 0
M  V30 926 H 82.4966 -0.816653 -3.16225 0
M  V30 927 H 81.1556 -2.79665 -2.37029 0
M  V30 928 H 80.8036 -1.8738 -4.66795 0
M  V30 929 H 80.5036 -3.62921 -4.62128 0
M  V30 930 H 82.0276 -3.00598 -5.31482 0
M  V30 931 H 83.4416 -4.47555 -3.58284 0
M  V30 932 H 81.8386 -5.12205 -3.12675 0
M  V30 933 H 82.9086 -4.47362 -1.87071 0
M  V30 934 N 84.2517 0.741722 -1.39055 0
M  V30 935 C 85.5007 1.49656 -1.35225 0
M  V30 936 C 85.8137 1.95533 0.0512708 0
M  V30 937 O 87.0197 2.7067 0.212138 0
M  V30 938 C 85.4757 2.70389 -2.37525 0
M  V30 939 C 85.0837 2.31489 -3.83558 0
M  V30 940 C 86.8277 3.48236 -2.42759 0
M  V30 941 C 84.7347 3.48903 -4.77515 0
M  V30 942 H 83.6647 0.56197 -0.502699 0
M  V30 943 H 86.3157 0.809727 -1.64668 0
M  V30 944 H 84.6977 3.41113 -2.01142 0
M  V30 945 H 85.8717 1.68354 -4.28945 0
M  V30 946 H 84.1867 1.66749 -3.81554 0
M  V30 947 H 86.7837 4.35558 -3.1015 0
M  V30 948 H 87.1267 3.90229 -1.45008 0
M  V30 949 H 87.6597 2.84535 -2.78002 0
M  V30 950 H 84.3987 3.11966 -5.76504 0
M  V30 951 H 83.9187 4.11041 -4.36813 0
M  V30 952 H 85.5977 4.15328 -4.96096 0
M  V30 953 N 85.7298 1.2412 0.971189 0
M  V30 954 C 86.6928 1.03156 2.04674 0
M  V30 955 C 87.6928 -0.00990322 1.60797 0
M  V30 956 O 88.8828 0.230729 1.72665 0
M  V30 957 C 86.0148 0.562765 3.36223 0
M  V30 958 H 87.2078 1.98614 2.24705 0
M  V30 959 H 84.7608 1.06293 1.14593 0
M  V30 960 H 85.4958 -0.395176 3.21883 0
M  V30 961 H 85.2808 1.31441 3.69413 0
M  V30 962 H 86.7708 0.437015 4.15307 0
M  V30 963 N 87.2079 -1.17134 1.05439 0
M  V30 964 C 88.4559 -1.87085 0.764429 0
M  V30 965 C 88.7769 -1.81584 -0.710787 0
M  V30 966 O 88.0469 -1.24349 -1.51374 0
M  V30 967 H 86.6269 -0.692627 0.279779 0
M  V30 968 H 89.2889 -1.42087 1.33406 0
M  V30 969 H 88.3849 -2.92759 1.0816 0
M  V30 970 N 88.686 -0.835752 -1.33615 0
M  V30 971 C 89.916 -0.442701 -2.01801 0
M  V30 972 C 90.324 0.959807 -1.63047 0
M  V30 973 O 89.667 1.63468 -0.838088 0
M  V30 974 C 89.729 -0.480125 -3.56279 0
M  V30 975 C 89.393 -1.8382 -4.18401 0
M  V30 976 C 90.39 -2.80097 -4.37998 0
M  V30 977 C 88.075 -2.13019 -4.54894 0
M  V30 978 C 90.069 -4.03736 -4.9323 0
M  V30 979 C 87.756 -3.36916 -5.09834 0
M  V30 980 C 88.754 -4.32091 -5.28948 0
M  V30 981 O 88.442 -5.53797 -5.82721 0
M  V30 982 H 88.174 -0.17441 -0.653114 0
M  V30 983 H 90.728 -1.129 -1.71589 0
M  V30 984 H 88.958 0.262931 -3.85805 0
M  V30 985 H 90.647 -0.105335 -4.05763 0
M  V30 986 H 91.413 -2.58838 -4.10156 0
M  V30 987 H 87.292 -1.39733 -4.39313 0
M  V30 988 H 90.836 -4.78034 -5.08064 0
M  V30 989 H 86.733 -3.58033 -5.37106 0
M  V30 990 H 87.501 -5.55494 -6.0114 0
M  V30 991 N 90.1641 1.46063 -0.591896 0
M  V30 992 C 91.4131 2.01547 -0.0786637 0
M  V30 993 C 91.7261 1.46796 1.29268 0
M  V30 994 O 92.9321 1.94157 1.89777 0
M  V30 995 C 91.3881 3.59787 -0.0900024 0
M  V30 996 C 90.9961 4.23534 -1.46023 0
M  V30 997 C 92.7401 4.22895 0.368806 0
M  V30 998 C 90.6471 5.73881 -1.4288 0
M  V30 999 H 89.5771 0.753564 -0.0256388 0
M  V30 1000 H 92.2281 1.677 -0.744905 0
M  V30 1001 H 90.6101 3.90752 0.642586 0
M  V30 1002 H 91.7841 4.04167 -2.21328 0
M  V30 1003 H 90.0991 3.72558 -1.85982 0
M  V30 1004 H 92.6961 5.33116 0.411258 0
M  V30 1005 H 93.0391 3.9247 1.38827 0
M  V30 1006 H 93.5721 3.9659 -0.31001 0
M  V30 1007 H 90.3111 6.0898 -2.42536 0
M  V30 1008 H 89.8311 5.95486 -0.718095 0
M  V30 1009 H 91.5101 6.36776 -1.14565 0
M  V30 1010 N 91.6422 0.330177 1.54103 0
M  V30 1011 C 92.8912 -0.271336 1.99867 0
M  V30 1012 C 93.2042 -1.52723 1.22209 0
M  V30 1013 O 94.4102 -2.20515 1.58383 0
M  V30 1014 C 92.8662 -0.534032 3.55916 0
M  V30 1015 C 92.4742 0.705193 4.42415 0
M  V30 1016 C 94.2182 -1.09514 4.1013 0
M  V30 1017 C 92.1252 0.414035 5.89949 0
M  V30 1018 H 91.0552 -0.105166 0.74663 0
M  V30 1019 H 93.7062 0.443429 1.78062 0
M  V30 1020 H 92.0882 -1.30915 3.73734 0
M  V30 1021 H 93.2622 1.4804 4.36372 0
M  V30 1022 H 91.5772 1.18698 3.99124 0
M  V30 1023 H 94.1742 -1.3277 5.17954 0
M  V30 1024 H 94.5172 -2.04656 3.62521 0
M  V30 1025 H 95.0502 -0.381038 3.95971 0
M  V30 1026 H 91.7892 1.33481 6.41766 0
M  V30 1027 H 91.3092 -0.323336 5.98928 0
M  V30 1028 H 92.9882 0.0263105 6.46995 0
M  V30 1029 N 93.1203 -1.57491 0.0584922 0
M  V30 1030 C 94.3663 -1.93264 -0.614558 0
M  V30 1031 C 94.6993 -0.937717 -1.7006 0
M  V30 1032 O 93.9743 0.0351652 -1.94468 0
M  V30 1033 C 94.2573 -3.3938 -1.20386 0
M  V30 1034 C 94.1103 -4.49625 -0.125375 0
M  V30 1035 C 95.4293 -3.86039 -2.11334 0
M  V30 1036 H 92.5483 -0.702791 -0.221933 0
M  V30 1037 H 95.1903 -1.8961 0.12175 0
M  V30 1038 H 93.3403 -3.42626 -1.83139 0
M  V30 1039 H 95.0123 -4.58506 0.506971 0
M  V30 1040 H 93.2553 -4.30354 0.545672 0
M  V30 1041 H 93.9263 -5.48967 -0.577861 0
M  V30 1042 H 96.4023 -3.84716 -1.58534 0
M  V30 1043 H 95.2783 -4.88914 -2.49507 0
M  V30 1044 H 95.5393 -3.23215 -3.01636 0
M  V30 1045 N 94.5984 0.214957 -1.56127 0
M  V30 1046 C 95.8454 0.938372 -1.79446 0
M  V30 1047 C 96.1734 1.8407 -0.628378 0
M  V30 1048 O 95.4284 1.91837 0.386925 0
M  V30 1049 C 95.7274 1.80314 -3.0858 0
M  V30 1050 C 95.3934 1.05349 -4.3842 0
M  V30 1051 C 94.0554 0.846435 -4.73697 0
M  V30 1052 C 96.4074 0.524588 -5.18553 0
M  V30 1053 C 93.7354 0.098683 -5.86617 0
M  V30 1054 C 96.0874 -0.209853 -6.32252 0
M  V30 1055 C 94.7514 -0.428102 -6.66126 0
M  V30 1056 H 94.0214 0.343375 -0.656639 0
M  V30 1057 H 96.6684 0.206077 -1.90388 0
M  V30 1058 H 94.9734 2.6035 -2.92789 0
M  V30 1059 H 96.6704 2.36513 -3.23825 0
M  V30 1060 H 93.2604 1.22486 -4.10725 0
M  V30 1061 H 97.4444 0.672008 -4.91729 0
M  V30 1062 H 92.7004 -0.0805753 -6.11347 0
M  V30 1063 H 96.8744 -0.627157 -6.9357 0
M  V30 1064 H 94.5014 -1.00944 -7.53468 0
M  V30 1065 N 96.0765 1.50051 0.48192 0
M  V30 1066 C 97.3225 1.60736 1.2366 0
M  V30 1067 C 97.6555 0.301786 1.91841 0
M  V30 1068 O 96.9305 -0.696025 1.8162 0
M  V30 1069 C 97.2135 2.78009 2.28874 0
M  V30 1070 C 97.0665 4.18416 1.65069 0
M  V30 1071 C 98.3855 2.90867 3.30279 0
M  V30 1072 H 95.5045 0.585031 0.448228 0
M  V30 1073 H 98.1465 1.82402 0.531946 0
M  V30 1074 H 96.2965 2.59667 2.88973 0
M  V30 1075 H 97.9685 4.48322 1.0865 0
M  V30 1076 H 96.2115 4.23177 0.954148 0
M  V30 1077 H 96.8825 4.96381 2.41474 0
M  V30 1078 H 99.3585 3.07623 2.80191 0
M  V30 1079 H 98.2345 3.74566 4.01238 0
M  V30 1080 H 98.4955 2.01021 3.93755 0
M  V30 1081 N 97.5546 -0.734337 1.39446 0
M  V30 1082 C 98.8006 -1.49613 1.36908 0
M  V30 1083 C 99.1336 -1.94169 -0.0347829 0
M  V30 1084 O 98.4086 -1.66833 -0.999847 0
M  V30 1085 C 98.6916 -2.73534 2.34203 0
M  V30 1086 C 98.5446 -2.34993 3.83534 0
M  V30 1087 C 99.8636 -3.75635 2.29317 0
M  V30 1088 H 96.9826 -0.542714 0.498629 0
M  V30 1089 H 99.6246 -0.839597 1.70443 0
M  V30 1090 H 97.7746 -3.29553 2.05736 0
M  V30 1091 H 99.4466 -1.84601 4.22753 0
M  V30 1092 H 97.6896 -1.67213 4.00278 0
M  V30 1093 H 98.3606 -3.23738 4.47099 0
M  V30 1094 H 100.837 -3.29203 2.54489 0
M  V30 1095 H 99.7126 -4.60008 2.99472 0
M  V30 1096 H 99.9736 -4.22603 1.29842 0
M  V30 1097 N 99.0327 -1.24633 -0.964593 0
M  V30 1098 C 99.9957 -1.0424 -2.04124 0
M  V30 1099 C 100.996 0.00137563 -1.608 0
M  V30 1100 O 102.186 -0.239883 -1.7254 0
M  V30 1101 C 99.3177 -0.580588 -3.3592 0
M  V30 1102 H 100.511 -1.99803 -2.23649 0
M  V30 1103 H 98.0637 -1.06899 -1.14027 0
M  V30 1104 H 98.7987 0.3781 -3.22088 0
M  V30 1105 H 98.5837 -1.33398 -3.6871 0
M  V30 1106 H 100.074 -0.459034 -4.15069 0
M  V30 1107 N 100.511 1.16574 -1.06058 0
M  V30 1108 C 101.441 2.23057 -0.690488 0
M  V30 1109 C 102.422 1.67141 0.315901 0
M  V30 1110 O 103.607 1.93253 0.191556 0
M  V30 1111 C 100.737 3.47222 -0.073625 0
M  V30 1112 C 99.6908 4.16016 -1.00573 0
M  V30 1113 C 99.0168 5.34104 -0.252289 0
M  V30 1114 C 100.317 4.67264 -2.33371 0
M  V30 1115 H 102.011 2.54271 -1.58072 0
M  V30 1116 H 99.5568 1.22218 -0.76149 0
M  V30 1117 H 101.51 4.20939 0.19714 0
M  V30 1118 H 100.234 3.15302 0.85161 0
M  V30 1119 H 98.8928 3.44223 -1.2612 0
M  V30 1120 H 98.5408 4.98437 0.675988 0
M  V30 1121 H 98.2408 5.81072 -0.873455 0
M  V30 1122 H 99.7648 6.10599 0.0109857 0
M  V30 1123 H 101.179 5.32573 -2.12223 0
M  V30 1124 H 99.5758 5.24843 -2.90963 0
M  V30 1125 H 100.646 3.83602 -2.96611 0
M  V30 1126 N 101.989 0.842826 1.3317 0
M  V30 1127 C 103.238 0.436738 1.96915 0
M  V30 1128 C 103.551 -1.01025 1.67491 0
M  V30 1129 O 104.757 -1.5212 2.24881 0
M  V30 1130 C 103.213 0.730021 3.52418 0
M  V30 1131 C 102.821 2.19195 3.90714 0
M  V30 1132 C 104.565 0.391076 4.22695 0
M  V30 1133 C 102.472 2.42907 5.39212 0
M  V30 1134 H 101.402 0.15958 0.736919 0
M  V30 1135 H 104.053 1.03196 1.51733 0
M  V30 1136 H 102.435 0.0643755 3.95948 0
M  V30 1137 H 103.609 2.8984 3.58231 0
M  V30 1138 H 101.924 2.49425 3.33431 0
M  V30 1139 H 104.521 0.545817 5.31907 0
M  V30 1140 H 104.864 -0.666294 4.10933 0
M  V30 1141 H 105.397 1.01212 3.84709 0
M  V30 1142 H 102.136 3.47224 5.55982 0
M  V30 1143 H 101.656 1.76827 5.73142 0
M  V30 1144 H 103.335 2.2626 6.06148 0
M  V30 1145 N 103.467 -1.45747 0.599634 0
M  V30 1146 C 104.715 -2.01893 0.0915472 0
M  V30 1147 C 105.036 -1.47155 -1.27946 0
M  V30 1148 O 104.306 -0.66273 -1.84349 0
M  V30 1149 H 102.886 -0.746363 0.0308524 0
M  V30 1150 H 105.548 -1.78645 0.779237 0
M  V30 1151 H 104.644 -3.1208 0.0353086 0
M  V30 1152 N 104.945 -0.338344 -1.53925 0
M  V30 1153 C 105.893 0.536231 -2.26335 0
M  V30 1154 C 106.887 1.1063 -1.28286 0
M  V30 1155 O 108.093 1.05264 -1.46012 0
M  V30 1156 H 104.468 0.191602 -0.727181 0
M  V30 1157 H 106.439 -0.0965747 -2.98244 0
M  V30 1158 C 105.188 1.67803 -3.04528 0
M  V30 1159 H 104.511 1.24864 -3.79801 0
M  V30 1160 H 105.951 2.26526 -3.58416 0
M  V30 1161 C 104.41 2.60439 -2.13712 0
M  V30 1162 O 104.94 3.6255 -1.72975 0
M  V30 1163 N 103.146 2.29006 -1.78898 0
M  V30 1164 H 102.693 1.46011 -2.12223 0
M  V30 1165 H 102.651 2.91248 -1.18416 0
M  V30 1166 N 106.423 1.57458 -0.0668435 0
M  V30 1167 C 107.669 1.93587 0.6043 0
M  V30 1168 C 108.002 0.946722 1.69561 0
M  V30 1169 O 107.277 -0.0248516 1.94484 0
M  V30 1170 C 107.56 3.40014 1.18585 0
M  V30 1171 C 107.413 4.49685 0.101529 0
M  V30 1172 C 108.732 3.87154 2.09284 0
M  V30 1173 H 105.851 0.703958 0.218202 0
M  V30 1174 H 108.493 1.89542 -0.131804 0
M  V30 1175 H 106.643 3.43592 1.81319 0
M  V30 1176 H 108.315 4.5823 -0.531279 0
M  V30 1177 H 106.558 4.30059 -0.568487 0
M  V30 1178 H 107.229 5.49266 0.54874 0
M  V30 1179 H 109.705 3.85551 1.56491 0
M  V30 1180 H 108.581 4.90231 2.46911 0
M  V30 1181 H 108.842 3.2481 2.99918 0
M  V30 1182 N 107.901 -0.206675 1.56239 0
M  V30 1183 C 108.831 -1.25909 1.96645 0
M  V30 1184 C 109.812 -1.48097 0.836734 0
M  V30 1185 O 110.997 -1.6003 1.10019 0
M  V30 1186 C 108.127 -2.6058 2.29599 0
M  V30 1187 C 107.081 -2.53024 3.452 0
M  V30 1188 C 106.407 -3.91861 3.63798 0
M  V30 1189 C 107.707 -2.06524 4.79734 0
M  V30 1190 H 109.401 -0.923369 2.84806 0
M  V30 1191 H 106.947 -0.442735 1.37025 0
M  V30 1192 H 108.9 -3.34375 2.56459 0
M  V30 1193 H 107.624 -2.95869 1.38307 0
M  V30 1194 H 106.283 -1.81684 3.18412 0
M  V30 1195 H 105.931 -4.24483 2.69857 0
M  V30 1196 H 105.631 -3.87683 4.4156 0
M  V30 1197 H 107.155 -4.67296 3.93022 0
M  V30 1198 H 108.569 -2.70072 5.05702 0
M  V30 1199 H 106.966 -2.13374 5.60885 0
M  V30 1200 H 108.036 -1.01802 4.74093 0
M  V30 1201 N 109.379 -1.50304 -0.473955 0
M  V30 1202 C 110.625 -1.61389 -1.22806 0
M  V30 1203 C 110.958 -0.311955 -1.91678 0
M  V30 1204 O 110.233 0.686384 -1.81986 0
M  V30 1205 C 110.516 -2.79219 -2.27396 0
M  V30 1206 C 110.369 -4.19286 -1.62848 0
M  V30 1207 C 111.688 -2.92614 -3.28732 0
M  V30 1208 H 108.807 -0.587399 -0.445119 0
M  V30 1209 H 111.449 -1.82681 -0.522265 0
M  V30 1210 H 109.599 -2.61195 -2.87592 0
M  V30 1211 H 111.271 -4.48892 -1.06271 0
M  V30 1212 H 109.514 -4.23677 -0.931693 0
M  V30 1213 H 110.185 -4.97655 -2.38838 0
M  V30 1214 H 112.661 -3.09105 -2.78556 0
M  V30 1215 H 111.537 -3.76688 -3.99246 0
M  V30 1216 H 111.798 -2.03107 -3.92683 0
M  V30 1217 N 110.857 0.726932 -1.39834 0
M  V30 1218 C 112.097 1.4992 -1.38936 0
M  V30 1219 C 112.461 1.91996 0.0126883 0
M  V30 1220 O 113.662 2.68399 0.146715 0
M  V30 1221 C 111.933 2.70013 -2.34153 0
M  V30 1222 S 113.492 3.59563 -2.51515 0
M  V30 1223 H 110.31 0.51271 -0.492595 0
M  V30 1224 H 112.912 0.85107 -1.76003 0
M  V30 1225 H 111.616 2.37254 -3.34871 0
M  V30 1226 H 111.147 3.39748 -1.98331 0
M  V30 1227 H 113.162 4.63973 -1.75909 0
M  V30 1228 N 112.336 1.25143 0.95797 0
M  V30 1229 C 113.582 1.09855 1.70469 0
M  V30 1230 C 113.915 -0.360187 1.90831 0
M  V30 1231 O 113.19 -1.26568 1.47685 0
M  V30 1232 C 113.473 1.8497 3.08963 0
M  V30 1233 C 113.326 3.38652 2.96032 0
M  V30 1234 C 114.645 1.63016 4.08795 0
M  V30 1235 H 111.764 0.400465 0.618706 0
M  V30 1236 H 114.406 1.53933 1.11376 0
M  V30 1237 H 112.556 1.47505 3.59409 0
M  V30 1238 H 114.228 3.85772 2.52938 0
M  V30 1239 H 112.471 3.66534 2.32025 0
M  V30 1240 H 113.142 3.8642 3.94187 0
M  V30 1241 H 115.618 1.95625 3.67247 0
M  V30 1242 H 114.494 2.18015 5.03747 0
M  V30 1243 H 114.755 0.570692 4.38401 0
M  V30 1244 N 113.814 -1.1601 1.06675 0
M  V30 1245 C 114.777 -2.18724 0.685001 0
M  V30 1246 C 115.777 -1.58496 -0.271246 0
M  V30 1247 O 116.967 -1.74119 -0.0531156 0
M  V30 1248 C 114.099 -3.40899 0.00853648 0
M  V30 1249 H 115.292 -2.54011 1.59431 0
M  V30 1250 H 112.845 -1.30352 0.862441 0
M  V30 1251 H 113.58 -3.11173 -0.913337 0
M  V30 1252 H 113.365 -3.8587 0.696204 0
M  V30 1253 H 114.855 -4.16886 -0.24414 0
M  V30 1254 N 115.292 -0.849877 -1.32721 0
M  V30 1255 C 116.538 -0.451591 -1.97708 0
M  V30 1256 C 116.871 0.989175 -1.6712 0
M  V30 1257 O 116.146 1.69334 -0.956891 0
M  V30 1258 C 116.429 -0.685598 -3.53513 0
M  V30 1259 C 116.282 -2.17444 -3.93749 0
M  V30 1260 C 117.601 -0.138874 -4.39881 0
M  V30 1261 H 114.72 -0.16555 -0.718166 0
M  V30 1262 H 117.362 -1.06742 -1.57182 0
M  V30 1263 H 115.512 -0.161416 -3.88165 0
M  V30 1264 H 117.184 -2.76433 -3.693 0
M  V30 1265 H 115.427 -2.65476 -3.43081 0
M  V30 1266 H 116.098 -2.28888 -5.02309 0
M  V30 1267 H 118.574 -0.587068 -4.11938 0
M  V30 1268 H 117.45 -0.332213 -5.47894 0
M  V30 1269 H 117.711 0.95806 -4.31594 0
M  V30 1270 N 116.77 1.45427 -0.607355 0
M  V30 1271 C 118.016 2.03097 -0.111035 0
M  V30 1272 C 118.371 1.46735 1.24445 0
M  V30 1273 O 117.664 0.632478 1.8086 0
M  V30 1274 C 117.858 3.57398 -0.0129263 0
M  V30 1275 C 117.687 4.28726 -1.35735 0
M  V30 1276 C 116.457 4.66659 -1.93798 0
M  V30 1277 C 118.655 4.60699 -2.28607 0
M  V30 1278 N 116.637 5.22845 -3.21723 0
M  V30 1279 C 118.008 5.17716 -3.41131 0
M  V30 1280 C 120.063 4.42638 -2.27982 0
M  V30 1281 C 118.766 5.58576 -4.53194 0
M  V30 1282 C 120.792 4.84531 -3.39093 0
M  V30 1283 C 120.154 5.4164 -4.50339 0
M  V30 1284 H 116.253 0.777476 -0.083994 0
M  V30 1285 H 118.837 1.77249 -0.805655 0
M  V30 1286 H 117.008 3.82907 0.650914 0
M  V30 1287 H 118.74 4.01722 0.490033 0
M  V30 1288 H 115.495 4.50207 -1.47007 0
M  V30 1289 H 115.919 5.55438 -3.87063 0
M  V30 1290 H 120.561 3.97798 -1.43235 0
M  V30 1291 H 118.279 6.02382 -5.38667 0
M  V30 1292 H 121.865 4.72289 -3.39757 0
M  V30 1293 H 120.745 5.73461 -5.34895 0
M  V30 1294 N 118.248 0.346503 1.53744 0
M  V30 1295 C 119.195 -0.508914 2.25119 0
M  V30 1296 C 120.165 -1.09315 1.25058 0
M  V30 1297 O 121.35 -1.12921 1.53797 0
M  V30 1298 C 118.49 -1.65246 3.02965 0
M  V30 1299 C 117.603 -1.09525 4.17886 0
M  V30 1300 C 116.738 -2.20634 4.83212 0
M  V30 1301 C 115.777 -1.62279 5.90196 0
M  V30 1302 N 114.914 -2.67143 6.49291 0
M  V30 1303 H 119.754 0.106283 2.9781 0
M  V30 1304 H 117.291 0.0642227 1.4696 0
M  V30 1305 H 119.249 -2.32574 3.4636 0
M  V30 1306 H 117.879 -2.2386 2.32565 0
M  V30 1307 H 116.931 -0.312818 3.79112 0
M  V30 1308 H 118.243 -0.628444 4.94825 0
M  V30 1309 H 117.397 -2.95821 5.29693 0
M  V30 1310 H 116.136 -2.70659 4.05703 0
M  V30 1311 H 115.141 -0.855989 5.43096 0
M  V30 1312 H 116.366 -1.13102 6.69615 0
M  V30 1313 H 114.312 -3.16417 5.74645 0
M  V30 1314 H 114.229 -2.25093 7.21713 0
M  V30 1315 H 115.497 -3.4209 7.00425 0
M  V30 1316 N 119.726 -1.57421 0.075193 0
M  V30 1317 C 120.674 -2.14124 -0.908508 0
M  V30 1318 C 121.668 -1.07898 -1.30592 0
M  V30 1319 O 122.874 -1.26273 -1.28277 0
M  V30 1320 H 119.249 -0.684707 -0.310935 0
M  V30 1321 H 121.22 -2.95634 -0.405374 0
M  V30 1322 C 119.969 -2.72044 -2.16535 0
M  V30 1323 H 119.292 -3.53456 -1.86839 0
M  V30 1324 H 120.732 -3.15311 -2.83469 0
M  V30 1325 C 119.191 -1.66968 -2.92615 0
M  V30 1326 O 119.721 -1.0967 -3.86439 0
M  V30 1327 N 117.927 -1.37923 -2.55784 0
M  V30 1328 H 117.474 -1.84706 -1.79559 0
M  V30 1329 H 117.432 -0.67852 -3.06991 0
M  V30 1330 N 121.204 0.198386 -1.56346 0
M  V30 1331 C 122.154 1.2499 -1.90687 0
M  V30 1332 C 123.138 1.41158 -0.772217 0
M  V30 1333 O 124.33 1.43584 -1.03502 0
M  V30 1334 C 121.459 2.59542 -2.24706 0
M  V30 1335 C 120.545 2.47181 -3.44619 0
M  V30 1336 N 120.936 2.04495 -4.62618 0
M  V30 1337 C 119.234 2.78082 -3.48692 0
M  V30 1338 C 119.935 2.03945 -5.44776 0
M  V30 1339 N 118.911 2.45323 -4.85095 0
M  V30 1340 H 122.713 0.911149 -2.7942 0
M  V30 1341 H 120.227 0.40684 -1.57221 0
M  V30 1342 H 122.224 3.3549 -2.47491 0
M  V30 1343 H 120.884 2.94244 -1.37298 0
M  V30 1344 H 121.895 1.75256 -4.87345 0
M  V30 1345 H 118.572 3.17002 -2.71691 0
M  V30 1346 H 119.962 1.72872 -6.4928 0
M  V30 1347 N 122.682 1.50554 0.465978 0
M  V30 1348 C 123.632 1.66177 1.56106 0
M  V30 1349 C 124.616 0.516265 1.52393 0
M  V30 1350 O 125.808 0.770906 1.5933 0
M  V30 1351 C 122.937 1.76396 2.94515 0
M  V30 1352 C 122.023 2.9664 3.03093 0
M  V30 1353 N 122.414 4.20245 2.81474 0
M  V30 1354 C 120.712 2.95304 3.34233 0
M  V30 1355 C 121.413 5.01259 2.95151 0
M  V30 1356 N 120.389 4.35318 3.25576 0
M  V30 1357 H 124.191 2.59434 1.38099 0
M  V30 1358 H 121.705 1.47808 0.6728 0
M  V30 1359 H 123.702 1.85694 3.73261 0
M  V30 1360 H 122.362 0.843017 3.13565 0
M  V30 1361 H 123.373 4.4966 2.56956 0
M  V30 1362 H 120.05 2.12729 3.59239 0
M  V30 1363 H 121.44 6.09564 2.82632 0
M  V30 1364 N 124.16 -0.719506 1.40217 0
M  V30 1365 C 125.093 -1.84298 1.34571 0
M  V30 1366 C 126.071 -1.61149 0.216741 0
M  V30 1367 O 127.255 -1.84212 0.399756 0
M  V30 1368 C 124.382 -3.20568 1.09335 0
M  V30 1369 C 123.428 -3.62551 2.24631 0
M  V30 1370 S 124.261 -3.7012 3.87004 0
M  V30 1371 C 125.417 -5.09154 3.64024 0
M  V30 1372 H 125.65 -1.88807 2.2965 0
M  V30 1373 H 123.183 -0.885901 1.26456 0
M  V30 1374 H 125.141 -3.99246 0.954602 0
M  V30 1375 H 123.802 -3.13696 0.159164 0
M  V30 1376 H 122.995 -4.61483 2.02606 0
M  V30 1377 H 122.597 -2.91119 2.34789 0
M  V30 1378 H 124.889 -5.95955 3.22248 0
M  V30 1379 H 125.832 -5.36213 4.62473 0
M  V30 1380 H 126.24 -4.79562 2.97793 0
M  V30 1381 N 125.638 -1.25649 -0.95132 0
M  V30 1382 C 127.054 -1.02542 -1.223 0
M  V30 1383 C 127.254 0.255715 -1.99871 0
M  V30 1384 O 126.31 0.967558 -2.33226 0
M  V30 1385 C 127.623 -2.25065 -1.99415 0
M  V30 1386 C 129.171 -2.29861 -2.12446 0
M  V30 1387 C 129.646 -3.52048 -2.92961 0
M  V30 1388 N 131.137 -3.52465 -3.00538 0
M  V30 1389 C 131.872 -4.43672 -3.63239 0
M  V30 1390 N 131.368 -5.45157 -4.27523 0
M  V30 1391 N 133.161 -4.31346 -3.60412 0
M  V30 1392 H 125.312 -2.07951 -0.432471 0
M  V30 1393 H 127.575 -0.91339 -0.253816 0
M  V30 1394 H 127.281 -3.18194 -1.49817 0
M  V30 1395 H 127.155 -2.28502 -3.00111 0
M  V30 1396 H 129.542 -1.37252 -2.61239 0
M  V30 1397 H 129.623 -2.3044 -1.11044 0
M  V30 1398 H 129.267 -4.44981 -2.44856 0
M  V30 1399 H 129.197 -3.48715 -3.94596 0
M  V30 1400 H 131.688 -2.79056 -2.54826 0
M  V30 1401 H 132.001 -6.10958 -4.73234 0
M  V30 1402 H 130.346 -5.49025 -4.26141 0
M  V30 1403 H 133.537 -3.51288 -3.09377 0
M  V30 1404 H 133.71 -5.02624 -4.0899 0
M  V30 1405 N 127.117 1.15442 -1.07289 0
M  V30 1406 C 128.345 1.90096 -0.81676 0
M  V30 1407 C 128.76 1.7798 0.629966 0
M  V30 1408 O 128.117 1.1313 1.43206 0
M  V30 1409 C 128.168 3.40466 -1.21512 0
M  V30 1410 O 127.889 3.52232 -2.60508 0
M  V30 1411 C 129.39 4.32145 -0.988198 0
M  V30 1412 H 126.61 0.602495 -0.295366 0
M  V30 1413 H 129.154 1.4627 -1.42918 0
M  V30 1414 H 127.309 3.81958 -0.647039 0
M  V30 1415 H 127.723 4.45549 -2.76742 0
M  V30 1416 H 129.197 5.36072 -1.31645 0
M  V30 1417 H 129.674 4.39135 0.0755063 0
M  V30 1418 H 130.28 3.96395 -1.54115 0
M  V30 1419 N 128.595 0.856903 1.32268 0
M  V30 1420 C 129.841 0.462069 1.97466 0
M  V30 1421 C 130.174 -0.980298 1.67642 0
M  V30 1422 O 129.449 -1.68824 0.965858 0
M  V30 1423 C 129.732 0.704336 3.53145 0
M  V30 1424 C 129.585 2.19529 3.9259 0
M  V30 1425 C 130.904 0.1622 4.39801 0
M  V30 1426 H 128.023 0.169357 0.717278 0
M  V30 1427 H 130.665 1.07574 1.56614 0
M  V30 1428 H 128.815 0.181999 3.88073 0
M  V30 1429 H 130.487 2.78387 3.67829 0
M  V30 1430 H 128.73 2.67292 3.41668 0
M  V30 1431 H 129.401 2.31549 5.01088 0
M  V30 1432 H 131.877 0.608905 4.11621 0
M  V30 1433 H 130.753 0.361265 5.4771 0
M  V30 1434 H 131.014 -0.935158 4.32096 0
M  V30 1435 N 130.073 -1.45103 0.615059 0
M  V30 1436 C 131.301 -2.06553 0.11977 0
M  V30 1437 C 131.716 -1.45842 -1.19898 0
M  V30 1438 O 131.073 -0.575325 -1.73194 0
M  V30 1439 C 131.124 -3.61495 -0.018364 0
M  V30 1440 O 130.845 -4.19942 1.24822 0
M  V30 1441 C 132.346 -4.39947 -0.544237 0
M  V30 1442 H 129.566 -0.667096 0.0722739 0
M  V30 1443 H 132.11 -1.8623 0.84491 0
M  V30 1444 H 130.265 -3.81135 -0.693865 0
M  V30 1445 H 130.679 -5.13204 1.0827 0
M  V30 1446 H 132.153 -5.48838 -0.589953 0
M  V30 1447 H 132.63 -4.10255 -1.56805 0
M  V30 1448 H 133.236 -4.25188 0.0974703 0
M  V30 1449 N 131.551 -0.354651 -1.53558 0
M  V30 1450 C 132.499 0.512195 -2.26891 0
M  V30 1451 C 133.493 1.09263 -1.29452 0
M  V30 1452 O 134.699 1.03709 -1.47121 0
M  V30 1453 H 131.074 0.183878 -0.729173 0
M  V30 1454 H 133.045 -0.128202 -2.98124 0
M  V30 1455 C 131.794 1.64563 -3.06291 0
M  V30 1456 H 131.117 1.20829 -3.81104 0
M  V30 1457 H 132.557 2.22711 -3.60799 0
M  V30 1458 C 131.016 2.58158 -2.16462 0
M  V30 1459 O 131.546 3.60695 -1.76811 0
M  V30 1460 N 129.752 2.27096 -1.81317 0
M  V30 1461 H 129.299 1.43751 -2.1376 0
M  V30 1462 H 129.257 2.89975 -1.21498 0
M  V30 1463 N 133.029 1.57378 -0.0835403 0
M  V30 1464 C 134.259 1.97975 0.590713 0
M  V30 1465 C 134.667 0.961083 1.62972 0
M  V30 1466 O 134.01 -0.0590879 1.83605 0
M  V30 1467 C 134.072 3.34915 1.3066 0
M  V30 1468 C 133.736 4.55069 0.419698 0
M  V30 1469 C 134.733 5.18868 -0.32749 0
M  V30 1470 C 132.418 5.0114 0.341137 0
M  V30 1471 C 134.412 6.27098 -1.14134 0
M  V30 1472 C 132.099 6.0924 -0.476374 0
M  V30 1473 C 133.097 6.72083 -1.21627 0
M  V30 1474 O 132.785 7.781 -2.02028 0
M  V30 1475 H 132.517 0.655818 0.163947 0
M  V30 1476 H 135.071 2.04807 -0.156021 0
M  V30 1477 H 133.301 3.24733 2.09966 0
M  V30 1478 H 134.99 3.60037 1.87424 0
M  V30 1479 H 135.756 4.84211 -0.276459 0
M  V30 1480 H 131.635 4.51996 0.90668 0
M  V30 1481 H 135.179 6.7608 -1.71935 0
M  V30 1482 H 131.076 6.43329 -0.528927 0
M  V30 1483 H 131.844 7.95034 -1.94586 0
M  V30 1484 N 134.507 -0.190092 1.56449 0
M  V30 1485 C 135.754 -0.909705 1.80916 0
M  V30 1486 C 136.082 -1.83047 0.657583 0
M  V30 1487 O 135.337 -1.92428 -0.356356 0
M  V30 1488 C 135.636 -1.75382 3.1141 0
M  V30 1489 C 135.302 -0.983606 4.40041 0
M  V30 1490 C 133.964 -0.770967 4.74984 0
M  V30 1491 C 136.316 -0.442024 5.19322 0
M  V30 1492 C 133.644 -0.0053448 5.867 0
M  V30 1493 C 135.996 0.310412 6.31838 0
M  V30 1494 C 134.66 0.534023 6.6536 0
M  V30 1495 H 133.93 -0.332885 0.662019 0
M  V30 1496 H 136.577 -0.175762 1.90692 0
M  V30 1497 H 134.882 -2.55659 2.96893 0
M  V30 1498 H 136.579 -2.31331 3.27547 0
M  V30 1499 H 133.169 -1.15936 4.12622 0
M  V30 1500 H 137.353 -0.593693 4.92736 0
M  V30 1501 H 132.609 0.177825 6.11141 0
M  V30 1502 H 136.783 0.737419 6.92485 0
M  V30 1503 H 134.41 1.12918 7.51767 0
M  V30 1504 N 135.985 -1.50799 -0.457987 0
M  V30 1505 C 137.234 -1.6168 -1.20593 0
M  V30 1506 C 137.547 -0.32888 -1.92815 0
M  V30 1507 O 138.753 -0.316773 -2.69646 0
M  V30 1508 C 137.209 -2.8545 -2.19195 0
M  V30 1509 C 136.817 -4.21168 -1.52715 0
M  V30 1510 C 138.561 -3.05681 -2.94549 0
M  V30 1511 C 136.468 -5.3611 -2.4968 0
M  V30 1512 H 135.398 -0.602134 -0.453818 0
M  V30 1513 H 138.049 -1.77245 -0.475031 0
M  V30 1514 H 136.431 -2.63472 -2.95632 0
M  V30 1515 H 137.605 -4.53449 -0.819775 0
M  V30 1516 H 135.92 -4.06648 -0.895922 0
M  V30 1517 H 138.517 -3.88727 -3.67145 0
M  V30 1518 H 138.86 -2.17929 -3.54701 0
M  V30 1519 H 139.393 -3.27901 -2.25223 0
M  V30 1520 H 136.132 -6.26057 -1.94249 0
M  V30 1521 H 135.652 -5.0823 -3.18532 0
M  V30 1522 H 137.331 -5.6722 -3.11241 0
M  V30 1523 N 137.463 0.71206 -1.40597 0
M  V30 1524 C 138.709 1.47416 -1.39271 0
M  V30 1525 C 139.042 1.942 0.00388791 0
M  V30 1526 O 138.317 1.68403 0.973179 0
M  V30 1527 C 138.6 2.69774 -2.38525 0
M  V30 1528 C 138.453 2.28861 -3.87224 0
M  V30 1529 C 139.772 3.71939 -2.35264 0
M  V30 1530 H 136.891 0.534713 -0.5072 0
M  V30 1531 H 139.533 0.812375 -1.71757 0
M  V30 1532 H 137.683 3.26238 -2.10953 0
M  V30 1533 H 139.355 1.77852 -4.25636 0
M  V30 1534 H 137.598 1.60824 -4.02887 0
M  V30 1535 H 138.269 3.16584 -4.52193 0
M  V30 1536 H 140.745 3.25113 -2.59694 0
M  V30 1537 H 139.621 4.55186 -3.06753 0
M  V30 1538 H 139.882 4.20484 -1.36549 0
M  V30 1539 N 138.941 1.26152 0.944643 0
M  V30 1540 C 139.889 1.07215 2.06417 0
M  V30 1541 C 140.883 9.2007e-05 1.694 0
M  V30 1542 O 142.089 0.1565 1.79318 0
M  V30 1543 H 138.464 0.329837 0.675805 0
M  V30 1544 H 140.435 2.02099 2.19541 0
M  V30 1545 C 139.184 0.718197 3.40202 0
M  V30 1546 H 138.507 1.53497 3.69159 0
M  V30 1547 H 139.947 0.625459 4.19361 0
M  V30 1548 C 138.406 -0.576435 3.31932 0
M  V30 1549 O 138.936 -1.61574 3.67773 0
M  V30 1550 N 137.142 -0.565781 2.85039 0
M  V30 1551 H 136.689 0.280367 2.5607 0
M  V30 1552 H 136.647 -1.43213 2.79888 0
M  V30 1553 N 140.419 -1.14872 1.07899 0
M  V30 1554 C 141.349 -2.2193 0.725887 0
M  V30 1555 C 142.33 -1.67622 -0.28927 0
M  V30 1556 O 143.515 -1.93533 -0.160787 0
M  V30 1557 C 140.645 -3.47061 0.128856 0
M  V30 1558 C 139.599 -4.14363 1.07178 0
M  V30 1559 C 138.925 -5.33636 0.337229 0
M  V30 1560 C 140.225 -4.63492 2.40775 0
M  V30 1561 H 141.919 -2.51724 1.62097 0
M  V30 1562 H 139.465 -1.20991 0.780838 0
M  V30 1563 H 141.418 -4.21199 -0.130147 0
M  V30 1564 H 140.142 -3.16617 -0.80134 0
M  V30 1565 H 138.801 -3.42173 1.3158 0
M  V30 1566 H 138.449 -4.99449 -0.596606 0
M  V30 1567 H 138.149 -5.79609 0.965788 0
M  V30 1568 H 139.673 -6.10539 0.0861567 0
M  V30 1569 H 141.087 -5.2913 2.20669 0
M  V30 1570 H 139.484 -5.20148 2.99276 0
M  V30 1571 H 140.554 -3.78834 3.02676 0
M  V30 1572 N 141.898 -0.863906 -1.31812 0
M  V30 1573 C 143.123 -0.48527 -2.01643 0
M  V30 1574 C 143.548 0.913058 -1.64453 0
M  V30 1575 O 142.906 1.6014 -0.849985 0
M  V30 1576 C 142.954 -0.642625 -3.54828 0
M  V30 1577 O 142.058 0.320659 -4.11151 0
M  V30 1578 H 141.399 -0.193793 -0.635091 0
M  V30 1579 H 143.929 -1.16565 -1.68148 0
M  V30 1580 H 143.939 -0.533628 -4.04495 0
M  V30 1581 H 142.614 -1.66227 -3.81237 0
M  V30 1582 H 141.191 0.167126 -3.72525 0
M  V30 1583 N 143.376 1.44774 -0.622745 0
M  V30 1584 C 144.306 2.33382 0.0741861 0
M  V30 1585 C 145.287 1.47719 0.843387 0
M  V30 1586 O 146.472 1.76458 0.810934 0
M  V30 1587 C 143.602 3.30663 1.06204 0
M  V30 1588 C 142.556 4.26079 0.405037 0
M  V30 1589 C 141.882 5.13165 1.5022 0
M  V30 1590 C 143.182 5.1781 -0.683414 0
M  V30 1591 H 144.876 2.91905 -0.665713 0
M  V30 1592 H 142.422 1.40363 -0.321587 0
M  V30 1593 H 144.375 3.9153 1.55827 0
M  V30 1594 H 143.099 2.70331 1.83272 0
M  V30 1595 H 141.758 3.66532 -0.0704683 0
M  V30 1596 H 141.406 4.49191 2.26355 0
M  V30 1597 H 141.106 5.77812 1.06803 0
M  V30 1598 H 142.63 5.76902 2.00041 0
M  V30 1599 H 144.044 5.72661 -0.270631 0
M  V30 1600 H 142.441 5.91015 -1.04023 0
M  V30 1601 H 143.511 4.59326 -1.55395 0
M  V30 1602 N 144.854 0.36279 1.53368 0
M  V30 1603 C 145.817 -0.472679 2.24273 0
M  V30 1604 C 146.817 -1.012 1.24961 0
M  V30 1605 O 148.007 -0.898194 1.49259 0
M  V30 1606 C 145.139 -1.66039 2.97731 0
M  V30 1607 H 146.332 0.14773 2.99536 0
M  V30 1608 H 143.885 0.114434 1.55881 0
M  V30 1609 H 144.62 -2.31896 2.26704 0
M  V30 1610 H 144.405 -1.28066 3.70596 0
M  V30 1611 H 145.895 -2.25252 3.51641 0
M  V30 1612 N 146.332 -1.57332 0.0918853 0
M  V30 1613 C 147.609 -1.85691 -0.614668 0
M  V30 1614 C 147.989 -0.988146 -1.86545 0
M  V30 1615 O 147.337 -0.0597055 -2.28422 0
M  V30 1616 C 147.547 -3.36294 -0.933126 0
M  V30 1617 C 148.895 -4.04275 -1.29796 0
M  V30 1618 O 149.919 -3.41157 -1.02424 0
M  V30 1619 O 148.778 -5.1564 -1.81047 0
M  V30 1620 H 145.872 -0.767802 -0.307261 0
M  V30 1621 H 148.418 -1.69244 0.12434 0
M  V30 1622 H 147.19 -3.91273 -0.0456404 0
M  V30 1623 H 146.813 -3.58076 -1.72822 0
M  V30 1624 N 147.81 0.181792 -1.56548 0
M  V30 1625 C 149.056 0.901431 -1.81665 0
M  V30 1626 C 149.389 1.82347 -0.668075 0
M  V30 1627 O 148.664 1.91669 0.330615 0
M  V30 1628 C 148.947 1.70618 -3.17115 0
M  V30 1629 C 148.8 0.807964 -4.42484 0
M  V30 1630 C 150.119 2.67605 -3.49393 0
M  V30 1631 H 147.238 0.32627 -0.660846 0
M  V30 1632 H 149.88 0.168134 -1.89255 0
M  V30 1633 H 148.03 2.33133 -3.10775 0
M  V30 1634 H 149.702 0.19649 -4.60881 0
M  V30 1635 H 147.945 0.115411 -4.33646 0
M  V30 1636 H 148.616 1.40632 -5.33785 0
M  V30 1637 H 151.092 2.15218 -3.56118 0
M  V30 1638 H 149.968 3.20985 -4.45264 0
M  V30 1639 H 150.229 3.47298 -2.73563 0
M  V30 1640 N 149.288 1.51039 0.449983 0
M  V30 1641 C 150.218 1.74379 1.55288 0
M  V30 1642 C 151.199 0.593236 1.5942 0
M  V30 1643 O 152.384 0.834625 1.7535 0
M  V30 1644 C 149.514 1.85728 2.93466 0
M  V30 1645 C 148.468 3.01078 3.04197 0
M  V30 1646 C 147.794 2.97595 4.44231 0
M  V30 1647 C 149.094 4.41254 2.7945 0
M  V30 1648 H 150.788 2.66725 1.36008 0
M  V30 1649 H 148.334 1.2835 0.652864 0
M  V30 1650 H 150.287 2.0064 3.70569 0
M  V30 1651 H 149.011 0.900207 3.13949 0
M  V30 1652 H 147.67 2.85851 2.29531 0
M  V30 1653 H 147.318 1.99691 4.61663 0
M  V30 1654 H 147.018 3.75046 4.52343 0
M  V30 1655 H 148.542 3.14583 5.23326 0
M  V30 1656 H 149.956 4.56897 3.46292 0
M  V30 1657 H 148.353 5.20315 2.98985 0
M  V30 1658 H 149.423 4.52164 1.75144 0
M  V30 1659 N 150.766 -0.704594 1.40972 0
M  V30 1660 C 152.012 -1.46675 1.40051 0
M  V30 1661 C 152.345 -1.94199 0.00641102 0
M  V30 1662 O 151.62 -1.68916 -0.964235 0
M  V30 1663 C 151.903 -2.68505 2.39952 0
M  V30 1664 C 151.756 -2.26805 3.88432 0
M  V30 1665 C 153.075 -3.70686 2.37233 0
M  V30 1666 H 150.194 -0.532015 0.510028 0
M  V30 1667 H 152.836 -0.803255 1.72185 0
M  V30 1668 H 150.986 -3.25114 2.1268 0
M  V30 1669 H 152.658 -1.75592 4.26574 0
M  V30 1670 H 150.901 -1.58685 4.03734 0
M  V30 1671 H 151.572 -3.14181 4.53866 0
M  V30 1672 H 154.048 -3.23731 2.61415 0
M  V30 1673 H 152.924 -4.53553 3.09162 0
M  V30 1674 H 153.185 -4.19754 1.38777 0
M  V30 1675 N 152.244 -1.26651 -0.937939 0
M  V30 1676 C 153.472 -1.15173 -1.7188 0
M  V30 1677 C 153.887 0.292668 -1.86518 0
M  V30 1678 O 153.244 1.20014 -1.37488 0
M  V30 1679 C 153.295 -1.81925 -3.12387 0
M  V30 1680 O 153.016 -3.2072 -2.98446 0
M  V30 1681 C 154.517 -1.76442 -4.06673 0
M  V30 1682 H 151.737 -0.400911 -0.538063 0
M  V30 1683 H 154.281 -1.67332 -1.1756 0
M  V30 1684 H 152.436 -1.33696 -3.63599 0
M  V30 1685 H 152.85 -3.53802 -3.872 0
M  V30 1686 H 154.324 -2.27781 -5.02812 0
M  V30 1687 H 154.801 -0.731608 -4.33064 0
M  V30 1688 H 155.407 -2.24238 -3.61382 0
M  V30 1689 N 153.722 1.14298 -1.08507 0
M  V30 1690 C 154.971 1.84708 -0.810305 0
M  V30 1691 C 155.284 1.83903 0.666271 0
M  V30 1692 O 156.49 2.50112 1.05624 0
M  V30 1693 C 154.946 3.31572 -1.39957 0
M  V30 1694 C 154.554 3.40791 -2.90801 0
M  V30 1695 C 156.298 4.07087 -1.20334 0
M  V30 1696 C 154.205 4.81872 -3.4286 0
M  V30 1697 H 153.135 0.691985 -0.299454 0
M  V30 1698 H 155.786 1.28841 -1.30661 0
M  V30 1699 H 154.168 3.87183 -0.830976 0
M  V30 1700 H 155.342 2.95225 -3.53806 0
M  V30 1701 H 153.657 2.78732 -3.0935 0
M  V30 1702 H 156.254 5.11225 -1.56693 0
M  V30 1703 H 156.597 4.16054 -0.143237 0
M  V30 1704 H 157.13 3.57779 -1.73893 0
M  V30 1705 H 153.869 4.78094 -4.48449 0
M  V30 1706 H 153.389 5.27972 -2.84615 0
M  V30 1707 H 155.068 5.50765 -3.39509 0
M  V30 1708 N 155.201 0.870884 1.31352 0
M  V30 1709 C 156.429 0.49677 2.00848 0
M  V30 1710 C 156.844 -0.910998 1.65367 0
M  V30 1711 O 156.201 -1.59696 0.883374 0
M  V30 1712 C 156.252 0.645308 3.55694 0
M  V30 1713 O 155.973 1.99764 3.89905 0
M  V30 1714 C 157.474 0.272326 4.42463 0
M  V30 1715 H 154.694 0.193462 0.642506 0
M  V30 1716 H 157.238 1.1723 1.67563 0
M  V30 1717 H 155.393 0.0173176 3.87396 0
M  V30 1718 H 155.807 2.00607 4.84621 0
M  V30 1719 H 157.281 0.427208 5.50344 0
M  V30 1720 H 157.758 -0.788587 4.32062 0
M  V30 1721 H 158.364 0.876054 4.1618 0
M  V30 1722 N 156.679 -1.44442 0.630414 0
M  V30 1723 C 157.919 -2.03934 0.137919 0
M  V30 1724 C 158.283 -1.48509 -1.21692 0
M  V30 1725 O 159.484 -1.99499 -1.80149 0
M  V30 1726 C 157.755 -3.57187 0.123373 0
M  V30 1727 S 159.314 -4.37741 -0.304604 0
M  V30 1728 H 156.132 -0.708401 0.0607353 0
M  V30 1729 H 158.734 -1.76835 0.833643 0
M  V30 1730 H 157.438 -3.95032 1.11256 0
M  V30 1731 H 156.969 -3.88895 -0.59362 0
M  V30 1732 H 158.984 -4.71403 -1.54897 0
M  V30 1733 N 158.157 -0.370918 -1.53173 0
M  V30 1734 C 159.087 0.464847 -2.28826 0
M  V30 1735 C 160.068 1.07936 -1.31468 0
M  V30 1736 O 161.253 1.0956 -1.60344 0
M  V30 1737 C 158.383 1.60196 -3.08147 0
M  V30 1738 C 157.337 1.11443 -4.13237 0
M  V30 1739 C 156.663 2.3422 -4.80672 0
M  V30 1740 C 157.963 0.195384 -5.21934 0
M  V30 1741 H 159.657 -0.166329 -2.98938 0
M  V30 1742 H 157.203 -0.0814359 -1.4377 0
M  V30 1743 H 159.156 2.19332 -3.59822 0
M  V30 1744 H 157.88 2.26045 -2.35735 0
M  V30 1745 H 156.539 0.545727 -3.62515 0
M  V30 1746 H 156.187 2.98537 -4.04827 0
M  V30 1747 H 155.887 2.02269 -5.51689 0
M  V30 1748 H 157.411 2.94032 -5.35143 0
M  V30 1749 H 158.825 0.694375 -5.69079 0
M  V30 1750 H 157.222 -0.0335027 -6.00091 0
M  V30 1751 H 158.292 -0.760961 -4.78892 0
M  V30 1752 N 159.635 1.57281 -0.100228 0
M  V30 1753 C 161.046 1.81725 0.428107 0
M  V30 1754 C 161.397 1.01619 1.67833 0
M  V30 1755 O 160.522 0.247098 2.14985 0
M  V30 1756 C 161.117 3.29617 0.78347 0
M  V30 1757 C 159.676 3.54808 1.25653 0
M  V30 1758 C 158.823 2.76118 0.255752 0
M  V30 1759 H 161.774 1.55324 -0.325608 0
M  V30 1760 H 161.795 3.4322 1.64256 0
M  V30 1761 H 161.307 3.87893 -0.12665 0
M  V30 1762 H 159.408 3.01868 2.18418 0
M  V30 1763 H 159.521 4.63443 1.21482 0
M  V30 1764 H 157.885 2.43745 0.738956 0
M  V30 1765 H 158.668 3.37145 -0.647136 0
M  V30 1766 N 161.113 -0.173488 1.56642 0
M  V30 1767 C 162.076 -1.19859 1.95362 0
M  V30 1768 C 163.076 -1.37296 0.83704 0
M  V30 1769 O 164.266 -1.34739 1.10413 0
M  V30 1770 C 161.398 -2.56405 2.24654 0
M  V30 1771 H 162.591 -0.867062 2.87092 0
M  V30 1772 H 160.144 -0.415853 1.50666 0
M  V30 1773 H 160.879 -2.94576 1.35631 0
M  V30 1774 H 160.664 -2.45115 3.06041 0
M  V30 1775 H 162.154 -3.30287 2.5554 0
M  V30 1776 N 162.591 -1.51276 -0.441967 0
M  V30 1777 C 163.819 -1.67516 -1.21434 0
M  V30 1778 C 164.234 -0.37055 -1.85128 0
M  V30 1779 O 163.591 0.650498 -1.70513 0
M  V30 1780 C 163.642 -2.78748 -2.30177 0
M  V30 1781 O 163.363 -4.04154 -1.69089 0
M  V30 1782 C 164.864 -3.06217 -3.20541 0
M  V30 1783 H 162.084 -0.562276 -0.366178 0
M  V30 1784 H 164.628 -1.97666 -0.524244 0
M  V30 1785 H 162.783 -2.5121 -2.94911 0
M  V30 1786 H 163.197 -4.65894 -2.40922 0
M  V30 1787 H 164.671 -3.8764 -3.92987 0
M  V30 1788 H 165.148 -2.18439 -3.81026 0
M  V30 1789 H 165.754 -3.35397 -2.61513 0
M  V30 1790 N 164.069 0.697108 -1.41344 0
M  V30 1791 C 164.999 1.82353 -1.45841 0
M  V30 1792 C 165.98 1.67115 -0.317247 0
M  V30 1793 O 167.165 1.86871 -0.528474 0
M  V30 1794 C 164.295 3.20476 -1.33838 0
M  V30 1795 C 163.249 3.50415 -2.4575 0
M  V30 1796 C 162.575 4.87878 -2.18813 0
M  V30 1797 C 163.875 3.49546 -3.88091 0
M  V30 1798 H 165.569 1.78846 -2.40113 0
M  V30 1799 H 163.115 0.859028 -1.15571 0
M  V30 1800 H 165.068 3.98988 -1.35596 0
M  V30 1801 H 163.792 3.24604 -0.360498 0
M  V30 1802 H 162.451 2.74253 -2.43271 0
M  V30 1803 H 162.099 4.8863 -1.19371 0
M  V30 1804 H 161.799 5.08875 -2.93803 0
M  V30 1805 H 163.323 5.68702 -2.22284 0
M  V30 1806 H 164.737 4.18066 -3.92293 0
M  V30 1807 H 163.134 3.82075 -4.62751 0
M  V30 1808 H 164.204 2.48552 -4.16353 0
M  V30 1809 N 165.547 1.27147 0.931209 0
M  V30 1810 C 166.793 1.13446 1.68101 0
M  V30 1811 C 167.126 -0.319628 1.91552 0
M  V30 1812 O 166.401 -1.23407 1.50336 0
M  V30 1813 C 166.684 1.91482 3.0497 0
M  V30 1814 C 166.537 3.44855 2.88782 0
M  V30 1815 C 167.856 1.71651 4.05246 0
M  V30 1816 H 164.975 0.413498 0.610072 0
M  V30 1817 H 167.617 1.56261 1.08086 0
M  V30 1818 H 165.767 1.55095 3.56199 0
M  V30 1819 H 167.439 3.9105 2.44698 0
M  V30 1820 H 165.682 3.71373 2.24198 0
M  V30 1821 H 166.353 3.94694 3.85902 0
M  V30 1822 H 168.829 2.0337 3.63015 0
M  V30 1823 H 167.705 2.28651 4.99009 0
M  V30 1824 H 167.966 0.663555 4.37092 0
M  V30 1825 N 167.025 -1.13721 1.09112 0
M  V30 1826 C 168.271 -1.85198 0.826414 0
M  V30 1827 C 168.604 -1.83129 -0.646319 0
M  V30 1828 O 167.879 -1.2671 -1.47563 0
M  V30 1829 C 168.162 -3.33507 1.35812 0
M  V30 1830 C 168.015 -3.44108 2.89672 0
M  V30 1831 C 169.334 -4.28838 0.989256 0
M  V30 1832 H 166.453 -0.67243 0.301675 0
M  V30 1833 H 169.095 -1.33499 1.35197 0
M  V30 1834 H 167.245 -3.77666 0.911082 0
M  V30 1835 H 168.917 -3.08684 3.428 0
M  V30 1836 H 167.16 -2.85087 3.26967 0
M  V30 1837 H 167.831 -4.48388 3.21951 0
M  V30 1838 H 170.307 -3.92734 1.37475 0
M  V30 1839 H 169.183 -5.31051 1.38838 0
M  V30 1840 H 169.444 -4.4198 -0.102924 0
M  V30 1841 N 168.503 -0.877838 -1.30888 0
M  V30 1842 C 169.78 -0.413052 -1.91189 0
M  V30 1843 C 170.16 1.1056 -1.79832 0
M  V30 1844 O 169.508 1.93771 -1.21099 0
M  V30 1845 C 169.718 -0.903191 -3.3711 0
M  V30 1846 C 171.066 -0.93395 -4.14201 0
M  V30 1847 O 172.09 -0.849373 -3.45925 0
M  V30 1848 O 170.949 -1.05772 -5.36167 0
M  V30 1849 H 168.043 -0.125035 -0.817493 0
M  V30 1850 H 170.589 -0.966269 -1.39504 0
M  V30 1851 H 169.361 -1.94692 -3.39427 0
M  V30 1852 H 168.984 -0.328732 -3.96239 0
M  V30 1853 N 169.982 1.44106 -0.638065 0
M  V30 1854 C 171.231 2.01194 -0.142744 0
M  V30 1855 C 171.544 1.50835 1.24532 0
M  V30 1856 O 172.75 2.00096 1.83504 0
M  V30 1857 C 171.206 3.59319 -0.20442 0
M  V30 1858 C 170.814 4.18674 -1.59423 0
M  V30 1859 C 172.558 4.23854 0.234079 0
M  V30 1860 C 170.465 5.69045 -1.61065 0
M  V30 1861 H 169.395 0.752367 -0.0495998 0
M  V30 1862 H 172.046 1.65246 -0.797881 0
M  V30 1863 H 170.428 3.92598 0.517946 0
M  V30 1864 H 171.602 3.96921 -2.34074 0
M  V30 1865 H 169.917 3.66453 -1.97741 0
M  V30 1866 H 172.514 5.34155 0.241443 0
M  V30 1867 H 172.857 3.96688 1.2627 0
M  V30 1868 H 173.39 3.95403 -0.436025 0
M  V30 1869 H 170.129 6.00956 -2.61787 0
M  V30 1870 H 169.649 5.929 -0.90718 0
M  V30 1871 H 171.328 6.32809 -1.34766 0
M  V30 1872 N 171.46 0.379036 1.52974 0
M  V30 1873 C 172.688 -0.20679 2.05864 0
M  V30 1874 C 173.103 -1.41356 1.25155 0
M  V30 1875 O 172.46 -1.8009 0.295588 0
M  V30 1876 C 172.511 -0.587045 3.56702 0
M  V30 1877 O 172.232 0.571776 4.34353 0
M  V30 1878 C 173.733 -1.22983 4.25899 0
M  V30 1879 H 170.953 -0.0336123 0.670158 0
M  V30 1880 H 173.497 0.541298 1.97206 0
M  V30 1881 H 171.652 -1.28504 3.65466 0
M  V30 1882 H 172.066 0.261544 5.23847 0
M  V30 1883 H 173.54 -1.44635 5.32715 0
M  V30 1884 H 174.017 -2.19416 3.80465 0
M  V30 1885 H 174.623 -0.572892 4.21424 0
M  V30 1886 N 172.938 -1.57226 0.108567 0
M  V30 1887 C 173.848 -2.18292 -0.859401 0
M  V30 1888 C 174.864 -1.15612 -1.30038 0
M  V30 1889 O 176.04 -1.48039 -1.36552 0
M  V30 1890 C 173.105 -2.762 -2.09558 0
M  V30 1891 C 172.166 -3.93881 -1.70752 0
M  V30 1892 C 171.399 -4.49018 -2.88477 0
M  V30 1893 O 171.622 -4.03068 -4.036 0
M  V30 1894 O 170.556 -5.39852 -2.66164 0
M  V30 1895 H 174.382 -3.01441 -0.369769 0
M  V30 1896 H 171.967 -1.48945 -0.1165 0
M  V30 1897 H 173.849 -3.13156 -2.81978 0
M  V30 1898 H 172.524 -1.96089 -2.57548 0
M  V30 1899 H 171.431 -3.61713 -0.954714 0
M  V30 1900 H 172.764 -4.75396 -1.27513 0
M  V30 1901 N 174.416 0.165178 -1.56732 0
M  V30 1902 C 175.644 0.896218 -1.86482 0
M  V30 1903 C 176.059 1.75555 -0.694675 0
M  V30 1904 O 175.416 1.79379 0.33607 0
M  V30 1905 C 175.467 1.76792 -3.1532 0
M  V30 1906 O 175.188 0.943239 -4.27825 0
M  V30 1907 C 176.689 2.6081 -3.58459 0
M  V30 1908 H 173.909 0.260064 -0.618553 0
M  V30 1909 H 176.453 0.163428 -2.03846 0
M  V30 1910 H 174.608 2.45398 -2.99764 0
M  V30 1911 H 175.022 1.53998 -5.01383 0
M  V30 1912 H 176.496 3.17579 -4.51495 0
M  V30 1913 H 176.973 3.35977 -2.82872 0
M  V30 1914 H 177.579 1.97526 -3.76648 0
M  V30 1915 N 175.894 1.51508 0.433938 0
M  V30 1916 C 177.14 1.65549 1.18173 0
M  V30 1917 C 177.495 0.368751 1.88833 0
M  V30 1918 O 176.788 -0.635616 1.8075 0
M  V30 1919 C 176.982 2.79928 2.22205 0
M  V30 1920 C 176.811 4.19601 1.61756 0
M  V30 1921 C 175.581 4.85489 1.40101 0
M  V30 1922 C 177.779 5.02574 1.09194 0
M  V30 1923 N 175.761 6.09266 0.752859 0
M  V30 1924 C 177.132 6.17381 0.569255 0
M  V30 1925 C 179.187 4.88079 0.984025 0
M  V30 1926 C 177.89 7.19282 -0.0507472 0
M  V30 1927 C 179.916 5.90191 0.377912 0
M  V30 1928 C 179.278 7.04272 -0.134216 0
M  V30 1929 H 175.377 0.659653 0.419979 0
M  V30 1930 H 177.961 1.88746 0.477818 0
M  V30 1931 H 176.132 2.5839 2.89982 0
M  V30 1932 H 177.864 2.83132 2.89168 0
M  V30 1933 H 174.619 4.43417 1.66369 0
M  V30 1934 H 175.043 6.75528 0.446123 0
M  V30 1935 H 179.685 4.00131 1.36583 0
M  V30 1936 H 177.403 8.06876 -0.444676 0
M  V30 1937 H 180.989 5.81045 0.296269 0
M  V30 1938 H 179.869 7.81933 -0.59585 0
M  V30 1939 N 177.372 -0.689602 1.41712 0
M  V30 1940 C 178.619 -1.44966 1.4139 0
M  V30 1941 C 178.947 -1.94484 0.025105 0
M  V30 1942 O 178.202 -1.70307 -0.964048 0
M  V30 1943 C 178.501 -2.67298 2.37247 0
M  V30 1944 C 178.167 -2.36405 3.83958 0
M  V30 1945 C 176.829 -2.27691 4.23923 0
M  V30 1946 C 179.181 -2.11043 4.76561 0
M  V30 1947 C 176.509 -1.91719 5.54492 0
M  V30 1948 C 178.861 -1.76578 6.07456 0
M  V30 1949 C 177.525 -1.66363 6.46436 0
M  V30 1950 H 176.795 -0.53047 0.517381 0
M  V30 1951 H 179.442 -0.787655 1.74552 0
M  V30 1952 H 177.747 -3.38461 1.9736 0
M  V30 1953 H 179.444 -3.25452 2.34269 0
M  V30 1954 H 176.034 -2.44085 3.52308 0
M  V30 1955 H 180.218 -2.16717 4.46483 0
M  V30 1956 H 175.474 -1.82367 5.83568 0
M  V30 1957 H 179.648 -1.55974 6.78708 0
M  V30 1958 H 177.275 -1.38258 7.47522 0
M  V30 1959 N 178.85 -1.27639 -0.924453 0
M  V30 1960 C 180.097 -1.14167 -1.67249 0
M  V30 1961 C 180.425 0.311863 -1.91984 0
M  V30 1962 O 179.68 1.24425 -1.51053 0
M  V30 1963 C 179.979 -1.87407 -3.04325 0
M  V30 1964 C 179.645 -3.37249 -2.99289 0
M  V30 1965 C 178.307 -3.7812 -2.97622 0
M  V30 1966 C 180.659 -4.32845 -2.90336 0
M  V30 1967 C 177.987 -5.12944 -2.8479 0
M  V30 1968 C 180.339 -5.6773 -2.79045 0
M  V30 1969 C 179.003 -6.07889 -2.7573 0
M  V30 1970 H 178.273 -0.417766 -0.612007 0
M  V30 1971 H 180.92 -1.58286 -1.07786 0
M  V30 1972 H 179.225 -1.35805 -3.67511 0
M  V30 1973 H 180.922 -1.74408 -3.61086 0
M  V30 1974 H 177.512 -3.04748 -3.01374 0
M  V30 1975 H 181.696 -4.02239 -2.90719 0
M  V30 1976 H 176.952 -5.432 -2.80612 0
M  V30 1977 H 181.126 -6.41472 -2.71083 0
M  V30 1978 H 178.753 -7.12314 -2.65544 0
M  V30 1979 N 180.328 1.1314 -1.09713 0
M  V30 1980 C 181.576 1.84119 -0.833338 0
M  V30 1981 C 181.897 1.84097 0.642904 0
M  V30 1982 O 181.167 1.29881 1.46655 0
M  V30 1983 H 179.747 0.681766 -0.305293 0
M  V30 1984 H 182.409 1.37038 -1.38588 0
M  V30 1985 H 181.505 2.88543 -1.18951 0
M  V30 1986 N 181.806 0.884767 1.30421 0
M  V30 1987 C 182.738 0.308655 2.27112 0
M  V30 1988 C 183.751 -0.536655 1.53701 0
M  V30 1989 O 184.94 -0.35624 1.74909 0
M  V30 1990 C 182.04 -0.579782 3.33904 0
M  V30 1991 C 181.213 0.236417 4.36761 0
M  V30 1992 C 180.272 -0.582482 5.22966 0
M  V30 1993 O 179.298 -0.00525502 5.692 0
M  V30 1994 N 180.5 -1.89163 5.48815 0
M  V30 1995 H 183.265 1.13964 2.77186 0
M  V30 1996 H 180.826 0.747731 1.43599 0
M  V30 1997 H 182.818 -1.13366 3.88497 0
M  V30 1998 H 181.388 -1.31144 2.83761 0
M  V30 1999 H 180.608 0.97174 3.82035 0
M  V30 2000 H 181.896 0.795924 5.02536 0
M  V30 2001 H 181.294 -2.38352 5.13035 0
M  V30 2002 H 179.851 -2.39296 6.06284 0
M  V30 2003 N 183.284 -1.43765 0.645699 0
M  V30 2004 C 184.509 -2.06767 0.161883 0
M  V30 2005 C 184.934 -1.48034 -1.16049 0
M  V30 2006 O 184.292 -0.587369 -1.71522 0
M  V30 2007 C 184.34 -3.60519 0.0762003 0
M  V30 2008 O 183.444 -4.00982 -0.963721 0
M  V30 2009 H 182.785 -0.657675 0.091429 0
M  V30 2010 H 185.315 -1.84397 0.886499 0
M  V30 2011 H 185.325 -4.07853 -0.109604 0
M  V30 2012 H 184 -4.02646 1.04157 0
M  V30 2013 H 182.577 -3.65253 -0.751312 0
M  V30 2014 N 184.763 -0.387143 -1.52771 0
M  V30 2015 C 185.693 0.440551 -2.29306 0
M  V30 2016 C 186.674 1.06535 -1.32606 0
M  V30 2017 O 187.859 1.07853 -1.61497 0
M  V30 2018 C 184.989 1.56919 -3.09829 0
M  V30 2019 C 183.943 1.07054 -4.14395 0
M  V30 2020 C 183.269 2.29109 -4.83129 0
M  V30 2021 C 184.569 0.140015 -5.22112 0
M  V30 2022 H 186.263 -0.198026 -2.98744 0
M  V30 2023 H 183.809 -0.09668 -1.43675 0
M  V30 2024 H 185.762 2.15503 -3.62128 0
M  V30 2025 H 184.486 2.23532 -2.3812 0
M  V30 2026 H 183.145 0.507247 -3.63074 0
M  V30 2027 H 182.793 2.94227 -4.0797 0
M  V30 2028 H 182.493 1.96406 -5.53804 0
M  V30 2029 H 184.017 2.88339 -5.38231 0
M  V30 2030 H 185.431 0.633978 -5.69784 0
M  V30 2031 H 183.828 -0.0971485 -6.00021 0
M  V30 2032 H 184.898 -0.811711 -4.78058 0
M  V30 2033 N 186.241 1.57166 -0.116904 0
M  V30 2034 C 187.481 1.97008 0.544715 0
M  V30 2035 C 187.845 0.998713 1.63981 0
M  V30 2036 O 189.046 1.28644 2.36018 0
M  V30 2037 C 187.317 3.41145 1.06559 0
M  V30 2038 S 188.876 4.02998 1.73603 0
M  V30 2039 H 185.694 0.688587 0.177112 0
M  V30 2040 H 188.296 1.94459 -0.201487 0
M  V30 2041 H 187 4.09592 0.257374 0
M  V30 2042 H 186.531 3.4734 1.84712 0
M  V30 2043 H 188.546 3.93585 3.02168 0
M  V30 2044 N 187.719 -0.156864 1.56817 0
M  V30 2045 C 188.666 -1.19394 1.97519 0
M  V30 2046 C 189.636 -1.4322 0.841265 0
M  V30 2047 O 190.821 -1.55719 1.10255 0
M  V30 2048 C 187.961 -2.52483 2.35258 0
M  V30 2049 C 187.074 -2.35914 3.61896 0
M  V30 2050 C 186.209 -3.61969 3.88782 0
M  V30 2051 C 185.248 -3.40395 5.08722 0
M  V30 2052 N 184.385 -4.58556 5.31668 0
M  V30 2053 H 189.225 -0.839845 2.85921 0
M  V30 2054 H 186.762 -0.403264 1.41464 0
M  V30 2055 H 188.72 -3.30071 2.55165 0
M  V30 2056 H 187.35 -2.85859 1.49949 0
M  V30 2057 H 186.402 -1.49429 3.49821 0
M  V30 2058 H 187.714 -2.15926 4.49641 0
M  V30 2059 H 186.868 -4.47989 4.09135 0
M  V30 2060 H 185.607 -3.84951 2.9944 0
M  V30 2061 H 184.612 -2.52763 4.88253 0
M  V30 2062 H 185.837 -3.18822 5.99608 0
M  V30 2063 H 183.783 -4.81729 4.45279 0
M  V30 2064 H 183.7 -4.41535 6.13664 0
M  V30 2065 H 184.968 -5.45817 5.5651 0
M  V30 2066 N 189.197 -1.51736 -0.425897 0
M  V30 2067 C 190.443 -1.65214 -1.1761 0
M  V30 2068 C 190.776 -0.372778 -1.90589 0
M  V30 2069 O 190.051 0.628139 -1.84078 0
M  V30 2070 C 190.334 -2.86312 -2.18398 0
M  V30 2071 C 190.187 -4.24254 -1.49426 0
M  V30 2072 C 191.506 -3.02925 -3.19256 0
M  V30 2073 H 188.625 -0.601263 -0.426206 0
M  V30 2074 H 191.267 -1.8425 -0.463882 0
M  V30 2075 H 189.417 -2.70213 -2.79137 0
M  V30 2076 H 191.089 -4.52046 -0.919362 0
M  V30 2077 H 189.332 -4.26426 -0.796432 0
M  V30 2078 H 190.003 -5.05001 -2.22885 0
M  V30 2079 H 192.479 -3.1781 -2.68581 0
M  V30 2080 H 191.355 -3.89199 -3.8706 0
M  V30 2081 H 191.616 -2.15497 -3.86023 0
M  V30 2082 N 190.675 0.682077 -1.42076 0
M  V30 2083 C 191.924 1.43786 -1.41451 0
M  V30 2084 C 192.237 1.95574 -0.0317074 0
M  V30 2085 O 193.443 2.71326 0.0971462 0
M  V30 2086 C 191.899 2.60071 -2.48779 0
M  V30 2087 C 191.507 2.15013 -3.93031 0
M  V30 2088 C 193.251 3.37626 -2.57311 0
M  V30 2089 C 191.158 3.28336 -4.91883 0
M  V30 2090 H 190.088 0.540143 -0.526082 0
M  V30 2091 H 192.739 0.739157 -1.67955 0
M  V30 2092 H 191.121 3.32275 -2.15429 0
M  V30 2093 H 192.295 1.5001 -4.35699 0
M  V30 2094 H 190.61 1.50416 -3.88284 0
M  V30 2095 H 193.207 4.22012 -3.28345 0
M  V30 2096 H 193.55 3.83727 -1.61429 0
M  V30 2097 H 194.083 2.72488 -2.89819 0
M  V30 2098 H 190.822 2.87234 -5.89217 0
M  V30 2099 H 190.342 3.92145 -4.53853 0
M  V30 2100 H 192.021 3.93913 -5.13265 0
M  V30 2101 N 192.153 1.28127 0.917671 0
M  V30 2102 C 193.564 1.13622 1.48145 0
M  V30 2103 C 193.915 -0.275207 1.9426 0
M  V30 2104 O 193.04 -1.1691 1.82102 0
M  V30 2105 C 193.635 2.05648 2.69248 0
M  V30 2106 C 192.194 1.95219 3.21818 0
M  V30 2107 C 191.341 1.97618 1.94532 0
M  V30 2108 H 194.292 1.40874 0.730772 0
M  V30 2109 H 194.313 1.61818 3.44377 0
M  V30 2110 H 193.825 3.08365 2.35653 0
M  V30 2111 H 191.926 0.955244 3.60147 0
M  V30 2112 H 192.039 2.81976 3.87333 0
M  V30 2113 H 190.403 1.41973 2.11461 0
M  V30 2114 H 191.186 3.02007 1.63238 0
M  V30 2115 N 193.631 -1.12557 1.10312 0
M  V30 2116 C 194.861 -1.87592 0.865617 0
M  V30 2117 C 195.269 -1.79851 -0.587389 0
M  V30 2118 O 194.612 -1.16949 -1.41664 0
M  V30 2119 C 194.674 -3.37665 1.23381 0
M  V30 2120 C 194.338 -3.69181 2.69359 0
M  V30 2121 C 195.335 -3.67652 3.67597 0
M  V30 2122 C 193.02 -3.98555 3.05711 0
M  V30 2123 C 195.014 -3.95053 5.00212 0
M  V30 2124 C 192.701 -4.25616 4.38514 0
M  V30 2125 C 193.699 -4.23851 5.35574 0
M  V30 2126 O 193.387 -4.50242 6.65986 0
M  V30 2127 H 193.119 -0.600442 0.310557 0
M  V30 2128 H 195.673 -1.4335 1.47105 0
M  V30 2129 H 193.903 -3.82454 0.571467 0
M  V30 2130 H 195.592 -3.94041 0.973994 0
M  V30 2131 H 196.358 -3.45024 3.40857 0
M  V30 2132 H 192.237 -3.99071 2.30789 0
M  V30 2133 H 195.781 -3.93591 5.75962 0
M  V30 2134 H 191.678 -4.47718 4.64994 0
M  V30 2135 H 192.446 -4.67867 6.71597 0
M  V30 2136 N 195.109 -0.891671 -1.2995 0
M  V30 2137 C 196.039 -0.379797 -2.30391 0
M  V30 2138 C 197.02 0.540919 -1.6127 0
M  V30 2139 O 198.205 0.453352 -1.88834 0
M  V30 2140 C 195.335 0.400654 -3.44981 0
M  V30 2141 C 194.289 -0.428905 -4.25846 0
M  V30 2142 C 193.615 0.478557 -5.32554 0
M  V30 2143 C 194.915 -1.67458 -4.94727 0
M  V30 2144 H 196.609 -1.21914 -2.73454 0
M  V30 2145 H 194.155 -0.587675 -1.31462 0
M  V30 2146 H 196.108 0.769434 -4.14316 0
M  V30 2147 H 194.832 1.27371 -3.0074 0
M  V30 2148 H 193.491 -0.779911 -3.58208 0
M  V30 2149 H 193.139 1.34951 -4.84559 0
M  V30 2150 H 192.839 -0.0727433 -5.87555 0
M  V30 2151 H 194.363 0.843705 -6.04743 0
M  V30 2152 H 195.777 -1.376 -5.56542 0
M  V30 2153 H 194.174 -2.16659 -5.59624 0
M  V30 2154 H 195.244 -2.41518 -4.20473 0
M  V30 2155 N 196.587 1.43421 -0.653314 0
M  V30 2156 C 197.519 2.29071 0.0769134 0
M  V30 2157 C 198.532 1.42513 0.787017 0
M  V30 2158 O 199.721 1.66449 0.644757 0
M  V30 2159 C 196.821 3.19436 1.13199 0
M  V30 2160 C 195.994 4.34533 0.500006 0
M  V30 2161 C 195.053 5.05771 1.45198 0
M  V30 2162 O 194.079 5.61037 0.960538 0
M  V30 2163 N 195.281 5.0928 2.78594 0
M  V30 2164 H 198.046 2.92382 -0.658235 0
M  V30 2165 H 195.607 1.54112 -0.496104 0
M  V30 2166 H 197.599 3.63958 1.76964 0
M  V30 2167 H 196.169 2.57724 1.7691 0
M  V30 2168 H 195.389 3.92925 -0.316738 0
M  V30 2169 H 196.677 5.08766 0.0588345 0
M  V30 2170 H 196.075 4.65751 3.2108 0
M  V30 2171 H 194.632 5.57519 3.37662 0
M  V30 2172 N 198.065 0.39524 1.52563 0
M  V30 2173 C 199.293 -0.184943 2.06072 0
M  V30 2174 C 199.708 -1.40021 1.26647 0
M  V30 2175 O 199.065 -1.79767 0.314672 0
M  V30 2176 C 199.116 -0.549179 3.57304 0
M  V30 2177 O 198.837 0.617813 4.33722 0
M  V30 2178 C 200.338 -1.18459 4.2718 0
M  V30 2179 H 197.558 -0.0265025 0.670476 0
M  V30 2180 H 200.102 0.562184 1.96621 0
M  V30 2181 H 198.257 -1.2462 3.66809 0
M  V30 2182 H 198.671 0.317091 5.23541 0
M  V30 2183 H 200.145 -1.38976 5.34219 0
M  V30 2184 H 200.622 -2.15368 3.82771 0
M  V30 2185 H 201.228 -0.528163 4.22008 0
M  V30 2186 N 199.544 -1.57102 0.125237 0
M  V30 2187 C 200.79 -1.95697 -0.532035 0
M  V30 2188 C 201.123 -1.009 -1.6593 0
M  V30 2189 O 200.398 -0.047347 -1.94442 0
M  V30 2190 C 200.681 -3.44181 -1.05884 0
M  V30 2191 C 200.534 -4.49752 0.0654392 0
M  V30 2192 C 201.853 -3.94655 -1.9477 0
M  V30 2193 H 198.972 -0.711571 -0.191925 0
M  V30 2194 H 201.614 -1.88923 0.20206 0
M  V30 2195 H 199.764 -3.50085 -1.68442 0
M  V30 2196 H 201.436 -4.55943 0.700982 0
M  V30 2197 H 199.679 -4.27653 0.727709 0
M  V30 2198 H 200.35 -5.50924 -0.344505 0
M  V30 2199 H 202.826 -3.91094 -1.42074 0
M  V30 2200 H 201.702 -4.99057 -2.28546 0
M  V30 2201 H 201.963 -3.35718 -2.87656 0
M  V30 2202 N 201.022 0.148545 -1.56898 0
M  V30 2203 C 202.247 0.880385 -1.87787 0
M  V30 2204 C 202.672 1.74018 -0.714093 0
M  V30 2205 O 202.03 1.78153 0.336343 0
M  V30 2206 C 202.078 1.71422 -3.17249 0
M  V30 2207 O 201.182 2.8183 -3.01074 0
M  V30 2208 H 200.523 0.245301 -0.617028 0
M  V30 2209 H 203.053 0.139826 -2.04122 0
M  V30 2210 H 203.063 2.10954 -3.49231 0
M  V30 2211 H 201.738 1.08284 -4.01556 0
M  V30 2212 H 200.315 2.45715 -2.80497 0
M  V30 2213 N 202.5 1.5196 0.417844 0
M  V30 2214 C 203.746 1.65836 1.16732 0
M  V30 2215 C 204.079 0.382881 1.90388 0
M  V30 2216 O 203.354 -0.618368 1.84408 0
M  V30 2217 C 203.637 2.87466 2.16876 0
M  V30 2218 C 203.49 4.25041 1.47174 0
M  V30 2219 C 204.809 3.04613 3.17646 0
M  V30 2220 H 201.928 0.603515 0.423011 0
M  V30 2221 H 204.57 1.84494 0.454105 0
M  V30 2222 H 202.72 2.71689 2.777 0
M  V30 2223 H 204.392 4.52527 0.895376 0
M  V30 2224 H 202.635 4.26843 0.773806 0
M  V30 2225 H 203.306 5.06176 2.20204 0
M  V30 2226 H 205.782 3.1923 2.66892 0
M  V30 2227 H 204.658 3.91247 3.8499 0
M  V30 2228 H 204.919 2.17541 3.84874 0
M  V30 2229 N 203.978 -0.674533 1.42435 0
M  V30 2230 C 205.203 -1.46784 1.46524 0
M  V30 2231 C 205.628 -1.87938 0.078066 0
M  V30 2232 O 204.986 -1.56014 -0.92354 0
M  V30 2233 C 205.034 -2.69307 2.39805 0
M  V30 2234 O 204.138 -3.67587 1.86959 0
M  V30 2235 H 203.479 -0.440959 0.496439 0
M  V30 2236 H 206.009 -0.827326 1.87127 0
M  V30 2237 H 206.019 -3.17374 2.56393 0
M  V30 2238 H 204.694 -2.38692 3.40586 0
M  V30 2239 H 203.271 -3.2662 1.79927 0
M  V30 2240 N 205.456 -1.28612 -0.910864 0
M  V30 2241 C 206.702 -1.16106 -1.66274 0
M  V30 2242 C 207.035 0.289113 -1.92036 0
M  V30 2243 O 206.31 1.21 -1.52281 0
M  V30 2244 C 206.593 -1.96309 -3.01885 0
M  V30 2245 C 206.446 -3.49405 -2.8326 0
M  V30 2246 C 207.765 -1.78076 -4.02463 0
M  V30 2247 H 204.884 -0.423152 -0.603417 0
M  V30 2248 H 207.526 -1.57961 -1.05586 0
M  V30 2249 H 205.676 -1.60742 -3.53687 0
M  V30 2250 H 207.348 -3.94894 -2.38446 0
M  V30 2251 H 205.591 -3.74893 -2.18261 0
M  V30 2252 H 206.262 -4.00784 -3.79574 0
M  V30 2253 H 208.738 -2.0912 -3.59733 0
M  V30 2254 H 207.614 -2.36561 -4.95308 0
M  V30 2255 H 207.875 -0.733008 -4.35981 0
M  V30 2256 N 206.934 1.1197 -1.10907 0
M  V30 2257 C 208.159 1.87942 -0.877064 0
M  V30 2258 C 208.584 1.79341 0.567314 0
M  V30 2259 O 207.942 1.15184 1.40009 0
M  V30 2260 C 207.99 3.34926 -1.33629 0
M  V30 2261 O 207.094 4.09303 -0.504447 0
M  V30 2262 H 206.435 0.583785 -0.316371 0
M  V30 2263 H 208.965 1.4157 -1.47712 0
M  V30 2264 H 208.975 3.8577 -1.32837 0
M  V30 2265 H 207.65 3.40504 -2.3881 0
M  V30 2266 H 206.227 3.68393 -0.577993 0
M  V30 2267 N 208.412 0.89855 1.29475 0
M  V30 2268 C 209.658 0.524658 1.95896 0
M  V30 2269 C 209.991 -0.926468 1.70676 0
M  V30 2270 O 209.266 -1.65665 1.01908 0
M  V30 2271 C 209.549 0.81633 3.50725 0
M  V30 2272 C 209.402 2.31907 3.85408 0
M  V30 2273 C 210.721 0.302038 4.39062 0
M  V30 2274 H 207.84 0.19209 0.711527 0
M  V30 2275 H 210.482 1.12502 1.53112 0
M  V30 2276 H 208.632 0.305369 3.87298 0
M  V30 2277 H 210.304 2.89949 3.58786 0
M  V30 2278 H 208.547 2.78027 3.32992 0
M  V30 2279 H 209.218 2.47373 4.93468 0
M  V30 2280 H 211.694 0.739551 4.09475 0
M  V30 2281 H 210.57 0.535331 5.46283 0
M  V30 2282 H 210.831 -0.797216 4.34853 0
M  V30 2283 N 209.89 -1.43072 0.660911 0
M  V30 2284 C 210.82 -2.33497 -0.0122829 0
M  V30 2285 C 211.801 -1.49903 -0.803925 0
M  V30 2286 O 212.986 -1.78546 -0.763864 0
M  V30 2287 C 210.116 -3.33363 -0.973994 0
M  V30 2288 C 209.07 -4.27003 -0.291928 0
M  V30 2289 C 208.396 -5.16967 -1.36562 0
M  V30 2290 C 209.696 -5.15816 0.820462 0
M  V30 2291 H 211.39 -2.90038 0.742873 0
M  V30 2292 H 208.936 -1.39461 0.358688 0
M  V30 2293 H 210.889 -3.95524 -1.45392 0
M  V30 2294 H 209.613 -2.75095 -1.7604 0
M  V30 2295 H 208.272 -3.66217 0.167623 0
M  V30 2296 H 207.92 -4.55034 -2.14366 0
M  V30 2297 H 207.62 -5.80441 -0.914454 0
M  V30 2298 H 209.144 -5.82003 -1.84675 0
M  V30 2299 H 210.558 -5.71742 0.422366 0
M  V30 2300 H 208.955 -5.8805 1.19656 0
M  V30 2301 H 210.025 -4.55045 1.67518 0
M  V30 2302 N 211.368 -0.403325 -1.52352 0
M  V30 2303 C 212.596 0.174012 -2.06167 0
M  V30 2304 C 213.011 1.39347 -1.27388 0
M  V30 2305 O 212.368 1.79597 -0.324201 0
M  V30 2306 C 212.419 0.530223 -3.5759 0
M  V30 2307 O 212.14 -0.640806 -4.33388 0
M  V30 2308 C 213.641 1.16192 -4.27802 0
M  V30 2309 H 210.861 0.0229464 -0.670608 0
M  V30 2310 H 213.405 -0.572604 -1.9632 0
M  V30 2311 H 211.56 1.22673 -3.67464 0
M  V30 2312 H 211.974 -0.344851 -5.23365 0
M  V30 2313 H 213.448 1.36141 -5.34948 0
M  V30 2314 H 213.925 2.13335 -3.83907 0
M  V30 2315 H 214.531 0.505775 -4.22282 0
M  V30 2316 N 212.846 1.57033 -0.133567 0
M  V30 2317 C 213.776 2.1909 0.807567 0
M  V30 2318 C 214.757 1.13517 1.26681 0
M  V30 2319 O 215.942 1.41809 1.32679 0
M  V30 2320 C 213.072 2.80188 2.05212 0
M  V30 2321 C 212.026 3.91471 1.73015 0
M  V30 2322 C 211.352 4.39443 3.04622 0
M  V30 2323 C 212.652 5.12886 0.987168 0
M  V30 2324 H 214.346 2.97988 0.290403 0
M  V30 2325 H 211.892 1.43335 0.138239 0
M  V30 2326 H 213.845 3.22264 2.71521 0
M  V30 2327 H 212.569 1.98601 2.59278 0
M  V30 2328 H 211.228 3.49993 1.0909 0
M  V30 2329 H 210.876 3.54695 3.56651 0
M  V30 2330 H 210.576 5.14495 2.83847 0
M  V30 2331 H 212.1 4.8418 3.72024 0
M  V30 2332 H 213.514 5.51891 1.55208 0
M  V30 2333 H 211.911 5.93615 0.87985 0
M  V30 2334 H 212.981 4.84894 -0.0235286 0
M  V30 2335 N 214.325 -0.140222 1.56975 0
M  V30 2336 C 215.55 -0.870414 1.88251 0
M  V30 2337 C 215.975 -1.73637 0.723312 0
M  V30 2338 O 215.333 -1.78329 -0.32689 0
M  V30 2339 C 215.381 -1.69737 3.18154 0
M  V30 2340 O 214.485 -2.80229 3.02565 0
M  V30 2341 H 213.826 -0.242025 0.61832 0
M  V30 2342 H 216.356 -0.128999 2.04193 0
M  V30 2343 H 216.366 -2.09099 3.50345 0
M  V30 2344 H 215.041 -1.06152 4.02125 0
M  V30 2345 H 213.618 -2.44224 2.81796 0
M  V30 2346 N 215.803 -1.52179 -0.40978 0
M  V30 2347 C 217.043 -1.67882 -1.16597 0
M  V30 2348 C 217.407 -0.399795 -1.87791 0
M  V30 2349 O 218.608 -0.43292 -2.65291 0
M  V30 2350 C 216.879 -2.86662 -2.13448 0
M  V30 2351 S 218.438 -3.22843 -2.97183 0
M  V30 2352 H 215.256 -0.59118 -0.395002 0
M  V30 2353 H 217.858 -1.9017 -0.453373 0
M  V30 2354 H 216.562 -3.77998 -1.59831 0
M  V30 2355 H 216.093 -2.66645 -2.89247 0
M  V30 2356 H 218.108 -2.71415 -4.15389 0
M  V30 2357 N 217.281 0.66697 -1.42791 0
M  V30 2358 C 218.53 1.42278 -1.42968 0
M  V30 2359 C 218.843 1.9553 -0.0524489 0
M  V30 2360 O 220.049 2.71414 0.068363 0
M  V30 2361 C 218.505 2.57418 -2.51524 0
M  V30 2362 C 218.113 2.10832 -3.9529 0
M  V30 2363 C 219.857 3.34878 -2.60877 0
M  V30 2364 C 217.764 3.23101 -4.95338 0
M  V30 2365 H 216.694 0.534533 -0.531781 0
M  V30 2366 H 219.345 0.721302 -1.68729 0
M  V30 2367 H 217.727 3.29971 -2.18941 0
M  V30 2368 H 218.901 1.4538 -4.37266 0
M  V30 2369 H 217.216 1.46289 -3.89857 0
M  V30 2370 H 219.813 4.18505 -3.32802 0
M  V30 2371 H 220.156 3.81993 -1.6549 0
M  V30 2372 H 220.689 2.69398 -2.92693 0
M  V30 2373 H 217.428 2.80969 -5.9223 0
M  V30 2374 H 216.948 3.87309 -4.57987 0
M  V30 2375 H 218.627 3.88447 -5.17415 0
M  V30 2376 N 218.759 1.29093 0.90403 0
M  V30 2377 C 219.722 1.1386 1.98919 0
M  V30 2378 C 220.722 0.0753457 1.60623 0
M  V30 2379 O 221.912 0.321931 1.71199 0
M  V30 2380 C 219.044 0.740198 3.32767 0
M  V30 2381 H 220.237 2.10246 2.13861 0
M  V30 2382 H 217.79 1.12218 1.08797 0
M  V30 2383 H 218.525 -0.223997 3.23525 0
M  V30 2384 H 218.31 1.50838 3.61926 0
M  V30 2385 H 219.8 0.656546 4.12407 0
M  V30 2386 N 220.237 -1.11381 1.11499 0
M  V30 2387 C 221.167 -2.19509 0.796125 0
M  V30 2388 C 222.148 -1.68458 -0.235796 0
M  V30 2389 O 223.333 -1.93947 -0.0991344 0
M  V30 2390 C 220.463 -3.46475 0.239205 0
M  V30 2391 C 219.417 -4.10744 1.20307 0
M  V30 2392 C 218.743 -5.32293 0.50683 0
M  V30 2393 C 220.043 -4.55597 2.55399 0
M  V30 2394 H 221.737 -2.46439 1.70024 0
M  V30 2395 H 219.283 -1.18446 0.818935 0
M  V30 2396 H 221.236 -4.214 0.00392006 0
M  V30 2397 H 219.96 -3.19006 -0.700206 0
M  V30 2398 H 218.619 -3.37813 1.42399 0
M  V30 2399 H 218.267 -5.01095 -0.437408 0
M  V30 2400 H 217.967 -5.76243 1.1497 0
M  V30 2401 H 219.491 -6.09956 0.280351 0
M  V30 2402 H 220.905 -5.21841 2.37391 0
M  V30 2403 H 219.302 -5.10363 3.15673 0
M  V30 2404 H 220.372 -3.69013 3.14575 0
M  V30 2405 N 221.715 -0.905404 -1.28997 0
M  V30 2406 C 222.992 -0.453513 -1.9027 0
M  V30 2407 C 223.372 1.06721 -1.82137 0
M  V30 2408 O 222.72 1.91159 -1.25182 0
M  V30 2409 C 222.93 -0.974494 -3.35119 0
M  V30 2410 C 224.278 -1.0216 -4.12127 0
M  V30 2411 O 225.302 -0.922557 -3.44046 0
M  V30 2412 O 224.161 -1.17121 -5.33802 0
M  V30 2413 H 221.255 -0.142347 -0.814657 0
M  V30 2414 H 223.801 -0.995642 -1.37423 0
M  V30 2415 H 222.573 -2.01848 -3.35221 0
M  V30 2416 H 222.196 -0.412706 -3.95452 0
M  V30 2417 N 223.193 1.4272 -0.668489 0
M  V30 2418 C 224.609 1.55992 -0.33745 0
M  V30 2419 C 224.809 1.64933 1.15756 0
M  V30 2420 O 223.865 1.61278 1.94282 0
M  V30 2421 C 225.178 2.81314 -1.06222 0
M  V30 2422 C 226.726 2.95078 -1.04394 0
M  V30 2423 C 227.201 4.23252 -1.74991 0
M  V30 2424 N 228.692 4.3015 -1.71829 0
M  V30 2425 C 229.427 5.28127 -2.23315 0
M  V30 2426 N 228.923 6.32293 -2.83156 0
M  V30 2427 N 230.716 5.19882 -2.13726 0
M  V30 2428 H 222.867 1.3516 -1.63846 0
M  V30 2429 H 225.13 0.650174 -0.689912 0
M  V30 2430 H 224.836 2.80823 -2.11734 0
M  V30 2431 H 224.71 3.72012 -0.62344 0
M  V30 2432 H 227.097 2.951 0.0028244 0
M  V30 2433 H 227.178 2.05627 -1.52155 0
M  V30 2434 H 226.822 4.2399 -2.79633 0
M  V30 2435 H 226.752 5.11626 -1.24685 0
M  V30 2436 H 229.243 3.55499 -1.28175 0
M  V30 2437 H 229.556 7.03398 -3.20079 0
M  V30 2438 H 227.901 6.32873 -2.87223 0
M  V30 2439 H 231.092 4.37423 -1.66669 0
M  V30 2440 H 231.265 5.96077 -2.54158 0
M  V30 2441 N 224.671 0.411399 1.52136 0
M  V30 2442 C 225.917 -0.156262 2.02799 0
M  V30 2443 C 226.272 -1.42613 1.29149 0
M  V30 2444 O 225.565 -1.87592 0.389839 0
M  V30 2445 C 225.759 -0.455872 3.54481 0
M  V30 2446 C 225.588 0.783404 4.42824 0
M  V30 2447 C 224.358 1.30928 4.88043 0
M  V30 2448 C 226.556 1.66217 4.86699 0
M  V30 2449 N 224.538 2.5038 5.6052 0
M  V30 2450 C 225.909 2.70292 5.5798 0
M  V30 2451 C 227.964 1.67966 4.68713 0
M  V30 2452 C 226.667 3.7603 6.13184 0
M  V30 2453 C 228.693 2.72624 5.24815 0
M  V30 2454 C 228.055 3.7542 5.9602 0
M  V30 2455 H 224.154 -0.0186886 0.781777 0
M  V30 2456 H 226.738 0.566255 1.86284 0
M  V30 2457 H 224.909 -1.14743 3.71064 0
M  V30 2458 H 226.641 -1.01261 3.91827 0
M  V30 2459 H 223.396 0.866977 4.65597 0
M  V30 2460 H 223.82 3.10881 6.014 0
M  V30 2461 H 228.462 0.898312 4.13147 0
M  V30 2462 H 226.18 4.55019 6.6782 0
M  V30 2463 H 229.766 2.74887 5.12765 0
M  V30 2464 H 228.646 4.55073 6.38654 0
M  V30 2465 N 226.149 -1.5696 0.141893 0
M  V30 2466 C 227.379 -2.00031 -0.516828 0
M  V30 2467 C 227.787 -1.02091 -1.59293 0
M  V30 2468 O 227.13 -0.00909657 -1.83698 0
M  V30 2469 C 227.192 -3.39534 -1.1814 0
M  V30 2470 C 226.856 -4.56313 -0.250513 0
M  V30 2471 C 227.853 -5.17295 0.519839 0
M  V30 2472 C 225.538 -5.02061 -0.154907 0
M  V30 2473 C 227.532 -6.2243 1.3733 0
M  V30 2474 C 225.219 -6.07053 0.702161 0
M  V30 2475 C 226.217 -6.67106 1.46487 0
M  V30 2476 O 225.905 -7.70066 2.30767 0
M  V30 2477 H 225.637 -0.661451 -0.139493 0
M  V30 2478 H 228.191 -2.04086 0.231926 0
M  V30 2479 H 226.421 -3.32302 -1.97769 0
M  V30 2480 H 228.11 -3.66745 -1.73933 0
M  V30 2481 H 228.876 -4.82852 0.45598 0
M  V30 2482 H 224.755 -4.5505 -0.7383 0
M  V30 2483 H 228.299 -6.69233 1.96909 0
M  V30 2484 H 224.196 -6.40923 0.76733 0
M  V30 2485 H 224.964 -7.87264 2.23959 0
M  V30 2486 N 227.627 0.131896 -1.57047 0
M  V30 2487 C 228.59 1.14638 -1.98471 0
M  V30 2488 C 229.59 1.35029 -0.873148 0
M  V30 2489 O 230.78 1.31764 -1.13946 0
M  V30 2490 C 227.912 2.50358 -2.31373 0
M  V30 2491 H 229.105 0.79064 -2.8929 0
M  V30 2492 H 226.658 0.375761 -1.51716 0
M  V30 2493 H 227.393 2.90876 -1.43393 0
M  V30 2494 H 227.178 2.36915 -3.12432 0
M  V30 2495 H 228.668 3.23395 -2.64207 0
M  V30 2496 N 229.106 1.52395 0.401703 0
M  V30 2497 C 230.355 1.66044 1.14509 0
M  V30 2498 C 230.668 0.400216 1.91462 0
M  V30 2499 O 231.874 0.416632 2.68284 0
M  V30 2500 C 230.33 2.93388 2.0845 0
M  V30 2501 C 229.938 4.26545 1.36978 0
M  V30 2502 C 231.682 3.16402 2.83001 0
M  V30 2503 C 229.589 5.45007 2.29611 0
M  V30 2504 H 228.519 0.618562 0.431158 0
M  V30 2505 H 231.17 1.78886 0.40892 0
M  V30 2506 H 229.552 2.74263 2.8565 0
M  V30 2507 H 230.726 4.56179 0.650916 0
M  V30 2508 H 229.041 4.09692 0.74438 0
M  V30 2509 H 231.638 4.02085 3.52465 0
M  V30 2510 H 231.981 2.30943 3.46368 0
M  V30 2511 H 232.514 3.36034 2.12898 0
M  V30 2512 H 229.253 6.32835 1.70879 0
M  V30 2513 H 228.773 5.19702 2.9945 0
M  V30 2514 H 230.452 5.7838 2.89974 0
M  V30 2515 N 230.584 -0.659388 1.43143 0
M  V30 2516 C 231.824 -1.43121 1.45931 0
M  V30 2517 C 232.188 -1.91838 0.0789298 0
M  V30 2518 O 233.389 -2.68794 -0.018491 0
M  V30 2519 C 231.66 -2.58534 2.46769 0
M  V30 2520 S 233.219 -3.47154 2.68384 0
M  V30 2521 H 230.037 -0.488624 0.516496 0
M  V30 2522 H 232.639 -0.766128 1.79863 0
M  V30 2523 H 231.343 -2.21007 3.45809 0
M  V30 2524 H 230.874 -3.29898 2.14315 0
M  V30 2525 H 232.889 -4.55051 1.97845 0
M  V30 2526 N 232.062 -1.29571 -0.897171 0
M  V30 2527 C 233.012 -1.11539 -1.98855 0
M  V30 2528 C 233.996 -0.0340716 -1.60864 0
M  V30 2529 O 235.188 -0.256062 -1.75138 0
M  V30 2530 C 232.317 -0.796603 -3.3393 0
M  V30 2531 C 231.403 -1.91758 -3.78272 0
M  V30 2532 N 231.794 -3.16143 -3.94826 0
M  V30 2533 C 230.092 -1.81119 -4.07568 0
M  V30 2534 C 230.793 -3.89293 -4.32233 0
M  V30 2535 N 229.769 -3.17255 -4.41419 0
M  V30 2536 H 233.571 -2.05894 -2.09726 0
M  V30 2537 H 231.085 -1.20732 -1.08616 0
M  V30 2538 H 233.082 -0.648459 -4.11826 0
M  V30 2539 H 231.742 0.139003 -3.24402 0
M  V30 2540 H 232.753 -3.5157 -3.80288 0
M  V30 2541 H 229.43 -0.948461 -4.06584 0
M  V30 2542 H 230.82 -4.9635 -4.52865 0
M  V30 2543 N 233.54 1.10788 -1.12088 0
M  V30 2544 C 234.951 1.64181 -0.88891 0
M  V30 2545 C 235.302 1.87508 0.577498 0
M  V30 2546 O 234.427 1.61434 1.44112 0
M  V30 2547 C 235.022 2.98257 -1.60712 0
M  V30 2548 C 233.581 3.4853 -1.42139 0
M  V30 2549 C 232.728 2.23208 -1.6454 0
M  V30 2550 H 235.679 0.943368 -1.27618 0
M  V30 2551 H 235.7 3.65552 -1.05604 0
M  V30 2552 H 235.212 2.81246 -2.67436 0
M  V30 2553 H 233.313 3.70692 -0.376552 0
M  V30 2554 H 233.426 4.26882 -2.17505 0
M  V30 2555 H 231.79 2.31169 -1.06925 0
M  V30 2556 H 232.573 2.08733 -2.72554 0
M  V30 2557 N 235.018 0.912232 1.28515 0
M  V30 2558 C 235.948 0.416403 2.29757 0
M  V30 2559 C 236.929 -0.515194 1.6211 0
M  V30 2560 O 238.114 -0.423253 1.89532 0
M  V30 2561 C 235.244 -0.34572 3.45575 0
M  V30 2562 C 234.198 0.496599 4.25109 0
M  V30 2563 C 233.524 -0.393771 5.33248 0
M  V30 2564 C 234.824 1.75307 4.92001 0
M  V30 2565 H 236.518 1.26249 2.7148 0
M  V30 2566 H 234.064 0.608515 1.30511 0
M  V30 2567 H 236.017 -0.703422 4.15488 0
M  V30 2568 H 234.741 -1.2257 3.02728 0
M  V30 2569 H 233.4 0.8368 3.56922 0
M  V30 2570 H 233.048 -1.27225 4.86644 0
M  V30 2571 H 232.748 0.166209 5.87365 0
M  V30 2572 H 234.272 -0.747389 6.06009 0
M  V30 2573 H 235.686 1.46437 5.54283 0
M  V30 2574 H 234.083 2.25534 5.56106 0
M  V30 2575 H 235.153 2.48176 4.16577 0
M  V30 2576 N 236.496 -1.42363 0.676048 0
M  V30 2577 C 237.429 -2.28141 -0.0516916 0
M  V30 2578 C 238.407 -1.41135 -0.807439 0
M  V30 2579 O 239.591 -1.70573 -0.802305 0
M  V30 2580 C 236.718 -3.21007 -1.08039 0
M  V30 2581 C 235.764 -4.24426 -0.420076 0
M  V30 2582 S 236.597 -5.29134 0.823246 0
M  V30 2583 C 237.753 -6.25566 -0.204344 0
M  V30 2584 H 237.986 -2.89515 0.675884 0
M  V30 2585 H 235.519 -1.47211 0.465635 0
M  V30 2586 H 237.477 -3.75048 -1.66881 0
M  V30 2587 H 236.138 -2.58766 -1.78042 0
M  V30 2588 H 235.331 -4.89596 -1.19633 0
M  V30 2589 H 234.933 -3.7388 0.0947845 0
M  V30 2590 H 237.225 -6.69098 -1.06369 0
M  V30 2591 H 238.168 -7.06895 0.412915 0
M  V30 2592 H 238.576 -5.61811 -0.55038 0
M  V30 2593 N 237.974 -0.419461 -1.51915 0
M  V30 2594 C 239.221 0.152939 -2.01922 0
M  V30 2595 C 239.549 1.4426 -1.30458 0
M  V30 2596 O 238.804 1.91514 -0.402593 0
M  V30 2597 C 239.103 0.437067 -3.54717 0
M  V30 2598 C 238.769 -0.764632 -4.44369 0
M  V30 2599 C 237.431 -1.09423 -4.68594 0
M  V30 2600 C 239.783 -1.56713 -4.97082 0
M  V30 2601 C 237.111 -2.22732 -5.42777 0
M  V30 2602 C 239.463 -2.69107 -5.72507 0
M  V30 2603 C 238.127 -3.02541 -5.95 0
M  V30 2604 H 237.397 0.0559644 -0.738884 0
M  V30 2605 H 240.044 -0.562998 -1.83037 0
M  V30 2606 H 238.349 1.23469 -3.71837 0
M  V30 2607 H 240.046 0.893083 -3.90928 0
M  V30 2608 H 236.636 -0.497775 -4.257 0
M  V30 2609 H 240.82 -1.32571 -4.78266 0
M  V30 2610 H 236.076 -2.48971 -5.58411 0
M  V30 2611 H 240.25 -3.31671 -6.12346 0
M  V30 2612 H 237.877 -3.90457 -6.52264 0
M  V30 2613 N 239.452 1.56882 -0.150215 0
M  V30 2614 C 240.399 2.16922 0.788244 0
M  V30 2615 C 241.369 1.10303 1.24187 0
M  V30 2616 O 242.554 1.38359 1.31383 0
M  V30 2617 C 239.694 2.79754 2.02068 0
M  V30 2618 C 238.807 4.00775 1.61257 0
M  V30 2619 C 237.942 4.51595 2.79705 0
M  V30 2620 C 236.981 5.65074 2.35282 0
M  V30 2621 N 236.118 6.10499 3.4675 0
M  V30 2622 H 240.958 2.96779 0.269444 0
M  V30 2623 H 238.495 1.46599 0.12128 0
M  V30 2624 H 240.453 3.14329 2.74323 0
M  V30 2625 H 239.083 2.02536 2.51354 0
M  V30 2626 H 238.135 3.72158 0.787553 0
M  V30 2627 H 239.447 4.82978 1.24633 0
M  V30 2628 H 238.601 4.88242 3.60145 0
M  V30 2629 H 237.34 3.68406 3.19576 0
M  V30 2630 H 236.345 5.28 1.53283 0
M  V30 2631 H 237.57 6.50052 1.96493 0
M  V30 2632 H 235.516 5.30243 3.86236 0
M  V30 2633 H 235.433 6.87637 3.14152 0
M  V30 2634 H 236.701 6.51791 4.27537 0
M  V30 2635 N 240.93 -0.123565 1.57115 0
M  V30 2636 C 242.155 -0.850398 1.89164 0
M  V30 2637 C 242.58 -1.7286 0.741688 0
M  V30 2638 O 241.938 -1.78665 -0.307958 0
M  V30 2639 C 241.986 -1.66353 3.19936 0
M  V30 2640 O 241.09 -2.77004 3.0552 0
M  V30 2641 H 240.431 -0.235454 0.620852 0
M  V30 2642 H 242.961 -0.107335 2.04318 0
M  V30 2643 H 242.971 -2.05372 3.52543 0
M  V30 2644 H 241.646 -1.01881 4.03228 0
M  V30 2645 H 240.223 -2.41221 2.84371 0
M  V30 2646 N 242.408 -1.52605 -0.393616 0
M  V30 2647 C 243.636 -1.71294 -1.16043 0
M  V30 2648 C 244.051 -0.429259 -1.83855 0
M  V30 2649 O 243.408 0.595921 -1.72496 0
M  V30 2650 C 243.459 -2.8593 -2.21193 0
M  V30 2651 O 243.18 -4.09329 -1.56146 0
M  V30 2652 C 244.681 -3.16259 -3.10636 0
M  V30 2653 H 241.901 -0.573641 -0.348104 0
M  V30 2654 H 244.445 -1.99234 -0.461092 0
M  V30 2655 H 242.6 -2.60465 -2.86769 0
M  V30 2656 H 243.014 -4.73323 -2.25978 0
M  V30 2657 H 244.488 -3.99946 -3.80456 0
M  V30 2658 H 244.965 -2.3045 -3.73884 0
M  V30 2659 H 245.571 -3.43547 -2.50711 0
M  V30 2660 N 243.887 0.651787 -1.4349 0
M  V30 2661 C 244.85 1.74647 -1.48429 0
M  V30 2662 C 245.85 1.56513 -0.368817 0
M  V30 2663 O 247.04 1.62385 -0.630623 0
M  V30 2664 C 244.172 3.13533 -1.33827 0
M  V30 2665 H 245.365 1.71649 -2.4592 0
M  V30 2666 H 242.918 0.863573 -1.30277 0
M  V30 2667 H 243.653 3.22142 -0.37349 0
M  V30 2668 H 243.438 3.28101 -2.14691 0
M  V30 2669 H 244.928 3.93356 -1.40218 0
M  V30 2670 N 245.365 1.30045 0.890287 0
M  V30 2671 C 246.312 1.15976 1.99545 0
M  V30 2672 C 247.282 0.0506202 1.66023 0
M  V30 2673 O 248.467 0.219847 1.89529 0
M  V30 2674 C 245.607 0.852054 3.34416 0
M  V30 2675 C 244.72 2.04255 3.80662 0
M  V30 2676 C 243.855 1.6734 5.04154 0
M  V30 2677 C 242.894 2.82916 5.42794 0
M  V30 2678 N 242.031 2.46333 6.57468 0
M  V30 2679 H 246.871 2.10524 2.10911 0
M  V30 2680 H 244.408 1.04749 1.03276 0
M  V30 2681 H 246.366 0.654296 4.12037 0
M  V30 2682 H 244.996 -0.0565502 3.2275 0
M  V30 2683 H 244.048 2.35172 2.98995 0
M  V30 2684 H 245.36 2.90826 4.05242 0
M  V30 2685 H 244.514 1.43908 5.89386 0
M  V30 2686 H 243.253 0.779308 4.81433 0
M  V30 2687 H 242.258 3.0702 4.56091 0
M  V30 2688 H 243.483 3.73004 5.6749 0
M  V30 2689 H 241.429 1.59423 6.36334 0
M  V30 2690 H 241.346 3.26436 6.81891 0
M  V30 2691 H 242.614 2.26244 7.45945 0
M  V30 2692 N 246.843 -1.10192 1.12674 0
M  V30 2693 C 248.259 -1.34235 0.863317 0
M  V30 2694 C 248.459 -1.95062 -0.505277 0
M  V30 2695 O 247.515 -2.19192 -1.25345 0
M  V30 2696 C 248.828 -2.2616 1.98172 0
M  V30 2697 C 250.376 -2.3969 2.0129 0
M  V30 2698 C 250.851 -3.34946 3.1237 0
M  V30 2699 N 252.342 -3.42515 3.11829 0
M  V30 2700 C 253.077 -4.16199 3.94419 0
M  V30 2701 N 252.573 -4.92747 4.87004 0
M  V30 2702 N 254.366 -4.11843 3.82547 0
M  V30 2703 H 246.517 -0.690798 2.00853 0
M  V30 2704 H 248.78 -0.366774 0.874174 0
M  V30 2705 H 248.486 -1.8868 2.96804 0
M  V30 2706 H 248.36 -3.26488 1.88906 0
M  V30 2707 H 250.747 -2.76438 1.03276 0
M  V30 2708 H 250.828 -1.39169 2.14629 0
M  V30 2709 H 250.472 -2.98923 4.10619 0
M  V30 2710 H 250.402 -4.35353 2.96269 0
M  V30 2711 H 252.893 -2.87926 2.44759 0
M  V30 2712 H 253.206 -5.46376 5.46528 0
M  V30 2713 H 251.551 -4.91862 4.91016 0
M  V30 2714 H 254.742 -3.51136 3.0955 0
M  V30 2715 H 254.915 -4.69007 4.47142 0
M  V30 2716 N 248.321 -0.919034 -1.28029 0
M  V30 2717 C 249.284 -0.416182 -2.2539 0
M  V30 2718 C 250.284 0.460438 -1.54067 0
M  V30 2719 O 251.474 0.262744 -1.72207 0
M  V30 2720 C 248.606 0.402707 -3.38513 0
M  V30 2721 H 249.799 -1.27629 -2.71387 0
M  V30 2722 H 247.352 -0.698919 -1.39803 0
M  V30 2723 H 248.087 1.282 -2.97885 0
M  V30 2724 H 247.872 -0.225698 -3.9145 0
M  V30 2725 H 249.362 0.745191 -4.10897 0
M  V30 2726 N 249.799 1.42003 -0.683588 0
M  V30 2727 C 251.215 1.55625 -0.353976 0
M  V30 2728 C 251.415 1.66151 1.14 0
M  V30 2729 O 250.471 1.63329 1.92561 0
M  V30 2730 C 251.784 2.80171 -1.092 0
M  V30 2731 C 253.332 2.93954 -1.07518 0
M  V30 2732 C 253.807 4.21372 -1.79471 0
M  V30 2733 N 255.298 4.28303 -1.76381 0
M  V30 2734 C 256.033 5.25729 -2.28904 0
M  V30 2735 N 255.529 6.29254 -2.89846 0
M  V30 2736 N 257.322 5.17586 -2.19228 0
M  V30 2737 H 249.473 1.33415 -1.6527 0
M  V30 2738 H 251.736 0.64282 -0.696769 0
M  V30 2739 H 251.442 2.78561 -2.14701 0
M  V30 2740 H 251.316 3.7133 -0.662862 0
M  V30 2741 H 253.703 2.95086 -0.028475 0
M  V30 2742 H 253.784 2.04002 -1.54328 0
M  V30 2743 H 253.428 4.21001 -2.84114 0
M  V30 2744 H 253.358 5.10275 -1.30104 0
M  V30 2745 H 255.849 3.54119 -1.31939 0
M  V30 2746 H 256.162 6.99964 -3.27522 0
M  V30 2747 H 254.507 6.29791 -2.93919 0
M  V30 2748 H 257.698 4.35631 -1.71299 0
M  V30 2749 H 257.871 5.93348 -2.60466 0
M  V30 2750 N 251.277 0.427512 1.51691 0
M  V30 2751 C 252.225 -0.403359 2.29076 0
M  V30 2752 C 253.219 -1.02962 1.34518 0
M  V30 2753 O 254.425 -0.965715 1.51901 0
M  V30 2754 H 250.8 -0.148879 0.737115 0
M  V30 2755 H 252.771 0.270295 2.97173 0
M  V30 2756 C 251.52 -1.49763 3.13794 0
M  V30 2757 H 250.843 -1.02508 3.86435 0
M  V30 2758 H 252.283 -2.05244 3.71014 0
M  V30 2759 C 250.742 -2.47536 2.28533 0
M  V30 2760 O 251.272 -3.51848 1.93819 0
M  V30 2761 N 249.478 -2.18187 1.91945 0
M  V30 2762 H 249.025 -1.33389 2.20375 0
M  V30 2763 H 248.983 -2.83848 1.35195 0
M  V30 2764 N 252.755 -1.56801 0.158532 0
M  V30 2765 C 253.98 -2.01295 -0.499516 0
M  V30 2766 C 254.405 -1.03799 -1.56867 0
M  V30 2767 O 253.763 -0.0155162 -1.81293 0
M  V30 2768 C 253.811 -3.44469 -1.06647 0
M  V30 2769 O 252.915 -3.50012 -2.18095 0
M  V30 2770 H 252.256 -0.652884 -0.12099 0
M  V30 2771 H 254.786 -2.02958 0.258661 0
M  V30 2772 H 254.796 -3.8351 -1.39227 0
M  V30 2773 H 253.471 -4.14932 -0.283581 0
M  V30 2774 H 252.048 -3.22822 -1.86656 0
M  V30 2775 N 254.233 0.115231 -1.57178 0
M  V30 2776 C 255.482 0.820945 -1.84237 0
M  V30 2777 C 255.795 1.80866 -0.744761 0
M  V30 2778 O 257.001 2.56083 -0.901871 0
M  V30 2779 C 255.457 1.51072 -3.26658 0
M  V30 2780 C 255.065 0.563795 -4.44438 0
M  V30 2781 C 256.809 2.20134 -3.62962 0
M  V30 2782 C 254.716 1.25701 -5.77887 0
M  V30 2783 H 253.646 0.310328 -0.687177 0
M  V30 2784 H 256.297 0.0737134 -1.83352 0
M  V30 2785 H 254.679 2.30471 -3.22024 0
M  V30 2786 H 255.853 -0.197247 -4.60378 0
M  V30 2787 H 254.168 -0.0200638 -4.16395 0
M  V30 2788 H 256.765 2.72696 -4.59936 0
M  V30 2789 H 257.108 2.98107 -2.90582 0
M  V30 2790 H 257.641 1.47619 -3.69396 0
M  V30 2791 H 254.38 0.518493 -6.53446 0
M  V30 2792 H 253.9 1.98997 -5.65827 0
M  V30 2793 H 255.579 1.78915 -6.2177 0
M  V30 2794 N 255.711 1.52812 0.385517 0
M  V30 2795 C 256.957 1.68275 1.13188 0
M  V30 2796 C 257.29 0.423179 1.89533 0
M  V30 2797 O 256.565 -0.579113 1.85679 0
M  V30 2798 C 256.848 2.92001 2.1073 0
M  V30 2799 C 256.701 4.28067 1.38125 0
M  V30 2800 C 258.02 3.11283 3.11113 0
M  V30 2801 H 255.139 0.612352 0.410115 0
M  V30 2802 H 257.781 1.85415 0.414869 0
M  V30 2803 H 255.931 2.77519 2.71874 0
M  V30 2804 H 257.603 4.54324 0.799187 0
M  V30 2805 H 255.846 4.28388 0.683092 0
M  V30 2806 H 256.517 5.10733 2.09417 0
M  V30 2807 H 258.993 3.2482 2.6006 0
M  V30 2808 H 257.869 3.99325 3.76605 0
M  V30 2809 H 258.13 2.25656 3.80173 0
M  V30 2810 N 257.189 -0.644168 1.43834 0
M  V30 2811 C 258.438 -1.39985 1.45214 0
M  V30 2812 C 258.751 -1.95421 0.0835494 0
M  V30 2813 O 259.957 -2.71488 -0.0251748 0
M  V30 2814 C 258.413 -2.53384 2.55587 0
M  V30 2815 C 258.021 -2.04517 3.98594 0
M  V30 2816 C 259.765 -3.30685 2.66172 0
M  V30 2817 C 257.672 -3.1518 5.00416 0
M  V30 2818 H 256.602 -0.526005 0.540218 0
M  V30 2819 H 259.253 -0.694367 1.69855 0
M  V30 2820 H 257.635 -3.26446 2.24163 0
M  V30 2821 H 258.809 -1.38405 4.39523 0
M  V30 2822 H 257.124 -1.40068 3.92135 0
M  V30 2823 H 259.721 -4.13158 3.39418 0
M  V30 2824 H 260.064 -3.79312 1.71546 0
M  V30 2825 H 260.597 -2.64708 2.96942 0
M  V30 2826 H 257.336 -2.71511 5.96625 0
M  V30 2827 H 256.856 -3.79974 4.64091 0
M  V30 2828 H 258.535 -3.80166 5.23529 0
M  V30 2829 N 258.668 -1.30515 -0.883378 0
M  V30 2830 C 259.917 -1.18795 -1.63005 0
M  V30 2831 C 260.23 0.255923 -1.93919 0
M  V30 2832 O 261.436 0.494654 -2.66956 0
M  V30 2833 C 259.892 -2.07878 -2.93794 0
M  V30 2834 C 259.5 -3.57184 -2.70414 0
M  V30 2835 C 261.244 -2.04924 -3.71761 0
M  V30 2836 C 259.151 -4.38317 -3.97029 0
M  V30 2837 H 258.081 -0.441031 -0.611562 0
M  V30 2838 H 260.732 -1.55275 -0.977854 0
M  V30 2839 H 259.114 -1.64283 -3.60315 0
M  V30 2840 H 260.288 -4.08937 -2.12384 0
M  V30 2841 H 258.603 -3.61976 -2.0582 0
M  V30 2842 H 261.2 -2.62792 -4.65665 0
M  V30 2843 H 261.543 -1.0331 -4.03277 0
M  V30 2844 H 262.076 -2.46649 -3.12104 0
M  V30 2845 H 258.815 -5.40632 -3.70671 0
M  V30 2846 H 258.335 -3.91326 -4.54559 0
M  V30 2847 H 260.014 -4.49834 -4.65036 0
M  V30 2848 N 260.146 1.09593 -1.13257 0
M  V30 2849 C 261.392 1.82181 -0.904521 0
M  V30 2850 C 261.747 1.83967 0.563358 0
M  V30 2851 O 261.04 1.29566 1.41149 0
M  V30 2852 C 261.234 3.27802 -1.42411 0
M  V30 2853 C 261.063 3.40201 -2.94097 0
M  V30 2854 C 259.833 3.52104 -3.62424 0
M  V30 2855 C 262.031 3.32875 -3.92044 0
M  V30 2856 N 260.013 3.53169 -5.0214 0
M  V30 2857 C 261.384 3.40789 -5.17941 0
M  V30 2858 C 263.439 3.16531 -3.84334 0
M  V30 2859 C 262.142 3.34042 -6.37031 0
M  V30 2860 C 264.168 3.11109 -5.02956 0
M  V30 2861 C 263.53 3.19614 -6.27715 0
M  V30 2862 H 259.629 0.681015 -0.384373 0
M  V30 2863 H 262.213 1.3099 -1.44048 0
M  V30 2864 H 260.384 3.77466 -0.915086 0
M  V30 2865 H 262.116 3.88393 -1.13722 0
M  V30 2866 H 258.871 3.5548 -3.12939 0
M  V30 2867 H 259.295 3.57291 -5.75041 0
M  V30 2868 H 263.937 3.08827 -2.88766 0
M  V30 2869 H 261.655 3.4051 -7.32857 0
M  V30 2870 H 265.241 2.99601 -4.98729 0
M  V30 2871 H 264.121 3.15432 -7.17964 0
M  V30 2872 N 261.624 0.925811 1.2754 0
M  V30 2873 C 262.873 0.561084 1.93739 0
M  V30 2874 C 263.186 -0.901685 1.73577 0
M  V30 2875 O 264.392 -1.37511 2.34101 0
M  V30 2876 C 262.848 0.952668 3.47062 0
M  V30 2877 C 262.456 2.43599 3.75983 0
M  V30 2878 C 264.2 0.659103 4.19352 0
M  V30 2879 C 262.107 2.76707 5.22673 0
M  V30 2880 H 261.037 0.206122 0.725279 0
M  V30 2881 H 263.688 1.12637 1.44863 0
M  V30 2882 H 262.07 0.316053 3.94737 0
M  V30 2883 H 263.244 3.12035 3.39073 0
M  V30 2884 H 261.559 2.70125 3.16893 0
M  V30 2885 H 264.156 0.882985 5.27359 0
M  V30 2886 H 264.499 -0.403607 4.14339 0
M  V30 2887 H 265.032 1.25473 3.77494 0
M  V30 2888 H 261.771 3.8188 5.32774 0
M  V30 2889 H 261.291 2.12919 5.60737 0
M  V30 2890 H 262.97 2.6435 5.90532 0
M  V30 2891 N 263.102 -1.41638 0.69111 0
M  V30 2892 C 264.348 -2.01598 0.220519 0
M  V30 2893 C 264.681 -1.54594 -1.17535 0
M  V30 2894 O 263.956 -0.755177 -1.79241 0
M  V30 2895 C 264.239 -3.59062 0.273243 0
M  V30 2896 C 264.092 -4.16203 1.70573 0
M  V30 2897 C 265.411 -4.38546 -0.369457 0
M  V30 2898 H 262.53 -0.732468 0.0816045 0
M  V30 2899 H 265.172 -1.68445 0.878986 0
M  V30 2900 H 263.322 -3.87435 -0.287411 0
M  V30 2901 H 264.994 -3.98722 2.31989 0
M  V30 2902 H 263.237 -3.71414 2.2413 0
M  V30 2903 H 263.908 -5.25358 1.69419 0
M  V30 2904 H 266.384 -4.1596 0.107977 0
M  V30 2905 H 265.26 -5.48069 -0.302002 0
M  V30 2906 H 265.521 -4.17662 -1.44951 0
M  V30 2907 N 264.58 -0.43555 -1.51462 0
M  V30 2908 C 265.805 0.132627 -2.06976 0
M  V30 2909 C 266.23 1.35848 -1.30104 0
M  V30 2910 O 265.588 1.78112 -0.338493 0
M  V30 2911 C 265.636 0.43523 -3.57964 0
M  V30 2912 O 264.74 1.52198 -3.83288 0
M  V30 2913 H 264.081 0.00265 -0.663995 0
M  V30 2914 H 266.611 -0.616369 -1.95095 0
M  V30 2915 H 266.621 0.686206 -4.02188 0
M  V30 2916 H 265.296 -0.460739 -4.1334 0
M  V30 2917 H 263.873 1.2611 -3.50928 0
M  V30 2918 N 266.058 1.56714 -0.166846 0
M  V30 2919 C 267.298 1.98641 0.481763 0
M  V30 2920 C 267.662 1.05038 1.6072 0
M  V30 2921 O 268.863 1.36087 2.31805 0
M  V30 2922 C 267.134 3.44362 0.956517 0
M  V30 2923 S 268.693 4.08317 1.60694 0
M  V30 2924 H 265.511 0.693873 0.155116 0
M  V30 2925 H 268.113 1.93719 -0.263251 0
M  V30 2926 H 266.817 4.10204 0.126936 0
M  V30 2927 H 266.348 3.53041 1.73568 0
M  V30 2928 H 268.363 4.02999 2.89494 0
M  V30 2929 N 267.536 -0.106894 1.57237 0
M  V30 2930 C 268.785 -0.811163 1.8467 0
M  V30 2931 C 269.098 -1.80469 0.754342 0
M  V30 2932 O 270.304 -2.55601 0.915439 0
M  V30 2933 C 268.76 -1.49337 3.27454 0
M  V30 2934 C 268.368 -0.540217 4.44731 0
M  V30 2935 C 270.112 -2.18206 3.64124 0
M  V30 2936 C 268.019 -1.22634 5.78545 0
M  V30 2937 H 266.949 -0.306679 0.688813 0
M  V30 2938 H 269.6 -0.0639887 1.83388 0
M  V30 2939 H 267.982 -2.2876 3.23241 0
M  V30 2940 H 269.156 0.221659 4.60267 0
M  V30 2941 H 267.471 0.042146 4.16379 0
M  V30 2942 H 270.068 -2.70253 4.61376 0
M  V30 2943 H 270.411 -2.96562 2.92158 0
M  V30 2944 H 270.944 -1.45658 3.70174 0
M  V30 2945 H 267.683 -0.483832 6.53712 0
M  V30 2946 H 267.203 -1.95993 5.66874 0
M  V30 2947 H 268.882 -1.75615 6.2271 0
M  V30 2948 N 269.014 -1.53014 -0.377408 0
M  V30 2949 C 270.263 -1.67845 -1.11853 0
M  V30 2950 C 270.576 -0.430625 -1.90801 0
M  V30 2951 O 271.782 -0.459261 -2.67587 0
M  V30 2952 C 270.238 -2.96668 -2.03756 0
M  V30 2953 C 269.846 -4.28671 -1.30175 0
M  V30 2954 C 271.59 -3.20865 -2.77932 0
M  V30 2955 C 269.497 -5.48591 -2.20911 0
M  V30 2956 H 268.427 -0.625343 -0.421263 0
M  V30 2957 H 271.078 -1.79514 -0.380409 0
M  V30 2958 H 269.46 -2.78773 -2.8125 0
M  V30 2959 H 270.634 -4.57157 -0.578259 0
M  V30 2960 H 268.949 -4.10825 -0.679108 0
M  V30 2961 H 271.546 -4.07642 -3.46024 0
M  V30 2962 H 271.889 -2.36424 -3.4265 0
M  V30 2963 H 272.422 -3.39379 -2.07525 0
M  V30 2964 H 269.161 -6.35474 -1.6079 0
M  V30 2965 H 268.681 -5.244 -2.91144 0
M  V30 2966 H 270.36 -5.8292 -2.80736 0
M  V30 2967 N 270.492 0.636531 -1.44174 0
M  V30 2968 C 271.425 1.76139 -1.45087 0
M  V30 2969 C 272.403 1.59611 -0.310326 0
M  V30 2970 O 273.587 1.81568 -0.506477 0
M  V30 2971 C 270.714 3.13648 -1.27839 0
M  V30 2972 C 269.76 3.48838 -2.45386 0
M  V30 2973 S 270.593 3.46927 -4.07924 0
M  V30 2974 C 271.749 4.87064 -3.9309 0
M  V30 2975 H 271.982 1.75096 -2.40268 0
M  V30 2976 H 269.515 0.810666 -1.31406 0
M  V30 2977 H 271.473 3.93002 -1.18575 0
M  V30 2978 H 270.134 3.12235 -0.341787 0
M  V30 2979 H 269.327 4.48886 -2.29167 0
M  V30 2980 H 268.929 2.76935 -2.51362 0
M  V30 2981 H 271.221 5.76153 -3.56446 0
M  V30 2982 H 272.164 5.08337 -4.92949 0
M  V30 2983 H 272.572 4.61384 -3.25246 0
M  V30 2984 N 271.97 1.30982 0.876444 0
M  V30 2985 C 273.219 1.19658 1.62373 0
M  V30 2986 C 273.532 -0.245636 1.94052 0
M  V30 2987 O 274.738 -0.48049 2.67214 0
M  V30 2988 C 273.194 2.09433 2.92687 0
M  V30 2989 C 272.802 3.58613 2.68516 0
M  V30 2990 C 274.546 2.06893 3.70669 0
M  V30 2991 C 272.453 4.40416 3.94699 0
M  V30 2992 H 271.383 0.444268 0.609214 0
M  V30 2993 H 274.034 1.55791 0.969605 0
M  V30 2994 H 272.416 1.66191 3.59439 0
M  V30 2995 H 273.59 4.10058 2.10212 0
M  V30 2996 H 271.905 3.63063 2.03898 0
M  V30 2997 H 274.502 2.65258 4.64265 0
M  V30 2998 H 274.845 1.05448 4.02724 0
M  V30 2999 H 275.378 2.48301 3.10792 0
M  V30 3000 H 272.117 5.42591 3.67798 0
M  V30 3001 H 271.637 3.93731 4.52477 0
M  V30 3002 H 273.316 4.52294 4.62644 0
M  V30 3003 N 273.449 -1.08991 1.13837 0
M  V30 3004 C 274.86 -1.62746 0.914917 0
M  V30 3005 C 275.211 -1.88403 -0.547594 0
M  V30 3006 O 274.336 -1.63706 -1.41525 0
M  V30 3007 C 274.931 -2.95662 1.65437 0
M  V30 3008 C 273.49 -3.46225 1.47666 0
M  V30 3009 C 272.637 -2.20562 1.6807 0
M  V30 3010 H 275.588 -0.922946 1.29102 0
M  V30 3011 H 275.609 -3.63825 1.11407 0
M  V30 3012 H 275.121 -2.76956 2.71877 0
M  V30 3013 H 273.222 -3.70046 0.435478 0
M  V30 3014 H 273.335 -4.23368 2.24268 0
M  V30 3015 H 271.699 -2.29439 1.10589 0
M  V30 3016 H 272.482 -2.0437 2.7584 0
M  V30 3017 N 274.927 -0.932562 -1.27047 0
M  V30 3018 C 275.859 -0.392734 -2.2581 0
M  V30 3019 C 276.872 0.479241 -1.55586 0
M  V30 3020 O 278.061 0.291078 -1.76111 0
M  V30 3021 C 275.161 0.455456 -3.35826 0
M  V30 3022 C 274.334 -0.398355 -4.35582 0
M  V30 3023 C 273.393 0.387985 -5.24768 0
M  V30 3024 O 272.419 -0.206003 -5.68827 0
M  V30 3025 N 273.621 1.68664 -5.55457 0
M  V30 3026 H 276.386 -1.24173 -2.72766 0
M  V30 3027 H 273.947 -0.800511 -1.40725 0
M  V30 3028 H 275.939 0.988692 -3.92437 0
M  V30 3029 H 274.509 1.20522 -2.88432 0
M  V30 3030 H 273.729 -1.11286 -3.78165 0
M  V30 3031 H 275.017 -0.981889 -4.99236 0
M  V30 3032 H 274.415 2.19147 -5.21528 0
M  V30 3033 H 272.972 2.1663 -6.14748 0
M  V30 3034 N 276.405 1.4127 -0.698611 0
M  V30 3035 C 277.368 2.29158 -0.044132 0
M  V30 3036 C 278.368 1.44529 0.704841 0
M  V30 3037 O 279.558 1.65643 0.539276 0
M  V30 3038 C 276.69 3.27459 0.947809 0
M  V30 3039 H 277.883 2.88529 -0.817994 0
M  V30 3040 H 275.436 1.49307 -0.46228 0
M  V30 3041 H 276.171 2.73073 1.74933 0
M  V30 3042 H 275.956 3.8991 0.41385 0
M  V30 3043 H 277.446 3.93311 1.40344 0
M  V30 3044 N 277.883 0.443576 1.51229 0
M  V30 3045 C 279.132 -0.122332 2.01329 0
M  V30 3046 C 279.445 -1.43237 1.33201 0
M  V30 3047 O 280.651 -2.0816 1.74304 0
M  V30 3048 C 279.107 -0.268551 3.58897 0
M  V30 3049 C 278.715 1.03142 4.35965 0
M  V30 3050 C 280.459 -0.787894 4.17124 0
M  V30 3051 C 278.366 0.850504 5.85252 0
M  V30 3052 H 277.296 -0.0494929 0.752374 0
M  V30 3053 H 279.947 0.574289 1.74282 0
M  V30 3054 H 278.329 -1.02832 3.82415 0
M  V30 3055 H 279.503 1.80001 4.24189 0
M  V30 3056 H 277.818 1.47977 3.89219 0
M  V30 3057 H 280.415 -0.939841 5.26375 0
M  V30 3058 H 280.758 -1.77201 3.76703 0
M  V30 3059 H 281.291 -0.0862669 3.97706 0
M  V30 3060 H 278.03 1.80718 6.30096 0
M  V30 3061 H 277.55 0.121825 5.99676 0
M  V30 3062 H 279.229 0.506163 6.45017 0
M  V30 3063 N 279.361 -1.56624 0.175154 0
M  V30 3064 C 280.607 -1.9729 -0.469506 0
M  V30 3065 C 280.94 -1.06128 -1.62636 0
M  V30 3066 O 280.215 -0.109183 -1.94193 0
M  V30 3067 C 280.498 -3.47375 -0.948804 0
M  V30 3068 C 280.351 -4.49317 0.208491 0
M  V30 3069 C 281.67 -4.00652 -1.82116 0
M  V30 3070 H 278.789 -0.717317 -0.16919 0
M  V30 3071 H 281.431 -1.88184 0.262062 0
M  V30 3072 H 279.581 -3.55267 -1.57219 0
M  V30 3073 H 281.253 -4.53482 0.845682 0
M  V30 3074 H 279.496 -4.25121 0.863395 0
M  V30 3075 H 280.167 -5.51741 -0.169059 0
M  V30 3076 H 282.643 -3.95416 -1.2956 0
M  V30 3077 H 281.519 -5.06075 -2.12554 0
M  V30 3078 H 281.78 -3.44699 -2.7683 0
M  V30 3079 N 280.839 0.0985539 -1.57292 0
M  V30 3080 C 281.772 1.15082 -1.97057 0
M  V30 3081 C 282.75 1.39025 -0.843255 0
M  V30 3082 O 283.934 1.52842 -1.10325 0
M  V30 3083 C 281.061 2.50069 -2.28437 0
M  V30 3084 C 280.107 2.42428 -3.509 0
M  V30 3085 S 280.94 1.84414 -5.02744 0
M  V30 3086 C 282.096 3.21032 -5.37298 0
M  V30 3087 H 282.329 0.811815 -2.86002 0
M  V30 3088 H 279.862 0.306102 -1.51335 0
M  V30 3089 H 281.82 3.27729 -2.47192 0
M  V30 3090 H 280.481 2.8114 -1.40069 0
M  V30 3091 H 279.674 3.41911 -3.70288 0
M  V30 3092 H 279.276 1.72896 -3.31637 0
M  V30 3093 H 281.568 4.17297 -5.33731 0
M  V30 3094 H 282.511 3.06452 -6.38352 0
M  V30 3095 H 282.919 3.20404 -4.64759 0
M  V30 3096 N 282.317 1.53212 0.369288 0
M  V30 3097 C 283.227 1.82342 1.47609 0
M  V30 3098 C 284.243 0.711532 1.58787 0
M  V30 3099 O 285.419 1.0012 1.74751 0
M  V30 3100 C 282.484 2.00393 2.8292 0
M  V30 3101 C 281.545 3.24297 2.81301 0
M  V30 3102 C 280.778 3.41478 4.10157 0
M  V30 3103 O 281.001 2.63033 5.06132 0
M  V30 3104 O 279.935 4.34817 4.16194 0
M  V30 3105 H 283.761 2.76366 1.25918 0
M  V30 3106 H 281.346 1.38547 0.559034 0
M  V30 3107 H 283.228 2.13859 3.63101 0
M  V30 3108 H 281.903 1.09559 3.04596 0
M  V30 3109 H 280.81 3.16257 1.99831 0
M  V30 3110 H 282.143 4.15041 2.64578 0
M  V30 3111 N 283.795 -0.628877 1.44509 0
M  V30 3112 C 285.035 -1.39993 1.48934 0
M  V30 3113 C 285.399 -1.91627 0.119604 0
M  V30 3114 O 286.6 -2.68772 0.0385283 0
M  V30 3115 C 284.871 -2.53241 2.52198 0
M  V30 3116 S 286.43 -3.41383 2.75687 0
M  V30 3117 H 283.248 -0.477558 0.526744 0
M  V30 3118 H 285.85 -0.727804 1.81448 0
M  V30 3119 H 284.554 -2.13622 3.50419 0
M  V30 3120 H 284.085 -3.25278 2.21264 0
M  V30 3121 H 286.1 -4.50752 2.07453 0
M  V30 3122 N 285.273 -1.31445 -0.869486 0
M  V30 3123 C 286.498 -1.24256 -1.66058 0
M  V30 3124 C 286.923 0.188928 -1.87149 0
M  V30 3125 O 286.281 1.13522 -1.4136 0
M  V30 3126 C 286.329 -1.9924 -3.00559 0
M  V30 3127 O 285.433 -1.33007 -3.90362 0
M  V30 3128 H 284.774 -0.428973 -0.506831 0
M  V30 3129 H 287.304 -1.73521 -1.08404 0
M  V30 3130 H 287.314 -2.08854 -3.50491 0
M  V30 3131 H 285.989 -3.03342 -2.84528 0
M  V30 3132 H 284.566 -1.31848 -3.48813 0
M  V30 3133 N 286.751 1.08385 -1.14413 0
M  V30 3134 C 287.979 1.84517 -0.936001 0
M  V30 3135 C 288.394 1.81626 0.515503 0
M  V30 3136 O 287.751 1.22008 1.35721 0
M  V30 3137 C 287.802 3.32049 -1.42918 0
M  V30 3138 O 287.523 3.34951 -2.82381 0
M  V30 3139 C 289.024 4.24986 -1.26103 0
M  V30 3140 H 286.244 0.582491 -0.333084 0
M  V30 3141 H 288.788 1.36885 -1.5193 0
M  V30 3142 H 286.943 3.7707 -0.888641 0
M  V30 3143 H 287.357 4.27048 -3.04517 0
M  V30 3144 H 288.831 5.26615 -1.6547 0
M  V30 3145 H 289.308 4.38726 -0.20392 0
M  V30 3146 H 289.914 3.85791 -1.79012 0
M  V30 3147 N 288.23 0.939286 1.26551 0
M  V30 3148 C 289.476 0.586715 1.94128 0
M  V30 3149 C 289.809 -0.8717 1.73537 0
M  V30 3150 O 289.084 -1.62339 1.07127 0
M  V30 3151 C 289.367 0.927497 3.4795 0
M  V30 3152 C 289.22 2.44052 3.77834 0
M  V30 3153 C 290.539 0.441569 4.37879 0
M  V30 3154 H 287.658 0.21463 0.705055 0
M  V30 3155 H 290.3 1.17316 1.49455 0
M  V30 3156 H 288.45 0.428431 3.8613 0
M  V30 3157 H 290.122 3.01216 3.4938 0
M  V30 3158 H 288.365 2.8848 3.23978 0
M  V30 3159 H 289.036 2.62947 4.85348 0
M  V30 3160 H 291.512 0.869448 4.06915 0
M  V30 3161 H 290.388 0.708856 5.44304 0
M  V30 3162 H 290.649 -0.658467 4.37169 0
M  V30 3163 N 289.708 -1.40897 0.706093 0
M  V30 3164 C 290.955 -2.01054 0.241531 0
M  V30 3165 C 291.283 -1.55956 -1.16223 0
M  V30 3166 O 290.538 -0.766336 -1.80072 0
M  V30 3167 C 290.837 -3.5646 0.259099 0
M  V30 3168 C 290.503 -4.21106 1.61184 0
M  V30 3169 C 289.165 -4.38479 1.98216 0
M  V30 3170 C 291.517 -4.57256 2.50132 0
M  V30 3171 C 288.845 -4.89282 3.2376 0
M  V30 3172 C 291.197 -5.09454 3.7502 0
M  V30 3173 C 289.861 -5.25037 4.12181 0
M  V30 3174 H 289.131 -0.73571 0.0883825 0
M  V30 3175 H 291.778 -1.68645 0.907257 0
M  V30 3176 H 290.083 -3.88721 -0.490189 0
M  V30 3177 H 291.78 -4.00826 -0.11804 0
M  V30 3178 H 288.37 -4.07966 1.31384 0
M  V30 3179 H 292.554 -4.43479 2.228 0
M  V30 3180 H 287.81 -4.99531 3.52532 0
M  V30 3181 H 291.984 -5.36404 4.44121 0
M  V30 3182 H 289.611 -5.64164 5.09532 0
M  V30 3183 N 291.186 -0.45159 -1.50991 0
M  V30 3184 C 292.597 0.00818571 -1.86698 0
M  V30 3185 C 292.948 1.40661 -1.3678 0
M  V30 3186 O 292.073 2.0391 -0.724546 0
M  V30 3187 C 292.668 0.0216303 -3.38793 0
M  V30 3188 C 291.227 0.425865 -3.73983 0
M  V30 3189 C 290.374 -0.372163 -2.74791 0
M  V30 3190 H 293.325 -0.666785 -1.44013 0
M  V30 3191 H 293.346 0.828078 -3.7138 0
M  V30 3192 H 292.858 -0.996288 -3.75094 0
M  V30 3193 H 290.959 1.44886 -3.43277 0
M  V30 3194 H 291.072 0.140761 -4.78893 0
M  V30 3195 H 289.436 0.171498 -2.54122 0
M  V30 3196 H 290.219 -1.38922 -3.13935 0
M  V30 3197 N 292.664 1.56529 -0.183458 0
M  V30 3198 C 293.912 1.96855 0.457452 0
M  V30 3199 C 294.233 1.07104 1.62953 0
M  V30 3200 O 293.503 0.139887 1.954 0
M  V30 3201 H 292.083 0.72693 0.171992 0
M  V30 3202 H 294.745 1.93056 -0.267476 0
M  V30 3203 H 293.841 3.01423 0.809368 0
M  V30 3204 N 294.142 -0.090211 1.57342 0
M  V30 3205 C 295.072 -1.10976 2.05443 0
M  V30 3206 C 296.053 -1.41482 0.944284 0
M  V30 3207 O 297.238 -1.51428 1.21586 0
M  V30 3208 C 294.368 -2.42831 2.48295 0
M  V30 3209 C 293.322 -2.26721 3.63018 0
M  V30 3210 C 292.648 -3.63796 3.91863 0
M  V30 3211 C 293.948 -1.7037 4.93732 0
M  V30 3212 H 295.642 -0.709564 2.9087 0
M  V30 3213 H 293.188 -0.339874 1.39932 0
M  V30 3214 H 295.141 -3.14431 2.80555 0
M  V30 3215 H 293.865 -2.84795 1.59873 0
M  V30 3216 H 292.524 -1.57565 3.31012 0
M  V30 3217 H 292.172 -4.03297 3.00601 0
M  V30 3218 H 291.872 -3.53861 4.69101 0
M  V30 3219 H 293.396 -4.36855 4.26603 0
M  V30 3220 H 294.81 -2.31816 5.24342 0
M  V30 3221 H 293.207 -1.71181 5.75167 0
M  V30 3222 H 294.277 -0.663542 4.80339 0
M  V30 3223 N 295.62 -1.53406 -0.361157 0
M  V30 3224 C 296.583 -1.79479 -1.42548 0
M  V30 3225 C 297.583 -0.665327 -1.4639 0
M  V30 3226 O 298.773 -0.933549 -1.47073 0
M  V30 3227 C 295.905 -1.92087 -2.8163 0
M  V30 3228 H 297.098 -2.74538 -1.20701 0
M  V30 3229 H 294.651 -1.4455 -0.594546 0
M  V30 3230 H 295.386 -0.991099 -3.08784 0
M  V30 3231 H 295.171 -2.74241 -2.80239 0
M  V30 3232 H 296.661 -2.13836 -3.58697 0
M  V30 3233 N 297.098 0.621204 -1.44841 0
M  V30 3234 C 298.046 1.75385 -1.52784 0
M  V30 3235 C 299.04 1.64639 -0.398779 0
M  V30 3236 O 300.246 1.70598 -0.574137 0
M  V30 3237 H 296.621 0.579193 -0.479625 0
M  V30 3238 H 298.592 1.6581 -2.48092 0
M  V30 3239 C 297.341 3.13742 -1.4987 0
M  V30 3240 H 296.664 3.22663 -2.36069 0
M  V30 3241 H 298.104 3.92861 -1.59487 0
M  V30 3242 C 296.563 3.36175 -0.220973 0
M  V30 3243 O 297.093 3.95469 0.704782 0
M  V30 3244 N 295.299 2.90348 -0.120963 0
M  V30 3245 H 294.846 2.42278 -0.875162 0
M  V30 3246 H 294.804 3.05732 0.733168 0
M  V30 3247 N 298.576 1.31904 0.862503 0
M  V30 3248 C 299.523 1.20182 1.9704 0
M  V30 3249 C 300.493 0.0858247 1.65878 0
M  V30 3250 O 301.678 0.26 1.8902 0
M  V30 3251 C 298.818 0.922797 3.32533 0
M  V30 3252 C 297.931 2.12284 3.76244 0
M  V30 3253 C 297.066 1.77996 5.00491 0
M  V30 3254 C 296.105 2.94366 5.36671 0
M  V30 3255 N 295.242 2.60223 6.52095 0
M  V30 3256 H 300.082 2.14951 2.06398 0
M  V30 3257 H 297.619 1.06917 1.01031 0
M  V30 3258 H 299.577 0.741548 4.10557 0
M  V30 3259 H 298.207 0.0119227 3.22798 0
M  V30 3260 H 297.259 2.41461 2.9394 0
M  V30 3261 H 298.571 2.99357 3.98982 0
M  V30 3262 H 297.725 1.56377 5.862 0
M  V30 3263 H 296.464 0.881252 4.79672 0
M  V30 3264 H 295.469 3.16625 4.49476 0
M  V30 3265 H 296.694 3.84957 5.59451 0
M  V30 3266 H 294.64 1.72884 6.32809 0
M  V30 3267 H 294.557 3.40827 6.74814 0
M  V30 3268 H 295.825 2.42016 7.40978 0
M  V30 3269 N 300.054 -1.07777 1.14986 0
M  V30 3270 C 301.282 -1.84018 0.945773 0
M  V30 3271 C 301.697 -1.81897 -0.505863 0
M  V30 3272 O 301.054 -1.22726 -1.35072 0
M  V30 3273 C 301.105 -3.31287 1.44677 0
M  V30 3274 O 300.826 -3.33449 2.84154 0
M  V30 3275 C 302.327 -4.24311 1.28355 0
M  V30 3276 H 299.547 -0.580716 0.336169 0
M  V30 3277 H 302.091 -1.36077 1.52654 0
M  V30 3278 H 300.246 -3.76594 0.908625 0
M  V30 3279 H 300.66 -4.25427 3.06777 0
M  V30 3280 H 302.134 -5.2573 1.68261 0
M  V30 3281 H 302.611 -4.38612 0.227184 0
M  V30 3282 H 303.217 -3.84836 1.81056 0
M  V30 3283 N 301.532 -0.945985 -1.26051 0
M  V30 3284 C 302.76 -0.613025 -1.9761 0
M  V30 3285 C 303.175 0.813035 -1.70397 0
M  V30 3286 O 302.532 1.54274 -0.974979 0
M  V30 3287 C 302.583 -0.85159 -3.51326 0
M  V30 3288 O 302.304 -2.22157 -3.77595 0
M  V30 3289 C 303.805 -0.529831 -4.40122 0
M  V30 3290 H 301.025 -0.230593 -0.630133 0
M  V30 3291 H 303.569 -1.268 -1.60443 0
M  V30 3292 H 301.724 -0.243151 -3.86636 0
M  V30 3293 H 302.138 -2.2852 -4.721 0
M  V30 3294 H 303.612 -0.747348 -5.46917 0
M  V30 3295 H 304.089 0.535341 -4.35925 0
M  V30 3296 H 304.695 -1.11721 -4.10364 0
M  V30 3297 N 303.011 1.40521 -0.713556 0
M  V30 3298 C 303.941 2.33381 -0.0743864 0
M  V30 3299 C 304.922 1.52784 0.747735 0
M  V30 3300 O 306.107 1.81258 0.697071 0
M  V30 3301 C 303.237 3.36748 0.849598 0
M  V30 3302 C 302.191 4.27793 0.133247 0
M  V30 3303 C 301.517 5.21679 1.17281 0
M  V30 3304 C 302.817 5.12415 -1.01134 0
M  V30 3305 H 304.511 2.87081 -0.850007 0
M  V30 3306 H 302.057 1.38034 -0.410201 0
M  V30 3307 H 304.01 4.00648 1.30612 0
M  V30 3308 H 302.734 2.81439 1.65709 0
M  V30 3309 H 301.393 3.65342 -0.303426 0
M  V30 3310 H 301.041 4.62677 1.9733 0
M  V30 3311 H 300.741 5.83435 0.698397 0
M  V30 3312 H 302.265 5.88456 1.62947 0
M  V30 3313 H 303.679 5.69781 -0.634274 0
M  V30 3314 H 302.076 5.83203 -1.41399 0
M  V30 3315 H 303.146 4.48514 -1.84292 0
M  V30 3316 N 304.489 0.459591 1.5075 0
M  V30 3317 C 305.736 -0.0993495 2.02256 0
M  V30 3318 C 306.064 -1.40751 1.34237 0
M  V30 3319 O 305.319 -1.90379 0.453228 0
M  V30 3320 C 305.618 -0.342866 3.55752 0
M  V30 3321 C 305.284 0.88218 4.42186 0
M  V30 3322 C 303.946 1.21808 4.65528 0
M  V30 3323 C 306.298 1.69837 4.92752 0
M  V30 3324 C 303.626 2.37045 5.36681 0
M  V30 3325 C 305.978 2.84192 5.65171 0
M  V30 3326 C 304.642 3.1821 5.8677 0
M  V30 3327 H 303.912 -0.0363545 0.740108 0
M  V30 3328 H 306.559 0.611329 1.8148 0
M  V30 3329 H 304.864 -1.13567 3.7498 0
M  V30 3330 H 306.561 -0.789121 3.93159 0
M  V30 3331 H 303.151 0.610467 4.2423 0
M  V30 3332 H 307.335 1.45205 4.74583 0
M  V30 3333 H 302.591 2.63689 5.51614 0
M  V30 3334 H 306.765 3.4779 6.03337 0
M  V30 3335 H 304.392 4.07613 6.41682 0
M  V30 3336 N 305.967 -1.56429 0.191757 0
M  V30 3337 C 307.195 -2.01867 -0.453586 0
M  V30 3338 C 307.61 -1.07191 -1.5542 0
M  V30 3339 O 306.967 -0.0762108 -1.82341 0
M  V30 3340 C 307.018 -3.47017 -1.013 0
M  V30 3341 O 306.739 -4.38078 0.0437005 0
M  V30 3342 C 308.24 -4.07956 -1.73456 0
M  V30 3343 H 305.46 -0.661211 -0.114199 0
M  V30 3344 H 308.004 -2.02295 0.299483 0
M  V30 3345 H 306.159 -3.47298 -1.71647 0
M  V30 3346 H 306.573 -5.23178 -0.372212 0
M  V30 3347 H 308.047 -5.1138 -2.07833 0
M  V30 3348 H 308.524 -3.51222 -2.63704 0
M  V30 3349 H 309.13 -4.11437 -1.07702 0
M  V30 3350 N 307.445 0.0818655 -1.57387 0
M  V30 3351 C 308.691 0.784074 -1.8703 0
M  V30 3352 C 309.024 1.77729 -0.782689 0
M  V30 3353 O 308.299 1.93384 0.208051 0
M  V30 3354 C 308.582 1.50105 -3.27323 0
M  V30 3355 C 308.435 0.524925 -4.46727 0
M  V30 3356 C 309.754 2.44843 -3.65705 0
M  V30 3357 H 306.873 0.283582 -0.680257 0
M  V30 3358 H 309.515 0.0474352 -1.89941 0
M  V30 3359 H 307.665 2.12897 -3.24972 0
M  V30 3360 H 309.337 -0.0970111 -4.61198 0
M  V30 3361 H 307.58 -0.160606 -4.33503 0
M  V30 3362 H 308.251 1.064 -5.41648 0
M  V30 3363 H 310.727 1.92135 -3.69085 0
M  V30 3364 H 309.603 2.92018 -4.64776 0
M  V30 3365 H 309.864 3.29197 -2.95096 0
M  V30 3366 N 308.923 1.53595 0.353017 0
M  V30 3367 C 310.163 1.72094 1.10286 0
M  V30 3368 C 310.527 0.469217 1.86178 0
M  V30 3369 O 311.728 0.531083 2.63501 0
M  V30 3370 C 309.999 2.94386 2.02661 0
M  V30 3371 S 311.558 3.33651 2.84996 0
M  V30 3372 H 308.376 0.605433 0.372789 0
M  V30 3373 H 310.978 1.91722 0.38248 0
M  V30 3374 H 309.682 3.83669 1.45691 0
M  V30 3375 H 309.213 2.77197 2.79152 0
M  V30 3376 H 311.228 2.86645 4.0503 0
M  V30 3377 N 310.401 -0.613514 1.45168 0
M  V30 3378 C 311.678 -1.37263 1.39349 0
M  V30 3379 C 312.058 -2.11012 0.0610848 0
M  V30 3380 O 311.406 -2.07502 -0.956825 0
M  V30 3381 C 311.616 -2.3244 2.60332 0
M  V30 3382 C 312.964 -2.9523 3.05163 0
M  V30 3383 O 313.988 -2.42762 2.60663 0
M  V30 3384 O 312.847 -3.90454 3.82372 0
M  V30 3385 H 309.941 -0.615188 0.552696 0
M  V30 3386 H 312.487 -0.637097 1.57287 0
M  V30 3387 H 311.259 -1.77164 3.48896 0
M  V30 3388 H 310.882 -3.13383 2.44698 0
M  V30 3389 N 311.879 -1.3236 -0.855495 0
M  V30 3390 C 312.789 -1.23221 -1.99634 0
M  V30 3391 C 313.805 -0.145983 -1.73387 0
M  V30 3392 O 314.981 -0.366502 -1.98037 0
M  V30 3393 C 312.046 -0.954782 -3.33294 0
M  V30 3394 C 311.107 -2.12937 -3.72769 0
M  V30 3395 C 310.34 -1.86508 -5.00051 0
M  V30 3396 O 310.563 -0.807231 -5.64659 0
M  V30 3397 O 309.497 -2.72591 -5.36636 0
M  V30 3398 H 313.323 -2.19126 -2.1028 0
M  V30 3399 H 310.908 -1.12241 -0.986018 0
M  V30 3400 H 312.79 -0.816519 -4.13414 0
M  V30 3401 H 311.465 -0.0258854 -3.2369 0
M  V30 3402 H 310.372 -2.3231 -2.93228 0
M  V30 3403 H 311.705 -3.04102 -3.87018 0
M  V30 3404 N 313.357 1.07166 -1.15556 0
M  V30 3405 C 314.773 1.31899 -0.898603 0
M  V30 3406 C 314.973 1.96333 0.453383 0
M  V30 3407 O 314.029 2.22438 1.19489 0
M  V30 3408 C 315.342 2.20826 -2.04099 0
M  V30 3409 C 316.89 2.34269 -2.07574 0
M  V30 3410 C 317.365 3.26546 -3.21141 0
M  V30 3411 N 318.856 3.34127 -3.20801 0
M  V30 3412 C 319.591 4.05595 -4.05315 0
M  V30 3413 N 319.087 4.79661 -4.99897 0
M  V30 3414 N 320.88 4.01555 -3.93332 0
M  V30 3415 H 313.031 0.637302 -2.02613 0
M  V30 3416 H 315.294 0.343468 -0.883591 0
M  V30 3417 H 315 1.80744 -3.01703 0
M  V30 3418 H 314.874 3.21364 -1.97496 0
M  V30 3419 H 317.261 2.73603 -1.10568 0
M  V30 3420 H 317.342 1.33429 -2.18244 0
M  V30 3421 H 316.986 2.87931 -4.184 0
M  V30 3422 H 316.916 4.27345 -3.07708 0
M  V30 3423 H 319.407 2.81336 -2.52306 0
M  V30 3424 H 319.72 5.31694 -5.60822 0
M  V30 3425 H 318.065 4.78671 -5.03884 0
M  V30 3426 H 321.256 3.42806 -3.18751 0
M  V30 3427 H 321.429 4.56987 -4.5942 0
M  V30 3428 N 314.835 0.952656 1.25548 0
M  V30 3429 C 316.081 0.616826 1.93822 0
M  V30 3430 C 316.436 -0.836684 1.73255 0
M  V30 3431 O 315.729 -1.59218 1.06584 0
M  V30 3432 C 315.923 0.908818 3.45652 0
M  V30 3433 C 315.752 2.38916 3.80984 0
M  V30 3434 C 314.522 3.04637 4.03143 0
M  V30 3435 C 316.72 3.36838 3.88645 0
M  V30 3436 N 314.702 4.42565 4.25453 0
M  V30 3437 C 316.073 4.60065 4.1562 0
M  V30 3438 C 318.128 3.31704 3.71318 0
M  V30 3439 C 316.831 5.78795 4.2707 0
M  V30 3440 C 318.857 4.4977 3.84006 0
M  V30 3441 C 318.219 5.71783 4.11392 0
M  V30 3442 H 314.318 0.27629 0.731565 0
M  V30 3443 H 316.902 1.22443 1.5138 0
M  V30 3444 H 315.073 0.330166 3.86994 0
M  V30 3445 H 316.805 0.533093 4.01174 0
M  V30 3446 H 313.56 2.55215 3.98952 0
M  V30 3447 H 313.984 5.1399 4.40617 0
M  V30 3448 H 318.626 2.3842 3.49164 0
M  V30 3449 H 316.344 6.72521 4.48041 0
M  V30 3450 H 319.93 4.47342 3.71989 0
M  V30 3451 H 318.81 6.61617 4.2099 0
M  V30 3452 N 316.313 -1.40141 0.720998 0
M  V30 3453 C 317.561 -2.0039 0.262323 0
M  V30 3454 C 317.882 -1.57469 -1.15015 0
M  V30 3455 O 317.152 -0.816582 -1.78069 0
M  V30 3456 H 315.732 -0.741063 0.093996 0
M  V30 3457 H 318.394 -1.71398 0.927835 0
M  V30 3458 H 317.49 -3.10658 0.299671 0
M  V30 3459 N 317.792 -0.46758 -1.50504 0
M  V30 3460 C 319.04 0.0884469 -2.01906 0
M  V30 3461 C 319.361 1.40532 -1.35188 0
M  V30 3462 O 318.631 1.89515 -0.496079 0
M  V30 3463 H 317.211 0.0356765 -0.746148 0
M  V30 3464 H 319.873 -0.6172 -1.84869 0
M  V30 3465 H 318.969 0.2425 -3.11156 0
M  V30 3466 N 319.27 1.56325 -0.20005 0
M  V30 3467 C 320.18 2.22931 0.730668 0
M  V30 3468 C 321.196 1.22997 1.23076 0
M  V30 3469 O 322.372 1.55748 1.27689 0
M  V30 3470 C 319.437 2.87948 1.93098 0
M  V30 3471 C 318.498 4.03166 1.47497 0
M  V30 3472 C 317.731 4.65073 2.61807 0
M  V30 3473 O 317.954 4.25913 3.79413 0
M  V30 3474 O 316.888 5.54452 2.34237 0
M  V30 3475 H 320.714 3.03084 0.193391 0
M  V30 3476 H 318.299 1.49371 0.0294621 0
M  V30 3477 H 320.181 3.29063 2.6324 0
M  V30 3478 H 318.856 2.10771 2.45677 0
M  V30 3479 H 317.763 3.66664 0.742201 0
M  V30 3480 H 319.096 4.82022 0.995796 0
M  V30 3481 N 320.748 -0.0735177 1.57428 0
M  V30 3482 C 321.997 -0.771809 1.86349 0
M  V30 3483 C 322.31 -1.78828 0.792452 0
M  V30 3484 O 323.516 -2.53602 0.96945 0
M  V30 3485 C 321.972 -1.42358 3.30548 0
M  V30 3486 C 321.58 -0.445761 4.45777 0
M  V30 3487 C 323.324 -2.10434 3.6867 0
M  V30 3488 C 321.231 -1.10335 5.81016 0
M  V30 3489 H 320.161 -0.291999 0.695164 0
M  V30 3490 H 322.812 -0.0250749 1.83483 0
M  V30 3491 H 321.194 -2.21852 3.28021 0
M  V30 3492 H 322.368 0.319239 4.59693 0
M  V30 3493 H 320.683 0.130457 4.16196 0
M  V30 3494 H 323.28 -2.60405 4.67004 0
M  V30 3495 H 323.623 -2.90298 2.98383 0
M  V30 3496 H 324.156 -1.37773 3.7318 0
M  V30 3497 H 320.895 -0.345061 6.54591 0
M  V30 3498 H 320.415 -1.83925 5.70904 0
M  V30 3499 H 322.094 -1.62367 6.26295 0
M  V30 3500 N 322.226 -1.5378 -0.344866 0
M  V30 3501 C 323.456 -1.74646 -1.10374 0
M  V30 3502 C 323.864 -0.48491 -1.8288 0
M  V30 3503 O 323.207 0.553062 -1.75177 0
M  V30 3504 C 323.269 -2.87145 -2.16306 0
M  V30 3505 C 322.933 -4.26795 -1.63386 0
M  V30 3506 C 323.93 -5.08412 -1.08688 0
M  V30 3507 C 321.615 -4.73276 -1.68272 0
M  V30 3508 C 323.609 -6.34609 -0.595792 0
M  V30 3509 C 321.296 -5.99446 -1.18776 0
M  V30 3510 C 322.294 -6.79946 -0.645215 0
M  V30 3511 O 321.982 -8.03745 -0.157626 0
M  V30 3512 H 321.714 -0.587112 -0.335075 0
M  V30 3513 H 324.268 -2.01403 -0.403252 0
M  V30 3514 H 322.498 -2.55909 -2.89909 0
M  V30 3515 H 324.187 -2.95992 -2.77747 0
M  V30 3516 H 324.953 -4.73666 -1.04236 0
M  V30 3517 H 320.832 -4.10677 -2.09442 0
M  V30 3518 H 324.376 -6.97389 -0.171654 0
M  V30 3519 H 320.273 -6.33687 -1.22928 0
M  V30 3520 H 321.041 -8.18038 -0.275037 0
M  V30 3521 N 323.704 0.605807 -1.45491 0
M  V30 3522 C 325.115 1.18777 -1.44045 0
M  V30 3523 C 325.466 1.95471 -0.169001 0
M  V30 3524 O 324.591 2.0374 0.729324 0
M  V30 3525 C 325.186 2.16064 -2.60963 0
M  V30 3526 C 323.745 2.69633 -2.62631 0
M  V30 3527 C 322.892 1.45072 -2.36325 0
M  V30 3528 H 325.843 0.395017 -1.53705 0
M  V30 3529 H 325.864 2.9913 -2.35163 0
M  V30 3530 H 325.376 1.60217 -3.53486 0
M  V30 3531 H 323.477 3.29414 -1.74119 0
M  V30 3532 H 323.59 3.13944 -3.61906 0
M  V30 3533 H 321.954 1.74089 -1.85917 0
M  V30 3534 H 322.737 0.910899 -3.30995 0
M  V30 3535 N 325.182 1.32811 0.848464 0
M  V30 3536 C 326.129 1.22265 1.95755 0
M  V30 3537 C 327.099 0.103413 1.65778 0
M  V30 3538 O 328.284 0.280033 1.88734 0
M  V30 3539 C 325.424 0.958014 3.31536 0
M  V30 3540 C 324.537 2.16262 3.73971 0
M  V30 3541 C 323.672 1.83295 4.98575 0
M  V30 3542 C 322.711 3.00041 5.33518 0
M  V30 3543 N 321.848 2.67125 6.49299 0
M  V30 3544 H 326.688 2.17128 2.04107 0
M  V30 3545 H 324.225 1.07982 0.998913 0
M  V30 3546 H 326.183 0.785052 4.09747 0
M  V30 3547 H 324.813 0.046159 3.22767 0
M  V30 3548 H 323.865 2.44565 2.91362 0
M  V30 3549 H 325.177 3.03572 3.95785 0
M  V30 3550 H 324.331 1.62586 5.84509 0
M  V30 3551 H 323.07 0.932078 4.7871 0
M  V30 3552 H 322.075 3.21374 4.46093 0
M  V30 3553 H 323.3 3.90869 5.55336 0
M  V30 3554 H 321.246 1.79586 6.3094 0
M  V30 3555 H 321.163 3.47965 6.71161 0
M  V30 3556 H 322.431 2.49861 7.3837 0
M  V30 3557 N 326.66 -1.06551 1.16123 0
M  V30 3558 C 327.593 -2.13382 0.80892 0
M  V30 3559 C 328.571 -1.61128 -0.21827 0
M  V30 3560 O 329.755 -1.88219 -0.102952 0
M  V30 3561 C 326.882 -3.38083 0.204303 0
M  V30 3562 C 325.928 -4.09133 1.20469 0
M  V30 3563 S 326.761 -4.5948 2.75024 0
M  V30 3564 C 327.917 -5.87446 2.16005 0
M  V30 3565 H 328.15 -2.42937 1.71373 0
M  V30 3566 H 325.683 -1.18947 0.984428 0
M  V30 3567 H 327.641 -4.10268 -0.138081 0
M  V30 3568 H 326.302 -3.0669 -0.678234 0
M  V30 3569 H 325.495 -4.98685 0.730019 0
M  V30 3570 H 325.097 -3.4295 1.49202 0
M  V30 3571 H 327.389 -6.60065 1.5271 0
M  V30 3572 H 328.332 -6.39639 3.03756 0
M  V30 3573 H 328.74 -5.41354 1.59989 0
M  V30 3574 N 328.138 -0.959301 -1.25041 0
M  V30 3575 C 329.368 -0.63303 -1.96663 0
M  V30 3576 C 329.776 0.800031 -1.71453 0
M  V30 3577 O 329.119 1.54736 -0.99008 0
M  V30 3578 C 329.181 -0.817523 -3.50081 0
M  V30 3579 C 328.845 -2.22863 -3.98975 0
M  V30 3580 C 329.842 -3.20569 -4.09306 0
M  V30 3581 C 327.527 -2.55407 -4.32519 0
M  V30 3582 C 329.521 -4.4891 -4.52503 0
M  V30 3583 C 327.208 -3.83976 -4.754 0
M  V30 3584 C 328.206 -4.8054 -4.85356 0
M  V30 3585 O 327.894 -6.06817 -5.27284 0
M  V30 3586 H 327.626 -0.235866 -0.633516 0
M  V30 3587 H 330.18 -1.2874 -1.60047 0
M  V30 3588 H 328.41 -0.105992 -3.86555 0
M  V30 3589 H 330.099 -0.491604 -4.02912 0
M  V30 3590 H 330.865 -2.96753 -3.83618 0
M  V30 3591 H 326.744 -1.8097 -4.23994 0
M  V30 3592 H 330.288 -5.24283 -4.60188 0
M  V30 3593 H 326.185 -4.07596 -5.00535 0
M  V30 3594 H 326.953 -6.10262 -5.45457 0
M  V30 3595 N 329.616 1.39756 -0.72842 0
M  V30 3596 C 330.566 2.2792 -0.0603424 0
M  V30 3597 C 331.55 1.43922 0.719399 0
M  V30 3598 O 332.742 1.66895 0.589489 0
M  V30 3599 C 329.871 3.32582 0.851104 0
M  V30 3600 C 328.957 4.24049 0.0658641 0
M  V30 3601 N 329.348 4.96653 -0.957578 0
M  V30 3602 C 327.646 4.45013 0.296509 0
M  V30 3603 C 328.347 5.63836 -1.43052 0
M  V30 3604 N 327.323 5.38397 -0.750315 0
M  V30 3605 H 331.125 2.81504 -0.84455 0
M  V30 3606 H 328.639 1.5236 -0.562155 0
M  V30 3607 H 330.636 3.94603 1.34514 0
M  V30 3608 H 329.296 2.80558 1.63454 0
M  V30 3609 H 330.307 5.00297 -1.33877 0
M  V30 3610 H 326.984 4.03943 1.05527 0
M  V30 3611 H 328.374 6.31974 -2.28163 0
M  V30 3612 N 331.094 0.475555 1.50254 0
M  V30 3613 C 332.343 -0.0795996 2.01543 0
M  V30 3614 C 332.656 -1.4038 1.36209 0
M  V30 3615 O 333.862 -2.04415 1.7868 0
M  V30 3616 C 332.318 -0.192363 3.59386 0
M  V30 3617 C 331.926 1.12367 4.33679 0
M  V30 3618 C 333.67 -0.699238 4.18701 0
M  V30 3619 C 331.577 0.974453 5.83317 0
M  V30 3620 H 330.507 -0.0335228 0.753254 0
M  V30 3621 H 333.158 0.611128 1.73025 0
M  V30 3622 H 331.54 -0.946974 3.84511 0
M  V30 3623 H 332.714 1.88958 4.20276 0
M  V30 3624 H 331.029 1.562 3.85993 0
M  V30 3625 H 333.626 -0.827978 5.28251 0
M  V30 3626 H 333.969 -1.69171 3.80377 0
M  V30 3627 H 334.502 -0.00188807 3.978 0
M  V30 3628 H 331.241 1.94042 6.26121 0
M  V30 3629 H 330.761 0.248998 5.99283 0
M  V30 3630 H 332.44 0.642867 6.43798 0
M  V30 3631 N 332.573 -1.56217 0.208337 0
M  V30 3632 C 333.813 -1.99849 -0.428927 0
M  V30 3633 C 334.177 -1.09262 -1.57879 0
M  V30 3634 O 335.378 -1.42185 -2.28116 0
M  V30 3635 C 333.649 -3.46777 -0.864879 0
M  V30 3636 S 335.208 -4.12434 -1.49811 0
M  V30 3637 H 332.026 -0.697742 -0.136665 0
M  V30 3638 H 334.628 -1.92953 0.314519 0
M  V30 3639 H 333.332 -4.10396 -0.0181326 0
M  V30 3640 H 332.863 -3.57518 -1.64147 0
M  V30 3641 H 334.878 -4.10532 -2.78707 0
M  V30 3642 N 334.051 0.0651679 -1.57465 0
M  V30 3643 C 335.298 0.763063 -1.87573 0
M  V30 3644 C 335.626 1.77242 -0.800961 0
M  V30 3645 O 334.881 1.94651 0.202316 0
M  V30 3646 C 335.18 1.50081 -3.24362 0
M  V30 3647 C 334.846 0.630816 -4.46466 0
M  V30 3648 C 333.508 0.391082 -4.79608 0
M  V30 3649 C 335.86 0.0279465 -5.21193 0
M  V30 3650 C 333.188 -0.460894 -5.84887 0
M  V30 3651 C 335.54 -0.811522 -6.27373 0
M  V30 3652 C 334.204 -1.06106 -6.59013 0
M  V30 3653 H 333.474 0.279224 -0.686378 0
M  V30 3654 H 336.121 0.0236726 -1.91485 0
M  V30 3655 H 334.426 2.31258 -3.16271 0
M  V30 3656 H 336.123 2.04571 -3.44894 0
M  V30 3657 H 332.713 0.8278 -4.2053 0
M  V30 3658 H 336.897 0.200262 -4.95896 0
M  V30 3659 H 332.153 -0.662907 -6.07796 0
M  V30 3660 H 336.327 -1.28537 -6.84435 0
M  V30 3661 H 333.954 -1.723 -7.40417 0
M  V30 3662 N 335.529 1.53961 0.336706 0
M  V30 3663 C 336.776 1.71536 1.07618 0
M  V30 3664 C 337.104 0.482125 1.8843 0
M  V30 3665 O 336.359 -0.536142 1.88213 0
M  V30 3666 C 336.658 2.93493 2.03953 0
M  V30 3667 C 336.324 4.28811 1.39399 0
M  V30 3668 C 334.986 4.65602 1.21523 0
M  V30 3669 C 337.338 5.12844 0.929541 0
M  V30 3670 C 334.666 5.84037 0.558312 0
M  V30 3671 C 337.018 6.31951 0.286505 0
M  V30 3672 C 335.682 6.67432 0.0954869 0
M  V30 3673 H 334.952 0.627696 0.393801 0
M  V30 3674 H 337.599 1.88186 0.354715 0
M  V30 3675 H 335.904 2.71475 2.82504 0
M  V30 3676 H 337.601 3.04285 2.61174 0
M  V30 3677 H 334.191 3.99858 1.54311 0
M  V30 3678 H 338.375 4.84947 1.05548 0
M  V30 3679 H 333.631 6.10097 0.398995 0
M  V30 3680 H 337.805 6.96352 -0.0814376 0
M  V30 3681 H 335.432 7.59063 -0.415579 0
M  V30 3682 N 337.007 -0.598083 1.45811 0
M  V30 3683 C 337.937 -1.71873 1.58057 0
M  V30 3684 C 338.918 -1.64533 0.431615 0
M  V30 3685 O 340.103 -1.82787 0.65595 0
M  V30 3686 C 337.233 -3.10495 1.55597 0
M  V30 3687 C 336.187 -3.32654 2.69305 0
M  V30 3688 C 335.513 -4.71646 2.51902 0
M  V30 3689 C 336.813 -3.21981 4.11248 0
M  V30 3690 H 338.507 -1.61881 2.51863 0
M  V30 3691 H 336.053 -0.777372 1.21214 0
M  V30 3692 H 338.006 -3.88699 1.6276 0
M  V30 3693 H 336.73 -3.2135 0.583255 0
M  V30 3694 H 335.389 -2.56843 2.61586 0
M  V30 3695 H 335.037 -4.79246 1.52748 0
M  V30 3696 H 334.737 -4.87426 3.2816 0
M  V30 3697 H 336.261 -5.52038 2.60933 0
M  V30 3698 H 337.675 -3.90049 4.20161 0
M  V30 3699 H 336.072 -3.49289 4.87972 0
M  V30 3700 H 337.142 -2.1928 4.32486 0
M  V30 3701 N 338.485 -1.33259 -0.841409 0
M  V30 3702 C 339.731 -1.24757 -1.59886 0
M  V30 3703 C 340.064 0.186913 -1.93298 0
M  V30 3704 O 339.339 1.12757 -1.5848 0
M  V30 3705 C 339.622 -2.12036 -2.91055 0
M  V30 3706 C 339.475 -3.63929 -2.6434 0
M  V30 3707 C 340.794 -1.9916 -3.92458 0
M  V30 3708 H 337.913 -0.454542 -0.580138 0
M  V30 3709 H 340.555 -1.63335 -0.970647 0
M  V30 3710 H 338.705 -1.79265 -3.44669 0
M  V30 3711 H 340.377 -4.06978 -2.17178 0
M  V30 3712 H 338.62 -3.85935 -1.98082 0
M  V30 3713 H 339.291 -4.20341 -3.57796 0
M  V30 3714 H 341.767 -2.27895 -3.48143 0
M  V30 3715 H 340.643 -2.62484 -4.82072 0
M  V30 3716 H 340.904 -0.963082 -4.31482 0
M  V30 3717 N 339.963 1.05934 -1.16686 0
M  V30 3718 C 341.191 1.8249 -0.974929 0
M  V30 3719 C 341.606 1.82679 0.476861 0
M  V30 3720 O 340.963 1.2486 1.33103 0
M  V30 3721 C 341.014 3.28943 -1.49929 0
M  V30 3722 O 340.735 3.28886 -2.89423 0
M  V30 3723 C 342.236 4.22215 -1.35089 0
M  V30 3724 H 339.456 0.575295 -0.345365 0
M  V30 3725 H 342 1.33631 -1.548 0
M  V30 3726 H 340.155 3.751 -0.968423 0
M  V30 3727 H 340.569 4.20493 -3.13506 0
M  V30 3728 H 342.043 5.22987 -1.76603 0
M  V30 3729 H 342.52 4.38195 -0.296935 0
M  V30 3730 H 343.126 3.81907 -1.87155 0
M  V30 3731 N 341.441 0.965919 1.2453 0
M  V30 3732 C 342.671 0.643451 1.96324 0
M  V30 3733 C 343.079 -0.790927 1.71875 0
M  V30 3734 O 342.422 -1.54208 0.998273 0
M  V30 3735 C 342.484 0.836078 3.49643 0
M  V30 3736 C 342.148 2.24975 3.97788 0
M  V30 3737 C 343.145 3.22735 4.07601 0
M  V30 3738 C 340.83 2.57697 4.31158 0
M  V30 3739 C 342.824 4.51303 4.50116 0
M  V30 3740 C 340.511 3.86492 4.73357 0
M  V30 3741 C 341.509 4.83107 4.828 0
M  V30 3742 O 341.197 6.09605 5.24058 0
M  V30 3743 H 340.929 0.239223 0.632257 0
M  V30 3744 H 343.483 1.29587 1.59362 0
M  V30 3745 H 341.713 0.12649 3.86493 0
M  V30 3746 H 343.402 0.512965 4.02646 0
M  V30 3747 H 344.168 2.98783 3.82039 0
M  V30 3748 H 340.047 1.83216 4.23028 0
M  V30 3749 H 343.591 5.26716 4.57401 0
M  V30 3750 H 339.488 4.10245 4.98366 0
M  V30 3751 H 340.256 6.13146 5.42213 0
M  V30 3752 N 342.919 -1.39368 0.735821 0
M  V30 3753 C 343.852 -2.28155 0.0451175 0
M  V30 3754 C 344.83 -1.44433 -0.746852 0
M  V30 3755 O 346.014 -1.73823 -0.729237 0
M  V30 3756 C 343.141 -3.253 -0.943266 0
M  V30 3757 C 342.187 -4.25826 -0.239685 0
M  V30 3758 S 343.02 -5.25166 1.04693 0
M  V30 3759 C 344.176 -6.2587 0.0611639 0
M  V30 3760 H 344.409 -2.86388 0.79807 0
M  V30 3761 H 341.942 -1.45104 0.527653 0
M  V30 3762 H 343.9 -3.81789 -1.50824 0
M  V30 3763 H 342.561 -2.66085 -1.66906 0
M  V30 3764 H 341.754 -4.94229 -0.987596 0
M  V30 3765 H 341.356 -3.73141 0.253274 0
M  V30 3766 H 343.648 -6.73007 -0.778941 0
M  V30 3767 H 344.591 -7.04508 0.712362 0
M  V30 3768 H 344.999 -5.63639 -0.311602 0
M  V30 3769 N 344.397 -0.483516 -1.5 0
M  V30 3770 C 345.36 0.292965 -2.2732 0
M  V30 3771 C 346.36 0.909499 -1.32608 0
M  V30 3772 O 347.55 0.776745 -1.55924 0
M  V30 3773 C 344.682 1.41854 -3.09984 0
M  V30 3774 H 345.875 -0.385289 -2.97415 0
M  V30 3775 H 343.428 -0.237942 -1.54478 0
M  V30 3776 H 344.163 2.13148 -2.44414 0
M  V30 3777 H 343.948 0.982114 -3.79601 0
M  V30 3778 H 345.438 1.96597 -3.68429 0
M  V30 3779 N 345.875 1.56104 -0.216619 0
M  V30 3780 C 347.286 1.844 0.292128 0
M  V30 3781 C 347.637 1.13788 1.59833 0
M  V30 3782 O 346.762 0.405888 2.12559 0
M  V30 3783 C 347.357 3.3452 0.53681 0
M  V30 3784 C 345.916 3.63151 0.989876 0
M  V30 3785 C 345.063 2.77255 0.0502302 0
M  V30 3786 H 348.014 1.52481 -0.439926 0
M  V30 3787 H 348.035 3.54459 1.38345 0
M  V30 3788 H 347.547 3.85885 -0.414031 0
M  V30 3789 H 345.648 3.17238 1.95425 0
M  V30 3790 H 345.761 4.71177 0.867698 0
M  V30 3791 H 344.125 2.48555 0.556117 0
M  V30 3792 H 344.908 3.31416 -0.89544 0
M  V30 3793 N 347.353 -0.0568162 1.57498 0
M  V30 3794 C 348.283 -1.06593 2.0775 0
M  V30 3795 C 349.264 -1.39448 0.974082 0
M  V30 3796 O 350.449 -1.48815 1.24771 0
M  V30 3797 C 347.579 -2.37509 2.5339 0
M  V30 3798 C 346.533 -2.1897 3.67745 0
M  V30 3799 C 345.859 -3.55402 3.99492 0
M  V30 3800 C 347.159 -1.59859 4.97235 0
M  V30 3801 H 348.853 -0.647706 2.9231 0
M  V30 3802 H 346.399 -0.310116 1.40621 0
M  V30 3803 H 348.352 -3.08409 2.87162 0
M  V30 3804 H 347.076 -2.8134 1.65878 0
M  V30 3805 H 345.735 -1.50508 3.3428 0
M  V30 3806 H 345.383 -3.9683 3.09088 0
M  V30 3807 H 345.083 -3.43831 4.76502 0
M  V30 3808 H 346.607 -4.27708 4.35773 0
M  V30 3809 H 348.021 -2.20642 5.29141 0
M  V30 3810 H 346.418 -1.58942 5.78669 0
M  V30 3811 H 347.488 -0.561506 4.81638 0
M  V30 3812 N 348.832 -1.54138 -0.328536 0
M  V30 3813 C 350.072 -1.73827 -1.07534 0
M  V30 3814 C 350.436 -0.498777 -1.85408 0
M  V30 3815 O 351.637 -0.572937 -2.62623 0
M  V30 3816 C 349.908 -2.97573 -1.97952 0
M  V30 3817 S 351.467 -3.38143 -2.79652 0
M  V30 3818 H 348.285 -0.611287 -0.36311 0
M  V30 3819 H 350.887 -1.92306 -0.351931 0
M  V30 3820 H 349.591 -3.85939 -1.39569 0
M  V30 3821 H 349.122 -2.81603 -2.74706 0
M  V30 3822 H 351.137 -2.93052 -4.00418 0
M  V30 3823 N 350.31 0.590341 -1.46126 0
M  V30 3824 C 351.24 1.71032 -1.58966 0
M  V30 3825 C 352.221 1.64302 -0.440335 0
M  V30 3826 O 353.406 1.82436 -0.665634 0
M  V30 3827 C 350.536 3.09665 -1.57241 0
M  V30 3828 C 349.49 3.31221 -2.71066 0
M  V30 3829 C 348.816 4.70303 -2.54399 0
M  V30 3830 C 350.116 3.19796 -4.1295 0
M  V30 3831 H 351.81 1.60543 -2.52718 0
M  V30 3832 H 349.356 0.770933 -1.21625 0
M  V30 3833 H 351.309 3.87831 -1.64819 0
M  V30 3834 H 350.033 3.21036 -0.600289 0
M  V30 3835 H 348.692 2.55452 -2.62944 0
M  V30 3836 H 348.34 4.78429 -1.55288 0
M  V30 3837 H 348.04 4.85679 -3.30741 0
M  V30 3838 H 349.564 5.50647 -2.63857 0
M  V30 3839 H 350.978 3.87815 -4.22223 0
M  V30 3840 H 349.375 3.46696 -4.89818 0
M  V30 3841 H 350.445 2.16983 -4.33643 0
M  V30 3842 N 351.788 1.33704 0.83433 0
M  V30 3843 C 352.721 1.18675 1.94914 0
M  V30 3844 C 353.699 0.0811145 1.62398 0
M  V30 3845 O 354.883 0.244186 1.86912 0
M  V30 3846 C 352.01 0.821231 3.28593 0
M  V30 3847 C 351.056 1.93501 3.80079 0
M  V30 3848 S 351.889 3.54671 4.01209 0
M  V30 3849 C 353.045 3.20136 5.37833 0
M  V30 3850 H 353.278 2.13043 2.07364 0
M  V30 3851 H 350.811 1.18598 0.988624 0
M  V30 3852 H 352.769 0.617123 4.05835 0
M  V30 3853 H 351.43 -0.103927 3.13928 0
M  V30 3854 H 350.623 1.63273 4.76821 0
M  V30 3855 H 350.225 2.09601 3.09747 0
M  V30 3856 H 352.517 2.71242 6.20833 0
M  V30 3857 H 353.46 4.15975 5.73036 0
M  V30 3858 H 353.868 2.56613 5.02802 0
M  V30 3859 N 353.266 -1.05314 1.17247 0
M  V30 3860 C 354.512 -1.78557 0.961513 0
M  V30 3861 C 354.845 -1.87419 -0.508697 0
M  V30 3862 O 354.12 -1.37307 -1.37757 0
M  V30 3863 C 354.403 -3.22514 1.60176 0
M  V30 3864 C 354.256 -3.21673 3.14399 0
M  V30 3865 C 355.575 -4.20318 1.30463 0
M  V30 3866 H 352.694 -0.6482 0.350723 0
M  V30 3867 H 355.336 -1.23102 1.44727 0
M  V30 3868 H 353.486 -3.69867 1.18871 0
M  V30 3869 H 355.158 -2.82405 3.64753 0
M  V30 3870 H 353.401 -2.60048 3.47214 0
M  V30 3871 H 354.072 -4.23271 3.54324 0
M  V30 3872 H 356.548 -3.81454 1.66229 0
M  V30 3873 H 355.424 -5.19289 1.77848 0
M  V30 3874 H 355.685 -4.41526 0.22521 0
M  V30 3875 N 354.744 -0.972509 -1.24016 0
M  V30 3876 C 355.674 -0.525548 -2.27509 0
M  V30 3877 C 356.655 0.437262 -1.64384 0
M  V30 3878 O 357.84 0.332343 -1.91335 0
M  V30 3879 C 354.97 0.180448 -3.46831 0
M  V30 3880 C 353.924 -0.698859 -4.22256 0
M  V30 3881 C 353.25 0.138903 -5.3452 0
M  V30 3882 C 354.55 -1.98582 -4.83076 0
M  V30 3883 H 356.244 -1.39058 -2.65148 0
M  V30 3884 H 353.79 -0.67009 -1.27459 0
M  V30 3885 H 355.743 0.504387 -4.18371 0
M  V30 3886 H 354.467 1.07987 -3.08231 0
M  V30 3887 H 353.126 -1.00614 -3.52523 0
M  V30 3888 H 352.774 1.03862 -4.9216 0
M  V30 3889 H 352.474 -0.446259 -5.85903 0
M  V30 3890 H 353.998 0.457404 -6.08884 0
M  V30 3891 H 355.412 -1.72715 -5.46665 0
M  V30 3892 H 353.809 -2.5181 -5.44713 0
M  V30 3893 H 354.879 -2.67769 -4.04262 0
M  V30 3894 N 356.222 1.38976 -0.743202 0
M  V30 3895 C 357.185 2.28901 -0.117014 0
M  V30 3896 C 358.185 1.46698 0.658503 0
M  V30 3897 O 359.375 1.67274 0.486305 0
M  V30 3898 C 356.507 3.30309 0.84315 0
M  V30 3899 H 357.7 2.8578 -0.909373 0
M  V30 3900 H 355.253 1.47761 -0.509547 0
M  V30 3901 H 355.988 2.785 1.66157 0
M  V30 3902 H 355.773 3.91029 0.289594 0
M  V30 3903 H 357.263 3.97577 1.2776 0
M  V30 3904 N 357.7 0.491464 1.49741 0
M  V30 3905 C 358.93 -0.0534375 2.06531 0
M  V30 3906 C 359.338 -1.32233 1.35318 0
M  V30 3907 O 358.681 -1.78781 0.422243 0
M  V30 3908 C 358.743 -0.387034 3.57411 0
M  V30 3909 C 358.407 0.782764 4.50246 0
M  V30 3910 C 359.404 1.67059 4.92329 0
M  V30 3911 C 357.089 0.978866 4.9267 0
M  V30 3912 C 359.083 2.73874 5.75562 0
M  V30 3913 C 356.77 2.05022 5.75682 0
M  V30 3914 C 357.768 2.92851 6.17031 0
M  V30 3915 O 357.456 3.98138 6.98385 0
M  V30 3916 H 357.188 0.0129324 0.675876 0
M  V30 3917 H 359.742 0.685238 1.93633 0
M  V30 3918 H 357.972 -1.17918 3.68283 0
M  V30 3919 H 359.661 -0.869419 3.96479 0
M  V30 3920 H 360.427 1.53086 4.60206 0
M  V30 3921 H 356.306 0.304646 4.59992 0
M  V30 3922 H 359.85 3.42458 6.07757 0
M  V30 3923 H 355.747 2.18993 6.07217 0
M  V30 3924 H 356.515 3.95374 7.16674 0
M  V30 3925 N 359.178 -1.55987 0.224894 0
M  V30 3926 C 360.108 -2.23426 -0.678457 0
M  V30 3927 C 361.089 -1.20709 -1.19847 0
M  V30 3928 O 362.274 -1.49304 -1.24186 0
M  V30 3929 C 359.404 -2.91676 -1.88527 0
M  V30 3930 C 358.358 -4.00893 -1.49896 0
M  V30 3931 C 357.684 -4.56455 -2.78483 0
M  V30 3932 C 358.984 -5.17769 -0.686461 0
M  V30 3933 H 360.678 -2.99175 -0.116173 0
M  V30 3934 H 358.224 -1.43897 -0.054436 0
M  V30 3935 H 360.177 -3.37547 -2.5227 0
M  V30 3936 H 358.901 -2.1338 -2.47258 0
M  V30 3937 H 357.56 -3.55758 -0.884985 0
M  V30 3938 H 357.208 -3.74886 -3.35365 0
M  V30 3939 H 356.908 -5.30169 -2.53368 0
M  V30 3940 H 358.432 -5.05047 -3.43162 0
M  V30 3941 H 359.846 -5.60001 -1.22767 0
M  V30 3942 H 358.243 -5.97735 -0.532259 0
M  V30 3943 H 359.313 -4.83932 0.306196 0
M  V30 3944 N 360.656 0.0484629 -1.57525 0
M  V30 3945 C 361.588 1.08222 -2.02041 0
M  V30 3946 C 362.601 1.33621 -0.930012 0
M  V30 3947 O 363.79 1.3145 -1.20761 0
M  V30 3948 C 360.89 2.42818 -2.36416 0
M  V30 3949 C 360.063 2.37049 -3.67596 0
M  V30 3950 C 359.122 3.53937 -3.89378 0
M  V30 3951 O 358.148 3.34308 -4.60681 0
M  V30 3952 N 359.35 4.75126 -3.3352 0
M  V30 3953 H 362.115 0.702946 -2.9134 0
M  V30 3954 H 359.676 0.236745 -1.6016 0
M  V30 3955 H 361.668 3.197 -2.48141 0
M  V30 3956 H 360.238 2.72661 -1.52888 0
M  V30 3957 H 359.458 1.45395 -3.66407 0
M  V30 3958 H 360.746 2.30318 -4.53686 0
M  V30 3959 H 360.144 4.93976 -2.75688 0
M  V30 3960 H 358.701 5.49439 -3.50656 0
M  V30 3961 N 362.134 1.5431 0.320358 0
M  V30 3962 C 363.383 1.7188 1.05546 0
M  V30 3963 C 363.696 0.501143 1.89071 0
M  V30 3964 O 364.902 0.558258 2.65699 0
M  V30 3965 C 363.358 3.04025 1.92605 0
M  V30 3966 C 362.966 4.33207 1.14176 0
M  V30 3967 C 364.71 3.30959 2.65832 0
M  V30 3968 C 362.617 5.56412 2.00399 0
M  V30 3969 H 361.547 0.640547 0.397763 0
M  V30 3970 H 364.198 1.80802 0.313522 0
M  V30 3971 H 362.58 2.89019 2.7071 0
M  V30 3972 H 363.754 4.58989 0.40819 0
M  V30 3973 H 362.069 4.13062 0.526165 0
M  V30 3974 H 364.666 4.20203 3.30656 0
M  V30 3975 H 365.009 2.48979 3.33639 0
M  V30 3976 H 365.542 3.46847 1.94787 0
M  V30 3977 H 362.281 6.41004 1.37094 0
M  V30 3978 H 361.801 5.34844 2.7148 0
M  V30 3979 H 363.48 5.92938 2.58908 0
M  V30 3980 N 363.613 -0.582584 1.46437 0
M  V30 3981 C 364.86 -1.34079 1.51753 0
M  V30 3982 C 365.188 -1.93762 0.169299 0
M  V30 3983 O 364.443 -1.76989 -0.835062 0
M  V30 3984 C 364.742 -2.48964 2.56421 0
M  V30 3985 C 364.408 -2.07273 4.00436 0
M  V30 3986 C 363.07 -1.95618 4.39644 0
M  V30 3987 C 365.422 -1.75111 4.90903 0
M  V30 3988 C 362.75 -1.5006 5.67185 0
M  V30 3989 C 365.102 -1.31032 6.18881 0
M  V30 3990 C 363.766 -1.17954 6.56996 0
M  V30 3991 H 363.036 -0.49063 0.555304 0
M  V30 3992 H 365.683 -0.656007 1.79913 0
M  V30 3993 H 363.988 -3.22889 2.21923 0
M  V30 3994 H 365.685 -3.07178 2.57765 0
M  V30 3995 H 362.275 -2.17279 3.69443 0
M  V30 3996 H 366.459 -1.83001 4.61329 0
M  V30 3997 H 361.715 -1.38577 5.95488 0
M  V30 3998 H 365.889 -1.052 6.88408 0
M  V30 3999 H 363.516 -0.824279 7.55718 0
M  V30 4000 N 365.091 -1.34144 -0.827227 0
M  V30 4001 C 366.507 -1.13732 -1.11969 0
M  V30 4002 C 366.707 0.0640463 -2.01398 0
M  V30 4003 O 365.763 0.740856 -2.41387 0
M  V30 4004 C 367.076 -2.43047 -1.77055 0
M  V30 4005 C 368.624 -2.49063 -1.89569 0
M  V30 4006 C 369.099 -3.78369 -2.58072 0
M  V30 4007 N 370.59 -3.79505 -2.65575 0
M  V30 4008 C 371.325 -4.76274 -3.19297 0
M  V30 4009 N 370.821 -5.83424 -3.73616 0
M  V30 4010 N 372.614 -4.63735 -3.17658 0
M  V30 4011 H 364.765 -2.11126 -0.232296 0
M  V30 4012 H 367.028 -0.933424 -0.165602 0
M  V30 4013 H 366.734 -3.31025 -1.18807 0
M  V30 4014 H 366.608 -2.56066 -2.76966 0
M  V30 4015 H 368.995 -1.61527 -2.46968 0
M  V30 4016 H 369.076 -2.39975 -0.885745 0
M  V30 4017 H 368.72 -4.66293 -2.01329 0
M  V30 4018 H 368.65 -3.84737 -3.59562 0
M  V30 4019 H 371.141 -3.02074 -2.27068 0
M  V30 4020 H 371.454 -6.53282 -4.12846 0
M  V30 4021 H 369.799 -5.87143 -3.71871 0
M  V30 4022 H 372.99 -3.79177 -2.74486 0
M  V30 4023 H 373.163 -5.39318 -3.59221 0
M  V30 4024 N 366.569 1.04691 -1.17803 0
M  V30 4025 C 367.516 2.12557 -0.899343 0
M  V30 4026 C 368.486 1.65339 0.158771 0
M  V30 4027 O 369.671 1.90789 0.0204797 0
M  V30 4028 C 366.811 3.42481 -0.424315 0
M  V30 4029 C 365.924 4.03346 -1.54713 0
M  V30 4030 C 365.059 5.21208 -1.02546 0
M  V30 4031 C 364.098 5.74089 -2.12339 0
M  V30 4032 N 363.235 6.83247 -1.61612 0
M  V30 4033 H 368.075 2.35734 -1.823 0
M  V30 4034 H 365.612 1.1564 -0.909159 0
M  V30 4035 H 367.57 4.16996 -0.130421 0
M  V30 4036 H 366.2 3.19471 0.462377 0
M  V30 4037 H 365.252 3.2622 -1.95664 0
M  V30 4038 H 366.564 4.38628 -2.37501 0
M  V30 4039 H 365.718 6.02812 -0.685718 0
M  V30 4040 H 364.457 4.87414 -0.167084 0
M  V30 4041 H 363.462 4.91111 -2.47165 0
M  V30 4042 H 364.687 6.0993 -2.98601 0
M  V30 4043 H 362.633 6.5134 -0.780533 0
M  V30 4044 H 362.55 7.17559 -2.38003 0
M  V30 4045 H 363.818 7.68491 -1.30545 0
M  V30 4046 N 368.047 0.979072 1.23499 0
M  V30 4047 C 368.977 0.537606 2.27227 0
M  V30 4048 C 369.958 -0.428539 1.64613 0
M  V30 4049 O 371.143 -0.322191 1.91509 0
M  V30 4050 C 368.273 -0.162052 3.46922 0
M  V30 4051 C 367.227 0.721242 4.21879 0
M  V30 4052 C 366.553 -0.110555 5.34586 0
M  V30 4053 C 367.853 2.01141 4.82016 0
M  V30 4054 H 369.547 1.40462 2.64406 0
M  V30 4055 H 367.093 0.67684 1.27102 0
M  V30 4056 H 369.046 -0.482192 4.18632 0
M  V30 4057 H 367.77 -1.06351 3.08799 0
M  V30 4058 H 366.429 1.02482 3.51984 0
M  V30 4059 H 366.077 -1.0125 4.92704 0
M  V30 4060 H 365.777 0.477325 5.85658 0
M  V30 4061 H 367.301 -0.425107 6.09118 0
M  V30 4062 H 368.715 1.75612 5.45741 0
M  V30 4063 H 367.112 2.54695 5.43369 0
M  V30 4064 H 368.182 2.69909 4.02836 0
M  V30 4065 N 369.525 -1.3858 0.750561 0
M  V30 4066 C 370.771 -2.0095 0.31477 0
M  V30 4067 C 371.126 -1.58509 -1.09053 0
M  V30 4068 O 370.419 -0.8112 -1.7358 0
M  V30 4069 C 370.613 -3.55455 0.372373 0
M  V30 4070 C 370.442 -4.12898 1.78173 0
M  V30 4071 C 369.212 -4.44797 2.39757 0
M  V30 4072 C 371.41 -4.35366 2.7379 0
M  V30 4073 N 369.392 -4.87831 3.72685 0
M  V30 4074 C 370.763 -4.80775 3.91478 0
M  V30 4075 C 372.818 -4.1746 2.71351 0
M  V30 4076 C 371.521 -5.10155 5.07084 0
M  V30 4077 C 373.547 -4.47963 3.86113 0
M  V30 4078 C 372.909 -4.93593 5.02539 0
M  V30 4079 H 369.008 -0.765083 0.161776 0
M  V30 4080 H 371.592 -1.68246 0.979867 0
M  V30 4081 H 369.763 -3.87512 -0.26244 0
M  V30 4082 H 371.495 -4.04614 -0.0834479 0
M  V30 4083 H 368.25 -4.33135 1.91548 0
M  V30 4084 H 368.674 -5.13685 4.40972 0
M  V30 4085 H 373.316 -3.81372 1.82524 0
M  V30 4086 H 371.034 -5.45141 5.96529 0
M  V30 4087 H 374.62 -4.35717 3.85542 0
M  V30 4088 H 373.5 -5.16746 5.89867 0
M  V30 4089 N 371.003 -0.499398 -1.49478 0
M  V30 4090 C 372.243 0.0440751 -2.04352 0
M  V30 4091 C 372.607 1.34423 -1.37093 0
M  V30 4092 O 373.808 1.97184 -1.82679 0
M  V30 4093 C 372.079 0.194918 -3.56868 0
M  V30 4094 S 373.638 0.69287 -4.33295 0
M  V30 4095 H 370.456 0.00253458 -0.710995 0
M  V30 4096 H 373.058 -0.673 -1.83551 0
M  V30 4097 H 371.762 -0.756672 -4.03364 0
M  V30 4098 H 371.293 0.93728 -3.82071 0
M  V30 4099 H 373.308 1.96226 -4.55752 0
M  V30 4100 N 372.481 1.55866 -0.233164 0
M  V30 4101 C 373.897 1.59133 0.121988 0
M  V30 4102 C 374.097 1.25016 1.58029 0
M  V30 4103 O 373.153 0.990922 2.32243 0
M  V30 4104 C 374.466 2.99932 -0.214792 0
M  V30 4105 C 376.014 3.12601 -0.157971 0
M  V30 4106 C 376.489 4.55597 -0.46859 0
M  V30 4107 N 377.98 4.61305 -0.418585 0
M  V30 4108 C 378.715 5.69903 -0.63227 0
M  V30 4109 N 378.211 6.86819 -0.90835 0
M  V30 4110 N 380.004 5.59264 -0.563913 0
M  V30 4111 H 372.155 1.76315 -1.18434 0
M  V30 4112 H 374.418 0.820093 -0.475553 0
M  V30 4113 H 374.124 3.29588 -1.22739 0
M  V30 4114 H 373.998 3.74327 0.464691 0
M  V30 4115 H 376.385 2.82735 0.845283 0
M  V30 4116 H 376.466 2.40511 -0.871102 0
M  V30 4117 H 376.11 4.86182 -1.46934 0
M  V30 4118 H 376.04 5.25928 0.265865 0
M  V30 4119 H 378.531 3.77297 -0.213368 0
M  V30 4120 H 378.844 7.65507 -1.05919 0
M  V30 4121 H 377.189 6.88536 -0.945673 0
M  V30 4122 H 380.38 4.66802 -0.348372 0
M  V30 4123 H 380.553 6.43831 -0.733847 0
M  V30 4124 N 373.959 -0.0401083 1.57549 0
M  V30 4125 C 374.891 -1.07149 2.02612 0
M  V30 4126 C 375.904 -1.33126 0.937085 0
M  V30 4127 O 377.093 -1.30808 1.21456 0
M  V30 4128 C 374.193 -2.41561 2.37701 0
M  V30 4129 C 373.366 -2.35096 3.68848 0
M  V30 4130 C 372.425 -3.51867 3.91249 0
M  V30 4131 O 371.451 -3.3186 4.62447 0
M  V30 4132 N 372.653 -4.73351 3.36035 0
M  V30 4133 H 375.418 -0.687485 2.91708 0
M  V30 4134 H 372.979 -0.228248 1.60283 0
M  V30 4135 H 374.971 -3.18379 2.49833 0
M  V30 4136 H 373.541 -2.71846 1.54332 0
M  V30 4137 H 372.761 -1.4345 3.67173 0
M  V30 4138 H 374.049 -2.27908 4.54901 0
M  V30 4139 H 373.447 -4.92507 2.78304 0
M  V30 4140 H 372.004 -5.47572 3.53565 0
M  V30 4141 N 375.437 -1.54477 -0.31217 0
M  V30 4142 C 376.686 -1.72438 -1.04633 0
M  V30 4143 C 376.999 -0.511163 -1.88803 0
M  V30 4144 O 378.205 -0.572341 -2.65399 0
M  V30 4145 C 376.661 -3.05043 -1.9099 0
M  V30 4146 C 376.269 -4.33806 -1.11877 0
M  V30 4147 C 378.013 -3.32364 -2.64073 0
M  V30 4148 C 375.92 -5.57467 -1.97445 0
M  V30 4149 H 374.85 -0.642647 -0.394361 0
M  V30 4150 H 377.501 -1.80966 -0.303929 0
M  V30 4151 H 375.883 -2.90451 -2.69173 0
M  V30 4152 H 377.057 -4.59199 -0.383843 0
M  V30 4153 H 375.372 -4.13336 -0.504252 0
M  V30 4154 H 377.969 -4.21951 -3.28423 0
M  V30 4155 H 378.312 -2.50745 -3.32314 0
M  V30 4156 H 378.845 -3.47875 -1.92944 0
M  V30 4157 H 375.584 -6.41722 -1.33692 0
M  V30 4158 H 375.104 -5.36277 -2.6864 0
M  V30 4159 H 376.783 -5.94303 -2.5576 0
M  V30 4160 N 376.915 0.57481 -1.46744 0
M  V30 4161 C 378.326 1.15695 -1.46532 0
M  V30 4162 C 378.677 1.95068 -0.210425 0
M  V30 4163 O 377.802 2.05241 0.685944 0
M  V30 4164 C 378.397 2.1048 -2.65487 0
M  V30 4165 C 376.956 2.64002 -2.68291 0
M  V30 4166 C 376.103 1.40026 -2.39349 0
M  V30 4167 H 379.054 0.362325 -1.54509 0
M  V30 4168 H 379.075 2.94074 -2.41455 0
M  V30 4169 H 378.587 1.52683 -3.56805 0
M  V30 4170 H 376.688 3.25646 -1.81067 0
M  V30 4171 H 376.801 3.06197 -3.68483 0
M  V30 4172 H 375.165 1.70106 -1.89568 0
M  V30 4173 H 375.948 0.840485 -3.32852 0
M  V30 4174 N 378.394 1.34581 0.820102 0
M  V30 4175 C 379.642 1.26845 1.57336 0
M  V30 4176 C 379.963 -0.160667 1.94337 0
M  V30 4177 O 379.233 -1.09396 1.6251 0
M  V30 4178 H 377.813 0.466514 0.583415 0
M  V30 4179 H 380.475 1.68526 0.979027 0
M  V30 4180 H 379.571 1.87513 2.4949 0
M  V30 4181 N 379.872 -1.04064 1.18357 0
M  V30 4182 C 381.1 -1.80916 1.00384 0
M  V30 4183 C 381.515 -1.83414 -0.447738 0
M  V30 4184 O 380.872 -1.26962 -1.31099 0
M  V30 4185 C 380.923 -3.26516 1.55144 0
M  V30 4186 O 380.644 -3.2424 2.94618 0
M  V30 4187 C 382.145 -4.20013 1.41789 0
M  V30 4188 H 379.365 -0.569728 0.354474 0
M  V30 4189 H 381.909 -1.31151 1.56906 0
M  V30 4190 H 380.064 -3.73512 1.02798 0
M  V30 4191 H 380.478 -4.15452 3.20156 0
M  V30 4192 H 381.952 -5.20111 1.84901 0
M  V30 4193 H 382.429 -4.37667 0.36661 0
M  V30 4194 H 383.035 -3.78881 1.93207 0
M  V30 4195 N 381.35 -0.985608 -1.22978 0
M  V30 4196 C 382.575 -0.675254 -1.961 0
M  V30 4197 C 383 0.752154 -1.72407 0
M  V30 4198 O 382.358 1.5131 -0.998751 0
M  V30 4199 C 382.406 -0.977899 -3.47087 0
M  V30 4200 O 381.51 -0.072685 -4.12336 0
M  V30 4201 H 380.851 -0.253443 -0.613728 0
M  V30 4202 H 383.381 -1.32061 -1.56272 0
M  V30 4203 H 383.391 -0.916739 -3.97567 0
M  V30 4204 H 382.066 -2.01807 -3.63657 0
M  V30 4205 H 380.643 -0.188703 -3.72422 0
M  V30 4206 N 382.828 1.3818 -0.7579 0
M  V30 4207 C 384.053 2.04827 -0.325679 0
M  V30 4208 C 384.478 1.56788 1.03919 0
M  V30 4209 O 383.836 0.721811 1.66312 0
M  V30 4210 C 383.884 3.58774 -0.362447 0
M  V30 4211 O 382.988 4.07372 0.642033 0
M  V30 4212 H 382.329 0.64833 -0.143402 0
M  V30 4213 H 384.859 1.7677 -1.03023 0
M  V30 4214 H 384.869 4.07434 -0.214844 0
M  V30 4215 H 383.544 3.93096 -1.35824 0
M  V30 4216 H 382.121 3.70068 0.458688 0
M  V30 4217 N 384.306 0.507319 1.49211 0
M  V30 4218 C 385.552 -0.0350047 2.0277 0
M  V30 4219 C 385.885 -1.3606 1.38569 0
M  V30 4220 O 385.16 -1.87321 0.523542 0
M  V30 4221 C 385.443 -0.180916 3.59645 0
M  V30 4222 C 385.296 1.16825 4.34364 0
M  V30 4223 C 386.615 -0.918558 4.30407 0
M  V30 4224 H 383.734 -0.0112473 0.736914 0
M  V30 4225 H 386.376 0.659956 1.7817 0
M  V30 4226 H 384.526 -0.772826 3.80736 0
M  V30 4227 H 386.198 1.79952 4.24753 0
M  V30 4228 H 384.441 1.75594 3.96673 0
M  V30 4229 H 385.112 1.01939 5.42506 0
M  V30 4230 H 387.588 -0.41649 4.1401 0
M  V30 4231 H 386.464 -0.989505 5.39907 0
M  V30 4232 H 386.725 -1.96373 3.96093 0
M  V30 4233 N 385.784 -1.5574 0.241426 0
M  V30 4234 C 387.03 -1.99104 -0.385406 0
M  V30 4235 C 387.363 -1.1293 -1.57988 0
M  V30 4236 O 386.638 -0.191449 -1.93555 0
M  V30 4237 C 386.921 -3.51087 -0.800616 0
M  V30 4238 C 386.774 -4.48028 0.398874 0
M  V30 4239 C 388.093 -4.08015 -1.64959 0
M  V30 4240 H 385.212 -0.723848 -0.138614 0
M  V30 4241 H 387.854 -1.86903 0.341642 0
M  V30 4242 H 386.004 -3.61615 -1.4201 0
M  V30 4243 H 387.676 -4.49487 1.03726 0
M  V30 4244 H 385.919 -4.21077 1.04293 0
M  V30 4245 H 386.59 -5.51962 0.0651056 0
M  V30 4246 H 389.066 -4.00555 -1.12672 0
M  V30 4247 H 387.942 -5.14635 -1.90898 0
M  V30 4248 H 388.203 -3.56131 -2.61961 0
M  V30 4249 N 387.262 0.0317525 -1.57568 0
M  V30 4250 C 388.194 1.06073 -2.03178 0
M  V30 4251 C 389.207 1.32627 -0.944132 0
M  V30 4252 O 390.396 1.30162 -1.22148 0
M  V30 4253 C 387.496 2.40297 -2.38978 0
M  V30 4254 C 386.669 2.33137 -3.70089 0
M  V30 4255 C 385.728 3.49787 -3.9311 0
M  V30 4256 O 384.754 3.29403 -4.64201 0
M  V30 4257 N 385.956 4.71562 -3.38541 0
M  V30 4258 H 388.721 0.672006 -2.92069 0
M  V30 4259 H 386.282 0.219745 -1.60402 0
M  V30 4260 H 388.274 3.1705 -2.51518 0
M  V30 4261 H 386.844 2.71024 -1.55771 0
M  V30 4262 H 386.064 1.415 -3.67928 0
M  V30 4263 H 387.352 2.25493 -4.56104 0
M  V30 4264 H 386.75 4.91024 -2.80912 0
M  V30 4265 H 385.307 5.45689 -3.56464 0
M  V30 4266 N 388.74 1.54641 0.303973 0
M  V30 4267 C 390.156 1.45788 0.649463 0
M  V30 4268 C 390.356 0.64666 1.90842 0
M  V30 4269 O 389.412 0.153183 2.52035 0
M  V30 4270 C 390.725 2.89718 0.805227 0
M  V30 4271 C 392.273 2.99742 0.901305 0
M  V30 4272 C 392.748 4.44863 1.08909 0
M  V30 4273 N 394.239 4.48559 1.15536 0
M  V30 4274 C 394.974 5.58026 1.3189 0
M  V30 4275 N 394.47 6.77422 1.45161 0
M  V30 4276 N 396.263 5.45708 1.34755 0
M  V30 4277 H 388.414 2.05854 -0.523237 0
M  V30 4278 H 390.677 0.932186 -0.172431 0
M  V30 4279 H 390.383 3.51666 -0.0489108 0
M  V30 4280 H 390.257 3.36964 1.69513 0
M  V30 4281 H 392.644 2.3791 1.74593 0
M  V30 4282 H 392.725 2.55797 -0.0125531 0
M  V30 4283 H 392.369 5.07288 0.249241 0
M  V30 4284 H 392.299 4.86436 2.01713 0
M  V30 4285 H 394.79 3.6254 1.06646 0
M  V30 4286 H 395.103 7.56604 1.57387 0
M  V30 4287 H 393.448 6.80292 1.42223 0
M  V30 4288 H 396.639 4.51378 1.23996 0
M  V30 4289 H 396.812 6.3107 1.47157 0
M  V30 4290 N 390.218 -0.567019 1.47046 0
M  V30 4291 C 391.165 -1.67489 1.58796 0
M  V30 4292 C 392.135 -1.60399 0.43144 0
M  V30 4293 O 393.32 -1.79378 0.650233 0
M  V30 4294 C 390.46 -3.05821 1.59899 0
M  V30 4295 C 389.573 -3.2342 2.86397 0
M  V30 4296 C 388.708 -4.52093 2.789 0
M  V30 4297 C 387.747 -4.6309 4.00267 0
M  V30 4298 N 386.884 -5.83106 3.91064 0
M  V30 4299 H 391.724 -1.56785 2.53422 0
M  V30 4300 H 389.261 -0.763896 1.2571 0
M  V30 4301 H 391.219 -3.8591 1.58522 0
M  V30 4302 H 389.849 -3.15384 0.687929 0
M  V30 4303 H 388.901 -2.3683 2.97684 0
M  V30 4304 H 390.213 -3.27412 3.76301 0
M  V30 4305 H 389.367 -5.4043 2.75718 0
M  V30 4306 H 388.106 -4.50565 1.86662 0
M  V30 4307 H 387.111 -3.73168 4.03765 0
M  V30 4308 H 388.336 -4.66386 4.93621 0
M  V30 4309 H 386.282 -5.82546 3.01623 0
M  V30 4310 H 386.199 -5.88434 4.74638 0
M  V30 4311 H 387.467 -6.73831 3.91882 0
M  V30 4312 N 391.696 -1.35014 -0.812953 0
M  V30 4313 C 392.942 -1.29129 -1.57154 0
M  V30 4314 C 393.297 0.134922 -1.91926 0
M  V30 4315 O 392.59 1.08373 -1.58006 0
M  V30 4316 C 392.784 -2.12524 -2.87347 0
M  V30 4317 C 392.613 -3.6311 -2.65294 0
M  V30 4318 C 391.383 -4.32363 -2.61516 0
M  V30 4319 C 393.581 -4.56897 -2.36114 0
M  V30 4320 N 391.563 -5.68735 -2.31113 0
M  V30 4321 C 392.934 -5.81345 -2.15494 0
M  V30 4322 C 394.989 -4.45706 -2.21925 0
M  V30 4323 C 393.692 -6.95862 -1.82122 0
M  V30 4324 C 395.718 -5.60066 -1.89948 0
M  V30 4325 C 395.08 -6.83539 -1.7016 0
M  V30 4326 H 391.179 -0.527764 -0.577052 0
M  V30 4327 H 393.763 -1.6983 -0.952146 0
M  V30 4328 H 391.934 -1.74104 -3.47192 0
M  V30 4329 H 393.666 -1.98207 -3.5284 0
M  V30 4330 H 390.421 -3.84907 -2.75941 0
M  V30 4331 H 390.845 -6.40694 -2.18724 0
M  V30 4332 H 395.487 -3.50855 -2.35925 0
M  V30 4333 H 393.205 -7.90685 -1.6686 0
M  V30 4334 H 396.791 -5.53357 -1.79687 0
M  V30 4335 H 395.671 -7.70531 -1.45777 0
M  V30 4336 N 393.175 1.03435 -1.18907 0
M  V30 4337 C 394.122 2.11591 -0.921837 0
M  V30 4338 C 395.092 1.65499 0.141226 0
M  V30 4339 O 396.277 1.908 0.000242829 0
M  V30 4340 C 393.417 3.42012 -0.460616 0
M  V30 4341 C 392.53 4.01682 -1.58982 0
M  V30 4342 C 391.665 5.20091 -1.08069 0
M  V30 4343 C 390.704 5.71805 -2.18416 0
M  V30 4344 N 389.841 6.81494 -1.68849 0
M  V30 4345 H 394.681 2.33787 -1.8479 0
M  V30 4346 H 392.218 1.1467 -0.921373 0
M  V30 4347 H 394.176 4.16834 -0.174642 0
M  V30 4348 H 392.806 3.19944 0.428467 0
M  V30 4349 H 391.858 3.24127 -1.99113 0
M  V30 4350 H 393.17 4.36084 -2.4214 0
M  V30 4351 H 392.324 6.02051 -0.749615 0
M  V30 4352 H 391.063 4.87209 -0.218771 0
M  V30 4353 H 390.068 4.88461 -2.5236 0
M  V30 4354 H 391.293 6.06728 -3.05054 0
M  V30 4355 H 389.239 6.50475 -0.849572 0
M  V30 4356 H 389.156 7.14994 -2.45601 0
M  V30 4357 H 390.424 7.67063 -1.38689 0
M  V30 4358 N 394.653 0.992116 1.22453 0
M  V30 4359 C 396.064 0.702776 1.72968 0
M  V30 4360 C 396.415 -0.780399 1.80012 0
M  V30 4361 O 395.54 -1.61007 1.44589 0
M  V30 4362 C 396.135 1.26903 3.14135 0
M  V30 4363 C 394.694 1.02909 3.62059 0
M  V30 4364 C 393.841 1.38969 2.39964 0
M  V30 4365 H 396.792 1.16457 1.07812 0
M  V30 4366 H 396.813 0.647223 3.74955 0
M  V30 4367 H 396.325 2.34851 3.08977 0
M  V30 4368 H 394.426 -0.0337979 3.72585 0
M  V30 4369 H 394.539 1.69191 4.48231 0
M  V30 4370 H 392.903 0.808279 2.41535 0
M  V30 4371 H 393.686 2.4792 2.37467 0
M  V30 4372 N 396.131 -1.37776 0.765217 0
M  V30 4373 C 397.061 -2.32945 0.160953 0
M  V30 4374 C 398.042 -1.55454 -0.690516 0
M  V30 4375 O 399.227 -1.83721 -0.629318 0
M  V30 4376 C 396.357 -3.39669 -0.724031 0
M  V30 4377 C 395.311 -4.27992 0.0256173 0
M  V30 4378 C 394.637 -5.25673 -0.978383 0
M  V30 4379 C 395.937 -5.08309 1.20082 0
M  V30 4380 H 397.631 -2.83728 0.955969 0
M  V30 4381 H 395.177 -1.36416 0.461149 0
M  V30 4382 H 397.13 -4.05219 -1.15652 0
M  V30 4383 H 395.854 -2.87396 -1.5515 0
M  V30 4384 H 394.513 -3.63964 0.438812 0
M  V30 4385 H 394.161 -4.69682 -1.80022 0
M  V30 4386 H 393.861 -5.85625 -0.481378 0
M  V30 4387 H 395.385 -5.94098 -1.40995 0
M  V30 4388 H 396.799 -5.67034 0.845307 0
M  V30 4389 H 395.196 -5.77554 1.62947 0
M  V30 4390 H 396.266 -4.41365 2.00811 0
M  V30 4391 N 397.609 -0.515225 -1.4894 0
M  V30 4392 C 398.541 0.292481 -2.27326 0
M  V30 4393 C 399.554 0.917838 -1.3446 0
M  V30 4394 O 400.743 0.798772 -1.5963 0
M  V30 4395 C 397.843 1.42803 -3.07344 0
M  V30 4396 C 397.016 0.907347 -4.27885 0
M  V30 4397 C 396.075 1.92222 -4.89834 0
M  V30 4398 O 395.101 1.48506 -5.49486 0
M  V30 4399 N 396.303 3.25355 -4.80754 0
M  V30 4400 H 399.068 -0.379721 -2.97285 0
M  V30 4401 H 396.629 -0.348638 -1.58102 0
M  V30 4402 H 398.621 2.10481 -3.45658 0
M  V30 4403 H 397.191 2.00414 -2.39902 0
M  V30 4404 H 396.411 0.0550218 -3.94162 0
M  V30 4405 H 397.699 0.538108 -5.05946 0
M  V30 4406 H 397.097 3.6355 -4.33414 0
M  V30 4407 H 395.654 3.88707 -5.23211 0
M  V30 4408 N 399.087 1.5561 -0.249682 0
M  V30 4409 C 400.498 1.84979 0.252949 0
M  V30 4410 C 400.849 1.17153 1.57384 0
M  V30 4411 O 399.974 0.450884 2.11651 0
M  V30 4412 C 400.569 3.35584 0.465732 0
M  V30 4413 C 399.128 3.65169 0.912624 0
M  V30 4414 C 398.275 2.77299 -0.00859085 0
M  V30 4415 H 401.226 1.51513 -0.47217 0
M  V30 4416 H 401.247 3.57313 1.30795 0
M  V30 4417 H 400.759 3.8492 -0.49579 0
M  V30 4418 H 398.86 3.21312 1.88652 0
M  V30 4419 H 398.973 4.72912 0.767559 0
M  V30 4420 H 397.337 2.49678 0.50327 0
M  V30 4421 H 398.12 3.29442 -0.965537 0
M  V30 4422 N 400.565 -0.0233959 1.57583 0
M  V30 4423 C 401.811 -0.714119 1.89811 0
M  V30 4424 C 402.144 -1.74702 0.848113 0
M  V30 4425 O 401.419 -1.94023 -0.136135 0
M  V30 4426 C 401.702 -1.37853 3.32669 0
M  V30 4427 C 401.555 -0.358764 4.48367 0
M  V30 4428 C 402.874 -2.31101 3.7454 0
M  V30 4429 H 399.993 -0.25814 0.690314 0
M  V30 4430 H 402.635 0.0230927 1.89986 0
M  V30 4431 H 400.785 -2.00689 3.3265 0
M  V30 4432 H 402.457 0.268115 4.6052 0
M  V30 4433 H 400.7 0.321387 4.32608 0
M  V30 4434 H 401.371 -0.862242 5.45224 0
M  V30 4435 H 403.847 -1.78304 3.75961 0
M  V30 4436 H 402.723 -2.74567 4.75294 0
M  V30 4437 H 402.984 -3.18018 3.0711 0
M  V30 4438 N 402.043 -1.548 -0.295768 0
M  V30 4439 C 403.268 -1.78653 -1.05346 0
M  V30 4440 C 403.693 -0.546894 -1.79974 0
M  V30 4441 O 403.051 0.502763 -1.7419 0
M  V30 4442 C 403.099 -2.99679 -2.00561 0
M  V30 4443 O 402.203 -2.7317 -3.08953 0
M  V30 4444 H 401.544 -0.59116 -0.302367 0
M  V30 4445 H 404.074 -2.01895 -0.331598 0
M  V30 4446 H 404.084 -3.27793 -2.42932 0
M  V30 4447 H 402.759 -3.89562 -1.4565 0
M  V30 4448 H 401.336 -2.56089 -2.71059 0
M  V30 4449 N 403.521 0.559213 -1.47345 0
M  V30 4450 C 404.453 1.68161 -1.55738 0
M  V30 4451 C 405.466 1.56636 -0.443744 0
M  V30 4452 O 406.655 1.6363 -0.713258 0
M  V30 4453 C 403.755 3.06611 -1.4437 0
M  V30 4454 C 402.928 3.4391 -2.70268 0
M  V30 4455 C 401.987 4.61515 -2.52765 0
M  V30 4456 O 401.013 4.66197 -3.26572 0
M  V30 4457 N 402.215 5.57883 -1.6046 0
M  V30 4458 H 404.98 1.61408 -2.52522 0
M  V30 4459 H 402.541 0.7458 -1.43699 0
M  V30 4460 H 404.533 3.83117 -1.30398 0
M  V30 4461 H 403.103 3.07602 -0.556766 0
M  V30 4462 H 402.323 2.56873 -2.99015 0
M  V30 4463 H 403.611 3.65605 -3.53851 0
M  V30 4464 H 403.009 5.56855 -0.996422 0
M  V30 4465 H 401.566 6.33723 -1.52441 0
M  V30 4466 N 404.999 1.35443 0.805782 0
M  V30 4467 C 406.41 1.25768 1.37983 0
M  V30 4468 C 406.761 -0.10958 1.95894 0
M  V30 4469 O 405.886 -1.01056 1.91355 0
M  V30 4470 C 406.481 2.27727 2.5085 0
M  V30 4471 C 405.04 2.2179 3.04115 0
M  V30 4472 C 404.187 2.13393 1.77084 0
M  V30 4473 H 407.138 1.4656 0.608752 0
M  V30 4474 H 407.159 1.90422 3.29424 0
M  V30 4475 H 406.671 3.27227 2.08671 0
M  V30 4476 H 404.772 1.25703 3.50756 0
M  V30 4477 H 404.885 3.13788 3.62042 0
M  V30 4478 H 403.249 1.59384 1.98668 0
M  V30 4479 H 404.032 3.14755 1.37056 0
M  V30 4480 N 406.477 -1.02803 1.19454 0
M  V30 4481 C 407.893 -1.28473 0.946937 0
M  V30 4482 C 408.093 -1.97881 -0.380202 0
M  V30 4483 O 407.149 -2.26719 -1.11151 0
M  V30 4484 C 408.462 -2.13099 2.12154 0
M  V30 4485 C 410.01 -2.26404 2.16126 0
M  V30 4486 C 410.485 -3.14402 3.33039 0
M  V30 4487 N 411.976 -3.21991 3.32981 0
M  V30 4488 C 412.711 -3.90272 4.20089 0
M  V30 4489 N 412.207 -4.60777 5.17355 0
M  V30 4490 N 414 -3.8668 4.07964 0
M  V30 4491 H 406.151 -0.561665 2.04839 0
M  V30 4492 H 408.414 -0.310438 0.89573 0
M  V30 4493 H 408.12 -1.69422 3.08203 0
M  V30 4494 H 407.994 -3.13813 2.09287 0
M  V30 4495 H 410.381 -2.69311 1.20647 0
M  V30 4496 H 410.462 -1.25237 2.23045 0
M  V30 4497 H 410.106 -2.72204 4.28798 0
M  V30 4498 H 410.036 -4.1563 3.23356 0
M  V30 4499 H 412.527 -2.71778 2.62574 0
M  V30 4500 H 412.84 -5.10513 5.80169 0
M  V30 4501 H 411.185 -4.5964 5.21302 0
M  V30 4502 H 414.376 -3.30739 3.31254 0
M  V30 4503 H 414.549 -4.39621 4.76064 0
M  V30 4504 N 407.956 -0.998596 -1.21925 0
M  V30 4505 C 409.204 -0.676325 -1.90448 0
M  V30 4506 C 409.525 0.794719 -1.78071 0
M  V30 4507 O 408.795 1.5701 -1.17152 0
M  V30 4508 H 407.375 -0.247165 -0.704925 0
M  V30 4509 H 410.037 -1.26633 -1.48156 0
M  V30 4510 H 409.133 -0.943858 -2.97486 0
M  V30 4511 N 409.434 1.37368 -0.772513 0
M  V30 4512 C 410.845 1.8231 -0.402493 0
M  V30 4513 C 411.196 1.6436 1.07146 0
M  V30 4514 O 410.321 1.15514 1.82991 0
M  V30 4515 C 410.916 3.30979 -0.723776 0
M  V30 4516 C 409.475 3.74195 -0.406802 0
M  V30 4517 C 408.622 2.59885 -0.967218 0
M  V30 4518 H 411.573 1.25829 -0.967099 0
M  V30 4519 H 411.594 3.80499 -0.00870832 0
M  V30 4520 H 411.106 3.44011 -1.7966 0
M  V30 4521 H 409.207 3.66732 0.658673 0
M  V30 4522 H 409.32 4.7027 -0.915588 0
M  V30 4523 H 407.684 2.51674 -0.391416 0
M  V30 4524 H 408.467 2.7571 -2.04546 0
M  V30 4525 N 410.912 0.523116 1.48665 0
M  V30 4526 C 412.16 -0.0134497 2.02096 0
M  V30 4527 C 412.481 -1.35418 1.40311 0
M  V30 4528 O 411.751 -1.87543 0.566074 0
M  V30 4529 H 410.331 -0.00795915 0.746958 0
M  V30 4530 H 412.993 0.685388 1.82451 0
M  V30 4531 H 412.089 -0.126849 3.11842 0
M  V30 4532 N 412.39 -1.55475 0.257931 0
M  V30 4533 C 413.322 -2.19192 -0.669881 0
M  V30 4534 C 414.335 -1.17148 -1.1305 0
M  V30 4535 O 415.524 -1.43959 -1.05537 0
M  V30 4536 C 412.624 -2.79016 -1.92363 0
M  V30 4537 C 411.797 -4.06586 -1.61265 0
M  V30 4538 C 410.856 -4.50622 -2.7171 0
M  V30 4539 O 409.882 -5.16765 -2.38627 0
M  V30 4540 N 411.084 -4.19325 -4.01431 0
M  V30 4541 H 413.849 -2.99441 -0.124635 0
M  V30 4542 H 411.41 -1.6171 0.0783311 0
M  V30 4543 H 413.402 -3.05427 -2.65511 0
M  V30 4544 H 411.972 -2.0286 -2.37837 0
M  V30 4545 H 411.192 -3.87646 -0.715811 0
M  V30 4546 H 412.48 -4.89737 -1.37967 0
M  V30 4547 H 411.878 -3.66247 -4.31138 0
M  V30 4548 H 410.435 -4.50547 -4.7101 0
M  V30 4549 N 413.868 0.0150385 -1.57593 0
M  V30 4550 C 415.279 0.559832 -1.78109 0
M  V30 4551 C 415.63 1.74814 -0.890756 0
M  V30 4552 O 414.755 2.16216 -0.0892482 0
M  V30 4553 C 415.35 1.02238 -3.23006 0
M  V30 4554 C 413.909 1.51258 -3.44671 0
M  V30 4555 C 413.056 0.456955 -2.73509 0
M  V30 4556 H 416.007 -0.211169 -1.57289 0
M  V30 4557 H 416.028 1.88912 -3.30292 0
M  V30 4558 H 415.54 0.157302 -3.87781 0
M  V30 4559 H 413.641 2.39905 -2.8509 0
M  V30 4560 H 413.754 1.55042 -4.5332 0
M  V30 4561 H 412.118 0.915196 -2.37689 0
M  V30 4562 H 412.901 -0.398896 -3.40975 0
M  V30 4563 N 415.346 1.54954 0.287554 0
M  V30 4564 C 416.574 1.78881 1.03967 0
M  V30 4565 C 416.989 0.554894 1.80462 0
M  V30 4566 O 416.346 -0.475676 1.76192 0
M  V30 4567 C 416.397 3.00488 2.0097 0
M  V30 4568 O 416.118 4.19113 1.27577 0
M  V30 4569 C 417.619 3.36907 2.88112 0
M  V30 4570 H 414.839 0.596259 0.307761 0
M  V30 4571 H 417.383 2.01937 0.322749 0
M  V30 4572 H 415.538 2.79601 2.68145 0
M  V30 4573 H 415.952 4.87765 1.92835 0
M  V30 4574 H 417.426 4.25205 3.52001 0
M  V30 4575 H 417.903 2.55659 3.57121 0
M  V30 4576 H 418.509 3.60001 2.26449 0
M  V30 4577 N 416.824 -0.551391 1.4764 0
M  V30 4578 C 417.771 -1.65796 1.60563 0
M  V30 4579 C 418.741 -1.59932 0.448428 0
M  V30 4580 O 419.926 -1.78679 0.669222 0
M  V30 4581 C 417.066 -3.04108 1.63133 0
M  V30 4582 C 416.179 -3.20365 2.89811 0
M  V30 4583 C 415.314 -4.49109 2.8368 0
M  V30 4584 C 414.353 -4.58819 4.05156 0
M  V30 4585 N 413.49 -5.78926 3.97227 0
M  V30 4586 H 418.33 -1.54088 2.5507 0
M  V30 4587 H 415.867 -0.75052 1.26513 0
M  V30 4588 H 417.825 -3.84207 1.62606 0
M  V30 4589 H 416.455 -3.14637 0.721341 0
M  V30 4590 H 415.507 -2.33659 3.00179 0
M  V30 4591 H 416.819 -3.23402 3.79753 0
M  V30 4592 H 415.973 -5.37475 2.81434 0
M  V30 4593 H 414.712 -4.4856 1.91431 0
M  V30 4594 H 413.717 -3.68864 4.077 0
M  V30 4595 H 414.942 -4.61124 4.98539 0
M  V30 4596 H 412.888 -5.79314 3.07785 0
M  V30 4597 H 412.805 -5.83367 4.80853 0
M  V30 4598 H 414.073 -6.69637 3.99007 0
M  V30 4599 N 418.302 -1.35869 -0.798587 0
M  V30 4600 C 419.527 -1.32883 -1.59238 0
M  V30 4601 C 419.952 0.0894587 -1.87887 0
M  V30 4602 O 419.31 1.05869 -1.47178 0
M  V30 4603 C 419.358 -2.14892 -2.89575 0
M  V30 4604 O 418.462 -1.53512 -3.82763 0
M  V30 4605 H 417.803 -0.455236 -0.48338 0
M  V30 4606 H 420.333 -1.79024 -0.990539 0
M  V30 4607 H 420.343 -2.27139 -3.38928 0
M  V30 4608 H 419.018 -3.17998 -2.68049 0
M  V30 4609 H 417.595 -1.50153 -3.41334 0
M  V30 4610 N 419.78 1.02168 -1.19998 0
M  V30 4611 C 421.196 1.27969 -0.953737 0
M  V30 4612 C 421.396 1.98079 0.369703 0
M  V30 4613 O 420.452 2.27306 1.09947 0
M  V30 4614 C 421.765 2.11971 -2.13281 0
M  V30 4615 C 423.313 2.25255 -2.17323 0
M  V30 4616 C 423.788 3.12632 -3.34702 0
M  V30 4617 N 425.279 3.2022 -3.34684 0
M  V30 4618 C 426.014 3.88039 -4.22153 0
M  V30 4619 N 425.51 4.58027 -5.19791 0
M  V30 4620 N 427.303 3.84511 -4.10009 0
M  V30 4621 H 419.454 0.550794 -2.05134 0
M  V30 4622 H 421.717 0.305683 -0.897364 0
M  V30 4623 H 421.423 1.67785 -3.09097 0
M  V30 4624 H 421.297 3.12699 -2.10949 0
M  V30 4625 H 423.684 2.68667 -1.22073 0
M  V30 4626 H 423.765 1.24053 -2.23706 0
M  V30 4627 H 423.409 2.69926 -4.30235 0
M  V30 4628 H 423.339 4.13909 -3.25556 0
M  V30 4629 H 425.83 2.70382 -2.64012 0
M  V30 4630 H 426.143 5.07429 -5.82868 0
M  V30 4631 H 424.488 4.56869 -5.23733 0
M  V30 4632 H 427.679 3.28978 -3.33003 0
M  V30 4633 H 427.852 4.3709 -4.78389 0
M  V30 4634 N 421.258 1.00505 1.21394 0
M  V30 4635 C 422.191 0.51032 2.22421 0
M  V30 4636 C 423.169 -0.436 1.56645 0
M  V30 4637 O 424.353 -0.358709 1.85055 0
M  V30 4638 C 421.48 -0.258733 3.3771 0
M  V30 4639 C 420.526 0.635395 4.2174 0
M  V30 4640 S 421.359 2.09783 4.92698 0
M  V30 4641 C 422.515 1.33862 6.11418 0
M  V30 4642 H 422.748 1.36637 2.64041 0
M  V30 4643 H 420.281 0.812991 1.31262 0
M  V30 4644 H 422.239 -0.696372 4.0455 0
M  V30 4645 H 420.9 -1.0902 2.94573 0
M  V30 4646 H 420.093 0.0430189 5.03982 0
M  V30 4647 H 419.695 1.01031 3.60095 0
M  V30 4648 H 421.987 0.612541 6.74725 0
M  V30 4649 H 422.93 2.13675 6.75092 0
M  V30 4650 H 423.338 0.846568 5.58116 0
M  V30 4651 N 422.737 -1.36956 0.779787 0
M  V30 4652 C 423.962 -2.04283 0.358224 0
M  V30 4653 C 424.387 -1.58422 -1.01411 0
M  V30 4654 O 423.745 -0.748179 -1.65142 0
M  V30 4655 C 423.793 -3.58152 0.419479 0
M  V30 4656 O 422.897 -4.08342 -0.577142 0
M  V30 4657 H 422.238 -0.645967 0.153698 0
M  V30 4658 H 424.768 -1.75108 1.05822 0
M  V30 4659 H 424.778 -4.07041 0.279636 0
M  V30 4660 H 423.453 -3.90886 1.42061 0
M  V30 4661 H 422.03 -3.70751 -0.399755 0
M  V30 4662 N 424.215 -0.530993 -1.48385 0
M  V30 4663 C 425.178 0.220497 -2.28137 0
M  V30 4664 C 426.178 0.866851 -1.35434 0
M  V30 4665 O 427.368 0.726746 -1.58316 0
M  V30 4666 C 424.5 1.31921 -3.1434 0
M  V30 4667 H 425.693 -0.479714 -2.96038 0
M  V30 4668 H 423.246 -0.286968 -1.53643 0
M  V30 4669 H 423.981 2.05264 -2.51072 0
M  V30 4670 H 423.766 0.86085 -3.82533 0
M  V30 4671 H 425.256 1.84776 -3.74497 0
M  V30 4672 N 425.693 1.55336 -0.266172 0
M  V30 4673 C 426.939 1.99692 0.353681 0
M  V30 4674 C 427.272 1.1543 1.56172 0
M  V30 4675 O 426.547 0.222218 1.93226 0
M  V30 4676 C 426.83 3.52316 0.74466 0
M  V30 4677 C 426.683 4.47337 -0.470101 0
M  V30 4678 C 428.002 4.10588 1.58447 0
M  V30 4679 H 425.121 0.725961 0.12708 0
M  V30 4680 H 427.763 1.86336 -0.371333 0
M  V30 4681 H 425.913 3.63829 1.36239 0
M  V30 4682 H 427.585 4.4778 -1.10864 0
M  V30 4683 H 425.828 4.19364 -1.10978 0
M  V30 4684 H 426.499 5.51788 -0.15291 0
M  V30 4685 H 428.975 4.02297 1.06286 0
M  V30 4686 H 427.851 5.17607 1.82686 0
M  V30 4687 H 428.112 3.60253 2.56262 0
M  V30 4688 N 427.171 -0.0066808 1.57599 0
M  V30 4689 C 428.134 -0.985035 2.06953 0
M  V30 4690 C 429.134 -1.27663 0.977687 0
M  V30 4691 O 430.324 -1.22293 1.24057 0
M  V30 4692 C 427.456 -2.3118 2.50536 0
M  V30 4693 H 428.649 -0.558255 2.94658 0
M  V30 4694 H 426.202 -0.254011 1.54222 0
M  V30 4695 H 426.937 -2.78561 1.66054 0
M  V30 4696 H 426.722 -2.11338 3.3027 0
M  V30 4697 H 428.212 -3.01377 2.8907 0
M  V30 4698 N 428.649 -1.55105 -0.279332 0
M  V30 4699 C 429.612 -1.86783 -1.32834 0
M  V30 4700 C 430.612 -0.74199 -1.42657 0
M  V30 4701 O 431.802 -1.0102 -1.41918 0
M  V30 4702 C 428.934 -2.06746 -2.71052 0
M  V30 4703 H 430.127 -2.8055 -1.05979 0
M  V30 4704 H 427.68 -1.47499 -0.517087 0
M  V30 4705 H 428.415 -1.15339 -3.03097 0
M  V30 4706 H 428.2 -2.88711 -2.65309 0
M  V30 4707 H 429.69 -2.32549 -3.46858 0
M  V30 4708 N 430.127 0.543554 -1.4793 0
M  V30 4709 C 431.037 1.67657 -1.64098 0
M  V30 4710 C 432.053 1.65934 -0.523622 0
M  V30 4711 O 433.229 1.85133 -0.792943 0
M  V30 4712 C 430.294 3.04146 -1.66421 0
M  V30 4713 C 429.355 3.16831 -2.89684 0
M  V30 4714 C 428.588 4.46809 -2.91886 0
M  V30 4715 O 428.811 5.33095 -2.02895 0
M  V30 4716 O 427.745 4.63573 -3.83906 0
M  V30 4717 H 431.571 1.56957 -2.59997 0
M  V30 4718 H 429.156 0.715116 -1.31173 0
M  V30 4719 H 431.038 3.85346 -1.70548 0
M  V30 4720 H 429.713 3.152 -0.736923 0
M  V30 4721 H 428.62 2.34977 -2.91095 0
M  V30 4722 H 429.953 3.10687 -3.81752 0
M  V30 4723 N 431.605 1.3629 0.791371 0
M  V30 4724 C 432.854 1.29742 1.54434 0
M  V30 4725 C 433.167 -0.121729 1.95221 0
M  V30 4726 O 434.373 -0.309579 2.69729 0
M  V30 4727 C 432.829 2.27623 2.78776 0
M  V30 4728 C 432.437 3.74963 2.45166 0
M  V30 4729 C 434.181 2.30047 3.56761 0
M  V30 4730 C 432.088 4.64626 3.65891 0
M  V30 4731 H 431.018 0.482113 0.579727 0
M  V30 4732 H 433.669 1.61642 0.868565 0
M  V30 4733 H 432.051 1.88714 3.48142 0
M  V30 4734 H 433.225 4.22596 1.83709 0
M  V30 4735 H 431.54 3.75295 1.80396 0
M  V30 4736 H 434.137 2.94247 4.46456 0
M  V30 4737 H 434.48 1.30846 3.95203 0
M  V30 4738 H 435.013 2.67563 2.94372 0
M  V30 4739 H 431.752 5.64883 3.32547 0
M  V30 4740 H 431.272 4.2171 4.26521 0
M  V30 4741 H 432.951 4.80801 4.32943 0
M  V30 4742 N 433.083 -1.0153 1.20538 0
M  V30 4743 C 434.03 -2.10098 0.955383 0
M  V30 4744 C 435 -1.65702 -0.114878 0
M  V30 4745 O 436.185 -1.90776 0.0301118 0
M  V30 4746 C 433.325 -3.41236 0.514969 0
M  V30 4747 C 432.438 -3.99102 1.65353 0
M  V30 4748 C 431.573 -5.18306 1.16329 0
M  V30 4749 C 430.612 -5.68258 2.27485 0
M  V30 4750 N 429.749 -6.78722 1.7967 0
M  V30 4751 H 434.589 -2.30818 1.88486 0
M  V30 4752 H 432.126 -1.13189 0.939499 0
M  V30 4753 H 434.084 -4.16504 0.240935 0
M  V30 4754 H 432.714 -3.20585 -0.377512 0
M  V30 4755 H 431.766 -3.20918 2.04245 0
M  V30 4756 H 433.078 -4.32177 2.49047 0
M  V30 4757 H 432.232 -6.00782 0.845302 0
M  V30 4758 H 430.971 -4.86799 0.296254 0
M  V30 4759 H 429.976 -4.84385 2.60099 0
M  V30 4760 H 431.201 -6.01798 3.14667 0
M  V30 4761 H 429.147 -6.49042 0.95295 0
M  V30 4762 H 429.064 -7.10996 2.56944 0
M  V30 4763 H 430.332 -7.64759 1.50875 0
M  V30 4764 N 434.561 -1.01147 -1.20859 0
M  V30 4765 C 435.493 -0.535546 -2.22855 0
M  V30 4766 C 436.506 0.379323 -1.58319 0
M  V30 4767 O 437.695 0.178489 -1.77605 0
M  V30 4768 C 434.795 0.240962 -3.38042 0
M  V30 4769 C 433.968 -0.674562 -4.32167 0
M  V30 4770 C 433.027 0.053467 -5.26173 0
M  V30 4771 O 432.053 -0.567339 -5.66366 0
M  V30 4772 N 433.255 1.32997 -5.65059 0
M  V30 4773 H 436.02 -1.41268 -2.64317 0
M  V30 4774 H 433.581 -0.888386 -1.35349 0
M  V30 4775 H 435.573 0.737115 -3.97931 0
M  V30 4776 H 434.143 1.01935 -2.95513 0
M  V30 4777 H 433.363 -1.35111 -3.70322 0
M  V30 4778 H 434.651 -1.2974 -4.91981 0
M  V30 4779 H 434.049 1.85536 -5.34409 0
M  V30 4780 H 432.606 1.77095 -6.2728 0
M  V30 4781 N 436.039 1.36541 -0.78704 0
M  V30 4782 C 437.288 1.98552 -0.35494 0
M  V30 4783 C 437.601 1.63171 1.07864 0
M  V30 4784 O 438.807 2.18399 1.61289 0
M  V30 4785 C 437.263 3.55136 -0.583671 0
M  V30 4786 C 436.871 3.99444 -2.02851 0
M  V30 4787 C 438.615 4.2395 -0.215957 0
M  V30 4788 C 436.522 5.48796 -2.20403 0
M  V30 4789 H 435.452 0.742888 -0.128972 0
M  V30 4790 H 438.103 1.5587 -0.968337 0
M  V30 4791 H 436.485 3.95875 0.0994046 0
M  V30 4792 H 437.659 3.6991 -2.74779 0
M  V30 4793 H 435.974 3.43459 -2.35425 0
M  V30 4794 H 438.571 5.33709 -0.325405 0
M  V30 4795 H 438.914 4.07827 0.835646 0
M  V30 4796 H 439.447 3.88565 -0.852175 0
M  V30 4797 H 436.186 5.69864 -3.23937 0
M  V30 4798 H 435.706 5.79964 -1.52977 0
M  V30 4799 H 437.385 6.14986 -2.01002 0
M  V30 4800 N 437.518 0.538854 1.48102 0
M  V30 4801 C 438.934 0.19732 1.58376 0
M  V30 4802 C 439.134 -1.29971 1.5398 0
M  V30 4803 O 438.19 -2.07861 1.43352 0
M  V30 4804 C 439.503 0.807716 2.89649 0
M  V30 4805 C 441.051 0.77726 3.03196 0
M  V30 4806 C 441.526 1.36639 4.37143 0
M  V30 4807 N 443.017 1.32875 4.43732 0
M  V30 4808 C 443.752 1.7544 5.45901 0
M  V30 4809 N 443.248 2.25776 6.54979 0
M  V30 4810 N 445.041 1.66623 5.36836 0
M  V30 4811 H 437.192 1.5117 1.49202 0
M  V30 4812 H 439.455 0.629327 0.708979 0
M  V30 4813 H 439.161 1.85909 2.98548 0
M  V30 4814 H 439.035 0.289975 3.76084 0
M  V30 4815 H 441.422 -0.265374 2.93904 0
M  V30 4816 H 441.503 1.33256 2.18349 0
M  V30 4817 H 441.147 2.408 4.47189 0
M  V30 4818 H 441.077 0.786689 5.20691 0
M  V30 4819 H 443.568 0.96037 3.65493 0
M  V30 4820 H 443.881 2.56226 7.29087 0
M  V30 4821 H 442.226 2.29775 6.55918 0
M  V30 4822 H 445.417 1.27089 4.50517 0
M  V30 4823 H 445.59 2.00115 6.16326 0
M  V30 4824 N 438.996 -1.55193 0.274407 0
M  V30 4825 C 439.959 -2.212 -0.600279 0
M  V30 4826 C 440.959 -1.18963 -1.08187 0
M  V30 4827 O 442.149 -1.43873 -0.982158 0
M  V30 4828 C 439.281 -2.87739 -1.82809 0
M  V30 4829 H 440.474 -2.9989 -0.0239682 0
M  V30 4830 H 438.027 -1.5628 0.0250192 0
M  V30 4831 H 438.762 -2.13058 -2.44493 0
M  V30 4832 H 438.547 -3.62658 -1.49069 0
M  V30 4833 H 440.037 -3.38171 -2.45011 0
M  V30 4834 N 440.474 -0.00167713 -1.576 0
M  V30 4835 C 441.89 0.354422 -1.55615 0
M  V30 4836 C 442.09 1.74679 -1.00447 0
M  V30 4837 O 441.146 2.4428 -0.639022 0
M  V30 4838 C 442.459 0.22812 -2.99833 0
M  V30 4839 C 444.007 0.302934 -3.11531 0
M  V30 4840 C 444.482 0.205737 -4.57538 0
M  V30 4841 N 445.973 0.263584 -4.62449 0
M  V30 4842 C 446.708 0.211742 -5.73009 0
M  V30 4843 N 446.204 0.110399 -6.92712 0
M  V30 4844 N 447.997 0.263729 -5.61481 0
M  V30 4845 H 440.148 -0.912498 -1.918 0
M  V30 4846 H 442.411 -0.349928 -0.881053 0
M  V30 4847 H 442.117 -0.729934 -3.44042 0
M  V30 4848 H 441.991 1.00951 -3.6344 0
M  V30 4849 H 444.378 1.25143 -2.67251 0
M  V30 4850 H 444.459 -0.508357 -2.50698 0
M  V30 4851 H 444.103 -0.739225 -5.02492 0
M  V30 4852 H 444.033 1.03554 -5.16318 0
M  V30 4853 H 446.524 0.343173 -3.76339 0
M  V30 4854 H 446.837 0.0767828 -7.72762 0
M  V30 4855 H 445.182 0.0760025 -6.94958 0
M  V30 4856 H 448.373 0.34111 -4.66855 0
M  V30 4857 H 448.546 0.219862 -6.47627 0
M  V30 4858 N 441.952 1.55251 0.271103 0
M  V30 4859 C 443.368 1.47133 0.618393 0
M  V30 4860 C 443.568 0.686994 1.89427 0
M  V30 4861 O 442.624 0.206609 2.51653 0
M  V30 4862 C 443.937 2.91361 0.743593 0
M  V30 4863 C 445.485 3.01587 0.837522 0
M  V30 4864 C 445.96 4.47073 0.994483 0
M  V30 4865 N 447.451 4.50909 1.05996 0
M  V30 4866 C 448.186 5.60698 1.20024 0
M  V30 4867 N 447.682 6.80348 1.30759 0
M  V30 4868 N 449.475 5.48444 1.23149 0
M  V30 4869 H 441.626 2.04698 -0.566784 0
M  V30 4870 H 443.889 0.928319 -0.192165 0
M  V30 4871 H 443.595 3.51483 -0.123493 0
M  V30 4872 H 443.469 3.40484 1.62328 0
M  V30 4873 H 445.856 2.4156 1.69507 0
M  V30 4874 H 445.937 2.55713 -0.0668086 0
M  V30 4875 H 445.581 5.07703 0.141582 0
M  V30 4876 H 445.511 4.90605 1.91349 0
M  V30 4877 H 448.002 3.6472 0.989316 0
M  V30 4878 H 448.315 7.59772 1.41303 0
M  V30 4879 H 446.66 6.83156 1.27761 0
M  V30 4880 H 449.851 4.53907 1.14394 0
M  V30 4881 H 450.024 6.34049 1.33738 0
M  V30 4882 N 443.43 -0.535701 1.48216 0
M  V30 4883 C 444.377 -1.64083 1.62312 0
M  V30 4884 C 445.347 -1.59448 0.465365 0
M  V30 4885 O 446.532 -1.77959 0.688135 0
M  V30 4886 C 443.672 -3.0236 1.66349 0
M  V30 4887 C 442.785 -3.17273 2.93193 0
M  V30 4888 C 441.92 -4.46075 2.88427 0
M  V30 4889 C 440.959 -4.54496 4.1 0
M  V30 4890 N 440.096 -5.7468 4.03345 0
M  V30 4891 H 444.936 -1.51374 2.5669 0
M  V30 4892 H 442.473 -0.737059 1.27302 0
M  V30 4893 H 444.431 -3.82461 1.66672 0
M  V30 4894 H 443.061 -3.13854 0.754672 0
M  V30 4895 H 442.113 -2.30462 3.02641 0
M  V30 4896 H 443.425 -3.19357 3.83162 0
M  V30 4897 H 442.579 -5.3446 2.87119 0
M  V30 4898 H 441.318 -4.46504 1.96177 0
M  V30 4899 H 440.323 -3.64519 4.11589 0
M  V30 4900 H 441.548 -4.5581 5.03402 0
M  V30 4901 H 439.494 -5.76017 3.13912 0
M  V30 4902 H 439.411 -5.78234 4.87013 0
M  V30 4903 H 440.679 -6.65367 4.06087 0
M  V30 4904 N 444.908 -1.36708 -0.784132 0
M  V30 4905 C 446.136 -1.34398 -1.57305 0
M  V30 4906 C 446.551 0.0735577 -1.88657 0
M  V30 4907 O 445.908 1.03193 -1.50524 0
M  V30 4908 C 445.959 -2.17053 -2.89085 0
M  V30 4909 O 445.68 -3.53281 -2.59083 0
M  V30 4910 C 447.181 -2.22583 -3.83369 0
M  V30 4911 H 444.401 -0.460819 -0.487736 0
M  V30 4912 H 446.945 -1.79879 -0.972819 0
M  V30 4913 H 445.1 -1.75113 -3.45564 0
M  V30 4914 H 445.514 -3.9647 -3.43383 0
M  V30 4915 H 446.988 -2.84763 -4.72878 0
M  V30 4916 H 447.465 -1.23075 -4.21603 0
M  V30 4917 H 448.071 -2.64781 -3.32823 0
M  V30 4918 N 446.386 1.0089 -1.21074 0
M  V30 4919 C 447.349 2.0775 -0.968129 0
M  V30 4920 C 448.349 1.6069 0.0593445 0
M  V30 4921 O 449.539 1.73293 -0.177525 0
M  V30 4922 C 446.671 3.37794 -0.459108 0
M  V30 4923 H 447.864 2.30707 -1.9161 0
M  V30 4924 H 445.417 1.17807 -1.02719 0
M  V30 4925 H 446.152 3.20516 0.49397 0
M  V30 4926 H 445.937 3.7328 -1.20019 0
M  V30 4927 H 447.427 4.16454 -0.309099 0
M  V30 4928 N 447.864 1.01787 1.20321 0
M  V30 4929 C 449.28 0.732951 1.41774 0
M  V30 4930 C 449.48 -0.686883 1.89431 0
M  V30 4931 O 448.536 -1.45446 2.06402 0
M  V30 4932 C 449.849 1.75973 2.43832 0
M  V30 4933 C 451.397 1.77802 2.57596 0
M  V30 4934 C 451.872 2.7941 3.62897 0
M  V30 4935 N 453.363 2.78157 3.70382 0
M  V30 4936 C 454.098 3.53434 4.51521 0
M  V30 4937 N 453.594 4.38392 5.36455 0
M  V30 4938 N 455.387 3.42026 4.46066 0
M  V30 4939 H 447.538 1.93447 0.877035 0
M  V30 4940 H 449.801 0.835712 0.447536 0
M  V30 4941 H 449.507 2.77699 2.15815 0
M  V30 4942 H 449.381 1.57292 3.4284 0
M  V30 4943 H 451.768 0.767602 2.84942 0
M  V30 4944 H 451.849 2.00557 1.58779 0
M  V30 4945 H 451.493 3.80616 3.36295 0
M  V30 4946 H 451.423 2.53916 4.61339 0
M  V30 4947 H 453.914 2.16531 3.09714 0
M  V30 4948 H 454.227 4.92596 5.95457 0
M  V30 4949 H 452.572 4.4247 5.35953 0
M  V30 4950 H 455.763 2.75075 3.78749 0
M  V30 4951 H 455.936 4.00946 5.09064 0
M  V30 4952 N 449.342 -1.36122 0.79427 0
M  V30 4953 C 450.275 -2.27759 0.141845 0
M  V30 4954 C 451.253 -1.47471 -0.684921 0
M  V30 4955 O 452.437 -1.76759 -0.654857 0
M  V30 4956 C 449.564 -3.29008 -0.804446 0
M  V30 4957 C 448.61 -4.26459 -0.0588617 0
M  V30 4958 S 449.443 -5.20253 1.26873 0
M  V30 4959 C 450.599 -6.25048 0.326562 0
M  V30 4960 H 450.832 -2.82746 0.918818 0
M  V30 4961 H 448.365 -1.42736 0.588722 0
M  V30 4962 H 450.323 -3.87842 -1.34495 0
M  V30 4963 H 448.984 -2.72924 -1.5547 0
M  V30 4964 H 448.177 -4.97973 -0.777087 0
M  V30 4965 H 447.779 -3.71731 0.411309 0
M  V30 4966 H 450.071 -6.75705 -0.492795 0
M  V30 4967 H 451.014 -7.00852 1.01053 0
M  V30 4968 H 451.422 -5.64454 -0.0722627 0
M  V30 4969 N 450.82 -0.546701 -1.47814 0
M  V30 4970 C 451.75 0.195317 -2.32682 0
M  V30 4971 C 452.731 0.918981 -1.43139 0
M  V30 4972 O 453.916 0.901501 -1.72008 0
M  V30 4973 C 451.046 1.23237 -3.247 0
M  V30 4974 C 450 0.625818 -4.234 0
M  V30 4975 C 449.326 1.76674 -5.04669 0
M  V30 4976 C 450.626 -0.413515 -5.2066 0
M  V30 4977 H 452.32 -0.513184 -2.94969 0
M  V30 4978 H 449.866 -0.248241 -1.41844 0
M  V30 4979 H 451.819 1.75955 -3.82907 0
M  V30 4980 H 450.543 1.97067 -2.60446 0
M  V30 4981 H 449.202 0.120023 -3.66403 0
M  V30 4982 H 448.85 2.49383 -4.36826 0
M  V30 4983 H 448.55 1.36673 -5.71484 0
M  V30 4984 H 450.074 2.29738 -5.65732 0
M  V30 4985 H 451.488 0.0272042 -5.73294 0
M  V30 4986 H 449.885 -0.731825 -5.95621 0
M  V30 4987 H 450.955 -1.31325 -4.66778 0
M  V30 4988 N 452.299 1.55045 -0.282633 0
M  V30 4989 C 453.232 2.18951 0.64311 0
M  V30 4990 C 454.21 1.15287 1.14664 0
M  V30 4991 O 455.394 1.43846 1.21822 0
M  V30 4992 C 452.521 2.81874 1.87789 0
M  V30 4993 C 451.567 3.98906 1.50919 0
M  V30 4994 S 452.4 5.3234 0.580884 0
M  V30 4995 C 453.556 5.98737 1.82387 0
M  V30 4996 H 453.789 2.97131 0.100138 0
M  V30 4997 H 451.322 1.54255 -0.0668514 0
M  V30 4998 H 453.28 3.18757 2.58658 0
M  V30 4999 H 451.941 2.03573 2.392 0
M  V30 5000 H 451.134 4.4165 2.42819 0
M  V30 5001 H 450.736 3.63485 0.88061 0
M  V30 5002 H 453.028 6.18427 2.76684 0
M  V30 5003 H 453.971 6.93318 1.4393 0
M  V30 5004 H 454.379 5.28177 1.99223 0
M  V30 5005 N 453.777 0.010035 1.57597 0
M  V30 5006 C 455.026 -0.671945 1.90178 0
M  V30 5007 C 455.339 -1.74376 0.886131 0
M  V30 5008 O 456.545 -2.48107 1.10252 0
M  V30 5009 C 455.001 -1.24636 3.3763 0
M  V30 5010 C 454.609 -0.208838 4.47513 0
M  V30 5011 C 456.353 -1.90595 3.79307 0
M  V30 5012 C 454.26 -0.793814 5.86048 0
M  V30 5013 H 453.19 -0.25474 0.709665 0
M  V30 5014 H 455.841 0.0722206 1.83358 0
M  V30 5015 H 454.223 -2.04152 3.3932 0
M  V30 5016 H 455.397 0.562463 4.57354 0
M  V30 5017 H 453.712 0.350889 4.14919 0
M  V30 5018 H 456.309 -2.35284 4.80151 0
M  V30 5019 H 456.652 -2.74074 3.13352 0
M  V30 5020 H 457.185 -1.17798 3.79958 0
M  V30 5021 H 453.924 0.00240855 6.555 0
M  V30 5022 H 453.444 -1.53404 5.79851 0
M  V30 5023 H 455.123 -1.2894 6.34022 0
M  V30 5024 N 455.255 -1.55392 -0.262866 0
M  V30 5025 C 456.501 -1.76737 -0.99458 0
M  V30 5026 C 456.834 -0.572453 -1.85571 0
M  V30 5027 O 456.109 0.429732 -1.89693 0
M  V30 5028 C 456.392 -3.07824 -1.8686 0
M  V30 5029 C 456.245 -4.3769 -1.03672 0
M  V30 5030 C 457.564 -3.35021 -2.85393 0
M  V30 5031 H 454.683 -0.643005 -0.360157 0
M  V30 5032 H 457.325 -1.88126 -0.266216 0
M  V30 5033 H 455.475 -2.98245 -2.48962 0
M  V30 5034 H 457.147 -4.59238 -0.43563 0
M  V30 5035 H 455.39 -4.32461 -0.340513 0
M  V30 5036 H 456.061 -5.25759 -1.6817 0
M  V30 5037 H 458.537 -3.44458 -2.33426 0
M  V30 5038 H 457.413 -4.27989 -3.43681 0
M  V30 5039 H 457.674 -2.55153 -3.61039 0
M  V30 5040 N 456.733 0.527833 -1.48498 0
M  V30 5041 C 457.663 1.64136 -1.66077 0
M  V30 5042 C 458.644 1.62286 -0.509625 0
M  V30 5043 O 459.829 1.79449 -0.742413 0
M  V30 5044 C 456.959 3.02717 -1.70234 0
M  V30 5045 C 455.913 3.19426 -2.8487 0
M  V30 5046 C 455.239 4.5909 -2.74118 0
M  V30 5047 C 456.539 3.01993 -4.26142 0
M  V30 5048 H 458.233 1.4968 -2.593 0
M  V30 5049 H 455.779 0.718654 -1.24785 0
M  V30 5050 H 457.732 3.80491 -1.8112 0
M  V30 5051 H 456.456 3.18201 -0.735911 0
M  V30 5052 H 455.115 2.4407 -2.73542 0
M  V30 5053 H 454.763 4.71413 -1.7544 0
M  V30 5054 H 454.463 4.71214 -3.51042 0
M  V30 5055 H 455.987 5.3896 -2.86974 0
M  V30 5056 H 457.401 3.69558 -4.38292 0
M  V30 5057 H 455.798 3.2561 -5.04082 0
M  V30 5058 H 456.868 1.98396 -4.42456 0
M  V30 5059 N 458.211 1.37122 0.776871 0
M  V30 5060 C 459.141 1.35164 1.90402 0
M  V30 5061 C 460.122 0.221069 1.68657 0
M  V30 5062 O 461.307 0.420642 1.8959 0
M  V30 5063 C 458.437 1.15274 3.27611 0
M  V30 5064 C 457.391 2.25289 3.63908 0
M  V30 5065 C 456.717 1.90527 4.99603 0
M  V30 5066 C 458.017 3.67446 3.71188 0
M  V30 5067 H 459.711 2.29482 1.92297 0
M  V30 5068 H 457.257 1.10465 0.923773 0
M  V30 5069 H 459.21 1.12536 4.06096 0
M  V30 5070 H 457.934 0.174102 3.26136 0
M  V30 5071 H 456.593 2.27174 2.87728 0
M  V30 5072 H 456.241 0.91206 4.94662 0
M  V30 5073 H 455.941 2.64193 5.24858 0
M  V30 5074 H 457.465 1.89367 5.80493 0
M  V30 5075 H 458.879 3.67719 4.39836 0
M  V30 5076 H 457.276 4.40123 4.07936 0
M  V30 5077 H 458.346 4.01443 2.71977 0
M  V30 5078 N 459.689 -1.00246 1.21608 0
M  V30 5079 C 460.935 -1.74319 1.03638 0
M  V30 5080 C 461.268 -1.89408 -0.428749 0
M  V30 5081 O 460.543 -1.43026 -1.3181 0
M  V30 5082 C 460.826 -3.15431 1.73711 0
M  V30 5083 C 460.679 -3.08049 3.27759 0
M  V30 5084 C 461.998 -4.14407 1.48173 0
M  V30 5085 H 459.117 -0.632741 0.377899 0
M  V30 5086 H 461.759 -1.16853 1.49818 0
M  V30 5087 H 459.909 -3.64493 1.34452 0
M  V30 5088 H 461.581 -2.66681 3.76403 0
M  V30 5089 H 459.824 -2.45088 3.57931 0
M  V30 5090 H 460.495 -4.07862 3.71958 0
M  V30 5091 H 462.971 -3.74061 1.82258 0
M  V30 5092 H 461.847 -5.11279 1.99713 0
M  V30 5093 H 462.108 -4.40174 0.412273 0
M  V30 5094 N 461.167 -1.02423 -1.1978 0
M  V30 5095 C 462.414 -0.717988 -1.89344 0
M  V30 5096 C 462.742 0.753036 -1.79331 0
M  V30 5097 O 461.997 1.56355 -1.17692 0
M  V30 5098 C 462.296 -1.1088 -3.39765 0
M  V30 5099 C 461.962 -2.57731 -3.6998 0
M  V30 5100 C 460.624 -2.97854 -3.77937 0
M  V30 5101 C 462.976 -3.52763 -3.83677 0
M  V30 5102 C 460.304 -4.31931 -3.97054 0
M  V30 5103 C 462.656 -4.86538 -4.04306 0
M  V30 5104 C 461.32 -5.26356 -4.10494 0
M  V30 5105 H 460.59 -0.26273 -0.692859 0
M  V30 5106 H 463.237 -1.28623 -1.41875 0
M  V30 5107 H 461.542 -0.459094 -3.89101 0
M  V30 5108 H 463.239 -0.849432 -3.919 0
M  V30 5109 H 459.829 -2.25646 -3.64393 0
M  V30 5110 H 464.013 -3.2292 -3.76877 0
M  V30 5111 H 459.269 -4.62324 -4.00083 0
M  V30 5112 H 463.443 -5.60093 -4.13846 0
M  V30 5113 H 461.07 -6.3026 -4.2506 0
M  V30 5114 N 462.645 1.35699 -0.801477 0
M  V30 5115 C 463.608 2.28199 -0.213994 0
M  V30 5116 C 464.608 1.49359 0.595691 0
M  V30 5117 O 465.798 1.69186 0.414921 0
M  V30 5118 C 462.93 3.33587 0.702297 0
M  V30 5119 H 464.123 2.81666 -1.02976 0
M  V30 5120 H 461.676 1.45467 -0.571759 0
M  V30 5121 H 462.411 2.85297 1.54195 0
M  V30 5122 H 462.196 3.91906 0.123484 0
M  V30 5123 H 463.686 4.02638 1.10783 0
M  V30 5124 N 464.123 0.554532 1.47522 0
M  V30 5125 C 465.372 0.0273458 2.01681 0
M  V30 5126 C 465.685 -1.32962 1.43459 0
M  V30 5127 O 466.891 -1.94657 1.89265 0
M  V30 5128 C 465.347 -0.00159057 3.599 0
M  V30 5129 C 464.955 1.35197 4.27113 0
M  V30 5130 C 466.699 -0.476311 4.21819 0
M  V30 5131 C 464.606 1.28229 5.77331 0
M  V30 5132 H 463.536 0.00645269 0.753972 0
M  V30 5133 H 466.187 0.701985 1.69542 0
M  V30 5134 H 464.569 -0.741821 3.8899 0
M  V30 5135 H 465.743 2.1097 4.09668 0
M  V30 5136 H 464.058 1.76441 3.77171 0
M  V30 5137 H 466.655 -0.5468 5.31897 0
M  V30 5138 H 466.998 -1.4877 3.8881 0
M  V30 5139 H 467.531 0.20898 3.97251 0
M  V30 5140 H 464.27 2.26959 6.14955 0
M  V30 5141 H 463.79 0.566314 5.97121 0
M  V30 5142 H 465.469 0.983226 6.39485 0
M  V30 5143 N 465.601 -1.54893 0.290851 0
M  V30 5144 C 466.841 -2.01842 -0.322388 0
M  V30 5145 C 467.205 -1.17477 -1.51865 0
M  V30 5146 O 468.406 -1.54077 -2.20258 0
M  V30 5147 C 466.677 -3.50874 -0.679844 0
M  V30 5148 S 468.236 -4.19796 -1.27739 0
M  V30 5149 H 465.054 -0.704005 -0.0994866 0
M  V30 5150 H 467.656 -1.91015 0.416358 0
M  V30 5151 H 466.36 -4.09915 0.199435 0
M  V30 5152 H 465.891 -3.65717 -1.44964 0
M  V30 5153 H 467.906 -4.24729 -2.56554 0
M  V30 5154 N 467.08 -0.0183926 -1.57589 0
M  V30 5155 C 468.31 0.67207 -1.95363 0
M  V30 5156 C 468.718 1.66807 -0.892872 0
M  V30 5157 O 468.061 1.83204 0.134958 0
M  V30 5158 C 468.123 1.44397 -3.29226 0
M  V30 5159 C 467.787 0.607511 -4.52944 0
M  V30 5160 C 468.784 -0.112657 -5.19778 0
M  V30 5161 C 466.469 0.548068 -4.99301 0
M  V30 5162 C 468.463 -0.881057 -6.31281 0
M  V30 5163 C 466.15 -0.224044 -6.10689 0
M  V30 5164 C 467.148 -0.937323 -6.76538 0
M  V30 5165 O 466.836 -1.6968 -7.85789 0
M  V30 5166 H 466.568 0.190925 -0.648478 0
M  V30 5167 H 469.122 -0.0711994 -2.05277 0
M  V30 5168 H 467.352 2.23214 -3.15773 0
M  V30 5169 H 469.041 2.02152 -3.51979 0
M  V30 5170 H 469.807 -0.0759998 -4.8494 0
M  V30 5171 H 465.686 1.09281 -4.4786 0
M  V30 5172 H 469.23 -1.43832 -6.82611 0
M  V30 5173 H 465.127 -0.262457 -6.44966 0
M  V30 5174 H 465.895 -1.61544 -8.024 0
M  V30 5175 N 468.558 1.5553 0.254621 0
M  V30 5176 C 469.488 1.9268 1.31897 0
M  V30 5177 C 470.469 0.790797 1.506 0
M  V30 5178 O 471.654 1.05045 1.63337 0
M  V30 5179 C 468.784 2.21477 2.67517 0
M  V30 5180 C 467.738 3.37256 2.63519 0
M  V30 5181 C 467.064 3.51576 4.02862 0
M  V30 5182 C 468.364 4.73157 2.21179 0
M  V30 5183 H 470.058 2.81832 1.01051 0
M  V30 5184 H 467.604 1.35599 0.484662 0
M  V30 5185 H 469.557 2.46055 3.42104 0
M  V30 5186 H 468.281 1.29144 2.99982 0
M  V30 5187 H 466.94 3.12675 1.9139 0
M  V30 5188 H 466.588 2.56676 4.32581 0
M  V30 5189 H 466.288 4.2943 4.01078 0
M  V30 5190 H 467.812 3.78467 4.79161 0
M  V30 5191 H 469.226 4.97158 2.85494 0
M  V30 5192 H 467.623 5.54058 2.30521 0
M  V30 5193 H 468.693 4.70739 1.16332 0
M  V30 5194 N 470.036 -0.519951 1.48776 0
M  V30 5195 C 471.447 -1.10177 1.50725 0
M  V30 5196 C 471.798 -1.94153 0.282678 0
M  V30 5197 O 470.923 -2.07645 -0.609298 0
M  V30 5198 C 471.518 -2.00482 2.73116 0
M  V30 5199 C 470.077 -2.53862 2.77905 0
M  V30 5200 C 469.224 -1.31047 2.44381 0
M  V30 5201 H 472.175 -0.30473 1.55747 0
M  V30 5202 H 472.196 -2.8491 2.52203 0
M  V30 5203 H 471.708 -1.39335 3.62225 0
M  V30 5204 H 469.809 -3.18702 1.93029 0
M  V30 5205 H 469.922 -2.9231 3.79594 0
M  V30 5206 H 468.286 -1.62953 1.95751 0
M  V30 5207 H 469.069 -0.71637 3.35743 0
M  V30 5208 N 471.514 -1.37532 -0.769588 0
M  V30 5209 C 472.763 -1.32183 -1.5235 0
M  V30 5210 C 473.076 0.0906555 -1.9539 0
M  V30 5211 O 474.282 0.266628 -2.70188 0
M  V30 5212 C 472.738 -2.32029 -2.75119 0
M  V30 5213 C 472.346 -3.78816 -2.3917 0
M  V30 5214 C 474.09 -2.35694 -3.53056 0
M  V30 5215 C 471.997 -4.70388 -3.58453 0
M  V30 5216 H 470.927 -0.491275 -0.571984 0
M  V30 5217 H 473.578 -1.63004 -0.842739 0
M  V30 5218 H 471.96 -1.94229 -3.45096 0
M  V30 5219 H 473.134 -4.25466 -1.76962 0
M  V30 5220 H 471.449 -3.78117 -1.74402 0
M  V30 5221 H 474.046 -3.01312 -4.41718 0
M  V30 5222 H 474.389 -1.37117 -3.93071 0
M  V30 5223 H 474.922 -2.72212 -2.90078 0
M  V30 5224 H 471.661 -5.70102 -3.23518 0
M  V30 5225 H 471.181 -4.28442 -4.19758 0
M  V30 5226 H 472.86 -4.87628 -4.25239 0
M  V30 5227 N 472.992 0.995999 -1.22138 0
M  V30 5228 C 474.217 1.77601 -1.0711 0
M  V30 5229 C 474.642 1.84339 0.374264 0
M  V30 5230 O 474 1.29359 1.27028 0
M  V30 5231 C 474.048 3.18897 -1.68336 0
M  V30 5232 O 473.152 4.01663 -0.934928 0
M  V30 5233 H 472.493 0.547011 -0.376397 0
M  V30 5234 H 475.023 1.25137 -1.6187 0
M  V30 5235 H 475.033 3.69539 -1.72931 0
M  V30 5236 H 473.708 3.13308 -2.73516 0
M  V30 5237 H 472.285 3.60204 -0.964751 0
M  V30 5238 N 474.47 1.03057 1.19235 0
M  V30 5239 C 475.719 0.72326 1.88287 0
M  V30 5240 C 476.032 -0.751333 1.80594 0
M  V30 5241 O 477.238 -1.17176 2.44912 0
M  V30 5242 C 475.694 1.24338 3.3774 0
M  V30 5243 C 475.302 2.74587 3.53986 0
M  V30 5244 C 477.046 1.01213 4.12257 0
M  V30 5245 C 474.953 3.20009 4.97341 0
M  V30 5246 H 473.883 0.266848 0.705201 0
M  V30 5247 H 476.534 1.24509 1.34795 0
M  V30 5248 H 474.916 0.649457 3.90638 0
M  V30 5249 H 476.09 3.39649 3.11408 0
M  V30 5250 H 474.405 2.9601 2.9286 0
M  V30 5251 H 477.002 1.32675 5.17978 0
M  V30 5252 H 477.345 -0.051001 4.16269 0
M  V30 5253 H 477.878 1.57014 3.65501 0
M  V30 5254 H 474.617 4.25659 4.98493 0
M  V30 5255 H 474.137 2.59676 5.40674 0
M  V30 5256 H 475.816 3.13447 5.66003 0
M  V30 5257 N 475.948 -1.35272 0.808662 0
M  V30 5258 C 476.878 -2.32315 0.234981 0
M  V30 5259 C 477.859 -1.57572 -0.64071 0
M  V30 5260 O 479.044 -1.8563 -0.570551 0
M  V30 5261 C 476.174 -3.41801 -0.615601 0
M  V30 5262 C 475.128 -4.27694 0.161767 0
M  V30 5263 C 474.454 -5.28519 -0.810649 0
M  V30 5264 C 475.754 -5.04231 1.36193 0
M  V30 5265 H 477.448 -2.80543 1.04575 0
M  V30 5266 H 474.994 -1.3488 0.504315 0
M  V30 5267 H 476.947 -4.08693 -1.02702 0
M  V30 5268 H 475.671 -2.92186 -1.45928 0
M  V30 5269 H 474.33 -3.62384 0.554382 0
M  V30 5270 H 473.978 -4.75171 -1.64988 0
M  V30 5271 H 473.678 -5.8686 -0.294822 0
M  V30 5272 H 475.202 -5.98283 -1.22023 0
M  V30 5273 H 476.616 -5.64058 1.02528 0
M  V30 5274 H 475.013 -5.72077 1.81239 0
M  V30 5275 H 476.083 -4.34753 2.14751 0
M  V30 5276 N 477.426 -0.562348 -1.47226 0
M  V30 5277 C 478.374 0.195476 -2.31777 0
M  V30 5278 C 479.368 0.90433 -1.43242 0
M  V30 5279 O 480.574 0.825031 -1.59979 0
M  V30 5280 H 476.949 0.0819095 -0.747526 0
M  V30 5281 H 478.92 -0.536753 -2.93533 0
M  V30 5282 C 477.669 1.20902 -3.26003 0
M  V30 5283 H 476.992 0.672997 -3.94095 0
M  V30 5284 H 478.432 1.71006 -3.87986 0
M  V30 5285 C 476.891 2.25955 -2.49891 0
M  V30 5286 O 477.421 3.32969 -2.2471 0
M  V30 5287 N 475.627 2.00019 -2.1081 0
M  V30 5288 H 475.174 1.13006 -2.31489 0
M  V30 5289 H 475.132 2.70523 -1.60201 0
M  V30 5290 N 478.904 1.54736 -0.299062 0
M  V30 5291 C 480.15 2.00397 0.311244 0
M  V30 5292 C 480.483 1.18716 1.53688 0
M  V30 5293 O 479.758 0.263154 1.92712 0
M  V30 5294 C 480.041 3.53817 0.669761 0
M  V30 5295 C 479.894 4.46239 -0.564882 0
M  V30 5296 C 481.213 4.13856 1.49702 0
M  V30 5297 H 478.332 0.728493 0.111653 0
M  V30 5298 H 480.974 1.85506 -0.410774 0
M  V30 5299 H 479.124 3.66637 1.28491 0
M  V30 5300 H 480.796 4.45328 -1.20337 0
M  V30 5301 H 479.039 4.16916 -1.19849 0
M  V30 5302 H 479.71 5.5134 -0.269918 0
M  V30 5303 H 482.186 4.04461 0.977284 0
M  V30 5304 H 481.062 5.21365 1.71666 0
M  V30 5305 H 481.323 3.65608 2.48563 0
M  V30 5306 N 480.382 0.0267497 1.57577 0
M  V30 5307 C 481.312 -0.954308 2.13108 0
M  V30 5308 C 482.293 -1.34088 1.04663 0
M  V30 5309 O 483.478 -1.41992 1.32484 0
M  V30 5310 C 480.608 -2.23744 2.65624 0
M  V30 5311 C 479.562 -1.99168 3.78835 0
M  V30 5312 C 478.888 -3.33726 4.17769 0
M  V30 5313 C 480.188 -1.33277 5.0501 0
M  V30 5314 H 481.882 -0.491848 2.95332 0
M  V30 5315 H 479.428 -0.23514 1.42067 0
M  V30 5316 H 481.381 -2.92754 3.03106 0
M  V30 5317 H 480.105 -2.72151 1.80558 0
M  V30 5318 H 478.764 -1.32577 3.41788 0
M  V30 5319 H 478.412 -3.79888 3.29688 0
M  V30 5320 H 478.112 -3.18089 4.94058 0
M  V30 5321 H 479.636 -4.04008 4.57832 0
M  V30 5322 H 481.05 -1.92283 5.40093 0
M  V30 5323 H 479.447 -1.28045 5.8628 0
M  V30 5324 H 480.517 -0.305411 4.83937 0
M  V30 5325 N 481.861 -1.55662 -0.24637 0
M  V30 5326 C 482.808 -1.90361 -1.30504 0
M  V30 5327 C 483.778 -0.757905 -1.47801 0
M  V30 5328 O 484.963 -1.01161 -1.61775 0
M  V30 5329 C 482.103 -2.2042 -2.65535 0
M  V30 5330 C 481.216 -3.47799 -2.56242 0
M  V30 5331 C 480.351 -3.67426 -3.8363 0
M  V30 5332 C 479.39 -4.88403 -3.68956 0
M  V30 5333 N 478.527 -5.04548 -4.88237 0
M  V30 5334 H 483.367 -2.80645 -1.00213 0
M  V30 5335 H 480.904 -1.38924 -0.483577 0
M  V30 5336 H 482.862 -2.35853 -3.44135 0
M  V30 5337 H 481.492 -1.3334 -2.93973 0
M  V30 5338 H 480.544 -3.40694 -1.69208 0
M  V30 5339 H 481.856 -4.36544 -2.4131 0
M  V30 5340 H 481.01 -3.82821 -4.70673 0
M  V30 5341 H 479.749 -2.76914 -4.01459 0
M  V30 5342 H 478.754 -4.72984 -2.80296 0
M  V30 5343 H 479.979 -5.80375 -3.52621 0
M  V30 5344 H 477.925 -4.16974 -5.06427 0
M  V30 5345 H 477.842 -5.87384 -4.75937 0
M  V30 5346 H 479.11 -5.24355 -5.76777 0
M  V30 5347 N 483.339 0.512053 -1.4905 0
M  V30 5348 C 484.755 0.84224 -1.35567 0
M  V30 5349 C 484.955 1.97878 -0.380319 0
M  V30 5350 O 484.011 2.51769 0.19201 0
M  V30 5351 C 485.324 1.19286 -2.76028 0
M  V30 5352 C 486.872 1.30171 -2.84648 0
M  V30 5353 C 487.347 1.68568 -4.25851 0
M  V30 5354 N 488.838 1.75638 -4.28609 0
M  V30 5355 C 489.573 2.06769 -5.34821 0
M  V30 5356 N 489.069 2.36201 -6.51292 0
M  V30 5357 N 490.862 2.07927 -5.22229 0
M  V30 5358 H 483.013 -0.237574 -2.11067 0
M  V30 5359 H 485.276 -0.0436747 -0.946993 0
M  V30 5360 H 484.982 0.431199 -3.49047 0
M  V30 5361 H 484.856 2.13889 -3.10695 0
M  V30 5362 H 487.243 2.05411 -2.11873 0
M  V30 5363 H 487.324 0.336457 -2.53578 0
M  V30 5364 H 486.968 0.938824 -4.99148 0
M  V30 5365 H 486.898 2.66174 -4.54377 0
M  V30 5366 H 489.389 1.55097 -3.44606 0
M  V30 5367 H 489.702 2.59112 -7.28066 0
M  V30 5368 H 488.047 2.33681 -6.54536 0
M  V30 5369 H 491.238 1.84403 -4.30248 0
M  V30 5370 H 491.411 2.31856 -6.05101 0
M  V30 5371 N 484.817 1.37938 0.762283 0
M  V30 5372 C 486.063 1.33866 1.52341 0
M  V30 5373 C 486.396 -0.0738961 1.94059 0
M  V30 5374 O 485.671 -1.03326 1.64785 0
M  V30 5375 C 485.954 2.28644 2.78197 0
M  V30 5376 C 485.807 3.78722 2.42672 0
M  V30 5377 C 487.126 2.21702 3.80179 0
M  V30 5378 H 484.245 0.487593 0.55265 0
M  V30 5379 H 486.887 1.68717 0.873767 0
M  V30 5380 H 485.037 1.99055 3.33631 0
M  V30 5381 H 486.709 4.18948 1.93081 0
M  V30 5382 H 484.952 3.96827 1.75244 0
M  V30 5383 H 485.623 4.40486 3.3268 0
M  V30 5384 H 488.099 2.47805 3.34263 0
M  V30 5385 H 486.975 2.90143 4.65949 0
M  V30 5386 H 487.236 1.21301 4.25133 0
M  V30 5387 N 486.295 -0.989507 1.22664 0
M  V30 5388 C 487.542 -1.72953 1.05325 0
M  V30 5389 C 487.87 -1.90104 -0.411168 0
M  V30 5390 O 487.125 -1.44386 -1.32103 0
M  V30 5391 C 487.424 -3.13649 1.71345 0
M  V30 5392 C 487.09 -3.16403 3.21248 0
M  V30 5393 C 485.752 -3.16862 3.62149 0
M  V30 5394 C 488.104 -3.12428 4.17179 0
M  V30 5395 C 485.432 -3.11051 4.97458 0
M  V30 5396 C 487.784 -3.08159 5.52468 0
M  V30 5397 C 486.448 -3.06935 5.92746 0
M  V30 5398 H 485.718 -0.632881 0.385412 0
M  V30 5399 H 488.365 -1.15863 1.52473 0
M  V30 5400 H 486.67 -3.74069 1.16532 0
M  V30 5401 H 488.367 -3.69658 1.55416 0
M  V30 5402 H 484.957 -3.16798 2.88682 0
M  V30 5403 H 489.141 -3.11221 3.86595 0
M  V30 5404 H 484.397 -3.0845 5.27891 0
M  V30 5405 H 488.571 -3.04039 6.26525 0
M  V30 5406 H 486.198 -3.02186 6.97558 0
M  V30 5407 N 487.773 -1.03688 -1.18687 0
M  V30 5408 C 489.021 -0.736572 -1.88199 0
M  V30 5409 C 489.342 0.737665 -1.80509 0
M  V30 5410 O 488.612 1.53204 -1.22088 0
M  V30 5411 H 487.192 -0.269466 -0.696704 0
M  V30 5412 H 489.854 -1.31282 -1.44052 0
M  V30 5413 H 488.95 -1.03802 -2.94332 0
M  V30 5414 N 489.251 1.34841 -0.815825 0
M  V30 5415 C 490.184 2.27504 -0.178062 0
M  V30 5416 C 491.162 1.48542 0.661373 0
M  V30 5417 O 492.346 1.77779 0.626653 0
M  V30 5418 C 489.473 3.30246 0.752002 0
M  V30 5419 C 488.519 4.26499 -0.00899172 0
M  V30 5420 S 489.352 5.18169 -1.35134 0
M  V30 5421 C 490.508 6.24449 -0.42596 0
M  V30 5422 H 490.741 2.81248 -0.963684 0
M  V30 5423 H 488.274 1.41781 -0.611355 0
M  V30 5424 H 490.232 3.89933 1.28308 0
M  V30 5425 H 488.893 2.75363 1.51109 0
M  V30 5426 H 488.086 4.99146 0.697766 0
M  V30 5427 H 487.688 3.7103 -0.470396 0
M  V30 5428 H 489.98 6.76404 0.385234 0
M  V30 5429 H 490.923 6.99156 -1.1219 0
M  V30 5430 H 491.331 5.64497 -0.0175461 0
M  V30 5431 N 490.729 0.570148 1.46925 0
M  V30 5432 C 491.976 0.0509529 2.02436 0
M  V30 5433 C 492.304 -1.30405 1.44308 0
M  V30 5434 O 491.559 -1.86493 0.593198 0
M  V30 5435 C 491.858 -0.0780336 3.57315 0
M  V30 5436 C 491.524 1.20775 4.34424 0
M  V30 5437 C 490.186 1.56004 4.5521 0
M  V30 5438 C 492.538 2.0592 4.78797 0
M  V30 5439 C 489.866 2.76201 5.17619 0
M  V30 5440 C 492.218 3.25332 5.42533 0
M  V30 5441 C 490.882 3.60859 5.61549 0
M  V30 5442 H 490.152 0.018645 0.740765 0
M  V30 5443 H 492.799 0.744262 1.76445 0
M  V30 5444 H 491.104 -0.854394 3.82371 0
M  V30 5445 H 492.801 -0.495312 3.97929 0
M  V30 5446 H 489.391 0.923469 4.18533 0
M  V30 5447 H 493.575 1.80008 4.62505 0
M  V30 5448 H 488.831 3.0388 5.30535 0
M  V30 5449 H 493.005 3.91586 5.75876 0
M  V30 5450 H 490.632 4.54088 6.09678 0
M  V30 5451 N 492.207 -1.54576 0.307264 0
M  V30 5452 C 493.17 -2.22423 -0.553224 0
M  V30 5453 C 494.17 -1.21231 -1.05639 0
M  V30 5454 O 495.36 -1.45923 -0.951419 0
M  V30 5455 C 492.492 -2.91552 -1.76664 0
M  V30 5456 H 493.685 -2.99874 0.0396484 0
M  V30 5457 H 491.238 -1.56192 0.0581629 0
M  V30 5458 H 491.973 -2.18196 -2.39918 0
M  V30 5459 H 491.758 -3.65738 -1.41343 0
M  V30 5460 H 493.248 -3.43292 -2.37783 0
M  V30 5461 N 493.685 -0.035106 -1.57561 0
M  V30 5462 C 494.635 0.954034 -2.0708 0
M  V30 5463 C 495.619 1.2818 -0.972558 0
M  V30 5464 O 496.811 1.26691 -1.23606 0
M  V30 5465 C 493.94 2.23442 -2.60631 0
M  V30 5466 C 493.026 1.93475 -3.77396 0
M  V30 5467 N 493.417 1.33802 -4.87781 0
M  V30 5468 C 491.715 2.23434 -3.85996 0
M  V30 5469 C 492.416 1.21103 -5.68954 0
M  V30 5470 N 491.392 1.70855 -5.16052 0
M  V30 5471 H 495.194 0.487731 -2.89825 0
M  V30 5472 H 492.708 0.169759 -1.6151 0
M  V30 5473 H 494.705 2.95183 -2.94402 0
M  V30 5474 H 493.365 2.70693 -1.79319 0
M  V30 5475 H 494.376 1.01227 -5.07911 0
M  V30 5476 H 491.053 2.73317 -3.15601 0
M  V30 5477 H 492.443 0.749105 -6.67711 0
M  V30 5478 N 495.163 1.55791 0.238111 0
M  V30 5479 C 496.391 1.82098 0.982233 0
M  V30 5480 C 496.806 0.612025 1.78605 0
M  V30 5481 O 496.163 -0.419381 1.77616 0
M  V30 5482 C 496.214 3.0673 1.91309 0
M  V30 5483 O 495.935 4.2296 1.14179 0
M  V30 5484 C 497.436 3.45903 2.77248 0
M  V30 5485 H 494.656 0.605748 0.288635 0
M  V30 5486 H 497.2 2.02862 0.258341 0
M  V30 5487 H 495.355 2.87991 2.59114 0
M  V30 5488 H 495.769 4.93653 1.7722 0
M  V30 5489 H 497.243 4.36189 3.38295 0
M  V30 5490 H 497.72 2.66891 3.48806 0
M  V30 5491 H 498.326 3.67024 2.14881 0
M  V30 5492 N 496.642 -0.504142 1.49319 0
M  V30 5493 C 497.552 -1.63248 1.68486 0
M  V30 5494 C 498.568 -1.64488 0.567432 0
M  V30 5495 O 499.744 -1.82966 0.841749 0
M  V30 5496 C 496.809 -2.99627 1.74426 0
M  V30 5497 C 495.87 -3.09039 2.97982 0
M  V30 5498 C 495.103 -4.38913 3.0363 0
M  V30 5499 O 495.326 -5.27528 2.16958 0
M  V30 5500 O 494.26 -4.53231 3.96062 0
M  V30 5501 H 498.086 -1.50008 2.64067 0
M  V30 5502 H 495.671 -0.680086 1.33023 0
M  V30 5503 H 497.553 -3.80689 1.80705 0
M  V30 5504 H 496.228 -3.13136 0.820233 0
M  V30 5505 H 495.135 -2.27177 2.97223 0
M  V30 5506 H 496.468 -3.00456 3.89855 0
M  V30 5507 N 498.12 -1.38341 -0.754957 0
M  V30 5508 C 499.397 -1.24995 -1.50451 0
M  V30 5509 C 499.777 0.149244 -2.10572 0
M  V30 5510 O 499.125 1.15861 -1.96948 0
M  V30 5511 C 499.335 -2.35904 -2.57197 0
M  V30 5512 C 500.683 -2.74262 -3.24138 0
M  V30 5513 O 501.707 -2.35205 -2.67501 0
M  V30 5514 O 500.566 -3.4161 -4.26574 0
M  V30 5515 H 497.66 -0.48872 -0.667144 0
M  V30 5516 H 500.206 -1.50165 -0.790486 0
M  V30 5517 H 498.978 -3.2953 -2.11011 0
M  V30 5518 H 498.601 -2.12291 -3.36182 0
M  V30 5519 N 499.598 0.982988 -1.23187 0
M  V30 5520 C 501.014 1.2487 -0.993967 0
M  V30 5521 C 501.214 1.99155 0.306498 0
M  V30 5522 O 500.27 2.30688 1.0266 0
M  V30 5523 C 501.583 2.05078 -2.19917 0
M  V30 5524 C 503.131 2.18227 -2.2438 0
M  V30 5525 C 503.606 3.01825 -3.44479 0
M  V30 5526 N 505.097 3.09411 -3.44702 0
M  V30 5527 C 505.832 3.74412 -4.34285 0
M  V30 5528 N 505.328 4.41259 -5.341 0
M  V30 5529 N 507.121 3.71273 -4.22035 0
M  V30 5530 H 499.272 0.485253 -2.06783 0
M  V30 5531 H 501.535 0.276979 -0.906635 0
M  V30 5532 H 501.241 1.57867 -3.14279 0
M  V30 5533 H 501.115 3.05829 -2.2079 0
M  V30 5534 H 503.502 2.64648 -1.30559 0
M  V30 5535 H 503.583 1.16873 -2.2754 0
M  V30 5536 H 503.227 2.56102 -4.38605 0
M  V30 5537 H 503.157 4.03342 -3.38559 0
M  V30 5538 H 505.648 2.61845 -2.7248 0
M  V30 5539 H 505.961 4.88629 -5.98717 0
M  V30 5540 H 504.306 4.39975 -5.38002 0
M  V30 5541 H 507.497 3.18217 -3.43301 0
M  V30 5542 H 507.67 4.21649 -4.92053 0
M  V30 5543 N 501.076 1.04316 1.18135 0
M  V30 5544 C 501.986 0.646876 2.25505 0
M  V30 5545 C 503.002 -0.328008 1.7088 0
M  V30 5546 O 504.178 -0.182309 2.00573 0
M  V30 5547 C 501.243 0.0185664 3.46695 0
M  V30 5548 C 500.304 1.04277 4.16443 0
M  V30 5549 C 499.537 0.444352 5.31847 0
M  V30 5550 O 499.76 -0.748735 5.65465 0
M  V30 5551 O 498.694 1.17428 5.90334 0
M  V30 5552 H 502.52 1.54147 2.61672 0
M  V30 5553 H 500.105 0.814188 1.25265 0
M  V30 5554 H 501.987 -0.331068 4.20097 0
M  V30 5555 H 500.662 -0.849814 3.12346 0
M  V30 5556 H 499.569 1.44425 3.45098 0
M  V30 5557 H 500.902 1.882 4.54798 0
M  V30 5558 N 502.554 -1.34406 0.822964 0
M  V30 5559 C 503.782 -2.02508 0.424039 0
M  V30 5560 C 504.197 -1.61975 -0.970022 0
M  V30 5561 O 503.554 -0.825228 -1.62777 0
M  V30 5562 C 503.605 -3.57789 0.516657 0
M  V30 5563 O 503.326 -3.96853 1.85577 0
M  V30 5564 C 504.827 -4.43157 0.112637 0
M  V30 5565 H 502.047 -0.649063 0.170173 0
M  V30 5566 H 504.591 -1.7168 1.11113 0
M  V30 5567 H 502.746 -3.87207 -0.122353 0
M  V30 5568 H 503.16 -4.91538 1.83005 0
M  V30 5569 H 504.634 -5.51527 0.228526 0
M  V30 5570 H 505.111 -4.28939 -0.943837 0
M  V30 5571 H 505.717 -4.19067 0.725449 0
M  V30 5572 N 504.032 -0.577932 -1.46621 0
M  V30 5573 C 505.278 -0.0617793 -2.02706 0
M  V30 5574 C 505.611 1.29294 -1.44903 0
M  V30 5575 O 504.886 1.8461 -0.61232 0
M  V30 5576 C 505.169 0.00911824 -3.60099 0
M  V30 5577 C 505.022 -1.37416 -4.28295 0
M  V30 5578 C 506.341 0.712159 -4.343 0
M  V30 5579 H 503.46 -0.0239246 -0.736612 0
M  V30 5580 H 506.102 -0.744211 -1.74818 0
M  V30 5581 H 504.252 0.590292 -3.83989 0
M  V30 5582 H 505.924 -2.00013 -4.15683 0
M  V30 5583 H 504.167 -1.94319 -3.87843 0
M  V30 5584 H 504.838 -1.27707 -5.37024 0
M  V30 5585 H 507.314 0.218486 -4.15526 0
M  V30 5586 H 506.19 0.730782 -5.44014 0
M  V30 5587 H 506.451 1.77251 -4.05012 0
M  V30 5588 N 505.51 1.54411 -0.315457 0
M  V30 5589 C 506.74 2.04536 0.291315 0
M  V30 5590 C 507.148 1.19162 1.4696 0
M  V30 5591 O 506.491 0.213199 1.82459 0
M  V30 5592 C 506.553 3.5056 0.796725 0
M  V30 5593 C 506.217 4.5627 -0.258178 0
M  V30 5594 C 507.214 5.08312 -1.09153 0
M  V30 5595 C 504.899 5.00672 -0.404036 0
M  V30 5596 C 506.893 6.03312 -2.05655 0
M  V30 5597 C 504.58 5.95488 -1.37248 0
M  V30 5598 C 505.578 6.46693 -2.19721 0
M  V30 5599 O 505.266 7.39648 -3.14921 0
M  V30 5600 H 504.998 0.672856 0.0651165 0
M  V30 5601 H 507.552 2.00244 -0.457308 0
M  V30 5602 H 505.782 3.52223 1.59612 0
M  V30 5603 H 507.471 3.83804 1.32096 0
M  V30 5604 H 508.237 4.74793 -0.98979 0
M  V30 5605 H 504.116 4.60436 0.22799 0
M  V30 5606 H 507.66 6.43203 -2.70067 0
M  V30 5607 H 503.557 6.28424 -1.47489 0
M  V30 5608 H 504.325 7.57496 -3.10067 0
M  V30 5609 N 506.988 0.0434614 1.5754 0
M  V30 5610 C 507.951 -0.918696 2.09982 0
M  V30 5611 C 508.951 -1.24488 1.01781 0
M  V30 5612 O 510.141 -1.18284 1.27885 0
M  V30 5613 C 507.273 -2.23093 2.57764 0
M  V30 5614 H 508.466 -0.464229 2.96285 0
M  V30 5615 H 506.019 -0.204818 1.54952 0
M  V30 5616 H 506.754 -2.73137 1.74832 0
M  V30 5617 H 506.539 -2.00724 3.36827 0
M  V30 5618 H 508.029 -2.92028 2.98512 0
M  V30 5619 N 508.466 -1.55915 -0.229846 0
M  V30 5620 C 509.712 -1.79718 -0.952517 0
M  V30 5621 C 510.067 -0.61514 -1.82301 0
M  V30 5622 O 509.36 0.391098 -1.87566 0
M  V30 5623 C 509.554 -3.06845 -1.8325 0
M  V30 5624 C 509.383 -4.37302 -1.04868 0
M  V30 5625 C 508.153 -4.99749 -0.746932 0
M  V30 5626 C 510.351 -5.12599 -0.417989 0
M  V30 5627 N 508.333 -6.13871 0.0591596 0
M  V30 5628 C 509.704 -6.19488 0.251879 0
M  V30 5629 C 511.759 -4.96804 -0.33018 0
M  V30 5630 C 510.462 -7.12299 1.00115 0
M  V30 5631 C 512.488 -5.90007 0.4056 0
M  V30 5632 C 511.85 -6.96317 1.06404 0
M  V30 5633 H 507.949 -0.709382 -0.329091 0
M  V30 5634 H 510.533 -1.93406 -0.224114 0
M  V30 5635 H 508.704 -2.94456 -2.53279 0
M  V30 5636 H 510.436 -3.18874 -2.49202 0
M  V30 5637 H 507.191 -4.61518 -1.06292 0
M  V30 5638 H 507.615 -6.75497 0.450798 0
M  V30 5639 H 512.257 -4.14675 -0.824898 0
M  V30 5640 H 509.975 -7.93916 1.50741 0
M  V30 5641 H 513.561 -5.79862 0.474436 0
M  V30 5642 H 512.441 -7.67194 1.62429 0
M  V30 5643 N 509.944 0.496216 -1.49584 0
M  V30 5644 C 511.191 1.25003 -1.59312 0
M  V30 5645 C 511.519 1.92445 -0.28198 0
M  V30 5646 O 510.774 1.81557 0.730452 0
M  V30 5647 C 511.073 2.3359 -2.705 0
M  V30 5648 C 510.739 1.83574 -4.11839 0
M  V30 5649 C 509.401 1.69653 -4.50302 0
M  V30 5650 C 511.753 1.46193 -5.00277 0
M  V30 5651 C 509.081 1.16736 -5.74969 0
M  V30 5652 C 511.433 0.947265 -6.25468 0
M  V30 5653 C 510.097 0.794485 -6.62755 0
M  V30 5654 H 509.367 0.45742 -0.582965 0
M  V30 5655 H 512.014 0.549996 -1.83432 0
M  V30 5656 H 510.319 3.09401 -2.40371 0
M  V30 5657 H 512.016 2.91627 -2.75235 0
M  V30 5658 H 508.606 1.9537 -3.81482 0
M  V30 5659 H 512.79 1.55793 -4.71214 0
M  V30 5660 H 508.046 1.03623 -6.02555 0
M  V30 5661 H 512.22 0.648846 -6.93371 0
M  V30 5662 H 509.847 0.382271 -7.59238 0
M  V30 5663 N 511.423 1.38739 0.74761 0
M  V30 5664 C 512.651 1.38521 1.53686 0
M  V30 5665 C 513.066 -0.0235129 1.88785 0
M  V30 5666 O 512.423 -0.991662 1.53207 0
M  V30 5667 C 512.474 2.24641 2.83229 0
M  V30 5668 O 512.195 3.60026 2.49625 0
M  V30 5669 C 513.696 2.32669 3.77333 0
M  V30 5670 H 510.916 0.473589 0.475347 0
M  V30 5671 H 513.46 1.82395 0.924786 0
M  V30 5672 H 511.615 1.84213 3.40799 0
M  V30 5673 H 512.029 4.05435 3.3275 0
M  V30 5674 H 513.503 2.97201 4.65162 0
M  V30 5675 H 513.98 1.3421 4.18192 0
M  V30 5676 H 514.586 2.73512 3.25685 0
M  V30 5677 N 512.901 -0.976442 1.23707 0
M  V30 5678 C 514.148 -1.71827 1.07153 0
M  V30 5679 C 514.476 -1.9053 -0.390982 0
M  V30 5680 O 513.731 -1.45779 -1.30564 0
M  V30 5681 C 514.03 -3.11814 1.74662 0
M  V30 5682 C 513.696 -3.12978 3.24585 0
M  V30 5683 C 512.358 -3.13003 3.6549 0
M  V30 5684 C 514.71 -3.07986 4.20469 0
M  V30 5685 C 512.038 -3.05757 5.00729 0
M  V30 5686 C 514.39 -3.02282 5.55705 0
M  V30 5687 C 513.054 -3.00631 5.95968 0
M  V30 5688 H 512.324 -0.628758 0.392102 0
M  V30 5689 H 514.971 -1.14239 1.53693 0
M  V30 5690 H 513.276 -3.72812 1.20492 0
M  V30 5691 H 514.973 -3.67989 1.59328 0
M  V30 5692 H 511.563 -3.13718 2.92026 0
M  V30 5693 H 515.747 -3.07103 3.89874 0
M  V30 5694 H 511.003 -3.02834 5.31132 0
M  V30 5695 H 515.177 -2.97376 6.29714 0
M  V30 5696 H 512.804 -2.94771 7.00724 0
M  V30 5697 N 514.379 -1.04941 -1.1758 0
M  V30 5698 C 515.604 -0.778253 -1.92245 0
M  V30 5699 C 516.029 0.659707 -1.76152 0
M  V30 5700 O 515.387 1.45803 -1.07755 0
M  V30 5701 C 515.435 -1.16051 -3.41416 0
M  V30 5702 O 514.539 -0.291153 -4.11371 0
M  V30 5703 H 513.88 -0.285619 -0.599431 0
M  V30 5704 H 516.41 -1.40159 -1.49052 0
M  V30 5705 H 516.42 -1.12619 -3.92149 0
M  V30 5706 H 515.095 -2.208 -3.52449 0
M  V30 5707 H 513.672 -0.385851 -3.70898 0
M  V30 5708 N 515.857 1.33968 -0.830081 0
M  V30 5709 C 516.807 2.26845 -0.229242 0
M  V30 5710 C 517.791 1.48862 0.610659 0
M  V30 5711 O 518.983 1.70808 0.464067 0
M  V30 5712 C 516.112 3.3798 0.602057 0
M  V30 5713 C 515.198 4.23369 -0.248866 0
M  V30 5714 N 515.589 4.88182 -1.32334 0
M  V30 5715 C 513.887 4.45987 -0.0344077 0
M  V30 5716 C 514.588 5.51671 -1.84482 0
M  V30 5717 N 513.564 5.31348 -1.14762 0
M  V30 5718 H 517.366 2.74464 -1.05104 0
M  V30 5719 H 514.88 1.4777 -0.673623 0
M  V30 5720 H 516.877 4.03494 1.04873 0
M  V30 5721 H 515.537 2.9191 1.42193 0
M  V30 5722 H 516.548 4.88988 -1.70619 0
M  V30 5723 H 513.225 4.10658 0.752727 0
M  V30 5724 H 514.615 6.13308 -2.74413 0
M  V30 5725 N 517.335 0.585699 1.46312 0
M  V30 5726 C 518.581 0.0808731 2.03239 0
M  V30 5727 C 518.936 -1.26609 1.44872 0
M  V30 5728 O 518.229 -1.81779 0.60556 0
M  V30 5729 C 518.423 -0.0401312 3.57377 0
M  V30 5730 C 518.252 1.29356 4.30694 0
M  V30 5731 C 517.022 1.86849 4.69484 0
M  V30 5732 C 519.22 2.21742 4.64042 0
M  V30 5733 N 517.202 3.13926 5.27564 0
M  V30 5734 C 518.573 3.33408 5.22723 0
M  V30 5735 C 520.628 2.21386 4.45974 0
M  V30 5736 C 519.331 4.44852 5.65242 0
M  V30 5737 C 521.357 3.31862 4.89511 0
M  V30 5738 C 520.719 4.42248 5.48266 0
M  V30 5739 H 516.818 0.072443 0.778637 0
M  V30 5740 H 519.402 0.779254 1.78426 0
M  V30 5741 H 517.573 -0.707686 3.81898 0
M  V30 5742 H 519.305 -0.549615 4.00951 0
M  V30 5743 H 516.06 1.40307 4.52339 0
M  V30 5744 H 516.484 3.78775 5.61122 0
M  V30 5745 H 521.126 1.37314 3.99881 0
M  V30 5746 H 518.844 5.29665 6.10312 0
M  V30 5747 H 522.43 3.32708 4.7728 0
M  V30 5748 H 521.31 5.26323 5.81338 0
M  V30 5749 N 518.813 -1.54241 0.323641 0
M  V30 5750 C 519.743 -2.27289 -0.534993 0
M  V30 5751 C 520.724 -1.28087 -1.11927 0
M  V30 5752 O 521.909 -1.56899 -1.14439 0
M  V30 5753 C 519.039 -3.03075 -1.69596 0
M  V30 5754 C 517.993 -4.09614 -1.24098 0
M  V30 5755 C 517.319 -4.73242 -2.4889 0
M  V30 5756 C 518.619 -5.21087 -0.355789 0
M  V30 5757 H 520.313 -2.99308 0.0743257 0
M  V30 5758 H 517.859 -1.43952 0.0371874 0
M  V30 5759 H 519.812 -3.52907 -2.30293 0
M  V30 5760 H 518.536 -2.28673 -2.33187 0
M  V30 5761 H 517.195 -3.60666 -0.656945 0
M  V30 5762 H 516.843 -3.95455 -3.10845 0
M  V30 5763 H 516.543 -5.45209 -2.19138 0
M  V30 5764 H 518.067 -5.25848 -3.10348 0
M  V30 5765 H 519.481 -5.66675 -0.869042 0
M  V30 5766 H 517.878 -5.9991 -0.151045 0
M  V30 5767 H 518.948 -4.81005 0.613339 0
M  V30 5768 N 520.291 -0.0518155 -1.57515 0
M  V30 5769 C 521.537 0.622745 -1.93002 0
M  V30 5770 C 521.87 1.70456 -0.930499 0
M  V30 5771 O 521.145 1.94452 0.0434086 0
M  V30 5772 C 521.428 1.21824 -3.38867 0
M  V30 5773 C 521.281 0.144434 -4.49568 0
M  V30 5774 C 522.6 2.12968 -3.8514 0
M  V30 5775 H 519.719 0.22491 -0.701844 0
M  V30 5776 H 522.361 -0.113711 -1.89659 0
M  V30 5777 H 520.511 1.8459 -3.41846 0
M  V30 5778 H 522.183 -0.48753 -4.58717 0
M  V30 5779 H 520.426 -0.527424 -4.30582 0
M  V30 5780 H 521.097 0.601127 -5.48717 0
M  V30 5781 H 523.573 1.60163 -3.8404 0
M  V30 5782 H 522.449 2.51578 -4.87852 0
M  V30 5783 H 522.71 3.03004 -3.21934 0
M  V30 5784 N 521.769 1.56035 0.221574 0
M  V30 5785 C 522.999 1.82864 0.961468 0
M  V30 5786 C 523.407 0.628703 1.78449 0
M  V30 5787 O 522.75 -0.412109 1.79018 0
M  V30 5788 C 522.812 3.03425 1.92804 0
M  V30 5789 C 522.476 4.38429 1.28954 0
M  V30 5790 C 523.473 5.15441 0.679431 0
M  V30 5791 C 521.158 4.85151 1.30131 0
M  V30 5792 C 523.152 6.37337 0.0896148 0
M  V30 5793 C 520.839 6.06989 0.707651 0
M  V30 5794 C 521.837 6.82923 0.102855 0
M  V30 5795 O 521.525 8.02456 -0.48157 0
M  V30 5796 H 521.257 0.611883 0.28736 0
M  V30 5797 H 523.811 2.0397 0.241932 0
M  V30 5798 H 522.041 2.78138 2.68656 0
M  V30 5799 H 523.73 3.17127 2.53348 0
M  V30 5800 H 524.496 4.80452 0.662661 0
M  V30 5801 H 520.375 4.26021 1.76145 0
M  V30 5802 H 523.919 6.96547 -0.383069 0
M  V30 5803 H 519.816 6.41451 0.721834 0
M  V30 5804 H 520.584 8.17636 -0.375887 0
M  V30 5805 N 523.247 -0.488276 1.49845 0
M  V30 5806 C 524.21 -1.57069 1.66919 0
M  V30 5807 C 525.21 -1.51445 0.540479 0
M  V30 5808 O 526.4 -1.5437 0.807188 0
M  V30 5809 C 523.532 -2.96718 1.67844 0
M  V30 5810 H 524.725 -1.43254 2.63474 0
M  V30 5811 H 522.278 -0.713435 1.39068 0
M  V30 5812 H 523.013 -3.15996 0.7292 0
M  V30 5813 H 522.798 -3.02208 2.49826 0
M  V30 5814 H 524.288 -3.75335 1.83066 0
M  V30 5815 N 524.725 -1.39134 -0.740242 0
M  V30 5816 C 525.673 -1.3757 -1.87556 0
M  V30 5817 C 526.667 -0.259593 -1.67399 0
M  V30 5818 O 527.873 -0.429349 -1.74804 0
M  V30 5819 H 524.248 -0.42947 -0.6173 0
M  V30 5820 H 526.219 -2.33345 -1.85991 0
M  V30 5821 C 524.968 -1.23087 -3.25184 0
M  V30 5822 H 524.291 -2.08237 -3.41288 0
M  V30 5823 H 525.731 -1.26049 -4.0483 0
M  V30 5824 C 524.19 0.0611471 -3.36845 0
M  V30 5825 O 524.72 1.03328 -3.88183 0
M  V30 5826 N 522.926 0.122454 -2.90342 0
M  V30 5827 H 522.473 -0.669329 -2.48752 0
M  V30 5828 H 522.431 0.986463 -2.98523 0
M  V30 5829 N 526.204 0.969867 -1.24223 0
M  V30 5830 C 527.429 1.75289 -1.10853 0
M  V30 5831 C 527.854 1.85091 0.335079 0
M  V30 5832 O 527.212 1.32024 1.24255 0
M  V30 5833 C 527.26 3.15255 -1.75062 0
M  V30 5834 O 526.364 3.99589 -1.01992 0
M  V30 5835 H 525.705 0.538904 -0.387915 0
M  V30 5836 H 528.235 1.21675 -1.64488 0
M  V30 5837 H 528.245 3.65787 -1.80731 0
M  V30 5838 H 526.92 3.07436 -2.801 0
M  V30 5839 H 525.497 3.58077 -1.04094 0
M  V30 5840 N 527.682 1.05563 1.17022 0
M  V30 5841 C 528.645 0.664098 2.19368 0
M  V30 5842 C 529.645 -0.286358 1.5823 0
M  V30 5843 O 530.835 -0.069728 1.7406 0
M  V30 5844 C 527.967 -0.0239932 3.40892 0
M  V30 5845 H 529.16 1.57 2.55521 0
M  V30 5846 H 526.713 0.849964 1.31169 0
M  V30 5847 H 527.448 -0.942988 3.10287 0
M  V30 5848 H 527.233 0.659351 3.86516 0
M  V30 5849 H 528.723 -0.283909 4.16634 0
M  V30 5850 N 529.16 -1.33526 0.837174 0
M  V30 5851 C 530.123 -2.27551 0.274421 0
M  V30 5852 C 531.123 -1.50886 -0.555881 0
M  V30 5853 O 532.313 -1.70227 -0.369918 0
M  V30 5854 C 529.445 -3.35332 -0.613605 0
M  V30 5855 H 530.638 -2.78837 1.10408 0
M  V30 5856 H 528.191 -1.439 0.610126 0
M  V30 5857 H 528.926 -2.89285 -1.46577 0
M  V30 5858 H 528.711 -3.92095 -0.0195341 0
M  V30 5859 H 530.201 -4.05433 -1.00068 0
M  V30 5860 N 530.638 -0.59345 -1.46 0
M  V30 5861 C 531.586 0.146268 -2.3214 0
M  V30 5862 C 532.58 0.873743 -1.45128 0
M  V30 5863 O 533.786 0.790912 -1.61693 0
M  V30 5864 H 530.161 0.0660349 -0.749095 0
M  V30 5865 H 532.132 -0.598895 -2.92328 0
M  V30 5866 C 530.881 1.1396 -3.28494 0
M  V30 5867 H 530.204 0.589252 -3.95434 0
M  V30 5868 H 531.644 1.62738 -3.91526 0
M  V30 5869 C 530.103 2.20604 -2.54628 0
M  V30 5870 O 530.633 3.28128 -2.31722 0
M  V30 5871 N 528.839 1.95502 -2.15005 0
M  V30 5872 H 528.386 1.0807 -2.33834 0
M  V30 5873 H 528.344 2.67064 -1.65904 0
M  V30 5874 N 532.116 1.54067 -0.331816 0
M  V30 5875 C 533.527 1.86059 0.15454 0
M  V30 5876 C 533.878 1.25331 1.50952 0
M  V30 5877 O 533.003 0.562441 2.08963 0
M  V30 5878 C 533.598 3.37581 0.287192 0
M  V30 5879 C 532.157 3.69493 0.717773 0
M  V30 5880 C 531.304 2.76863 -0.155569 0
M  V30 5881 H 534.255 1.48797 -0.55182 0
M  V30 5882 H 534.276 3.63744 1.11671 0
M  V30 5883 H 533.788 3.81751 -0.699131 0
M  V30 5884 H 531.889 3.3086 1.71354 0
M  V30 5885 H 532.002 4.76315 0.5158 0
M  V30 5886 H 530.366 2.51995 0.370213 0
M  V30 5887 H 531.149 3.23861 -1.13881 0
M  V30 5888 N 533.594 0.0601682 1.57485 0
M  V30 5889 C 534.843 -0.611101 1.9222 0
M  V30 5890 C 535.156 -1.71469 0.941159 0
M  V30 5891 O 536.362 -2.44473 1.18089 0
M  V30 5892 C 534.818 -1.13832 3.41424 0
M  V30 5893 C 534.426 -0.0663596 4.47951 0
M  V30 5894 C 536.17 -1.78432 3.85178 0
M  V30 5895 C 534.077 -0.606965 5.88277 0
M  V30 5896 H 533.007 -0.232033 0.71741 0
M  V30 5897 H 535.658 0.130518 1.83035 0
M  V30 5898 H 534.04 -1.93254 3.45643 0
M  V30 5899 H 535.214 0.707682 4.55333 0
M  V30 5900 H 533.529 0.482715 4.13593 0
M  V30 5901 H 536.126 -2.1989 4.87394 0
M  V30 5902 H 536.469 -2.63966 3.21913 0
M  V30 5903 H 537.002 -1.05651 3.83514 0
M  V30 5904 H 533.741 0.21095 6.5516 0
M  V30 5905 H 533.261 -1.34879 5.84438 0
M  V30 5906 H 534.94 -1.08704 6.37803 0
M  V30 5907 N 535.072 -1.5615 -0.213296 0
M  V30 5908 C 536.321 -1.78743 -0.93455 0
M  V30 5909 C 536.634 -0.630199 -1.8517 0
M  V30 5910 O 537.84 -0.739966 -2.61222 0
M  V30 5911 C 536.296 -3.16571 -1.71203 0
M  V30 5912 C 535.904 -4.40043 -0.840617 0
M  V30 5913 C 537.648 -3.48485 -2.42401 0
M  V30 5914 C 535.555 -5.68895 -1.61592 0
M  V30 5915 H 534.485 -0.666426 -0.352692 0
M  V30 5916 H 537.136 -1.82532 -0.188227 0
M  V30 5917 H 535.518 -3.06981 -2.50157 0
M  V30 5918 H 536.692 -4.6071 -0.0910326 0
M  V30 5919 H 535.007 -4.15706 -0.240365 0
M  V30 5920 H 537.604 -4.41983 -3.00924 0
M  V30 5921 H 537.947 -2.71371 -3.15695 0
M  V30 5922 H 538.48 -3.59442 -1.7043 0
M  V30 5923 H 535.219 -6.48925 -0.926106 0
M  V30 5924 H 534.739 -5.52275 -2.33991 0
M  V30 5925 H 536.418 -6.09365 -2.17447 0
M  V30 5926 N 536.55 0.480323 -1.50102 0
M  V30 5927 C 537.78 1.25475 -1.64133 0
M  V30 5928 C 538.188 1.8647 -0.320272 0
M  V30 5929 O 537.531 1.69561 0.70673 0
M  V30 5930 C 537.593 2.40996 -2.6676 0
M  V30 5931 C 537.257 2.00711 -4.10565 0
M  V30 5932 C 538.254 1.53492 -4.96725 0
M  V30 5933 C 535.939 2.09714 -4.56427 0
M  V30 5934 C 537.933 1.15806 -6.26792 0
M  V30 5935 C 535.62 1.7164 -5.86501 0
M  V30 5936 C 536.618 1.24763 -6.71508 0
M  V30 5937 O 536.306 0.872122 -7.99155 0
M  V30 5938 H 536.038 0.385983 -0.554971 0
M  V30 5939 H 538.592 0.580848 -1.97016 0
M  V30 5940 H 536.822 3.11528 -2.291 0
M  V30 5941 H 538.511 3.02981 -2.70106 0
M  V30 5942 H 539.277 1.45966 -4.62514 0
M  V30 5943 H 535.156 2.4515 -3.90413 0
M  V30 5944 H 538.7 0.791465 -6.93096 0
M  V30 5945 H 534.597 1.78822 -6.20236 0
M  V30 5946 H 535.365 1.00178 -8.12346 0
M  V30 5947 N 538.028 1.39524 0.732853 0
M  V30 5948 C 538.976 1.38563 1.86824 0
M  V30 5949 C 539.97 0.268467 1.67259 0
M  V30 5950 O 541.176 0.438613 1.74574 0
M  V30 5951 H 537.551 0.432737 0.615014 0
M  V30 5952 H 539.522 2.34328 1.84751 0
M  V30 5953 C 538.271 1.2481 3.24527 0
M  V30 5954 H 537.594 2.10044 3.40179 0
M  V30 5955 H 539.034 1.28194 4.04156 0
M  V30 5956 C 537.493 -0.0432825 3.36872 0
M  V30 5957 O 538.023 -1.01268 3.88726 0
M  V30 5958 N 536.229 -0.107055 2.90403 0
M  V30 5959 H 535.776 0.682512 2.48394 0
M  V30 5960 H 535.734 -0.970618 2.99042 0
M  V30 5961 N 539.506 -0.963266 1.24736 0
M  V30 5962 C 540.753 -1.7068 1.0897 0
M  V30 5963 C 541.081 -1.90934 -0.370751 0
M  V30 5964 O 540.336 -1.47155 -1.29011 0
M  V30 5965 C 540.635 -3.09944 1.7796 0
M  V30 5966 C 540.301 -3.09518 3.27887 0
M  V30 5967 C 538.963 -3.09109 3.68789 0
M  V30 5968 C 541.315 -3.03509 4.23712 0
M  V30 5969 C 538.643 -3.00429 5.03944 0
M  V30 5970 C 540.995 -2.96371 5.5888 0
M  V30 5971 C 539.659 -2.94293 5.99123 0
M  V30 5972 H 538.929 -0.624564 0.398749 0
M  V30 5973 H 541.576 -1.12603 1.54896 0
M  V30 5974 H 539.881 -3.71513 1.2444 0
M  V30 5975 H 541.578 -3.66278 1.63222 0
M  V30 5976 H 538.168 -3.10603 2.95337 0
M  V30 5977 H 542.352 -3.0295 3.93109 0
M  V30 5978 H 537.608 -2.97183 5.34314 0
M  V30 5979 H 541.782 -2.90681 6.32833 0
M  V30 5980 H 539.409 -2.87322 7.03811 0
M  V30 5981 N 540.985 -1.06182 -1.16461 0
M  V30 5982 C 541.915 -0.692861 -2.22984 0
M  V30 5983 C 542.896 0.314122 -1.67174 0
M  V30 5984 O 544.081 0.189499 -1.93273 0
M  V30 5985 C 541.211 -0.07732 -3.47214 0
M  V30 5986 C 540.165 -1.01015 -4.15909 0
M  V30 5987 C 539.491 -0.257973 -5.34077 0
M  V30 5988 C 540.791 -2.33868 -4.67015 0
M  V30 5989 H 542.485 -1.58343 -2.54102 0
M  V30 5990 H 540.031 -0.76279 -1.22137 0
M  V30 5991 H 541.984 0.19266 -4.20959 0
M  V30 5992 H 540.708 0.848254 -3.15392 0
M  V30 5993 H 539.367 -1.26486 -3.44088 0
M  V30 5994 H 539.015 0.670684 -4.98509 0
M  V30 5995 H 538.715 -0.879638 -5.80979 0
M  V30 5996 H 540.239 0.00448788 -6.106 0
M  V30 5997 H 541.653 -2.1279 -5.32347 0
M  V30 5998 H 540.05 -2.91522 -5.24533 0
M  V30 5999 H 541.12 -2.97019 -3.83286 0
M  V30 6000 N 542.463 1.3308 -0.844243 0
M  V30 6001 C 543.688 2.02341 -0.455282 0
M  V30 6002 C 544.113 1.6308 0.93737 0
M  V30 6003 O 543.471 0.826118 1.61385 0
M  V30 6004 C 543.519 3.55743 -0.58988 0
M  V30 6005 O 542.623 4.1063 0.38166 0
M  V30 6006 H 541.964 0.637898 -0.184343 0
M  V30 6007 H 544.494 1.6986 -1.14056 0
M  V30 6008 H 544.504 4.05243 -0.473522 0
M  V30 6009 H 543.179 3.83662 -1.60549 0
M  V30 6010 H 541.756 3.72236 0.22241 0
M  V30 6011 N 543.941 0.601185 1.45683 0
M  V30 6012 C 545.189 0.0936957 2.01883 0
M  V30 6013 C 545.51 -1.2779 1.47291 0
M  V30 6014 O 544.78 -1.84279 0.664691 0
M  V30 6015 H 543.36 0.0316466 0.746329 0
M  V30 6016 H 546.022 0.781137 1.78562 0
M  V30 6017 H 545.118 0.0386297 3.12076 0
M  V30 6018 N 545.419 -1.53889 0.339982 0
M  V30 6019 C 546.366 -2.24902 -0.518452 0
M  V30 6020 C 547.336 -1.24593 -1.09844 0
M  V30 6021 O 548.521 -1.53317 -1.13572 0
M  V30 6022 C 545.661 -3.02262 -1.66529 0
M  V30 6023 C 544.774 -4.17418 -1.11295 0
M  V30 6024 C 543.909 -4.82273 -2.2268 0
M  V30 6025 C 542.948 -5.89503 -1.6478 0
M  V30 6026 N 542.085 -6.48153 -2.69893 0
M  V30 6027 H 546.925 -2.97853 0.0936579 0
M  V30 6028 H 544.462 -1.46986 0.0579924 0
M  V30 6029 H 546.42 -3.45371 -2.3404 0
M  V30 6030 H 545.05 -2.31614 -2.24844 0
M  V30 6031 H 544.102 -3.78976 -0.328886 0
M  V30 6032 H 545.414 -4.94554 -0.649414 0
M  V30 6033 H 544.568 -5.28435 -2.98063 0
M  V30 6034 H 543.307 -4.04552 -2.72376 0
M  V30 6035 H 542.312 -5.42728 -0.879004 0
M  V30 6036 H 543.537 -6.6913 -1.1594 0
M  V30 6037 H 541.483 -5.73298 -3.1885 0
M  V30 6038 H 541.4 -7.20752 -2.28151 0
M  V30 6039 H 542.668 -6.98968 -3.45056 0
M  V30 6040 N 546.897 -0.0685191 -1.57451 0
M  V30 6041 C 548.144 0.601348 -1.93365 0
M  V30 6042 C 548.472 1.69816 -0.948294 0
M  V30 6043 O 547.727 1.95666 0.0366199 0
M  V30 6044 C 548.026 1.22051 -3.35914 0
M  V30 6045 C 547.692 0.250165 -4.50205 0
M  V30 6046 C 546.354 -0.0167954 -4.81197 0
M  V30 6047 C 548.706 -0.413867 -5.19554 0
M  V30 6048 C 546.034 -0.95493 -5.78876 0
M  V30 6049 C 548.386 -1.3403 -6.18238 0
M  V30 6050 C 547.05 -1.61576 -6.47649 0
M  V30 6051 H 546.32 0.220049 -0.707573 0
M  V30 6052 H 548.967 -0.138697 -1.90997 0
M  V30 6053 H 547.272 2.03622 -3.34732 0
M  V30 6054 H 548.969 1.74605 -3.6099 0
M  V30 6055 H 545.559 0.468421 -4.26033 0
M  V30 6056 H 549.743 -0.220733 -4.95809 0
M  V30 6057 H 544.999 -1.17563 -5.99991 0
M  V30 6058 H 549.173 -1.86081 -6.71079 0
M  V30 6059 H 546.8 -2.34431 -7.2315 0
M  V30 6060 N 548.375 1.56261 0.205012 0
M  V30 6061 C 549.791 1.49623 0.555433 0
M  V30 6062 C 549.991 0.766719 1.86343 0
M  V30 6063 O 549.047 0.313158 2.50551 0
M  V30 6064 C 550.36 2.94253 0.619347 0
M  V30 6065 C 551.908 3.04868 0.708855 0
M  V30 6066 C 552.383 4.50888 0.803969 0
M  V30 6067 N 553.874 4.54999 0.867758 0
M  V30 6068 C 554.609 5.65284 0.96135 0
M  V30 6069 N 554.105 6.85282 1.01786 0
M  V30 6070 N 555.898 5.53174 0.997771 0
M  V30 6071 H 548.049 2.0211 -0.653094 0
M  V30 6072 H 550.312 0.919333 -0.231366 0
M  V30 6073 H 550.018 3.50643 -0.272458 0
M  V30 6074 H 549.892 3.47063 1.47741 0
M  V30 6075 H 552.279 2.48532 1.5911 0
M  V30 6076 H 552.36 2.55199 -0.175205 0
M  V30 6077 H 552.004 5.07846 -0.0738798 0
M  V30 6078 H 551.934 4.98279 1.70369 0
M  V30 6079 H 554.425 3.68588 0.833735 0
M  V30 6080 H 554.738 7.65081 1.08951 0
M  V30 6081 H 553.083 6.8796 0.986706 0
M  V30 6082 H 556.274 4.5835 0.950392 0
M  V30 6083 H 556.447 6.39151 1.06725 0
M  V30 6084 N 549.853 -0.472356 1.50355 0
M  V30 6085 C 550.763 -1.59637 1.7191 0
M  V30 6086 C 551.779 -1.63247 0.602195 0
M  V30 6087 O 552.955 -1.81139 0.880369 0
M  V30 6088 C 550.02 -2.9586 1.80742 0
M  V30 6089 C 549.081 -3.02649 3.04471 0
M  V30 6090 C 548.314 -4.32374 3.12872 0
M  V30 6091 O 548.537 -5.22807 2.28099 0
M  V30 6092 O 547.471 -4.44728 4.05587 0
M  V30 6093 H 551.297 -1.44373 2.67189 0
M  V30 6094 H 548.882 -0.651717 1.34436 0
M  V30 6095 H 550.764 -3.7677 1.88739 0
M  V30 6096 H 549.439 -3.11325 0.88647 0
M  V30 6097 H 548.346 -2.20821 3.01975 0
M  V30 6098 H 549.679 -2.92119 3.9614 0
M  V30 6099 N 551.331 -1.39911 -0.725443 0
M  V30 6100 C 552.241 -1.41688 -1.8698 0
M  V30 6101 C 553.257 -0.310579 -1.71206 0
M  V30 6102 O 554.433 -0.55359 -1.93642 0
M  V30 6103 C 551.498 -1.26811 -3.22676 0
M  V30 6104 C 550.559 -2.47497 -3.50776 0
M  V30 6105 C 549.792 -2.3332 -4.79997 0
M  V30 6106 O 550.015 -1.34175 -5.54394 0
M  V30 6107 O 548.949 -3.22498 -5.08211 0
M  V30 6108 H 552.775 -2.38171 -1.88436 0
M  V30 6109 H 550.36 -1.21128 -0.874548 0
M  V30 6110 H 552.242 -1.20684 -4.03749 0
M  V30 6111 H 550.917 -0.334289 -3.21969 0
M  V30 6112 H 549.824 -2.59201 -2.69751 0
M  V30 6113 H 551.157 -3.39606 -3.5627 0
M  V30 6114 N 552.809 0.956637 -1.25245 0
M  V30 6115 C 554.056 1.701 -1.09874 0
M  V30 6116 C 554.384 1.91128 0.36062 0
M  V30 6117 O 553.639 1.47837 1.28229 0
M  V30 6118 C 553.938 3.08996 -1.79601 0
M  V30 6119 C 553.604 3.07774 -3.29523 0
M  V30 6120 C 552.266 3.07149 -3.70423 0
M  V30 6121 C 554.618 3.01257 -4.25316 0
M  V30 6122 C 551.946 2.97752 -5.0553 0
M  V30 6123 C 554.298 2.93403 -5.60444 0
M  V30 6124 C 552.962 2.91111 -6.00675 0
M  V30 6125 H 552.232 0.62244 -0.402056 0
M  V30 6126 H 554.879 1.1178 -1.55491 0
M  V30 6127 H 553.184 3.70848 -1.26408 0
M  V30 6128 H 554.881 3.65407 -1.65162 0
M  V30 6129 H 551.471 3.09032 -2.9698 0
M  V30 6130 H 555.655 3.00861 -3.9471 0
M  V30 6131 H 550.911 2.94346 -5.35883 0
M  V30 6132 H 555.085 2.87321 -6.34366 0
M  V30 6133 H 552.712 2.83586 -7.05325 0
M  V30 6134 N 554.287 1.06798 1.15896 0
M  V30 6135 C 555.234 0.683314 2.20453 0
M  V30 6136 C 556.204 -0.32255 1.62938 0
M  V30 6137 O 557.389 -0.210276 1.89638 0
M  V30 6138 C 554.529 0.0813266 3.45004 0
M  V30 6139 C 553.642 1.13799 4.16742 0
M  V30 6140 C 552.777 0.501598 5.28826 0
M  V30 6141 C 551.816 1.54144 5.92373 0
M  V30 6142 N 550.953 0.928038 6.9594 0
M  V30 6143 H 555.793 1.57932 2.52708 0
M  V30 6144 H 553.33 0.789544 1.24115 0
M  V30 6145 H 555.288 -0.285274 4.16224 0
M  V30 6146 H 553.918 -0.77806 3.13283 0
M  V30 6147 H 552.97 1.62223 3.44075 0
M  V30 6148 H 554.282 1.92664 4.60089 0
M  V30 6149 H 553.436 0.0823162 6.06644 0
M  V30 6150 H 552.175 -0.318883 4.86656 0
M  V30 6151 H 551.18 1.97056 5.13273 0
M  V30 6152 H 552.405 2.3641 6.36621 0
M  V30 6153 H 550.351 0.12836 6.55874 0
M  V30 6154 H 550.268 1.65401 7.37685 0
M  V30 6155 H 551.536 0.534071 7.77668 0
M  V30 6156 N 555.766 -1.3263 0.851289 0
M  V30 6157 C 556.729 -2.27247 0.298541 0
M  V30 6158 C 557.729 -1.51467 -0.539847 0
M  V30 6159 O 558.919 -1.7061 -0.351843 0
M  V30 6160 C 556.051 -3.35964 -0.578004 0
M  V30 6161 H 557.244 -2.7765 1.13359 0
M  V30 6162 H 554.797 -1.43245 0.625354 0
M  V30 6163 H 555.532 -2.90823 -1.435 0
M  V30 6164 H 555.317 -3.92094 0.0220539 0
M  V30 6165 H 556.807 -4.06472 -0.957626 0
M  V30 6166 N 557.244 -0.608902 -1.45362 0
M  V30 6167 C 558.207 0.0992563 -2.28985 0
M  V30 6168 C 559.207 0.793841 -1.39838 0
M  V30 6169 O 560.397 0.641804 -1.61946 0
M  V30 6170 C 557.529 1.15073 -3.20891 0
M  V30 6171 H 558.722 -0.635964 -2.93079 0
M  V30 6172 H 556.275 -0.368007 -1.51906 0
M  V30 6173 H 557.01 1.91667 -2.616 0
M  V30 6174 H 556.795 0.656867 -3.86559 0
M  V30 6175 H 558.285 1.64665 -3.83765 0
M  V30 6176 N 558.722 1.53707 -0.348139 0
M  V30 6177 C 559.969 2.00988 0.246966 0
M  V30 6178 C 560.297 1.23586 1.50189 0
M  V30 6179 O 559.552 0.312817 1.93184 0
M  V30 6180 C 559.851 3.52292 0.602061 0
M  V30 6181 C 559.517 4.47453 -0.556509 0
M  V30 6182 C 558.179 4.73188 -0.874446 0
M  V30 6183 C 560.531 5.03851 -1.33354 0
M  V30 6184 C 557.859 5.52577 -1.9717 0
M  V30 6185 C 560.211 5.84437 -2.42108 0
M  V30 6186 C 558.875 6.08465 -2.74456 0
M  V30 6187 H 558.145 0.735469 0.0903712 0
M  V30 6188 H 560.792 1.85464 -0.477001 0
M  V30 6189 H 559.097 3.65672 1.40681 0
M  V30 6190 H 560.794 3.86337 1.07447 0
M  V30 6191 H 557.384 4.27558 -0.298652 0
M  V30 6192 H 561.568 4.8393 -1.10117 0
M  V30 6193 H 556.824 5.69418 -2.22651 0
M  V30 6194 H 560.998 6.27151 -3.02745 0
M  V30 6195 H 558.625 6.69768 -3.59604 0
M  V30 6196 N 560.2 0.0768682 1.57412 0
M  V30 6197 C 561.425 -0.603404 1.98428 0
M  V30 6198 C 561.85 -1.62047 0.955108 0
M  V30 6199 O 561.208 -1.81129 -0.0786778 0
M  V30 6200 C 561.256 -1.24396 3.38464 0
M  V30 6201 O 560.36 -2.35982 3.3821 0
M  V30 6202 H 559.701 -0.154741 0.645718 0
M  V30 6203 H 562.231 0.152885 2.04028 0
M  V30 6204 H 562.241 -1.5896 3.7576 0
M  V30 6205 H 560.916 -0.498735 4.12899 0
M  V30 6206 H 559.493 -2.03173 3.1269 0
M  V30 6207 N 561.678 -1.56367 -0.196722 0
M  V30 6208 C 562.918 -1.82315 -0.92415 0
M  V30 6209 C 563.282 -0.654117 -1.80514 0
M  V30 6210 O 564.483 -0.79345 -2.56823 0
M  V30 6211 C 562.754 -3.13279 -1.72021 0
M  V30 6212 S 564.313 -3.60627 -2.49988 0
M  V30 6213 H 561.131 -0.639862 -0.309997 0
M  V30 6214 H 563.733 -1.94597 -0.187684 0
M  V30 6215 H 562.437 -3.96379 -1.06358 0
M  V30 6216 H 561.968 -3.03871 -2.49852 0
M  V30 6217 H 563.983 -3.25934 -3.74141 0
M  V30 6218 N 563.156 0.464375 -1.50603 0
M  V30 6219 C 564.396 1.22573 -1.6357 0
M  V30 6220 C 564.76 1.89111 -0.331834 0
M  V30 6221 O 565.961 2.66679 -0.336999 0
M  V30 6222 C 564.232 2.23643 -2.7878 0
M  V30 6223 S 565.791 3.08628 -3.1192 0
M  V30 6224 H 562.609 0.416058 -0.576556 0
M  V30 6225 H 565.211 0.521637 -1.88412 0
M  V30 6226 H 563.915 1.73354 -3.7199 0
M  V30 6227 H 563.446 2.98672 -2.56044 0
M  V30 6228 H 565.461 4.24904 -2.56264 0
M  V30 6229 N 564.634 1.40294 0.718013 0
M  V30 6230 C 565.874 1.39888 1.49032 0
M  V30 6231 C 566.238 -0.000462935 1.92 0
M  V30 6232 O 567.439 -0.129622 2.68487 0
M  V30 6233 C 565.71 2.35868 2.68516 0
M  V30 6234 S 567.269 2.53799 3.57954 0
M  V30 6235 H 564.087 0.495849 0.509563 0
M  V30 6236 H 566.689 1.76541 0.839846 0
M  V30 6237 H 565.393 3.36375 2.35117 0
M  V30 6238 H 564.924 2.0049 3.38478 0
M  V30 6239 H 566.939 1.78859 4.62843 0
M  V30 6240 N 566.112 -0.949982 1.2575 0
M  V30 6241 C 567.042 -2.06483 1.09028 0
M  V30 6242 C 568.023 -1.701 -0.00201532 0
M  V30 6243 O 569.208 -1.93469 0.168383 0
M  V30 6244 C 566.338 -3.39899 0.71316 0
M  V30 6245 C 565.292 -3.90309 1.75621 0
M  V30 6246 C 564.618 -5.20274 1.23365 0
M  V30 6247 C 565.918 -4.16169 3.15596 0
M  V30 6248 H 567.612 -2.20731 2.02283 0
M  V30 6249 H 565.158 -1.06066 0.973964 0
M  V30 6250 H 567.111 -4.17346 0.58309 0
M  V30 6251 H 565.835 -3.25602 -0.255091 0
M  V30 6252 H 564.494 -3.15035 1.8748 0
M  V30 6253 H 564.142 -5.02351 0.255491 0
M  V30 6254 H 563.842 -5.54971 1.93082 0
M  V30 6255 H 565.366 -6.00314 1.11607 0
M  V30 6256 H 566.78 -4.84259 3.06864 0
M  V30 6257 H 565.177 -4.62131 3.82825 0
M  V30 6258 H 566.247 -3.22273 3.6231 0
M  V30 6259 N 567.59 -1.07411 -1.15328 0
M  V30 6260 C 568.838 -0.796073 -1.85761 0
M  V30 6261 C 569.159 0.679864 -1.82764 0
M  V30 6262 O 568.429 1.49242 -1.269 0
M  V30 6263 H 567.009 -0.291495 -0.687779 0
M  V30 6264 H 569.671 -1.35799 -1.39802 0
M  V30 6265 H 568.767 -1.13114 -2.90881 0
M  V30 6266 N 569.068 1.32177 -0.85831 0
M  V30 6267 C 570.314 1.97417 -0.46417 0
M  V30 6268 C 570.647 1.67746 0.978514 0
M  V30 6269 O 569.922 0.967654 1.68721 0
M  V30 6270 C 570.205 3.53069 -0.708094 0
M  V30 6271 C 570.058 3.92357 -2.19946 0
M  V30 6272 C 571.377 4.39783 -0.166881 0
M  V30 6273 H 568.496 0.717097 -0.17012 0
M  V30 6274 H 571.138 1.56499 -1.07741 0
M  V30 6275 H 569.288 3.88054 -0.186128 0
M  V30 6276 H 570.96 3.67533 -2.78779 0
M  V30 6277 H 569.203 3.41384 -2.67656 0
M  V30 6278 H 569.874 5.00841 -2.32082 0
M  V30 6279 H 572.35 4.11556 -0.613285 0
M  V30 6280 H 571.226 5.47671 -0.367093 0
M  V30 6281 H 571.487 4.32196 0.930559 0
M  V30 6282 N 570.547 0.616602 1.45037 0
M  V30 6283 C 571.497 -0.118543 2.27692 0
M  V30 6284 C 572.481 -0.830025 1.37838 0
M  V30 6285 O 573.673 -0.718528 1.6176 0
M  V30 6286 C 570.802 -1.10924 3.24886 0
M  V30 6287 C 569.888 -0.398134 4.22227 0
M  V30 6288 N 570.279 0.565233 5.02632 0
M  V30 6289 C 568.577 -0.644506 4.41319 0
M  V30 6290 C 569.278 0.984043 5.73316 0
M  V30 6291 N 568.254 0.325879 5.42622 0
M  V30 6292 H 572.056 0.621239 2.87259 0
M  V30 6293 H 569.57 0.440968 1.56299 0
M  V30 6294 H 571.567 -1.65038 3.82842 0
M  V30 6295 H 570.227 -1.84948 2.66879 0
M  V30 6296 H 571.238 0.942395 5.09254 0
M  V30 6297 H 567.915 -1.36873 3.94426 0
M  V30 6298 H 569.305 1.77911 6.47918 0
M  V30 6299 N 572.025 -1.5352 0.356285 0
M  V30 6300 C 572.975 -2.22204 -0.510815 0
M  V30 6301 C 573.959 -1.21393 -1.05605 0
M  V30 6302 O 575.151 -1.46883 -0.987639 0
M  V30 6303 C 572.28 -3.00786 -1.65478 0
M  V30 6304 C 571.366 -4.08965 -1.12287 0
M  V30 6305 N 571.757 -5.04829 -0.313191 0
M  V30 6306 C 570.055 -4.23505 -1.39856 0
M  V30 6307 C 570.756 -5.81695 -0.0230322 0
M  V30 6308 N 569.732 -5.40074 -0.618144 0
M  V30 6309 H 573.534 -2.93676 0.114711 0
M  V30 6310 H 571.048 -1.61572 0.163811 0
M  V30 6311 H 573.045 -3.48502 -2.28806 0
M  V30 6312 H 571.705 -2.30843 -2.28345 0
M  V30 6313 H 572.716 -5.17879 0.0468202 0
M  V30 6314 H 569.393 -3.64786 -2.0307 0
M  V30 6315 H 570.783 -6.68931 0.630927 0
M  V30 6316 N 573.503 -0.0852151 -1.57369 0
M  V30 6317 C 574.919 0.271436 -1.57275 0
M  V30 6318 C 575.119 1.69109 -1.09565 0
M  V30 6319 O 574.175 2.40549 -0.767611 0
M  V30 6320 C 575.488 0.0688638 -3.00621 0
M  V30 6321 C 577.036 0.137373 -3.12698 0
M  V30 6322 C 577.511 -0.0370832 -4.57985 0
M  V30 6323 N 579.002 0.0180794 -4.63196 0
M  V30 6324 C 579.737 -0.0922953 -5.73326 0
M  V30 6325 N 579.233 -0.256948 -6.92323 0
M  V30 6326 N 581.026 -0.0342702 -5.6209 0
M  V30 6327 H 573.177 -1.01288 -1.86693 0
M  V30 6328 H 575.44 -0.396138 -0.861266 0
M  V30 6329 H 575.146 -0.911277 -3.39689 0
M  V30 6330 H 575.02 0.815442 -3.6828 0
M  V30 6331 H 577.407 1.10801 -2.73509 0
M  V30 6332 H 577.488 -0.640532 -2.47651 0
M  V30 6333 H 577.132 -1.00455 -4.97867 0
M  V30 6334 H 577.062 0.760392 -5.21081 0
M  V30 6335 H 579.553 0.143202 -3.77629 0
M  V30 6336 H 579.866 -0.332949 -7.72082 0
M  V30 6337 H 578.211 -0.292487 -6.94384 0
M  V30 6338 H 581.402 0.0931605 -4.68007 0
M  V30 6339 H 581.575 -0.12374 -6.47882 0
M  V30 6340 N 574.981 1.5647 0.188427 0
M  V30 6341 C 575.913 1.91611 1.25769 0
M  V30 6342 C 576.926 0.807436 1.41366 0
M  V30 6343 O 578.115 1.08586 1.41673 0
M  V30 6344 C 575.215 2.13874 2.6289 0
M  V30 6345 C 574.388 3.45047 2.68815 0
M  V30 6346 C 573.447 3.56342 3.87178 0
M  V30 6347 O 572.473 4.29109 3.73971 0
M  V30 6348 N 573.675 2.89924 5.02916 0
M  V30 6349 H 576.44 2.8393 0.959373 0
M  V30 6350 H 574.001 1.57418 0.378306 0
M  V30 6351 H 575.993 2.18713 3.4051 0
M  V30 6352 H 574.563 1.28022 2.85183 0
M  V30 6353 H 573.783 3.52017 1.77419 0
M  V30 6354 H 575.071 4.31395 2.6977 0
M  V30 6355 H 574.469 2.30644 5.16546 0
M  V30 6356 H 573.026 3.0038 5.78459 0
M  V30 6357 N 576.459 -0.456382 1.50847 0
M  V30 6358 C 577.369 -1.57805 1.73594 0
M  V30 6359 C 578.385 -1.62599 0.619476 0
M  V30 6360 O 579.561 -1.80195 0.899532 0
M  V30 6361 C 576.626 -2.93926 1.8387 0
M  V30 6362 C 575.687 -2.99402 3.07663 0
M  V30 6363 C 574.92 -4.29031 3.1744 0
M  V30 6364 O 575.143 -5.20358 2.33631 0
M  V30 6365 O 574.077 -4.40401 4.10281 0
M  V30 6366 H 577.903 -1.41531 2.68705 0
M  V30 6367 H 575.488 -0.637422 1.3512 0
M  V30 6368 H 577.37 -3.74747 1.92725 0
M  V30 6369 H 576.045 -3.10368 0.91944 0
M  V30 6370 H 574.952 -2.17606 3.043 0
M  V30 6371 H 576.285 -2.87901 3.99216 0
M  V30 6372 N 577.937 -1.40673 -0.710563 0
M  V30 6373 C 579.214 -1.29718 -1.46398 0
M  V30 6374 C 579.594 0.082177 -2.1094 0
M  V30 6375 O 578.942 1.09536 -2.00534 0
M  V30 6376 C 579.152 -2.43967 -2.49562 0
M  V30 6377 C 580.5 -2.84436 -3.15248 0
M  V30 6378 O 581.524 -2.43597 -2.59883 0
M  V30 6379 O 580.383 -3.55008 -4.1549 0
M  V30 6380 H 577.477 -0.509697 -0.651258 0
M  V30 6381 H 580.023 -1.52603 -0.742312 0
M  V30 6382 H 578.795 -3.36076 -2.0042 0
M  V30 6383 H 578.418 -2.22879 -3.29258 0
M  V30 6384 N 579.415 0.9433 -1.26252 0
M  V30 6385 C 580.831 1.21644 -1.03319 0
M  V30 6386 C 581.031 2.0003 0.242983 0
M  V30 6387 O 580.087 2.33838 0.952688 0
M  V30 6388 C 581.4 1.97978 -2.2633 0
M  V30 6389 C 582.948 2.10978 -2.31209 0
M  V30 6390 C 583.423 2.90713 -3.53907 0
M  V30 6391 N 584.914 2.98287 -3.54371 0
M  V30 6392 C 585.649 3.60406 -4.45976 0
M  V30 6393 N 585.145 4.24043 -5.47868 0
M  V30 6394 N 586.938 3.57658 -4.33633 0
M  V30 6395 H 579.089 0.419221 -2.08222 0
M  V30 6396 H 581.352 0.247995 -0.914988 0
M  V30 6397 H 581.058 1.47788 -3.19142 0
M  V30 6398 H 580.932 2.9865 -2.30408 0
M  V30 6399 H 583.319 2.6036 -1.38913 0
M  V30 6400 H 583.4 1.09575 -2.31143 0
M  V30 6401 H 583.044 2.42018 -4.46531 0
M  V30 6402 H 582.974 3.92367 -3.5122 0
M  V30 6403 H 585.465 2.53044 -2.80673 0
M  V30 6404 H 585.778 4.69334 -6.13959 0
M  V30 6405 H 584.123 4.22637 -5.51728 0
M  V30 6406 H 587.314 3.07134 -3.53251 0
M  V30 6407 H 587.487 4.05782 -5.05218 0
M  V30 6408 N 580.893 1.08022 1.14757 0
M  V30 6409 C 581.823 0.728248 2.21853 0
M  V30 6410 C 582.804 -0.287486 1.67653 0
M  V30 6411 O 583.989 -0.158727 1.9355 0
M  V30 6412 C 581.119 0.132549 3.47047 0
M  V30 6413 C 580.073 1.07619 4.14249 0
M  V30 6414 C 579.399 0.342907 5.33599 0
M  V30 6415 C 580.699 2.41268 4.63235 0
M  V30 6416 H 582.393 1.62365 2.51551 0
M  V30 6417 H 579.939 0.782125 1.20908 0
M  V30 6418 H 581.892 -0.125665 4.21213 0
M  V30 6419 H 580.616 -0.797971 3.16702 0
M  V30 6420 H 579.275 1.31944 3.42033 0
M  V30 6421 H 578.923 -0.59129 4.99513 0
M  V30 6422 H 578.623 0.971955 5.79506 0
M  V30 6423 H 580.147 0.0926538 6.1053 0
M  V30 6424 H 581.561 2.21232 5.28894 0
M  V30 6425 H 579.958 2.9983 5.19829 0
M  V30 6426 H 581.028 3.03079 3.78512 0
M  V30 6427 N 582.371 -1.3172 0.865308 0
M  V30 6428 C 583.599 -2.01057 0.488251 0
M  V30 6429 C 584.014 -1.64979 -0.918 0
M  V30 6430 O 583.371 -0.876597 -1.60069 0
M  V30 6431 C 583.422 -3.55964 0.630224 0
M  V30 6432 O 583.143 -3.90749 1.98109 0
M  V30 6433 C 584.644 -4.42574 0.253567 0
M  V30 6434 H 581.864 -0.64332 0.190736 0
M  V30 6435 H 584.408 -1.68058 1.16519 0
M  V30 6436 H 582.563 -3.874 0.000895422 0
M  V30 6437 H 582.977 -4.85467 1.9855 0
M  V30 6438 H 584.451 -5.50521 0.403875 0
M  V30 6439 H 584.928 -4.31724 -0.806895 0
M  V30 6440 H 585.534 -4.16547 0.858404 0
M  V30 6441 N 583.85 -0.624285 -1.44708 0
M  V30 6442 C 585.266 -0.289322 -1.56956 0
M  V30 6443 C 585.466 1.20773 -1.61295 0
M  V30 6444 O 584.522 1.9915 -1.55227 0
M  V30 6445 C 585.835 -0.975215 -2.84447 0
M  V30 6446 C 587.383 -0.952709 -2.98148 0
M  V30 6447 C 587.858 -1.61893 -4.28433 0
M  V30 6448 N 589.349 -1.5852 -4.35231 0
M  V30 6449 C 590.084 -2.06969 -5.34744 0
M  V30 6450 N 589.58 -2.63579 -6.40701 0
M  V30 6451 N 591.373 -1.97638 -5.26209 0
M  V30 6452 H 583.524 -1.59612 -1.40135 0
M  V30 6453 H 585.787 -0.669592 -0.671081 0
M  V30 6454 H 585.493 -2.02999 -2.87201 0
M  V30 6455 H 585.367 -0.508749 -3.73753 0
M  V30 6456 H 587.754 0.093568 -2.94952 0
M  V30 6457 H 587.835 -1.4576 -2.10209 0
M  V30 6458 H 587.479 -2.66463 -4.32389 0
M  V30 6459 H 587.409 -1.08893 -5.15218 0
M  V30 6460 H 589.899 -1.17183 -3.59272 0
M  V30 6461 H 590.213 -2.98298 -7.12908 0
M  V30 6462 H 588.558 -2.67626 -6.41406 0
M  V30 6463 H 591.749 -1.5314 -4.42341 0
M  V30 6464 H 591.922 -2.35708 -6.03611 0
M  V30 6465 N 585.328 1.53329 -0.364422 0
M  V30 6466 C 586.576 2.00842 0.225189 0
M  V30 6467 C 586.897 1.25345 1.49378 0
M  V30 6468 O 586.167 0.366396 1.92443 0
M  V30 6469 H 584.747 0.742009 0.0862027 0
M  V30 6470 H 587.409 1.8863 -0.490389 0
M  V30 6471 H 586.505 3.08795 0.452987 0
M  V30 6472 N 586.806 0.0935595 1.57322 0
M  V30 6473 C 588.222 -0.263091 1.57417 0
M  V30 6474 C 588.422 -1.68526 1.1046 0
M  V30 6475 O 587.478 -2.40139 0.780357 0
M  V30 6476 C 588.791 -0.0529201 3.00653 0
M  V30 6477 C 590.339 -0.120788 3.12767 0
M  V30 6478 C 590.814 0.0613707 4.57959 0
M  V30 6479 N 592.305 0.00648534 4.632 0
M  V30 6480 C 593.04 0.122699 5.73269 0
M  V30 6481 N 592.536 0.29366 6.92177 0
M  V30 6482 N 594.329 0.0640787 5.62063 0
M  V30 6483 H 586.48 1.02277 1.86154 0
M  V30 6484 H 588.743 0.4007 0.859153 0
M  V30 6485 H 588.449 0.929279 3.39201 0
M  V30 6486 H 588.323 -0.795899 3.68708 0
M  V30 6487 H 590.71 -1.09349 2.74093 0
M  V30 6488 H 590.791 0.653656 2.47307 0
M  V30 6489 H 590.435 1.03093 4.97327 0
M  V30 6490 H 590.365 -0.732748 5.21477 0
M  V30 6491 H 592.856 -0.123173 3.77699 0
M  V30 6492 H 593.169 0.37389 7.71895 0
M  V30 6493 H 591.514 0.329307 6.94219 0
M  V30 6494 H 594.705 -0.0683396 4.6805 0
M  V30 6495 H 594.878 0.158097 6.47807 0
M  V30 6496 N 588.284 -1.56567 -0.180126 0
M  V30 6497 C 589.512 -1.85618 -0.913972 0
M  V30 6498 C 589.927 -0.677892 -1.7621 0
M  V30 6499 O 589.284 0.353171 -1.7905 0
M  V30 6500 C 589.335 -3.13619 -1.79793 0
M  V30 6501 O 589.056 -4.26906 -0.98402 0
M  V30 6502 C 590.557 -3.55954 -2.64219 0
M  V30 6503 H 587.777 -0.616043 -0.265954 0
M  V30 6504 H 590.321 -2.03681 -0.182872 0
M  V30 6505 H 588.476 -2.97409 -2.48247 0
M  V30 6506 H 588.89 -4.9989 -1.58776 0
M  V30 6507 H 590.364 -4.48444 -3.21873 0
M  V30 6508 H 590.841 -2.79653 -3.38661 0
M  V30 6509 H 591.447 -3.74746 -2.01111 0
M  V30 6510 N 589.762 0.448376 -1.51087 0
M  V30 6511 C 590.987 1.22605 -1.6728 0
M  V30 6512 C 591.412 1.84524 -0.365045 0
M  V30 6513 O 590.77 1.6832 0.673642 0
M  V30 6514 C 590.818 2.29393 -2.78229 0
M  V30 6515 O 589.922 3.34608 -2.41063 0
M  V30 6516 H 589.263 0.359705 -0.558129 0
M  V30 6517 H 591.793 0.530903 -1.97592 0
M  V30 6518 H 591.803 2.74352 -3.01986 0
M  V30 6519 H 590.478 1.83701 -3.73131 0
M  V30 6520 H 589.055 2.95202 -2.27838 0
M  V30 6521 N 591.24 1.41047 0.703093 0
M  V30 6522 C 592.468 1.4334 1.49202 0
M  V30 6523 C 592.883 0.0365596 1.88765 0
M  V30 6524 O 592.24 -0.942419 1.56284 0
M  V30 6525 C 592.291 2.33538 2.75939 0
M  V30 6526 O 592.012 3.67786 2.38045 0
M  V30 6527 C 593.513 2.44555 3.6974 0
M  V30 6528 H 590.733 0.488472 0.460039 0
M  V30 6529 H 593.277 1.85245 0.86629 0
M  V30 6530 H 591.432 1.94962 3.34766 0
M  V30 6531 H 591.846 4.15816 3.19683 0
M  V30 6532 H 593.32 3.11849 4.55471 0
M  V30 6533 H 593.797 1.47447 4.1371 0
M  V30 6534 H 594.403 2.83735 3.16819 0
M  V30 6535 N 592.718 -0.936591 1.26751 0
M  V30 6536 C 593.628 -2.06949 1.10496 0
M  V30 6537 C 594.644 -1.7396 0.037271 0
M  V30 6538 O 595.82 -1.99941 0.241944 0
M  V30 6539 C 592.885 -3.38612 0.744491 0
M  V30 6540 C 591.946 -3.85355 1.89209 0
M  V30 6541 C 591.179 -5.10735 1.54873 0
M  V30 6542 O 591.402 -5.68602 0.452546 0
M  V30 6543 O 590.336 -5.52632 2.38499 0
M  V30 6544 H 594.162 -2.23571 2.05547 0
M  V30 6545 H 591.747 -1.05428 1.05855 0
M  V30 6546 H 593.629 -4.17711 0.556396 0
M  V30 6547 H 592.304 -3.23218 -0.176582 0
M  V30 6548 H 591.211 -3.07182 2.13518 0
M  V30 6549 H 592.544 -4.05277 2.79305 0
M  V30 6550 N 594.196 -1.08629 -1.14182 0
M  V30 6551 C 595.421 -0.83902 -1.89671 0
M  V30 6552 C 595.846 0.603332 -1.78161 0
M  V30 6553 O 595.204 1.42301 -1.12339 0
M  V30 6554 C 595.252 -1.26854 -3.37551 0
M  V30 6555 O 594.356 -0.42188 -4.10236 0
M  V30 6556 H 593.697 -0.304545 -0.590041 0
M  V30 6557 H 596.227 -1.4483 -1.44518 0
M  V30 6558 H 596.237 -1.25038 -3.88368 0
M  V30 6559 H 594.912 -2.31901 -3.45246 0
M  V30 6560 H 593.489 -0.503654 -3.69483 0
M  V30 6561 N 595.674 1.31259 -0.872281 0
M  V30 6562 C 597.09 1.49283 -0.564521 0
M  V30 6563 C 597.29 1.80243 0.900807 0
M  V30 6564 O 596.346 1.88246 1.68284 0
M  V30 6565 C 597.659 2.62503 -1.46673 0
M  V30 6566 C 599.207 2.76386 -1.46901 0
M  V30 6567 C 599.682 3.92705 -2.35684 0
M  V30 6568 N 601.173 3.99995 -2.33577 0
M  V30 6569 C 601.908 4.89276 -2.98992 0
M  V30 6570 N 601.404 5.83443 -3.73585 0
M  V30 6571 N 603.197 4.82541 -2.88289 0
M  V30 6572 H 595.348 1.09432 -1.82039 0
M  V30 6573 H 597.611 0.540949 -0.77851 0
M  V30 6574 H 597.317 2.46407 -2.50951 0
M  V30 6575 H 597.191 3.58695 -1.16696 0
M  V30 6576 H 599.578 2.91894 -0.433796 0
M  V30 6577 H 599.659 1.80853 -1.80903 0
M  V30 6578 H 599.303 3.77954 -3.39283 0
M  V30 6579 H 599.233 4.87549 -1.99006 0
M  V30 6580 H 601.724 3.32624 -1.7936 0
M  V30 6581 H 602.037 6.48303 -4.20622 0
M  V30 6582 H 600.382 5.83415 -3.77694 0
M  V30 6583 H 603.573 4.07951 -2.2955 0
M  V30 6584 H 603.746 5.51916 -3.39549 0
M  V30 6585 N 597.152 0.631951 1.44375 0
M  V30 6586 C 598.099 -0.0724807 2.30686 0
M  V30 6587 C 599.069 -0.835975 1.43529 0
M  V30 6588 O 600.254 -0.816849 1.7243 0
M  V30 6589 C 597.394 -1.04753 3.28817 0
M  V30 6590 C 596.507 -0.282367 4.31076 0
M  V30 6591 C 595.642 -1.2493 5.163 0
M  V30 6592 C 594.681 -0.473349 6.10267 0
M  V30 6593 N 593.818 -1.39079 6.88187 0
M  V30 6594 H 598.658 0.669477 2.90383 0
M  V30 6595 H 596.195 0.341927 1.43071 0
M  V30 6596 H 598.153 -1.62623 3.842 0
M  V30 6597 H 596.783 -1.75661 2.70819 0
M  V30 6598 H 595.835 0.412268 3.78159 0
M  V30 6599 H 597.147 0.321955 4.9776 0
M  V30 6600 H 596.301 -1.89931 5.76204 0
M  V30 6601 H 595.04 -1.88755 4.49692 0
M  V30 6602 H 594.045 0.190142 5.49471 0
M  V30 6603 H 595.27 0.16019 6.78911 0
M  V30 6604 H 593.216 -2.01623 6.24247 0
M  V30 6605 H 593.133 -0.840513 7.51313 0
M  V30 6606 H 594.401 -2.02961 7.52613 0
M  V30 6607 N 598.631 -1.53133 0.372548 0
M  V30 6608 C 599.856 -2.0625 -0.218098 0
M  V30 6609 C 600.281 -1.24375 -1.41111 0
M  V30 6610 O 599.639 -0.264554 -1.79359 0
M  V30 6611 C 599.687 -3.55858 -0.582876 0
M  V30 6612 O 598.791 -3.76667 -1.67917 0
M  V30 6613 H 598.132 -0.663317 -0.030104 0
M  V30 6614 H 600.662 -1.97477 0.535169 0
M  V30 6615 H 600.672 -3.99007 -0.851925 0
M  V30 6616 H 599.347 -4.14892 0.289428 0
M  V30 6617 H 597.924 -3.45413 -1.40513 0
M  V30 6618 N 600.109 -0.101901 -1.5727 0
M  V30 6619 C 601.039 0.851544 -2.17419 0
M  V30 6620 C 602.02 1.28942 -1.10941 0
M  V30 6621 O 603.205 1.35509 -1.39107 0
M  V30 6622 C 600.335 2.10816 -2.75996 0
M  V30 6623 C 599.289 1.80867 -3.87906 0
M  V30 6624 C 598.615 3.13413 -4.33216 0
M  V30 6625 C 599.915 1.0903 -5.10793 0
M  V30 6626 H 601.609 0.350381 -2.97343 0
M  V30 6627 H 599.155 0.16709 -1.43027 0
M  V30 6628 H 601.108 2.77959 -3.16729 0
M  V30 6629 H 599.832 2.63227 -1.93337 0
M  V30 6630 H 598.491 1.16119 -3.47724 0
M  V30 6631 H 598.139 3.63725 -3.47438 0
M  V30 6632 H 597.839 2.94155 -5.08671 0
M  V30 6633 H 599.363 3.81704 -4.76586 0
M  V30 6634 H 600.777 1.66295 -5.48652 0
M  V30 6635 H 599.174 0.99927 -5.91722 0
M  V30 6636 H 600.244 0.0741704 -4.84843 0
M  V30 6637 N 601.587 1.56661 0.17182 0
M  V30 6638 C 602.815 1.861 0.904115 0
M  V30 6639 C 603.23 0.687227 1.75848 0
M  V30 6640 O 602.587 -0.343671 1.79235 0
M  V30 6641 C 602.638 3.14568 1.78127 0
M  V30 6642 O 602.359 4.27422 0.961366 0
M  V30 6643 C 603.86 3.5735 2.62327 0
M  V30 6644 H 601.08 0.617445 0.262684 0
M  V30 6645 H 603.624 2.03775 0.172068 0
M  V30 6646 H 601.779 2.98721 2.46666 0
M  V30 6647 H 602.193 5.00725 1.56123 0
M  V30 6648 H 603.667 4.50144 3.1949 0
M  V30 6649 H 604.144 2.81445 3.37173 0
M  V30 6650 H 604.75 3.75807 1.99121 0
M  V30 6651 N 603.065 -0.440357 1.51323 0
M  V30 6652 C 604.293 -1.21255 1.67645 0
M  V30 6653 C 604.708 -1.85088 0.37252 0
M  V30 6654 O 604.065 -1.70582 -0.648683 0
M  V30 6655 C 604.116 -2.29881 2.78993 0
M  V30 6656 O 603.837 -1.68659 4.04334 0
M  V30 6657 C 605.338 -3.20214 3.06558 0
M  V30 6658 H 602.558 -0.36558 0.562666 0
M  V30 6659 H 605.102 -0.52214 1.97722 0
M  V30 6660 H 603.257 -2.94643 2.51524 0
M  V30 6661 H 603.671 -2.40426 4.6615 0
M  V30 6662 H 605.145 -3.92575 3.88058 0
M  V30 6663 H 605.622 -3.80794 2.18844 0
M  V30 6664 H 606.228 -2.61156 3.35675 0
M  V30 6665 N 604.543 -1.41418 -0.695603 0
M  V30 6666 C 605.475 -1.39195 -1.82092 0
M  V30 6667 C 606.488 -0.294132 -1.60121 0
M  V30 6668 O 607.677 -0.555854 -1.69625 0
M  V30 6669 C 604.777 -1.14828 -3.18854 0
M  V30 6670 C 603.95 -2.36649 -3.67853 0
M  V30 6671 C 603.009 -2.08139 -4.83285 0
M  V30 6672 O 602.035 -2.81177 -4.94902 0
M  V30 6673 N 603.237 -1.07162 -5.70523 0
M  V30 6674 H 606.002 -2.36185 -1.84491 0
M  V30 6675 H 603.563 -1.3603 -0.877923 0
M  V30 6676 H 605.555 -0.937075 -3.93702 0
M  V30 6677 H 604.125 -0.264358 -3.1148 0
M  V30 6678 H 603.345 -2.73472 -2.83913 0
M  V30 6679 H 604.633 -3.17816 -3.97329 0
M  V30 6680 H 604.031 -0.467124 -5.63768 0
M  V30 6681 H 602.588 -0.920311 -6.4527 0
M  V30 6682 N 606.021 0.929856 -1.27246 0
M  V30 6683 C 607.27 1.67182 -1.12842 0
M  V30 6684 C 607.583 1.9287 0.325666 0
M  V30 6685 O 608.789 2.64999 0.590572 0
M  V30 6686 C 607.245 3.01097 -1.97151 0
M  V30 6687 C 606.853 2.83115 -3.47203 0
M  V30 6688 C 608.597 3.78907 -1.91389 0
M  V30 6689 C 606.504 4.12573 -4.23719 0
M  V30 6690 H 605.434 0.627064 -0.418697 0
M  V30 6691 H 608.085 1.0332 -1.51649 0
M  V30 6692 H 606.467 3.66004 -1.51186 0
M  V30 6693 H 607.641 2.26989 -4.01015 0
M  V30 6694 H 605.956 2.18736 -3.54321 0
M  V30 6695 H 608.553 4.74837 -2.45834 0
M  V30 6696 H 608.896 4.0674 -0.887047 0
M  V30 6697 H 609.429 3.20794 -2.35237 0
M  V30 6698 H 606.168 3.8992 -5.26918 0
M  V30 6699 H 605.688 4.68371 -3.74685 0
M  V30 6700 H 607.367 4.8095 -4.32777 0
M  V30 6701 N 607.499 1.09233 1.13605 0
M  V30 6702 C 608.724 0.849067 1.89224 0
M  V30 6703 C 609.149 -0.593875 1.78479 0
M  V30 6704 O 608.507 -1.41703 1.13092 0
M  V30 6705 C 608.555 1.28642 3.36873 0
M  V30 6706 O 607.659 0.44363 4.10007 0
M  V30 6707 H 607 0.30767 0.588417 0
M  V30 6708 H 609.53 1.45595 1.43748 0
M  V30 6709 H 609.54 1.27096 3.87699 0
M  V30 6710 H 608.215 2.33729 3.44011 0
M  V30 6711 H 606.792 0.523241 3.69211 0
M  V30 6712 N 608.977 -1.30795 0.87923 0
M  V30 6713 C 609.925 -2.30231 0.331112 0
M  V30 6714 C 610.919 -1.59918 -0.558794 0
M  V30 6715 O 612.125 -1.74441 -0.443866 0
M  V30 6716 H 608.5 -0.746785 0.088409 0
M  V30 6717 H 610.471 -2.73925 1.18353 0
M  V30 6718 C 609.22 -3.44848 -0.444401 0
M  V30 6719 H 608.543 -3.99131 0.231106 0
M  V30 6720 H 609.983 -4.16516 -0.793109 0
M  V30 6721 C 608.442 -2.94329 -1.63926 0
M  V30 6722 O 608.972 -2.93875 -2.73862 0
M  V30 6723 N 607.178 -2.50413 -1.4745 0
M  V30 6724 H 606.725 -2.50982 -0.58015 0
M  V30 6725 H 606.683 -2.16969 -2.27534 0
M  V30 6726 N 610.455 -0.639598 -1.44038 0
M  V30 6727 C 611.702 -0.14748 -2.01962 0
M  V30 6728 C 612.03 1.23372 -1.50365 0
M  V30 6729 O 611.285 1.8345 -0.681501 0
M  V30 6730 C 611.584 -0.0925348 -3.5728 0
M  V30 6731 C 611.25 -1.41365 -4.28167 0
M  V30 6732 C 609.912 -1.77545 -4.47248 0
M  V30 6733 C 612.264 -2.2853 -4.68427 0
M  V30 6734 C 609.592 -3.00583 -5.03852 0
M  V30 6735 C 611.944 -3.50846 -5.26393 0
M  V30 6736 C 610.608 -3.8724 -5.43692 0
M  V30 6737 H 609.878 -0.0539666 -0.739032 0
M  V30 6738 H 612.525 -0.827599 -1.72694 0
M  V30 6739 H 610.83 0.670987 -3.86012 0
M  V30 6740 H 612.527 0.304891 -3.99839 0
M  V30 6741 H 609.117 -1.1221 -4.13651 0
M  V30 6742 H 613.301 -2.0187 -4.5339 0
M  V30 6743 H 608.557 -3.28846 -5.15432 0
M  V30 6744 H 612.731 -4.18616 -5.56537 0
M  V30 6745 H 610.358 -4.8266 -5.87319 0
M  V30 6746 N 611.933 1.52934 -0.380664 0
M  V30 6747 C 613.21 1.93845 0.261417 0
M  V30 6748 C 613.59 1.31544 1.65104 0
M  V30 6749 O 612.938 0.480234 2.23397 0
M  V30 6750 C 613.148 3.47739 0.296466 0
M  V30 6751 C 614.496 4.21284 0.529578 0
M  V30 6752 O 615.52 3.54199 0.377041 0
M  V30 6753 O 614.379 5.40195 0.827753 0
M  V30 6754 H 611.473 0.811318 0.160285 0
M  V30 6755 H 614.019 1.64042 -0.434544 0
M  V30 6756 H 612.791 3.85395 -0.67724 0
M  V30 6757 H 612.414 3.8382 1.0377 0
M  V30 6758 N 613.412 0.11024 1.57214 0
M  V30 6759 C 614.36 -0.860586 2.16094 0
M  V30 6760 C 615.354 -1.28156 1.1078 0
M  V30 6761 O 616.56 -1.25433 1.29099 0
M  V30 6762 H 612.935 -0.295606 0.691463 0
M  V30 6763 H 614.906 -0.33942 2.96463 0
M  V30 6764 C 613.655 -2.10421 2.768 0
M  V30 6765 H 612.978 -1.7892 3.5753 0
M  V30 6766 H 614.418 -2.76375 3.21547 0
M  V30 6767 C 612.877 -2.88823 1.73444 0
M  V30 6768 O 613.407 -3.839 1.18251 0
M  V30 6769 N 611.613 -2.52649 1.43586 0
M  V30 6770 H 611.16 -1.754 1.8866 0
M  V30 6771 H 611.118 -3.05403 0.746735 0
M  V30 6772 N 614.89 -1.56749 -0.16351 0
M  V30 6773 C 616.139 -1.81626 -0.877211 0
M  V30 6774 C 616.452 -0.688791 -1.83071 0
M  V30 6775 O 617.658 -0.822697 -2.58735 0
M  V30 6776 C 616.114 -3.21858 -1.61045 0
M  V30 6777 C 615.722 -4.42494 -0.700195 0
M  V30 6778 C 617.466 -3.56021 -2.31192 0
M  V30 6779 C 615.373 -5.73748 -1.43412 0
M  V30 6780 H 614.303 -0.67731 -0.331312 0
M  V30 6781 H 616.954 -1.83039 -0.13006 0
M  V30 6782 H 615.336 -3.14784 -2.40264 0
M  V30 6783 H 616.51 -4.60766 0.0555849 0
M  V30 6784 H 614.825 -4.1626 -0.10799 0
M  V30 6785 H 617.422 -4.51333 -2.8671 0
M  V30 6786 H 617.765 -2.81277 -3.06902 0
M  V30 6787 H 618.298 -3.64682 -1.58909 0
M  V30 6788 H 615.037 -6.51543 -0.719186 0
M  V30 6789 H 614.557 -5.5944 -2.16302 0
M  V30 6790 H 616.236 -6.15975 -1.9795 0
M  V30 6791 N 616.368 0.432326 -1.51554 0
M  V30 6792 C 617.593 1.20824 -1.68571 0
M  V30 6793 C 618.018 1.84126 -0.384596 0
M  V30 6794 O 617.376 1.69025 0.655751 0
M  V30 6795 C 617.424 2.26429 -2.80646 0
M  V30 6796 O 616.528 3.32032 -2.44598 0
M  V30 6797 H 615.869 0.353765 -0.561913 0
M  V30 6798 H 618.399 0.509916 -1.98144 0
M  V30 6799 H 618.409 2.71133 -3.04878 0
M  V30 6800 H 617.084 1.79733 -3.75058 0
M  V30 6801 H 615.661 2.92769 -2.30956 0
M  V30 6802 N 617.846 1.41785 0.688094 0
M  V30 6803 C 618.793 1.44221 1.80191 0
M  V30 6804 C 619.763 0.295688 1.63447 0
M  V30 6805 O 620.948 0.49783 1.84191 0
M  V30 6806 C 618.088 1.33743 3.1813 0
M  V30 6807 C 617.201 2.58325 3.46254 0
M  V30 6808 C 616.336 2.40086 4.73848 0
M  V30 6809 C 615.375 3.60107 4.94964 0
M  V30 6810 N 614.512 3.40892 6.13789 0
M  V30 6811 H 619.352 2.39411 1.77444 0
M  V30 6812 H 616.889 1.18876 0.866423 0
M  V30 6813 H 618.847 1.25669 3.97823 0
M  V30 6814 H 617.477 0.42157 3.20035 0
M  V30 6815 H 616.529 2.7682 2.60912 0
M  V30 6816 H 617.841 3.4758 3.57756 0
M  V30 6817 H 616.995 2.29522 5.61609 0
M  V30 6818 H 615.734 1.483 4.64606 0
M  V30 6819 H 614.739 3.71118 4.05649 0
M  V30 6820 H 615.964 4.52857 5.06061 0
M  V30 6821 H 613.91 2.51812 6.05745 0
M  V30 6822 H 613.827 4.23727 6.26092 0
M  V30 6823 H 615.095 3.34114 7.04264 0
M  V30 6824 N 619.324 -0.923095 1.27737 0
M  V30 6825 C 620.254 -2.04124 1.13383 0
M  V30 6826 C 621.235 -1.70066 0.0340658 0
M  V30 6827 O 622.42 -1.93068 0.209383 0
M  V30 6828 C 619.55 -3.3831 0.785097 0
M  V30 6829 C 618.504 -3.86496 1.8386 0
M  V30 6830 C 617.83 -5.1754 1.34373 0
M  V30 6831 C 619.13 -4.09381 3.24353 0
M  V30 6832 H 620.824 -2.1639 2.06919 0
M  V30 6833 H 618.37 -1.03976 0.996243 0
M  V30 6834 H 620.323 -4.16016 0.671485 0
M  V30 6835 H 619.047 -3.2607 -0.185969 0
M  V30 6836 H 617.706 -3.10987 1.9412 0
M  V30 6837 H 617.354 -5.01696 0.361989 0
M  V30 6838 H 617.054 -5.50751 2.04811 0
M  V30 6839 H 618.578 -5.97811 1.24315 0
M  V30 6840 H 619.992 -4.77641 3.17067 0
M  V30 6841 H 618.389 -4.53906 3.92542 0
M  V30 6842 H 619.459 -3.14515 3.69064 0
M  V30 6843 N 620.802 -1.09834 -1.13024 0
M  V30 6844 C 622.027 -0.85909 -1.88771 0
M  V30 6845 C 622.452 0.584402 -1.78791 0
M  V30 6846 O 621.81 1.41101 -1.13842 0
M  V30 6847 C 621.858 -1.30427 -3.36186 0
M  V30 6848 O 620.962 -0.465368 -4.09766 0
M  V30 6849 H 620.303 -0.310786 -0.586778 0
M  V30 6850 H 622.833 -1.46355 -1.42973 0
M  V30 6851 H 622.843 -1.2915 -3.8702 0
M  V30 6852 H 621.518 -2.3555 -3.42767 0
M  V30 6853 H 620.095 -0.542814 -3.68928 0
M  V30 6854 N 622.28 1.30327 -0.886154 0
M  V30 6855 C 623.19 2.31854 -0.357866 0
M  V30 6856 C 624.206 1.65392 0.540502 0
M  V30 6857 O 625.382 1.96683 0.433339 0
M  V30 6858 C 622.447 3.44171 0.417999 0
M  V30 6859 C 621.508 4.26257 -0.510263 0
M  V30 6860 C 620.741 5.3321 0.228669 0
M  V30 6861 O 620.964 5.51542 1.45458 0
M  V30 6862 O 619.898 6.0042 -0.421832 0
M  V30 6863 H 623.724 2.78995 -1.19982 0
M  V30 6864 H 621.309 1.34518 -0.650028 0
M  V30 6865 H 623.191 4.12588 0.857251 0
M  V30 6866 H 621.866 2.99164 1.23623 0
M  V30 6867 H 620.773 3.60533 -0.99835 0
M  V30 6868 H 622.106 4.74871 -1.29454 0
M  V30 6869 N 623.758 0.647228 1.43697 0
M  V30 6870 C 624.69 -0.0866232 2.29036 0
M  V30 6871 C 625.703 -0.793051 1.42178 0
M  V30 6872 O 626.892 -0.651807 1.66174 0
M  V30 6873 C 623.992 -1.14552 3.18953 0
M  V30 6874 C 623.165 -0.518422 4.34317 0
M  V30 6875 C 622.224 -1.4734 5.05151 0
M  V30 6876 O 621.25 -0.984312 5.60625 0
M  V30 6877 N 622.452 -2.8075 5.08094 0
M  V30 6878 H 625.217 0.645834 2.92659 0
M  V30 6879 H 622.778 0.489567 1.54321 0
M  V30 6880 H 624.77 -1.78505 3.63205 0
M  V30 6881 H 623.34 -1.78001 2.56971 0
M  V30 6882 H 622.56 0.300079 3.93056 0
M  V30 6883 H 623.848 -0.080401 5.08736 0
M  V30 6884 H 623.246 -3.23052 4.64386 0
M  V30 6885 H 621.803 -3.40022 5.56083 0
M  V30 6886 N 625.236 -1.5273 0.388769 0
M  V30 6887 C 626.482 -2.01871 -0.193877 0
M  V30 6888 C 626.815 -1.27475 -1.46505 0
M  V30 6889 O 626.09 -0.375063 -1.90849 0
M  V30 6890 C 626.373 -3.5712 -0.462336 0
M  V30 6891 C 626.226 -4.42186 0.824091 0
M  V30 6892 C 627.545 -4.21881 -1.25319 0
M  V30 6893 H 624.664 -0.733764 -0.0689899 0
M  V30 6894 H 627.306 -1.82796 0.518231 0
M  V30 6895 H 625.456 -3.73504 -1.06896 0
M  V30 6896 H 627.128 -4.37554 1.46096 0
M  V30 6897 H 625.371 -4.09219 1.43952 0
M  V30 6898 H 626.042 -5.48828 0.590905 0
M  V30 6899 H 628.518 -4.0947 -0.73981 0
M  V30 6900 H 627.394 -5.30487 -1.40977 0
M  V30 6901 H 627.655 -3.79478 -2.26824 0
M  V30 6902 N 626.714 -0.118576 -1.57153 0
M  V30 6903 C 627.96 0.540326 -1.95469 0
M  V30 6904 C 628.293 1.66356 -1.00196 0
M  V30 6905 O 627.568 1.94461 -0.039104 0
M  V30 6906 C 627.851 1.07342 -3.43729 0
M  V30 6907 C 627.704 -0.0463732 -4.49776 0
M  V30 6908 C 629.023 1.96442 -3.93826 0
M  V30 6909 H 626.142 0.19494 -0.710751 0
M  V30 6910 H 628.784 -0.19405 -1.89006 0
M  V30 6911 H 626.934 1.69925 -3.49368 0
M  V30 6912 H 628.606 -0.681648 -4.56236 0
M  V30 6913 H 626.849 -0.709574 -4.27957 0
M  V30 6914 H 627.52 0.367856 -5.50773 0
M  V30 6915 H 629.996 1.43731 -3.90488 0
M  V30 6916 H 628.872 2.3066 -4.98084 0
M  V30 6917 H 629.133 2.89077 -3.34495 0
M  V30 6918 N 628.193 1.56834 0.155195 0
M  V30 6919 C 629.123 2.00678 1.19376 0
M  V30 6920 C 630.104 0.884973 1.45266 0
M  V30 6921 O 631.289 1.1522 1.56326 0
M  V30 6922 C 628.419 2.38042 2.5289 0
M  V30 6923 C 627.373 3.53332 2.41538 0
M  V30 6924 C 626.699 3.76485 3.79688 0
M  V30 6925 C 627.999 4.86265 1.9064 0
M  V30 6926 H 629.693 2.87688 0.829232 0
M  V30 6927 H 627.239 1.38407 0.397445 0
M  V30 6928 H 629.192 2.67314 3.25763 0
M  V30 6929 H 627.916 1.4796 2.91162 0
M  V30 6930 H 626.575 3.24213 1.71117 0
M  V30 6931 H 626.223 2.83667 4.15382 0
M  V30 6932 H 625.923 4.54068 3.72956 0
M  V30 6933 H 627.447 4.08174 4.54122 0
M  V30 6934 H 628.861 5.14308 2.53299 0
M  V30 6935 H 627.258 5.67597 1.94818 0
M  V30 6936 H 628.328 4.77184 0.861596 0
M  V30 6937 N 629.671 -0.424282 1.51781 0
M  V30 6938 C 630.899 -1.1947 1.68921 0
M  V30 6939 C 631.314 -1.84683 0.39213 0
M  V30 6940 O 630.671 -1.71261 -0.630554 0
M  V30 6941 C 630.722 -2.26909 2.81416 0
M  V30 6942 O 630.443 -1.64361 4.061 0
M  V30 6943 C 631.944 -3.16945 3.09937 0
M  V30 6944 H 629.164 -0.359591 0.566511 0
M  V30 6945 H 631.708 -0.501139 1.98265 0
M  V30 6946 H 629.863 -2.91959 2.54635 0
M  V30 6947 H 630.277 -2.35468 4.68674 0
M  V30 6948 H 631.751 -3.88437 3.922 0
M  V30 6949 H 632.228 -3.78451 2.22871 0
M  V30 6950 H 632.834 -2.57581 3.38426 0
M  V30 6951 N 631.149 -1.42148 -0.680565 0
M  V30 6952 C 632.374 -1.45901 -1.47403 0
M  V30 6953 C 632.799 -0.0700985 -1.87969 0
M  V30 6954 O 632.157 0.930145 -1.55621 0
M  V30 6955 C 632.205 -2.38661 -2.70321 0
M  V30 6956 O 631.309 -1.85399 -3.68376 0
M  V30 6957 H 630.65 -0.494565 -0.443059 0
M  V30 6958 H 633.18 -1.86774 -0.835251 0
M  V30 6959 H 633.19 -2.55046 -3.18458 0
M  V30 6960 H 631.865 -3.39571 -2.40134 0
M  V30 6961 H 630.442 -1.78541 -3.2738 0
M  V30 6962 N 632.627 0.916307 -1.28225 0
M  V30 6963 C 633.876 1.65975 -1.14608 0
M  V30 6964 C 634.189 1.93204 0.305191 0
M  V30 6965 O 635.395 2.65611 0.562432 0
M  V30 6966 C 633.851 2.98989 -2.00333 0
M  V30 6967 C 633.459 2.79417 -3.50186 0
M  V30 6968 C 635.203 3.76856 -1.95397 0
M  V30 6969 C 633.11 4.08056 -4.28071 0
M  V30 6970 H 632.04 0.622587 -0.425324 0
M  V30 6971 H 634.691 1.01705 -1.52736 0
M  V30 6972 H 633.073 3.6438 -1.5506 0
M  V30 6973 H 634.247 2.22723 -4.034 0
M  V30 6974 H 632.562 2.14966 -3.56621 0
M  V30 6975 H 635.159 4.72203 -2.50856 0
M  V30 6976 H 635.502 4.05776 -0.930137 0
M  V30 6977 H 636.035 3.1828 -2.38626 0
M  V30 6978 H 632.774 3.8431 -5.31024 0
M  V30 6979 H 632.294 4.64371 -3.79631 0
M  V30 6980 H 633.973 4.76333 -4.37854 0
M  V30 6981 N 634.105 1.10431 1.1244 0
M  V30 6982 C 635.33 0.869089 1.88313 0
M  V30 6983 C 635.755 -0.574912 1.79099 0
M  V30 6984 O 635.113 -1.40496 1.14589 0
M  V30 6985 C 635.161 1.32208 3.3549 0
M  V30 6986 O 634.265 0.487092 4.09513 0
M  V30 6987 H 633.606 0.313894 0.585121 0
M  V30 6988 H 636.136 1.47111 1.42195 0
M  V30 6989 H 636.146 1.31201 3.86329 0
M  V30 6990 H 634.821 2.37364 3.41513 0
M  V30 6991 H 633.398 0.562372 3.68635 0
M  V30 6992 N 635.583 -1.29855 0.893053 0
M  V30 6993 C 636.811 -1.99976 0.530788 0
M  V30 6994 C 637.226 -1.66889 -0.882799 0
M  V30 6995 O 636.583 -0.910352 -1.58173 0
M  V30 6996 C 636.634 -3.54547 0.705587 0
M  V30 6997 O 636.355 -3.86458 2.06353 0
M  V30 6998 C 637.856 -4.41937 0.347387 0
M  V30 6999 H 635.076 -0.639129 0.204339 0
M  V30 7000 H 637.62 -1.65549 1.20057 0
M  V30 7001 H 635.775 -3.87311 0.0830685 0
M  V30 7002 H 636.189 -4.81146 2.08803 0
M  V30 7003 H 637.663 -5.4954 0.520557 0
M  V30 7004 H 638.14 -4.33339 -0.715139 0
M  V30 7005 H 638.746 -4.14633 0.946567 0
M  V30 7006 N 637.061 -0.65484 -1.43351 0
M  V30 7007 C 637.991 0.0221809 -2.33489 0
M  V30 7008 C 638.972 0.810272 -1.49561 0
M  V30 7009 O 640.157 0.771426 -1.78221 0
M  V30 7010 C 637.287 0.988117 -3.32947 0
M  V30 7011 C 636.241 0.310026 -4.26876 0
M  V30 7012 C 635.567 1.38752 -5.16384 0
M  V30 7013 C 636.867 -0.798589 -5.16159 0
M  V30 7014 H 638.561 -0.730571 -2.9035 0
M  V30 7015 H 636.107 -0.352773 -1.39612 0
M  V30 7016 H 638.06 1.47067 -3.94904 0
M  V30 7017 H 636.784 1.77205 -2.74346 0
M  V30 7018 H 635.443 -0.152097 -3.66284 0
M  V30 7019 H 635.091 2.16293 -4.54121 0
M  V30 7020 H 634.791 0.939051 -5.80048 0
M  V30 7021 H 636.315 1.87141 -5.81215 0
M  V30 7022 H 637.729 -0.398126 -5.71916 0
M  V30 7023 H 636.126 -1.17163 -5.88552 0
M  V30 7024 H 637.196 -1.65588 -4.55751 0
M  V30 7025 N 638.539 1.52521 -0.396863 0
M  V30 7026 C 639.95 1.86547 0.0754868 0
M  V30 7027 C 640.301 1.31621 1.45501 0
M  V30 7028 O 639.426 0.650563 2.0639 0
M  V30 7029 C 640.021 3.38495 0.143754 0
M  V30 7030 C 638.58 3.72205 0.560413 0
M  V30 7031 C 637.727 2.75954 -0.272856 0
M  V30 7032 H 640.678 1.46323 -0.614434 0
M  V30 7033 H 640.699 3.68153 0.961425 0
M  V30 7034 H 640.211 3.78442 -0.860415 0
M  V30 7035 H 638.312 3.3783 1.57167 0
M  V30 7036 H 638.425 4.78074 0.313314 0
M  V30 7037 H 636.789 2.53339 0.263 0
M  V30 7038 H 637.572 3.1874 -1.27515 0
M  V30 7039 N 640.017 0.126909 1.57088 0
M  V30 7040 C 640.98 -0.806097 2.14557 0
M  V30 7041 C 641.98 -1.18918 1.08236 0
M  V30 7042 O 643.17 -1.11339 1.33975 0
M  V30 7043 C 640.302 -2.09116 2.69227 0
M  V30 7044 H 641.495 -0.306522 2.98329 0
M  V30 7045 H 639.048 -0.122393 1.5582 0
M  V30 7046 H 639.783 -2.63486 1.89065 0
M  V30 7047 H 639.568 -1.82588 3.46993 0
M  V30 7048 H 641.058 -2.75794 3.13572 0
M  V30 7049 N 641.495 -1.56914 -0.146875 0
M  V30 7050 C 642.458 -1.97368 -1.16526 0
M  V30 7051 C 643.458 -0.860223 -1.35856 0
M  V30 7052 O 644.648 -1.12684 -1.32846 0
M  V30 7053 C 641.78 -2.28974 -2.52555 0
M  V30 7054 H 642.973 -2.88523 -0.818209 0
M  V30 7055 H 640.526 -1.5135 -0.390221 0
M  V30 7056 H 641.261 -1.40611 -2.92231 0
M  V30 7057 H 641.046 -3.10157 -2.39886 0
M  V30 7058 H 642.536 -2.61109 -3.25902 0
M  V30 7059 N 642.974 0.416227 -1.52004 0
M  V30 7060 C 643.922 1.5272 -1.7544 0
M  V30 7061 C 644.916 1.57596 -0.621289 0
M  V30 7062 O 646.122 1.61087 -0.803172 0
M  V30 7063 H 642.497 0.507772 -0.554682 0
M  V30 7064 H 644.468 1.30136 -2.68528 0
M  V30 7065 C 643.217 2.90165 -1.91571 0
M  V30 7066 H 642.54 2.87154 -2.78178 0
M  V30 7067 H 643.98 3.67211 -2.11972 0
M  V30 7068 C 642.439 3.29947 -0.680942 0
M  V30 7069 O 642.969 4.01403 0.154527 0
M  V30 7070 N 641.175 2.8593 -0.518894 0
M  V30 7071 H 640.722 2.2795 -1.19986 0
M  V30 7072 H 640.68 3.12907 0.305985 0
M  V30 7073 N 644.452 1.42507 0.673017 0
M  V30 7074 C 645.7 1.42789 1.43023 0
M  V30 7075 C 646.021 0.0459738 1.94946 0
M  V30 7076 O 645.291 -0.915765 1.73178 0
M  V30 7077 H 643.871 0.525657 0.530748 0
M  V30 7078 H 646.533 1.77944 0.795113 0
M  V30 7079 H 645.629 2.12872 2.28237 0
M  V30 7080 N 645.93 -0.909495 1.28709 0
M  V30 7081 C 646.893 -1.99399 1.13016 0
M  V30 7082 C 647.893 -1.60654 0.068536 0
M  V30 7083 O 649.083 -1.71334 0.314671 0
M  V30 7084 C 646.215 -3.33078 0.726085 0
M  V30 7085 H 647.408 -2.14751 2.09338 0
M  V30 7086 H 644.961 -1.09272 1.11756 0
M  V30 7087 H 645.696 -3.23428 -0.23771 0
M  V30 7088 H 645.481 -3.62562 1.49302 0
M  V30 7089 H 646.971 -4.12681 0.639058 0
M  V30 7090 N 647.408 -1.11026 -1.11852 0
M  V30 7091 C 648.656 -0.854769 -1.83134 0
M  V30 7092 C 648.977 0.621375 -1.84835 0
M  V30 7093 O 648.247 1.45129 -1.31584 0
M  V30 7094 H 646.827 -0.313229 -0.678157 0
M  V30 7095 H 649.489 -1.40178 -1.35411 0
M  V30 7096 H 648.585 -1.22311 -2.87135 0
M  V30 7097 N 648.886 1.2938 -0.899927 0
M  V30 7098 C 650.297 1.77644 -0.574427 0
M  V30 7099 C 650.648 1.73824 0.909928 0
M  V30 7100 O 649.773 1.32429 1.71147 0
M  V30 7101 C 650.368 3.22573 -1.03595 0
M  V30 7102 C 648.927 3.68614 -0.76161 0
M  V30 7103 C 648.074 2.49483 -1.21052 0
M  V30 7104 H 651.025 1.16038 -1.08263 0
M  V30 7105 H 651.046 3.78684 -0.371337 0
M  V30 7106 H 650.558 3.25321 -2.11631 0
M  V30 7107 H 648.659 3.7134 0.306127 0
M  V30 7108 H 648.772 4.59402 -1.35965 0
M  V30 7109 H 647.136 2.46798 -0.629515 0
M  V30 7110 H 647.919 2.54959 -2.29893 0
M  V30 7111 N 650.364 0.662433 1.43002 0
M  V30 7112 C 651.294 -0.00979809 2.33498 0
M  V30 7113 C 652.275 -0.802329 1.49989 0
M  V30 7114 O 653.46 -0.761964 1.78627 0
M  V30 7115 C 650.59 -0.970446 3.33466 0
M  V30 7116 C 649.544 -0.287383 4.27034 0
M  V30 7117 C 648.87 -1.36012 5.17112 0
M  V30 7118 C 650.17 0.82595 5.15728 0
M  V30 7119 H 651.864 0.745959 2.89958 0
M  V30 7120 H 649.41 0.360172 1.39423 0
M  V30 7121 H 651.363 -1.44971 3.95679 0
M  V30 7122 H 650.087 -1.75748 2.75282 0
M  V30 7123 H 648.746 0.17152 3.66199 0
M  V30 7124 H 648.394 -2.13882 4.55262 0
M  V30 7125 H 648.094 -0.908276 5.80538 0
M  V30 7126 H 649.618 -1.84056 5.82199 0
M  V30 7127 H 651.032 0.42845 5.71697 0
M  V30 7128 H 649.429 1.20282 5.87922 0
M  V30 7129 H 650.499 1.68003 4.54866 0
M  V30 7130 N 651.842 -1.52309 0.404946 0
M  V30 7131 C 652.774 -2.24579 -0.45791 0
M  V30 7132 C 653.787 -1.2739 -1.01369 0
M  V30 7133 O 654.976 -1.53363 -0.91335 0
M  V30 7134 C 652.076 -2.9608 -1.64893 0
M  V30 7135 C 651.249 -4.20106 -1.21777 0
M  V30 7136 C 650.308 -4.74468 -2.27523 0
M  V30 7137 O 649.334 -5.37157 -1.88285 0
M  V30 7138 N 650.536 -4.55678 -3.59635 0
M  V30 7139 H 653.301 -2.99265 0.161341 0
M  V30 7140 H 650.862 -1.60228 0.232107 0
M  V30 7141 H 652.854 -3.29344 -2.35191 0
M  V30 7142 H 651.424 -2.24606 -2.17419 0
M  V30 7143 H 650.644 -3.92704 -0.343071 0
M  V30 7144 H 651.932 -5.00658 -0.906596 0
M  V30 7145 H 651.33 -4.05673 -3.94266 0
M  V30 7146 H 649.887 -4.9339 -4.25922 0
M  V30 7147 N 653.32 -0.135238 -1.57019 0
M  V30 7148 C 654.268 0.826099 -2.17436 0
M  V30 7149 C 655.262 1.26378 -1.12805 0
M  V30 7150 O 656.468 1.23363 -1.31079 0
M  V30 7151 H 652.843 0.284568 -0.696078 0
M  V30 7152 H 654.814 0.292212 -2.96966 0
M  V30 7153 C 653.563 2.05991 -2.80112 0
M  V30 7154 H 652.886 1.73209 -3.60331 0
M  V30 7155 H 654.326 2.71225 -3.25903 0
M  V30 7156 C 652.785 2.86027 -1.78017 0
M  V30 7157 O 653.315 3.81971 -1.24344 0
M  V30 7158 N 651.521 2.50332 -1.47588 0
M  V30 7159 H 651.068 1.72377 -1.91426 0
M  V30 7160 H 651.026 3.04177 -0.795228 0
M  V30 7161 N 654.798 1.5699 0.138552 0
M  V30 7162 C 656.044 1.84966 0.846116 0
M  V30 7163 C 656.399 0.72038 1.78405 0
M  V30 7164 O 655.692 -0.281076 1.89527 0
M  V30 7165 C 655.886 3.17007 1.65049 0
M  V30 7166 C 655.715 4.42672 0.79194 0
M  V30 7167 C 654.485 5.03254 0.454293 0
M  V30 7168 C 656.683 5.14164 0.118419 0
M  V30 7169 N 654.665 6.12482 -0.416964 0
M  V30 7170 C 656.036 6.16966 -0.61263 0
M  V30 7171 C 658.091 4.97884 0.0399671 0
M  V30 7172 C 656.794 7.0525 -1.41473 0
M  V30 7173 C 658.82 5.86639 -0.748901 0
M  V30 7174 C 658.182 6.88929 -1.4682 0
M  V30 7175 H 654.281 0.727362 0.287172 0
M  V30 7176 H 656.865 1.94383 0.110972 0
M  V30 7177 H 655.036 3.08722 2.35681 0
M  V30 7178 H 656.768 3.3286 2.30187 0
M  V30 7179 H 653.523 4.6693 0.792038 0
M  V30 7180 H 653.947 6.7172 -0.843865 0
M  V30 7181 H 658.589 4.18779 0.581728 0
M  V30 7182 H 656.307 7.83777 -1.96772 0
M  V30 7183 H 659.893 5.7611 -0.811705 0
M  V30 7184 H 658.773 7.56419 -2.06882 0
M  V30 7185 O 656.315 -0.283142 1.58999 0
M  V30 7186 H 657.006 -0.92904 1.69966 0
M  V30 END ATOM
M  V30 BEGIN BOND
M  V30 END BOND
M  V30 END CTAB
M  END
$$$$
