drugbank_target|O43681 ATPase ASNA1 (DB00171)
 OpenBabel12092119393D

  0  0  0     0  0            999 V3000
M  V30 BEGIN CTAB
M  V30 COUNTS 5428 5482 0 0 0
M  V30 BEGIN ATOM
M  V30 1 H -0.908 1.98254 -0.117106 0
M  V30 2 N 0 1.576 0 0
M  V30 3 C 0.933 2.03868 1.02534 0
M  V30 4 C 1.911 0.928543 1.3348 0
M  V30 5 O 3.095 1.19667 1.45644 0
M  V30 6 C 0.222 2.43627 2.35294 0
M  V30 7 C -0.732 3.65373 2.2001 0
M  V30 8 S 0.101 5.13292 1.52614 0
M  V30 9 C 1.257 5.56322 2.86805 0
M  V30 10 H 1.49 2.90518 0.631377 0
M  V30 11 H -0.977 1.52953 0.210867 0
M  V30 12 H 0.981 2.67203 3.11629 0
M  V30 13 H -0.358 1.57376 2.7183 0
M  V30 14 H -1.165 3.90944 3.18086 0
M  V30 15 H -1.563 3.418 1.51819 0
M  V30 16 H 0.729 5.58782 3.83104 0
M  V30 17 H 1.672 6.56266 2.65933 0
M  V30 18 H 2.08 4.83886 2.90714 0
M  V30 19 N 1.4781 -0.272755 1.55222 0
M  V30 20 C 2.4411 -1.32041 1.87344 0
M  V30 21 C 3.4411 -1.42342 0.74803 0
M  V30 22 O 4.6311 -1.41488 1.0162 0
M  V30 23 C 1.7631 -2.70173 2.07893 0
M  V30 24 H 2.9561 -1.04789 2.80997 0
M  V30 25 H 0.5091 -0.51083 1.47717 0
M  V30 26 H 1.2441 -3.02605 1.16622 0
M  V30 27 H 1.0291 -2.64082 2.89833 0
M  V30 28 H 2.5191 -3.45869 2.34017 0
M  V30 29 N 2.9562 -1.48159 -0.537278 0
M  V30 30 C 3.9192 -1.61665 -1.62472 0
M  V30 31 C 4.9192 -0.490395 -1.5314 0
M  V30 32 O 6.1092 -0.755998 -1.5694 0
M  V30 33 C 3.2412 -1.57997 -3.02076 0
M  V30 34 H 4.4342 -2.58621 -1.51839 0
M  V30 35 H 1.9872 -1.36647 -0.758771 0
M  V30 36 H 2.7222 -0.624913 -3.18222 0
M  V30 37 H 2.5072 -2.39755 -3.10258 0
M  V30 38 H 3.9972 -1.70627 -3.81151 0
M  V30 39 N 4.4343 0.785586 -1.36625 0
M  V30 40 C 5.6823 1.54057 -1.30808 0
M  V30 41 C 6.0033 1.94683 0.111157 0
M  V30 42 O 5.2733 1.65241 1.05224 0
M  V30 43 H 3.8533 0.571354 -0.481211 0
M  V30 44 H 6.5153 0.935821 -1.70963 0
M  V30 45 H 5.6113 2.44637 -1.93801 0
M  V30 46 N 5.9124 1.20967 1.01018 0
M  V30 47 C 7.1584 1.02526 1.74975 0
M  V30 48 C 7.4914 -0.4408 1.89131 0
M  V30 49 O 6.7664 -1.32718 1.42184 0
M  V30 50 C 7.0494 1.71699 3.1653 0
M  V30 51 C 6.9024 3.25791 3.10129 0
M  V30 52 C 8.2214 1.45531 4.15342 0
M  V30 53 H 5.3404 0.373863 0.635134 0
M  V30 54 H 7.9824 1.49071 1.17805 0
M  V30 55 H 6.1324 1.32128 3.65341 0
M  V30 56 H 7.8044 3.74697 2.69072 0
M  V30 57 H 6.0474 3.56363 2.47362 0
M  V30 58 H 6.7184 3.69353 4.10222 0
M  V30 59 H 9.1944 1.79872 3.75213 0
M  V30 60 H 8.0704 1.96453 5.1254 0
M  V30 61 H 8.3314 0.384237 4.40427 0
M  V30 62 N 7.3905 -1.2043 1.01659 0
M  V30 63 C 8.3535 -2.21433 0.591616 0
M  V30 64 C 9.3535 -1.57203 -0.338226 0
M  V30 65 O 10.5435 -1.73737 -0.126918 0
M  V30 66 C 7.6755 -3.40628 -0.136058 0
M  V30 67 H 8.8685 -2.60545 1.48514 0
M  V30 68 H 6.4215 -1.33893 0.806379 0
M  V30 69 H 7.1565 -3.07019 -1.04449 0
M  V30 70 H 6.9415 -3.88475 0.531917 0
M  V30 71 H 8.4315 -4.15475 -0.420735 0
M  V30 72 N 8.8686 -0.792821 -1.36206 0
M  V30 73 C 10.1166 -0.366062 -1.98757 0
M  V30 74 C 10.4376 1.0668 -1.63231 0
M  V30 75 O 9.7076 1.73587 -0.907978 0
M  V30 76 H 8.2876 -0.132364 -0.735179 0
M  V30 77 H 10.9496 -1.01562 -1.66347 0
M  V30 78 H 10.0456 -0.460638 -3.08682 0
M  V30 79 N 10.3467 1.47872 -0.545128 0
M  V30 80 C 11.5927 2.03385 -0.0247951 0
M  V30 81 C 11.9477 1.41325 1.30556 0
M  V30 82 O 11.2407 0.5552 1.8338 0
M  V30 83 C 11.4347 3.57131 0.13867 0
M  V30 84 C 11.2637 4.34097 -1.17429 0
M  V30 85 C 10.0337 4.74458 -1.73831 0
M  V30 86 C 12.2317 4.6998 -2.08861 0
M  V30 87 N 10.2137 5.3602 -2.99258 0
M  V30 88 C 11.5847 5.31719 -3.18866 0
M  V30 89 C 13.6397 4.5191 -2.09003 0
M  V30 90 C 12.3427 5.77295 -4.29096 0
M  V30 91 C 14.3687 4.98477 -3.18237 0
M  V30 92 C 13.7307 5.60253 -4.26961 0
M  V30 93 H 9.8297 0.780339 -0.050943 0
M  V30 94 H 12.4137 1.80507 -0.729753 0
M  V30 95 H 10.5847 3.79802 0.812733 0
M  V30 96 H 12.3167 3.99282 0.659976 0
M  V30 97 H 9.0717 4.56037 -1.2778 0
M  V30 98 H 9.4957 5.71355 -3.63157 0
M  V30 99 H 14.1377 4.03516 -1.26234 0
M  V30 100 H 11.8557 6.24687 -5.12633 0
M  V30 101 H 15.4417 4.86274 -3.1942 0
M  V30 102 H 14.3217 5.95631 -5.10091 0
M  V30 103 N 11.8248 0.280983 1.55075 0
M  V30 104 C 13.0728 -0.333455 1.9933 0
M  V30 105 C 13.3938 -1.55937 1.17085 0
M  V30 106 O 12.6638 -1.94143 0.261805 0
M  V30 107 H 11.2438 -0.126197 0.736263 0
M  V30 108 H 13.9058 0.387678 1.91005 0
M  V30 109 H 13.0018 -0.619292 3.05894 0
M  V30 110 N 13.3029 -1.57598 0.00835791 0
M  V30 111 C 14.5489 -1.91211 -0.675732 0
M  V30 112 C 14.8819 -0.883139 -1.72958 0
M  V30 113 O 14.1569 0.097016 -1.94258 0
M  V30 114 C 14.4399 -3.35379 -1.31123 0
M  V30 115 C 14.2929 -4.48999 -0.268356 0
M  V30 116 C 15.6119 -3.7912 -2.23508 0
M  V30 117 H 12.7309 -0.695374 -0.244179 0
M  V30 118 H 15.3729 -1.89901 0.0613655 0
M  V30 119 H 13.5229 -3.36626 -1.93946 0
M  V30 120 H 15.1949 -4.59887 0.360844 0
M  V30 121 H 13.4379 -4.31873 0.408482 0
M  V30 122 H 14.1089 -5.46851 -0.752218 0
M  V30 123 H 16.5849 -3.79477 -1.70693 0
M  V30 124 H 15.4609 -4.80729 -2.64936 0
M  V30 125 H 15.7219 -3.13455 -3.11766 0
M  V30 126 N 14.781 0.264519 -1.55364 0
M  V30 127 C 15.691 1.34902 -1.91934 0
M  V30 128 C 16.707 1.53595 -0.817593 0
M  V30 129 O 17.883 1.67558 -1.11742 0
M  V30 130 C 14.948 2.68676 -2.19121 0
M  V30 131 C 14.009 2.58657 -3.4263 0
M  V30 132 C 13.242 3.86051 -3.68511 0
M  V30 133 O 13.465 4.87126 -2.96757 0
M  V30 134 O 12.399 3.85744 -4.62045 0
M  V30 135 H 16.225 1.06883 -2.8427 0
M  V30 136 H 13.81 0.463775 -1.42019 0
M  V30 137 H 15.692 3.47759 -2.37995 0
M  V30 138 H 14.367 2.96463 -1.29966 0
M  V30 139 H 13.274 1.7792 -3.29082 0
M  V30 140 H 14.607 2.35818 -4.32031 0
M  V30 141 N 16.2591 1.48442 0.529413 0
M  V30 142 C 17.2221 1.62524 1.61612 0
M  V30 143 C 18.2221 0.498509 1.52877 0
M  V30 144 O 19.4121 0.76431 1.56537 0
M  V30 145 C 16.5441 1.59597 3.01233 0
M  V30 146 H 17.7371 2.59423 1.50465 0
M  V30 147 H 15.2901 1.37047 0.751514 0
M  V30 148 H 16.0251 0.641781 3.17886 0
M  V30 149 H 15.8101 2.41397 3.08982 0
M  V30 150 H 17.3001 1.72646 3.80241 0
M  V30 151 N 17.7372 -0.778329 1.37039 0
M  V30 152 C 18.6472 -1.92253 1.34446 0
M  V30 153 C 19.6632 -1.72267 0.244991 0
M  V30 154 O 20.8392 -1.95615 0.479258 0
M  V30 155 C 17.9042 -3.27282 1.144 0
M  V30 156 C 16.9652 -3.59969 2.33925 0
M  V30 157 C 16.1982 -4.88555 2.14825 0
M  V30 158 O 16.4212 -5.59113 1.12912 0
M  V30 159 O 15.3552 -5.20153 3.02861 0
M  V30 160 H 19.1812 -1.97392 2.30803 0
M  V30 161 H 16.7662 -0.920154 1.17701 0
M  V30 162 H 18.6482 -4.08062 1.05182 0
M  V30 163 H 17.3232 -3.23011 0.211124 0
M  V30 164 H 16.2302 -2.7945 2.48714 0
M  V30 165 H 17.5632 -3.68976 3.25757 0
M  V30 166 N 19.2153 -1.21501 -1.00376 0
M  V30 167 C 20.1253 -0.991447 -2.12621 0
M  V30 168 C 21.1413 0.0568446 -1.73907 0
M  V30 169 O 22.3173 -0.13348 -2.00957 0
M  V30 170 C 19.3823 -0.560312 -3.42142 0
M  V30 171 C 18.4433 -1.68096 -3.95022 0
M  V30 172 C 17.6763 -1.2703 -5.18362 0
M  V30 173 O 17.8993 -0.144438 -5.70217 0
M  V30 174 O 16.8333 -2.08269 -5.64719 0
M  V30 175 H 20.6593 -1.93158 -2.34358 0
M  V30 176 H 18.2443 -0.999999 -1.10997 0
M  V30 177 H 20.1263 -0.329724 -4.20108 0
M  V30 178 H 18.8013 0.351089 -3.2179 0
M  V30 179 H 17.7083 -1.96597 -3.18278 0
M  V30 180 H 19.0413 -2.56983 -4.19786 0
M  V30 181 N 20.6934 1.19889 -1.02296 0
M  V30 182 C 21.9404 1.8942 -0.715972 0
M  V30 183 C 22.2684 1.79251 0.754944 0
M  V30 184 O 21.5234 1.17526 1.56481 0
M  V30 185 C 21.8224 3.39883 -1.10518 0
M  V30 186 C 21.4884 3.70254 -2.57337 0
M  V30 187 C 20.1504 3.78254 -2.97452 0
M  V30 188 C 22.5024 3.84052 -3.52354 0
M  V30 189 C 19.8304 3.97514 -4.31509 0
M  V30 190 C 22.1824 4.04824 -4.86108 0
M  V30 191 C 20.8464 4.11054 -5.25919 0
M  V30 192 H 20.1164 0.693138 -0.261993 0
M  V30 193 H 22.7634 1.42012 -1.28472 0
M  V30 194 H 21.0684 3.8915 -0.454953 0
M  V30 195 H 22.7654 3.9199 -0.845261 0
M  V30 196 H 19.3554 3.64632 -2.25258 0
M  V30 197 H 23.5394 3.77221 -3.22518 0
M  V30 198 H 18.7954 4.00574 -4.61898 0
M  V30 199 H 22.9694 4.14442 -5.59653 0
M  V30 200 H 20.5964 4.2573 -6.29808 0
M  V30 201 N 22.1715 0.800033 1.35784 0
M  V30 202 C 23.0815 0.207204 2.33683 0
M  V30 203 C 24.0975 -0.64631 1.61551 0
M  V30 204 O 25.2735 -0.559604 1.93469 0
M  V30 205 C 22.3385 -0.639659 3.40748 0
M  V30 206 C 21.3995 0.233585 4.28664 0
M  V30 207 C 20.6325 -0.572954 5.30616 0
M  V30 208 O 20.8555 -1.80816 5.40982 0
M  V30 209 O 19.7895 0.0327285 6.01891 0
M  V30 210 H 23.6155 1.01692 2.86169 0
M  V30 211 H 21.2005 0.561691 1.38439 0
M  V30 212 H 23.0825 -1.12223 4.06182 0
M  V30 213 H 21.7575 -1.42708 2.90544 0
M  V30 214 H 20.6645 0.763147 3.66233 0
M  V30 215 H 21.9975 0.984784 4.82248 0
M  V30 216 N 23.6496 -1.47581 0.552962 0
M  V30 217 C 24.9266 -1.95563 -0.0381515 0
M  V30 218 C 25.3066 -1.49552 -1.48988 0
M  V30 219 O 24.6546 -0.732414 -2.16444 0
M  V30 220 C 24.8646 -3.48848 0.102919 0
M  V30 221 C 26.2126 -4.24577 -0.0446082 0
M  V30 222 O 27.2366 -3.56187 0.0302548 0
M  V30 223 O 26.0956 -5.46116 -0.204923 0
M  V30 224 H 23.1896 -0.824321 -0.0665067 0
M  V30 225 H 25.7356 -1.58001 0.619186 0
M  V30 226 H 24.5076 -3.75129 1.11328 0
M  V30 227 H 24.1306 -3.93165 -0.592224 0
M  V30 228 N 25.1277 -0.289203 -1.54924 0
M  V30 229 C 26.0907 0.579144 -2.21762 0
M  V30 230 C 27.0907 1.07047 -1.1999 0
M  V30 231 O 28.2807 0.968384 -1.44803 0
M  V30 232 C 25.4127 1.80055 -2.8947 0
M  V30 233 H 26.6057 -0.00464908 -2.999 0
M  V30 234 H 24.1587 -0.0399306 -1.56249 0
M  V30 235 H 24.8937 2.42449 -2.15381 0
M  V30 236 H 24.6787 1.45602 -3.64064 0
M  V30 237 H 26.1687 2.41773 -3.40493 0
M  V30 238 N 26.6058 1.57591 -0.0167156 0
M  V30 239 C 28.0168 1.79201 0.523834 0
M  V30 240 C 28.3678 0.925796 1.72984 0
M  V30 241 O 27.4928 0.132792 2.15992 0
M  V30 242 C 28.0878 3.25 0.957091 0
M  V30 243 C 26.6468 3.47648 1.44283 0
M  V30 244 C 25.7938 2.74374 0.401757 0
M  V30 245 H 28.7448 1.56831 -0.242816 0
M  V30 246 H 28.7658 3.34031 1.82219 0
M  V30 247 H 28.2778 3.88019 0.0791415 0
M  V30 248 H 26.3788 2.89866 2.34113 0
M  V30 249 H 26.4918 4.56352 1.45877 0
M  V30 250 H 24.8558 2.39485 0.867121 0
M  V30 251 H 25.6388 3.40102 -0.467513 0
M  V30 252 N 28.0839 -0.256276 1.55502 0
M  V30 253 C 29.3609 -1.00789 1.67633 0
M  V30 254 C 29.7409 -2.03706 0.553826 0
M  V30 255 O 29.0889 -2.24145 -0.443969 0
M  V30 256 C 29.2989 -1.64968 3.07549 0
M  V30 257 C 30.6469 -2.15505 3.65845 0
M  V30 258 O 31.6709 -1.74925 3.1029 0
M  V30 259 O 30.5299 -2.89986 4.63217 0
M  V30 260 H 27.6239 -0.468553 0.681459 0
M  V30 261 H 30.1699 -0.250806 1.67836 0
M  V30 262 H 28.9419 -0.904785 3.80696 0
M  V30 263 H 28.5649 -2.47321 3.11317 0
M  V30 264 N 29.562 -1.4872 -0.521534 0
M  V30 265 C 30.808 -1.574 -1.27879 0
M  V30 266 C 31.141 -0.250817 -1.92573 0
M  V30 267 O 30.416 0.743934 -1.79711 0
M  V30 268 C 30.699 -2.71843 -2.36164 0
M  V30 269 C 30.552 -4.13893 -1.76105 0
M  V30 270 C 31.871 -2.82008 -3.37875 0
M  V30 271 H 28.99 -0.572941 -0.463581 0
M  V30 272 H 31.632 -1.80927 -0.580119 0
M  V30 273 H 29.782 -2.51914 -2.95756 0
M  V30 274 H 31.454 -4.45284 -1.20499 0
M  V30 275 H 29.697 -4.20498 -1.06601 0
M  V30 276 H 30.368 -4.89804 -2.5455 0
M  V30 277 H 32.844 -3.00086 -2.88249 0
M  V30 278 H 31.72 -3.63796 -4.11028 0
M  V30 279 H 31.981 -1.90511 -3.98946 0
M  V30 280 N 31.0401 0.771051 -1.3745 0
M  V30 281 C 31.9501 1.91538 -1.35464 0
M  V30 282 C 32.9661 1.72134 -0.254123 0
M  V30 283 O 34.1421 1.95358 -0.489626 0
M  V30 284 C 31.2071 3.26671 -1.16134 0
M  V30 285 C 30.2681 3.58723 -2.35831 0
M  V30 286 C 29.5011 4.87409 -2.17413 0
M  V30 287 O 29.7241 5.58506 -1.15876 0
M  V30 288 O 28.6581 5.18539 -3.05615 0
M  V30 289 H 32.4841 1.96165 -2.31847 0
M  V30 290 H 30.0691 0.9139 -1.18187 0
M  V30 291 H 31.9511 4.07499 -1.07345 0
M  V30 292 H 30.6261 3.22894 -0.228251 0
M  V30 293 H 29.5331 2.78127 -2.50192 0
M  V30 294 H 30.8661 3.67243 -3.27709 0
M  V30 295 N 32.5182 1.22032 0.997298 0
M  V30 296 C 33.9292 1.0397 1.55071 0
M  V30 297 C 34.2802 -0.398192 1.92117 0
M  V30 298 O 33.4052 -1.28254 1.74298 0
M  V30 299 C 34.0002 1.88109 2.81781 0
M  V30 300 C 32.5592 1.74357 3.33581 0
M  V30 301 C 31.7062 1.84846 2.06706 0
M  V30 302 H 34.6572 1.35941 0.818883 0
M  V30 303 H 34.6782 1.39589 3.53971 0
M  V30 304 H 34.1902 2.92754 2.54787 0
M  V30 305 H 32.2912 0.72427 3.65493 0
M  V30 306 H 32.4042 2.56772 4.04481 0
M  V30 307 H 30.7682 1.28238 2.20062 0
M  V30 308 H 31.5512 2.91014 1.82114 0
M  V30 309 N 33.9963 -1.19345 1.0293 0
M  V30 310 C 34.9263 -2.2481 0.631105 0
M  V30 311 C 35.9073 -1.66245 -0.360104 0
M  V30 312 O 37.0923 -1.92677 -0.242726 0
M  V30 313 C 34.2223 -3.47295 -0.0184607 0
M  V30 314 C 33.1763 -4.18536 0.895073 0
M  V30 315 C 32.5023 -5.34586 0.110592 0
M  V30 316 C 33.8023 -4.73287 2.209 0
M  V30 317 H 35.4963 -2.58372 1.51275 0
M  V30 318 H 33.0423 -1.24194 0.728818 0
M  V30 319 H 34.9953 -4.20268 -0.308675 0
M  V30 320 H 33.7193 -3.12933 -0.934907 0
M  V30 321 H 32.3783 -3.47446 1.16949 0
M  V30 322 H 32.0263 -4.96469 -0.807902 0
M  V30 323 H 31.7263 -5.83183 0.719087 0
M  V30 324 H 33.2503 -6.10355 -0.172871 0
M  V30 325 H 34.6643 -5.38013 1.98028 0
M  V30 326 H 33.0613 -5.32373 2.76946 0
M  V30 327 H 34.1313 -3.91331 2.86336 0
M  V30 328 N 35.4744 -0.807222 -1.35358 0
M  V30 329 C 36.3844 -0.219594 -2.3357 0
M  V30 330 C 37.4004 0.637734 -1.61892 0
M  V30 331 O 38.5764 0.549336 -1.93763 0
M  V30 332 C 35.6414 0.62158 -3.41083 0
M  V30 333 C 34.7024 -0.256315 -4.28534 0
M  V30 334 C 33.9354 0.544807 -5.30912 0
M  V30 335 O 34.1584 1.77944 -5.41934 0
M  V30 336 O 33.0924 -0.0646478 -6.01865 0
M  V30 337 H 36.9184 -1.03208 -2.85625 0
M  V30 338 H 34.5034 -0.569025 -1.38139 0
M  V30 339 H 36.3854 1.10067 -4.06772 0
M  V30 340 H 35.0604 1.41165 -2.91297 0
M  V30 341 H 33.9674 -0.782559 -3.65823 0
M  V30 342 H 35.3004 -1.01034 -4.81719 0
M  V30 343 N 36.9525 1.47285 -0.560781 0
M  V30 344 C 38.3635 1.86258 -0.128343 0
M  V30 345 C 38.7145 1.46699 1.30284 0
M  V30 346 O 37.8395 0.871698 1.98067 0
M  V30 347 C 38.4345 3.38044 -0.22614 0
M  V30 348 C 36.9935 3.76096 0.151283 0
M  V30 349 C 36.1405 2.71335 -0.572084 0
M  V30 350 H 39.0915 1.38752 -0.770297 0
M  V30 351 H 39.1125 3.76441 0.554322 0
M  V30 352 H 38.6245 3.66806 -1.26788 0
M  V30 353 H 36.7255 3.52951 1.19399 0
M  V30 354 H 36.8385 4.78641 -0.209765 0
M  V30 355 H 35.2025 2.54696 -0.0147653 0
M  V30 356 H 35.9855 3.02938 -1.61504 0
M  V30 357 N 38.4306 0.297415 1.54768 0
M  V30 358 C 39.6586 -0.315623 2.04478 0
M  V30 359 C 40.0736 -1.47792 1.17486 0
M  V30 360 O 39.4306 -1.81404 0.19971 0
M  V30 361 C 39.4816 -0.7753 3.53088 0
M  V30 362 O 39.2026 0.340732 4.36773 0
M  V30 363 C 40.7036 -1.45386 4.18781 0
M  V30 364 H 37.9236 -0.0690887 0.667434 0
M  V30 365 H 40.4676 0.436003 1.99798 0
M  V30 366 H 38.6226 -1.47696 3.58141 0
M  V30 367 H 39.0366 -0.0165035 5.24497 0
M  V30 368 H 40.5106 -1.72669 5.24299 0
M  V30 369 H 40.9876 -2.39275 3.68299 0
M  V30 370 H 41.5936 -0.795475 4.17795 0
M  V30 371 N 39.9087 -1.5758 0.0250728 0
M  V30 372 C 40.8387 -2.13007 -0.956575 0
M  V30 373 C 41.8197 -1.0452 -1.342 0
M  V30 374 O 43.0047 -1.32332 -1.42133 0
M  V30 375 C 40.1347 -2.65386 -2.24026 0
M  V30 376 C 39.0887 -3.78623 -1.99571 0
M  V30 377 C 38.4147 -4.17414 -3.3417 0
M  V30 378 C 39.7147 -5.04867 -1.33814 0
M  V30 379 H 41.4087 -2.9528 -0.494991 0
M  V30 380 H 38.9547 -1.42042 -0.236651 0
M  V30 381 H 40.9077 -3.02794 -2.93076 0
M  V30 382 H 39.6317 -1.80268 -2.72343 0
M  V30 383 H 38.2907 -3.41646 -1.32941 0
M  V30 384 H 37.9387 -3.29284 -3.80238 0
M  V30 385 H 37.6387 -4.93719 -3.18615 0
M  V30 386 H 39.1627 -4.57402 -4.04495 0
M  V30 387 H 40.5767 -5.39888 -1.92857 0
M  V30 388 H 38.9737 -5.86144 -1.28669 0
M  V30 389 H 40.0437 -4.83904 -0.310561 0
M  V30 390 N 41.3868 0.248026 -1.55636 0
M  V30 391 C 42.6118 0.998028 -1.81808 0
M  V30 392 C 43.0368 1.78207 -0.601979 0
M  V30 393 O 42.3948 1.75653 0.448961 0
M  V30 394 C 42.4428 1.9125 -3.05705 0
M  V30 395 O 41.5468 3.00406 -2.82542 0
M  V30 396 H 40.8878 0.284045 -0.600179 0
M  V30 397 H 43.4178 0.269357 -2.02819 0
M  V30 398 H 43.4278 2.32737 -3.35108 0
M  V30 399 H 42.1028 1.33602 -3.93857 0
M  V30 400 H 40.6798 2.63056 -2.64303 0
M  V30 401 N 42.8649 1.48995 0.513639 0
M  V30 402 C 43.8129 1.65199 1.63744 0
M  V30 403 C 44.8069 0.51809 1.61283 0
M  V30 404 O 46.0129 0.697335 1.65943 0
M  V30 405 H 42.3879 0.52069 0.542574 0
M  V30 406 H 44.3589 2.59552 1.47226 0
M  V30 407 C 43.1079 1.72409 3.01945 0
M  V30 408 H 42.4309 2.59029 3.04539 0
M  V30 409 H 43.8709 1.87785 3.80148 0
M  V30 410 C 42.3299 0.46618 3.33659 0
M  V30 411 O 42.8599 -0.413744 3.99564 0
M  V30 412 N 41.0659 0.332931 2.88687 0
M  V30 413 H 40.6129 1.04996 2.35231 0
M  V30 414 H 40.5709 -0.507665 3.10274 0
M  V30 415 N 44.343 -0.763751 1.37857 0
M  V30 416 C 45.592 -1.51789 1.32827 0
M  V30 417 C 45.905 -1.95426 -0.0823719 0
M  V30 418 O 47.111 -2.70298 -0.255172 0
M  V30 419 C 45.567 -2.74133 2.33193 0
M  V30 420 C 45.175 -2.37562 3.79827 0
M  V30 421 C 46.919 -3.52054 2.37188 0
M  V30 422 C 44.826 -3.56456 4.71904 0
M  V30 423 H 43.756 -0.569896 0.493695 0
M  V30 424 H 46.407 -0.835822 1.63359 0
M  V30 425 H 44.789 -3.4427 1.9569 0
M  V30 426 H 45.963 -1.75157 4.26212 0
M  V30 427 H 44.278 -1.72798 3.78853 0
M  V30 428 H 46.875 -4.40437 3.03182 0
M  V30 429 H 47.218 -3.92486 1.38782 0
M  V30 430 H 47.751 -2.88921 2.7344 0
M  V30 431 H 44.49 -3.21099 5.71468 0
M  V30 432 H 44.01 -4.17938 4.30218 0
M  V30 433 H 45.689 -4.23168 4.89426 0
M  V30 434 N 45.8211 -1.22559 -0.990812 0
M  V30 435 C 47.0701 -1.04553 -1.72486 0
M  V30 436 C 47.3831 0.419349 -1.91052 0
M  V30 437 O 48.5891 0.719121 -2.61803 0
M  V30 438 C 47.0451 -1.82231 -3.10355 0
M  V30 439 C 46.6531 -3.32981 -2.99713 0
M  V30 440 C 48.3971 -1.7268 -3.87791 0
M  V30 441 C 46.3041 -4.03091 -4.32748 0
M  V30 442 H 45.2341 -0.387614 -0.646739 0
M  V30 443 H 47.8851 -1.46429 -1.10593 0
M  V30 444 H 46.2671 -1.33155 -3.72942 0
M  V30 445 H 47.4411 -3.89466 -2.46278 0
M  V30 446 H 45.7561 -3.43231 -2.35758 0
M  V30 447 H 48.3531 -2.22381 -4.86262 0
M  V30 448 H 48.6961 -0.687607 -4.10582 0
M  V30 449 H 49.2291 -2.1931 -3.31885 0
M  V30 450 H 45.9681 -5.07273 -4.15156 0
M  V30 451 H 45.4881 -3.51394 -4.86089 0
M  V30 452 H 47.1671 -4.08804 -5.01486 0
M  V30 453 N 47.2992 1.18797 -1.03562 0
M  V30 454 C 48.2092 2.25913 -0.632505 0
M  V30 455 C 49.2252 1.70668 0.338882 0
M  V30 456 O 50.4012 2.00453 0.195076 0
M  V30 457 C 47.4662 3.467 0.00350942 0
M  V30 458 C 46.5272 4.17098 -1.01624 0
M  V30 459 C 45.7602 5.32119 -0.410478 0
M  V30 460 O 45.9832 5.64976 0.784725 0
M  V30 461 O 44.9172 5.9107 -1.13667 0
M  V30 462 H 48.7432 2.62648 -1.52478 0
M  V30 463 H 46.3282 1.25781 -0.806195 0
M  V30 464 H 48.2102 4.19878 0.35781 0
M  V30 465 H 46.8852 3.11798 0.869686 0
M  V30 466 H 45.7922 3.4601 -1.42224 0
M  V30 467 H 47.1252 4.55987 -1.85301 0
M  V30 468 N 48.7773 0.814389 1.34928 0
M  V30 469 C 49.7093 0.187834 2.28429 0
M  V30 470 C 50.7223 -0.617374 1.5064 0
M  V30 471 O 51.9113 -0.448454 1.72775 0
M  V30 472 C 49.0113 -0.755962 3.30361 0
M  V30 473 C 48.1843 0.00456686 4.374 0
M  V30 474 C 47.2433 -0.858876 5.19143 0
M  V30 475 O 46.2693 -0.306968 5.68372 0
M  V30 476 N 47.4713 -2.17988 5.38016 0
M  V30 477 H 50.2363 0.991105 2.82838 0
M  V30 478 H 47.7973 0.670561 1.4736 0
M  V30 479 H 49.7893 -1.338 3.81942 0
M  V30 480 H 48.3593 -1.46001 2.7641 0
M  V30 481 H 47.5793 0.767865 3.86649 0
M  V30 482 H 48.8673 0.528422 5.06049 0
M  V30 483 H 48.2653 -2.65212 4.99679 0
M  V30 484 H 46.8223 -2.71098 5.92747 0
M  V30 485 N 50.2554 -1.46986 0.568584 0
M  V30 486 C 51.6714 -1.57946 0.229189 0
M  V30 487 C 51.8714 -1.56567 -1.26843 0
M  V30 488 O 50.9274 -1.47511 -2.04931 0
M  V30 489 C 52.2404 -2.87963 0.865909 0
M  V30 490 C 53.7884 -3.01568 0.838188 0
M  V30 491 C 54.2634 -4.34301 1.45419 0
M  V30 492 N 55.7544 -4.40965 1.41788 0
M  V30 493 C 56.4894 -5.42256 1.86403 0
M  V30 494 N 55.9854 -6.50297 2.38926 0
M  V30 495 N 57.7784 -5.3337 1.77405 0
M  V30 496 H 49.9294 -1.46126 1.54146 0
M  V30 497 H 52.1924 -0.696156 0.643484 0
M  V30 498 H 51.8984 -2.94742 1.91886 0
M  V30 499 H 51.7724 -3.75423 0.365687 0
M  V30 500 H 54.1594 -2.94379 -0.206106 0
M  V30 501 H 54.2404 -2.1562 1.37629 0
M  V30 502 H 53.8844 -4.42247 2.49761 0
M  V30 503 H 53.8144 -5.19 0.891435 0
M  V30 504 H 56.3054 -3.63484 1.03381 0
M  V30 505 H 56.6184 -7.23777 2.70863 0
M  V30 506 H 54.9634 -6.51155 2.42944 0
M  V30 507 H 58.1544 -4.47865 1.3614 0
M  V30 508 H 58.3274 -6.12169 2.12492 0
M  V30 509 N 51.7335 -0.305618 -1.54608 0
M  V30 510 C 52.9585 0.307562 -2.05107 0
M  V30 511 C 53.3835 1.46385 -1.18123 0
M  V30 512 O 52.7415 1.8034 -0.186324 0
M  V30 513 C 52.7895 0.73704 -3.52987 0
M  V30 514 O 51.8935 1.84134 -3.6901 0
M  V30 515 H 51.2345 0.0589143 -0.661381 0
M  V30 516 H 53.7645 -0.448807 -1.99617 0
M  V30 517 H 53.7745 1.02459 -3.94925 0
M  V30 518 H 52.4495 -0.108773 -4.15758 0
M  V30 519 H 51.0265 1.55398 -3.38978 0
M  V30 520 N 53.2116 1.57565 -0.0334293 0
M  V30 521 C 54.1416 2.13511 0.945265 0
M  V30 522 C 55.1226 1.05231 1.33643 0
M  V30 523 O 56.3076 1.33084 1.41429 0
M  V30 524 C 53.4376 2.6657 2.22616 0
M  V30 525 C 52.3916 3.79676 1.97561 0
M  V30 526 C 51.7176 4.1918 3.31952 0
M  V30 527 C 53.0176 5.0557 1.31135 0
M  V30 528 H 54.7116 2.95538 0.479325 0
M  V30 529 H 52.2576 1.42166 0.229115 0
M  V30 530 H 54.2106 3.04344 2.91466 0
M  V30 531 H 52.9346 1.8171 2.71384 0
M  V30 532 H 51.5936 3.42347 1.31127 0
M  V30 533 H 51.2416 3.31296 3.78487 0
M  V30 534 H 50.9416 4.95402 3.15992 0
M  V30 535 H 52.4656 4.59541 4.02063 0
M  V30 536 H 53.8796 5.40903 1.89992 0
M  V30 537 H 52.2766 5.86818 1.25559 0
M  V30 538 H 53.3466 4.84062 0.284894 0
M  V30 539 N 54.6897 -0.239769 1.55765 0
M  V30 540 C 55.6367 -1.29696 1.90913 0
M  V30 541 C 56.6067 -1.47478 0.764164 0
M  V30 542 O 57.7917 -1.61345 1.01845 0
M  V30 543 C 54.9317 -2.64598 2.21544 0
M  V30 544 C 54.0447 -2.54765 3.48882 0
M  V30 545 C 53.1797 -3.82069 3.69049 0
M  V30 546 C 52.2187 -3.66883 4.89963 0
M  V30 547 N 51.3557 -4.86094 5.06614 0
M  V30 548 H 56.1957 -0.990224 2.81067 0
M  V30 549 H 53.7327 -0.477684 1.39128 0
M  V30 550 H 55.6907 -3.43132 2.3731 0
M  V30 551 H 54.3207 -2.93405 1.34585 0
M  V30 552 H 53.3727 -1.67763 3.41409 0
M  V30 553 H 54.6847 -2.39457 4.37563 0
M  V30 554 H 53.8387 -4.69046 3.84812 0
M  V30 555 H 52.5777 -4.00282 2.78614 0
M  V30 556 H 51.5827 -2.78289 4.74168 0
M  V30 557 H 52.8077 -3.50157 5.81865 0
M  V30 558 H 50.7537 -5.04655 4.19117 0
M  V30 559 H 50.6707 -4.73443 5.89396 0
M  V30 560 H 51.9387 -5.74549 5.26795 0
M  V30 561 N 56.1678 -1.49265 -0.50573 0
M  V30 562 C 57.4138 -1.59723 -1.25937 0
M  V30 563 C 57.7688 -0.278236 -1.90378 0
M  V30 564 O 57.0618 0.72113 -1.77511 0
M  V30 565 C 57.2558 -2.69008 -2.35308 0
M  V30 566 C 57.0848 -4.11405 -1.81592 0
M  V30 567 C 55.8548 -4.78252 -1.63105 0
M  V30 568 C 58.0528 -4.96792 -1.33048 0
M  V30 569 N 56.0348 -6.0498 -1.04269 0
M  V30 570 C 57.4058 -6.13962 -0.863168 0
M  V30 571 C 59.4608 -4.82828 -1.21577 0
M  V30 572 C 58.1638 -7.18705 -0.292489 0
M  V30 573 C 60.1898 -5.87716 -0.65907 0
M  V30 574 C 59.5518 -7.0411 -0.201954 0
M  V30 575 H 55.6508 -0.638864 -0.450973 0
M  V30 576 H 58.2348 -1.86251 -0.567326 0
M  V30 577 H 56.4058 -2.4426 -3.01979 0
M  V30 578 H 58.1378 -2.69013 -3.02348 0
M  V30 579 H 54.8928 -4.34974 -1.87336 0
M  V30 580 H 55.3168 -6.72631 -0.767919 0
M  V30 581 H 59.9588 -3.93159 -1.55518 0
M  V30 582 H 57.6768 -8.08078 0.0591987 0
M  V30 583 H 61.2628 -5.7897 -0.573156 0
M  V30 584 H 60.1428 -7.83885 0.222101 0
M  V30 585 N 57.6459 0.756429 -1.3826 0
M  V30 586 C 58.8949 1.51082 -1.3363 0
M  V30 587 C 59.2079 1.95467 0.0720068 0
M  V30 588 O 60.4139 2.7043 0.240834 0
M  V30 589 C 58.8699 2.72893 -2.34644 0
M  V30 590 C 58.4779 2.35544 -3.81081 0
M  V30 591 C 60.2219 3.50791 -2.39052 0
M  V30 592 C 58.1289 3.53948 -4.73787 0
M  V30 593 H 57.0589 0.56727 -0.49671 0
M  V30 594 H 59.7099 0.827147 -1.638 0
M  V30 595 H 58.0919 3.43227 -1.97513 0
M  V30 596 H 59.2659 1.72894 -4.27135 0
M  V30 597 H 57.5809 1.70786 -3.79764 0
M  V30 598 H 60.1779 4.38823 -3.05513 0
M  V30 599 H 60.5209 3.91745 -1.40861 0
M  V30 600 H 61.0539 2.87467 -2.74968 0
M  V30 601 H 57.7929 3.18064 -5.73163 0
M  V30 602 H 57.3129 4.15651 -4.32428 0
M  V30 603 H 58.9919 4.20566 -4.91663 0
M  V30 604 N 59.124 1.23083 0.984299 0
M  V30 605 C 60.371 1.06057 1.72505 0
M  V30 606 C 60.699 -0.403105 1.90277 0
M  V30 607 O 59.954 -1.3149 1.44944 0
M  V30 608 C 60.253 1.72673 3.1292 0
M  V30 609 C 59.919 3.22586 3.15038 0
M  V30 610 C 58.581 3.63489 3.15324 0
M  V30 611 C 60.933 4.185 3.10657 0
M  V30 612 C 58.261 4.98772 3.08939 0
M  V30 613 C 60.613 5.53769 3.05814 0
M  V30 614 C 59.277 5.94041 3.04419 0
M  V30 615 H 58.547 0.388091 0.631242 0
M  V30 616 H 61.194 1.52963 1.15215 0
M  V30 617 H 59.499 1.18116 3.73572 0
M  V30 618 H 61.196 1.56982 3.68996 0
M  V30 619 H 57.786 2.90022 3.15571 0
M  V30 620 H 61.97 3.87911 3.09579 0
M  V30 621 H 57.226 5.29193 3.0621 0
M  V30 622 H 61.4 6.27808 3.0138 0
M  V30 623 H 59.027 6.98833 2.99227 0
M  V30 624 N 60.6021 -1.18246 1.0419 0
M  V30 625 C 61.8481 -1.88536 0.747122 0
M  V30 626 C 62.1811 -1.80223 -0.723409 0
M  V30 627 O 61.4561 -1.20337 -1.52804 0
M  V30 628 C 61.7391 -3.38968 1.21544 0
M  V30 629 C 61.5921 -3.56084 2.74816 0
M  V30 630 C 62.9111 -4.32648 0.806482 0
M  V30 631 H 60.0301 -0.684619 0.272883 0
M  V30 632 H 62.6721 -1.39113 1.29413 0
M  V30 633 H 60.8221 -3.8119 0.750081 0
M  V30 634 H 62.4941 -3.22946 3.29399 0
M  V30 635 H 60.7371 -2.98699 3.14582 0
M  V30 636 H 61.4081 -4.61639 3.02644 0
M  V30 637 H 63.8841 -3.98211 1.20695 0
M  V30 638 H 62.7601 -5.36462 1.1619 0
M  V30 639 H 63.0211 -4.41146 -0.29029 0
M  V30 640 N 62.0802 -0.821533 -1.34494 0
M  V30 641 C 63.3282 -0.408139 -1.97936 0
M  V30 642 C 63.6492 1.03193 -1.65457 0
M  V30 643 O 62.9192 1.71622 -0.944595 0
M  V30 644 H 61.4992 -0.147928 -0.732206 0
M  V30 645 H 64.1612 -1.05067 -1.64155 0
M  V30 646 H 63.2572 -0.52601 -3.07635 0
M  V30 647 N 63.5583 1.46682 -0.576371 0
M  V30 648 C 64.8063 2.02013 -0.0594163 0
M  V30 649 C 65.1273 1.45101 1.30271 0
M  V30 650 O 64.3973 0.633317 1.8538 0
M  V30 651 H 62.9773 0.746759 -0.0189745 0
M  V30 652 H 65.6393 1.79862 -0.750717 0
M  V30 653 H 64.7353 3.12097 0.014345 0
M  V30 654 N 65.0364 0.313813 1.54444 0
M  V30 655 C 65.9834 -0.55655 2.23989 0
M  V30 656 C 66.9534 -1.11943 1.22711 0
M  V30 657 O 68.1384 -1.16158 1.51367 0
M  V30 658 C 65.2784 -1.71635 2.99392 0
M  V30 659 C 64.3914 -1.18364 4.15468 0
M  V30 660 C 63.5264 -2.30834 4.78424 0
M  V30 661 C 62.5654 -1.74762 5.86622 0
M  V30 662 N 61.7024 -2.80855 6.43479 0
M  V30 663 H 66.5424 0.0430893 2.97969 0
M  V30 664 H 64.0794 0.0330359 1.47063 0
M  V30 665 H 66.0374 -2.39868 3.41349 0
M  V30 666 H 64.6674 -2.28742 2.27765 0
M  V30 667 H 63.7194 -0.393163 3.78363 0
M  V30 668 H 65.0314 -0.733262 4.93381 0
M  V30 669 H 64.1854 -3.0699 5.23299 0
M  V30 670 H 62.9244 -2.79204 3.99871 0
M  V30 671 H 61.9294 -0.970995 5.41158 0
M  V30 672 H 63.1544 -1.2728 6.67066 0
M  V30 673 H 61.1004 -3.28535 5.67804 0
M  V30 674 H 61.0174 -2.40351 7.16776 0
M  V30 675 H 62.2854 -3.5687 6.93011 0
M  V30 676 N 66.5145 -1.57545 0.0417849 0
M  V30 677 C 67.7625 -1.91937 -0.632829 0
M  V30 678 C 68.0835 -0.919978 -1.71934 0
M  V30 679 O 67.3535 0.0366064 -1.95866 0
M  V30 680 H 65.9335 -0.708493 -0.236742 0
M  V30 681 H 68.5955 -1.9468 0.0925745 0
M  V30 682 H 67.6915 -2.92912 -1.07746 0
M  V30 683 N 67.9926 0.231505 -1.5589 0
M  V30 684 C 69.2406 0.955461 -1.78088 0
M  V30 685 C 69.5616 1.85262 -0.608533 0
M  V30 686 O 68.8316 1.92277 0.375035 0
M  V30 687 H 67.4116 0.355787 -0.656829 0
M  V30 688 H 70.0736 0.245751 -1.93344 0
M  V30 689 H 69.1696 1.56814 -2.69844 0
M  V30 690 N 69.4707 1.49531 0.497807 0
M  V30 691 C 70.7167 1.59415 1.25358 0
M  V30 692 C 71.0497 0.281422 1.9215 0
M  V30 693 O 70.3247 -0.715249 1.80871 0
M  V30 694 C 70.6077 2.75566 2.3181 0
M  V30 695 C 70.4607 4.16642 1.69498 0
M  V30 696 C 71.7797 2.87347 3.33346 0
M  V30 697 H 68.8987 0.580244 0.454408 0
M  V30 698 H 71.5407 1.81827 0.551262 0
M  V30 699 H 69.6907 2.56587 2.91711 0
M  V30 700 H 71.3627 4.47145 1.13399 0
M  V30 701 H 69.6057 4.22141 0.998978 0
M  V30 702 H 70.2767 4.93792 2.46725 0
M  V30 703 H 72.7527 3.04634 2.83438 0
M  V30 704 H 71.6287 3.70289 4.05188 0
M  V30 705 H 71.8897 1.96834 3.95865 0
M  V30 706 N 70.9488 -0.749086 1.3866 0
M  V30 707 C 72.1968 -1.50535 1.34847 0
M  V30 708 C 72.5178 -1.94909 -0.0595016 0
M  V30 709 O 71.7878 -1.67973 -1.00806 0
M  V30 710 H 70.3678 -0.558395 0.49619 0
M  V30 711 H 73.0298 -0.890165 1.73384 0
M  V30 712 H 72.1258 -2.39413 2.00219 0
M  V30 713 N 72.4269 -1.23603 -0.977757 0
M  V30 714 C 73.3739 -1.01954 -2.07061 0
M  V30 715 C 74.3439 0.0638697 -1.65977 0
M  V30 716 O 75.5289 -0.0887624 -1.90593 0
M  V30 717 C 72.6689 -0.619658 -3.39491 0
M  V30 718 C 71.7819 -1.77547 -3.93829 0
M  V30 719 C 70.9169 -1.32212 -5.14484 0
M  V30 720 C 69.9559 -2.44852 -5.60994 0
M  V30 721 N 69.0929 -2.00456 -6.72876 0
M  V30 722 H 73.9329 -1.95495 -2.24913 0
M  V30 723 H 71.4699 -0.973861 -1.10247 0
M  V30 724 H 73.4279 -0.368898 -4.15566 0
M  V30 725 H 72.0579 0.278752 -3.21594 0
M  V30 726 H 71.1099 -2.14016 -3.14486 0
M  V30 727 H 72.4219 -2.62219 -4.24314 0
M  V30 728 H 71.5759 -1.02965 -5.97899 0
M  V30 729 H 70.3149 -0.445808 -4.85658 0
M  V30 730 H 69.3199 -2.74871 -4.76157 0
M  V30 731 H 70.5449 -3.33024 -5.91837 0
M  V30 732 H 68.4909 -1.15208 -6.45804 0
M  V30 733 H 68.4079 -2.78687 -7.02759 0
M  V30 734 H 69.6759 -1.7432 -7.59758 0
M  V30 735 N 73.905 1.17692 -1.04816 0
M  V30 736 C 75.133 1.91786 -0.776254 0
M  V30 737 C 75.548 1.76604 0.667577 0
M  V30 738 O 74.905 1.10067 1.45573 0
M  V30 739 C 74.956 3.42967 -1.14263 0
M  V30 740 O 74.677 3.57678 -2.52978 0
M  V30 741 C 76.178 4.34144 -0.896311 0
M  V30 742 H 73.398 0.608624 -0.282519 0
M  V30 743 H 75.942 1.49268 -1.39783 0
M  V30 744 H 74.097 3.83245 -0.565874 0
M  V30 745 H 74.511 4.51319 -2.67229 0
M  V30 746 H 75.985 5.38744 -1.20244 0
M  V30 747 H 76.462 4.38876 0.168636 0
M  V30 748 H 77.068 3.99574 -1.45672 0
M  V30 749 N 75.3831 0.828654 1.34056 0
M  V30 750 C 76.6111 0.43262 2.02326 0
M  V30 751 C 77.0261 -0.963147 1.62385 0
M  V30 752 O 76.3831 -1.62425 0.832121 0
M  V30 753 C 76.4341 0.53182 3.57567 0
M  V30 754 O 76.1551 1.87258 3.96063 0
M  V30 755 C 77.6561 0.131422 4.43105 0
M  V30 756 H 74.8761 0.172923 0.648335 0
M  V30 757 H 77.4201 1.1184 1.71208 0
M  V30 758 H 75.5751 -0.105938 3.87255 0
M  V30 759 H 75.9891 1.85087 4.90758 0
M  V30 760 H 77.4631 0.251904 5.51425 0
M  V30 761 H 77.9401 -0.925645 4.29335 0
M  V30 762 H 78.5461 0.743207 4.18756 0
M  V30 763 N 76.8612 -1.46375 0.584142 0
M  V30 764 C 78.1012 -2.0427 0.0729695 0
M  V30 765 C 78.4652 -1.44563 -1.26355 0
M  V30 766 O 79.6662 -1.93667 -1.86405 0
M  V30 767 C 77.9372 -3.57399 0.00967464 0
M  V30 768 S 79.4962 -4.36551 -0.443714 0
M  V30 769 H 76.3142 -0.709975 0.0381673 0
M  V30 770 H 78.9162 -1.79398 0.776962 0
M  V30 771 H 77.6202 -3.98372 0.986319 0
M  V30 772 H 77.1512 -3.8681 -0.717044 0
M  V30 773 H 79.1662 -4.66237 -1.69816 0
M  V30 774 N 78.3393 -0.321999 -1.54275 0
M  V30 775 C 79.5643 0.285791 -2.05422 0
M  V30 776 C 79.9893 1.45124 -1.19669 0
M  V30 777 O 79.3473 1.80132 -0.205441 0
M  V30 778 C 79.3953 0.69956 -3.53749 0
M  V30 779 O 78.4993 1.8021 -3.70942 0
M  V30 780 H 77.8403 0.0518962 -0.661969 0
M  V30 781 H 80.3703 -0.469954 -1.9913 0
M  V30 782 H 80.3803 0.982649 -3.9599 0
M  V30 783 H 79.0553 -0.152864 -4.15619 0
M  V30 784 H 77.6323 1.51794 -3.40607 0
M  V30 785 N 79.8174 1.5752 -0.0501392 0
M  V30 786 C 81.0574 1.94521 0.627783 0
M  V30 787 C 81.4214 0.928265 1.68069 0
M  V30 788 O 82.6224 1.18517 2.41261 0
M  V30 789 C 80.8934 3.36319 1.20932 0
M  V30 790 S 82.4524 3.95272 1.90539 0
M  V30 791 H 79.2704 0.680456 0.206158 0
M  V30 792 H 81.8724 1.95139 -0.118829 0
M  V30 793 H 80.5764 4.08132 0.430865 0
M  V30 794 H 80.1074 3.39193 1.99277 0
M  V30 795 H 82.1224 3.80415 3.18589 0
M  V30 796 N 81.2955 -0.223234 1.56011 0
M  V30 797 C 82.5205 -0.968978 1.83373 0
M  V30 798 C 82.9455 -1.77227 0.630254 0
M  V30 799 O 82.3035 -1.76345 -0.420959 0
M  V30 800 C 82.3515 -1.86363 3.08709 0
M  V30 801 O 81.4555 -2.95873 2.87285 0
M  V30 802 H 80.7965 -0.274461 0.604622 0
M  V30 803 H 83.3265 -0.237056 2.03222 0
M  V30 804 H 83.3365 -2.27376 3.38768 0
M  V30 805 H 82.0115 -1.27319 3.95933 0
M  V30 806 H 80.5885 -2.58818 2.68454 0
M  V30 807 N 82.7736 -1.49793 -0.48987 0
M  V30 808 C 83.7036 -1.70201 -1.59856 0
M  V30 809 C 84.6846 -0.55076 -1.60937 0
M  V30 810 O 85.8696 -0.787841 -1.77501 0
M  V30 811 C 82.9996 -1.77882 -2.98287 0
M  V30 812 C 81.9536 -2.92907 -3.12073 0
M  V30 813 C 81.2796 -2.85712 -4.51965 0
M  V30 814 C 82.5796 -4.3369 -2.91051 0
M  V30 815 H 84.2736 -2.63025 -1.43032 0
M  V30 816 H 81.8196 -1.26574 -0.686664 0
M  V30 817 H 83.7726 -1.90744 -3.75759 0
M  V30 818 H 82.4966 -0.816653 -3.16225 0
M  V30 819 H 81.1556 -2.79665 -2.37029 0
M  V30 820 H 80.8036 -1.8738 -4.66795 0
M  V30 821 H 80.5036 -3.62921 -4.62128 0
M  V30 822 H 82.0276 -3.00598 -5.31482 0
M  V30 823 H 83.4416 -4.47555 -3.58284 0
M  V30 824 H 81.8386 -5.12205 -3.12675 0
M  V30 825 H 82.9086 -4.47362 -1.87071 0
M  V30 826 N 84.2517 0.741722 -1.39055 0
M  V30 827 C 85.2147 1.83733 -1.37021 0
M  V30 828 C 86.2147 1.58542 -0.268534 0
M  V30 829 O 87.4047 1.66067 -0.526076 0
M  V30 830 C 84.5367 3.2141 -1.13617 0
M  V30 831 H 85.7297 1.86941 -2.34506 0
M  V30 832 H 83.2827 0.944676 -1.24521 0
M  V30 833 H 84.0177 3.23865 -0.167863 0
M  V30 834 H 83.8027 3.4109 -1.93391 0
M  V30 835 H 85.2927 4.01477 -1.14918 0
M  V30 836 N 85.7298 1.2412 0.971189 0
M  V30 837 C 86.9758 1.08041 1.71625 0
M  V30 838 C 87.3088 -0.380407 1.90438 0
M  V30 839 O 86.5838 -1.28127 1.46334 0
M  V30 840 C 86.8668 1.81682 3.10908 0
M  V30 841 C 86.7198 3.35493 2.99608 0
M  V30 842 C 88.0388 1.58671 4.10501 0
M  V30 843 H 85.1578 0.39388 0.622919 0
M  V30 844 H 87.7998 1.52743 1.13003 0
M  V30 845 H 85.9498 1.43684 3.60953 0
M  V30 846 H 87.6218 3.83068 2.57015 0
M  V30 847 H 85.8648 3.64052 2.35899 0
M  V30 848 H 86.5358 3.82217 3.98264 0
M  V30 849 H 89.0118 1.91719 3.69301 0
M  V30 850 H 87.8878 2.1266 5.06031 0
M  V30 851 H 88.1488 0.524161 4.38982 0
M  V30 852 N 87.2079 -1.17134 1.05439 0
M  V30 853 C 88.1399 -2.2078 0.615539 0
M  V30 854 C 89.1529 -1.59584 -0.322001 0
M  V30 855 O 90.3419 -1.78133 -0.114344 0
M  V30 856 C 87.4419 -3.38691 -0.118938 0
M  V30 857 C 86.6149 -4.29454 0.829924 0
M  V30 858 C 85.6739 -5.26024 0.136258 0
M  V30 859 O 84.6999 -5.63952 0.77115 0
M  V30 860 N 85.9019 -5.69487 -1.1254 0
M  V30 861 H 88.6669 -2.59052 1.50705 0
M  V30 862 H 86.2279 -1.32058 0.936603 0
M  V30 863 H 88.2199 -4.00329 -0.593179 0
M  V30 864 H 86.7899 -2.98996 -0.91215 0
M  V30 865 H 86.0099 -3.65211 1.48373 0
M  V30 866 H 87.2979 -4.86984 1.47392 0
M  V30 867 H 86.6959 -5.4075 -1.6615 0
M  V30 868 H 85.2529 -6.33257 -1.54366 0
M  V30 869 N 88.686 -0.835752 -1.33615 0
M  V30 870 C 89.616 -0.281739 -2.31794 0
M  V30 871 C 90.597 0.608833 -1.58831 0
M  V30 872 O 91.782 0.533035 -1.86741 0
M  V30 873 C 88.912 0.546612 -3.42971 0
M  V30 874 C 87.866 -0.247904 -4.27281 0
M  V30 875 C 87.192 0.704001 -5.30045 0
M  V30 876 C 88.492 -1.46324 -5.01385 0
M  V30 877 H 90.186 -1.10206 -2.78379 0
M  V30 878 H 87.732 -0.531388 -1.33837 0
M  V30 879 H 89.685 0.944467 -4.1068 0
M  V30 880 H 88.409 1.40011 -2.95067 0
M  V30 881 H 87.068 -0.627281 -3.61194 0
M  V30 882 H 86.716 1.55381 -4.78399 0
M  V30 883 H 86.416 0.176524 -5.87335 0
M  V30 884 H 87.94 1.09944 -6.0062 0
M  V30 885 H 89.354 -1.13871 -5.61877 0
M  V30 886 H 87.751 -1.92728 -5.6831 0
M  V30 887 H 88.821 -2.23467 -4.30338 0
M  V30 888 N 90.1641 1.46063 -0.591896 0
M  V30 889 C 91.3891 2.07226 -0.0850314 0
M  V30 890 C 91.8141 1.43625 1.21463 0
M  V30 891 O 91.1721 0.523305 1.73583 0
M  V30 892 C 91.2201 3.60554 0.0576567 0
M  V30 893 O 90.3241 3.97128 1.11188 0
M  V30 894 H 89.6651 0.660615 -0.0669568 0
M  V30 895 H 92.1951 1.8756 -0.81745 0
M  V30 896 H 92.2051 4.07165 0.2609 0
M  V30 897 H 90.8801 4.06235 -0.891416 0
M  V30 898 H 89.4571 3.62213 0.886356 0
M  V30 899 N 91.6422 0.330177 1.54103 0
M  V30 900 C 92.5892 -0.532762 2.24567 0
M  V30 901 C 93.5592 -1.10635 1.23892 0
M  V30 902 O 94.7442 -1.14546 1.5259 0
M  V30 903 C 91.8842 -1.6845 3.01195 0
M  V30 904 C 90.9972 -1.13951 4.167 0
M  V30 905 C 90.1322 -2.25746 4.80845 0
M  V30 906 C 89.1712 -1.6853 5.88442 0
M  V30 907 N 88.3082 -2.74014 6.46421 0
M  V30 908 H 93.1482 0.0746905 2.97906 0
M  V30 909 H 90.6852 0.048632 1.4702 0
M  V30 910 H 92.6432 -2.36234 3.43874 0
M  V30 911 H 91.2732 -2.26314 2.30178 0
M  V30 912 H 90.3252 -0.35301 3.78758 0
M  V30 913 H 91.6372 -0.680892 4.94131 0
M  V30 914 H 90.7912 -3.01422 5.26526 0
M  V30 915 H 89.5302 -2.74947 4.0281 0
M  V30 916 H 88.5352 -0.913543 5.42157 0
M  V30 917 H 89.7602 -1.20198 6.68378 0
M  V30 918 H 87.7062 -3.22494 5.71256 0
M  V30 919 H 87.6232 -2.32735 7.19285 0
M  V30 920 H 88.8912 -3.49499 6.96757 0
M  V30 921 N 93.1203 -1.57491 0.0584922 0
M  V30 922 C 94.3683 -1.92597 -0.612436 0
M  V30 923 C 94.6893 -0.938162 -1.70949 0
M  V30 924 O 93.9593 0.0158301 -1.95894 0
M  V30 925 H 92.5393 -0.710964 -0.229214 0
M  V30 926 H 95.2013 -1.94571 0.113218 0
M  V30 927 H 94.2973 -2.94038 -1.04633 0
M  V30 928 N 94.5984 0.214957 -1.56127 0
M  V30 929 C 96.0144 0.564948 -1.49267 0
M  V30 930 C 96.2144 1.86827 -0.754838 0
M  V30 931 O 95.2704 2.50745 -0.297198 0
M  V30 932 C 96.5834 0.638071 -2.93852 0
M  V30 933 C 98.1314 0.728253 -3.0441 0
M  V30 934 C 98.6064 0.832663 -4.50367 0
M  V30 935 N 100.097 0.896712 -4.54437 0
M  V30 936 C 100.832 0.997324 -5.6466 0
M  V30 937 N 100.328 1.06147 -6.8462 0
M  V30 938 N 102.121 1.03297 -5.52527 0
M  V30 939 H 94.2724 -0.640211 -2.02522 0
M  V30 940 H 96.5354 -0.225507 -0.920788 0
M  V30 941 H 96.2414 -0.250126 -3.50809 0
M  V30 942 H 96.1154 1.49947 -3.46115 0
M  V30 943 H 98.5024 1.60689 -2.47514 0
M  V30 944 H 98.5834 -0.158952 -2.55306 0
M  V30 945 H 98.2274 -0.0415417 -5.07883 0
M  V30 946 H 98.1574 1.73538 -4.97184 0
M  V30 947 H 100.648 0.857188 -3.6805 0
M  V30 948 H 100.961 1.1382 -7.64372 0
M  V30 949 H 99.3064 1.03049 -6.87318 0
M  V30 950 H 102.497 0.979558 -4.57736 0
M  V30 951 H 102.67 1.10793 -6.38458 0
M  V30 952 N 96.0765 1.50051 0.48192 0
M  V30 953 C 96.9865 1.7089 1.60728 0
M  V30 954 C 98.0025 0.591788 1.63627 0
M  V30 955 O 99.1785 0.868817 1.81696 0
M  V30 956 C 96.2435 1.78855 2.97005 0
M  V30 957 C 95.3045 3.02537 3.04581 0
M  V30 958 C 94.5375 3.10112 4.34357 0
M  V30 959 O 94.7605 2.24765 5.24249 0
M  V30 960 O 93.6945 4.02747 4.47301 0
M  V30 961 H 97.5205 2.66264 1.46072 0
M  V30 962 H 95.1055 1.34018 0.660264 0
M  V30 963 H 96.9875 1.86336 3.77964 0
M  V30 964 H 95.6625 0.866628 3.11883 0
M  V30 965 H 94.5695 3.00563 2.22739 0
M  V30 966 H 95.9025 3.94272 2.94636 0
M  V30 967 N 97.5546 -0.734337 1.39446 0
M  V30 968 C 98.7796 -1.52866 1.40167 0
M  V30 969 C 99.2046 -1.881 -0.00171513 0
M  V30 970 O 98.5626 -1.51957 -0.988879 0
M  V30 971 C 98.6106 -2.79235 2.28167 0
M  V30 972 O 97.7146 -3.75185 1.71201 0
M  V30 973 H 97.0556 -0.461618 0.477289 0
M  V30 974 H 99.5856 -0.905949 1.8345 0
M  V30 975 H 99.5956 -3.27963 2.42702 0
M  V30 976 H 98.2706 -2.52923 3.30156 0
M  V30 977 H 96.8476 -3.33958 1.65912 0
M  V30 978 N 99.0327 -1.24633 -0.964593 0
M  V30 979 C 100.279 -1.08949 -1.71049 0
M  V30 980 C 100.612 0.370302 -1.90637 0
M  V30 981 O 99.8867 1.27349 -1.47011 0
M  V30 982 C 100.17 -1.83329 -3.0994 0
M  V30 983 C 100.023 -3.37077 -2.97824 0
M  V30 984 C 101.342 -1.60846 -4.09654 0
M  V30 985 H 98.4607 -0.397178 -0.620821 0
M  V30 986 H 101.103 -1.5334 -1.12191 0
M  V30 987 H 99.2527 -1.45597 -3.60186 0
M  V30 988 H 100.925 -3.84425 -2.5498 0
M  V30 989 H 99.1677 -3.65298 -2.33965 0
M  V30 990 H 99.8387 -3.84324 -3.96231 0
M  V30 991 H 102.315 -1.93674 -3.68279 0
M  V30 992 H 101.191 -2.1534 -5.04896 0
M  V30 993 H 101.452 -0.547434 -4.38698 0
M  V30 994 N 100.511 1.16574 -1.06058 0
M  V30 995 C 101.441 2.23057 -0.690488 0
M  V30 996 C 102.422 1.67141 0.315901 0
M  V30 997 O 103.607 1.93253 0.191556 0
M  V30 998 C 100.737 3.47222 -0.073625 0
M  V30 999 C 99.6908 4.16016 -1.00573 0
M  V30 1000 C 99.0168 5.34104 -0.252289 0
M  V30 1001 C 100.317 4.67264 -2.33371 0
M  V30 1002 H 102.011 2.54271 -1.58072 0
M  V30 1003 H 99.5568 1.22218 -0.76149 0
M  V30 1004 H 101.51 4.20939 0.19714 0
M  V30 1005 H 100.234 3.15302 0.85161 0
M  V30 1006 H 98.8928 3.44223 -1.2612 0
M  V30 1007 H 98.5408 4.98437 0.675988 0
M  V30 1008 H 98.2408 5.81072 -0.873455 0
M  V30 1009 H 99.7648 6.10599 0.0109857 0
M  V30 1010 H 101.179 5.32573 -2.12223 0
M  V30 1011 H 99.5758 5.24843 -2.90963 0
M  V30 1012 H 100.646 3.83602 -2.96611 0
M  V30 1013 N 101.989 0.842826 1.3317 0
M  V30 1014 C 103.238 0.436738 1.96915 0
M  V30 1015 C 103.551 -1.01025 1.67491 0
M  V30 1016 O 104.757 -1.5212 2.24881 0
M  V30 1017 C 103.213 0.730021 3.52418 0
M  V30 1018 C 102.821 2.19195 3.90714 0
M  V30 1019 C 104.565 0.391076 4.22695 0
M  V30 1020 C 102.472 2.42907 5.39212 0
M  V30 1021 H 101.402 0.15958 0.736919 0
M  V30 1022 H 104.053 1.03196 1.51733 0
M  V30 1023 H 102.435 0.0643755 3.95948 0
M  V30 1024 H 103.609 2.8984 3.58231 0
M  V30 1025 H 101.924 2.49425 3.33431 0
M  V30 1026 H 104.521 0.545817 5.31907 0
M  V30 1027 H 104.864 -0.666294 4.10933 0
M  V30 1028 H 105.397 1.01212 3.84709 0
M  V30 1029 H 102.136 3.47224 5.55982 0
M  V30 1030 H 101.656 1.76827 5.73142 0
M  V30 1031 H 103.335 2.2626 6.06148 0
M  V30 1032 N 103.467 -1.45747 0.599634 0
M  V30 1033 C 104.716 -2.01502 0.0893511 0
M  V30 1034 C 105.029 -1.4748 -1.28488 0
M  V30 1035 O 106.235 -1.95161 -1.88745 0
M  V30 1036 C 104.691 -3.59735 0.109082 0
M  V30 1037 C 104.299 -4.22754 1.48267 0
M  V30 1038 C 106.043 -4.23085 -0.346374 0
M  V30 1039 C 103.95 -5.73115 1.45921 0
M  V30 1040 H 102.88 -0.753417 0.0296347 0
M  V30 1041 H 105.531 -1.67303 0.753788 0
M  V30 1042 H 103.913 -3.91087 -0.621854 0
M  V30 1043 H 105.087 -4.02987 2.23468 0
M  V30 1044 H 103.402 -3.71567 1.87955 0
M  V30 1045 H 105.999 -5.33327 -0.38298 0
M  V30 1046 H 106.342 -3.93201 -1.36743 0
M  V30 1047 H 106.875 -3.9642 0.331038 0
M  V30 1048 H 103.614 -6.07685 2.45762 0
M  V30 1049 H 103.134 -5.95097 0.749665 0
M  V30 1050 H 104.813 -6.3616 1.17941 0
M  V30 1051 N 104.945 -0.338344 -1.53925 0
M  V30 1052 C 106.17 0.263987 -2.05713 0
M  V30 1053 C 106.595 1.43847 -1.21201 0
M  V30 1054 O 105.953 1.79904 -0.224535 0
M  V30 1055 C 106.001 0.662 -3.54471 0
M  V30 1056 O 105.105 1.76265 -3.72833 0
M  V30 1057 H 104.446 0.0448722 -0.662482 0
M  V30 1058 H 106.976 -0.491048 -1.9862 0
M  V30 1059 H 106.986 0.940594 -3.9701 0
M  V30 1060 H 105.661 -0.196937 -4.15433 0
M  V30 1061 H 104.238 1.48173 -3.42198 0
M  V30 1062 N 106.423 1.57458 -0.0668435 0
M  V30 1063 C 107.651 1.97624 0.612565 0
M  V30 1064 C 108.066 0.94502 1.63447 0
M  V30 1065 O 107.423 -0.0689276 1.8237 0
M  V30 1066 C 107.474 3.37869 1.28555 0
M  V30 1067 O 107.195 4.3704 0.304557 0
M  V30 1068 C 108.696 3.92882 2.05325 0
M  V30 1069 H 105.916 0.650045 0.166381 0
M  V30 1070 H 108.46 2.04035 -0.137782 0
M  V30 1071 H 106.615 3.3256 1.98702 0
M  V30 1072 H 107.029 5.18565 0.786779 0
M  V30 1073 H 108.503 4.93247 2.47812 0
M  V30 1074 H 108.98 3.29156 2.9078 0
M  V30 1075 H 109.586 4.01577 1.40056 0
M  V30 1076 N 107.901 -0.206675 1.56239 0
M  V30 1077 C 109.178 -0.954051 1.70755 0
M  V30 1078 C 109.558 -2.01841 0.618353 0
M  V30 1079 O 108.906 -2.25444 -0.372434 0
M  V30 1080 C 109.116 -1.551 3.12642 0
M  V30 1081 C 110.464 -2.03757 3.72516 0
M  V30 1082 O 111.488 -1.64965 3.15698 0
M  V30 1083 O 110.347 -2.75103 4.72208 0
M  V30 1084 H 107.441 -0.446636 0.696021 0
M  V30 1085 H 109.987 -0.197283 1.68549 0
M  V30 1086 H 108.759 -0.783212 3.83382 0
M  V30 1087 H 108.382 -2.37291 3.19028 0
M  V30 1088 N 109.379 -1.50304 -0.473955 0
M  V30 1089 C 110.79 -1.54042 -1.0549 0
M  V30 1090 C 111.141 -0.342248 -1.93192 0
M  V30 1091 O 110.266 0.545157 -2.09421 0
M  V30 1092 C 110.861 -2.79152 -1.91989 0
M  V30 1093 C 109.42 -2.8558 -2.45196 0
M  V30 1094 C 108.567 -2.48295 -1.2347 0
M  V30 1095 H 111.518 -1.5661 -0.256693 0
M  V30 1096 H 111.539 -2.60845 -2.7702 0
M  V30 1097 H 111.051 -3.66339 -1.28131 0
M  V30 1098 H 109.152 -2.02738 -3.12615 0
M  V30 1099 H 109.265 -3.88403 -2.80499 0
M  V30 1100 H 107.629 -2.00669 -1.56856 0
M  V30 1101 H 108.412 -3.37787 -0.612789 0
M  V30 1102 N 110.857 0.726932 -1.39834 0
M  V30 1103 C 111.82 1.82269 -1.38962 0
M  V30 1104 C 112.82 1.58248 -0.285334 0
M  V30 1105 O 114.01 1.65499 -0.54366 0
M  V30 1106 C 111.142 3.20186 -1.17019 0
M  V30 1107 H 112.335 1.84443 -2.36476 0
M  V30 1108 H 109.888 0.931416 -1.25516 0
M  V30 1109 H 110.623 3.23669 -0.202204 0
M  V30 1110 H 110.408 3.3902 -1.96998 0
M  V30 1111 H 111.898 4.00235 -1.1917 0
M  V30 1112 N 112.336 1.25143 0.95797 0
M  V30 1113 C 113.286 1.01924 2.0395 0
M  V30 1114 C 114.27 -0.0427175 1.60843 0
M  V30 1115 O 115.462 0.17221 1.7616 0
M  V30 1116 C 112.591 0.636373 3.3735 0
M  V30 1117 C 111.677 1.73492 3.8699 0
M  V30 1118 N 112.068 2.96945 4.0946 0
M  V30 1119 C 110.366 1.61467 4.15746 0
M  V30 1120 C 111.067 3.68228 4.50315 0
M  V30 1121 N 110.043 2.95833 4.56053 0
M  V30 1122 H 113.845 1.95653 2.19311 0
M  V30 1123 H 111.359 1.15413 1.14253 0
M  V30 1124 H 113.356 0.451233 4.14451 0
M  V30 1125 H 112.016 -0.293621 3.2337 0
M  V30 1126 H 113.027 3.33025 3.96629 0
M  V30 1127 H 109.704 0.753394 4.10646 0
M  V30 1128 H 111.094 4.74178 4.76031 0
M  V30 1129 N 113.814 -1.1601 1.06675 0
M  V30 1130 C 114.762 -2.22586 0.675157 0
M  V30 1131 C 115.756 -1.66525 -0.310766 0
M  V30 1132 O 116.962 -1.79145 -0.175215 0
M  V30 1133 H 113.337 -0.724855 0.200223 0
M  V30 1134 H 115.308 -2.52899 1.58381 0
M  V30 1135 C 114.057 -3.47604 0.0817162 0
M  V30 1136 H 113.38 -3.91058 0.831484 0
M  V30 1137 H 114.82 -4.23718 -0.154708 0
M  V30 1138 C 113.279 -3.15718 -1.17576 0
M  V30 1139 O 113.809 -3.31878 -2.26318 0
M  V30 1140 N 112.015 -2.69816 -1.07923 0
M  V30 1141 H 111.562 -2.56866 -0.194293 0
M  V30 1142 H 111.52 -2.48855 -1.92141 0
M  V30 1143 N 115.292 -0.849877 -1.32721 0
M  V30 1144 C 116.541 -0.447175 -1.96681 0
M  V30 1145 C 116.854 1.00135 -1.68025 0
M  V30 1146 O 118.06 1.50926 -2.25685 0
M  V30 1147 C 116.516 -0.7487 -3.52026 0
M  V30 1148 C 116.124 -2.21264 -3.89546 0
M  V30 1149 C 117.868 -0.413487 -4.22481 0
M  V30 1150 C 115.775 -2.45763 -5.37917 0
M  V30 1151 H 114.705 -0.163486 -0.736063 0
M  V30 1152 H 117.356 -1.03999 -1.51183 0
M  V30 1153 H 115.738 -0.0853727 -3.95908 0
M  V30 1154 H 116.912 -2.91736 -3.56689 0
M  V30 1155 H 115.227 -2.5119 -3.32103 0
M  V30 1156 H 117.824 -0.574017 -5.3161 0
M  V30 1157 H 118.167 0.644492 -4.11281 0
M  V30 1158 H 118.7 -1.03251 -3.84167 0
M  V30 1159 H 115.439 -3.50168 -5.54132 0
M  V30 1160 H 114.959 -1.79864 -5.72197 0
M  V30 1161 H 116.638 -2.29471 -6.0494 0
M  V30 1162 N 116.77 1.45427 -0.607355 0
M  V30 1163 C 117.995 2.07124 -0.107006 0
M  V30 1164 C 118.42 1.44906 1.19933 0
M  V30 1165 O 117.778 0.541687 1.73019 0
M  V30 1166 C 117.826 3.60595 0.0194119 0
M  V30 1167 O 116.93 3.98285 1.0697 0
M  V30 1168 H 116.271 0.659868 -0.0739597 0
M  V30 1169 H 118.801 1.86683 -0.837297 0
M  V30 1170 H 118.811 4.07419 0.2177 0
M  V30 1171 H 117.486 4.05266 -0.934453 0
M  V30 1172 H 116.063 3.63133 0.847889 0
M  V30 1173 N 118.248 0.346503 1.53744 0
M  V30 1174 C 119.525 -0.304532 1.93215 0
M  V30 1175 C 119.905 -1.67993 1.27834 0
M  V30 1176 O 119.253 -2.24411 0.430352 0
M  V30 1177 C 119.463 -0.373852 3.46992 0
M  V30 1178 C 120.811 -0.62329 4.2 0
M  V30 1179 O 121.835 -0.455847 3.53271 0
M  V30 1180 O 120.694 -0.947879 5.38217 0
M  V30 1181 H 117.788 -0.178318 0.807547 0
M  V30 1182 H 120.334 0.397895 1.64969 0
M  V30 1183 H 119.106 0.591224 3.86808 0
M  V30 1184 H 118.729 -1.12294 3.81413 0
M  V30 1185 N 119.726 -1.57421 0.075193 0
M  V30 1186 C 120.689 -2.11791 -0.876203 0
M  V30 1187 C 121.689 -1.04268 -1.22412 0
M  V30 1188 O 122.879 -1.30242 -1.15684 0
M  V30 1189 C 120.011 -2.62207 -2.17854 0
M  V30 1190 H 121.204 -2.9716 -0.40444 0
M  V30 1191 H 118.757 -1.55333 -0.173557 0
M  V30 1192 H 119.492 -1.803 -2.6956 0
M  V30 1193 H 119.277 -3.40802 -1.93897 0
M  V30 1194 H 120.767 -3.04335 -2.85955 0
M  V30 1195 N 121.204 0.198386 -1.56346 0
M  V30 1196 C 122.451 0.919286 -1.80431 0
M  V30 1197 C 122.779 1.83393 -0.647866 0
M  V30 1198 O 122.034 1.92236 0.366556 0
M  V30 1199 C 122.333 1.77031 -3.10475 0
M  V30 1200 C 121.999 1.00693 -4.39513 0
M  V30 1201 C 120.661 0.796145 -4.74568 0
M  V30 1202 C 123.013 0.469559 -5.19081 0
M  V30 1203 C 120.341 0.0364588 -5.86689 0
M  V30 1204 C 122.693 -0.2769 -6.31994 0
M  V30 1205 C 121.357 -0.49873 -6.65634 0
M  V30 1206 H 120.627 0.336391 -0.660244 0
M  V30 1207 H 123.274 0.185872 -1.90596 0
M  V30 1208 H 121.579 2.5723 -2.95533 0
M  V30 1209 H 123.276 2.33065 -3.26315 0
M  V30 1210 H 119.866 1.18122 -4.12001 0
M  V30 1211 H 124.05 0.619816 -4.92414 0
M  V30 1212 H 119.306 -0.145412 -6.11227 0
M  V30 1213 H 123.48 -0.700684 -6.92866 0
M  V30 1214 H 121.107 -1.0893 -7.52355 0
M  V30 1215 N 122.682 1.50554 0.465978 0
M  V30 1216 C 123.959 1.5232 1.22712 0
M  V30 1217 C 124.339 0.270807 2.09356 0
M  V30 1218 O 123.687 -0.745541 2.15995 0
M  V30 1219 C 123.897 2.82175 2.05374 0
M  V30 1220 C 125.245 3.33033 2.6339 0
M  V30 1221 O 126.269 2.83531 2.15612 0
M  V30 1222 O 125.128 4.19336 3.50456 0
M  V30 1223 H 122.222 0.611183 0.557122 0
M  V30 1224 H 124.768 1.62847 0.477381 0
M  V30 1225 H 123.54 3.64797 1.41558 0
M  V30 1226 H 123.163 2.74675 2.87471 0
M  V30 1227 N 124.16 -0.719506 1.40217 0
M  V30 1228 C 125.092 -1.84428 1.36084 0
M  V30 1229 C 126.105 -1.60597 0.266913 0
M  V30 1230 O 127.294 -1.70544 0.526983 0
M  V30 1231 C 124.394 -3.20757 1.094 0
M  V30 1232 C 123.567 -3.71817 2.30372 0
M  V30 1233 C 122.626 -4.86748 1.99907 0
M  V30 1234 O 121.652 -4.99603 2.72737 0
M  V30 1235 N 122.854 -5.7226 0.974635 0
M  V30 1236 H 125.619 -1.88473 2.33019 0
M  V30 1237 H 123.18 -0.900885 1.3452 0
M  V30 1238 H 125.172 -3.95235 0.870116 0
M  V30 1239 H 123.742 -3.11884 0.211452 0
M  V30 1240 H 122.962 -2.88514 2.68614 0
M  V30 1241 H 124.25 -4.02666 3.11026 0
M  V30 1242 H 123.648 -5.6448 0.371368 0
M  V30 1243 H 122.205 -6.46739 0.810656 0
M  V30 1244 N 125.638 -1.25649 -0.95132 0
M  V30 1245 C 126.585 -1.06323 -2.04851 0
M  V30 1246 C 127.555 0.0286491 -1.66075 0
M  V30 1247 O 128.74 -0.12917 -1.90362 0
M  V30 1248 C 125.88 -0.691529 -3.381 0
M  V30 1249 C 124.993 -1.85861 -3.89974 0
M  V30 1250 C 124.128 -1.43096 -5.11563 0
M  V30 1251 C 123.167 -2.56696 -5.55674 0
M  V30 1252 N 122.304 -2.14684 -6.68472 0
M  V30 1253 H 127.144 -2.00222 -2.20715 0
M  V30 1254 H 124.681 -0.997027 -1.08156 0
M  V30 1255 H 126.639 -0.456963 -4.1469 0
M  V30 1256 H 125.269 0.210474 -3.22113 0
M  V30 1257 H 124.321 -2.20639 -3.09875 0
M  V30 1258 H 125.633 -2.71161 -4.18657 0
M  V30 1259 H 124.787 -1.15624 -5.9558 0
M  V30 1260 H 123.526 -0.548722 -4.84603 0
M  V30 1261 H 122.531 -2.84909 -4.7022 0
M  V30 1262 H 123.756 -3.45503 -5.8464 0
M  V30 1263 H 121.702 -1.28881 -6.43215 0
M  V30 1264 H 121.619 -2.9353 -6.96689 0
M  V30 1265 H 122.887 -1.90397 -7.5589 0
M  V30 1266 N 127.117 1.15442 -1.07289 0
M  V30 1267 C 128.364 1.86213 -0.795668 0
M  V30 1268 C 128.692 1.82291 0.678238 0
M  V30 1269 O 127.947 1.24057 1.51355 0
M  V30 1270 C 128.246 3.3489 -1.24834 0
M  V30 1271 C 127.912 3.59007 -2.72809 0
M  V30 1272 C 126.574 3.65298 -3.13227 0
M  V30 1273 C 128.926 3.68762 -3.68326 0
M  V30 1274 C 126.254 3.78854 -4.4798 0
M  V30 1275 C 128.606 3.83842 -5.0284 0
M  V30 1276 C 127.27 3.88378 -5.4288 0
M  V30 1277 H 126.54 0.681403 -0.291155 0
M  V30 1278 H 129.187 1.36435 -1.34379 0
M  V30 1279 H 127.492 3.8687 -0.619595 0
M  V30 1280 H 129.189 3.88052 -1.01076 0
M  V30 1281 H 125.779 3.5475 -2.40521 0
M  V30 1282 H 129.963 3.63202 -3.38227 0
M  V30 1283 H 125.219 3.80623 -4.78472 0
M  V30 1284 H 129.393 3.90332 -5.76727 0
M  V30 1285 H 127.02 3.98635 -6.47298 0
M  V30 1286 N 128.595 0.856903 1.32268 0
M  V30 1287 C 129.82 0.474569 2.01897 0
M  V30 1288 C 130.245 -0.921766 1.63967 0
M  V30 1289 O 129.603 -1.60589 0.84148 0
M  V30 1290 C 129.651 0.623799 3.55164 0
M  V30 1291 O 128.755 -0.342459 4.10976 0
M  V30 1292 H 128.096 0.190422 0.63611 0
M  V30 1293 H 130.626 1.15672 1.68764 0
M  V30 1294 H 130.636 0.512169 4.04773 0
M  V30 1295 H 129.311 1.64202 3.82113 0
M  V30 1296 H 127.888 -0.18688 3.72431 0
M  V30 1297 N 130.073 -1.45103 0.615059 0
M  V30 1298 C 131.02 -2.30586 -0.0993978 0
M  V30 1299 C 131.99 -1.42544 -0.852669 0
M  V30 1300 O 133.175 -1.71465 -0.836917 0
M  V30 1301 C 130.315 -3.27572 -1.08583 0
M  V30 1302 C 129.428 -4.30717 -0.332656 0
M  V30 1303 C 128.563 -5.14807 -1.30947 0
M  V30 1304 C 127.602 -6.09673 -0.544538 0
M  V30 1305 N 126.739 -6.86517 -1.47101 0
M  V30 1306 H 131.579 -2.91144 0.635542 0
M  V30 1307 H 129.116 -1.4346 0.325206 0
M  V30 1308 H 131.074 -3.82276 -1.67095 0
M  V30 1309 H 129.704 -2.68751 -1.78809 0
M  V30 1310 H 128.756 -3.78615 0.368107 0
M  V30 1311 H 130.068 -4.98102 0.263842 0
M  V30 1312 H 129.222 -5.73948 -1.96643 0
M  V30 1313 H 127.961 -4.47458 -1.9399 0
M  V30 1314 H 126.966 -5.49656 0.126003 0
M  V30 1315 H 128.191 -6.79052 0.080947 0
M  V30 1316 H 126.137 -6.21851 -2.08895 0
M  V30 1317 H 126.054 -7.50281 -0.928137 0
M  V30 1318 H 127.322 -7.50194 -2.11731 0
M  V30 1319 N 131.551 -0.354651 -1.53558 0
M  V30 1320 C 132.797 0.238797 -2.01389 0
M  V30 1321 C 133.13 1.49309 -1.2418 0
M  V30 1322 O 132.405 1.91638 -0.332457 0
M  V30 1323 C 132.688 0.541771 -3.56001 0
M  V30 1324 C 132.541 -0.725388 -4.43912 0
M  V30 1325 C 133.86 1.34685 -4.18984 0
M  V30 1326 H 130.979 0.0853177 -0.732045 0
M  V30 1327 H 133.621 -0.477384 -1.83905 0
M  V30 1328 H 131.771 1.15189 -3.71031 0
M  V30 1329 H 133.443 -1.36313 -4.407 0
M  V30 1330 H 131.686 -1.34801 -4.12324 0
M  V30 1331 H 132.357 -0.468505 -5.50008 0
M  V30 1332 H 134.833 0.830837 -4.07721 0
M  V30 1333 H 133.709 1.52759 -5.27215 0
M  V30 1334 H 133.97 2.35221 -3.74331 0
M  V30 1335 N 133.029 1.57378 -0.0835403 0
M  V30 1336 C 134.44 1.81261 0.447358 0
M  V30 1337 C 134.791 0.998331 1.68902 0
M  V30 1338 O 133.916 0.224282 2.15235 0
M  V30 1339 C 134.511 3.28767 0.818386 0
M  V30 1340 C 133.07 3.53455 1.29409 0
M  V30 1341 C 132.217 2.75831 0.285024 0
M  V30 1342 H 135.168 1.5566 -0.309115 0
M  V30 1343 H 135.189 3.41459 1.67887 0
M  V30 1344 H 134.701 3.88006 -0.0855019 0
M  V30 1345 H 132.802 2.99534 2.21608 0
M  V30 1346 H 132.915 4.62128 1.2639 0
M  V30 1347 H 131.279 2.42947 0.764767 0
M  V30 1348 H 132.062 3.37813 -0.611341 0
M  V30 1349 N 134.507 -0.190092 1.56449 0
M  V30 1350 C 135.735 -0.925772 1.85033 0
M  V30 1351 C 136.15 -1.76638 0.666658 0
M  V30 1352 O 135.507 -1.78822 -0.364565 0
M  V30 1353 C 135.558 -1.81786 3.12468 0
M  V30 1354 O 135.279 -1.01118 4.26271 0
M  V30 1355 C 136.78 -2.6648 3.54265 0
M  V30 1356 H 134 -0.269872 0.614337 0
M  V30 1357 H 136.544 -0.195837 2.0356 0
M  V30 1358 H 134.699 -2.50136 2.95822 0
M  V30 1359 H 135.113 -1.61956 4.98869 0
M  V30 1360 H 136.587 -3.24722 4.46385 0
M  V30 1361 H 137.064 -3.40434 2.77491 0
M  V30 1362 H 137.67 -2.03493 3.73458 0
M  V30 1363 N 135.985 -1.50799 -0.457987 0
M  V30 1364 C 136.932 -1.70617 -1.5543 0
M  V30 1365 C 137.902 -0.547562 -1.56815 0
M  V30 1366 O 139.087 -0.779647 -1.74144 0
M  V30 1367 C 136.227 -1.81831 -2.93311 0
M  V30 1368 C 135.34 -3.09278 -3.01615 0
M  V30 1369 C 134.475 -3.11209 -4.30491 0
M  V30 1370 C 133.514 -4.33055 -4.32585 0
M  V30 1371 N 132.651 -4.32652 -5.52952 0
M  V30 1372 H 137.491 -2.64207 -1.37836 0
M  V30 1373 H 135.028 -1.30959 -0.669937 0
M  V30 1374 H 136.986 -1.86314 -3.73287 0
M  V30 1375 H 135.616 -0.916685 -3.0951 0
M  V30 1376 H 134.668 -3.14203 -2.1443 0
M  V30 1377 H 135.98 -3.99233 -2.99022 0
M  V30 1378 H 135.134 -3.14494 -5.18824 0
M  V30 1379 H 133.873 -2.19106 -4.35711 0
M  V30 1380 H 132.878 -4.29969 -3.42647 0
M  V30 1381 H 134.103 -5.264 -4.29046 0
M  V30 1382 H 132.049 -3.43409 -5.58933 0
M  V30 1383 H 131.966 -5.16392 -5.52155 0
M  V30 1384 H 133.234 -4.40101 -6.43375 0
M  V30 1385 N 137.463 0.71206 -1.40597 0
M  V30 1386 C 138.709 1.47416 -1.39271 0
M  V30 1387 C 139.042 1.942 0.00388791 0
M  V30 1388 O 138.317 1.68403 0.973179 0
M  V30 1389 C 138.6 2.69774 -2.38525 0
M  V30 1390 C 138.453 2.28861 -3.87224 0
M  V30 1391 C 139.772 3.71939 -2.35264 0
M  V30 1392 H 136.891 0.534713 -0.5072 0
M  V30 1393 H 139.533 0.812375 -1.71757 0
M  V30 1394 H 137.683 3.26238 -2.10953 0
M  V30 1395 H 139.355 1.77852 -4.25636 0
M  V30 1396 H 137.598 1.60824 -4.02887 0
M  V30 1397 H 138.269 3.16584 -4.52193 0
M  V30 1398 H 140.745 3.25113 -2.59694 0
M  V30 1399 H 139.621 4.55186 -3.06753 0
M  V30 1400 H 139.882 4.20484 -1.36549 0
M  V30 1401 N 138.941 1.26152 0.944643 0
M  V30 1402 C 139.888 1.07408 2.04285 0
M  V30 1403 C 140.858 -0.0198413 1.66088 0
M  V30 1404 O 142.043 0.139264 1.90291 0
M  V30 1405 C 139.183 0.70945 3.37729 0
M  V30 1406 C 138.296 1.87926 3.88983 0
M  V30 1407 C 137.431 1.45807 5.10797 0
M  V30 1408 C 136.47 2.5964 5.54305 0
M  V30 1409 N 135.607 2.18226 6.67324 0
M  V30 1410 H 140.447 2.01389 2.1965 0
M  V30 1411 H 137.984 1.00275 1.07626 0
M  V30 1412 H 139.942 0.478948 4.14442 0
M  V30 1413 H 138.572 -0.193389 3.2222 0
M  V30 1414 H 137.624 2.22279 3.08701 0
M  V30 1415 H 138.936 2.73377 4.17213 0
M  V30 1416 H 138.09 1.18781 5.94959 0
M  V30 1417 H 136.829 0.574414 4.84305 0
M  V30 1418 H 135.834 2.87399 4.68702 0
M  V30 1419 H 137.059 3.48599 5.828 0
M  V30 1420 H 135.005 1.3229 6.42523 0
M  V30 1421 H 134.922 2.97221 6.95123 0
M  V30 1422 H 136.19 1.94403 7.54869 0
M  V30 1423 N 140.419 -1.14872 1.07899 0
M  V30 1424 C 141.667 -1.85422 0.803941 0
M  V30 1425 C 141.988 -1.83051 -0.67211 0
M  V30 1426 O 141.258 -1.27532 -1.48703 0
M  V30 1427 H 139.838 -0.686537 0.294408 0
M  V30 1428 H 142.5 -1.39226 1.3639 0
M  V30 1429 H 141.596 -2.90399 1.14346 0
M  V30 1430 N 141.898 -0.863906 -1.31812 0
M  V30 1431 C 143.128 -0.485406 -2.00817 0
M  V30 1432 C 143.536 0.925007 -1.65046 0
M  V30 1433 O 142.879 1.61653 -0.872574 0
M  V30 1434 C 142.941 -0.555589 -3.55181 0
M  V30 1435 C 142.605 -1.92654 -4.14407 0
M  V30 1436 C 143.602 -2.89324 -4.31958 0
M  V30 1437 C 141.287 -2.2262 -4.50273 0
M  V30 1438 C 143.281 -4.14108 -4.84555 0
M  V30 1439 C 140.968 -3.47654 -5.02573 0
M  V30 1440 C 141.966 -4.43214 -5.19664 0
M  V30 1441 O 141.654 -5.66033 -5.70843 0
M  V30 1442 H 141.386 -0.188224 -0.649267 0
M  V30 1443 H 143.94 -1.16514 -1.69156 0
M  V30 1444 H 142.17 0.181037 -3.86276 0
M  V30 1445 H 143.859 -0.19138 -4.05449 0
M  V30 1446 H 144.625 -2.6748 -4.04573 0
M  V30 1447 H 140.504 -1.4902 -4.3625 0
M  V30 1448 H 144.048 -4.88703 -4.9781 0
M  V30 1449 H 139.945 -3.69345 -5.29391 0
M  V30 1450 H 140.713 -5.6812 -5.89222 0
M  V30 1451 N 143.376 1.44774 -0.622745 0
M  V30 1452 C 144.653 1.95522 -0.0551974 0
M  V30 1453 C 145.033 1.5649 1.41683 0
M  V30 1454 O 144.381 0.834848 2.12703 0
M  V30 1455 C 144.591 3.4796 -0.269242 0
M  V30 1456 C 145.939 4.24306 -0.158014 0
M  V30 1457 O 146.963 3.55637 -0.200162 0
M  V30 1458 O 145.822 5.46471 -0.0558693 0
M  V30 1459 H 142.916 0.826556 0.0271015 0
M  V30 1460 H 145.462 1.54866 -0.693864 0
M  V30 1461 H 144.234 3.6939 -1.29099 0
M  V30 1462 H 143.857 3.95543 0.403966 0
M  V30 1463 N 144.854 0.36279 1.53368 0
M  V30 1464 C 145.802 -0.500155 2.27159 0
M  V30 1465 C 146.796 -1.08575 1.3003 0
M  V30 1466 O 148.002 -1.02927 1.47668 0
M  V30 1467 H 144.377 -0.180009 0.730138 0
M  V30 1468 H 146.348 0.14401 2.98052 0
M  V30 1469 C 145.097 -1.62937 3.07159 0
M  V30 1470 H 144.42 -1.18806 3.8174 0
M  V30 1471 H 145.86 -2.20795 3.61975 0
M  V30 1472 C 144.319 -2.57007 2.17829 0
M  V30 1473 O 144.849 -3.59752 1.78721 0
M  V30 1474 N 143.055 -2.26131 1.82518 0
M  V30 1475 H 142.602 -1.42616 2.14519 0
M  V30 1476 H 142.56 -2.89327 1.23034 0
M  V30 1477 N 146.332 -1.57332 0.0918853 0
M  V30 1478 C 147.262 -2.16872 -0.865371 0
M  V30 1479 C 148.243 -1.10118 -1.29646 0
M  V30 1480 O 149.428 -1.38242 -1.36392 0
M  V30 1481 C 146.558 -2.74649 -2.12569 0
M  V30 1482 C 145.512 -3.86747 -1.83333 0
M  V30 1483 C 144.838 -4.31212 -3.16166 0
M  V30 1484 C 146.138 -5.10089 -1.1228 0
M  V30 1485 H 147.832 -2.97114 -0.369307 0
M  V30 1486 H 145.378 -1.42918 -0.176194 0
M  V30 1487 H 147.331 -3.14952 -2.7997 0
M  V30 1488 H 146.055 -1.91657 -2.64452 0
M  V30 1489 H 144.714 -3.46978 -1.18331 0
M  V30 1490 H 144.362 -3.45115 -3.6593 0
M  V30 1491 H 144.062 -5.06788 -2.97388 0
M  V30 1492 H 145.586 -4.74146 -3.84731 0
M  V30 1493 H 147 -5.47582 -1.69785 0
M  V30 1494 H 145.397 -5.91073 -1.03693 0
M  V30 1495 H 146.467 -4.84786 -0.105041 0
M  V30 1496 N 147.81 0.181792 -1.56548 0
M  V30 1497 C 149.057 0.900097 -1.81396 0
M  V30 1498 C 149.385 1.82695 -0.667281 0
M  V30 1499 O 148.64 1.92614 0.346146 0
M  V30 1500 C 148.939 1.73728 -3.12335 0
M  V30 1501 C 148.605 0.960255 -4.40556 0
M  V30 1502 C 147.267 0.745766 -4.75386 0
M  V30 1503 C 149.619 0.414477 -5.19549 0
M  V30 1504 C 146.947 -0.0257694 -5.86694 0
M  V30 1505 C 149.299 -0.343916 -6.31664 0
M  V30 1506 C 147.963 -0.569301 -6.65068 0
M  V30 1507 H 147.233 0.329369 -0.663775 0
M  V30 1508 H 149.88 0.165647 -1.90782 0
M  V30 1509 H 148.185 2.54081 -2.98245 0
M  V30 1510 H 149.882 2.29591 -3.28769 0
M  V30 1511 H 146.472 1.13746 -4.13231 0
M  V30 1512 H 150.656 0.567554 -4.93044 0
M  V30 1513 H 145.912 -0.210233 -6.11038 0
M  V30 1514 H 150.086 -0.774133 -6.92084 0
M  V30 1515 H 147.713 -1.16903 -7.51158 0
M  V30 1516 N 149.288 1.51039 0.449983 0
M  V30 1517 C 150.251 1.70863 1.5277 0
M  V30 1518 C 151.251 0.578846 1.5002 0
M  V30 1519 O 152.441 0.846213 1.52266 0
M  V30 1520 C 149.573 1.75341 2.9235 0
M  V30 1521 H 150.766 2.67034 1.36502 0
M  V30 1522 H 148.319 1.40838 0.677812 0
M  V30 1523 H 149.054 0.809383 3.14037 0
M  V30 1524 H 148.839 2.57436 2.95752 0
M  V30 1525 H 150.329 1.92559 3.70555 0
M  V30 1526 N 150.766 -0.704594 1.40972 0
M  V30 1527 C 151.699 -1.82861 1.36518 0
M  V30 1528 C 152.677 -1.6091 0.23382 0
M  V30 1529 O 153.861 -1.83778 0.419271 0
M  V30 1530 C 150.988 -3.1939 1.12729 0
M  V30 1531 C 150.034 -3.60148 2.28463 0
M  V30 1532 S 150.867 -3.65994 3.90907 0
M  V30 1533 C 152.023 -5.05264 3.69403 0
M  V30 1534 H 152.256 -1.86361 2.3164 0
M  V30 1535 H 149.789 -0.872439 1.27389 0
M  V30 1536 H 151.747 -3.98211 0.996893 0
M  V30 1537 H 150.408 -3.1351 0.192427 0
M  V30 1538 H 149.601 -4.59309 2.07489 0
M  V30 1539 H 149.203 -2.88612 2.37863 0
M  V30 1540 H 151.495 -5.92504 3.28551 0
M  V30 1541 H 152.438 -5.31278 4.68134 0
M  V30 1542 H 152.846 -4.76377 3.02862 0
M  V30 1543 N 152.244 -1.26651 -0.937939 0
M  V30 1544 C 153.154 -1.10276 -2.07066 0
M  V30 1545 C 154.17 -0.0354197 -1.73964 0
M  V30 1546 O 155.346 -0.239816 -1.99967 0
M  V30 1547 C 152.411 -0.740887 -3.38691 0
M  V30 1548 C 151.472 -1.88799 -3.85556 0
M  V30 1549 C 150.705 -1.54329 -5.10899 0
M  V30 1550 O 150.928 -0.446494 -5.6865 0
M  V30 1551 O 149.862 -2.37911 -5.52885 0
M  V30 1552 H 153.688 -2.05309 -2.23789 0
M  V30 1553 H 151.273 -1.05743 -1.0554 0
M  V30 1554 H 153.155 -0.55195 -4.1777 0
M  V30 1555 H 151.83 0.180022 -3.23199 0
M  V30 1556 H 150.737 -2.13191 -3.07409 0
M  V30 1557 H 152.07 -2.78874 -4.05574 0
M  V30 1558 N 153.722 1.14298 -1.08507 0
M  V30 1559 C 154.971 1.84708 -0.810305 0
M  V30 1560 C 155.284 1.83903 0.666271 0
M  V30 1561 O 156.49 2.50112 1.05624 0
M  V30 1562 C 154.946 3.31572 -1.39957 0
M  V30 1563 C 154.554 3.40791 -2.90801 0
M  V30 1564 C 156.298 4.07087 -1.20334 0
M  V30 1565 C 154.205 4.81872 -3.4286 0
M  V30 1566 H 153.135 0.691985 -0.299454 0
M  V30 1567 H 155.786 1.28841 -1.30661 0
M  V30 1568 H 154.168 3.87183 -0.830976 0
M  V30 1569 H 155.342 2.95225 -3.53806 0
M  V30 1570 H 153.657 2.78732 -3.0935 0
M  V30 1571 H 156.254 5.11225 -1.56693 0
M  V30 1572 H 156.597 4.16054 -0.143237 0
M  V30 1573 H 157.13 3.57779 -1.73893 0
M  V30 1574 H 153.869 4.78094 -4.48449 0
M  V30 1575 H 153.389 5.27972 -2.84615 0
M  V30 1576 H 155.068 5.50765 -3.39509 0
M  V30 1577 N 155.201 0.870884 1.31352 0
M  V30 1578 C 156.478 0.402907 1.91405 0
M  V30 1579 C 156.858 -1.11512 1.79244 0
M  V30 1580 O 156.206 -1.94411 1.2007 0
M  V30 1581 C 156.416 0.885301 3.37585 0
M  V30 1582 C 157.764 0.911971 4.14691 0
M  V30 1583 O 158.788 0.831016 3.46371 0
M  V30 1584 O 157.647 1.02927 5.3672 0
M  V30 1585 H 154.741 0.120698 0.818145 0
M  V30 1586 H 157.287 0.958857 1.40014 0
M  V30 1587 H 156.059 1.92889 3.40455 0
M  V30 1588 H 155.682 0.307714 3.96407 0
M  V30 1589 N 156.679 -1.44442 0.630414 0
M  V30 1590 C 158.09 -1.85434 0.217063 0
M  V30 1591 C 158.441 -1.52748 -1.23136 0
M  V30 1592 O 157.566 -0.965205 -1.93682 0
M  V30 1593 C 158.161 -3.36581 0.387168 0
M  V30 1594 C 156.72 -3.76389 0.0283297 0
M  V30 1595 C 155.867 -2.68296 0.700889 0
M  V30 1596 H 158.818 -1.34919 0.83562 0
M  V30 1597 H 158.839 -3.78657 -0.374086 0
M  V30 1598 H 158.351 -3.60339 1.44144 0
M  V30 1599 H 156.452 -3.58246 -1.02423 0
M  V30 1600 H 156.565 -4.77095 0.437892 0
M  V30 1601 H 154.929 -2.54335 0.136267 0
M  V30 1602 H 155.712 -2.94887 1.75774 0
M  V30 1603 N 158.157 -0.370918 -1.53173 0
M  V30 1604 C 159.382 0.220293 -2.06227 0
M  V30 1605 C 159.807 1.41243 -1.24225 0
M  V30 1606 O 159.165 1.79387 -0.262645 0
M  V30 1607 C 159.213 0.586663 -3.55796 0
M  V30 1608 O 158.317 1.68317 -3.76488 0
M  V30 1609 H 157.658 0.0308099 -0.663285 0
M  V30 1610 H 160.188 -0.533068 -1.97534 0
M  V30 1611 H 160.198 0.85617 -3.98916 0
M  V30 1612 H 158.873 -0.285013 -4.14922 0
M  V30 1613 H 157.45 1.40881 -3.45264 0
M  V30 1614 N 159.635 1.57281 -0.100228 0
M  V30 1615 C 160.565 2.17328 0.853857 0
M  V30 1616 C 161.546 1.10804 1.2906 0
M  V30 1617 O 162.731 1.38963 1.35657 0
M  V30 1618 C 159.861 2.75772 2.11109 0
M  V30 1619 C 158.815 3.87713 1.81279 0
M  V30 1620 C 158.141 4.32882 3.13874 0
M  V30 1621 C 159.441 5.10677 1.09574 0
M  V30 1622 H 161.135 2.97305 0.353545 0
M  V30 1623 H 158.681 1.43009 0.168612 0
M  V30 1624 H 160.634 3.16433 2.78296 0
M  V30 1625 H 159.358 1.93057 2.63432 0
M  V30 1626 H 158.017 3.476 1.16489 0
M  V30 1627 H 157.665 3.47051 3.64095 0
M  V30 1628 H 157.365 5.08358 2.94696 0
M  V30 1629 H 158.889 4.7618 3.82211 0
M  V30 1630 H 160.303 5.48474 1.66879 0
M  V30 1631 H 158.7 5.91615 1.00557 0
M  V30 1632 H 159.77 4.84835 0.0793299 0
M  V30 1633 N 161.113 -0.173488 1.56642 0
M  V30 1634 C 162.361 -0.888706 1.81512 0
M  V30 1635 C 162.682 -1.82875 0.676872 0
M  V30 1636 O 161.952 -1.93536 -0.303414 0
M  V30 1637 H 160.532 -0.331164 0.669582 0
M  V30 1638 H 163.194 -0.173823 1.94123 0
M  V30 1639 H 162.29 -1.46691 2.75478 0
M  V30 1640 N 162.591 -1.51276 -0.441967 0
M  V30 1641 C 163.837 -1.63958 -1.19355 0
M  V30 1642 C 164.17 -0.352543 -1.90973 0
M  V30 1643 O 163.445 0.647627 -1.83401 0
M  V30 1644 C 163.728 -2.83979 -2.21422 0
M  V30 1645 C 163.581 -4.22646 -1.53918 0
M  V30 1646 C 164.9 -2.99521 -3.22451 0
M  V30 1647 H 162.019 -0.596709 -0.432559 0
M  V30 1648 H 164.661 -1.83748 -0.483398 0
M  V30 1649 H 162.811 -2.67237 -2.81987 0
M  V30 1650 H 164.483 -4.51045 -0.967256 0
M  V30 1651 H 162.726 -4.25558 -0.841615 0
M  V30 1652 H 163.397 -5.02609 -2.28229 0
M  V30 1653 H 165.873 -3.14944 -2.71937 0
M  V30 1654 H 164.749 -3.85072 -3.91166 0
M  V30 1655 H 165.01 -2.11391 -3.88287 0
M  V30 1656 N 164.069 0.697108 -1.41344 0
M  V30 1657 C 165.032 1.79281 -1.42797 0
M  V30 1658 C 166.032 1.57607 -0.318837 0
M  V30 1659 O 167.222 1.64309 -0.578642 0
M  V30 1660 C 164.354 3.17632 -1.23785 0
M  V30 1661 H 165.547 1.79385 -2.40335 0
M  V30 1662 H 163.1 0.904582 -1.27464 0
M  V30 1663 H 163.835 3.23167 -0.270814 0
M  V30 1664 H 163.62 3.34765 -2.04144 0
M  V30 1665 H 165.11 3.97617 -1.27633 0
M  V30 1666 N 165.547 1.27147 0.931209 0
M  V30 1667 C 166.457 1.11372 2.06478 0
M  V30 1668 C 167.473 0.044645 1.73943 0
M  V30 1669 O 168.649 0.250417 1.99837 0
M  V30 1670 C 165.714 0.758838 3.38294 0
M  V30 1671 C 164.775 1.90841 3.84549 0
M  V30 1672 C 164.008 1.57036 5.10074 0
M  V30 1673 O 164.231 0.476645 5.68405 0
M  V30 1674 O 163.165 2.40839 5.51616 0
M  V30 1675 H 166.991 2.06493 2.22698 0
M  V30 1676 H 164.576 1.06301 1.04978 0
M  V30 1677 H 166.458 0.574098 4.17471 0
M  V30 1678 H 165.133 -0.162879 3.2329 0
M  V30 1679 H 164.04 2.14819 3.06274 0
M  V30 1680 H 165.373 2.81021 4.04089 0
M  V30 1681 N 167.025 -1.13721 1.09112 0
M  V30 1682 C 167.955 -2.21148 0.749385 0
M  V30 1683 C 168.936 -1.6792 -0.271475 0
M  V30 1684 O 170.121 -1.93693 -0.140251 0
M  V30 1685 C 167.251 -3.46905 0.165659 0
M  V30 1686 C 166.205 -4.13203 1.11567 0
M  V30 1687 C 165.531 -5.33248 0.393809 0
M  V30 1688 C 166.831 -4.60912 2.45678 0
M  V30 1689 H 168.525 -2.4999 1.64758 0
M  V30 1690 H 166.071 -1.20156 0.793626 0
M  V30 1691 H 168.024 -4.21313 -0.085466 0
M  V30 1692 H 166.748 -3.17449 -0.767714 0
M  V30 1693 H 165.407 -3.40758 1.35202 0
M  V30 1694 H 165.055 -5.00054 -0.543599 0
M  V30 1695 H 164.755 -5.78552 1.02721 0
M  V30 1696 H 166.279 -6.10413 0.150908 0
M  V30 1697 H 167.693 -5.26759 2.26269 0
M  V30 1698 H 166.09 -5.16944 3.04776 0
M  V30 1699 H 167.16 -3.75603 3.06677 0
M  V30 1700 N 168.503 -0.877838 -1.30888 0
M  V30 1701 C 169.914 -0.544193 -1.78593 0
M  V30 1702 C 170.265 0.939301 -1.72254 0
M  V30 1703 O 169.39 1.7337 -1.29505 0
M  V30 1704 C 169.985 -0.98105 -3.24285 0
M  V30 1705 C 168.544 -0.698935 -3.69854 0
M  V30 1706 C 167.691 -1.168 -2.51502 0
M  V30 1707 H 170.642 -1.06278 -1.17859 0
M  V30 1708 H 170.663 -0.307009 -3.79259 0
M  V30 1709 H 170.175 -2.06079 -3.28866 0
M  V30 1710 H 168.276 0.369112 -3.70767 0
M  V30 1711 H 168.389 -1.28148 -4.61644 0
M  V30 1712 H 166.753 -0.587535 -2.47831 0
M  V30 1713 H 167.536 -2.25533 -2.58824 0
M  V30 1714 N 169.982 1.44106 -0.638065 0
M  V30 1715 C 171.259 1.95453 -0.0759321 0
M  V30 1716 C 171.639 1.57984 1.40015 0
M  V30 1717 O 170.987 0.857361 2.11806 0
M  V30 1718 C 171.197 3.47655 -0.306132 0
M  V30 1719 C 172.545 4.24114 -0.203008 0
M  V30 1720 O 173.569 3.55405 -0.237871 0
M  V30 1721 O 172.428 5.46381 -0.113827 0
M  V30 1722 H 169.522 0.826797 0.0183332 0
M  V30 1723 H 172.068 1.54122 -0.710251 0
M  V30 1724 H 170.84 3.68 -1.3301 0
M  V30 1725 H 170.463 3.95949 0.361991 0
M  V30 1726 N 171.46 0.379036 1.52974 0
M  V30 1727 C 172.37 -0.468639 2.29872 0
M  V30 1728 C 173.386 -1.08067 1.36373 0
M  V30 1729 O 174.562 -1.08871 1.69438 0
M  V30 1730 C 171.627 -1.58594 3.083 0
M  V30 1731 C 170.688 -1.00007 4.17489 0
M  V30 1732 C 169.921 -2.06413 4.92168 0
M  V30 1733 O 170.144 -3.27751 4.66835 0
M  V30 1734 O 169.078 -1.68717 5.7777 0
M  V30 1735 H 172.904 0.157508 3.03291 0
M  V30 1736 H 170.489 0.143035 1.48714 0
M  V30 1737 H 172.371 -2.23525 3.57232 0
M  V30 1738 H 171.046 -2.19724 2.37703 0
M  V30 1739 H 169.953 -0.314299 3.72777 0
M  V30 1740 H 171.286 -0.433135 4.90291 0
M  V30 1741 N 172.938 -1.57226 0.108567 0
M  V30 1742 C 174.185 -1.94833 -0.551943 0
M  V30 1743 C 174.513 -0.991204 -1.67348 0
M  V30 1744 O 173.768 -0.0131878 -1.95696 0
M  V30 1745 C 174.067 -3.38911 -1.13463 0
M  V30 1746 C 173.733 -4.50696 -0.135509 0
M  V30 1747 C 172.395 -4.80998 0.139252 0
M  V30 1748 C 174.747 -5.18333 0.545957 0
M  V30 1749 C 172.075 -5.76259 1.10194 0
M  V30 1750 C 174.427 -6.14627 1.49721 0
M  V30 1751 C 173.091 -6.43327 1.78006 0
M  V30 1752 H 172.361 -0.712944 -0.20197 0
M  V30 1753 H 175.008 -1.90582 0.18726 0
M  V30 1754 H 173.313 -3.39805 -1.95037 0
M  V30 1755 H 175.01 -3.65317 -1.65362 0
M  V30 1756 H 171.6 -4.27087 -0.359846 0
M  V30 1757 H 175.784 -4.95087 0.346842 0
M  V30 1758 H 171.04 -5.96804 1.32795 0
M  V30 1759 H 175.214 -6.66126 2.03099 0
M  V30 1760 H 172.841 -7.1695 2.52759 0
M  V30 1761 N 174.416 0.165178 -1.56732 0
M  V30 1762 C 175.663 0.880807 -1.8234 0
M  V30 1763 C 175.991 1.81977 -0.686621 0
M  V30 1764 O 175.246 1.92971 0.325697 0
M  V30 1765 C 175.545 1.70405 -3.1416 0
M  V30 1766 C 175.211 0.913475 -4.4155 0
M  V30 1767 C 173.873 0.695303 -4.7615 0
M  V30 1768 C 176.225 0.359349 -5.1996 0
M  V30 1769 C 173.553 -0.0879947 -5.86634 0
M  V30 1770 C 175.905 -0.410893 -6.31264 0
M  V30 1771 C 174.569 -0.639808 -6.64427 0
M  V30 1772 H 173.839 0.32231 -0.667231 0
M  V30 1773 H 176.486 0.145402 -1.90947 0
M  V30 1774 H 174.791 2.50903 -3.00923 0
M  V30 1775 H 176.488 2.26091 -3.31186 0
M  V30 1776 H 173.078 1.09357 -4.14414 0
M  V30 1777 H 177.262 0.515228 -4.93618 0
M  V30 1778 H 172.518 -0.27503 -6.10781 0
M  V30 1779 H 176.692 -0.847494 -6.91224 0
M  V30 1780 H 174.319 -1.24864 -7.49875 0
M  V30 1781 N 175.894 1.51508 0.433938 0
M  V30 1782 C 176.804 1.75917 1.5521 0
M  V30 1783 C 177.82 0.643545 1.61662 0
M  V30 1784 O 178.996 0.926183 1.7884 0
M  V30 1785 C 176.061 1.88213 2.91164 0
M  V30 1786 C 175.122 3.12074 2.94802 0
M  V30 1787 C 174.355 3.23774 4.24271 0
M  V30 1788 O 174.578 2.4133 5.16833 0
M  V30 1789 O 173.512 4.16774 4.34262 0
M  V30 1790 H 177.338 2.70777 1.37527 0
M  V30 1791 H 174.923 1.36051 0.617293 0
M  V30 1792 H 176.805 1.98267 3.71845 0
M  V30 1793 H 175.48 0.965413 3.08968 0
M  V30 1794 H 174.387 3.07497 2.13065 0
M  V30 1795 H 175.72 4.03446 2.81943 0
M  V30 1796 N 177.372 -0.689602 1.41712 0
M  V30 1797 C 178.282 -1.83314 1.46401 0
M  V30 1798 C 179.298 -1.7036 0.35405 0
M  V30 1799 O 180.474 -1.92171 0.602692 0
M  V30 1800 C 177.539 -3.19344 1.34982 0
M  V30 1801 C 176.6 -3.44363 2.56344 0
M  V30 1802 C 175.833 -4.73904 2.45461 0
M  V30 1803 O 176.056 -5.508 1.48241 0
M  V30 1804 O 174.99 -4.99839 3.35328 0
M  V30 1805 H 178.816 -1.82314 2.42889 0
M  V30 1806 H 176.401 -0.843438 1.23315 0
M  V30 1807 H 178.283 -4.00547 1.3092 0
M  V30 1808 H 176.958 -3.21014 0.41612 0
M  V30 1809 H 175.865 -2.63067 2.65982 0
M  V30 1810 H 177.198 -3.47512 3.48563 0
M  V30 1811 N 178.85 -1.27639 -0.924453 0
M  V30 1812 C 180.127 -1.04887 -1.651 0
M  V30 1813 C 180.507 0.415327 -2.06974 0
M  V30 1814 O 179.855 1.39923 -1.80648 0
M  V30 1815 C 180.065 -2.01348 -2.85061 0
M  V30 1816 C 181.413 -2.30899 -3.56329 0
M  V30 1817 O 182.437 -1.99348 -2.95193 0
M  V30 1818 O 181.296 -2.84699 -4.66485 0
M  V30 1819 H 178.39 -0.400083 -0.723784 0
M  V30 1820 H 180.936 -1.38916 -0.974703 0
M  V30 1821 H 179.708 -3.0008 -2.51133 0
M  V30 1822 H 179.331 -1.679 -3.6041 0
M  V30 1823 N 180.328 1.1314 -1.09713 0
M  V30 1824 C 181.276 2.20717 -0.733934 0
M  V30 1825 C 182.27 1.6729 0.266506 0
M  V30 1826 O 183.476 1.79547 0.127656 0
M  V30 1827 H 179.851 0.719292 -0.21937 0
M  V30 1828 H 181.822 2.48611 -1.6503 0
M  V30 1829 C 180.571 3.47265 -0.173849 0
M  V30 1830 H 179.894 3.88716 -0.934873 0
M  V30 1831 H 181.334 4.23979 0.0423126 0
M  V30 1832 C 179.793 3.18724 1.09164 0
M  V30 1833 O 180.323 3.37762 2.17439 0
M  V30 1834 N 178.529 2.72583 1.00732 0
M  V30 1835 H 178.076 2.57291 0.126121 0
M  V30 1836 H 178.034 2.53862 1.85476 0
M  V30 1837 N 181.806 0.884767 1.30421 0
M  V30 1838 C 182.739 0.295999 2.26272 0
M  V30 1839 C 183.717 -0.58332 1.51777 0
M  V30 1840 O 184.901 -0.53346 1.80794 0
M  V30 1841 C 182.028 -0.57944 3.33707 0
M  V30 1842 C 181.074 0.230525 4.25877 0
M  V30 1843 S 181.907 1.61867 5.1045 0
M  V30 1844 C 183.063 0.749756 6.21393 0
M  V30 1845 H 183.296 1.10848 2.75862 0
M  V30 1846 H 180.829 0.684178 1.38414 0
M  V30 1847 H 182.787 -1.07879 3.96071 0
M  V30 1848 H 181.448 -1.36601 2.82841 0
M  V30 1849 H 180.641 -0.437542 5.02097 0
M  V30 1850 H 180.243 0.662493 3.68086 0
M  V30 1851 H 182.535 -0.0333547 6.77492 0
M  V30 1852 H 183.478 1.48356 6.92384 0
M  V30 1853 H 183.886 0.310751 5.63644 0
M  V30 1854 N 183.284 -1.43765 0.645699 0
M  V30 1855 C 184.214 -2.33471 -0.0370477 0
M  V30 1856 C 185.195 -1.49042 -0.819779 0
M  V30 1857 O 186.38 -1.77726 -0.782758 0
M  V30 1858 C 183.51 -3.32311 -1.0093 0
M  V30 1859 C 182.464 -4.2667 -0.337201 0
M  V30 1860 C 181.79 -5.1549 -1.42037 0
M  V30 1861 C 183.09 -5.16657 0.765706 0
M  V30 1862 H 184.784 -2.90809 0.712069 0
M  V30 1863 H 182.33 -1.39834 0.343876 0
M  V30 1864 H 184.283 -3.9396 -1.49578 0
M  V30 1865 H 183.007 -2.73213 -1.78948 0
M  V30 1866 H 181.666 -3.66374 0.128771 0
M  V30 1867 H 181.314 -4.52735 -2.1918 0
M  V30 1868 H 181.014 -5.79438 -0.975966 0
M  V30 1869 H 182.538 -5.80012 -1.90838 0
M  V30 1870 H 183.952 -5.72158 0.361702 0
M  V30 1871 H 182.349 -5.89286 1.13413 0
M  V30 1872 H 183.419 -4.56796 1.62683 0
M  V30 1873 N 184.763 -0.387143 -1.52771 0
M  V30 1874 C 185.988 0.198407 -2.06449 0
M  V30 1875 C 186.413 1.39918 -1.25716 0
M  V30 1876 O 185.771 1.79099 -0.281657 0
M  V30 1877 C 185.819 0.548893 -3.56398 0
M  V30 1878 O 184.923 1.64315 -3.78252 0
M  V30 1879 H 184.264 0.0237731 -0.663574 0
M  V30 1880 H 186.794 -0.553989 -1.96957 0
M  V30 1881 H 186.804 0.813812 -3.99801 0
M  V30 1882 H 185.479 -0.329005 -4.14597 0
M  V30 1883 H 184.056 1.37211 -3.46738 0
M  V30 1884 N 186.241 1.57166 -0.116904 0
M  V30 1885 C 187.174 2.10912 0.871291 0
M  V30 1886 C 188.152 1.025 1.26224 0
M  V30 1887 O 189.336 1.3014 1.36366 0
M  V30 1888 C 186.463 2.6041 2.16574 0
M  V30 1889 C 185.509 3.80687 1.92302 0
M  V30 1890 S 186.342 5.23199 1.14119 0
M  V30 1891 C 187.498 5.76064 2.44748 0
M  V30 1892 H 187.731 2.94401 0.414138 0
M  V30 1893 H 185.264 1.54096 0.096829 0
M  V30 1894 H 187.222 2.89583 2.9095 0
M  V30 1895 H 185.883 1.77106 2.59408 0
M  V30 1896 H 185.076 4.13462 2.8821 0
M  V30 1897 H 184.678 3.5212 1.26047 0
M  V30 1898 H 186.97 5.8566 3.406 0
M  V30 1899 H 187.913 6.74184 2.16521 0
M  V30 1900 H 188.321 5.04117 2.54019 0
M  V30 1901 N 187.719 -0.156864 1.56817 0
M  V30 1902 C 188.967 -0.869404 1.82444 0
M  V30 1903 C 189.288 -1.82147 0.69623 0
M  V30 1904 O 188.558 -1.93847 -0.28287 0
M  V30 1905 H 187.138 -0.324043 0.673056 0
M  V30 1906 H 189.8 -0.153224 1.94297 0
M  V30 1907 H 188.896 -1.43761 2.77019 0
M  V30 1908 N 189.197 -1.51736 -0.425897 0
M  V30 1909 C 190.144 -1.73875 -1.51776 0
M  V30 1910 C 191.114 -0.580702 -1.55618 0
M  V30 1911 O 192.299 -0.81641 -1.72451 0
M  V30 1912 C 189.439 -1.88012 -2.89388 0
M  V30 1913 C 188.552 -3.15606 -2.94986 0
M  V30 1914 C 187.687 -3.20271 -4.23793 0
M  V30 1915 C 186.726 -4.42134 -4.23302 0
M  V30 1916 N 185.863 -4.44284 -5.43651 0
M  V30 1917 H 190.703 -2.67071 -1.32201 0
M  V30 1918 H 188.24 -1.32351 -0.642008 0
M  V30 1919 H 190.198 -1.9419 -3.69251 0
M  V30 1920 H 188.828 -0.98213 -3.07496 0
M  V30 1921 H 187.88 -3.18681 -2.07717 0
M  V30 1922 H 189.192 -4.05486 -2.90486 0
M  V30 1923 H 188.346 -3.25428 -5.12036 0
M  V30 1924 H 187.085 -2.28299 -4.30965 0
M  V30 1925 H 186.09 -4.3714 -3.3345 0
M  V30 1926 H 187.315 -5.35382 -4.17783 0
M  V30 1927 H 185.261 -3.55188 -5.51523 0
M  V30 1928 H 185.178 -5.27988 -5.41078 0
M  V30 1929 H 186.446 -4.53649 -6.33895 0
M  V30 1930 N 190.675 0.682077 -1.42076 0
M  V30 1931 C 191.622 1.79578 -1.44984 0
M  V30 1932 C 192.592 1.6332 -0.302614 0
M  V30 1933 O 193.777 1.83978 -0.505633 0
M  V30 1934 C 190.917 3.1756 -1.35091 0
M  V30 1935 C 190.03 3.45156 -2.59791 0
M  V30 1936 C 189.165 4.72826 -2.42093 0
M  V30 1937 C 188.204 4.93433 -3.62202 0
M  V30 1938 N 187.341 6.12338 -3.43491 0
M  V30 1939 H 192.181 1.76427 -2.40161 0
M  V30 1940 H 189.718 0.861376 -1.19242 0
M  V30 1941 H 191.676 3.97287 -1.27354 0
M  V30 1942 H 190.306 3.19854 -0.435133 0
M  V30 1943 H 189.358 2.59736 -2.77923 0
M  V30 1944 H 190.67 3.5628 -3.49094 0
M  V30 1945 H 189.824 5.60631 -2.319 0
M  V30 1946 H 188.563 4.63973 -1.50268 0
M  V30 1947 H 187.568 4.04073 -3.72834 0
M  V30 1948 H 188.793 5.04136 -4.54998 0
M  V30 1949 H 186.739 6.04672 -2.54377 0
M  V30 1950 H 186.656 6.2429 -4.26377 0
M  V30 1951 H 187.924 7.02841 -3.37097 0
M  V30 1952 N 192.153 1.28127 0.917671 0
M  V30 1953 C 193.086 1.06039 2.02067 0
M  V30 1954 C 194.064 -0.0223285 1.62585 0
M  V30 1955 O 195.248 0.124823 1.88086 0
M  V30 1956 C 192.375 0.610596 3.33151 0
M  V30 1957 C 191.421 1.68937 3.91615 0
M  V30 1958 S 192.254 3.28437 4.22953 0
M  V30 1959 C 193.41 2.85283 5.57103 0
M  V30 1960 H 193.643 1.99425 2.20493 0
M  V30 1961 H 191.176 1.12071 1.06205 0
M  V30 1962 H 193.134 0.357778 4.08938 0
M  V30 1963 H 191.795 -0.303364 3.12632 0
M  V30 1964 H 190.988 1.32619 4.86239 0
M  V30 1965 H 190.59 1.89478 3.2245 0
M  V30 1966 H 192.882 2.3121 6.36827 0
M  V30 1967 H 193.825 3.7869 5.98331 0
M  V30 1968 H 194.233 2.24118 5.18104 0
M  V30 1969 N 193.631 -1.12557 1.10312 0
M  V30 1970 C 194.564 -2.1737 0.694674 0
M  V30 1971 C 195.542 -1.59745 -0.303373 0
M  V30 1972 O 196.726 -1.87408 -0.202578 0
M  V30 1973 C 193.853 -3.38691 0.0248052 0
M  V30 1974 C 192.899 -4.14943 0.986121 0
M  V30 1975 S 193.732 -4.73413 2.50281 0
M  V30 1976 C 194.888 -5.9807 1.84562 0
M  V30 1977 H 195.121 -2.5168 1.58255 0
M  V30 1978 H 192.654 -1.23998 0.919992 0
M  V30 1979 H 194.612 -4.08959 -0.355361 0
M  V30 1980 H 193.273 -3.02664 -0.839851 0
M  V30 1981 H 192.466 -5.01854 0.464651 0
M  V30 1982 H 192.068 -3.50377 1.30813 0
M  V30 1983 H 194.36 -6.67232 1.17507 0
M  V30 1984 H 195.303 -6.54841 2.69423 0
M  V30 1985 H 195.711 -5.49073 1.31069 0
M  V30 1986 N 195.109 -0.891671 -1.2995 0
M  V30 1987 C 196.041 -0.320695 -2.26945 0
M  V30 1988 C 197.054 0.528497 -1.53983 0
M  V30 1989 O 198.243 0.346959 -1.75096 0
M  V30 1990 C 195.343 0.562066 -3.34207 0
M  V30 1991 C 194.516 -0.259576 -4.36629 0
M  V30 1992 C 193.575 0.554739 -5.23268 0
M  V30 1993 O 192.601 -0.0249311 -5.69195 0
M  V30 1994 N 193.803 1.8625 -5.4981 0
M  V30 1995 H 196.568 -1.15432 -2.76578 0
M  V30 1996 H 194.129 -0.755336 -1.432 0
M  V30 1997 H 196.121 1.11304 -3.89093 0
M  V30 1998 H 194.691 1.29637 -2.84452 0
M  V30 1999 H 193.911 -0.991986 -3.81514 0
M  V30 2000 H 195.199 -0.822564 -5.02107 0
M  V30 2001 H 194.597 2.35628 -5.14292 0
M  V30 2002 H 193.154 2.36078 -6.07545 0
M  V30 2003 N 196.587 1.43421 -0.653314 0
M  V30 2004 C 197.497 2.34568 0.0388565 0
M  V30 2005 C 198.513 1.53888 0.81207 0
M  V30 2006 O 199.689 1.86539 0.759294 0
M  V30 2007 C 196.754 3.32167 0.993269 0
M  V30 2008 C 195.815 4.28751 0.216977 0
M  V30 2009 C 195.048 5.21688 1.12593 0
M  V30 2010 O 195.271 5.19052 2.36519 0
M  V30 2011 O 194.205 5.98919 0.598284 0
M  V30 2012 H 198.031 2.95251 -0.711386 0
M  V30 2013 H 195.616 1.43564 -0.413502 0
M  V30 2014 H 197.498 3.92183 1.54176 0
M  V30 2015 H 196.173 2.73987 1.72374 0
M  V30 2016 H 195.08 3.72215 -0.375101 0
M  V30 2017 H 196.413 4.89913 -0.473924 0
M  V30 2018 N 198.065 0.39524 1.52563 0
M  V30 2019 C 199.028 -0.425001 2.25225 0
M  V30 2020 C 200.028 -0.985266 1.27079 0
M  V30 2021 O 201.218 -0.866332 1.5113 0
M  V30 2022 C 198.35 -1.59686 3.01186 0
M  V30 2023 H 199.543 0.211233 2.99155 0
M  V30 2024 H 197.096 0.147472 1.55603 0
M  V30 2025 H 197.831 -2.27035 2.31572 0
M  V30 2026 H 197.616 -1.20176 3.73229 0
M  V30 2027 H 199.106 -2.17743 3.5634 0
M  V30 2028 N 199.544 -1.57102 0.125237 0
M  V30 2029 C 200.477 -2.11371 -0.860094 0
M  V30 2030 C 201.455 -1.03168 -1.25679 0
M  V30 2031 O 202.639 -1.30862 -1.35674 0
M  V30 2032 C 199.766 -2.61555 -2.1519 0
M  V30 2033 C 198.812 -3.81701 -1.9028 0
M  V30 2034 S 199.645 -5.23797 -1.11343 0
M  V30 2035 C 200.801 -5.77353 -2.41689 0
M  V30 2036 H 201.034 -2.94617 -0.39852 0
M  V30 2037 H 198.567 -1.54145 -0.0886555 0
M  V30 2038 H 200.525 -2.91122 -2.89411 0
M  V30 2039 H 199.186 -1.78479 -2.58465 0
M  V30 2040 H 198.379 -4.14985 -2.86014 0
M  V30 2041 H 197.981 -3.52783 -1.24178 0
M  V30 2042 H 200.273 -5.87458 -3.37489 0
M  V30 2043 H 201.216 -6.75323 -2.12942 0
M  V30 2044 H 201.624 -5.05457 -2.51342 0
M  V30 2045 N 201.022 0.148545 -1.56898 0
M  V30 2046 C 202.247 0.880385 -1.87787 0
M  V30 2047 C 202.672 1.74018 -0.714093 0
M  V30 2048 O 202.03 1.78153 0.336343 0
M  V30 2049 C 202.078 1.71422 -3.17249 0
M  V30 2050 O 201.182 2.8183 -3.01074 0
M  V30 2051 H 200.523 0.245301 -0.617028 0
M  V30 2052 H 203.053 0.139826 -2.04122 0
M  V30 2053 H 203.063 2.10954 -3.49231 0
M  V30 2054 H 201.738 1.08284 -4.01556 0
M  V30 2055 H 200.315 2.45715 -2.80497 0
M  V30 2056 N 202.5 1.5196 0.417844 0
M  V30 2057 C 203.463 1.74065 1.49111 0
M  V30 2058 C 204.463 0.610537 1.48758 0
M  V30 2059 O 205.653 0.87832 1.50437 0
M  V30 2060 C 202.785 1.81502 2.88565 0
M  V30 2061 H 203.978 2.69869 1.30807 0
M  V30 2062 H 201.531 1.42244 0.647785 0
M  V30 2063 H 202.266 0.875813 3.1225 0
M  V30 2064 H 202.051 2.63651 2.90225 0
M  V30 2065 H 203.541 2.00376 3.66387 0
M  V30 2066 N 203.978 -0.674533 1.42435 0
M  V30 2067 C 205.225 -1.43459 1.42919 0
M  V30 2068 C 205.553 -1.94446 0.0457312 0
M  V30 2069 O 204.808 -1.7132 -0.94593 0
M  V30 2070 C 205.107 -2.64767 2.40069 0
M  V30 2071 C 204.773 -2.3232 3.86443 0
M  V30 2072 C 203.435 -2.23182 4.26314 0
M  V30 2073 C 205.787 -2.05977 4.78773 0
M  V30 2074 C 203.115 -1.85827 5.56494 0
M  V30 2075 C 205.467 -1.70125 6.09295 0
M  V30 2076 C 204.131 -1.59498 6.48164 0
M  V30 2077 H 203.401 -0.524952 0.522978 0
M  V30 2078 H 206.048 -0.769097 1.75377 0
M  V30 2079 H 204.353 -3.36349 2.00939 0
M  V30 2080 H 206.05 -3.22949 2.37707 0
M  V30 2081 H 202.64 -2.40334 3.54877 0
M  V30 2082 H 206.824 -2.11969 4.48757 0
M  V30 2083 H 202.08 -1.76168 5.8547 0
M  V30 2084 H 206.254 -1.48767 6.80324 0
M  V30 2085 H 203.881 -1.30322 7.48946 0
M  V30 2086 N 205.456 -1.28612 -0.910864 0
M  V30 2087 C 206.867 -1.14406 -1.47541 0
M  V30 2088 C 207.218 0.264901 -1.94403 0
M  V30 2089 O 206.343 1.15942 -1.82719 0
M  V30 2090 C 206.938 -2.07073 -2.68153 0
M  V30 2091 C 205.497 -1.96923 -3.20778 0
M  V30 2092 C 204.644 -1.98646 -1.93481 0
M  V30 2093 H 207.595 -1.41259 -0.723291 0
M  V30 2094 H 207.616 -1.63642 -3.43514 0
M  V30 2095 H 207.128 -3.09611 -2.34015 0
M  V30 2096 H 205.229 -0.97433 -3.59635 0
M  V30 2097 H 205.342 -2.84026 -3.85832 0
M  V30 2098 H 203.706 -1.43093 -2.10705 0
M  V30 2099 H 204.489 -3.02868 -1.61634 0
M  V30 2100 N 206.934 1.1197 -1.10907 0
M  V30 2101 C 208.182 1.83225 -0.852819 0
M  V30 2102 C 208.503 1.84769 0.623341 0
M  V30 2103 O 207.773 1.3143 1.45269 0
M  V30 2104 H 206.353 0.67849 -0.312507 0
M  V30 2105 H 209.015 1.3556 -1.40033 0
M  V30 2106 H 208.111 2.87265 -1.22005 0
M  V30 2107 N 208.412 0.89855 1.29475 0
M  V30 2108 C 209.661 0.519863 1.94885 0
M  V30 2109 C 209.974 -0.9383 1.71625 0
M  V30 2110 O 211.18 -1.42445 2.31131 0
M  V30 2111 C 209.636 0.878836 3.49005 0
M  V30 2112 C 209.244 2.35569 3.81066 0
M  V30 2113 C 210.988 0.570004 4.20656 0
M  V30 2114 C 208.895 2.65558 5.28425 0
M  V30 2115 H 207.825 0.190692 0.729488 0
M  V30 2116 H 210.476 1.09539 1.47219 0
M  V30 2117 H 208.858 0.232253 3.95318 0
M  V30 2118 H 210.032 3.04773 3.45616 0
M  V30 2119 H 208.347 2.63343 3.22552 0
M  V30 2120 H 210.944 0.770925 5.29113 0
M  V30 2121 H 211.287 -0.491404 4.1339 0
M  V30 2122 H 211.82 1.17438 3.8007 0
M  V30 2123 H 208.559 3.70493 5.40754 0
M  V30 2124 H 208.079 2.00977 5.65127 0
M  V30 2125 H 209.758 2.51765 5.96006 0
M  V30 2126 N 209.89 -1.43072 0.660911 0
M  V30 2127 C 211.167 -1.95307 0.107017 0
M  V30 2128 C 211.547 -1.60192 -1.37484 0
M  V30 2129 O 210.895 -0.890949 -2.10415 0
M  V30 2130 C 211.105 -3.47124 0.361402 0
M  V30 2131 C 212.453 -4.23738 0.270455 0
M  V30 2132 O 213.477 -3.54981 0.294382 0
M  V30 2133 O 212.336 -5.46131 0.200737 0
M  V30 2134 H 209.43 -0.826984 -0.00517729 0
M  V30 2135 H 211.976 -1.52972 0.734681 0
M  V30 2136 H 210.748 -3.65837 1.38848 0
M  V30 2137 H 210.371 -3.96475 -0.298953 0
M  V30 2138 N 211.368 -0.403325 -1.52352 0
M  V30 2139 C 212.278 0.432009 -2.30588 0
M  V30 2140 C 213.294 1.05884 -1.38075 0
M  V30 2141 O 214.47 1.06161 -1.71148 0
M  V30 2142 C 211.535 1.53669 -3.10784 0
M  V30 2143 C 210.596 0.933525 -4.19027 0
M  V30 2144 C 209.829 1.98557 -4.9539 0
M  V30 2145 O 210.052 3.20283 -4.71991 0
M  V30 2146 O 208.986 1.59504 -5.80381 0
M  V30 2147 H 212.812 -0.205739 -3.03002 0
M  V30 2148 H 210.397 -0.166675 -1.48467 0
M  V30 2149 H 212.279 2.17814 -3.60742 0
M  V30 2150 H 210.954 2.15915 -2.41169 0
M  V30 2151 H 209.861 0.254954 -3.7323 0
M  V30 2152 H 211.194 0.35508 -4.90918 0
M  V30 2153 N 212.846 1.57033 -0.133567 0
M  V30 2154 C 213.809 2.14897 0.796995 0
M  V30 2155 C 214.809 1.0874 1.18458 0
M  V30 2156 O 215.999 1.34446 1.1077 0
M  V30 2157 C 213.131 2.70112 2.07973 0
M  V30 2158 H 214.324 2.98457 0.293873 0
M  V30 2159 H 211.877 1.55871 0.115787 0
M  V30 2160 H 212.612 1.9018 2.62682 0
M  V30 2161 H 212.397 3.47764 1.81115 0
M  V30 2162 H 213.887 3.14738 2.74462 0
M  V30 2163 N 214.325 -0.140222 1.56975 0
M  V30 2164 C 215.258 -1.20266 1.93936 0
M  V30 2165 C 216.236 -1.41212 0.806099 0
M  V30 2166 O 217.42 -1.55713 1.06234 0
M  V30 2167 C 214.547 -2.56037 2.21726 0
M  V30 2168 C 213.593 -2.51646 3.44349 0
M  V30 2169 S 214.426 -1.97678 4.97678 0
M  V30 2170 C 215.582 -3.35165 5.28597 0
M  V30 2171 H 215.815 -0.887358 2.83749 0
M  V30 2172 H 213.348 -0.346119 1.50471 0
M  V30 2173 H 215.306 -3.34167 2.38416 0
M  V30 2174 H 213.967 -2.84755 1.32566 0
M  V30 2175 H 213.16 -3.51608 3.61092 0
M  V30 2176 H 212.762 -1.81628 3.26936 0
M  V30 2177 H 215.054 -4.31302 5.2248 0
M  V30 2178 H 215.997 -3.23269 6.30002 0
M  V30 2179 H 216.405 -3.32614 4.56101 0
M  V30 2180 N 215.803 -1.52179 -0.40978 0
M  V30 2181 C 217.028 -1.70347 -1.18308 0
M  V30 2182 C 217.453 -0.411887 -1.83535 0
M  V30 2183 O 216.811 0.630587 -1.6998 0
M  V30 2184 C 216.859 -2.83977 -2.22238 0
M  V30 2185 O 215.963 -2.495 -3.28365 0
M  V30 2186 H 215.304 -0.567103 -0.345384 0
M  V30 2187 H 217.834 -1.98879 -0.480445 0
M  V30 2188 H 217.844 -3.0887 -2.66577 0
M  V30 2189 H 216.519 -3.77685 -1.74146 0
M  V30 2190 H 215.096 -2.35277 -2.89308 0
M  V30 2191 N 217.281 0.66697 -1.42791 0
M  V30 2192 C 218.511 1.45294 -1.46878 0
M  V30 2193 C 218.919 1.89027 -0.0809861 0
M  V30 2194 O 218.262 1.59219 0.916246 0
M  V30 2195 C 218.324 2.72908 -2.34012 0
M  V30 2196 C 217.988 2.51203 -3.81767 0
M  V30 2197 C 218.985 2.15302 -4.73224 0
M  V30 2198 C 216.67 2.65954 -4.26115 0
M  V30 2199 C 218.664 1.94431 -6.07022 0
M  V30 2200 C 216.351 2.44699 -5.59969 0
M  V30 2201 C 217.349 2.08992 -6.5024 0
M  V30 2202 O 217.037 1.87948 -7.81621 0
M  V30 2203 H 216.769 0.453306 -0.501487 0
M  V30 2204 H 219.323 0.826232 -1.88049 0
M  V30 2205 H 217.553 3.38089 -1.87703 0
M  V30 2206 H 219.242 3.34816 -2.29462 0
M  V30 2207 H 220.008 2.03495 -4.40244 0
M  V30 2208 H 215.887 2.92724 -3.56137 0
M  V30 2209 H 219.431 1.66484 -6.77443 0
M  V30 2210 H 215.328 2.56105 -5.9252 0
M  V30 2211 H 216.096 2.02483 -7.93059 0
M  V30 2212 N 218.759 1.29093 0.90403 0
M  V30 2213 C 219.722 1.1386 1.98919 0
M  V30 2214 C 220.722 0.0753457 1.60623 0
M  V30 2215 O 221.912 0.321931 1.71199 0
M  V30 2216 C 219.044 0.740198 3.32767 0
M  V30 2217 H 220.237 2.10246 2.13861 0
M  V30 2218 H 217.79 1.12218 1.08797 0
M  V30 2219 H 218.525 -0.223997 3.23525 0
M  V30 2220 H 218.31 1.50838 3.61926 0
M  V30 2221 H 219.8 0.656546 4.12407 0
M  V30 2222 N 220.237 -1.11381 1.11499 0
M  V30 2223 C 221.147 -2.21019 0.786628 0
M  V30 2224 C 222.163 -1.72597 -0.220507 0
M  V30 2225 O 223.339 -2.01321 -0.0565251 0
M  V30 2226 C 220.404 -3.459 0.235333 0
M  V30 2227 C 219.465 -4.09107 1.30115 0
M  V30 2228 C 218.698 -5.28027 0.776068 0
M  V30 2229 O 218.921 -5.6904 -0.393661 0
M  V30 2230 O 217.855 -5.81835 1.54114 0
M  V30 2231 H 221.681 -2.51521 1.70209 0
M  V30 2232 H 219.266 -1.19928 0.890928 0
M  V30 2233 H 221.148 -4.21346 -0.067715 0
M  V30 2234 H 219.823 -3.17049 -0.652828 0
M  V30 2235 H 218.73 -3.35391 1.65722 0
M  V30 2236 H 220.063 -4.42139 2.16273 0
M  V30 2237 N 221.715 -0.905404 -1.28997 0
M  V30 2238 C 222.961 -0.535039 -1.95615 0
M  V30 2239 C 223.294 0.917404 -1.71165 0
M  V30 2240 O 222.569 1.65123 -1.02785 0
M  V30 2241 C 222.852 -0.834918 -3.50287 0
M  V30 2242 C 222.705 -2.33948 -3.84172 0
M  V30 2243 C 224.024 -0.325318 -4.38896 0
M  V30 2244 H 221.143 -0.195861 -0.710498 0
M  V30 2245 H 223.785 -1.13313 -1.52513 0
M  V30 2246 H 221.935 -0.325904 -3.87131 0
M  V30 2247 H 223.607 -2.91847 -3.57243 0
M  V30 2248 H 221.85 -2.79789 -3.31513 0
M  V30 2249 H 222.521 -2.49987 -4.92149 0
M  V30 2250 H 224.997 -0.761256 -4.09077 0
M  V30 2251 H 223.873 -0.564295 -5.45992 0
M  V30 2252 H 224.134 0.774144 -4.35269 0
M  V30 2253 N 223.193 1.4272 -0.668489 0
M  V30 2254 C 224.126 2.28111 0.0637898 0
M  V30 2255 C 225.104 1.40705 0.814912 0
M  V30 2256 O 226.288 1.70146 0.81134 0
M  V30 2257 C 223.415 3.20429 1.0974 0
M  V30 2258 C 222.461 4.24197 0.442579 0
M  V30 2259 S 223.294 5.29563 -0.795173 0
M  V30 2260 C 224.45 6.25449 0.237516 0
M  V30 2261 H 224.683 2.8987 -0.660521 0
M  V30 2262 H 222.216 1.47456 -0.457821 0
M  V30 2263 H 224.174 3.74158 1.68868 0
M  V30 2264 H 222.835 2.57818 1.79411 0
M  V30 2265 H 222.028 4.88954 1.22227 0
M  V30 2266 H 221.63 3.73925 -0.0749554 0
M  V30 2267 H 223.922 6.68524 1.09915 0
M  V30 2268 H 224.865 7.07104 -0.375421 0
M  V30 2269 H 225.273 5.61511 0.580167 0
M  V30 2270 N 224.671 0.411399 1.52136 0
M  V30 2271 C 226.087 0.0623865 1.59478 0
M  V30 2272 C 226.287 -1.42554 1.4241 0
M  V30 2273 O 225.343 -2.19263 1.2522 0
M  V30 2274 C 226.656 0.559331 2.95452 0
M  V30 2275 C 228.204 0.517503 3.08692 0
M  V30 2276 C 228.679 0.990994 4.4715 0
M  V30 2277 N 230.17 0.947908 4.53397 0
M  V30 2278 C 230.905 1.28544 5.58806 0
M  V30 2279 N 230.401 1.69454 6.71757 0
M  V30 2280 N 232.194 1.20526 5.49026 0
M  V30 2281 H 224.345 1.37982 1.61477 0
M  V30 2282 H 226.608 0.566977 0.759764 0
M  V30 2283 H 226.314 1.59938 3.1323 0
M  V30 2284 H 226.188 -0.0298014 3.77188 0
M  V30 2285 H 228.575 -0.513505 2.90598 0
M  V30 2286 H 228.656 1.14272 2.28857 0
M  V30 2287 H 228.3 2.02034 4.65988 0
M  V30 2288 H 228.23 0.34257 5.25485 0
M  V30 2289 H 230.721 0.647157 3.72317 0
M  V30 2290 H 231.034 1.93513 7.48179 0
M  V30 2291 H 229.379 1.73359 6.73032 0
M  V30 2292 H 232.57 0.884505 4.59667 0
M  V30 2293 H 232.743 1.47161 6.31069 0
M  V30 2294 N 226.149 -1.5696 0.141893 0
M  V30 2295 C 227.079 -2.19516 -0.795936 0
M  V30 2296 C 228.06 -1.14187 -1.26077 0
M  V30 2297 O 229.245 -1.42511 -1.31925 0
M  V30 2298 C 226.375 -2.81272 -2.03723 0
M  V30 2299 C 225.329 -3.92384 -1.70936 0
M  V30 2300 C 224.655 -4.41052 -3.02287 0
M  V30 2301 C 225.955 -5.13403 -0.959954 0
M  V30 2302 H 227.649 -2.98138 -0.274596 0
M  V30 2303 H 225.195 -1.43406 -0.130636 0
M  V30 2304 H 227.148 -3.237 -2.69808 0
M  V30 2305 H 225.872 -1.99973 -2.58221 0
M  V30 2306 H 224.531 -3.50566 -1.07232 0
M  V30 2307 H 224.179 -3.56582 -3.54765 0
M  V30 2308 H 223.879 -5.15993 -2.81114 0
M  V30 2309 H 225.403 -4.86146 -3.69451 0
M  V30 2310 H 226.817 -5.52706 -1.52279 0
M  V30 2311 H 225.214 -5.94073 -0.848357 0
M  V30 2312 H 226.284 -4.84875 0.0492434 0
M  V30 2313 N 227.627 0.131896 -1.57047 0
M  V30 2314 C 228.873 0.843179 -1.84441 0
M  V30 2315 C 229.206 1.80129 -0.725749 0
M  V30 2316 O 228.481 1.92624 0.269469 0
M  V30 2317 C 228.764 1.60442 -3.22382 0
M  V30 2318 C 228.617 0.666782 -4.4483 0
M  V30 2319 C 229.936 2.56354 -3.5773 0
M  V30 2320 H 227.055 0.305081 -0.670891 0
M  V30 2321 H 229.697 0.107839 -1.89694 0
M  V30 2322 H 227.847 2.23128 -3.18035 0
M  V30 2323 H 229.519 0.0497646 -4.61273 0
M  V30 2324 H 227.762 -0.022609 -4.33794 0
M  V30 2325 H 228.433 1.23579 -5.37989 0
M  V30 2326 H 230.909 2.0378 -3.62785 0
M  V30 2327 H 229.785 3.06657 -4.5525 0
M  V30 2328 H 230.046 3.38419 -2.84473 0
M  V30 2329 N 229.106 1.52395 0.401703 0
M  V30 2330 C 230.053 1.76268 1.48991 0
M  V30 2331 C 231.023 0.605386 1.54675 0
M  V30 2332 O 232.208 0.843742 1.7113 0
M  V30 2333 C 229.348 1.92592 2.86361 0
M  V30 2334 C 228.461 3.20259 2.89928 0
M  V30 2335 C 227.596 3.26972 4.18644 0
M  V30 2336 C 226.635 4.48812 4.16214 0
M  V30 2337 N 225.772 4.52877 5.36514 0
M  V30 2338 H 230.612 2.6914 1.27935 0
M  V30 2339 H 228.149 1.33355 0.620871 0
M  V30 2340 H 230.107 2.0004 3.66115 0
M  V30 2341 H 228.737 1.03093 3.05895 0
M  V30 2342 H 227.789 3.21945 2.02621 0
M  V30 2343 H 229.101 4.10056 2.83999 0
M  V30 2344 H 228.255 3.33533 5.06794 0
M  V30 2345 H 226.994 2.35126 4.27278 0
M  V30 2346 H 225.999 4.4239 3.26453 0
M  V30 2347 H 227.224 5.41961 4.09213 0
M  V30 2348 H 225.17 3.63917 5.45802 0
M  V30 2349 H 225.087 5.36529 5.32609 0
M  V30 2350 H 226.355 4.63676 6.26597 0
M  V30 2351 N 230.584 -0.659388 1.43143 0
M  V30 2352 C 231.832 -1.41654 1.44147 0
M  V30 2353 C 232.153 -1.94893 0.0645739 0
M  V30 2354 O 231.423 -1.74044 -0.899198 0
M  V30 2355 H 230.003 -0.525708 0.530697 0
M  V30 2356 H 232.665 -0.778097 1.78694 0
M  V30 2357 H 231.761 -2.26195 2.1504 0
M  V30 2358 N 232.062 -1.29571 -0.897171 0
M  V30 2359 C 232.995 -1.0924 -2.00354 0
M  V30 2360 C 233.973 -0.00354011 -1.626 0
M  V30 2361 O 235.157 -0.15473 -1.87864 0
M  V30 2362 C 232.284 -0.66352 -3.32137 0
M  V30 2363 C 231.33 -1.75146 -3.88878 0
M  V30 2364 S 232.163 -3.35124 -4.17674 0
M  V30 2365 C 233.319 -2.9411 -5.52494 0
M  V30 2366 H 233.552 -2.02907 -2.17292 0
M  V30 2367 H 231.085 -1.13746 -1.04408 0
M  V30 2368 H 233.043 -0.422791 -4.08317 0
M  V30 2369 H 231.704 0.253588 -3.13075 0
M  V30 2370 H 230.897 -1.40337 -4.84068 0
M  V30 2371 H 230.499 -1.94584 -3.19395 0
M  V30 2372 H 232.791 -2.41312 -6.33068 0
M  V30 2373 H 233.734 -3.88161 -5.9223 0
M  V30 2374 H 234.142 -2.32332 -5.14473 0
M  V30 2375 N 233.54 1.10788 -1.12088 0
M  V30 2376 C 234.488 2.19111 -0.780587 0
M  V30 2377 C 235.482 1.67818 0.230961 0
M  V30 2378 O 236.688 1.79777 0.0895427 0
M  V30 2379 H 233.063 0.714477 -0.234578 0
M  V30 2380 H 235.034 2.45055 -1.70266 0
M  V30 2381 C 233.783 3.46818 -0.24747 0
M  V30 2382 H 233.106 3.86646 -1.01712 0
M  V30 2383 H 234.546 4.23973 -0.0476291 0
M  V30 2384 C 233.005 3.20968 1.02378 0
M  V30 2385 O 233.535 3.42298 2.10226 0
M  V30 2386 N 231.741 2.74658 0.949271 0
M  V30 2387 H 231.288 2.57501 0.0715173 0
M  V30 2388 H 231.246 2.57739 1.80049 0
M  V30 2389 N 235.018 0.912232 1.28515 0
M  V30 2390 C 236.265 0.544599 1.95039 0
M  V30 2391 C 236.593 -0.911435 1.71823 0
M  V30 2392 O 235.848 -1.66317 1.03137 0
M  V30 2393 C 236.147 0.798392 3.48368 0
M  V30 2394 C 235.813 2.23374 3.91682 0
M  V30 2395 C 234.475 2.62617 4.03219 0
M  V30 2396 C 236.827 3.16786 4.13879 0
M  V30 2397 C 234.155 3.94429 4.3433 0
M  V30 2398 C 236.507 4.48161 4.46469 0
M  V30 2399 C 235.171 4.8726 4.56217 0
M  V30 2400 H 234.441 0.199283 0.7137 0
M  V30 2401 H 237.088 1.15327 1.52879 0
M  V30 2402 H 235.393 0.106908 3.91654 0
M  V30 2403 H 237.09 0.493141 3.97956 0
M  V30 2404 H 233.68 1.91922 3.83228 0
M  V30 2405 H 237.864 2.87677 4.0442 0
M  V30 2406 H 233.12 4.24426 4.40082 0
M  V30 2407 H 237.294 5.20559 4.62592 0
M  V30 2408 H 234.921 5.89431 4.80078 0
M  V30 2409 N 236.496 -1.42363 0.676048 0
M  V30 2410 C 237.721 -2.06377 0.205705 0
M  V30 2411 C 238.146 -1.50463 -1.12883 0
M  V30 2412 O 237.504 -0.623619 -1.70237 0
M  V30 2413 C 237.552 -3.60277 0.152655 0
M  V30 2414 O 236.656 -4.02935 -0.87845 0
M  V30 2415 H 235.997 -0.655588 0.105359 0
M  V30 2416 H 238.527 -1.82475 0.925412 0
M  V30 2417 H 238.537 -4.07993 -0.0230675 0
M  V30 2418 H 237.212 -4.00346 1.12675 0
M  V30 2419 H 235.789 -3.66764 -0.673668 0
M  V30 2420 N 237.974 -0.419461 -1.51915 0
M  V30 2421 C 239.22 0.153166 -2.02221 0
M  V30 2422 C 239.553 1.43907 -1.30401 0
M  V30 2423 O 238.828 1.90055 -0.413438 0
M  V30 2424 C 239.111 0.390291 -3.57979 0
M  V30 2425 C 238.964 -0.913014 -4.40436 0
M  V30 2426 C 240.283 1.16794 -4.2432 0
M  V30 2427 H 237.402 0.0541924 -0.735005 0
M  V30 2428 H 240.044 -0.554955 -1.81715 0
M  V30 2429 H 238.194 0.993491 -3.75582 0
M  V30 2430 H 239.866 -1.54882 -4.34522 0
M  V30 2431 H 238.109 -1.52168 -4.06236 0
M  V30 2432 H 238.78 -0.701361 -5.47526 0
M  V30 2433 H 241.256 0.657161 -4.10878 0
M  V30 2434 H 240.132 1.3026 -5.3322 0
M  V30 2435 H 240.393 2.19132 -3.83971 0
M  V30 2436 N 239.452 1.56882 -0.150215 0
M  V30 2437 C 240.698 1.96518 0.500834 0
M  V30 2438 C 241.031 1.03527 1.64304 0
M  V30 2439 O 240.306 0.0782751 1.94342 0
M  V30 2440 C 240.589 3.45822 1.00395 0
M  V30 2441 C 240.442 4.49591 -0.136983 0
M  V30 2442 C 241.761 3.97704 1.88467 0
M  V30 2443 H 238.88 0.714535 0.18058 0
M  V30 2444 H 241.522 1.88577 -0.232091 0
M  V30 2445 H 239.672 3.5272 1.62851 0
M  V30 2446 H 241.344 4.5477 -0.77343 0
M  V30 2447 H 239.587 4.26441 -0.795652 0
M  V30 2448 H 240.258 5.51402 0.256815 0
M  V30 2449 H 242.734 3.93304 1.35834 0
M  V30 2450 H 241.61 5.0263 2.20578 0
M  V30 2451 H 241.871 3.40252 2.82279 0
M  V30 2452 N 240.93 -0.123565 1.57115 0
M  V30 2453 C 242.176 -0.833386 1.84885 0
M  V30 2454 C 242.509 -1.79742 0.735292 0
M  V30 2455 O 241.784 -1.92764 -0.25925 0
M  V30 2456 C 242.067 -1.5873 3.23228 0
M  V30 2457 C 241.92 -0.643183 4.45178 0
M  V30 2458 C 243.239 -2.54453 3.59085 0
M  V30 2459 H 240.358 -0.301518 0.6725 0
M  V30 2460 H 243 -0.097778 1.89748 0
M  V30 2461 H 241.15 -2.21438 3.19214 0
M  V30 2462 H 242.822 -0.0253015 4.61293 0
M  V30 2463 H 241.065 0.0456139 4.33776 0
M  V30 2464 H 241.736 -1.20724 5.38637 0
M  V30 2465 H 244.212 -2.01853 3.63861 0
M  V30 2466 H 243.088 -3.04238 4.5687 0
M  V30 2467 H 243.349 -3.36906 2.86264 0
M  V30 2468 N 242.408 -1.52605 -0.393616 0
M  V30 2469 C 243.655 -1.67424 -1.1391 0
M  V30 2470 C 243.983 -0.411859 -1.90089 0
M  V30 2471 O 243.238 0.605626 -1.86093 0
M  V30 2472 C 243.537 -2.85721 -2.14705 0
M  V30 2473 C 243.203 -4.23342 -1.55218 0
M  V30 2474 C 241.865 -4.60771 -1.3872 0
M  V30 2475 C 244.217 -5.09041 -1.11924 0
M  V30 2476 C 241.545 -5.81563 -0.774689 0
M  V30 2477 C 243.897 -6.30452 -0.520853 0
M  V30 2478 C 242.561 -6.66617 -0.343134 0
M  V30 2479 H 241.831 -0.612648 -0.416826 0
M  V30 2480 H 244.478 -1.8674 -0.424315 0
M  V30 2481 H 242.783 -2.60803 -2.92385 0
M  V30 2482 H 244.48 -2.94382 -2.72288 0
M  V30 2483 H 241.07 -3.93855 -1.69045 0
M  V30 2484 H 245.254 -4.80695 -1.23473 0
M  V30 2485 H 240.51 -6.08196 -0.625154 0
M  V30 2486 H 244.684 -6.96175 -0.177065 0
M  V30 2487 H 242.311 -7.60083 0.133571 0
M  V30 2488 N 243.887 0.651787 -1.4349 0
M  V30 2489 C 245.164 1.40909 -1.35661 0
M  V30 2490 C 245.544 2.11099 -0.00511733 0
M  V30 2491 O 244.892 2.04892 1.0115 0
M  V30 2492 C 245.102 2.3926 -2.54078 0
M  V30 2493 C 246.45 3.03217 -2.97228 0
M  V30 2494 O 247.474 2.49588 -2.54135 0
M  V30 2495 O 246.333 4.00455 -3.71885 0
M  V30 2496 H 243.427 0.629625 -0.536191 0
M  V30 2497 H 245.973 0.678575 -1.55542 0
M  V30 2498 H 244.745 1.86352 -3.44076 0
M  V30 2499 H 244.368 3.1976 -2.36303 0
M  V30 2500 N 245.365 1.30045 0.890287 0
M  V30 2501 C 246.593 1.21472 1.67487 0
M  V30 2502 C 247.008 -0.223241 1.87476 0
M  V30 2503 O 246.365 -1.14828 1.41847 0
M  V30 2504 C 246.416 1.93394 3.05419 0
M  V30 2505 O 246.137 3.31576 2.86337 0
M  V30 2506 C 247.638 1.91414 3.99844 0
M  V30 2507 H 244.858 0.420604 0.522813 0
M  V30 2508 H 247.402 1.7158 1.11268 0
M  V30 2509 H 245.557 1.47099 3.58386 0
M  V30 2510 H 245.971 3.67929 3.73802 0
M  V30 2511 H 247.445 2.46285 4.94012 0
M  V30 2512 H 247.922 0.891833 4.3005 0
M  V30 2513 H 248.528 2.37496 3.52811 0
M  V30 2514 N 246.843 -1.10192 1.12674 0
M  V30 2515 C 247.806 -2.14786 0.799979 0
M  V30 2516 C 248.806 -1.59711 -0.18685 0
M  V30 2517 O 249.996 -1.74156 0.0392558 0
M  V30 2518 C 247.128 -3.40374 0.189228 0
M  V30 2519 H 248.321 -2.45203 1.72671 0
M  V30 2520 H 245.874 -1.25597 0.930326 0
M  V30 2521 H 246.609 -3.15577 -0.747107 0
M  V30 2522 H 246.394 -3.81637 0.899766 0
M  V30 2523 H 247.884 -4.17594 -0.0228143 0
M  V30 2524 N 248.321 -0.919034 -1.28029 0
M  V30 2525 C 249.732 -0.600735 -1.76771 0
M  V30 2526 C 250.083 0.884024 -1.75156 0
M  V30 2527 O 249.208 1.69163 -1.34956 0
M  V30 2528 C 249.803 -1.08372 -3.21 0
M  V30 2529 C 248.362 -0.816248 -3.67443 0
M  V30 2530 C 247.509 -1.24742 -2.47658 0
M  V30 2531 H 250.46 -1.09974 -1.14418 0
M  V30 2532 H 250.481 -0.427512 -3.78091 0
M  V30 2533 H 249.993 -2.16437 -3.22144 0
M  V30 2534 H 248.094 0.250968 -3.71754 0
M  V30 2535 H 248.207 -1.4277 -4.57333 0
M  V30 2536 H 246.571 -0.666083 -2.45836 0
M  V30 2537 H 247.354 -2.33653 -2.51518 0
M  V30 2538 N 249.799 1.42003 -0.683588 0
M  V30 2539 C 251.027 2.05746 -0.218182 0
M  V30 2540 C 251.442 1.51396 1.12804 0
M  V30 2541 O 250.799 0.657303 1.70252 0
M  V30 2542 C 250.85 3.61171 -0.154131 0
M  V30 2543 O 250.571 4.13508 -1.44716 0
M  V30 2544 C 252.072 4.42042 0.333713 0
M  V30 2545 H 249.292 0.662888 -0.10402 0
M  V30 2546 H 251.836 1.81987 -0.9328 0
M  V30 2547 H 249.991 3.84012 0.511231 0
M  V30 2548 H 250.405 5.07453 -1.32632 0
M  V30 2549 H 251.879 5.51028 0.327423 0
M  V30 2550 H 252.356 4.17269 1.37053 0
M  V30 2551 H 252.962 4.24239 -0.300222 0
M  V30 2552 N 251.277 0.427512 1.51691 0
M  V30 2553 C 252.525 -0.141948 2.01601 0
M  V30 2554 C 252.846 -1.44067 1.31414 0
M  V30 2555 O 252.116 -1.90763 0.445658 0
M  V30 2556 H 250.696 -0.0554468 0.744939 0
M  V30 2557 H 253.358 0.567968 1.86441 0
M  V30 2558 H 252.454 -0.324913 3.10404 0
M  V30 2559 N 252.755 -1.56801 0.158532 0
M  V30 2560 C 253.705 -2.13923 -0.788738 0
M  V30 2561 C 254.689 -1.07006 -1.2016 0
M  V30 2562 O 255.881 -1.33159 -1.1661 0
M  V30 2563 C 253.01 -2.77348 -2.02319 0
M  V30 2564 C 252.096 -3.91404 -1.6329 0
M  V30 2565 N 252.487 -4.9677 -0.951463 0
M  V30 2566 C 250.785 -4.02326 -1.92482 0
M  V30 2567 C 251.486 -5.76698 -0.761221 0
M  V30 2568 N 250.462 -5.27859 -1.29869 0
M  V30 2569 H 254.264 -2.92757 -0.258995 0
M  V30 2570 H 251.778 -1.62344 -0.0426055 0
M  V30 2571 H 253.775 -3.16639 -2.71192 0
M  V30 2572 H 252.435 -1.99991 -2.558 0
M  V30 2573 H 253.446 -5.14284 -0.610928 0
M  V30 2574 H 250.123 -3.36059 -2.47732 0
M  V30 2575 H 251.513 -6.71529 -0.223284 0
M  V30 2576 N 254.233 0.115231 -1.57178 0
M  V30 2577 C 255.461 0.836437 -1.89239 0
M  V30 2578 C 255.876 1.73256 -0.750175 0
M  V30 2579 O 255.233 1.80357 0.278832 0
M  V30 2580 C 255.284 1.66671 -3.20785 0
M  V30 2581 O 255.005 0.806652 -4.3061 0
M  V30 2582 C 256.506 2.49274 -3.66575 0
M  V30 2583 H 253.726 0.240253 -0.626514 0
M  V30 2584 H 256.27 0.0984932 -2.04263 0
M  V30 2585 H 254.425 2.35737 -3.0742 0
M  V30 2586 H 254.839 1.37969 -5.06028 0
M  V30 2587 H 256.313 3.03055 -4.6137 0
M  V30 2588 H 256.79 3.26807 -2.93417 0
M  V30 2589 H 257.396 1.85443 -3.82741 0
M  V30 2590 N 255.711 1.52812 0.385517 0
M  V30 2591 C 256.641 1.80808 1.47752 0
M  V30 2592 C 257.622 0.660318 1.5676 0
M  V30 2593 O 258.807 0.908246 1.71652 0
M  V30 2594 C 255.937 1.98008 2.85324 0
M  V30 2595 C 254.891 3.13709 2.91154 0
M  V30 2596 C 254.217 3.16169 4.31209 0
M  V30 2597 C 255.517 4.52709 2.60483 0
M  V30 2598 H 257.211 2.72253 1.24573 0
M  V30 2599 H 254.757 1.31003 0.597839 0
M  V30 2600 H 256.71 2.16176 3.61726 0
M  V30 2601 H 255.434 1.03255 3.09848 0
M  V30 2602 H 254.093 2.95329 2.17201 0
M  V30 2603 H 253.741 2.19092 4.52778 0
M  V30 2604 H 253.441 3.93894 4.36029 0
M  V30 2605 H 254.965 3.36496 5.09512 0
M  V30 2606 H 256.379 4.71173 3.26602 0
M  V30 2607 H 254.776 5.32528 2.76648 0
M  V30 2608 H 255.846 4.59186 1.55809 0
M  V30 2609 N 257.189 -0.644168 1.43834 0
M  V30 2610 C 258.605 -0.960875 1.27434 0
M  V30 2611 C 258.805 -2.00499 0.200618 0
M  V30 2612 O 257.861 -2.49018 -0.417906 0
M  V30 2613 C 259.174 -1.43653 2.64167 0
M  V30 2614 C 260.722 -1.55271 2.71772 0
M  V30 2615 C 261.197 -2.06224 4.08944 0
M  V30 2616 N 262.688 -2.13513 4.11055 0
M  V30 2617 C 263.423 -2.54081 5.14033 0
M  V30 2618 N 262.919 -2.9388 6.27381 0
M  V30 2619 N 264.712 -2.54101 5.01387 0
M  V30 2620 H 256.863 0.0465779 2.12349 0
M  V30 2621 H 259.126 -0.0417638 0.94708 0
M  V30 2622 H 258.832 -0.743706 3.43747 0
M  V30 2623 H 258.706 -2.40993 2.90176 0
M  V30 2624 H 261.093 -2.23653 1.92519 0
M  V30 2625 H 261.174 -0.563395 2.49519 0
M  V30 2626 H 260.818 -1.38441 4.88668 0
M  V30 2627 H 260.748 -3.06003 4.28567 0
M  V30 2628 H 263.239 -1.85493 3.29242 0
M  V30 2629 H 263.552 -3.2361 7.01781 0
M  V30 2630 H 261.897 -2.91663 6.30839 0
M  V30 2631 H 265.088 -2.22391 4.11898 0
M  V30 2632 H 265.261 -2.85394 5.81768 0
M  V30 2633 N 258.668 -1.30515 -0.883378 0
M  V30 2634 C 259.598 -1.19607 -2.00541 0
M  V30 2635 C 260.579 -0.086346 -1.69881 0
M  V30 2636 O 261.764 -0.268654 -1.92333 0
M  V30 2637 C 258.894 -0.888758 -3.35736 0
M  V30 2638 C 257.848 -1.95659 -3.8066 0
M  V30 2639 C 257.174 -1.50224 -5.13164 0
M  V30 2640 C 258.474 -3.36788 -3.99213 0
M  V30 2641 H 260.168 -2.13476 -2.09925 0
M  V30 2642 H 257.714 -1.02775 -1.00863 0
M  V30 2643 H 259.667 -0.799094 -4.13754 0
M  V30 2644 H 258.391 0.0856125 -3.26488 0
M  V30 2645 H 257.05 -2.03591 -3.04871 0
M  V30 2646 H 256.698 -0.516092 -5.00345 0
M  V30 2647 H 256.398 -2.2165 -5.44192 0
M  V30 2648 H 257.922 -1.42639 -5.93706 0
M  V30 2649 H 259.336 -3.31605 -4.67665 0
M  V30 2650 H 257.733 -4.06314 -4.41621 0
M  V30 2651 H 258.803 -3.78561 -3.03017 0
M  V30 2652 N 260.146 1.09593 -1.13257 0
M  V30 2653 C 261.076 2.18214 -0.830946 0
M  V30 2654 C 262.057 1.68812 0.208966 0
M  V30 2655 O 263.242 1.9408 0.0682666 0
M  V30 2656 C 260.372 3.46051 -0.294296 0
M  V30 2657 C 259.326 4.08778 -1.26826 0
M  V30 2658 C 258.652 5.31419 -0.591449 0
M  V30 2659 C 259.952 4.51476 -2.62615 0
M  V30 2660 H 261.646 2.43703 -1.73923 0
M  V30 2661 H 259.192 1.17128 -0.837675 0
M  V30 2662 H 261.145 4.2134 -0.0709606 0
M  V30 2663 H 259.869 3.20079 0.649366 0
M  V30 2664 H 258.528 3.35505 -1.47756 0
M  V30 2665 H 258.176 5.01727 0.357633 0
M  V30 2666 H 257.876 5.74341 -1.24123 0
M  V30 2667 H 259.4 6.09433 -0.377355 0
M  V30 2668 H 260.814 5.17999 -2.45663 0
M  V30 2669 H 259.211 5.05277 -3.23752 0
M  V30 2670 H 260.281 3.63962 -3.20406 0
M  V30 2671 N 261.624 0.925811 1.2754 0
M  V30 2672 C 262.572 0.413897 2.28888 0
M  V30 2673 C 263.566 -0.500779 1.61829 0
M  V30 2674 O 264.772 -0.38069 1.75928 0
M  V30 2675 H 261.147 0.115274 0.743112 0
M  V30 2676 H 263.118 1.28151 2.69481 0
M  V30 2677 C 261.867 -0.319792 3.46226 0
M  V30 2678 H 261.19 0.374846 3.98039 0
M  V30 2679 H 262.63 -0.642435 4.19105 0
M  V30 2680 C 261.089 -1.53209 3.00048 0
M  V30 2681 O 261.619 -2.6309 3.03557 0
M  V30 2682 N 259.825 -1.38326 2.55566 0
M  V30 2683 H 259.372 -0.489292 2.5291 0
M  V30 2684 H 259.33 -2.19564 2.25031 0
M  V30 2685 N 263.102 -1.41638 0.69111 0
M  V30 2686 C 264.349 -2.01299 0.220193 0
M  V30 2687 C 264.677 -1.54715 -1.17871 0
M  V30 2688 O 263.932 -0.747193 -1.80874 0
M  V30 2689 C 264.231 -3.56714 0.221277 0
M  V30 2690 C 263.897 -4.22792 1.56709 0
M  V30 2691 C 262.559 -4.40557 1.93554 0
M  V30 2692 C 264.911 -4.59883 2.45268 0
M  V30 2693 C 262.239 -4.92688 3.18552 0
M  V30 2694 C 264.591 -5.13403 3.69595 0
M  V30 2695 C 263.255 -5.29379 4.06589 0
M  V30 2696 H 262.525 -0.736606 0.0805743 0
M  V30 2697 H 265.172 -1.69598 0.889319 0
M  V30 2698 H 263.477 -3.8818 -0.531391 0
M  V30 2699 H 265.174 -4.00678 -0.160547 0
M  V30 2700 H 261.764 -4.09336 1.2705 0
M  V30 2701 H 265.948 -4.45817 2.18084 0
M  V30 2702 H 261.204 -5.03242 3.47214 0
M  V30 2703 H 265.378 -5.41084 4.38407 0
M  V30 2704 H 263.005 -5.69537 5.03519 0
M  V30 2705 N 264.58 -0.43555 -1.51462 0
M  V30 2706 C 265.991 0.0279871 -1.86679 0
M  V30 2707 C 266.342 1.42104 -1.35281 0
M  V30 2708 O 265.467 2.04667 -0.702878 0
M  V30 2709 C 266.062 0.0575626 -3.38751 0
M  V30 2710 C 264.621 0.465507 -3.7351 0
M  V30 2711 C 263.768 -0.342996 -2.75171 0
M  V30 2712 H 266.719 -0.651473 -1.44712 0
M  V30 2713 H 266.74 0.867421 -3.70481 0
M  V30 2714 H 266.252 -0.956448 -3.7613 0
M  V30 2715 H 264.353 1.48519 -3.41721 0
M  V30 2716 H 264.466 0.191546 -4.78717 0
M  V30 2717 H 262.83 0.198442 -2.53926 0
M  V30 2718 H 263.613 -1.35585 -3.15391 0
M  V30 2719 N 266.058 1.56714 -0.166846 0
M  V30 2720 C 267.286 2.0112 0.485644 0
M  V30 2721 C 267.701 1.04705 1.57106 0
M  V30 2722 O 267.058 0.0471923 1.82439 0
M  V30 2723 C 267.109 3.45361 1.06808 0
M  V30 2724 O 266.83 4.38092 0.0259995 0
M  V30 2725 C 268.331 4.05145 1.79924 0
M  V30 2726 H 265.551 0.65931 0.124704 0
M  V30 2727 H 268.095 2.02746 -0.267262 0
M  V30 2728 H 266.25 3.44524 1.7715 0
M  V30 2729 H 266.664 5.22519 0.455398 0
M  V30 2730 H 268.138 5.08009 2.15942 0
M  V30 2731 H 268.615 3.46982 2.69258 0
M  V30 2732 H 269.221 4.09672 1.14234 0
M  V30 2733 N 267.536 -0.106894 1.57237 0
M  V30 2734 C 268.785 -0.811163 1.8467 0
M  V30 2735 C 269.098 -1.80469 0.754342 0
M  V30 2736 O 270.304 -2.55601 0.915439 0
M  V30 2737 C 268.76 -1.49337 3.27454 0
M  V30 2738 C 268.368 -0.540217 4.44731 0
M  V30 2739 C 270.112 -2.18206 3.64124 0
M  V30 2740 C 268.019 -1.22634 5.78545 0
M  V30 2741 H 266.949 -0.306679 0.688813 0
M  V30 2742 H 269.6 -0.0639887 1.83388 0
M  V30 2743 H 267.982 -2.2876 3.23241 0
M  V30 2744 H 269.156 0.221659 4.60267 0
M  V30 2745 H 267.471 0.042146 4.16379 0
M  V30 2746 H 270.068 -2.70253 4.61376 0
M  V30 2747 H 270.411 -2.96562 2.92158 0
M  V30 2748 H 270.944 -1.45658 3.70174 0
M  V30 2749 H 267.683 -0.483832 6.53712 0
M  V30 2750 H 267.203 -1.95993 5.66874 0
M  V30 2751 H 268.882 -1.75615 6.2271 0
M  V30 2752 N 269.014 -1.53014 -0.377408 0
M  V30 2753 C 270.26 -1.68872 -1.12294 0
M  V30 2754 C 270.593 -0.433224 -1.89306 0
M  V30 2755 O 269.868 0.569258 -1.85983 0
M  V30 2756 C 270.151 -2.93115 -2.09179 0
M  V30 2757 C 270.004 -4.28794 -1.35853 0
M  V30 2758 C 271.323 -3.12928 -3.09458 0
M  V30 2759 H 268.442 -0.614518 -0.406862 0
M  V30 2760 H 271.084 -1.85633 -0.40503 0
M  V30 2761 H 269.234 -2.78956 -2.70399 0
M  V30 2762 H 270.906 -4.54742 -0.775082 0
M  V30 2763 H 269.149 -4.28744 -0.660364 0
M  V30 2764 H 269.82 -5.11837 -2.06706 0
M  V30 2765 H 272.296 -3.26194 -2.58334 0
M  V30 2766 H 271.172 -4.01316 -3.74482 0
M  V30 2767 H 271.433 -2.27669 -3.78971 0
M  V30 2768 N 270.492 0.636531 -1.44174 0
M  V30 2769 C 271.402 1.77754 -1.53103 0
M  V30 2770 C 272.418 1.68928 -0.417034 0
M  V30 2771 O 273.594 1.89801 -0.6736 0
M  V30 2772 C 270.659 3.14115 -1.46741 0
M  V30 2773 C 269.72 3.34612 -2.68948 0
M  V30 2774 C 268.953 4.64467 -2.6288 0
M  V30 2775 O 269.176 5.44919 -1.68581 0
M  V30 2776 O 268.11 4.87049 -3.53648 0
M  V30 2777 H 271.936 1.73174 -2.49489 0
M  V30 2778 H 269.521 0.79709 -1.2636 0
M  V30 2779 H 271.403 3.95412 -1.45696 0
M  V30 2780 H 270.078 3.19249 -0.534975 0
M  V30 2781 H 268.985 2.53014 -2.75562 0
M  V30 2782 H 270.318 3.34336 -3.61221 0
M  V30 2783 N 271.97 1.30982 0.876444 0
M  V30 2784 C 273.386 1.09498 1.16113 0
M  V30 2785 C 273.586 -0.13875 2.01022 0
M  V30 2786 O 272.642 -0.829935 2.38471 0
M  V30 2787 C 273.955 2.36308 1.85954 0
M  V30 2788 C 275.503 2.41856 1.98683 0
M  V30 2789 C 275.978 3.6853 2.71937 0
M  V30 2790 N 277.469 3.69387 2.79477 0
M  V30 2791 C 278.204 4.64096 3.36753 0
M  V30 2792 N 277.7 5.69155 3.95012 0
M  V30 2793 N 279.493 4.51626 3.3465 0
M  V30 2794 H 271.644 2.10118 0.310494 0
M  V30 2795 H 273.907 0.926634 0.200131 0
M  V30 2796 H 273.613 3.26388 1.31011 0
M  V30 2797 H 273.487 2.4561 2.86278 0
M  V30 2798 H 275.874 1.52249 2.52793 0
M  V30 2799 H 275.955 2.36523 0.9742 0
M  V30 2800 H 275.599 4.58499 2.18496 0
M  V30 2801 H 275.529 3.71127 3.73593 0
M  V30 2802 H 278.02 2.93438 2.38123 0
M  V30 2803 H 278.333 6.3751 4.36808 0
M  V30 2804 H 276.678 5.72937 3.93406 0
M  V30 2805 H 279.869 3.68728 2.8837 0
M  V30 2806 H 280.042 5.25614 3.7899 0
M  V30 2807 N 273.449 -1.08991 1.13837 0
M  V30 2808 C 274.697 -1.80899 0.901098 0
M  V30 2809 C 275.018 -1.86356 -0.574134 0
M  V30 2810 O 274.288 -1.35235 -1.41733 0
M  V30 2811 H 272.868 -0.669966 0.330386 0
M  V30 2812 H 275.53 -1.318 1.43578 0
M  V30 2813 H 274.626 -2.83929 1.29578 0
M  V30 2814 N 274.927 -0.932562 -1.27047 0
M  V30 2815 C 275.857 -0.452902 -2.29066 0
M  V30 2816 C 276.838 0.489338 -1.62909 0
M  V30 2817 O 278.023 0.393046 -1.90181 0
M  V30 2818 C 275.153 0.290698 -3.46081 0
M  V30 2819 C 274.107 -0.564168 -4.24265 0
M  V30 2820 C 273.433 0.308886 -5.33807 0
M  V30 2821 C 274.733 -1.83112 -4.89149 0
M  V30 2822 H 276.427 -1.30552 -2.69437 0
M  V30 2823 H 273.973 -0.629201 -1.29526 0
M  V30 2824 H 275.926 0.637233 -4.16554 0
M  V30 2825 H 274.65 1.17738 -3.0464 0
M  V30 2826 H 273.309 -0.893477 -3.55545 0
M  V30 2827 H 272.957 1.19467 -4.88607 0
M  V30 2828 H 272.657 -0.259633 -5.87026 0
M  V30 2829 H 274.181 0.650884 -6.07121 0
M  V30 2830 H 275.595 -1.55236 -5.51883 0
M  V30 2831 H 273.992 -2.34353 -5.52448 0
M  V30 2832 H 275.062 -2.54772 -4.12576 0
M  V30 2833 N 276.405 1.4127 -0.698611 0
M  V30 2834 C 277.653 2.00782 -0.230409 0
M  V30 2835 C 277.974 1.5562 1.17505 0
M  V30 2836 O 277.244 0.78815 1.79346 0
M  V30 2837 H 275.824 0.742464 -0.0821944 0
M  V30 2838 H 278.486 1.72852 -0.90045 0
M  V30 2839 H 277.582 3.11095 -0.25021 0
M  V30 2840 N 277.883 0.443576 1.51229 0
M  V30 2841 C 279.299 0.0962001 1.5931 0
M  V30 2842 C 279.499 -1.39501 1.45402 0
M  V30 2843 O 278.555 -2.16557 1.29843 0
M  V30 2844 C 279.868 0.621875 2.94199 0
M  V30 2845 C 281.416 0.582865 3.07525 0
M  V30 2846 C 281.891 1.08562 4.44948 0
M  V30 2847 N 283.382 1.04387 4.51284 0
M  V30 2848 C 284.117 1.40368 5.55954 0
M  V30 2849 N 283.613 1.83664 6.68011 0
M  V30 2850 N 285.406 1.32145 5.46346 0
M  V30 2851 H 277.557 1.41376 1.58514 0
M  V30 2852 H 279.82 0.582965 0.747567 0
M  V30 2853 H 279.526 1.66546 3.09767 0
M  V30 2854 H 279.4 0.0502125 3.77167 0
M  V30 2855 H 281.787 -0.451749 2.91622 0
M  V30 2856 H 281.868 1.191 2.26382 0
M  V30 2857 H 281.512 2.11873 4.61598 0
M  V30 2858 H 281.442 0.453956 5.2464 0
M  V30 2859 H 283.933 0.725986 3.70861 0
M  V30 2860 H 284.246 2.0934 7.43906 0
M  V30 2861 H 282.591 1.87596 6.69203 0
M  V30 2862 H 285.782 0.981808 4.57688 0
M  V30 2863 H 285.955 1.60514 6.27805 0
M  V30 2864 N 279.361 -1.56624 0.175154 0
M  V30 2865 C 280.291 -2.21155 -0.749195 0
M  V30 2866 C 281.272 -1.16836 -1.23626 0
M  V30 2867 O 282.457 -1.45277 -1.28873 0
M  V30 2868 C 279.587 -2.8553 -1.97711 0
M  V30 2869 C 278.541 -3.95921 -1.62575 0
M  V30 2870 C 277.867 -4.47365 -2.92864 0
M  V30 2871 C 279.167 -5.15323 -0.850838 0
M  V30 2872 H 280.861 -2.98653 -0.211295 0
M  V30 2873 H 278.407 -1.43651 -0.100188 0
M  V30 2874 H 280.36 -3.2935 -2.62881 0
M  V30 2875 H 279.084 -2.05406 -2.53921 0
M  V30 2876 H 277.743 -3.52762 -0.997719 0
M  V30 2877 H 277.391 -3.64027 -3.47122 0
M  V30 2878 H 277.091 -5.21839 -2.70106 0
M  V30 2879 H 278.615 -4.93873 -3.59056 0
M  V30 2880 H 280.029 -5.55812 -1.40521 0
M  V30 2881 H 278.426 -5.95739 -0.722154 0
M  V30 2882 H 279.496 -4.84661 0.152082 0
M  V30 2883 N 280.839 0.0985539 -1.57292 0
M  V30 2884 C 281.772 1.15082 -1.97057 0
M  V30 2885 C 282.75 1.39025 -0.843255 0
M  V30 2886 O 283.934 1.52842 -1.10325 0
M  V30 2887 C 281.061 2.50069 -2.28437 0
M  V30 2888 C 280.107 2.42428 -3.509 0
M  V30 2889 S 280.94 1.84414 -5.02744 0
M  V30 2890 C 282.096 3.21032 -5.37298 0
M  V30 2891 H 282.329 0.811815 -2.86002 0
M  V30 2892 H 279.862 0.306102 -1.51335 0
M  V30 2893 H 281.82 3.27729 -2.47192 0
M  V30 2894 H 280.481 2.8114 -1.40069 0
M  V30 2895 H 279.674 3.41911 -3.70288 0
M  V30 2896 H 279.276 1.72896 -3.31637 0
M  V30 2897 H 281.568 4.17297 -5.33731 0
M  V30 2898 H 282.511 3.06452 -6.38352 0
M  V30 2899 H 282.919 3.20404 -4.64759 0
M  V30 2900 N 282.317 1.53212 0.369288 0
M  V30 2901 C 283.249 1.75668 1.47219 0
M  V30 2902 C 284.262 0.637387 1.49804 0
M  V30 2903 O 285.451 0.913561 1.5335 0
M  V30 2904 C 282.551 1.81818 2.85999 0
M  V30 2905 C 281.724 3.11409 3.07153 0
M  V30 2906 C 280.783 3.08849 4.26026 0
M  V30 2907 O 279.809 3.82659 4.2138 0
M  V30 2908 N 281.011 2.29409 5.33246 0
M  V30 2909 H 283.776 2.70832 1.28337 0
M  V30 2910 H 281.337 1.51944 0.55898 0
M  V30 2911 H 283.329 1.77588 3.63655 0
M  V30 2912 H 281.899 0.939544 2.98146 0
M  V30 2913 H 281.119 3.28971 2.1719 0
M  V30 2914 H 282.407 3.97059 3.18154 0
M  V30 2915 H 281.805 1.68946 5.39883 0
M  V30 2916 H 280.362 2.31001 6.09493 0
M  V30 2917 N 283.795 -0.628877 1.44509 0
M  V30 2918 C 285.044 -1.38437 1.4669 0
M  V30 2919 C 285.357 -1.95322 0.104272 0
M  V30 2920 O 286.563 -2.715 0.00362163 0
M  V30 2921 C 285.019 -2.50659 2.5826 0
M  V30 2922 C 284.627 -2.00277 4.0074 0
M  V30 2923 C 286.371 -3.27844 2.69664 0
M  V30 2924 C 284.278 -3.09854 5.0373 0
M  V30 2925 H 283.208 -0.520245 0.545766 0
M  V30 2926 H 285.859 -0.676313 1.70582 0
M  V30 2927 H 284.241 -3.2405 2.27612 0
M  V30 2928 H 285.415 -1.33736 4.40966 0
M  V30 2929 H 283.73 -1.35901 3.93599 0
M  V30 2930 H 286.327 -4.09534 3.43781 0
M  V30 2931 H 286.67 -3.77471 1.75559 0
M  V30 2932 H 287.203 -2.61543 2.99733 0
M  V30 2933 H 283.942 -2.65168 5.99472 0
M  V30 2934 H 283.462 -3.7503 4.68095 0
M  V30 2935 H 285.141 -3.74592 5.27532 0
M  V30 2936 N 285.273 -1.31445 -0.869486 0
M  V30 2937 C 286.22 -1.19135 -1.97675 0
M  V30 2938 C 287.19 -0.0770266 -1.65921 0
M  V30 2939 O 288.375 -0.249972 -1.89155 0
M  V30 2940 C 285.515 -0.905149 -3.33018 0
M  V30 2941 C 284.628 -2.10285 -3.77365 0
M  V30 2942 C 283.763 -1.75339 -5.01427 0
M  V30 2943 C 282.802 -2.91515 -5.38224 0
M  V30 2944 N 281.939 -2.56762 -6.53466 0
M  V30 2945 H 286.779 -2.13853 -2.07535 0
M  V30 2946 H 284.316 -1.06379 -1.01597 0
M  V30 2947 H 286.274 -0.719765 -4.10944 0
M  V30 2948 H 284.904 0.00519624 -3.228 0
M  V30 2949 H 283.956 -2.39899 -2.95216 0
M  V30 2950 H 285.268 -2.97237 -4.00564 0
M  V30 2951 H 284.422 -1.53266 -5.87022 0
M  V30 2952 H 283.161 -0.855801 -4.80133 0
M  V30 2953 H 282.166 -3.14237 -4.51149 0
M  V30 2954 H 283.391 -3.81985 -5.61484 0
M  V30 2955 H 281.337 -1.69526 -6.33717 0
M  V30 2956 H 281.254 -3.37243 -6.76612 0
M  V30 2957 H 282.522 -2.38083 -7.42251 0
M  V30 2958 N 286.751 1.08385 -1.14413 0
M  V30 2959 C 287.699 2.17406 -0.826888 0
M  V30 2960 C 288.693 1.6827 0.195312 0
M  V30 2961 O 289.899 1.79927 0.0513892 0
M  V30 2962 H 286.274 0.70934 -0.249681 0
M  V30 2963 H 288.245 2.41388 -1.75426 0
M  V30 2964 C 286.994 3.46215 -0.320979 0
M  V30 2965 H 286.317 3.84401 -1.0989 0
M  V30 2966 H 287.757 4.23777 -0.137549 0
M  V30 2967 C 286.216 3.23067 0.955472 0
M  V30 2968 O 286.746 3.4668 2.02918 0
M  V30 2969 N 284.952 2.7661 0.890798 0
M  V30 2970 H 284.499 2.57594 0.0168815 0
M  V30 2971 H 284.457 2.61501 1.74542 0
M  V30 2972 N 288.23 0.939286 1.26551 0
M  V30 2973 C 289.162 0.404704 2.25599 0
M  V30 2974 C 290.175 -0.470983 1.55838 0
M  V30 2975 O 291.364 -0.281734 1.76263 0
M  V30 2976 C 288.464 -0.43764 3.36062 0
M  V30 2977 C 287.637 0.421449 4.35365 0
M  V30 2978 C 286.696 -0.36015 5.24966 0
M  V30 2979 O 285.722 0.236167 5.6871 0
M  V30 2980 N 286.924 -1.65715 5.56344 0
M  V30 2981 H 289.689 1.25618 2.72103 0
M  V30 2982 H 287.25 0.807963 1.40298 0
M  V30 2983 H 289.242 -0.967866 3.92956 0
M  V30 2984 H 287.812 -1.18991 2.89067 0
M  V30 2985 H 287.032 1.1329 3.7757 0
M  V30 2986 H 288.32 1.00835 4.98708 0
M  V30 2987 H 287.718 -2.16378 5.22682 0
M  V30 2988 H 286.275 -2.13366 6.15888 0
M  V30 2989 N 289.708 -1.40897 0.706093 0
M  V30 2990 C 290.957 -2.00284 0.238574 0
M  V30 2991 C 291.27 -1.56604 -1.17194 0
M  V30 2992 O 292.476 -2.08624 -1.73748 0
M  V30 2993 C 290.932 -3.57934 0.375623 0
M  V30 2994 C 290.54 -4.10591 1.79217 0
M  V30 2995 C 292.284 -4.24488 -0.0315857 0
M  V30 2996 C 290.191 -5.60712 1.88032 0
M  V30 2997 H 289.121 -0.749144 0.0854398 0
M  V30 2998 H 291.772 -1.61251 0.875813 0
M  V30 2999 H 290.154 -3.94622 -0.330042 0
M  V30 3000 H 291.328 -3.85301 2.52745 0
M  V30 3001 H 289.643 -3.56601 2.15 0
M  V30 3002 H 292.24 -5.34698 0.0136842 0
M  V30 3003 H 292.583 -4.02261 -1.072 0
M  V30 3004 H 293.116 -3.92873 0.624181 0
M  V30 3005 H 289.855 -5.87781 2.90161 0
M  V30 3006 H 289.375 -5.87896 1.18903 0
M  V30 3007 H 291.054 -6.25658 1.64805 0
M  V30 3008 N 291.186 -0.45159 -1.50991 0
M  V30 3009 C 292.411 0.110667 -2.07105 0
M  V30 3010 C 292.836 1.3446 -1.31538 0
M  V30 3011 O 292.194 1.77743 -0.357365 0
M  V30 3012 C 292.242 0.397238 -3.58405 0
M  V30 3013 O 291.346 1.48124 -3.84881 0
M  V30 3014 H 290.687 -0.00439271 -0.663985 0
M  V30 3015 H 293.217 -0.637026 -1.9443 0
M  V30 3016 H 293.227 0.64351 -4.02893 0
M  V30 3017 H 291.902 -0.504553 -4.12828 0
M  V30 3018 H 290.479 1.22381 -3.52246 0
M  V30 3019 N 292.664 1.56529 -0.183458 0
M  V30 3020 C 294.075 1.83739 0.331177 0
M  V30 3021 C 294.426 1.10373 1.62211 0
M  V30 3022 O 293.551 0.36071 2.13373 0
M  V30 3023 C 294.146 3.33306 0.607646 0
M  V30 3024 C 292.705 3.60969 1.06668 0
M  V30 3025 C 291.852 2.77086 0.109029 0
M  V30 3026 H 294.803 1.53379 -0.407484 0
M  V30 3027 H 294.824 3.51444 1.45832 0
M  V30 3028 H 294.336 3.86677 -0.332086 0
M  V30 3029 H 292.437 3.13021 2.0211 0
M  V30 3030 H 292.55 4.69231 0.967447 0
M  V30 3031 H 290.914 2.47319 0.608714 0
M  V30 3032 H 291.697 3.33241 -0.82494 0
M  V30 3033 N 294.142 -0.090211 1.57342 0
M  V30 3034 C 295.389 -0.792807 1.86335 0
M  V30 3035 C 295.717 -1.78494 0.772662 0
M  V30 3036 O 294.972 -1.94305 -0.233258 0
M  V30 3037 C 295.271 -1.55222 3.21933 0
M  V30 3038 C 294.937 -0.701765 4.45406 0
M  V30 3039 C 293.599 -0.467334 4.78925 0
M  V30 3040 C 295.951 -0.11086 5.21082 0
M  V30 3041 C 293.279 0.367785 5.85546 0
M  V30 3042 C 295.631 0.711609 6.28585 0
M  V30 3043 C 294.295 0.956086 6.60617 0
M  V30 3044 H 293.565 -0.290109 0.681849 0
M  V30 3045 H 296.212 -0.0541332 1.91423 0
M  V30 3046 H 294.517 -2.3626 3.12551 0
M  V30 3047 H 296.214 -2.10032 3.41595 0
M  V30 3048 H 292.804 -0.894598 4.1916 0
M  V30 3049 H 296.988 -0.279129 4.95514 0
M  V30 3050 H 292.244 0.566128 6.08773 0
M  V30 3051 H 296.418 1.17632 6.86393 0
M  V30 3052 H 294.045 1.60499 7.43064 0
M  V30 3053 N 295.62 -1.53406 -0.361157 0
M  V30 3054 C 296.869 -1.69022 -1.10066 0
M  V30 3055 C 297.182 -0.450838 -1.90333 0
M  V30 3056 O 298.388 -0.487617 -2.67085 0
M  V30 3057 C 296.844 -2.98812 -2.00598 0
M  V30 3058 C 296.452 -4.30027 -1.25621 0
M  V30 3059 C 298.196 -3.23795 -2.74513 0
M  V30 3060 C 296.103 -5.50903 -2.1508 0
M  V30 3061 H 295.033 -0.629776 -0.414606 0
M  V30 3062 H 297.684 -1.79907 -0.361348 0
M  V30 3063 H 296.066 -2.8174 -2.78278 0
M  V30 3064 H 297.24 -4.57745 -0.529739 0
M  V30 3065 H 295.555 -4.11522 -0.635496 0
M  V30 3066 H 298.152 -4.11289 -3.41681 0
M  V30 3067 H 298.495 -2.40045 -3.40123 0
M  V30 3068 H 299.028 -3.41561 -2.03914 0
M  V30 3069 H 295.767 -6.37143 -1.54041 0
M  V30 3070 H 295.287 -5.27459 -2.85565 0
M  V30 3071 H 296.966 -5.85865 -2.74538 0
M  V30 3072 N 297.098 0.621204 -1.44841 0
M  V30 3073 C 298.323 1.41244 -1.51871 0
M  V30 3074 C 298.748 1.87519 -0.147764 0
M  V30 3075 O 298.106 1.59334 0.865 0
M  V30 3076 C 298.154 2.60221 -2.49634 0
M  V30 3077 O 297.258 3.60395 -2.00473 0
M  V30 3078 H 296.599 0.42223 -0.512463 0
M  V30 3079 H 299.129 0.757305 -1.90069 0
M  V30 3080 H 299.139 3.0764 -2.67996 0
M  V30 3081 H 297.814 2.25887 -3.4921 0
M  V30 3082 H 296.391 3.19717 -1.91925 0
M  V30 3083 N 298.576 1.31904 0.862503 0
M  V30 3084 C 299.508 1.16005 1.97675 0
M  V30 3085 C 300.521 0.0971234 1.6251 0
M  V30 3086 O 301.71 0.345337 1.75128 0
M  V30 3087 C 298.81 0.751791 3.30456 0
M  V30 3088 C 297.983 1.90133 3.93914 0
M  V30 3089 C 297.042 1.4779 5.05019 0
M  V30 3090 O 296.068 2.18872 5.25437 0
M  V30 3091 N 297.27 0.369491 5.79323 0
M  V30 3092 H 300.035 2.11982 2.11857 0
M  V30 3093 H 297.596 1.24337 1.03691 0
M  V30 3094 H 299.588 0.451084 4.02178 0
M  V30 3095 H 298.158 -0.116593 3.12382 0
M  V30 3096 H 297.378 2.36896 3.15078 0
M  V30 3097 H 298.666 2.67111 4.33047 0
M  V30 3098 H 298.064 -0.222299 5.65263 0
M  V30 3099 H 296.621 0.128354 6.51674 0
M  V30 3100 N 300.054 -1.07777 1.14986 0
M  V30 3101 C 300.987 -2.14228 0.786243 0
M  V30 3102 C 301.965 -1.60888 -0.235347 0
M  V30 3103 O 303.149 -1.88099 -0.122909 0
M  V30 3104 C 300.276 -3.38281 0.168433 0
M  V30 3105 C 299.322 -4.10387 1.16123 0
M  V30 3106 S 300.155 -4.62371 2.70135 0
M  V30 3107 C 301.311 -5.89704 2.09762 0
M  V30 3108 H 301.544 -2.44741 1.68787 0
M  V30 3109 H 299.077 -1.19984 0.971756 0
M  V30 3110 H 301.035 -4.10098 -0.181588 0
M  V30 3111 H 299.696 -3.05953 -0.710725 0
M  V30 3112 H 298.889 -4.99431 0.677086 0
M  V30 3113 H 298.491 -3.44513 1.45556 0
M  V30 3114 H 300.783 -6.61648 1.45701 0
M  V30 3115 H 301.726 -6.42824 2.96955 0
M  V30 3116 H 302.134 -5.4302 1.54239 0
M  V30 3117 N 301.532 -0.945985 -1.26051 0
M  V30 3118 C 302.772 -0.603665 -1.95282 0
M  V30 3119 C 303.136 0.842377 -1.72534 0
M  V30 3120 O 304.337 1.29387 -2.35611 0
M  V30 3121 C 302.608 -0.942292 -3.44754 0
M  V30 3122 S 304.167 -0.711242 -4.32997 0
M  V30 3123 H 300.985 -0.222176 -0.675395 0
M  V30 3124 H 303.587 -1.21832 -1.52896 0
M  V30 3125 H 302.291 -1.99203 -3.58812 0
M  V30 3126 H 301.822 -0.317546 -3.92116 0
M  V30 3127 H 303.837 0.422221 -4.944 0
M  V30 3128 N 303.011 1.40521 -0.713556 0
M  V30 3129 C 303.959 2.32549 -0.0485227 0
M  V30 3130 C 304.953 1.51931 0.74922 0
M  V30 3131 O 306.159 1.67745 0.652816 0
M  V30 3132 H 302.534 0.751994 0.00311138 0
M  V30 3133 H 304.505 2.86291 -0.841443 0
M  V30 3134 C 303.254 3.36879 0.860687 0
M  V30 3135 H 302.577 3.98978 0.256246 0
M  V30 3136 H 304.017 4.03772 1.294 0
M  V30 3137 C 302.476 2.72197 1.9852 0
M  V30 3138 O 303.006 2.5837 3.07584 0
M  V30 3139 N 301.212 2.30612 1.76823 0
M  V30 3140 H 300.759 2.42059 0.881217 0
M  V30 3141 H 300.717 1.87672 2.52243 0
M  V30 3142 N 304.489 0.459591 1.5075 0
M  V30 3143 C 305.422 -0.386257 2.24907 0
M  V30 3144 C 306.4 -1.006 1.27744 0
M  V30 3145 O 307.584 -1.04416 1.56938 0
M  V30 3146 C 304.711 -1.54021 3.01654 0
M  V30 3147 C 303.757 -1.03898 4.13651 0
M  V30 3148 S 304.59 0.0370501 5.35487 0
M  V30 3149 C 305.746 -1.12105 6.15779 0
M  V30 3150 H 305.979 0.243272 2.96303 0
M  V30 3151 H 303.512 0.244339 1.52454 0
M  V30 3152 H 305.47 -2.20163 3.46466 0
M  V30 3153 H 304.131 -2.14121 2.29806 0
M  V30 3154 H 303.324 -1.90254 4.66711 0
M  V30 3155 H 302.926 -0.45545 3.71216 0
M  V30 3156 H 305.218 -2.03501 6.46215 0
M  V30 3157 H 306.161 -0.62995 7.05292 0
M  V30 3158 H 306.569 -1.36967 5.47631 0
M  V30 3159 N 305.967 -1.56429 0.191757 0
M  V30 3160 C 306.897 -2.21937 -0.725696 0
M  V30 3161 C 307.878 -1.1814 -1.2238 0
M  V30 3162 O 309.063 -1.46636 -1.27325 0
M  V30 3163 C 306.193 -2.87611 -1.94672 0
M  V30 3164 C 305.147 -3.97623 -1.58366 0
M  V30 3165 C 304.473 -4.50446 -2.88102 0
M  V30 3166 C 305.773 -5.16197 -0.796133 0
M  V30 3167 H 307.467 -2.98861 -0.179606 0
M  V30 3168 H 305.013 -1.43749 -0.0849464 0
M  V30 3169 H 306.966 -3.3212 -2.59373 0
M  V30 3170 H 305.69 -2.08087 -2.51728 0
M  V30 3171 H 304.349 -3.53801 -0.960247 0
M  V30 3172 H 303.997 -3.67688 -3.43241 0
M  V30 3173 H 303.697 -5.24675 -2.64556 0
M  V30 3174 H 305.221 -4.97654 -3.53798 0
M  V30 3175 H 306.635 -5.57271 -1.34618 0
M  V30 3176 H 305.032 -5.96471 -0.658928 0
M  V30 3177 H 306.102 -4.84473 0.203478 0
M  V30 3178 N 307.445 0.0818655 -1.57387 0
M  V30 3179 C 308.693 0.781368 -1.86384 0
M  V30 3180 C 309.014 1.78618 -0.782342 0
M  V30 3181 O 308.284 1.94976 0.190061 0
M  V30 3182 H 306.864 0.291562 -0.687751 0
M  V30 3183 H 309.526 0.060348 -1.94807 0
M  V30 3184 H 308.622 1.3038 -2.83562 0
M  V30 3185 N 308.923 1.53595 0.353017 0
M  V30 3186 C 309.853 1.83902 1.43883 0
M  V30 3187 C 310.834 0.693421 1.55324 0
M  V30 3188 O 312.019 0.944452 1.69687 0
M  V30 3189 C 309.149 2.04016 2.8106 0
M  V30 3190 C 308.103 3.19814 2.84434 0
M  V30 3191 C 307.429 3.25244 4.24406 0
M  V30 3192 C 308.729 4.58133 2.50822 0
M  V30 3193 H 310.423 2.74835 1.1877 0
M  V30 3194 H 307.969 1.32242 0.569917 0
M  V30 3195 H 309.922 2.238 3.57059 0
M  V30 3196 H 308.646 1.09804 3.07588 0
M  V30 3197 H 307.305 2.9987 2.10887 0
M  V30 3198 H 306.953 2.28646 4.48029 0
M  V30 3199 H 306.653 4.03054 4.27576 0
M  V30 3200 H 308.177 3.47228 5.0226 0
M  V30 3201 H 309.591 4.77995 3.16534 0
M  V30 3202 H 307.988 5.38276 2.6529 0
M  V30 3203 H 309.058 4.62387 1.46034 0
M  V30 3204 N 310.401 -0.613514 1.45168 0
M  V30 3205 C 311.649 -1.36997 1.48581 0
M  V30 3206 C 311.97 -1.94589 0.126545 0
M  V30 3207 O 311.24 -1.76816 -0.843372 0
M  V30 3208 H 309.82 -0.508558 0.547154 0
M  V30 3209 H 312.482 -0.720853 1.81079 0
M  V30 3210 H 311.578 -2.1924 2.22127 0
M  V30 3211 N 311.879 -1.3236 -0.855495 0
M  V30 3212 C 313.156 -1.13491 -1.59309 0
M  V30 3213 C 313.536 0.30503 -2.08885 0
M  V30 3214 O 312.884 1.30151 -1.87811 0
M  V30 3215 C 313.094 -2.16176 -2.73987 0
M  V30 3216 C 314.442 -2.49463 -3.43589 0
M  V30 3217 O 315.466 -2.14715 -2.84211 0
M  V30 3218 O 314.325 -3.09027 -4.50738 0
M  V30 3219 H 311.419 -0.437887 -0.701559 0
M  V30 3220 H 313.965 -1.43887 -0.899696 0
M  V30 3221 H 312.737 -3.1297 -2.34873 0
M  V30 3222 H 312.36 -1.86769 -3.51003 0
M  V30 3223 N 313.357 1.07166 -1.15556 0
M  V30 3224 C 314.29 2.13808 -0.797593 0
M  V30 3225 C 315.268 1.6101 0.226812 0
M  V30 3226 O 316.452 1.88161 0.112932 0
M  V30 3227 C 313.579 3.38187 -0.186371 0
M  V30 3228 C 312.625 4.09766 -1.18297 0
M  V30 3229 S 313.458 4.60932 -2.72584 0
M  V30 3230 C 314.614 5.88583 -2.12886 0
M  V30 3231 H 314.847 2.43843 -1.70083 0
M  V30 3232 H 312.38 1.19467 -0.978106 0
M  V30 3233 H 314.338 4.10189 0.159837 0
M  V30 3234 H 312.999 3.06326 0.694489 0
M  V30 3235 H 312.192 4.99065 -0.703562 0
M  V30 3236 H 311.794 3.43736 -1.47381 0
M  V30 3237 H 314.086 6.60866 -1.49208 0
M  V30 3238 H 315.029 6.41241 -3.0036 0
M  V30 3239 H 315.437 5.42194 -1.57116 0
M  V30 3240 N 314.835 0.952656 1.25548 0
M  V30 3241 C 315.783 0.462354 2.27958 0
M  V30 3242 C 316.777 -0.46634 1.62855 0
M  V30 3243 O 317.983 -0.343287 1.76696 0
M  V30 3244 H 314.358 0.13101 0.7405 0
M  V30 3245 H 316.329 1.33839 2.66702 0
M  V30 3246 C 315.078 -0.24628 3.46827 0
M  V30 3247 H 314.401 0.459192 3.97154 0
M  V30 3248 H 315.841 -0.553393 4.20373 0
M  V30 3249 C 314.3 -1.4681 3.0323 0
M  V30 3250 O 314.83 -2.56591 3.09069 0
M  V30 3251 N 313.036 -1.32874 2.58443 0
M  V30 3252 H 312.583 -0.435536 2.53891 0
M  V30 3253 H 312.541 -2.14742 2.29637 0
M  V30 3254 N 316.313 -1.40141 0.720998 0
M  V30 3255 C 317.276 -2.29058 0.0805834 0
M  V30 3256 C 318.276 -1.45632 -0.681758 0
M  V30 3257 O 319.466 -1.6648 -0.512856 0
M  V30 3258 C 316.598 -3.28925 -0.895593 0
M  V30 3259 H 317.791 -2.87191 0.863793 0
M  V30 3260 H 315.344 -1.48553 0.485975 0
M  V30 3261 H 316.079 -2.75822 -1.70566 0
M  V30 3262 H 315.864 -3.90519 -0.351766 0
M  V30 3263 H 317.354 -3.95494 -1.34069 0
M  V30 3264 N 317.792 -0.46758 -1.50504 0
M  V30 3265 C 319.069 0.15003 -1.95024 0
M  V30 3266 C 319.449 1.57304 -1.40779 0
M  V30 3267 O 318.797 2.20281 -0.607319 0
M  V30 3268 C 319.007 0.0969324 -3.48865 0
M  V30 3269 C 320.355 0.287565 -4.23625 0
M  V30 3270 O 321.379 0.173678 -3.55776 0
M  V30 3271 O 320.238 0.517186 -5.44047 0
M  V30 3272 H 317.332 0.113582 -0.819163 0
M  V30 3273 H 319.878 -0.52773 -1.61286 0
M  V30 3274 H 318.65 -0.896732 -3.80886 0
M  V30 3275 H 318.273 0.816303 -3.8913 0
M  V30 3276 N 319.27 1.56325 -0.20005 0
M  V30 3277 C 320.202 2.16555 0.750771 0
M  V30 3278 C 321.215 1.12871 1.1732 0
M  V30 3279 O 322.404 1.39943 1.10807 0
M  V30 3280 C 319.504 2.71684 2.02586 0
M  V30 3281 C 318.677 4.00321 1.76244 0
M  V30 3282 C 317.736 4.40227 2.88248 0
M  V30 3283 O 316.762 5.07552 2.57642 0
M  V30 3284 N 317.964 4.04138 4.16717 0
M  V30 3285 H 320.729 2.98772 0.235685 0
M  V30 3286 H 318.29 1.6189 -0.0182594 0
M  V30 3287 H 320.282 2.95363 2.76664 0
M  V30 3288 H 318.852 1.93893 2.45202 0
M  V30 3289 H 318.072 3.84723 0.85919 0
M  V30 3290 H 319.36 4.84279 1.56048 0
M  V30 3291 H 318.758 3.49993 4.44434 0
M  V30 3292 H 317.315 4.32756 4.87407 0
M  V30 3293 N 320.748 -0.0735177 1.57428 0
M  V30 3294 C 321.678 -1.0879 2.06608 0
M  V30 3295 C 322.659 -1.40473 0.959237 0
M  V30 3296 O 323.844 -1.5013 1.23185 0
M  V30 3297 C 320.974 -2.40183 2.50857 0
M  V30 3298 C 319.928 -2.22858 3.65402 0
M  V30 3299 C 319.254 -3.59619 3.957 0
M  V30 3300 C 320.554 -1.65123 4.95511 0
M  V30 3301 H 322.248 -0.678673 2.91607 0
M  V30 3302 H 319.794 -0.325013 1.40284 0
M  V30 3303 H 321.747 -3.11437 2.83874 0
M  V30 3304 H 320.471 -2.83083 1.62885 0
M  V30 3305 H 319.13 -1.54045 3.32664 0
M  V30 3306 H 318.778 -4.00086 3.04861 0
M  V30 3307 H 318.478 -3.48866 4.72828 0
M  V30 3308 H 320.002 -4.32306 4.31212 0
M  V30 3309 H 321.416 -2.26241 5.26771 0
M  V30 3310 H 319.813 -1.65071 5.7695 0
M  V30 3311 H 320.883 -0.612559 4.81015 0
M  V30 3312 N 322.226 -1.5378 -0.344866 0
M  V30 3313 C 323.189 -1.80981 -1.40637 0
M  V30 3314 C 324.189 -0.680816 -1.45676 0
M  V30 3315 O 325.379 -0.949095 -1.46075 0
M  V30 3316 C 322.511 -1.95063 -2.79577 0
M  V30 3317 H 323.704 -2.75803 -1.17783 0
M  V30 3318 H 321.257 -1.45173 -0.579181 0
M  V30 3319 H 321.992 -1.02379 -3.07716 0
M  V30 3320 H 321.777 -2.77198 -2.77315 0
M  V30 3321 H 323.267 -2.17629 -3.56409 0
M  V30 3322 N 323.704 0.605807 -1.45491 0
M  V30 3323 C 324.929 1.39625 -1.53361 0
M  V30 3324 C 325.354 1.87351 -0.167645 0
M  V30 3325 O 324.712 1.60243 0.848051 0
M  V30 3326 C 324.76 2.57559 -2.5238 0
M  V30 3327 O 323.864 3.58248 -2.04285 0
M  V30 3328 H 323.205 0.416771 -0.516912 0
M  V30 3329 H 325.735 0.737103 -1.90861 0
M  V30 3330 H 325.745 3.0478 -2.71244 0
M  V30 3331 H 324.42 2.22171 -3.51586 0
M  V30 3332 H 322.997 3.17664 -1.95305 0
M  V30 3333 N 325.182 1.32811 0.848464 0
M  V30 3334 C 326.129 1.22265 1.95755 0
M  V30 3335 C 327.099 0.103413 1.65778 0
M  V30 3336 O 328.284 0.280033 1.88734 0
M  V30 3337 C 325.424 0.958014 3.31536 0
M  V30 3338 C 324.537 2.16262 3.73971 0
M  V30 3339 C 323.672 1.83295 4.98575 0
M  V30 3340 C 322.711 3.00041 5.33518 0
M  V30 3341 N 321.848 2.67125 6.49299 0
M  V30 3342 H 326.688 2.17128 2.04107 0
M  V30 3343 H 324.225 1.07982 0.998913 0
M  V30 3344 H 326.183 0.785052 4.09747 0
M  V30 3345 H 324.813 0.046159 3.22767 0
M  V30 3346 H 323.865 2.44565 2.91362 0
M  V30 3347 H 325.177 3.03572 3.95785 0
M  V30 3348 H 324.331 1.62586 5.84509 0
M  V30 3349 H 323.07 0.932078 4.7871 0
M  V30 3350 H 322.075 3.21374 4.46093 0
M  V30 3351 H 323.3 3.90869 5.55336 0
M  V30 3352 H 321.246 1.79586 6.3094 0
M  V30 3353 H 321.163 3.47965 6.71161 0
M  V30 3354 H 322.431 2.49861 7.3837 0
M  V30 3355 N 326.66 -1.06551 1.16123 0
M  V30 3356 C 327.59 -2.15935 0.88851 0
M  V30 3357 C 328.571 -1.69306 -0.164135 0
M  V30 3358 O 329.756 -1.94193 -0.0167857 0
M  V30 3359 C 326.886 -3.45149 0.385942 0
M  V30 3360 C 325.84 -4.05271 1.3762 0
M  V30 3361 C 325.166 -5.29664 0.732137 0
M  V30 3362 C 326.466 -4.44355 2.74493 0
M  V30 3363 H 328.16 -2.39006 1.80323 0
M  V30 3364 H 325.706 -1.14866 0.868435 0
M  V30 3365 H 327.659 -4.21004 0.182647 0
M  V30 3366 H 326.383 -3.21689 -0.564274 0
M  V30 3367 H 325.042 -3.3147 1.56599 0
M  V30 3368 H 324.69 -5.02499 -0.224483 0
M  V30 3369 H 324.39 -5.70848 1.39307 0
M  V30 3370 H 325.914 -6.08218 0.538802 0
M  V30 3371 H 327.328 -5.11303 2.59311 0
M  V30 3372 H 325.725 -4.96515 3.37035 0
M  V30 3373 H 326.795 -3.55339 3.29943 0
M  V30 3374 N 328.138 -0.959301 -1.25041 0
M  V30 3375 C 329.048 -0.489994 -2.29426 0
M  V30 3376 C 330.064 0.444944 -1.68215 0
M  V30 3377 O 331.24 0.320046 -1.98841 0
M  V30 3378 C 328.305 0.220309 -3.45999 0
M  V30 3379 C 327.366 -0.753418 -4.22637 0
M  V30 3380 C 326.599 -0.076918 -5.33645 0
M  V30 3381 O 326.822 1.13649 -5.58963 0
M  V30 3382 O 325.756 -0.764824 -5.97021 0
M  V30 3383 H 329.582 -1.35755 -2.71669 0
M  V30 3384 H 327.167 -0.725961 -1.30576 0
M  V30 3385 H 329.049 0.619677 -4.16819 0
M  V30 3386 H 327.724 1.06296 -3.0575 0
M  V30 3387 H 326.631 -1.20308 -3.54227 0
M  V30 3388 H 327.964 -1.56423 -4.66683 0
M  V30 3389 N 329.616 1.39756 -0.72842 0
M  V30 3390 C 330.526 2.34444 -0.0855374 0
M  V30 3391 C 331.542 1.57976 0.729356 0
M  V30 3392 O 332.718 1.90301 0.659346 0
M  V30 3393 C 329.783 3.36965 0.815798 0
M  V30 3394 C 328.844 4.29299 -0.0105996 0
M  V30 3395 C 328.077 5.26923 0.84781 0
M  V30 3396 O 328.3 5.30859 2.08673 0
M  V30 3397 O 327.234 6.01249 0.279969 0
M  V30 3398 H 331.06 2.91065 -0.866892 0
M  V30 3399 H 328.645 1.4117 -0.48902 0
M  V30 3400 H 330.527 3.99804 1.33171 0
M  V30 3401 H 329.202 2.82739 1.57608 0
M  V30 3402 H 328.109 3.69703 -0.571877 0
M  V30 3403 H 329.442 4.86712 -0.73295 0
M  V30 3404 N 331.094 0.475555 1.50254 0
M  V30 3405 C 332.322 -0.0754493 2.06762 0
M  V30 3406 C 332.737 -1.33111 1.33891 0
M  V30 3407 O 332.094 -1.77846 0.40952 0
M  V30 3408 C 332.145 -0.359008 3.59713 0
M  V30 3409 O 331.866 0.846851 4.29837 0
M  V30 3410 C 333.367 -0.956484 4.32858 0
M  V30 3411 H 330.587 0.00907525 0.670939 0
M  V30 3412 H 333.131 0.665618 1.93364 0
M  V30 3413 H 331.286 -1.05001 3.72899 0
M  V30 3414 H 331.7 0.594162 5.21124 0
M  V30 3415 H 333.174 -1.10463 5.40834 0
M  V30 3416 H 333.651 -1.94775 3.93649 0
M  V30 3417 H 334.257 -0.303723 4.24214 0
M  V30 3418 N 332.573 -1.56217 0.208337 0
M  V30 3419 C 333.503 -2.22694 -0.702116 0
M  V30 3420 C 334.484 -1.19432 -1.2112 0
M  V30 3421 O 335.669 -1.47978 -1.25762 0
M  V30 3422 C 332.799 -2.8966 -1.9161 0
M  V30 3423 C 331.753 -3.9928 -1.5414 0
M  V30 3424 C 331.079 -4.53476 -2.83308 0
M  V30 3425 C 332.379 -5.17012 -0.741339 0
M  V30 3426 H 334.073 -2.99034 -0.147898 0
M  V30 3427 H 331.619 -1.43831 -0.0696951 0
M  V30 3428 H 333.572 -3.34852 -2.55836 0
M  V30 3429 H 332.296 -2.10746 -2.49507 0
M  V30 3430 H 330.955 -3.54799 -0.922668 0
M  V30 3431 H 330.603 -3.71308 -3.39322 0
M  V30 3432 H 330.303 -5.27451 -2.58976 0
M  V30 3433 H 331.827 -5.01378 -3.485 0
M  V30 3434 H 333.241 -5.58667 -1.28699 0
M  V30 3435 H 331.638 -5.97137 -0.595627 0
M  V30 3436 H 332.708 -4.8423 0.254851 0
M  V30 3437 N 334.051 0.0651679 -1.57465 0
M  V30 3438 C 335.462 0.616213 -1.76238 0
M  V30 3439 C 335.813 1.7756 -0.834689 0
M  V30 3440 O 334.938 2.1639 -0.0204156 0
M  V30 3441 C 335.533 1.12462 -3.1959 0
M  V30 3442 C 334.092 1.62147 -3.39684 0
M  V30 3443 C 333.239 0.543739 -2.71917 0
M  V30 3444 H 336.19 -0.161022 -1.57881 0
M  V30 3445 H 336.211 1.99324 -3.24114 0
M  V30 3446 H 335.723 0.280592 -3.87084 0
M  V30 3447 H 333.824 2.48854 -2.77313 0
M  V30 3448 H 333.937 1.69385 -4.48158 0
M  V30 3449 H 332.301 0.990352 -2.34657 0
M  V30 3450 H 333.084 -0.290216 -3.42071 0
M  V30 3451 N 335.529 1.53961 0.336706 0
M  V30 3452 C 336.775 1.7179 1.07777 0
M  V30 3453 C 337.108 0.483263 1.88091 0
M  V30 3454 O 336.383 -0.519747 1.87427 0
M  V30 3455 C 336.666 2.98558 2.01334 0
M  V30 3456 C 336.519 4.32245 1.24437 0
M  V30 3457 C 337.838 3.21023 3.01052 0
M  V30 3458 H 334.957 0.625089 0.390426 0
M  V30 3459 H 337.599 1.86641 0.35567 0
M  V30 3460 H 335.749 2.86028 2.62908 0
M  V30 3461 H 337.421 4.56637 0.654243 0
M  V30 3462 H 335.664 4.30344 0.546458 0
M  V30 3463 H 336.335 5.17137 1.93063 0
M  V30 3464 H 338.811 3.32929 2.49595 0
M  V30 3465 H 337.687 4.11104 3.6371 0
M  V30 3466 H 337.948 2.37637 3.72802 0
M  V30 3467 N 337.007 -0.598083 1.45811 0
M  V30 3468 C 338.256 -1.35295 1.49594 0
M  V30 3469 C 338.569 -1.95057 0.145679 0
M  V30 3470 O 339.775 -2.71431 0.0612099 0
M  V30 3471 C 338.231 -2.45124 2.63519 0
M  V30 3472 C 337.839 -1.91732 4.04899 0
M  V30 3473 C 339.583 -3.2205 2.76558 0
M  V30 3474 C 337.49 -2.991 5.1019 0
M  V30 3475 H 336.42 -0.508552 0.556679 0
M  V30 3476 H 339.071 -0.639977 1.71978 0
M  V30 3477 H 337.453 -3.19149 2.34435 0
M  V30 3478 H 338.627 -1.24352 4.43704 0
M  V30 3479 H 336.942 -1.27522 3.96393 0
M  V30 3480 H 339.539 -4.0215 3.52391 0
M  V30 3481 H 339.882 -3.73663 1.83526 0
M  V30 3482 H 340.415 -2.55127 3.05213 0
M  V30 3483 H 337.154 -2.52393 6.04961 0
M  V30 3484 H 336.674 -3.65017 4.75944 0
M  V30 3485 H 338.353 -3.63318 5.35359 0
M  V30 3486 N 338.485 -1.33259 -0.841409 0
M  V30 3487 C 339.901 -1.12538 -1.13169 0
M  V30 3488 C 340.101 0.0854037 -2.01319 0
M  V30 3489 O 339.157 0.766417 -2.40587 0
M  V30 3490 C 340.47 -2.41156 -1.79623 0
M  V30 3491 C 342.018 -2.47038 -1.922 0
M  V30 3492 C 342.493 -3.7561 -2.6207 0
M  V30 3493 N 343.984 -3.76667 -2.69585 0
M  V30 3494 C 344.719 -4.72861 -3.2433 0
M  V30 3495 N 344.215 -5.79428 -3.79783 0
M  V30 3496 N 346.008 -4.6034 -3.22558 0
M  V30 3497 H 338.159 -2.10868 -0.254676 0
M  V30 3498 H 340.422 -0.931615 -0.175493 0
M  V30 3499 H 340.128 -3.29747 -1.22311 0
M  V30 3500 H 340.002 -2.53114 -2.79666 0
M  V30 3501 H 342.389 -1.58898 -2.48667 0
M  V30 3502 H 342.47 -2.39022 -0.911148 0
M  V30 3503 H 342.114 -4.64131 -2.06263 0
M  V30 3504 H 342.044 -3.80902 -3.63622 0
M  V30 3505 H 344.535 -2.99648 -2.30259 0
M  V30 3506 H 344.848 -6.48867 -4.19752 0
M  V30 3507 H 343.193 -5.83166 -3.78078 0
M  V30 3508 H 346.384 -3.76244 -2.78492 0
M  V30 3509 H 346.557 -5.35478 -3.64921 0
M  V30 3510 N 339.963 1.05934 -1.16686 0
M  V30 3511 C 341.188 1.83029 -0.975455 0
M  V30 3512 C 341.613 1.82096 0.471452 0
M  V30 3513 O 340.971 1.22443 1.33706 0
M  V30 3514 C 341.019 3.27372 -1.51195 0
M  V30 3515 O 340.123 4.06054 -0.720701 0
M  V30 3516 H 339.464 0.566194 -0.346872 0
M  V30 3517 H 341.994 1.33541 -1.55009 0
M  V30 3518 H 342.004 3.78186 -1.53099 0
M  V30 3519 H 340.679 3.27366 -2.56523 0
M  V30 3520 H 339.256 3.64812 -0.772458 0
M  V30 3521 N 341.441 0.965919 1.2453 0
M  V30 3522 C 342.687 0.62776 1.92839 0
M  V30 3523 C 343.02 -0.834694 1.75347 0
M  V30 3524 O 342.295 -1.60031 1.10546 0
M  V30 3525 C 342.578 1.00109 3.45905 0
M  V30 3526 C 342.431 2.52011 3.72573 0
M  V30 3527 C 343.75 0.53435 4.36844 0
M  V30 3528 H 340.869 0.229537 0.700344 0
M  V30 3529 H 343.511 1.2046 1.46933 0
M  V30 3530 H 341.661 0.510238 3.85135 0
M  V30 3531 H 343.333 3.08559 3.42912 0
M  V30 3532 H 341.576 2.95287 3.17786 0
M  V30 3533 H 342.247 2.73183 4.79661 0
M  V30 3534 H 344.723 0.955565 4.04979 0
M  V30 3535 H 343.599 0.824152 5.42678 0
M  V30 3536 H 343.86 -0.565589 4.38467 0
M  V30 3537 N 342.919 -1.39368 0.735821 0
M  V30 3538 C 344.144 -2.05319 0.293052 0
M  V30 3539 C 344.569 -1.55115 -1.064 0
M  V30 3540 O 343.927 -0.695261 -1.67439 0
M  V30 3541 C 343.975 -3.59305 0.305323 0
M  V30 3542 O 343.079 -4.06299 -0.706761 0
M  V30 3543 H 342.42 -0.650529 0.13307 0
M  V30 3544 H 344.95 -1.78386 1.00197 0
M  V30 3545 H 344.96 -4.07724 0.149997 0
M  V30 3546 H 343.635 -3.95207 1.29553 0
M  V30 3547 H 342.212 -3.69292 -0.517504 0
M  V30 3548 N 344.397 -0.483516 -1.5 0
M  V30 3549 C 345.307 0.309172 -2.32554 0
M  V30 3550 C 346.323 0.984159 -1.43493 0
M  V30 3551 O 347.499 0.969399 -1.76535 0
M  V30 3552 C 344.564 1.36979 -3.18493 0
M  V30 3553 C 343.625 0.710095 -4.23387 0
M  V30 3554 C 342.858 1.72018 -5.05218 0
M  V30 3555 O 343.081 2.94813 -4.88305 0
M  V30 3556 O 342.015 1.28515 -5.8802 0
M  V30 3557 H 345.841 -0.366064 -3.01486 0
M  V30 3558 H 343.426 -0.24514 -1.47375 0
M  V30 3559 H 345.308 1.98385 -3.71781 0
M  V30 3560 H 343.983 2.02828 -2.52275 0
M  V30 3561 H 342.89 0.0567539 -3.74057 0
M  V30 3562 H 344.223 0.0943557 -4.9211 0
M  V30 3563 N 345.875 1.56104 -0.216619 0
M  V30 3564 C 346.807 2.17339 0.72776 0
M  V30 3565 C 347.82 1.14109 1.16116 0
M  V30 3566 O 349.009 1.4111 1.09317 0
M  V30 3567 C 346.109 2.73818 1.99693 0
M  V30 3568 C 345.282 4.02168 1.71988 0
M  V30 3569 C 344.341 4.43259 2.83562 0
M  V30 3570 O 343.367 5.10257 2.52244 0
M  V30 3571 N 344.569 4.08535 4.12407 0
M  V30 3572 H 347.334 2.99005 0.203983 0
M  V30 3573 H 344.895 1.61861 -0.0354289 0
M  V30 3574 H 346.887 2.9828 2.73516 0
M  V30 3575 H 345.457 1.96483 2.43132 0
M  V30 3576 H 344.677 3.85612 0.818337 0
M  V30 3577 H 345.965 4.85907 1.50903 0
M  V30 3578 H 345.363 3.54687 4.40696 0
M  V30 3579 H 343.92 4.37901 4.8279 0
M  V30 3580 N 347.353 -0.0568162 1.57498 0
M  V30 3581 C 348.6 -0.753104 1.87975 0
M  V30 3582 C 348.928 -1.76815 0.81035 0
M  V30 3583 O 348.183 -1.94756 -0.19199 0
M  V30 3584 C 348.482 -1.48359 3.25153 0
M  V30 3585 C 348.148 -0.60713 4.46794 0
M  V30 3586 C 346.81 -0.365642 4.79809 0
M  V30 3587 C 349.162 -0.000305978 5.212 0
M  V30 3588 C 346.49 0.491905 5.84634 0
M  V30 3589 C 348.842 0.844781 6.26934 0
M  V30 3590 C 347.506 1.096 6.58441 0
M  V30 3591 H 346.776 -0.27558 0.687849 0
M  V30 3592 H 349.423 -0.0135173 1.91495 0
M  V30 3593 H 347.728 -2.29577 3.17492 0
M  V30 3594 H 349.425 -2.02739 3.45974 0
M  V30 3595 H 346.015 -0.805487 4.20963 0
M  V30 3596 H 350.199 -0.173961 4.95995 0
M  V30 3597 H 345.455 0.695131 6.07436 0
M  V30 3598 H 349.629 1.32165 6.83744 0
M  V30 3599 H 347.256 1.76224 7.39492 0
M  V30 3600 N 348.832 -1.54138 -0.328536 0
M  V30 3601 C 349.779 -1.83176 -1.40411 0
M  V30 3602 C 350.749 -0.678494 -1.5161 0
M  V30 3603 O 351.934 -0.92443 -1.6691 0
M  V30 3604 C 349.074 -2.06035 -2.76846 0
M  V30 3605 C 348.187 -3.33727 -2.74318 0
M  V30 3606 C 347.322 -3.46574 -4.02567 0
M  V30 3607 C 346.361 -4.68159 -3.94327 0
M  V30 3608 N 345.498 -4.77959 -5.14296 0
M  V30 3609 H 350.338 -2.74938 -1.14948 0
M  V30 3610 H 347.875 -1.36166 -0.556538 0
M  V30 3611 H 349.833 -2.1728 -3.56153 0
M  V30 3612 H 348.463 -1.1757 -3.00628 0
M  V30 3613 H 347.515 -3.31246 -1.8703 0
M  V30 3614 H 348.827 -4.23139 -2.64111 0
M  V30 3615 H 347.981 -3.57333 -4.90304 0
M  V30 3616 H 346.72 -2.55245 -4.15574 0
M  V30 3617 H 345.725 -4.57461 -3.04974 0
M  V30 3618 H 346.95 -5.60868 -3.82889 0
M  V30 3619 H 344.896 -3.89544 -5.27818 0
M  V30 3620 H 344.813 -5.6133 -5.06404 0
M  V30 3621 H 346.081 -4.93044 -6.03761 0
M  V30 3622 N 350.31 0.590341 -1.46126 0
M  V30 3623 C 351.587 1.35029 -1.41515 0
M  V30 3624 C 351.967 2.10888 -0.0946472 0
M  V30 3625 O 351.315 2.08998 0.923693 0
M  V30 3626 C 351.525 2.28269 -2.63997 0
M  V30 3627 C 352.873 2.90338 -3.09821 0
M  V30 3628 O 353.897 2.38585 -2.64492 0
M  V30 3629 O 352.756 3.84321 -3.88535 0
M  V30 3630 H 349.85 0.606317 -0.562413 0
M  V30 3631 H 352.396 0.611994 -1.58281 0
M  V30 3632 H 351.168 1.71591 -3.51671 0
M  V30 3633 H 350.791 3.0945 -2.49652 0
M  V30 3634 N 351.788 1.33704 0.83433 0
M  V30 3635 C 353.199 1.22813 1.4062 0
M  V30 3636 C 353.55 -0.151107 1.95617 0
M  V30 3637 O 352.675 -1.05092 1.89168 0
M  V30 3638 C 353.27 2.22355 2.55624 0
M  V30 3639 C 351.829 2.1529 3.08751 0
M  V30 3640 C 350.976 2.09589 1.8157 0
M  V30 3641 H 353.927 1.45236 0.639702 0
M  V30 3642 H 353.948 1.83391 3.33389 0
M  V30 3643 H 353.46 3.22728 2.15566 0
M  V30 3644 H 351.561 1.18235 3.53343 0
M  V30 3645 H 351.674 3.06038 3.68616 0
M  V30 3646 H 350.038 1.55134 2.02004 0
M  V30 3647 H 350.821 3.11777 1.43701 0
M  V30 3648 N 353.266 -1.05314 1.17247 0
M  V30 3649 C 354.176 -2.16538 0.90268 0
M  V30 3650 C 355.192 -1.73523 -0.128707 0
M  V30 3651 O 356.368 -2.01337 0.0502701 0
M  V30 3652 C 353.433 -3.44167 0.418356 0
M  V30 3653 C 352.494 -4.01635 1.51618 0
M  V30 3654 C 351.727 -5.23171 1.05487 0
M  V30 3655 O 351.95 -5.70327 -0.0914715 0
M  V30 3656 O 350.884 -5.72848 1.8474 0
M  V30 3657 H 354.71 -2.42145 1.83302 0
M  V30 3658 H 352.295 -1.15037 0.953246 0
M  V30 3659 H 354.177 -4.21112 0.155726 0
M  V30 3660 H 352.852 -3.20063 -0.48385 0
M  V30 3661 H 351.759 -3.26135 1.83268 0
M  V30 3662 H 353.092 -4.30053 2.39405 0
M  V30 3663 N 354.744 -0.972509 -1.24016 0
M  V30 3664 C 355.676 -0.464375 -2.24446 0
M  V30 3665 C 356.689 0.4295 -1.57032 0
M  V30 3666 O 357.878 0.234902 -1.76948 0
M  V30 3667 C 354.978 0.348385 -3.37105 0
M  V30 3668 C 354.151 -0.53673 -4.34094 0
M  V30 3669 C 353.21 0.220838 -5.25736 0
M  V30 3670 O 352.236 -0.386867 -5.67884 0
M  V30 3671 N 353.438 1.50907 -5.60542 0
M  V30 3672 H 356.203 -1.32788 -2.68677 0
M  V30 3673 H 353.764 -0.844877 -1.38107 0
M  V30 3674 H 355.756 0.863341 -3.95384 0
M  V30 3675 H 354.326 1.11285 -2.92121 0
M  V30 3676 H 353.546 -1.23261 -3.74433 0
M  V30 3677 H 354.834 -1.14022 -4.95859 0
M  V30 3678 H 354.232 2.02444 -5.28236 0
M  V30 3679 H 352.789 1.96962 -6.21329 0
M  V30 3680 N 356.222 1.38976 -0.743202 0
M  V30 3681 C 357.45 2.04636 -0.30525 0
M  V30 3682 C 357.865 1.56044 1.06281 0
M  V30 3683 O 357.222 0.728921 1.67311 0
M  V30 3684 C 357.273 3.60193 -0.307177 0
M  V30 3685 O 356.994 4.06998 -1.62124 0
M  V30 3686 C 358.495 4.4306 0.145928 0
M  V30 3687 H 355.715 0.65788 -0.132041 0
M  V30 3688 H 358.259 1.77866 -1.00915 0
M  V30 3689 H 356.414 3.85835 0.347898 0
M  V30 3690 H 356.828 5.01371 -1.54036 0
M  V30 3691 H 358.302 5.51921 0.0934183 0
M  V30 3692 H 358.779 4.22706 1.19231 0
M  V30 3693 H 359.385 4.22584 -0.479886 0
M  V30 3694 N 357.7 0.491464 1.49741 0
M  V30 3695 C 358.928 -0.0535151 2.06831 0
M  V30 3696 C 359.343 -1.31683 1.35296 0
M  V30 3697 O 358.7 -1.77402 0.42836 0
M  V30 3698 C 358.751 -0.320835 3.60073 0
M  V30 3699 O 358.472 0.892394 4.28915 0
M  V30 3700 C 359.973 -0.910519 4.33848 0
M  V30 3701 H 357.193 0.0161909 0.670805 0
M  V30 3702 H 359.737 0.68609 1.92647 0
M  V30 3703 H 357.892 -1.0104 3.73991 0
M  V30 3704 H 358.306 0.649401 5.20464 0
M  V30 3705 H 359.78 -1.04721 5.41976 0
M  V30 3706 H 360.257 -1.90589 3.95692 0
M  V30 3707 H 360.863 -0.258712 4.24512 0
M  V30 3708 N 359.178 -1.55987 0.224894 0
M  V30 3709 C 360.425 -1.9839 -0.4059 0
M  V30 3710 C 360.753 -1.11261 -1.59535 0
M  V30 3711 O 360.008 -0.158314 -1.95059 0
M  V30 3712 C 360.307 -3.46394 -0.880106 0
M  V30 3713 C 359.973 -4.5046 0.19918 0
M  V30 3714 C 358.635 -4.7864 0.495661 0
M  V30 3715 C 360.987 -5.12855 0.928939 0
M  V30 3716 C 358.315 -5.66497 1.52636 0
M  V30 3717 C 360.667 -6.01828 1.949 0
M  V30 3718 C 359.331 -6.28351 2.25236 0
M  V30 3719 H 358.601 -0.725961 -0.148529 0
M  V30 3720 H 361.248 -1.88668 0.328113 0
M  V30 3721 H 359.553 -3.53337 -1.69294 0
M  V30 3722 H 361.25 -3.76577 -1.37808 0
M  V30 3723 H 357.84 -4.28579 -0.0420526 0
M  V30 3724 H 362.024 -4.9115 0.713129 0
M  V30 3725 H 357.28 -5.8531 1.76698 0
M  V30 3726 H 361.454 -6.49225 2.51951 0
M  V30 3727 H 359.081 -6.96226 3.05244 0
M  V30 3728 N 360.656 0.0484629 -1.57525 0
M  V30 3729 C 361.905 0.742065 -1.87553 0
M  V30 3730 C 362.218 1.77545 -0.820802 0
M  V30 3731 O 363.424 2.52027 -1.00967 0
M  V30 3732 C 361.88 1.37081 -3.32771 0
M  V30 3733 C 361.488 0.374786 -4.4643 0
M  V30 3734 C 363.232 2.04542 -3.71972 0
M  V30 3735 C 361.139 1.01077 -5.82698 0
M  V30 3736 H 360.069 0.280903 -0.699721 0
M  V30 3737 H 362.72 -0.00411877 -1.835 0
M  V30 3738 H 361.102 2.16605 -3.31509 0
M  V30 3739 H 362.276 -0.392331 -4.59127 0
M  V30 3740 H 360.591 -0.196653 -4.15935 0
M  V30 3741 H 363.188 2.52943 -4.71088 0
M  V30 3742 H 363.531 2.85515 -3.02964 0
M  V30 3743 H 364.064 1.31819 -3.75325 0
M  V30 3744 H 360.803 0.240878 -6.55057 0
M  V30 3745 H 360.323 1.74819 -5.73758 0
M  V30 3746 H 362.002 1.52383 -6.28799 0
M  V30 3747 N 362.134 1.5431 0.320358 0
M  V30 3748 C 363.374 1.74395 1.0661 0
M  V30 3749 C 363.738 0.508602 1.85141 0
M  V30 3750 O 364.939 0.586856 2.62316 0
M  V30 3751 C 363.21 2.98619 1.96371 0
M  V30 3752 S 364.769 3.39621 2.77854 0
M  V30 3753 H 361.587 0.613204 0.359863 0
M  V30 3754 H 364.189 1.9249 0.341727 0
M  V30 3755 H 362.893 3.86673 1.3752 0
M  V30 3756 H 362.424 2.83055 2.73209 0
M  V30 3757 H 364.439 2.95172 3.98858 0
M  V30 3758 N 363.613 -0.582584 1.46437 0
M  V30 3759 C 364.859 -1.34278 1.51978 0
M  V30 3760 C 365.192 -1.93446 0.170973 0
M  V30 3761 O 364.467 -1.76481 -0.817608 0
M  V30 3762 C 364.75 -2.47203 2.61845 0
M  V30 3763 C 364.603 -1.93069 4.06257 0
M  V30 3764 C 365.922 -3.49247 2.67795 0
M  V30 3765 H 363.041 -0.486876 0.553282 0
M  V30 3766 H 365.683 -0.654437 1.78374 0
M  V30 3767 H 363.833 -3.0592 2.39469 0
M  V30 3768 H 365.505 -1.38808 4.3992 0
M  V30 3769 H 363.748 -1.23898 4.1573 0
M  V30 3770 H 364.419 -2.74586 4.7886 0
M  V30 3771 H 366.895 -3.00411 2.8791 0
M  V30 3772 H 365.771 -4.25719 3.46489 0
M  V30 3773 H 366.032 -4.06482 1.73852 0
M  V30 3774 N 365.091 -1.34144 -0.827227 0
M  V30 3775 C 366.331 -1.27603 -1.59677 0
M  V30 3776 C 366.695 0.153035 -1.91389 0
M  V30 3777 O 367.896 0.342566 -2.66608 0
M  V30 3778 C 366.167 -2.13784 -2.86411 0
M  V30 3779 S 367.726 -2.24552 -3.76991 0
M  V30 3780 H 364.544 -0.453789 -0.547354 0
M  V30 3781 H 367.146 -1.69309 -0.977479 0
M  V30 3782 H 365.85 -3.16627 -2.61104 0
M  V30 3783 H 365.381 -1.72959 -3.5334 0
M  V30 3784 H 367.396 -1.41514 -4.75593 0
M  V30 3785 N 366.569 1.04691 -1.17803 0
M  V30 3786 C 367.818 1.77176 -0.963931 0
M  V30 3787 C 368.131 1.88888 0.508015 0
M  V30 3788 O 369.337 2.58164 0.840465 0
M  V30 3789 C 367.793 3.18518 -1.67555 0
M  V30 3790 C 367.401 3.14919 -3.18637 0
M  V30 3791 C 369.145 3.95424 -1.54402 0
M  V30 3792 C 367.052 4.51081 -3.82466 0
M  V30 3793 H 365.982 0.664116 -0.357023 0
M  V30 3794 H 368.633 1.17303 -1.4111 0
M  V30 3795 H 367.015 3.78748 -1.15613 0
M  V30 3796 H 368.189 2.64178 -3.77554 0
M  V30 3797 H 366.504 2.51512 -3.31859 0
M  V30 3798 H 369.101 4.96106 -1.99456 0
M  V30 3799 H 369.444 4.13343 -0.495329 0
M  V30 3800 H 369.977 3.41754 -2.0359 0
M  V30 3801 H 366.716 4.38368 -4.87354 0
M  V30 3802 H 366.236 5.01951 -3.28337 0
M  V30 3803 H 367.915 5.2001 -3.84965 0
M  V30 3804 N 368.047 0.979072 1.23499 0
M  V30 3805 C 369.01 0.523244 2.23147 0
M  V30 3806 C 370.01 -0.386406 1.56088 0
M  V30 3807 O 371.2 -0.180283 1.73265 0
M  V30 3808 C 368.332 -0.240739 3.40049 0
M  V30 3809 H 369.525 1.40432 2.64989 0
M  V30 3810 H 367.078 0.764824 1.36309 0
M  V30 3811 H 367.813 -1.13841 3.03662 0
M  V30 3812 H 367.598 0.412207 3.89927 0
M  V30 3813 H 369.088 -0.548297 4.13985 0
M  V30 3814 N 369.525 -1.3858 0.750561 0
M  V30 3815 C 370.435 -2.34278 0.122825 0
M  V30 3816 C 371.451 -1.59116 -0.704131 0
M  V30 3817 O 372.627 -1.91326 -0.628987 0
M  V30 3818 C 369.692 -3.38221 -0.762086 0
M  V30 3819 C 368.753 -4.29227 0.078896 0
M  V30 3820 C 367.986 -5.28205 -0.763874 0
M  V30 3821 O 368.209 -5.34112 -2.00201 0
M  V30 3822 O 367.143 -6.01618 -0.18428 0
M  V30 3823 H 370.969 -2.89649 0.913088 0
M  V30 3824 H 368.554 -1.40374 0.511417 0
M  V30 3825 H 370.436 -4.01872 -1.26793 0
M  V30 3826 H 369.111 -2.85211 -1.5309 0
M  V30 3827 H 368.018 -3.68747 0.630621 0
M  V30 3828 H 369.351 -4.85484 0.810289 0
M  V30 3829 N 371.003 -0.499398 -1.49478 0
M  V30 3830 C 372.25 0.0456899 -2.02448 0
M  V30 3831 C 372.578 1.37142 -1.37921 0
M  V30 3832 O 371.833 1.89111 -0.503544 0
M  V30 3833 C 372.132 0.248424 -3.56536 0
M  V30 3834 C 371.798 -0.999107 -4.39692 0
M  V30 3835 C 370.46 -1.34108 -4.62135 0
M  V30 3836 C 372.812 -1.82842 -4.88076 0
M  V30 3837 C 370.14 -2.51191 -5.30208 0
M  V30 3838 C 372.492 -2.99076 -5.57437 0
M  V30 3839 C 371.156 -3.33655 -5.78127 0
M  V30 3840 H 370.426 0.0167191 -0.740811 0
M  V30 3841 H 373.073 -0.65923 -1.79795 0
M  V30 3842 H 371.378 1.03586 -3.77859 0
M  V30 3843 H 373.075 0.684605 -3.95113 0
M  V30 3844 H 369.665 -0.722729 -4.22463 0
M  V30 3845 H 373.849 -1.57737 -4.70566 0
M  V30 3846 H 369.105 -2.78221 -5.44429 0
M  V30 3847 H 373.279 -3.63664 -5.93904 0
M  V30 3848 H 370.906 -4.24483 -6.30649 0
M  V30 3849 N 372.481 1.55866 -0.233164 0
M  V30 3850 C 373.411 2.23783 0.666599 0
M  V30 3851 C 374.392 1.21343 1.19205 0
M  V30 3852 O 375.577 1.4996 1.23392 0
M  V30 3853 C 372.707 2.92671 1.86978 0
M  V30 3854 C 371.661 4.01682 1.47768 0
M  V30 3855 C 370.987 4.57926 2.76058 0
M  V30 3856 C 372.287 5.18126 0.658993 0
M  V30 3857 H 373.981 2.99232 0.100306 0
M  V30 3858 H 371.527 1.43924 0.046804 0
M  V30 3859 H 373.48 3.3888 2.50476 0
M  V30 3860 H 372.204 2.14688 2.46123 0
M  V30 3861 H 370.863 3.56222 0.866106 0
M  V30 3862 H 370.511 3.76659 3.33372 0
M  V30 3863 H 370.211 5.31505 2.50552 0
M  V30 3864 H 371.735 5.06859 3.40479 0
M  V30 3865 H 373.149 5.60644 1.19795 0
M  V30 3866 H 371.546 5.98009 0.500552 0
M  V30 3867 H 372.616 4.83763 -0.331856 0
M  V30 3868 N 373.959 -0.0401083 1.57549 0
M  V30 3869 C 375.184 -0.748931 1.93406 0
M  V30 3870 C 375.609 -1.68686 0.832274 0
M  V30 3871 O 374.967 -1.80047 -0.212818 0
M  V30 3872 C 375.015 -1.4916 3.28304 0
M  V30 3873 O 374.119 -2.6042 3.19774 0
M  V30 3874 H 373.46 -0.202212 0.63246 0
M  V30 3875 H 375.99 0.00112086 2.046 0
M  V30 3876 H 376 -1.86395 3.62934 0
M  V30 3877 H 374.675 -0.80364 4.08062 0
M  V30 3878 H 373.252 -2.25808 2.96758 0
M  V30 3879 N 375.437 -1.54477 -0.31217 0
M  V30 3880 C 376.367 -1.87652 -1.38957 0
M  V30 3881 C 377.348 -0.734358 -1.53431 0
M  V30 3882 O 378.533 -0.98911 -1.67123 0
M  V30 3883 C 375.663 -2.11396 -2.75552 0
M  V30 3884 C 374.617 -3.27243 -2.75855 0
M  V30 3885 C 373.943 -3.36382 -4.15633 0
M  V30 3886 C 375.243 -4.64622 -2.38587 0
M  V30 3887 H 376.937 -2.77887 -1.11442 0
M  V30 3888 H 374.483 -1.33707 -0.534655 0
M  V30 3889 H 376.436 -2.33189 -3.51 0
M  V30 3890 H 375.16 -1.17921 -3.04569 0
M  V30 3891 H 373.819 -3.05356 -2.02863 0
M  V30 3892 H 373.467 -2.40445 -4.41809 0
M  V30 3893 H 373.167 -4.14249 -4.1674 0
M  V30 3894 H 374.691 -3.60422 -4.92877 0
M  V30 3895 H 376.105 -4.86219 -3.03749 0
M  V30 3896 H 374.502 -5.45121 -2.50925 0
M  V30 3897 H 375.572 -4.66097 -1.33723 0
M  V30 3898 N 376.915 0.57481 -1.46744 0
M  V30 3899 C 378.145 1.35659 -1.55821 0
M  V30 3900 C 378.553 1.88129 -0.201036 0
M  V30 3901 O 377.896 1.64723 0.813134 0
M  V30 3902 C 377.958 2.57473 -2.50894 0
M  V30 3903 C 377.622 2.26415 -3.9697 0
M  V30 3904 C 378.619 1.84771 -4.85958 0
M  V30 3905 C 376.304 2.38316 -4.42166 0
M  V30 3906 C 378.298 1.55434 -6.18158 0
M  V30 3907 C 375.985 2.08591 -5.74398 0
M  V30 3908 C 376.983 1.67216 -6.62214 0
M  V30 3909 O 376.671 1.37859 -7.91991 0
M  V30 3910 H 376.403 0.420496 -0.529301 0
M  V30 3911 H 378.957 0.704967 -1.92923 0
M  V30 3912 H 377.187 3.25468 -2.08824 0
M  V30 3913 H 378.876 3.19546 -2.50291 0
M  V30 3914 H 379.642 1.75085 -4.52295 0
M  V30 3915 H 375.521 2.69483 -3.74032 0
M  V30 3916 H 379.065 1.23065 -6.86659 0
M  V30 3917 H 374.962 2.17905 -6.07608 0
M  V30 3918 H 375.73 1.51638 -8.04331 0
M  V30 3919 N 378.394 1.34581 0.820102 0
M  V30 3920 C 379.304 1.28471 1.96297 0
M  V30 3921 C 380.32 0.191902 1.72939 0
M  V30 3922 O 381.496 0.418879 1.96996 0
M  V30 3923 C 378.561 1.04281 3.30645 0
M  V30 3924 C 377.622 2.22745 3.66992 0
M  V30 3925 C 376.855 1.997 4.9493 0
M  V30 3926 O 377.078 0.956656 5.6232 0
M  V30 3927 O 376.012 2.86723 5.2922 0
M  V30 3928 H 379.838 2.24624 2.04396 0
M  V30 3929 H 377.423 1.14816 0.955913 0
M  V30 3930 H 379.305 0.925841 4.11104 0
M  V30 3931 H 377.98 0.111697 3.23507 0
M  V30 3932 H 376.887 2.40003 2.86966 0
M  V30 3933 H 378.22 3.14257 3.78819 0
M  V30 3934 N 379.872 -1.04064 1.18357 0
M  V30 3935 C 381.1 -1.80916 1.00384 0
M  V30 3936 C 381.515 -1.83414 -0.447738 0
M  V30 3937 O 380.872 -1.26962 -1.31099 0
M  V30 3938 C 380.923 -3.26516 1.55144 0
M  V30 3939 O 380.644 -3.2424 2.94618 0
M  V30 3940 C 382.145 -4.20013 1.41789 0
M  V30 3941 H 379.365 -0.569728 0.354474 0
M  V30 3942 H 381.909 -1.31151 1.56906 0
M  V30 3943 H 380.064 -3.73512 1.02798 0
M  V30 3944 H 380.478 -4.15452 3.20156 0
M  V30 3945 H 381.952 -5.20111 1.84901 0
M  V30 3946 H 382.429 -4.37667 0.36661 0
M  V30 3947 H 383.035 -3.78881 1.93207 0
M  V30 3948 N 381.35 -0.985608 -1.22978 0
M  V30 3949 C 382.26 -0.538548 -2.28335 0
M  V30 3950 C 383.276 0.409163 -1.69121 0
M  V30 3951 O 384.452 0.277797 -1.99475 0
M  V30 3952 C 381.517 0.146867 -3.46389 0
M  V30 3953 C 380.578 -0.842896 -4.20944 0
M  V30 3954 C 379.811 -0.190095 -5.33361 0
M  V30 3955 O 380.034 1.01767 -5.61248 0
M  V30 3956 O 378.968 -0.891289 -5.95264 0
M  V30 3957 H 382.794 -1.41487 -2.68729 0
M  V30 3958 H 380.379 -0.753495 -1.29007 0
M  V30 3959 H 382.261 0.531125 -4.1804 0
M  V30 3960 H 380.936 0.997871 -3.07935 0
M  V30 3961 H 379.843 -1.27795 -3.51595 0
M  V30 3962 H 381.176 -1.66287 -4.6326 0
M  V30 3963 N 382.828 1.3818 -0.7579 0
M  V30 3964 C 384.244 1.5353 -0.435972 0
M  V30 3965 C 384.444 1.71961 1.05032 0
M  V30 3966 O 383.5 1.73307 1.83633 0
M  V30 3967 C 384.813 2.73989 -1.23898 0
M  V30 3968 C 386.361 2.87841 -1.22949 0
M  V30 3969 C 386.836 4.11266 -2.01554 0
M  V30 3970 N 388.327 4.18352 -1.98837 0
M  V30 3971 C 389.062 5.12856 -2.5645 0
M  V30 3972 N 388.558 6.13005 -3.22794 0
M  V30 3973 N 390.351 5.05238 -2.46356 0
M  V30 3974 H 382.502 1.24467 -1.7211 0
M  V30 3975 H 384.765 0.604982 -0.729864 0
M  V30 3976 H 384.471 2.66789 -2.29165 0
M  V30 3977 H 384.345 3.67294 -0.858764 0
M  V30 3978 H 386.732 2.9452 -0.184854 0
M  V30 3979 H 386.813 1.95534 -1.64924 0
M  V30 3980 H 386.457 4.05349 -3.06031 0
M  V30 3981 H 386.387 5.02661 -1.5697 0
M  V30 3982 H 388.878 3.46628 -1.50524 0
M  V30 3983 H 389.191 6.81619 -3.64165 0
M  V30 3984 H 387.536 6.13325 -3.2689 0
M  V30 3985 H 390.727 4.25938 -1.9415 0
M  V30 3986 H 390.9 5.78707 -2.91552 0
M  V30 3987 N 384.306 0.507319 1.49211 0
M  V30 3988 C 385.236 -0.256939 2.32082 0
M  V30 3989 C 386.217 -0.956609 1.40652 0
M  V30 3990 O 387.402 -0.946788 1.69557 0
M  V30 3991 C 384.532 -1.31802 3.21318 0
M  V30 3992 C 383.486 -0.737855 4.21592 0
M  V30 3993 C 382.812 -1.89992 4.99807 0
M  V30 3994 C 384.112 0.275325 5.21574 0
M  V30 3995 H 385.806 0.434798 2.96226 0
M  V30 3996 H 383.352 0.210546 1.42452 0
M  V30 3997 H 385.305 -1.86045 3.78107 0
M  V30 3998 H 384.029 -2.03903 2.5513 0
M  V30 3999 H 382.688 -0.217126 3.65956 0
M  V30 4000 H 382.336 -2.60877 4.30061 0
M  V30 4001 H 382.036 -1.51777 5.6766 0
M  V30 4002 H 383.56 -2.44657 5.59442 0
M  V30 4003 H 384.974 -0.179193 5.7302 0
M  V30 4004 H 383.371 0.573649 5.97352 0
M  V30 4005 H 384.441 1.18903 4.70096 0
M  V30 4006 N 385.784 -1.5574 0.241426 0
M  V30 4007 C 387.033 -1.97986 -0.385295 0
M  V30 4008 C 387.346 -1.13267 -1.59468 0
M  V30 4009 O 388.552 -1.45501 -2.2922 0
M  V30 4010 C 387.008 -3.52275 -0.736884 0
M  V30 4011 C 386.616 -4.45726 0.450796 0
M  V30 4012 C 388.36 -4.03189 -1.3281 0
M  V30 4013 C 386.267 -5.91352 0.0756662 0
M  V30 4014 H 385.197 -0.739386 -0.147731 0
M  V30 4015 H 387.848 -1.80308 0.340779 0
M  V30 4016 H 386.23 -3.65628 -1.52094 0
M  V30 4017 H 387.404 -4.44131 1.22819 0
M  V30 4018 H 385.719 -4.05264 0.956573 0
M  V30 4019 H 388.316 -5.09505 -1.62201 0
M  V30 4020 H 388.659 -3.50212 -2.25071 0
M  V30 4021 H 389.192 -3.93141 -0.607069 0
M  V30 4022 H 385.931 -6.48354 0.965272 0
M  V30 4023 H 385.451 -5.96095 -0.665635 0
M  V30 4024 H 387.13 -6.46084 -0.344075 0
M  V30 4025 N 387.262 0.0317525 -1.57568 0
M  V30 4026 C 388.194 1.06073 -2.03178 0
M  V30 4027 C 389.207 1.32627 -0.944132 0
M  V30 4028 O 390.396 1.30162 -1.22148 0
M  V30 4029 C 387.496 2.40297 -2.38978 0
M  V30 4030 C 386.669 2.33137 -3.70089 0
M  V30 4031 C 385.728 3.49787 -3.9311 0
M  V30 4032 O 384.754 3.29403 -4.64201 0
M  V30 4033 N 385.956 4.71562 -3.38541 0
M  V30 4034 H 388.721 0.672006 -2.92069 0
M  V30 4035 H 386.282 0.219745 -1.60402 0
M  V30 4036 H 388.274 3.1705 -2.51518 0
M  V30 4037 H 386.844 2.71024 -1.55771 0
M  V30 4038 H 386.064 1.415 -3.67928 0
M  V30 4039 H 387.352 2.25493 -4.56104 0
M  V30 4040 H 386.75 4.91024 -2.80912 0
M  V30 4041 H 385.307 5.45689 -3.56464 0
M  V30 4042 N 388.74 1.54641 0.303973 0
M  V30 4043 C 389.65 1.88439 1.39743 0
M  V30 4044 C 390.666 0.778239 1.55626 0
M  V30 4045 O 391.842 1.07442 1.70347 0
M  V30 4046 C 388.907 2.12212 2.74166 0
M  V30 4047 C 387.968 3.35936 2.67293 0
M  V30 4048 C 387.201 3.58566 3.95305 0
M  V30 4049 O 387.424 2.84263 4.9452 0
M  V30 4050 O 386.358 4.52078 3.97378 0
M  V30 4051 H 390.184 2.81458 1.14083 0
M  V30 4052 H 387.769 1.40793 0.499768 0
M  V30 4053 H 389.651 2.29067 3.53704 0
M  V30 4054 H 388.326 1.22379 2.99675 0
M  V30 4055 H 387.233 3.24448 1.86237 0
M  V30 4056 H 388.566 4.2589 2.46736 0
M  V30 4057 N 390.218 -0.567019 1.47046 0
M  V30 4058 C 391.148 -1.68482 1.61667 0
M  V30 4059 C 392.129 -1.6358 0.466418 0
M  V30 4060 O 393.314 -1.81354 0.694574 0
M  V30 4061 C 390.444 -3.07124 1.62148 0
M  V30 4062 C 389.398 -3.26867 2.76301 0
M  V30 4063 C 388.724 -4.66196 2.61849 0
M  V30 4064 C 390.024 -3.13186 4.17986 0
M  V30 4065 H 391.718 -1.56502 2.5524 0
M  V30 4066 H 389.264 -0.751486 1.22836 0
M  V30 4067 H 391.217 -3.8516 1.70968 0
M  V30 4068 H 389.941 -3.2004 0.651287 0
M  V30 4069 H 388.6 -2.51237 2.66975 0
M  V30 4070 H 388.248 -4.75898 1.62879 0
M  V30 4071 H 387.948 -4.80356 3.38425 0
M  V30 4072 H 389.472 -5.46379 2.72584 0
M  V30 4073 H 390.886 -3.81049 4.2834 0
M  V30 4074 H 389.283 -3.3886 4.95272 0
M  V30 4075 H 390.353 -2.10057 4.3704 0
M  V30 4076 N 391.696 -1.35014 -0.812953 0
M  V30 4077 C 392.659 -1.27292 -1.90602 0
M  V30 4078 C 393.659 -0.185817 -1.59723 0
M  V30 4079 O 394.849 -0.439102 -1.68575 0
M  V30 4080 C 391.981 -0.967676 -3.26877 0
M  V30 4081 H 393.174 -2.24479 -1.9887 0
M  V30 4082 H 390.727 -1.19446 -1.00808 0
M  V30 4083 H 391.462 0.0005954 -3.243 0
M  V30 4084 H 391.247 -1.75412 -3.50675 0
M  V30 4085 H 392.737 -0.939085 -4.06904 0
M  V30 4086 N 393.175 1.03435 -1.18907 0
M  V30 4087 C 394.122 2.11591 -0.921837 0
M  V30 4088 C 395.092 1.65499 0.141226 0
M  V30 4089 O 396.277 1.908 0.000242829 0
M  V30 4090 C 393.417 3.42012 -0.460616 0
M  V30 4091 C 392.53 4.01682 -1.58982 0
M  V30 4092 C 391.665 5.20091 -1.08069 0
M  V30 4093 C 390.704 5.71805 -2.18416 0
M  V30 4094 N 389.841 6.81494 -1.68849 0
M  V30 4095 H 394.681 2.33787 -1.8479 0
M  V30 4096 H 392.218 1.1467 -0.921373 0
M  V30 4097 H 394.176 4.16834 -0.174642 0
M  V30 4098 H 392.806 3.19944 0.428467 0
M  V30 4099 H 391.858 3.24127 -1.99113 0
M  V30 4100 H 393.17 4.36084 -2.4214 0
M  V30 4101 H 392.324 6.02051 -0.749615 0
M  V30 4102 H 391.063 4.87209 -0.218771 0
M  V30 4103 H 390.068 4.88461 -2.5236 0
M  V30 4104 H 391.293 6.06728 -3.05054 0
M  V30 4105 H 389.239 6.50475 -0.849572 0
M  V30 4106 H 389.156 7.14994 -2.45601 0
M  V30 4107 H 390.424 7.67063 -1.38689 0
M  V30 4108 N 394.653 0.992116 1.22453 0
M  V30 4109 C 395.893 0.675727 1.92907 0
M  V30 4110 C 396.257 -0.777762 1.75542 0
M  V30 4111 O 397.458 -1.20553 2.40251 0
M  V30 4112 C 395.729 1.0696 3.4102 0
M  V30 4113 S 397.288 0.871456 4.30059 0
M  V30 4114 H 394.106 0.247089 0.666684 0
M  V30 4115 H 396.708 1.27423 1.48269 0
M  V30 4116 H 395.412 2.12383 3.51172 0
M  V30 4117 H 394.943 0.462858 3.90668 0
M  V30 4118 H 396.958 -0.238436 4.95627 0
M  V30 4119 N 396.131 -1.37776 0.765217 0
M  V30 4120 C 397.078 -2.30342 0.145274 0
M  V30 4121 C 398.048 -1.5077 -0.696971 0
M  V30 4122 O 399.233 -1.79362 -0.650689 0
M  V30 4123 C 396.373 -3.37227 -0.732939 0
M  V30 4124 C 395.486 -4.31819 0.125199 0
M  V30 4125 C 394.621 -5.25777 -0.757107 0
M  V30 4126 C 393.66 -6.12012 0.103963 0
M  V30 4127 N 392.797 -6.98232 -0.735953 0
M  V30 4128 H 397.637 -2.8278 0.940195 0
M  V30 4129 H 395.174 -1.39211 0.475255 0
M  V30 4130 H 397.132 -3.97818 -1.25686 0
M  V30 4131 H 395.762 -2.86171 -1.49353 0
M  V30 4132 H 394.814 -3.7259 0.766865 0
M  V30 4133 H 396.126 -4.92509 0.789683 0
M  V30 4134 H 395.28 -5.91541 -1.34776 0
M  V30 4135 H 394.019 -4.65481 -1.45529 0
M  V30 4136 H 393.024 -5.45233 0.707197 0
M  V30 4137 H 394.249 -6.74379 0.799381 0
M  V30 4138 H 392.195 -6.40472 -1.41887 0
M  V30 4139 H 392.112 -7.55891 -0.128624 0
M  V30 4140 H 393.38 -7.68393 -1.31121 0
M  V30 4141 N 397.609 -0.515225 -1.4894 0
M  V30 4142 C 398.858 0.0261361 -2.01683 0
M  V30 4143 C 399.171 1.36719 -1.39883 0
M  V30 4144 O 400.377 1.99606 -1.84037 0
M  V30 4145 C 398.833 0.0970111 -3.59769 0
M  V30 4146 C 398.441 -1.23825 -4.30548 0
M  V30 4147 C 400.185 0.587981 -4.20408 0
M  V30 4148 C 398.092 -1.12877 -5.80528 0
M  V30 4149 H 397.022 0.0135398 -0.753878 0
M  V30 4150 H 399.673 -0.656787 -1.71343 0
M  V30 4151 H 398.055 0.844694 -3.86886 0
M  V30 4152 H 399.229 -2.00034 -4.15118 0
M  V30 4153 H 397.544 -1.66379 -3.81716 0
M  V30 4154 H 400.141 0.68763 -5.3026 0
M  V30 4155 H 400.484 1.59026 -3.84729 0
M  V30 4156 H 401.017 -0.103582 -3.97665 0
M  V30 4157 H 397.756 -2.10575 -6.20756 0
M  V30 4158 H 397.276 -0.407799 -5.98412 0
M  V30 4159 H 398.955 -0.813332 -6.41868 0
M  V30 4160 N 399.087 1.5561 -0.249682 0
M  V30 4161 C 400.364 1.90932 0.424761 0
M  V30 4162 C 400.744 1.17078 1.75658 0
M  V30 4163 O 400.092 0.289176 2.26663 0
M  V30 4164 C 400.302 3.43975 0.590109 0
M  V30 4165 C 401.65 4.15281 0.884714 0
M  V30 4166 O 402.674 3.49729 0.67587 0
M  V30 4167 O 401.533 5.31236 1.28259 0
M  V30 4168 H 398.627 0.794815 0.228468 0
M  V30 4169 H 401.173 1.67135 -0.293954 0
M  V30 4170 H 399.945 3.89748 -0.34818 0
M  V30 4171 H 399.568 3.73644 1.35926 0
M  V30 4172 N 400.565 -0.0233959 1.57583 0
M  V30 4173 C 401.793 -0.724682 1.93794 0
M  V30 4174 C 402.208 -1.68588 0.849912 0
M  V30 4175 O 401.565 -1.81676 -0.173204 0
M  V30 4176 C 401.616 -1.47684 3.29957 0
M  V30 4177 O 401.337 -0.554222 4.3458 0
M  V30 4178 C 402.838 -2.27477 3.80485 0
M  V30 4179 H 400.058 -0.203317 0.639455 0
M  V30 4180 H 402.602 0.0207653 2.04489 0
M  V30 4181 H 400.757 -2.17412 3.20641 0
M  V30 4182 H 401.171 -1.08232 5.13212 0
M  V30 4183 H 402.645 -2.7564 4.78254 0
M  V30 4184 H 403.122 -3.09144 3.11972 0
M  V30 4185 H 403.728 -1.62813 3.92902 0
M  V30 4186 N 402.043 -1.548 -0.295768 0
M  V30 4187 C 402.993 -1.82497 -1.3667 0
M  V30 4188 C 403.977 -0.682434 -1.45711 0
M  V30 4189 O 405.169 -0.943207 -1.49775 0
M  V30 4190 C 402.298 -2.08036 -2.73086 0
M  V30 4191 C 401.384 -3.28488 -2.68247 0
M  V30 4192 N 401.775 -4.48924 -2.33025 0
M  V30 4193 C 400.073 -3.3062 -2.99343 0
M  V30 4194 C 400.774 -5.30956 -2.37613 0
M  V30 4195 N 399.75 -4.68805 -2.75178 0
M  V30 4196 H 403.552 -2.73175 -1.0841 0
M  V30 4197 H 401.066 -1.5437 -0.504361 0
M  V30 4198 H 403.063 -2.26027 -3.5031 0
M  V30 4199 H 401.723 -1.18629 -3.02254 0
M  V30 4200 H 402.734 -4.75432 -2.05389 0
M  V30 4201 H 399.411 -2.51336 -3.33371 0
M  V30 4202 H 400.801 -6.37199 -2.13135 0
M  V30 4203 N 403.521 0.559213 -1.47345 0
M  V30 4204 C 404.469 1.68747 -1.60085 0
M  V30 4205 C 405.463 1.628 -0.46825 0
M  V30 4206 O 406.669 1.68009 -0.645977 0
M  V30 4207 H 403.044 0.558329 -0.503759 0
M  V30 4208 H 405.015 1.55138 -2.54902 0
M  V30 4209 C 403.764 3.07103 -1.63042 0
M  V30 4210 H 403.087 3.12361 -2.49541 0
M  V30 4211 H 404.527 3.85743 -1.76006 0
M  V30 4212 C 402.986 3.34935 -0.363357 0
M  V30 4213 O 403.516 3.98102 0.536416 0
M  V30 4214 N 401.722 2.89574 -0.244 0
M  V30 4215 H 401.269 2.38348 -0.977133 0
M  V30 4216 H 401.227 3.08566 0.602836 0
M  V30 4217 N 404.999 1.35443 0.805782 0
M  V30 4218 C 406.248 1.28097 1.55801 0
M  V30 4219 C 406.561 -0.142428 1.95081 0
M  V30 4220 O 407.767 -0.33817 2.69386 0
M  V30 4221 C 406.223 2.24653 2.81174 0
M  V30 4222 C 405.831 3.72342 2.49129 0
M  V30 4223 C 407.575 2.2625 3.59181 0
M  V30 4224 C 405.482 4.60719 3.70799 0
M  V30 4225 H 404.412 0.475937 0.584808 0
M  V30 4226 H 407.063 1.60712 0.885661 0
M  V30 4227 H 405.445 1.85011 3.50124 0
M  V30 4228 H 406.619 4.20624 1.88181 0
M  V30 4229 H 404.934 3.73361 1.84366 0
M  V30 4230 H 407.531 2.89495 4.49552 0
M  V30 4231 H 407.874 1.26647 3.96568 0
M  V30 4232 H 408.407 2.64426 2.97193 0
M  V30 4233 H 405.146 5.61324 3.3852 0
M  V30 4234 H 404.666 4.17163 4.3097 0
M  V30 4235 H 406.345 4.76182 4.38018 0
M  V30 4236 N 406.477 -1.02803 1.19454 0
M  V30 4237 C 407.726 -1.7562 0.991996 0
M  V30 4238 C 408.039 -1.89672 -0.477901 0
M  V30 4239 O 409.245 -2.59468 -0.799287 0
M  V30 4240 C 407.701 -3.15812 1.72601 0
M  V30 4241 C 407.309 -3.0981 3.23607 0
M  V30 4242 C 409.053 -3.92918 1.60674 0
M  V30 4243 C 406.96 -4.44939 3.89594 0
M  V30 4244 H 405.89 -0.658352 0.367543 0
M  V30 4245 H 408.541 -1.15044 1.42959 0
M  V30 4246 H 406.923 -3.7686 1.21624 0
M  V30 4247 H 408.097 -2.58138 3.81709 0
M  V30 4248 H 406.412 -2.46201 3.35819 0
M  V30 4249 H 409.009 -4.9287 2.07323 0
M  V30 4250 H 409.352 -4.12502 0.561025 0
M  V30 4251 H 409.885 -3.38472 2.09001 0
M  V30 4252 H 406.624 -4.30559 4.94267 0
M  V30 4253 H 406.144 -4.96664 3.36281 0
M  V30 4254 H 407.823 -5.1382 3.93189 0
M  V30 4255 N 407.956 -0.998596 -1.21925 0
M  V30 4256 C 409.202 -0.678667 -1.91107 0
M  V30 4257 C 409.535 0.78791 -1.77498 0
M  V30 4258 O 408.81 1.57043 -1.1475 0
M  V30 4259 C 409.093 -1.09245 -3.43129 0
M  V30 4260 C 408.946 -2.61801 -3.6576 0
M  V30 4261 C 410.265 -0.649984 -4.35274 0
M  V30 4262 H 407.384 -0.248025 -0.694012 0
M  V30 4263 H 410.026 -1.24314 -1.43688 0
M  V30 4264 H 408.176 -0.612171 -3.83647 0
M  V30 4265 H 409.848 -3.17543 -3.34611 0
M  V30 4266 H 408.091 -3.03609 -3.09845 0
M  V30 4267 H 408.762 -2.85804 -4.7225 0
M  V30 4268 H 411.238 -1.0626 -4.02303 0
M  V30 4269 H 410.114 -0.967743 -5.40302 0
M  V30 4270 H 410.375 0.449139 -4.39813 0
M  V30 4271 N 409.434 1.37368 -0.772513 0
M  V30 4272 C 410.382 2.32134 -0.147111 0
M  V30 4273 C 411.376 1.54972 0.684106 0
M  V30 4274 O 412.582 1.70363 0.581083 0
M  V30 4275 H 408.957 0.751449 -0.028786 0
M  V30 4276 H 410.928 2.82464 -0.962112 0
M  V30 4277 C 409.677 3.40226 0.71703 0
M  V30 4278 H 409 3.99706 0.0867951 0
M  V30 4279 H 410.44 4.08897 1.12159 0
M  V30 4280 C 408.899 2.80372 1.86797 0
M  V30 4281 O 409.429 2.71183 2.96349 0
M  V30 4282 N 407.635 2.37904 1.66883 0
M  V30 4283 H 407.182 2.45578 0.777759 0
M  V30 4284 H 407.14 1.98202 2.44056 0
M  V30 4285 N 410.912 0.523116 1.48665 0
M  V30 4286 C 411.844 -0.280421 2.27478 0
M  V30 4287 C 412.857 -0.910694 1.34945 0
M  V30 4288 O 414.046 -0.790295 1.60052 0
M  V30 4289 C 411.146 -1.41171 3.08097 0
M  V30 4290 C 410.319 -0.884642 4.28361 0
M  V30 4291 C 409.378 -1.89622 4.90846 0
M  V30 4292 O 408.404 -1.4559 5.50265 0
M  V30 4293 N 409.606 -3.22801 4.82472 0
M  V30 4294 H 412.371 0.395481 2.97079 0
M  V30 4295 H 409.932 0.357018 1.57915 0
M  V30 4296 H 411.924 -2.08645 3.4677 0
M  V30 4297 H 410.494 -1.99139 2.40961 0
M  V30 4298 H 409.714 -0.0341177 3.94185 0
M  V30 4299 H 411.002 -0.511268 5.06225 0
M  V30 4300 H 410.4 -3.61246 4.35336 0
M  V30 4301 H 408.957 -3.85927 5.25265 0
M  V30 4302 N 412.39 -1.55475 0.257931 0
M  V30 4303 C 413.32 -2.24815 -0.630912 0
M  V30 4304 C 414.301 -1.23224 -1.17259 0
M  V30 4305 O 415.486 -1.51904 -1.20991 0
M  V30 4306 C 412.616 -2.95609 -1.82298 0
M  V30 4307 C 411.57 -4.03982 -1.41359 0
M  V30 4308 C 410.896 -4.6226 -2.68738 0
M  V30 4309 C 412.196 -5.19109 -0.57648 0
M  V30 4310 H 413.89 -2.99354 -0.0526878 0
M  V30 4311 H 411.436 -1.4398 -0.023901 0
M  V30 4312 H 413.389 -3.42822 -2.45054 0
M  V30 4313 H 412.113 -2.18577 -2.42676 0
M  V30 4314 H 410.772 -3.57555 -0.809324 0
M  V30 4315 H 410.42 -3.81915 -3.27338 0
M  V30 4316 H 410.12 -5.35424 -2.42065 0
M  V30 4317 H 411.644 -5.12212 -3.32372 0
M  V30 4318 H 413.058 -5.62479 -1.10861 0
M  V30 4319 H 411.455 -5.98729 -0.405351 0
M  V30 4320 H 412.525 -4.83174 0.408776 0
M  V30 4321 N 413.868 0.0150385 -1.57593 0
M  V30 4322 C 415.114 0.704043 -1.90187 0
M  V30 4323 C 415.447 1.74249 -0.857366 0
M  V30 4324 O 414.722 1.94092 0.125843 0
M  V30 4325 C 415.005 1.36087 -3.33395 0
M  V30 4326 C 414.858 0.334981 -4.48551 0
M  V30 4327 C 416.177 2.29112 -3.7576 0
M  V30 4328 H 413.296 0.254475 -0.691673 0
M  V30 4329 H 415.938 -0.0331678 -1.89971 0
M  V30 4330 H 414.088 1.98922 -3.3371 0
M  V30 4331 H 415.76 -0.292534 -4.60372 0
M  V30 4332 H 414.003 -0.344325 -4.32431 0
M  V30 4333 H 414.674 0.833316 -5.45674 0
M  V30 4334 H 417.15 1.76308 -3.76902 0
M  V30 4335 H 416.026 2.72043 -4.76743 0
M  V30 4336 H 416.287 3.16385 -3.08793 0
M  V30 4337 N 415.346 1.54954 0.287554 0
M  V30 4338 C 416.593 1.74873 1.02106 0
M  V30 4339 C 416.921 0.541829 1.86801 0
M  V30 4340 O 416.176 -0.475992 1.89823 0
M  V30 4341 C 416.475 2.99833 1.94512 0
M  V30 4342 C 416.141 4.33029 1.25686 0
M  V30 4343 C 414.803 4.69233 1.06649 0
M  V30 4344 C 417.155 5.15542 0.765913 0
M  V30 4345 C 414.483 5.85518 0.372222 0
M  V30 4346 C 416.835 6.32542 0.0853101 0
M  V30 4347 C 415.499 6.67398 -0.1169 0
M  V30 4348 H 414.769 0.639906 0.373632 0
M  V30 4349 H 417.416 1.89219 0.294665 0
M  V30 4350 H 415.721 2.80325 2.73725 0
M  V30 4351 H 417.418 3.1244 2.51361 0
M  V30 4352 H 414.008 4.04564 1.41512 0
M  V30 4353 H 418.192 4.88059 0.90066 0
M  V30 4354 H 413.448 6.11057 0.204695 0
M  V30 4355 H 417.622 6.95741 -0.302936 0
M  V30 4356 H 415.249 7.57357 -0.656859 0
M  V30 4357 N 416.824 -0.551391 1.4764 0
M  V30 4358 C 418.235 -1.13349 1.48354 0
M  V30 4359 C 418.586 -1.94709 0.241432 0
M  V30 4360 O 417.711 -2.06306 -0.653205 0
M  V30 4361 C 418.306 -2.0623 2.68802 0
M  V30 4362 C 416.865 -2.597 2.72457 0
M  V30 4363 C 416.012 -1.36201 2.41546 0
M  V30 4364 H 418.963 -0.337698 1.55065 0
M  V30 4365 H 418.984 -2.90196 2.46103 0
M  V30 4366 H 418.496 -1.46987 3.59188 0
M  V30 4367 H 416.597 -3.22724 1.86225 0
M  V30 4368 H 416.71 -3.00296 3.73308 0
M  V30 4369 H 415.074 -1.67068 1.9225 0
M  V30 4370 H 415.857 -0.787425 3.34147 0
M  V30 4371 N 418.302 -1.35869 -0.798587 0
M  V30 4372 C 419.579 -1.20145 -1.54352 0
M  V30 4373 C 419.959 0.216161 -2.0999 0
M  V30 4374 O 419.307 1.22068 -1.93162 0
M  V30 4375 C 419.517 -2.27602 -2.64572 0
M  V30 4376 C 420.865 -2.63811 -3.32699 0
M  V30 4377 O 421.889 -2.26576 -2.74849 0
M  V30 4378 O 420.748 -3.27866 -4.37226 0
M  V30 4379 H 417.842 -0.467248 -0.682355 0
M  V30 4380 H 420.388 -1.47574 -0.837859 0
M  V30 4381 H 419.16 -3.2265 -2.21388 0
M  V30 4382 H 418.783 -2.01488 -3.42766 0
M  V30 4383 N 419.78 1.02168 -1.19998 0
M  V30 4384 C 421.191 1.57135 -1.00825 0
M  V30 4385 C 421.542 1.91276 0.436818 0
M  V30 4386 O 420.667 1.71679 1.3174 0
M  V30 4387 C 421.262 2.85514 -1.82393 0
M  V30 4388 C 419.821 3.37027 -1.67601 0
M  V30 4389 C 418.968 2.10388 -1.80644 0
M  V30 4390 H 421.919 0.846106 -1.34264 0
M  V30 4391 H 421.94 3.56711 -1.32429 0
M  V30 4392 H 421.452 2.60634 -2.87561 0
M  V30 4393 H 419.553 3.66878 -0.650485 0
M  V30 4394 H 419.666 4.09572 -2.4857 0
M  V30 4395 H 418.03 2.22601 -1.23778 0
M  V30 4396 H 418.813 1.8794 -2.87286 0
M  V30 4397 N 421.258 1.00505 1.21394 0
M  V30 4398 C 422.168 0.574806 2.27449 0
M  V30 4399 C 423.184 -0.382206 1.6975 0
M  V30 4400 O 424.36 -0.246027 1.99892 0
M  V30 4401 C 421.425 -0.0917414 3.46579 0
M  V30 4402 C 420.486 0.909758 4.1955 0
M  V30 4403 C 419.719 0.274924 5.32991 0
M  V30 4404 O 419.942 -0.928254 5.62796 0
M  V30 4405 O 418.876 0.985877 5.93771 0
M  V30 4406 H 422.702 1.45744 2.66444 0
M  V30 4407 H 420.287 0.773923 1.27792 0
M  V30 4408 H 422.169 -0.464551 4.18832 0
M  V30 4409 H 420.844 -0.948755 3.09484 0
M  V30 4410 H 419.751 1.33372 3.49518 0
M  V30 4411 H 421.084 1.73636 4.60555 0
M  V30 4412 N 422.737 -1.36956 0.779787 0
M  V30 4413 C 423.684 -2.30175 0.169697 0
M  V30 4414 C 424.654 -1.51501 -0.68094 0
M  V30 4415 O 425.839 -1.80042 -0.631629 0
M  V30 4416 C 422.979 -3.37985 -0.697131 0
M  V30 4417 C 422.092 -4.31661 0.170992 0
M  V30 4418 C 421.227 -5.2655 -0.701298 0
M  V30 4419 C 420.266 -6.11867 0.168869 0
M  V30 4420 N 419.403 -6.98973 -0.661855 0
M  V30 4421 H 424.243 -2.81767 0.970135 0
M  V30 4422 H 421.78 -1.38699 0.489994 0
M  V30 4423 H 423.738 -3.99128 -1.2146 0
M  V30 4424 H 422.368 -2.87739 -1.46309 0
M  V30 4425 H 421.42 -3.71756 0.80634 0
M  V30 4426 H 422.732 -4.91644 0.841875 0
M  V30 4427 H 421.886 -5.92937 -1.28494 0
M  V30 4428 H 420.625 -4.66998 -1.40584 0
M  V30 4429 H 419.63 -5.44452 0.764986 0
M  V30 4430 H 420.855 -6.73493 0.870863 0
M  V30 4431 H 418.801 -6.41941 -1.35086 0
M  V30 4432 H 418.718 -7.55984 -0.0484447 0
M  V30 4433 H 419.986 -7.6974 -1.22963 0
M  V30 4434 N 424.215 -0.530993 -1.48385 0
M  V30 4435 C 425.626 -0.0907905 -1.86479 0
M  V30 4436 C 425.977 1.33213 -1.44044 0
M  V30 4437 O 425.102 1.99783 -0.831615 0
M  V30 4438 C 425.697 -0.157987 -3.38431 0
M  V30 4439 C 424.256 0.227026 -3.75715 0
M  V30 4440 C 423.403 -0.5173 -2.72432 0
M  V30 4441 H 426.354 -0.742186 -1.40276 0
M  V30 4442 H 426.375 0.630053 -3.75247 0
M  V30 4443 H 425.887 -1.19372 -3.69286 0
M  V30 4444 H 423.988 1.26486 -3.50474 0
M  V30 4445 H 424.101 -0.113288 -4.78966 0
M  V30 4446 H 422.465 0.0365527 -2.54674 0
M  V30 4447 H 423.248 -1.55368 -3.0613 0
M  V30 4448 N 425.693 1.55336 -0.266172 0
M  V30 4449 C 426.933 2.01303 0.354459 0
M  V30 4450 C 427.297 1.15046 1.53715 0
M  V30 4451 O 428.498 1.50554 2.22681 0
M  V30 4452 C 426.769 3.49748 0.735579 0
M  V30 4453 S 428.328 4.1771 1.34401 0
M  V30 4454 H 425.146 0.702333 0.110674 0
M  V30 4455 H 427.748 1.91653 -0.385916 0
M  V30 4456 H 426.452 4.10181 -0.134196 0
M  V30 4457 H 425.983 3.63364 1.50764 0
M  V30 4458 H 427.998 4.20594 2.63278 0
M  V30 4459 N 427.171 -0.0066808 1.57599 0
M  V30 4460 C 428.118 -1.00024 2.08 0
M  V30 4461 C 429.088 -1.34549 0.973943 0
M  V30 4462 O 430.273 -1.44502 1.24595 0
M  V30 4463 C 427.413 -2.2891 2.58252 0
M  V30 4464 C 426.526 -2.00346 3.82734 0
M  V30 4465 C 425.661 -3.23265 4.21513 0
M  V30 4466 C 424.7 -2.90357 5.3885 0
M  V30 4467 N 423.837 -4.05793 5.72954 0
M  V30 4468 H 428.677 -0.563499 2.92624 0
M  V30 4469 H 426.214 -0.266592 1.44664 0
M  V30 4470 H 428.172 -3.04247 2.85464 0
M  V30 4471 H 426.802 -2.70265 1.76512 0
M  V30 4472 H 425.854 -1.15406 3.62471 0
M  V30 4473 H 427.166 -1.72086 4.68175 0
M  V30 4474 H 426.32 -4.06953 4.49971 0
M  V30 4475 H 425.059 -3.54657 3.34768 0
M  V30 4476 H 424.064 -2.05075 5.10122 0
M  V30 4477 H 425.289 -2.60219 6.27266 0
M  V30 4478 H 423.235 -4.37094 4.89167 0
M  V30 4479 H 423.152 -3.81034 6.52954 0
M  V30 4480 H 424.42 -4.90289 6.06001 0
M  V30 4481 N 428.649 -1.55105 -0.279332 0
M  V30 4482 C 429.582 -1.82467 -1.37044 0
M  V30 4483 C 430.56 -0.677261 -1.47824 0
M  V30 4484 O 431.744 -0.919578 -1.64548 0
M  V30 4485 C 428.871 -1.98066 -2.7475 0
M  V30 4486 C 427.917 -3.20594 -2.81286 0
M  V30 4487 S 428.75 -4.78116 -2.41175 0
M  V30 4488 C 429.906 -4.9668 -3.80867 0
M  V30 4489 H 430.139 -2.74728 -1.1363 0
M  V30 4490 H 427.672 -1.46794 -0.478625 0
M  V30 4491 H 429.63 -2.07739 -3.54055 0
M  V30 4492 H 428.291 -1.06704 -2.9542 0
M  V30 4493 H 427.484 -3.28376 -3.82341 0
M  V30 4494 H 427.086 -3.09479 -2.09996 0
M  V30 4495 H 429.378 -4.82033 -4.76078 0
M  V30 4496 H 430.321 -5.98741 -3.78041 0
M  V30 4497 H 430.729 -4.24698 -3.71876 0
M  V30 4498 N 430.127 0.543554 -1.4793 0
M  V30 4499 C 431.367 1.31072 -1.56843 0
M  V30 4500 C 431.731 1.90604 -0.231124 0
M  V30 4501 O 432.932 2.68091 -0.195165 0
M  V30 4502 C 431.203 2.38106 -2.66533 0
M  V30 4503 S 432.762 3.24729 -2.95122 0
M  V30 4504 H 429.58 0.446035 -0.553691 0
M  V30 4505 H 432.182 0.620777 -1.85382 0
M  V30 4506 H 430.886 1.92828 -3.62278 0
M  V30 4507 H 430.417 3.11824 -2.39852 0
M  V30 4508 H 432.432 4.37891 -2.3338 0
M  V30 4509 N 431.605 1.3629 0.791371 0
M  V30 4510 C 432.515 1.32606 1.93527 0
M  V30 4511 C 433.531 0.228541 1.72493 0
M  V30 4512 O 434.707 0.460571 1.96063 0
M  V30 4513 C 431.772 1.11271 3.28359 0
M  V30 4514 C 430.833 2.3048 3.62185 0
M  V30 4515 C 430.066 2.10154 4.90583 0
M  V30 4516 O 430.289 1.07572 5.60165 0
M  V30 4517 O 429.223 2.97884 5.23019 0
M  V30 4518 H 433.049 2.28909 1.99585 0
M  V30 4519 H 430.634 1.16818 0.931344 0
M  V30 4520 H 432.516 1.01283 4.09047 0
M  V30 4521 H 431.191 0.180292 3.23198 0
M  V30 4522 H 430.098 2.46036 2.81811 0
M  V30 4523 H 431.431 3.22221 3.72068 0
M  V30 4524 N 433.083 -1.0153 1.20538 0
M  V30 4525 C 434.046 -2.0826 0.957098 0
M  V30 4526 C 435.046 -1.60657 -0.0678655 0
M  V30 4527 O 436.236 -1.73385 0.168332 0
M  V30 4528 C 433.368 -3.38033 0.441188 0
M  V30 4529 H 434.561 -2.31719 1.90384 0
M  V30 4530 H 432.114 -1.1835 1.02093 0
M  V30 4531 H 432.849 -3.20249 -0.510961 0
M  V30 4532 H 432.634 -3.73911 1.18038 0
M  V30 4533 H 434.124 -4.16613 0.287009 0
M  V30 4534 N 434.561 -1.01147 -1.20859 0
M  V30 4535 C 435.977 -0.725422 -1.42161 0
M  V30 4536 C 436.177 0.696919 -1.89064 0
M  V30 4537 O 435.233 1.46539 -2.05627 0
M  V30 4538 C 436.546 -1.74678 -2.44761 0
M  V30 4539 C 438.094 -1.76433 -2.58535 0
M  V30 4540 C 438.569 -2.77481 -3.64374 0
M  V30 4541 N 440.06 -2.76189 -3.71852 0
M  V30 4542 C 440.795 -3.51035 -4.53389 0
M  V30 4543 N 440.291 -4.35541 -5.38773 0
M  V30 4544 N 442.084 -3.39655 -4.47873 0
M  V30 4545 H 434.235 -1.92979 -0.887282 0
M  V30 4546 H 436.498 -0.833327 -0.451962 0
M  V30 4547 H 436.204 -2.76551 -2.17285 0
M  V30 4548 H 436.078 -1.55472 -3.43669 0
M  V30 4549 H 438.465 -0.75248 -2.85345 0
M  V30 4550 H 438.546 -1.99712 -1.5984 0
M  V30 4551 H 438.19 -3.78827 -3.38308 0
M  V30 4552 H 438.12 -2.51466 -4.6268 0
M  V30 4553 H 440.611 -2.14885 -3.10858 0
M  V30 4554 H 440.924 -4.89432 -5.98061 0
M  V30 4555 H 439.269 -4.39621 -5.38292 0
M  V30 4556 H 442.46 -2.73063 -3.80203 0
M  V30 4557 H 442.633 -3.9824 -5.11184 0
M  V30 4558 N 436.039 1.36541 -0.78704 0
M  V30 4559 C 436.989 2.27459 -0.156957 0
M  V30 4560 C 437.973 1.46843 0.657709 0
M  V30 4561 O 439.165 1.69245 0.518173 0
M  V30 4562 C 436.294 3.35893 0.709278 0
M  V30 4563 C 435.38 4.23947 -0.114049 0
M  V30 4564 N 435.771 4.92145 -1.16736 0
M  V30 4565 C 434.069 4.4587 0.107497 0
M  V30 4566 C 434.77 5.57261 -1.66837 0
M  V30 4567 N 433.746 5.3473 -0.977992 0
M  V30 4568 H 437.548 2.77669 -0.963185 0
M  V30 4569 H 435.062 1.49839 -0.62627 0
M  V30 4570 H 437.059 3.99953 1.17656 0
M  V30 4571 H 435.719 2.87238 1.51408 0
M  V30 4572 H 436.73 4.94169 -1.54976 0
M  V30 4573 H 433.407 4.08056 0.882994 0
M  V30 4574 H 434.797 6.21728 -2.54762 0
M  V30 4575 N 437.518 0.538854 1.48102 0
M  V30 4576 C 438.465 -0.219042 2.29758 0
M  V30 4577 C 439.435 -0.925562 1.37922 0
M  V30 4578 O 440.62 -0.924855 1.66886 0
M  V30 4579 C 437.76 -1.25452 3.2149 0
M  V30 4580 C 436.873 -0.555943 4.28408 0
M  V30 4581 C 436.008 -1.57512 5.0731 0
M  V30 4582 C 435.047 -0.860498 6.06021 0
M  V30 4583 N 434.184 -1.82564 6.77949 0
M  V30 4584 H 439.024 0.483449 2.94052 0
M  V30 4585 H 436.561 0.250247 1.44956 0
M  V30 4586 H 438.519 -1.86727 3.7308 0
M  V30 4587 H 437.149 -1.92528 2.591 0
M  V30 4588 H 436.201 0.170938 3.80016 0
M  V30 4589 H 437.513 0.00474616 4.988 0
M  V30 4590 H 436.667 -2.26191 5.62959 0
M  V30 4591 H 435.406 -2.16972 4.36778 0
M  V30 4592 H 434.411 -0.159686 5.49568 0
M  V30 4593 H 435.636 -0.271897 6.78555 0
M  V30 4594 H 433.582 -2.40915 6.10161 0
M  V30 4595 H 433.499 -1.31662 7.44447 0
M  V30 4596 H 434.767 -2.50414 7.38182 0
M  V30 4597 N 438.996 -1.55193 0.274407 0
M  V30 4598 C 440.245 -1.98758 -0.343213 0
M  V30 4599 C 440.558 -1.16624 -1.5703 0
M  V30 4600 O 441.764 -1.5033 -2.26082 0
M  V30 4601 C 440.22 -3.53759 -0.661996 0
M  V30 4602 C 439.828 -4.4467 0.54524 0
M  V30 4603 C 441.572 -4.05916 -1.24228 0
M  V30 4604 C 439.479 -5.91058 0.201084 0
M  V30 4605 H 438.409 -0.742353 -0.132014 0
M  V30 4606 H 441.06 -1.79545 0.378948 0
M  V30 4607 H 439.442 -3.68772 -1.44304 0
M  V30 4608 H 440.616 -4.41426 1.32212 0
M  V30 4609 H 438.931 -4.03143 1.04232 0
M  V30 4610 H 441.528 -5.12831 -1.51357 0
M  V30 4611 H 441.871 -3.54908 -2.17592 0
M  V30 4612 H 442.404 -3.9434 -0.523542 0
M  V30 4613 H 439.143 -6.46161 1.10258 0
M  V30 4614 H 438.663 -5.97373 -0.539045 0
M  V30 4615 H 440.342 -6.46669 -0.206954 0
M  V30 4616 N 440.474 -0.00167713 -1.576 0
M  V30 4617 C 441.406 1.0174 -2.05382 0
M  V30 4618 C 442.419 1.30595 -0.972052 0
M  V30 4619 O 443.608 1.27542 -1.24882 0
M  V30 4620 C 440.708 2.35174 -2.44022 0
M  V30 4621 C 439.881 2.25234 -3.74951 0
M  V30 4622 C 438.94 3.4137 -4.00441 0
M  V30 4623 O 437.966 3.19483 -4.71083 0
M  V30 4624 N 439.168 4.64275 -3.48467 0
M  V30 4625 H 441.933 0.609902 -2.93428 0
M  V30 4626 H 439.494 0.185672 -1.60832 0
M  V30 4627 H 441.486 3.11643 -2.58187 0
M  V30 4628 H 440.056 2.67659 -1.61485 0
M  V30 4629 H 439.276 1.33664 -3.70847 0
M  V30 4630 H 440.564 2.15767 -4.60784 0
M  V30 4631 H 439.962 4.84955 -2.91264 0
M  V30 4632 H 438.519 5.38005 -3.67959 0
M  V30 4633 N 441.952 1.55251 0.271103 0
M  V30 4634 C 442.915 1.87484 1.31842 0
M  V30 4635 C 443.915 0.749545 1.42262 0
M  V30 4636 O 445.105 1.01771 1.4138 0
M  V30 4637 C 442.237 2.0818 2.69951 0
M  V30 4638 H 443.43 2.81108 1.0449 0
M  V30 4639 H 440.983 1.47771 0.509258 0
M  V30 4640 H 441.718 1.16944 3.02481 0
M  V30 4641 H 441.503 2.90114 2.63774 0
M  V30 4642 H 442.993 2.34385 3.4562 0
M  V30 4643 N 443.43 -0.535701 1.48216 0
M  V30 4644 C 444.377 -1.64083 1.62312 0
M  V30 4645 C 445.347 -1.59448 0.465365 0
M  V30 4646 O 446.532 -1.77959 0.688135 0
M  V30 4647 C 443.672 -3.0236 1.66349 0
M  V30 4648 C 442.785 -3.17273 2.93193 0
M  V30 4649 C 441.92 -4.46075 2.88427 0
M  V30 4650 C 440.959 -4.54496 4.1 0
M  V30 4651 N 440.096 -5.7468 4.03345 0
M  V30 4652 H 444.936 -1.51374 2.5669 0
M  V30 4653 H 442.473 -0.737059 1.27302 0
M  V30 4654 H 444.431 -3.82461 1.66672 0
M  V30 4655 H 443.061 -3.13854 0.754672 0
M  V30 4656 H 442.113 -2.30462 3.02641 0
M  V30 4657 H 443.425 -3.19357 3.83162 0
M  V30 4658 H 442.579 -5.3446 2.87119 0
M  V30 4659 H 441.318 -4.46504 1.96177 0
M  V30 4660 H 440.323 -3.64519 4.11589 0
M  V30 4661 H 441.548 -4.5581 5.03402 0
M  V30 4662 H 439.494 -5.76017 3.13912 0
M  V30 4663 H 439.411 -5.78234 4.87013 0
M  V30 4664 H 440.679 -6.65367 4.06087 0
M  V30 4665 N 444.908 -1.36708 -0.784132 0
M  V30 4666 C 446.138 -1.34203 -1.57077 0
M  V30 4667 C 446.546 0.0774945 -1.89041 0
M  V30 4668 O 445.889 1.04628 -1.50992 0
M  V30 4669 C 445.951 -2.10351 -2.91535 0
M  V30 4670 C 445.615 -3.59405 -2.82272 0
M  V30 4671 C 446.612 -4.53545 -2.54151 0
M  V30 4672 C 444.297 -4.02362 -3.00683 0
M  V30 4673 C 446.291 -5.8862 -2.44551 0
M  V30 4674 C 443.978 -5.37526 -2.90704 0
M  V30 4675 C 444.976 -6.30468 -2.62677 0
M  V30 4676 O 444.664 -7.63149 -2.52702 0
M  V30 4677 H 444.396 -0.461791 -0.493685 0
M  V30 4678 H 446.95 -1.80475 -0.980712 0
M  V30 4679 H 445.18 -1.5875 -3.52612 0
M  V30 4680 H 446.869 -2.00636 -3.52845 0
M  V30 4681 H 447.635 -4.21669 -2.39625 0
M  V30 4682 H 443.514 -3.30389 -3.21503 0
M  V30 4683 H 447.058 -6.61133 -2.22596 0
M  V30 4684 H 442.955 -5.69008 -3.04795 0
M  V30 4685 H 443.723 -7.73331 -2.68144 0
M  V30 4686 N 446.386 1.0089 -1.21074 0
M  V30 4687 C 447.316 2.1145 -0.990523 0
M  V30 4688 C 448.297 1.69897 0.0831699 0
M  V30 4689 O 449.482 1.94052 -0.0758853 0
M  V30 4690 C 446.612 3.42914 -0.550177 0
M  V30 4691 C 445.566 3.98244 -1.56799 0
M  V30 4692 C 444.892 5.25568 -0.984013 0
M  V30 4693 C 446.192 4.30752 -2.95381 0
M  V30 4694 H 447.886 2.3013 -1.91521 0
M  V30 4695 H 445.432 1.10592 -0.92225 0
M  V30 4696 H 447.385 4.19653 -0.383305 0
M  V30 4697 H 446.109 3.24014 0.41015 0
M  V30 4698 H 444.768 3.23621 -1.72236 0
M  V30 4699 H 444.416 5.02998 -0.0155216 0
M  V30 4700 H 444.116 5.63551 -1.66384 0
M  V30 4701 H 445.64 6.04955 -0.828378 0
M  V30 4702 H 447.054 4.98349 -2.8341 0
M  V30 4703 H 445.451 4.79869 -3.60341 0
M  V30 4704 H 446.521 3.39192 -3.46521 0
M  V30 4705 N 447.864 1.01787 1.20321 0
M  V30 4706 C 449.141 0.622978 1.85414 0
M  V30 4707 C 449.521 -0.898887 1.91006 0
M  V30 4708 O 448.869 -1.79112 1.41884 0
M  V30 4709 C 449.079 1.27226 3.24984 0
M  V30 4710 C 450.427 1.3885 4.01255 0
M  V30 4711 O 451.451 1.22857 3.34342 0
M  V30 4712 O 450.31 1.64705 5.2109 0
M  V30 4713 H 447.404 0.215116 0.798533 0
M  V30 4714 H 449.95 1.11533 1.27901 0
M  V30 4715 H 448.722 2.31209 3.15687 0
M  V30 4716 H 448.345 0.767069 3.90131 0
M  V30 4717 N 449.342 -1.36122 0.79427 0
M  V30 4718 C 450.274 -2.28683 0.153903 0
M  V30 4719 C 451.287 -1.49707 -0.639669 0
M  V30 4720 O 452.476 -1.7209 -0.474054 0
M  V30 4721 C 449.576 -3.29202 -0.804921 0
M  V30 4722 C 448.749 -4.37358 -0.060366 0
M  V30 4723 C 447.808 -5.17811 -0.935849 0
M  V30 4724 O 446.834 -5.67853 -0.391309 0
M  V30 4725 N 448.036 -5.34721 -2.25951 0
M  V30 4726 H 450.801 -2.84278 0.949008 0
M  V30 4727 H 448.362 -1.4834 0.648611 0
M  V30 4728 H 450.354 -3.79914 -1.39455 0
M  V30 4729 H 448.924 -2.74212 -1.50088 0
M  V30 4730 H 448.144 -3.87746 0.710382 0
M  V30 4731 H 449.432 -5.06777 0.45324 0
M  V30 4732 H 448.83 -4.95687 -2.72601 0
M  V30 4733 H 447.387 -5.88657 -2.79867 0
M  V30 4734 N 450.82 -0.546701 -1.47814 0
M  V30 4735 C 451.753 0.254472 -2.26777 0
M  V30 4736 C 452.731 0.929809 -1.33392 0
M  V30 4737 O 453.915 0.950889 -1.62759 0
M  V30 4738 C 451.042 1.36171 -3.10121 0
M  V30 4739 C 450.088 0.796038 -4.19005 0
M  V30 4740 S 450.921 -0.349191 -5.3436 0
M  V30 4741 C 452.077 0.760122 -6.21267 0
M  V30 4742 H 452.31 -0.415612 -2.94381 0
M  V30 4743 H 449.843 -0.332809 -1.5077 0
M  V30 4744 H 451.801 1.99588 -3.58713 0
M  V30 4745 H 450.462 2.00359 -2.41899 0
M  V30 4746 H 449.655 1.62719 -4.7701 0
M  V30 4747 H 449.257 0.238246 -3.7324 0
M  V30 4748 H 451.549 1.65479 -6.5698 0
M  V30 4749 H 452.492 0.217673 -7.07765 0
M  V30 4750 H 452.9 1.04806 -5.54685 0
M  V30 4751 N 452.299 1.55045 -0.282633 0
M  V30 4752 C 453.209 2.26491 0.61147 0
M  V30 4753 C 454.225 1.29348 1.16384 0
M  V30 4754 O 455.401 1.62298 1.19253 0
M  V30 4755 C 452.466 2.97779 1.77563 0
M  V30 4756 C 451.527 4.10418 1.25919 0
M  V30 4757 C 450.76 4.78297 2.36786 0
M  V30 4758 O 450.983 4.45426 3.56303 0
M  V30 4759 O 449.917 5.66089 2.04517 0
M  V30 4760 H 453.743 3.03683 0.0324615 0
M  V30 4761 H 451.328 1.49317 -0.0497576 0
M  V30 4762 H 453.21 3.42554 2.45427 0
M  V30 4763 H 451.885 2.23498 2.34159 0
M  V30 4764 H 450.792 3.70082 0.546797 0
M  V30 4765 H 452.125 4.86622 0.738887 0
M  V30 4766 N 453.777 0.010035 1.57597 0
M  V30 4767 C 455.054 -0.710296 1.82248 0
M  V30 4768 C 455.434 -1.91426 0.889911 0
M  V30 4769 O 454.782 -2.28424 -0.0590292 0
M  V30 4770 C 454.992 -1.10655 3.30993 0
M  V30 4771 C 456.34 -1.50621 3.96987 0
M  V30 4772 O 457.364 -1.20007 3.35375 0
M  V30 4773 O 456.223 -2.07587 5.05539 0
M  V30 4774 H 453.317 -0.34673 0.750804 0
M  V30 4775 H 455.863 0.0362578 1.69661 0
M  V30 4776 H 454.635 -0.248826 3.90508 0
M  V30 4777 H 454.258 -1.91189 3.48615 0
M  V30 4778 N 455.255 -1.55392 -0.262866 0
M  V30 4779 C 456.185 -1.91978 -1.32917 0
M  V30 4780 C 457.166 -0.7828 -1.51017 0
M  V30 4781 O 458.351 -1.04178 -1.63892 0
M  V30 4782 C 455.481 -2.20055 -2.68687 0
M  V30 4783 C 454.435 -3.35854 -2.65304 0
M  V30 4784 C 453.761 -3.49435 -4.04721 0
M  V30 4785 C 455.061 -4.71977 -2.23685 0
M  V30 4786 H 456.755 -2.81292 -1.02544 0
M  V30 4787 H 454.301 -1.3534 -0.491846 0
M  V30 4788 H 456.254 -2.44237 -3.43404 0
M  V30 4789 H 454.978 -1.27551 -3.00663 0
M  V30 4790 H 453.637 -3.11655 -1.93045 0
M  V30 4791 H 453.285 -2.54379 -4.33936 0
M  V30 4792 H 452.985 -4.27297 -4.0335 0
M  V30 4793 H 454.509 -3.7592 -4.81161 0
M  V30 4794 H 455.923 -4.95637 -2.88127 0
M  V30 4795 H 454.32 -5.52828 -2.33456 0
M  V30 4796 H 455.39 -4.70115 -1.18827 0
M  V30 4797 N 456.733 0.527833 -1.48498 0
M  V30 4798 C 457.963 1.30633 -1.60058 0
M  V30 4799 C 458.371 1.87394 -0.260786 0
M  V30 4800 O 457.714 1.67227 0.760317 0
M  V30 4801 C 457.776 2.49361 -2.58958 0
M  V30 4802 C 457.44 2.13671 -4.03972 0
M  V30 4803 C 458.437 1.69217 -4.91591 0
M  V30 4804 C 456.122 2.24129 -4.49524 0
M  V30 4805 C 458.116 1.35689 -6.2279 0
M  V30 4806 C 455.803 1.90212 -5.80743 0
M  V30 4807 C 456.801 1.46063 -6.67199 0
M  V30 4808 O 456.489 1.12593 -7.95976 0
M  V30 4809 H 456.221 0.403444 -0.54241 0
M  V30 4810 H 458.775 0.643233 -1.95068 0
M  V30 4811 H 457.005 3.18659 -2.19073 0
M  V30 4812 H 458.694 3.11421 -2.6033 0
M  V30 4813 H 459.46 1.60607 -4.57636 0
M  V30 4814 H 455.339 2.57447 -3.82416 0
M  V30 4815 H 458.883 1.01157 -6.90227 0
M  V30 4816 H 454.78 1.98464 -6.14233 0
M  V30 4817 H 455.548 1.25972 -8.08748 0
M  V30 4818 N 458.211 1.37122 0.776871 0
M  V30 4819 C 459.121 1.34651 1.9211 0
M  V30 4820 C 460.137 0.246824 1.7224 0
M  V30 4821 O 461.313 0.48134 1.95563 0
M  V30 4822 C 458.378 1.14748 3.2716 0
M  V30 4823 C 457.439 2.34308 3.5972 0
M  V30 4824 C 456.672 2.15345 4.88326 0
M  V30 4825 O 456.895 1.13507 5.58992 0
M  V30 4826 O 455.829 3.03414 5.1983 0
M  V30 4827 H 459.655 2.31013 1.97146 0
M  V30 4828 H 457.24 1.17799 0.918901 0
M  V30 4829 H 459.122 1.05616 4.0795 0
M  V30 4830 H 457.797 0.214562 3.22988 0
M  V30 4831 H 456.704 2.49011 2.79185 0
M  V30 4832 H 458.037 3.26149 3.68629 0
M  V30 4833 N 459.689 -1.00246 1.21608 0
M  V30 4834 C 460.966 -1.71336 0.943568 0
M  V30 4835 C 461.346 -2.03972 -0.543943 0
M  V30 4836 O 460.694 -1.71545 -1.50946 0
M  V30 4837 C 460.904 -2.97094 1.83128 0
M  V30 4838 C 462.252 -3.70071 2.08165 0
M  V30 4839 O 463.276 -3.07081 1.80498 0
M  V30 4840 O 462.135 -4.83376 2.54971 0
M  V30 4841 H 459.229 -0.747386 0.354039 0
M  V30 4842 H 461.775 -1.05967 1.32549 0
M  V30 4843 H 460.547 -2.69407 2.83788 0
M  V30 4844 H 460.17 -3.70204 1.45034 0
M  V30 4845 N 461.167 -1.02423 -1.1978 0
M  V30 4846 C 462.414 -0.717988 -1.89344 0
M  V30 4847 C 462.742 0.753036 -1.79331 0
M  V30 4848 O 461.997 1.56355 -1.17692 0
M  V30 4849 C 462.296 -1.1088 -3.39765 0
M  V30 4850 C 461.962 -2.57731 -3.6998 0
M  V30 4851 C 460.624 -2.97854 -3.77937 0
M  V30 4852 C 462.976 -3.52763 -3.83677 0
M  V30 4853 C 460.304 -4.31931 -3.97054 0
M  V30 4854 C 462.656 -4.86538 -4.04306 0
M  V30 4855 C 461.32 -5.26356 -4.10494 0
M  V30 4856 H 460.59 -0.26273 -0.692859 0
M  V30 4857 H 463.237 -1.28623 -1.41875 0
M  V30 4858 H 461.542 -0.459094 -3.89101 0
M  V30 4859 H 463.239 -0.849432 -3.919 0
M  V30 4860 H 459.829 -2.25646 -3.64393 0
M  V30 4861 H 464.013 -3.2292 -3.76877 0
M  V30 4862 H 459.269 -4.62324 -4.00083 0
M  V30 4863 H 463.443 -5.60093 -4.13846 0
M  V30 4864 H 461.07 -6.3026 -4.2506 0
M  V30 4865 N 462.645 1.35699 -0.801477 0
M  V30 4866 C 463.595 2.2728 -0.181073 0
M  V30 4867 C 464.579 1.47533 0.642098 0
M  V30 4868 O 465.771 1.69785 0.500193 0
M  V30 4869 C 462.9 3.36626 0.673612 0
M  V30 4870 C 461.986 4.23802 -0.159008 0
M  V30 4871 N 462.377 4.90879 -1.2195 0
M  V30 4872 C 460.675 4.45959 0.0602005 0
M  V30 4873 C 461.376 5.5546 -1.72738 0
M  V30 4874 N 460.352 5.33663 -1.03465 0
M  V30 4875 H 464.154 2.76632 -0.992582 0
M  V30 4876 H 461.668 1.49166 -0.642127 0
M  V30 4877 H 463.665 4.01179 1.13408 0
M  V30 4878 H 462.325 2.88828 1.48353 0
M  V30 4879 H 463.336 4.92497 -1.60209 0
M  V30 4880 H 460.013 4.08969 0.839664 0
M  V30 4881 H 461.403 6.18991 -2.61342 0
M  V30 4882 N 464.123 0.554532 1.47522 0
M  V30 4883 C 465.372 0.0273458 2.01681 0
M  V30 4884 C 465.685 -1.32962 1.43459 0
M  V30 4885 O 466.891 -1.94657 1.89265 0
M  V30 4886 C 465.347 -0.00159057 3.599 0
M  V30 4887 C 464.955 1.35197 4.27113 0
M  V30 4888 C 466.699 -0.476311 4.21819 0
M  V30 4889 C 464.606 1.28229 5.77331 0
M  V30 4890 H 463.536 0.00645269 0.753972 0
M  V30 4891 H 466.187 0.701985 1.69542 0
M  V30 4892 H 464.569 -0.741821 3.8899 0
M  V30 4893 H 465.743 2.1097 4.09668 0
M  V30 4894 H 464.058 1.76441 3.77171 0
M  V30 4895 H 466.655 -0.5468 5.31897 0
M  V30 4896 H 466.998 -1.4877 3.8881 0
M  V30 4897 H 467.531 0.20898 3.97251 0
M  V30 4898 H 464.27 2.26959 6.14955 0
M  V30 4899 H 463.79 0.566314 5.97121 0
M  V30 4900 H 465.469 0.983226 6.39485 0
M  V30 4901 N 465.601 -1.54893 0.290851 0
M  V30 4902 C 466.847 -2.0023 -0.321867 0
M  V30 4903 C 467.18 -1.179 -1.54316 0
M  V30 4904 O 466.455 -0.25293 -1.92848 0
M  V30 4905 C 466.738 -3.53456 -0.688515 0
M  V30 4906 C 466.591 -4.46532 0.541209 0
M  V30 4907 C 467.91 -4.13057 -1.51895 0
M  V30 4908 H 465.029 -0.727891 -0.115515 0
M  V30 4909 H 467.671 -1.85722 0.400931 0
M  V30 4910 H 465.821 -3.6595 -1.30433 0
M  V30 4911 H 467.493 -4.4596 1.17973 0
M  V30 4912 H 465.736 -4.17545 1.17636 0
M  V30 4913 H 466.407 -5.51475 0.240675 0
M  V30 4914 H 468.883 -4.03937 -0.99872 0
M  V30 4915 H 467.759 -5.20448 -1.74429 0
M  V30 4916 H 468.02 -3.64284 -2.50498 0
M  V30 4917 N 467.08 -0.0183926 -1.57589 0
M  V30 4918 C 468.027 0.967022 -2.09565 0
M  V30 4919 C 468.997 1.32983 -0.995225 0
M  V30 4920 O 470.182 1.42501 -1.26878 0
M  V30 4921 C 467.322 2.24772 -2.61861 0
M  V30 4922 C 466.435 1.94232 -3.85873 0
M  V30 4923 C 465.57 3.16518 -4.26603 0
M  V30 4924 C 464.609 2.81748 -5.43401 0
M  V30 4925 N 463.746 3.96626 -5.79338 0
M  V30 4926 H 468.586 0.516874 -2.93483 0
M  V30 4927 H 466.123 0.243544 -1.4507 0
M  V30 4928 H 468.081 2.99667 -2.90268 0
M  V30 4929 H 466.711 2.67423 -1.8079 0
M  V30 4930 H 465.763 1.09625 -3.64262 0
M  V30 4931 H 467.075 1.64616 -4.70853 0
M  V30 4932 H 466.229 3.99743 -4.56389 0
M  V30 4933 H 464.968 3.49286 -3.40368 0
M  V30 4934 H 463.973 1.96933 -5.1332 0
M  V30 4935 H 465.198 2.50207 -6.31327 0
M  V30 4936 H 463.144 4.29257 -4.96059 0
M  V30 4937 H 463.061 3.70598 -6.58933 0
M  V30 4938 H 464.329 4.80586 -6.13724 0
M  V30 4939 N 468.558 1.5553 0.254621 0
M  V30 4940 C 469.488 1.9268 1.31897 0
M  V30 4941 C 470.469 0.790797 1.506 0
M  V30 4942 O 471.654 1.05045 1.63337 0
M  V30 4943 C 468.784 2.21477 2.67517 0
M  V30 4944 C 467.738 3.37256 2.63519 0
M  V30 4945 C 467.064 3.51576 4.02862 0
M  V30 4946 C 468.364 4.73157 2.21179 0
M  V30 4947 H 470.058 2.81832 1.01051 0
M  V30 4948 H 467.604 1.35599 0.484662 0
M  V30 4949 H 469.557 2.46055 3.42104 0
M  V30 4950 H 468.281 1.29144 2.99982 0
M  V30 4951 H 466.94 3.12675 1.9139 0
M  V30 4952 H 466.588 2.56676 4.32581 0
M  V30 4953 H 466.288 4.2943 4.01078 0
M  V30 4954 H 467.812 3.78467 4.79161 0
M  V30 4955 H 469.226 4.97158 2.85494 0
M  V30 4956 H 467.623 5.54058 2.30521 0
M  V30 4957 H 468.693 4.70739 1.16332 0
M  V30 4958 N 470.036 -0.519951 1.48776 0
M  V30 4959 C 471.447 -1.10177 1.50725 0
M  V30 4960 C 471.798 -1.94153 0.282678 0
M  V30 4961 O 470.923 -2.07645 -0.609298 0
M  V30 4962 C 471.518 -2.00482 2.73116 0
M  V30 4963 C 470.077 -2.53862 2.77905 0
M  V30 4964 C 469.224 -1.31047 2.44381 0
M  V30 4965 H 472.175 -0.30473 1.55747 0
M  V30 4966 H 472.196 -2.8491 2.52203 0
M  V30 4967 H 471.708 -1.39335 3.62225 0
M  V30 4968 H 469.809 -3.18702 1.93029 0
M  V30 4969 H 469.922 -2.9231 3.79594 0
M  V30 4970 H 468.286 -1.62953 1.95751 0
M  V30 4971 H 469.069 -0.71637 3.35743 0
M  V30 4972 N 471.514 -1.37532 -0.769588 0
M  V30 4973 C 472.444 -1.36172 -1.89682 0
M  V30 4974 C 473.425 -0.23001 -1.68538 0
M  V30 4975 O 474.61 -0.43069 -1.89364 0
M  V30 4976 C 471.74 -1.1701 -3.26995 0
M  V30 4977 C 470.694 -2.27216 -3.62708 0
M  V30 4978 C 470.02 -1.93174 -4.98586 0
M  V30 4979 C 471.32 -3.6941 -3.69234 0
M  V30 4980 H 473.014 -2.30499 -1.91078 0
M  V30 4981 H 470.56 -1.10953 -0.917902 0
M  V30 4982 H 472.513 -1.14688 -4.05493 0
M  V30 4983 H 471.237 -0.191395 -3.26039 0
M  V30 4984 H 469.896 -2.28697 -2.86519 0
M  V30 4985 H 469.544 -0.938281 -4.94171 0
M  V30 4986 H 469.244 -2.66973 -5.23449 0
M  V30 4987 H 470.768 -1.92443 -5.79481 0
M  V30 4988 H 472.182 -3.70047 -4.37879 0
M  V30 4989 H 470.579 -4.4228 -4.05597 0
M  V30 4990 H 471.649 -4.0288 -2.69844 0
M  V30 4991 N 472.992 0.995999 -1.22138 0
M  V30 4992 C 473.922 2.10387 -1.01289 0
M  V30 4993 C 474.903 1.69975 0.0651454 0
M  V30 4994 O 476.088 1.9396 -0.0964628 0
M  V30 4995 C 473.218 3.42312 -0.586517 0
M  V30 4996 C 472.172 3.96558 -1.61014 0
M  V30 4997 C 471.498 5.24494 -1.0397 0
M  V30 4998 C 472.798 4.27595 -2.99933 0
M  V30 4999 H 474.492 2.28086 -1.93951 0
M  V30 5000 H 472.038 1.09607 -0.933928 0
M  V30 5001 H 473.991 4.19223 -0.427793 0
M  V30 5002 H 472.715 3.24431 0.375761 0
M  V30 5003 H 471.374 3.21776 -1.75658 0
M  V30 5004 H 471.022 5.02953 -0.0688703 0
M  V30 5005 H 470.722 5.61755 -1.72352 0
M  V30 5006 H 472.246 6.04042 -0.892494 0
M  V30 5007 H 473.66 4.95315 -2.8868 0
M  V30 5008 H 472.057 4.76021 -3.6541 0
M  V30 5009 H 473.127 3.35498 -3.50099 0
M  V30 5010 N 474.47 1.03057 1.19235 0
M  V30 5011 C 475.881 0.757449 1.70645 0
M  V30 5012 C 476.232 -0.722735 1.82403 0
M  V30 5013 O 475.357 -1.56325 1.49638 0
M  V30 5014 C 475.952 1.36833 3.09939 0
M  V30 5015 C 474.511 1.14375 3.58602 0
M  V30 5016 C 473.658 1.46533 2.35422 0
M  V30 5017 H 476.609 1.19828 1.04052 0
M  V30 5018 H 476.63 0.766184 3.72706 0
M  V30 5019 H 476.142 2.44562 3.01349 0
M  V30 5020 H 474.243 0.0847542 3.72504 0
M  V30 5021 H 474.356 1.83366 4.42622 0
M  V30 5022 H 472.72 0.884712 2.38841 0
M  V30 5023 H 473.503 2.55349 2.2946 0
M  V30 5024 N 475.948 -1.35272 0.808662 0
M  V30 5025 C 476.898 -2.27181 0.193124 0
M  V30 5026 C 477.882 -1.47871 -0.634265 0
M  V30 5027 O 479.074 -1.70048 -0.491182 0
M  V30 5028 C 476.203 -3.36979 -0.655751 0
M  V30 5029 C 475.289 -4.23712 0.181481 0
M  V30 5030 N 475.68 -4.90225 1.24551 0
M  V30 5031 C 473.978 -4.45985 -0.0365493 0
M  V30 5032 C 474.679 -5.54537 1.75682 0
M  V30 5033 N 473.655 -5.33107 1.06294 0
M  V30 5034 H 477.457 -2.76101 1.00724 0
M  V30 5035 H 474.971 -1.48823 0.650029 0
M  V30 5036 H 476.968 -4.01774 -1.11279 0
M  V30 5037 H 475.628 -2.89611 -1.46819 0
M  V30 5038 H 476.639 -4.91641 1.62818 0
M  V30 5039 H 473.316 -4.09409 -0.817964 0
M  V30 5040 H 474.706 -6.17597 2.64621 0
M  V30 5041 N 477.426 -0.562348 -1.47226 0
M  V30 5042 C 478.336 0.185466 -2.33866 0
M  V30 5043 C 479.352 0.906713 -1.48508 0
M  V30 5044 O 480.528 0.874458 -1.81425 0
M  V30 5045 C 477.593 1.19904 -3.25306 0
M  V30 5046 C 476.654 0.484669 -4.26555 0
M  V30 5047 C 475.887 1.44996 -5.13626 0
M  V30 5048 O 476.11 2.68515 -5.03245 0
M  V30 5049 O 475.044 0.971642 -5.94006 0
M  V30 5050 H 478.87 -0.525361 -2.99121 0
M  V30 5051 H 476.455 -0.322916 -1.45868 0
M  V30 5052 H 478.337 1.78399 -3.81774 0
M  V30 5053 H 477.012 1.8917 -2.62672 0
M  V30 5054 H 475.919 -0.141605 -3.73832 0
M  V30 5055 H 477.252 -0.166634 -4.91918 0
M  V30 5056 N 478.904 1.54736 -0.299062 0
M  V30 5057 C 480.15 2.00397 0.311244 0
M  V30 5058 C 480.483 1.18716 1.53688 0
M  V30 5059 O 479.758 0.263154 1.92712 0
M  V30 5060 C 480.041 3.53817 0.669761 0
M  V30 5061 C 479.894 4.46239 -0.564882 0
M  V30 5062 C 481.213 4.13856 1.49702 0
M  V30 5063 H 478.332 0.728493 0.111653 0
M  V30 5064 H 480.974 1.85506 -0.410774 0
M  V30 5065 H 479.124 3.66637 1.28491 0
M  V30 5066 H 480.796 4.45328 -1.20337 0
M  V30 5067 H 479.039 4.16916 -1.19849 0
M  V30 5068 H 479.71 5.5134 -0.269918 0
M  V30 5069 H 482.186 4.04461 0.977284 0
M  V30 5070 H 481.062 5.21365 1.71666 0
M  V30 5071 H 481.323 3.65608 2.48563 0
M  V30 5072 N 480.382 0.0267497 1.57577 0
M  V30 5073 C 481.798 -0.32962 1.56159 0
M  V30 5074 C 481.998 -1.73059 1.03213 0
M  V30 5075 O 481.054 -2.43233 0.677804 0
M  V30 5076 C 482.367 -0.18039 3.00158 0
M  V30 5077 C 483.915 -0.253334 3.11973 0
M  V30 5078 C 484.39 -0.132921 4.57807 0
M  V30 5079 N 485.881 -0.189979 4.6281 0
M  V30 5080 C 486.616 -0.120554 5.73273 0
M  V30 5081 N 486.112 -0.000180315 6.928 0
M  V30 5082 N 487.905 -0.174369 5.61829 0
M  V30 5083 H 480.056 0.942896 1.90324 0
M  V30 5084 H 482.319 0.3639 0.875375 0
M  V30 5085 H 482.025 0.784576 3.42837 0
M  V30 5086 H 481.899 -0.951565 3.65 0
M  V30 5087 H 484.286 -1.20876 2.69208 0
M  V30 5088 H 484.367 0.548177 2.49857 0
M  V30 5089 H 484.011 0.819073 5.01252 0
M  V30 5090 H 483.941 -0.953264 5.179 0
M  V30 5091 H 486.432 -0.283257 3.76837 0
M  V30 5092 H 486.745 0.0461666 7.72786 0
M  V30 5093 H 485.09 0.034569 6.94991 0
M  V30 5094 H 488.281 -0.266794 4.67339 0
M  V30 5095 H 488.454 -0.116802 6.47895 0
M  V30 5096 N 481.861 -1.55662 -0.24637 0
M  V30 5097 C 483.109 -1.77168 -0.972411 0
M  V30 5098 C 483.43 -0.590827 -1.85834 0
M  V30 5099 O 482.7 0.393365 -1.9191 0
M  V30 5100 H 481.28 -0.653405 -0.362038 0
M  V30 5101 H 483.942 -1.93101 -0.264189 0
M  V30 5102 H 483.038 -2.68335 -1.59382 0
M  V30 5103 N 483.339 0.512053 -1.4905 0
M  V30 5104 C 484.302 1.59704 -1.64399 0
M  V30 5105 C 485.302 1.52285 -0.516317 0
M  V30 5106 O 486.492 1.55635 -0.782527 0
M  V30 5107 C 483.624 2.9935 -1.63102 0
M  V30 5108 H 484.817 1.47428 -2.61161 0
M  V30 5109 H 482.37 0.735469 -1.37915 0
M  V30 5110 H 483.105 3.17116 -0.678836 0
M  V30 5111 H 482.89 3.06144 -2.44986 0
M  V30 5112 H 484.38 3.782 -1.77072 0
M  V30 5113 N 484.817 1.37938 0.762283 0
M  V30 5114 C 486.094 1.24196 1.51112 0
M  V30 5115 C 486.474 -0.160409 2.1049 0
M  V30 5116 O 485.822 -1.16904 1.96331 0
M  V30 5117 C 486.032 2.34537 2.58445 0
M  V30 5118 C 487.38 2.7254 3.25588 0
M  V30 5119 O 488.404 2.33783 2.68745 0
M  V30 5120 O 487.263 3.39343 4.28379 0
M  V30 5121 H 484.357 0.485175 0.669727 0
M  V30 5122 H 486.903 1.49743 0.798438 0
M  V30 5123 H 485.675 3.28406 2.12756 0
M  V30 5124 H 485.298 2.10505 3.37303 0
M  V30 5125 N 486.295 -0.989507 1.22664 0
M  V30 5126 C 487.242 -2.08024 0.999733 0
M  V30 5127 C 488.212 -1.65909 -0.0797047 0
M  V30 5128 O 489.397 -1.90669 0.0705715 0
M  V30 5129 C 486.537 -3.40067 0.587234 0
M  V30 5130 C 485.65 -3.95505 1.73781 0
M  V30 5131 C 484.785 -5.15722 1.27297 0
M  V30 5132 C 483.824 -5.63305 2.39488 0
M  V30 5133 N 482.961 -6.74758 1.94026 0
M  V30 5134 H 487.801 -2.26768 1.9334 0
M  V30 5135 H 485.338 -1.11171 0.963297 0
M  V30 5136 H 487.296 -4.15899 0.329227 0
M  V30 5137 H 485.926 -3.21314 -0.309426 0
M  V30 5138 H 484.978 -3.16513 2.11006 0
M  V30 5139 H 486.29 -4.26797 2.58158 0
M  V30 5140 H 485.444 -5.98854 0.972546 0
M  V30 5141 H 484.183 -4.86061 0.399445 0
M  V30 5142 H 483.188 -4.78759 2.70315 0
M  V30 5143 H 484.413 -5.94988 3.27362 0
M  V30 5144 H 482.359 -6.46874 1.09041 0
M  V30 5145 H 482.276 -7.05386 2.71968 0
M  V30 5146 H 483.544 -7.61387 1.67062 0
M  V30 5147 N 487.773 -1.03688 -1.18687 0
M  V30 5148 C 489.019 -0.739123 -1.88851 0
M  V30 5149 C 489.352 0.731042 -1.79915 0
M  V30 5150 O 488.627 1.53313 -1.19688 0
M  V30 5151 C 488.91 -1.20106 -3.3948 0
M  V30 5152 C 488.763 -2.73304 -3.57246 0
M  V30 5153 C 490.082 -0.788134 -4.32986 0
M  V30 5154 H 487.201 -0.269978 -0.68577 0
M  V30 5155 H 489.843 -1.28822 -1.3966 0
M  V30 5156 H 487.993 -0.733915 -3.81505 0
M  V30 5157 H 489.665 -3.28027 -3.24339 0
M  V30 5158 H 487.908 -3.13313 -3.00029 0
M  V30 5159 H 488.579 -3.00684 -4.62918 0
M  V30 5160 H 491.055 -1.19005 -3.98719 0
M  V30 5161 H 489.931 -1.13915 -5.36949 0
M  V30 5162 H 490.192 0.308988 -4.41019 0
M  V30 5163 N 489.251 1.34841 -0.815825 0
M  V30 5164 C 490.199 2.31549 -0.220888 0
M  V30 5165 C 491.193 1.5707 0.634457 0
M  V30 5166 O 492.399 1.72125 0.526589 0
M  V30 5167 H 488.774 0.750153 -0.0526782 0
M  V30 5168 H 490.745 2.7926 -1.05149 0
M  V30 5169 C 489.494 3.42335 0.608427 0
M  V30 5170 H 488.817 3.9978 -0.0404121 0
M  V30 5171 H 490.257 4.12258 0.990931 0
M  V30 5172 C 488.716 2.86173 1.77782 0
M  V30 5173 O 489.246 2.80474 2.87571 0
M  V30 5174 N 487.452 2.43093 1.59229 0
M  V30 5175 H 486.999 2.47928 0.699237 0
M  V30 5176 H 486.957 2.05866 2.37627 0
M  V30 5177 N 490.729 0.570148 1.46925 0
M  V30 5178 C 491.957 0.0561966 2.06824 0
M  V30 5179 C 492.372 -1.24326 1.42086 0
M  V30 5180 O 491.729 -1.74882 0.521794 0
M  V30 5181 C 491.78 -0.129517 3.61268 0
M  V30 5182 O 491.501 1.1185 4.23581 0
M  V30 5183 C 493.002 -0.679266 4.38065 0
M  V30 5184 H 490.222 0.0517261 0.669003 0
M  V30 5185 H 492.766 0.787243 1.8874 0
M  V30 5186 H 490.921 -0.810739 3.78822 0
M  V30 5187 H 491.335 0.924375 5.1629 0
M  V30 5188 H 492.809 -0.758445 5.46765 0
M  V30 5189 H 493.286 -1.69346 4.05239 0
M  V30 5190 H 493.892 -0.0333237 4.25287 0
M  V30 5191 N 492.207 -1.54576 0.307264 0
M  V30 5192 C 493.454 -2.00263 -0.300167 0
M  V30 5193 C 493.782 -1.19561 -1.53413 0
M  V30 5194 O 493.037 -0.261487 -1.93945 0
M  V30 5195 C 493.336 -3.50572 -0.695253 0
M  V30 5196 C 493.002 -4.48771 0.437679 0
M  V30 5197 C 491.664 -4.7534 0.748681 0
M  V30 5198 C 494.016 -5.0721 1.19949 0
M  V30 5199 C 491.344 -5.5761 1.8245 0
M  V30 5200 C 493.696 -5.90651 2.26527 0
M  V30 5201 C 492.36 -6.15528 2.58227 0
M  V30 5202 H 491.63 -0.732814 -0.109839 0
M  V30 5203 H 494.277 -1.86664 0.427661 0
M  V30 5204 H 492.582 -3.61814 -1.50326 0
M  V30 5205 H 494.279 -3.83352 -1.17653 0
M  V30 5206 H 490.869 -4.282 0.185187 0
M  V30 5207 H 495.053 -4.86679 0.972474 0
M  V30 5208 H 490.309 -5.75121 2.07476 0
M  V30 5209 H 494.483 -6.34957 2.86011 0
M  V30 5210 H 492.11 -6.79066 3.4172 0
M  V30 5211 N 493.685 -0.035106 -1.57561 0
M  V30 5212 C 494.91 0.655802 -1.96759 0
M  V30 5213 C 495.335 1.64523 -0.911809 0
M  V30 5214 O 494.693 1.80857 0.126673 0
M  V30 5215 C 494.741 1.33326 -3.35047 0
M  V30 5216 O 493.845 2.44866 -3.31835 0
M  V30 5217 H 493.186 0.171807 -0.641388 0
M  V30 5218 H 495.716 -0.0987369 -2.04362 0
M  V30 5219 H 495.726 1.68867 -3.71413 0
M  V30 5220 H 494.401 0.608033 -4.11431 0
M  V30 5221 H 492.978 2.11392 -3.07193 0
M  V30 5222 N 495.163 1.55791 0.238111 0
M  V30 5223 C 496.126 1.90239 1.27835 0
M  V30 5224 C 497.126 0.779552 1.4064 0
M  V30 5225 O 498.316 1.04747 1.3919 0
M  V30 5226 C 495.448 2.13859 2.65475 0
M  V30 5227 H 496.641 2.83262 0.985034 0
M  V30 5228 H 494.194 1.48818 0.477799 0
M  V30 5229 H 494.929 1.23334 2.99932 0
M  V30 5230 H 494.714 2.95643 2.57561 0
M  V30 5231 H 496.204 2.41664 3.40571 0
M  V30 5232 N 496.642 -0.504142 1.49319 0
M  V30 5233 C 497.572 -1.61473 1.68667 0
M  V30 5234 C 498.553 -1.61455 0.535378 0
M  V30 5235 O 499.738 -1.78245 0.770868 0
M  V30 5236 C 496.868 -2.99971 1.75028 0
M  V30 5237 C 495.822 -3.14854 2.89916 0
M  V30 5238 C 495.148 -4.54671 2.81387 0
M  V30 5239 C 496.448 -2.95176 4.30893 0
M  V30 5240 H 498.142 -1.45535 2.61648 0
M  V30 5241 H 495.688 -0.698711 1.25913 0
M  V30 5242 H 497.641 -3.77562 1.8715 0
M  V30 5243 H 496.365 -3.1699 0.786441 0
M  V30 5244 H 495.024 -2.39687 2.77391 0
M  V30 5245 H 494.672 -4.68562 1.82917 0
M  V30 5246 H 494.372 -4.6557 3.58494 0
M  V30 5247 H 495.896 -5.34327 2.95512 0
M  V30 5248 H 497.31 -3.62538 4.44116 0
M  V30 5249 H 495.707 -3.17549 5.09198 0
M  V30 5250 H 496.777 -1.91332 4.45556 0
M  V30 5251 N 498.12 -1.38341 -0.754957 0
M  V30 5252 C 499.05 -1.38176 -1.88227 0
M  V30 5253 C 500.031 -0.247873 -1.68284 0
M  V30 5254 O 501.216 -0.45075 -1.88896 0
M  V30 5255 C 498.346 -1.20471 -3.25736 0
M  V30 5256 C 497.3 -2.3105 -3.60278 0
M  V30 5257 C 496.626 -1.98452 -4.96509 0
M  V30 5258 C 497.926 -3.73305 -3.65295 0
M  V30 5259 H 499.62 -2.32512 -1.88622 0
M  V30 5260 H 497.166 -1.1192 -0.906082 0
M  V30 5261 H 499.119 -1.18982 -4.04254 0
M  V30 5262 H 497.843 -0.225965 -3.25817 0
M  V30 5263 H 496.502 -2.31723 -2.84078 0
M  V30 5264 H 496.15 -0.990641 -4.93148 0
M  V30 5265 H 495.85 -2.7251 -5.20588 0
M  V30 5266 H 497.374 -1.98578 -5.77407 0
M  V30 5267 H 498.788 -3.7467 -4.3393 0
M  V30 5268 H 497.185 -4.46557 -4.00883 0
M  V30 5269 H 498.255 -4.05719 -2.65556 0
M  V30 5270 N 499.598 0.982988 -1.23187 0
M  V30 5271 C 500.528 2.09301 -1.03515 0
M  V30 5272 C 501.509 1.70035 0.0471136 0
M  V30 5273 O 502.694 1.93847 -0.117029 0
M  V30 5274 C 499.824 3.4167 -0.622791 0
M  V30 5275 C 498.778 3.94828 -1.65211 0
M  V30 5276 C 498.104 5.23362 -1.09527 0
M  V30 5277 C 499.404 4.2439 -3.04451 0
M  V30 5278 H 501.098 2.26016 -1.96359 0
M  V30 5279 H 498.644 1.08611 -0.945501 0
M  V30 5280 H 500.597 4.18746 -0.472233 0
M  V30 5281 H 499.321 3.24811 0.341329 0
M  V30 5282 H 497.98 3.19895 -1.79061 0
M  V30 5283 H 497.628 5.02852 -0.122211 0
M  V30 5284 H 497.328 5.59895 -1.783 0
M  V30 5285 H 498.852 6.03062 -0.956511 0
M  V30 5286 H 500.266 4.92225 -2.93917 0
M  V30 5287 H 498.663 4.72118 -3.70438 0
M  V30 5288 H 499.733 3.31765 -3.53638 0
M  V30 5289 N 501.076 1.04316 1.18135 0
M  V30 5290 C 501.986 0.646876 2.25505 0
M  V30 5291 C 503.002 -0.328008 1.7088 0
M  V30 5292 O 504.178 -0.182309 2.00573 0
M  V30 5293 C 501.243 0.0185664 3.46695 0
M  V30 5294 C 500.304 1.04277 4.16443 0
M  V30 5295 C 499.537 0.444352 5.31847 0
M  V30 5296 O 499.76 -0.748735 5.65465 0
M  V30 5297 O 498.694 1.17428 5.90334 0
M  V30 5298 H 502.52 1.54147 2.61672 0
M  V30 5299 H 500.105 0.814188 1.25265 0
M  V30 5300 H 501.987 -0.331068 4.20097 0
M  V30 5301 H 500.662 -0.849814 3.12346 0
M  V30 5302 H 499.569 1.44425 3.45098 0
M  V30 5303 H 500.902 1.882 4.54798 0
M  V30 5304 N 502.554 -1.34406 0.822964 0
M  V30 5305 C 503.965 -1.8069 0.469879 0
M  V30 5306 C 504.316 -1.68223 -1.00972 0
M  V30 5307 O 503.441 -1.22226 -1.78577 0
M  V30 5308 C 504.036 -3.28064 0.846118 0
M  V30 5309 C 502.595 -3.72428 0.545402 0
M  V30 5310 C 501.742 -2.56116 1.06301 0
M  V30 5311 H 504.693 -1.22153 1.01313 0
M  V30 5312 H 504.714 -3.80205 0.149922 0
M  V30 5313 H 504.226 -3.37107 1.92304 0
M  V30 5314 H 502.327 -3.68924 -0.522109 0
M  V30 5315 H 502.44 -4.66548 1.0895 0
M  V30 5316 H 500.804 -2.50048 0.484554 0
M  V30 5317 H 501.587 -2.67928 2.14638 0
M  V30 5318 N 504.032 -0.577932 -1.46621 0
M  V30 5319 C 505.262 -0.0670668 -2.06491 0
M  V30 5320 C 505.67 1.24119 -1.42798 0
M  V30 5321 O 505.013 1.76016 -0.525759 0
M  V30 5322 C 505.075 0.177995 -3.59059 0
M  V30 5323 C 504.739 -1.04394 -4.44917 0
M  V30 5324 C 505.736 -1.95479 -4.81751 0
M  V30 5325 C 503.421 -1.26444 -4.86125 0
M  V30 5326 C 505.415 -3.06965 -5.58615 0
M  V30 5327 C 503.102 -2.38237 -5.62749 0
M  V30 5328 C 504.1 -3.28327 -5.98908 0
M  V30 5329 O 503.788 -4.38179 -6.73984 0
M  V30 5330 H 503.52 -0.0523159 -0.673973 0
M  V30 5331 H 506.074 -0.796966 -1.89308 0
M  V30 5332 H 504.304 0.962451 -3.74531 0
M  V30 5333 H 505.993 0.636782 -4.00874 0
M  V30 5334 H 506.759 -1.79657 -4.50498 0
M  V30 5335 H 502.638 -0.572316 -4.57434 0
M  V30 5336 H 506.182 -3.77309 -5.86757 0
M  V30 5337 H 502.079 -2.54023 -5.93416 0
M  V30 5338 H 502.847 -4.36486 -6.92403 0
M  V30 5339 N 505.51 1.54411 -0.315457 0
M  V30 5340 C 506.457 2.24048 0.554166 0
M  V30 5341 C 507.427 1.2283 1.11812 0
M  V30 5342 O 508.612 1.51491 1.15997 0
M  V30 5343 C 505.752 2.99574 1.71316 0
M  V30 5344 C 504.865 4.15594 1.17922 0
M  V30 5345 C 504 4.78669 2.30324 0
M  V30 5346 C 503.039 5.86807 1.74137 0
M  V30 5347 N 502.176 6.43777 2.8017 0
M  V30 5348 H 507.016 2.97964 -0.0462602 0
M  V30 5349 H 504.553 1.47059 -0.0346009 0
M  V30 5350 H 506.511 3.41604 2.39505 0
M  V30 5351 H 505.141 2.28008 2.285 0
M  V30 5352 H 504.193 3.78404 0.389136 0
M  V30 5353 H 505.505 4.93459 0.728012 0
M  V30 5354 H 504.659 5.23626 3.06433 0
M  V30 5355 H 503.398 4.00168 2.78778 0
M  V30 5356 H 502.403 5.41261 0.965236 0
M  V30 5357 H 503.628 6.67201 1.2657 0
M  V30 5358 H 501.574 5.68153 3.2793 0
M  V30 5359 H 501.491 7.17031 2.39588 0
M  V30 5360 H 502.759 6.9339 3.56132 0
M  V30 5361 N 506.988 0.0434614 1.5754 0
M  V30 5362 C 508.399 -0.493343 1.80064 0
M  V30 5363 C 508.75 -1.71388 0.955023 0
M  V30 5364 O 507.875 -2.15736 0.169434 0
M  V30 5365 C 508.47 -0.90179 3.26578 0
M  V30 5366 C 507.029 -1.38362 3.50047 0
M  V30 5367 C 506.176 -0.355129 2.75017 0
M  V30 5368 H 509.127 0.2694 1.56397 0
M  V30 5369 H 509.148 -1.76523 3.37075 0
M  V30 5370 H 508.66 -0.013271 3.88098 0
M  V30 5371 H 506.761 -2.29159 2.93798 0
M  V30 5372 H 506.874 -1.3811 4.58762 0
M  V30 5373 H 505.238 -0.826348 2.40922 0
M  V30 5374 H 506.021 0.525172 3.39259 0
M  V30 5375 N 508.466 -1.55915 -0.229846 0
M  V30 5376 C 509.877 -1.68809 -0.797531 0
M  V30 5377 C 510.228 -0.643995 -1.8533 0
M  V30 5378 O 509.353 0.206492 -2.15413 0
M  V30 5379 C 509.948 -3.06043 -1.45338 0
M  V30 5380 C 508.507 -3.20819 -1.96856 0
M  V30 5381 C 507.654 -2.6472 -0.825736 0
M  V30 5382 H 510.605 -1.58699 -0.00533733 0
M  V30 5383 H 510.626 -3.01438 -2.32196 0
M  V30 5384 H 510.138 -3.82012 -0.684743 0
M  V30 5385 H 508.239 -2.49704 -2.76548 0
M  V30 5386 H 508.352 -4.27937 -2.15423 0
M  V30 5387 H 506.716 -2.22985 -1.23084 0
M  V30 5388 H 507.499 -3.43229 -0.0699019 0
M  V30 5389 N 509.944 0.496216 -1.49584 0
M  V30 5390 C 511.169 1.27865 -1.63295 0
M  V30 5391 C 511.594 1.85592 -0.306156 0
M  V30 5392 O 510.952 1.66092 0.726851 0
M  V30 5393 C 511 2.38128 -2.7079 0
M  V30 5394 O 510.104 3.42108 -2.30296 0
M  V30 5395 H 509.445 0.377279 -0.546403 0
M  V30 5396 H 511.975 0.593497 -1.95803 0
M  V30 5397 H 511.985 2.8382 -2.93104 0
M  V30 5398 H 510.66 1.95479 -3.67098 0
M  V30 5399 H 509.237 3.02301 -2.18331 0
M  V30 5400 N 511.423 1.38739 0.74761 0
M  V30 5401 C 512.386 1.36241 1.84312 0
M  V30 5402 C 513.386 0.261811 1.58654 0
M  V30 5403 O 514.576 0.519031 1.66288 0
M  V30 5404 C 511.708 1.12253 3.21888 0
M  V30 5405 H 512.901 2.33712 1.87933 0
M  V30 5406 H 510.454 1.2412 0.949946 0
M  V30 5407 H 511.189 0.154133 3.23934 0
M  V30 5408 H 510.974 1.91943 3.41907 0
M  V30 5409 H 512.464 1.13215 4.0196 0
M  V30 5410 N 512.901 -0.976442 1.23707 0
M  V30 5411 C 513.833 -2.07212 0.979574 0
M  V30 5412 C 514.846 -1.6273 -0.0478528 0
M  V30 5413 O 516.035 -1.77506 0.18815 0
M  V30 5414 C 513.135 -3.35835 0.45479 0
M  V30 5415 C 512.308 -4.09268 1.54331 0
M  V30 5416 C 511.367 -5.16166 1.02271 0
M  V30 5417 O 510.393 -5.42827 1.71254 0
M  V30 5418 N 511.595 -5.80313 -0.147419 0
M  V30 5419 H 514.36 -2.29878 1.92292 0
M  V30 5420 H 511.921 -1.14343 1.14618 0
M  V30 5421 H 513.913 -4.04597 0.0914631 0
M  V30 5422 H 512.483 -3.10106 -0.394068 0
M  V30 5423 H 511.703 -3.34906 2.07923 0
M  V30 5424 H 512.991 -4.55095 2.27522 0
M  V30 5425 H 512.389 -5.61043 -0.724353 0
M  V30 5426 H 510.946 -6.50231 -0.451972 0
M  V30 5427 O 514.418 -1.17461 -1.10838 0
M  V30 5428 H 515.109 -0.912283 -1.70872 0
M  V30 END ATOM
M  V30 BEGIN BOND
M  V30 END BOND
M  V30 END CTAB
M  END
$$$$
