drugbank_target|O43772 Mitochondrial carnitine/acylcarnitine carrier protein (DB00583)
 OpenBabel12092119353D

  0  0  0     0  0            999 V3000
M  V30 BEGIN CTAB
M  V30 COUNTS 4686 4749 0 0 0
M  V30 BEGIN ATOM
M  V30 1 H -0.908 1.98254 -0.117106 0
M  V30 2 N 0 1.576 0 0
M  V30 3 C 0.933 2.03868 1.02534 0
M  V30 4 C 1.911 0.928543 1.3348 0
M  V30 5 O 3.095 1.19667 1.45644 0
M  V30 6 C 0.222 2.43627 2.35294 0
M  V30 7 C -0.732 3.65373 2.2001 0
M  V30 8 S 0.101 5.13292 1.52614 0
M  V30 9 C 1.257 5.56322 2.86805 0
M  V30 10 H 1.49 2.90518 0.631377 0
M  V30 11 H -0.977 1.52953 0.210867 0
M  V30 12 H 0.981 2.67203 3.11629 0
M  V30 13 H -0.358 1.57376 2.7183 0
M  V30 14 H -1.165 3.90944 3.18086 0
M  V30 15 H -1.563 3.418 1.51819 0
M  V30 16 H 0.729 5.58782 3.83104 0
M  V30 17 H 1.672 6.56266 2.65933 0
M  V30 18 H 2.08 4.83886 2.90714 0
M  V30 19 N 1.4781 -0.272755 1.55222 0
M  V30 20 C 2.4411 -1.32041 1.87344 0
M  V30 21 C 3.4411 -1.42342 0.74803 0
M  V30 22 O 4.6311 -1.41488 1.0162 0
M  V30 23 C 1.7631 -2.70173 2.07893 0
M  V30 24 H 2.9561 -1.04789 2.80997 0
M  V30 25 H 0.5091 -0.51083 1.47717 0
M  V30 26 H 1.2441 -3.02605 1.16622 0
M  V30 27 H 1.0291 -2.64082 2.89833 0
M  V30 28 H 2.5191 -3.45869 2.34017 0
M  V30 29 N 2.9562 -1.48159 -0.537278 0
M  V30 30 C 4.2332 -1.46291 -1.29839 0
M  V30 31 C 4.6132 -0.170613 -2.10409 0
M  V30 32 O 3.9612 0.847746 -2.12192 0
M  V30 33 C 4.1712 -2.72055 -2.18603 0
M  V30 34 C 5.5192 -3.20087 -2.7898 0
M  V30 35 O 6.5432 -2.72921 -2.28894 0
M  V30 36 O 5.4022 -4.02138 -3.70064 0
M  V30 37 H 2.4962 -0.583906 -0.585647 0
M  V30 38 H 5.0422 -1.60384 -0.554534 0
M  V30 39 H 3.8142 -3.57628 -1.58801 0
M  V30 40 H 3.4372 -2.60646 -3.00249 0
M  V30 41 N 4.4343 0.785586 -1.36625 0
M  V30 42 C 5.3663 1.90711 -1.2713 0
M  V30 43 C 6.3793 1.61688 -0.189986 0
M  V30 44 O 7.5683 1.72864 -0.445014 0
M  V30 45 C 4.6683 3.25611 -0.939713 0
M  V30 46 C 3.8413 3.82385 -2.12369 0
M  V30 47 C 2.9003 4.95732 -1.76456 0
M  V30 48 O 1.9263 5.12047 -2.48589 0
M  V30 49 N 3.1283 5.76258 -0.700492 0
M  V30 50 H 5.8933 1.99376 -2.23762 0
M  V30 51 H 3.4543 0.964041 -1.30069 0
M  V30 52 H 5.4463 3.98937 -0.680554 0
M  V30 53 H 4.0163 3.12538 -0.0624074 0
M  V30 54 H 3.2363 3.01001 -2.54543 0
M  V30 55 H 4.5243 4.17047 -2.9146 0
M  V30 56 H 3.9223 5.65609 -0.101624 0
M  V30 57 H 2.4793 6.4987 -0.501165 0
M  V30 58 N 5.9124 1.20967 1.01018 0
M  V30 59 C 7.3234 1.02319 1.56165 0
M  V30 60 C 7.6744 -0.418546 1.91684 0
M  V30 61 O 6.7994 -1.30096 1.72928 0
M  V30 62 C 7.3944 1.85109 2.8376 0
M  V30 63 C 5.9534 1.70809 3.35412 0
M  V30 64 C 5.1004 1.82643 2.08655 0
M  V30 65 H 8.0514 1.35065 0.833255 0
M  V30 66 H 8.0724 1.35827 3.55431 0
M  V30 67 H 7.5844 2.90035 2.57878 0
M  V30 68 H 5.6854 0.685464 3.66241 0
M  V30 69 H 5.7984 2.52467 4.07182 0
M  V30 70 H 4.1624 1.25896 2.21409 0
M  V30 71 H 4.9454 2.89066 1.85191 0
M  V30 72 N 7.3905 -1.2043 1.01659 0
M  V30 73 C 8.3375 -2.23215 0.586822 0
M  V30 74 C 9.3075 -1.61382 -0.393085 0
M  V30 75 O 10.4925 -1.88544 -0.292525 0
M  V30 76 C 7.6325 -3.45032 -0.0687464 0
M  V30 77 C 6.7455 -4.21296 0.955724 0
M  V30 78 C 5.8805 -5.30507 0.271208 0
M  V30 79 C 4.9195 -5.98515 1.28244 0
M  V30 80 N 4.0565 -6.99316 0.62459 0
M  V30 81 H 8.8965 -2.59336 1.46796 0
M  V30 82 H 6.4335 -1.27431 0.734836 0
M  V30 83 H 8.3915 -4.1459 -0.465965 0
M  V30 84 H 7.0215 -3.09604 -0.913529 0
M  V30 85 H 6.0735 -3.50803 1.4711 0
M  V30 86 H 7.3855 -4.6803 1.72479 0
M  V30 87 H 6.5395 -6.06428 -0.18151 0
M  V30 88 H 5.2785 -4.8481 -0.530163 0
M  V30 89 H 4.2835 -5.21355 1.74554 0
M  V30 90 H 5.5085 -6.46298 2.08509 0
M  V30 91 H 3.4545 -6.55812 -0.156914 0
M  V30 92 H 3.3715 -7.44178 1.33172 0
M  V30 93 H 4.6395 -7.79255 0.195462 0
M  V30 94 N 8.8686 -0.792821 -1.36206 0
M  V30 95 C 10.2796 -0.429513 -1.81692 0
M  V30 96 C 10.6306 1.04695 -1.65932 0
M  V30 97 O 9.7556 1.81256 -1.18218 0
M  V30 98 C 10.3506 -0.772831 -3.29868 0
M  V30 99 C 8.9096 -0.462307 -3.7355 0
M  V30 100 C 8.0566 -1.00569 -2.5842 0
M  V30 101 H 11.0076 -0.985672 -1.24379 0
M  V30 102 H 11.0286 -0.0651928 -3.80444 0
M  V30 103 H 10.5406 -1.84747 -3.41307 0
M  V30 104 H 8.6416 0.604158 -3.67669 0
M  V30 105 H 8.7546 -0.985299 -4.68859 0
M  V30 106 H 7.1186 -0.428734 -2.51066 0
M  V30 107 H 7.9016 -2.08616 -2.72643 0
M  V30 108 N 10.3467 1.47872 -0.545128 0
M  V30 109 C 11.5957 2.01695 -0.0145033 0
M  V30 110 C 11.9087 1.42609 1.33873 0
M  V30 111 O 13.1147 1.88021 1.95858 0
M  V30 112 C 11.5707 3.59892 0.0245068 0
M  V30 113 C 11.1787 4.27966 -1.32475 0
M  V30 114 C 12.9227 4.21507 0.50316 0
M  V30 115 C 10.8297 5.78136 -1.2455 0
M  V30 116 H 9.7597 0.753998 -0.00165172 0
M  V30 117 H 12.4107 1.69985 -0.691175 0
M  V30 118 H 10.7927 3.88509 0.766575 0
M  V30 119 H 11.9667 4.11003 -2.08357 0
M  V30 120 H 10.2817 3.78286 -1.74036 0
M  V30 121 H 12.8787 5.31538 0.580656 0
M  V30 122 H 13.2217 3.87855 1.51243 0
M  V30 123 H 13.7547 3.97376 -0.183681 0
M  V30 124 H 10.4937 6.16388 -2.23039 0
M  V30 125 H 10.0137 5.97469 -0.528282 0
M  V30 126 H 11.6927 6.40099 -0.942488 0
M  V30 127 N 11.8248 0.280983 1.55075 0
M  V30 128 C 13.0498 -0.340154 2.04592 0
M  V30 129 C 13.4748 -1.48246 1.15779 0
M  V30 130 O 12.8328 -1.80614 0.15761 0
M  V30 131 C 12.8808 -0.793104 3.5177 0
M  V30 132 O 11.9848 -1.89981 3.66034 0
M  V30 133 H 11.3258 -0.0694289 0.66036 0
M  V30 134 H 13.8558 0.416993 2.00306 0
M  V30 135 H 13.8658 -1.08729 3.93245 0
M  V30 136 H 12.5408 0.0426163 4.15878 0
M  V30 137 H 11.1178 -1.60771 3.36463 0
M  V30 138 N 13.3029 -1.57598 0.00835791 0
M  V30 139 C 14.7139 -1.7892 -0.53333 0
M  V30 140 C 15.0649 -0.916609 -1.73473 0
M  V30 141 O 14.1899 -0.121336 -2.1606 0
M  V30 142 C 14.7849 -3.24488 -0.974313 0
M  V30 143 C 13.3439 -3.46878 -1.46125 0
M  V30 144 C 12.4909 -2.74157 -0.416302 0
M  V30 145 H 15.4419 -1.56958 0.234495 0
M  V30 146 H 15.4629 -3.3306 -1.83988 0
M  V30 147 H 14.9749 -3.87972 -0.099718 0
M  V30 148 H 13.0759 -2.8862 -2.35646 0
M  V30 149 H 13.1889 -4.55572 -1.48295 0
M  V30 150 H 11.5529 -2.39022 -0.87981 0
M  V30 151 H 12.3359 -3.40345 0.44947 0
M  V30 152 N 14.781 0.264519 -1.55364 0
M  V30 153 C 15.711 1.33121 -1.91836 0
M  V30 154 C 16.692 1.51101 -0.781192 0
M  V30 155 O 17.877 1.64003 -1.04003 0
M  V30 156 C 15.007 2.68921 -2.19769 0
M  V30 157 C 13.961 2.65661 -3.35571 0
M  V30 158 C 13.287 4.05093 -3.49004 0
M  V30 159 C 14.587 2.24187 -4.71739 0
M  V30 160 H 16.281 1.02844 -2.81182 0
M  V30 161 H 13.827 0.493286 -1.35287 0
M  V30 162 H 15.78 3.43663 -2.43872 0
M  V30 163 H 14.504 3.00799 -1.27231 0
M  V30 164 H 13.163 1.93377 -3.1145 0
M  V30 165 H 12.811 4.34206 -2.53917 0
M  V30 166 H 12.511 4.03804 -4.26868 0
M  V30 167 H 14.035 4.81561 -3.75408 0
M  V30 168 H 15.449 2.88654 -4.9533 0
M  V30 169 H 13.846 2.34044 -5.52579 0
M  V30 170 H 14.916 1.19327 -4.69988 0
M  V30 171 N 16.2591 1.48442 0.529413 0
M  V30 172 C 17.2061 1.63007 1.63394 0
M  V30 173 C 18.1761 0.47212 1.59249 0
M  V30 174 O 19.3611 0.695673 1.77666 0
M  V30 175 C 16.5011 1.6763 3.01653 0
M  V30 176 C 15.6141 2.94535 3.16027 0
M  V30 177 C 14.7491 2.90316 4.44849 0
M  V30 178 C 13.7881 4.11923 4.52754 0
M  V30 179 N 12.9251 4.05777 5.72965 0
M  V30 180 H 17.7651 2.5733 1.50285 0
M  V30 181 H 15.3021 1.27613 0.731656 0
M  V30 182 H 17.2601 1.68292 3.81751 0
M  V30 183 H 15.8901 0.76797 3.13532 0
M  V30 184 H 14.9421 3.03615 2.29177 0
M  V30 185 H 16.2541 3.84512 3.17729 0
M  V30 186 H 15.4081 2.89382 5.33238 0
M  V30 187 H 14.1471 1.98068 4.45668 0
M  V30 188 H 13.1521 4.13131 3.62771 0
M  V30 189 H 14.3771 5.0533 4.53672 0
M  V30 190 H 12.3231 3.16351 5.74681 0
M  V30 191 H 12.2401 4.8946 5.76164 0
M  V30 192 H 13.5081 4.08904 6.6364 0
M  V30 193 N 17.7372 -0.778329 1.37039 0
M  V30 194 C 18.6852 -1.91278 1.32345 0
M  V30 195 C 19.6792 -1.68051 0.213331 0
M  V30 196 O 20.8852 -1.75922 0.38098 0
M  V30 197 H 17.2602 -0.628909 0.412283 0
M  V30 198 H 19.2312 -1.92355 2.28127 0
M  V30 199 C 17.9802 -3.28455 1.14073 0
M  V30 200 H 17.3032 -3.46901 1.98746 0
M  V30 201 H 18.7432 -4.08152 1.14837 0
M  V30 202 C 17.2022 -3.36548 -0.154015 0
M  V30 203 O 17.7322 -3.85186 -1.13993 0
M  V30 204 N 15.9382 -2.89894 -0.202475 0
M  V30 205 H 15.4852 -2.50504 0.600476 0
M  V30 206 H 15.4432 -2.9569 -1.06841 0
M  V30 207 N 19.2153 -1.21501 -1.00376 0
M  V30 208 C 20.1453 -0.999478 -2.11028 0
M  V30 209 C 21.1263 0.0759671 -1.6993 0
M  V30 210 O 22.3113 -0.0841106 -1.94018 0
M  V30 211 C 19.4413 -0.564709 -3.42678 0
M  V30 212 C 18.3953 -1.58486 -3.97576 0
M  V30 213 C 17.7213 -1.00628 -5.25146 0
M  V30 214 C 19.0213 -2.97204 -4.29496 0
M  V30 215 H 20.7153 -1.92495 -2.29317 0
M  V30 216 H 18.2613 -0.92693 -1.102 0
M  V30 217 H 20.2143 -0.401091 -4.19487 0
M  V30 218 H 18.9383 0.396411 -3.24185 0
M  V30 219 H 17.5973 -1.73606 -3.22888 0
M  V30 220 H 17.2453 -0.0368439 -5.02987 0
M  V30 221 H 16.9453 -1.68771 -5.62841 0
M  V30 222 H 18.4693 -0.854015 -6.04598 0
M  V30 223 H 19.8833 -2.8552 -4.97143 0
M  V30 224 H 18.2803 -3.62372 -4.78338 0
M  V30 225 H 19.3503 -3.47956 -3.3772 0
M  V30 226 N 20.6934 1.19889 -1.02296 0
M  V30 227 C 21.6234 2.25141 -0.619174 0
M  V30 228 C 22.6044 1.66051 0.368915 0
M  V30 229 O 23.7894 1.92546 0.252941 0
M  V30 230 C 20.9194 3.4728 0.0368783 0
M  V30 231 C 19.8734 4.19005 -0.872865 0
M  V30 232 C 19.1994 5.34637 -0.0822402 0
M  V30 233 C 20.4994 4.74452 -2.18387 0
M  V30 234 H 22.1934 2.59171 -1.49903 0
M  V30 235 H 19.7394 1.24579 -0.722222 0
M  V30 236 H 21.6924 4.20098 0.330958 0
M  V30 237 H 20.4164 3.12433 0.95149 0
M  V30 238 H 19.0754 3.48061 -1.15105 0
M  V30 239 H 18.7234 4.96034 0.83422 0
M  V30 240 H 18.4234 5.83557 -0.688149 0
M  V30 241 H 19.9474 6.10255 0.205238 0
M  V30 242 H 21.3614 5.39055 -1.95172 0
M  V30 243 H 19.7584 5.33834 -2.74119 0
M  V30 244 H 20.8284 3.92844 -2.84257 0
M  V30 245 N 22.1715 0.800033 1.35784 0
M  V30 246 C 23.1345 0.211565 2.28221 0
M  V30 247 C 24.1345 -0.59728 1.49296 0
M  V30 248 O 25.3245 -0.416721 1.69142 0
M  V30 249 C 22.4565 -0.705846 3.33513 0
M  V30 250 H 23.6495 1.02677 2.81776 0
M  V30 251 H 21.2025 0.570211 1.45528 0
M  V30 252 H 21.9375 -1.54498 2.85133 0
M  V30 253 H 21.7225 -0.127655 3.91892 0
M  V30 254 H 23.2125 -1.11211 4.02519 0
M  V30 255 N 23.6496 -1.47581 0.552962 0
M  V30 256 C 24.8976 -2.02082 0.0272703 0
M  V30 257 C 25.2186 -1.4301 -1.32563 0
M  V30 258 O 24.4886 -0.603745 -1.86365 0
M  V30 259 H 23.0686 -0.746966 0.00709182 0
M  V30 260 H 25.7306 -1.81033 0.722008 0
M  V30 261 H 24.8266 -3.12034 -0.0639951 0
M  V30 262 N 25.1277 -0.289203 -1.54924 0
M  V30 263 C 26.3757 0.322879 -1.99504 0
M  V30 264 C 26.6967 1.55313 -1.1791 0
M  V30 265 O 25.9667 1.94001 -0.272097 0
M  V30 266 H 24.5467 0.122291 -0.736922 0
M  V30 267 H 27.2087 -0.397802 -1.90797 0
M  V30 268 H 26.3047 0.603061 -3.06218 0
M  V30 269 N 26.6058 1.57591 -0.0167156 0
M  V30 270 C 27.8528 1.91283 0.664597 0
M  V30 271 C 28.1808 0.891949 1.72842 0
M  V30 272 O 27.4358 -0.100931 1.9544 0
M  V30 273 C 27.7348 3.3172 1.33029 0
M  V30 274 C 27.4008 4.4914 0.398047 0
M  V30 275 C 26.0628 4.80992 0.141421 0
M  V30 276 C 28.4148 5.20634 -0.242825 0
M  V30 277 C 25.7428 5.81703 -0.764092 0
M  V30 278 C 28.0948 6.22311 -1.13632 0
M  V30 279 C 26.7588 6.52611 -1.40196 0
M  V30 280 H 26.0288 0.699956 0.243193 0
M  V30 281 H 28.6758 1.9135 -0.0758267 0
M  V30 282 H 26.9808 3.27856 2.14517 0
M  V30 283 H 28.6778 3.55055 1.86379 0
M  V30 284 H 25.2678 4.24262 0.608238 0
M  V30 285 H 29.4518 4.96267 -0.0576019 0
M  V30 286 H 24.7078 6.03532 -0.977732 0
M  V30 287 H 28.8818 6.76834 -1.63917 0
M  V30 288 H 26.5088 7.30467 -2.10529 0
M  V30 289 N 28.0839 -0.256276 1.55502 0
M  V30 290 C 29.3319 -0.983672 1.76545 0
M  V30 291 C 29.6529 -1.86206 0.578982 0
M  V30 292 O 28.9229 -1.91656 -0.405577 0
M  V30 293 H 27.5029 -0.366191 0.651086 0
M  V30 294 H 30.1649 -0.276479 1.92929 0
M  V30 295 H 29.2609 -1.61087 2.67315 0
M  V30 296 N 29.562 -1.4872 -0.521534 0
M  V30 297 C 30.81 -1.56857 -1.27437 0
M  V30 298 C 31.131 -0.247982 -1.93417 0
M  V30 299 O 30.401 0.731151 -1.81744 0
M  V30 300 H 28.981 -0.577885 -0.473347 0
M  V30 301 H 31.643 -1.85233 -0.606205 0
M  V30 302 H 30.739 -2.35402 -2.0492 0
M  V30 303 N 31.0401 0.771051 -1.3745 0
M  V30 304 C 32.2861 1.5319 -1.32894 0
M  V30 305 C 32.6191 1.94008 0.0862511 0
M  V30 306 O 31.8941 1.64124 1.04373 0
M  V30 307 C 32.1771 2.79648 -2.26868 0
M  V30 308 C 32.0301 2.45079 -3.77169 0
M  V30 309 C 33.3491 3.81583 -2.19277 0
M  V30 310 H 30.4681 0.555744 -0.484064 0
M  V30 311 H 33.1101 0.884492 -1.68157 0
M  V30 312 H 31.2601 3.34891 -1.96926 0
M  V30 313 H 32.9321 1.95745 -4.1771 0
M  V30 314 H 31.1751 1.77767 -3.95704 0
M  V30 315 H 31.8461 3.35478 -4.38359 0
M  V30 316 H 34.3221 3.35835 -2.45671 0
M  V30 317 H 33.1981 4.67787 -2.87171 0
M  V30 318 H 33.4591 4.25897 -1.18592 0
M  V30 319 N 32.5182 1.22032 0.997298 0
M  V30 320 C 33.7582 1.05375 1.75144 0
M  V30 321 C 34.1222 -0.404696 1.87686 0
M  V30 322 O 35.3232 -0.691998 2.5974 0
M  V30 323 C 33.5942 1.74046 3.12158 0
M  V30 324 S 35.1532 1.72745 4.03366 0
M  V30 325 H 31.9712 0.377449 0.602539 0
M  V30 326 H 34.5732 1.54902 1.19272 0
M  V30 327 H 33.2772 2.79332 3.00669 0
M  V30 328 H 32.8082 1.24731 3.73103 0
M  V30 329 H 34.8232 0.774015 4.90126 0
M  V30 330 N 33.9963 -1.19345 1.0293 0
M  V30 331 C 34.9263 -2.2481 0.631105 0
M  V30 332 C 35.9073 -1.66245 -0.360104 0
M  V30 333 O 37.0923 -1.92677 -0.242726 0
M  V30 334 C 34.2223 -3.47295 -0.0184607 0
M  V30 335 C 33.1763 -4.18536 0.895073 0
M  V30 336 C 32.5023 -5.34586 0.110592 0
M  V30 337 C 33.8023 -4.73287 2.209 0
M  V30 338 H 35.4963 -2.58372 1.51275 0
M  V30 339 H 33.0423 -1.24194 0.728818 0
M  V30 340 H 34.9953 -4.20268 -0.308675 0
M  V30 341 H 33.7193 -3.12933 -0.934907 0
M  V30 342 H 32.3783 -3.47446 1.16949 0
M  V30 343 H 32.0263 -4.96469 -0.807902 0
M  V30 344 H 31.7263 -5.83183 0.719087 0
M  V30 345 H 33.2503 -6.10355 -0.172871 0
M  V30 346 H 34.6643 -5.38013 1.98028 0
M  V30 347 H 33.0613 -5.32373 2.76946 0
M  V30 348 H 34.1313 -3.91331 2.86336 0
M  V30 349 N 35.4744 -0.807222 -1.35358 0
M  V30 350 C 36.7204 -0.388463 -1.99045 0
M  V30 351 C 37.0534 1.04184 -1.63888 0
M  V30 352 O 36.3284 1.72292 -0.902535 0
M  V30 353 C 36.6114 -0.572783 -3.55515 0
M  V30 354 C 36.4644 -2.04807 -4.00468 0
M  V30 355 C 37.7834 0.00114064 -4.401 0
M  V30 356 H 34.9024 -0.142619 -0.723069 0
M  V30 357 H 37.5444 -1.01687 -1.60498 0
M  V30 358 H 35.6944 -0.0378425 -3.88482 0
M  V30 359 H 37.3664 -2.64544 -3.77908 0
M  V30 360 H 35.6094 -2.54427 -3.51353 0
M  V30 361 H 36.2804 -2.12792 -5.09337 0
M  V30 362 H 38.7564 -0.455716 -4.13597 0
M  V30 363 H 37.6324 -0.157737 -5.48673 0
M  V30 364 H 37.8934 1.09488 -4.28328 0
M  V30 365 N 36.9525 1.47285 -0.560781 0
M  V30 366 C 38.1995 2.02464 -0.038062 0
M  V30 367 C 38.5275 1.43474 1.31322 0
M  V30 368 O 37.7825 0.581311 1.86867 0
M  V30 369 C 38.0815 3.57258 0.100784 0
M  V30 370 C 37.7475 4.35184 -1.18007 0
M  V30 371 C 36.4095 4.56194 -1.53103 0
M  V30 372 C 38.7615 4.80098 -2.02867 0
M  V30 373 C 36.0895 5.19367 -2.729 0
M  V30 374 C 38.4415 5.44593 -3.21871 0
M  V30 375 C 37.1055 5.63835 -3.57276 0
M  V30 376 H 36.3755 0.740869 -0.0139279 0
M  V30 377 H 39.0225 1.76916 -0.733012 0
M  V30 378 H 37.3275 3.81819 0.878724 0
M  V30 379 H 39.0245 3.97606 0.520639 0
M  V30 380 H 35.6145 4.19113 -0.8968 0
M  V30 381 H 39.7985 4.63642 -1.7706 0
M  V30 382 H 35.0545 5.32459 -3.00496 0
M  V30 383 H 39.2285 5.78358 -3.87911 0
M  V30 384 H 36.8555 6.12557 -4.50197 0
M  V30 385 N 38.4306 0.297415 1.54768 0
M  V30 386 C 39.6766 -0.313376 2.00364 0
M  V30 387 C 40.0096 -1.53815 1.18553 0
M  V30 388 O 39.2846 -1.92739 0.261103 0
M  V30 389 C 39.5676 -0.673525 3.53745 0
M  V30 390 C 39.4206 0.560133 4.46299 0
M  V30 391 C 40.7396 -1.50143 4.13697 0
M  V30 392 H 37.8586 -0.112428 0.728374 0
M  V30 393 H 40.5006 0.4088 1.8555 0
M  V30 394 H 38.6506 -1.28881 3.665 0
M  V30 395 H 40.3226 1.19863 4.45455 0
M  V30 396 H 38.5656 1.19405 4.17043 0
M  V30 397 H 39.2366 0.26405 5.51368 0
M  V30 398 H 41.7126 -0.981588 4.04356 0
M  V30 399 H 40.5886 -1.72221 5.21182 0
M  V30 400 H 40.8496 -2.48952 3.65343 0
M  V30 401 N 39.9087 -1.5758 0.0250728 0
M  V30 402 C 41.1567 -1.91255 -0.653151 0
M  V30 403 C 41.4777 -0.901691 -1.729 0
M  V30 404 O 40.7477 0.0573785 -1.95816 0
M  V30 405 H 39.3277 -0.705942 -0.244243 0
M  V30 406 H 41.9897 -1.94767 0.0719209 0
M  V30 407 H 41.0857 -2.91752 -1.10847 0
M  V30 408 N 41.3868 0.248026 -1.55636 0
M  V30 409 C 42.3368 1.30994 -1.86614 0
M  V30 410 C 43.3208 1.43543 -0.726918 0
M  V30 411 O 44.5128 1.46804 -0.988818 0
M  V30 412 C 41.6418 2.6656 -2.16335 0
M  V30 413 C 40.7278 2.58019 -3.36581 0
M  V30 414 N 41.1188 2.1911 -4.55878 0
M  V30 415 C 39.4168 2.89035 -3.39669 0
M  V30 416 C 40.1178 2.21174 -5.38012 0
M  V30 417 N 39.0938 2.60632 -4.77045 0
M  V30 418 H 42.8958 0.999583 -2.76379 0
M  V30 419 H 40.4098 0.456652 -1.55848 0
M  V30 420 H 42.4068 3.43194 -2.36692 0
M  V30 421 H 41.0668 2.98463 -1.27867 0
M  V30 422 H 42.0778 1.90672 -4.81523 0
M  V30 423 H 38.7548 3.25485 -2.61469 0
M  V30 424 H 40.1448 1.9344 -6.43452 0
M  V30 425 N 42.8649 1.48995 0.513639 0
M  V30 426 C 44.2759 1.5119 1.09537 0
M  V30 427 C 44.6269 0.290906 1.94031 0
M  V30 428 O 43.7519 -0.60049 2.07902 0
M  V30 429 C 44.3469 2.73964 1.99322 0
M  V30 430 C 42.9059 2.78978 2.52682 0
M  V30 431 C 42.0529 2.44934 1.30009 0
M  V30 432 H 45.0039 1.55875 0.298125 0
M  V30 433 H 45.0249 2.53409 2.83838 0
M  V30 434 H 44.5369 3.62813 1.37799 0
M  V30 435 H 42.6379 1.94378 3.1788 0
M  V30 436 H 42.7509 3.8083 2.90698 0
M  V30 437 H 41.1149 1.9644 1.62122 0
M  V30 438 H 41.8979 3.36043 0.702131 0
M  V30 439 N 44.343 -0.763751 1.37857 0
M  V30 440 C 45.273 -1.89103 1.36975 0
M  V30 441 C 46.254 -1.68439 0.237152 0
M  V30 442 O 47.439 -1.8918 0.438713 0
M  V30 443 C 44.569 -3.26496 1.18395 0
M  V30 444 C 43.523 -3.61741 2.28751 0
M  V30 445 C 42.849 -4.97762 1.95286 0
M  V30 446 C 44.149 -3.67665 3.70972 0
M  V30 447 H 45.843 -1.90099 2.31307 0
M  V30 448 H 43.389 -0.91319 1.11341 0
M  V30 449 H 45.342 -4.05003 1.16406 0
M  V30 450 H 44.066 -3.25955 0.205215 0
M  V30 451 H 42.725 -2.85547 2.29909 0
M  V30 452 H 42.373 -4.93769 0.959221 0
M  V30 453 H 42.073 -5.22313 2.69189 0
M  V30 454 H 43.597 -5.7866 1.94898 0
M  V30 455 H 45.011 -4.36307 3.719 0
M  V30 456 H 43.408 -4.03718 4.43995 0
M  V30 457 H 44.478 -2.68134 4.0402 0
M  V30 458 N 45.8211 -1.22559 -0.990812 0
M  V30 459 C 47.0981 -0.959875 -1.70428 0
M  V30 460 C 47.4781 0.524455 -2.04481 0
M  V30 461 O 46.8261 1.49302 -1.72977 0
M  V30 462 C 47.0361 -1.85955 -2.95333 0
M  V30 463 C 48.3841 -2.11687 -3.68068 0
M  V30 464 O 49.4081 -1.8342 -3.05345 0
M  V30 465 O 48.2671 -2.59572 -4.80921 0
M  V30 466 H 45.3611 -0.361154 -0.743974 0
M  V30 467 H 47.9071 -1.33554 -1.04697 0
M  V30 468 H 46.6791 -2.86346 -2.66687 0
M  V30 469 H 46.3021 -1.4856 -3.68803 0
M  V30 470 N 47.2992 1.18797 -1.03562 0
M  V30 471 C 48.5272 1.92599 -0.755869 0
M  V30 472 C 48.9422 1.75886 0.686271 0
M  V30 473 O 48.2992 1.08517 1.46732 0
M  V30 474 C 48.3502 3.44159 -1.10619 0
M  V30 475 O 48.0712 3.60341 -2.4917 0
M  V30 476 C 49.5722 4.3507 -0.850214 0
M  V30 477 H 46.7922 0.611587 -0.276048 0
M  V30 478 H 49.3362 1.50742 -1.38192 0
M  V30 479 H 47.4912 3.83823 -0.525194 0
M  V30 480 H 47.9052 4.54128 -2.62427 0
M  V30 481 H 49.3792 5.39989 -1.14523 0
M  V30 482 H 49.8562 4.38673 0.215176 0
M  V30 483 H 50.4622 4.01097 -1.41426 0
M  V30 484 N 48.7773 0.814389 1.34928 0
M  V30 485 C 50.0233 0.399013 1.98836 0
M  V30 486 C 50.3563 -1.03314 1.64438 0
M  V30 487 O 49.6313 -1.71811 0.911659 0
M  V30 488 C 49.9143 0.591629 3.55207 0
M  V30 489 C 49.7673 2.06928 3.99376 0
M  V30 490 C 51.0863 0.022199 4.40094 0
M  V30 491 H 48.2053 0.146451 0.722303 0
M  V30 492 H 50.8473 1.02537 1.59957 0
M  V30 493 H 48.9973 0.0584441 3.88456 0
M  V30 494 H 50.6693 2.66544 3.76499 0
M  V30 495 H 48.9123 2.56287 3.49999 0
M  V30 496 H 49.5833 2.1549 5.08201 0
M  V30 497 H 52.0593 0.477643 4.13349 0
M  V30 498 H 50.9353 0.186832 5.48582 0
M  V30 499 H 51.1963 -1.07215 4.28902 0
M  V30 500 N 50.2554 -1.46986 0.568584 0
M  V30 501 C 51.2024 -2.30153 -0.172707 0
M  V30 502 C 52.1724 -1.39759 -0.897586 0
M  V30 503 O 53.3574 -1.68716 -0.891044 0
M  V30 504 C 50.4974 -3.23952 -1.1895 0
M  V30 505 C 49.6104 -4.29441 -0.469517 0
M  V30 506 C 48.7454 -5.1038 -1.47259 0
M  V30 507 C 47.7844 -6.07632 -0.738225 0
M  V30 508 N 46.9214 -6.8149 -1.68868 0
M  V30 509 H 51.7614 -2.93019 0.542596 0
M  V30 510 H 49.2984 -1.44422 0.279401 0
M  V30 511 H 51.2564 -3.76767 -1.79173 0
M  V30 512 H 49.8864 -2.62926 -1.87269 0
M  V30 513 H 48.9384 -3.79594 0.247467 0
M  V30 514 H 50.2504 -4.98689 0.105241 0
M  V30 515 H 49.4044 -5.67402 -2.14803 0
M  V30 516 H 48.1434 -4.4106 -2.08128 0
M  V30 517 H 47.1484 -5.49778 -0.0489293 0
M  V30 518 H 48.3734 -6.78966 -0.135129 0
M  V30 519 H 46.3194 -6.14891 -2.28573 0
M  V30 520 H 46.2364 -7.46948 -1.16636 0
M  V30 521 H 47.5044 -7.43078 -2.3549 0
M  V30 522 N 51.7335 -0.305618 -1.54608 0
M  V30 523 C 52.9795 0.302746 -2.00528 0
M  V30 524 C 53.3125 1.53184 -1.19367 0
M  V30 525 O 52.5875 1.92598 -0.271321 0
M  V30 526 C 52.8705 0.654756 -3.54097 0
M  V30 527 C 52.7235 -0.583793 -4.45995 0
M  V30 528 C 54.0425 1.47947 -4.14487 0
M  V30 529 H 51.1615 0.108564 -0.72896 0
M  V30 530 H 53.8035 -0.418634 -1.85331 0
M  V30 531 H 51.9535 1.26935 -3.67178 0
M  V30 532 H 53.6255 -1.22224 -4.44814 0
M  V30 533 H 51.8685 -1.21615 -4.16404 0
M  V30 534 H 52.5395 -0.293287 -5.5122 0
M  V30 535 H 55.0155 0.96013 -4.04871 0
M  V30 536 H 53.8915 1.69454 -5.22088 0
M  V30 537 H 54.1525 2.47011 -3.66658 0
M  V30 538 N 53.2116 1.57565 -0.0334293 0
M  V30 539 C 54.6276 1.56297 0.322997 0
M  V30 540 C 54.8276 1.03945 1.7262 0
M  V30 541 O 53.8836 0.688109 2.42943 0
M  V30 542 C 55.1966 3.00232 0.167664 0
M  V30 543 C 56.7446 3.12078 0.240107 0
M  V30 544 C 57.2196 4.57859 0.113513 0
M  V30 545 N 58.7106 4.62887 0.170359 0
M  V30 546 C 59.4456 5.73319 0.0962517 0
M  V30 547 N 58.9416 6.92794 -0.0291881 0
M  V30 548 N 60.7346 5.61898 0.150551 0
M  V30 549 H 52.8856 1.89923 -0.950956 0
M  V30 550 H 55.1486 0.873824 -0.367608 0
M  V30 551 H 54.8546 3.42501 -0.799102 0
M  V30 552 H 54.7286 3.654 0.936083 0
M  V30 553 H 57.1156 2.69718 1.19733 0
M  V30 554 H 57.1966 2.49623 -0.558763 0
M  V30 555 H 56.8406 5.009 -0.840314 0
M  V30 556 H 56.7706 5.18299 0.931302 0
M  V30 557 H 59.2616 3.76954 0.26728 0
M  V30 558 H 59.5746 7.7276 -0.0789252 0
M  V30 559 H 57.9196 6.94971 -0.0640299 0
M  V30 560 H 61.1106 4.67448 0.246981 0
M  V30 561 H 61.2836 6.47938 0.0893365 0
M  V30 562 N 54.6897 -0.239769 1.55765 0
M  V30 563 C 55.6197 -1.30052 1.9393 0
M  V30 564 C 56.6007 -1.49839 0.805132 0
M  V30 565 O 57.7857 -1.62328 1.06599 0
M  V30 566 C 54.9157 -2.65391 2.2402 0
M  V30 567 C 53.8697 -2.60289 3.39755 0
M  V30 568 C 53.1957 -3.99489 3.55405 0
M  V30 569 C 54.4957 -2.16654 4.75246 0
M  V30 570 H 56.1897 -0.983573 2.82783 0
M  V30 571 H 53.7357 -0.471701 1.36055 0
M  V30 572 H 55.6887 -3.3974 2.49308 0
M  V30 573 H 54.4127 -2.98736 1.32 0
M  V30 574 H 53.0717 -1.88398 3.14487 0
M  V30 575 H 52.7197 -4.30112 2.60793 0
M  V30 576 H 52.4197 -3.96962 4.33238 0
M  V30 577 H 53.9437 -4.75528 3.83022 0
M  V30 578 H 55.3577 -2.80737 4.99859 0
M  V30 579 H 53.7547 -2.25223 5.56232 0
M  V30 580 H 54.8247 -1.11835 4.71827 0
M  V30 581 N 56.1678 -1.49265 -0.50573 0
M  V30 582 C 57.0998 -1.617 -1.62437 0
M  V30 583 C 58.1128 -0.499924 -1.54934 0
M  V30 584 O 59.3018 -0.771785 -1.60953 0
M  V30 585 C 56.4018 -1.5533 -3.01207 0
M  V30 586 C 55.5748 -2.8249 -3.33943 0
M  V30 587 C 54.6338 -2.69238 -4.52103 0
M  V30 588 O 53.6598 -3.43167 -4.5412 0
M  V30 589 N 54.8618 -1.80468 -5.51735 0
M  V30 590 H 57.6268 -2.58177 -1.52199 0
M  V30 591 H 55.1878 -1.46294 -0.693511 0
M  V30 592 H 57.1798 -1.44125 -3.78167 0
M  V30 593 H 55.7498 -0.667297 -3.05395 0
M  V30 594 H 54.9698 -3.08081 -2.45926 0
M  V30 595 H 56.2578 -3.66802 -3.5261 0
M  V30 596 H 55.6558 -1.19653 -5.52901 0
M  V30 597 H 54.2128 -1.75188 -6.27816 0
M  V30 598 N 57.6459 0.756429 -1.3826 0
M  V30 599 C 58.8739 1.54565 -1.3754 0
M  V30 600 C 59.2889 1.88767 0.0355331 0
M  V30 601 O 58.6459 1.52572 1.0014 0
M  V30 602 C 58.6969 2.84654 -2.22833 0
M  V30 603 O 58.4179 2.51912 -3.5843 0
M  V30 604 C 59.9189 3.78807 -2.30261 0
M  V30 605 H 57.1389 0.478353 -0.470553 0
M  V30 606 H 59.6829 0.936381 -1.81803 0
M  V30 607 H 57.8379 3.41965 -1.8204 0
M  V30 608 H 58.2519 3.35325 -4.03308 0
M  V30 609 H 59.7259 4.67045 -2.94233 0
M  V30 610 H 60.2029 4.19038 -1.31545 0
M  V30 611 H 60.8089 3.2742 -2.71433 0
M  V30 612 N 59.124 1.23083 0.984299 0
M  V30 613 C 60.056 0.96636 2.07832 0
M  V30 614 C 61.069 -0.0582135 1.62696 0
M  V30 615 O 62.258 0.176843 1.77622 0
M  V30 616 C 59.358 0.433397 3.36117 0
M  V30 617 C 58.531 1.51722 4.10243 0
M  V30 618 C 57.59 0.989821 5.16807 0
M  V30 619 O 56.616 1.67794 5.43906 0
M  V30 620 N 57.818 -0.184367 5.80207 0
M  V30 621 H 60.583 1.90824 2.31098 0
M  V30 622 H 58.144 1.13888 1.1507 0
M  V30 623 H 60.136 0.065699 4.04647 0
M  V30 624 H 58.706 -0.413806 3.09849 0
M  V30 625 H 57.926 2.05786 3.36223 0
M  V30 626 H 59.214 2.24619 4.56534 0
M  V30 627 H 58.612 -0.760062 5.60571 0
M  V30 628 H 57.169 -0.493366 6.4993 0
M  V30 629 N 60.6021 -1.18246 1.0419 0
M  V30 630 C 62.0131 -1.69914 0.773698 0
M  V30 631 C 62.3641 -1.83085 -0.705297 0
M  V30 632 O 61.4891 -1.51123 -1.5489 0
M  V30 633 C 62.0841 -3.08619 1.39784 0
M  V30 634 C 60.6431 -3.57494 1.17792 0
M  V30 635 C 59.7901 -2.34013 1.48773 0
M  V30 636 H 62.7411 -1.02904 1.20816 0
M  V30 637 H 62.7621 -3.71958 0.801714 0
M  V30 638 H 62.2741 -2.99001 2.47426 0
M  V30 639 H 60.3751 -3.72406 0.120295 0
M  V30 640 H 60.4881 -4.40852 1.87581 0
M  V30 641 H 58.8521 -2.37986 0.907463 0
M  V30 642 H 59.6351 -2.27013 2.57527 0
M  V30 643 N 62.0802 -0.821533 -1.34494 0
M  V30 644 C 63.4912 -0.467956 -1.8074 0
M  V30 645 C 63.8422 1.01151 -1.68116 0
M  V30 646 O 62.9672 1.78707 -1.22036 0
M  V30 647 C 63.5622 -0.842627 -3.28154 0
M  V30 648 C 62.1212 -0.541439 -3.72485 0
M  V30 649 C 61.2682 -1.06028 -2.56229 0
M  V30 650 H 64.2192 -1.01183 -1.22261 0
M  V30 651 H 64.2402 -0.145876 -3.8022 0
M  V30 652 H 63.7522 -1.91945 -3.37311 0
M  V30 653 H 61.8532 0.526034 -3.68868 0
M  V30 654 H 61.9662 -1.08453 -4.66663 0
M  V30 655 H 60.3302 -0.481892 -2.501 0
M  V30 656 H 61.1132 -2.14352 -2.68157 0
M  V30 657 N 63.5583 1.46682 -0.576371 0
M  V30 658 C 64.7833 2.07304 -0.0630475 0
M  V30 659 C 65.2083 1.42329 1.2298 0
M  V30 660 O 64.5663 0.504865 1.74129 0
M  V30 661 C 64.6143 3.60472 0.095895 0
M  V30 662 O 63.7183 3.95927 1.15394 0
M  V30 663 H 63.0593 0.661288 -0.0599463 0
M  V30 664 H 65.5893 1.88417 -0.797511 0
M  V30 665 H 65.5993 4.06865 0.304071 0
M  V30 666 H 64.2743 4.07157 -0.84828 0
M  V30 667 H 62.8513 3.61252 0.924724 0
M  V30 668 N 65.0364 0.313813 1.54444 0
M  V30 669 C 65.9664 -0.549454 2.26943 0
M  V30 670 C 66.9474 -1.12741 1.27372 0
M  V30 671 O 68.1324 -1.15436 1.56167 0
M  V30 672 C 65.2624 -1.71523 3.01989 0
M  V30 673 C 64.2164 -1.26703 4.08816 0
M  V30 674 C 63.5424 -2.51898 4.71647 0
M  V30 675 C 64.8424 -0.388962 5.2085 0
M  V30 676 H 66.5364 0.0552661 2.99349 0
M  V30 677 H 64.0824 0.0280207 1.43973 0
M  V30 678 H 66.0354 -2.32535 3.51433 0
M  V30 679 H 64.7594 -2.34639 2.27183 0
M  V30 680 H 63.4184 -0.679896 3.6024 0
M  V30 681 H 63.0664 -3.13356 3.93468 0
M  V30 682 H 62.7664 -2.22605 5.43802 0
M  V30 683 H 64.2904 -3.1369 5.23861 0
M  V30 684 H 65.7044 -0.905107 5.6611 0
M  V30 685 H 64.1014 -0.18924 5.99802 0
M  V30 686 H 65.1714 0.582699 4.81386 0
M  V30 687 N 66.5145 -1.57545 0.0417849 0
M  V30 688 C 67.9255 -1.80011 -0.495259 0
M  V30 689 C 68.2765 -0.953199 -1.71489 0
M  V30 690 O 67.4015 -0.167138 -2.15754 0
M  V30 691 C 67.9965 -3.26482 -0.905265 0
M  V30 692 C 66.5555 -3.499 -1.38734 0
M  V30 693 C 65.7025 -2.74979 -0.358056 0
M  V30 694 H 68.6535 -1.56425 0.267736 0
M  V30 695 H 68.6745 -3.36887 -1.76882 0
M  V30 696 H 68.1865 -3.88096 -0.017401 0
M  V30 697 H 66.2875 -2.93553 -2.29471 0
M  V30 698 H 66.4005 -4.58615 -1.38598 0
M  V30 699 H 64.7645 -2.40834 -0.828912 0
M  V30 700 H 65.5475 -3.39315 0.521561 0
M  V30 701 N 67.9926 0.231505 -1.5589 0
M  V30 702 C 69.2406 0.955461 -1.78088 0
M  V30 703 C 69.5616 1.85262 -0.608533 0
M  V30 704 O 68.8316 1.92277 0.375035 0
M  V30 705 H 67.4116 0.355787 -0.656829 0
M  V30 706 H 70.0736 0.245751 -1.93344 0
M  V30 707 H 69.1696 1.56814 -2.69844 0
M  V30 708 N 69.4707 1.49531 0.497807 0
M  V30 709 C 70.4027 1.62559 1.61578 0
M  V30 710 C 71.4157 0.508134 1.54667 0
M  V30 711 O 72.6047 0.780309 1.60541 0
M  V30 712 C 69.7047 1.56925 3.00379 0
M  V30 713 C 68.8777 2.84257 3.3244 0
M  V30 714 C 67.9367 2.71632 4.50669 0
M  V30 715 O 66.9627 3.4557 4.52294 0
M  V30 716 N 68.1647 1.83391 5.5077 0
M  V30 717 H 70.9297 2.58981 1.50828 0
M  V30 718 H 68.4907 1.4666 0.685743 0
M  V30 719 H 70.4827 1.46129 3.77397 0
M  V30 720 H 69.0527 0.683483 3.05037 0
M  V30 721 H 68.2727 3.09381 2.44289 0
M  V30 722 H 69.5607 3.68666 3.5066 0
M  V30 723 H 68.9587 1.22583 5.52259 0
M  V30 724 H 67.5157 1.78515 6.26878 0
M  V30 725 N 70.9488 -0.749086 1.3866 0
M  V30 726 C 72.3598 -1.32664 1.31366 0
M  V30 727 C 72.7108 -1.96179 -0.028484 0
M  V30 728 O 71.8358 -1.9537 -0.93057 0
M  V30 729 C 72.4308 -2.41219 2.37905 0
M  V30 730 C 70.9898 -2.94684 2.34176 0
M  V30 731 C 70.1368 -1.68108 2.20533 0
M  V30 732 H 73.0878 -0.547628 1.48952 0
M  V30 733 H 73.1088 -3.21268 2.0388 0
M  V30 734 H 72.6208 -1.94962 3.35576 0
M  V30 735 H 70.7218 -3.45258 1.401 0
M  V30 736 H 70.8348 -3.48757 3.2849 0
M  V30 737 H 69.1988 -1.91907 1.67463 0
M  V30 738 H 69.9818 -1.23923 3.20153 0
M  V30 739 N 72.4269 -1.23603 -0.977757 0
M  V30 740 C 73.8379 -1.06424 -1.53398 0
M  V30 741 C 74.1889 0.367578 -1.92726 0
M  V30 742 O 73.3139 1.25465 -1.76316 0
M  V30 743 C 73.9089 -1.92568 -2.78753 0
M  V30 744 C 72.4679 -1.79642 -3.30765 0
M  V30 745 C 71.6149 -1.88111 -2.03739 0
M  V30 746 H 74.5659 -1.37227 -0.797152 0
M  V30 747 H 74.5869 -1.45203 -3.51705 0
M  V30 748 H 74.0989 -2.96771 -2.50098 0
M  V30 749 H 72.1999 -0.782325 -3.64294 0
M  V30 750 H 72.3129 -2.63174 -4.00345 0
M  V30 751 H 70.6769 -1.31723 -2.17994 0
M  V30 752 H 71.4599 -2.93875 -1.77461 0
M  V30 753 N 73.905 1.17692 -1.04816 0
M  V30 754 C 74.838 2.20436 -0.590173 0
M  V30 755 C 75.816 1.58115 0.379244 0
M  V30 756 O 77 1.86228 0.291762 0
M  V30 757 C 74.127 3.38424 0.136817 0
M  V30 758 C 73.173 4.19176 -0.787023 0
M  V30 759 S 74.006 4.84815 -2.27409 0
M  V30 760 C 75.162 6.06195 -1.55817 0
M  V30 761 H 75.395 2.58944 -1.46067 0
M  V30 762 H 72.928 1.28246 -0.859784 0
M  V30 763 H 74.886 4.06798 0.550076 0
M  V30 764 H 73.547 2.98312 0.983299 0
M  V30 765 H 72.74 5.03499 -0.224681 0
M  V30 766 H 72.342 3.56219 -1.13947 0
M  V30 767 H 74.634 6.72078 -0.855387 0
M  V30 768 H 75.577 6.6695 -2.37873 0
M  V30 769 H 75.985 5.54701 -1.04722 0
M  V30 770 N 75.3831 0.828654 1.34056 0
M  V30 771 C 76.6131 0.431993 2.02033 0
M  V30 772 C 77.0211 -0.96844 1.62536 0
M  V30 773 O 76.3641 -1.6391 0.829408 0
M  V30 774 C 76.4261 0.461224 3.56529 0
M  V30 775 C 76.0901 1.81599 4.1937 0
M  V30 776 C 77.0871 2.7777 4.39477 0
M  V30 777 C 74.7721 2.10604 4.56017 0
M  V30 778 C 76.7661 4.01115 4.95364 0
M  V30 779 C 74.4531 3.34207 5.11614 0
M  V30 780 C 75.4511 4.2928 5.31232 0
M  V30 781 O 75.1391 5.50699 5.8565 0
M  V30 782 H 74.8711 0.170943 0.654029 0
M  V30 783 H 77.4251 1.11988 1.72185 0
M  V30 784 H 75.6551 -0.283388 3.8566 0
M  V30 785 H 77.3441 0.0838149 4.05813 0
M  V30 786 H 78.1101 2.56659 4.11523 0
M  V30 787 H 73.9891 1.37402 4.40047 0
M  V30 788 H 77.5331 4.75333 5.10592 0
M  V30 789 H 73.4301 3.55179 5.38997 0
M  V30 790 H 74.1981 5.52298 6.04077 0
M  V30 791 N 76.8612 -1.46375 0.584142 0
M  V30 792 C 78.0862 -2.07268 0.0740405 0
M  V30 793 C 78.5112 -1.42979 -1.22223 0
M  V30 794 O 77.8692 -0.514092 -1.73859 0
M  V30 795 C 77.9172 -3.60518 -0.0767769 0
M  V30 796 O 77.0212 -3.96533 -1.13292 0
M  V30 797 H 76.3622 -0.660961 0.0634524 0
M  V30 798 H 78.8922 -1.87991 0.807492 0
M  V30 799 H 78.9022 -4.07021 -0.282489 0
M  V30 800 H 77.5772 -4.06702 0.86986 0
M  V30 801 H 76.1542 -3.61738 -0.905553 0
M  V30 802 N 78.3393 -0.321999 -1.54275 0
M  V30 803 C 79.5873 0.280489 -2.00144 0
M  V30 804 C 79.9083 1.52777 -1.21178 0
M  V30 805 O 79.1783 1.9338 -0.313187 0
M  V30 806 H 77.7583 0.106632 -0.73935 0
M  V30 807 H 80.4203 -0.438184 -1.8991 0
M  V30 808 H 79.5163 0.537972 -3.07428 0
M  V30 809 N 79.8174 1.5752 -0.0501392 0
M  V30 810 C 81.0454 1.96963 0.633492 0
M  V30 811 C 81.4604 0.927631 1.6444 0
M  V30 812 O 80.8174 -0.0882665 1.82286 0
M  V30 813 C 80.8684 3.36487 1.32132 0
M  V30 814 O 80.5894 4.36693 0.350894 0
M  V30 815 C 82.0904 3.90682 2.09481 0
M  V30 816 H 79.3104 0.648244 0.173266 0
M  V30 817 H 81.8544 2.0417 -0.116134 0
M  V30 818 H 80.0094 3.30434 2.02218 0
M  V30 819 H 80.4234 5.17702 0.841735 0
M  V30 820 H 81.8974 4.90591 2.5303 0
M  V30 821 H 82.3744 3.26053 2.94255 0
M  V30 822 H 82.9804 4.00069 1.44307 0
M  V30 823 N 81.2955 -0.223234 1.56011 0
M  V30 824 C 82.5425 -0.947875 1.78946 0
M  V30 825 C 82.8705 -1.844 0.618608 0
M  V30 826 O 82.1255 -1.91629 -0.397093 0
M  V30 827 C 82.4245 -1.81948 3.0762 0
M  V30 828 C 82.0905 -1.07672 4.37856 0
M  V30 829 C 80.7525 -0.871544 4.73242 0
M  V30 830 C 83.1045 -0.552081 5.18268 0
M  V30 831 C 80.4325 -0.129791 5.86556 0
M  V30 832 C 82.7845 0.17632 6.32354 0
M  V30 833 C 81.4485 0.39277 6.66343 0
M  V30 834 H 80.7185 -0.346852 0.654809 0
M  V30 835 H 83.3655 -0.216171 1.90276 0
M  V30 836 H 81.6705 -2.61899 2.91404 0
M  V30 837 H 83.3675 -2.38227 3.22566 0
M  V30 838 H 79.9575 -1.24662 4.1007 0
M  V30 839 H 84.1415 -0.698076 4.91366 0
M  V30 840 H 79.3975 0.048153 6.11381 0
M  V30 841 H 83.5715 0.590367 6.93893 0
M  V30 842 H 81.1985 0.969466 7.53993 0
M  V30 843 N 82.7736 -1.49793 -0.48987 0
M  V30 844 C 84.0506 -1.50348 -1.25119 0
M  V30 845 C 84.4306 -0.237466 -2.0976 0
M  V30 846 O 83.7786 0.77981 -2.14782 0
M  V30 847 C 83.9886 -2.78872 -2.09837 0
M  V30 848 C 85.3366 -3.288 -2.68655 0
M  V30 849 O 86.3606 -2.80065 -2.20096 0
M  V30 850 O 85.2196 -4.13707 -3.57083 0
M  V30 851 H 82.3136 -0.602242 -0.566775 0
M  V30 852 H 84.8596 -1.62067 -0.503229 0
M  V30 853 H 83.6316 -3.62499 -1.47343 0
M  V30 854 H 83.2546 -2.70066 -2.91805 0
M  V30 855 N 84.2517 0.741722 -1.39055 0
M  V30 856 C 85.4917 1.51385 -1.37338 0
M  V30 857 C 85.8557 1.91972 0.0330513 0
M  V30 858 O 87.0567 2.68229 0.175174 0
M  V30 859 C 85.3277 2.72481 -2.31276 0
M  V30 860 S 86.8867 3.62211 -2.47687 0
M  V30 861 H 83.7047 0.517906 -0.487129 0
M  V30 862 H 86.3067 0.86969 -1.7509 0
M  V30 863 H 85.0107 2.40793 -3.32336 0
M  V30 864 H 84.5417 3.41832 -1.94716 0
M  V30 865 H 86.5567 4.65812 -1.70978 0
M  V30 866 N 85.7298 1.2412 0.971189 0
M  V30 867 C 86.9768 1.07881 1.71371 0
M  V30 868 C 87.3048 -0.382901 1.90694 0
M  V30 869 O 86.5598 -1.29945 1.46331 0
M  V30 870 C 86.8588 1.75983 3.11071 0
M  V30 871 C 86.5248 3.25909 3.11599 0
M  V30 872 C 85.1868 3.66813 3.11451 0
M  V30 873 C 87.5388 4.21771 3.062 0
M  V30 874 C 84.8668 5.02021 3.03631 0
M  V30 875 C 87.2188 5.56982 2.99923 0
M  V30 876 C 85.8828 5.97237 2.98102 0
M  V30 877 H 85.1528 0.394764 0.62709 0
M  V30 878 H 87.7998 1.54176 1.13587 0
M  V30 879 H 86.1048 1.22072 3.72298 0
M  V30 880 H 87.8018 1.60887 3.6731 0
M  V30 881 H 84.3918 2.93353 3.12477 0
M  V30 882 H 88.5758 3.91172 3.05447 0
M  V30 883 H 83.8318 5.32411 3.0058 0
M  V30 884 H 88.0058 6.30969 2.94704 0
M  V30 885 H 85.6328 7.01967 2.91798 0
M  V30 886 N 87.2079 -1.17134 1.05439 0
M  V30 887 C 88.6239 -1.39454 0.776201 0
M  V30 888 C 88.8239 -1.91454 -0.628307 0
M  V30 889 O 87.8799 -2.10777 -1.39031 0
M  V30 890 C 89.1929 -2.38305 1.83388 0
M  V30 891 C 90.7409 -2.52006 1.85639 0
M  V30 892 C 91.2159 -3.54133 2.90437 0
M  V30 893 N 92.7069 -3.61653 2.89415 0
M  V30 894 C 93.4419 -4.4044 3.67152 0
M  V30 895 N 92.9379 -5.22721 4.54681 0
M  V30 896 N 94.7309 -4.35337 3.55581 0
M  V30 897 H 86.8819 -0.817134 1.96053 0
M  V30 898 H 89.1449 -0.421626 0.849079 0
M  V30 899 H 88.8509 -2.07173 2.84204 0
M  V30 900 H 88.7249 -3.37841 1.67761 0
M  V30 901 H 91.1119 -2.82447 0.85486 0
M  V30 902 H 91.1929 -1.52537 2.05344 0
M  V30 903 H 90.8369 -3.24431 3.90777 0
M  V30 904 H 90.7669 -4.53313 2.67983 0
M  V30 905 H 93.2579 -3.02909 2.25952 0
M  V30 906 H 93.5709 -5.80027 5.10674 0
M  V30 907 H 91.9159 -5.22093 4.58741 0
M  V30 908 H 95.1069 -3.70112 2.86592 0
M  V30 909 H 95.2799 -4.96494 4.1641 0
M  V30 910 N 88.686 -0.835752 -1.33615 0
M  V30 911 C 89.633 -0.26473 -2.29277 0
M  V30 912 C 90.603 0.617712 -1.54187 0
M  V30 913 O 91.788 0.556641 -1.825 0
M  V30 914 C 88.928 0.556777 -3.40579 0
M  V30 915 C 88.041 -0.349339 -4.30585 0
M  V30 916 C 87.176 0.482969 -5.29 0
M  V30 917 C 86.215 -0.421732 -6.10645 0
M  V30 918 N 85.352 0.372262 -7.01112 0
M  V30 919 H 90.192 -1.08582 -2.77514 0
M  V30 920 H 87.729 -0.546927 -1.36554 0
M  V30 921 H 89.687 1.04852 -4.03809 0
M  V30 922 H 88.317 1.34286 -2.93542 0
M  V30 923 H 87.369 -0.959372 -3.68104 0
M  V30 924 H 88.681 -1.04445 -4.87742 0
M  V30 925 H 87.835 1.03866 -5.97743 0
M  V30 926 H 86.574 1.21153 -4.72412 0
M  V30 927 H 85.579 -0.989464 -5.40823 0
M  V30 928 H 86.804 -1.14861 -6.69316 0
M  V30 929 H 84.75 1.08426 -6.46977 0
M  V30 930 H 84.667 -0.264198 -7.55538 0
M  V30 931 H 85.935 0.910293 -7.74167 0
M  V30 932 N 90.1641 1.46063 -0.591896 0
M  V30 933 C 91.3921 2.06717 -0.0868936 0
M  V30 934 C 91.8071 1.43916 1.22203 0
M  V30 935 O 91.1641 0.547698 1.74088 0
M  V30 936 C 91.2151 3.6142 0.0758725 0
M  V30 937 O 90.9361 4.21874 -1.18126 0
M  V30 938 C 92.4371 4.39025 0.61416 0
M  V30 939 H 89.6571 0.668162 -0.0616518 0
M  V30 940 H 92.2011 1.8755 -0.815175 0
M  V30 941 H 90.3561 3.79983 0.754413 0
M  V30 942 H 90.7701 5.14861 -1.00092 0
M  V30 943 H 92.2441 5.4783 0.677193 0
M  V30 944 H 92.7211 4.07708 1.63312 0
M  V30 945 H 93.3271 4.2529 -0.0298142 0
M  V30 946 N 91.6422 0.330177 1.54103 0
M  V30 947 C 92.5722 -0.525353 2.27513 0
M  V30 948 C 93.5532 -1.11383 1.2856 0
M  V30 949 O 94.7382 -1.13773 1.57383 0
M  V30 950 C 91.8682 -1.6831 3.03791 0
M  V30 951 C 90.8222 -1.2236 4.10137 0
M  V30 952 C 90.1482 -2.46882 4.74293 0
M  V30 953 C 91.4482 -0.333697 5.21233 0
M  V30 954 H 93.1422 0.087013 2.99274 0
M  V30 955 H 90.6882 0.0432893 1.43935 0
M  V30 956 H 92.6412 -2.28795 3.5388 0
M  V30 957 H 91.3652 -2.32216 2.29659 0
M  V30 958 H 90.0242 -0.64165 3.60941 0
M  V30 959 H 89.6722 -3.09165 3.96769 0
M  V30 960 H 89.3722 -2.16825 5.46133 0
M  V30 961 H 90.8962 -3.08117 5.27159 0
M  V30 962 H 92.3102 -0.845013 5.67038 0
M  V30 963 H 90.7072 -0.125612 5.99969 0
M  V30 964 H 91.7772 0.633724 4.80741 0
M  V30 965 N 93.1203 -1.57491 0.0584922 0
M  V30 966 C 94.3673 -1.92978 -0.613648 0
M  V30 967 C 94.6953 -0.937461 -1.70417 0
M  V30 968 O 93.9503 0.049078 -1.95638 0
M  V30 969 C 94.2493 -3.3513 -1.24188 0
M  V30 970 C 93.9153 -4.50037 -0.278826 0
M  V30 971 C 92.5773 -4.81198 -0.0138447 0
M  V30 972 C 94.9293 -5.19807 0.380777 0
M  V30 973 C 92.2573 -5.79473 0.918052 0
M  V30 974 C 94.6093 -6.19079 1.30091 0
M  V30 975 C 93.2733 -6.48665 1.57449 0
M  V30 976 H 92.5433 -0.706157 -0.22455 0
M  V30 977 H 95.1903 -1.91082 0.126533 0
M  V30 978 H 93.4953 -3.33429 -2.05749 0
M  V30 979 H 95.1923 -3.59871 -1.769 0
M  V30 980 H 91.7823 -4.25726 -0.495539 0
M  V30 981 H 95.9663 -4.95939 0.189158 0
M  V30 982 H 91.2223 -6.00727 1.1374 0
M  V30 983 H 95.3963 -6.7225 1.81804 0
M  V30 984 H 93.0233 -7.24628 2.29822 0
M  V30 985 N 94.5984 0.214957 -1.56127 0
M  V30 986 C 96.0144 0.564948 -1.49267 0
M  V30 987 C 96.2144 1.86827 -0.754838 0
M  V30 988 O 95.2704 2.50745 -0.297198 0
M  V30 989 C 96.5834 0.638071 -2.93852 0
M  V30 990 C 98.1314 0.728253 -3.0441 0
M  V30 991 C 98.6064 0.832663 -4.50367 0
M  V30 992 N 100.097 0.896712 -4.54437 0
M  V30 993 C 100.832 0.997324 -5.6466 0
M  V30 994 N 100.328 1.06147 -6.8462 0
M  V30 995 N 102.121 1.03297 -5.52527 0
M  V30 996 H 94.2724 -0.640211 -2.02522 0
M  V30 997 H 96.5354 -0.225507 -0.920788 0
M  V30 998 H 96.2414 -0.250126 -3.50809 0
M  V30 999 H 96.1154 1.49947 -3.46115 0
M  V30 1000 H 98.5024 1.60689 -2.47514 0
M  V30 1001 H 98.5834 -0.158952 -2.55306 0
M  V30 1002 H 98.2274 -0.0415417 -5.07883 0
M  V30 1003 H 98.1574 1.73538 -4.97184 0
M  V30 1004 H 100.648 0.857188 -3.6805 0
M  V30 1005 H 100.961 1.1382 -7.64372 0
M  V30 1006 H 99.3064 1.03049 -6.87318 0
M  V30 1007 H 102.497 0.979558 -4.57736 0
M  V30 1008 H 102.67 1.10793 -6.38458 0
M  V30 1009 N 96.0765 1.50051 0.48192 0
M  V30 1010 C 96.9865 1.7089 1.60728 0
M  V30 1011 C 98.0025 0.591788 1.63627 0
M  V30 1012 O 99.1785 0.868817 1.81696 0
M  V30 1013 C 96.2435 1.78855 2.97005 0
M  V30 1014 C 95.3045 3.02537 3.04581 0
M  V30 1015 C 94.5375 3.10112 4.34357 0
M  V30 1016 O 94.7605 2.24765 5.24249 0
M  V30 1017 O 93.6945 4.02747 4.47301 0
M  V30 1018 H 97.5205 2.66264 1.46072 0
M  V30 1019 H 95.1055 1.34018 0.660264 0
M  V30 1020 H 96.9875 1.86336 3.77964 0
M  V30 1021 H 95.6625 0.866628 3.11883 0
M  V30 1022 H 94.5695 3.00563 2.22739 0
M  V30 1023 H 95.9025 3.94272 2.94636 0
M  V30 1024 N 97.5546 -0.734337 1.39446 0
M  V30 1025 C 98.8026 -1.49096 1.36436 0
M  V30 1026 C 99.1236 -1.94961 -0.0388255 0
M  V30 1027 O 98.3936 -1.69033 -0.990191 0
M  V30 1028 H 96.9736 -0.5531 0.502085 0
M  V30 1029 H 99.6356 -0.871725 1.74319 0
M  V30 1030 H 98.7316 -2.37276 2.02747 0
M  V30 1031 N 99.0327 -1.24633 -0.964593 0
M  V30 1032 C 100.282 -1.08188 -1.7023 0
M  V30 1033 C 100.595 0.37873 -1.91898 0
M  V30 1034 O 101.801 0.663427 -2.6327 0
M  V30 1035 C 100.257 -1.88773 -3.06419 0
M  V30 1036 C 99.8647 -3.39263 -2.92582 0
M  V30 1037 C 101.609 -1.80867 -3.84041 0
M  V30 1038 C 99.5157 -4.1218 -4.24101 0
M  V30 1039 H 98.4457 -0.401245 -0.638372 0
M  V30 1040 H 101.097 -1.48742 -1.07462 0
M  V30 1041 H 99.4787 -1.41035 -3.70034 0
M  V30 1042 H 100.653 -3.94603 -2.37961 0
M  V30 1043 H 98.9677 -3.48154 -2.28424 0
M  V30 1044 H 101.565 -2.32646 -4.81435 0
M  V30 1045 H 101.908 -0.774543 -4.09031 0
M  V30 1046 H 102.441 -2.26301 -3.27159 0
M  V30 1047 H 99.1797 -5.15965 -4.04303 0
M  V30 1048 H 98.6997 -3.61626 -4.78526 0
M  V30 1049 H 100.379 -4.19349 -4.92702 0
M  V30 1050 N 100.511 1.16574 -1.06058 0
M  V30 1051 C 101.739 1.90952 -0.796552 0
M  V30 1052 C 102.154 1.77302 0.648808 0
M  V30 1053 O 101.511 1.11605 1.44397 0
M  V30 1054 C 101.562 3.41736 -1.17894 0
M  V30 1055 O 101.283 3.54975 -2.56758 0
M  V30 1056 C 102.784 4.33169 -0.942308 0
M  V30 1057 H 100.004 0.605594 -0.288959 0
M  V30 1058 H 102.548 1.47777 -1.41358 0
M  V30 1059 H 100.703 3.82623 -0.606491 0
M  V30 1060 H 101.117 4.4846 -2.72 0
M  V30 1061 H 102.591 5.37439 -1.25952 0
M  V30 1062 H 103.068 4.3903 0.122078 0
M  V30 1063 H 103.674 3.98007 -1.49902 0
M  V30 1064 N 101.989 0.842826 1.3317 0
M  V30 1065 C 103.237 0.439577 1.97262 0
M  V30 1066 C 103.558 -1.00548 1.67078 0
M  V30 1067 O 102.828 -1.70098 0.971779 0
M  V30 1068 H 101.408 0.159558 0.72976 0
M  V30 1069 H 104.07 1.07665 1.62463 0
M  V30 1070 H 103.166 0.574886 3.0676 0
M  V30 1071 N 103.467 -1.45747 0.599634 0
M  V30 1072 C 104.397 -2.33235 -0.111306 0
M  V30 1073 C 105.378 -1.46359 -0.866781 0
M  V30 1074 O 106.563 -1.75146 -0.838904 0
M  V30 1075 C 103.693 -3.28932 -1.11451 0
M  V30 1076 C 102.647 -4.25381 -0.472772 0
M  V30 1077 C 101.973 -5.1071 -1.58365 0
M  V30 1078 C 103.273 -5.18831 0.600948 0
M  V30 1079 H 104.967 -2.92927 0.61919 0
M  V30 1080 H 102.513 -1.40857 0.299215 0
M  V30 1081 H 104.466 -3.89002 -1.62036 0
M  V30 1082 H 103.19 -2.67381 -1.8755 0
M  V30 1083 H 101.849 -3.66598 0.0121472 0
M  V30 1084 H 101.497 -4.45533 -2.33473 0
M  V30 1085 H 101.197 -5.7604 -1.15982 0
M  V30 1086 H 102.721 -5.73647 -2.09194 0
M  V30 1087 H 104.135 -5.73019 0.179491 0
M  V30 1088 H 102.532 -5.92595 0.946076 0
M  V30 1089 H 103.602 -4.6174 1.48068 0
M  V30 1090 N 104.945 -0.338344 -1.53925 0
M  V30 1091 C 106.175 0.260919 -2.04946 0
M  V30 1092 C 106.583 1.45174 -1.2133 0
M  V30 1093 O 105.926 1.82122 -0.240262 0
M  V30 1094 C 105.988 0.744596 -3.51704 0
M  V30 1095 C 105.652 -0.325883 -4.55837 0
M  V30 1096 C 106.649 -1.16687 -5.06636 0
M  V30 1097 C 104.334 -0.478317 -5.00017 0
M  V30 1098 C 106.328 -2.14588 -6.00192 0
M  V30 1099 C 104.015 -1.46073 -5.93385 0
M  V30 1100 C 105.013 -2.29297 -6.4336 0
M  V30 1101 O 104.701 -3.25867 -7.34892 0
M  V30 1102 H 104.433 0.0551207 -0.673749 0
M  V30 1103 H 106.987 -0.486984 -1.99544 0
M  V30 1104 H 105.217 1.54366 -3.54553 0
M  V30 1105 H 106.906 1.26383 -3.85723 0
M  V30 1106 H 107.672 -1.06016 -4.73271 0
M  V30 1107 H 103.551 0.159613 -4.60724 0
M  V30 1108 H 107.095 -2.79585 -6.39123 0
M  V30 1109 H 102.992 -1.56802 -6.26166 0
M  V30 1110 H 103.76 -3.21278 -7.5281 0
M  V30 1111 N 106.423 1.57458 -0.0668435 0
M  V30 1112 C 107.839 1.56947 0.289772 0
M  V30 1113 C 108.039 1.07584 1.70376 0
M  V30 1114 O 107.095 0.739486 2.41429 0
M  V30 1115 C 108.408 3.0052 0.103943 0
M  V30 1116 C 109.956 3.12517 0.173857 0
M  V30 1117 C 110.431 4.57997 0.0163682 0
M  V30 1118 N 111.922 4.63144 0.0721352 0
M  V30 1119 C 112.657 5.73394 -0.0253794 0
M  V30 1120 N 112.153 6.92576 -0.176133 0
M  V30 1121 N 113.946 5.62091 0.0313305 0
M  V30 1122 H 106.097 1.87863 -0.991027 0
M  V30 1123 H 108.36 0.86583 -0.38606 0
M  V30 1124 H 108.066 3.40729 -0.871572 0
M  V30 1125 H 107.94 3.67304 0.858366 0
M  V30 1126 H 110.327 2.72197 1.13985 0
M  V30 1127 H 110.408 2.48381 -0.611586 0
M  V30 1128 H 110.052 4.99005 -0.946374 0
M  V30 1129 H 109.982 5.20158 0.821153 0
M  V30 1130 H 112.473 3.77436 0.187263 0
M  V30 1131 H 112.786 7.72418 -0.242821 0
M  V30 1132 H 111.131 6.94678 -0.211429 0
M  V30 1133 H 114.322 4.67867 0.147773 0
M  V30 1134 H 114.495 6.47982 -0.048121 0
M  V30 1135 N 107.901 -0.206675 1.56239 0
M  V30 1136 C 109.149 -0.927007 1.79586 0
M  V30 1137 C 109.47 -1.8427 0.637929 0
M  V30 1138 O 108.74 -1.92849 -0.344398 0
M  V30 1139 H 107.32 -0.345292 0.662407 0
M  V30 1140 H 109.982 -0.21496 1.93711 0
M  V30 1141 H 109.078 -1.52501 2.72305 0
M  V30 1142 N 109.379 -1.50304 -0.473955 0
M  V30 1143 C 110.312 -1.63595 -1.59097 0
M  V30 1144 C 111.29 -0.484142 -1.55225 0
M  V30 1145 O 112.474 -0.703271 -1.7489 0
M  V30 1146 C 109.601 -1.61589 -2.97669 0
M  V30 1147 C 108.647 -2.82295 -3.19705 0
M  V30 1148 S 109.48 -4.43635 -2.99913 0
M  V30 1149 C 110.636 -4.44317 -4.40832 0
M  V30 1150 H 110.869 -2.58082 -1.47583 0
M  V30 1151 H 108.402 -1.39531 -0.661087 0
M  V30 1152 H 110.36 -1.61116 -3.7756 0
M  V30 1153 H 109.021 -0.683421 -3.06575 0
M  V30 1154 H 108.214 -2.77188 -4.20931 0
M  V30 1155 H 107.816 -2.8032 -2.47582 0
M  V30 1156 H 110.108 -4.17703 -5.33414 0
M  V30 1157 H 111.051 -5.45911 -4.50984 0
M  V30 1158 H 111.459 -3.74059 -4.22777 0
M  V30 1159 N 110.857 0.726932 -1.39834 0
M  V30 1160 C 111.82 1.82269 -1.38962 0
M  V30 1161 C 112.82 1.58248 -0.285334 0
M  V30 1162 O 114.01 1.65499 -0.54366 0
M  V30 1163 C 111.142 3.20186 -1.17019 0
M  V30 1164 H 112.335 1.84443 -2.36476 0
M  V30 1165 H 109.888 0.931416 -1.25516 0
M  V30 1166 H 110.623 3.23669 -0.202204 0
M  V30 1167 H 110.408 3.3902 -1.96998 0
M  V30 1168 H 111.898 4.00235 -1.1917 0
M  V30 1169 N 112.336 1.25143 0.95797 0
M  V30 1170 C 113.299 1.05321 2.03569 0
M  V30 1171 C 114.299 0.007152 1.60798 0
M  V30 1172 O 115.489 0.24903 1.72411 0
M  V30 1173 C 112.621 0.598394 3.35607 0
M  V30 1174 H 113.814 2.00986 2.22586 0
M  V30 1175 H 111.367 1.07502 1.13459 0
M  V30 1176 H 112.102 -0.361014 3.22284 0
M  V30 1177 H 111.887 1.35351 3.67998 0
M  V30 1178 H 113.377 0.48104 4.1482 0
M  V30 1179 N 113.814 -1.1601 1.06675 0
M  V30 1180 C 115.225 -1.68235 0.809565 0
M  V30 1181 C 115.576 -1.8454 -0.666303 0
M  V30 1182 O 114.701 -1.54374 -1.5165 0
M  V30 1183 C 115.296 -3.05585 1.46299 0
M  V30 1184 C 113.855 -3.54915 1.25349 0
M  V30 1185 C 113.002 -2.30804 1.53703 0
M  V30 1186 H 115.953 -1.00318 1.22971 0
M  V30 1187 H 115.974 -3.70174 0.880431 0
M  V30 1188 H 115.486 -2.93686 2.53713 0
M  V30 1189 H 113.587 -3.72067 0.199261 0
M  V30 1190 H 113.7 -4.36774 1.9689 0
M  V30 1191 H 112.064 -2.36007 0.957739 0
M  V30 1192 H 112.847 -2.21499 2.62284 0
M  V30 1193 N 115.292 -0.849877 -1.32721 0
M  V30 1194 C 116.541 -0.447175 -1.96681 0
M  V30 1195 C 116.854 1.00135 -1.68025 0
M  V30 1196 O 118.06 1.50926 -2.25685 0
M  V30 1197 C 116.516 -0.7487 -3.52026 0
M  V30 1198 C 116.124 -2.21264 -3.89546 0
M  V30 1199 C 117.868 -0.413487 -4.22481 0
M  V30 1200 C 115.775 -2.45763 -5.37917 0
M  V30 1201 H 114.705 -0.163486 -0.736063 0
M  V30 1202 H 117.356 -1.03999 -1.51183 0
M  V30 1203 H 115.738 -0.0853727 -3.95908 0
M  V30 1204 H 116.912 -2.91736 -3.56689 0
M  V30 1205 H 115.227 -2.5119 -3.32103 0
M  V30 1206 H 117.824 -0.574017 -5.3161 0
M  V30 1207 H 118.167 0.644492 -4.11281 0
M  V30 1208 H 118.7 -1.03251 -3.84167 0
M  V30 1209 H 115.439 -3.50168 -5.54132 0
M  V30 1210 H 114.959 -1.79864 -5.72197 0
M  V30 1211 H 116.638 -2.29471 -6.0494 0
M  V30 1212 N 116.77 1.45427 -0.607355 0
M  V30 1213 C 118.019 2.01452 -0.100036 0
M  V30 1214 C 118.332 1.48159 1.27704 0
M  V30 1215 O 119.538 1.96159 1.87707 0
M  V30 1216 C 117.994 3.59672 -0.128158 0
M  V30 1217 C 117.602 4.21962 -1.50507 0
M  V30 1218 C 119.346 4.23262 0.323932 0
M  V30 1219 C 117.253 5.72333 -1.48959 0
M  V30 1220 H 116.183 0.75325 -0.0336299 0
M  V30 1221 H 118.834 1.66901 -0.76265 0
M  V30 1222 H 117.216 3.91411 0.601105 0
M  V30 1223 H 118.39 4.01796 -2.25602 0
M  V30 1224 H 116.705 3.70565 -1.89923 0
M  V30 1225 H 119.302 5.33522 0.354691 0
M  V30 1226 H 119.645 3.93921 1.34656 0
M  V30 1227 H 120.178 3.96239 -0.352056 0
M  V30 1228 H 116.917 6.06373 -2.48981 0
M  V30 1229 H 116.437 5.94691 -0.781214 0
M  V30 1230 H 118.116 6.35525 -1.21313 0
M  V30 1231 N 118.248 0.346503 1.53744 0
M  V30 1232 C 119.496 -0.248612 2.00565 0
M  V30 1233 C 119.817 -1.5083 1.23593 0
M  V30 1234 O 119.087 -1.92858 0.343912 0
M  V30 1235 H 117.667 -0.0948564 0.740953 0
M  V30 1236 H 120.329 0.468341 1.89189 0
M  V30 1237 H 119.425 -0.488994 3.08245 0
M  V30 1238 N 119.726 -1.57421 0.075193 0
M  V30 1239 C 120.972 -1.93905 -0.594025 0
M  V30 1240 C 121.305 -0.955701 -1.69056 0
M  V30 1241 O 120.58 0.0145373 -1.94495 0
M  V30 1242 C 120.863 -3.40638 -1.1678 0
M  V30 1243 C 120.716 -4.49733 -0.0776792 0
M  V30 1244 C 122.035 -3.88259 -2.07228 0
M  V30 1245 H 119.154 -0.705105 -0.214466 0
M  V30 1246 H 121.796 -1.8947 0.141854 0
M  V30 1247 H 119.946 -3.44549 -1.79494 0
M  V30 1248 H 121.618 -4.57942 0.555573 0
M  V30 1249 H 119.861 -4.29751 0.591286 0
M  V30 1250 H 120.532 -5.49549 -0.519603 0
M  V30 1251 H 123.008 -3.86376 -1.54445 0
M  V30 1252 H 121.884 -4.91533 -2.44308 0
M  V30 1253 H 122.145 -3.26396 -2.98191 0
M  V30 1254 N 121.204 0.198386 -1.56346 0
M  V30 1255 C 122.432 0.935572 -1.84539 0
M  V30 1256 C 122.847 1.76989 -0.657281 0
M  V30 1257 O 122.204 1.78626 0.374043 0
M  V30 1258 C 122.255 1.8344 -3.11499 0
M  V30 1259 O 121.976 1.03377 -4.25728 0
M  V30 1260 C 123.477 2.68355 -3.52846 0
M  V30 1261 H 120.697 0.273126 -0.612897 0
M  V30 1262 H 123.241 0.20663 -2.03453 0
M  V30 1263 H 121.396 2.51701 -2.94492 0
M  V30 1264 H 121.81 1.64599 -4.98003 0
M  V30 1265 H 123.284 3.27085 -4.44657 0
M  V30 1266 H 123.761 3.41901 -2.75681 0
M  V30 1267 H 124.367 2.05471 -3.72373 0
M  V30 1268 N 122.682 1.50554 0.465978 0
M  V30 1269 C 124.093 1.54599 1.04671 0
M  V30 1270 C 124.444 0.352488 1.93008 0
M  V30 1271 O 123.569 -0.534044 2.09707 0
M  V30 1272 C 124.164 2.80166 1.90505 0
M  V30 1273 C 122.723 2.86876 2.43678 0
M  V30 1274 C 121.87 2.48947 1.22151 0
M  V30 1275 H 124.821 1.56744 0.248384 0
M  V30 1276 H 124.842 2.62311 2.75633 0
M  V30 1277 H 124.354 3.67013 1.26186 0
M  V30 1278 H 122.455 2.04393 3.11536 0
M  V30 1279 H 122.568 3.89885 2.78436 0
M  V30 1280 H 120.932 2.01498 1.5579 0
M  V30 1281 H 121.715 3.38107 0.594866 0
M  V30 1282 N 124.16 -0.719506 1.40217 0
M  V30 1283 C 125.093 -1.84298 1.34571 0
M  V30 1284 C 126.071 -1.61149 0.216741 0
M  V30 1285 O 127.255 -1.84212 0.399756 0
M  V30 1286 C 124.382 -3.20568 1.09335 0
M  V30 1287 C 123.428 -3.62551 2.24631 0
M  V30 1288 S 124.261 -3.7012 3.87004 0
M  V30 1289 C 125.417 -5.09154 3.64024 0
M  V30 1290 H 125.65 -1.88807 2.2965 0
M  V30 1291 H 123.183 -0.885901 1.26456 0
M  V30 1292 H 125.141 -3.99246 0.954602 0
M  V30 1293 H 123.802 -3.13696 0.159164 0
M  V30 1294 H 122.995 -4.61483 2.02606 0
M  V30 1295 H 122.597 -2.91119 2.34789 0
M  V30 1296 H 124.889 -5.95955 3.22248 0
M  V30 1297 H 125.832 -5.36213 4.62473 0
M  V30 1298 H 126.24 -4.79562 2.97793 0
M  V30 1299 N 125.638 -1.25649 -0.95132 0
M  V30 1300 C 126.885 -1.10594 -1.69633 0
M  V30 1301 C 127.213 0.352515 -1.91279 0
M  V30 1302 O 126.468 1.27601 -1.4838 0
M  V30 1303 C 126.767 -1.80909 -3.08231 0
M  V30 1304 C 126.433 -3.30825 -3.06375 0
M  V30 1305 C 125.095 -3.71722 -3.05576 0
M  V30 1306 C 127.447 -4.26589 -2.99452 0
M  V30 1307 C 124.775 -5.06788 -2.95606 0
M  V30 1308 C 127.127 -5.61683 -2.91024 0
M  V30 1309 C 125.791 -6.01904 -2.88562 0
M  V30 1310 H 125.061 -0.404691 -0.620731 0
M  V30 1311 H 127.708 -1.55964 -1.11119 0
M  V30 1312 H 126.013 -1.27979 -3.70309 0
M  V30 1313 H 127.71 -1.6671 -3.64704 0
M  V30 1314 H 124.3 -2.98287 -3.07771 0
M  V30 1315 H 128.484 -3.95982 -2.99185 0
M  V30 1316 H 123.74 -5.37126 -2.92071 0
M  V30 1317 H 127.914 -6.35578 -2.84629 0
M  V30 1318 H 125.541 -7.06521 -2.80593 0
M  V30 1319 N 127.117 1.15442 -1.07289 0
M  V30 1320 C 128.08 2.18358 -0.696591 0
M  V30 1321 C 129.08 1.58637 0.262837 0
M  V30 1322 O 130.27 1.74145 0.0438809 0
M  V30 1323 C 127.402 3.4089 -0.0266151 0
M  V30 1324 H 128.595 2.53162 -1.60776 0
M  V30 1325 H 126.148 1.29893 -0.869342 0
M  V30 1326 H 126.883 3.11653 0.896822 0
M  V30 1327 H 126.668 3.85495 -0.716657 0
M  V30 1328 H 128.158 4.17009 0.222028 0
M  V30 1329 N 128.595 0.856903 1.32268 0
M  V30 1330 C 129.841 0.462069 1.97466 0
M  V30 1331 C 130.174 -0.980298 1.67642 0
M  V30 1332 O 129.449 -1.68824 0.965858 0
M  V30 1333 C 129.732 0.704336 3.53145 0
M  V30 1334 C 129.585 2.19529 3.9259 0
M  V30 1335 C 130.904 0.1622 4.39801 0
M  V30 1336 H 128.023 0.169357 0.717278 0
M  V30 1337 H 130.665 1.07574 1.56614 0
M  V30 1338 H 128.815 0.181999 3.88073 0
M  V30 1339 H 130.487 2.78387 3.67829 0
M  V30 1340 H 128.73 2.67292 3.41668 0
M  V30 1341 H 129.401 2.31549 5.01088 0
M  V30 1342 H 131.877 0.608905 4.11621 0
M  V30 1343 H 130.753 0.361265 5.4771 0
M  V30 1344 H 131.014 -0.935158 4.32096 0
M  V30 1345 N 130.073 -1.45103 0.615059 0
M  V30 1346 C 131.313 -2.04069 0.116282 0
M  V30 1347 C 131.677 -1.4721 -1.2326 0
M  V30 1348 O 132.878 -1.97577 -1.82255 0
M  V30 1349 C 131.149 -3.57298 0.085482 0
M  V30 1350 S 132.708 -4.37394 -0.351015 0
M  V30 1351 H 129.526 -0.709006 0.0532183 0
M  V30 1352 H 132.128 -1.77709 0.81484 0
M  V30 1353 H 130.832 -3.9619 1.0706 0
M  V30 1354 H 130.363 -3.88244 -0.634835 0
M  V30 1355 H 132.378 -4.69734 -1.59889 0
M  V30 1356 N 131.551 -0.354651 -1.53558 0
M  V30 1357 C 132.798 0.238443 -2.01091 0
M  V30 1358 C 133.126 1.49663 -1.24222 0
M  V30 1359 O 132.381 1.93049 -0.321003 0
M  V30 1360 C 132.68 0.587121 -3.52545 0
M  V30 1361 C 132.346 -0.575472 -4.47213 0
M  V30 1362 C 131.008 -0.894497 -4.72813 0
M  V30 1363 C 133.36 -1.35489 -5.03281 0
M  V30 1364 C 130.688 -1.99511 -5.51736 0
M  V30 1365 C 133.04 -2.44583 -5.83405 0
M  V30 1366 C 131.704 -2.77033 -6.07296 0
M  V30 1367 H 130.974 0.0872526 -0.735845 0
M  V30 1368 H 133.621 -0.484859 -1.8526 0
M  V30 1369 H 131.926 1.39129 -3.66265 0
M  V30 1370 H 133.623 1.05809 -3.86789 0
M  V30 1371 H 130.213 -0.316774 -4.27428 0
M  V30 1372 H 134.397 -1.12167 -4.83459 0
M  V30 1373 H 129.653 -2.25063 -5.68469 0
M  V30 1374 H 133.827 -3.05401 -6.25862 0
M  V30 1375 H 131.454 -3.6244 -6.68237 0
M  V30 1376 N 133.029 1.57378 -0.0835403 0
M  V30 1377 C 134.276 1.9393 0.58287 0
M  V30 1378 C 134.604 0.964455 1.68904 0
M  V30 1379 O 133.859 -0.0179474 1.95692 0
M  V30 1380 C 134.158 3.37063 1.1884 0
M  V30 1381 C 133.824 4.50424 0.207194 0
M  V30 1382 C 132.486 4.81159 -0.0627115 0
M  V30 1383 C 134.838 5.19136 -0.463426 0
M  V30 1384 C 132.166 5.77939 -1.01012 0
M  V30 1385 C 134.518 6.16931 -1.39924 0
M  V30 1386 C 133.182 6.46078 -1.67749 0
M  V30 1387 H 132.452 0.70964 0.213287 0
M  V30 1388 H 135.099 1.90856 -0.156916 0
M  V30 1389 H 133.404 3.3666 2.00418 0
M  V30 1390 H 135.101 3.6264 1.71153 0
M  V30 1391 H 131.691 4.2646 0.427747 0
M  V30 1392 H 135.875 4.95576 -0.268034 0
M  V30 1393 H 131.131 5.98842 -1.23283 0
M  V30 1394 H 135.305 6.69273 -1.92476 0
M  V30 1395 H 132.932 7.2088 -2.41321 0
M  V30 1396 N 134.507 -0.190092 1.56449 0
M  V30 1397 C 135.755 -0.907908 1.80559 0
M  V30 1398 C 136.076 -1.83583 0.657438 0
M  V30 1399 O 135.346 -1.93203 -0.323924 0
M  V30 1400 H 133.926 -0.338247 0.666032 0
M  V30 1401 H 136.588 -0.194403 1.93928 0
M  V30 1402 H 135.684 -1.49604 2.73907 0
M  V30 1403 N 135.985 -1.50799 -0.457987 0
M  V30 1404 C 137.232 -1.62442 -1.20908 0
M  V30 1405 C 137.56 -0.330865 -1.91665 0
M  V30 1406 O 136.815 0.68401 -1.83357 0
M  V30 1407 C 137.114 -2.76358 -2.2663 0
M  V30 1408 C 136.78 -4.16378 -1.73033 0
M  V30 1409 C 135.442 -4.54473 -1.58138 0
M  V30 1410 C 137.794 -5.03836 -1.33413 0
M  V30 1411 C 135.122 -5.77754 -1.02065 0
M  V30 1412 C 137.474 -6.27676 -0.78778 0
M  V30 1413 C 136.138 -6.64562 -0.625561 0
M  V30 1414 H 135.408 -0.594417 -0.442435 0
M  V30 1415 H 138.055 -1.84772 -0.503136 0
M  V30 1416 H 136.36 -2.48167 -3.03184 0
M  V30 1417 H 138.057 -2.82568 -2.84528 0
M  V30 1418 H 134.647 -3.86331 -1.85598 0
M  V30 1419 H 138.831 -4.75026 -1.4375 0
M  V30 1420 H 134.087 -6.04997 -0.882547 0
M  V30 1421 H 138.261 -6.94797 -0.472177 0
M  V30 1422 H 135.888 -7.59965 -0.188926 0
M  V30 1423 N 137.463 0.71206 -1.40597 0
M  V30 1424 C 138.711 1.46907 -1.38791 0
M  V30 1425 C 139.032 1.94998 0.00780391 0
M  V30 1426 O 138.302 1.70587 0.963174 0
M  V30 1427 H 136.882 0.545043 -0.51082 0
M  V30 1428 H 139.544 0.843882 -1.75683 0
M  V30 1429 H 138.64 2.34021 -2.06496 0
M  V30 1430 N 138.941 1.26152 0.944643 0
M  V30 1431 C 139.871 1.09902 2.06019 0
M  V30 1432 C 140.852 0.00519538 1.70099 0
M  V30 1433 O 142.037 0.176583 1.93396 0
M  V30 1434 C 139.167 0.727562 3.39594 0
M  V30 1435 C 138.121 1.77274 3.89561 0
M  V30 1436 C 137.447 1.25569 5.19747 0
M  V30 1437 C 138.747 3.17357 4.14827 0
M  V30 1438 H 140.441 2.03217 2.19871 0
M  V30 1439 H 137.987 0.978452 1.05652 0
M  V30 1440 H 139.94 0.600777 4.17095 0
M  V30 1441 H 138.664 -0.241287 3.25707 0
M  V30 1442 H 137.323 1.88814 3.14237 0
M  V30 1443 H 136.971 0.276783 5.02238 0
M  V30 1444 H 136.671 1.95433 5.54148 0
M  V30 1445 H 138.195 1.1415 5.99835 0
M  V30 1446 H 139.609 3.08914 4.82954 0
M  V30 1447 H 138.006 3.84781 4.60504 0
M  V30 1448 H 139.076 3.63673 3.20734 0
M  V30 1449 N 140.419 -1.14872 1.07899 0
M  V30 1450 C 141.667 -1.85422 0.803941 0
M  V30 1451 C 141.988 -1.83051 -0.67211 0
M  V30 1452 O 141.258 -1.27532 -1.48703 0
M  V30 1453 H 139.838 -0.686537 0.294408 0
M  V30 1454 H 142.5 -1.39226 1.3639 0
M  V30 1455 H 141.596 -2.90399 1.14346 0
M  V30 1456 N 141.898 -0.863906 -1.31812 0
M  V30 1457 C 142.845 -0.313303 -2.28664 0
M  V30 1458 C 143.815 0.584868 -1.55462 0
M  V30 1459 O 145 0.517805 -1.83639 0
M  V30 1460 C 142.14 0.48441 -3.41683 0
M  V30 1461 C 141.253 -0.440594 -4.29747 0
M  V30 1462 C 140.388 0.370652 -5.29905 0
M  V30 1463 C 139.427 -0.551164 -6.09613 0
M  V30 1464 N 138.564 0.223462 -7.01744 0
M  V30 1465 H 143.404 -1.14444 -2.75148 0
M  V30 1466 H 140.941 -0.575769 -1.35364 0
M  V30 1467 H 142.899 0.962627 -4.05943 0
M  V30 1468 H 141.529 1.28029 -2.96325 0
M  V30 1469 H 140.581 -1.03724 -3.65986 0
M  V30 1470 H 141.893 -1.14767 -4.85417 0
M  V30 1471 H 141.047 0.911638 -5.99812 0
M  V30 1472 H 139.786 1.11105 -4.74876 0
M  V30 1473 H 138.791 -1.10396 -5.38603 0
M  V30 1474 H 140.016 -1.29032 -6.66729 0
M  V30 1475 H 137.962 0.946787 -6.49132 0
M  V30 1476 H 137.879 -0.424399 -7.54808 0
M  V30 1477 H 139.147 0.745876 -7.75923 0
M  V30 1478 N 143.376 1.44774 -0.622745 0
M  V30 1479 C 144.323 2.30635 0.0871679 0
M  V30 1480 C 145.293 1.42994 0.845097 0
M  V30 1481 O 146.478 1.71907 0.827812 0
M  V30 1482 C 143.618 3.28144 1.06844 0
M  V30 1483 C 142.731 4.30888 0.309809 0
M  V30 1484 C 141.866 5.15494 1.28215 0
M  V30 1485 C 140.905 6.09953 0.512198 0
M  V30 1486 N 140.042 6.87287 1.43458 0
M  V30 1487 H 144.882 2.90803 -0.650974 0
M  V30 1488 H 142.419 1.43286 -0.33281 0
M  V30 1489 H 144.377 3.83157 1.65066 0
M  V30 1490 H 143.007 2.69695 1.77382 0
M  V30 1491 H 142.059 3.78414 -0.388181 0
M  V30 1492 H 143.371 4.97955 -0.290254 0
M  V30 1493 H 142.525 5.74983 1.93596 0
M  V30 1494 H 141.264 4.48481 1.91614 0
M  V30 1495 H 140.269 5.49581 -0.155151 0
M  V30 1496 H 141.494 6.78999 -0.116958 0
M  V30 1497 H 139.44 6.2295 2.05594 0
M  V30 1498 H 139.357 7.50763 0.888335 0
M  V30 1499 H 140.625 7.51306 2.07749 0
M  V30 1500 N 144.854 0.36279 1.53368 0
M  V30 1501 C 145.784 -0.476976 2.28576 0
M  V30 1502 C 146.765 -1.08631 1.30894 0
M  V30 1503 O 147.95 -1.10409 1.59761 0
M  V30 1504 C 145.08 -1.61828 3.07293 0
M  V30 1505 C 144.034 -1.13633 4.1264 0
M  V30 1506 C 143.36 -2.36766 4.79423 0
M  V30 1507 C 144.66 -0.223061 5.21823 0
M  V30 1508 H 146.354 0.150474 2.99022 0
M  V30 1509 H 143.9 0.0738103 1.43811 0
M  V30 1510 H 145.853 -2.21237 3.58653 0
M  V30 1511 H 144.577 -2.27292 2.34533 0
M  V30 1512 H 143.236 -0.564945 3.62221 0
M  V30 1513 H 142.884 -3.0068 4.03238 0
M  V30 1514 H 142.584 -2.05192 5.50609 0
M  V30 1515 H 144.108 -2.96865 5.33576 0
M  V30 1516 H 145.522 -0.724545 5.68703 0
M  V30 1517 H 143.919 0.001678 6.001 0
M  V30 1518 H 144.989 0.735553 4.79289 0
M  V30 1519 N 146.332 -1.57332 0.0918853 0
M  V30 1520 C 147.264 -2.10869 -0.898168 0
M  V30 1521 C 148.277 -1.04521 -1.24817 0
M  V30 1522 O 149.466 -1.31977 -1.20184 0
M  V30 1523 C 146.566 -2.57083 -2.2082 0
M  V30 1524 C 145.739 -3.87229 -2.03402 0
M  V30 1525 C 144.798 -4.19324 -3.17889 0
M  V30 1526 O 143.824 -4.88598 -2.91994 0
M  V30 1527 N 145.026 -3.74471 -4.43567 0
M  V30 1528 H 147.791 -2.96439 -0.440943 0
M  V30 1529 H 145.352 -1.61631 -0.0933064 0
M  V30 1530 H 147.344 -2.75602 -2.96354 0
M  V30 1531 H 145.914 -1.76541 -2.57977 0
M  V30 1532 H 145.134 -3.7789 -1.12218 0
M  V30 1533 H 146.422 -4.72379 -1.89038 0
M  V30 1534 H 145.82 -3.18546 -4.67488 0
M  V30 1535 H 144.377 -3.98151 -5.16061 0
M  V30 1536 N 147.81 0.181792 -1.56548 0
M  V30 1537 C 148.742 1.24956 -1.92142 0
M  V30 1538 C 149.755 1.41022 -0.813422 0
M  V30 1539 O 150.944 1.41212 -1.09186 0
M  V30 1540 C 148.044 2.61981 -2.14987 0
M  V30 1541 C 147.217 2.6735 -3.46183 0
M  V30 1542 C 146.276 3.85664 -3.5798 0
M  V30 1543 O 145.302 3.72148 -4.30691 0
M  V30 1544 N 146.504 5.01683 -2.92053 0
M  V30 1545 H 149.269 0.947329 -2.84334 0
M  V30 1546 H 146.83 0.371629 -1.57577 0
M  V30 1547 H 148.822 3.3958 -2.20154 0
M  V30 1548 H 147.392 2.84637 -1.2923 0
M  V30 1549 H 146.612 1.75925 -3.52766 0
M  V30 1550 H 147.9 2.67939 -4.32534 0
M  V30 1551 H 147.298 5.15564 -2.32832 0
M  V30 1552 H 145.855 5.77181 -3.0283 0
M  V30 1553 N 149.288 1.51039 0.449983 0
M  V30 1554 C 150.235 1.71439 1.54523 0
M  V30 1555 C 151.205 0.555871 1.56522 0
M  V30 1556 O 152.39 0.788871 1.73728 0
M  V30 1557 C 149.53 1.83384 2.92343 0
M  V30 1558 C 148.643 3.10873 2.9997 0
M  V30 1559 C 147.778 3.13488 4.28834 0
M  V30 1560 C 146.817 4.35343 4.30282 0
M  V30 1561 N 145.954 4.35579 5.5065 0
M  V30 1562 H 150.794 2.64934 1.36433 0
M  V30 1563 H 148.331 1.31312 0.662982 0
M  V30 1564 H 150.289 1.88291 3.72293 0
M  V30 1565 H 148.919 0.933086 3.0902 0
M  V30 1566 H 147.971 3.15336 2.12761 0
M  V30 1567 H 149.283 4.00814 2.96901 0
M  V30 1568 H 148.437 3.17241 5.17149 0
M  V30 1569 H 147.176 2.21414 4.34543 0
M  V30 1570 H 146.181 4.3178 3.40362 0
M  V30 1571 H 147.406 5.28668 4.26248 0
M  V30 1572 H 145.352 3.46369 5.57104 0
M  V30 1573 H 145.269 5.19313 5.49409 0
M  V30 1574 H 146.537 4.43507 6.41032 0
M  V30 1575 N 150.766 -0.704594 1.40972 0
M  V30 1576 C 151.716 -1.81051 1.38581 0
M  V30 1577 C 152.7 -1.58759 0.261585 0
M  V30 1578 O 153.892 -1.69745 0.501556 0
M  V30 1579 C 151.021 -3.19279 1.26157 0
M  V30 1580 C 150.107 -3.47296 2.43405 0
M  V30 1581 N 150.498 -3.46064 3.68881 0
M  V30 1582 C 148.796 -3.77804 2.37023 0
M  V30 1583 C 149.497 -3.72733 4.46592 0
M  V30 1584 N 148.473 -3.9203 3.76581 0
M  V30 1585 H 152.275 -1.78448 2.33525 0
M  V30 1586 H 149.789 -0.904198 1.349 0
M  V30 1587 H 151.786 -3.98488 1.22526 0
M  V30 1588 H 150.446 -3.231 0.321902 0
M  V30 1589 H 151.457 -3.26656 4.01891 0
M  V30 1590 H 148.134 -3.8905 1.51481 0
M  V30 1591 H 149.524 -3.77993 5.55492 0
M  V30 1592 N 152.244 -1.26651 -0.937939 0
M  V30 1593 C 153.655 -1.1125 -1.49934 0
M  V30 1594 C 154.006 0.306077 -1.93798 0
M  V30 1595 O 153.131 1.19792 -1.80219 0
M  V30 1596 C 153.726 -2.01339 -2.72485 0
M  V30 1597 C 152.285 -1.90074 -3.24883 0
M  V30 1598 C 151.432 -1.94498 -1.97651 0
M  V30 1599 H 154.383 -1.39693 -0.753091 0
M  V30 1600 H 154.404 -1.56319 -3.46907 0
M  V30 1601 H 153.916 -3.04577 -2.40529 0
M  V30 1602 H 152.017 -0.897827 -3.61621 0
M  V30 1603 H 152.13 -2.75778 -3.9177 0
M  V30 1604 H 150.494 -1.38591 -2.13693 0
M  V30 1605 H 151.277 -2.99372 -1.68022 0
M  V30 1606 N 153.722 1.14298 -1.08507 0
M  V30 1607 C 154.632 2.23027 -0.727753 0
M  V30 1608 C 155.648 1.71952 0.26619 0
M  V30 1609 O 156.824 2.011 0.109882 0
M  V30 1610 C 153.889 3.46403 -0.143541 0
M  V30 1611 C 152.95 4.12413 -1.19223 0
M  V30 1612 C 152.183 5.29899 -0.635798 0
M  V30 1613 O 152.406 5.67796 0.544393 0
M  V30 1614 O 151.34 5.85717 -1.38634 0
M  V30 1615 H 155.166 2.55945 -1.63481 0
M  V30 1616 H 152.751 1.22248 -0.858817 0
M  V30 1617 H 154.633 4.21018 0.179404 0
M  V30 1618 H 153.308 3.15206 0.736659 0
M  V30 1619 H 152.215 3.39667 -1.56772 0
M  V30 1620 H 153.548 4.47718 -2.04474 0
M  V30 1621 N 155.201 0.870884 1.31352 0
M  V30 1622 C 156.478 0.402907 1.91405 0
M  V30 1623 C 156.858 -1.11512 1.79244 0
M  V30 1624 O 156.206 -1.94411 1.2007 0
M  V30 1625 C 156.416 0.885301 3.37585 0
M  V30 1626 C 157.764 0.911971 4.14691 0
M  V30 1627 O 158.788 0.831016 3.46371 0
M  V30 1628 O 157.647 1.02927 5.3672 0
M  V30 1629 H 154.741 0.120698 0.818145 0
M  V30 1630 H 157.287 0.958857 1.40014 0
M  V30 1631 H 156.059 1.92889 3.40455 0
M  V30 1632 H 155.682 0.307714 3.96407 0
M  V30 1633 N 156.679 -1.44442 0.630414 0
M  V30 1634 C 157.925 -2.02351 0.134816 0
M  V30 1635 C 158.258 -1.4947 -1.23986 0
M  V30 1636 O 157.533 -0.678475 -1.82283 0
M  V30 1637 C 157.816 -3.59898 0.120707 0
M  V30 1638 C 157.669 -4.23063 1.52767 0
M  V30 1639 C 158.988 -4.36585 -0.555127 0
M  V30 1640 H 156.107 -0.73527 0.0504646 0
M  V30 1641 H 158.749 -1.72022 0.806751 0
M  V30 1642 H 156.899 -3.85868 -0.451477 0
M  V30 1643 H 158.571 -4.08202 2.14869 0
M  V30 1644 H 156.814 -3.80586 2.08175 0
M  V30 1645 H 157.485 -5.32071 1.46984 0
M  V30 1646 H 159.961 -4.16044 -0.0685429 0
M  V30 1647 H 158.837 -5.46294 -0.534185 0
M  V30 1648 H 159.098 -4.11138 -1.62535 0
M  V30 1649 N 158.157 -0.370918 -1.53173 0
M  V30 1650 C 159.087 0.464847 -2.28826 0
M  V30 1651 C 160.068 1.07936 -1.31468 0
M  V30 1652 O 161.253 1.0956 -1.60344 0
M  V30 1653 C 158.383 1.60196 -3.08147 0
M  V30 1654 C 157.337 1.11443 -4.13237 0
M  V30 1655 C 156.663 2.3422 -4.80672 0
M  V30 1656 C 157.963 0.195384 -5.21934 0
M  V30 1657 H 159.657 -0.166329 -2.98938 0
M  V30 1658 H 157.203 -0.0814359 -1.4377 0
M  V30 1659 H 159.156 2.19332 -3.59822 0
M  V30 1660 H 157.88 2.26045 -2.35735 0
M  V30 1661 H 156.539 0.545727 -3.62515 0
M  V30 1662 H 156.187 2.98537 -4.04827 0
M  V30 1663 H 155.887 2.02269 -5.51689 0
M  V30 1664 H 157.411 2.94032 -5.35143 0
M  V30 1665 H 158.825 0.694375 -5.69079 0
M  V30 1666 H 157.222 -0.0335027 -6.00091 0
M  V30 1667 H 158.292 -0.760961 -4.78892 0
M  V30 1668 N 159.635 1.57281 -0.100228 0
M  V30 1669 C 160.86 1.99302 0.573881 0
M  V30 1670 C 161.285 0.979059 1.60611 0
M  V30 1671 O 160.643 -0.0517803 1.81226 0
M  V30 1672 C 160.691 3.40274 1.19358 0
M  V30 1673 O 159.795 3.41676 2.30935 0
M  V30 1674 H 159.136 0.647944 0.145138 0
M  V30 1675 H 161.666 2.03779 -0.183156 0
M  V30 1676 H 161.676 3.78078 1.53365 0
M  V30 1677 H 160.351 4.13594 0.437385 0
M  V30 1678 H 158.928 3.15672 1.98509 0
M  V30 1679 N 161.113 -0.173488 1.56642 0
M  V30 1680 C 162.343 -0.904781 1.85734 0
M  V30 1681 C 162.751 -1.76431 0.68328 0
M  V30 1682 O 162.094 -1.802 -0.356865 0
M  V30 1683 C 162.156 -1.83382 3.09211 0
M  V30 1684 C 161.82 -1.15411 4.42187 0
M  V30 1685 C 162.817 -0.520609 5.17287 0
M  V30 1686 C 160.502 -1.15151 4.88923 0
M  V30 1687 C 162.496 0.106412 6.37311 0
M  V30 1688 C 160.183 -0.520664 6.08878 0
M  V30 1689 C 161.181 0.107196 6.82916 0
M  V30 1690 O 160.869 0.728102 8.00596 0
M  V30 1691 H 160.601 -0.268408 0.62043 0
M  V30 1692 H 163.155 -0.179096 2.04618 0
M  V30 1693 H 161.385 -2.59976 2.86268 0
M  V30 1694 H 163.074 -2.43476 3.24768 0
M  V30 1695 H 163.84 -0.514606 4.82262 0
M  V30 1696 H 159.719 -1.62961 4.31236 0
M  V30 1697 H 163.263 0.597081 6.9504 0
M  V30 1698 H 159.16 -0.524242 6.43368 0
M  V30 1699 H 159.928 0.627138 8.16094 0
M  V30 1700 N 162.591 -1.51276 -0.441967 0
M  V30 1701 C 164.002 -1.56244 -1.02199 0
M  V30 1702 C 164.353 -0.383149 -1.92422 0
M  V30 1703 O 163.478 0.500613 -2.1053 0
M  V30 1704 C 164.073 -2.83162 -1.86024 0
M  V30 1705 C 162.632 -2.90716 -2.39084 0
M  V30 1706 C 161.779 -2.50858 -1.18175 0
M  V30 1707 H 164.73 -1.5712 -0.223416 0
M  V30 1708 H 164.751 -2.66663 -2.71425 0
M  V30 1709 H 164.263 -3.68974 -1.20331 0
M  V30 1710 H 162.364 -2.09323 -3.08244 0
M  V30 1711 H 162.477 -3.94266 -2.72198 0
M  V30 1712 H 160.841 -2.03951 -1.52565 0
M  V30 1713 H 161.624 -3.3901 -0.541001 0
M  V30 1714 N 164.069 0.697108 -1.41344 0
M  V30 1715 C 165.001 1.8224 -1.39001 0
M  V30 1716 C 166.014 1.60152 -0.292428 0
M  V30 1717 O 167.203 1.69684 -0.554048 0
M  V30 1718 C 164.303 3.18976 -1.14489 0
M  V30 1719 C 163.476 3.68105 -2.36258 0
M  V30 1720 C 162.535 4.83506 -2.07625 0
M  V30 1721 O 161.561 4.95201 -2.8065 0
M  V30 1722 N 162.763 5.70637 -1.06555 0
M  V30 1723 H 165.528 1.84742 -2.35988 0
M  V30 1724 H 163.089 0.87937 -1.35936 0
M  V30 1725 H 165.081 3.93801 -0.932885 0
M  V30 1726 H 163.651 3.11508 -0.261043 0
M  V30 1727 H 162.871 2.84204 -2.7317 0
M  V30 1728 H 164.159 3.97667 -3.17393 0
M  V30 1729 H 163.557 5.63817 -0.461125 0
M  V30 1730 H 162.114 6.45368 -0.913444 0
M  V30 1731 N 165.547 1.27147 0.931209 0
M  V30 1732 C 166.477 1.12081 2.04842 0
M  V30 1733 C 167.458 0.0232364 1.70084 0
M  V30 1734 O 168.643 0.197085 1.93197 0
M  V30 1735 C 165.773 0.76354 3.38803 0
M  V30 1736 C 164.727 1.81396 3.87659 0
M  V30 1737 C 164.053 1.31075 5.18385 0
M  V30 1738 C 165.353 3.21739 4.11438 0
M  V30 1739 H 167.047 2.05537 2.17703 0
M  V30 1740 H 164.593 0.989603 1.04608 0
M  V30 1741 H 166.546 0.644982 4.16435 0
M  V30 1742 H 165.27 -0.206727 3.25945 0
M  V30 1743 H 163.929 1.92136 3.12217 0
M  V30 1744 H 163.577 0.330037 5.01916 0
M  V30 1745 H 163.277 2.013 5.52044 0
M  V30 1746 H 164.801 1.20506 5.98591 0
M  V30 1747 H 166.215 3.14019 4.79651 0
M  V30 1748 H 164.612 3.89644 4.56397 0
M  V30 1749 H 165.682 3.67054 3.16859 0
M  V30 1750 N 167.025 -1.13721 1.09112 0
M  V30 1751 C 168.272 -1.84924 0.825192 0
M  V30 1752 C 168.6 -1.83347 -0.649151 0
M  V30 1753 O 167.855 -1.26449 -1.49362 0
M  V30 1754 C 168.154 -3.32861 1.30146 0
M  V30 1755 C 167.82 -3.54621 2.78486 0
M  V30 1756 C 166.482 -3.60268 3.18999 0
M  V30 1757 C 168.834 -3.62855 3.74146 0
M  V30 1758 C 166.162 -3.71679 4.53951 0
M  V30 1759 C 168.514 -3.75793 5.08883 0
M  V30 1760 C 167.178 -3.79692 5.4899 0
M  V30 1761 H 166.448 -0.676684 0.301959 0
M  V30 1762 H 169.095 -1.3428 1.36533 0
M  V30 1763 H 167.4 -3.85835 0.681064 0
M  V30 1764 H 169.097 -3.86395 1.07236 0
M  V30 1765 H 165.687 -3.50879 2.46134 0
M  V30 1766 H 169.871 -3.57775 3.43963 0
M  V30 1767 H 165.127 -3.72963 4.84467 0
M  V30 1768 H 169.301 -3.81107 5.82864 0
M  V30 1769 H 166.928 -3.88287 6.53558 0
M  V30 1770 N 168.503 -0.877838 -1.30888 0
M  V30 1771 C 169.466 -0.344265 -2.266 0
M  V30 1772 C 170.466 0.50922 -1.52524 0
M  V30 1773 O 171.656 0.317398 -1.71284 0
M  V30 1774 C 168.788 0.510198 -3.37061 0
M  V30 1775 H 169.981 -1.1893 -2.7531 0
M  V30 1776 H 167.534 -0.654088 -1.41956 0
M  V30 1777 H 168.269 1.37612 -2.93655 0
M  V30 1778 H 168.054 -0.101047 -3.9197 0
M  V30 1779 H 169.544 0.875537 -4.08319 0
M  V30 1780 N 169.982 1.44106 -0.638065 0
M  V30 1781 C 170.945 2.29138 0.0531013 0
M  V30 1782 C 171.945 1.41409 0.765506 0
M  V30 1783 O 173.135 1.63206 0.609046 0
M  V30 1784 C 170.267 3.23144 1.08584 0
M  V30 1785 H 171.46 2.91739 -0.694883 0
M  V30 1786 H 169.013 1.51134 -0.398538 0
M  V30 1787 H 169.748 2.65408 1.86357 0
M  V30 1788 H 169.533 3.87804 0.578852 0
M  V30 1789 H 171.023 3.87004 1.56899 0
M  V30 1790 N 171.46 0.379036 1.52974 0
M  V30 1791 C 172.708 -0.206014 2.01047 0
M  V30 1792 C 173.029 -1.48175 1.26765 0
M  V30 1793 O 172.299 -1.92085 0.384743 0
M  V30 1794 H 170.879 -0.0791184 0.742798 0
M  V30 1795 H 173.541 0.508366 1.88153 0
M  V30 1796 H 172.637 -0.423501 3.09213 0
M  V30 1797 N 172.938 -1.57226 0.108567 0
M  V30 1798 C 173.871 -2.10447 -0.882464 0
M  V30 1799 C 174.849 -1.01829 -1.26766 0
M  V30 1800 O 176.033 -1.29415 -1.37054 0
M  V30 1801 C 173.16 -2.59258 -2.17952 0
M  V30 1802 C 172.206 -3.79662 -1.94318 0
M  V30 1803 S 173.039 -5.22586 -1.16892 0
M  V30 1804 C 174.195 -5.74758 -2.47799 0
M  V30 1805 H 174.428 -2.94178 -0.429745 0
M  V30 1806 H 171.961 -1.54043 -0.105 0
M  V30 1807 H 173.919 -2.88036 -2.92482 0
M  V30 1808 H 172.58 -1.75728 -2.60343 0
M  V30 1809 H 171.773 -4.11928 -2.90399 0
M  V30 1810 H 171.375 -3.51446 -1.27913 0
M  V30 1811 H 173.667 -5.83846 -3.43701 0
M  V30 1812 H 174.61 -6.73027 -2.20093 0
M  V30 1813 H 175.018 -5.02763 -2.56689 0
M  V30 1814 N 174.416 0.165178 -1.56732 0
M  V30 1815 C 175.346 1.20651 -1.99914 0
M  V30 1816 C 176.327 1.45827 -0.875705 0
M  V30 1817 O 177.512 1.57057 -1.14223 0
M  V30 1818 C 174.642 2.54401 -2.36427 0
M  V30 1819 C 173.596 2.43782 -3.51787 0
M  V30 1820 C 172.922 3.82078 -3.7406 0
M  V30 1821 C 174.222 1.93732 -4.85041 0
M  V30 1822 H 175.916 0.847534 -2.87154 0
M  V30 1823 H 173.462 0.40625 -1.38151 0
M  V30 1824 H 175.415 3.27458 -2.65234 0
M  V30 1825 H 174.139 2.92098 -1.46103 0
M  V30 1826 H 172.798 1.73178 -3.23117 0
M  V30 1827 H 172.446 4.17179 -2.81017 0
M  V30 1828 H 172.146 3.7584 -4.51684 0
M  V30 1829 H 173.67 4.56712 -4.05274 0
M  V30 1830 H 175.084 2.56569 -5.12684 0
M  V30 1831 H 173.481 1.98428 -5.66345 0
M  V30 1832 H 174.551 0.891962 -4.76626 0
M  V30 1833 N 175.894 1.51508 0.433938 0
M  V30 1834 C 177.119 1.68443 1.21003 0
M  V30 1835 C 177.544 0.382636 1.84167 0
M  V30 1836 O 176.902 -0.65755 1.68956 0
M  V30 1837 C 176.95 2.80405 2.26727 0
M  V30 1838 O 176.054 2.44245 3.32292 0
M  V30 1839 H 175.395 0.561536 0.354363 0
M  V30 1840 H 177.925 1.9809 0.512024 0
M  V30 1841 H 177.935 3.0459 2.71457 0
M  V30 1842 H 176.61 3.74867 1.80132 0
M  V30 1843 H 175.187 2.30644 2.93015 0
M  V30 1844 N 177.372 -0.689602 1.41712 0
M  V30 1845 C 178.62 -1.4468 1.4111 0
M  V30 1846 C 178.941 -1.94986 0.0232196 0
M  V30 1847 O 178.211 -1.72097 -0.935913 0
M  V30 1848 H 176.791 -0.536847 0.519427 0
M  V30 1849 H 179.453 -0.815825 1.77004 0
M  V30 1850 H 178.549 -2.30706 2.10193 0
M  V30 1851 N 178.85 -1.27639 -0.924453 0
M  V30 1852 C 180.096 -1.14336 -1.67497 0
M  V30 1853 C 180.429 0.309465 -1.91718 0
M  V30 1854 O 179.704 1.22608 -1.50989 0
M  V30 1855 C 179.987 -1.93096 -3.0395 0
M  V30 1856 C 179.84 -3.46381 -2.8695 0
M  V30 1857 C 181.159 -1.73798 -4.0433 0
M  V30 1858 H 178.278 -0.416728 -0.607871 0
M  V30 1859 H 180.92 -1.56832 -1.07256 0
M  V30 1860 H 179.07 -1.56982 -3.55372 0
M  V30 1861 H 180.742 -3.92343 -2.42621 0
M  V30 1862 H 178.985 -3.72557 -2.22225 0
M  V30 1863 H 179.656 -3.96735 -3.83804 0
M  V30 1864 H 182.132 -2.05293 -3.61931 0
M  V30 1865 H 181.008 -2.31294 -4.97789 0
M  V30 1866 H 181.269 -0.686725 -4.36734 0
M  V30 1867 N 180.328 1.1314 -1.09713 0
M  V30 1868 C 181.575 1.84484 -0.834987 0
M  V30 1869 C 181.903 1.83689 0.639418 0
M  V30 1870 O 181.158 1.2724 1.4869 0
M  V30 1871 C 181.457 3.32167 -1.3191 0
M  V30 1872 C 181.123 3.53139 -2.80363 0
M  V30 1873 C 179.785 3.58571 -3.20905 0
M  V30 1874 C 182.137 3.60866 -3.76065 0
M  V30 1875 C 179.465 3.69267 -4.55916 0
M  V30 1876 C 181.817 3.73089 -5.10869 0
M  V30 1877 C 180.481 3.76775 -5.50996 0
M  V30 1878 H 179.751 0.675073 -0.305544 0
M  V30 1879 H 182.398 1.33554 -1.37243 0
M  V30 1880 H 180.703 3.85469 -0.701517 0
M  V30 1881 H 182.4 3.85821 -1.09284 0
M  V30 1882 H 178.99 3.49569 -2.47991 0
M  V30 1883 H 183.174 3.55946 -3.45855 0
M  V30 1884 H 178.43 3.70388 -4.86438 0
M  V30 1885 H 182.604 3.78011 -5.84877 0
M  V30 1886 H 180.231 3.84815 -6.55608 0
M  V30 1887 N 181.806 0.884767 1.30421 0
M  V30 1888 C 183.034 0.518044 2.0031 0
M  V30 1889 C 183.449 -0.893408 1.66324 0
M  V30 1890 O 182.806 -1.5875 0.900262 0
M  V30 1891 C 182.857 0.682997 3.54989 0
M  V30 1892 O 182.578 2.03888 3.87764 0
M  V30 1893 C 184.079 0.31924 4.42149 0
M  V30 1894 H 181.299 0.200265 0.640418 0
M  V30 1895 H 183.843 1.19001 1.6631 0
M  V30 1896 H 181.998 0.0584052 3.87356 0
M  V30 1897 H 182.412 2.05735 4.82466 0
M  V30 1898 H 183.886 0.485555 5.4986 0
M  V30 1899 H 184.363 -0.742717 4.32875 0
M  V30 1900 H 184.969 0.920147 4.15227 0
M  V30 1901 N 183.284 -1.43765 0.645699 0
M  V30 1902 C 184.512 -2.06253 0.163556 0
M  V30 1903 C 184.927 -1.48352 -1.16778 0
M  V30 1904 O 184.284 -0.611932 -1.71935 0
M  V30 1905 C 184.335 -3.61453 0.0583186 0
M  V30 1906 O 184.056 -4.172 1.33702 0
M  V30 1907 C 185.557 -4.41002 -0.450795 0
M  V30 1908 H 182.777 -0.665413 0.0864077 0
M  V30 1909 H 185.321 -1.84396 0.884222 0
M  V30 1910 H 183.476 -3.82522 -0.612865 0
M  V30 1911 H 183.89 -5.10791 1.19131 0
M  V30 1912 H 185.364 -5.49966 -0.473403 0
M  V30 1913 H 185.841 -4.13488 -1.48068 0
M  V30 1914 H 186.447 -4.24886 0.187637 0
M  V30 1915 N 184.763 -0.387143 -1.52771 0
M  V30 1916 C 186.011 0.195349 -2.01154 0
M  V30 1917 C 186.332 1.475 -1.27549 0
M  V30 1918 O 185.602 1.91878 -0.394924 0
M  V30 1919 H 184.182 0.075178 -0.743207 0
M  V30 1920 H 186.844 -0.518337 -1.87881 0
M  V30 1921 H 185.94 0.407096 -3.09434 0
M  V30 1922 N 186.241 1.57166 -0.116904 0
M  V30 1923 C 187.49 1.94298 0.541407 0
M  V30 1924 C 187.803 1.00236 1.67964 0
M  V30 1925 O 189.009 1.26826 2.40057 0
M  V30 1926 C 187.465 3.45306 1.01449 0
M  V30 1927 C 187.073 4.47899 -0.0951738 0
M  V30 1928 C 188.817 3.91361 1.6443 0
M  V30 1929 C 186.724 5.90083 0.394491 0
M  V30 1930 H 185.654 0.725308 0.206019 0
M  V30 1931 H 188.305 1.82446 -0.196419 0
M  V30 1932 H 186.687 3.52385 1.80667 0
M  V30 1933 H 187.861 4.52486 -0.871374 0
M  V30 1934 H 186.176 4.11583 -0.631505 0
M  V30 1935 H 188.773 4.95004 2.02176 0
M  V30 1936 H 189.116 3.3122 2.52189 0
M  V30 1937 H 189.649 3.87073 0.917559 0
M  V30 1938 H 186.388 6.53974 -0.447004 0
M  V30 1939 H 185.908 5.88921 1.13722 0
M  V30 1940 H 187.587 6.41307 0.856399 0
M  V30 1941 N 187.719 -0.156864 1.56817 0
M  V30 1942 C 188.652 -1.22316 1.9265 0
M  V30 1943 C 189.63 -1.42059 0.791076 0
M  V30 1944 O 190.814 -1.56831 1.04576 0
M  V30 1945 C 187.941 -2.58375 2.18998 0
M  V30 1946 C 186.987 -2.55284 3.41661 0
M  V30 1947 S 187.82 -2.02946 4.95553 0
M  V30 1948 C 188.976 -3.40753 5.25013 0
M  V30 1949 H 189.209 -0.917403 2.82791 0
M  V30 1950 H 186.742 -0.362059 1.50095 0
M  V30 1951 H 188.7 -3.36677 2.34859 0
M  V30 1952 H 187.361 -2.86145 1.29538 0
M  V30 1953 H 186.554 -3.55418 3.57343 0
M  V30 1954 H 186.156 -1.85086 3.24991 0
M  V30 1955 H 188.448 -4.36819 5.17876 0
M  V30 1956 H 189.391 -3.29933 6.26538 0
M  V30 1957 H 189.799 -3.37433 4.52548 0
M  V30 1958 N 189.197 -1.51736 -0.425897 0
M  V30 1959 C 190.425 -1.68794 -1.1965 0
M  V30 1960 C 190.84 -0.390164 -1.84725 0
M  V30 1961 O 190.197 0.632376 -1.71194 0
M  V30 1962 C 190.248 -2.81174 -2.27208 0
M  V30 1963 O 189.969 -4.05925 -1.64793 0
M  V30 1964 C 191.47 -3.09599 -3.17275 0
M  V30 1965 H 188.69 -0.566128 -0.360194 0
M  V30 1966 H 191.234 -1.98211 -0.503249 0
M  V30 1967 H 189.389 -2.54324 -2.9223 0
M  V30 1968 H 189.803 -4.68423 -2.35967 0
M  V30 1969 H 191.277 -3.91786 -3.88854 0
M  V30 1970 H 191.754 -2.22468 -3.78688 0
M  V30 1971 H 192.36 -3.38151 -2.57941 0
M  V30 1972 N 190.675 0.682077 -1.42076 0
M  V30 1973 C 192.086 1.26246 -1.37546 0
M  V30 1974 C 192.437 1.96092 -0.0651481 0
M  V30 1975 O 191.562 1.99587 0.836297 0
M  V30 1976 C 192.157 2.29594 -2.49143 0
M  V30 1977 C 190.716 2.83175 -2.47969 0
M  V30 1978 C 189.863 1.57395 -2.28303 0
M  V30 1979 H 192.814 0.475937 -1.51395 0
M  V30 1980 H 192.835 3.11175 -2.18976 0
M  V30 1981 H 192.347 1.78729 -3.44496 0
M  V30 1982 H 190.448 3.3818 -1.56413 0
M  V30 1983 H 190.561 3.32687 -3.44755 0
M  V30 1984 H 188.925 1.83699 -1.76428 0
M  V30 1985 H 189.708 1.08507 -3.25701 0
M  V30 1986 N 192.153 1.28127 0.917671 0
M  V30 1987 C 193.401 1.14825 1.66312 0
M  V30 1988 C 193.722 -0.304379 1.9261 0
M  V30 1989 O 192.992 -1.21149 1.53947 0
M  V30 1990 H 191.572 0.421953 0.616413 0
M  V30 1991 H 194.234 1.608 1.10134 0
M  V30 1992 H 193.33 1.68489 2.62712 0
M  V30 1993 N 193.631 -1.12557 1.10312 0
M  V30 1994 C 194.541 -2.21841 0.763142 0
M  V30 1995 C 195.557 -1.72354 -0.238801 0
M  V30 1996 O 196.733 -2.01249 -0.0778746 0
M  V30 1997 C 193.798 -3.46131 0.198632 0
M  V30 1998 C 192.859 -4.10464 1.25769 0
M  V30 1999 C 192.092 -5.28821 0.72002 0
M  V30 2000 O 192.315 -5.6859 -0.453993 0
M  V30 2001 O 191.249 -5.83437 1.47935 0
M  V30 2002 H 195.075 -2.53312 1.67532 0
M  V30 2003 H 192.66 -1.20867 0.878157 0
M  V30 2004 H 194.542 -4.2125 -0.112401 0
M  V30 2005 H 193.217 -3.16338 -0.686419 0
M  V30 2006 H 192.124 -3.3713 1.62156 0
M  V30 2007 H 193.457 -4.44408 2.11571 0
M  V30 2008 N 195.109 -0.891671 -1.2995 0
M  V30 2009 C 196.525 -0.58662 -1.48428 0
M  V30 2010 C 196.725 0.873951 -1.81561 0
M  V30 2011 O 195.781 1.65471 -1.90724 0
M  V30 2012 C 197.094 -1.50553 -2.60296 0
M  V30 2013 C 198.642 -1.50988 -2.74175 0
M  V30 2014 C 199.117 -2.41488 -3.89163 0
M  V30 2015 N 200.608 -2.39489 -3.96483 0
M  V30 2016 C 201.343 -3.06223 -4.84784 0
M  V30 2017 N 200.839 -3.82206 -5.77833 0
M  V30 2018 N 202.632 -2.95421 -4.78208 0
M  V30 2019 H 194.783 -1.83644 -1.06718 0
M  V30 2020 H 197.046 -0.786455 -0.529332 0
M  V30 2021 H 196.752 -2.54581 -2.42654 0
M  V30 2022 H 196.626 -1.22008 -3.56923 0
M  V30 2023 H 199.013 -0.47708 -2.91218 0
M  V30 2024 H 199.094 -1.83567 -1.78148 0
M  V30 2025 H 198.738 -3.44857 -3.72876 0
M  V30 2026 H 198.668 -2.06222 -4.84541 0
M  V30 2027 H 201.159 -1.84278 -3.29924 0
M  V30 2028 H 201.472 -4.302 -6.41988 0
M  V30 2029 H 199.817 -3.86313 -5.77743 0
M  V30 2030 H 203.008 -2.35581 -4.04499 0
M  V30 2031 H 203.181 -3.47704 -5.46814 0
M  V30 2032 N 196.587 1.43421 -0.653314 0
M  V30 2033 C 197.836 2.01032 -0.164076 0
M  V30 2034 C 198.149 1.52147 1.22926 0
M  V30 2035 O 199.355 2.02031 1.81371 0
M  V30 2036 C 197.811 3.59082 -0.24252 0
M  V30 2037 C 197.419 4.1696 -1.63855 0
M  V30 2038 C 199.163 4.24079 0.18911 0
M  V30 2039 C 197.07 5.67304 -1.67092 0
M  V30 2040 H 196 0.751798 -0.0575769 0
M  V30 2041 H 198.651 1.6439 -0.815362 0
M  V30 2042 H 197.033 3.93125 0.476276 0
M  V30 2043 H 198.207 3.94416 -2.38271 0
M  V30 2044 H 196.522 3.64335 -2.01616 0
M  V30 2045 H 199.119 5.34381 0.184775 0
M  V30 2046 H 199.462 3.98005 1.22056 0
M  V30 2047 H 199.995 3.94918 -0.477938 0
M  V30 2048 H 196.734 5.98145 -2.68146 0
M  V30 2049 H 196.254 5.91904 -0.970014 0
M  V30 2050 H 197.933 6.31344 -1.4147 0
M  V30 2051 N 198.065 0.39524 1.52563 0
M  V30 2052 C 199.012 -0.437036 2.26624 0
M  V30 2053 C 199.982 -1.05281 1.28472 0
M  V30 2054 O 201.167 -1.07971 1.57311 0
M  V30 2055 C 198.307 -1.55524 3.08069 0
M  V30 2056 C 197.42 -0.961745 4.21158 0
M  V30 2057 C 196.555 -2.05149 4.89987 0
M  V30 2058 C 195.594 -1.4342 5.95061 0
M  V30 2059 N 194.731 -2.46351 6.57462 0
M  V30 2060 H 199.571 0.200976 2.97322 0
M  V30 2061 H 197.108 0.110944 1.46681 0
M  V30 2062 H 199.066 -2.21437 3.53584 0
M  V30 2063 H 197.696 -2.16348 2.3957 0
M  V30 2064 H 196.748 -0.192048 3.79915 0
M  V30 2065 H 198.06 -0.470701 4.96574 0
M  V30 2066 H 197.214 -2.78819 5.38837 0
M  V30 2067 H 195.953 -2.57615 4.14109 0
M  V30 2068 H 194.958 -0.682774 5.45544 0
M  V30 2069 H 196.183 -0.917416 6.72875 0
M  V30 2070 H 194.129 -2.97975 5.8442 0
M  V30 2071 H 194.046 -2.02019 7.28508 0
M  V30 2072 H 195.314 -3.19633 7.10954 0
M  V30 2073 N 199.544 -1.57102 0.125237 0
M  V30 2074 C 200.784 -1.97294 -0.534259 0
M  V30 2075 C 201.148 -1.0074 -1.63449 0
M  V30 2076 O 202.349 -1.29893 -2.35332 0
M  V30 2077 C 200.62 -3.41705 -1.04748 0
M  V30 2078 S 202.179 -4.03913 -1.71463 0
M  V30 2079 H 198.997 -0.689517 -0.173458 0
M  V30 2080 H 201.599 -1.94349 0.211797 0
M  V30 2081 H 200.303 -4.09723 -0.235649 0
M  V30 2082 H 199.834 -3.48315 -1.82867 0
M  V30 2083 H 201.849 -3.95182 -3.00077 0
M  V30 2084 N 201.022 0.148545 -1.56898 0
M  V30 2085 C 201.952 1.18524 -2.01182 0
M  V30 2086 C 202.933 1.4489 -0.891123 0
M  V30 2087 O 204.118 1.55836 -1.15882 0
M  V30 2088 C 201.248 2.51879 -2.39112 0
M  V30 2089 C 200.202 2.40038 -3.54353 0
M  V30 2090 C 199.528 3.78089 -3.78091 0
M  V30 2091 C 200.828 1.88577 -4.87069 0
M  V30 2092 H 202.522 0.817029 -2.88036 0
M  V30 2093 H 200.068 0.391575 -1.38574 0
M  V30 2094 H 202.021 3.24627 -2.68692 0
M  V30 2095 H 200.745 2.90532 -1.49193 0
M  V30 2096 H 199.404 1.69742 -3.24936 0
M  V30 2097 H 199.052 4.14175 -2.85426 0
M  V30 2098 H 198.752 3.71028 -4.55645 0
M  V30 2099 H 200.276 4.52387 -4.10095 0
M  V30 2100 H 201.69 2.51117 -5.15377 0
M  V30 2101 H 200.087 1.9241 -5.68417 0
M  V30 2102 H 201.157 0.84136 -4.77545 0
M  V30 2103 N 202.5 1.5196 0.417844 0
M  V30 2104 C 203.43 1.77634 1.51554 0
M  V30 2105 C 204.411 0.626918 1.58126 0
M  V30 2106 O 205.596 0.871632 1.7354 0
M  V30 2107 C 202.726 1.91911 2.8946 0
M  V30 2108 C 201.68 3.07463 2.97743 0
M  V30 2109 C 201.006 3.06951 4.37819 0
M  V30 2110 C 202.306 4.47082 2.70027 0
M  V30 2111 H 204 2.6955 1.3032 0
M  V30 2112 H 201.546 1.29706 0.625492 0
M  V30 2113 H 203.499 2.08455 3.6623 0
M  V30 2114 H 202.223 0.966598 3.11969 0
M  V30 2115 H 200.882 2.90656 2.23416 0
M  V30 2116 H 200.53 2.09438 4.57323 0
M  V30 2117 H 200.23 3.84556 4.44286 0
M  V30 2118 H 201.754 3.25613 5.16535 0
M  V30 2119 H 203.168 4.6414 3.36522 0
M  V30 2120 H 201.565 5.2654 2.87881 0
M  V30 2121 H 202.635 4.55777 1.65514 0
M  V30 2122 N 203.978 -0.674533 1.42435 0
M  V30 2123 C 204.91 -1.80005 1.41883 0
M  V30 2124 C 205.923 -1.59667 0.31787 0
M  V30 2125 O 207.112 -1.68781 0.580973 0
M  V30 2126 C 204.212 -3.17114 1.19549 0
M  V30 2127 C 203.385 -3.64299 2.42084 0
M  V30 2128 C 202.444 -4.80142 2.15291 0
M  V30 2129 O 201.47 -4.90673 2.88493 0
M  V30 2130 N 202.672 -5.68869 1.1562 0
M  V30 2131 H 205.437 -1.80964 2.38898 0
M  V30 2132 H 202.998 -0.857633 1.37318 0
M  V30 2133 H 204.99 -3.92267 0.995417 0
M  V30 2134 H 203.56 -3.11053 0.310569 0
M  V30 2135 H 202.78 -2.79822 2.77657 0
M  V30 2136 H 204.068 -3.92567 3.23679 0
M  V30 2137 H 203.466 -5.63012 0.550765 0
M  V30 2138 H 202.023 -6.43833 1.016 0
M  V30 2139 N 205.456 -1.28612 -0.910864 0
M  V30 2140 C 206.705 -1.15311 -1.65488 0
M  V30 2141 C 207.018 0.296999 -1.93332 0
M  V30 2142 O 208.224 0.551168 -2.65847 0
M  V30 2143 C 206.68 -2.01599 -2.98137 0
M  V30 2144 C 206.288 -3.51367 -2.7793 0
M  V30 2145 C 208.032 -1.96993 -3.76024 0
M  V30 2146 C 205.939 -4.29797 -4.06237 0
M  V30 2147 H 204.869 -0.42796 -0.620779 0
M  V30 2148 H 207.52 -1.53166 -1.01057 0
M  V30 2149 H 205.902 -1.56603 -3.63719 0
M  V30 2150 H 207.076 -4.0434 -2.21011 0
M  V30 2151 H 205.391 -3.57529 -2.13452 0
M  V30 2152 H 207.988 -2.52856 -4.71135 0
M  V30 2153 H 208.331 -0.94733 -4.05378 0
M  V30 2154 H 208.864 -2.39973 -3.17266 0
M  V30 2155 H 205.603 -5.32648 -3.82055 0
M  V30 2156 H 205.123 -3.81596 -4.62757 0
M  V30 2157 H 206.802 -4.39869 -4.74473 0
M  V30 2158 N 206.934 1.1197 -1.10907 0
M  V30 2159 C 207.866 2.17592 -0.720175 0
M  V30 2160 C 208.879 1.60938 0.245495 0
M  V30 2161 O 210.068 1.78476 0.0292245 0
M  V30 2162 C 207.168 3.38873 -0.0427917 0
M  V30 2163 C 206.341 4.25006 -1.03388 0
M  V30 2164 C 205.4 5.24774 -0.387075 0
M  V30 2165 O 204.426 5.59631 -1.03934 0
M  V30 2166 N 205.628 5.74208 0.852407 0
M  V30 2167 H 208.393 2.51567 -1.62893 0
M  V30 2168 H 205.954 1.27439 -0.998543 0
M  V30 2169 H 207.946 4.02703 0.401501 0
M  V30 2170 H 206.516 3.03007 0.768456 0
M  V30 2171 H 205.736 3.57716 -1.65629 0
M  V30 2172 H 207.024 4.79397 -1.70458 0
M  V30 2173 H 206.422 5.48062 1.40161 0
M  V30 2174 H 204.979 6.39901 1.23977 0
M  V30 2175 N 208.412 0.89855 1.29475 0
M  V30 2176 C 209.375 0.380272 2.26023 0
M  V30 2177 C 210.375 -0.484891 1.53315 0
M  V30 2178 O 211.565 -0.290108 1.71767 0
M  V30 2179 C 208.697 -0.45651 3.3783 0
M  V30 2180 H 209.89 1.23295 2.73383 0
M  V30 2181 H 207.443 0.676589 1.40897 0
M  V30 2182 H 208.178 -1.32922 2.95808 0
M  V30 2183 H 207.963 0.163393 3.91759 0
M  V30 2184 H 209.453 -0.810466 4.0966 0
M  V30 2185 N 209.89 -1.43072 0.660911 0
M  V30 2186 C 211.115 -2.06584 0.183805 0
M  V30 2187 C 211.54 -1.49257 -1.14472 0
M  V30 2188 O 210.898 -0.605528 -1.70889 0
M  V30 2189 C 210.946 -3.60418 0.114434 0
M  V30 2190 O 210.05 -4.01981 -0.921137 0
M  V30 2191 H 209.391 -0.656669 0.0983994 0
M  V30 2192 H 211.921 -1.83447 0.906006 0
M  V30 2193 H 211.931 -4.07946 -0.0663394 0
M  V30 2194 H 210.606 -4.01519 1.08422 0
M  V30 2195 H 209.183 -3.66029 -0.71253 0
M  V30 2196 N 211.368 -0.403325 -1.52352 0
M  V30 2197 C 212.593 0.176499 -2.06648 0
M  V30 2198 C 213.018 1.38577 -1.27193 0
M  V30 2199 O 212.376 1.7879 -0.300637 0
M  V30 2200 C 212.424 0.511061 -3.5696 0
M  V30 2201 O 211.528 1.60294 -3.79973 0
M  V30 2202 H 210.869 0.0167337 -0.663789 0
M  V30 2203 H 213.399 -0.574848 -1.96359 0
M  V30 2204 H 213.409 0.771362 -4.00642 0
M  V30 2205 H 212.084 -0.37296 -4.14224 0
M  V30 2206 H 210.661 1.33526 -3.48174 0
M  V30 2207 N 212.846 1.57033 -0.133567 0
M  V30 2208 C 214.094 1.953 0.519848 0
M  V30 2209 C 214.415 1.01866 1.66278 0
M  V30 2210 O 213.685 0.0776513 1.95746 0
M  V30 2211 H 212.265 0.721091 0.195032 0
M  V30 2212 H 214.927 1.93809 -0.205921 0
M  V30 2213 H 214.023 2.98695 0.904854 0
M  V30 2214 N 214.325 -0.140222 1.56975 0
M  V30 2215 C 215.235 -1.19223 2.02047 0
M  V30 2216 C 216.251 -1.46612 0.937062 0
M  V30 2217 O 217.427 -1.58148 1.24704 0
M  V30 2218 C 214.492 -2.50414 2.39778 0
M  V30 2219 C 213.553 -2.30612 3.621 0
M  V30 2220 C 212.786 -3.55547 3.98023 0
M  V30 2221 O 213.009 -4.62004 3.34528 0
M  V30 2222 O 211.943 -3.47808 4.91237 0
M  V30 2223 H 215.769 -0.839559 2.91865 0
M  V30 2224 H 213.354 -0.349453 1.45256 0
M  V30 2225 H 215.236 -3.27747 2.64877 0
M  V30 2226 H 213.911 -2.85198 1.53114 0
M  V30 2227 H 212.818 -1.51207 3.4218 0
M  V30 2228 H 214.151 -2.00741 4.49404 0
M  V30 2229 N 215.803 -1.52179 -0.40978 0
M  V30 2230 C 217.028 -1.70347 -1.18308 0
M  V30 2231 C 217.453 -0.411887 -1.83535 0
M  V30 2232 O 216.811 0.630587 -1.6998 0
M  V30 2233 C 216.859 -2.83977 -2.22238 0
M  V30 2234 O 215.963 -2.495 -3.28365 0
M  V30 2235 H 215.304 -0.567103 -0.345384 0
M  V30 2236 H 217.834 -1.98879 -0.480445 0
M  V30 2237 H 217.844 -3.0887 -2.66577 0
M  V30 2238 H 216.519 -3.77685 -1.74146 0
M  V30 2239 H 215.096 -2.35277 -2.89308 0
M  V30 2240 N 217.281 0.66697 -1.42791 0
M  V30 2241 C 218.228 1.7803 -1.4688 0
M  V30 2242 C 219.198 1.6299 -0.319919 0
M  V30 2243 O 220.383 1.83432 -0.525118 0
M  V30 2244 C 217.523 3.1611 -1.38451 0
M  V30 2245 C 216.636 3.42381 -2.63437 0
M  V30 2246 C 215.771 4.70232 -2.47094 0
M  V30 2247 C 214.81 4.89564 -3.67415 0
M  V30 2248 N 213.947 6.08661 -3.49966 0
M  V30 2249 H 218.787 1.7387 -2.42019 0
M  V30 2250 H 216.324 0.84868 -1.20149 0
M  V30 2251 H 218.282 3.95914 -1.31561 0
M  V30 2252 H 216.912 3.19374 -0.469033 0
M  V30 2253 H 215.964 2.56774 -2.80662 0
M  V30 2254 H 217.276 3.52557 -3.52853 0
M  V30 2255 H 216.43 5.5814 -2.37834 0
M  V30 2256 H 215.169 4.62353 -1.5518 0
M  V30 2257 H 214.174 4.00096 -3.77099 0
M  V30 2258 H 215.399 4.99282 -4.6032 0
M  V30 2259 H 213.345 6.0194 -2.60776 0
M  V30 2260 H 213.262 6.19733 -4.32975 0
M  V30 2261 H 214.53 6.99226 -3.44532 0
M  V30 2262 N 218.759 1.29093 0.90403 0
M  V30 2263 C 219.989 1.19516 1.68522 0
M  V30 2264 C 220.397 -0.24738 1.87576 0
M  V30 2265 O 219.74 -1.17798 1.40959 0
M  V30 2266 C 219.802 1.83249 3.0929 0
M  V30 2267 C 219.466 3.32531 3.13484 0
M  V30 2268 C 220.463 4.28821 2.93953 0
M  V30 2269 C 218.148 3.73656 3.35688 0
M  V30 2270 C 220.142 5.64212 2.96553 0
M  V30 2271 C 217.829 5.0917 3.37919 0
M  V30 2272 C 218.827 6.04258 3.18373 0
M  V30 2273 O 218.515 7.37298 3.20385 0
M  V30 2274 H 218.247 0.415467 0.533257 0
M  V30 2275 H 220.801 1.70912 1.13922 0
M  V30 2276 H 219.031 1.26358 3.65473 0
M  V30 2277 H 220.72 1.68054 3.69476 0
M  V30 2278 H 221.486 3.98382 2.76616 0
M  V30 2279 H 217.365 3.00101 3.49943 0
M  V30 2280 H 220.909 6.38407 2.81216 0
M  V30 2281 H 216.806 5.39256 3.54787 0
M  V30 2282 H 217.574 7.46048 3.36681 0
M  V30 2283 N 220.237 -1.11381 1.11499 0
M  V30 2284 C 221.465 -1.86934 0.88675 0
M  V30 2285 C 221.88 -1.80195 -0.563476 0
M  V30 2286 O 221.237 -1.18367 -1.38908 0
M  V30 2287 C 221.288 -3.35722 1.34064 0
M  V30 2288 O 221.009 -3.4232 2.73401 0
M  V30 2289 C 222.51 -4.2818 1.14791 0
M  V30 2290 H 219.73 -0.591117 0.317523 0
M  V30 2291 H 222.274 -1.40865 1.48248 0
M  V30 2292 H 220.429 -3.79294 0.788355 0
M  V30 2293 H 220.843 -4.34971 2.93087 0
M  V30 2294 H 222.317 -5.30817 1.5145 0
M  V30 2295 H 222.794 -4.39113 0.0875279 0
M  V30 2296 H 223.4 -3.90402 1.68721 0
M  V30 2297 N 221.715 -0.905404 -1.28997 0
M  V30 2298 C 222.963 -0.533192 -1.9494 0
M  V30 2299 C 223.284 0.924618 -1.71685 0
M  V30 2300 O 222.554 1.65268 -1.05183 0
M  V30 2301 H 221.134 -0.194194 -0.721317 0
M  V30 2302 H 223.796 -1.15294 -1.57141 0
M  V30 2303 H 222.892 -0.72059 -3.03667 0
M  V30 2304 N 223.193 1.4272 -0.668489 0
M  V30 2305 C 224.421 2.05966 -0.196348 0
M  V30 2306 C 224.836 1.50191 1.14403 0
M  V30 2307 O 224.193 0.639208 1.7094 0
M  V30 2308 C 224.244 3.61314 -0.115815 0
M  V30 2309 O 223.965 4.1502 -1.40322 0
M  V30 2310 C 225.466 4.41663 0.380579 0
M  V30 2311 H 222.686 0.663954 -0.0969829 0
M  V30 2312 H 225.23 1.82966 -0.913446 0
M  V30 2313 H 223.385 3.83448 0.551931 0
M  V30 2314 H 223.799 5.08832 -1.27243 0
M  V30 2315 H 225.273 5.5065 0.385848 0
M  V30 2316 H 225.75 4.15792 1.41471 0
M  V30 2317 H 226.356 4.24534 -0.255209 0
M  V30 2318 N 224.671 0.411399 1.52136 0
M  V30 2319 C 225.601 -0.404015 2.29978 0
M  V30 2320 C 226.582 -1.04412 1.34284 0
M  V30 2321 O 227.767 -1.0527 1.63192 0
M  V30 2322 C 224.897 -1.5197 3.12286 0
M  V30 2323 C 223.851 -1.00448 4.16046 0
M  V30 2324 C 223.177 -2.21393 4.86712 0
M  V30 2325 C 224.477 -0.0569336 5.22269 0
M  V30 2326 H 226.171 0.245529 2.98392 0
M  V30 2327 H 223.717 0.119525 1.43503 0
M  V30 2328 H 225.67 -2.09715 3.6551 0
M  V30 2329 H 224.394 -2.19716 2.41646 0
M  V30 2330 H 223.053 -0.449421 3.63835 0
M  V30 2331 H 222.701 -2.87699 4.12599 0
M  V30 2332 H 222.401 -1.87571 5.56858 0
M  V30 2333 H 223.925 -2.7974 5.4275 0
M  V30 2334 H 225.339 -0.54325 5.7072 0
M  V30 2335 H 223.736 0.192594 5.99791 0
M  V30 2336 H 224.806 0.887663 4.76706 0
M  V30 2337 N 226.149 -1.5696 0.141893 0
M  V30 2338 C 227.426 -1.87553 -0.555281 0
M  V30 2339 C 227.806 -1.04699 -1.83306 0
M  V30 2340 O 227.154 -0.132346 -2.28116 0
M  V30 2341 C 227.364 -3.39093 -0.825664 0
M  V30 2342 C 228.712 -4.08199 -1.16869 0
M  V30 2343 O 229.736 -3.44242 -0.915185 0
M  V30 2344 O 228.595 -5.21139 -1.6455 0
M  V30 2345 H 225.689 -0.777188 -0.282679 0
M  V30 2346 H 228.235 -1.68763 0.17812 0
M  V30 2347 H 227.007 -3.91221 0.0788633 0
M  V30 2348 H 226.63 -3.63393 -1.61343 0
M  V30 2349 N 227.627 0.131896 -1.57047 0
M  V30 2350 C 228.867 0.847972 -1.85981 0
M  V30 2351 C 229.231 1.77655 -0.7282 0
M  V30 2352 O 230.432 2.53322 -0.898968 0
M  V30 2353 C 228.703 1.58919 -3.20124 0
M  V30 2354 S 230.262 2.34862 -3.70655 0
M  V30 2355 H 227.08 0.283273 -0.652133 0
M  V30 2356 H 229.682 0.107057 -1.95207 0
M  V30 2357 H 228.386 0.898771 -4.00438 0
M  V30 2358 H 227.917 2.37073 -3.13942 0
M  V30 2359 H 229.932 3.60344 -3.41126 0
M  V30 2360 N 229.106 1.52395 0.401703 0
M  V30 2361 C 230.069 1.75636 1.47257 0
M  V30 2362 C 231.069 0.62628 1.48103 0
M  V30 2363 O 232.259 0.894227 1.49497 0
M  V30 2364 C 229.391 1.84553 2.86624 0
M  V30 2365 H 230.584 2.71241 1.27938 0
M  V30 2366 H 228.137 1.42923 0.632662 0
M  V30 2367 H 228.872 0.908882 3.11303 0
M  V30 2368 H 228.657 2.66715 2.87412 0
M  V30 2369 H 230.147 2.04251 3.64241 0
M  V30 2370 N 230.584 -0.659388 1.43143 0
M  V30 2371 C 231.531 -1.77249 1.47822 0
M  V30 2372 C 232.501 -1.62818 0.328558 0
M  V30 2373 O 233.686 -1.83151 0.534838 0
M  V30 2374 C 230.826 -3.15371 1.40126 0
M  V30 2375 C 229.939 -3.4098 2.65249 0
M  V30 2376 C 229.074 -4.68915 2.49584 0
M  V30 2377 C 228.113 -4.87608 3.70006 0
M  V30 2378 N 227.25 -6.06796 3.53189 0
M  V30 2379 H 232.09 -1.72584 2.42938 0
M  V30 2380 H 229.627 -0.842297 1.20598 0
M  V30 2381 H 231.585 -3.9521 1.33659 0
M  V30 2382 H 230.215 -3.19121 0.485964 0
M  V30 2383 H 229.267 -2.55282 2.8202 0
M  V30 2384 H 230.579 -3.50681 3.54717 0
M  V30 2385 H 229.733 -5.56871 2.4079 0
M  V30 2386 H 228.472 -4.61524 1.5763 0
M  V30 2387 H 227.477 -3.9809 3.79215 0
M  V30 2388 H 228.702 -4.96834 4.62961 0
M  V30 2389 H 226.648 -6.00549 2.63965 0
M  V30 2390 H 226.565 -6.17428 4.36255 0
M  V30 2391 H 227.833 -6.9739 3.48236 0
M  V30 2392 N 232.062 -1.29571 -0.897171 0
M  V30 2393 C 233.009 -1.14916 -2.00158 0
M  V30 2394 C 233.979 -0.0418149 -1.66047 0
M  V30 2395 O 235.164 -0.209793 -1.89643 0
M  V30 2396 C 232.304 -0.834307 -3.34863 0
M  V30 2397 C 231.417 -2.02234 -3.8174 0
M  V30 2398 C 230.552 -1.64664 -5.05034 0
M  V30 2399 C 229.591 -2.80033 -5.44286 0
M  V30 2400 N 228.728 -2.42843 -6.58765 0
M  V30 2401 H 233.568 -2.09403 -2.12025 0
M  V30 2402 H 231.105 -1.042 -1.0383 0
M  V30 2403 H 233.063 -0.632436 -4.12379 0
M  V30 2404 H 231.693 0.0736656 -3.22716 0
M  V30 2405 H 230.745 -2.33583 -3.00238 0
M  V30 2406 H 232.057 -2.88673 -4.06779 0
M  V30 2407 H 231.211 -1.4078 -5.9014 0
M  V30 2408 H 229.95 -0.753766 -4.8184 0
M  V30 2409 H 228.955 -3.04596 -4.57713 0
M  V30 2410 H 230.18 -3.69989 -5.6946 0
M  V30 2411 H 228.126 -1.56046 -6.3717 0
M  V30 2412 H 228.043 -3.22815 -6.83613 0
M  V30 2413 H 229.311 -2.22285 -7.47134 0
M  V30 2414 N 233.54 1.10788 -1.12088 0
M  V30 2415 C 234.47 2.19083 -0.807755 0
M  V30 2416 C 235.451 1.6858 0.226859 0
M  V30 2417 O 236.636 1.93997 0.0888475 0
M  V30 2418 C 233.766 3.46344 -0.257576 0
M  V30 2419 C 232.72 4.101 -1.22483 0
M  V30 2420 C 232.046 5.32016 -0.535052 0
M  V30 2421 C 233.346 4.54236 -2.57811 0
M  V30 2422 H 235.04 2.45534 -1.71328 0
M  V30 2423 H 232.586 1.1801 -0.825205 0
M  V30 2424 H 234.539 4.21392 -0.0262679 0
M  V30 2425 H 233.263 3.19373 0.683278 0
M  V30 2426 H 231.922 3.37054 -1.44189 0
M  V30 2427 H 231.57 5.01319 0.410827 0
M  V30 2428 H 231.27 5.75625 -1.18024 0
M  V30 2429 H 232.794 6.09799 -0.312695 0
M  V30 2430 H 234.208 5.20575 -2.40155 0
M  V30 2431 H 232.605 5.08682 -3.18375 0
M  V30 2432 H 233.675 3.6734 -3.16528 0
M  V30 2433 N 235.018 0.912232 1.28515 0
M  V30 2434 C 236.248 0.559604 1.98877 0
M  V30 2435 C 236.656 -0.863113 1.68366 0
M  V30 2436 O 235.999 -1.58304 0.931969 0
M  V30 2437 C 236.061 0.68703 3.52874 0
M  V30 2438 C 235.725 2.07901 4.06972 0
M  V30 2439 C 236.722 3.05157 4.20922 0
M  V30 2440 C 234.407 2.39178 4.417 0
M  V30 2441 C 236.401 4.31806 4.68852 0
M  V30 2442 C 234.088 3.66068 4.89324 0
M  V30 2443 C 235.086 4.62195 5.02856 0
M  V30 2444 O 234.774 5.86829 5.49442 0
M  V30 2445 H 234.506 0.212191 0.641834 0
M  V30 2446 H 237.06 1.22712 1.64715 0
M  V30 2447 H 235.29 -0.0375486 3.86682 0
M  V30 2448 H 236.979 0.341727 4.04459 0
M  V30 2449 H 237.745 2.82311 3.94367 0
M  V30 2450 H 233.624 1.65109 4.30418 0
M  V30 2451 H 237.168 5.06842 4.79329 0
M  V30 2452 H 233.065 3.88739 5.15318 0
M  V30 2453 H 233.833 5.89597 5.6773 0
M  V30 2454 N 236.496 -1.42363 0.676048 0
M  V30 2455 C 237.428 -2.29164 -0.0404605 0
M  V30 2456 C 238.441 -1.43747 -0.764245 0
M  V30 2457 O 239.63 -1.67453 -0.618195 0
M  V30 2458 C 236.73 -3.21196 -1.08103 0
M  V30 2459 C 235.903 -4.35273 -0.430812 0
M  V30 2460 C 234.962 -5.08017 -1.37133 0
M  V30 2461 O 233.988 -5.62494 -0.87116 0
M  V30 2462 N 235.19 -5.13647 -2.70456 0
M  V30 2463 H 237.955 -2.91298 0.704667 0
M  V30 2464 H 235.516 -1.53303 0.520559 0
M  V30 2465 H 237.508 -3.66728 -1.71152 0
M  V30 2466 H 236.078 -2.60505 -1.72788 0
M  V30 2467 H 235.298 -3.92372 0.379209 0
M  V30 2468 H 236.586 -5.08795 0.0221132 0
M  V30 2469 H 235.984 -4.708 -3.1363 0
M  V30 2470 H 234.541 -5.62821 -3.28749 0
M  V30 2471 N 237.974 -0.419461 -1.51915 0
M  V30 2472 C 238.884 0.407528 -2.31033 0
M  V30 2473 C 239.9 1.04413 -1.3919 0
M  V30 2474 O 241.076 1.0434 -1.72265 0
M  V30 2475 C 238.141 1.50365 -3.12396 0
M  V30 2476 C 237.202 0.889029 -4.19994 0
M  V30 2477 C 236.435 1.93291 -4.97468 0
M  V30 2478 O 236.658 3.15259 -4.75361 0
M  V30 2479 O 235.592 1.53339 -5.8204 0
M  V30 2480 H 239.418 -0.237865 -3.02767 0
M  V30 2481 H 237.003 -0.182413 -1.48282 0
M  V30 2482 H 238.885 2.13975 -3.63032 0
M  V30 2483 H 237.56 2.13345 -2.43445 0
M  V30 2484 H 236.467 0.215353 -3.7348 0
M  V30 2485 H 237.8 0.302991 -4.91267 0
M  V30 2486 N 239.452 1.56882 -0.150215 0
M  V30 2487 C 240.699 1.96228 0.500093 0
M  V30 2488 C 241.027 1.03522 1.64661 0
M  V30 2489 O 240.282 0.0650683 1.95592 0
M  V30 2490 C 240.581 3.41801 1.04437 0
M  V30 2491 C 240.247 4.50897 0.0159671 0
M  V30 2492 C 238.909 4.8046 -0.266731 0
M  V30 2493 C 241.261 5.16703 -0.683192 0
M  V30 2494 C 238.589 5.73135 -1.25434 0
M  V30 2495 C 240.941 6.10441 -1.65964 0
M  V30 2496 C 239.605 6.38382 -1.95 0
M  V30 2497 H 238.875 0.718048 0.182997 0
M  V30 2498 H 241.522 1.90019 -0.237724 0
M  V30 2499 H 239.827 3.44857 1.85959 0
M  V30 2500 H 241.524 3.69573 1.55618 0
M  V30 2501 H 238.114 4.27891 0.246485 0
M  V30 2502 H 242.298 4.93993 -0.477983 0
M  V30 2503 H 237.554 5.93074 -1.48571 0
M  V30 2504 H 241.728 6.60507 -2.20689 0
M  V30 2505 H 239.355 7.09996 -2.71679 0
M  V30 2506 N 240.93 -0.123565 1.57115 0
M  V30 2507 C 242.178 -0.83051 1.84247 0
M  V30 2508 C 242.499 -1.80629 0.73471 0
M  V30 2509 O 241.769 -1.94403 -0.241688 0
M  V30 2510 H 240.349 -0.309694 0.679778 0
M  V30 2511 H 243.011 -0.111976 1.94578 0
M  V30 2512 H 242.107 -1.37852 2.80006 0
M  V30 2513 N 242.408 -1.52605 -0.393616 0
M  V30 2514 C 243.657 -1.66649 -1.13627 0
M  V30 2515 C 243.97 -0.410364 -1.91247 0
M  V30 2516 O 245.176 -0.430854 -2.68059 0
M  V30 2517 C 243.632 -2.9449 -2.06891 0
M  V30 2518 C 243.24 -4.27266 -1.34714 0
M  V30 2519 C 244.984 -3.17899 -2.81319 0
M  V30 2520 C 242.891 -5.46217 -2.26717 0
M  V30 2521 H 241.821 -0.62084 -0.427871 0
M  V30 2522 H 244.472 -1.791 -0.399428 0
M  V30 2523 H 242.854 -2.75774 -2.84191 0
M  V30 2524 H 244.028 -4.56518 -0.626714 0
M  V30 2525 H 242.343 -4.10081 -0.722643 0
M  V30 2526 H 244.94 -4.03949 -3.50328 0
M  V30 2527 H 245.283 -2.32777 -3.45139 0
M  V30 2528 H 245.816 -3.37159 -2.11113 0
M  V30 2529 H 242.555 -6.33733 -1.67521 0
M  V30 2530 H 242.075 -5.21283 -2.96689 0
M  V30 2531 H 243.754 -5.7991 -2.86903 0
M  V30 2532 N 243.887 0.651787 -1.4349 0
M  V30 2533 C 245.303 0.96762 -1.26922 0
M  V30 2534 C 245.503 2.00602 -0.189982 0
M  V30 2535 O 244.559 2.48793 0.431107 0
M  V30 2536 C 245.872 1.45052 -2.63401 0
M  V30 2537 C 247.42 1.5671 -2.70945 0
M  V30 2538 C 247.895 2.0839 -4.07845 0
M  V30 2539 N 249.386 2.1569 -4.09917 0
M  V30 2540 C 250.121 2.56804 -5.12679 0
M  V30 2541 N 249.617 2.97203 -6.25813 0
M  V30 2542 N 251.41 2.56756 -5.00033 0
M  V30 2543 H 243.561 -0.0353158 -2.12371 0
M  V30 2544 H 245.824 0.0467858 -0.946845 0
M  V30 2545 H 245.53 0.761926 -3.43348 0
M  V30 2546 H 245.404 2.42529 -2.88894 0
M  V30 2547 H 247.791 2.2467 -1.9133 0
M  V30 2548 H 247.872 0.57662 -2.49216 0
M  V30 2549 H 247.516 1.41031 -4.87927 0
M  V30 2550 H 247.446 3.08271 -4.26938 0
M  V30 2551 H 249.937 1.87237 -3.28254 0
M  V30 2552 H 250.25 3.27328 -7.00055 0
M  V30 2553 H 248.595 2.95004 -6.29283 0
M  V30 2554 H 251.786 2.24572 -4.10713 0
M  V30 2555 H 251.959 2.88475 -5.80247 0
M  V30 2556 N 245.365 1.30045 0.890287 0
M  V30 2557 C 246.613 1.18327 1.63839 0
M  V30 2558 C 246.934 -0.263455 1.93212 0
M  V30 2559 O 246.204 -1.17856 1.56482 0
M  V30 2560 H 244.784 0.434933 0.607324 0
M  V30 2561 H 247.446 1.631 1.06698 0
M  V30 2562 H 246.542 1.74024 2.59079 0
M  V30 2563 N 246.843 -1.10192 1.12674 0
M  V30 2564 C 248.092 -1.81573 0.8783 0
M  V30 2565 C 248.405 -1.86249 -0.597557 0
M  V30 2566 O 249.611 -2.5386 -0.962681 0
M  V30 2567 C 248.067 -3.26149 1.52167 0
M  V30 2568 C 247.675 -3.29763 3.03249 0
M  V30 2569 C 249.419 -4.0234 1.3536 0
M  V30 2570 C 247.326 -4.68815 3.60508 0
M  V30 2571 H 246.256 -0.680394 0.324931 0
M  V30 2572 H 248.907 -1.23902 1.35353 0
M  V30 2573 H 247.289 -3.83832 0.974104 0
M  V30 2574 H 248.463 -2.8189 3.6452 0
M  V30 2575 H 246.778 -2.67059 3.19481 0
M  V30 2576 H 249.375 -5.05058 1.75559 0
M  V30 2577 H 249.718 -4.15235 0.297554 0
M  V30 2578 H 250.251 -3.51079 1.87052 0
M  V30 2579 H 246.99 -4.61121 4.65884 0
M  V30 2580 H 246.51 -5.17045 3.04014 0
M  V30 2581 H 248.189 -5.37785 3.59717 0
M  V30 2582 N 248.321 -0.919034 -1.28029 0
M  V30 2583 C 249.551 -0.570143 -1.98577 0
M  V30 2584 C 249.959 0.854172 -1.68821 0
M  V30 2585 O 249.302 1.57807 -0.940351 0
M  V30 2586 C 249.364 -0.705734 -3.52505 0
M  V30 2587 C 249.028 -2.10057 -4.05863 0
M  V30 2588 C 250.025 -3.07385 -4.19298 0
M  V30 2589 C 247.71 -2.41517 -4.40426 0
M  V30 2590 C 249.704 -4.34287 -4.66555 0
M  V30 2591 C 247.391 -3.68657 -4.87376 0
M  V30 2592 C 248.389 -4.64856 -5.00398 0
M  V30 2593 O 248.077 -5.89735 -5.46322 0
M  V30 2594 H 247.809 -0.215592 -0.6407 0
M  V30 2595 H 250.363 -1.23583 -1.64062 0
M  V30 2596 H 248.593 0.0170414 -3.86696 0
M  V30 2597 H 250.282 -0.363172 -4.04272 0
M  V30 2598 H 251.048 -2.84398 -3.92865 0
M  V30 2599 H 246.927 -1.67389 -4.29537 0
M  V30 2600 H 250.471 -5.09377 -4.76635 0
M  V30 2601 H 246.368 -3.91466 -5.13249 0
M  V30 2602 H 247.136 -5.92599 -5.64596 0
M  V30 2603 N 249.799 1.42003 -0.683588 0
M  V30 2604 C 250.746 2.30798 -0.0107309 0
M  V30 2605 C 251.716 1.4645 0.783688 0
M  V30 2606 O 252.901 1.75263 0.754156 0
M  V30 2607 C 250.041 3.3238 0.928306 0
M  V30 2608 C 249.154 4.31814 0.126776 0
M  V30 2609 C 248.289 5.20468 1.06236 0
M  V30 2610 C 247.328 6.11577 0.253035 0
M  V30 2611 N 246.465 6.92754 1.14179 0
M  V30 2612 H 251.305 2.8778 -0.773727 0
M  V30 2613 H 248.842 1.41745 -0.393283 0
M  V30 2614 H 250.8 3.89813 1.48666 0
M  V30 2615 H 249.43 2.76976 1.65783 0
M  V30 2616 H 248.482 3.76427 -0.54833 0
M  V30 2617 H 249.794 4.96276 -0.501192 0
M  V30 2618 H 248.948 5.82677 1.69035 0
M  V30 2619 H 247.687 4.56204 1.7242 0
M  V30 2620 H 246.692 5.48428 -0.388108 0
M  V30 2621 H 247.917 6.77892 -0.404839 0
M  V30 2622 H 245.863 6.3111 1.78987 0
M  V30 2623 H 245.78 7.53855 0.569111 0
M  V30 2624 H 247.048 7.59441 1.75697 0
M  V30 2625 N 251.277 0.427512 1.51691 0
M  V30 2626 C 252.525 -0.141948 2.01601 0
M  V30 2627 C 252.846 -1.44067 1.31414 0
M  V30 2628 O 252.116 -1.90763 0.445658 0
M  V30 2629 H 250.696 -0.0554468 0.744939 0
M  V30 2630 H 253.358 0.567968 1.86441 0
M  V30 2631 H 252.454 -0.324913 3.10404 0
M  V30 2632 N 252.755 -1.56801 0.158532 0
M  V30 2633 C 253.983 -2.00859 -0.496303 0
M  V30 2634 C 254.398 -1.03871 -1.57659 0
M  V30 2635 O 253.755 -0.0375165 -1.82461 0
M  V30 2636 C 253.806 -3.4479 -1.08638 0
M  V30 2637 O 253.527 -4.38072 -0.0492322 0
M  V30 2638 C 255.028 -4.04185 -1.8207 0
M  V30 2639 H 252.248 -0.65864 -0.128199 0
M  V30 2640 H 254.792 -2.02885 0.256506 0
M  V30 2641 H 252.947 -3.43579 -1.78975 0
M  V30 2642 H 253.361 -5.2227 -0.483102 0
M  V30 2643 H 254.835 -5.06857 -2.18633 0
M  V30 2644 H 255.312 -3.45549 -2.71095 0
M  V30 2645 H 255.918 -4.0906 -1.16405 0
M  V30 2646 N 254.233 0.115231 -1.57178 0
M  V30 2647 C 255.479 0.82357 -1.85325 0
M  V30 2648 C 255.812 1.79349 -0.744814 0
M  V30 2649 O 255.087 1.92899 0.249024 0
M  V30 2650 C 255.37 1.57014 -3.24066 0
M  V30 2651 C 255.223 0.619565 -4.45513 0
M  V30 2652 C 256.542 2.52545 -3.60429 0
M  V30 2653 H 253.661 0.297948 -0.674089 0
M  V30 2654 H 256.303 0.0877138 -1.89797 0
M  V30 2655 H 254.453 2.19742 -3.20383 0
M  V30 2656 H 256.125 0.000837639 -4.613 0
M  V30 2657 H 254.368 -0.0686174 -4.33746 0
M  V30 2658 H 255.039 1.17866 -5.3927 0
M  V30 2659 H 257.515 1.9992 -3.64926 0
M  V30 2660 H 256.391 3.01811 -4.58477 0
M  V30 2661 H 256.652 3.35383 -2.88047 0
M  V30 2662 N 255.711 1.52812 0.385517 0
M  V30 2663 C 256.641 1.80808 1.47752 0
M  V30 2664 C 257.622 0.660318 1.5676 0
M  V30 2665 O 258.807 0.908246 1.71652 0
M  V30 2666 C 255.937 1.98008 2.85324 0
M  V30 2667 C 254.891 3.13709 2.91154 0
M  V30 2668 C 254.217 3.16169 4.31209 0
M  V30 2669 C 255.517 4.52709 2.60483 0
M  V30 2670 H 257.211 2.72253 1.24573 0
M  V30 2671 H 254.757 1.31003 0.597839 0
M  V30 2672 H 256.71 2.16176 3.61726 0
M  V30 2673 H 255.434 1.03255 3.09848 0
M  V30 2674 H 254.093 2.95329 2.17201 0
M  V30 2675 H 253.741 2.19092 4.52778 0
M  V30 2676 H 253.441 3.93894 4.36029 0
M  V30 2677 H 254.965 3.36496 5.09512 0
M  V30 2678 H 256.379 4.71173 3.26602 0
M  V30 2679 H 254.776 5.32528 2.76648 0
M  V30 2680 H 255.846 4.59186 1.55809 0
M  V30 2681 N 257.189 -0.644168 1.43834 0
M  V30 2682 C 258.417 -1.43147 1.49387 0
M  V30 2683 C 258.832 -1.88452 0.114583 0
M  V30 2684 O 258.189 -1.60047 -0.876989 0
M  V30 2685 C 258.24 -2.66046 2.44748 0
M  V30 2686 O 257.961 -2.22633 3.77314 0
M  V30 2687 C 259.462 -3.59311 2.59635 0
M  V30 2688 H 256.682 -0.439447 0.507077 0
M  V30 2689 H 259.226 -0.78895 1.88669 0
M  V30 2690 H 257.381 -3.26418 2.08638 0
M  V30 2691 H 257.795 -3.02216 4.28679 0
M  V30 2692 H 259.269 -4.42187 3.30416 0
M  V30 2693 H 259.746 -4.07259 1.64427 0
M  V30 2694 H 260.352 -3.04816 2.96593 0
M  V30 2695 N 258.668 -1.30515 -0.883378 0
M  V30 2696 C 259.598 -1.19607 -2.00541 0
M  V30 2697 C 260.579 -0.086346 -1.69881 0
M  V30 2698 O 261.764 -0.268654 -1.92333 0
M  V30 2699 C 258.894 -0.888758 -3.35736 0
M  V30 2700 C 257.848 -1.95659 -3.8066 0
M  V30 2701 C 257.174 -1.50224 -5.13164 0
M  V30 2702 C 258.474 -3.36788 -3.99213 0
M  V30 2703 H 260.168 -2.13476 -2.09925 0
M  V30 2704 H 257.714 -1.02775 -1.00863 0
M  V30 2705 H 259.667 -0.799094 -4.13754 0
M  V30 2706 H 258.391 0.0856125 -3.26488 0
M  V30 2707 H 257.05 -2.03591 -3.04871 0
M  V30 2708 H 256.698 -0.516092 -5.00345 0
M  V30 2709 H 256.398 -2.2165 -5.44192 0
M  V30 2710 H 257.922 -1.42639 -5.93706 0
M  V30 2711 H 259.336 -3.31605 -4.67665 0
M  V30 2712 H 257.733 -4.06314 -4.41621 0
M  V30 2713 H 258.803 -3.78561 -3.03017 0
M  V30 2714 N 260.146 1.09593 -1.13257 0
M  V30 2715 C 261.079 2.15451 -0.752061 0
M  V30 2716 C 262.057 1.60493 0.260913 0
M  V30 2717 O 263.241 1.8788 0.152819 0
M  V30 2718 C 260.368 3.38506 -0.114594 0
M  V30 2719 C 259.414 4.12183 -1.09579 0
M  V30 2720 S 260.247 4.6661 -2.62745 0
M  V30 2721 C 261.403 5.92966 -2.00354 0
M  V30 2722 H 261.636 2.47395 -1.64872 0
M  V30 2723 H 259.169 1.21515 -0.952545 0
M  V30 2724 H 261.127 4.09757 0.246808 0
M  V30 2725 H 259.788 3.04784 0.759309 0
M  V30 2726 H 258.981 5.00445 -0.597545 0
M  V30 2727 H 258.583 3.46785 -1.40057 0
M  V30 2728 H 260.875 6.63882 -1.35156 0
M  V30 2729 H 261.818 6.47467 -2.86691 0
M  V30 2730 H 262.226 5.45405 -1.4558 0
M  V30 2731 N 261.624 0.925811 1.2754 0
M  V30 2732 C 263.04 0.625767 1.46821 0
M  V30 2733 C 263.24 -0.825506 1.83814 0
M  V30 2734 O 262.296 -1.60356 1.95044 0
M  V30 2735 C 263.609 1.57402 2.56213 0
M  V30 2736 C 265.157 1.58204 2.70075 0
M  V30 2737 C 265.632 2.51721 3.82623 0
M  V30 2738 N 267.123 2.49917 3.89994 0
M  V30 2739 C 267.858 3.18968 4.76494 0
M  V30 2740 N 267.354 3.97391 5.67496 0
M  V30 2741 N 269.147 3.07996 4.70208 0
M  V30 2742 H 261.298 1.86409 1.01811 0
M  V30 2743 H 263.561 0.800213 0.508295 0
M  V30 2744 H 263.267 2.60925 2.35819 0
M  V30 2745 H 263.141 1.31428 3.53563 0
M  V30 2746 H 265.528 0.554124 2.89851 0
M  V30 2747 H 265.609 1.88226 1.73218 0
M  V30 2748 H 265.253 3.54622 3.63601 0
M  V30 2749 H 265.183 2.18996 4.78903 0
M  V30 2750 H 267.674 1.9296 3.24923 0
M  V30 2751 H 267.987 4.4707 6.30356 0
M  V30 2752 H 266.332 4.01495 5.67298 0
M  V30 2753 H 269.523 2.46223 3.9811 0
M  V30 2754 H 269.696 3.6208 5.37403 0
M  V30 2755 N 263.102 -1.41638 0.69111 0
M  V30 2756 C 264.379 -1.95036 0.148421 0
M  V30 2757 C 264.759 -1.63072 -1.34055 0
M  V30 2758 O 264.107 -0.93538 -2.08478 0
M  V30 2759 C 264.317 -3.46279 0.434951 0
M  V30 2760 C 265.665 -4.23069 0.360275 0
M  V30 2761 O 266.689 -3.54277 0.369613 0
M  V30 2762 O 265.548 -5.45583 0.316534 0
M  V30 2763 H 262.642 -0.826908 0.0123654 0
M  V30 2764 H 265.188 -1.5138 0.766963 0
M  V30 2765 H 263.96 -3.6281 1.46576 0
M  V30 2766 H 263.583 -3.97019 -0.214787 0
M  V30 2767 N 264.58 -0.43555 -1.51462 0
M  V30 2768 C 265.826 0.131709 -2.02372 0
M  V30 2769 C 266.159 1.42516 -1.3192 0
M  V30 2770 O 265.434 1.89606 -0.433573 0
M  V30 2771 C 265.717 0.352301 -3.58373 0
M  V30 2772 C 265.57 -0.959676 -4.39443 0
M  V30 2773 C 266.889 1.12286 -4.25535 0
M  V30 2774 H 264.008 0.0463936 -0.735538 0
M  V30 2775 H 266.65 -0.574197 -1.81116 0
M  V30 2776 H 264.8 0.9536 -3.76615 0
M  V30 2777 H 266.472 -1.59482 -4.32855 0
M  V30 2778 H 264.715 -1.56468 -4.04599 0
M  V30 2779 H 265.386 -0.759394 -5.46752 0
M  V30 2780 H 267.862 0.613545 -4.11552 0
M  V30 2781 H 266.738 1.24598 -5.34571 0
M  V30 2782 H 266.999 2.15048 -3.86273 0
M  V30 2783 N 266.058 1.56714 -0.166846 0
M  V30 2784 C 267.469 1.83378 0.350646 0
M  V30 2785 C 267.82 1.08646 1.63372 0
M  V30 2786 O 266.945 0.338058 2.13743 0
M  V30 2787 C 267.54 3.32643 0.642963 0
M  V30 2788 C 266.099 3.59818 1.10491 0
M  V30 2789 C 265.246 2.76954 0.138411 0
M  V30 2790 H 268.197 1.53803 -0.391193 0
M  V30 2791 H 268.218 3.49878 1.49551 0
M  V30 2792 H 267.73 3.87007 -0.291055 0
M  V30 2793 H 265.831 3.1086 2.05418 0
M  V30 2794 H 265.944 4.68178 1.01716 0
M  V30 2795 H 264.308 2.4666 0.634911 0
M  V30 2796 H 265.091 3.34097 -0.789549 0
M  V30 2797 N 267.536 -0.106894 1.57237 0
M  V30 2798 C 268.499 -1.11466 2.0027 0
M  V30 2799 C 269.499 -1.33623 0.894519 0
M  V30 2800 O 270.689 -1.29935 1.16028 0
M  V30 2801 C 267.821 -2.46646 2.35327 0
M  V30 2802 H 269.014 -0.744516 2.90512 0
M  V30 2803 H 266.567 -0.351576 1.52295 0
M  V30 2804 H 267.302 -2.88558 1.48003 0
M  V30 2805 H 267.087 -2.31915 3.16161 0
M  V30 2806 H 268.577 -3.19151 2.69318 0
M  V30 2807 N 269.014 -1.53014 -0.377408 0
M  V30 2808 C 270.239 -1.72818 -1.14668 0
M  V30 2809 C 270.664 -0.450725 -1.8262 0
M  V30 2810 O 270.022 0.59439 -1.7128 0
M  V30 2811 C 270.07 -2.88627 -2.16164 0
M  V30 2812 O 269.174 -2.56409 -3.22998 0
M  V30 2813 H 268.515 -0.574301 -0.333278 0
M  V30 2814 H 271.045 -1.99853 -0.438152 0
M  V30 2815 H 271.055 -3.14455 -2.59966 0
M  V30 2816 H 269.73 -3.81294 -1.66095 0
M  V30 2817 H 268.307 -2.4136 -2.84253 0
M  V30 2818 N 270.492 0.636531 -1.44174 0
M  V30 2819 C 271.74 1.39343 -1.46383 0
M  V30 2820 C 272.061 1.94766 -0.0955715 0
M  V30 2821 O 271.331 1.75452 0.871395 0
M  V30 2822 H 269.911 0.517199 -0.538994 0
M  V30 2823 H 272.573 0.74957 -1.7991 0
M  V30 2824 H 271.669 2.22746 -2.18611 0
M  V30 2825 N 271.97 1.30982 0.876444 0
M  V30 2826 C 272.903 1.12414 1.98591 0
M  V30 2827 C 273.881 0.0294078 1.62573 0
M  V30 2828 O 275.065 0.184598 1.87594 0
M  V30 2829 C 272.192 0.716276 3.3104 0
M  V30 2830 C 271.238 1.81311 3.86042 0
M  V30 2831 S 272.071 3.41727 4.1229 0
M  V30 2832 C 273.227 3.02863 5.47745 0
M  V30 2833 H 273.46 2.06338 2.14037 0
M  V30 2834 H 270.993 1.15393 1.02586 0
M  V30 2835 H 272.951 0.487697 4.07593 0
M  V30 2836 H 271.612 -0.203749 3.13438 0
M  V30 2837 H 270.805 1.48021 4.81774 0
M  V30 2838 H 270.407 1.99641 3.16259 0
M  V30 2839 H 272.699 2.51353 6.29148 0
M  V30 2840 H 273.642 3.97533 5.8598 0
M  V30 2841 H 274.05 2.40487 5.10711 0
M  V30 2842 N 273.449 -1.08991 1.13837 0
M  V30 2843 C 274.679 -1.84743 0.924859 0
M  V30 2844 C 275.087 -1.81629 -0.529874 0
M  V30 2845 O 274.43 -1.21397 -1.37872 0
M  V30 2846 C 274.492 -3.33568 1.34061 0
M  V30 2847 C 274.156 -3.60425 2.80968 0
M  V30 2848 C 275.153 -3.55771 3.79108 0
M  V30 2849 C 272.838 -3.88627 3.18236 0
M  V30 2850 C 274.832 -3.78939 5.12527 0
M  V30 2851 C 272.519 -4.11449 4.51833 0
M  V30 2852 C 273.517 -4.06598 5.48787 0
M  V30 2853 O 273.205 -4.28826 6.79973 0
M  V30 2854 H 272.937 -0.590258 0.329502 0
M  V30 2855 H 275.491 -1.38598 1.51591 0
M  V30 2856 H 273.721 -3.80442 0.692853 0
M  V30 2857 H 275.41 -3.90743 1.09886 0
M  V30 2858 H 276.176 -3.34005 3.51661 0
M  V30 2859 H 272.055 -3.91526 2.43369 0
M  V30 2860 H 275.599 -3.75068 5.88192 0
M  V30 2861 H 271.496 -4.32698 4.79002 0
M  V30 2862 H 272.264 -4.46264 6.86142 0
M  V30 2863 N 274.927 -0.932562 -1.27047 0
M  V30 2864 C 276.174 -0.575559 -1.94148 0
M  V30 2865 C 276.502 0.883984 -1.73251 0
M  V30 2866 O 275.757 1.64655 -1.0577 0
M  V30 2867 C 276.056 -0.853713 -3.47054 0
M  V30 2868 C 275.722 -2.29577 -3.88079 0
M  V30 2869 C 274.384 -2.68999 -3.9899 0
M  V30 2870 C 276.736 -3.23331 -4.08787 0
M  V30 2871 C 274.064 -4.01289 -4.28 0
M  V30 2872 C 276.416 -4.55207 -4.39282 0
M  V30 2873 C 275.08 -4.94457 -4.48407 0
M  V30 2874 H 274.35 -0.210612 -0.710439 0
M  V30 2875 H 276.997 -1.17744 -1.51025 0
M  V30 2876 H 275.302 -0.169204 -3.91434 0
M  V30 2877 H 276.999 -0.55639 -3.97121 0
M  V30 2878 H 273.589 -1.97994 -3.80127 0
M  V30 2879 H 277.773 -2.94074 -3.99793 0
M  V30 2880 H 273.029 -4.31374 -4.33275 0
M  V30 2881 H 277.203 -5.27852 -4.54252 0
M  V30 2882 H 274.83 -5.96994 -4.7064 0
M  V30 2883 N 276.405 1.4127 -0.698611 0
M  V30 2884 C 277.338 2.28195 0.0153898 0
M  V30 2885 C 278.316 1.42402 0.784883 0
M  V30 2886 O 279.5 1.71828 0.775067 0
M  V30 2887 C 276.627 3.22685 1.02918 0
M  V30 2888 C 275.673 4.25041 0.352501 0
M  V30 2889 S 276.506 5.27757 -0.907322 0
M  V30 2890 C 277.662 6.25812 0.104796 0
M  V30 2891 H 277.895 2.88403 -0.721858 0
M  V30 2892 H 275.428 1.46452 -0.488996 0
M  V30 2893 H 277.386 3.77655 1.60893 0
M  V30 2894 H 276.047 2.61566 1.73902 0
M  V30 2895 H 275.24 4.91437 1.11828 0
M  V30 2896 H 274.842 3.73682 -0.154254 0
M  V30 2897 H 277.134 6.70705 0.957103 0
M  V30 2898 H 278.077 7.06149 -0.525323 0
M  V30 2899 H 278.485 5.62615 0.460931 0
M  V30 2900 N 277.883 0.443576 1.51229 0
M  V30 2901 C 279.111 -0.11929 2.06556 0
M  V30 2902 C 279.526 -1.35921 1.31038 0
M  V30 2903 O 278.883 -1.78675 0.371704 0
M  V30 2904 C 278.934 -0.435228 3.5887 0
M  V30 2905 O 278.655 0.755486 4.31537 0
M  V30 2906 C 280.156 -1.04808 4.30732 0
M  V30 2907 H 277.376 -0.0051584 0.67098 0
M  V30 2908 H 279.92 0.624453 1.94733 0
M  V30 2909 H 278.075 -1.12887 3.70588 0
M  V30 2910 H 278.489 0.483491 5.22267 0
M  V30 2911 H 279.963 -1.2191 5.3837 0
M  V30 2912 H 280.44 -2.03081 3.89429 0
M  V30 2913 H 281.046 -0.393637 4.23474 0
M  V30 2914 N 279.361 -1.56624 0.175154 0
M  V30 2915 C 280.591 -2.01082 -0.474283 0
M  V30 2916 C 280.999 -1.05447 -1.57091 0
M  V30 2917 O 280.342 -0.0480595 -1.83637 0
M  V30 2918 C 280.404 -3.41963 -1.10911 0
M  V30 2919 C 280.068 -4.56742 -0.153666 0
M  V30 2920 C 281.065 -5.16076 0.629448 0
M  V30 2921 C 278.75 -5.02277 -0.0483776 0
M  V30 2922 C 280.744 -6.19377 1.50501 0
M  V30 2923 C 278.431 -6.05427 0.830768 0
M  V30 2924 C 279.429 -6.63849 1.60605 0
M  V30 2925 O 279.117 -7.64998 2.47049 0
M  V30 2926 H 278.849 -0.664261 -0.125432 0
M  V30 2927 H 281.403 -2.03549 0.275163 0
M  V30 2928 H 279.633 -3.36422 -1.90676 0
M  V30 2929 H 281.322 -3.70352 -1.66114 0
M  V30 2930 H 282.088 -4.81776 0.558297 0
M  V30 2931 H 277.967 -4.56513 -0.641611 0
M  V30 2932 H 281.511 -6.64906 2.1106 0
M  V30 2933 H 277.408 -6.39151 0.903107 0
M  V30 2934 H 278.176 -7.82336 2.40607 0
M  V30 2935 N 280.839 0.0985539 -1.57292 0
M  V30 2936 C 281.749 1.13824 -2.05137 0
M  V30 2937 C 282.765 1.44076 -0.975604 0
M  V30 2938 O 283.941 1.54786 -1.28853 0
M  V30 2939 C 281.006 2.43969 -2.46333 0
M  V30 2940 C 280.067 2.2093 -3.68087 0
M  V30 2941 C 279.3 3.44869 -4.0731 0
M  V30 2942 O 279.523 4.52972 -3.46659 0
M  V30 2943 O 278.457 3.34661 -5.00285 0
M  V30 2944 H 282.283 0.761881 -2.93988 0
M  V30 2945 H 279.868 0.310818 -1.46131 0
M  V30 2946 H 281.75 3.20609 -2.73473 0
M  V30 2947 H 280.425 2.81038 -1.60621 0
M  V30 2948 H 279.332 1.42081 -3.46069 0
M  V30 2949 H 280.665 1.88755 -4.54568 0
M  V30 2950 N 282.317 1.53212 0.369288 0
M  V30 2951 C 283.563 1.70413 1.11046 0
M  V30 2952 C 283.918 0.448509 1.87099 0
M  V30 2953 O 283.211 -0.558382 1.83283 0
M  V30 2954 C 283.405 2.89101 2.10132 0
M  V30 2955 C 283.234 4.26084 1.43814 0
M  V30 2956 C 282.004 4.90994 1.19384 0
M  V30 2957 C 284.202 5.06754 0.877802 0
M  V30 2958 N 282.184 6.11911 0.49377 0
M  V30 2959 C 283.555 6.1924 0.306891 0
M  V30 2960 C 285.61 4.91814 0.776129 0
M  V30 2961 C 284.313 7.1842 -0.355774 0
M  V30 2962 C 286.339 5.91263 0.127252 0
M  V30 2963 C 285.701 7.03069 -0.432801 0
M  V30 2964 H 281.8 0.676872 0.391623 0
M  V30 2965 H 284.384 1.90603 0.397334 0
M  V30 2966 H 282.555 2.70456 2.78761 0
M  V30 2967 H 284.287 2.95142 2.76899 0
M  V30 2968 H 281.042 4.50074 1.47413 0
M  V30 2969 H 281.466 6.76813 0.159207 0
M  V30 2970 H 286.108 4.05564 1.19489 0
M  V30 2971 H 283.826 8.04264 -0.786499 0
M  V30 2972 H 287.412 5.81779 0.0495613 0
M  V30 2973 H 286.292 7.78702 -0.926958 0
M  V30 2974 N 283.795 -0.628877 1.44509 0
M  V30 2975 C 284.725 -1.75187 1.54376 0
M  V30 2976 C 285.706 -1.65411 0.396618 0
M  V30 2977 O 286.891 -1.84137 0.617031 0
M  V30 2978 C 284.021 -3.13725 1.48976 0
M  V30 2979 C 282.975 -3.38291 2.62189 0
M  V30 2980 C 282.301 -4.76883 2.41841 0
M  V30 2981 C 283.601 -3.30632 4.04326 0
M  V30 2982 H 285.295 -1.67187 2.48373 0
M  V30 2983 H 282.841 -0.802909 1.19538 0
M  V30 2984 H 284.794 -3.92064 1.54478 0
M  V30 2985 H 283.518 -3.22515 0.514961 0
M  V30 2986 H 282.177 -2.62334 2.56079 0
M  V30 2987 H 281.825 -4.82378 1.42548 0
M  V30 2988 H 281.525 -4.94278 3.17747 0
M  V30 2989 H 283.049 -5.57449 2.49165 0
M  V30 2990 H 284.463 -3.98873 4.11793 0
M  V30 2991 H 282.86 -3.59561 4.80454 0
M  V30 2992 H 283.93 -2.28404 4.27738 0
M  V30 2993 N 285.273 -1.31445 -0.869486 0
M  V30 2994 C 286.22 -1.19135 -1.97675 0
M  V30 2995 C 287.19 -0.0770266 -1.65921 0
M  V30 2996 O 288.375 -0.249972 -1.89155 0
M  V30 2997 C 285.515 -0.905149 -3.33018 0
M  V30 2998 C 284.628 -2.10285 -3.77365 0
M  V30 2999 C 283.763 -1.75339 -5.01427 0
M  V30 3000 C 282.802 -2.91515 -5.38224 0
M  V30 3001 N 281.939 -2.56762 -6.53466 0
M  V30 3002 H 286.779 -2.13853 -2.07535 0
M  V30 3003 H 284.316 -1.06379 -1.01597 0
M  V30 3004 H 286.274 -0.719765 -4.10944 0
M  V30 3005 H 284.904 0.00519624 -3.228 0
M  V30 3006 H 283.956 -2.39899 -2.95216 0
M  V30 3007 H 285.268 -2.97237 -4.00564 0
M  V30 3008 H 284.422 -1.53266 -5.87022 0
M  V30 3009 H 283.161 -0.855801 -4.80133 0
M  V30 3010 H 282.166 -3.14237 -4.51149 0
M  V30 3011 H 283.391 -3.81985 -5.61484 0
M  V30 3012 H 281.337 -1.69526 -6.33717 0
M  V30 3013 H 281.254 -3.37243 -6.76612 0
M  V30 3014 H 282.522 -2.38083 -7.42251 0
M  V30 3015 N 286.751 1.08385 -1.14413 0
M  V30 3016 C 287.699 2.17406 -0.826888 0
M  V30 3017 C 288.693 1.6827 0.195312 0
M  V30 3018 O 289.899 1.79927 0.0513892 0
M  V30 3019 H 286.274 0.70934 -0.249681 0
M  V30 3020 H 288.245 2.41388 -1.75426 0
M  V30 3021 C 286.994 3.46215 -0.320979 0
M  V30 3022 H 286.317 3.84401 -1.0989 0
M  V30 3023 H 287.757 4.23777 -0.137549 0
M  V30 3024 C 286.216 3.23067 0.955472 0
M  V30 3025 O 286.746 3.4668 2.02918 0
M  V30 3026 N 284.952 2.7661 0.890798 0
M  V30 3027 H 284.499 2.57594 0.0168815 0
M  V30 3028 H 284.457 2.61501 1.74542 0
M  V30 3029 N 288.23 0.939286 1.26551 0
M  V30 3030 C 289.479 0.581601 1.93133 0
M  V30 3031 C 289.792 -0.883224 1.74524 0
M  V30 3032 O 290.998 -1.3502 2.35546 0
M  V30 3033 C 289.454 0.989425 3.46032 0
M  V30 3034 C 289.062 2.47573 3.73379 0
M  V30 3035 C 290.806 0.703544 4.18629 0
M  V30 3036 C 288.713 2.82235 5.19709 0
M  V30 3037 H 287.643 0.213803 0.723052 0
M  V30 3038 H 290.294 1.14167 1.4366 0
M  V30 3039 H 288.676 0.357902 3.94379 0
M  V30 3040 H 289.85 3.15614 3.35744 0
M  V30 3041 H 288.165 2.73471 3.1401 0
M  V30 3042 H 290.762 0.938869 5.26393 0
M  V30 3043 H 291.105 -0.359639 4.14744 0
M  V30 3044 H 291.638 1.2947 3.76141 0
M  V30 3045 H 288.377 3.87509 5.28694 0
M  V30 3046 H 287.897 2.18854 5.58447 0
M  V30 3047 H 289.576 2.70599 5.87695 0
M  V30 3048 N 289.708 -1.40897 0.706093 0
M  V30 3049 C 290.955 -2.01054 0.241531 0
M  V30 3050 C 291.283 -1.55956 -1.16223 0
M  V30 3051 O 290.538 -0.766336 -1.80072 0
M  V30 3052 C 290.837 -3.5646 0.259099 0
M  V30 3053 C 290.503 -4.21106 1.61184 0
M  V30 3054 C 289.165 -4.38479 1.98216 0
M  V30 3055 C 291.517 -4.57256 2.50132 0
M  V30 3056 C 288.845 -4.89282 3.2376 0
M  V30 3057 C 291.197 -5.09454 3.7502 0
M  V30 3058 C 289.861 -5.25037 4.12181 0
M  V30 3059 H 289.131 -0.73571 0.0883825 0
M  V30 3060 H 291.778 -1.68645 0.907257 0
M  V30 3061 H 290.083 -3.88721 -0.490189 0
M  V30 3062 H 291.78 -4.00826 -0.11804 0
M  V30 3063 H 288.37 -4.07966 1.31384 0
M  V30 3064 H 292.554 -4.43479 2.228 0
M  V30 3065 H 287.81 -4.99531 3.52532 0
M  V30 3066 H 291.984 -5.36404 4.44121 0
M  V30 3067 H 289.611 -5.64164 5.09532 0
M  V30 3068 N 291.186 -0.45159 -1.50991 0
M  V30 3069 C 292.414 0.108334 -2.06616 0
M  V30 3070 C 292.829 1.35224 -1.31757 0
M  V30 3071 O 292.186 1.78475 -0.381174 0
M  V30 3072 C 292.237 0.41619 -3.59096 0
M  V30 3073 O 291.958 -0.778361 -4.3113 0
M  V30 3074 C 293.459 1.02523 -4.31282 0
M  V30 3075 H 290.679 0.00159995 -0.670998 0
M  V30 3076 H 293.223 -0.634771 -1.94399 0
M  V30 3077 H 291.378 1.10921 -3.71181 0
M  V30 3078 H 291.792 -0.511181 -5.22003 0
M  V30 3079 H 293.266 1.19053 -5.39009 0
M  V30 3080 H 293.743 2.01013 -3.905 0
M  V30 3081 H 294.349 0.371173 -4.23677 0
M  V30 3082 N 292.664 1.56529 -0.183458 0
M  V30 3083 C 294.075 1.83739 0.331177 0
M  V30 3084 C 294.426 1.10373 1.62211 0
M  V30 3085 O 293.551 0.36071 2.13373 0
M  V30 3086 C 294.146 3.33306 0.607646 0
M  V30 3087 C 292.705 3.60969 1.06668 0
M  V30 3088 C 291.852 2.77086 0.109029 0
M  V30 3089 H 294.803 1.53379 -0.407484 0
M  V30 3090 H 294.824 3.51444 1.45832 0
M  V30 3091 H 294.336 3.86677 -0.332086 0
M  V30 3092 H 292.437 3.13021 2.0211 0
M  V30 3093 H 292.55 4.69231 0.967447 0
M  V30 3094 H 290.914 2.47319 0.608714 0
M  V30 3095 H 291.697 3.33241 -0.82494 0
M  V30 3096 N 294.142 -0.090211 1.57342 0
M  V30 3097 C 295.052 -1.12735 2.05738 0
M  V30 3098 C 296.068 -1.43557 0.983231 0
M  V30 3099 O 297.244 -1.54101 1.29672 0
M  V30 3100 C 294.309 -2.42659 2.47624 0
M  V30 3101 C 293.37 -2.18975 3.69254 0
M  V30 3102 C 292.603 -3.42704 4.09133 0
M  V30 3103 O 292.826 -4.51127 3.49057 0
M  V30 3104 O 291.76 -3.32003 5.02053 0
M  V30 3105 H 295.586 -0.746279 2.94388 0
M  V30 3106 H 293.171 -0.303064 1.46294 0
M  V30 3107 H 295.053 -3.19155 2.7517 0
M  V30 3108 H 293.728 -2.80182 1.62109 0
M  V30 3109 H 292.635 -1.40244 3.46818 0
M  V30 3110 H 293.968 -1.86342 4.55563 0
M  V30 3111 N 295.62 -1.53406 -0.361157 0
M  V30 3112 C 296.868 -1.69467 -1.10115 0
M  V30 3113 C 297.189 -0.451352 -1.89705 0
M  V30 3114 O 296.459 0.534636 -1.88463 0
M  V30 3115 H 295.039 -0.624749 -0.409508 0
M  V30 3116 H 297.701 -1.90609 -0.406699 0
M  V30 3117 H 296.797 -2.55774 -1.78847 0
M  V30 3118 N 297.098 0.621204 -1.44841 0
M  V30 3119 C 298.045 1.73267 -1.5247 0
M  V30 3120 C 299.015 1.6189 -0.371611 0
M  V30 3121 O 300.2 1.81668 -0.58321 0
M  V30 3122 C 297.34 3.11545 -1.48438 0
M  V30 3123 C 296.453 3.33827 -2.74196 0
M  V30 3124 C 295.588 4.62133 -2.61929 0
M  V30 3125 C 294.627 4.77627 -3.82804 0
M  V30 3126 N 293.764 5.97219 -3.69153 0
M  V30 3127 H 298.604 1.66082 -2.47428 0
M  V30 3128 H 296.141 0.810026 -1.22788 0
M  V30 3129 H 298.099 3.91528 -1.4409 0
M  V30 3130 H 296.729 3.1772 -0.570402 0
M  V30 3131 H 295.781 2.47715 -2.88689 0
M  V30 3132 H 297.093 3.41153 -3.6389 0
M  V30 3133 H 296.247 5.50291 -2.5547 0
M  V30 3134 H 294.986 4.57182 -1.69811 0
M  V30 3135 H 293.991 3.87896 -3.89637 0
M  V30 3136 H 295.216 4.84385 -4.75971 0
M  V30 3137 H 293.162 5.93339 -2.79794 0
M  V30 3138 H 293.079 6.05644 -4.52472 0
M  V30 3139 H 294.347 6.87912 -3.66603 0
M  V30 3140 N 298.576 1.31904 0.862503 0
M  V30 3141 C 299.992 1.10724 1.14945 0
M  V30 3142 C 300.192 -0.117421 2.01158 0
M  V30 3143 O 299.248 -0.804595 2.39338 0
M  V30 3144 C 300.561 2.38267 1.83437 0
M  V30 3145 C 302.109 2.43949 1.96106 0
M  V30 3146 C 302.584 3.71394 2.68013 0
M  V30 3147 N 304.075 3.72331 2.75543 0
M  V30 3148 C 304.81 4.67641 3.31812 0
M  V30 3149 N 304.306 5.73313 3.88953 0
M  V30 3150 N 306.099 4.5515 3.29841 0
M  V30 3151 H 298.25 2.10436 0.288191 0
M  V30 3152 H 300.513 0.928705 0.190292 0
M  V30 3153 H 300.219 3.27759 1.27542 0
M  V30 3154 H 300.093 2.48633 2.83657 0
M  V30 3155 H 302.48 1.54922 2.51164 0
M  V30 3156 H 302.561 2.37543 0.949059 0
M  V30 3157 H 302.205 4.60791 2.13621 0
M  V30 3158 H 302.135 3.75069 3.69636 0
M  V30 3159 H 304.626 2.95947 2.34997 0
M  V30 3160 H 304.939 6.42107 4.30022 0
M  V30 3161 H 303.284 5.77077 3.87308 0
M  V30 3162 H 306.475 3.71766 2.84443 0
M  V30 3163 H 306.648 5.29604 3.73394 0
M  V30 3164 N 300.054 -1.07777 1.14986 0
M  V30 3165 C 301.3 -1.80557 0.923422 0
M  V30 3166 C 301.633 -1.86298 -0.548337 0
M  V30 3167 O 300.908 -1.34354 -1.40639 0
M  V30 3168 C 301.191 -3.25839 1.53299 0
M  V30 3169 C 301.044 -3.28269 3.07505 0
M  V30 3170 C 302.363 -4.22991 1.21518 0
M  V30 3171 H 299.482 -0.655493 0.336894 0
M  V30 3172 H 302.124 -1.26144 1.42083 0
M  V30 3173 H 300.274 -3.72306 1.10999 0
M  V30 3174 H 301.946 -2.90079 3.58681 0
M  V30 3175 H 300.189 -2.67355 3.4162 0
M  V30 3176 H 300.86 -4.30691 3.45266 0
M  V30 3177 H 303.336 -3.84894 1.581 0
M  V30 3178 H 302.212 -5.22945 1.66793 0
M  V30 3179 H 302.473 -4.41904 0.131505 0
M  V30 3180 N 301.532 -0.945985 -1.26051 0
M  V30 3181 C 302.757 -0.612525 -1.98149 0
M  V30 3182 C 303.182 0.806623 -1.69927 0
M  V30 3183 O 302.54 1.54411 -0.950108 0
M  V30 3184 C 302.588 -0.866981 -3.50023 0
M  V30 3185 O 301.692 0.0585333 -4.12358 0
M  V30 3186 H 301.033 -0.23379 -0.621481 0
M  V30 3187 H 303.563 -1.27023 -1.60395 0
M  V30 3188 H 303.573 -0.789792 -4.00283 0
M  V30 3189 H 302.248 -1.90135 -3.69894 0
M  V30 3190 H 300.825 -0.0701241 -3.72834 0
M  V30 3191 N 303.011 1.40521 -0.713556 0
M  V30 3192 C 303.921 2.34522 -0.0606667 0
M  V30 3193 C 304.937 1.57193 0.74607 0
M  V30 3194 O 306.113 1.89591 0.679493 0
M  V30 3195 C 303.178 3.36081 0.851491 0
M  V30 3196 C 302.239 4.29286 0.0349339 0
M  V30 3197 C 301.472 5.25994 0.903649 0
M  V30 3198 O 301.695 5.28616 2.14292 0
M  V30 3199 O 300.629 6.00918 0.343723 0
M  V30 3200 H 304.455 2.91968 -0.835972 0
M  V30 3201 H 302.04 1.41681 -0.47402 0
M  V30 3202 H 303.922 3.98369 1.37404 0
M  V30 3203 H 302.597 2.81052 1.60598 0
M  V30 3204 H 301.504 3.70289 -0.532633 0
M  V30 3205 H 302.837 4.87462 -0.681287 0
M  V30 3206 N 304.489 0.459591 1.5075 0
M  V30 3207 C 305.419 -0.330644 2.31147 0
M  V30 3208 C 306.4 -1.00087 1.37538 0
M  V30 3209 O 307.585 -1.00025 1.66459 0
M  V30 3210 C 304.715 -1.41958 3.16962 0
M  V30 3211 C 303.669 -0.871608 4.19031 0
M  V30 3212 C 302.995 -2.05797 4.9351 0
M  V30 3213 C 304.295 0.109251 5.22186 0
M  V30 3214 H 305.989 0.340336 2.97459 0
M  V30 3215 H 303.535 0.165119 1.4305 0
M  V30 3216 H 305.488 -1.9798 3.71997 0
M  V30 3217 H 304.212 -2.11917 2.48513 0
M  V30 3218 H 302.871 -0.333442 3.6508 0
M  V30 3219 H 302.519 -2.74427 4.21544 0
M  V30 3220 H 302.219 -1.6976 5.62544 0
M  V30 3221 H 303.743 -2.62331 5.51375 0
M  V30 3222 H 305.157 -0.361405 5.7216 0
M  V30 3223 H 303.554 0.383316 5.98875 0
M  V30 3224 H 304.624 1.03887 4.73641 0
M  V30 3225 N 305.967 -1.56429 0.191757 0
M  V30 3226 C 307.192 -2.02309 -0.456706 0
M  V30 3227 C 307.617 -1.07103 -1.5463 0
M  V30 3228 O 306.975 -0.0539677 -1.8122 0
M  V30 3229 C 307.023 -3.46654 -0.993159 0
M  V30 3230 O 306.127 -3.54559 -2.10622 0
M  V30 3231 H 305.468 -0.655303 -0.107114 0
M  V30 3232 H 307.998 -2.02364 0.301653 0
M  V30 3233 H 308.008 -3.86377 -1.31061 0
M  V30 3234 H 306.683 -4.1544 -0.195504 0
M  V30 3235 H 305.26 -3.26708 -1.79767 0
M  V30 3236 N 307.445 0.0818655 -1.57387 0
M  V30 3237 C 308.408 1.08265 -2.02018 0
M  V30 3238 C 309.408 1.32183 -0.915664 0
M  V30 3239 O 310.598 1.28073 -1.18081 0
M  V30 3240 C 307.73 2.42871 -2.39221 0
M  V30 3241 H 308.923 0.698204 -2.91659 0
M  V30 3242 H 306.476 0.327303 -1.52835 0
M  V30 3243 H 307.211 2.86167 -1.52575 0
M  V30 3244 H 306.996 2.26855 -3.19811 0
M  V30 3245 H 308.486 3.14826 -2.74362 0
M  V30 3246 N 308.923 1.53595 0.353017 0
M  V30 3247 C 310.334 1.61937 0.929153 0
M  V30 3248 C 310.685 0.494686 1.89861 0
M  V30 3249 O 309.81 -0.377017 2.1309 0
M  V30 3250 C 310.405 2.93526 1.69199 0
M  V30 3251 C 308.964 3.04161 2.21727 0
M  V30 3252 C 308.111 2.57322 1.03348 0
M  V30 3253 H 311.062 1.58155 0.131431 0
M  V30 3254 H 311.083 2.82034 2.55416 0
M  V30 3255 H 310.595 3.75362 0.986144 0
M  V30 3256 H 308.696 2.26938 2.95516 0
M  V30 3257 H 308.809 4.09465 2.48748 0
M  V30 3258 H 307.173 2.12499 1.40414 0
M  V30 3259 H 307.956 3.41588 0.342428 0
M  V30 3260 N 310.401 -0.613514 1.45168 0
M  V30 3261 C 311.817 -0.933629 1.29443 0
M  V30 3262 C 312.017 -2.00028 0.243101 0
M  V30 3263 O 311.073 -2.49848 -0.364992 0
M  V30 3264 C 312.386 -1.38018 2.67155 0
M  V30 3265 C 313.934 -1.49471 2.75004 0
M  V30 3266 C 314.409 -1.97503 4.13227 0
M  V30 3267 N 315.9 -2.04746 4.15491 0
M  V30 3268 C 316.635 -2.43121 5.19307 0
M  V30 3269 N 316.131 -2.80506 6.33473 0
M  V30 3270 N 317.924 -2.43408 5.06664 0
M  V30 3271 H 310.075 0.0916097 2.12202 0
M  V30 3272 H 312.338 -0.0216655 0.947752 0
M  V30 3273 H 312.044 -0.670625 3.45247 0
M  V30 3274 H 311.918 -2.34784 2.95222 0
M  V30 3275 H 314.305 -2.19519 1.9722 0
M  V30 3276 H 314.386 -0.510342 2.50657 0
M  V30 3277 H 314.03 -1.28045 4.91495 0
M  V30 3278 H 313.96 -2.96843 4.34962 0
M  V30 3279 H 316.451 -1.78468 3.33103 0
M  V30 3280 H 316.764 -3.08652 7.08487 0
M  V30 3281 H 315.109 -2.78216 6.36884 0
M  V30 3282 H 318.3 -2.13604 4.16523 0
M  V30 3283 H 318.473 -2.72989 5.87691 0
M  V30 3284 N 311.879 -1.3236 -0.855495 0
M  V30 3285 C 313.128 -1.22226 -1.60448 0
M  V30 3286 C 313.441 0.214733 -1.94418 0
M  V30 3287 O 314.647 0.437917 -2.67945 0
M  V30 3288 C 313.103 -2.14063 -2.89318 0
M  V30 3289 C 312.711 -3.62839 -2.62777 0
M  V30 3290 C 314.455 -2.12764 -3.67331 0
M  V30 3291 C 312.362 -4.4664 -3.87643 0
M  V30 3292 H 311.292 -0.453904 -0.602069 0
M  V30 3293 H 313.943 -1.57314 -0.944698 0
M  V30 3294 H 312.325 -1.71889 -3.5675 0
M  V30 3295 H 313.499 -4.1335 -2.03662 0
M  V30 3296 H 311.814 -3.66261 -1.98096 0
M  V30 3297 H 314.411 -2.72611 -4.59987 0
M  V30 3298 H 314.754 -1.11841 -4.00995 0
M  V30 3299 H 315.287 -2.53214 -3.06802 0
M  V30 3300 H 312.026 -5.48373 -3.5912 0
M  V30 3301 H 311.546 -4.0088 -4.46156 0
M  V30 3302 H 313.225 -4.59597 -4.55389 0
M  V30 3303 N 313.357 1.07166 -1.15556 0
M  V30 3304 C 314.287 2.16403 -0.877046 0
M  V30 3305 C 315.268 1.69217 0.173111 0
M  V30 3306 O 316.453 1.94181 0.027084 0
M  V30 3307 C 313.583 3.45349 -0.367632 0
M  V30 3308 C 312.537 4.05995 -1.35468 0
M  V30 3309 C 311.863 5.30045 -0.704038 0
M  V30 3310 C 313.163 4.45804 -2.72132 0
M  V30 3311 H 314.857 2.39959 -1.79053 0
M  V30 3312 H 312.403 1.15325 -0.862331 0
M  V30 3313 H 314.356 4.21095 -0.160317 0
M  V30 3314 H 313.08 3.21385 0.581326 0
M  V30 3315 H 311.739 3.32296 -1.54839 0
M  V30 3316 H 311.387 5.02373 0.251128 0
M  V30 3317 H 311.087 5.71579 -1.36277 0
M  V30 3318 H 312.611 6.08495 -0.50654 0
M  V30 3319 H 314.025 5.12671 -2.56595 0
M  V30 3320 H 312.422 4.98296 -3.34397 0
M  V30 3321 H 313.492 3.57083 -3.28054 0
M  V30 3322 N 314.835 0.952656 1.25548 0
M  V30 3323 C 316.081 0.607272 1.93494 0
M  V30 3324 C 316.414 -0.853245 1.74452 0
M  V30 3325 O 315.689 -1.61194 1.08843 0
M  V30 3326 C 315.972 0.96435 3.46947 0
M  V30 3327 C 315.825 2.48045 3.75225 0
M  V30 3328 C 317.144 0.487987 4.37386 0
M  V30 3329 H 314.263 0.222096 0.702739 0
M  V30 3330 H 316.905 1.18895 1.48203 0
M  V30 3331 H 315.055 0.469361 3.85654 0
M  V30 3332 H 316.727 3.04905 3.46166 0
M  V30 3333 H 314.97 2.919 3.209 0
M  V30 3334 H 315.641 2.6808 4.82532 0
M  V30 3335 H 318.117 0.912558 4.0597 0
M  V30 3336 H 316.993 0.766547 5.43521 0
M  V30 3337 H 317.254 -0.612063 4.37843 0
M  V30 3338 N 316.313 -1.40141 0.720998 0
M  V30 3339 C 317.276 -2.29058 0.0805834 0
M  V30 3340 C 318.276 -1.45632 -0.681758 0
M  V30 3341 O 319.466 -1.6648 -0.512856 0
M  V30 3342 C 316.598 -3.28925 -0.895593 0
M  V30 3343 H 317.791 -2.87191 0.863793 0
M  V30 3344 H 315.344 -1.48553 0.485975 0
M  V30 3345 H 316.079 -2.75822 -1.70566 0
M  V30 3346 H 315.864 -3.90519 -0.351766 0
M  V30 3347 H 317.354 -3.95494 -1.34069 0
M  V30 3348 N 317.792 -0.46758 -1.50504 0
M  V30 3349 C 319.04 0.0884469 -2.01906 0
M  V30 3350 C 319.361 1.40532 -1.35188 0
M  V30 3351 O 318.631 1.89515 -0.496079 0
M  V30 3352 H 317.211 0.0356765 -0.746148 0
M  V30 3353 H 319.873 -0.6172 -1.84869 0
M  V30 3354 H 318.969 0.2425 -3.11156 0
M  V30 3355 N 319.27 1.56325 -0.20005 0
M  V30 3356 C 320.518 1.97329 0.436547 0
M  V30 3357 C 320.839 1.08826 1.61808 0
M  V30 3358 O 320.109 0.160604 1.95241 0
M  V30 3359 H 318.689 0.728714 0.164272 0
M  V30 3360 H 321.351 1.92761 -0.287937 0
M  V30 3361 H 320.447 3.02264 0.777353 0
M  V30 3362 N 320.748 -0.0735177 1.57428 0
M  V30 3363 C 321.997 -0.771809 1.86349 0
M  V30 3364 C 322.31 -1.78828 0.792452 0
M  V30 3365 O 323.516 -2.53602 0.96945 0
M  V30 3366 C 321.972 -1.42358 3.30548 0
M  V30 3367 C 321.58 -0.445761 4.45777 0
M  V30 3368 C 323.324 -2.10434 3.6867 0
M  V30 3369 C 321.231 -1.10335 5.81016 0
M  V30 3370 H 320.161 -0.291999 0.695164 0
M  V30 3371 H 322.812 -0.0250749 1.83483 0
M  V30 3372 H 321.194 -2.21852 3.28021 0
M  V30 3373 H 322.368 0.319239 4.59693 0
M  V30 3374 H 320.683 0.130457 4.16196 0
M  V30 3375 H 323.28 -2.60405 4.67004 0
M  V30 3376 H 323.623 -2.90298 2.98383 0
M  V30 3377 H 324.156 -1.37773 3.7318 0
M  V30 3378 H 320.895 -0.345061 6.54591 0
M  V30 3379 H 320.415 -1.83925 5.70904 0
M  V30 3380 H 322.094 -1.62367 6.26295 0
M  V30 3381 N 322.226 -1.5378 -0.344866 0
M  V30 3382 C 323.189 -1.80981 -1.40637 0
M  V30 3383 C 324.189 -0.680816 -1.45676 0
M  V30 3384 O 325.379 -0.949095 -1.46075 0
M  V30 3385 C 322.511 -1.95063 -2.79577 0
M  V30 3386 H 323.704 -2.75803 -1.17783 0
M  V30 3387 H 321.257 -1.45173 -0.579181 0
M  V30 3388 H 321.992 -1.02379 -3.07716 0
M  V30 3389 H 321.777 -2.77198 -2.77315 0
M  V30 3390 H 323.267 -2.17629 -3.56409 0
M  V30 3391 N 323.704 0.605807 -1.45491 0
M  V30 3392 C 324.952 1.36207 -1.49305 0
M  V30 3393 C 325.273 1.94519 -0.136863 0
M  V30 3394 O 324.543 1.77261 0.833983 0
M  V30 3395 H 323.123 0.50565 -0.549843 0
M  V30 3396 H 325.785 0.711239 -1.81459 0
M  V30 3397 H 324.881 2.18058 -2.23287 0
M  V30 3398 N 325.182 1.32811 0.848464 0
M  V30 3399 C 326.431 1.23075 1.59798 0
M  V30 3400 C 326.744 -0.204419 1.94529 0
M  V30 3401 O 327.95 -0.423701 2.68173 0
M  V30 3402 C 326.406 2.15594 2.88179 0
M  V30 3403 C 326.014 3.64228 2.60849 0
M  V30 3404 C 327.758 2.14709 3.66197 0
M  V30 3405 C 325.665 4.48689 3.85269 0
M  V30 3406 H 324.595 0.457091 0.599653 0
M  V30 3407 H 327.246 1.57813 0.936342 0
M  V30 3408 H 325.628 1.73778 3.55833 0
M  V30 3409 H 326.802 4.14424 2.01467 0
M  V30 3410 H 325.117 3.67306 1.96151 0
M  V30 3411 H 327.714 2.75046 4.58534 0
M  V30 3412 H 328.057 1.13966 4.00397 0
M  V30 3413 H 328.59 2.54837 3.05455 0
M  V30 3414 H 325.329 5.5027 3.56207 0
M  V30 3415 H 324.849 4.03241 4.44024 0
M  V30 3416 H 326.528 4.62006 4.52946 0
M  V30 3417 N 326.66 -1.06551 1.16123 0
M  V30 3418 C 327.907 -1.79302 0.941126 0
M  V30 3419 C 328.235 -1.87105 -0.531235 0
M  V30 3420 O 327.49 -1.35692 -1.41018 0
M  V30 3421 C 327.789 -3.23911 1.51052 0
M  V30 3422 C 327.455 -3.36193 3.00475 0
M  V30 3423 C 326.117 -3.39252 3.41265 0
M  V30 3424 C 328.469 -3.38326 3.96465 0
M  V30 3425 C 325.797 -3.42057 4.76669 0
M  V30 3426 C 328.149 -3.4267 5.31752 0
M  V30 3427 C 326.813 -3.4401 5.72026 0
M  V30 3428 H 326.083 -0.656111 0.344382 0
M  V30 3429 H 328.73 -1.25325 1.44796 0
M  V30 3430 H 327.035 -3.80723 0.925063 0
M  V30 3431 H 328.732 -3.78793 1.31593 0
M  V30 3432 H 325.322 -3.34516 2.6795 0
M  V30 3433 H 329.506 -3.35176 3.6602 0
M  V30 3434 H 324.762 -3.41398 5.07206 0
M  V30 3435 H 328.936 -3.43268 6.05921 0
M  V30 3436 H 326.563 -3.45937 6.76928 0
M  V30 3437 N 328.138 -0.959301 -1.25041 0
M  V30 3438 C 329.086 -0.474437 -2.2771 0
M  V30 3439 C 330.08 0.457697 -1.631 0
M  V30 3440 O 331.286 0.333912 -1.76876 0
M  V30 3441 H 327.661 -0.134936 -0.739795 0
M  V30 3442 H 329.632 -1.35251 -2.65988 0
M  V30 3443 C 328.381 0.227884 -3.46952 0
M  V30 3444 H 327.704 -0.480248 -3.96905 0
M  V30 3445 H 329.144 0.531091 -4.20661 0
M  V30 3446 C 327.603 1.452 -3.04004 0
M  V30 3447 O 328.133 2.54949 -3.10426 0
M  V30 3448 N 326.339 1.31502 -2.59144 0
M  V30 3449 H 325.886 0.422065 -2.54119 0
M  V30 3450 H 325.844 2.13521 -2.30773 0
M  V30 3451 N 329.616 1.39756 -0.72842 0
M  V30 3452 C 330.862 2.01425 -0.282761 0
M  V30 3453 C 331.217 1.56754 1.11561 0
M  V30 3454 O 330.51 0.783482 1.74849 0
M  V30 3455 C 330.704 3.56002 -0.315776 0
M  V30 3456 C 330.533 4.1568 -1.71582 0
M  V30 3457 C 329.303 4.48555 -2.32651 0
M  V30 3458 C 331.501 4.39667 -2.66829 0
M  V30 3459 N 329.483 4.93698 -3.64877 0
M  V30 3460 C 330.854 4.86942 -3.8378 0
M  V30 3461 C 332.909 4.21724 -2.64675 0
M  V30 3462 C 331.612 5.18158 -4.98904 0
M  V30 3463 C 333.638 4.54049 -3.78937 0
M  V30 3464 C 333 5.01525 -4.94623 0
M  V30 3465 H 329.099 0.76756 -0.149583 0
M  V30 3466 H 331.683 1.69784 -0.952976 0
M  V30 3467 H 329.854 3.87046 0.324057 0
M  V30 3468 H 331.586 4.0443 0.147808 0
M  V30 3469 H 328.341 4.36128 -1.84633 0
M  V30 3470 H 328.765 5.20635 -4.32744 0
M  V30 3471 H 333.407 3.84228 -1.76433 0
M  V30 3472 H 331.125 5.54562 -5.87781 0
M  V30 3473 H 334.711 4.41795 -3.78561 0
M  V30 3474 H 333.591 5.26065 -5.81572 0
M  V30 3475 N 331.094 0.475555 1.50254 0
M  V30 3476 C 332.057 -0.305016 2.27161 0
M  V30 3477 C 333.057 -0.916519 1.32123 0
M  V30 3478 O 334.247 -0.785003 1.5551 0
M  V30 3479 C 331.379 -1.43496 3.09227 0
M  V30 3480 H 332.572 0.369511 2.97615 0
M  V30 3481 H 330.125 0.229747 1.54602 0
M  V30 3482 H 330.86 -2.14441 2.43281 0
M  V30 3483 H 330.645 -1.00223 3.79075 0
M  V30 3484 H 332.135 -1.98548 3.67381 0
M  V30 3485 N 332.573 -1.56217 0.208337 0
M  V30 3486 C 333.819 -1.98242 -0.427552 0
M  V30 3487 C 334.152 -1.09554 -1.60348 0
M  V30 3488 O 333.427 -0.15035 -1.93918 0
M  V30 3489 C 333.71 -3.4931 -0.874907 0
M  V30 3490 C 333.563 -4.48773 0.303751 0
M  V30 3491 C 334.882 -4.04424 -1.73577 0
M  V30 3492 H 332.001 -0.720744 -0.153936 0
M  V30 3493 H 334.643 -1.87586 0.30192 0
M  V30 3494 H 332.793 -3.58522 -1.49648 0
M  V30 3495 H 334.465 -4.51586 0.941682 0
M  V30 3496 H 332.708 -4.23194 0.953375 0
M  V30 3497 H 333.379 -5.51976 -0.0519883 0
M  V30 3498 H 335.855 -3.98075 -1.21143 0
M  V30 3499 H 334.731 -5.1047 -2.01771 0
M  V30 3500 H 334.992 -3.50494 -2.69456 0
M  V30 3501 N 334.051 0.0651679 -1.57465 0
M  V30 3502 C 335.014 1.06117 -2.03155 0
M  V30 3503 C 336.014 1.31204 -0.929632 0
M  V30 3504 O 337.204 1.26813 -1.19432 0
M  V30 3505 C 334.336 2.4032 -2.41783 0
M  V30 3506 H 335.529 0.667231 -2.92383 0
M  V30 3507 H 333.082 0.311075 -1.53173 0
M  V30 3508 H 333.817 2.84532 -1.55601 0
M  V30 3509 H 333.602 2.23451 -3.22199 0
M  V30 3510 H 335.092 3.11898 -2.77685 0
M  V30 3511 N 335.529 1.53961 0.336706 0
M  V30 3512 C 336.778 1.70751 1.07363 0
M  V30 3513 C 337.091 0.481061 1.89592 0
M  V30 3514 O 338.297 0.530046 2.66276 0
M  V30 3515 C 336.753 3.01965 1.95818 0
M  V30 3516 C 336.361 4.31971 1.18764 0
M  V30 3517 C 338.105 3.28121 2.69327 0
M  V30 3518 C 336.012 5.54255 2.06289 0
M  V30 3519 H 334.942 0.636292 0.404535 0
M  V30 3520 H 337.593 1.80459 0.332681 0
M  V30 3521 H 335.975 2.86132 2.7376 0
M  V30 3522 H 337.149 4.5853 0.456849 0
M  V30 3523 H 335.464 4.12481 0.569946 0
M  V30 3524 H 338.061 4.16673 3.35094 0
M  V30 3525 H 338.404 2.45426 3.36261 0
M  V30 3526 H 338.937 3.44762 1.98454 0
M  V30 3527 H 335.676 6.39513 1.43885 0
M  V30 3528 H 335.196 5.31935 2.77138 0
M  V30 3529 H 336.875 5.90159 2.65182 0
M  V30 3530 N 337.007 -0.598083 1.45811 0
M  V30 3531 C 338.418 -1.18011 1.44673 0
M  V30 3532 C 338.769 -1.95378 0.179364 0
M  V30 3533 O 337.894 -2.04124 -0.718509 0
M  V30 3534 C 338.489 -2.14677 2.62105 0
M  V30 3535 C 337.048 -2.68236 2.64057 0
M  V30 3536 C 336.195 -1.43816 2.37091 0
M  V30 3537 H 339.146 -0.38686 1.53913 0
M  V30 3538 H 339.167 -2.97878 2.36746 0
M  V30 3539 H 338.679 -1.5834 3.5433 0
M  V30 3540 H 336.78 -3.28486 1.75864 0
M  V30 3541 H 336.893 -3.12021 3.63566 0
M  V30 3542 H 335.257 -1.731 1.86838 0
M  V30 3543 H 336.04 -0.893333 3.31473 0
M  V30 3544 N 338.485 -1.33259 -0.841409 0
M  V30 3545 C 339.896 -1.22066 -1.41269 0
M  V30 3546 C 340.247 0.161479 -1.95534 0
M  V30 3547 O 339.372 1.06094 -1.88608 0
M  V30 3548 C 339.967 -2.20996 -2.568 0
M  V30 3549 C 338.526 -2.13649 -3.09888 0
M  V30 3550 C 337.673 -2.08623 -1.82679 0
M  V30 3551 H 340.624 -1.44895 -0.647395 0
M  V30 3552 H 340.645 -1.81621 -3.34356 0
M  V30 3553 H 340.157 -3.2158 -2.17274 0
M  V30 3554 H 338.258 -1.16359 -3.53965 0
M  V30 3555 H 338.371 -3.04079 -3.70234 0
M  V30 3556 H 336.735 -1.54061 -2.02824 0
M  V30 3557 H 337.518 -3.1101 -1.45353 0
M  V30 3558 N 339.963 1.05934 -1.16686 0
M  V30 3559 C 341.24 1.75643 -0.860747 0
M  V30 3560 C 341.62 2.01144 0.640641 0
M  V30 3561 O 340.968 1.64147 1.58959 0
M  V30 3562 C 341.178 3.05493 -1.68745 0
M  V30 3563 C 342.526 3.79581 -1.90271 0
M  V30 3564 O 343.55 3.15344 -1.65641 0
M  V30 3565 O 342.409 4.9499 -2.31618 0
M  V30 3566 H 339.503 0.763426 -0.317977 0
M  V30 3567 H 342.049 1.1217 -1.27342 0
M  V30 3568 H 340.821 2.8264 -2.70611 0
M  V30 3569 H 340.444 3.76702 -1.27206 0
M  V30 3570 N 341.441 0.965919 1.2453 0
M  V30 3571 C 342.687 0.62776 1.92839 0
M  V30 3572 C 343.02 -0.834694 1.75347 0
M  V30 3573 O 342.295 -1.60031 1.10546 0
M  V30 3574 C 342.578 1.00109 3.45905 0
M  V30 3575 C 342.431 2.52011 3.72573 0
M  V30 3576 C 343.75 0.53435 4.36844 0
M  V30 3577 H 340.869 0.229537 0.700344 0
M  V30 3578 H 343.511 1.2046 1.46933 0
M  V30 3579 H 341.661 0.510238 3.85135 0
M  V30 3580 H 343.333 3.08559 3.42912 0
M  V30 3581 H 341.576 2.95287 3.17786 0
M  V30 3582 H 342.247 2.73183 4.79661 0
M  V30 3583 H 344.723 0.955565 4.04979 0
M  V30 3584 H 343.599 0.824152 5.42678 0
M  V30 3585 H 343.86 -0.565589 4.38467 0
M  V30 3586 N 342.919 -1.39368 0.735821 0
M  V30 3587 C 343.849 -2.33234 0.111506 0
M  V30 3588 C 344.83 -1.53954 -0.723334 0
M  V30 3589 O 346.015 -1.82344 -0.668147 0
M  V30 3590 C 343.145 -3.38057 -0.795917 0
M  V30 3591 C 342.099 -4.2795 -0.065172 0
M  V30 3592 C 341.425 -5.23479 -1.08967 0
M  V30 3593 C 342.725 -5.10741 1.09273 0
M  V30 3594 H 344.419 -2.85692 0.895571 0
M  V30 3595 H 341.965 -1.37364 0.432109 0
M  V30 3596 H 343.918 -4.02675 -1.24221 0
M  V30 3597 H 342.642 -2.8404 -1.61211 0
M  V30 3598 H 341.301 -3.64813 0.361511 0
M  V30 3599 H 340.949 -4.65758 -1.89944 0
M  V30 3600 H 340.649 -5.84472 -0.605489 0
M  V30 3601 H 342.173 -5.90974 -1.53565 0
M  V30 3602 H 343.587 -5.68699 0.724841 0
M  V30 3603 H 341.984 -5.8088 1.50659 0
M  V30 3604 H 343.054 -4.45525 1.91404 0
M  V30 3605 N 344.397 -0.483516 -1.5 0
M  V30 3606 C 345.344 0.304164 -2.28787 0
M  V30 3607 C 346.314 0.976114 -1.34392 0
M  V30 3608 O 347.499 0.986156 -1.63339 0
M  V30 3609 C 344.639 1.37298 -3.16612 0
M  V30 3610 C 343.752 0.714561 -4.26049 0
M  V30 3611 C 342.887 1.76232 -5.01114 0
M  V30 3612 C 341.926 1.08483 -6.0241 0
M  V30 3613 N 341.063 2.076 -6.70706 0
M  V30 3614 H 345.903 -0.373981 -2.95644 0
M  V30 3615 H 343.44 -0.196275 -1.45785 0
M  V30 3616 H 345.398 2.00445 -3.65893 0
M  V30 3617 H 344.028 2.02012 -2.51776 0
M  V30 3618 H 343.08 -0.0297798 -3.80388 0
M  V30 3619 H 344.392 0.180383 -4.98474 0
M  V30 3620 H 343.546 2.46929 -5.54176 0
M  V30 3621 H 342.285 2.33033 -4.28424 0
M  V30 3622 H 341.29 0.363545 -5.48597 0
M  V30 3623 H 342.515 0.523551 -6.77079 0
M  V30 3624 H 340.461 2.63394 -6.00799 0
M  V30 3625 H 340.378 1.59201 -7.39047 0
M  V30 3626 H 341.646 2.77639 -7.2838 0
M  V30 3627 N 345.875 1.56104 -0.216619 0
M  V30 3628 C 347.1 2.0301 0.424462 0
M  V30 3629 C 347.525 1.0955 1.52907 0
M  V30 3630 O 346.883 0.0827914 1.81111 0
M  V30 3631 C 346.931 3.4819 0.937883 0
M  V30 3632 O 346.035 3.57865 2.04955 0
M  V30 3633 H 345.376 0.656925 0.0966755 0
M  V30 3634 H 347.906 2.01859 -0.33381 0
M  V30 3635 H 347.916 3.88413 1.24897 0
M  V30 3636 H 346.591 4.15699 0.129387 0
M  V30 3637 H 345.168 3.29527 1.74546 0
M  V30 3638 N 347.353 -0.0568162 1.57498 0
M  V30 3639 C 348.769 -0.411933 1.54192 0
M  V30 3640 C 348.969 -1.78287 0.938942 0
M  V30 3641 O 348.025 -2.46483 0.547919 0
M  V30 3642 C 349.338 -0.339244 2.9878 0
M  V30 3643 C 350.886 -0.418348 3.10192 0
M  V30 3644 C 351.361 -0.375407 4.56459 0
M  V30 3645 N 352.852 -0.435038 4.61153 0
M  V30 3646 C 353.587 -0.424265 5.71828 0
M  V30 3647 N 353.083 -0.367418 6.91825 0
M  V30 3648 N 354.876 -0.471938 5.60115 0
M  V30 3649 H 347.027 0.840684 1.95055 0
M  V30 3650 H 349.29 0.316987 0.893433 0
M  V30 3651 H 348.996 0.601742 3.46514 0
M  V30 3652 H 348.87 -1.14371 3.59443 0
M  V30 3653 H 351.257 -1.34976 2.62422 0
M  V30 3654 H 351.338 0.414962 2.52412 0
M  V30 3655 H 350.982 0.552219 5.04889 0
M  V30 3656 H 350.912 -1.22645 5.12119 0
M  V30 3657 H 353.403 -0.482612 3.74806 0
M  V30 3658 H 353.716 -0.363535 7.71944 0
M  V30 3659 H 352.061 -0.333879 6.94198 0
M  V30 3660 H 355.252 -0.514145 4.65268 0
M  V30 3661 H 355.425 -0.460073 6.46365 0
M  V30 3662 N 348.832 -1.54138 -0.328536 0
M  V30 3663 C 350.079 -1.72105 -1.06706 0
M  V30 3664 C 350.407 -0.492111 -1.88171 0
M  V30 3665 O 349.662 0.526153 -1.88494 0
M  V30 3666 C 349.961 -2.9457 -2.02393 0
M  V30 3667 C 349.627 -4.29544 -1.37122 0
M  V30 3668 C 348.289 -4.6624 -1.19052 0
M  V30 3669 C 350.641 -5.1333 -0.902331 0
M  V30 3670 C 347.969 -5.84325 -0.527331 0
M  V30 3671 C 350.321 -6.32094 -0.252988 0
M  V30 3672 C 348.985 -6.67473 -0.0600901 0
M  V30 3673 H 348.255 -0.629775 -0.390466 0
M  V30 3674 H 350.902 -1.88372 -0.34473 0
M  V30 3675 H 349.207 -2.72969 -2.81061 0
M  V30 3676 H 350.904 -3.05665 -2.59557 0
M  V30 3677 H 347.494 -4.0067 -1.52188 0
M  V30 3678 H 351.678 -4.855 -1.02974 0
M  V30 3679 H 346.934 -6.103 -0.366634 0
M  V30 3680 H 351.108 -6.96299 0.118366 0
M  V30 3681 H 348.735 -7.58832 0.455828 0
M  V30 3682 N 350.31 0.590341 -1.46126 0
M  V30 3683 C 351.242 1.71427 -1.52136 0
M  V30 3684 C 352.255 1.57542 -0.41042 0
M  V30 3685 O 353.444 1.65106 -0.678389 0
M  V30 3686 C 350.544 3.09605 -1.37834 0
M  V30 3687 C 349.717 3.49566 -2.62912 0
M  V30 3688 C 348.776 4.66773 -2.42918 0
M  V30 3689 O 347.802 4.73019 -3.1661 0
M  V30 3690 N 349.004 5.61161 -1.4859 0
M  V30 3691 H 351.769 1.66728 -2.49042 0
M  V30 3692 H 349.33 0.776113 -1.42085 0
M  V30 3693 H 351.322 3.85796 -1.22243 0
M  V30 3694 H 349.892 3.08714 -0.491393 0
M  V30 3695 H 349.112 2.63158 -2.93499 0
M  V30 3696 H 350.4 3.73028 -3.46017 0
M  V30 3697 H 349.798 5.58844 -0.87808 0
M  V30 3698 H 348.355 6.36814 -1.38965 0
M  V30 3699 N 351.788 1.33704 0.83433 0
M  V30 3700 C 353.016 1.28467 1.62185 0
M  V30 3701 C 353.431 -0.143526 1.88254 0
M  V30 3702 O 352.788 -1.08709 1.4659 0
M  V30 3703 C 352.839 2.06174 2.96942 0
M  V30 3704 O 352.56 3.43422 2.72016 0
M  V30 3705 C 354.061 2.08201 3.91366 0
M  V30 3706 H 351.281 0.4424 0.504503 0
M  V30 3707 H 353.825 1.76145 1.03891 0
M  V30 3708 H 351.98 1.62167 3.51825 0
M  V30 3709 H 352.394 3.83453 3.57861 0
M  V30 3710 H 353.868 2.67017 4.83121 0
M  V30 3711 H 354.345 1.07343 4.2588 0
M  V30 3712 H 354.951 2.52246 3.42421 0
M  V30 3713 N 353.266 -1.05314 1.17247 0
M  V30 3714 C 354.229 -2.112 0.890357 0
M  V30 3715 C 355.229 -1.60359 -0.118943 0
M  V30 3716 O 356.419 -1.73833 0.113086 0
M  V30 3717 C 353.551 -3.39266 0.333422 0
M  V30 3718 H 354.744 -2.37659 1.82916 0
M  V30 3719 H 352.297 -1.21538 0.982758 0
M  V30 3720 H 353.032 -3.18462 -0.612587 0
M  V30 3721 H 352.817 -3.77477 1.06082 0
M  V30 3722 H 354.307 -4.17315 0.154322 0
M  V30 3723 N 354.744 -0.972509 -1.24016 0
M  V30 3724 C 356.155 -0.67517 -1.74064 0
M  V30 3725 C 356.506 0.808939 -1.78747 0
M  V30 3726 O 355.631 1.63286 -1.42009 0
M  V30 3727 C 356.226 -1.21889 -3.16115 0
M  V30 3728 C 354.785 -0.971358 -3.6365 0
M  V30 3729 C 353.932 -1.35134 -2.42145 0
M  V30 3730 H 356.883 -1.14727 -1.09651 0
M  V30 3731 H 356.904 -0.587489 -3.75937 0
M  V30 3732 H 356.416 -2.29906 -3.12674 0
M  V30 3733 H 354.517 0.0930686 -3.72484 0
M  V30 3734 H 354.63 -1.62039 -4.50866 0
M  V30 3735 H 352.994 -0.769751 -2.4279 0
M  V30 3736 H 353.777 -2.4411 -2.41381 0
M  V30 3737 N 356.222 1.38976 -0.743202 0
M  V30 3738 C 357.633 1.83123 -0.363732 0
M  V30 3739 C 357.984 1.6205 1.10609 0
M  V30 3740 O 357.109 1.11606 1.854 0
M  V30 3741 C 357.704 3.32439 -0.653408 0
M  V30 3742 C 356.263 3.74974 -0.327338 0
M  V30 3743 C 355.41 2.61878 -0.911875 0
M  V30 3744 H 358.361 1.27852 -0.940191 0
M  V30 3745 H 358.382 3.80432 0.0720031 0
M  V30 3746 H 357.894 3.47745 -1.72323 0
M  V30 3747 H 355.995 3.65252 0.736314 0
M  V30 3748 H 356.108 4.72106 -0.815631 0
M  V30 3749 H 354.472 2.52448 -0.337944 0
M  V30 3750 H 355.255 2.79987 -1.98651 0
M  V30 3751 N 357.7 0.491464 1.49741 0
M  V30 3752 C 358.948 -0.0563141 2.02022 0
M  V30 3753 C 359.269 -1.38363 1.37407 0
M  V30 3754 O 358.539 -1.88702 0.526166 0
M  V30 3755 H 357.119 -0.0238014 0.746621 0
M  V30 3756 H 359.781 0.646533 1.83864 0
M  V30 3757 H 358.877 -0.192967 3.11503 0
M  V30 3758 N 359.178 -1.55987 0.224894 0
M  V30 3759 C 360.125 -2.20436 -0.68385 0
M  V30 3760 C 361.095 -1.16102 -1.18783 0
M  V30 3761 O 362.28 -1.4447 -1.24632 0
M  V30 3762 C 359.42 -2.89076 -1.88491 0
M  V30 3763 C 358.533 -4.08012 -1.41951 0
M  V30 3764 C 357.668 -4.64426 -2.5784 0
M  V30 3765 C 356.707 -5.75656 -2.08053 0
M  V30 3766 N 355.844 -6.26347 -3.17227 0
M  V30 3767 H 360.684 -2.97727 -0.12754 0
M  V30 3768 H 358.221 -1.47011 -0.0511978 0
M  V30 3769 H 360.179 -3.27059 -2.59014 0
M  V30 3770 H 358.809 -2.14298 -2.41405 0
M  V30 3771 H 357.861 -3.75492 -0.609095 0
M  V30 3772 H 359.173 -4.88375 -1.01447 0
M  V30 3773 H 358.327 -5.04869 -3.3644 0
M  V30 3774 H 357.066 -3.83233 -3.01635 0
M  V30 3775 H 356.071 -5.34712 -1.27916 0
M  V30 3776 H 357.296 -6.58686 -1.65255 0
M  V30 3777 H 355.242 -5.48067 -3.60497 0
M  V30 3778 H 355.159 -7.01843 -2.80986 0
M  V30 3779 H 356.427 -6.71447 -3.95953 0
M  V30 3780 N 360.656 0.0484629 -1.57525 0
M  V30 3781 C 361.886 0.754326 -1.92337 0
M  V30 3782 C 362.294 1.70443 -0.82132 0
M  V30 3783 O 361.637 1.82466 0.21254 0
M  V30 3784 C 361.699 1.58231 -3.22805 0
M  V30 3785 C 361.363 0.799074 -4.4996 0
M  V30 3786 C 362.36 0.1079 -5.19788 0
M  V30 3787 C 360.045 0.759345 -4.96527 0
M  V30 3788 C 362.039 -0.612516 -6.3445 0
M  V30 3789 C 359.726 0.0351713 -6.1109 0
M  V30 3790 C 360.724 -0.649537 -6.79904 0
M  V30 3791 O 360.412 -1.36199 -7.92278 0
M  V30 3792 H 360.144 0.218257 -0.639797 0
M  V30 3793 H 362.698 0.0159295 -2.05394 0
M  V30 3794 H 360.928 2.36406 -3.06021 0
M  V30 3795 H 362.617 2.16898 -3.43089 0
M  V30 3796 H 363.383 0.129748 -4.84826 0
M  V30 3797 H 359.262 1.28177 -4.42822 0
M  V30 3798 H 362.806 -1.14751 -6.88097 0
M  V30 3799 H 358.703 0.0113314 -6.45499 0
M  V30 3800 H 359.471 -1.27366 -8.0853 0
M  V30 3801 N 362.134 1.5431 0.320358 0
M  V30 3802 C 363.545 1.63872 0.894594 0
M  V30 3803 C 363.896 0.534847 1.88769 0
M  V30 3804 O 363.021 -0.331732 2.13842 0
M  V30 3805 C 363.616 2.97049 1.62934 0
M  V30 3806 C 362.175 3.08796 2.15226 0
M  V30 3807 C 361.322 2.59456 0.978671 0
M  V30 3808 H 364.273 1.58398 0.0978544 0
M  V30 3809 H 364.294 2.87388 2.49376 0
M  V30 3810 H 363.806 3.7737 0.906302 0
M  V30 3811 H 361.907 2.33156 2.90636 0
M  V30 3812 H 362.02 4.14649 2.40006 0
M  V30 3813 H 360.384 2.1543 1.35875 0
M  V30 3814 H 361.167 3.42237 0.269895 0
M  V30 3815 N 363.613 -0.582584 1.46437 0
M  V30 3816 C 364.561 -1.71272 1.5738 0
M  V30 3817 C 365.555 -1.63524 0.44229 0
M  V30 3818 O 366.761 -1.69016 0.619166 0
M  V30 3819 H 363.136 -0.566273 0.494813 0
M  V30 3820 H 365.107 -1.59174 2.52401 0
M  V30 3821 C 363.856 -3.09658 1.58136 0
M  V30 3822 H 363.179 -3.16291 2.44541 0
M  V30 3823 H 364.619 -3.88494 1.69847 0
M  V30 3824 C 363.078 -3.3547 0.310026 0
M  V30 3825 O 363.608 -3.97199 -0.599683 0
M  V30 3826 N 361.814 -2.89925 0.197901 0
M  V30 3827 H 361.361 -2.39873 0.93909 0
M  V30 3828 H 361.319 -3.07568 -0.65185 0
M  V30 3829 N 365.091 -1.34144 -0.827227 0
M  V30 3830 C 366.339 -1.26009 -1.58007 0
M  V30 3831 C 366.66 0.170971 -1.94249 0
M  V30 3832 O 365.93 1.10256 -1.61927 0
M  V30 3833 H 364.51 -0.463414 -0.585881 0
M  V30 3834 H 367.172 -1.68005 -0.987951 0
M  V30 3835 H 366.268 -1.86187 -2.50481 0
M  V30 3836 N 366.569 1.04691 -1.17803 0
M  V30 3837 C 367.816 1.77782 -0.969532 0
M  V30 3838 C 368.144 1.87926 0.501401 0
M  V30 3839 O 367.399 1.37918 1.38842 0
M  V30 3840 C 367.698 3.21467 -1.56186 0
M  V30 3841 C 367.364 3.3137 -3.05786 0
M  V30 3842 C 366.026 3.3378 -3.46619 0
M  V30 3843 C 368.378 3.31976 -4.01797 0
M  V30 3844 C 365.706 3.34431 -4.82051 0
M  V30 3845 C 368.058 3.34167 -5.37136 0
M  V30 3846 C 366.722 3.34866 -5.77426 0
M  V30 3847 H 365.992 0.650549 -0.354777 0
M  V30 3848 H 368.639 1.23006 -1.46772 0
M  V30 3849 H 366.944 3.79203 -0.985515 0
M  V30 3850 H 368.641 3.76652 -1.37602 0
M  V30 3851 H 365.231 3.3021 -2.73238 0
M  V30 3852 H 369.415 3.29311 -3.71306 0
M  V30 3853 H 364.671 3.33285 -5.12573 0
M  V30 3854 H 368.845 3.33585 -6.11305 0
M  V30 3855 H 366.472 3.35124 -6.82346 0
M  V30 3856 N 368.047 0.979072 1.23499 0
M  V30 3857 C 369.463 0.687475 1.44034 0
M  V30 3858 C 369.663 -0.746801 1.8715 0
M  V30 3859 O 368.719 -1.51939 2.0167 0
M  V30 3860 C 370.032 1.68127 2.49307 0
M  V30 3861 C 371.58 1.69516 2.63122 0
M  V30 3862 C 372.055 2.67723 3.71603 0
M  V30 3863 N 373.546 2.66233 3.79044 0
M  V30 3864 C 374.281 3.38891 4.62537 0
M  V30 3865 N 373.777 4.21103 5.50131 0
M  V30 3866 N 375.57 3.27661 4.56721 0
M  V30 3867 H 367.721 1.90559 0.938135 0
M  V30 3868 H 369.984 0.821051 0.473897 0
M  V30 3869 H 369.69 2.70693 2.2454 0
M  V30 3870 H 369.564 1.46306 3.4767 0
M  V30 3871 H 371.951 0.676561 2.8724 0
M  V30 3872 H 372.032 1.95404 1.65079 0
M  V30 3873 H 371.676 3.69724 3.48233 0
M  V30 3874 H 371.606 2.39111 4.69184 0
M  V30 3875 H 374.097 2.06568 3.16446 0
M  V30 3876 H 374.41 4.73403 6.10827 0
M  V30 3877 H 372.755 4.25195 5.49759 0
M  V30 3878 H 375.946 2.62887 3.87309 0
M  V30 3879 H 376.119 3.84547 5.21562 0
M  V30 3880 N 369.525 -1.3858 0.750561 0
M  V30 3881 C 370.802 -1.94231 0.231009 0
M  V30 3882 C 371.182 -1.68611 -1.27018 0
M  V30 3883 O 370.53 -1.02296 -2.04323 0
M  V30 3884 C 370.74 -3.44123 0.581428 0
M  V30 3885 C 372.088 -4.2116 0.539389 0
M  V30 3886 O 373.112 -3.52391 0.519541 0
M  V30 3887 O 371.971 -5.43749 0.54765 0
M  V30 3888 H 369.065 -0.825639 0.0474263 0
M  V30 3889 H 371.611 -1.4799 0.830478 0
M  V30 3890 H 370.383 -3.56267 1.61833 0
M  V30 3891 H 370.006 -3.97573 -0.0462047 0
M  V30 3892 N 371.003 -0.499398 -1.49478 0
M  V30 3893 C 372.249 0.0457576 -2.02748 0
M  V30 3894 C 372.582 1.36793 -1.37846 0
M  V30 3895 O 371.857 1.87596 -0.513601 0
M  V30 3896 C 372.14 0.199986 -3.59544 0
M  V30 3897 C 371.993 -1.1452 -4.34977 0
M  V30 3898 C 373.312 0.94137 -4.29914 0
M  V30 3899 H 370.431 0.0151552 -0.736844 0
M  V30 3900 H 373.073 -0.650498 -1.78518 0
M  V30 3901 H 371.223 0.793007 -3.8032 0
M  V30 3902 H 372.895 -1.77697 -4.25701 0
M  V30 3903 H 371.138 -1.73488 -3.97598 0
M  V30 3904 H 371.809 -0.990607 -5.43039 0
M  V30 3905 H 374.285 0.43844 -4.13784 0
M  V30 3906 H 373.161 1.01812 -5.39375 0
M  V30 3907 H 373.422 1.98471 -3.95046 0
M  V30 3908 N 372.481 1.55866 -0.233164 0
M  V30 3909 C 373.411 2.23783 0.666599 0
M  V30 3910 C 374.392 1.21343 1.19205 0
M  V30 3911 O 375.577 1.4996 1.23392 0
M  V30 3912 C 372.707 2.92671 1.86978 0
M  V30 3913 C 371.661 4.01682 1.47768 0
M  V30 3914 C 370.987 4.57926 2.76058 0
M  V30 3915 C 372.287 5.18126 0.658993 0
M  V30 3916 H 373.981 2.99232 0.100306 0
M  V30 3917 H 371.527 1.43924 0.046804 0
M  V30 3918 H 373.48 3.3888 2.50476 0
M  V30 3919 H 372.204 2.14688 2.46123 0
M  V30 3920 H 370.863 3.56222 0.866106 0
M  V30 3921 H 370.511 3.76659 3.33372 0
M  V30 3922 H 370.211 5.31505 2.50552 0
M  V30 3923 H 371.735 5.06859 3.40479 0
M  V30 3924 H 373.149 5.60644 1.19795 0
M  V30 3925 H 371.546 5.98009 0.500552 0
M  V30 3926 H 372.616 4.83763 -0.331856 0
M  V30 3927 N 373.959 -0.0401083 1.57549 0
M  V30 3928 C 375.375 -0.395556 1.54621 0
M  V30 3929 C 375.575 -1.77281 0.957799 0
M  V30 3930 O 374.631 -2.45888 0.574031 0
M  V30 3931 C 375.944 -0.307535 2.99123 0
M  V30 3932 C 377.492 -0.385425 3.10618 0
M  V30 3933 C 377.967 -0.326973 4.56831 0
M  V30 3934 N 379.458 -0.386102 4.61588 0
M  V30 3935 C 380.193 -0.363591 5.72246 0
M  V30 3936 N 379.689 -0.29402 6.92176 0
M  V30 3937 N 381.482 -0.412503 5.60584 0
M  V30 3938 H 373.633 0.861325 1.94152 0
M  V30 3939 H 375.896 0.326445 0.890021 0
M  V30 3940 H 375.602 0.638461 3.45856 0
M  V30 3941 H 375.476 -1.10552 3.60636 0
M  V30 3942 H 377.863 -1.32185 2.63839 0
M  V30 3943 H 377.944 0.44171 2.51957 0
M  V30 3944 H 377.588 0.605738 5.04275 0
M  V30 3945 H 377.518 -1.17207 5.13391 0
M  V30 3946 H 380.009 -0.442832 3.75296 0
M  V30 3947 H 380.322 -0.28164 7.72287 0
M  V30 3948 H 378.667 -0.260232 6.94513 0
M  V30 3949 H 381.858 -0.464769 4.65787 0
M  V30 3950 H 382.031 -0.391492 6.46816 0
M  V30 3951 N 375.437 -1.54477 -0.31217 0
M  V30 3952 C 376.347 -1.87695 -1.4074 0
M  V30 3953 C 377.363 -0.769975 -1.56036 0
M  V30 3954 O 378.539 -1.06537 -1.70915 0
M  V30 3955 C 375.604 -2.10755 -2.75287 0
M  V30 3956 C 374.665 -3.34514 -2.69071 0
M  V30 3957 C 373.898 -3.56465 -3.97201 0
M  V30 3958 O 374.121 -2.81637 -4.96021 0
M  V30 3959 O 373.055 -4.49964 -3.9977 0
M  V30 3960 H 376.881 -2.80849 -1.15574 0
M  V30 3961 H 374.466 -1.40526 -0.507228 0
M  V30 3962 H 376.348 -2.27188 -3.54913 0
M  V30 3963 H 375.023 -1.20788 -3.0032 0
M  V30 3964 H 373.93 -3.23456 -1.87955 0
M  V30 3965 H 375.263 -4.24575 -2.48992 0
M  V30 3966 N 376.915 0.57481 -1.46744 0
M  V30 3967 C 377.845 1.69337 -1.60771 0
M  V30 3968 C 378.826 1.63825 -0.457736 0
M  V30 3969 O 380.011 1.8172 -0.684947 0
M  V30 3970 C 377.141 3.0798 -1.60517 0
M  V30 3971 C 376.095 3.28327 -2.74564 0
M  V30 3972 C 375.421 4.67578 -2.59373 0
M  V30 3973 C 376.721 3.15398 -4.16319 0
M  V30 3974 H 378.415 1.57853 -2.54407 0
M  V30 3975 H 375.961 0.75799 -1.22436 0
M  V30 3976 H 377.914 3.86061 -1.68923 0
M  V30 3977 H 376.638 3.20381 -0.634305 0
M  V30 3978 H 375.297 2.52649 -2.65639 0
M  V30 3979 H 374.945 4.76755 -1.60353 0
M  V30 3980 H 374.645 4.82144 -3.35873 0
M  V30 3981 H 376.169 5.47817 -2.69682 0
M  V30 3982 H 377.583 3.83315 -4.26313 0
M  V30 3983 H 375.98 3.41482 -4.93468 0
M  V30 3984 H 377.05 2.12372 -4.3592 0
M  V30 3985 N 378.394 1.34581 0.820102 0
M  V30 3986 C 379.643 1.26437 1.57151 0
M  V30 3987 C 379.956 -0.163111 1.94919 0
M  V30 3988 O 381.162 -0.366722 2.69012 0
M  V30 3989 C 379.618 2.21658 2.83541 0
M  V30 3990 C 379.226 3.69679 2.53065 0
M  V30 3991 C 380.97 2.22428 3.61561 0
M  V30 3992 C 378.877 4.56761 3.75664 0
M  V30 3993 H 377.807 0.469707 0.589823 0
M  V30 3994 H 380.458 1.59763 0.902656 0
M  V30 3995 H 378.84 1.81287 3.52067 0
M  V30 3996 H 380.014 4.18605 1.92631 0
M  V30 3997 H 378.329 3.71384 1.88316 0
M  V30 3998 H 380.926 2.8471 4.52597 0
M  V30 3999 H 381.269 1.22434 3.97889 0
M  V30 4000 H 381.802 2.61259 2.99981 0
M  V30 4001 H 378.541 5.57702 3.44454 0
M  V30 4002 H 378.061 4.12568 4.35371 0
M  V30 4003 H 379.74 4.71509 4.43044 0
M  V30 4004 N 379.872 -1.04064 1.18357 0
M  V30 4005 C 381.288 -1.2947 0.933258 0
M  V30 4006 C 381.488 -1.97466 -0.401169 0
M  V30 4007 O 380.544 -2.25528 -1.13549 0
M  V30 4008 C 381.857 -2.15337 2.09882 0
M  V30 4009 C 383.405 -2.28683 2.13712 0
M  V30 4010 C 383.88 -3.17917 3.29686 0
M  V30 4011 N 385.371 -3.25504 3.29547 0
M  V30 4012 C 386.106 -3.94706 4.15926 0
M  V30 4013 N 385.602 -4.66239 5.12439 0
M  V30 4014 N 387.395 -3.90986 4.0384 0
M  V30 4015 H 379.546 -0.583359 2.04232 0
M  V30 4016 H 381.809 -0.319921 0.892387 0
M  V30 4017 H 381.515 -1.72682 3.06389 0
M  V30 4018 H 381.389 -3.16015 2.05947 0
M  V30 4019 H 383.776 -2.70575 1.17784 0
M  V30 4020 H 383.857 -1.27596 2.21705 0
M  V30 4021 H 383.501 -2.76736 4.25887 0
M  V30 4022 H 383.431 -4.19036 3.1893 0
M  V30 4023 H 385.922 -2.74547 2.59677 0
M  V30 4024 H 386.235 -5.16638 5.74722 0
M  V30 4025 H 384.58 -4.65143 5.16398 0
M  V30 4026 H 387.771 -3.34234 3.27727 0
M  V30 4027 H 387.944 -4.44646 4.71375 0
M  V30 4028 N 381.35 -0.985608 -1.22978 0
M  V30 4029 C 382.627 -0.573599 -1.87001 0
M  V30 4030 C 383.007 0.949213 -1.88555 0
M  V30 4031 O 382.355 1.82811 -1.37086 0
M  V30 4032 C 382.565 -1.18564 -3.28243 0
M  V30 4033 C 383.913 -1.28163 -4.04796 0
M  V30 4034 O 384.937 -1.13949 -3.37482 0
M  V30 4035 O 383.796 -1.50832 -5.25273 0
M  V30 4036 H 380.89 -0.193868 -0.803955 0
M  V30 4037 H 383.436 -1.08102 -1.30813 0
M  V30 4038 H 382.208 -2.22758 -3.21706 0
M  V30 4039 H 381.831 -0.663363 -3.92027 0
M  V30 4040 N 382.828 1.3818 -0.7579 0
M  V30 4041 C 383.738 2.3421 -0.135247 0
M  V30 4042 C 384.754 1.59487 0.695683 0
M  V30 4043 O 385.93 1.91657 0.618832 0
M  V30 4044 C 382.995 3.3862 0.744139 0
M  V30 4045 C 382.056 4.2918 -0.101658 0
M  V30 4046 C 381.289 5.28603 0.735851 0
M  V30 4047 O 381.512 5.35166 1.97366 0
M  V30 4048 O 380.446 6.01707 0.152372 0
M  V30 4049 H 384.272 2.8916 -0.928436 0
M  V30 4050 H 381.857 1.40101 -0.518855 0
M  V30 4051 H 383.739 4.02539 1.2466 0
M  V30 4052 H 382.414 2.86019 1.51575 0
M  V30 4053 H 381.321 3.68407 -0.650167 0
M  V30 4054 H 382.654 4.85048 -0.836024 0
M  V30 4055 N 384.306 0.507319 1.49211 0
M  V30 4056 C 385.554 -0.0348839 2.0207 0
M  V30 4057 C 385.875 -1.36898 1.38866 0
M  V30 4058 O 385.145 -1.88133 0.546151 0
M  V30 4059 H 383.725 -0.0158812 0.746831 0
M  V30 4060 H 386.387 0.665998 1.83168 0
M  V30 4061 H 385.483 -0.159917 3.1169 0
M  V30 4062 N 385.784 -1.5574 0.241426 0
M  V30 4063 C 387.03 -1.99104 -0.385406 0
M  V30 4064 C 387.363 -1.1293 -1.57988 0
M  V30 4065 O 386.638 -0.191449 -1.93555 0
M  V30 4066 C 386.921 -3.51087 -0.800616 0
M  V30 4067 C 386.774 -4.48028 0.398874 0
M  V30 4068 C 388.093 -4.08015 -1.64959 0
M  V30 4069 H 385.212 -0.723848 -0.138614 0
M  V30 4070 H 387.854 -1.86903 0.341642 0
M  V30 4071 H 386.004 -3.61615 -1.4201 0
M  V30 4072 H 387.676 -4.49487 1.03726 0
M  V30 4073 H 385.919 -4.21077 1.04293 0
M  V30 4074 H 386.59 -5.51962 0.0651056 0
M  V30 4075 H 389.066 -4.00555 -1.12672 0
M  V30 4076 H 387.942 -5.14635 -1.90898 0
M  V30 4077 H 388.203 -3.56131 -2.61961 0
M  V30 4078 N 387.262 0.0317525 -1.57568 0
M  V30 4079 C 388.49 0.734949 -1.93407 0
M  V30 4080 C 388.905 1.69036 -0.84096 0
M  V30 4081 O 388.262 1.81582 0.182836 0
M  V30 4082 C 388.313 1.49432 -3.29169 0
M  V30 4083 O 388.034 0.577261 -4.3428 0
M  V30 4084 C 389.535 2.29492 -3.79273 0
M  V30 4085 H 386.755 0.206706 -0.638368 0
M  V30 4086 H 389.299 -0.00992046 -2.04498 0
M  V30 4087 H 387.454 2.1911 -3.19483 0
M  V30 4088 H 387.868 1.10952 -5.1263 0
M  V30 4089 H 389.342 2.78172 -4.76785 0
M  V30 4090 H 389.819 3.10794 -3.10328 0
M  V30 4091 H 390.425 1.64894 -3.92033 0
M  V30 4092 N 388.74 1.54641 0.303973 0
M  V30 4093 C 389.965 1.78092 1.06292 0
M  V30 4094 C 390.39 0.537342 1.80262 0
M  V30 4095 O 389.748 -0.511993 1.7392 0
M  V30 4096 C 389.796 2.98612 2.02147 0
M  V30 4097 O 388.9 2.71528 3.10397 0
M  V30 4098 H 388.241 0.589548 0.305497 0
M  V30 4099 H 390.771 2.01716 0.3423 0
M  V30 4100 H 390.781 3.265 2.44667 0
M  V30 4101 H 389.456 3.88785 1.47714 0
M  V30 4102 H 388.033 2.54648 2.72413 0
M  V30 4103 N 390.218 -0.567019 1.47046 0
M  V30 4104 C 391.148 -1.68482 1.61667 0
M  V30 4105 C 392.129 -1.6358 0.466418 0
M  V30 4106 O 393.314 -1.81354 0.694574 0
M  V30 4107 C 390.444 -3.07124 1.62148 0
M  V30 4108 C 389.398 -3.26867 2.76301 0
M  V30 4109 C 388.724 -4.66196 2.61849 0
M  V30 4110 C 390.024 -3.13186 4.17986 0
M  V30 4111 H 391.718 -1.56502 2.5524 0
M  V30 4112 H 389.264 -0.751486 1.22836 0
M  V30 4113 H 391.217 -3.8516 1.70968 0
M  V30 4114 H 389.941 -3.2004 0.651287 0
M  V30 4115 H 388.6 -2.51237 2.66975 0
M  V30 4116 H 388.248 -4.75898 1.62879 0
M  V30 4117 H 387.948 -4.80356 3.38425 0
M  V30 4118 H 389.472 -5.46379 2.72584 0
M  V30 4119 H 390.886 -3.81049 4.2834 0
M  V30 4120 H 389.283 -3.3886 4.95272 0
M  V30 4121 H 390.353 -2.10057 4.3704 0
M  V30 4122 N 391.696 -1.35014 -0.812953 0
M  V30 4123 C 392.926 -1.30841 -1.59888 0
M  V30 4124 C 393.334 0.117576 -1.88834 0
M  V30 4125 O 392.677 1.07807 -1.48739 0
M  V30 4126 C 392.739 -2.0412 -2.95931 0
M  V30 4127 C 392.403 -3.53336 -2.89832 0
M  V30 4128 C 393.4 -4.48052 -2.63714 0
M  V30 4129 C 391.085 -3.95894 -3.0915 0
M  V30 4130 C 393.079 -5.833 -2.56982 0
M  V30 4131 C 390.766 -5.31239 -3.0204 0
M  V30 4132 C 391.764 -6.24754 -2.75991 0
M  V30 4133 O 391.452 -7.57617 -2.68833 0
M  V30 4134 H 391.184 -0.451215 -0.50337 0
M  V30 4135 H 393.738 -1.78354 -1.01877 0
M  V30 4136 H 391.968 -1.51235 -3.559 0
M  V30 4137 H 393.657 -1.93107 -3.57022 0
M  V30 4138 H 394.423 -4.16492 -2.48515 0
M  V30 4139 H 390.302 -3.23495 -3.28438 0
M  V30 4140 H 393.846 -6.56263 -2.36569 0
M  V30 4141 H 389.743 -5.62415 -3.16796 0
M  V30 4142 H 390.511 -7.67469 -2.84487 0
M  V30 4143 N 393.175 1.03435 -1.18907 0
M  V30 4144 C 394.122 2.11591 -0.921837 0
M  V30 4145 C 395.092 1.65499 0.141226 0
M  V30 4146 O 396.277 1.908 0.000242829 0
M  V30 4147 C 393.417 3.42012 -0.460616 0
M  V30 4148 C 392.53 4.01682 -1.58982 0
M  V30 4149 C 391.665 5.20091 -1.08069 0
M  V30 4150 C 390.704 5.71805 -2.18416 0
M  V30 4151 N 389.841 6.81494 -1.68849 0
M  V30 4152 H 394.681 2.33787 -1.8479 0
M  V30 4153 H 392.218 1.1467 -0.921373 0
M  V30 4154 H 394.176 4.16834 -0.174642 0
M  V30 4155 H 392.806 3.19944 0.428467 0
M  V30 4156 H 391.858 3.24127 -1.99113 0
M  V30 4157 H 393.17 4.36084 -2.4214 0
M  V30 4158 H 392.324 6.02051 -0.749615 0
M  V30 4159 H 391.063 4.87209 -0.218771 0
M  V30 4160 H 390.068 4.88461 -2.5236 0
M  V30 4161 H 391.293 6.06728 -3.05054 0
M  V30 4162 H 389.239 6.50475 -0.849572 0
M  V30 4163 H 389.156 7.14994 -2.45601 0
M  V30 4164 H 390.424 7.67063 -1.38689 0
M  V30 4165 N 394.653 0.992116 1.22453 0
M  V30 4166 C 395.901 0.666215 1.90804 0
M  V30 4167 C 396.222 -0.804152 1.77647 0
M  V30 4168 O 395.492 -1.57629 1.16318 0
M  V30 4169 H 394.072 0.243423 0.706225 0
M  V30 4170 H 396.734 1.25845 1.48825 0
M  V30 4171 H 395.83 0.928069 2.97982 0
M  V30 4172 N 396.131 -1.37776 0.765217 0
M  V30 4173 C 397.378 -1.99849 0.326588 0
M  V30 4174 C 397.706 -1.60746 -1.09504 0
M  V30 4175 O 396.961 -0.84202 -1.76659 0
M  V30 4176 C 397.26 -3.5504 0.410053 0
M  V30 4177 C 396.926 -4.13891 1.78899 0
M  V30 4178 C 395.588 -4.29678 2.16635 0
M  V30 4179 C 397.94 -4.46236 2.69301 0
M  V30 4180 C 395.268 -4.7511 3.44221 0
M  V30 4181 C 397.62 -4.93089 3.9629 0
M  V30 4182 C 396.284 -5.07082 4.34078 0
M  V30 4183 H 395.554 -0.7313 0.119507 0
M  V30 4184 H 398.201 -1.64645 0.977968 0
M  V30 4185 H 396.506 -3.90451 -0.324878 0
M  V30 4186 H 398.203 -4.00966 0.0520699 0
M  V30 4187 H 394.793 -4.02026 1.48569 0
M  V30 4188 H 398.977 -4.3363 2.41409 0
M  V30 4189 H 394.233 -4.84129 3.73402 0
M  V30 4190 H 398.407 -5.17084 4.66472 0
M  V30 4191 H 396.034 -5.42046 5.33001 0
M  V30 4192 N 397.609 -0.515225 -1.4894 0
M  V30 4193 C 398.557 0.269115 -2.31038 0
M  V30 4194 C 399.551 0.949443 -1.40292 0
M  V30 4195 O 400.757 0.87551 -1.57273 0
M  V30 4196 H 397.132 0.10565 -0.744542 0
M  V30 4197 H 399.103 -0.443096 -2.95092 0
M  V30 4198 C 397.852 1.31213 -3.21991 0
M  V30 4199 H 397.175 0.798034 -3.91754 0
M  V30 4200 H 398.615 1.83263 -3.82349 0
M  V30 4201 C 397.074 2.33791 -2.42576 0
M  V30 4202 O 397.604 3.3995 -2.14003 0
M  V30 4203 N 395.81 2.06625 -2.0434 0
M  V30 4204 H 395.357 1.20314 -2.27777 0
M  V30 4205 H 395.315 2.75483 -1.51514 0
M  V30 4206 N 399.087 1.5561 -0.249682 0
M  V30 4207 C 400.05 2.20217 0.635394 0
M  V30 4208 C 401.05 1.17227 1.10066 0
M  V30 4209 O 402.24 1.42292 1.00492 0
M  V30 4210 C 399.372 2.84794 1.87363 0
M  V30 4211 H 400.565 2.99814 0.0716752 0
M  V30 4212 H 398.118 1.563 -0.000153234 0
M  V30 4213 H 398.853 2.09142 2.47851 0
M  V30 4214 H 398.638 3.60241 1.5482 0
M  V30 4215 H 400.128 3.3423 2.5036 0
M  V30 4216 N 400.565 -0.0233959 1.57583 0
M  V30 4217 C 401.811 -0.714119 1.89811 0
M  V30 4218 C 402.144 -1.74702 0.848113 0
M  V30 4219 O 401.419 -1.94023 -0.136135 0
M  V30 4220 C 401.702 -1.37853 3.32669 0
M  V30 4221 C 401.555 -0.358764 4.48367 0
M  V30 4222 C 402.874 -2.31101 3.7454 0
M  V30 4223 H 399.993 -0.25814 0.690314 0
M  V30 4224 H 402.635 0.0230927 1.89986 0
M  V30 4225 H 400.785 -2.00689 3.3265 0
M  V30 4226 H 402.457 0.268115 4.6052 0
M  V30 4227 H 400.7 0.321387 4.32608 0
M  V30 4228 H 401.371 -0.862242 5.45224 0
M  V30 4229 H 403.847 -1.78304 3.75961 0
M  V30 4230 H 402.723 -2.74567 4.75294 0
M  V30 4231 H 402.984 -3.18018 3.0711 0
M  V30 4232 N 402.043 -1.548 -0.295768 0
M  V30 4233 C 402.976 -1.81003 -1.38972 0
M  V30 4234 C 403.954 -0.661544 -1.48534 0
M  V30 4235 O 405.138 -0.902074 -1.65514 0
M  V30 4236 C 402.265 -1.95141 -2.76835 0
M  V30 4237 C 401.311 -3.17592 -2.84671 0
M  V30 4238 S 402.144 -4.75531 -2.46232 0
M  V30 4239 C 403.3 -4.92613 -3.86114 0
M  V30 4240 H 403.533 -2.73507 -1.16537 0
M  V30 4241 H 401.066 -1.46278 -0.494168 0
M  V30 4242 H 403.024 -2.03972 -3.56238 0
M  V30 4243 H 401.685 -1.03565 -2.96535 0
M  V30 4244 H 400.878 -3.24303 -3.85803 0
M  V30 4245 H 400.48 -3.07235 -2.13267 0
M  V30 4246 H 402.772 -4.76957 -4.81164 0
M  V30 4247 H 403.715 -5.94698 -3.8437 0
M  V30 4248 H 404.123 -4.2073 -3.76359 0
M  V30 4249 N 403.521 0.559213 -1.47345 0
M  V30 4250 C 404.77 1.31281 -1.53128 0
M  V30 4251 C 405.083 1.94602 -0.197344 0
M  V30 4252 O 406.289 2.71173 -0.133154 0
M  V30 4253 C 404.745 2.38051 -2.69925 0
M  V30 4254 C 404.353 1.8093 -4.0984 0
M  V30 4255 C 406.097 3.14604 -2.84999 0
M  V30 4256 C 404.004 2.85468 -5.1794 0
M  V30 4257 H 402.934 0.493614 -0.569966 0
M  V30 4258 H 405.585 0.594155 -1.73615 0
M  V30 4259 H 403.967 3.12822 -2.42814 0
M  V30 4260 H 405.141 1.12544 -4.46845 0
M  V30 4261 H 403.456 1.16967 -3.99634 0
M  V30 4262 H 406.053 3.92666 -3.62929 0
M  V30 4263 H 406.396 3.68665 -1.93369 0
M  V30 4264 H 406.929 2.46945 -3.1187 0
M  V30 4265 H 403.668 2.36264 -6.1144 0
M  V30 4266 H 403.188 3.52269 -4.85455 0
M  V30 4267 H 404.867 3.48996 -5.44803 0
M  V30 4268 N 404.999 1.35443 0.805782 0
M  V30 4269 C 406.415 1.15499 1.10146 0
M  V30 4270 C 406.615 -0.0319975 2.01475 0
M  V30 4271 O 405.671 -0.70236 2.42535 0
M  V30 4272 C 406.984 2.45833 1.73166 0
M  V30 4273 C 408.532 2.52047 1.85583 0
M  V30 4274 C 409.007 3.82427 2.52019 0
M  V30 4275 N 410.498 3.83682 2.59504 0
M  V30 4276 C 411.233 4.81294 3.11679 0
M  V30 4277 N 410.729 5.89294 3.64287 0
M  V30 4278 N 412.522 4.6873 3.1024 0
M  V30 4279 H 404.673 2.11469 0.198678 0
M  V30 4280 H 406.936 0.93594 0.150731 0
M  V30 4281 H 406.642 3.32874 1.13526 0
M  V30 4282 H 406.516 2.6044 2.72857 0
M  V30 4283 H 408.903 1.65435 2.44367 0
M  V30 4284 H 408.984 2.41354 0.847455 0
M  V30 4285 H 408.628 4.69437 1.93885 0
M  V30 4286 H 408.558 3.90409 3.53395 0
M  V30 4287 H 411.049 3.05648 2.22234 0
M  V30 4288 H 411.362 6.59768 4.02401 0
M  V30 4289 H 409.707 5.92985 3.62483 0
M  V30 4290 H 412.898 3.83496 2.68419 0
M  V30 4291 H 413.071 5.44965 3.50596 0
M  V30 4292 N 406.477 -1.02803 1.19454 0
M  V30 4293 C 407.44 -2.09264 0.934955 0
M  V30 4294 C 408.44 -1.60576 -0.0849015 0
M  V30 4295 O 409.63 -1.73554 0.149933 0
M  V30 4296 C 406.762 -3.38482 0.40531 0
M  V30 4297 H 407.955 -2.33726 1.87916 0
M  V30 4298 H 405.508 -1.19426 1.00832 0
M  V30 4299 H 406.243 -3.19689 -0.544899 0
M  V30 4300 H 406.028 -3.75142 1.14065 0
M  V30 4301 H 407.518 -4.16894 0.242806 0
M  V30 4302 N 407.956 -0.998596 -1.21925 0
M  V30 4303 C 409.203 -0.677663 -1.90824 0
M  V30 4304 C 409.531 0.790905 -1.77693 0
M  V30 4305 O 408.786 1.58817 -1.14349 0
M  V30 4306 C 409.085 -1.03648 -3.42041 0
M  V30 4307 C 408.751 -2.49825 -3.75364 0
M  V30 4308 C 407.413 -2.8977 -3.8417 0
M  V30 4309 C 409.765 -3.44545 -3.91073 0
M  V30 4310 C 407.093 -4.23412 -4.06127 0
M  V30 4311 C 409.445 -4.77853 -4.14535 0
M  V30 4312 C 408.109 -5.17531 -4.21566 0
M  V30 4313 H 407.379 -0.247975 -0.698276 0
M  V30 4314 H 410.026 -1.25584 -1.44571 0
M  V30 4315 H 408.331 -0.376457 -3.89987 0
M  V30 4316 H 410.028 -0.766113 -3.93614 0
M  V30 4317 H 406.618 -2.17866 -3.69097 0
M  V30 4318 H 410.802 -3.14853 -3.83642 0
M  V30 4319 H 406.058 -4.53734 -4.09799 0
M  V30 4320 H 410.232 -5.51189 -4.25633 0
M  V30 4321 H 407.859 -6.21102 -4.38333 0
M  V30 4322 N 409.434 1.37368 -0.772513 0
M  V30 4323 C 410.845 1.8231 -0.402493 0
M  V30 4324 C 411.196 1.6436 1.07146 0
M  V30 4325 O 410.321 1.15514 1.82991 0
M  V30 4326 C 410.916 3.30979 -0.723776 0
M  V30 4327 C 409.475 3.74195 -0.406802 0
M  V30 4328 C 408.622 2.59885 -0.967218 0
M  V30 4329 H 411.573 1.25829 -0.967099 0
M  V30 4330 H 411.594 3.80499 -0.00870832 0
M  V30 4331 H 411.106 3.44011 -1.7966 0
M  V30 4332 H 409.207 3.66732 0.658673 0
M  V30 4333 H 409.32 4.7027 -0.915588 0
M  V30 4334 H 407.684 2.51674 -0.391416 0
M  V30 4335 H 408.467 2.7571 -2.04546 0
M  V30 4336 N 410.912 0.523116 1.48665 0
M  V30 4337 C 411.875 -0.232592 2.28017 0
M  V30 4338 C 412.875 -0.874021 1.34972 0
M  V30 4339 O 414.065 -0.735132 1.57929 0
M  V30 4340 C 411.197 -1.33586 3.13636 0
M  V30 4341 H 412.39 0.464008 2.96289 0
M  V30 4342 H 409.943 0.278816 1.53793 0
M  V30 4343 H 410.678 -2.06593 2.4998 0
M  V30 4344 H 410.463 -0.881125 3.82071 0
M  V30 4345 H 411.953 -1.86759 3.73511 0
M  V30 4346 N 412.39 -1.55475 0.257931 0
M  V30 4347 C 413.338 -2.23244 -0.653076 0
M  V30 4348 C 414.332 -1.22366 -1.17144 0
M  V30 4349 O 415.538 -1.40347 -1.12706 0
M  V30 4350 H 411.913 -0.716247 -0.229117 0
M  V30 4351 H 413.884 -2.98343 -0.0584788 0
M  V30 4352 C 412.633 -2.95401 -1.83395 0
M  V30 4353 H 411.956 -3.72802 -1.44424 0
M  V30 4354 H 413.396 -3.46165 -2.44838 0
M  V30 4355 C 411.855 -1.99895 -2.71189 0
M  V30 4356 O 412.385 -1.53909 -3.71046 0
M  V30 4357 N 410.591 -1.6676 -2.3799 0
M  V30 4358 H 410.138 -2.04352 -1.56837 0
M  V30 4359 H 410.096 -1.03127 -2.97005 0
M  V30 4360 N 413.868 0.0150385 -1.57593 0
M  V30 4361 C 414.831 0.995996 -2.06428 0
M  V30 4362 C 415.831 1.2818 -0.970903 0
M  V30 4363 O 417.021 1.22949 -1.23406 0
M  V30 4364 C 414.153 2.32506 -2.49307 0
M  V30 4365 H 415.346 0.573873 -2.94358 0
M  V30 4366 H 412.899 0.262186 -1.54085 0
M  V30 4367 H 413.634 2.79438 -1.64575 0
M  V30 4368 H 413.419 2.13087 -3.29145 0
M  V30 4369 H 414.909 3.02906 -2.87468 0
M  V30 4370 N 415.346 1.54954 0.287554 0
M  V30 4371 C 416.309 1.86076 1.33823 0
M  V30 4372 C 417.309 0.734414 1.43049 0
M  V30 4373 O 418.499 1.00266 1.42452 0
M  V30 4374 C 415.631 2.05305 2.72144 0
M  V30 4375 H 416.824 2.79984 1.07465 0
M  V30 4376 H 414.377 1.47223 0.524902 0
M  V30 4377 H 415.112 1.1373 3.03704 0
M  V30 4378 H 414.897 2.873 2.66836 0
M  V30 4379 H 416.387 2.30706 3.48087 0
M  V30 4380 N 416.824 -0.551391 1.4764 0
M  V30 4381 C 418.064 -1.31901 1.56145 0
M  V30 4382 C 418.428 -1.90724 0.221013 0
M  V30 4383 O 419.629 -2.6819 0.180945 0
M  V30 4384 C 417.9 -2.39517 2.65267 0
M  V30 4385 S 419.459 -3.26289 2.93395 0
M  V30 4386 H 416.277 -0.448965 0.551318 0
M  V30 4387 H 418.879 -0.630599 1.85051 0
M  V30 4388 H 417.583 -1.94747 3.6125 0
M  V30 4389 H 417.114 -3.13092 2.38195 0
M  V30 4390 H 419.129 -4.39122 2.31055 0
M  V30 4391 N 418.302 -1.35869 -0.798587 0
M  V30 4392 C 419.549 -1.29588 -1.55606 0
M  V30 4393 C 419.877 0.127456 -1.94082 0
M  V30 4394 O 419.132 1.09461 -1.62225 0
M  V30 4395 C 419.431 -2.1556 -2.85077 0
M  V30 4396 C 419.097 -3.6424 -2.65781 0
M  V30 4397 C 417.759 -4.04766 -2.60227 0
M  V30 4398 C 420.111 -4.58547 -2.47758 0
M  V30 4399 C 417.439 -5.37753 -2.34603 0
M  V30 4400 C 419.791 -5.91742 -2.23662 0
M  V30 4401 C 418.455 -6.31402 -2.16534 0
M  V30 4402 H 417.725 -0.474197 -0.569402 0
M  V30 4403 H 420.372 -1.67839 -0.922086 0
M  V30 4404 H 418.677 -1.70216 -3.52893 0
M  V30 4405 H 420.374 -2.08031 -3.42818 0
M  V30 4406 H 416.964 -3.32086 -2.70956 0
M  V30 4407 H 421.148 -4.28117 -2.51056 0
M  V30 4408 H 416.404 -5.67474 -2.2756 0
M  V30 4409 H 420.578 -6.6439 -2.08708 0
M  V30 4410 H 418.205 -7.34381 -1.96441 0
M  V30 4411 N 419.78 1.02168 -1.19998 0
M  V30 4412 C 420.71 2.12488 -0.96804 0
M  V30 4413 C 421.691 1.69799 0.101185 0
M  V30 4414 O 422.876 1.94121 -0.0552993 0
M  V30 4415 C 420.006 3.43479 -0.513776 0
M  V30 4416 C 418.96 3.99884 -1.52566 0
M  V30 4417 C 418.286 5.26582 -0.928214 0
M  V30 4418 C 419.586 4.33861 -2.90795 0
M  V30 4419 H 421.28 2.32149 -1.89069 0
M  V30 4420 H 418.826 1.11564 -0.910468 0
M  V30 4421 H 420.779 4.20036 -0.338774 0
M  V30 4422 H 419.503 3.23561 0.444493 0
M  V30 4423 H 418.162 3.25429 -1.68794 0
M  V30 4424 H 417.81 5.02986 0.0378289 0
M  V30 4425 H 417.51 5.65284 -1.60397 0
M  V30 4426 H 419.034 6.05799 -0.764167 0
M  V30 4427 H 420.448 5.01327 -2.78109 0
M  V30 4428 H 418.845 4.83664 -3.55231 0
M  V30 4429 H 419.915 3.42848 -3.42904 0
M  V30 4430 N 421.258 1.00505 1.21394 0
M  V30 4431 C 422.506 0.686415 1.90086 0
M  V30 4432 C 422.827 -0.785264 1.7849 0
M  V30 4433 O 422.097 -1.56387 1.17983 0
M  V30 4434 H 420.677 0.2509 0.703604 0
M  V30 4435 H 423.339 1.27417 1.47482 0
M  V30 4436 H 422.435 0.959621 2.96981 0
M  V30 4437 N 422.737 -1.36956 0.779787 0
M  V30 4438 C 423.984 -1.99491 0.347766 0
M  V30 4439 C 424.312 -1.61898 -1.07793 0
M  V30 4440 O 423.567 -0.86071 -1.75756 0
M  V30 4441 C 423.866 -3.54585 0.447686 0
M  V30 4442 C 423.532 -4.1197 1.83279 0
M  V30 4443 C 422.194 -4.27356 2.2118 0
M  V30 4444 C 424.546 -4.43354 2.74019 0
M  V30 4445 C 421.874 -4.71432 3.4924 0
M  V30 4446 C 424.226 -4.88858 4.01497 0
M  V30 4447 C 422.89 -5.0245 4.39432 0
M  V30 4448 H 422.16 -0.729991 0.127257 0
M  V30 4449 H 424.807 -1.63599 0.995376 0
M  V30 4450 H 423.112 -3.90773 -0.283447 0
M  V30 4451 H 424.809 -4.00888 0.0945948 0
M  V30 4452 H 421.399 -4.00428 1.52825 0
M  V30 4453 H 425.583 -4.31045 2.45995 0
M  V30 4454 H 420.839 -4.80141 3.78516 0
M  V30 4455 H 425.013 -5.12108 4.71931 0
M  V30 4456 H 422.64 -5.36362 5.38721 0
M  V30 4457 N 424.215 -0.530993 -1.48385 0
M  V30 4458 C 425.125 0.23503 -2.3342 0
M  V30 4459 C 426.141 0.93801 -1.46552 0
M  V30 4460 O 427.317 0.912745 -1.7953 0
M  V30 4461 C 424.382 1.26778 -3.22689 0
M  V30 4462 C 423.443 0.575038 -4.25431 0
M  V30 4463 C 422.676 1.55858 -5.10435 0
M  V30 4464 O 422.899 2.79129 -4.97437 0
M  V30 4465 O 421.833 1.09742 -5.91811 0
M  V30 4466 H 425.659 -0.461794 -3.00169 0
M  V30 4467 H 423.244 -0.291903 -1.46521 0
M  V30 4468 H 425.126 1.86457 -3.77904 0
M  V30 4469 H 423.801 1.94699 -2.586 0
M  V30 4470 H 422.708 -0.0622782 -3.74048 0
M  V30 4471 H 424.041 -0.062253 -4.92161 0
M  V30 4472 N 425.693 1.55336 -0.266172 0
M  V30 4473 C 426.939 1.99692 0.353681 0
M  V30 4474 C 427.272 1.1543 1.56172 0
M  V30 4475 O 426.547 0.222218 1.93226 0
M  V30 4476 C 426.83 3.52316 0.74466 0
M  V30 4477 C 426.683 4.47337 -0.470101 0
M  V30 4478 C 428.002 4.10588 1.58447 0
M  V30 4479 H 425.121 0.725961 0.12708 0
M  V30 4480 H 427.763 1.86336 -0.371333 0
M  V30 4481 H 425.913 3.63829 1.36239 0
M  V30 4482 H 427.585 4.4778 -1.10864 0
M  V30 4483 H 425.828 4.19364 -1.10978 0
M  V30 4484 H 426.499 5.51788 -0.15291 0
M  V30 4485 H 428.975 4.02297 1.06286 0
M  V30 4486 H 427.851 5.17607 1.82686 0
M  V30 4487 H 428.112 3.60253 2.56262 0
M  V30 4488 N 427.171 -0.0066808 1.57599 0
M  V30 4489 C 428.134 -0.985035 2.06953 0
M  V30 4490 C 429.134 -1.27663 0.977687 0
M  V30 4491 O 430.324 -1.22293 1.24057 0
M  V30 4492 C 427.456 -2.3118 2.50536 0
M  V30 4493 H 428.649 -0.558255 2.94658 0
M  V30 4494 H 426.202 -0.254011 1.54222 0
M  V30 4495 H 426.937 -2.78561 1.66054 0
M  V30 4496 H 426.722 -2.11338 3.3027 0
M  V30 4497 H 428.212 -3.01377 2.8907 0
M  V30 4498 N 428.649 -1.55105 -0.279332 0
M  V30 4499 C 429.582 -1.82467 -1.37044 0
M  V30 4500 C 430.56 -0.677261 -1.47824 0
M  V30 4501 O 431.744 -0.919578 -1.64548 0
M  V30 4502 C 428.871 -1.98066 -2.7475 0
M  V30 4503 C 427.917 -3.20594 -2.81286 0
M  V30 4504 S 428.75 -4.78116 -2.41175 0
M  V30 4505 C 429.906 -4.9668 -3.80867 0
M  V30 4506 H 430.139 -2.74728 -1.1363 0
M  V30 4507 H 427.672 -1.46794 -0.478625 0
M  V30 4508 H 429.63 -2.07739 -3.54055 0
M  V30 4509 H 428.291 -1.06704 -2.9542 0
M  V30 4510 H 427.484 -3.28376 -3.82341 0
M  V30 4511 H 427.086 -3.09479 -2.09996 0
M  V30 4512 H 429.378 -4.82033 -4.76078 0
M  V30 4513 H 430.321 -5.98741 -3.78041 0
M  V30 4514 H 430.729 -4.24698 -3.71876 0
M  V30 4515 N 430.127 0.543554 -1.4793 0
M  V30 4516 C 431.074 1.64942 -1.6144 0
M  V30 4517 C 432.044 1.59692 -0.456903 0
M  V30 4518 O 433.229 1.78321 -0.678688 0
M  V30 4519 C 430.369 3.03238 -1.64744 0
M  V30 4520 C 429.482 3.18823 -2.91506 0
M  V30 4521 C 428.617 4.47599 -2.86057 0
M  V30 4522 C 427.656 4.56664 -4.07584 0
M  V30 4523 N 426.793 5.76811 -4.00292 0
M  V30 4524 H 431.633 1.52733 -2.55884 0
M  V30 4525 H 429.17 0.7438 -1.2691 0
M  V30 4526 H 431.128 3.83339 -1.64641 0
M  V30 4527 H 429.758 3.1425 -0.738017 0
M  V30 4528 H 428.81 2.32064 -3.01414 0
M  V30 4529 H 430.122 3.21384 -3.81463 0
M  V30 4530 H 429.276 5.35975 -2.84281 0
M  V30 4531 H 428.015 4.47538 -1.93807 0
M  V30 4532 H 427.02 3.66697 -4.09651 0
M  V30 4533 H 428.245 4.58474 -5.00978 0
M  V30 4534 H 426.191 5.77673 -3.10853 0
M  V30 4535 H 426.108 5.80808 -4.8394 0
M  V30 4536 H 427.376 6.67512 -4.02553 0
M  V30 4537 N 431.605 1.3629 0.791371 0
M  V30 4538 C 432.852 1.30412 1.54916 0
M  V30 4539 C 433.18 -0.117162 1.94147 0
M  V30 4540 O 432.435 -1.08599 1.62803 0
M  V30 4541 C 432.734 2.17068 2.8393 0
M  V30 4542 C 432.4 3.65645 2.63846 0
M  V30 4543 C 431.062 4.0614 2.58077 0
M  V30 4544 C 433.414 4.59855 2.45322 0
M  V30 4545 C 430.742 5.3899 2.31748 0
M  V30 4546 C 433.094 5.9292 2.2052 0
M  V30 4547 C 431.758 6.32542 2.13183 0
M  V30 4548 H 431.028 0.47721 0.566879 0
M  V30 4549 H 433.675 1.68325 0.913172 0
M  V30 4550 H 431.98 1.72085 3.51986 0
M  V30 4551 H 433.677 2.09846 3.4171 0
M  V30 4552 H 430.267 3.33518 2.69191 0
M  V30 4553 H 434.451 4.29443 2.48782 0
M  V30 4554 H 429.707 5.68672 2.24548 0
M  V30 4555 H 433.881 6.65487 2.05182 0
M  V30 4556 H 431.508 7.35412 1.92544 0
M  V30 4557 N 433.083 -1.0153 1.20538 0
M  V30 4558 C 434.013 -2.11972 0.979295 0
M  V30 4559 C 434.994 -1.6985 -0.0921787 0
M  V30 4560 O 436.179 -1.94089 0.0655932 0
M  V30 4561 C 433.309 -3.43201 0.531984 0
M  V30 4562 C 432.263 -3.9907 1.54685 0
M  V30 4563 C 431.589 -5.26082 0.956127 0
M  V30 4564 C 432.889 -4.32313 2.93092 0
M  V30 4565 H 434.583 -2.31143 1.90298 0
M  V30 4566 H 432.129 -1.11079 0.916372 0
M  V30 4567 H 434.082 -4.1985 0.361044 0
M  V30 4568 H 432.806 -3.23792 -0.427327 0
M  V30 4569 H 431.465 -3.2453 1.70517 0
M  V30 4570 H 431.113 -5.02999 -0.0111538 0
M  V30 4571 H 430.813 -5.64426 1.63393 0
M  V30 4572 H 432.337 -6.05386 0.796284 0
M  V30 4573 H 433.751 -4.99845 2.80763 0
M  V30 4574 H 432.148 -4.81774 3.57791 0
M  V30 4575 H 433.218 -3.41025 3.44717 0
M  V30 4576 N 434.561 -1.01147 -1.20859 0
M  V30 4577 C 435.509 -0.57059 -2.25493 0
M  V30 4578 C 436.503 0.388109 -1.64894 0
M  V30 4579 O 437.709 0.258592 -1.78133 0
M  V30 4580 H 434.084 -0.166191 -0.733406 0
M  V30 4581 H 436.055 -1.46411 -2.60012 0
M  V30 4582 C 434.804 0.0805241 -3.47607 0
M  V30 4583 H 434.127 -0.648156 -3.94511 0
M  V30 4584 H 435.567 0.352197 -4.22535 0
M  V30 4585 C 434.026 1.32175 -3.09889 0
M  V30 4586 O 434.556 2.41553 -3.20959 0
M  V30 4587 N 432.762 1.20392 -2.64488 0
M  V30 4588 H 432.309 0.313905 -2.5568 0
M  V30 4589 H 432.267 2.03541 -2.39621 0
M  V30 4590 N 436.039 1.36541 -0.78704 0
M  V30 4591 C 437.285 2.00044 -0.367938 0
M  V30 4592 C 437.64 1.61345 1.04812 0
M  V30 4593 O 436.933 0.856936 1.71368 0
M  V30 4594 C 437.127 3.54343 -0.466485 0
M  V30 4595 C 436.956 4.08029 -1.89058 0
M  V30 4596 C 435.726 4.38284 -2.51466 0
M  V30 4597 C 437.924 4.27954 -2.85236 0
M  V30 4598 N 435.906 4.77778 -3.85488 0
M  V30 4599 C 437.277 4.70227 -4.04088 0
M  V30 4600 C 439.332 4.10119 -2.82324 0
M  V30 4601 C 438.035 4.96532 -5.20432 0
M  V30 4602 C 440.061 4.37569 -3.97854 0
M  V30 4603 C 439.423 4.80095 -5.15449 0
M  V30 4604 H 435.522 0.760525 -0.182004 0
M  V30 4605 H 438.106 1.65589 -1.02413 0
M  V30 4606 H 436.277 3.88072 0.159606 0
M  V30 4607 H 438.009 4.04693 -0.0238577 0
M  V30 4608 H 434.764 4.27905 -2.02965 0
M  V30 4609 H 435.188 5.01813 -4.54437 0
M  V30 4610 H 439.83 3.76399 -1.92571 0
M  V30 4611 H 437.548 5.29134 -6.10773 0
M  V30 4612 H 441.134 4.25341 -3.96958 0
M  V30 4613 H 440.014 5.00925 -6.0336 0
M  V30 4614 N 437.518 0.538854 1.48102 0
M  V30 4615 C 438.481 -0.208395 2.28251 0
M  V30 4616 C 439.481 -0.859656 1.35892 0
M  V30 4617 O 440.671 -0.71834 1.58699 0
M  V30 4618 C 437.803 -1.30252 3.15035 0
M  V30 4619 H 438.996 0.495407 2.9578 0
M  V30 4620 H 436.549 0.295112 1.53489 0
M  V30 4621 H 437.284 -2.0393 2.52157 0
M  V30 4622 H 437.069 -0.840551 3.82985 0
M  V30 4623 H 438.559 -1.82787 3.75471 0
M  V30 4624 N 438.996 -1.55193 0.274407 0
M  V30 4625 C 440.224 -2.03987 -0.345943 0
M  V30 4626 C 440.639 -1.15279 -1.4952 0
M  V30 4627 O 439.996 -0.172759 -1.8168 0
M  V30 4628 C 440.047 -3.51898 -0.827631 0
M  V30 4629 O 439.768 -4.37231 0.275855 0
M  V30 4630 C 441.269 -4.16577 -1.51587 0
M  V30 4631 H 438.489 -0.666335 -0.0789892 0
M  V30 4632 H 441.033 -2.00423 0.406294 0
M  V30 4633 H 439.188 -3.55909 -1.52996 0
M  V30 4634 H 439.602 -5.24415 -0.0943638 0
M  V30 4635 H 441.076 -5.21678 -1.80433 0
M  V30 4636 H 441.553 -3.64707 -2.44716 0
M  V30 4637 H 442.159 -4.16568 -0.857409 0
M  V30 4638 N 440.474 -0.00167713 -1.576 0
M  V30 4639 C 441.885 0.54091 -1.78693 0
M  V30 4640 C 442.236 1.7386 -0.909247 0
M  V30 4641 O 441.361 2.16109 -0.112176 0
M  V30 4642 C 441.956 0.98806 -3.24072 0
M  V30 4643 C 440.515 1.47594 -3.46256 0
M  V30 4644 C 439.662 0.42792 -2.73978 0
M  V30 4645 H 442.613 -0.22784 -1.57056 0
M  V30 4646 H 442.634 1.85398 -3.32277 0
M  V30 4647 H 442.146 0.116164 -3.87926 0
M  V30 4648 H 440.247 2.36868 -2.87618 0
M  V30 4649 H 440.36 1.50225 -4.54939 0
M  V30 4650 H 438.724 0.889934 -2.38647 0
M  V30 4651 H 439.507 -0.435038 -3.40532 0
M  V30 4652 N 441.952 1.55251 0.271103 0
M  V30 4653 C 442.9 1.89054 1.35504 0
M  V30 4654 C 443.894 0.767064 1.51038 0
M  V30 4655 O 445.1 0.951429 1.528 0
M  V30 4656 H 441.475 0.600072 0.45323 0
M  V30 4657 H 443.446 2.79598 1.04247 0
M  V30 4658 C 442.195 2.18068 2.70817 0
M  V30 4659 H 441.518 3.04005 2.59656 0
M  V30 4660 H 442.958 2.4564 3.45597 0
M  V30 4661 C 441.417 0.988901 3.2206 0
M  V30 4662 O 441.947 0.224501 4.01072 0
M  V30 4663 N 440.153 0.786085 2.79766 0
M  V30 4664 H 439.7 1.40937 2.15626 0
M  V30 4665 H 439.658 -0.00969349 3.14399 0
M  V30 4666 N 443.43 -0.535701 1.48216 0
M  V30 4667 C 444.36 -1.65014 1.65204 0
M  V30 4668 C 445.341 -1.62554 0.501011 0
M  V30 4669 O 446.526 -1.7984 0.732886 0
M  V30 4670 C 443.656 -3.03616 1.68626 0
M  V30 4671 C 442.61 -3.20932 2.83172 0
M  V30 4672 C 441.936 -4.60537 2.71679 0
M  V30 4673 C 443.236 -3.04249 4.24535 0
M  V30 4674 H 444.93 -1.51053 2.58502 0
M  V30 4675 H 442.476 -0.725262 1.24402 0
M  V30 4676 H 444.429 -3.81446 1.79099 0
M  V30 4677 H 443.153 -3.18587 0.719026 0
M  V30 4678 H 441.812 -2.45517 2.72244 0
M  V30 4679 H 441.46 -4.72336 1.72937 0
M  V30 4680 H 441.16 -4.73069 3.48538 0
M  V30 4681 H 442.684 -5.40475 2.84112 0
M  V30 4682 H 444.098 -3.71877 4.36326 0
M  V30 4683 H 442.495 -3.28278 5.02348 0
M  V30 4684 H 443.565 -2.00739 4.41397 0
M  V30 4685 O 444.947 -1.46458 -0.680617 0
M  V30 4686 H 445.638 -1.40531 -1.33307 0
M  V30 END ATOM
M  V30 BEGIN BOND
M  V30 END BOND
M  V30 END CTAB
M  END
$$$$
