drugbank_target|O43739 Cytohesin-3 (DB01863; DB03344)
 OpenBabel12092120533D

  0  0  0     0  0            999 V3000
M  V30 BEGIN CTAB
M  V30 COUNTS 6481 6545 0 0 0
M  V30 BEGIN ATOM
M  V30 1 H -0.908 1.98254 -0.117106 0
M  V30 2 N 0 1.576 0 0
M  V30 3 C 0.933 2.03868 1.02534 0
M  V30 4 C 1.911 0.928543 1.3348 0
M  V30 5 O 3.095 1.19667 1.45644 0
M  V30 6 C 0.222 2.43627 2.35294 0
M  V30 7 C -0.732 3.65373 2.2001 0
M  V30 8 S 0.101 5.13292 1.52614 0
M  V30 9 C 1.257 5.56322 2.86805 0
M  V30 10 H 1.49 2.90518 0.631377 0
M  V30 11 H -0.977 1.52953 0.210867 0
M  V30 12 H 0.981 2.67203 3.11629 0
M  V30 13 H -0.358 1.57376 2.7183 0
M  V30 14 H -1.165 3.90944 3.18086 0
M  V30 15 H -1.563 3.418 1.51819 0
M  V30 16 H 0.729 5.58782 3.83104 0
M  V30 17 H 1.672 6.56266 2.65933 0
M  V30 18 H 2.08 4.83886 2.90714 0
M  V30 19 N 1.4781 -0.272755 1.55222 0
M  V30 20 C 2.7551 -1.02562 1.66555 0
M  V30 21 C 3.1351 -2.04282 0.532189 0
M  V30 22 O 2.4831 -2.23662 -0.467717 0
M  V30 23 C 2.6931 -1.6822 3.05782 0
M  V30 24 C 4.0411 -2.19373 3.63539 0
M  V30 25 O 5.0651 -1.78206 3.08417 0
M  V30 26 O 3.9241 -2.94883 4.60115 0
M  V30 27 H 1.0181 -0.475755 0.676451 0
M  V30 28 H 3.5641 -0.268593 1.67561 0
M  V30 29 H 2.3361 -0.945112 3.79715 0
M  V30 30 H 1.9591 -2.50609 3.08676 0
M  V30 31 N 2.9562 -1.48159 -0.537278 0
M  V30 32 C 3.8662 -1.64807 -1.6696 0
M  V30 33 C 4.8822 -0.530651 -1.65711 0
M  V30 34 O 6.0582 -0.800784 -1.84796 0
M  V30 35 C 3.1232 -1.67708 -3.03438 0
M  V30 36 C 2.1842 -2.91025 -3.156 0
M  V30 37 C 1.4172 -2.93778 -4.45567 0
M  V30 38 O 1.6402 -2.05153 -5.3223 0
M  V30 39 O 0.5742 -3.85868 -4.61941 0
M  V30 40 H 4.4002 -2.6066 -1.55853 0
M  V30 41 H 1.9852 -1.31475 -0.709549 0
M  V30 42 H 3.8672 -1.7218 -3.84619 0
M  V30 43 H 2.5422 -0.750278 -3.14885 0
M  V30 44 H 1.4492 -2.92089 -2.33741 0
M  V30 45 H 2.7822 -3.83065 -3.09066 0
M  V30 46 N 4.4343 0.785586 -1.36625 0
M  V30 47 C 5.7113 1.53198 -1.21613 0
M  V30 48 C 6.0913 2.10187 0.196113 0
M  V30 49 O 5.4393 1.94318 1.20219 0
M  V30 50 C 5.6493 2.62388 -2.30116 0
M  V30 51 C 6.9973 3.30167 -2.66974 0
M  V30 52 O 8.0213 2.72674 -2.29188 0
M  V30 53 O 6.8803 4.34077 -3.32023 0
M  V30 54 H 3.9743 0.677865 -0.473738 0
M  V30 55 H 6.5203 0.823739 -1.48367 0
M  V30 56 H 5.2923 2.18299 -3.24748 0
M  V30 57 H 4.9153 3.40827 -2.0475 0
M  V30 58 N 5.9124 1.20967 1.01018 0
M  V30 59 C 7.1604 1.02172 1.74371 0
M  V30 60 C 7.4814 -0.446414 1.89821 0
M  V30 61 O 6.7514 -1.32234 1.44537 0
M  V30 62 H 5.3314 0.375066 0.646014 0
M  V30 63 H 7.9934 1.52187 1.21758 0
M  V30 64 H 7.0894 1.48538 2.74487 0
M  V30 65 N 7.3905 -1.2043 1.01659 0
M  V30 66 C 8.6385 -1.89423 0.704522 0
M  V30 67 C 8.9595 -1.79231 -0.768197 0
M  V30 68 O 8.2295 -1.1947 -1.55254 0
M  V30 69 H 6.8095 -0.701178 0.257602 0
M  V30 70 H 9.4715 -1.4626 1.28818 0
M  V30 71 H 8.5675 -2.96052 0.987916 0
M  V30 72 N 8.8686 -0.792821 -1.36206 0
M  V30 73 C 10.1166 -0.366062 -1.98757 0
M  V30 74 C 10.4376 1.0668 -1.63231 0
M  V30 75 O 9.7076 1.73587 -0.907978 0
M  V30 76 H 8.2876 -0.132364 -0.735179 0
M  V30 77 H 10.9496 -1.01562 -1.66347 0
M  V30 78 H 10.0456 -0.460638 -3.08682 0
M  V30 79 N 10.3467 1.47872 -0.545128 0
M  V30 80 C 11.2567 2.33633 0.212746 0
M  V30 81 C 12.2727 1.4744 0.923983 0
M  V30 82 O 13.4487 1.80393 0.895572 0
M  V30 83 C 10.5137 3.23884 1.23693 0
M  V30 84 C 9.5747 4.25961 0.534417 0
M  V30 85 C 8.8077 5.11899 1.5098 0
M  V30 86 O 9.0307 5.00077 2.7437 0
M  V30 87 O 7.9647 5.92831 1.0409 0
M  V30 88 H 11.7907 2.99714 -0.490416 0
M  V30 89 H 9.3757 1.46235 -0.305871 0
M  V30 90 H 11.2577 3.79666 1.82843 0
M  V30 91 H 9.9327 2.60446 1.92222 0
M  V30 92 H 8.8397 3.73972 -0.0979679 0
M  V30 93 H 10.1727 4.92079 -0.109213 0
M  V30 94 N 11.8248 0.280983 1.55075 0
M  V30 95 C 13.0728 -0.333455 1.9933 0
M  V30 96 C 13.3938 -1.55937 1.17085 0
M  V30 97 O 12.6638 -1.94143 0.261805 0
M  V30 98 H 11.2438 -0.126197 0.736263 0
M  V30 99 H 13.9058 0.387678 1.91005 0
M  V30 100 H 13.0018 -0.619292 3.05894 0
M  V30 101 N 13.3029 -1.57598 0.00835791 0
M  V30 102 C 14.5509 -1.90551 -0.6734 0
M  V30 103 C 14.8719 -0.883301 -1.73847 0
M  V30 104 O 14.1419 0.0781442 -1.95744 0
M  V30 105 H 12.7219 -0.703312 -0.251717 0
M  V30 106 H 15.3839 -1.94833 0.0512592 0
M  V30 107 H 14.4799 -2.9056 -1.13935 0
M  V30 108 N 14.781 0.264519 -1.55364 0
M  V30 109 C 16.029 0.993021 -1.76021 0
M  V30 110 C 16.35 1.86511 -0.569099 0
M  V30 111 O 15.62 1.91438 0.415735 0
M  V30 112 H 14.2 0.369639 -0.649135 0
M  V30 113 H 16.862 0.286707 -1.9278 0
M  V30 114 H 15.958 1.62502 -2.66457 0
M  V30 115 N 16.2591 1.48442 0.529413 0
M  V30 116 C 17.5051 1.5672 1.28711 0
M  V30 117 C 17.8381 0.2406 1.92704 0
M  V30 118 O 17.1131 -0.753454 1.79313 0
M  V30 119 C 17.3961 2.70587 2.37603 0
M  V30 120 C 17.2491 4.12953 1.78297 0
M  V30 121 C 18.5681 2.80212 3.39366 0
M  V30 122 H 15.6871 0.570474 0.466613 0
M  V30 123 H 18.3291 1.80617 0.589706 0
M  V30 124 H 16.4791 2.50342 2.97088 0
M  V30 125 H 18.1511 4.44639 1.22858 0
M  V30 126 H 16.3941 4.19927 1.0883 0
M  V30 127 H 17.0651 4.88448 2.57144 0
M  V30 128 H 19.5411 2.98553 2.89836 0
M  V30 129 H 18.4171 3.61611 4.12951 0
M  V30 130 H 18.6781 1.88393 3.99951 0
M  V30 131 N 17.7372 -0.778329 1.37039 0
M  V30 132 C 19.1482 -1.35421 1.28523 0
M  V30 133 C 19.4992 -1.96075 -0.0700901 0
M  V30 134 O 18.6242 -1.93352 -0.971801 0
M  V30 135 C 19.2192 -2.46211 2.32735 0
M  V30 136 C 17.7782 -2.99585 2.27873 0
M  V30 137 C 16.9252 -1.72748 2.16918 0
M  V30 138 H 19.8762 -0.5791 1.47757 0
M  V30 139 H 19.8972 -3.2552 1.9702 0
M  V30 140 H 19.4092 -2.02036 3.31365 0
M  V30 141 H 17.5102 -3.48152 1.32745 0
M  V30 142 H 17.6232 -3.55646 3.21018 0
M  V30 143 H 15.9872 -1.95416 1.63354 0
M  V30 144 H 16.7702 -1.30686 3.17452 0
M  V30 145 N 19.2153 -1.21501 -1.00376 0
M  V30 146 C 20.1253 -0.991447 -2.12621 0
M  V30 147 C 21.1413 0.0568446 -1.73907 0
M  V30 148 O 22.3173 -0.13348 -2.00957 0
M  V30 149 C 19.3823 -0.560312 -3.42142 0
M  V30 150 C 18.4433 -1.68096 -3.95022 0
M  V30 151 C 17.6763 -1.2703 -5.18362 0
M  V30 152 O 17.8993 -0.144438 -5.70217 0
M  V30 153 O 16.8333 -2.08269 -5.64719 0
M  V30 154 H 20.6593 -1.93158 -2.34358 0
M  V30 155 H 18.2443 -0.999999 -1.10997 0
M  V30 156 H 20.1263 -0.329724 -4.20108 0
M  V30 157 H 18.8013 0.351089 -3.2179 0
M  V30 158 H 17.7083 -1.96597 -3.18278 0
M  V30 159 H 19.0413 -2.56983 -4.19786 0
M  V30 160 N 20.6934 1.19889 -1.02296 0
M  V30 161 C 21.9704 1.85148 -0.630832 0
M  V30 162 C 22.3504 1.91385 0.890782 0
M  V30 163 O 21.6984 1.42642 1.78509 0
M  V30 164 C 21.9084 3.24442 -1.28602 0
M  V30 165 C 23.2564 4.00663 -1.4055 0
M  V30 166 O 24.2804 3.33818 -1.24273 0
M  V30 167 O 23.1394 5.20387 -1.66913 0
M  V30 168 H 20.2334 0.797613 -0.218499 0
M  V30 169 H 22.7794 1.27427 -1.12074 0
M  V30 170 H 21.5514 3.14704 -2.32545 0
M  V30 171 H 21.1744 3.89802 -0.7836 0
M  V30 172 N 22.1715 0.800033 1.35784 0
M  V30 173 C 23.1015 0.220184 2.3246 0
M  V30 174 C 24.0825 -0.65073 1.57161 0
M  V30 175 O 25.2675 -0.582359 1.85263 0
M  V30 176 C 22.3975 -0.637353 3.41402 0
M  V30 177 C 21.3515 0.134531 4.27789 0
M  V30 178 C 20.6775 -0.844285 5.27992 0
M  V30 179 C 21.9775 1.32979 5.05088 0
M  V30 180 H 23.6715 1.02787 2.81203 0
M  V30 181 H 21.2175 0.495717 1.35199 0
M  V30 182 H 23.1705 -1.05302 4.08031 0
M  V30 183 H 21.8945 -1.47785 2.91251 0
M  V30 184 H 20.5535 0.531296 3.6273 0
M  V30 185 H 20.2015 -1.68011 4.74111 0
M  V30 186 H 19.9015 -0.332184 5.8666 0
M  V30 187 H 21.4255 -1.2583 5.97494 0
M  V30 188 H 22.8395 0.98934 5.64699 0
M  V30 189 H 21.2365 1.77593 5.7322 0
M  V30 190 H 22.3065 2.11978 4.36111 0
M  V30 191 N 23.6496 -1.47581 0.552962 0
M  V30 192 C 24.8746 -2.07378 0.0300593 0
M  V30 193 C 25.2996 -1.40355 -1.25229 0
M  V30 194 O 24.6576 -0.477099 -1.7491 0
M  V30 195 C 24.7056 -3.60274 -0.153231 0
M  V30 196 O 23.8096 -3.94041 -1.21678 0
M  V30 197 H 23.1506 -0.662158 0.0494182 0
M  V30 198 H 25.6806 -1.89662 0.767434 0
M  V30 199 H 25.6906 -4.0633 -0.368761 0
M  V30 200 H 24.3656 -4.08455 0.783397 0
M  V30 201 H 22.9426 -3.59735 -0.982079 0
M  V30 202 N 25.1277 -0.289203 -1.54924 0
M  V30 203 C 26.0577 0.58549 -2.2604 0
M  V30 204 C 27.0387 1.14753 -1.25562 0
M  V30 205 O 28.2237 1.17906 -1.54311 0
M  V30 206 C 25.3537 1.76305 -2.99222 0
M  V30 207 C 24.3077 1.33191 -4.06748 0
M  V30 208 C 23.6337 2.5937 -4.6758 0
M  V30 209 C 24.9337 0.471775 -5.20165 0
M  V30 210 H 26.6277 -0.00763532 -2.99399 0
M  V30 211 H 24.1737 -0.00511229 -1.43999 0
M  V30 212 H 26.1267 2.38097 -3.47689 0
M  V30 213 H 24.8507 2.38223 -2.23422 0
M  V30 214 H 23.5097 0.737121 -3.59113 0
M  V30 215 H 23.1577 3.19576 -3.88433 0
M  V30 216 H 22.8577 2.31228 -5.40192 0
M  V30 217 H 24.3817 3.21985 -5.18804 0
M  V30 218 H 25.7957 0.995056 -5.64599 0
M  V30 219 H 24.1927 0.284639 -5.99425 0
M  V30 220 H 25.2627 -0.506041 -4.82252 0
M  V30 221 N 26.6058 1.57591 -0.0167156 0
M  V30 222 C 27.5158 2.1291 0.98521 0
M  V30 223 C 28.5318 1.07834 1.36557 0
M  V30 224 O 29.7078 1.39826 1.44951 0
M  V30 225 C 26.7728 2.63512 2.25305 0
M  V30 226 C 25.8338 3.83256 1.93426 0
M  V30 227 C 25.0668 4.31435 3.14165 0
M  V30 228 O 25.2898 3.78851 4.26413 0
M  V30 229 O 24.2238 5.23416 2.97186 0
M  V30 230 H 28.0498 2.98772 0.544888 0
M  V30 231 H 25.6348 1.48012 0.203141 0
M  V30 232 H 27.5168 2.96183 2.99756 0
M  V30 233 H 26.1918 1.8074 2.68542 0
M  V30 234 H 25.0988 3.55531 1.16398 0
M  V30 235 H 26.4318 4.67153 1.55013 0
M  V30 236 N 28.0839 -0.256276 1.55502 0
M  V30 237 C 28.9939 -1.33882 1.92647 0
M  V30 238 C 30.0099 -1.53159 0.825727 0
M  V30 239 O 31.1859 -1.66963 1.12629 0
M  V30 240 C 28.2509 -2.6751 2.20543 0
M  V30 241 C 27.3119 -2.56836 3.43997 0
M  V30 242 C 26.5449 -3.84092 3.70553 0
M  V30 243 O 26.7679 -4.85545 2.99336 0
M  V30 244 O 25.7019 -3.83288 4.64084 0
M  V30 245 H 29.5279 -1.05374 2.84833 0
M  V30 246 H 27.1129 -0.456237 1.42263 0
M  V30 247 H 28.9949 -3.46492 2.39835 0
M  V30 248 H 27.6699 -2.9577 1.31536 0
M  V30 249 H 26.5769 -1.76172 3.30021 0
M  V30 250 H 27.9099 -2.33523 4.33275 0
M  V30 251 N 29.562 -1.4872 -0.521534 0
M  V30 252 C 30.978 -1.35028 -0.850855 0
M  V30 253 C 31.178 -0.367712 -1.98116 0
M  V30 254 O 30.234 0.208037 -2.51642 0
M  V30 255 C 31.547 -2.75263 -1.21041 0
M  V30 256 C 33.095 -2.83813 -1.31981 0
M  V30 257 C 33.57 -4.24769 -1.71276 0
M  V30 258 N 35.061 -4.27482 -1.78363 0
M  V30 259 C 35.796 -5.33494 -2.1017 0
M  V30 260 N 35.292 -6.49775 -2.40343 0
M  V30 261 N 37.085 -5.20894 -2.11248 0
M  V30 262 H 29.236 -2.11214 0.22413 0
M  V30 263 H 31.499 -0.947252 0.0376439 0
M  V30 264 H 31.205 -3.48765 -0.453415 0
M  V30 265 H 31.079 -3.09327 -2.15863 0
M  V30 266 H 33.466 -2.10561 -2.06756 0
M  V30 267 H 33.547 -2.53358 -0.352596 0
M  V30 268 H 33.191 -4.9854 -0.970588 0
M  V30 269 H 33.121 -4.52673 -2.69062 0
M  V30 270 H 35.612 -3.43611 -1.57288 0
M  V30 271 H 35.925 -7.26402 -2.63743 0
M  V30 272 H 34.27 -6.53035 -2.37844 0
M  V30 273 H 37.461 -4.29065 -1.87139 0
M  V30 274 H 37.634 -6.03612 -2.35704 0
M  V30 275 N 31.0401 0.771051 -1.3745 0
M  V30 276 C 31.9501 1.91538 -1.35464 0
M  V30 277 C 32.9661 1.72134 -0.254123 0
M  V30 278 O 34.1421 1.95358 -0.489626 0
M  V30 279 C 31.2071 3.26671 -1.16134 0
M  V30 280 C 30.2681 3.58723 -2.35831 0
M  V30 281 C 29.5011 4.87409 -2.17413 0
M  V30 282 O 29.7241 5.58506 -1.15876 0
M  V30 283 O 28.6581 5.18539 -3.05615 0
M  V30 284 H 32.4841 1.96165 -2.31847 0
M  V30 285 H 30.0691 0.9139 -1.18187 0
M  V30 286 H 31.9511 4.07499 -1.07345 0
M  V30 287 H 30.6261 3.22894 -0.228251 0
M  V30 288 H 29.5331 2.78127 -2.50192 0
M  V30 289 H 30.8661 3.67243 -3.27709 0
M  V30 290 N 32.5182 1.22032 0.997298 0
M  V30 291 C 33.4282 1.00271 2.12092 0
M  V30 292 C 34.4442 -0.047621 1.73935 0
M  V30 293 O 35.6202 0.144136 2.00884 0
M  V30 294 C 32.6852 0.578449 3.4184 0
M  V30 295 C 31.7462 1.70189 3.94125 0
M  V30 296 C 30.9792 1.29778 5.17681 0
M  V30 297 O 31.2022 0.174676 5.70132 0
M  V30 298 O 30.1362 2.11261 5.63607 0
M  V30 299 H 33.9622 1.94398 2.3333 0
M  V30 300 H 31.5472 1.00587 1.10465 0
M  V30 301 H 33.4292 0.351998 4.19927 0
M  V30 302 H 32.1042 -0.334019 3.21972 0
M  V30 303 H 31.0112 1.98282 3.1723 0
M  V30 304 H 32.3442 2.59206 4.18417 0
M  V30 305 N 33.9963 -1.19345 1.0293 0
M  V30 306 C 34.9263 -2.2481 0.631105 0
M  V30 307 C 35.9073 -1.66245 -0.360104 0
M  V30 308 O 37.0923 -1.92677 -0.242726 0
M  V30 309 C 34.2223 -3.47295 -0.0184607 0
M  V30 310 C 33.1763 -4.18536 0.895073 0
M  V30 311 C 32.5023 -5.34586 0.110592 0
M  V30 312 C 33.8023 -4.73287 2.209 0
M  V30 313 H 35.4963 -2.58372 1.51275 0
M  V30 314 H 33.0423 -1.24194 0.728818 0
M  V30 315 H 34.9953 -4.20268 -0.308675 0
M  V30 316 H 33.7193 -3.12933 -0.934907 0
M  V30 317 H 32.3783 -3.47446 1.16949 0
M  V30 318 H 32.0263 -4.96469 -0.807902 0
M  V30 319 H 31.7263 -5.83183 0.719087 0
M  V30 320 H 33.2503 -6.10355 -0.172871 0
M  V30 321 H 34.6643 -5.38013 1.98028 0
M  V30 322 H 33.0613 -5.32373 2.76946 0
M  V30 323 H 34.1313 -3.91331 2.86336 0
M  V30 324 N 35.4744 -0.807222 -1.35358 0
M  V30 325 C 36.4044 -0.232509 -2.3234 0
M  V30 326 C 37.3854 0.642386 -1.57504 0
M  V30 327 O 38.5704 0.572526 -1.85569 0
M  V30 328 C 35.7004 0.619238 -3.41735 0
M  V30 329 C 34.6544 -0.157215 -4.27711 0
M  V30 330 C 33.9804 0.816273 -5.28433 0
M  V30 331 C 35.2804 -1.35656 -5.04376 0
M  V30 332 H 36.9744 -1.04276 -2.80654 0
M  V30 333 H 34.5204 -0.50288 -1.34934 0
M  V30 334 H 36.4734 1.03137 -4.08584 0
M  V30 335 H 35.1974 1.46239 -2.92031 0
M  V30 336 H 33.8564 -0.550525 -3.62443 0
M  V30 337 H 33.5044 1.65494 -4.74996 0
M  V30 338 H 33.2044 0.301067 -5.86828 0
M  V30 339 H 34.7284 1.22659 -5.98153 0
M  V30 340 H 36.1424 -1.01927 -5.64166 0
M  V30 341 H 34.5394 -1.8063 -5.7227 0
M  V30 342 H 35.6094 -2.14288 -4.34981 0
M  V30 343 N 36.9525 1.47285 -0.560781 0
M  V30 344 C 38.2295 1.9558 0.0277798 0
M  V30 345 C 38.6095 1.5034 1.48192 0
M  V30 346 O 37.9575 0.743882 2.16052 0
M  V30 347 C 38.1675 3.48789 -0.121418 0
M  V30 348 C 39.5155 4.24594 0.0220912 0
M  V30 349 O 40.5395 3.56166 -0.0491439 0
M  V30 350 O 39.3985 5.46217 0.175958 0
M  V30 351 H 36.4925 0.824663 0.0621342 0
M  V30 352 H 39.0385 1.5767 -0.627556 0
M  V30 353 H 37.8105 3.74533 -1.13316 0
M  V30 354 H 37.4335 3.93473 0.571366 0
M  V30 355 N 38.4306 0.297415 1.54768 0
M  V30 356 C 39.6796 -0.313669 1.99246 0
M  V30 357 C 39.9926 -1.55281 1.18942 0
M  V30 358 O 41.1986 -2.23825 1.5367 0
M  V30 359 C 39.6546 -0.609407 3.54703 0
M  V30 360 C 39.2626 0.611192 4.43811 0
M  V30 361 C 41.0066 -1.18188 4.07715 0
M  V30 362 C 38.9136 0.288805 5.90694 0
M  V30 363 H 37.8436 -0.120979 0.744231 0
M  V30 364 H 40.4946 0.40556 1.78962 0
M  V30 365 H 38.8766 -1.38813 3.70873 0
M  V30 366 H 40.0506 1.3875 4.39414 0
M  V30 367 H 38.3656 1.10205 4.01552 0
M  V30 368 H 40.9626 -1.43727 5.15021 0
M  V30 369 H 41.3056 -2.12299 3.58099 0
M  V30 370 H 41.8386 -0.464944 3.95074 0
M  V30 371 H 38.5776 1.19838 6.44453 0
M  V30 372 H 38.0976 -0.450305 5.98107 0
M  V30 373 H 39.7766 -0.110933 6.46905 0
M  V30 374 N 39.9087 -1.5758 0.0250728 0
M  V30 375 C 41.3247 -1.56124 -0.331282 0
M  V30 376 C 41.5247 -1.03029 -1.73169 0
M  V30 377 O 40.5807 -0.675215 -2.43305 0
M  V30 378 C 41.8937 -3.00139 -0.183584 0
M  V30 379 C 43.4417 -3.11946 -0.256654 0
M  V30 380 C 43.9167 -4.57793 -0.137792 0
M  V30 381 N 45.4077 -4.6279 -0.194904 0
M  V30 382 C 46.1427 -5.7326 -0.126655 0
M  V30 383 N 45.6387 -6.928 -0.00755288 0
M  V30 384 N 47.4317 -5.61811 -0.180348 0
M  V30 385 H 39.5827 -1.90424 0.94087 0
M  V30 386 H 41.8457 -0.875761 0.362968 0
M  V30 387 H 41.5517 -3.4292 0.780927 0
M  V30 388 H 41.4257 -3.64899 -0.955448 0
M  V30 389 H 43.8127 -2.69079 -1.21162 0
M  V30 390 H 43.8937 -2.49915 0.545517 0
M  V30 391 H 43.5377 -5.01339 0.813739 0
M  V30 392 H 43.4677 -5.17798 -0.958775 0
M  V30 393 H 45.9587 -3.76807 -0.287267 0
M  V30 394 H 46.2717 -7.72791 0.0379428 0
M  V30 395 H 44.6167 -6.94995 0.0271731 0
M  V30 396 H 47.8077 -4.6731 -0.271767 0
M  V30 397 H 47.9807 -6.47882 -0.123697 0
M  V30 398 N 41.3868 0.248026 -1.55636 0
M  V30 399 C 42.8028 0.596483 -1.48035 0
M  V30 400 C 43.0028 1.88386 -0.715039 0
M  V30 401 O 42.0588 2.51319 -0.243944 0
M  V30 402 C 43.3718 0.700258 -2.92433 0
M  V30 403 C 44.9198 0.792659 -3.02797 0
M  V30 404 C 45.3948 0.928005 -4.485 0
M  V30 405 N 46.8858 0.992903 -4.52433 0
M  V30 406 C 47.6208 1.11687 -5.62418 0
M  V30 407 N 47.1168 1.20645 -6.82214 0
M  V30 408 N 48.9098 1.14994 -5.50212 0
M  V30 409 H 41.0608 -0.597109 -2.03834 0
M  V30 410 H 43.3238 -0.205925 -0.925364 0
M  V30 411 H 43.0298 -0.175658 -3.51261 0
M  V30 412 H 42.9038 1.57255 -3.42857 0
M  V30 413 H 45.2908 1.65903 -2.4405 0
M  V30 414 H 45.3718 -0.104762 -2.55585 0
M  V30 415 H 45.0158 0.0661971 -5.07857 0
M  V30 416 H 44.9458 1.84045 -4.93391 0
M  V30 417 H 47.4368 0.935064 -3.66149 0
M  V30 418 H 47.7498 1.30008 -7.61786 0
M  V30 419 H 46.0948 1.17605 -6.84977 0
M  V30 420 H 49.2858 1.07643 -4.55555 0
M  V30 421 H 49.4588 1.24311 -6.35965 0
M  V30 422 N 42.8649 1.48995 0.513639 0
M  V30 423 C 44.2809 1.35478 0.843682 0
M  V30 424 C 44.4809 0.378213 1.97919 0
M  V30 425 O 43.5369 -0.194689 2.51748 0
M  V30 426 C 44.8499 2.75901 1.1958 0
M  V30 427 C 46.3979 2.84509 1.30474 0
M  V30 428 C 46.8729 4.25671 1.69021 0
M  V30 429 N 48.3639 4.28422 1.76094 0
M  V30 430 C 49.0989 5.34601 2.07338 0
M  V30 431 N 48.5949 6.5104 2.36894 0
M  V30 432 N 50.3879 5.22007 2.08483 0
M  V30 433 H 42.5389 2.11092 -0.235328 0
M  V30 434 H 44.8019 0.947039 -0.0426669 0
M  V30 435 H 44.5079 3.49001 0.434913 0
M  V30 436 H 44.3819 3.10467 2.1422 0
M  V30 437 H 46.7689 2.11655 2.05637 0
M  V30 438 H 46.8499 2.53542 0.339155 0
M  V30 439 H 46.4939 4.99048 0.944135 0
M  V30 440 H 46.4239 4.54094 2.66658 0
M  V30 441 H 48.9149 3.44441 1.55464 0
M  V30 442 H 49.2279 7.2779 2.59887 0
M  V30 443 H 47.5729 6.54287 2.34378 0
M  V30 444 H 50.7639 4.30051 1.84861 0
M  V30 445 H 50.9369 6.04854 2.325 0
M  V30 446 N 44.343 -0.763751 1.37857 0
M  V30 447 C 45.29 -1.87726 1.34267 0
M  V30 448 C 46.26 -1.64807 0.206879 0
M  V30 449 O 47.445 -1.86613 0.397508 0
M  V30 450 C 44.585 -3.24896 1.16346 0
M  V30 451 C 43.698 -3.59716 2.39225 0
M  V30 452 C 42.833 -4.86137 2.14114 0
M  V30 453 C 41.872 -5.13711 3.32817 0
M  V30 454 N 41.009 -6.31323 3.07206 0
M  V30 455 H 45.849 -1.90129 2.29466 0
M  V30 456 H 43.386 -0.929433 1.14017 0
M  V30 457 H 45.344 -4.04036 1.03975 0
M  V30 458 H 43.974 -3.21847 0.247909 0
M  V30 459 H 43.026 -2.75498 2.62307 0
M  V30 460 H 44.338 -3.76027 3.27728 0
M  V30 461 H 43.492 -5.73198 1.9882 0
M  V30 462 H 42.231 -4.71945 1.22961 0
M  V30 463 H 41.236 -4.25123 3.48641 0
M  V30 464 H 42.461 -5.29807 4.24832 0
M  V30 465 H 40.407 -6.18474 2.1869 0
M  V30 466 H 40.324 -6.48087 3.89254 0
M  V30 467 H 41.592 -7.213 2.95546 0
M  V30 468 N 45.8211 -1.22559 -0.990812 0
M  V30 469 C 46.7681 -0.997519 -2.0813 0
M  V30 470 C 47.7381 0.0814702 -1.659 0
M  V30 471 O 48.9231 -0.0685424 -1.90677 0
M  V30 472 C 46.0631 -0.583615 -3.40129 0
M  V30 473 C 45.1761 -1.7336 -3.9569 0
M  V30 474 C 44.3111 -1.26748 -5.15857 0
M  V30 475 C 43.3501 -2.38888 -5.63559 0
M  V30 476 N 42.4871 -1.93308 -6.74964 0
M  V30 477 H 47.3271 -1.93099 -2.26973 0
M  V30 478 H 44.8641 -0.962114 -1.11273 0
M  V30 479 H 46.8221 -0.324801 -4.15934 0
M  V30 480 H 45.4521 0.312845 -3.2128 0
M  V30 481 H 44.5041 -2.10669 -3.16738 0
M  V30 482 H 45.8161 -2.57704 -4.27071 0
M  V30 483 H 44.9701 -0.966173 -5.98957 0
M  V30 484 H 43.7091 -0.394272 -4.86104 0
M  V30 485 H 42.7141 -2.69805 -4.79046 0
M  V30 486 H 43.9391 -3.26728 -5.95336 0
M  V30 487 H 41.8851 -1.08352 -6.4699 0
M  V30 488 H 41.8021 -2.71217 -7.05675 0
M  V30 489 H 43.0701 -1.66252 -7.61564 0
M  V30 490 N 47.2992 1.18797 -1.03562 0
M  V30 491 C 48.2092 2.25913 -0.632505 0
M  V30 492 C 49.2252 1.70668 0.338882 0
M  V30 493 O 50.4012 2.00453 0.195076 0
M  V30 494 C 47.4662 3.467 0.00350942 0
M  V30 495 C 46.5272 4.17098 -1.01624 0
M  V30 496 C 45.7602 5.32119 -0.410478 0
M  V30 497 O 45.9832 5.64976 0.784725 0
M  V30 498 O 44.9172 5.9107 -1.13667 0
M  V30 499 H 48.7432 2.62648 -1.52478 0
M  V30 500 H 46.3282 1.25781 -0.806195 0
M  V30 501 H 48.2102 4.19878 0.35781 0
M  V30 502 H 46.8852 3.11798 0.869686 0
M  V30 503 H 45.7922 3.4601 -1.42224 0
M  V30 504 H 47.1252 4.55987 -1.85301 0
M  V30 505 N 48.7773 0.814389 1.34928 0
M  V30 506 C 49.7073 0.244827 2.32213 0
M  V30 507 C 50.6883 -0.634024 1.57842 0
M  V30 508 O 51.8733 -0.562676 1.8587 0
M  V30 509 C 49.0033 -0.601106 3.42058 0
M  V30 510 C 47.9573 0.179896 4.27622 0
M  V30 511 C 47.2833 -0.788237 5.28858 0
M  V30 512 C 48.5833 1.38329 5.03649 0
M  V30 513 H 50.2773 1.05763 2.80097 0
M  V30 514 H 47.8233 0.510029 1.34665 0
M  V30 515 H 49.7763 -1.00968 4.09125 0
M  V30 516 H 48.5003 -1.44688 2.92802 0
M  V30 517 H 47.1593 0.569739 3.62146 0
M  V30 518 H 46.8073 -1.62973 4.75866 0
M  V30 519 H 46.5073 -0.269942 5.8698 0
M  V30 520 H 48.0313 -1.19485 5.98795 0
M  V30 521 H 49.4453 1.04918 5.63618 0
M  V30 522 H 47.8423 1.83662 5.71304 0
M  V30 523 H 48.9123 2.16592 4.33839 0
M  V30 524 N 50.2554 -1.46986 0.568584 0
M  V30 525 C 51.5044 -2.01646 0.0465894 0
M  V30 526 C 51.8174 -1.44721 -1.31587 0
M  V30 527 O 53.0234 -1.91113 -1.92842 0
M  V30 528 C 51.4794 -3.59885 0.032752 0
M  V30 529 C 51.0874 -4.25804 1.39266 0
M  V30 530 C 52.8314 -4.22255 -0.436038 0
M  V30 531 C 50.7384 -5.76081 1.33732 0
M  V30 532 H 49.6684 -0.753876 0.013647 0
M  V30 533 H 52.3194 -1.68864 0.718131 0
M  V30 534 H 50.7014 -3.8968 -0.704669 0
M  V30 535 H 51.8754 -4.07637 2.1487 0
M  V30 536 H 50.1904 -3.7547 1.80032 0
M  V30 537 H 52.7874 -5.32394 -0.49602 0
M  V30 538 H 53.1304 -3.90212 -1.45053 0
M  V30 539 H 53.6634 -3.97033 0.246877 0
M  V30 540 H 50.4024 -6.12761 2.32817 0
M  V30 541 H 49.9224 -5.96553 0.623267 0
M  V30 542 H 51.6014 -6.38518 1.0442 0
M  V30 543 N 51.7335 -0.305618 -1.54608 0
M  V30 544 C 53.0105 0.355652 -1.92339 0
M  V30 545 C 53.3905 1.71324 -1.23335 0
M  V30 546 O 52.7385 2.25473 -0.370702 0
M  V30 547 C 52.9485 0.46572 -3.45879 0
M  V30 548 C 54.2965 0.734426 -4.182 0
M  V30 549 O 55.3205 0.54935 -3.51938 0
M  V30 550 O 54.1795 1.09024 -5.35515 0
M  V30 551 H 51.2735 0.199666 -0.802535 0
M  V30 552 H 53.8195 -0.354017 -1.65966 0
M  V30 553 H 52.5915 -0.488461 -3.88239 0
M  V30 554 H 52.2145 1.22367 -3.78301 0
M  V30 555 N 53.2116 1.57565 -0.0334293 0
M  V30 556 C 54.4886 1.83282 0.683163 0
M  V30 557 C 54.8686 0.91823 1.90084 0
M  V30 558 O 54.2166 -0.025113 2.28486 0
M  V30 559 C 54.4266 3.32599 1.0573 0
M  V30 560 C 55.7746 3.99179 1.44711 0
M  V30 561 O 56.7986 3.3712 1.15015 0
M  V30 562 O 55.6576 5.08565 2.0006 0
M  V30 563 H 52.7516 0.755869 0.335546 0
M  V30 564 H 55.2976 1.69589 -0.0614402 0
M  V30 565 H 54.0696 3.90834 0.190828 0
M  V30 566 H 53.6926 3.51415 1.85993 0
M  V30 567 N 54.6897 -0.239769 1.55765 0
M  V30 568 C 55.9387 -0.964754 1.77131 0
M  V30 569 C 56.2517 -1.86213 0.59868 0
M  V30 570 O 57.4577 -2.6244 0.695522 0
M  V30 571 C 55.9137 -1.76552 3.1362 0
M  V30 572 C 55.5217 -0.915185 4.38553 0
M  V30 573 C 57.2657 -2.48281 3.44321 0
M  V30 574 C 55.1727 -1.71225 5.66071 0
M  V30 575 H 54.1027 -0.363953 0.660344 0
M  V30 576 H 56.7537 -0.219181 1.82186 0
M  V30 577 H 55.1357 -2.55331 3.02691 0
M  V30 578 H 56.3097 -0.169217 4.60489 0
M  V30 579 H 54.6247 -0.310889 4.15238 0
M  V30 580 H 57.2217 -3.08382 4.36812 0
M  V30 581 H 57.5647 -3.20256 2.65973 0
M  V30 582 H 58.0977 -1.76507 3.56497 0
M  V30 583 H 54.8367 -1.03612 6.4726 0
M  V30 584 H 54.3567 -2.43331 5.48224 0
M  V30 585 H 56.0357 -2.27758 6.05587 0
M  V30 586 N 56.1678 -1.49265 -0.50573 0
M  V30 587 C 57.0778 -1.68312 -1.63427 0
M  V30 588 C 58.0938 -0.565682 -1.64548 0
M  V30 589 O 59.2698 -0.839801 -1.83055 0
M  V30 590 C 56.3348 -1.74107 -2.99813 0
M  V30 591 C 55.3958 -2.97653 -3.09356 0
M  V30 592 C 54.6288 -3.03163 -4.39236 0
M  V30 593 O 54.8518 -2.16396 -5.27758 0
M  V30 594 O 53.7858 -3.9558 -4.53652 0
M  V30 595 H 57.6118 -2.63907 -1.50289 0
M  V30 596 H 55.1968 -1.32951 -0.681502 0
M  V30 597 H 57.0788 -1.803 -3.80881 0
M  V30 598 H 55.7538 -0.816901 -3.13223 0
M  V30 599 H 54.6608 -2.96981 -2.27493 0
M  V30 600 H 55.9938 -3.89535 -3.00871 0
M  V30 601 N 57.6459 0.756429 -1.3826 0
M  V30 602 C 59.0619 1.0591 -1.19395 0
M  V30 603 C 59.2619 2.01459 -0.0406567 0
M  V30 604 O 58.3179 2.44909 0.614467 0
M  V30 605 C 59.6309 1.64191 -2.51916 0
M  V30 606 C 61.1789 1.76376 -2.58574 0
M  V30 607 C 61.6539 2.38069 -3.91264 0
M  V30 608 N 63.1449 2.45503 -3.92788 0
M  V30 609 C 63.8799 2.94126 -4.92217 0
M  V30 610 N 63.3759 3.42805 -6.02043 0
M  V30 611 N 65.1689 2.9314 -4.7961 0
M  V30 612 H 57.3199 0.122313 -2.12048 0
M  V30 613 H 59.5829 0.116892 -0.940766 0
M  V30 614 H 59.2889 1.01451 -3.3675 0
M  V30 615 H 59.1629 2.6329 -2.70108 0
M  V30 616 H 61.5499 2.38244 -1.74137 0
M  V30 617 H 61.6309 0.759894 -2.44252 0
M  V30 618 H 61.2749 1.76835 -4.76121 0
M  V30 619 H 61.2049 3.39091 -4.02895 0
M  V30 620 H 63.6959 2.1107 -3.13461 0
M  V30 621 H 64.0089 3.78354 -6.73846 0
M  V30 622 H 62.3539 3.4087 -6.05667 0
M  V30 623 H 65.5449 2.54419 -3.92923 0
M  V30 624 H 65.7179 3.30721 -5.5725 0
M  V30 625 N 59.124 1.23083 0.984299 0
M  V30 626 C 60.054 1.03292 2.09411 0
M  V30 627 C 61.035 -0.048923 1.7003 0
M  V30 628 O 62.22 0.114967 1.93859 0
M  V30 629 C 59.35 0.619155 3.41736 0
M  V30 630 C 58.304 1.64791 3.95004 0
M  V30 631 C 57.63 1.0897 5.23478 0
M  V30 632 C 58.93 3.03999 4.24714 0
M  V30 633 H 60.624 1.96119 2.26225 0
M  V30 634 H 58.17 0.944344 1.08711 0
M  V30 635 H 60.123 0.467777 4.18796 0
M  V30 636 H 58.847 -0.344786 3.24775 0
M  V30 637 H 57.506 1.78721 3.20085 0
M  V30 638 H 57.154 0.11686 5.02864 0
M  V30 639 H 56.854 1.77704 5.60085 0
M  V30 640 H 58.378 0.950093 6.03163 0
M  V30 641 H 59.792 2.93393 4.92538 0
M  V30 642 H 58.189 3.69936 4.72512 0
M  V30 643 H 59.259 3.53285 3.32142 0
M  V30 644 N 60.6021 -1.18246 1.0419 0
M  V30 645 C 61.5491 -2.2192 0.634037 0
M  V30 646 C 62.5191 -1.62179 -0.358765 0
M  V30 647 O 63.7041 -1.89122 -0.252466 0
M  V30 648 C 60.8441 -3.451 0.00445535 0
M  V30 649 C 59.9571 -4.19174 1.04487 0
M  V30 650 C 59.0921 -5.29813 0.383676 0
M  V30 651 C 58.1311 -5.9566 1.4091 0
M  V30 652 N 57.2681 -6.97834 0.772784 0
M  V30 653 H 62.1081 -2.56164 1.52263 0
M  V30 654 H 59.6451 -1.25843 0.761701 0
M  V30 655 H 61.6031 -4.15485 -0.377919 0
M  V30 656 H 60.2331 -3.11472 -0.847652 0
M  V30 657 H 59.2851 -3.47604 1.54518 0
M  V30 658 H 60.5971 -4.64267 1.82368 0
M  V30 659 H 59.7511 -6.06677 -0.0528366 0
M  V30 660 H 58.4901 -4.85825 -0.427208 0
M  V30 661 H 57.4951 -5.17535 1.85574 0
M  V30 662 H 58.7201 -6.4173 2.22171 0
M  V30 663 H 56.6661 -6.55998 -0.0177708 0
M  V30 664 H 56.5831 -7.41186 1.48928 0
M  V30 665 H 57.8511 -7.78665 0.36071 0
M  V30 666 N 62.0802 -0.821533 -1.34494 0
M  V30 667 C 63.3102 -0.421272 -2.02259 0
M  V30 668 C 63.7182 0.977047 -1.6202 0
M  V30 669 O 63.0612 1.64348 -0.820703 0
M  V30 670 C 63.1232 -0.44231 -3.56769 0
M  V30 671 C 62.7872 -1.79372 -4.20327 0
M  V30 672 C 63.7842 -2.75435 -4.40944 0
M  V30 673 C 61.4692 -2.08182 -4.57127 0
M  V30 674 C 63.4632 -3.98482 -4.97484 0
M  V30 675 C 61.1502 -3.31489 -5.13379 0
M  V30 676 C 62.1482 -4.26457 -5.33501 0
M  V30 677 O 61.8362 -5.47585 -5.88562 0
M  V30 678 H 61.5682 -0.167473 -0.654927 0
M  V30 679 H 64.1222 -1.11073 -1.72777 0
M  V30 680 H 62.3522 0.303836 -3.85505 0
M  V30 681 H 64.0412 -0.0622925 -4.05852 0
M  V30 682 H 64.8072 -2.54473 -4.12878 0
M  V30 683 H 60.6862 -1.35066 -4.4077 0
M  V30 684 H 64.2302 -4.72618 -5.13106 0
M  V30 685 H 60.1272 -3.52316 -5.40873 0
M  V30 686 H 60.8952 -5.49086 -6.06998 0
M  V30 687 N 63.5583 1.46682 -0.576371 0
M  V30 688 C 64.4683 2.34032 0.163141 0
M  V30 689 C 65.4843 1.49367 0.892501 0
M  V30 690 O 66.6603 1.82252 0.857106 0
M  V30 691 C 63.7253 3.26435 1.16795 0
M  V30 692 C 62.7863 4.26998 0.443944 0
M  V30 693 C 62.0193 5.14986 1.40088 0
M  V30 694 O 62.2423 5.05785 2.637 0
M  V30 695 O 61.1763 5.94906 0.914917 0
M  V30 696 H 65.0023 2.98607 -0.55388 0
M  V30 697 H 62.5873 1.45554 -0.336821 0
M  V30 698 H 64.4693 3.83459 1.74748 0
M  V30 699 H 63.1443 2.64465 1.86655 0
M  V30 700 H 62.0513 3.7368 -0.177271 0
M  V30 701 H 63.3843 4.91736 -0.213566 0
M  V30 702 N 65.0364 0.313813 1.54444 0
M  V30 703 C 66.2854 -0.292519 1.99568 0
M  V30 704 C 66.5984 -1.54011 1.20582 0
M  V30 705 O 67.8044 -2.22183 1.56035 0
M  V30 706 C 66.2604 -0.571752 3.55329 0
M  V30 707 C 65.8684 0.658229 4.43138 0
M  V30 708 C 67.6124 -1.13857 4.08946 0
M  V30 709 C 65.5194 0.351439 5.90355 0
M  V30 710 H 64.4494 -0.113079 0.745472 0
M  V30 711 H 67.1004 0.424518 1.78522 0
M  V30 712 H 65.4824 -1.34872 3.72325 0
M  V30 713 H 66.6564 1.43403 4.37918 0
M  V30 714 H 64.9714 1.14458 4.0036 0
M  V30 715 H 67.5684 -1.38257 5.16516 0
M  V30 716 H 67.9114 -2.08489 3.6033 0
M  V30 717 H 68.4444 -0.423015 3.95544 0
M  V30 718 H 65.1834 1.26667 6.43145 0
M  V30 719 H 64.7034 -0.386842 5.98551 0
M  V30 720 H 66.3824 -0.0423134 6.46986 0
M  V30 721 N 66.5145 -1.57545 0.0417849 0
M  V30 722 C 67.4775 -2.09885 -0.92093 0
M  V30 723 C 68.4775 -1.01648 -1.24596 0
M  V30 724 O 69.6675 -1.27759 -1.1842 0
M  V30 725 C 66.7995 -2.57527 -2.23367 0
M  V30 726 H 67.9925 -2.96236 -0.467382 0
M  V30 727 H 65.5455 -1.5493 -0.206467 0
M  V30 728 H 66.2805 -1.74542 -2.73323 0
M  V30 729 H 66.0655 -3.36613 -2.01083 0
M  V30 730 H 67.5555 -2.98201 -2.92346 0
M  V30 731 N 67.9926 0.231505 -1.5589 0
M  V30 732 C 68.9026 1.308 -1.94752 0
M  V30 733 C 69.9186 1.51826 -0.849989 0
M  V30 734 O 71.0946 1.6515 -1.15271 0
M  V30 735 C 68.1596 2.63968 -2.24771 0
M  V30 736 C 67.2206 2.51331 -3.48039 0
M  V30 737 C 66.4536 3.78148 -3.76616 0
M  V30 738 O 66.6766 4.80722 -3.07022 0
M  V30 739 O 65.6106 3.75857 -4.70123 0
M  V30 740 H 69.4366 1.0083 -2.86474 0
M  V30 741 H 67.0216 0.433547 -1.42971 0
M  V30 742 H 68.9036 3.42633 -2.45318 0
M  V30 743 H 67.5786 2.9364 -1.36225 0
M  V30 744 H 66.4856 1.709 -3.32782 0
M  V30 745 H 67.8186 2.26601 -4.36936 0
M  V30 746 N 69.4707 1.49531 0.497807 0
M  V30 747 C 70.7167 1.59415 1.25358 0
M  V30 748 C 71.0497 0.281422 1.9215 0
M  V30 749 O 70.3247 -0.715249 1.80871 0
M  V30 750 C 70.6077 2.75566 2.3181 0
M  V30 751 C 70.4607 4.16642 1.69498 0
M  V30 752 C 71.7797 2.87347 3.33346 0
M  V30 753 H 68.8987 0.580244 0.454408 0
M  V30 754 H 71.5407 1.81827 0.551262 0
M  V30 755 H 69.6907 2.56587 2.91711 0
M  V30 756 H 71.3627 4.47145 1.13399 0
M  V30 757 H 69.6057 4.22141 0.998978 0
M  V30 758 H 70.2767 4.93792 2.46725 0
M  V30 759 H 72.7527 3.04634 2.83438 0
M  V30 760 H 71.6287 3.70289 4.05188 0
M  V30 761 H 71.8897 1.96834 3.95865 0
M  V30 762 N 70.9488 -0.749086 1.3866 0
M  V30 763 C 71.8818 -1.87111 1.30631 0
M  V30 764 C 72.8598 -1.61572 0.18251 0
M  V30 765 O 74.0438 -1.85019 0.360592 0
M  V30 766 C 71.1708 -3.22815 1.02511 0
M  V30 767 C 70.2168 -3.67234 2.1689 0
M  V30 768 S 71.0498 -3.78245 3.79066 0
M  V30 769 C 72.2058 -5.16761 3.53142 0
M  V30 770 H 72.4388 -1.93636 2.25594 0
M  V30 771 H 69.9718 -0.912525 1.24549 0
M  V30 772 H 71.9298 -4.01181 0.869701 0
M  V30 773 H 70.5908 -3.13964 0.0925884 0
M  V30 774 H 69.7838 -4.65677 1.92771 0
M  V30 775 H 69.3858 -2.96034 2.28561 0
M  V30 776 H 71.6778 -6.02656 3.09534 0
M  V30 777 H 72.6208 -5.45902 4.50995 0
M  V30 778 H 73.0288 -4.85771 2.87554 0
M  V30 779 N 72.4269 -1.23603 -0.977757 0
M  V30 780 C 73.6549 -1.09646 -1.75458 0
M  V30 781 C 74.0699 0.351859 -1.85492 0
M  V30 782 O 73.4269 1.24327 -1.336 0
M  V30 783 C 73.4779 -1.71895 -3.18016 0
M  V30 784 O 73.1989 -3.11063 -3.08498 0
M  V30 785 C 74.6999 -1.63415 -4.12081 0
M  V30 786 H 71.9199 -0.38359 -0.550545 0
M  V30 787 H 74.4639 -1.63507 -1.22824 0
M  V30 788 H 72.6189 -1.22061 -3.67668 0
M  V30 789 H 73.0329 -3.41305 -3.9826 0
M  V30 790 H 74.5069 -2.11669 -5.09804 0
M  V30 791 H 74.9839 -0.593462 -4.35172 0
M  V30 792 H 75.5899 -2.12628 -3.68334 0
M  V30 793 N 73.905 1.17692 -1.04816 0
M  V30 794 C 74.815 2.25229 -0.65643 0
M  V30 795 C 75.831 1.71018 0.320761 0
M  V30 796 O 77.007 2.00649 0.173805 0
M  V30 797 C 74.072 3.46684 -0.0332629 0
M  V30 798 C 73.133 4.15997 -1.06042 0
M  V30 799 C 72.366 5.31654 -0.466893 0
M  V30 800 O 72.589 5.65777 0.724758 0
M  V30 801 O 71.523 5.89831 -1.1993 0
M  V30 802 H 75.349 2.61016 -1.55255 0
M  V30 803 H 72.934 1.24919 -0.81949 0
M  V30 804 H 74.816 4.20234 0.313256 0
M  V30 805 H 73.491 3.12703 0.836566 0
M  V30 806 H 72.398 3.44482 -1.45886 0
M  V30 807 H 73.731 4.53996 -1.90127 0
M  V30 808 N 75.3831 0.828654 1.34056 0
M  V30 809 C 76.6321 0.415828 1.97367 0
M  V30 810 C 76.9451 -1.02796 1.6641 0
M  V30 811 O 78.1511 -1.54497 2.23255 0
M  V30 812 C 76.6071 0.692601 3.53173 0
M  V30 813 C 76.2151 2.15038 3.93017 0
M  V30 814 C 77.9591 0.346222 4.23086 0
M  V30 815 C 75.8661 2.37174 5.41758 0
M  V30 816 H 74.7961 0.151755 0.738571 0
M  V30 817 H 77.4471 1.01581 1.52819 0
M  V30 818 H 75.8291 0.0223764 3.95994 0
M  V30 819 H 77.0031 2.86024 3.61285 0
M  V30 820 H 75.3181 2.45875 3.36057 0
M  V30 821 H 77.9151 0.48937 5.32456 0
M  V30 822 H 78.2581 -0.709842 4.10204 0
M  V30 823 H 78.7911 0.971258 3.85761 0
M  V30 824 H 75.5301 3.41308 5.59633 0
M  V30 825 H 75.0501 1.70738 5.74986 0
M  V30 826 H 76.7291 2.19818 6.08514 0
M  V30 827 N 76.8612 -1.46375 0.584142 0
M  V30 828 C 78.1382 -1.956 0.0033388 0
M  V30 829 C 78.5182 -1.52679 -1.45782 0
M  V30 830 O 77.8662 -0.77816 -2.14842 0
M  V30 831 C 78.0762 -3.48551 0.176891 0
M  V30 832 C 79.4242 -4.24576 0.0454609 0
M  V30 833 O 80.4482 -3.56043 0.105801 0
M  V30 834 O 79.3072 -5.46427 -0.0890376 0
M  V30 835 H 76.4012 -0.825547 -0.0490066 0
M  V30 836 H 78.9472 -1.56652 0.65256 0
M  V30 837 H 77.7192 -3.72683 1.1926 0
M  V30 838 H 77.3422 -3.94332 -0.508695 0
M  V30 839 N 78.3393 -0.321999 -1.54275 0
M  V30 840 C 79.2873 0.560206 -2.25753 0
M  V30 841 C 80.2813 1.11984 -1.27106 0
M  V30 842 O 81.4873 1.06806 -1.44888 0
M  V30 843 H 77.8623 0.199304 -0.725108 0
M  V30 844 H 79.8333 -0.0649365 -2.98329 0
M  V30 845 C 78.5823 1.71023 -3.02731 0
M  V30 846 H 77.9053 1.28885 -3.78456 0
M  V30 847 H 79.3453 2.30314 -3.55993 0
M  V30 848 C 77.8043 2.62692 -2.10938 0
M  V30 849 O 78.3343 3.64364 -1.6912 0
M  V30 850 N 76.5403 2.30891 -1.76459 0
M  V30 851 H 76.0873 1.48253 -2.10663 0
M  V30 852 H 76.0453 2.92487 -1.1532 0
M  V30 853 N 79.8174 1.5752 -0.0501392 0
M  V30 854 C 80.7474 2.14502 0.922566 0
M  V30 855 C 81.7284 1.06642 1.3252 0
M  V30 856 O 82.9134 1.34577 1.4001 0
M  V30 857 C 80.0434 2.68916 2.19776 0
M  V30 858 C 78.9974 3.8175 1.93523 0
M  V30 859 C 78.3234 4.22677 3.27487 0
M  V30 860 C 79.6234 5.06932 1.25765 0
M  V30 861 H 81.3174 2.9603 0.447952 0
M  V30 862 H 78.8634 1.42401 0.214024 0
M  V30 863 H 80.8164 3.07419 2.88222 0
M  V30 864 H 79.5404 1.84578 2.69441 0
M  V30 865 H 78.1994 3.43718 1.27489 0
M  V30 866 H 77.8474 3.35291 3.74952 0
M  V30 867 H 77.5474 4.98725 3.1072 0
M  V30 868 H 79.0714 4.63779 3.97166 0
M  V30 869 H 80.4854 5.42888 1.84244 0
M  V30 870 H 78.8824 5.88116 1.19328 0
M  V30 871 H 79.9524 4.84337 0.233536 0
M  V30 872 N 81.2955 -0.223234 1.56011 0
M  V30 873 C 82.5235 -0.964812 1.83027 0
M  V30 874 C 82.9385 -1.78013 0.62904 0
M  V30 875 O 82.2955 -1.78008 -0.402414 0
M  V30 876 C 82.3465 -1.88373 3.08542 0
M  V30 877 O 82.0675 -1.10137 4.2403 0
M  V30 878 C 83.5685 -2.73934 3.48533 0
M  V30 879 H 80.7885 -0.282842 0.608475 0
M  V30 880 H 83.3325 -0.238971 2.03099 0
M  V30 881 H 81.4875 -2.56354 2.9045 0
M  V30 882 H 81.9015 -1.72501 4.95322 0
M  V30 883 H 83.3755 -3.34117 4.39397 0
M  V30 884 H 83.8525 -3.46244 2.70207 0
M  V30 885 H 84.4585 -2.11369 3.69057 0
M  V30 886 N 82.7736 -1.49793 -0.48987 0
M  V30 887 C 83.9986 -1.63836 -1.27172 0
M  V30 888 C 84.4236 -0.31402 -1.8546 0
M  V30 889 O 83.7816 0.719803 -1.66399 0
M  V30 890 C 83.8296 -2.71797 -2.36978 0
M  V30 891 O 82.9336 -2.31744 -3.41128 0
M  V30 892 H 82.2746 -0.547997 -0.37496 0
M  V30 893 H 84.8046 -1.96053 -0.585191 0
M  V30 894 H 84.8146 -2.94305 -2.82575 0
M  V30 895 H 83.4896 -3.67923 -1.93921 0
M  V30 896 H 82.0666 -2.1961 -3.01373 0
M  V30 897 N 84.2517 0.741722 -1.39055 0
M  V30 898 C 85.4977 1.50336 -1.36113 0
M  V30 899 C 85.8307 1.94148 0.0450796 0
M  V30 900 O 85.1057 1.66301 1.00868 0
M  V30 901 C 85.3887 2.74773 -2.32749 0
M  V30 902 C 85.2417 2.37023 -3.82283 0
M  V30 903 C 86.5607 3.76846 -2.27322 0
M  V30 904 H 83.6797 0.545351 -0.495743 0
M  V30 905 H 86.3217 0.848624 -1.69995 0
M  V30 906 H 84.4717 3.30639 -2.03986 0
M  V30 907 H 86.1437 1.8684 -4.21768 0
M  V30 908 H 84.3867 1.69334 -3.99385 0
M  V30 909 H 85.0577 3.26104 -4.45376 0
M  V30 910 H 87.5337 3.30548 -2.5274 0
M  V30 911 H 86.4097 4.6159 -2.97028 0
M  V30 912 H 86.6707 4.23286 -1.27599 0
M  V30 913 N 85.7298 1.2412 0.971189 0
M  V30 914 C 86.6398 1.04747 2.09917 0
M  V30 915 C 87.6558 -0.0107162 1.73997 0
M  V30 916 O 88.8318 0.186714 2.00533 0
M  V30 917 C 85.8968 0.650828 3.40537 0
M  V30 918 C 84.9578 1.7851 3.90426 0
M  V30 919 C 84.1908 1.40729 5.14812 0
M  V30 920 O 84.4138 0.29557 5.69634 0
M  V30 921 O 83.3478 2.23168 5.58999 0
M  V30 922 H 87.1738 1.99304 2.29154 0
M  V30 923 H 84.7588 1.02908 1.08307 0
M  V30 924 H 86.6408 0.440992 4.19086 0
M  V30 925 H 85.3158 -0.265649 3.22608 0
M  V30 926 H 84.2228 2.04966 3.12953 0
M  V30 927 H 85.5558 2.68023 4.12825 0
M  V30 928 N 87.2079 -1.17134 1.05439 0
M  V30 929 C 88.1179 -2.24878 0.668365 0
M  V30 930 C 89.1339 -1.71186 -0.311687 0
M  V30 931 O 90.3099 -2.00738 -0.163161 0
M  V30 932 C 87.3749 -3.46662 0.051648 0
M  V30 933 C 86.4359 -4.15429 1.08246 0
M  V30 934 C 85.6689 -5.31399 0.495082 0
M  V30 935 O 85.8919 -5.66153 -0.694743 0
M  V30 936 O 84.8259 -5.89187 1.23056 0
M  V30 937 H 88.6519 -2.60189 1.56637 0
M  V30 938 H 86.2369 -1.24482 0.826104 0
M  V30 939 H 88.1189 -4.20394 -0.290966 0
M  V30 940 H 86.7939 -3.13142 -0.819971 0
M  V30 941 H 85.7009 -3.43704 1.47711 0
M  V30 942 H 87.0339 -4.52982 1.92532 0
M  V30 943 N 88.686 -0.835752 -1.33615 0
M  V30 944 C 89.911 -0.442389 -2.02627 0
M  V30 945 C 90.336 0.947735 -1.62479 0
M  V30 946 O 89.694 1.61907 -0.815826 0
M  V30 947 C 89.742 -0.567216 -3.56111 0
M  V30 948 O 88.846 0.407799 -4.10379 0
M  V30 949 H 88.187 -0.180278 -0.639059 0
M  V30 950 H 90.717 -1.12972 -1.70583 0
M  V30 951 H 90.727 -0.447708 -4.05536 0
M  V30 952 H 89.402 -1.58103 -3.84677 0
M  V30 953 H 87.979 0.246107 -3.72087 0
M  V30 954 N 90.1641 1.46063 -0.591896 0
M  V30 955 C 91.1111 2.30399 0.136069 0
M  V30 956 C 92.0811 1.41169 0.875238 0
M  V30 957 O 93.2661 1.70112 0.86409 0
M  V30 958 C 90.4061 3.25804 1.13781 0
M  V30 959 C 89.5191 4.30134 0.401137 0
M  V30 960 C 88.6541 5.12659 1.39121 0
M  V30 961 C 87.6931 6.0873 0.641462 0
M  V30 962 N 86.8301 6.8409 1.58004 0
M  V30 963 H 91.6701 2.92118 -0.589144 0
M  V30 964 H 89.2071 1.43959 -0.302342 0
M  V30 965 H 91.1651 3.79569 1.73156 0
M  V30 966 H 89.7951 2.65872 1.83062 0
M  V30 967 H 88.8471 3.79152 -0.307826 0
M  V30 968 H 90.1591 4.98458 -0.184565 0
M  V30 969 H 89.3131 5.70747 2.05749 0
M  V30 970 H 88.0521 4.44316 2.01084 0
M  V30 971 H 87.0571 5.49786 -0.0385419 0
M  V30 972 H 88.2821 6.79095 0.0270945 0
M  V30 973 H 86.2281 6.18449 2.18761 0
M  V30 974 H 86.1451 7.48709 1.04738 0
M  V30 975 H 87.4131 7.4673 2.23639 0
M  V30 976 N 91.6422 0.330177 1.54103 0
M  V30 977 C 92.8702 -0.272179 2.05102 0
M  V30 978 C 93.2852 -1.45267 1.20595 0
M  V30 979 O 92.6422 -1.8094 0.238144 0
M  V30 980 C 92.6932 -0.70023 3.54653 0
M  V30 981 O 92.4142 0.433301 4.35952 0
M  V30 982 C 93.9152 -1.3647 4.21771 0
M  V30 983 H 91.1352 -0.0549159 0.668749 0
M  V30 984 H 93.6792 0.478285 1.98828 0
M  V30 985 H 91.8342 -1.40066 3.61193 0
M  V30 986 H 92.2482 0.0947539 5.24414 0
M  V30 987 H 93.7222 -1.61509 5.27843 0
M  V30 988 H 94.1992 -2.31409 3.73292 0
M  V30 989 H 94.8052 -0.706675 4.19388 0
M  V30 990 N 93.1203 -1.57491 0.0584922 0
M  V30 991 C 94.3483 -1.97296 -0.623037 0
M  V30 992 C 94.7633 -0.936338 -1.63946 0
M  V30 993 O 94.1203 0.0785981 -1.82331 0
M  V30 994 C 94.1713 -3.37183 -1.30345 0
M  V30 995 O 93.8923 -4.36872 -0.32773 0
M  V30 996 C 95.3933 -3.91788 -2.07406 0
M  V30 997 H 92.6133 -0.649153 -0.169826 0
M  V30 998 H 95.1573 -2.04106 0.12696 0
M  V30 999 H 93.3123 -3.31502 -2.00463 0
M  V30 1000 H 93.7263 -5.18141 -0.814269 0
M  V30 1001 H 95.2003 -4.91926 -2.50425 0
M  V30 1002 H 95.6773 -3.27609 -2.92521 0
M  V30 1003 H 96.2833 -4.00829 -1.42184 0
M  V30 1004 N 94.5984 0.214957 -1.56127 0
M  V30 1005 C 95.5304 1.29004 -1.89448 0
M  V30 1006 C 96.5434 1.42716 -0.783326 0
M  V30 1007 O 97.7324 1.43496 -1.06166 0
M  V30 1008 C 94.8324 2.66482 -2.09381 0
M  V30 1009 C 94.0054 2.74633 -3.40434 0
M  V30 1010 C 93.0644 3.9317 -3.49719 0
M  V30 1011 O 92.0904 3.812 -4.227 0
M  V30 1012 N 93.2924 5.07765 -2.81346 0
M  V30 1013 H 96.0574 1.00743 -2.82261 0
M  V30 1014 H 93.6184 0.40497 -1.56753 0
M  V30 1015 H 95.6104 3.44173 -2.12901 0
M  V30 1016 H 94.1804 2.87314 -1.23163 0
M  V30 1017 H 93.4004 1.83368 -3.48955 0
M  V30 1018 H 94.6884 2.77054 -4.26754 0
M  V30 1019 H 94.0864 5.20386 -2.21843 0
M  V30 1020 H 92.6434 5.83474 -2.90519 0
M  V30 1021 N 96.0765 1.50051 0.48192 0
M  V30 1022 C 97.4925 1.37237 0.814756 0
M  V30 1023 C 97.6925 0.420109 1.97072 0
M  V30 1024 O 96.7485 -0.141246 2.52105 0
M  V30 1025 C 98.0615 2.78375 1.13701 0
M  V30 1026 C 99.6095 2.87213 1.2441 0
M  V30 1027 C 100.084 4.29161 1.59954 0
M  V30 1028 N 101.575 4.32061 1.66967 0
M  V30 1029 C 102.31 5.38879 1.95952 0
M  V30 1030 N 101.806 6.55918 2.23031 0
M  V30 1031 N 103.599 5.26312 1.97363 0
M  V30 1032 H 95.7505 2.10546 -0.28005 0
M  V30 1033 H 98.0135 0.945921 -0.0627454 0
M  V30 1034 H 97.7195 3.49845 0.360787 0
M  V30 1035 H 97.5935 3.14941 2.07586 0
M  V30 1036 H 99.9805 2.15969 2.01101 0
M  V30 1037 H 100.061 2.54204 0.285299 0
M  V30 1038 H 99.7055 5.00938 0.838067 0
M  V30 1039 H 99.6355 4.59648 2.56966 0
M  V30 1040 H 102.126 3.47661 1.48123 0
M  V30 1041 H 102.439 7.33139 2.44391 0
M  V30 1042 H 100.784 6.59112 2.20447 0
M  V30 1043 H 103.975 4.33876 1.75697 0
M  V30 1044 H 104.148 6.09649 2.19618 0
M  V30 1045 N 97.5546 -0.734337 1.39446 0
M  V30 1046 C 98.5026 -1.86971 1.38364 0
M  V30 1047 C 99.4966 -1.67288 0.266687 0
M  V30 1048 O 100.703 -1.74621 0.436755 0
M  V30 1049 H 97.0776 -0.615474 0.432082 0
M  V30 1050 H 99.0486 -1.85 2.34132 0
M  V30 1051 C 97.7976 -3.2466 1.24465 0
M  V30 1052 H 97.1206 -3.40402 2.09682 0
M  V30 1053 H 98.5606 -4.04292 1.27764 0
M  V30 1054 C 97.0196 -3.36867 -0.0468674 0
M  V30 1055 O 97.5496 -3.88618 -1.01681 0
M  V30 1056 N 95.7556 -2.90391 -0.110145 0
M  V30 1057 H 95.3026 -2.48466 0.679868 0
M  V30 1058 H 95.2606 -2.98939 -0.973799 0
M  V30 1059 N 99.0327 -1.24633 -0.964593 0
M  V30 1060 C 99.9797 -1.04144 -2.05968 0
M  V30 1061 C 100.95 0.046262 -1.66036 0
M  V30 1062 O 102.135 -0.108972 -1.90489 0
M  V30 1063 C 99.2747 -0.65563 -3.38815 0
M  V30 1064 C 98.3877 -1.81714 -3.91923 0
M  V30 1065 C 97.5227 -1.37662 -5.13052 0
M  V30 1066 C 96.5617 -2.50788 -5.58365 0
M  V30 1067 N 95.6987 -2.07582 -6.70712 0
M  V30 1068 H 100.539 -1.9787 -2.22827 0
M  V30 1069 H 98.0757 -0.9855 -1.09208 0
M  V30 1070 H 100.034 -0.412954 -4.15151 0
M  V30 1071 H 98.6637 0.244627 -3.21872 0
M  V30 1072 H 97.7157 -2.1734 -3.12198 0
M  V30 1073 H 99.0277 -2.66705 -4.21509 0
M  V30 1074 H 98.1817 -1.093 -5.96773 0
M  V30 1075 H 96.9207 -0.497293 -4.85158 0
M  V30 1076 H 95.9257 -2.79906 -4.73215 0
M  V30 1077 H 97.1507 -3.39283 -5.88272 0
M  V30 1078 H 95.0967 -1.22051 -6.44546 0
M  V30 1079 H 95.0137 -2.86125 -6.99763 0
M  V30 1080 H 96.2817 -1.82369 -7.57867 0
M  V30 1081 N 100.511 1.16574 -1.06058 0
M  V30 1082 C 101.443 2.2045 -0.627239 0
M  V30 1083 C 102.456 1.59752 0.313534 0
M  V30 1084 O 103.645 1.78192 0.104896 0
M  V30 1085 C 100.745 3.3875 0.100974 0
M  V30 1086 C 99.9178 4.29008 -0.852687 0
M  V30 1087 C 98.9768 5.25944 -0.164152 0
M  V30 1088 O 98.0028 5.63535 -0.801047 0
M  V30 1089 N 99.2048 5.70075 1.09518 0
M  V30 1090 H 101.97 2.58249 -1.52077 0
M  V30 1091 H 99.5308 1.3156 -0.943594 0
M  V30 1092 H 101.523 4.00638 0.57194 0
M  V30 1093 H 100.093 2.99476 0.89628 0
M  V30 1094 H 99.3128 3.64419 -1.50308 0
M  V30 1095 H 100.601 4.86195 -1.49972 0
M  V30 1096 H 99.9988 5.41624 1.6328 0
M  V30 1097 H 98.5558 6.34067 1.51006 0
M  V30 1098 N 101.989 0.842826 1.3317 0
M  V30 1099 C 103.238 0.436738 1.96915 0
M  V30 1100 C 103.551 -1.01025 1.67491 0
M  V30 1101 O 104.757 -1.5212 2.24881 0
M  V30 1102 C 103.213 0.730021 3.52418 0
M  V30 1103 C 102.821 2.19195 3.90714 0
M  V30 1104 C 104.565 0.391076 4.22695 0
M  V30 1105 C 102.472 2.42907 5.39212 0
M  V30 1106 H 101.402 0.15958 0.736919 0
M  V30 1107 H 104.053 1.03196 1.51733 0
M  V30 1108 H 102.435 0.0643755 3.95948 0
M  V30 1109 H 103.609 2.8984 3.58231 0
M  V30 1110 H 101.924 2.49425 3.33431 0
M  V30 1111 H 104.521 0.545817 5.31907 0
M  V30 1112 H 104.864 -0.666294 4.10933 0
M  V30 1113 H 105.397 1.01212 3.84709 0
M  V30 1114 H 102.136 3.47224 5.55982 0
M  V30 1115 H 101.656 1.76827 5.73142 0
M  V30 1116 H 103.335 2.2626 6.06148 0
M  V30 1117 N 103.467 -1.45747 0.599634 0
M  V30 1118 C 104.43 -2.28917 -0.113835 0
M  V30 1119 C 105.43 -1.3933 -0.802729 0
M  V30 1120 O 106.62 -1.61534 -0.652103 0
M  V30 1121 C 103.752 -3.20152 -1.17114 0
M  V30 1122 H 104.945 -2.93478 0.617289 0
M  V30 1123 H 102.498 -1.52137 0.358327 0
M  V30 1124 H 103.233 -2.60374 -1.93329 0
M  V30 1125 H 103.018 -3.86133 -0.681468 0
M  V30 1126 H 104.508 -3.82708 -1.67105 0
M  V30 1127 N 104.945 -0.338344 -1.53925 0
M  V30 1128 C 105.878 0.563758 -2.21127 0
M  V30 1129 C 106.856 1.10433 -1.19345 0
M  V30 1130 O 108.04 1.16557 -1.48144 0
M  V30 1131 C 105.167 1.77505 -2.88461 0
M  V30 1132 C 104.213 1.3644 -4.04087 0
M  V30 1133 S 105.046 0.388593 -5.34088 0
M  V30 1134 C 106.202 1.60683 -6.04923 0
M  V30 1135 H 106.435 -0.00704546 -2.97299 0
M  V30 1136 H 103.968 -0.122418 -1.53914 0
M  V30 1137 H 105.926 2.46999 -3.27875 0
M  V30 1138 H 104.587 2.31706 -2.12064 0
M  V30 1139 H 103.78 2.26739 -4.50117 0
M  V30 1140 H 103.382 0.748998 -3.66423 0
M  V30 1141 H 105.674 2.54209 -6.28 0
M  V30 1142 H 106.617 1.18842 -6.98056 0
M  V30 1143 H 107.025 1.80052 -5.35015 0
M  V30 1144 N 106.423 1.57458 -0.0668435 0
M  V30 1145 C 107.671 1.92919 0.602214 0
M  V30 1146 C 107.992 0.947215 1.70449 0
M  V30 1147 O 107.262 -0.00544117 1.95899 0
M  V30 1148 H 105.842 0.71217 0.22544 0
M  V30 1149 H 108.504 1.94508 -0.123535 0
M  V30 1150 H 107.6 2.94589 1.03073 0
M  V30 1151 N 107.901 -0.206675 1.56239 0
M  V30 1152 C 109.317 -0.557025 1.49564 0
M  V30 1153 C 109.517 -1.86424 0.764735 0
M  V30 1154 O 108.573 -2.50584 0.310491 0
M  V30 1155 C 109.886 -0.622478 2.94186 0
M  V30 1156 C 111.434 -0.712099 3.04792 0
M  V30 1157 C 111.909 -0.808767 4.50803 0
M  V30 1158 N 113.4 -0.8726 4.54907 0
M  V30 1159 C 114.135 -0.967365 5.65181 0
M  V30 1160 N 113.631 -1.02515 6.85173 0
M  V30 1161 N 115.424 -1.00366 5.53067 0
M  V30 1162 H 107.575 0.650943 2.02179 0
M  V30 1163 H 109.838 0.230387 0.919579 0
M  V30 1164 H 109.544 0.268727 3.50672 0
M  V30 1165 H 109.418 -1.4811 3.46905 0
M  V30 1166 H 111.805 -1.59374 2.48363 0
M  V30 1167 H 111.886 0.172489 2.55218 0
M  V30 1168 H 111.53 0.0684754 5.07854 0
M  V30 1169 H 111.46 -1.70899 4.98098 0
M  V30 1170 H 113.951 -0.837657 3.68499 0
M  V30 1171 H 114.264 -1.09765 7.64965 0
M  V30 1172 H 112.609 -0.994026 6.87855 0
M  V30 1173 H 115.8 -0.95527 4.58249 0
M  V30 1174 H 115.973 -1.07405 6.39037 0
M  V30 1175 N 109.379 -1.50304 -0.473955 0
M  V30 1176 C 110.326 -1.68959 -1.57231 0
M  V30 1177 C 111.296 -0.530899 -1.57387 0
M  V30 1178 O 112.481 -0.761133 -1.74961 0
M  V30 1179 C 109.621 -1.7871 -2.95223 0
M  V30 1180 C 108.734 -3.06061 -3.04878 0
M  V30 1181 C 107.869 -3.06626 -4.33767 0
M  V30 1182 C 106.908 -4.28443 -4.37154 0
M  V30 1183 N 106.045 -4.26763 -5.5751 0
M  V30 1184 H 110.885 -2.6273 -1.40631 0
M  V30 1185 H 108.422 -1.30241 -0.683789 0
M  V30 1186 H 110.38 -1.82344 -3.75242 0
M  V30 1187 H 109.01 -0.883806 -3.10465 0
M  V30 1188 H 108.062 -3.11911 -2.17751 0
M  V30 1189 H 109.374 -3.96039 -3.0324 0
M  V30 1190 H 108.528 -3.08973 -5.22131 0
M  V30 1191 H 107.267 -2.14473 -4.3801 0
M  V30 1192 H 106.272 -4.2631 -3.47188 0
M  V30 1193 H 107.497 -5.2182 -4.34605 0
M  V30 1194 H 105.443 -3.37462 -5.62544 0
M  V30 1195 H 105.36 -5.10507 -5.57601 0
M  V30 1196 H 106.628 -4.33253 -6.48006 0
M  V30 1197 N 110.857 0.726932 -1.39834 0
M  V30 1198 C 111.804 1.841 -1.39197 0
M  V30 1199 C 112.774 1.642 -0.250502 0
M  V30 1200 O 113.959 1.85494 -0.446846 0
M  V30 1201 C 111.099 3.21697 -1.24919 0
M  V30 1202 C 110.212 3.53247 -2.48678 0
M  V30 1203 C 109.347 4.80289 -2.26928 0
M  V30 1204 C 108.386 5.04707 -3.4632 0
M  V30 1205 N 107.523 6.22956 -3.23836 0
M  V30 1206 H 112.363 1.83979 -2.34427 0
M  V30 1207 H 109.9 0.898876 -1.16442 0
M  V30 1208 H 111.858 4.01137 -1.1465 0
M  V30 1209 H 110.488 3.21076 -0.333153 0
M  V30 1210 H 109.54 2.68447 -2.69519 0
M  V30 1211 H 110.852 3.67205 -3.37582 0
M  V30 1212 H 110.006 5.67725 -2.13947 0
M  V30 1213 H 108.745 4.68519 -1.35431 0
M  V30 1214 H 107.75 4.1573 -3.5979 0
M  V30 1215 H 108.975 5.18357 -4.38729 0
M  V30 1216 H 106.921 6.12459 -2.35011 0
M  V30 1217 H 106.838 6.37539 -4.063 0
M  V30 1218 H 108.106 7.1321 -3.14566 0
M  V30 1219 N 112.336 1.25143 0.95797 0
M  V30 1220 C 113.583 1.09692 1.70217 0
M  V30 1221 C 113.911 -0.362654 1.91089 0
M  V30 1222 O 113.166 -1.28386 1.47701 0
M  V30 1223 C 113.465 1.79272 3.09187 0
M  V30 1224 C 113.131 3.29196 3.08125 0
M  V30 1225 C 111.793 3.70096 3.07543 0
M  V30 1226 C 114.145 4.24995 3.0171 0
M  V30 1227 C 111.473 5.05213 2.9829 0
M  V30 1228 C 113.825 5.60132 2.93999 0
M  V30 1229 C 112.489 6.00365 2.9175 0
M  V30 1230 H 111.759 0.401393 0.622868 0
M  V30 1231 H 114.406 1.55372 1.11945 0
M  V30 1232 H 112.711 1.26014 3.70982 0
M  V30 1233 H 114.408 1.64773 3.65583 0
M  V30 1234 H 110.998 2.96651 3.09348 0
M  V30 1235 H 115.182 3.9439 3.01281 0
M  V30 1236 H 110.438 5.35569 2.94916 0
M  V30 1237 H 114.612 6.3406 2.87996 0
M  V30 1238 H 112.239 7.05023 2.84336 0
M  V30 1239 N 113.814 -1.1601 1.06675 0
M  V30 1240 C 114.762 -2.22586 0.675157 0
M  V30 1241 C 115.756 -1.66525 -0.310766 0
M  V30 1242 O 116.962 -1.79145 -0.175215 0
M  V30 1243 H 113.337 -0.724855 0.200223 0
M  V30 1244 H 115.308 -2.52899 1.58381 0
M  V30 1245 C 114.057 -3.47604 0.0817162 0
M  V30 1246 H 113.38 -3.91058 0.831484 0
M  V30 1247 H 114.82 -4.23718 -0.154708 0
M  V30 1248 C 113.279 -3.15718 -1.17576 0
M  V30 1249 O 113.809 -3.31878 -2.26318 0
M  V30 1250 N 112.015 -2.69816 -1.07923 0
M  V30 1251 H 111.562 -2.56866 -0.194293 0
M  V30 1252 H 111.52 -2.48855 -1.92141 0
M  V30 1253 N 115.292 -0.849877 -1.32721 0
M  V30 1254 C 116.225 -0.235903 -2.26977 0
M  V30 1255 C 117.203 0.623355 -1.50177 0
M  V30 1256 O 118.387 0.581207 -1.79316 0
M  V30 1257 C 115.514 0.667712 -3.32053 0
M  V30 1258 C 114.56 -0.11753 -4.26338 0
M  V30 1259 S 115.393 -1.48277 -5.14562 0
M  V30 1260 C 116.549 -0.584741 -6.23163 0
M  V30 1261 H 116.782 -1.03495 -2.78704 0
M  V30 1262 H 114.315 -0.64724 -1.40179 0
M  V30 1263 H 116.273 1.18343 -3.93072 0
M  V30 1264 H 114.934 1.44052 -2.7912 0
M  V30 1265 H 114.127 0.57051 -5.00761 0
M  V30 1266 H 113.729 -0.564668 -3.69713 0
M  V30 1267 H 116.021 0.212968 -6.77165 0
M  V30 1268 H 116.964 -1.29947 -6.96074 0
M  V30 1269 H 117.372 -0.161202 -5.6427 0
M  V30 1270 N 116.77 1.45427 -0.607355 0
M  V30 1271 C 118.047 1.9557 -0.0344566 0
M  V30 1272 C 118.427 1.54979 1.43334 0
M  V30 1273 O 117.775 0.812241 2.13576 0
M  V30 1274 C 117.985 3.48226 -0.232321 0
M  V30 1275 C 119.333 4.2445 -0.113001 0
M  V30 1276 O 120.357 3.55829 -0.162431 0
M  V30 1277 O 119.216 5.465 0.00209442 0
M  V30 1278 H 116.31 0.826222 0.0358667 0
M  V30 1279 H 118.856 1.55594 -0.6774 0
M  V30 1280 H 117.628 3.70739 -1.25174 0
M  V30 1281 H 117.251 3.95092 0.445896 0
M  V30 1282 N 118.248 0.346503 1.53744 0
M  V30 1283 C 119.659 -0.136779 1.86198 0
M  V30 1284 C 120.01 -1.49749 1.26766 0
M  V30 1285 O 119.135 -2.08417 0.582355 0
M  V30 1286 C 119.73 -0.254966 3.37839 0
M  V30 1287 C 118.289 -0.682482 3.70161 0
M  V30 1288 C 117.436 0.181981 2.76702 0
M  V30 1289 H 120.387 0.565994 1.48264 0
M  V30 1290 H 120.408 -1.08195 3.64793 0
M  V30 1291 H 119.92 0.735526 3.81066 0
M  V30 1292 H 118.021 -1.68189 3.3248 0
M  V30 1293 H 118.134 -0.470326 4.76786 0
M  V30 1294 H 116.498 -0.34615 2.52337 0
M  V30 1295 H 117.281 1.16966 3.2276 0
M  V30 1296 N 119.726 -1.57421 0.075193 0
M  V30 1297 C 120.673 -2.12915 -0.890843 0
M  V30 1298 C 121.643 -1.04252 -1.29309 0
M  V30 1299 O 122.828 -1.31933 -1.37834 0
M  V30 1300 C 119.968 -2.69795 -2.15186 0
M  V30 1301 C 119.081 -3.92624 -1.80194 0
M  V30 1302 C 118.216 -4.37736 -3.00933 0
M  V30 1303 C 117.255 -5.53205 -2.61974 0
M  V30 1304 N 116.392 -5.9326 -3.75483 0
M  V30 1305 H 121.232 -2.95156 -0.410735 0
M  V30 1306 H 118.769 -1.45854 -0.191086 0
M  V30 1307 H 120.727 -3.00883 -2.89008 0
M  V30 1308 H 119.357 -1.90313 -2.60731 0
M  V30 1309 H 118.409 -3.67977 -0.964218 0
M  V30 1310 H 119.721 -4.76482 -1.47534 0
M  V30 1311 H 118.875 -4.70503 -3.8303 0
M  V30 1312 H 117.614 -3.52739 -3.36789 0
M  V30 1313 H 116.619 -5.20086 -1.783 0
M  V30 1314 H 117.844 -6.39936 -2.27284 0
M  V30 1315 H 115.79 -5.11212 -4.11094 0
M  V30 1316 H 115.707 -6.71865 -3.46602 0
M  V30 1317 H 116.975 -6.30651 -4.58148 0
M  V30 1318 N 121.204 0.198386 -1.56346 0
M  V30 1319 C 122.151 1.24589 -1.94284 0
M  V30 1320 C 123.121 1.454 -0.802997 0
M  V30 1321 O 124.306 1.58588 -1.06087 0
M  V30 1322 C 121.446 2.58631 -2.28482 0
M  V30 1323 C 120.559 2.45426 -3.55514 0
M  V30 1324 C 119.694 3.7215 -3.79049 0
M  V30 1325 C 118.733 3.53763 -4.99518 0
M  V30 1326 N 117.87 4.72491 -5.19323 0
M  V30 1327 H 122.71 0.915356 -2.83593 0
M  V30 1328 H 120.247 0.440629 -1.40346 0
M  V30 1329 H 122.205 3.3672 -2.46324 0
M  V30 1330 H 120.835 2.89734 -1.42317 0
M  V30 1331 H 119.887 1.58652 -3.45737 0
M  V30 1332 H 121.199 2.27772 -4.43758 0
M  V30 1333 H 120.353 4.58679 -3.97113 0
M  V30 1334 H 119.092 3.92754 -2.89129 0
M  V30 1335 H 118.097 2.65619 -4.8138 0
M  V30 1336 H 119.322 3.34607 -5.90944 0
M  V30 1337 H 117.268 4.93365 -4.3235 0
M  V30 1338 H 117.185 4.5765 -6.01741 0
M  V30 1339 H 118.453 5.6038 -5.41843 0
M  V30 1340 N 122.682 1.50554 0.465978 0
M  V30 1341 C 123.93 1.61479 1.21528 0
M  V30 1342 C 124.251 0.319596 1.92363 0
M  V30 1343 O 123.521 -0.663194 1.84333 0
M  V30 1344 H 122.101 0.595055 0.451573 0
M  V30 1345 H 124.763 1.87355 0.53704 0
M  V30 1346 H 123.859 2.42846 1.96042 0
M  V30 1347 N 124.16 -0.719506 1.40217 0
M  V30 1348 C 125.409 -1.47486 1.37589 0
M  V30 1349 C 125.722 -1.9559 -0.0201568 0
M  V30 1350 O 126.928 -2.70973 -0.169049 0
M  V30 1351 C 125.384 -2.66575 2.41796 0
M  V30 1352 C 124.992 -2.25358 3.87192 0
M  V30 1353 C 126.736 -3.4433 2.48269 0
M  V30 1354 C 124.643 -3.41262 4.83005 0
M  V30 1355 H 123.573 -0.553901 0.511576 0
M  V30 1356 H 126.224 -0.783427 1.65936 0
M  V30 1357 H 124.606 -3.3787 2.06543 0
M  V30 1358 H 125.78 -1.61509 4.31569 0
M  V30 1359 H 124.095 -1.60657 3.84159 0
M  V30 1360 H 126.692 -4.30569 3.17041 0
M  V30 1361 H 127.035 -3.87872 1.51198 0
M  V30 1362 H 127.568 -2.80076 2.82493 0
M  V30 1363 H 124.307 -3.02755 5.81394 0
M  V30 1364 H 123.827 -4.0404 4.43297 0
M  V30 1365 H 125.506 -4.07383 5.02641 0
M  V30 1366 N 125.638 -1.25649 -0.95132 0
M  V30 1367 C 126.57 -1.02112 -2.05197 0
M  V30 1368 C 127.583 0.0150571 -1.62793 0
M  V30 1369 O 128.772 -0.223874 -1.77091 0
M  V30 1370 C 125.872 -0.522361 -3.3485 0
M  V30 1371 C 125.045 -1.62546 -4.06076 0
M  V30 1372 C 124.104 -1.12649 -5.14001 0
M  V30 1373 O 123.13 -1.82156 -5.39266 0
M  V30 1374 N 124.332 0.03047 -5.80492 0
M  V30 1375 H 127.097 -1.96885 -2.25957 0
M  V30 1376 H 124.658 -1.16899 -1.1201 0
M  V30 1377 H 126.65 -0.172961 -4.0433 0
M  V30 1378 H 125.22 0.33151 -3.10837 0
M  V30 1379 H 124.44 -2.14628 -3.30649 0
M  V30 1380 H 125.728 -2.36644 -4.50419 0
M  V30 1381 H 125.126 0.611169 -5.62389 0
M  V30 1382 H 123.683 0.320875 -6.5101 0
M  V30 1383 N 127.117 1.15442 -1.07289 0
M  V30 1384 C 128.364 1.86213 -0.795668 0
M  V30 1385 C 128.692 1.82291 0.678238 0
M  V30 1386 O 127.947 1.24057 1.51355 0
M  V30 1387 C 128.246 3.3489 -1.24834 0
M  V30 1388 C 127.912 3.59007 -2.72809 0
M  V30 1389 C 126.574 3.65298 -3.13227 0
M  V30 1390 C 128.926 3.68762 -3.68326 0
M  V30 1391 C 126.254 3.78854 -4.4798 0
M  V30 1392 C 128.606 3.83842 -5.0284 0
M  V30 1393 C 127.27 3.88378 -5.4288 0
M  V30 1394 H 126.54 0.681403 -0.291155 0
M  V30 1395 H 129.187 1.36435 -1.34379 0
M  V30 1396 H 127.492 3.8687 -0.619595 0
M  V30 1397 H 129.189 3.88052 -1.01076 0
M  V30 1398 H 125.779 3.5475 -2.40521 0
M  V30 1399 H 129.963 3.63202 -3.38227 0
M  V30 1400 H 125.219 3.80623 -4.78472 0
M  V30 1401 H 129.393 3.90332 -5.76727 0
M  V30 1402 H 127.02 3.98635 -6.47298 0
M  V30 1403 N 128.595 0.856903 1.32268 0
M  V30 1404 C 129.525 0.31858 2.31316 0
M  V30 1405 C 130.506 -0.583487 1.59779 0
M  V30 1406 O 131.691 -0.503259 1.87566 0
M  V30 1407 C 128.821 -0.491979 3.43798 0
M  V30 1408 C 127.775 0.315849 4.26833 0
M  V30 1409 C 127.101 -0.619586 5.31098 0
M  V30 1410 C 128.401 1.54282 4.98993 0
M  V30 1411 H 130.095 1.14621 2.76591 0
M  V30 1412 H 127.641 0.552613 1.32974 0
M  V30 1413 H 129.594 -0.879012 4.1213 0
M  V30 1414 H 128.318 -1.35299 2.97257 0
M  V30 1415 H 126.977 0.684664 3.6015 0
M  V30 1416 H 126.625 -1.47751 4.8081 0
M  V30 1417 H 126.325 -0.0830621 5.87541 0
M  V30 1418 H 127.849 -1.00375 6.02293 0
M  V30 1419 H 129.263 1.22796 5.59995 0
M  V30 1420 H 127.66 2.01745 5.65172 0
M  V30 1421 H 128.73 2.30285 4.26728 0
M  V30 1422 N 130.073 -1.45103 0.615059 0
M  V30 1423 C 131.322 -2.01396 0.110718 0
M  V30 1424 C 131.635 -1.48834 -1.26916 0
M  V30 1425 O 132.841 -1.97152 -1.86664 0
M  V30 1426 C 131.297 -3.59599 0.14723 0
M  V30 1427 C 130.905 -4.21158 1.52743 0
M  V30 1428 C 132.649 -4.23428 -0.30148 0
M  V30 1429 C 130.556 -5.71535 1.51992 0
M  V30 1430 H 129.486 -0.753061 0.0376241 0
M  V30 1431 H 132.137 -1.66494 0.77149 0
M  V30 1432 H 130.519 -3.91724 -0.580339 0
M  V30 1433 H 131.693 -4.00594 2.2773 0
M  V30 1434 H 130.008 -3.69552 1.91886 0
M  V30 1435 H 132.605 -5.33703 -0.326392 0
M  V30 1436 H 132.948 -3.94629 -1.32565 0
M  V30 1437 H 133.481 -3.96047 0.373065 0
M  V30 1438 H 130.22 -6.05044 2.52193 0
M  V30 1439 H 129.74 -5.94268 0.81274 0
M  V30 1440 H 131.419 -6.34873 1.24681 0
M  V30 1441 N 131.551 -0.354651 -1.53558 0
M  V30 1442 C 132.461 0.50515 -2.29097 0
M  V30 1443 C 133.477 1.10223 -1.34636 0
M  V30 1444 O 134.653 1.11553 -1.67684 0
M  V30 1445 C 131.718 1.63479 -3.05738 0
M  V30 1446 C 130.779 1.06636 -4.15845 0
M  V30 1447 C 130.012 2.14217 -4.88822 0
M  V30 1448 O 130.235 3.35137 -4.61562 0
M  V30 1449 O 129.169 1.77887 -5.75013 0
M  V30 1450 H 132.995 -0.109237 -3.03503 0
M  V30 1451 H 130.58 -0.119357 -1.48922 0
M  V30 1452 H 132.462 2.2918 -3.5363 0
M  V30 1453 H 131.137 2.23478 -2.34178 0
M  V30 1454 H 130.044 0.373565 -3.7223 0
M  V30 1455 H 131.377 0.511081 -4.89539 0
M  V30 1456 N 133.029 1.57378 -0.0835403 0
M  V30 1457 C 133.977 2.14602 0.89714 0
M  V30 1458 C 134.971 1.08589 1.30018 0
M  V30 1459 O 136.177 1.26952 1.27606 0
M  V30 1460 H 132.552 0.686346 0.3073 0
M  V30 1461 H 134.523 2.95845 0.38969 0
M  V30 1462 C 133.272 2.73188 2.15089 0
M  V30 1463 H 132.595 3.54442 1.84962 0
M  V30 1464 H 134.035 3.1681 2.81793 0
M  V30 1465 C 132.494 1.68517 2.91725 0
M  V30 1466 O 133.024 1.11718 3.85852 0
M  V30 1467 N 131.23 1.39277 2.55049 0
M  V30 1468 H 130.777 1.85655 1.78577 0
M  V30 1469 H 130.735 0.694791 3.06627 0
M  V30 1470 N 134.507 -0.190092 1.56449 0
M  V30 1471 C 135.784 -0.935886 1.71757 0
M  V30 1472 C 136.164 -2.01173 0.639726 0
M  V30 1473 O 135.512 -2.25827 -0.348502 0
M  V30 1474 C 135.722 -1.51775 3.1427 0
M  V30 1475 C 137.07 -1.99794 3.74656 0
M  V30 1476 O 138.094 -1.61607 3.1743 0
M  V30 1477 O 136.953 -2.70079 4.751 0
M  V30 1478 H 134.047 -0.439229 0.700719 0
M  V30 1479 H 136.593 -0.179395 1.68749 0
M  V30 1480 H 135.365 -0.742505 3.84191 0
M  V30 1481 H 134.988 -2.33894 3.21527 0
M  V30 1482 N 135.985 -1.50799 -0.457987 0
M  V30 1483 C 136.915 -1.73553 -1.5621 0
M  V30 1484 C 137.896 -0.584774 -1.59732 0
M  V30 1485 O 139.081 -0.825314 -1.7579 0
M  V30 1486 C 136.211 -1.84169 -2.94447 0
M  V30 1487 C 135.165 -2.99461 -3.0579 0
M  V30 1488 C 134.491 -2.95235 -4.45803 0
M  V30 1489 C 135.791 -4.39766 -2.81786 0
M  V30 1490 H 137.485 -2.66 -1.37421 0
M  V30 1491 H 135.031 -1.28002 -0.659662 0
M  V30 1492 H 136.984 -1.98672 -3.71628 0
M  V30 1493 H 135.708 -0.883545 -3.14422 0
M  V30 1494 H 134.367 -2.8463 -2.31044 0
M  V30 1495 H 134.015 -1.97239 -4.62715 0
M  V30 1496 H 133.715 -3.72642 -4.54326 0
M  V30 1497 H 135.239 -3.11803 -5.24987 0
M  V30 1498 H 136.653 -4.55054 -3.4871 0
M  V30 1499 H 135.05 -5.18722 -3.0174 0
M  V30 1500 H 136.12 -4.51229 -1.7754 0
M  V30 1501 N 137.463 0.71206 -1.40597 0
M  V30 1502 C 138.393 1.83889 -1.43899 0
M  V30 1503 C 139.374 1.67442 -0.299504 0
M  V30 1504 O 140.559 1.87421 -0.508624 0
M  V30 1505 C 137.689 3.21877 -1.30431 0
M  V30 1506 C 136.643 3.53002 -2.42019 0
M  V30 1507 C 135.969 4.90172 -2.13626 0
M  V30 1508 C 137.269 3.53643 -3.84362 0
M  V30 1509 H 138.963 1.81383 -2.38203 0
M  V30 1510 H 136.509 0.871237 -1.14654 0
M  V30 1511 H 138.462 4.00404 -1.31357 0
M  V30 1512 H 137.186 3.24968 -0.326049 0
M  V30 1513 H 135.845 2.76818 -2.40349 0
M  V30 1514 H 135.493 4.89869 -1.14182 0
M  V30 1515 H 135.193 5.11962 -2.88389 0
M  V30 1516 H 136.717 5.71028 -2.1624 0
M  V30 1517 H 138.131 4.22203 -3.87837 0
M  V30 1518 H 136.528 3.86961 -4.58673 0
M  V30 1519 H 137.598 2.52954 -4.13693 0
M  V30 1520 N 138.941 1.26152 0.944643 0
M  V30 1521 C 139.873 1.03199 2.04652 0
M  V30 1522 C 140.886 -0.00642356 1.62799 0
M  V30 1523 O 142.075 0.233263 1.76969 0
M  V30 1524 C 139.175 0.540111 3.34568 0
M  V30 1525 C 138.348 1.64697 4.05208 0
M  V30 1526 C 137.407 1.15374 5.13396 0
M  V30 1527 O 136.433 1.85013 5.38293 0
M  V30 1528 N 137.635 0.00031529 5.805 0
M  V30 1529 H 140.4 1.9808 2.2491 0
M  V30 1530 H 137.961 1.17491 1.11389 0
M  V30 1531 H 139.953 0.194401 4.04233 0
M  V30 1532 H 138.523 -0.315021 3.11009 0
M  V30 1533 H 137.743 2.16379 3.29506 0
M  V30 1534 H 139.031 2.3903 4.49157 0
M  V30 1535 H 138.429 -0.581336 5.62705 0
M  V30 1536 H 136.986 -0.286346 6.51171 0
M  V30 1537 N 140.419 -1.14872 1.07899 0
M  V30 1538 C 141.644 -1.90202 0.826926 0
M  V30 1539 C 142.069 -1.77774 -0.614664 0
M  V30 1540 O 141.427 -1.11431 -1.43013 0
M  V30 1541 C 141.475 -3.38352 1.24702 0
M  V30 1542 O 140.579 -4.10497 0.39575 0
M  V30 1543 H 139.92 -0.591968 0.300782 0
M  V30 1544 H 142.45 -1.45437 1.43907 0
M  V30 1545 H 142.46 -3.89156 1.22563 0
M  V30 1546 H 141.135 -3.46715 2.29698 0
M  V30 1547 H 139.712 -3.69796 0.480117 0
M  V30 1548 N 141.898 -0.863906 -1.31812 0
M  V30 1549 C 143.123 -0.48527 -2.01643 0
M  V30 1550 C 143.548 0.913058 -1.64453 0
M  V30 1551 O 142.906 1.6014 -0.849985 0
M  V30 1552 C 142.954 -0.642625 -3.54828 0
M  V30 1553 O 142.058 0.320659 -4.11151 0
M  V30 1554 H 141.399 -0.193793 -0.635091 0
M  V30 1555 H 143.929 -1.16565 -1.68148 0
M  V30 1556 H 143.939 -0.533628 -4.04495 0
M  V30 1557 H 142.614 -1.66227 -3.81237 0
M  V30 1558 H 141.191 0.167126 -3.72525 0
M  V30 1559 N 143.376 1.44774 -0.622745 0
M  V30 1560 C 144.787 1.85546 -0.207226 0
M  V30 1561 C 145.138 1.52093 1.23944 0
M  V30 1562 O 144.263 0.95492 1.94191 0
M  V30 1563 C 144.858 3.36781 -0.369313 0
M  V30 1564 C 143.417 3.76399 -0.00836847 0
M  V30 1565 C 142.564 2.68664 -0.686651 0
M  V30 1566 H 145.515 1.3536 -0.828454 0
M  V30 1567 H 145.536 3.78453 0.394162 0
M  V30 1568 H 145.048 3.61098 -1.42231 0
M  V30 1569 H 143.149 3.57698 1.04322 0
M  V30 1570 H 143.262 4.7732 -0.412584 0
M  V30 1571 H 141.626 2.54404 -0.122777 0
M  V30 1572 H 142.409 2.95815 -1.74208 0
M  V30 1573 N 144.854 0.36279 1.53368 0
M  V30 1574 C 145.764 -0.492994 2.29362 0
M  V30 1575 C 146.78 -1.09507 1.35219 0
M  V30 1576 O 147.956 -1.10662 1.68273 0
M  V30 1577 C 145.021 -1.61855 3.066 0
M  V30 1578 C 144.082 -1.04429 4.16405 0
M  V30 1579 C 143.315 -2.11621 4.89951 0
M  V30 1580 O 143.538 -3.32684 4.63333 0
M  V30 1581 O 142.472 -1.74835 5.75948 0
M  V30 1582 H 146.298 0.125331 3.03441 0
M  V30 1583 H 143.883 0.127253 1.48857 0
M  V30 1584 H 145.765 -2.27302 3.54841 0
M  V30 1585 H 144.44 -2.22233 2.3536 0
M  V30 1586 H 143.347 -0.353819 3.72423 0
M  V30 1587 H 144.68 -0.485113 4.89804 0
M  V30 1588 N 146.332 -1.57332 0.0918853 0
M  V30 1589 C 147.609 -1.85691 -0.614668 0
M  V30 1590 C 147.989 -0.988146 -1.86545 0
M  V30 1591 O 147.337 -0.0597055 -2.28422 0
M  V30 1592 C 147.547 -3.36294 -0.933126 0
M  V30 1593 C 148.895 -4.04275 -1.29796 0
M  V30 1594 O 149.919 -3.41157 -1.02424 0
M  V30 1595 O 148.778 -5.1564 -1.81047 0
M  V30 1596 H 145.872 -0.767802 -0.307261 0
M  V30 1597 H 148.418 -1.69244 0.12434 0
M  V30 1598 H 147.19 -3.91273 -0.0456404 0
M  V30 1599 H 146.813 -3.58076 -1.72822 0
M  V30 1600 N 147.81 0.181792 -1.56548 0
M  V30 1601 C 149.056 0.901431 -1.81665 0
M  V30 1602 C 149.389 1.82347 -0.668075 0
M  V30 1603 O 148.664 1.91669 0.330615 0
M  V30 1604 C 148.947 1.70618 -3.17115 0
M  V30 1605 C 148.8 0.807964 -4.42484 0
M  V30 1606 C 150.119 2.67605 -3.49393 0
M  V30 1607 H 147.238 0.32627 -0.660846 0
M  V30 1608 H 149.88 0.168134 -1.89255 0
M  V30 1609 H 148.03 2.33133 -3.10775 0
M  V30 1610 H 149.702 0.19649 -4.60881 0
M  V30 1611 H 147.945 0.115411 -4.33646 0
M  V30 1612 H 148.616 1.40632 -5.33785 0
M  V30 1613 H 151.092 2.15218 -3.56118 0
M  V30 1614 H 149.968 3.20985 -4.45264 0
M  V30 1615 H 150.229 3.47298 -2.73563 0
M  V30 1616 N 149.288 1.51039 0.449983 0
M  V30 1617 C 150.251 1.70863 1.5277 0
M  V30 1618 C 151.251 0.578846 1.5002 0
M  V30 1619 O 152.441 0.846213 1.52266 0
M  V30 1620 C 149.573 1.75341 2.9235 0
M  V30 1621 H 150.766 2.67034 1.36502 0
M  V30 1622 H 148.319 1.40838 0.677812 0
M  V30 1623 H 149.054 0.809383 3.14037 0
M  V30 1624 H 148.839 2.57436 2.95752 0
M  V30 1625 H 150.329 1.92559 3.70555 0
M  V30 1626 N 150.766 -0.704594 1.40972 0
M  V30 1627 C 151.698 -1.82974 1.38033 0
M  V30 1628 C 152.711 -1.60305 0.283931 0
M  V30 1629 O 153.9 -1.69975 0.545042 0
M  V30 1630 C 151 -3.19578 1.12795 0
M  V30 1631 C 150.173 -3.69352 2.34302 0
M  V30 1632 C 149.232 -4.84601 2.05058 0
M  V30 1633 O 148.258 -4.96682 2.7802 0
M  V30 1634 N 149.46 -5.71194 1.03528 0
M  V30 1635 H 152.225 -1.85991 2.35005 0
M  V30 1636 H 149.786 -0.886567 1.35468 0
M  V30 1637 H 151.778 -3.9429 0.911987 0
M  V30 1638 H 150.348 -3.11642 0.24452 0
M  V30 1639 H 149.568 -2.85649 2.71659 0
M  V30 1640 H 150.856 -3.99345 3.1528 0
M  V30 1641 H 150.254 -5.64054 0.431217 0
M  V30 1642 H 148.811 -6.45843 0.879205 0
M  V30 1643 N 152.244 -1.26651 -0.937939 0
M  V30 1644 C 153.491 -1.12387 -1.6845 0
M  V30 1645 C 153.819 0.332208 -1.91642 0
M  V30 1646 O 153.074 1.2602 -1.49725 0
M  V30 1647 C 153.373 -1.84168 -3.06295 0
M  V30 1648 C 153.039 -3.34056 -3.02849 0
M  V30 1649 C 151.701 -3.74942 -3.01616 0
M  V30 1650 C 154.053 -4.29741 -2.9491 0
M  V30 1651 C 151.381 -5.09894 -2.90215 0
M  V30 1652 C 153.733 -5.64738 -2.8505 0
M  V30 1653 C 152.397 -6.0493 -2.82162 0
M  V30 1654 H 151.667 -0.411252 -0.616403 0
M  V30 1655 H 154.314 -1.57134 -1.09459 0
M  V30 1656 H 152.619 -1.319 -3.6893 0
M  V30 1657 H 154.316 -1.70569 -3.62915 0
M  V30 1658 H 150.906 -3.01534 -3.0459 0
M  V30 1659 H 155.09 -3.99133 -2.94969 0
M  V30 1660 H 150.346 -5.40194 -2.86358 0
M  V30 1661 H 154.52 -6.38561 -2.77872 0
M  V30 1662 H 152.147 -7.09457 -2.73084 0
M  V30 1663 N 153.722 1.14298 -1.08507 0
M  V30 1664 C 154.652 2.21542 -0.737646 0
M  V30 1665 C 155.633 1.67773 0.280377 0
M  V30 1666 O 156.818 1.93616 0.150521 0
M  V30 1667 C 153.948 3.46988 -0.147259 0
M  V30 1668 C 152.902 4.13789 -1.09374 0
M  V30 1669 C 152.228 5.33449 -0.365524 0
M  V30 1670 C 153.528 4.62208 -2.4323 0
M  V30 1671 H 155.222 2.5086 -1.6343 0
M  V30 1672 H 152.768 1.20576 -0.787243 0
M  V30 1673 H 154.721 4.21262 0.107808 0
M  V30 1674 H 153.445 3.17037 0.784538 0
M  V30 1675 H 152.104 3.4147 -1.33393 0
M  V30 1676 H 151.752 4.99759 0.57011 0
M  V30 1677 H 151.452 5.79088 -0.996512 0
M  V30 1678 H 152.976 6.10485 -0.118534 0
M  V30 1679 H 154.39 5.27952 -2.23472 0
M  V30 1680 H 152.787 5.18553 -3.02031 0
M  V30 1681 H 153.857 3.77224 -3.04681 0
M  V30 1682 N 155.201 0.870884 1.31352 0
M  V30 1683 C 156.431 0.496049 2.00557 0
M  V30 1684 C 156.839 -0.916241 1.65534 0
M  V30 1685 O 156.182 -1.61188 0.881134 0
M  V30 1686 C 156.244 0.574418 3.54881 0
M  V30 1687 C 155.908 1.94849 4.1338 0
M  V30 1688 C 156.905 2.91611 4.30417 0
M  V30 1689 C 154.59 2.25005 4.49086 0
M  V30 1690 C 156.584 4.16672 4.82352 0
M  V30 1691 C 154.271 3.50315 5.00722 0
M  V30 1692 C 155.269 4.45964 5.17306 0
M  V30 1693 O 154.957 5.69052 5.67833 0
M  V30 1694 H 154.689 0.191664 0.64826 0
M  V30 1695 H 157.243 1.17409 1.68536 0
M  V30 1696 H 155.473 -0.160549 3.86367 0
M  V30 1697 H 157.162 0.212879 4.05341 0
M  V30 1698 H 157.928 2.69622 4.03149 0
M  V30 1699 H 153.807 1.51332 4.35453 0
M  V30 1700 H 157.351 4.91336 4.95211 0
M  V30 1701 H 153.248 3.72147 5.27424 0
M  V30 1702 H 154.016 5.71236 5.86201 0
M  V30 1703 N 156.679 -1.44442 0.630414 0
M  V30 1704 C 157.626 -2.30678 -0.0749355 0
M  V30 1705 C 158.596 -1.4344 -0.837502 0
M  V30 1706 O 159.781 -1.72343 -0.818684 0
M  V30 1707 C 156.921 -3.28706 -1.05103 0
M  V30 1708 C 156.034 -4.31046 -0.286954 0
M  V30 1709 C 155.169 -5.16167 -1.2548 0
M  V30 1710 C 154.208 -6.10216 -0.479843 0
M  V30 1711 N 153.345 -6.88039 -1.39811 0
M  V30 1712 H 158.185 -2.90454 0.666386 0
M  V30 1713 H 155.722 -1.43107 0.340404 0
M  V30 1714 H 157.68 -3.84027 -1.63031 0
M  V30 1715 H 156.31 -2.70632 -1.75949 0
M  V30 1716 H 155.362 -3.78203 0.408243 0
M  V30 1717 H 156.674 -4.97794 0.316657 0
M  V30 1718 H 155.828 -5.76002 -1.90544 0
M  V30 1719 H 154.567 -4.49491 -1.89233 0
M  V30 1720 H 153.572 -5.49491 0.184295 0
M  V30 1721 H 154.797 -6.78928 0.152965 0
M  V30 1722 H 152.743 -6.24032 -2.02287 0
M  V30 1723 H 152.66 -7.51223 -0.848508 0
M  V30 1724 H 153.928 -7.52397 -2.03762 0
M  V30 1725 N 158.157 -0.370918 -1.53173 0
M  V30 1726 C 159.405 0.216673 -2.00935 0
M  V30 1727 C 159.726 1.48845 -1.25977 0
M  V30 1728 O 158.996 1.92286 -0.374551 0
M  V30 1729 H 157.576 0.0830565 -0.742368 0
M  V30 1730 H 160.238 -0.49838 -1.8842 0
M  V30 1731 H 159.334 0.439893 -3.08984 0
M  V30 1732 N 159.635 1.57281 -0.100228 0
M  V30 1733 C 160.545 2.17833 0.870965 0
M  V30 1734 C 161.561 1.14921 1.30649 0
M  V30 1735 O 162.737 1.47313 1.37335 0
M  V30 1736 C 159.802 2.75085 2.1102 0
M  V30 1737 C 158.863 3.9297 1.72838 0
M  V30 1738 C 158.096 4.47482 2.90854 0
M  V30 1739 O 158.319 4.00922 4.05731 0
M  V30 1740 O 157.253 5.38433 2.69023 0
M  V30 1741 H 161.079 3.0124 0.38575 0
M  V30 1742 H 158.664 1.48881 0.124397 0
M  V30 1743 H 160.546 3.11656 2.83634 0
M  V30 1744 H 159.221 1.94721 2.58584 0
M  V30 1745 H 158.128 3.61201 0.973883 0
M  V30 1746 H 159.461 4.74713 1.30033 0
M  V30 1747 N 161.113 -0.173488 1.56642 0
M  V30 1748 C 162.361 -0.888706 1.81512 0
M  V30 1749 C 162.682 -1.82875 0.676872 0
M  V30 1750 O 161.952 -1.93536 -0.303414 0
M  V30 1751 H 160.532 -0.331164 0.669582 0
M  V30 1752 H 163.194 -0.173823 1.94123 0
M  V30 1753 H 162.29 -1.46691 2.75478 0
M  V30 1754 N 162.591 -1.51276 -0.441967 0
M  V30 1755 C 163.521 -1.752 -1.54361 0
M  V30 1756 C 164.502 -0.601682 -1.59103 0
M  V30 1757 O 165.687 -0.843913 -1.74905 0
M  V30 1758 C 162.817 -1.87282 -2.92477 0
M  V30 1759 C 161.771 -3.02687 -3.02596 0
M  V30 1760 C 161.097 -2.99947 -4.42647 0
M  V30 1761 C 162.397 -4.4273 -2.77106 0
M  V30 1762 H 164.091 -2.67442 -1.34592 0
M  V30 1763 H 161.637 -1.28694 -0.646048 0
M  V30 1764 H 163.59 -2.02602 -3.695 0
M  V30 1765 H 162.314 -0.916844 -3.13467 0
M  V30 1766 H 160.973 -2.87065 -2.28012 0
M  V30 1767 H 160.621 -2.02136 -4.60597 0
M  V30 1768 H 160.321 -3.77439 -4.50348 0
M  V30 1769 H 161.845 -3.17354 -5.2165 0
M  V30 1770 H 163.259 -4.58727 -3.43864 0
M  V30 1771 H 161.656 -5.21893 -2.96222 0
M  V30 1772 H 162.726 -4.53087 -1.72744 0
M  V30 1773 N 164.069 0.697108 -1.41344 0
M  V30 1774 C 165.017 1.83237 -1.43272 0
M  V30 1775 C 166.011 1.66522 -0.310947 0
M  V30 1776 O 167.217 1.73402 -0.482899 0
M  V30 1777 H 163.592 0.603802 -0.448249 0
M  V30 1778 H 165.563 1.78727 -2.38954 0
M  V30 1779 C 164.312 3.21245 -1.33029 0
M  V30 1780 H 163.635 3.34723 -2.18633 0
M  V30 1781 H 165.075 4.00763 -1.38439 0
M  V30 1782 C 163.534 3.36873 -0.0424635 0
M  V30 1783 O 164.064 3.91177 0.913421 0
M  V30 1784 N 162.27 2.90581 0.0331145 0
M  V30 1785 H 161.817 2.46577 -0.745506 0
M  V30 1786 H 161.775 3.01416 0.894199 0
M  V30 1787 N 165.547 1.27147 0.931209 0
M  V30 1788 C 166.494 1.09568 2.03134 0
M  V30 1789 C 167.464 -0.00222433 1.661 0
M  V30 1790 O 168.649 0.159439 1.90133 0
M  V30 1791 C 165.789 0.745231 3.36957 0
M  V30 1792 C 164.902 1.92041 3.86968 0
M  V30 1793 C 164.037 1.51216 5.09222 0
M  V30 1794 C 163.076 2.65504 5.5152 0
M  V30 1795 N 162.213 2.25291 6.64972 0
M  V30 1796 H 167.053 2.03708 2.17502 0
M  V30 1797 H 164.59 1.01411 1.06556 0
M  V30 1798 H 166.548 0.522878 4.1391 0
M  V30 1799 H 165.178 -0.159202 3.22407 0
M  V30 1800 H 164.23 2.25541 3.06326 0
M  V30 1801 H 165.542 2.77787 4.1429 0
M  V30 1802 H 164.696 1.25084 5.93666 0
M  V30 1803 H 163.435 0.625749 4.83669 0
M  V30 1804 H 162.44 2.92354 4.65628 0
M  V30 1805 H 163.665 3.54761 5.7907 0
M  V30 1806 H 161.611 1.39098 6.41083 0
M  V30 1807 H 161.528 3.04577 6.91931 0
M  V30 1808 H 162.796 2.02398 7.52765 0
M  V30 1809 N 167.025 -1.13721 1.09112 0
M  V30 1810 C 168.253 -1.88773 0.846899 0
M  V30 1811 C 168.668 -1.7896 -0.601572 0
M  V30 1812 O 168.025 -1.15394 -1.41388 0
M  V30 1813 C 168.076 -3.3849 1.26913 0
M  V30 1814 O 167.797 -3.48043 2.66079 0
M  V30 1815 C 169.298 -4.30518 1.05682 0
M  V30 1816 H 166.518 -0.59772 0.304914 0
M  V30 1817 H 169.062 -1.43977 1.45227 0
M  V30 1818 H 167.217 -3.80881 0.707723 0
M  V30 1819 H 167.631 -4.4109 2.83795 0
M  V30 1820 H 169.105 -5.3391 1.40156 0
M  V30 1821 H 169.582 -4.392 -0.00563416 0
M  V30 1822 H 170.188 -3.93893 1.60402 0
M  V30 1823 N 168.503 -0.877838 -1.30888 0
M  V30 1824 C 169.749 -0.493426 -1.96706 0
M  V30 1825 C 170.082 0.953504 -1.6918 0
M  V30 1826 O 169.357 1.67266 -0.992594 0
M  V30 1827 C 169.64 -0.760429 -3.51979 0
M  V30 1828 C 169.493 -2.25747 -3.89048 0
M  V30 1829 C 170.812 -0.232148 -4.39487 0
M  V30 1830 H 167.931 -0.180746 -0.714493 0
M  V30 1831 H 170.573 -1.10052 -1.54882 0
M  V30 1832 H 168.723 -0.243715 -3.87735 0
M  V30 1833 H 170.395 -2.84204 -3.63354 0
M  V30 1834 H 168.638 -2.72694 -3.37373 0
M  V30 1835 H 169.309 -2.39491 -4.97341 0
M  V30 1836 H 171.785 -0.674314 -4.106 0
M  V30 1837 H 170.661 -0.448355 -5.47066 0
M  V30 1838 H 170.922 0.866297 -4.33529 0
M  V30 1839 N 169.982 1.44106 -0.638065 0
M  V30 1840 C 171.231 2.01194 -0.142744 0
M  V30 1841 C 171.544 1.50835 1.24532 0
M  V30 1842 O 172.75 2.00096 1.83504 0
M  V30 1843 C 171.206 3.59319 -0.20442 0
M  V30 1844 C 170.814 4.18674 -1.59423 0
M  V30 1845 C 172.558 4.23854 0.234079 0
M  V30 1846 C 170.465 5.69045 -1.61065 0
M  V30 1847 H 169.395 0.752367 -0.0495998 0
M  V30 1848 H 172.046 1.65246 -0.797881 0
M  V30 1849 H 170.428 3.92598 0.517946 0
M  V30 1850 H 171.602 3.96921 -2.34074 0
M  V30 1851 H 169.917 3.66453 -1.97741 0
M  V30 1852 H 172.514 5.34155 0.241443 0
M  V30 1853 H 172.857 3.96688 1.2627 0
M  V30 1854 H 173.39 3.95403 -0.436025 0
M  V30 1855 H 170.129 6.00956 -2.61787 0
M  V30 1856 H 169.649 5.929 -0.90718 0
M  V30 1857 H 171.328 6.32809 -1.34766 0
M  V30 1858 N 171.46 0.379036 1.52974 0
M  V30 1859 C 172.708 -0.206014 2.01047 0
M  V30 1860 C 173.029 -1.48175 1.26765 0
M  V30 1861 O 172.299 -1.92085 0.384743 0
M  V30 1862 H 170.879 -0.0791184 0.742798 0
M  V30 1863 H 173.541 0.508366 1.88153 0
M  V30 1864 H 172.637 -0.423501 3.09213 0
M  V30 1865 N 172.938 -1.57226 0.108567 0
M  V30 1866 C 174.215 -1.86333 -0.594939 0
M  V30 1867 C 174.595 -1.00788 -1.85486 0
M  V30 1868 O 173.943 -0.0839293 -2.28346 0
M  V30 1869 C 174.153 -3.37265 -0.897405 0
M  V30 1870 C 175.501 -4.05629 -1.25501 0
M  V30 1871 O 176.525 -3.42224 -0.987998 0
M  V30 1872 O 175.384 -5.17531 -1.75567 0
M  V30 1873 H 172.478 -0.771018 -0.2991 0
M  V30 1874 H 175.024 -1.69102 0.142283 0
M  V30 1875 H 173.796 -3.913 -0.00413806 0
M  V30 1876 H 173.419 -3.59889 -1.69014 0
M  V30 1877 N 174.416 0.165178 -1.56732 0
M  V30 1878 C 175.646 0.894919 -1.86212 0
M  V30 1879 C 176.054 1.76066 -0.692627 0
M  V30 1880 O 175.397 1.80387 0.347303 0
M  V30 1881 C 175.459 1.8174 -3.10179 0
M  V30 1882 C 175.123 1.13064 -4.42793 0
M  V30 1883 C 176.12 0.493169 -5.17556 0
M  V30 1884 C 173.805 1.12556 -4.89527 0
M  V30 1885 C 175.799 -0.140209 -6.37246 0
M  V30 1886 C 173.486 0.488366 -6.09145 0
M  V30 1887 C 174.484 -0.143411 -6.82849 0
M  V30 1888 O 174.172 -0.77055 -8.00199 0
M  V30 1889 H 173.904 0.265114 -0.621844 0
M  V30 1890 H 176.458 0.168242 -2.0471 0
M  V30 1891 H 174.688 2.58455 -2.87642 0
M  V30 1892 H 176.377 2.4175 -3.26055 0
M  V30 1893 H 177.143 0.489023 -4.82528 0
M  V30 1894 H 173.022 1.60672 -4.32094 0
M  V30 1895 H 176.566 -0.633932 -6.94714 0
M  V30 1896 H 172.463 0.490116 -6.43637 0
M  V30 1897 H 173.231 -0.670408 -8.1575 0
M  V30 1898 N 175.894 1.51508 0.433938 0
M  V30 1899 C 176.824 1.76016 1.53429 0
M  V30 1900 C 177.805 0.610112 1.58782 0
M  V30 1901 O 178.99 0.853177 1.74455 0
M  V30 1902 C 176.12 1.88831 2.9148 0
M  V30 1903 C 175.074 3.04288 3.00987 0
M  V30 1904 C 174.4 3.0229 4.4105 0
M  V30 1905 C 175.7 4.44193 2.74754 0
M  V30 1906 H 177.394 2.68152 1.33171 0
M  V30 1907 H 174.94 1.29035 0.639214 0
M  V30 1908 H 176.893 2.04559 3.6842 0
M  V30 1909 H 175.617 0.933455 3.12976 0
M  V30 1910 H 174.276 2.8827 2.26486 0
M  V30 1911 H 173.924 2.04576 4.59519 0
M  V30 1912 H 173.624 3.79822 4.4834 0
M  V30 1913 H 175.148 3.20116 5.1996 0
M  V30 1914 H 176.562 4.60544 3.41426 0
M  V30 1915 H 174.959 5.23457 2.9345 0
M  V30 1916 H 176.029 4.53996 1.70339 0
M  V30 1917 N 177.372 -0.689602 1.41712 0
M  V30 1918 C 178.62 -1.4468 1.4111 0
M  V30 1919 C 178.941 -1.94986 0.0232196 0
M  V30 1920 O 178.211 -1.72097 -0.935913 0
M  V30 1921 H 176.791 -0.536847 0.519427 0
M  V30 1922 H 179.453 -0.815825 1.77004 0
M  V30 1923 H 178.549 -2.30706 2.10193 0
M  V30 1924 N 178.85 -1.27639 -0.924453 0
M  V30 1925 C 179.76 -1.12466 -2.05885 0
M  V30 1926 C 180.776 -0.053869 -1.73917 0
M  V30 1927 O 181.952 -0.261012 -1.99702 0
M  V30 1928 C 179.017 -0.776768 -3.37886 0
M  V30 1929 C 178.078 -1.92878 -3.83532 0
M  V30 1930 C 177.311 -1.59739 -5.09234 0
M  V30 1931 O 177.534 -0.506782 -5.68144 0
M  V30 1932 O 176.468 -2.43761 -5.50331 0
M  V30 1933 H 180.294 -2.07671 -2.21599 0
M  V30 1934 H 177.879 -1.06857 -1.04413 0
M  V30 1935 H 179.761 -0.596229 -4.17161 0
M  V30 1936 H 178.436 0.145732 -3.23372 0
M  V30 1937 H 177.343 -2.1644 -3.0513 0
M  V30 1938 H 178.676 -2.8316 -4.02593 0
M  V30 1939 N 180.328 1.1314 -1.09713 0
M  V30 1940 C 181.744 1.36477 -0.827423 0
M  V30 1941 C 181.944 1.93654 0.556817 0
M  V30 1942 O 181 2.15791 1.31112 0
M  V30 1943 C 182.313 2.31334 -1.92106 0
M  V30 1944 C 183.861 2.44943 -1.94864 0
M  V30 1945 C 184.336 3.4311 -3.0338 0
M  V30 1946 N 185.827 3.50662 -3.02639 0
M  V30 1947 C 186.562 4.2651 -3.83246 0
M  V30 1948 N 186.058 5.05485 -4.73768 0
M  V30 1949 N 187.851 4.2184 -3.71493 0
M  V30 1950 H 180.002 0.743807 -1.9895 0
M  V30 1951 H 182.265 0.389823 -0.864143 0
M  V30 1952 H 181.971 1.96483 -2.91698 0
M  V30 1953 H 181.845 3.31381 -1.80184 0
M  V30 1954 H 184.232 2.79079 -0.959099 0
M  V30 1955 H 184.313 1.4481 -2.10864 0
M  V30 1956 H 183.957 3.09704 -4.02549 0
M  V30 1957 H 183.887 4.43055 -2.84622 0
M  V30 1958 H 186.378 2.94315 -2.37039 0
M  V30 1959 H 186.691 5.60675 -5.3185 0
M  V30 1960 H 185.036 5.04708 -4.77802 0
M  V30 1961 H 188.227 3.5922 -3.00131 0
M  V30 1962 H 188.4 4.80697 -4.3455 0
M  V30 1963 N 181.806 0.884767 1.30421 0
M  V30 1964 C 183.083 0.423185 1.90967 0
M  V30 1965 C 183.463 -1.09605 1.80416 0
M  V30 1966 O 182.811 -1.93126 1.22125 0
M  V30 1967 C 183.021 0.921056 3.36627 0
M  V30 1968 C 184.369 0.955903 4.137 0
M  V30 1969 O 185.393 0.867706 3.4547 0
M  V30 1970 O 184.252 1.08614 5.35598 0
M  V30 1971 H 181.346 0.129369 0.816819 0
M  V30 1972 H 183.892 0.973653 1.3899 0
M  V30 1973 H 182.664 1.96489 3.3839 0
M  V30 1974 H 182.287 0.349741 3.96059 0
M  V30 1975 N 183.284 -1.43765 0.645699 0
M  V30 1976 C 184.194 -2.34544 -0.0512957 0
M  V30 1977 C 185.21 -1.53455 -0.82022 0
M  V30 1978 O 186.386 -1.86133 -0.769176 0
M  V30 1979 C 183.451 -3.31636 -1.01087 0
M  V30 1980 C 182.512 -4.2863 -0.239712 0
M  V30 1981 C 181.745 -5.21084 -1.15358 0
M  V30 1982 O 181.968 -5.1779 -2.39269 0
M  V30 1983 O 180.902 -5.98593 -0.630038 0
M  V30 1984 H 184.728 -2.95624 0.695718 0
M  V30 1985 H 182.313 -1.43781 0.405882 0
M  V30 1986 H 184.195 -3.9136 -1.56254 0
M  V30 1987 H 182.87 -2.73069 -1.73824 0
M  V30 1988 H 181.777 -3.72408 0.355356 0
M  V30 1989 H 183.11 -4.90157 0.447936 0
M  V30 1990 N 184.763 -0.387143 -1.52771 0
M  V30 1991 C 186.01 0.195735 -2.01552 0
M  V30 1992 C 186.338 1.46995 -1.27369 0
M  V30 1993 O 185.593 1.92325 -0.361879 0
M  V30 1994 C 185.892 0.512209 -3.53711 0
M  V30 1995 C 185.558 -0.670202 -4.45891 0
M  V30 1996 C 184.22 -0.994586 -4.70809 0
M  V30 1997 C 186.572 -1.46134 -5.00294 0
M  V30 1998 C 183.9 -2.11169 -5.4738 0
M  V30 1999 C 186.252 -2.56903 -5.78086 0
M  V30 2000 C 184.916 -2.89852 -6.01284 0
M  V30 2001 H 184.186 0.0716246 -0.73753 0
M  V30 2002 H 186.833 -0.524046 -1.8419 0
M  V30 2003 H 185.138 1.31329 -3.69134 0
M  V30 2004 H 186.835 0.975804 -3.88946 0
M  V30 2005 H 183.425 -0.407366 -4.2666 0
M  V30 2006 H 187.609 -1.22397 -4.80971 0
M  V30 2007 H 182.865 -2.3707 -5.63567 0
M  V30 2008 H 187.039 -3.18608 -6.19243 0
M  V30 2009 H 184.666 -3.76533 -6.60399 0
M  V30 2010 N 186.241 1.57166 -0.116904 0
M  V30 2011 C 187.189 2.16457 0.851418 0
M  V30 2012 C 188.183 1.11323 1.27686 0
M  V30 2013 O 189.389 1.2963 1.24884 0
M  V30 2014 H 185.764 0.69271 0.292672 0
M  V30 2015 H 187.735 2.96605 0.32685 0
M  V30 2016 C 186.484 2.77689 2.09246 0
M  V30 2017 H 185.807 3.58285 1.77402 0
M  V30 2018 H 187.247 3.22716 2.7501 0
M  V30 2019 C 185.706 1.74667 2.88085 0
M  V30 2020 O 186.236 1.19877 3.83396 0
M  V30 2021 N 184.442 1.44656 2.52038 0
M  V30 2022 H 183.989 1.89402 1.74599 0
M  V30 2023 H 183.947 0.759675 3.05084 0
M  V30 2024 N 187.719 -0.156864 1.56817 0
M  V30 2025 C 188.968 -0.869504 1.81996 0
M  V30 2026 C 189.281 -1.82777 0.696545 0
M  V30 2027 O 190.487 -2.58384 0.833658 0
M  V30 2028 C 188.943 -1.59679 3.22538 0
M  V30 2029 C 188.551 -0.681431 4.42787 0
M  V30 2030 C 190.295 -2.2968 3.56997 0
M  V30 2031 C 188.202 -1.40978 5.74351 0
M  V30 2032 H 187.132 -0.328438 0.678708 0
M  V30 2033 H 189.783 -0.1223 1.83092 0
M  V30 2034 H 188.165 -2.38927 3.158 0
M  V30 2035 H 189.339 0.0751166 4.60739 0
M  V30 2036 H 187.654 -0.0903431 4.16302 0
M  V30 2037 H 190.251 -2.84794 4.52544 0
M  V30 2038 H 190.594 -3.05707 2.82576 0
M  V30 2039 H 191.127 -1.57361 3.65352 0
M  V30 2040 H 187.866 -0.691561 6.51842 0
M  V30 2041 H 187.386 -2.13929 5.60352 0
M  V30 2042 H 189.065 -1.95337 6.16808 0
M  V30 2043 N 189.197 -1.51736 -0.425897 0
M  V30 2044 C 190.144 -1.73875 -1.51776 0
M  V30 2045 C 191.114 -0.580702 -1.55618 0
M  V30 2046 O 192.299 -0.81641 -1.72451 0
M  V30 2047 C 189.439 -1.88012 -2.89388 0
M  V30 2048 C 188.552 -3.15606 -2.94986 0
M  V30 2049 C 187.687 -3.20271 -4.23793 0
M  V30 2050 C 186.726 -4.42134 -4.23302 0
M  V30 2051 N 185.863 -4.44284 -5.43651 0
M  V30 2052 H 190.703 -2.67071 -1.32201 0
M  V30 2053 H 188.24 -1.32351 -0.642008 0
M  V30 2054 H 190.198 -1.9419 -3.69251 0
M  V30 2055 H 188.828 -0.98213 -3.07496 0
M  V30 2056 H 187.88 -3.18681 -2.07717 0
M  V30 2057 H 189.192 -4.05486 -2.90486 0
M  V30 2058 H 188.346 -3.25428 -5.12036 0
M  V30 2059 H 187.085 -2.28299 -4.30965 0
M  V30 2060 H 186.09 -4.3714 -3.3345 0
M  V30 2061 H 187.315 -5.35382 -4.17783 0
M  V30 2062 H 185.261 -3.55188 -5.51523 0
M  V30 2063 H 185.178 -5.27988 -5.41078 0
M  V30 2064 H 186.446 -4.53649 -6.33895 0
M  V30 2065 N 190.675 0.682077 -1.42076 0
M  V30 2066 C 191.921 1.44428 -1.42367 0
M  V30 2067 C 192.254 1.94164 -0.0373056 0
M  V30 2068 O 191.529 1.70429 0.937239 0
M  V30 2069 C 191.812 2.64654 -2.44194 0
M  V30 2070 C 191.665 2.20596 -3.91991 0
M  V30 2071 C 192.984 3.66865 -2.431 0
M  V30 2072 H 190.103 0.523834 -0.518428 0
M  V30 2073 H 192.745 0.77576 -1.73442 0
M  V30 2074 H 190.895 3.2169 -2.17826 0
M  V30 2075 H 192.567 1.68783 -4.29313 0
M  V30 2076 H 190.81 1.52242 -4.06208 0
M  V30 2077 H 191.481 3.06921 -4.58807 0
M  V30 2078 H 193.957 3.19531 -2.66532 0
M  V30 2079 H 192.833 4.48577 -3.16339 0
M  V30 2080 H 193.094 4.17493 -1.45437 0
M  V30 2081 N 192.153 1.28127 0.917671 0
M  V30 2082 C 193.083 1.14248 2.03641 0
M  V30 2083 C 194.064 0.0412748 1.7005 0
M  V30 2084 O 195.249 0.217566 1.92977 0
M  V30 2085 C 192.379 0.799431 3.37974 0
M  V30 2086 C 191.333 1.85497 3.85713 0
M  V30 2087 C 190.659 1.36565 5.16966 0
M  V30 2088 C 191.959 3.26085 4.08002 0
M  V30 2089 H 193.653 2.07835 2.15511 0
M  V30 2090 H 191.199 1.00064 1.03553 0
M  V30 2091 H 193.152 0.689114 4.15727 0
M  V30 2092 H 191.876 -0.172145 3.26146 0
M  V30 2093 H 190.535 1.95437 3.10161 0
M  V30 2094 H 190.183 0.383253 5.01538 0
M  V30 2095 H 189.883 2.07143 5.49878 0
M  V30 2096 H 191.407 1.26848 5.97279 0
M  V30 2097 H 192.821 3.19089 4.76293 0
M  V30 2098 H 191.218 3.94462 4.52238 0
M  V30 2099 H 192.288 3.70394 3.12948 0
M  V30 2100 N 193.631 -1.12557 1.10312 0
M  V30 2101 C 194.563 -2.17971 0.708625 0
M  V30 2102 C 195.576 -1.60806 -0.254027 0
M  V30 2103 O 196.765 -1.78458 -0.0386891 0
M  V30 2104 C 193.865 -3.38891 0.0248198 0
M  V30 2105 C 193.038 -4.25548 1.01132 0
M  V30 2106 C 192.097 -5.24972 0.35924 0
M  V30 2107 O 191.123 -5.60174 1.00965 0
M  V30 2108 N 192.325 -5.73747 -0.882847 0
M  V30 2109 H 195.09 -2.52427 1.61557 0
M  V30 2110 H 192.651 -1.27967 0.991771 0
M  V30 2111 H 194.643 -4.02485 -0.422852 0
M  V30 2112 H 193.213 -3.02596 -0.784514 0
M  V30 2113 H 192.433 -3.58589 1.6373 0
M  V30 2114 H 193.721 -4.80294 1.67914 0
M  V30 2115 H 193.119 -5.4731 -1.43065 0
M  V30 2116 H 191.676 -6.39234 -1.27369 0
M  V30 2117 N 195.109 -0.891671 -1.2995 0
M  V30 2118 C 196.072 -0.36828 -2.26222 0
M  V30 2119 C 197.072 0.493014 -1.53056 0
M  V30 2120 O 198.262 0.299213 -1.71611 0
M  V30 2121 C 195.394 0.47442 -3.37583 0
M  V30 2122 H 196.587 -1.21844 -2.74033 0
M  V30 2123 H 194.14 -0.669107 -1.41254 0
M  V30 2124 H 194.875 1.34489 -2.95099 0
M  V30 2125 H 194.66 -0.142615 -3.91841 0
M  V30 2126 H 196.15 0.83218 -4.09224 0
M  V30 2127 N 196.587 1.43421 -0.653314 0
M  V30 2128 C 197.834 2.01812 -0.166745 0
M  V30 2129 C 198.162 1.51535 1.21931 0
M  V30 2130 O 197.417 0.698975 1.82792 0
M  V30 2131 C 197.716 3.57176 -0.126623 0
M  V30 2132 C 197.382 4.26798 -1.45444 0
M  V30 2133 C 196.044 4.45534 -1.81805 0
M  V30 2134 C 198.396 4.66225 -2.32989 0
M  V30 2135 C 195.724 5.00961 -3.05377 0
M  V30 2136 C 198.076 5.23021 -3.55853 0
M  V30 2137 C 196.74 5.39973 -3.9241 0
M  V30 2138 H 196.01 0.738484 -0.0610162 0
M  V30 2139 H 198.657 1.71896 -0.84404 0
M  V30 2140 H 196.962 3.86634 0.634123 0
M  V30 2141 H 198.659 4.00112 0.266723 0
M  V30 2142 H 195.249 4.12561 -1.16153 0
M  V30 2143 H 199.433 4.51443 -2.06187 0
M  V30 2144 H 194.689 5.12271 -3.3375 0
M  V30 2145 H 198.863 5.52518 -4.23907 0
M  V30 2146 H 196.49 5.82687 -4.88242 0
M  V30 2147 N 198.065 0.39524 1.52563 0
M  V30 2148 C 199.311 -0.185318 2.01952 0
M  V30 2149 C 199.644 -1.45964 1.28095 0
M  V30 2150 O 198.919 -1.90689 0.38315 0
M  V30 2151 C 199.202 -0.447193 3.57312 0
M  V30 2152 C 199.055 0.842828 4.41833 0
M  V30 2153 C 200.374 -1.23529 4.22408 0
M  V30 2154 H 197.493 -0.0658788 0.73405 0
M  V30 2155 H 200.135 0.525975 1.82575 0
M  V30 2156 H 198.285 -1.05312 3.73954 0
M  V30 2157 H 199.957 1.4795 4.36931 0
M  V30 2158 H 198.2 1.45686 4.08605 0
M  V30 2159 H 198.871 0.614165 5.48573 0
M  V30 2160 H 201.347 -0.722445 4.0978 0
M  V30 2161 H 200.223 -1.38727 5.3108 0
M  V30 2162 H 200.484 -2.25213 3.80436 0
M  V30 2163 N 199.544 -1.57102 0.125237 0
M  V30 2164 C 200.454 -2.19191 -0.8362 0
M  V30 2165 C 201.47 -1.16985 -1.28805 0
M  V30 2166 O 202.646 -1.49479 -1.34974 0
M  V30 2167 C 199.711 -2.78407 -2.06617 0
M  V30 2168 C 198.772 -3.9567 -1.66565 0
M  V30 2169 C 198.005 -4.52052 -2.83698 0
M  V30 2170 O 198.228 -4.07326 -3.99302 0
M  V30 2171 O 197.162 -5.42645 -2.60423 0
M  V30 2172 H 200.988 -3.01816 -0.337776 0
M  V30 2173 H 198.573 -1.4906 -0.100695 0
M  V30 2174 H 200.455 -3.16129 -2.7864 0
M  V30 2175 H 199.13 -1.9881 -2.55453 0
M  V30 2176 H 198.037 -3.62705 -0.916296 0
M  V30 2177 H 199.37 -4.76722 -1.22464 0
M  V30 2178 N 201.022 0.148545 -1.56898 0
M  V30 2179 C 201.952 1.18524 -2.01182 0
M  V30 2180 C 202.933 1.4489 -0.891123 0
M  V30 2181 O 204.118 1.55836 -1.15882 0
M  V30 2182 C 201.248 2.51879 -2.39112 0
M  V30 2183 C 200.202 2.40038 -3.54353 0
M  V30 2184 C 199.528 3.78089 -3.78091 0
M  V30 2185 C 200.828 1.88577 -4.87069 0
M  V30 2186 H 202.522 0.817029 -2.88036 0
M  V30 2187 H 200.068 0.391575 -1.38574 0
M  V30 2188 H 202.021 3.24627 -2.68692 0
M  V30 2189 H 200.745 2.90532 -1.49193 0
M  V30 2190 H 199.404 1.69742 -3.24936 0
M  V30 2191 H 199.052 4.14175 -2.85426 0
M  V30 2192 H 198.752 3.71028 -4.55645 0
M  V30 2193 H 200.276 4.52387 -4.10095 0
M  V30 2194 H 201.69 2.51117 -5.15377 0
M  V30 2195 H 200.087 1.9241 -5.68417 0
M  V30 2196 H 201.157 0.84136 -4.77545 0
M  V30 2197 N 202.5 1.5196 0.417844 0
M  V30 2198 C 203.45 1.7106 1.5074 0
M  V30 2199 C 204.434 0.564487 1.50673 0
M  V30 2200 O 205.626 0.821206 1.56797 0
M  V30 2201 C 202.755 1.85677 2.88754 0
M  V30 2202 C 201.841 3.06133 2.93502 0
M  V30 2203 N 202.232 4.28987 2.67962 0
M  V30 2204 C 200.53 3.05787 3.24669 0
M  V30 2205 C 201.231 5.10395 2.79055 0
M  V30 2206 N 200.207 4.45455 3.11561 0
M  V30 2207 H 204.009 2.63696 1.29775 0
M  V30 2208 H 201.523 1.49873 0.625436 0
M  V30 2209 H 203.52 1.97475 3.67164 0
M  V30 2210 H 202.18 0.942348 3.10725 0
M  V30 2211 H 203.191 4.57607 2.4252 0
M  V30 2212 H 199.868 2.2405 3.52289 0
M  V30 2213 H 201.258 6.18247 2.63097 0
M  V30 2214 N 203.978 -0.674533 1.42435 0
M  V30 2215 C 204.888 -1.81751 1.48337 0
M  V30 2216 C 205.904 -1.69975 0.372099 0
M  V30 2217 O 207.08 -1.91521 0.62304 0
M  V30 2218 C 204.145 -3.17895 1.38361 0
M  V30 2219 C 203.206 -3.41625 2.59982 0
M  V30 2220 C 202.439 -4.71274 2.50473 0
M  V30 2221 O 202.662 -5.49197 1.54075 0
M  V30 2222 O 201.596 -4.96254 3.4061 0
M  V30 2223 H 205.422 -1.79728 2.44809 0
M  V30 2224 H 203.007 -0.830312 1.24202 0
M  V30 2225 H 204.889 -3.99136 1.35161 0
M  V30 2226 H 203.564 -3.20555 0.450144 0
M  V30 2227 H 202.471 -2.60231 2.68757 0
M  V30 2228 H 203.804 -3.43796 3.52229 0
M  V30 2229 N 205.456 -1.28612 -0.910864 0
M  V30 2230 C 206.703 -1.15934 -1.66029 0
M  V30 2231 C 207.031 0.291483 -1.92303 0
M  V30 2232 O 206.286 1.22816 -1.52364 0
M  V30 2233 C 206.585 -1.90624 -3.0232 0
M  V30 2234 C 206.251 -3.40405 -2.95695 0
M  V30 2235 C 204.913 -3.81255 -2.93595 0
M  V30 2236 C 207.265 -4.359 -2.85728 0
M  V30 2237 C 204.593 -5.15936 -2.79334 0
M  V30 2238 C 206.945 -5.70657 -2.73007 0
M  V30 2239 C 205.609 -6.10779 -2.69267 0
M  V30 2240 H 204.879 -0.424234 -0.607541 0
M  V30 2241 H 207.526 -1.5942 -1.06101 0
M  V30 2242 H 205.831 -1.39696 -3.6605 0
M  V30 2243 H 207.528 -1.78228 -3.59215 0
M  V30 2244 H 204.118 -3.07927 -2.98125 0
M  V30 2245 H 208.302 -4.053 -2.86436 0
M  V30 2246 H 203.558 -5.46146 -2.74835 0
M  V30 2247 H 207.732 -6.44311 -2.64264 0
M  V30 2248 H 205.359 -7.1509 -2.57974 0
M  V30 2249 N 206.934 1.1197 -1.10907 0
M  V30 2250 C 207.897 2.16031 -0.765707 0
M  V30 2251 C 208.897 1.59393 0.212235 0
M  V30 2252 O 210.087 1.74196 -0.0115441 0
M  V30 2253 C 207.219 3.40632 -0.135053 0
M  V30 2254 H 208.412 2.47919 -1.68748 0
M  V30 2255 H 205.965 1.27061 -0.910226 0
M  V30 2256 H 206.7 3.14348 0.797218 0
M  V30 2257 H 206.485 3.8302 -0.838937 0
M  V30 2258 H 207.975 4.17505 0.0892469 0
M  V30 2259 N 208.412 0.89855 1.29475 0
M  V30 2260 C 209.689 0.443416 1.90508 0
M  V30 2261 C 210.069 -1.07685 1.81569 0
M  V30 2262 O 209.417 -1.9182 1.24166 0
M  V30 2263 C 209.627 0.956708 3.35631 0
M  V30 2264 C 210.975 0.999728 4.12663 0
M  V30 2265 O 211.999 0.904299 3.4453 0
M  V30 2266 O 210.858 1.14289 5.34416 0
M  V30 2267 H 207.952 0.138025 0.815401 0
M  V30 2268 H 210.498 0.98834 1.37949 0
M  V30 2269 H 209.27 2.00067 3.36287 0
M  V30 2270 H 208.893 0.391728 3.95666 0
M  V30 2271 N 209.89 -1.43072 0.660911 0
M  V30 2272 C 210.82 -2.33497 -0.0122829 0
M  V30 2273 C 211.801 -1.49903 -0.803925 0
M  V30 2274 O 212.986 -1.78546 -0.763864 0
M  V30 2275 C 210.116 -3.33363 -0.973994 0
M  V30 2276 C 209.07 -4.27003 -0.291928 0
M  V30 2277 C 208.396 -5.16967 -1.36562 0
M  V30 2278 C 209.696 -5.15816 0.820462 0
M  V30 2279 H 211.39 -2.90038 0.742873 0
M  V30 2280 H 208.936 -1.39461 0.358688 0
M  V30 2281 H 210.889 -3.95524 -1.45392 0
M  V30 2282 H 209.613 -2.75095 -1.7604 0
M  V30 2283 H 208.272 -3.66217 0.167623 0
M  V30 2284 H 207.92 -4.55034 -2.14366 0
M  V30 2285 H 207.62 -5.80441 -0.914454 0
M  V30 2286 H 209.144 -5.82003 -1.84675 0
M  V30 2287 H 210.558 -5.71742 0.422366 0
M  V30 2288 H 208.955 -5.8805 1.19656 0
M  V30 2289 H 210.025 -4.55045 1.67518 0
M  V30 2290 N 211.368 -0.403325 -1.52352 0
M  V30 2291 C 212.316 0.439752 -2.28405 0
M  V30 2292 C 213.31 1.05089 -1.32863 0
M  V30 2293 O 214.516 0.989759 -1.50345 0
M  V30 2294 H 210.891 0.160587 -0.734653 0
M  V30 2295 H 212.862 -0.222983 -2.97566 0
M  V30 2296 C 211.611 1.54736 -3.11371 0
M  V30 2297 H 210.934 1.08643 -3.84755 0
M  V30 2298 H 212.374 2.1112 -3.67701 0
M  V30 2299 C 210.833 2.51141 -2.24566 0
M  V30 2300 O 211.363 3.54887 -1.88196 0
M  V30 2301 N 209.569 2.21213 -1.8845 0
M  V30 2302 H 209.116 1.36878 -2.18225 0
M  V30 2303 H 209.074 2.85963 -1.30662 0
M  V30 2304 N 212.846 1.57033 -0.133567 0
M  V30 2305 C 213.776 2.1909 0.807567 0
M  V30 2306 C 214.757 1.13517 1.26681 0
M  V30 2307 O 215.942 1.41809 1.32679 0
M  V30 2308 C 213.072 2.80188 2.05212 0
M  V30 2309 C 212.026 3.91471 1.73015 0
M  V30 2310 C 211.352 4.39443 3.04622 0
M  V30 2311 C 212.652 5.12886 0.987168 0
M  V30 2312 H 214.346 2.97988 0.290403 0
M  V30 2313 H 211.892 1.43335 0.138239 0
M  V30 2314 H 213.845 3.22264 2.71521 0
M  V30 2315 H 212.569 1.98601 2.59278 0
M  V30 2316 H 211.228 3.49993 1.0909 0
M  V30 2317 H 210.876 3.54695 3.56651 0
M  V30 2318 H 210.576 5.14495 2.83847 0
M  V30 2319 H 212.1 4.8418 3.72024 0
M  V30 2320 H 213.514 5.51891 1.55208 0
M  V30 2321 H 211.911 5.93615 0.87985 0
M  V30 2322 H 212.981 4.84894 -0.0235286 0
M  V30 2323 N 214.325 -0.140222 1.56975 0
M  V30 2324 C 215.571 -0.852949 1.83991 0
M  V30 2325 C 215.904 -1.80512 0.716187 0
M  V30 2326 O 215.179 -1.92479 -0.279681 0
M  V30 2327 C 215.462 -1.6215 3.21527 0
M  V30 2328 C 215.315 -0.690363 4.4447 0
M  V30 2329 C 216.634 -2.58247 3.56366 0
M  V30 2330 H 213.753 -0.308634 0.669264 0
M  V30 2331 H 216.395 -0.117898 1.89634 0
M  V30 2332 H 214.545 -2.24812 3.16847 0
M  V30 2333 H 216.217 -0.0742264 4.6124 0
M  V30 2334 H 214.46 -0.000396433 4.338 0
M  V30 2335 H 215.131 -1.2643 5.37326 0
M  V30 2336 H 217.607 -2.05701 3.61699 0
M  V30 2337 H 216.483 -3.09067 4.53617 0
M  V30 2338 H 216.744 -3.39923 2.82674 0
M  V30 2339 N 215.803 -1.52179 -0.40978 0
M  V30 2340 C 216.735 -1.71703 -1.51825 0
M  V30 2341 C 217.748 -0.597445 -1.51441 0
M  V30 2342 O 218.937 -0.872582 -1.55719 0
M  V30 2343 C 216.037 -1.74171 -2.90719 0
M  V30 2344 C 215.21 -3.03156 -3.15302 0
M  V30 2345 C 214.269 -2.97445 -4.34065 0
M  V30 2346 O 213.295 -3.71352 -4.31377 0
M  V30 2347 N 214.497 -2.15191 -5.39141 0
M  V30 2348 H 217.262 -2.67334 -1.35472 0
M  V30 2349 H 214.823 -1.50409 -0.599069 0
M  V30 2350 H 216.815 -1.67884 -3.68235 0
M  V30 2351 H 215.385 -0.860166 -3.00533 0
M  V30 2352 H 214.605 -3.23097 -2.25836 0
M  V30 2353 H 215.893 -3.88484 -3.28569 0
M  V30 2354 H 215.291 -1.54573 -5.44173 0
M  V30 2355 H 213.848 -2.1476 -6.15403 0
M  V30 2356 N 217.281 0.66697 -1.42791 0
M  V30 2357 C 218.244 1.76211 -1.46568 0
M  V30 2358 C 219.244 1.56896 -0.352196 0
M  V30 2359 O 220.434 1.63044 -0.613364 0
M  V30 2360 C 217.566 3.14935 -1.30494 0
M  V30 2361 H 218.759 1.74247 -2.44086 0
M  V30 2362 H 216.312 0.877342 -1.29354 0
M  V30 2363 H 217.047 3.2252 -0.339301 0
M  V30 2364 H 216.832 3.30359 -2.11199 0
M  V30 2365 H 218.322 3.94821 -1.36038 0
M  V30 2366 N 218.759 1.29093 0.90403 0
M  V30 2367 C 219.689 1.16401 2.02418 0
M  V30 2368 C 220.67 0.0593085 1.69997 0
M  V30 2369 O 221.855 0.238021 1.92736 0
M  V30 2370 C 218.985 0.835233 3.37107 0
M  V30 2371 C 217.939 1.89578 3.83724 0
M  V30 2372 C 217.265 1.42041 5.15489 0
M  V30 2373 C 218.565 3.30394 4.04521 0
M  V30 2374 H 220.259 2.10109 2.13295 0
M  V30 2375 H 217.805 1.01157 1.02486 0
M  V30 2376 H 219.758 0.733169 4.14973 0
M  V30 2377 H 218.482 -0.137543 3.2631 0
M  V30 2378 H 217.141 1.98715 3.08071 0
M  V30 2379 H 216.789 0.436426 5.01103 0
M  V30 2380 H 216.489 2.12964 5.4765 0
M  V30 2381 H 218.013 1.33176 5.959 0
M  V30 2382 H 219.427 3.24123 4.72882 0
M  V30 2383 H 217.824 3.99237 4.48029 0
M  V30 2384 H 218.894 3.73692 3.09002 0
M  V30 2385 N 220.237 -1.11381 1.11499 0
M  V30 2386 C 221.653 -1.35143 0.849031 0
M  V30 2387 C 221.853 -1.94515 -0.525938 0
M  V30 2388 O 220.909 -2.1785 -1.27662 0
M  V30 2389 C 222.222 -2.28249 1.95762 0
M  V30 2390 C 223.77 -2.41812 1.98736 0
M  V30 2391 C 224.245 -3.3824 3.088 0
M  V30 2392 N 225.736 -3.45803 3.08179 0
M  V30 2393 C 226.471 -4.20358 3.89982 0
M  V30 2394 N 225.967 -4.97884 4.8175 0
M  V30 2395 N 227.76 -4.15877 3.78157 0
M  V30 2396 H 219.911 -0.712062 2.00109 0
M  V30 2397 H 222.174 -0.376025 0.870235 0
M  V30 2398 H 221.88 -1.91817 2.94787 0
M  V30 2399 H 221.754 -3.28473 1.85433 0
M  V30 2400 H 224.141 -2.77518 1.00338 0
M  V30 2401 H 224.222 -1.41437 2.13141 0
M  V30 2402 H 223.866 -3.03261 4.07425 0
M  V30 2403 H 223.796 -4.38471 2.91635 0
M  V30 2404 H 226.287 -2.90506 2.41691 0
M  V30 2405 H 226.6 -5.52142 5.40702 0
M  V30 2406 H 224.945 -4.97043 4.85771 0
M  V30 2407 H 228.136 -3.544 3.05808 0
M  V30 2408 H 228.309 -4.73723 4.42143 0
M  V30 2409 N 221.715 -0.905404 -1.28997 0
M  V30 2410 C 222.647 -0.344748 -2.26592 0
M  V30 2411 C 223.66 0.512135 -1.54535 0
M  V30 2412 O 224.849 0.328368 -1.75454 0
M  V30 2413 C 221.949 0.526587 -3.34784 0
M  V30 2414 C 221.122 -0.305871 -4.36329 0
M  V30 2415 C 220.181 0.499209 -5.23827 0
M  V30 2416 O 219.207 -0.0853004 -5.69136 0
M  V30 2417 N 220.409 1.80408 -5.51755 0
M  V30 2418 H 223.174 -1.18359 -2.75338 0
M  V30 2419 H 220.735 -0.770481 -1.42391 0
M  V30 2420 H 222.727 1.07171 -3.90252 0
M  V30 2421 H 221.297 1.26613 -2.85811 0
M  V30 2422 H 220.517 -1.0324 -3.80441 0
M  V30 2423 H 221.805 -0.875773 -5.01206 0
M  V30 2424 H 221.203 2.3016 -5.16762 0
M  V30 2425 H 219.76 2.29621 -6.10014 0
M  V30 2426 N 223.193 1.4272 -0.668489 0
M  V30 2427 C 224.44 2.01624 -0.18814 0
M  V30 2428 C 224.768 1.5282 1.20317 0
M  V30 2429 O 224.023 0.718323 1.8204 0
M  V30 2430 C 224.322 3.57021 -0.164499 0
M  V30 2431 C 223.988 4.25232 -1.49962 0
M  V30 2432 C 222.65 4.4358 -1.8652 0
M  V30 2433 C 225.002 4.63727 -2.37921 0
M  V30 2434 C 222.33 4.97694 -3.10674 0
M  V30 2435 C 224.682 5.19218 -3.6138 0
M  V30 2436 C 223.346 5.3578 -3.98115 0
M  V30 2437 H 222.616 0.737795 -0.0688454 0
M  V30 2438 H 225.263 1.70991 -0.862225 0
M  V30 2439 H 223.568 3.87285 0.593079 0
M  V30 2440 H 225.265 4.00372 0.224271 0
M  V30 2441 H 221.855 4.11306 -1.20522 0
M  V30 2442 H 226.039 4.4923 -2.10964 0
M  V30 2443 H 221.295 5.08702 -3.39164 0
M  V30 2444 H 225.469 5.4799 -4.29743 0
M  V30 2445 H 223.096 5.77475 -4.94395 0
M  V30 2446 N 224.671 0.411399 1.52136 0
M  V30 2447 C 225.601 -0.404015 2.29978 0
M  V30 2448 C 226.582 -1.04412 1.34284 0
M  V30 2449 O 227.767 -1.0527 1.63192 0
M  V30 2450 C 224.897 -1.5197 3.12286 0
M  V30 2451 C 223.851 -1.00448 4.16046 0
M  V30 2452 C 223.177 -2.21393 4.86712 0
M  V30 2453 C 224.477 -0.0569336 5.22269 0
M  V30 2454 H 226.171 0.245529 2.98392 0
M  V30 2455 H 223.717 0.119525 1.43503 0
M  V30 2456 H 225.67 -2.09715 3.6551 0
M  V30 2457 H 224.394 -2.19716 2.41646 0
M  V30 2458 H 223.053 -0.449421 3.63835 0
M  V30 2459 H 222.701 -2.87699 4.12599 0
M  V30 2460 H 222.401 -1.87571 5.56858 0
M  V30 2461 H 223.925 -2.7974 5.4275 0
M  V30 2462 H 225.339 -0.54325 5.7072 0
M  V30 2463 H 223.736 0.192594 5.99791 0
M  V30 2464 H 224.806 0.887663 4.76706 0
M  V30 2465 N 226.149 -1.5696 0.141893 0
M  V30 2466 C 227.395 -1.97034 -0.504884 0
M  V30 2467 C 227.75 -1.02518 -1.62812 0
M  V30 2468 O 227.043 -0.0592943 -1.91508 0
M  V30 2469 C 227.237 -3.41242 -1.06249 0
M  V30 2470 C 227.066 -4.497 0.00519653 0
M  V30 2471 C 225.836 -5.03338 0.444873 0
M  V30 2472 C 228.034 -5.08122 0.794767 0
M  V30 2473 N 226.016 -5.95395 1.49593 0
M  V30 2474 C 227.387 -5.96339 1.69645 0
M  V30 2475 C 229.442 -4.9071 0.843122 0
M  V30 2476 C 228.145 -6.69009 2.64233 0
M  V30 2477 C 230.171 -5.64077 1.77681 0
M  V30 2478 C 229.533 -6.51999 2.66603 0
M  V30 2479 H 225.632 -0.766745 -0.153707 0
M  V30 2480 H 228.216 -1.93273 0.235313 0
M  V30 2481 H 226.387 -3.45606 -1.77231 0
M  V30 2482 H 228.119 -3.68389 -1.67546 0
M  V30 2483 H 224.874 -4.73576 0.0480959 0
M  V30 2484 H 225.298 -6.46128 2.02107 0
M  V30 2485 H 229.94 -4.22459 0.169732 0
M  V30 2486 H 227.658 -7.36492 3.32575 0
M  V30 2487 H 231.244 -5.52602 1.81996 0
M  V30 2488 H 230.124 -7.07775 3.37675 0
M  V30 2489 N 227.627 0.131896 -1.57047 0
M  V30 2490 C 228.852 0.860418 -1.8871 0
M  V30 2491 C 229.277 1.73251 -0.73251 0
M  V30 2492 O 228.635 1.785 0.317429 0
M  V30 2493 C 228.683 1.68047 -3.19049 0
M  V30 2494 O 227.787 2.7862 -3.04047 0
M  V30 2495 H 227.128 0.238743 -0.619595 0
M  V30 2496 H 229.658 0.118169 -2.04258 0
M  V30 2497 H 229.668 2.07238 -3.51449 0
M  V30 2498 H 228.343 1.04018 -4.02682 0
M  V30 2499 H 226.92 2.42726 -2.83088 0
M  V30 2500 N 229.106 1.52395 0.401703 0
M  V30 2501 C 230.353 1.66817 1.14796 0
M  V30 2502 C 230.681 0.401772 1.90305 0
M  V30 2503 O 229.936 -0.615487 1.85769 0
M  V30 2504 C 230.235 2.84578 2.16217 0
M  V30 2505 C 229.901 4.22513 1.5746 0
M  V30 2506 C 228.563 4.60029 1.41161 0
M  V30 2507 C 230.915 5.0844 1.14622 0
M  V30 2508 C 228.243 5.81144 0.80552 0
M  V30 2509 C 230.595 6.30167 0.55428 0
M  V30 2510 C 229.259 6.66426 0.378482 0
M  V30 2511 H 228.529 0.610428 0.420069 0
M  V30 2512 H 231.176 1.86512 0.434212 0
M  V30 2513 H 229.481 2.59248 2.93764 0
M  V30 2514 H 231.178 2.92933 2.73845 0
M  V30 2515 H 227.768 3.92953 1.71132 0
M  V30 2516 H 231.952 4.80034 1.26021 0
M  V30 2517 H 227.208 6.07855 0.657399 0
M  V30 2518 H 231.382 6.96071 0.213983 0
M  V30 2519 H 229.009 7.60143 -0.0932606 0
M  V30 2520 N 230.584 -0.659388 1.43143 0
M  V30 2521 C 232 -0.974337 1.26407 0
M  V30 2522 C 232.2 -2.007 0.179341 0
M  V30 2523 O 231.256 -2.4856 -0.444295 0
M  V30 2524 C 232.569 -1.46447 2.62628 0
M  V30 2525 C 234.117 -1.58144 2.7011 0
M  V30 2526 C 234.592 -2.1055 4.06734 0
M  V30 2527 N 236.083 -2.17861 4.08767 0
M  V30 2528 C 236.818 -2.59519 5.1131 0
M  V30 2529 N 236.314 -3.00518 6.24228 0
M  V30 2530 N 238.107 -2.59404 4.98664 0
M  V30 2531 H 230.258 0.0240528 2.12386 0
M  V30 2532 H 232.521 -0.0518065 0.946583 0
M  V30 2533 H 232.227 -0.780123 3.42939 0
M  V30 2534 H 232.101 -2.44058 2.87603 0
M  V30 2535 H 234.488 -2.25682 1.90136 0
M  V30 2536 H 234.569 -0.589828 2.48907 0
M  V30 2537 H 234.213 -1.43616 4.87172 0
M  V30 2538 H 234.143 -3.10531 4.25298 0
M  V30 2539 H 236.634 -1.88975 3.27257 0
M  V30 2540 H 236.947 -3.31036 6.98309 0
M  V30 2541 H 235.292 -2.98337 6.2771 0
M  V30 2542 H 238.483 -2.26747 4.09516 0
M  V30 2543 H 238.656 -2.91548 5.78709 0
M  V30 2544 N 232.062 -1.29571 -0.897171 0
M  V30 2545 C 232.992 -1.17473 -2.01798 0
M  V30 2546 C 233.973 -0.068323 -1.69963 0
M  V30 2547 O 235.158 -0.248239 -1.92607 0
M  V30 2548 C 232.288 -0.853099 -3.36659 0
M  V30 2549 C 231.242 -1.9161 -3.82713 0
M  V30 2550 C 230.568 -1.44773 -5.14728 0
M  V30 2551 C 231.868 -3.32535 -4.02763 0
M  V30 2552 H 233.562 -2.11237 -2.12177 0
M  V30 2553 H 231.108 -1.01699 -1.01948 0
M  V30 2554 H 233.061 -0.755165 -4.14578 0
M  V30 2555 H 231.785 0.120236 -3.26379 0
M  V30 2556 H 230.444 -2.00346 -3.07013 0
M  V30 2557 H 230.092 -0.462995 -5.00865 0
M  V30 2558 H 229.792 -2.15865 -5.46513 0
M  V30 2559 H 231.316 -1.36334 -5.95185 0
M  V30 2560 H 232.73 -3.26626 -4.71156 0
M  V30 2561 H 231.127 -4.01607 -4.45905 0
M  V30 2562 H 232.197 -3.75326 -3.07016 0
M  V30 2563 N 233.54 1.10788 -1.12088 0
M  V30 2564 C 234.951 1.64181 -0.88891 0
M  V30 2565 C 235.302 1.87508 0.577498 0
M  V30 2566 O 234.427 1.61434 1.44112 0
M  V30 2567 C 235.022 2.98257 -1.60712 0
M  V30 2568 C 233.581 3.4853 -1.42139 0
M  V30 2569 C 232.728 2.23208 -1.6454 0
M  V30 2570 H 235.679 0.943368 -1.27618 0
M  V30 2571 H 235.7 3.65552 -1.05604 0
M  V30 2572 H 235.212 2.81246 -2.67436 0
M  V30 2573 H 233.313 3.70692 -0.376552 0
M  V30 2574 H 233.426 4.26882 -2.17505 0
M  V30 2575 H 231.79 2.31169 -1.06925 0
M  V30 2576 H 232.573 2.08733 -2.72554 0
M  V30 2577 N 235.018 0.912232 1.28515 0
M  V30 2578 C 236.266 0.543523 1.94654 0
M  V30 2579 C 236.587 -0.9155 1.72173 0
M  V30 2580 O 235.857 -1.64708 1.06058 0
M  V30 2581 H 234.437 0.198017 0.720277 0
M  V30 2582 H 237.099 1.16126 1.56527 0
M  V30 2583 H 236.195 0.736684 3.03281 0
M  V30 2584 N 236.496 -1.42363 0.676048 0
M  V30 2585 C 237.406 -2.346 -0.00153389 0
M  V30 2586 C 238.422 -1.5516 -0.787485 0
M  V30 2587 O 239.598 -1.87723 -0.729521 0
M  V30 2588 C 236.663 -3.33705 -0.940298 0
M  V30 2589 C 235.724 -4.29042 -0.148739 0
M  V30 2590 C 234.957 -5.23413 -1.04279 0
M  V30 2591 O 235.18 -5.22749 -2.28232 0
M  V30 2592 O 234.114 -5.99795 -0.502925 0
M  V30 2593 H 237.94 -2.94082 0.758268 0
M  V30 2594 H 235.525 -1.42888 0.436289 0
M  V30 2595 H 237.407 -3.94586 -1.47917 0
M  V30 2596 H 236.082 -2.76695 -1.67993 0
M  V30 2597 H 234.989 -3.71571 0.43427 0
M  V30 2598 H 236.322 -4.89097 0.551805 0
M  V30 2599 N 237.974 -0.419461 -1.51915 0
M  V30 2600 C 238.937 0.389116 -2.25873 0
M  V30 2601 C 239.937 0.964924 -1.28631 0
M  V30 2602 O 241.127 0.842179 -1.52489 0
M  V30 2603 C 238.259 1.54874 -3.03689 0
M  V30 2604 H 239.452 -0.258799 -2.98781 0
M  V30 2605 H 237.005 -0.172209 -1.55348 0
M  V30 2606 H 237.74 2.23323 -2.35154 0
M  V30 2607 H 237.525 1.14223 -3.75094 0
M  V30 2608 H 239.015 2.12046 -3.59759 0
M  V30 2609 N 239.452 1.56882 -0.150215 0
M  V30 2610 C 240.384 2.14057 0.819286 0
M  V30 2611 C 241.397 1.09082 1.20851 0
M  V30 2612 O 242.586 1.36347 1.15203 0
M  V30 2613 C 239.686 2.65102 2.11127 0
M  V30 2614 C 238.859 3.94511 1.88891 0
M  V30 2615 C 237.918 4.30834 3.02107 0
M  V30 2616 O 236.944 4.99099 2.73659 0
M  V30 2617 N 238.146 3.90676 4.29363 0
M  V30 2618 H 240.911 2.97871 0.330618 0
M  V30 2619 H 238.472 1.61866 0.0332538 0
M  V30 2620 H 240.464 2.86411 2.85921 0
M  V30 2621 H 239.034 1.85994 2.51247 0
M  V30 2622 H 238.254 3.81795 0.981152 0
M  V30 2623 H 239.542 4.7907 1.71376 0
M  V30 2624 H 238.94 3.35677 4.55343 0
M  V30 2625 H 237.497 4.1703 5.00928 0
M  V30 2626 N 240.93 -0.123565 1.57115 0
M  V30 2627 C 241.877 -1.15177 2.00007 0
M  V30 2628 C 242.847 -1.41403 0.871454 0
M  V30 2629 O 244.032 -1.53346 1.13533 0
M  V30 2630 C 241.172 -2.47436 2.40561 0
M  V30 2631 C 240.285 -2.28184 3.66819 0
M  V30 2632 C 239.42 -3.53641 3.96373 0
M  V30 2633 C 238.459 -3.29528 5.15827 0
M  V30 2634 N 237.596 -4.47175 5.41275 0
M  V30 2635 H 242.436 -0.779008 2.87638 0
M  V30 2636 H 239.973 -0.373166 1.42288 0
M  V30 2637 H 241.931 -3.24584 2.62109 0
M  V30 2638 H 240.561 -2.82614 1.55978 0
M  V30 2639 H 239.613 -1.41976 3.52912 0
M  V30 2640 H 240.925 -2.0634 4.5412 0
M  V30 2641 H 240.079 -4.39209 4.18545 0
M  V30 2642 H 238.818 -3.78512 3.07538 0
M  V30 2643 H 237.823 -2.42349 4.93505 0
M  V30 2644 H 239.048 -3.06031 6.06236 0
M  V30 2645 H 236.994 -4.72175 4.55397 0
M  V30 2646 H 236.911 -4.28419 6.22891 0
M  V30 2647 H 238.179 -5.3389 5.67963 0
M  V30 2648 N 242.408 -1.52605 -0.393616 0
M  V30 2649 C 243.657 -1.66649 -1.13627 0
M  V30 2650 C 243.97 -0.410364 -1.91247 0
M  V30 2651 O 245.176 -0.430854 -2.68059 0
M  V30 2652 C 243.632 -2.9449 -2.06891 0
M  V30 2653 C 243.24 -4.27266 -1.34714 0
M  V30 2654 C 244.984 -3.17899 -2.81319 0
M  V30 2655 C 242.891 -5.46217 -2.26717 0
M  V30 2656 H 241.821 -0.62084 -0.427871 0
M  V30 2657 H 244.472 -1.791 -0.399428 0
M  V30 2658 H 242.854 -2.75774 -2.84191 0
M  V30 2659 H 244.028 -4.56518 -0.626714 0
M  V30 2660 H 242.343 -4.10081 -0.722643 0
M  V30 2661 H 244.94 -4.03949 -3.50328 0
M  V30 2662 H 245.283 -2.32777 -3.45139 0
M  V30 2663 H 245.816 -3.37159 -2.11113 0
M  V30 2664 H 242.555 -6.33733 -1.67521 0
M  V30 2665 H 242.075 -5.21283 -2.96689 0
M  V30 2666 H 243.754 -5.7991 -2.86903 0
M  V30 2667 N 243.887 0.651787 -1.4349 0
M  V30 2668 C 245.164 1.40909 -1.35661 0
M  V30 2669 C 245.544 2.11099 -0.00511733 0
M  V30 2670 O 244.892 2.04892 1.0115 0
M  V30 2671 C 245.102 2.3926 -2.54078 0
M  V30 2672 C 246.45 3.03217 -2.97228 0
M  V30 2673 O 247.474 2.49588 -2.54135 0
M  V30 2674 O 246.333 4.00455 -3.71885 0
M  V30 2675 H 243.427 0.629625 -0.536191 0
M  V30 2676 H 245.973 0.678575 -1.55542 0
M  V30 2677 H 244.745 1.86352 -3.44076 0
M  V30 2678 H 244.368 3.1976 -2.36303 0
M  V30 2679 N 245.365 1.30045 0.890287 0
M  V30 2680 C 246.781 1.08261 1.17268 0
M  V30 2681 C 246.981 -0.160063 2.00863 0
M  V30 2682 O 246.037 -0.855181 2.37577 0
M  V30 2683 C 247.35 2.34323 1.8845 0
M  V30 2684 C 248.898 2.39735 2.01237 0
M  V30 2685 C 249.373 3.65625 2.7583 0
M  V30 2686 N 250.864 3.66402 2.83379 0
M  V30 2687 C 251.599 4.60498 3.41657 0
M  V30 2688 N 251.095 5.64933 4.01026 0
M  V30 2689 N 252.888 4.48051 3.39421 0
M  V30 2690 H 245.039 2.09777 0.332762 0
M  V30 2691 H 247.302 0.92446 0.209948 0
M  V30 2692 H 247.008 3.2498 1.34465 0
M  V30 2693 H 246.882 2.4256 2.88867 0
M  V30 2694 H 249.269 1.4956 2.54393 0
M  V30 2695 H 249.35 2.35476 0.999232 0
M  V30 2696 H 248.994 4.56156 2.23347 0
M  V30 2697 H 248.924 3.67144 3.77509 0
M  V30 2698 H 251.415 2.90896 2.41222 0
M  V30 2699 H 251.728 6.32841 4.43545 0
M  V30 2700 H 250.073 5.68732 3.99461 0
M  V30 2701 H 253.264 3.65649 2.92264 0
M  V30 2702 H 253.437 5.21565 3.84544 0
M  V30 2703 N 246.843 -1.10192 1.12674 0
M  V30 2704 C 247.776 -2.15847 0.740625 0
M  V30 2705 C 248.754 -1.60352 -0.269421 0
M  V30 2706 O 249.938 -1.87796 -0.16278 0
M  V30 2707 C 247.065 -3.38562 0.096641 0
M  V30 2708 C 246.111 -4.12758 1.07391 0
M  V30 2709 S 246.944 -4.67997 2.60267 0
M  V30 2710 C 248.1 -5.94021 1.97206 0
M  V30 2711 H 248.333 -2.48266 1.63558 0
M  V30 2712 H 245.866 -1.22019 0.946087 0
M  V30 2713 H 247.824 -4.09621 -0.268535 0
M  V30 2714 H 246.485 -3.04377 -0.775462 0
M  V30 2715 H 245.678 -5.00755 0.570997 0
M  V30 2716 H 245.28 -3.47523 1.38216 0
M  V30 2717 H 247.572 -6.64589 1.31634 0
M  V30 2718 H 248.515 -6.48979 2.83253 0
M  V30 2719 H 248.923 -5.46169 1.42686 0
M  V30 2720 N 248.321 -0.919034 -1.28029 0
M  V30 2721 C 249.254 -0.355887 -2.25408 0
M  V30 2722 C 250.232 0.542874 -1.5327 0
M  V30 2723 O 251.416 0.485338 -1.82145 0
M  V30 2724 C 248.543 0.490759 -3.35126 0
M  V30 2725 C 247.589 -0.343358 -4.25116 0
M  V30 2726 S 248.422 -1.75344 -5.05979 0
M  V30 2727 C 249.578 -0.914244 -6.19187 0
M  V30 2728 H 249.811 -1.18123 -2.72826 0
M  V30 2729 H 247.344 -0.720636 -1.36551 0
M  V30 2730 H 249.302 0.973404 -3.98792 0
M  V30 2731 H 247.963 1.29054 -2.86363 0
M  V30 2732 H 247.156 0.304266 -5.03081 0
M  V30 2733 H 246.758 -0.759851 -3.662 0
M  V30 2734 H 249.05 -0.146282 -6.77342 0
M  V30 2735 H 249.993 -1.66661 -6.88208 0
M  V30 2736 H 250.401 -0.460082 -5.62622 0
M  V30 2737 N 249.799 1.42003 -0.683588 0
M  V30 2738 C 250.709 2.34597 -0.0109075 0
M  V30 2739 C 251.725 1.55576 0.779245 0
M  V30 2740 O 252.901 1.88107 0.719555 0
M  V30 2741 C 249.966 3.34199 0.922588 0
M  V30 2742 C 249.027 4.29115 0.125984 0
M  V30 2743 C 248.26 5.23959 1.01502 0
M  V30 2744 O 248.483 5.23952 2.25456 0
M  V30 2745 O 247.417 6.00053 0.47111 0
M  V30 2746 H 251.243 2.93675 -0.773853 0
M  V30 2747 H 248.828 1.42654 -0.443861 0
M  V30 2748 H 250.71 3.95365 1.45823 0
M  V30 2749 H 249.385 2.77582 1.66523 0
M  V30 2750 H 248.292 3.71335 -0.453969 0
M  V30 2751 H 249.625 4.88798 -0.577736 0
M  V30 2752 N 251.277 0.427512 1.51691 0
M  V30 2753 C 252.24 -0.377132 2.26076 0
M  V30 2754 C 253.24 -0.958089 1.29141 0
M  V30 2755 O 254.43 -0.83408 1.52934 0
M  V30 2756 C 251.562 -1.53262 3.04506 0
M  V30 2757 H 252.755 0.27464 2.9864 0
M  V30 2758 H 250.308 0.180445 1.55255 0
M  V30 2759 H 251.043 -2.22072 2.36335 0
M  V30 2760 H 250.828 -1.12232 3.75694 0
M  V30 2761 H 252.318 -2.10135 3.60878 0
M  V30 2762 N 252.755 -1.56801 0.158532 0
M  V30 2763 C 254.002 -1.9649 -0.489679 0
M  V30 2764 C 254.33 -1.04394 -1.6411 0
M  V30 2765 O 253.585 -0.0754401 -1.95555 0
M  V30 2766 C 253.884 -3.4235 -1.02623 0
M  V30 2767 C 253.55 -4.50899 0.00794526 0
M  V30 2768 C 252.212 -4.80312 0.292207 0
M  V30 2769 C 254.564 -5.16333 0.710584 0
M  V30 2770 C 251.892 -5.72461 1.28472 0
M  V30 2771 C 254.244 -6.09553 1.69199 0
M  V30 2772 C 252.908 -6.37339 1.98383 0
M  V30 2773 H 252.178 -0.719009 -0.179186 0
M  V30 2774 H 254.825 -1.8989 0.247798 0
M  V30 2775 H 253.13 -3.45838 -1.84128 0
M  V30 2776 H 254.827 -3.70393 -1.53656 0
M  V30 2777 H 251.417 -4.28015 -0.22379 0
M  V30 2778 H 255.601 -4.93732 0.504174 0
M  V30 2779 H 250.857 -5.92278 1.51714 0
M  V30 2780 H 255.031 -6.59327 2.24189 0
M  V30 2781 H 252.658 -7.08546 2.7544 0
M  V30 2782 N 254.233 0.115231 -1.57178 0
M  V30 2783 C 255.196 1.12526 -1.99676 0
M  V30 2784 C 256.196 1.34095 -0.88742 0
M  V30 2785 O 257.386 1.30548 -1.15337 0
M  V30 2786 C 254.518 2.4789 -2.34015 0
M  V30 2787 H 255.711 0.759912 -2.90113 0
M  V30 2788 H 253.264 0.359648 -1.52106 0
M  V30 2789 H 253.999 2.89339 -1.4647 0
M  V30 2790 H 253.784 2.33588 -3.14927 0
M  V30 2791 H 255.274 3.20575 -2.67622 0
M  V30 2792 N 255.711 1.52812 0.385517 0
M  V30 2793 C 256.936 1.72207 1.15583 0
M  V30 2794 C 257.361 0.441034 1.82857 0
M  V30 2795 O 256.719 -0.603465 1.70962 0
M  V30 2796 C 256.767 2.87476 2.17692 0
M  V30 2797 O 255.871 2.54693 3.24354 0
M  V30 2798 H 255.212 0.572526 0.336319 0
M  V30 2799 H 257.742 1.99618 0.448744 0
M  V30 2800 H 257.752 3.13072 2.6163 0
M  V30 2801 H 256.427 3.80408 1.68115 0
M  V30 2802 H 255.004 2.3985 2.85529 0
M  V30 2803 N 257.189 -0.644168 1.43834 0
M  V30 2804 C 258.605 -0.960875 1.27434 0
M  V30 2805 C 258.805 -2.00499 0.200618 0
M  V30 2806 O 257.861 -2.49018 -0.417906 0
M  V30 2807 C 259.174 -1.43653 2.64167 0
M  V30 2808 C 260.722 -1.55271 2.71772 0
M  V30 2809 C 261.197 -2.06224 4.08944 0
M  V30 2810 N 262.688 -2.13513 4.11055 0
M  V30 2811 C 263.423 -2.54081 5.14033 0
M  V30 2812 N 262.919 -2.9388 6.27381 0
M  V30 2813 N 264.712 -2.54101 5.01387 0
M  V30 2814 H 256.863 0.0465779 2.12349 0
M  V30 2815 H 259.126 -0.0417638 0.94708 0
M  V30 2816 H 258.832 -0.743706 3.43747 0
M  V30 2817 H 258.706 -2.40993 2.90176 0
M  V30 2818 H 261.093 -2.23653 1.92519 0
M  V30 2819 H 261.174 -0.563395 2.49519 0
M  V30 2820 H 260.818 -1.38441 4.88668 0
M  V30 2821 H 260.748 -3.06003 4.28567 0
M  V30 2822 H 263.239 -1.85493 3.29242 0
M  V30 2823 H 263.552 -3.2361 7.01781 0
M  V30 2824 H 261.897 -2.91663 6.30839 0
M  V30 2825 H 265.088 -2.22391 4.11898 0
M  V30 2826 H 265.261 -2.85394 5.81768 0
M  V30 2827 N 258.668 -1.30515 -0.883378 0
M  V30 2828 C 259.898 -1.22182 -1.66599 0
M  V30 2829 C 260.306 0.217507 -1.87946 0
M  V30 2830 O 259.649 1.1554 -1.42815 0
M  V30 2831 C 259.711 -1.88146 -3.06335 0
M  V30 2832 C 259.375 -3.37476 -3.08154 0
M  V30 2833 C 260.372 -4.33443 -2.87094 0
M  V30 2834 C 258.057 -3.7895 -3.29701 0
M  V30 2835 C 260.051 -5.68858 -2.8754 0
M  V30 2836 C 257.738 -5.14482 -3.29776 0
M  V30 2837 C 258.736 -6.09246 -3.0872 0
M  V30 2838 O 258.424 -7.42302 -3.08615 0
M  V30 2839 H 258.156 -0.423898 -0.52658 0
M  V30 2840 H 260.71 -1.72703 -1.11188 0
M  V30 2841 H 258.94 -1.32157 -3.63416 0
M  V30 2842 H 260.629 -1.7391 -3.66756 0
M  V30 2843 H 261.395 -4.02733 -2.70243 0
M  V30 2844 H 257.274 -3.05631 -3.45124 0
M  V30 2845 H 260.818 -6.428 -2.71024 0
M  V30 2846 H 256.715 -5.44832 -3.46163 0
M  V30 2847 H 257.483 -7.5131 -3.24769 0
M  V30 2848 N 260.146 1.09593 -1.13257 0
M  V30 2849 C 261.386 1.83349 -0.903472 0
M  V30 2850 C 261.75 1.83641 0.560351 0
M  V30 2851 O 262.951 2.53037 0.906947 0
M  V30 2852 C 261.222 3.25629 -1.47311 0
M  V30 2853 S 262.781 4.16408 -1.38382 0
M  V30 2854 H 259.599 0.632014 -0.325699 0
M  V30 2855 H 262.201 1.31817 -1.44376 0
M  V30 2856 H 260.905 3.22991 -2.53189 0
M  V30 2857 H 260.436 3.82233 -0.930689 0
M  V30 2858 H 262.451 4.94884 -0.361113 0
M  V30 2859 N 261.624 0.925811 1.2754 0
M  V30 2860 C 262.554 0.440748 2.29303 0
M  V30 2861 C 263.535 -0.497971 1.62648 0
M  V30 2862 O 264.72 -0.403126 1.8997 0
M  V30 2863 C 261.85 -0.309048 3.45922 0
M  V30 2864 C 260.804 0.54166 4.24559 0
M  V30 2865 C 260.13 -0.337191 5.33636 0
M  V30 2866 C 261.43 1.80516 4.90114 0
M  V30 2867 H 263.124 1.29121 2.70126 0
M  V30 2868 H 260.67 0.622323 1.29858 0
M  V30 2869 H 262.623 -0.659315 4.1621 0
M  V30 2870 H 261.347 -1.19352 3.04011 0
M  V30 2871 H 260.006 0.874609 3.56014 0
M  V30 2872 H 259.654 -1.22056 4.87966 0
M  V30 2873 H 259.354 0.228497 5.87156 0
M  V30 2874 H 260.878 -0.683072 6.06767 0
M  V30 2875 H 262.292 1.52307 5.52698 0
M  V30 2876 H 260.689 2.3142 5.53683 0
M  V30 2877 H 261.759 2.52581 4.13921 0
M  V30 2878 N 263.102 -1.41638 0.69111 0
M  V30 2879 C 264.342 -2.03166 0.224291 0
M  V30 2880 C 264.706 -1.53537 -1.15284 0
M  V30 2881 O 265.907 -2.0696 -1.71525 0
M  V30 2882 C 264.178 -3.56342 0.274758 0
M  V30 2883 S 265.737 -4.3864 -0.118669 0
M  V30 2884 H 262.555 -0.705188 0.0907263 0
M  V30 2885 H 265.157 -1.7314 0.907895 0
M  V30 2886 H 263.861 -3.89958 1.2791 0
M  V30 2887 H 263.392 -3.91063 -0.428142 0
M  V30 2888 H 265.407 -4.77549 -1.34764 0
M  V30 2889 N 264.58 -0.43555 -1.51462 0
M  V30 2890 C 265.528 0.391205 -2.29287 0
M  V30 2891 C 266.522 1.02247 -1.35062 0
M  V30 2892 O 267.728 0.957646 -1.52411 0
M  V30 2893 H 264.103 0.144968 -0.737895 0
M  V30 2894 H 266.074 -0.286051 -2.97026 0
M  V30 2895 C 264.823 1.48096 -3.14583 0
M  V30 2896 H 264.146 1.00457 -3.86973 0
M  V30 2897 H 265.586 2.03273 -3.72097 0
M  V30 2898 C 264.045 2.46321 -2.29843 0
M  V30 2899 O 264.575 3.50815 -1.95682 0
M  V30 2900 N 262.781 2.17166 -1.931 0
M  V30 2901 H 262.328 1.32218 -2.21079 0
M  V30 2902 H 262.286 2.83127 -1.36698 0
M  V30 2903 N 266.058 1.56714 -0.166846 0
M  V30 2904 C 267.469 1.83378 0.350646 0
M  V30 2905 C 267.82 1.08646 1.63372 0
M  V30 2906 O 266.945 0.338058 2.13743 0
M  V30 2907 C 267.54 3.32643 0.642963 0
M  V30 2908 C 266.099 3.59818 1.10491 0
M  V30 2909 C 265.246 2.76954 0.138411 0
M  V30 2910 H 268.197 1.53803 -0.391193 0
M  V30 2911 H 268.218 3.49878 1.49551 0
M  V30 2912 H 267.73 3.87007 -0.291055 0
M  V30 2913 H 265.831 3.1086 2.05418 0
M  V30 2914 H 265.944 4.68178 1.01716 0
M  V30 2915 H 264.308 2.4666 0.634911 0
M  V30 2916 H 265.091 3.34097 -0.789549 0
M  V30 2917 N 267.536 -0.106894 1.57237 0
M  V30 2918 C 268.784 -0.810921 1.85117 0
M  V30 2919 C 269.105 -1.7984 0.753827 0
M  V30 2920 O 268.375 -1.94649 -0.221056 0
M  V30 2921 H 266.955 -0.302466 0.683025 0
M  V30 2922 H 269.617 -0.0913324 1.94686 0
M  V30 2923 H 268.713 -1.34875 2.81452 0
M  V30 2924 N 269.014 -1.53014 -0.377408 0
M  V30 2925 C 270.26 -1.68872 -1.12294 0
M  V30 2926 C 270.593 -0.433224 -1.89306 0
M  V30 2927 O 269.868 0.569258 -1.85983 0
M  V30 2928 C 270.151 -2.93115 -2.09179 0
M  V30 2929 C 270.004 -4.28794 -1.35853 0
M  V30 2930 C 271.323 -3.12928 -3.09458 0
M  V30 2931 H 268.442 -0.614518 -0.406862 0
M  V30 2932 H 271.084 -1.85633 -0.40503 0
M  V30 2933 H 269.234 -2.78956 -2.70399 0
M  V30 2934 H 270.906 -4.54742 -0.775082 0
M  V30 2935 H 269.149 -4.28744 -0.660364 0
M  V30 2936 H 269.82 -5.11837 -2.06706 0
M  V30 2937 H 272.296 -3.26194 -2.58334 0
M  V30 2938 H 271.172 -4.01316 -3.74482 0
M  V30 2939 H 271.433 -2.27669 -3.78971 0
M  V30 2940 N 270.492 0.636531 -1.44174 0
M  V30 2941 C 271.739 1.39619 -1.46672 0
M  V30 2942 C 272.067 1.94257 -0.0972691 0
M  V30 2943 O 271.322 1.73768 0.900175 0
M  V30 2944 C 271.621 2.58309 -2.47005 0
M  V30 2945 C 271.287 2.21992 -3.92467 0
M  V30 2946 C 269.949 2.118 -4.32081 0
M  V30 2947 C 272.301 1.9321 -4.84065 0
M  V30 2948 C 269.629 1.71007 -5.61225 0
M  V30 2949 C 271.981 1.53911 -6.13591 0
M  V30 2950 C 270.645 1.42257 -6.52165 0
M  V30 2951 H 269.915 0.510902 -0.536712 0
M  V30 2952 H 272.562 0.722328 -1.77355 0
M  V30 2953 H 270.867 3.30903 -2.09786 0
M  V30 2954 H 272.564 3.16533 -2.46186 0
M  V30 2955 H 269.154 2.30841 -3.61124 0
M  V30 2956 H 273.338 1.99997 -4.54219 0
M  V30 2957 H 268.594 1.60583 -5.89935 0
M  V30 2958 H 272.768 1.30677 -6.8403 0
M  V30 2959 H 270.395 1.10419 -7.52138 0
M  V30 2960 N 271.97 1.30982 0.876444 0
M  V30 2961 C 272.902 1.13902 1.98894 0
M  V30 2962 C 273.915 0.0798815 1.62604 0
M  V30 2963 O 275.104 0.326743 1.75484 0
M  V30 2964 C 272.204 0.716699 3.31235 0
M  V30 2965 C 271.377 1.85945 3.95908 0
M  V30 2966 C 270.436 1.42426 5.06558 0
M  V30 2967 O 269.462 2.13287 5.27729 0
M  V30 2968 N 270.664 0.308025 5.79682 0
M  V30 2969 H 273.429 2.09724 2.14094 0
M  V30 2970 H 270.99 1.2323 1.05004 0
M  V30 2971 H 272.982 0.408403 4.02634 0
M  V30 2972 H 271.552 -0.149719 3.12241 0
M  V30 2973 H 270.772 2.33541 3.17573 0
M  V30 2974 H 272.06 2.62503 4.35855 0
M  V30 2975 H 271.458 -0.282241 5.64995 0
M  V30 2976 H 270.015 0.0592282 6.51773 0
M  V30 2977 N 273.449 -1.08991 1.13837 0
M  V30 2978 C 274.674 -1.85551 0.926585 0
M  V30 2979 C 275.099 -1.80782 -0.519566 0
M  V30 2980 O 274.457 -1.18855 -1.36906 0
M  V30 2981 C 274.505 -3.31266 1.42462 0
M  V30 2982 O 273.609 -4.07822 0.612789 0
M  V30 2983 H 272.95 -0.575192 0.331738 0
M  V30 2984 H 275.48 -1.37604 1.51414 0
M  V30 2985 H 275.49 -3.82112 1.43019 0
M  V30 2986 H 274.165 -3.34052 2.47754 0
M  V30 2987 H 272.742 -3.66731 0.675463 0
M  V30 2988 N 274.927 -0.932562 -1.27047 0
M  V30 2989 C 276.155 -0.592031 -1.98249 0
M  V30 2990 C 276.57 0.831062 -1.69525 0
M  V30 2991 O 275.927 1.55299 -0.958561 0
M  V30 2992 C 275.978 -0.814279 -3.5221 0
M  V30 2993 O 275.699 -2.18139 -3.7993 0
M  V30 2994 C 277.2 -0.483121 -4.4066 0
M  V30 2995 H 274.42 -0.223896 -0.632544 0
M  V30 2996 H 276.964 -1.25091 -1.61779 0
M  V30 2997 H 275.119 -0.20213 -3.86872 0
M  V30 2998 H 275.533 -2.235 -4.74498 0
M  V30 2999 H 277.007 -0.689298 -5.47679 0
M  V30 3000 H 277.484 0.581546 -4.35333 0
M  V30 3001 H 278.09 -1.07362 -4.11526 0
M  V30 3002 N 276.405 1.4127 -0.698611 0
M  V30 3003 C 277.682 1.94955 -0.158762 0
M  V30 3004 C 278.062 1.63781 1.33188 0
M  V30 3005 O 277.41 0.946423 2.07979 0
M  V30 3006 C 277.62 3.46044 -0.453309 0
M  V30 3007 C 278.968 4.22872 -0.382707 0
M  V30 3008 O 279.992 3.54076 -0.388396 0
M  V30 3009 O 278.851 5.45407 -0.345463 0
M  V30 3010 H 275.945 0.82683 -0.0167505 0
M  V30 3011 H 278.491 1.50971 -0.77498 0
M  V30 3012 H 277.263 3.62028 -1.48498 0
M  V30 3013 H 276.886 3.97128 0.19373 0
M  V30 3014 N 277.883 0.443576 1.51229 0
M  V30 3015 C 279.111 -0.11929 2.06556 0
M  V30 3016 C 279.526 -1.35921 1.31038 0
M  V30 3017 O 278.883 -1.78675 0.371704 0
M  V30 3018 C 278.934 -0.435228 3.5887 0
M  V30 3019 O 278.655 0.755486 4.31537 0
M  V30 3020 C 280.156 -1.04808 4.30732 0
M  V30 3021 H 277.376 -0.0051584 0.67098 0
M  V30 3022 H 279.92 0.624453 1.94733 0
M  V30 3023 H 278.075 -1.12887 3.70588 0
M  V30 3024 H 278.489 0.483491 5.22267 0
M  V30 3025 H 279.963 -1.2191 5.3837 0
M  V30 3026 H 280.44 -2.03081 3.89429 0
M  V30 3027 H 281.046 -0.393637 4.23474 0
M  V30 3028 N 279.361 -1.56624 0.175154 0
M  V30 3029 C 280.601 -1.98894 -0.471221 0
M  V30 3030 C 280.965 -1.05889 -1.60161 0
M  V30 3031 O 282.166 -1.37315 -2.3108 0
M  V30 3032 C 280.437 -3.44865 -0.938241 0
M  V30 3033 S 281.996 -4.09164 -1.58526 0
M  V30 3034 H 278.814 -0.694686 -0.151434 0
M  V30 3035 H 281.416 -1.93577 0.27352 0
M  V30 3036 H 280.12 -4.10265 -0.10518 0
M  V30 3037 H 279.651 -3.53956 -1.71693 0
M  V30 3038 H 281.666 -4.04528 -2.87352 0
M  V30 3039 N 280.839 0.0985539 -1.57292 0
M  V30 3040 C 282.069 0.815135 -1.8984 0
M  V30 3041 C 282.477 1.7297 -0.766679 0
M  V30 3042 O 281.82 1.81698 0.270483 0
M  V30 3043 C 281.882 1.6842 -3.17608 0
M  V30 3044 C 281.546 0.94182 -4.4719 0
M  V30 3045 C 282.543 0.273212 -5.19182 0
M  V30 3046 C 280.228 0.916927 -4.9386 0
M  V30 3047 C 282.222 -0.410361 -6.36078 0
M  V30 3048 C 279.909 0.229567 -6.10669 0
M  V30 3049 C 280.907 -0.432902 -6.81627 0
M  V30 3050 O 280.595 -1.10925 -7.9621 0
M  V30 3051 H 280.327 0.238501 -0.632529 0
M  V30 3052 H 282.881 0.0812659 -2.05239 0
M  V30 3053 H 281.111 2.46022 -2.98345 0
M  V30 3054 H 282.8 2.27704 -3.36015 0
M  V30 3055 H 283.566 0.283927 -4.84168 0
M  V30 3056 H 279.445 1.42201 -4.3852 0
M  V30 3057 H 282.989 -0.928013 -6.914 0
M  V30 3058 H 278.886 0.216686 -6.45136 0
M  V30 3059 H 279.654 -1.01579 -8.12172 0
M  V30 3060 N 282.317 1.53212 0.369288 0
M  V30 3061 C 283.563 1.69466 1.11397 0
M  V30 3062 C 283.896 0.443257 1.89074 0
M  V30 3063 O 283.171 -0.559386 1.86282 0
M  V30 3064 C 283.454 2.9422 2.07621 0
M  V30 3065 C 283.307 4.29508 1.33577 0
M  V30 3066 C 284.626 3.14565 3.07794 0
M  V30 3067 H 281.745 0.616667 0.403597 0
M  V30 3068 H 284.387 1.85845 0.395179 0
M  V30 3069 H 282.537 2.80387 2.68916 0
M  V30 3070 H 284.209 4.55147 0.750955 0
M  V30 3071 H 282.452 4.29088 0.637618 0
M  V30 3072 H 283.123 5.12926 2.03989 0
M  V30 3073 H 285.599 3.2756 2.56601 0
M  V30 3074 H 284.475 4.03297 3.72348 0
M  V30 3075 H 284.736 2.29675 3.77759 0
M  V30 3076 N 283.795 -0.628877 1.44509 0
M  V30 3077 C 284.725 -1.75187 1.54376 0
M  V30 3078 C 285.706 -1.65411 0.396618 0
M  V30 3079 O 286.891 -1.84137 0.617031 0
M  V30 3080 C 284.021 -3.13725 1.48976 0
M  V30 3081 C 282.975 -3.38291 2.62189 0
M  V30 3082 C 282.301 -4.76883 2.41841 0
M  V30 3083 C 283.601 -3.30632 4.04326 0
M  V30 3084 H 285.295 -1.67187 2.48373 0
M  V30 3085 H 282.841 -0.802909 1.19538 0
M  V30 3086 H 284.794 -3.92064 1.54478 0
M  V30 3087 H 283.518 -3.22515 0.514961 0
M  V30 3088 H 282.177 -2.62334 2.56079 0
M  V30 3089 H 281.825 -4.82378 1.42548 0
M  V30 3090 H 281.525 -4.94278 3.17747 0
M  V30 3091 H 283.049 -5.57449 2.49165 0
M  V30 3092 H 284.463 -3.98873 4.11793 0
M  V30 3093 H 282.86 -3.59561 4.80454 0
M  V30 3094 H 283.93 -2.28404 4.27738 0
M  V30 3095 N 285.273 -1.31445 -0.869486 0
M  V30 3096 C 286.498 -1.24256 -1.66058 0
M  V30 3097 C 286.923 0.188928 -1.87149 0
M  V30 3098 O 286.281 1.13522 -1.4136 0
M  V30 3099 C 286.329 -1.9924 -3.00559 0
M  V30 3100 O 285.433 -1.33007 -3.90362 0
M  V30 3101 H 284.774 -0.428973 -0.506831 0
M  V30 3102 H 287.304 -1.73521 -1.08404 0
M  V30 3103 H 287.314 -2.08854 -3.50491 0
M  V30 3104 H 285.989 -3.03342 -2.84528 0
M  V30 3105 H 284.566 -1.31848 -3.48813 0
M  V30 3106 N 286.751 1.08385 -1.14413 0
M  V30 3107 C 287.998 1.80776 -0.912482 0
M  V30 3108 C 288.326 1.86236 0.560934 0
M  V30 3109 O 287.581 1.33431 1.43159 0
M  V30 3110 C 287.88 3.26273 -1.45879 0
M  V30 3111 C 287.546 3.4093 -2.95089 0
M  V30 3112 C 286.208 3.44638 -3.35824 0
M  V30 3113 C 288.56 3.44591 -3.91033 0
M  V30 3114 C 285.888 3.49597 -4.71167 0
M  V30 3115 C 288.24 3.51086 -5.26233 0
M  V30 3116 C 286.904 3.53067 -5.6648 0
M  V30 3117 H 286.174 0.661507 -0.333901 0
M  V30 3118 H 288.821 1.27613 -1.42784 0
M  V30 3119 H 287.126 3.82146 -0.864376 0
M  V30 3120 H 288.823 3.80839 -1.2555 0
M  V30 3121 H 285.413 3.38736 -2.62594 0
M  V30 3122 H 289.597 3.40957 -3.60641 0
M  V30 3123 H 284.853 3.49424 -5.0171 0
M  V30 3124 H 289.027 3.52864 -6.00383 0
M  V30 3125 H 286.654 3.56662 -6.71339 0
M  V30 3126 N 288.23 0.939286 1.26551 0
M  V30 3127 C 289.193 0.451987 2.24699 0
M  V30 3128 C 290.193 -0.435869 1.5478 0
M  V30 3129 O 291.383 -0.235314 1.72603 0
M  V30 3130 C 288.515 -0.348801 3.39111 0
M  V30 3131 H 289.708 1.3193 2.69322 0
M  V30 3132 H 287.261 0.721072 1.38673 0
M  V30 3133 H 287.996 -1.23444 2.99887 0
M  V30 3134 H 287.781 0.287945 3.91041 0
M  V30 3135 H 289.271 -0.679726 4.12031 0
M  V30 3136 N 289.708 -1.40897 0.706093 0
M  V30 3137 C 290.957 -2.00284 0.238574 0
M  V30 3138 C 291.27 -1.56604 -1.17194 0
M  V30 3139 O 292.476 -2.08624 -1.73748 0
M  V30 3140 C 290.932 -3.57934 0.375623 0
M  V30 3141 C 290.54 -4.10591 1.79217 0
M  V30 3142 C 292.284 -4.24488 -0.0315857 0
M  V30 3143 C 290.191 -5.60712 1.88032 0
M  V30 3144 H 289.121 -0.749144 0.0854398 0
M  V30 3145 H 291.772 -1.61251 0.875813 0
M  V30 3146 H 290.154 -3.94622 -0.330042 0
M  V30 3147 H 291.328 -3.85301 2.52745 0
M  V30 3148 H 289.643 -3.56601 2.15 0
M  V30 3149 H 292.24 -5.34698 0.0136842 0
M  V30 3150 H 292.583 -4.02261 -1.072 0
M  V30 3151 H 293.116 -3.92873 0.624181 0
M  V30 3152 H 289.855 -5.87781 2.90161 0
M  V30 3153 H 289.375 -5.87896 1.18903 0
M  V30 3154 H 291.054 -6.25658 1.64805 0
M  V30 3155 N 291.186 -0.45159 -1.50991 0
M  V30 3156 C 292.435 0.111653 -2.01391 0
M  V30 3157 C 292.748 1.42529 -1.33959 0
M  V30 3158 O 293.954 2.07232 -1.75405 0
M  V30 3159 C 292.41 0.249514 -3.59034 0
M  V30 3160 C 292.018 -1.05453 -4.35412 0
M  V30 3161 C 293.762 0.765762 -4.17536 0
M  V30 3162 C 291.669 -0.881529 -5.84793 0
M  V30 3163 H 290.599 0.0455022 -0.752626 0
M  V30 3164 H 293.25 -0.583524 -1.73975 0
M  V30 3165 H 291.632 1.00803 -3.82955 0
M  V30 3166 H 292.806 -1.82248 -4.23229 0
M  V30 3167 H 291.121 -1.50039 -3.88429 0
M  V30 3168 H 293.718 0.911913 -5.26866 0
M  V30 3169 H 294.061 1.75201 -3.77638 0
M  V30 3170 H 294.594 0.0651744 -3.97747 0
M  V30 3171 H 291.333 -1.84057 -6.29129 0
M  V30 3172 H 290.853 -0.153625 -5.99603 0
M  V30 3173 H 292.532 -0.540363 -6.4474 0
M  V30 3174 N 292.664 1.56529 -0.183458 0
M  V30 3175 C 293.597 2.14417 0.781052 0
M  V30 3176 C 294.575 1.07761 1.21763 0
M  V30 3177 O 295.759 1.35807 1.30724 0
M  V30 3178 C 292.886 2.69361 2.05335 0
M  V30 3179 C 291.932 3.885 1.75982 0
M  V30 3180 S 292.765 5.27568 0.918256 0
M  V30 3181 C 293.921 5.85926 2.20095 0
M  V30 3182 H 294.154 2.95893 0.2889 0
M  V30 3183 H 291.687 1.54368 0.0313844 0
M  V30 3184 H 293.645 3.01662 2.78406 0
M  V30 3185 H 292.306 1.87949 2.51663 0
M  V30 3186 H 291.499 4.25314 2.70415 0
M  V30 3187 H 291.101 3.57149 1.10999 0
M  V30 3188 H 293.393 5.99579 3.15453 0
M  V30 3189 H 294.336 6.82761 1.87731 0
M  V30 3190 H 294.744 5.14438 2.32409 0
M  V30 3191 N 294.142 -0.090211 1.57342 0
M  V30 3192 C 295.072 -1.10976 2.05443 0
M  V30 3193 C 296.053 -1.41482 0.944284 0
M  V30 3194 O 297.238 -1.51428 1.21586 0
M  V30 3195 C 294.368 -2.42831 2.48295 0
M  V30 3196 C 293.322 -2.26721 3.63018 0
M  V30 3197 C 292.648 -3.63796 3.91863 0
M  V30 3198 C 293.948 -1.7037 4.93732 0
M  V30 3199 H 295.642 -0.709564 2.9087 0
M  V30 3200 H 293.188 -0.339874 1.39932 0
M  V30 3201 H 295.141 -3.14431 2.80555 0
M  V30 3202 H 293.865 -2.84795 1.59873 0
M  V30 3203 H 292.524 -1.57565 3.31012 0
M  V30 3204 H 292.172 -4.03297 3.00601 0
M  V30 3205 H 291.872 -3.53861 4.69101 0
M  V30 3206 H 293.396 -4.36855 4.26603 0
M  V30 3207 H 294.81 -2.31816 5.24342 0
M  V30 3208 H 293.207 -1.71181 5.75167 0
M  V30 3209 H 294.277 -0.663542 4.80339 0
M  V30 3210 N 295.62 -1.53406 -0.361157 0
M  V30 3211 C 296.568 -1.80832 -1.46296 0
M  V30 3212 C 297.562 -0.677699 -1.55253 0
M  V30 3213 O 298.768 -0.860723 -1.58087 0
M  V30 3214 H 295.143 -0.572627 -0.487445 0
M  V30 3215 H 297.114 -2.73045 -1.20371 0
M  V30 3216 C 295.863 -2.01907 -2.8307 0
M  V30 3217 H 295.186 -2.88349 -2.76938 0
M  V30 3218 H 296.626 -2.25072 -3.59331 0
M  V30 3219 C 295.085 -0.799449 -3.27277 0
M  V30 3220 O 295.615 0.00971761 -4.01699 0
M  V30 3221 N 293.821 -0.621637 -2.83873 0
M  V30 3222 H 293.368 -1.28126 -2.23476 0
M  V30 3223 H 293.326 0.19298 -3.13807 0
M  V30 3224 N 297.098 0.621204 -1.44841 0
M  V30 3225 C 298.326 1.40752 -1.51646 0
M  V30 3226 C 298.741 1.88246 -0.144549 0
M  V30 3227 O 298.098 1.61422 0.851416 0
M  V30 3228 C 298.149 2.62119 -2.4895 0
M  V30 3229 O 297.87 2.16602 -3.80808 0
M  V30 3230 C 299.371 3.55135 -2.65319 0
M  V30 3231 H 296.591 0.431325 -0.514004 0
M  V30 3232 H 299.135 0.758835 -1.899 0
M  V30 3233 H 297.29 3.23058 -2.13805 0
M  V30 3234 H 297.704 2.95358 -4.33433 0
M  V30 3235 H 299.178 4.36874 -3.37409 0
M  V30 3236 H 299.655 4.04592 -1.70886 0
M  V30 3237 H 300.261 3.00058 -3.01405 0
M  V30 3238 N 298.576 1.31904 0.862503 0
M  V30 3239 C 299.801 1.25135 1.65397 0
M  V30 3240 C 300.226 -0.179 1.87246 0
M  V30 3241 O 299.584 -1.1277 1.4196 0
M  V30 3242 C 299.632 2.00832 2.99498 0
M  V30 3243 O 298.736 1.35075 3.89652 0
M  V30 3244 H 298.077 0.431655 0.504549 0
M  V30 3245 H 300.607 1.74094 1.07483 0
M  V30 3246 H 300.617 2.10709 3.49379 0
M  V30 3247 H 299.292 3.04847 2.82916 0
M  V30 3248 H 297.869 1.33696 3.48109 0
M  V30 3249 N 300.054 -1.07777 1.14986 0
M  V30 3250 C 300.984 -2.16865 0.865557 0
M  V30 3251 C 301.965 -1.69123 -0.182083 0
M  V30 3252 O 303.15 -1.94164 -0.0373815 0
M  V30 3253 C 300.28 -3.45539 0.349313 0
M  V30 3254 C 299.234 -4.06708 1.33313 0
M  V30 3255 C 298.56 -5.30411 0.675918 0
M  V30 3256 C 299.86 -4.47241 2.69764 0
M  V30 3257 H 301.554 -2.40905 1.77778 0
M  V30 3258 H 299.1 -1.15781 0.856203 0
M  V30 3259 H 301.053 -4.21174 0.137983 0
M  V30 3260 H 299.777 -3.21072 -0.598362 0
M  V30 3261 H 298.436 -3.33112 1.53075 0
M  V30 3262 H 298.084 -5.02232 -0.277767 0
M  V30 3263 H 297.784 -5.72293 1.33244 0
M  V30 3264 H 299.308 -6.08755 0.474262 0
M  V30 3265 H 300.722 -5.14025 2.53873 0
M  V30 3266 H 299.119 -5.00062 3.3175 0
M  V30 3267 H 300.189 -3.58818 3.26156 0
M  V30 3268 N 301.532 -0.945985 -1.26051 0
M  V30 3269 C 302.482 -0.430164 -2.23905 0
M  V30 3270 C 303.466 0.47579 -1.53704 0
M  V30 3271 O 304.658 0.310252 -1.7426 0
M  V30 3272 C 301.787 0.298957 -3.41996 0
M  V30 3273 C 300.873 -0.624566 -4.19476 0
M  V30 3274 N 301.264 -1.75245 -4.74471 0
M  V30 3275 C 299.562 -0.431082 -4.43912 0
M  V30 3276 C 300.263 -2.32834 -5.3307 0
M  V30 3277 N 299.239 -1.61583 -5.1903 0
M  V30 3278 H 303.041 -1.29107 -2.64024 0
M  V30 3279 H 300.555 -0.802428 -1.41191 0
M  V30 3280 H 302.552 0.685565 -4.11225 0
M  V30 3281 H 301.212 1.15657 -3.03403 0
M  V30 3282 H 302.223 -2.13449 -4.71868 0
M  V30 3283 H 298.9 0.384364 -4.15727 0
M  V30 3284 H 300.29 -3.27893 -5.86461 0
M  V30 3285 N 303.011 1.40521 -0.713556 0
M  V30 3286 C 303.959 2.32549 -0.0485227 0
M  V30 3287 C 304.953 1.51931 0.74922 0
M  V30 3288 O 306.159 1.67745 0.652816 0
M  V30 3289 H 302.534 0.751994 0.00311138 0
M  V30 3290 H 304.505 2.86291 -0.841443 0
M  V30 3291 C 303.254 3.36879 0.860687 0
M  V30 3292 H 302.577 3.98978 0.256246 0
M  V30 3293 H 304.017 4.03772 1.294 0
M  V30 3294 C 302.476 2.72197 1.9852 0
M  V30 3295 O 303.006 2.5837 3.07584 0
M  V30 3296 N 301.212 2.30612 1.76823 0
M  V30 3297 H 300.759 2.42059 0.881217 0
M  V30 3298 H 300.717 1.87672 2.52243 0
M  V30 3299 N 304.489 0.459591 1.5075 0
M  V30 3300 C 305.439 -0.358926 2.25157 0
M  V30 3301 C 306.423 -0.971285 1.28276 0
M  V30 3302 O 307.615 -0.885739 1.53244 0
M  V30 3303 C 304.744 -1.44695 3.11317 0
M  V30 3304 C 303.83 -0.842894 4.15639 0
M  V30 3305 N 304.221 0.0299373 5.05791 0
M  V30 3306 C 302.519 -1.10809 4.32015 0
M  V30 3307 C 303.22 0.371563 5.80512 0
M  V30 3308 N 302.196 -0.250409 5.43023 0
M  V30 3309 H 305.998 0.313636 2.92222 0
M  V30 3310 H 303.512 0.273021 1.60089 0
M  V30 3311 H 305.509 -2.04641 3.63218 0
M  V30 3312 H 304.169 -2.12162 2.45799 0
M  V30 3313 H 305.18 0.39797 5.16369 0
M  V30 3314 H 301.857 -1.7786 3.77719 0
M  V30 3315 H 303.247 1.08319 6.63111 0
M  V30 3316 N 305.967 -1.56429 0.191757 0
M  V30 3317 C 306.915 -2.20273 -0.747174 0
M  V30 3318 C 307.909 -1.17288 -1.22229 0
M  V30 3319 O 309.115 -1.35441 -1.18557 0
M  V30 3320 H 305.49 -0.705885 -0.259289 0
M  V30 3321 H 307.461 -2.97826 -0.184963 0
M  V30 3322 C 306.21 -2.87356 -1.95759 0
M  V30 3323 H 305.533 -3.66341 -1.60106 0
M  V30 3324 H 306.973 -3.3547 -2.59299 0
M  V30 3325 C 305.432 -1.88213 -2.79423 0
M  V30 3326 O 305.962 -1.38033 -3.7724 0
M  V30 3327 N 304.168 -1.56516 -2.44849 0
M  V30 3328 H 303.715 -1.97516 -1.65364 0
M  V30 3329 H 303.673 -0.904369 -3.01112 0
M  V30 3330 N 307.445 0.0818655 -1.57387 0
M  V30 3331 C 308.691 0.784074 -1.8703 0
M  V30 3332 C 309.024 1.77729 -0.782689 0
M  V30 3333 O 308.299 1.93384 0.208051 0
M  V30 3334 C 308.582 1.50105 -3.27323 0
M  V30 3335 C 308.435 0.524925 -4.46727 0
M  V30 3336 C 309.754 2.44843 -3.65705 0
M  V30 3337 H 306.873 0.283582 -0.680257 0
M  V30 3338 H 309.515 0.0474352 -1.89941 0
M  V30 3339 H 307.665 2.12897 -3.24972 0
M  V30 3340 H 309.337 -0.0970111 -4.61198 0
M  V30 3341 H 307.58 -0.160606 -4.33503 0
M  V30 3342 H 308.251 1.064 -5.41648 0
M  V30 3343 H 310.727 1.92135 -3.69085 0
M  V30 3344 H 309.603 2.92018 -4.64776 0
M  V30 3345 H 309.864 3.29197 -2.95096 0
M  V30 3346 N 308.923 1.53595 0.353017 0
M  V30 3347 C 310.339 1.43648 0.695516 0
M  V30 3348 C 310.539 0.585617 1.92802 0
M  V30 3349 O 309.595 0.0729223 2.52395 0
M  V30 3350 C 310.908 2.8701 0.896991 0
M  V30 3351 C 312.456 2.96723 0.996209 0
M  V30 3352 C 312.931 4.41173 1.23007 0
M  V30 3353 N 314.422 4.44657 1.29749 0
M  V30 3354 C 315.157 5.53547 1.49577 0
M  V30 3355 N 314.653 6.72461 1.66639 0
M  V30 3356 N 316.446 5.41145 1.52048 0
M  V30 3357 H 308.597 2.07415 -0.457481 0
M  V30 3358 H 310.86 0.9372 -0.142687 0
M  V30 3359 H 310.566 3.51644 0.0629938 0
M  V30 3360 H 310.44 3.31401 1.80148 0
M  V30 3361 H 312.827 2.32235 1.82074 0
M  V30 3362 H 312.908 2.55707 0.0688331 0
M  V30 3363 H 312.552 5.06238 0.410505 0
M  V30 3364 H 312.482 4.79772 2.17086 0
M  V30 3365 H 314.973 3.58963 1.18126 0
M  V30 3366 H 315.286 7.51214 1.81378 0
M  V30 3367 H 313.631 6.75423 1.63794 0
M  V30 3368 H 316.822 4.47205 1.38294 0
M  V30 3369 H 316.995 6.26068 1.67159 0
M  V30 3370 N 310.401 -0.613514 1.45168 0
M  V30 3371 C 311.678 -1.37263 1.39349 0
M  V30 3372 C 312.058 -2.11012 0.0610848 0
M  V30 3373 O 311.406 -2.07502 -0.956825 0
M  V30 3374 C 311.616 -2.3244 2.60332 0
M  V30 3375 C 312.964 -2.9523 3.05163 0
M  V30 3376 O 313.988 -2.42762 2.60663 0
M  V30 3377 O 312.847 -3.90454 3.82372 0
M  V30 3378 H 309.941 -0.615188 0.552696 0
M  V30 3379 H 312.487 -0.637097 1.57287 0
M  V30 3380 H 311.259 -1.77164 3.48896 0
M  V30 3381 H 310.882 -3.13383 2.44698 0
M  V30 3382 N 311.879 -1.3236 -0.855495 0
M  V30 3383 C 312.826 -1.21225 -1.964 0
M  V30 3384 C 313.796 -0.0946204 -1.6583 0
M  V30 3385 O 314.981 -0.27002 -1.8888 0
M  V30 3386 C 312.121 -0.940419 -3.32039 0
M  V30 3387 C 311.234 -2.14276 -3.75113 0
M  V30 3388 C 310.369 -1.80648 -4.9954 0
M  V30 3389 C 309.408 -2.97208 -5.35102 0
M  V30 3390 N 308.545 -2.63678 -6.50706 0
M  V30 3391 H 313.385 -2.16042 -2.05255 0
M  V30 3392 H 310.922 -1.07451 -1.00463 0
M  V30 3393 H 312.88 -0.763311 -4.10158 0
M  V30 3394 H 311.51 -0.0290413 -3.22787 0
M  V30 3395 H 310.562 -2.43017 -2.92655 0
M  V30 3396 H 311.874 -3.01468 -3.97389 0
M  V30 3397 H 311.028 -1.59484 -5.85363 0
M  V30 3398 H 309.767 -0.906678 -4.79198 0
M  V30 3399 H 308.772 -3.19004 -4.47791 0
M  V30 3400 H 309.997 -3.87918 -5.57401 0
M  V30 3401 H 307.943 -1.76238 -6.31883 0
M  V30 3402 H 307.86 -3.444 -6.72997 0
M  V30 3403 H 309.128 -2.45942 -7.39684 0
M  V30 3404 N 313.357 1.07166 -1.15556 0
M  V30 3405 C 314.768 1.6127 -0.940693 0
M  V30 3406 C 315.119 1.89251 0.517551 0
M  V30 3407 O 314.244 1.65937 1.38903 0
M  V30 3408 C 314.839 2.92993 -1.7012 0
M  V30 3409 C 313.398 3.43832 -1.53156 0
M  V30 3410 C 312.545 2.1786 -1.71558 0
M  V30 3411 H 315.496 0.90229 -1.30554 0
M  V30 3412 H 315.517 3.62007 -1.17181 0
M  V30 3413 H 315.029 2.72596 -2.76248 0
M  V30 3414 H 313.13 3.69307 -0.494294 0
M  V30 3415 H 313.243 4.19747 -2.30975 0
M  V30 3416 H 311.607 2.2765 -1.14225 0
M  V30 3417 H 312.39 1.99956 -2.79056 0
M  V30 3418 N 314.835 0.952656 1.25548 0
M  V30 3419 C 316.063 0.623496 1.97282 0
M  V30 3420 C 316.478 -0.803987 1.70826 0
M  V30 3421 O 315.835 -1.53755 0.983147 0
M  V30 3422 C 315.886 0.870209 3.5087 0
M  V30 3423 O 315.607 2.24156 3.76412 0
M  V30 3424 C 317.108 0.553164 4.39835 0
M  V30 3425 H 314.328 0.233931 0.628902 0
M  V30 3426 H 316.872 1.27649 1.59768 0
M  V30 3427 H 315.027 0.263652 3.86502 0
M  V30 3428 H 315.441 2.31021 4.70882 0
M  V30 3429 H 316.915 0.776342 5.46513 0
M  V30 3430 H 317.392 -0.512215 4.36203 0
M  V30 3431 H 317.998 1.13896 4.09766 0
M  V30 3432 N 316.313 -1.40141 0.720998 0
M  V30 3433 C 317.276 -2.29058 0.0805834 0
M  V30 3434 C 318.276 -1.45632 -0.681758 0
M  V30 3435 O 319.466 -1.6648 -0.512856 0
M  V30 3436 C 316.598 -3.28925 -0.895593 0
M  V30 3437 H 317.791 -2.87191 0.863793 0
M  V30 3438 H 315.344 -1.48553 0.485975 0
M  V30 3439 H 316.079 -2.75822 -1.70566 0
M  V30 3440 H 315.864 -3.90519 -0.351766 0
M  V30 3441 H 317.354 -3.95494 -1.34069 0
M  V30 3442 N 317.792 -0.46758 -1.50504 0
M  V30 3443 C 318.702 0.33382 -2.32213 0
M  V30 3444 C 319.718 0.999323 -1.42441 0
M  V30 3445 O 320.894 0.988068 -1.75497 0
M  V30 3446 C 317.959 1.4035 -3.17022 0
M  V30 3447 C 317.02 0.754961 -4.2261 0
M  V30 3448 C 316.253 1.77367 -5.03365 0
M  V30 3449 O 316.476 2.99976 -4.8515 0
M  V30 3450 O 315.41 1.34744 -5.86624 0
M  V30 3451 H 319.236 -0.334067 -3.01857 0
M  V30 3452 H 316.821 -0.229496 -1.47627 0
M  V30 3453 H 318.703 2.02318 -3.69656 0
M  V30 3454 H 317.378 2.05492 -2.5011 0
M  V30 3455 H 316.285 0.0964244 -3.73976 0
M  V30 3456 H 317.618 0.146545 -4.91982 0
M  V30 3457 N 319.27 1.56325 -0.20005 0
M  V30 3458 C 320.686 1.58839 0.155716 0
M  V30 3459 C 320.886 1.21636 1.60645 0
M  V30 3460 O 319.942 0.941437 2.34293 0
M  V30 3461 C 321.255 3.0032 -0.151124 0
M  V30 3462 C 322.803 3.12866 -0.0916284 0
M  V30 3463 C 323.278 4.56488 -0.371845 0
M  V30 3464 N 324.769 4.62089 -0.320641 0
M  V30 3465 C 325.504 5.71116 -0.511243 0
M  V30 3466 N 325 6.88592 -0.762461 0
M  V30 3467 N 326.793 5.60335 -0.445157 0
M  V30 3468 H 318.944 1.78788 -1.14668 0
M  V30 3469 H 321.207 0.829996 -0.458051 0
M  V30 3470 H 320.913 3.32117 -1.15721 0
M  V30 3471 H 320.787 3.73257 0.543986 0
M  V30 3472 H 323.174 2.80878 0.905065 0
M  V30 3473 H 323.255 2.42304 -0.81989 0
M  V30 3474 H 322.899 4.89189 -1.36588 0
M  V30 3475 H 322.829 5.25246 0.377362 0
M  V30 3476 H 325.32 3.77665 -0.13329 0
M  V30 3477 H 325.633 7.67581 -0.896576 0
M  V30 3478 H 323.978 6.90387 -0.799412 0
M  V30 3479 H 327.169 4.67436 -0.249278 0
M  V30 3480 H 327.342 6.45243 -0.597116 0
M  V30 3481 N 320.748 -0.0735177 1.57428 0
M  V30 3482 C 321.995 -0.772999 1.87166 0
M  V30 3483 C 322.323 -1.77665 0.791551 0
M  V30 3484 O 321.578 -1.94541 -0.212636 0
M  V30 3485 C 321.877 -1.51799 3.23561 0
M  V30 3486 C 321.543 -0.654484 4.46125 0
M  V30 3487 C 320.205 -0.416511 4.79394 0
M  V30 3488 C 322.557 -0.0555862 5.2117 0
M  V30 3489 C 319.885 0.429869 5.85123 0
M  V30 3490 C 322.237 0.778239 6.27795 0
M  V30 3491 C 320.901 1.0261 6.59566 0
M  V30 3492 H 320.171 -0.282861 0.684888 0
M  V30 3493 H 322.818 -0.0338272 1.9147 0
M  V30 3494 H 321.123 -2.32932 3.1504 0
M  V30 3495 H 322.82 -2.06397 3.43804 0
M  V30 3496 H 319.41 -0.850091 4.20085 0
M  V30 3497 H 323.594 -0.226558 4.95783 0
M  V30 3498 H 318.85 0.630665 6.08139 0
M  V30 3499 H 323.024 1.24906 6.85107 0
M  V30 3500 H 320.651 1.68371 7.4132 0
M  V30 3501 N 322.226 -1.5378 -0.344866 0
M  V30 3502 C 323.475 -1.7018 -1.08267 0
M  V30 3503 C 323.788 -0.471 -1.89845 0
M  V30 3504 O 324.994 -0.515917 -2.66553 0
M  V30 3505 C 323.45 -3.00923 -1.97417 0
M  V30 3506 C 323.058 -4.31335 -1.21053 0
M  V30 3507 C 324.802 -3.26688 -2.71063 0
M  V30 3508 C 322.709 -5.53153 -2.09225 0
M  V30 3509 H 321.639 -0.634138 -0.407903 0
M  V30 3510 H 324.29 -1.8028 -0.342246 0
M  V30 3511 H 322.672 -2.84676 -2.75274 0
M  V30 3512 H 323.846 -4.58281 -0.481159 0
M  V30 3513 H 322.161 -4.12173 -0.591813 0
M  V30 3514 H 324.758 -4.1489 -3.37299 0
M  V30 3515 H 325.101 -2.43639 -3.37558 0
M  V30 3516 H 325.634 -3.43705 -2.0028 0
M  V30 3517 H 322.373 -6.38741 -1.47274 0
M  V30 3518 H 321.893 -5.30458 -2.79955 0
M  V30 3519 H 323.572 -5.88744 -2.68308 0
M  V30 3520 N 323.704 0.605807 -1.45491 0
M  V30 3521 C 324.667 1.69836 -1.5391 0
M  V30 3522 C 325.667 1.55261 -0.418424 0
M  V30 3523 O 326.857 1.60296 -0.681965 0
M  V30 3524 C 323.989 3.09117 -1.43734 0
M  V30 3525 H 325.182 1.63738 -2.51257 0
M  V30 3526 H 322.735 0.821689 -1.32959 0
M  V30 3527 H 323.47 3.20791 -0.475788 0
M  V30 3528 H 323.255 3.21104 -2.25021 0
M  V30 3529 H 324.745 3.88696 -1.52661 0
M  V30 3530 N 325.182 1.32811 0.848464 0
M  V30 3531 C 326.115 1.16601 1.96162 0
M  V30 3532 C 327.093 0.0638855 1.62474 0
M  V30 3533 O 328.277 0.224348 1.8716 0
M  V30 3534 C 325.404 0.786333 3.29446 0
M  V30 3535 C 324.45 1.89459 3.8211 0
M  V30 3536 S 325.283 3.50395 4.04949 0
M  V30 3537 C 326.439 3.14413 5.41198 0
M  V30 3538 H 326.672 2.10832 2.09612 0
M  V30 3539 H 324.205 1.17543 1.00115 0
M  V30 3540 H 326.163 0.574044 4.06466 0
M  V30 3541 H 324.824 -0.137218 3.138 0
M  V30 3542 H 324.017 1.58207 4.78526 0
M  V30 3543 H 323.619 2.06304 3.11953 0
M  V30 3544 H 325.911 2.64642 6.23675 0
M  V30 3545 H 326.854 4.09874 5.77416 0
M  V30 3546 H 327.262 2.51266 5.05495 0
M  V30 3547 N 326.66 -1.06551 1.16123 0
M  V30 3548 C 327.608 -2.16063 0.861371 0
M  V30 3549 C 328.602 -1.6856 -0.168517 0
M  V30 3550 O 329.808 -1.79986 -0.0227579 0
M  V30 3551 H 326.183 -0.705278 0.260934 0
M  V30 3552 H 328.154 -2.38567 1.79244 0
M  V30 3553 C 326.903 -3.45661 0.376018 0
M  V30 3554 H 326.226 -3.82604 1.15992 0
M  V30 3555 H 327.666 -4.23504 0.204951 0
M  V30 3556 C 326.125 -3.24546 -0.903954 0
M  V30 3557 O 326.655 -3.49865 -1.97377 0
M  V30 3558 N 324.861 -2.77992 -0.846679 0
M  V30 3559 H 324.408 -2.57589 0.0241017 0
M  V30 3560 H 324.366 -2.64244 -1.70359 0
M  V30 3561 N 328.138 -0.959301 -1.25041 0
M  V30 3562 C 329.554 -0.664474 -1.4511 0
M  V30 3563 C 329.754 0.776481 -1.85938 0
M  V30 3564 O 328.81 1.55128 -1.99227 0
M  V30 3565 C 330.123 -1.64139 -2.5195 0
M  V30 3566 C 331.671 -1.65309 -2.65786 0
M  V30 3567 C 332.146 -2.61777 -3.75815 0
M  V30 3568 N 333.637 -2.60169 -3.83231 0
M  V30 3569 C 334.372 -3.31489 -4.6787 0
M  V30 3570 N 333.868 -4.12298 -5.56761 0
M  V30 3571 N 335.661 -3.20354 -4.61876 0
M  V30 3572 H 327.812 -1.89043 -0.968332 0
M  V30 3573 H 330.075 -0.813408 -0.4869 0
M  V30 3574 H 329.781 -2.67086 -2.28819 0
M  V30 3575 H 329.655 -1.40756 -3.49954 0
M  V30 3576 H 332.042 -0.630778 -2.8828 0
M  V30 3577 H 332.123 -1.92753 -1.68167 0
M  V30 3578 H 331.767 -3.64137 -3.54071 0
M  V30 3579 H 331.697 -2.31616 -4.72929 0
M  V30 3580 H 334.188 -2.01507 -3.19692 0
M  V30 3581 H 334.501 -4.63625 -6.18281 0
M  V30 3582 H 332.846 -4.16395 -5.56454 0
M  V30 3583 H 336.037 -2.56692 -3.91442 0
M  V30 3584 H 336.21 -3.76201 -5.27614 0
M  V30 3585 N 329.616 1.39756 -0.72842 0
M  V30 3586 C 330.864 2.00248 -0.272946 0
M  V30 3587 C 331.185 1.58077 1.14178 0
M  V30 3588 O 330.455 0.826014 1.77634 0
M  V30 3589 H 329.035 0.740554 -0.0979247 0
M  V30 3590 H 331.697 1.70903 -0.936912 0
M  V30 3591 H 330.793 3.10495 -0.316142 0
M  V30 3592 N 331.094 0.475555 1.50254 0
M  V30 3593 C 332.343 -0.0795996 2.01543 0
M  V30 3594 C 332.656 -1.4038 1.36209 0
M  V30 3595 O 333.862 -2.04415 1.7868 0
M  V30 3596 C 332.318 -0.192363 3.59386 0
M  V30 3597 C 331.926 1.12367 4.33679 0
M  V30 3598 C 333.67 -0.699238 4.18701 0
M  V30 3599 C 331.577 0.974453 5.83317 0
M  V30 3600 H 330.507 -0.0335228 0.753254 0
M  V30 3601 H 333.158 0.611128 1.73025 0
M  V30 3602 H 331.54 -0.946974 3.84511 0
M  V30 3603 H 332.714 1.88958 4.20276 0
M  V30 3604 H 331.029 1.562 3.85993 0
M  V30 3605 H 333.626 -0.827978 5.28251 0
M  V30 3606 H 333.969 -1.69171 3.80377 0
M  V30 3607 H 334.502 -0.00188807 3.978 0
M  V30 3608 H 331.241 1.94042 6.26121 0
M  V30 3609 H 330.761 0.248998 5.99283 0
M  V30 3610 H 332.44 0.642867 6.43798 0
M  V30 3611 N 332.573 -1.56217 0.208337 0
M  V30 3612 C 333.521 -2.21053 -0.723769 0
M  V30 3613 C 334.515 -1.18578 -1.20978 0
M  V30 3614 O 335.721 -1.36691 -1.17114 0
M  V30 3615 H 332.096 -0.708595 -0.251788 0
M  V30 3616 H 334.067 -2.98006 -0.153365 0
M  V30 3617 C 332.816 -2.89417 -1.927 0
M  V30 3618 H 332.139 -3.68019 -1.56212 0
M  V30 3619 H 333.579 -3.38201 -2.55727 0
M  V30 3620 C 332.038 -1.91166 -2.77411 0
M  V30 3621 O 332.568 -1.42026 -3.75754 0
M  V30 3622 N 330.774 -1.59105 -2.43175 0
M  V30 3623 H 330.321 -1.99259 -1.63259 0
M  V30 3624 H 330.279 -0.936255 -3.00136 0
M  V30 3625 N 334.051 0.0651679 -1.57465 0
M  V30 3626 C 334.961 1.09448 -2.07505 0
M  V30 3627 C 335.977 1.41974 -1.00595 0
M  V30 3628 O 337.153 1.52018 -1.32107 0
M  V30 3629 C 334.218 2.38689 -2.51453 0
M  V30 3630 C 333.279 2.13073 -3.72691 0
M  V30 3631 C 332.512 3.36152 -4.14533 0
M  V30 3632 O 332.735 4.45517 -3.56189 0
M  V30 3633 O 331.669 3.23974 -5.07272 0
M  V30 3634 H 335.495 0.69935 -2.95538 0
M  V30 3635 H 333.08 0.279752 -1.46757 0
M  V30 3636 H 334.962 3.14736 -2.80212 0
M  V30 3637 H 333.637 2.77568 -1.66546 0
M  V30 3638 H 332.544 1.34709 -3.49005 0
M  V30 3639 H 333.877 1.79071 -4.5847 0
M  V30 3640 N 335.529 1.53961 0.336706 0
M  V30 3641 C 336.777 1.71197 1.07405 0
M  V30 3642 C 337.098 0.481475 1.88962 0
M  V30 3643 O 336.368 -0.504585 1.8929 0
M  V30 3644 H 334.948 0.631185 0.399517 0
M  V30 3645 H 337.61 1.91232 0.376323 0
M  V30 3646 H 336.706 2.58587 1.74755 0
M  V30 3647 N 337.007 -0.598083 1.45811 0
M  V30 3648 C 338.255 -1.35413 1.50026 0
M  V30 3649 C 338.576 -1.94444 0.147177 0
M  V30 3650 O 337.846 -1.77701 -0.824571 0
M  V30 3651 H 336.426 -0.502727 0.552517 0
M  V30 3652 H 339.088 -0.701606 1.81834 0
M  V30 3653 H 338.184 -2.16871 2.2444 0
M  V30 3654 N 338.485 -1.33259 -0.841409 0
M  V30 3655 C 339.762 -1.15174 -1.58096 0
M  V30 3656 C 340.142 0.282858 -2.09196 0
M  V30 3657 O 339.49 1.28151 -1.89181 0
M  V30 3658 C 339.7 -2.1907 -2.71679 0
M  V30 3659 C 341.048 -2.53093 -3.40924 0
M  V30 3660 O 342.072 -2.17717 -2.81918 0
M  V30 3661 O 340.931 -3.1379 -4.47435 0
M  V30 3662 H 338.025 -0.445303 -0.696875 0
M  V30 3663 H 340.571 -1.44833 -0.884385 0
M  V30 3664 H 339.343 -3.15443 -2.31541 0
M  V30 3665 H 338.966 -1.90481 -3.49002 0
M  V30 3666 N 339.963 1.05934 -1.16686 0
M  V30 3667 C 340.893 2.1546 -0.899949 0
M  V30 3668 C 341.874 1.69391 0.155154 0
M  V30 3669 O 343.059 1.94199 0.00648693 0
M  V30 3670 C 340.189 3.44939 -0.404241 0
M  V30 3671 C 339.143 4.04536 -1.39767 0
M  V30 3672 C 338.469 5.29268 -0.760216 0
M  V30 3673 C 339.769 4.42893 -2.76845 0
M  V30 3674 H 341.463 2.38046 -1.81588 0
M  V30 3675 H 339.009 1.14404 -0.874514 0
M  V30 3676 H 340.962 4.20901 -0.204971 0
M  V30 3677 H 339.686 3.21983 0.547206 0
M  V30 3678 H 338.345 3.30635 -1.58355 0
M  V30 3679 H 337.993 5.02611 0.197831 0
M  V30 3680 H 337.693 5.70101 -1.42332 0
M  V30 3681 H 339.217 6.07924 -0.57105 0
M  V30 3682 H 340.631 5.09921 -2.62019 0
M  V30 3683 H 339.028 4.94721 -3.39663 0
M  V30 3684 H 340.098 3.53584 -3.31823 0
M  V30 3685 N 341.441 0.965919 1.2453 0
M  V30 3686 C 342.852 0.665929 1.7442 0
M  V30 3687 C 343.203 -0.818407 1.78316 0
M  V30 3688 O 342.328 -1.64037 1.41141 0
M  V30 3689 C 342.923 1.20211 3.16757 0
M  V30 3690 C 341.482 0.952059 3.6416 0
M  V30 3691 C 340.629 1.33848 2.42858 0
M  V30 3692 H 343.58 1.14144 1.10258 0
M  V30 3693 H 343.601 0.567544 3.76244 0
M  V30 3694 H 343.113 2.28244 3.13889 0
M  V30 3695 H 341.214 -0.112821 3.72429 0
M  V30 3696 H 341.327 1.59645 4.51719 0
M  V30 3697 H 339.691 0.756864 2.43195 0
M  V30 3698 H 340.474 2.42827 2.42673 0
M  V30 3699 N 342.919 -1.39368 0.735821 0
M  V30 3700 C 343.829 -2.34395 0.0979693 0
M  V30 3701 C 344.845 -1.58361 -0.720968 0
M  V30 3702 O 346.021 -1.90648 -0.649245 0
M  V30 3703 C 343.086 -3.37393 -0.797916 0
M  V30 3704 C 342.147 -4.29287 0.0333662 0
M  V30 3705 C 341.38 -5.27365 -0.819854 0
M  V30 3706 O 341.603 -5.31959 -2.05855 0
M  V30 3707 O 340.537 -6.01389 -0.248079 0
M  V30 3708 H 344.363 -2.90601 0.882315 0
M  V30 3709 H 341.948 -1.40909 0.4965 0
M  V30 3710 H 343.83 -4.00505 -1.31048 0
M  V30 3711 H 342.505 -2.83571 -1.56106 0
M  V30 3712 H 341.412 -3.69395 0.591475 0
M  V30 3713 H 342.745 -4.86317 0.758752 0
M  V30 3714 N 344.397 -0.483516 -1.5 0
M  V30 3715 C 345.307 0.309172 -2.32554 0
M  V30 3716 C 346.323 0.984159 -1.43493 0
M  V30 3717 O 347.499 0.969399 -1.76535 0
M  V30 3718 C 344.564 1.36979 -3.18493 0
M  V30 3719 C 343.625 0.710095 -4.23387 0
M  V30 3720 C 342.858 1.72018 -5.05218 0
M  V30 3721 O 343.081 2.94813 -4.88305 0
M  V30 3722 O 342.015 1.28515 -5.8802 0
M  V30 3723 H 345.841 -0.366064 -3.01486 0
M  V30 3724 H 343.426 -0.24514 -1.47375 0
M  V30 3725 H 345.308 1.98385 -3.71781 0
M  V30 3726 H 343.983 2.02828 -2.52275 0
M  V30 3727 H 342.89 0.0567539 -3.74057 0
M  V30 3728 H 344.223 0.0943557 -4.9211 0
M  V30 3729 N 345.875 1.56104 -0.216619 0
M  V30 3730 C 346.805 2.23063 0.690296 0
M  V30 3731 C 347.786 1.20072 1.20485 0
M  V30 3732 O 348.971 1.48643 1.24976 0
M  V30 3733 C 346.101 2.90672 1.90072 0
M  V30 3734 C 345.055 4.00092 1.5202 0
M  V30 3735 C 344.381 4.54972 2.80899 0
M  V30 3736 C 345.681 5.17398 0.71391 0
M  V30 3737 H 347.375 2.99109 0.132038 0
M  V30 3738 H 344.921 1.43866 0.0620664 0
M  V30 3739 H 346.874 3.36204 2.54057 0
M  V30 3740 H 345.598 2.12066 2.48386 0
M  V30 3741 H 344.257 3.55283 0.903839 0
M  V30 3742 H 343.905 3.73102 3.37348 0
M  V30 3743 H 343.605 5.28817 2.56176 0
M  V30 3744 H 345.129 5.0322 3.45836 0
M  V30 3745 H 346.543 5.59342 1.25735 0
M  V30 3746 H 344.94 5.97444 0.563951 0
M  V30 3747 H 346.01 4.84088 -0.280527 0
M  V30 3748 N 347.353 -0.0568162 1.57498 0
M  V30 3749 C 348.283 -1.06593 2.0775 0
M  V30 3750 C 349.264 -1.39448 0.974082 0
M  V30 3751 O 350.449 -1.48815 1.24771 0
M  V30 3752 C 347.579 -2.37509 2.5339 0
M  V30 3753 C 346.533 -2.1897 3.67745 0
M  V30 3754 C 345.859 -3.55402 3.99492 0
M  V30 3755 C 347.159 -1.59859 4.97235 0
M  V30 3756 H 348.853 -0.647706 2.9231 0
M  V30 3757 H 346.399 -0.310116 1.40621 0
M  V30 3758 H 348.352 -3.08409 2.87162 0
M  V30 3759 H 347.076 -2.8134 1.65878 0
M  V30 3760 H 345.735 -1.50508 3.3428 0
M  V30 3761 H 345.383 -3.9683 3.09088 0
M  V30 3762 H 345.083 -3.43831 4.76502 0
M  V30 3763 H 346.607 -4.27708 4.35773 0
M  V30 3764 H 348.021 -2.20642 5.29141 0
M  V30 3765 H 346.418 -1.58942 5.78669 0
M  V30 3766 H 347.488 -0.561506 4.81638 0
M  V30 3767 N 348.832 -1.54138 -0.328536 0
M  V30 3768 C 350.248 -1.44736 -0.672574 0
M  V30 3769 C 350.448 -0.616217 -1.91846 0
M  V30 3770 O 349.504 -0.113067 -2.52247 0
M  V30 3771 C 350.817 -2.884 -0.851217 0
M  V30 3772 C 352.365 -2.98271 -0.948877 0
M  V30 3773 C 352.84 -4.43074 -1.15973 0
M  V30 3774 N 354.331 -4.46665 -1.22658 0
M  V30 3775 C 355.066 -5.55857 -1.40751 0
M  V30 3776 N 354.562 -6.75026 -1.5592 0
M  V30 3777 N 356.355 -5.43495 -1.4342 0
M  V30 3778 H 348.506 -2.06661 0.490421 0
M  V30 3779 H 350.769 -0.934812 0.157579 0
M  V30 3780 H 350.475 -3.51699 -0.00704236 0
M  V30 3781 H 350.349 -3.34225 -1.74853 0
M  V30 3782 H 352.736 -2.35102 -1.78356 0
M  V30 3783 H 352.817 -2.55785 -0.0281435 0
M  V30 3784 H 352.461 -5.06827 -0.329915 0
M  V30 3785 H 352.391 -4.83165 -2.09426 0
M  V30 3786 H 354.882 -3.60797 -1.124 0
M  V30 3787 H 355.195 -7.54004 -1.69404 0
M  V30 3788 H 353.54 -6.77944 -1.53027 0
M  V30 3789 H 356.731 -4.49349 -1.31162 0
M  V30 3790 H 356.904 -6.28649 -1.57178 0
M  V30 3791 N 350.31 0.590341 -1.46126 0
M  V30 3792 C 351.258 1.72105 -1.5647 0
M  V30 3793 C 352.252 1.63756 -0.433612 0
M  V30 3794 O 353.458 1.69342 -0.610194 0
M  V30 3795 H 349.833 0.568889 -0.491802 0
M  V30 3796 H 351.804 1.6051 -2.51553 0
M  V30 3797 C 350.553 3.10493 -1.56491 0
M  V30 3798 H 349.876 3.17583 -2.4286 0
M  V30 3799 H 351.316 3.8939 -1.67785 0
M  V30 3800 C 349.775 3.3563 -0.292231 0
M  V30 3801 O 350.305 3.96875 0.620739 0
M  V30 3802 N 348.511 2.90026 -0.182523 0
M  V30 3803 H 348.058 2.40367 -0.926356 0
M  V30 3804 H 348.016 3.07218 0.668152 0
M  V30 3805 N 351.788 1.33704 0.83433 0
M  V30 3806 C 352.718 1.26967 1.95963 0
M  V30 3807 C 353.699 0.149337 1.69443 0
M  V30 3808 O 354.884 0.339852 1.91203 0
M  V30 3809 C 352.014 1.01275 3.32206 0
M  V30 3810 C 350.968 2.09652 3.73136 0
M  V30 3811 C 350.294 1.69166 5.07235 0
M  V30 3812 C 351.594 3.51372 3.86439 0
M  V30 3813 H 353.288 2.2112 2.01857 0
M  V30 3814 H 350.834 1.06447 0.969793 0
M  V30 3815 H 352.787 0.952106 4.10503 0
M  V30 3816 H 351.511 0.0356203 3.26581 0
M  V30 3817 H 350.17 2.14766 2.97104 0
M  V30 3818 H 349.818 0.701437 4.98085 0
M  V30 3819 H 349.518 2.41694 5.35591 0
M  V30 3820 H 351.042 1.64576 5.88003 0
M  V30 3821 H 352.456 3.48734 4.55036 0
M  V30 3822 H 350.853 4.22425 4.26236 0
M  V30 3823 H 351.923 3.89546 2.88759 0
M  V30 3824 N 353.266 -1.05314 1.17247 0
M  V30 3825 C 354.496 -1.81707 0.983166 0
M  V30 3826 C 354.904 -1.83222 -0.471822 0
M  V30 3827 O 354.247 -1.25721 -1.3394 0
M  V30 3828 C 354.309 -3.29134 1.44606 0
M  V30 3829 C 353.973 -3.51304 2.92292 0
M  V30 3830 C 354.97 -3.4353 3.90235 0
M  V30 3831 C 352.655 -3.78306 3.30439 0
M  V30 3832 C 354.649 -3.62442 5.24323 0
M  V30 3833 C 352.336 -3.96866 4.64694 0
M  V30 3834 C 353.334 -3.88933 5.61445 0
M  V30 3835 O 353.022 -4.06976 6.93272 0
M  V30 3836 H 352.754 -0.579476 0.348114 0
M  V30 3837 H 355.308 -1.33705 1.55924 0
M  V30 3838 H 353.538 -3.78046 0.813537 0
M  V30 3839 H 355.227 -3.87049 1.22262 0
M  V30 3840 H 355.993 -3.22648 3.62109 0
M  V30 3841 H 351.872 -3.83585 2.55702 0
M  V30 3842 H 355.416 -3.56165 5.99827 0
M  V30 3843 H 351.313 -4.1724 4.92525 0
M  V30 3844 H 352.081 -4.24209 6.99992 0
M  V30 3845 N 354.744 -0.972509 -1.24016 0
M  V30 3846 C 355.654 -0.5143 -2.28893 0
M  V30 3847 C 356.67 0.427078 -1.68677 0
M  V30 3848 O 357.846 0.298939 -1.99169 0
M  V30 3849 C 354.911 0.183598 -3.46214 0
M  V30 3850 C 353.972 -0.798202 -4.21814 0
M  V30 3851 C 353.205 -0.133514 -5.33533 0
M  V30 3852 O 353.428 1.07714 -5.60137 0
M  V30 3853 O 352.362 -0.828103 -5.96176 0
M  V30 3854 H 356.188 -1.38629 -2.70214 0
M  V30 3855 H 353.773 -0.739769 -1.29799 0
M  V30 3856 H 355.655 0.575433 -4.17453 0
M  V30 3857 H 354.33 1.03048 -3.0686 0
M  V30 3858 H 353.237 -1.24059 -3.52931 0
M  V30 3859 H 354.57 -1.61364 -4.64997 0
M  V30 3860 N 356.222 1.38976 -0.743202 0
M  V30 3861 C 357.447 2.05161 -0.303936 0
M  V30 3862 C 357.872 1.55677 1.05576 0
M  V30 3863 O 357.23 0.704131 1.67068 0
M  V30 3864 C 357.278 3.59138 -0.324373 0
M  V30 3865 O 356.382 4.06668 0.685204 0
M  V30 3866 H 355.723 0.649815 -0.136518 0
M  V30 3867 H 358.253 1.77852 -1.01142 0
M  V30 3868 H 358.263 4.07639 -0.171618 0
M  V30 3869 H 356.938 3.94515 -1.31647 0
M  V30 3870 H 355.515 3.69561 0.497913 0
M  V30 3871 N 357.7 0.491464 1.49741 0
M  V30 3872 C 358.949 -0.0582189 2.01616 0
M  V30 3873 C 359.262 -1.38927 1.3769 0
M  V30 3874 O 360.468 -2.02509 1.80838 0
M  V30 3875 C 358.924 -0.154235 3.59569 0
M  V30 3876 C 358.532 1.1696 4.32463 0
M  V30 3877 C 360.276 -0.65479 4.1942 0
M  V30 3878 C 358.183 1.03627 5.8225 0
M  V30 3879 H 357.113 -0.0255317 0.753568 0
M  V30 3880 H 359.764 0.629445 1.72367 0
M  V30 3881 H 358.146 -0.906138 3.85493 0
M  V30 3882 H 359.32 1.93405 4.18248 0
M  V30 3883 H 357.635 1.60285 3.84315 0
M  V30 3884 H 360.232 -0.771903 5.29099 0
M  V30 3885 H 360.575 -1.65127 3.8215 0
M  V30 3886 H 361.108 0.040304 3.9778 0
M  V30 3887 H 357.847 2.00672 6.24028 0
M  V30 3888 H 357.367 0.312546 5.98985 0
M  V30 3889 H 359.046 0.711114 6.4308 0
M  V30 3890 N 359.178 -1.55987 0.224894 0
M  V30 3891 C 360.125 -2.20436 -0.68385 0
M  V30 3892 C 361.095 -1.16102 -1.18783 0
M  V30 3893 O 362.28 -1.4447 -1.24632 0
M  V30 3894 C 359.42 -2.89076 -1.88491 0
M  V30 3895 C 358.533 -4.08012 -1.41951 0
M  V30 3896 C 357.668 -4.64426 -2.5784 0
M  V30 3897 C 356.707 -5.75656 -2.08053 0
M  V30 3898 N 355.844 -6.26347 -3.17227 0
M  V30 3899 H 360.684 -2.97727 -0.12754 0
M  V30 3900 H 358.221 -1.47011 -0.0511978 0
M  V30 3901 H 360.179 -3.27059 -2.59014 0
M  V30 3902 H 358.809 -2.14298 -2.41405 0
M  V30 3903 H 357.861 -3.75492 -0.609095 0
M  V30 3904 H 359.173 -4.88375 -1.01447 0
M  V30 3905 H 358.327 -5.04869 -3.3644 0
M  V30 3906 H 357.066 -3.83233 -3.01635 0
M  V30 3907 H 356.071 -5.34712 -1.27916 0
M  V30 3908 H 357.296 -6.58686 -1.65255 0
M  V30 3909 H 355.242 -5.48067 -3.60497 0
M  V30 3910 H 355.159 -7.01843 -2.80986 0
M  V30 3911 H 356.427 -6.71447 -3.95953 0
M  V30 3912 N 360.656 0.0484629 -1.57525 0
M  V30 3913 C 361.604 1.07359 -2.06341 0
M  V30 3914 C 362.598 1.3865 -0.973269 0
M  V30 3915 O 363.804 1.37783 -1.15827 0
M  V30 3916 H 360.179 0.363662 -0.65822 0
M  V30 3917 H 362.15 0.635916 -2.91545 0
M  V30 3918 C 360.899 2.37198 -2.54229 0
M  V30 3919 H 360.222 2.13977 -3.37719 0
M  V30 3920 H 361.662 3.07319 -2.92115 0
M  V30 3921 C 360.121 3.04805 -1.43511 0
M  V30 3922 O 360.651 3.93848 -0.79034 0
M  V30 3923 N 358.857 2.65811 -1.17444 0
M  V30 3924 H 358.404 1.93488 -1.70059 0
M  V30 3925 H 358.362 3.11366 -0.435737 0
M  V30 3926 N 362.134 1.5431 0.320358 0
M  V30 3927 C 363.044 1.86946 1.41734 0
M  V30 3928 C 364.06 0.761689 1.56443 0
M  V30 3929 O 365.236 1.05629 1.71477 0
M  V30 3930 C 362.301 2.09293 2.76401 0
M  V30 3931 C 361.362 3.33082 2.70841 0
M  V30 3932 C 360.595 3.54353 3.99086 0
M  V30 3933 O 360.818 2.79002 4.97508 0
M  V30 3934 O 359.752 4.47838 4.0215 0
M  V30 3935 H 363.578 2.80232 1.17062 0
M  V30 3936 H 361.163 1.40255 0.514673 0
M  V30 3937 H 363.045 2.25303 3.56113 0
M  V30 3938 H 361.72 1.19194 3.00956 0
M  V30 3939 H 360.627 3.22454 1.89668 0
M  V30 3940 H 361.96 4.23249 2.5124 0
M  V30 3941 N 363.613 -0.582584 1.46437 0
M  V30 3942 C 365.024 -1.1647 1.45916 0
M  V30 3943 C 365.375 -1.95177 0.200077 0
M  V30 3944 O 364.5 -2.04874 -0.696819 0
M  V30 3945 C 365.095 -2.11885 2.64367 0
M  V30 3946 C 363.654 -2.65421 2.66887 0
M  V30 3947 C 362.801 -1.41294 2.38603 0
M  V30 3948 H 365.752 -0.370514 1.54314 0
M  V30 3949 H 365.773 -2.9535 2.39892 0
M  V30 3950 H 365.285 -1.54573 3.5599 0
M  V30 3951 H 363.386 -3.26602 1.79338 0
M  V30 3952 H 363.499 -3.08147 3.66854 0
M  V30 3953 H 361.863 -1.71109 1.88663 0
M  V30 3954 H 362.646 -0.858125 3.32402 0
M  V30 3955 N 365.091 -1.34144 -0.827227 0
M  V30 3956 C 366.338 -1.26258 -1.58319 0
M  V30 3957 C 366.666 0.168595 -1.93768 0
M  V30 3958 O 365.921 1.12877 -1.59866 0
M  V30 3959 C 366.22 -2.09464 -2.89585 0
M  V30 3960 C 365.886 -3.58521 -2.73448 0
M  V30 3961 C 364.548 -3.99155 -2.68754 0
M  V30 3962 C 366.9 -4.53189 -2.57428 0
M  V30 3963 C 364.228 -5.32656 -2.45957 0
M  V30 3964 C 366.58 -5.86864 -2.36163 0
M  V30 3965 C 365.244 -6.26667 -2.29879 0
M  V30 3966 H 364.514 -0.462013 -0.579332 0
M  V30 3967 H 367.161 -1.65845 -0.95748 0
M  V30 3968 H 365.466 -1.62692 -3.56425 0
M  V30 3969 H 367.163 -2.00712 -3.47154 0
M  V30 3970 H 363.753 -3.26264 -2.77939 0
M  V30 3971 H 367.937 -4.22696 -2.60081 0
M  V30 3972 H 363.193 -5.62519 -2.39546 0
M  V30 3973 H 367.367 -6.59813 -2.22754 0
M  V30 3974 H 364.994 -7.30049 -2.11975 0
M  V30 3975 N 366.569 1.04691 -1.17803 0
M  V30 3976 C 367.516 2.12557 -0.899343 0
M  V30 3977 C 368.486 1.65339 0.158771 0
M  V30 3978 O 369.671 1.90789 0.0204797 0
M  V30 3979 C 366.811 3.42481 -0.424315 0
M  V30 3980 C 365.924 4.03346 -1.54713 0
M  V30 3981 C 365.059 5.21208 -1.02546 0
M  V30 3982 C 364.098 5.74089 -2.12339 0
M  V30 3983 N 363.235 6.83247 -1.61612 0
M  V30 3984 H 368.075 2.35734 -1.823 0
M  V30 3985 H 365.612 1.1564 -0.909159 0
M  V30 3986 H 367.57 4.16996 -0.130421 0
M  V30 3987 H 366.2 3.19471 0.462377 0
M  V30 3988 H 365.252 3.2622 -1.95664 0
M  V30 3989 H 366.564 4.38628 -2.37501 0
M  V30 3990 H 365.718 6.02812 -0.685718 0
M  V30 3991 H 364.457 4.87414 -0.167084 0
M  V30 3992 H 363.462 4.91111 -2.47165 0
M  V30 3993 H 364.687 6.0993 -2.98601 0
M  V30 3994 H 362.633 6.5134 -0.780533 0
M  V30 3995 H 362.55 7.17559 -2.38003 0
M  V30 3996 H 363.818 7.68491 -1.30545 0
M  V30 3997 N 368.047 0.979072 1.23499 0
M  V30 3998 C 369.296 0.642751 1.91185 0
M  V30 3999 C 369.609 -0.827253 1.77245 0
M  V30 4000 O 370.815 -1.27458 2.39722 0
M  V30 4001 C 369.271 1.09901 3.42709 0
M  V30 4002 C 368.879 2.59327 3.65313 0
M  V30 4003 C 370.623 0.836371 4.16179 0
M  V30 4004 C 368.53 2.98627 5.10467 0
M  V30 4005 H 367.46 0.236698 0.715884 0
M  V30 4006 H 370.111 1.1868 1.39955 0
M  V30 4007 H 368.493 0.48319 3.93041 0
M  V30 4008 H 369.667 3.26136 3.25533 0
M  V30 4009 H 367.982 2.83323 3.05151 0
M  V30 4010 H 370.579 1.10586 5.23139 0
M  V30 4011 H 370.922 -0.227509 4.15678 0
M  V30 4012 H 371.455 1.41371 3.71832 0
M  V30 4013 H 368.194 4.04133 5.16098 0
M  V30 4014 H 367.714 2.3651 5.51201 0
M  V30 4015 H 369.393 2.89159 5.78788 0
M  V30 4016 N 369.525 -1.3858 0.750561 0
M  V30 4017 C 370.936 -1.82927 0.373438 0
M  V30 4018 C 371.287 -1.62634 -1.09748 0
M  V30 4019 O 370.412 -1.12588 -1.84805 0
M  V30 4020 C 371.007 -3.32088 0.671029 0
M  V30 4021 C 369.566 -3.74795 0.34722 0
M  V30 4022 C 368.713 -2.61391 0.92575 0
M  V30 4023 H 371.664 -1.27351 0.946958 0
M  V30 4024 H 371.685 -3.80465 -0.0518269 0
M  V30 4025 H 371.197 -3.46826 1.74164 0
M  V30 4026 H 369.298 -3.65638 -0.716933 0
M  V30 4027 H 369.411 -4.71667 0.840656 0
M  V30 4028 H 367.775 -2.52265 0.351327 0
M  V30 4029 H 368.558 -2.78929 2.00133 0
M  V30 4030 N 371.003 -0.499398 -1.49478 0
M  V30 4031 C 371.913 0.284489 -2.32869 0
M  V30 4032 C 372.929 0.968885 -1.44529 0
M  V30 4033 O 374.105 0.95062 -1.77553 0
M  V30 4034 C 371.17 1.33594 -3.19928 0
M  V30 4035 C 370.231 0.665149 -4.24116 0
M  V30 4036 C 369.464 1.6665 -5.07014 0
M  V30 4037 O 369.687 2.89618 -4.91404 0
M  V30 4038 O 368.621 1.22271 -5.8935 0
M  V30 4039 H 372.447 -0.39802 -3.01081 0
M  V30 4040 H 370.032 -0.260758 -1.47107 0
M  V30 4041 H 371.914 1.94431 -3.73864 0
M  V30 4042 H 370.589 2.0014 -2.54412 0
M  V30 4043 H 369.496 0.0170769 -3.74096 0
M  V30 4044 H 370.829 0.0421555 -4.92182 0
M  V30 4045 N 372.481 1.55866 -0.233164 0
M  V30 4046 C 373.758 1.90471 0.444988 0
M  V30 4047 C 374.138 1.15209 1.7689 0
M  V30 4048 O 373.486 0.265119 2.26957 0
M  V30 4049 C 373.696 3.4333 0.626559 0
M  V30 4050 C 375.044 4.14319 0.92871 0
M  V30 4051 O 376.068 3.48993 0.712926 0
M  V30 4052 O 374.927 5.29846 1.33887 0
M  V30 4053 H 372.021 0.792347 0.236885 0
M  V30 4054 H 374.567 1.67437 -0.276211 0
M  V30 4055 H 373.339 3.90095 -0.306822 0
M  V30 4056 H 372.962 3.72181 1.39881 0
M  V30 4057 N 373.959 -0.0401083 1.57549 0
M  V30 4058 C 375.236 -0.767917 1.79896 0
M  V30 4059 C 375.616 -1.9416 0.82856 0
M  V30 4060 O 374.964 -2.2812 -0.131671 0
M  V30 4061 C 375.174 -1.2113 3.27305 0
M  V30 4062 C 376.522 -1.63175 3.91994 0
M  V30 4063 O 377.546 -1.30616 3.31388 0
M  V30 4064 O 376.405 -2.23565 4.98679 0
M  V30 4065 H 373.499 -0.370441 0.739393 0
M  V30 4066 H 376.045 -0.017737 1.69691 0
M  V30 4067 H 374.817 -0.372937 3.89519 0
M  V30 4068 H 374.44 -2.02183 3.42356 0
M  V30 4069 N 375.437 -1.54477 -0.31217 0
M  V30 4070 C 376.685 -1.72884 -1.04668 0
M  V30 4071 C 377.006 -0.511477 -1.88173 0
M  V30 4072 O 376.276 0.474407 -1.90069 0
M  V30 4073 H 374.856 -0.637461 -0.389425 0
M  V30 4074 H 377.518 -1.91807 -0.345852 0
M  V30 4075 H 376.614 -2.61334 -1.70619 0
M  V30 4076 N 376.915 0.57481 -1.46744 0
M  V30 4077 C 377.863 1.70435 -1.58286 0
M  V30 4078 C 378.857 1.63287 -0.450956 0
M  V30 4079 O 380.063 1.68685 -0.628121 0
M  V30 4080 H 376.438 0.56364 -0.497809 0
M  V30 4081 H 378.409 1.57833 -2.53242 0
M  V30 4082 C 377.158 3.08815 -1.59776 0
M  V30 4083 H 376.481 3.1499 -2.46214 0
M  V30 4084 H 377.921 3.87588 -1.71905 0
M  V30 4085 C 376.38 3.35301 -0.327812 0
M  V30 4086 O 376.91 3.97511 0.57861 0
M  V30 4087 N 375.116 2.89816 -0.213274 0
M  V30 4088 H 374.663 2.39371 -0.951798 0
M  V30 4089 H 374.621 3.0791 0.63553 0
M  V30 4090 N 378.394 1.34581 0.820102 0
M  V30 4091 C 379.671 1.17675 1.56244 0
M  V30 4092 C 380.051 -0.249541 2.0962 0
M  V30 4093 O 379.399 -1.25125 1.91196 0
M  V30 4094 C 379.609 2.23364 2.6816 0
M  V30 4095 C 380.957 2.58485 3.36854 0
M  V30 4096 O 381.981 2.22175 2.78418 0
M  V30 4097 O 380.84 3.20868 4.42386 0
M  V30 4098 H 377.934 0.456333 0.689702 0
M  V30 4099 H 380.48 1.46222 0.861231 0
M  V30 4100 H 379.252 3.19087 2.26493 0
M  V30 4101 H 378.875 1.96009 3.45928 0
M  V30 4102 N 379.872 -1.04064 1.18357 0
M  V30 4103 C 380.802 -2.14001 0.934113 0
M  V30 4104 C 381.783 -1.69616 -0.128186 0
M  V30 4105 O 382.968 -1.94185 0.0244093 0
M  V30 4106 C 380.098 -3.44253 0.459066 0
M  V30 4107 C 379.052 -4.02261 1.46185 0
M  V30 4108 C 378.378 -5.27992 0.844322 0
M  V30 4109 C 379.678 -4.38432 2.83856 0
M  V30 4110 H 381.372 -2.35127 1.85352 0
M  V30 4111 H 378.918 -1.12998 0.892604 0
M  V30 4112 H 380.871 -4.20522 0.271907 0
M  V30 4113 H 379.595 -3.22813 -0.495912 0
M  V30 4114 H 378.254 -3.28074 1.63595 0
M  V30 4115 H 377.902 -5.02862 -0.117845 0
M  V30 4116 H 377.602 -5.67765 1.51384 0
M  V30 4117 H 379.126 -6.06938 0.667693 0
M  V30 4118 H 380.54 -5.05688 2.70098 0
M  V30 4119 H 378.937 -4.89254 3.47491 0
M  V30 4120 H 380.007 -3.4826 3.37406 0
M  V30 4121 N 381.35 -0.985608 -1.22978 0
M  V30 4122 C 382.578 -0.675582 -1.95559 0
M  V30 4123 C 382.993 0.758413 -1.72897 0
M  V30 4124 O 382.35 1.51094 -1.02357 0
M  V30 4125 C 382.401 -0.96293 -3.48439 0
M  V30 4126 O 382.122 -2.34057 -3.70336 0
M  V30 4127 C 383.623 -0.669585 -4.38214 0
M  V30 4128 H 380.843 -0.250523 -0.622478 0
M  V30 4129 H 383.387 -1.3184 -1.56328 0
M  V30 4130 H 381.542 -0.366033 -3.85667 0
M  V30 4131 H 381.956 -2.43424 -4.64591 0
M  V30 4132 H 383.43 -0.920967 -5.44263 0
M  V30 4133 H 383.907 0.396383 -4.37408 0
M  V30 4134 H 384.513 -1.2472 -4.06602 0
M  V30 4135 N 382.828 1.3818 -0.7579 0
M  V30 4136 C 383.778 2.27741 -0.108674 0
M  V30 4137 C 384.762 1.45415 0.688709 0
M  V30 4138 O 385.954 1.68108 0.553956 0
M  V30 4139 C 383.083 3.34313 0.780367 0
M  V30 4140 C 382.169 4.24093 -0.0240977 0
M  V30 4141 N 382.56 4.9451 -1.06271 0
M  V30 4142 C 380.858 4.45542 0.202049 0
M  V30 4143 C 381.559 5.60675 -1.54979 0
M  V30 4144 N 380.535 5.36684 -0.864348 0
M  V30 4145 H 384.337 2.79649 -0.904071 0
M  V30 4146 H 381.851 1.51133 -0.594346 0
M  V30 4147 H 383.848 3.97368 1.26114 0
M  V30 4148 H 382.508 2.83962 1.57467 0
M  V30 4149 H 383.519 4.97345 -1.44459 0
M  V30 4150 H 380.196 4.06091 0.96935 0
M  V30 4151 H 381.586 6.26992 -2.41517 0
M  V30 4152 N 384.306 0.507319 1.49211 0
M  V30 4153 C 385.534 -0.0315749 2.06876 0
M  V30 4154 C 385.949 -1.30241 1.36685 0
M  V30 4155 O 385.306 -1.76937 0.447152 0
M  V30 4156 C 385.357 -0.282627 3.60393 0
M  V30 4157 O 385.078 0.937835 4.27944 0
M  V30 4158 C 386.579 -0.864453 4.3479 0
M  V30 4159 H 383.799 0.0233048 0.670595 0
M  V30 4160 H 386.343 0.706484 1.91909 0
M  V30 4161 H 384.498 -0.97068 3.75042 0
M  V30 4162 H 384.912 0.704567 5.19746 0
M  V30 4163 H 386.386 -0.989664 5.43056 0
M  V30 4164 H 386.863 -1.86382 3.97692 0
M  V30 4165 H 387.469 -0.213672 4.24763 0
M  V30 4166 N 385.784 -1.5574 0.241426 0
M  V30 4167 C 387.031 -1.9881 -0.384836 0
M  V30 4168 C 387.359 -1.12947 -1.58346 0
M  V30 4169 O 386.614 -0.178993 -1.9488 0
M  V30 4170 C 386.913 -3.47308 -0.843317 0
M  V30 4171 C 386.579 -4.50223 0.246946 0
M  V30 4172 C 385.241 -4.78088 0.546399 0
M  V30 4173 C 387.593 -5.11841 0.983282 0
M  V30 4174 C 384.921 -5.64846 1.58636 0
M  V30 4175 C 387.273 -5.99727 2.01272 0
M  V30 4176 C 385.937 -6.25927 2.31888 0
M  V30 4177 H 385.207 -0.727496 -0.140821 0
M  V30 4178 H 387.854 -1.8831 0.348106 0
M  V30 4179 H 386.159 -3.55112 -1.65537 0
M  V30 4180 H 387.856 -3.78017 -1.33806 0
M  V30 4181 H 384.446 -4.286 0.00340639 0
M  V30 4182 H 388.63 -4.90366 0.765182 0
M  V30 4183 H 383.886 -5.83403 1.82896 0
M  V30 4184 H 388.06 -6.46517 2.58823 0
M  V30 4185 H 385.687 -6.92949 3.12611 0
M  V30 4186 N 387.262 0.0317525 -1.57568 0
M  V30 4187 C 388.509 0.723104 -1.89149 0
M  V30 4188 C 388.837 1.75504 -0.838377 0
M  V30 4189 O 388.092 1.95037 0.160982 0
M  V30 4190 C 388.391 1.43167 -3.27472 0
M  V30 4191 C 388.057 0.535972 -4.47703 0
M  V30 4192 C 386.719 0.289262 -4.8033 0
M  V30 4193 C 389.071 -0.0826125 -5.21135 0
M  V30 4194 C 386.399 -0.584853 -5.83778 0
M  V30 4195 C 388.751 -0.944414 -6.25511 0
M  V30 4196 C 387.415 -1.20061 -6.56614 0
M  V30 4197 H 386.685 0.264602 -0.692146 0
M  V30 4198 H 389.332 -0.0169496 -1.91492 0
M  V30 4199 H 387.637 2.24497 -3.21105 0
M  V30 4200 H 389.334 1.97209 -3.49155 0
M  V30 4201 H 385.924 0.738414 -4.22191 0
M  V30 4202 H 390.108 0.0950302 -4.96209 0
M  V30 4203 H 385.364 -0.79168 -6.06253 0
M  V30 4204 H 389.538 -1.43026 -6.81554 0
M  V30 4205 H 387.165 -1.87967 -7.36595 0
M  V30 4206 N 388.74 1.54641 0.303973 0
M  V30 4207 C 389.688 1.86137 1.39484 0
M  V30 4208 C 390.682 0.734854 1.52631 0
M  V30 4209 O 391.888 0.918803 1.54784 0
M  V30 4210 H 388.263 0.590324 0.465856 0
M  V30 4211 H 390.234 2.77324 1.10154 0
M  V30 4212 C 388.983 2.12274 2.75382 0
M  V30 4213 H 388.306 2.98429 2.66046 0
M  V30 4214 H 389.746 2.38254 3.5073 0
M  V30 4215 C 388.205 0.920365 3.24085 0
M  V30 4216 O 388.735 0.139377 4.01458 0
M  V30 4217 N 386.941 0.726566 2.81371 0
M  V30 4218 H 386.488 1.36332 2.18567 0
M  V30 4219 H 386.446 -0.0763799 3.14307 0
M  V30 4220 N 390.218 -0.567019 1.47046 0
M  V30 4221 C 391.629 -1.14916 1.47143 0
M  V30 4222 C 391.98 -1.94954 0.220767 0
M  V30 4223 O 391.105 -2.05602 -0.67505 0
M  V30 4224 C 391.7 -2.09069 2.666 0
M  V30 4225 C 390.259 -2.62575 2.69687 0
M  V30 4226 C 389.406 -1.38755 2.40088 0
M  V30 4227 H 392.357 -0.354126 1.54699 0
M  V30 4228 H 392.378 -2.92789 2.43011 0
M  V30 4229 H 391.89 -1.50789 3.57609 0
M  V30 4230 H 389.991 -3.24681 1.82792 0
M  V30 4231 H 390.104 -3.04239 3.70102 0
M  V30 4232 H 388.468 -1.69098 1.90468 0
M  V30 4233 H 389.251 -0.822822 3.33293 0
M  V30 4234 N 391.696 -1.35014 -0.812953 0
M  V30 4235 C 392.973 -1.18502 -1.55617 0
M  V30 4236 C 393.353 0.238421 -2.09749 0
M  V30 4237 O 392.701 1.2411 -1.91857 0
M  V30 4238 C 392.911 -2.24783 -2.66971 0
M  V30 4239 C 394.259 -2.60268 -3.35478 0
M  V30 4240 O 395.283 -2.23648 -2.77236 0
M  V30 4241 O 394.142 -3.2321 -4.40678 0
M  V30 4242 H 391.236 -0.459984 -0.687272 0
M  V30 4243 H 393.782 -1.46677 -0.853464 0
M  V30 4244 H 392.554 -3.20284 -2.24798 0
M  V30 4245 H 392.177 -1.97841 -3.44884 0
M  V30 4246 N 393.175 1.03435 -1.18907 0
M  V30 4247 C 394.591 1.28973 -0.940111 0
M  V30 4248 C 394.791 1.97676 0.390691 0
M  V30 4249 O 393.847 2.26127 1.12352 0
M  V30 4250 C 395.16 2.14221 -2.11021 0
M  V30 4251 C 396.708 2.27547 -2.14922 0
M  V30 4252 C 397.183 3.16164 -3.31367 0
M  V30 4253 N 398.674 3.23752 -3.31269 0
M  V30 4254 C 399.409 3.92495 -4.18014 0
M  V30 4255 N 398.905 4.63515 -5.14904 0
M  V30 4256 N 400.698 3.88838 -4.05908 0
M  V30 4257 H 392.849 0.57252 -2.04538 0
M  V30 4258 H 395.112 0.315184 -0.894071 0
M  V30 4259 H 394.818 1.71054 -3.073 0
M  V30 4260 H 394.692 3.14919 -2.0762 0
M  V30 4261 H 397.079 2.69947 -1.19217 0
M  V30 4262 H 397.16 1.26418 -2.22378 0
M  V30 4263 H 396.804 2.74474 -4.27348 0
M  V30 4264 H 396.734 4.17339 -3.21148 0
M  V30 4265 H 399.225 2.73167 -2.61129 0
M  V30 4266 H 399.538 5.13583 -5.77453 0
M  V30 4267 H 397.883 4.62398 -5.18857 0
M  V30 4268 H 401.074 3.32491 -3.29495 0
M  V30 4269 H 401.247 4.4214 -4.73726 0
M  V30 4270 N 394.653 0.992116 1.22453 0
M  V30 4271 C 395.563 0.55065 2.28046 0
M  V30 4272 C 396.579 -0.400189 1.69335 0
M  V30 4273 O 397.755 -0.267215 1.99619 0
M  V30 4274 C 394.82 -0.128496 3.46462 0
M  V30 4275 C 393.881 0.865208 4.20491 0
M  V30 4276 C 393.114 0.218377 5.33253 0
M  V30 4277 O 393.337 -0.987894 5.6178 0
M  V30 4278 O 392.271 0.922845 5.94783 0
M  V30 4279 H 396.097 1.4291 2.67975 0
M  V30 4280 H 393.682 0.760326 1.28606 0
M  V30 4281 H 395.564 -0.508947 4.18315 0
M  V30 4282 H 394.239 -0.981526 3.0846 0
M  V30 4283 H 393.146 1.29658 3.50913 0
M  V30 4284 H 394.479 1.68741 4.62371 0
M  V30 4285 N 396.131 -1.37776 0.765217 0
M  V30 4286 C 397.379 -1.99454 0.325943 0
M  V30 4287 C 397.7 -1.61049 -1.09947 0
M  V30 4288 O 396.97 -0.872821 -1.75381 0
M  V30 4289 H 395.55 -0.737697 0.117525 0
M  V30 4290 H 398.212 -1.68359 0.981895 0
M  V30 4291 H 397.308 -3.09547 0.398353 0
M  V30 4292 N 397.609 -0.515225 -1.4894 0
M  V30 4293 C 398.855 0.016187 -2.03394 0
M  V30 4294 C 399.21 1.33377 -1.38666 0
M  V30 4295 O 398.503 1.84461 -0.518141 0
M  V30 4296 C 398.697 0.210595 -3.56779 0
M  V30 4297 C 398.526 -1.08659 -4.36375 0
M  V30 4298 C 397.296 -1.64237 -4.77864 0
M  V30 4299 C 399.494 -1.9935 -4.74093 0
M  V30 4300 N 397.476 -2.88398 -5.41941 0
M  V30 4301 C 398.847 -3.08088 -5.38035 0
M  V30 4302 C 400.902 -1.99856 -4.56029 0
M  V30 4303 C 399.605 -4.17377 -5.85823 0
M  V30 4304 C 401.631 -3.08129 -5.04787 0
M  V30 4305 C 400.993 -4.15586 -5.68742 0
M  V30 4306 H 397.092 -0.0352107 -0.781207 0
M  V30 4307 H 399.676 -0.693237 -1.8194 0
M  V30 4308 H 397.847 0.889088 -3.78087 0
M  V30 4309 H 399.579 0.740287 -3.97872 0
M  V30 4310 H 396.334 -1.18566 -4.58518 0
M  V30 4311 H 396.758 -3.51572 -5.78555 0
M  V30 4312 H 401.4 -1.18079 -4.05977 0
M  V30 4313 H 399.118 -4.99943 -6.34888 0
M  V30 4314 H 402.704 -3.09557 -4.92611 0
M  V30 4315 H 401.584 -4.97987 -6.05787 0
M  V30 4316 N 399.087 1.5561 -0.249682 0
M  V30 4317 C 400.017 2.24477 0.642826 0
M  V30 4318 C 400.998 1.22601 1.17911 0
M  V30 4319 O 402.183 1.5126 1.21795 0
M  V30 4320 C 399.313 2.94638 1.83863 0
M  V30 4321 C 398.267 4.03227 1.435 0
M  V30 4322 C 397.593 4.60828 2.71186 0
M  V30 4323 C 398.893 5.18796 0.604002 0
M  V30 4324 H 400.587 2.99321 0.0685625 0
M  V30 4325 H 398.133 1.43965 0.0315363 0
M  V30 4326 H 400.086 3.41517 2.46868 0
M  V30 4327 H 398.81 2.17287 2.43832 0
M  V30 4328 H 397.469 3.57121 0.828275 0
M  V30 4329 H 397.117 3.80174 3.29358 0
M  V30 4330 H 396.817 5.34132 2.44901 0
M  V30 4331 H 398.341 5.10442 3.35084 0
M  V30 4332 H 399.755 5.61883 1.13842 0
M  V30 4333 H 398.152 5.98506 0.437097 0
M  V30 4334 H 399.222 4.83384 -0.383147 0
M  V30 4335 N 400.565 -0.0233959 1.57583 0
M  V30 4336 C 401.495 -1.02162 2.09965 0
M  V30 4337 C 402.476 -1.3735 1.00344 0
M  V30 4338 O 403.661 -1.46135 1.27899 0
M  V30 4339 C 400.791 -2.32081 2.58371 0
M  V30 4340 C 399.745 -2.1112 3.72307 0
M  V30 4341 C 399.071 -3.46848 4.06941 0
M  V30 4342 C 400.371 -1.49276 5.00514 0
M  V30 4343 H 402.065 -0.585557 2.93618 0
M  V30 4344 H 399.611 -0.280218 1.41247 0
M  V30 4345 H 401.564 -3.02249 2.93639 0
M  V30 4346 H 400.288 -2.77758 1.71808 0
M  V30 4347 H 398.947 -1.43384 3.37397 0
M  V30 4348 H 398.595 -3.90184 3.17436 0
M  V30 4349 H 398.295 -3.33646 4.83688 0
M  V30 4350 H 399.819 -4.18369 4.44747 0
M  V30 4351 H 401.233 -2.09368 5.33702 0
M  V30 4352 H 399.63 -1.46632 5.8191 0
M  V30 4353 H 400.7 -0.459217 4.82721 0
M  V30 4354 N 402.043 -1.548 -0.295768 0
M  V30 4355 C 402.99 -1.86113 -1.36494 0
M  V30 4356 C 403.96 -0.7105 -1.50137 0
M  V30 4357 O 405.145 -0.959626 -1.64912 0
M  V30 4358 C 402.285 -2.11861 -2.72413 0
M  V30 4359 C 401.398 -3.39471 -2.67177 0
M  V30 4360 C 400.533 -3.55035 -3.95125 0
M  V30 4361 C 399.572 -4.76418 -3.84308 0
M  V30 4362 N 398.709 -4.8876 -5.04042 0
M  V30 4363 H 403.549 -2.77314 -1.09091 0
M  V30 4364 H 401.086 -1.37315 -0.52753 0
M  V30 4365 H 403.044 -2.24786 -3.51464 0
M  V30 4366 H 401.674 -1.2392 -2.98066 0
M  V30 4367 H 400.726 -3.35139 -1.79962 0
M  V30 4368 H 402.038 -4.28646 -2.55076 0
M  V30 4369 H 401.192 -3.67653 -4.82614 0
M  V30 4370 H 399.931 -2.64002 -4.10066 0
M  V30 4371 H 398.936 -4.63827 -2.95202 0
M  V30 4372 H 400.161 -5.68863 -3.70906 0
M  V30 4373 H 398.107 -4.00652 -5.19436 0
M  V30 4374 H 398.024 -5.71945 -4.94384 0
M  V30 4375 H 399.292 -5.0574 -5.93167 0
M  V30 4376 N 403.521 0.559213 -1.47345 0
M  V30 4377 C 404.451 1.67622 -1.62558 0
M  V30 4378 C 405.432 1.63331 -0.475087 0
M  V30 4379 O 406.617 1.80983 -0.704182 0
M  V30 4380 C 403.747 3.0626 -1.63774 0
M  V30 4381 C 402.701 3.25397 -2.7803 0
M  V30 4382 C 402.027 4.64801 -2.64318 0
M  V30 4383 C 403.327 3.10965 -4.19641 0
M  V30 4384 H 405.021 1.55146 -2.56067 0
M  V30 4385 H 402.567 0.744961 -1.23233 0
M  V30 4386 H 404.52 3.84247 -1.73008 0
M  V30 4387 H 403.244 3.1969 -0.66825 0
M  V30 4388 H 401.903 2.49817 -2.68304 0
M  V30 4389 H 401.551 4.75028 -1.65401 0
M  V30 4390 H 401.251 4.78555 -3.40968 0
M  V30 4391 H 402.775 5.44926 -2.75478 0
M  V30 4392 H 404.189 3.78772 -4.30354 0
M  V30 4393 H 402.586 3.36229 -4.97062 0
M  V30 4394 H 403.656 2.07736 -4.38148 0
M  V30 4395 N 404.999 1.35443 0.805782 0
M  V30 4396 C 406.247 1.28507 1.55982 0
M  V30 4397 C 406.568 -0.140046 1.94496 0
M  V30 4398 O 405.838 -1.07666 1.63661 0
M  V30 4399 H 404.418 0.472676 0.578434 0
M  V30 4400 H 407.08 1.69555 0.961098 0
M  V30 4401 H 406.176 1.90148 2.47488 0
M  V30 4402 N 406.477 -1.02803 1.19454 0
M  V30 4403 C 407.725 -1.75869 0.995722 0
M  V30 4404 C 408.046 -1.89138 -0.474543 0
M  V30 4405 O 407.316 -1.42558 -1.34366 0
M  V30 4406 H 405.896 -0.651511 0.365435 0
M  V30 4407 H 408.558 -1.24004 1.50363 0
M  V30 4408 H 407.654 -2.76661 1.44447 0
M  V30 4409 N 407.956 -0.998596 -1.21925 0
M  V30 4410 C 409.204 -0.676325 -1.90448 0
M  V30 4411 C 409.525 0.794719 -1.78071 0
M  V30 4412 O 408.795 1.5701 -1.17152 0
M  V30 4413 H 407.375 -0.247165 -0.704925 0
M  V30 4414 H 410.037 -1.26633 -1.48156 0
M  V30 4415 H 409.133 -0.943858 -2.97486 0
M  V30 4416 N 409.434 1.37368 -0.772513 0
M  V30 4417 C 410.85 1.53059 -0.452231 0
M  V30 4418 C 411.05 1.73065 1.03203 0
M  V30 4419 O 410.106 1.75245 1.81784 0
M  V30 4420 C 411.419 2.72659 -1.26797 0
M  V30 4421 C 412.967 2.86521 -1.25995 0
M  V30 4422 C 413.442 4.09105 -2.05905 0
M  V30 4423 N 414.933 4.16219 -2.03263 0
M  V30 4424 C 415.668 5.10107 -2.61875 0
M  V30 4425 N 415.164 6.09547 -3.29278 0
M  V30 4426 N 416.957 5.02596 -2.51701 0
M  V30 4427 H 409.108 1.22634 -1.7342 0
M  V30 4428 H 411.371 0.597206 -0.736239 0
M  V30 4429 H 411.077 2.64343 -2.31982 0
M  V30 4430 H 410.951 3.66363 -0.897672 0
M  V30 4431 H 413.338 2.94308 -0.216081 0
M  V30 4432 H 413.419 1.93774 -1.66989 0
M  V30 4433 H 413.063 4.0208 -3.10313 0
M  V30 4434 H 412.993 5.00968 -1.62292 0
M  V30 4435 H 415.484 3.45012 -1.54192 0
M  V30 4436 H 415.797 6.77718 -3.71374 0
M  V30 4437 H 414.142 6.09824 -3.33377 0
M  V30 4438 H 417.333 4.23855 -1.98657 0
M  V30 4439 H 417.506 5.75582 -2.97673 0
M  V30 4440 N 410.912 0.523116 1.48665 0
M  V30 4441 C 412.158 -0.0134963 2.02796 0
M  V30 4442 C 412.491 -1.34582 1.40004 0
M  V30 4443 O 411.766 -1.86756 0.543381 0
M  V30 4444 C 412.049 -0.14276 3.59817 0
M  V30 4445 C 411.902 1.21425 4.331 0
M  V30 4446 C 413.221 -0.872856 4.31357 0
M  V30 4447 H 410.34 -0.00343074 0.736992 0
M  V30 4448 H 412.982 0.678816 1.7746 0
M  V30 4449 H 411.132 -0.732401 3.81534 0
M  V30 4450 H 412.804 1.84447 4.2282 0
M  V30 4451 H 411.047 1.79791 3.94788 0
M  V30 4452 H 411.718 1.07687 5.41394 0
M  V30 4453 H 414.194 -0.372555 4.14429 0
M  V30 4454 H 413.07 -0.932185 5.40927 0
M  V30 4455 H 413.331 -1.92161 3.98154 0
M  V30 4456 N 412.39 -1.55475 0.257931 0
M  V30 4457 C 413.337 -2.21837 -0.636939 0
M  V30 4458 C 414.307 -1.18596 -1.16294 0
M  V30 4459 O 415.492 -1.47081 -1.21539 0
M  V30 4460 C 412.632 -2.9301 -1.82317 0
M  V30 4461 C 411.745 -4.10931 -1.33265 0
M  V30 4462 C 410.88 -4.69791 -2.47931 0
M  V30 4463 C 409.919 -5.7994 -1.95796 0
M  V30 4464 N 409.056 -6.32935 -3.0387 0
M  V30 4465 H 413.896 -2.9793 -0.0643591 0
M  V30 4466 H 411.433 -1.47086 -0.0200031 0
M  V30 4467 H 413.391 -3.3248 -2.52018 0
M  V30 4468 H 412.021 -2.1937 -2.36805 0
M  V30 4469 H 411.073 -3.76699 -0.52931 0
M  V30 4470 H 412.385 -4.90417 -0.910654 0
M  V30 4471 H 411.539 -5.11892 -3.25656 0
M  V30 4472 H 410.278 -3.89545 -2.93438 0
M  V30 4473 H 409.283 -5.37305 -1.16546 0
M  V30 4474 H 410.508 -6.62043 -1.51246 0
M  V30 4475 H 408.454 -5.55591 -3.48791 0
M  V30 4476 H 408.371 -7.07645 -2.66035 0
M  V30 4477 H 409.639 -6.79695 -3.81621 0
M  V30 4478 N 413.868 0.0150385 -1.57593 0
M  V30 4479 C 415.096 0.714395 -1.94175 0
M  V30 4480 C 415.511 1.68135 -0.858841 0
M  V30 4481 O 414.868 1.81766 0.163567 0
M  V30 4482 C 414.919 1.45933 -3.30735 0
M  V30 4483 O 414.64 0.531167 -4.34868 0
M  V30 4484 C 416.141 2.25456 -3.81686 0
M  V30 4485 H 413.361 0.199923 -0.640525 0
M  V30 4486 H 415.905 -0.0316096 -2.04476 0
M  V30 4487 H 414.06 2.15709 -3.21789 0
M  V30 4488 H 414.474 1.05509 -5.13778 0
M  V30 4489 H 415.948 2.731 -4.79709 0
M  V30 4490 H 416.425 3.07485 -3.13607 0
M  V30 4491 H 417.031 1.60727 -3.9376 0
M  V30 4492 N 415.346 1.54954 0.287554 0
M  V30 4493 C 416.592 1.76059 1.01856 0
M  V30 4494 C 416.947 0.547056 1.84459 0
M  V30 4495 O 416.24 -0.460442 1.85985 0
M  V30 4496 C 416.434 2.99833 1.94512 0
M  V30 4497 C 416.263 4.33108 1.21026 0
M  V30 4498 C 415.033 4.96632 0.931896 0
M  V30 4499 C 417.231 5.10694 0.607949 0
M  V30 4500 N 415.213 6.13668 0.168716 0
M  V30 4501 C 416.584 6.19996 -0.0217865 0
M  V30 4502 C 418.639 4.95236 0.514338 0
M  V30 4503 C 417.342 7.15524 -0.736092 0
M  V30 4504 C 419.368 5.91106 -0.186343 0
M  V30 4505 C 418.73 6.99786 -0.804875 0
M  V30 4506 H 414.829 0.696679 0.355193 0
M  V30 4507 H 417.413 1.92441 0.295741 0
M  V30 4508 H 415.584 2.84853 2.64033 0
M  V30 4509 H 417.316 3.09405 2.60865 0
M  V30 4510 H 414.071 4.57255 1.23348 0
M  V30 4511 H 414.495 6.76705 -0.199781 0
M  V30 4512 H 419.137 4.11328 0.978234 0
M  V30 4513 H 416.855 7.98964 -1.21172 0
M  V30 4514 H 420.441 5.81224 -0.258897 0
M  V30 4515 H 419.321 7.72694 -1.33843 0
M  V30 4516 N 416.824 -0.551391 1.4764 0
M  V30 4517 C 417.771 -1.65796 1.60563 0
M  V30 4518 C 418.741 -1.59932 0.448428 0
M  V30 4519 O 419.926 -1.78679 0.669222 0
M  V30 4520 C 417.066 -3.04108 1.63133 0
M  V30 4521 C 416.179 -3.20365 2.89811 0
M  V30 4522 C 415.314 -4.49109 2.8368 0
M  V30 4523 C 414.353 -4.58819 4.05156 0
M  V30 4524 N 413.49 -5.78926 3.97227 0
M  V30 4525 H 418.33 -1.54088 2.5507 0
M  V30 4526 H 415.867 -0.75052 1.26513 0
M  V30 4527 H 417.825 -3.84207 1.62606 0
M  V30 4528 H 416.455 -3.14637 0.721341 0
M  V30 4529 H 415.507 -2.33659 3.00179 0
M  V30 4530 H 416.819 -3.23402 3.79753 0
M  V30 4531 H 415.973 -5.37475 2.81434 0
M  V30 4532 H 414.712 -4.4856 1.91431 0
M  V30 4533 H 413.717 -3.68864 4.077 0
M  V30 4534 H 414.942 -4.61124 4.98539 0
M  V30 4535 H 412.888 -5.79314 3.07785 0
M  V30 4536 H 412.805 -5.83367 4.80853 0
M  V30 4537 H 414.073 -6.69637 3.99007 0
M  V30 4538 N 418.302 -1.35869 -0.798587 0
M  V30 4539 C 419.718 -1.16082 -1.09532 0
M  V30 4540 C 419.918 0.0213124 -2.01489 0
M  V30 4541 O 418.974 0.689488 -2.42904 0
M  V30 4542 C 420.287 -2.46748 -1.7186 0
M  V30 4543 C 421.835 -2.53028 -1.84244 0
M  V30 4544 C 422.31 -3.83758 -2.49988 0
M  V30 4545 N 423.801 -3.85053 -2.57465 0
M  V30 4546 C 424.536 -4.8294 -3.09122 0
M  V30 4547 N 424.032 -5.91217 -3.61157 0
M  V30 4548 N 425.825 -4.70369 -3.0775 0
M  V30 4549 H 417.976 -2.11571 -0.187461 0
M  V30 4550 H 420.239 -0.936726 -0.145765 0
M  V30 4551 H 419.945 -3.33471 -1.11759 0
M  V30 4552 H 419.819 -2.61883 -2.71472 0
M  V30 4553 H 422.206 -1.66729 -2.43486 0
M  V30 4554 H 422.287 -2.418 -0.834643 0
M  V30 4555 H 421.931 -4.70459 -1.91393 0
M  V30 4556 H 421.861 -3.92278 -3.5132 0
M  V30 4557 H 424.352 -3.06822 -2.20609 0
M  V30 4558 H 424.665 -6.61892 -3.98896 0
M  V30 4559 H 423.01 -5.94899 -3.59333 0
M  V30 4560 H 426.201 -3.84914 -2.66381 0
M  V30 4561 H 426.374 -5.46816 -3.47701 0
M  V30 4562 N 419.78 1.02168 -1.19998 0
M  V30 4563 C 421.196 1.27969 -0.953737 0
M  V30 4564 C 421.396 1.98079 0.369703 0
M  V30 4565 O 420.452 2.27306 1.09947 0
M  V30 4566 C 421.765 2.11971 -2.13281 0
M  V30 4567 C 423.313 2.25255 -2.17323 0
M  V30 4568 C 423.788 3.12632 -3.34702 0
M  V30 4569 N 425.279 3.2022 -3.34684 0
M  V30 4570 C 426.014 3.88039 -4.22153 0
M  V30 4571 N 425.51 4.58027 -5.19791 0
M  V30 4572 N 427.303 3.84511 -4.10009 0
M  V30 4573 H 419.454 0.550794 -2.05134 0
M  V30 4574 H 421.717 0.305683 -0.897364 0
M  V30 4575 H 421.423 1.67785 -3.09097 0
M  V30 4576 H 421.297 3.12699 -2.10949 0
M  V30 4577 H 423.684 2.68667 -1.22073 0
M  V30 4578 H 423.765 1.24053 -2.23706 0
M  V30 4579 H 423.409 2.69926 -4.30235 0
M  V30 4580 H 423.339 4.13909 -3.25556 0
M  V30 4581 H 425.83 2.70382 -2.64012 0
M  V30 4582 H 426.143 5.07429 -5.82868 0
M  V30 4583 H 424.488 4.56869 -5.23733 0
M  V30 4584 H 427.679 3.28978 -3.33003 0
M  V30 4585 H 427.852 4.3709 -4.78389 0
M  V30 4586 N 421.258 1.00505 1.21394 0
M  V30 4587 C 422.504 0.698477 1.91031 0
M  V30 4588 C 422.859 -0.762448 1.76648 0
M  V30 4589 O 422.152 -1.54554 1.13241 0
M  V30 4590 C 422.346 1.0546 3.41486 0
M  V30 4591 C 422.175 2.5486 3.70508 0
M  V30 4592 C 420.945 3.21461 3.8986 0
M  V30 4593 C 423.143 3.53019 3.74008 0
M  V30 4594 N 421.125 4.60211 4.06299 0
M  V30 4595 C 422.496 4.77279 3.95733 0
M  V30 4596 C 424.551 3.47154 3.56915 0
M  V30 4597 C 423.254 5.96388 4.02137 0
M  V30 4598 C 425.28 4.65652 3.64585 0
M  V30 4599 C 424.642 5.88717 3.86771 0
M  V30 4600 H 420.741 0.30707 0.719189 0
M  V30 4601 H 423.325 1.28753 1.46051 0
M  V30 4602 H 421.496 0.494007 3.85246 0
M  V30 4603 H 423.228 0.702765 3.98552 0
M  V30 4604 H 419.983 2.71906 3.87768 0
M  V30 4605 H 420.407 5.32216 4.1842 0
M  V30 4606 H 425.049 2.53015 3.38738 0
M  V30 4607 H 422.767 6.90919 4.19114 0
M  V30 4608 H 426.353 4.62717 3.52681 0
M  V30 4609 H 425.233 6.78877 3.92549 0
M  V30 4610 N 422.737 -1.36956 0.779787 0
M  V30 4611 C 423.984 -1.99491 0.347766 0
M  V30 4612 C 424.312 -1.61898 -1.07793 0
M  V30 4613 O 423.567 -0.86071 -1.75756 0
M  V30 4614 C 423.866 -3.54585 0.447686 0
M  V30 4615 C 423.532 -4.1197 1.83279 0
M  V30 4616 C 422.194 -4.27356 2.2118 0
M  V30 4617 C 424.546 -4.43354 2.74019 0
M  V30 4618 C 421.874 -4.71432 3.4924 0
M  V30 4619 C 424.226 -4.88858 4.01497 0
M  V30 4620 C 422.89 -5.0245 4.39432 0
M  V30 4621 H 422.16 -0.729991 0.127257 0
M  V30 4622 H 424.807 -1.63599 0.995376 0
M  V30 4623 H 423.112 -3.90773 -0.283447 0
M  V30 4624 H 424.809 -4.00888 0.0945948 0
M  V30 4625 H 421.399 -4.00428 1.52825 0
M  V30 4626 H 425.583 -4.31045 2.45995 0
M  V30 4627 H 420.839 -4.80141 3.78516 0
M  V30 4628 H 425.013 -5.12108 4.71931 0
M  V30 4629 H 422.64 -5.36362 5.38721 0
M  V30 4630 N 424.215 -0.530993 -1.48385 0
M  V30 4631 C 425.464 0.00474348 -2.01699 0
M  V30 4632 C 425.777 1.35227 -1.41325 0
M  V30 4633 O 426.983 1.97643 -1.86144 0
M  V30 4634 C 425.439 0.0588473 -3.59852 0
M  V30 4635 C 425.047 -1.28385 -4.2921 0
M  V30 4636 C 426.791 0.543358 -4.21008 0
M  V30 4637 C 424.698 -1.19028 -5.79298 0
M  V30 4638 H 423.628 0.00554317 -0.75398 0
M  V30 4639 H 426.279 -0.674924 -1.70637 0
M  V30 4640 H 424.661 0.803612 -3.8776 0
M  V30 4641 H 425.835 -2.04426 -4.12973 0
M  V30 4642 H 424.15 -1.70418 -3.7993 0
M  V30 4643 H 426.747 0.631351 -5.3096 0
M  V30 4644 H 427.09 1.54937 -3.86394 0
M  V30 4645 H 427.623 -0.145754 -3.97533 0
M  V30 4646 H 424.362 -2.17147 -6.18488 0
M  V30 4647 H 423.882 -0.471246 -5.97946 0
M  V30 4648 H 425.561 -0.881365 -6.40969 0
M  V30 4649 N 425.693 1.55336 -0.266172 0
M  V30 4650 C 426.623 2.25146 0.618981 0
M  V30 4651 C 427.604 1.23845 1.16604 0
M  V30 4652 O 428.789 1.52544 1.20183 0
M  V30 4653 C 425.919 2.96572 1.80728 0
M  V30 4654 C 424.873 4.04726 1.39215 0
M  V30 4655 C 424.199 4.63678 2.66283 0
M  V30 4656 C 425.499 5.19407 0.548942 0
M  V30 4657 H 427.193 2.99377 0.0368116 0
M  V30 4658 H 424.739 1.43991 0.0162651 0
M  V30 4659 H 426.692 3.44116 2.43232 0
M  V30 4660 H 425.416 2.19861 2.41514 0
M  V30 4661 H 424.075 3.57979 0.790351 0
M  V30 4662 H 423.723 3.83646 3.25308 0
M  V30 4663 H 423.423 5.367 2.39222 0
M  V30 4664 H 424.947 5.13967 3.29651 0
M  V30 4665 H 426.361 5.63059 1.07876 0
M  V30 4666 H 424.758 5.98936 0.373593 0
M  V30 4667 H 425.828 4.8295 -0.434394 0
M  V30 4668 N 427.171 -0.0066808 1.57599 0
M  V30 4669 C 428.399 -0.704087 1.94551 0
M  V30 4670 C 428.814 -1.67677 0.867746 0
M  V30 4671 O 428.171 -1.8185 -0.153925 0
M  V30 4672 C 428.222 -1.44177 3.31505 0
M  V30 4673 O 427.943 -0.508097 4.35144 0
M  V30 4674 C 429.444 -2.23429 3.82876 0
M  V30 4675 H 426.664 -0.196523 0.641576 0
M  V30 4676 H 429.208 0.042453 2.04456 0
M  V30 4677 H 427.363 -2.13999 3.22929 0
M  V30 4678 H 427.777 -1.02782 5.14331 0
M  V30 4679 H 429.251 -2.70552 4.8115 0
M  V30 4680 H 429.728 -3.05818 3.15233 0
M  V30 4681 H 430.334 -1.58636 3.94607 0
M  V30 4682 N 428.649 -1.55105 -0.279332 0
M  V30 4683 C 429.926 -1.66119 -1.03267 0
M  V30 4684 C 430.306 -0.523525 -2.04505 0
M  V30 4685 O 429.654 0.477194 -2.23462 0
M  V30 4686 C 429.864 -3.05067 -1.69515 0
M  V30 4687 C 431.212 -3.62606 -2.20912 0
M  V30 4688 O 432.236 -3.07659 -1.79512 0
M  V30 4689 O 431.095 -4.58861 -2.96831 0
M  V30 4690 H 428.189 -0.674429 -0.478618 0
M  V30 4691 H 430.735 -1.67446 -0.275694 0
M  V30 4692 H 429.507 -3.79311 -0.9612 0
M  V30 4693 H 429.13 -3.07611 -2.51915 0
M  V30 4694 N 430.127 0.543554 -1.4793 0
M  V30 4695 C 431.075 1.67039 -1.61866 0
M  V30 4696 C 432.069 1.62294 -0.48549 0
M  V30 4697 O 433.275 1.67315 -0.66376 0
M  V30 4698 H 429.65 0.552954 -0.509652 0
M  V30 4699 H 431.621 1.52426 -2.56533 0
M  V30 4700 C 430.37 3.05357 -1.6629 0
M  V30 4701 H 429.693 3.09696 -2.5284 0
M  V30 4702 H 431.133 3.83855 -1.80088 0
M  V30 4703 C 429.592 3.34531 -0.398861 0
M  V30 4704 O 430.122 3.98649 0.494162 0
M  V30 4705 N 428.328 2.89299 -0.2747 0
M  V30 4706 H 427.875 2.37298 -1.00236 0
M  V30 4707 H 427.833 3.09188 0.570075 0
M  V30 4708 N 431.605 1.3629 0.791371 0
M  V30 4709 C 432.845 1.31792 1.56238 0
M  V30 4710 C 433.209 -0.102237 1.91728 0
M  V30 4711 O 434.41 -0.271759 2.67423 0
M  V30 4712 C 432.681 2.21303 2.80642 0
M  V30 4713 S 434.24 2.34468 3.70904 0
M  V30 4714 H 431.058 0.468141 0.535131 0
M  V30 4715 H 433.66 1.71841 0.932246 0
M  V30 4716 H 432.364 3.23439 2.52617 0
M  V30 4717 H 431.895 1.82266 3.4863 0
M  V30 4718 H 433.91 1.54074 4.71673 0
M  V30 4719 N 433.083 -1.0153 1.20538 0
M  V30 4720 C 434.013 -2.11972 0.979295 0
M  V30 4721 C 434.994 -1.6985 -0.0921787 0
M  V30 4722 O 436.179 -1.94089 0.0655932 0
M  V30 4723 C 433.309 -3.43201 0.531984 0
M  V30 4724 C 432.263 -3.9907 1.54685 0
M  V30 4725 C 431.589 -5.26082 0.956127 0
M  V30 4726 C 432.889 -4.32313 2.93092 0
M  V30 4727 H 434.583 -2.31143 1.90298 0
M  V30 4728 H 432.129 -1.11079 0.916372 0
M  V30 4729 H 434.082 -4.1985 0.361044 0
M  V30 4730 H 432.806 -3.23792 -0.427327 0
M  V30 4731 H 431.465 -3.2453 1.70517 0
M  V30 4732 H 431.113 -5.02999 -0.0111538 0
M  V30 4733 H 430.813 -5.64426 1.63393 0
M  V30 4734 H 432.337 -6.05386 0.796284 0
M  V30 4735 H 433.751 -4.99845 2.80763 0
M  V30 4736 H 432.148 -4.81774 3.57791 0
M  V30 4737 H 433.218 -3.41025 3.44717 0
M  V30 4738 N 434.561 -1.01147 -1.20859 0
M  V30 4739 C 435.791 -0.715872 -1.93801 0
M  V30 4740 C 436.199 0.726592 -1.74692 0
M  V30 4741 O 435.542 1.50397 -1.05482 0
M  V30 4742 C 435.604 -0.965269 -3.46299 0
M  V30 4743 C 435.268 -2.39584 -3.89164 0
M  V30 4744 C 436.265 -3.3764 -3.95342 0
M  V30 4745 C 433.95 -2.73522 -4.21297 0
M  V30 4746 C 435.944 -4.67698 -4.33056 0
M  V30 4747 C 433.631 -4.03794 -4.58687 0
M  V30 4748 C 434.629 -5.00693 -4.64538 0
M  V30 4749 O 434.317 -6.28635 -5.01072 0
M  V30 4750 H 434.049 -0.262524 -0.622942 0
M  V30 4751 H 436.603 -1.35413 -1.54443 0
M  V30 4752 H 434.833 -0.269847 -3.85757 0
M  V30 4753 H 436.522 -0.662051 -4.00464 0
M  V30 4754 H 437.288 -3.12757 -3.70686 0
M  V30 4755 H 433.167 -1.9879 -4.15937 0
M  V30 4756 H 436.711 -5.4333 -4.37537 0
M  V30 4757 H 432.608 -4.28459 -4.82797 0
M  V30 4758 H 433.376 -6.32847 -5.19083 0
M  V30 4759 N 436.039 1.36541 -0.78704 0
M  V30 4760 C 437.269 2.03266 -0.369662 0
M  V30 4761 C 437.677 1.59481 1.01796 0
M  V30 4762 O 437.02 0.778612 1.66383 0
M  V30 4763 C 437.082 3.57779 -0.351371 0
M  V30 4764 C 436.746 4.24756 -1.68617 0
M  V30 4765 C 437.743 4.47811 -2.64124 0
M  V30 4766 C 435.428 4.62277 -1.96481 0
M  V30 4767 C 437.422 5.07464 -3.85693 0
M  V30 4768 C 435.109 5.21649 -3.18317 0
M  V30 4769 C 436.107 5.44182 -4.12741 0
M  V30 4770 O 435.795 6.02307 -5.32429 0
M  V30 4771 H 435.527 0.658977 -0.150751 0
M  V30 4772 H 438.081 1.75548 -1.0664 0
M  V30 4773 H 436.311 3.84606 0.401847 0
M  V30 4774 H 438 4.05879 0.0410147 0
M  V30 4775 H 438.766 4.19221 -2.43883 0
M  V30 4776 H 434.645 4.44065 -1.23805 0
M  V30 4777 H 438.189 5.24968 -4.59407 0
M  V30 4778 H 434.086 5.49664 -3.38437 0
M  V30 4779 H 434.854 6.20775 -5.33461 0
M  V30 4780 N 437.518 0.538854 1.48102 0
M  V30 4781 C 438.765 0.0080018 2.02498 0
M  V30 4782 C 439.093 -1.33437 1.41509 0
M  V30 4783 O 438.348 -1.87709 0.553507 0
M  V30 4784 C 438.647 -0.153808 3.57069 0
M  V30 4785 C 438.313 1.11533 4.36888 0
M  V30 4786 C 436.975 1.46314 4.58417 0
M  V30 4787 C 439.327 1.95718 4.83057 0
M  V30 4788 C 436.655 2.6516 5.23361 0
M  V30 4789 C 439.007 3.13751 5.49312 0
M  V30 4790 C 437.671 3.48866 5.69077 0
M  V30 4791 H 436.941 0.00292807 0.740994 0
M  V30 4792 H 439.588 0.706668 1.77984 0
M  V30 4793 H 437.893 -0.935309 3.80472 0
M  V30 4794 H 439.59 -0.579607 3.96789 0
M  V30 4795 H 436.18 0.834484 4.20398 0
M  V30 4796 H 440.364 1.70158 4.66219 0
M  V30 4797 H 435.62 2.92558 5.36861 0
M  V30 4798 H 439.794 3.79282 5.84053 0
M  V30 4799 H 437.421 4.41054 6.19173 0
M  V30 4800 N 438.996 -1.55193 0.274407 0
M  V30 4801 C 439.906 -2.26164 -0.623473 0
M  V30 4802 C 440.922 -1.28729 -1.17068 0
M  V30 4803 O 442.098 -1.61663 -1.20112 0
M  V30 4804 C 439.163 -2.96833 -1.7914 0
M  V30 4805 C 438.224 -4.09745 -1.28093 0
M  V30 4806 C 437.457 -4.77034 -2.3932 0
M  V30 4807 O 437.68 -4.4353 -3.5866 0
M  V30 4808 O 436.614 -5.64996 -2.07516 0
M  V30 4809 H 440.44 -3.03661 -0.0485661 0
M  V30 4810 H 438.025 -1.49341 0.0418382 0
M  V30 4811 H 439.907 -3.41248 -2.4724 0
M  V30 4812 H 438.582 -2.22253 -2.35341 0
M  V30 4813 H 437.489 -3.69787 -0.566416 0
M  V30 4814 H 438.822 -4.86224 -0.764683 0
M  V30 4815 N 440.474 -0.00167713 -1.576 0
M  V30 4816 C 441.704 0.692754 -1.94639 0
M  V30 4817 C 442.112 1.67744 -0.87513 0
M  V30 4818 O 441.455 1.8305 0.154382 0
M  V30 4819 C 441.517 1.47881 -3.27676 0
M  V30 4820 C 441.181 0.655518 -4.52274 0
M  V30 4821 C 442.178 -0.0575214 -5.19868 0
M  V30 4822 C 439.863 0.600994 -4.98692 0
M  V30 4823 C 441.857 -0.814052 -6.3218 0
M  V30 4824 C 439.544 -0.15926 -6.10892 0
M  V30 4825 C 440.542 -0.865515 -6.77494 0
M  V30 4826 O 440.23 -1.61336 -7.87544 0
M  V30 4827 H 439.962 0.197792 -0.646417 0
M  V30 4828 H 442.516 -0.049423 -2.05341 0
M  V30 4829 H 440.746 2.2655 -3.13388 0
M  V30 4830 H 442.435 2.05874 -3.49816 0
M  V30 4831 H 443.201 -0.0245611 -4.84994 0
M  V30 4832 H 439.08 1.14025 -4.46676 0
M  V30 4833 H 442.624 -1.36584 -6.84098 0
M  V30 4834 H 438.521 -0.194035 -6.45208 0
M  V30 4835 H 439.289 -1.53025 -8.04068 0
M  V30 4836 N 441.952 1.55251 0.271103 0
M  V30 4837 C 443.18 1.79974 1.02064 0
M  V30 4838 C 443.595 0.574003 1.79863 0
M  V30 4839 O 442.952 -0.456962 1.76686 0
M  V30 4840 C 443.003 3.02603 1.97772 0
M  V30 4841 O 442.724 4.20443 1.23124 0
M  V30 4842 C 444.225 3.39944 2.84522 0
M  V30 4843 H 441.445 0.599489 0.301419 0
M  V30 4844 H 443.989 2.02268 0.301313 0
M  V30 4845 H 442.144 2.8243 2.65165 0
M  V30 4846 H 442.558 4.89783 1.87651 0
M  V30 4847 H 444.032 4.28915 3.47471 0
M  V30 4848 H 444.509 2.59432 3.54389 0
M  V30 4849 H 445.115 3.62383 2.22618 0
M  V30 4850 N 443.43 -0.535701 1.48216 0
M  V30 4851 C 444.658 -1.31671 1.59594 0
M  V30 4852 C 445.073 -1.87083 0.254056 0
M  V30 4853 O 444.43 -1.66112 -0.755854 0
M  V30 4854 C 444.481 -2.47158 2.63809 0
M  V30 4855 O 444.202 -1.94032 3.92789 0
M  V30 4856 C 445.703 -3.39062 2.85573 0
M  V30 4857 H 442.923 -0.400623 0.538277 0
M  V30 4858 H 445.467 -0.646827 1.94001 0
M  V30 4859 H 443.622 -3.10043 2.32276 0
M  V30 4860 H 444.036 -2.69585 4.49916 0
M  V30 4861 H 445.51 -4.16459 3.62306 0
M  V30 4862 H 445.987 -3.93941 1.94184 0
M  V30 4863 H 446.593 -2.81975 3.18387 0
M  V30 4864 N 444.908 -1.36708 -0.784132 0
M  V30 4865 C 446.185 -1.21776 -1.53069 0
M  V30 4866 C 446.565 0.193876 -2.10208 0
M  V30 4867 O 445.913 1.20012 -1.94446 0
M  V30 4868 C 446.123 -2.30395 -2.62143 0
M  V30 4869 C 447.471 -2.67325 -3.29882 0
M  V30 4870 O 448.495 -2.29478 -2.7243 0
M  V30 4871 O 447.354 -3.32485 -4.33724 0
M  V30 4872 H 444.448 -0.474459 -0.677361 0
M  V30 4873 H 446.994 -1.48454 -0.82216 0
M  V30 4874 H 445.766 -3.2498 -2.17953 0
M  V30 4875 H 445.389 -2.05112 -3.40609 0
M  V30 4876 N 446.386 1.0089 -1.21074 0
M  V30 4877 C 447.333 2.09588 -0.966512 0
M  V30 4878 C 448.303 1.65761 0.106089 0
M  V30 4879 O 449.488 1.90758 -0.0402287 0
M  V30 4880 C 446.628 3.40958 -0.533058 0
M  V30 4881 C 445.741 3.9822 -1.67467 0
M  V30 4882 C 444.876 5.17682 -1.19076 0
M  V30 4883 C 443.915 5.67043 -2.30496 0
M  V30 4884 N 443.052 6.77759 -1.83267 0
M  V30 4885 H 447.892 2.29815 -1.89708 0
M  V30 4886 H 445.429 1.12689 -0.945489 0
M  V30 4887 H 447.387 4.1637 -0.263019 0
M  V30 4888 H 446.017 3.20781 0.360505 0
M  V30 4889 H 445.069 3.1983 -2.05944 0
M  V30 4890 H 446.381 4.3085 -2.51336 0
M  V30 4891 H 445.535 6.00326 -0.877151 0
M  V30 4892 H 444.274 4.86635 -0.322066 0
M  V30 4893 H 443.279 4.82999 -2.62664 0
M  V30 4894 H 444.504 6.00121 -3.17855 0
M  V30 4895 H 442.45 6.48527 -0.987356 0
M  V30 4896 H 442.367 7.09624 -2.60711 0
M  V30 4897 H 443.635 7.63949 -1.54928 0
M  V30 4898 N 447.864 1.01787 1.20321 0
M  V30 4899 C 448.774 0.598898 2.26827 0
M  V30 4900 C 449.79 -0.36418 1.70146 0
M  V30 4901 O 450.966 -0.224812 2.00141 0
M  V30 4902 C 448.031 -0.0549769 3.46656 0
M  V30 4903 C 447.092 0.954205 4.18561 0
M  V30 4904 C 446.325 0.331439 5.3267 0
M  V30 4905 O 446.548 -0.86851 5.63749 0
M  V30 4906 O 445.482 1.0488 5.92692 0
M  V30 4907 H 449.308 1.48562 2.64883 0
M  V30 4908 H 446.893 0.787434 1.26964 0
M  V30 4909 H 448.775 -0.420102 4.19301 0
M  V30 4910 H 447.45 -0.915876 3.10473 0
M  V30 4911 H 446.357 1.37072 3.48083 0
M  V30 4912 H 447.69 1.78511 4.58688 0
M  V30 4913 N 449.342 -1.36122 0.79427 0
M  V30 4914 C 450.753 -1.81646 0.431446 0
M  V30 4915 C 451.104 -1.66043 -1.04518 0
M  V30 4916 O 450.229 -1.1841 -1.8113 0
M  V30 4917 C 450.824 -3.29785 0.776341 0
M  V30 4918 C 449.383 -3.73501 0.466282 0
M  V30 4919 C 448.53 -2.58313 1.00844 0
M  V30 4920 H 451.481 -1.24274 0.986995 0
M  V30 4921 H 451.502 -3.80437 0.0692413 0
M  V30 4922 H 451.014 -3.4111 1.8511 0
M  V30 4923 H 449.115 -3.67733 -0.600245 0
M  V30 4924 H 449.228 -4.68754 0.990288 0
M  V30 4925 H 447.592 -2.5102 0.431406 0
M  V30 4926 H 448.375 -2.72421 2.08906 0
M  V30 4927 N 450.82 -0.546701 -1.47814 0
M  V30 4928 C 452.236 -0.205717 -1.58269 0
M  V30 4929 C 452.436 1.29153 -1.54667 0
M  V30 4930 O 451.492 2.07098 -1.44453 0
M  V30 4931 C 452.805 -0.823065 -2.89216 0
M  V30 4932 C 454.353 -0.793328 -3.02779 0
M  V30 4933 C 454.828 -1.38955 -4.36412 0
M  V30 4934 N 456.319 -1.35227 -4.43021 0
M  V30 4935 C 457.054 -1.78333 -5.44963 0
M  V30 4936 N 456.55 -2.29246 -6.53772 0
M  V30 4937 N 458.343 -1.69467 -5.35945 0
M  V30 4938 H 450.494 -1.5196 -1.48398 0
M  V30 4939 H 452.757 -0.633078 -0.705632 0
M  V30 4940 H 452.463 -1.8749 -2.97558 0
M  V30 4941 H 452.337 -0.309915 -3.75925 0
M  V30 4942 H 454.724 0.249784 -2.94041 0
M  V30 4943 H 454.805 -1.34412 -2.17639 0
M  V30 4944 H 454.449 -2.43168 -4.45906 0
M  V30 4945 H 454.379 -0.814291 -5.20266 0
M  V30 4946 H 456.87 -0.979739 -3.64979 0
M  V30 4947 H 457.183 -2.60089 -7.27718 0
M  V30 4948 H 455.528 -2.3325 -6.5469 0
M  V30 4949 H 458.719 -1.29477 -4.49837 0
M  V30 4950 H 458.892 -2.03381 -6.15256 0
M  V30 4951 N 452.299 1.55045 -0.282633 0
M  V30 4952 C 453.547 1.99365 0.331334 0
M  V30 4953 C 453.868 1.1725 1.55812 0
M  V30 4954 O 453.138 0.263871 1.94115 0
M  V30 4955 H 451.718 0.736397 0.125414 0
M  V30 4956 H 454.38 1.90964 -0.389711 0
M  V30 4957 H 453.476 3.0596 0.616036 0
M  V30 4958 N 453.777 0.010035 1.57597 0
M  V30 4959 C 455.026 -0.671945 1.90178 0
M  V30 4960 C 455.339 -1.74376 0.886131 0
M  V30 4961 O 456.545 -2.48107 1.10252 0
M  V30 4962 C 455.001 -1.24636 3.3763 0
M  V30 4963 C 454.609 -0.208838 4.47513 0
M  V30 4964 C 456.353 -1.90595 3.79307 0
M  V30 4965 C 454.26 -0.793814 5.86048 0
M  V30 4966 H 453.19 -0.25474 0.709665 0
M  V30 4967 H 455.841 0.0722206 1.83358 0
M  V30 4968 H 454.223 -2.04152 3.3932 0
M  V30 4969 H 455.397 0.562463 4.57354 0
M  V30 4970 H 453.712 0.350889 4.14919 0
M  V30 4971 H 456.309 -2.35284 4.80151 0
M  V30 4972 H 456.652 -2.74074 3.13352 0
M  V30 4973 H 457.185 -1.17798 3.79958 0
M  V30 4974 H 453.924 0.00240855 6.555 0
M  V30 4975 H 453.444 -1.53404 5.79851 0
M  V30 4976 H 455.123 -1.2894 6.34022 0
M  V30 4977 N 455.255 -1.55392 -0.262866 0
M  V30 4978 C 456.504 -1.75679 -0.990943 0
M  V30 4979 C 456.817 -0.57097 -1.87081 0
M  V30 4980 O 458.023 -0.656486 -2.63444 0
M  V30 4981 C 456.479 -3.10964 -1.81188 0
M  V30 4982 C 456.087 -4.37146 -0.980188 0
M  V30 4983 C 457.831 -3.40597 -2.53365 0
M  V30 4984 C 455.738 -5.63466 -1.7961 0
M  V30 4985 H 454.668 -0.654868 -0.373716 0
M  V30 4986 H 457.319 -1.81841 -0.246203 0
M  V30 4987 H 455.701 -2.98867 -2.59797 0
M  V30 4988 H 456.875 -4.60187 -0.237558 0
M  V30 4989 H 455.19 -4.14731 -0.372497 0
M  V30 4990 H 457.787 -4.32186 -3.14833 0
M  V30 4991 H 458.13 -2.6119 -3.24169 0
M  V30 4992 H 458.663 -3.53838 -1.81779 0
M  V30 4993 H 455.402 -6.4565 -1.13209 0
M  V30 4994 H 454.922 -5.44552 -2.51443 0
M  V30 4995 H 456.601 -6.02139 -2.36723 0
M  V30 4996 N 456.733 0.527833 -1.48498 0
M  V30 4997 C 458.144 1.10975 -1.50138 0
M  V30 4998 C 458.495 1.943 -0.272378 0
M  V30 4999 O 457.62 2.07319 0.620301 0
M  V30 5000 C 458.215 2.01927 -2.72049 0
M  V30 5001 C 456.774 2.55332 -2.76554 0
M  V30 5002 C 455.921 1.32341 -2.43683 0
M  V30 5003 H 458.872 0.312986 -1.55583 0
M  V30 5004 H 458.893 2.86244 -2.50689 0
M  V30 5005 H 458.405 1.41254 -3.61481 0
M  V30 5006 H 456.506 3.19721 -1.91336 0
M  V30 5007 H 456.619 2.94319 -3.78038 0
M  V30 5008 H 454.983 1.63989 -1.94884 0
M  V30 5009 H 455.766 0.734165 -3.35358 0
M  V30 5010 N 458.211 1.37122 0.776871 0
M  V30 5011 C 459.141 1.35164 1.90402 0
M  V30 5012 C 460.122 0.221069 1.68657 0
M  V30 5013 O 461.307 0.420642 1.8959 0
M  V30 5014 C 458.437 1.15274 3.27611 0
M  V30 5015 C 457.391 2.25289 3.63908 0
M  V30 5016 C 456.717 1.90527 4.99603 0
M  V30 5017 C 458.017 3.67446 3.71188 0
M  V30 5018 H 459.711 2.29482 1.92297 0
M  V30 5019 H 457.257 1.10465 0.923773 0
M  V30 5020 H 459.21 1.12536 4.06096 0
M  V30 5021 H 457.934 0.174102 3.26136 0
M  V30 5022 H 456.593 2.27174 2.87728 0
M  V30 5023 H 456.241 0.91206 4.94662 0
M  V30 5024 H 455.941 2.64193 5.24858 0
M  V30 5025 H 457.465 1.89367 5.80493 0
M  V30 5026 H 458.879 3.67719 4.39836 0
M  V30 5027 H 457.276 4.40123 4.07936 0
M  V30 5028 H 458.346 4.01443 2.71977 0
M  V30 5029 N 459.689 -1.00246 1.21608 0
M  V30 5030 C 460.599 -2.12515 0.993709 0
M  V30 5031 C 461.615 -1.73913 -0.0549939 0
M  V30 5032 O 462.791 -2.00943 0.135619 0
M  V30 5033 C 459.856 -3.42083 0.563953 0
M  V30 5034 C 458.917 -3.94843 1.68516 0
M  V30 5035 C 458.15 -5.18226 1.27582 0
M  V30 5036 O 458.373 -5.70201 0.150506 0
M  V30 5037 O 457.307 -5.64497 2.0887 0
M  V30 5038 H 461.133 -2.34152 1.93407 0
M  V30 5039 H 458.718 -1.10891 1.00118 0
M  V30 5040 H 460.6 -4.20073 0.334194 0
M  V30 5041 H 459.275 -3.21828 -0.347665 0
M  V30 5042 H 458.182 -3.18068 1.96935 0
M  V30 5043 H 459.515 -4.19512 2.5743 0
M  V30 5044 N 461.167 -1.02423 -1.1978 0
M  V30 5045 C 462.115 -0.594474 -2.24875 0
M  V30 5046 C 463.109 0.370598 -1.65296 0
M  V30 5047 O 464.315 0.239684 -1.78397 0
M  V30 5048 H 460.69 -0.173961 -0.731602 0
M  V30 5049 H 462.661 -1.4916 -2.58445 0
M  V30 5050 C 461.41 0.0436512 -3.47673 0
M  V30 5051 H 460.733 -0.689963 -3.93801 0
M  V30 5052 H 462.173 0.307362 -4.22884 0
M  V30 5053 C 460.632 1.28881 -3.11274 0
M  V30 5054 O 461.162 2.38135 -3.23503 0
M  V30 5055 N 459.368 1.1758 -2.6575 0
M  V30 5056 H 458.915 0.286769 -2.55999 0
M  V30 5057 H 458.873 2.00988 -2.41767 0
M  V30 5058 N 462.645 1.35699 -0.801477 0
M  V30 5059 C 463.575 2.32436 -0.222658 0
M  V30 5060 C 464.556 1.5723 0.649057 0
M  V30 5061 O 465.741 1.85324 0.580387 0
M  V30 5062 C 462.871 3.41469 0.633719 0
M  V30 5063 C 461.825 4.27774 -0.139083 0
M  V30 5064 C 461.151 5.28082 0.838666 0
M  V30 5065 C 462.451 5.04946 -1.33517 0
M  V30 5066 H 464.145 2.81094 -1.03086 0
M  V30 5067 H 461.691 1.35146 -0.497155 0
M  V30 5068 H 463.644 4.08143 1.04868 0
M  V30 5069 H 462.368 2.91408 1.47475 0
M  V30 5070 H 461.027 3.62673 -0.535156 0
M  V30 5071 H 460.675 4.7429 1.67506 0
M  V30 5072 H 460.375 5.86695 0.32594 0
M  V30 5073 H 461.899 5.97628 1.25194 0
M  V30 5074 H 463.313 5.64593 -0.995349 0
M  V30 5075 H 461.71 5.7303 -1.78202 0
M  V30 5076 H 462.78 4.35886 -2.12442 0
M  V30 5077 N 464.123 0.554532 1.47522 0
M  V30 5078 C 465.348 0.0322661 2.07375 0
M  V30 5079 C 465.773 -1.25079 1.40488 0
M  V30 5080 O 465.131 -1.74859 0.47896 0
M  V30 5081 C 465.179 -0.149397 3.6029 0
M  V30 5082 O 464.283 -1.21259 3.9417 0
M  V30 5083 H 463.624 0.0501228 0.662106 0
M  V30 5084 H 466.154 0.769452 1.8958 0
M  V30 5085 H 466.164 -0.364437 4.06369 0
M  V30 5086 H 464.839 0.787743 4.08372 0
M  V30 5087 H 463.416 -0.97825 3.5984 0
M  V30 5088 N 465.601 -1.54893 0.290851 0
M  V30 5089 C 466.85 -1.99111 -0.322113 0
M  V30 5090 C 467.163 -1.18283 -1.55784 0
M  V30 5091 O 468.369 -1.5272 -2.24475 0
M  V30 5092 C 466.825 -3.54442 -0.624438 0
M  V30 5093 C 466.433 -4.44066 0.592373 0
M  V30 5094 C 468.177 -4.07211 -1.19916 0
M  V30 5095 C 466.084 -5.90812 0.263762 0
M  V30 5096 H 465.014 -0.743712 -0.124133 0
M  V30 5097 H 467.665 -1.79132 0.39797 0
M  V30 5098 H 466.047 -3.70281 -1.40384 0
M  V30 5099 H 467.221 -4.39999 1.36886 0
M  V30 5100 H 465.536 -4.02015 1.08502 0
M  V30 5101 H 468.133 -5.14407 -1.45909 0
M  V30 5102 H 468.476 -3.57196 -2.13815 0
M  V30 5103 H 469.009 -3.94873 -0.481687 0
M  V30 5104 H 465.748 -6.44955 1.17105 0
M  V30 5105 H 465.268 -5.97911 -0.475655 0
M  V30 5106 H 466.947 -6.46852 -0.138354 0
M  V30 5107 N 467.08 -0.0183926 -1.57589 0
M  V30 5108 C 468.496 0.337897 -1.55982 0
M  V30 5109 C 468.696 1.73604 -1.02294 0
M  V30 5110 O 467.752 2.43589 -0.664895 0
M  V30 5111 C 469.065 0.196305 -3.00059 0
M  V30 5112 C 470.613 0.269875 -3.11834 0
M  V30 5113 C 471.088 0.157197 -4.5773 0
M  V30 5114 N 472.579 0.214521 -4.62703 0
M  V30 5115 C 473.314 0.150955 -5.73201 0
M  V30 5116 N 472.81 0.0369212 -6.9279 0
M  V30 5117 N 474.603 0.204162 -5.61729 0
M  V30 5118 H 466.754 -0.93279 -1.90821 0
M  V30 5119 H 469.017 -0.359253 -0.877292 0
M  V30 5120 H 468.723 -0.766383 -3.43248 0
M  V30 5121 H 468.597 0.970908 -3.6449 0
M  V30 5122 H 470.984 1.22302 -2.68563 0
M  V30 5123 H 471.065 -0.534918 -2.50144 0
M  V30 5124 H 470.709 -0.792479 -5.01679 0
M  V30 5125 H 470.639 0.980717 -5.17387 0
M  V30 5126 H 473.13 0.303238 -3.76681 0
M  V30 5127 H 473.443 -0.00518321 -7.728 0
M  V30 5128 H 471.788 0.0022886 -6.95 0
M  V30 5129 H 474.979 0.291575 -4.67191 0
M  V30 5130 H 475.152 0.15116 -6.47824 0
M  V30 5131 N 468.558 1.5553 0.254621 0
M  V30 5132 C 469.468 1.92789 1.33677 0
M  V30 5133 C 470.484 0.827356 1.53071 0
M  V30 5134 O 471.66 1.12807 1.66843 0
M  V30 5135 C 468.725 2.20827 2.67275 0
M  V30 5136 C 467.786 3.4427 2.5647 0
M  V30 5137 C 467.019 3.70961 3.83697 0
M  V30 5138 O 467.242 2.99852 4.85227 0
M  V30 5139 O 466.176 4.64491 3.82794 0
M  V30 5140 H 470.002 2.84945 1.05071 0
M  V30 5141 H 467.587 1.42312 0.454723 0
M  V30 5142 H 469.469 2.40204 3.46237 0
M  V30 5143 H 468.144 1.31851 2.9563 0
M  V30 5144 H 467.051 3.30209 1.75821 0
M  V30 5145 H 468.384 4.33524 2.33062 0
M  V30 5146 N 470.036 -0.519951 1.48776 0
M  V30 5147 C 471.282 -1.27711 1.57536 0
M  V30 5148 C 471.615 -1.92547 0.252866 0
M  V30 5149 O 470.89 -1.7979 -0.742021 0
M  V30 5150 C 471.173 -2.35875 2.72094 0
M  V30 5151 C 471.026 -1.75664 4.1408 0
M  V30 5152 C 472.345 -3.37575 2.82367 0
M  V30 5153 H 469.464 -0.462971 0.573434 0
M  V30 5154 H 472.106 -0.578194 1.80989 0
M  V30 5155 H 470.256 -2.95488 2.52228 0
M  V30 5156 H 471.928 -1.20025 4.45412 0
M  V30 5157 H 470.171 -1.06154 4.20611 0
M  V30 5158 H 470.842 -2.54029 4.90075 0
M  V30 5159 H 473.318 -2.87929 3.00393 0
M  V30 5160 H 472.194 -4.1064 3.64233 0
M  V30 5161 H 472.455 -3.98743 1.90936 0
M  V30 5162 N 471.514 -1.37532 -0.769588 0
M  V30 5163 C 472.424 -1.35668 -1.91393 0
M  V30 5164 C 473.44 -0.255954 -1.72107 0
M  V30 5165 O 474.616 -0.491704 -1.95305 0
M  V30 5166 C 471.681 -1.16481 -3.26547 0
M  V30 5167 C 470.742 -2.36212 -3.58472 0
M  V30 5168 C 469.975 -2.17932 -4.87177 0
M  V30 5169 O 470.198 -1.1647 -5.58382 0
M  V30 5170 O 469.132 -3.06167 -5.18214 0
M  V30 5171 H 472.958 -2.32055 -1.95918 0
M  V30 5172 H 470.543 -1.18284 -0.912641 0
M  V30 5173 H 472.425 -1.07778 -4.07384 0
M  V30 5174 H 471.1 -0.231687 -3.2287 0
M  V30 5175 H 470.007 -2.50488 -2.77861 0
M  V30 5176 H 471.34 -3.281 -3.66894 0
M  V30 5177 N 472.992 0.995999 -1.22138 0
M  V30 5178 C 474.269 1.70834 -0.952642 0
M  V30 5179 C 474.649 2.04257 0.533119 0
M  V30 5180 O 473.997 1.72343 1.50034 0
M  V30 5181 C 474.207 2.96119 -1.84701 0
M  V30 5182 C 475.555 3.68962 -2.10124 0
M  V30 5183 O 476.579 3.0612 -1.82124 0
M  V30 5184 O 475.438 4.82017 -2.57531 0
M  V30 5185 H 472.532 0.745498 -0.357997 0
M  V30 5186 H 475.078 1.05262 -1.33109 0
M  V30 5187 H 473.85 2.67898 -2.85213 0
M  V30 5188 H 473.473 3.6943 -1.46995 0
M  V30 5189 N 474.47 1.03057 1.19235 0
M  V30 5190 C 475.881 0.757449 1.70645 0
M  V30 5191 C 476.232 -0.722735 1.82403 0
M  V30 5192 O 475.357 -1.56325 1.49638 0
M  V30 5193 C 475.952 1.36833 3.09939 0
M  V30 5194 C 474.511 1.14375 3.58602 0
M  V30 5195 C 473.658 1.46533 2.35422 0
M  V30 5196 H 476.609 1.19828 1.04052 0
M  V30 5197 H 476.63 0.766184 3.72706 0
M  V30 5198 H 476.142 2.44562 3.01349 0
M  V30 5199 H 474.243 0.0847542 3.72504 0
M  V30 5200 H 474.356 1.83366 4.42622 0
M  V30 5201 H 472.72 0.884712 2.38841 0
M  V30 5202 H 473.503 2.55349 2.2946 0
M  V30 5203 N 475.948 -1.35272 0.808662 0
M  V30 5204 C 477.364 -1.51806 0.492653 0
M  V30 5205 C 477.564 -1.7574 -0.985778 0
M  V30 5206 O 476.62 -1.80003 -1.77074 0
M  V30 5207 C 477.933 -2.69202 1.33981 0
M  V30 5208 C 479.481 -2.8308 1.33547 0
M  V30 5209 C 479.956 -4.03502 2.16679 0
M  V30 5210 N 481.447 -4.10684 2.14227 0
M  V30 5211 C 482.182 -5.02984 2.75308 0
M  V30 5212 N 481.678 -6.00603 3.45323 0
M  V30 5213 N 483.471 -4.95746 2.64938 0
M  V30 5214 H 475.622 -1.17993 1.76611 0
M  V30 5215 H 477.885 -0.577476 0.751814 0
M  V30 5216 H 477.591 -2.581 2.38909 0
M  V30 5217 H 477.465 -3.63854 0.994491 0
M  V30 5218 H 479.852 -2.93631 0.294036 0
M  V30 5219 H 479.933 -1.89278 1.72068 0
M  V30 5220 H 479.577 -3.93711 3.20864 0
M  V30 5221 H 479.507 -4.96489 1.75517 0
M  V30 5222 H 481.998 -3.40802 1.63285 0
M  V30 5223 H 482.311 -6.67633 3.89212 0
M  V30 5224 H 480.656 -6.0077 3.49428 0
M  V30 5225 H 483.847 -4.18439 2.09825 0
M  V30 5226 H 484.02 -5.67487 3.12829 0
M  V30 5227 N 477.426 -0.562348 -1.47226 0
M  V30 5228 C 478.373 0.182461 -2.30078 0
M  V30 5229 C 479.343 0.903503 -1.39377 0
M  V30 5230 O 480.528 0.898188 -1.68337 0
M  V30 5231 C 477.668 1.20322 -3.23445 0
M  V30 5232 C 476.781 0.487717 -4.29238 0
M  V30 5233 C 475.916 1.49422 -5.09752 0
M  V30 5234 C 474.955 0.763976 -6.07314 0
M  V30 5235 N 474.092 1.71755 -6.80768 0
M  V30 5236 H 478.932 -0.530169 -2.93246 0
M  V30 5237 H 476.469 -0.273276 -1.44539 0
M  V30 5238 H 478.427 1.80768 -3.76004 0
M  V30 5239 H 477.057 1.88382 -2.6213 0
M  V30 5240 H 476.109 -0.231374 -3.79696 0
M  V30 5241 H 477.421 -0.0841003 -4.98729 0
M  V30 5242 H 476.575 2.17206 -5.66486 0
M  V30 5243 H 475.314 2.09995 -4.40174 0
M  V30 5244 H 474.319 0.0722344 -5.49753 0
M  V30 5245 H 475.544 0.16391 -6.78902 0
M  V30 5246 H 473.49 2.31177 -6.13916 0
M  V30 5247 H 473.407 1.19802 -7.46447 0
M  V30 5248 H 474.675 2.38638 -7.42073 0
M  V30 5249 N 478.904 1.54736 -0.299062 0
M  V30 5250 C 480.315 1.8569 0.193971 0
M  V30 5251 C 480.666 1.22101 1.53577 0
M  V30 5252 O 479.791 0.51799 2.10109 0
M  V30 5253 C 480.386 3.36895 0.358733 0
M  V30 5254 C 478.945 3.67887 0.795986 0
M  V30 5255 C 478.092 2.77131 -0.096807 0
M  V30 5256 H 481.043 1.49934 -0.520134 0
M  V30 5257 H 481.064 3.61294 1.19361 0
M  V30 5258 H 480.576 3.83148 -0.617998 0
M  V30 5259 H 478.677 3.27151 1.78334 0
M  V30 5260 H 478.79 4.75114 0.616718 0
M  V30 5261 H 477.154 2.51153 0.423581 0
M  V30 5262 H 477.937 3.26204 -1.06986 0
M  V30 5263 N 480.382 0.0267497 1.57577 0
M  V30 5264 C 481.33 -0.973923 2.11229 0
M  V30 5265 C 482.324 -1.33849 1.03831 0
M  V30 5266 O 483.53 -1.321 1.22269 0
M  V30 5267 H 479.905 -0.331844 0.674821 0
M  V30 5268 H 481.876 -0.496092 2.94247 0
M  V30 5269 C 480.625 -2.24798 2.65257 0
M  V30 5270 H 479.948 -1.9762 3.47543 0
M  V30 5271 H 481.388 -2.93031 3.06445 0
M  V30 5272 C 479.847 -2.97611 1.57891 0
M  V30 5273 O 480.377 -3.89629 0.97735 0
M  V30 5274 N 478.583 -2.59905 1.29992 0
M  V30 5275 H 478.13 -1.85154 1.79097 0
M  V30 5276 H 478.088 -3.08932 0.583798 0
M  V30 5277 N 481.861 -1.55662 -0.24637 0
M  V30 5278 C 483.101 -1.79283 -0.981685 0
M  V30 5279 C 483.465 -0.596356 -1.82504 0
M  V30 5280 O 484.666 -0.711342 -2.59217 0
M  V30 5281 C 482.937 -3.07648 -1.819 0
M  V30 5282 S 484.496 -3.52491 -2.61334 0
M  V30 5283 H 481.314 -0.629676 -0.330196 0
M  V30 5284 H 483.916 -1.93901 -0.249498 0
M  V30 5285 H 482.62 -3.92794 -1.18915 0
M  V30 5286 H 482.151 -2.95768 -2.59393 0
M  V30 5287 H 484.166 -3.13866 -3.84321 0
M  V30 5288 N 483.339 0.512053 -1.4905 0
M  V30 5289 C 484.586 1.26686 -1.57978 0
M  V30 5290 C 484.914 1.92733 -0.261553 0
M  V30 5291 O 484.169 1.80772 0.749667 0
M  V30 5292 C 484.468 2.36446 -2.68008 0
M  V30 5293 C 484.134 1.87932 -4.09869 0
M  V30 5294 C 482.796 1.74419 -4.48477 0
M  V30 5295 C 485.148 1.5149 -4.98698 0
M  V30 5296 C 482.476 1.22827 -5.73699 0
M  V30 5297 C 484.828 1.01355 -6.24428 0
M  V30 5298 C 483.492 0.864735 -6.61875 0
M  V30 5299 H 482.762 0.463577 -0.578081 0
M  V30 5300 H 485.409 0.569421 -1.82838 0
M  V30 5301 H 483.714 3.11933 -2.37076 0
M  V30 5302 H 485.411 2.9453 -2.72127 0
M  V30 5303 H 482.001 1.99405 -3.79389 0
M  V30 5304 H 486.185 1.60782 -4.69535 0
M  V30 5305 H 481.441 1.10008 -6.01422 0
M  V30 5306 H 485.615 0.722351 -6.92644 0
M  V30 5307 H 483.242 0.462777 -7.5879 0
M  V30 5308 N 484.817 1.37938 0.762283 0
M  V30 5309 C 485.727 1.36681 1.90671 0
M  V30 5310 C 486.743 0.265078 1.71969 0
M  V30 5311 O 487.919 0.502055 1.95042 0
M  V30 5312 C 484.984 1.18211 3.25925 0
M  V30 5313 C 484.045 2.3811 3.57214 0
M  V30 5314 C 483.278 2.20512 4.86014 0
M  V30 5315 O 483.501 1.19429 5.57757 0
M  V30 5316 O 482.435 3.08911 5.16583 0
M  V30 5317 H 486.261 2.33091 1.94685 0
M  V30 5318 H 483.846 1.18767 0.906356 0
M  V30 5319 H 485.728 1.09937 4.06807 0
M  V30 5320 H 484.403 0.248807 3.22742 0
M  V30 5321 H 483.31 2.51958 2.76529 0
M  V30 5322 H 484.643 3.30041 3.65149 0
M  V30 5323 N 486.295 -0.989507 1.22664 0
M  V30 5324 C 487.225 -2.09847 1.02404 0
M  V30 5325 C 488.206 -1.70007 -0.0561303 0
M  V30 5326 O 489.391 -1.93906 0.106748 0
M  V30 5327 C 486.521 -3.41996 0.604663 0
M  V30 5328 C 485.475 -3.95699 1.63115 0
M  V30 5329 C 484.801 -5.23936 1.0675 0
M  V30 5330 C 486.101 -4.25999 3.02196 0
M  V30 5331 H 487.795 -2.27054 1.95158 0
M  V30 5332 H 485.341 -1.09111 0.939727 0
M  V30 5333 H 487.294 -4.1899 0.45002 0
M  V30 5334 H 486.018 -3.24626 -0.35855 0
M  V30 5335 H 484.677 -3.2084 1.77362 0
M  V30 5336 H 484.325 -5.02909 0.0955422 0
M  V30 5337 H 484.025 -5.60833 1.75328 0
M  V30 5338 H 485.549 -6.0356 0.924516 0
M  V30 5339 H 486.963 -4.93777 2.91303 0
M  V30 5340 H 485.36 -4.74076 3.67929 0
M  V30 5341 H 486.43 -3.33636 3.51873 0
M  V30 5342 N 487.773 -1.03688 -1.18687 0
M  V30 5343 C 489.003 -0.756819 -1.92239 0
M  V30 5344 C 489.411 0.689374 -1.76194 0
M  V30 5345 O 488.754 1.48126 -1.08648 0
M  V30 5346 C 488.816 -1.03851 -3.44173 0
M  V30 5347 C 488.48 -2.47785 -3.83994 0
M  V30 5348 C 489.477 -3.4595 -3.88091 0
M  V30 5349 C 487.162 -2.82397 -4.154 0
M  V30 5350 C 489.156 -4.76779 -4.23038 0
M  V30 5351 C 486.843 -4.13433 -4.50018 0
M  V30 5352 C 487.841 -5.10434 -4.53813 0
M  V30 5353 O 487.529 -6.39122 -4.87625 0
M  V30 5354 H 487.261 -0.275678 -0.617234 0
M  V30 5355 H 489.815 -1.38658 -1.51536 0
M  V30 5356 H 488.045 -0.351612 -3.85098 0
M  V30 5357 H 489.734 -0.746846 -3.9897 0
M  V30 5358 H 490.5 -3.20549 -3.63969 0
M  V30 5359 H 486.379 -2.07568 -4.11627 0
M  V30 5360 H 489.923 -5.52488 -4.25914 0
M  V30 5361 H 485.82 -4.38604 -4.736 0
M  V30 5362 H 486.588 -6.43715 -5.05542 0
M  V30 5363 N 489.251 1.34841 -0.815825 0
M  V30 5364 C 490.199 2.31549 -0.220888 0
M  V30 5365 C 491.193 1.5707 0.634457 0
M  V30 5366 O 492.399 1.72125 0.526589 0
M  V30 5367 H 488.774 0.750153 -0.0526782 0
M  V30 5368 H 490.745 2.7926 -1.05149 0
M  V30 5369 C 489.494 3.42335 0.608427 0
M  V30 5370 H 488.817 3.9978 -0.0404121 0
M  V30 5371 H 490.257 4.12258 0.990931 0
M  V30 5372 C 488.716 2.86173 1.77782 0
M  V30 5373 O 489.246 2.80474 2.87571 0
M  V30 5374 N 487.452 2.43093 1.59229 0
M  V30 5375 H 486.999 2.47928 0.699237 0
M  V30 5376 H 486.957 2.05866 2.37627 0
M  V30 5377 N 490.729 0.570148 1.46925 0
M  V30 5378 C 492.14 0.1402 1.86173 0
M  V30 5379 C 492.491 -1.29347 1.47526 0
M  V30 5380 O 491.616 -1.97508 0.884292 0
M  V30 5381 C 492.211 0.247661 3.37894 0
M  V30 5382 C 490.77 -0.127332 3.76185 0
M  V30 5383 C 489.917 0.589349 2.70965 0
M  V30 5384 H 492.868 0.779117 1.38259 0
M  V30 5385 H 492.889 -0.530341 3.76786 0
M  V30 5386 H 492.401 1.29121 3.65991 0
M  V30 5387 H 490.502 -1.17149 3.53704 0
M  V30 5388 H 490.615 0.240238 4.78497 0
M  V30 5389 H 488.979 0.0309824 2.54681 0
M  V30 5390 H 489.762 1.6343 3.01903 0
M  V30 5391 N 492.207 -1.54576 0.307264 0
M  V30 5392 C 493.432 -2.05139 -0.305379 0
M  V30 5393 C 493.857 -1.18278 -1.46259 0
M  V30 5394 O 493.215 -0.188243 -1.8032 0
M  V30 5395 C 493.263 -3.53066 -0.733283 0
M  V30 5396 O 492.367 -3.69206 -1.83741 0
M  V30 5397 H 491.708 -0.661444 -0.0582105 0
M  V30 5398 H 494.238 -1.99569 0.450931 0
M  V30 5399 H 494.248 -3.95034 -1.02039 0
M  V30 5400 H 492.923 -4.15746 0.113198 0
M  V30 5401 H 491.5 -3.39143 -1.55037 0
M  V30 5402 N 493.685 -0.035106 -1.57561 0
M  V30 5403 C 494.635 0.954034 -2.0708 0
M  V30 5404 C 495.619 1.2818 -0.972558 0
M  V30 5405 O 496.811 1.26691 -1.23606 0
M  V30 5406 C 493.94 2.23442 -2.60631 0
M  V30 5407 C 493.026 1.93475 -3.77396 0
M  V30 5408 N 493.417 1.33802 -4.87781 0
M  V30 5409 C 491.715 2.23434 -3.85996 0
M  V30 5410 C 492.416 1.21103 -5.68954 0
M  V30 5411 N 491.392 1.70855 -5.16052 0
M  V30 5412 H 495.194 0.487731 -2.89825 0
M  V30 5413 H 492.708 0.169759 -1.6151 0
M  V30 5414 H 494.705 2.95183 -2.94402 0
M  V30 5415 H 493.365 2.70693 -1.79319 0
M  V30 5416 H 494.376 1.01227 -5.07911 0
M  V30 5417 H 491.053 2.73317 -3.15601 0
M  V30 5418 H 492.443 0.749105 -6.67711 0
M  V30 5419 N 495.163 1.55791 0.238111 0
M  V30 5420 C 496.11 1.9105 1.29493 0
M  V30 5421 C 497.08 0.765733 1.47397 0
M  V30 5422 O 498.265 1.02017 1.61236 0
M  V30 5423 C 495.405 2.21826 2.64362 0
M  V30 5424 C 494.518 3.49153 2.54394 0
M  V30 5425 C 493.653 3.69455 3.81676 0
M  V30 5426 C 492.692 4.90353 3.66361 0
M  V30 5427 N 491.829 5.07131 4.85554 0
M  V30 5428 H 496.669 2.81172 0.987233 0
M  V30 5429 H 494.206 1.39179 0.476203 0
M  V30 5430 H 496.164 2.37675 3.4288 0
M  V30 5431 H 494.794 1.34897 2.93262 0
M  V30 5432 H 493.846 3.41587 1.67399 0
M  V30 5433 H 495.158 4.37818 2.38991 0
M  V30 5434 H 494.312 3.85311 4.68636 0
M  V30 5435 H 493.051 2.7904 3.99985 0
M  V30 5436 H 492.056 4.74464 2.77784 0
M  V30 5437 H 493.281 5.82237 3.49538 0
M  V30 5438 H 491.227 4.19654 5.04209 0
M  V30 5439 H 491.144 5.89899 4.72816 0
M  V30 5440 H 492.412 5.27407 5.73988 0
M  V30 5441 N 496.642 -0.504142 1.49319 0
M  V30 5442 C 497.89 -1.25598 1.58334 0
M  V30 5443 C 498.211 -1.93114 0.270538 0
M  V30 5444 O 497.481 -1.82585 -0.709891 0
M  V30 5445 H 496.061 -0.466571 0.58337 0
M  V30 5446 H 498.723 -0.584547 1.85928 0
M  V30 5447 H 497.819 -2.02159 2.37778 0
M  V30 5448 N 498.12 -1.38341 -0.754957 0
M  V30 5449 C 499.052 -1.31347 -1.87831 0
M  V30 5450 C 500.065 -0.225955 -1.61224 0
M  V30 5451 O 501.254 -0.48341 -1.7183 0
M  V30 5452 C 498.354 -1.01201 -3.23437 0
M  V30 5453 C 497.527 -2.20834 -3.77559 0
M  V30 5454 C 496.586 -1.87454 -4.91678 0
M  V30 5455 O 495.612 -2.59934 -5.06382 0
M  V30 5456 N 496.814 -0.828682 -5.74555 0
M  V30 5457 H 499.579 -2.28147 -1.94342 0
M  V30 5458 H 497.14 -1.32184 -0.934828 0
M  V30 5459 H 499.132 -0.769249 -3.97322 0
M  V30 5460 H 497.702 -0.132011 -3.12321 0
M  V30 5461 H 496.922 -2.61184 -2.95256 0
M  V30 5462 H 498.21 -3.00678 -4.10451 0
M  V30 5463 H 497.608 -0.227591 -5.65242 0
M  V30 5464 H 496.165 -0.645802 -6.48593 0
M  V30 5465 N 499.598 0.982988 -1.23187 0
M  V30 5466 C 500.844 1.72648 -1.06398 0
M  V30 5467 C 501.177 1.90066 0.398561 0
M  V30 5468 O 500.452 1.45105 1.29518 0
M  V30 5469 C 500.735 3.12627 -1.78707 0
M  V30 5470 C 500.588 3.02795 -3.32618 0
M  V30 5471 C 501.907 4.11997 -1.54747 0
M  V30 5472 H 499.026 0.626649 -0.387918 0
M  V30 5473 H 501.668 1.14455 -1.51658 0
M  V30 5474 H 499.818 3.62308 -1.40234 0
M  V30 5475 H 501.49 2.60659 -3.80598 0
M  V30 5476 H 499.733 2.39362 -3.61785 0
M  V30 5477 H 500.404 4.01893 -3.78399 0
M  V30 5478 H 502.88 3.71114 -1.88186 0
M  V30 5479 H 501.756 5.08037 -2.07821 0
M  V30 5480 H 502.017 4.39462 -0.482249 0
M  V30 5481 N 501.076 1.04316 1.18135 0
M  V30 5482 C 502.325 0.74319 1.87509 0
M  V30 5483 C 502.638 -0.732136 1.81381 0
M  V30 5484 O 503.844 -1.14572 2.46141 0
M  V30 5485 C 502.3 1.27913 3.36402 0
M  V30 5486 C 501.908 2.78326 3.51053 0
M  V30 5487 C 503.652 1.0558 4.11161 0
M  V30 5488 C 501.559 3.25266 4.93919 0
M  V30 5489 H 500.489 0.274313 0.702331 0
M  V30 5490 H 503.14 1.25931 1.33467 0
M  V30 5491 H 501.522 0.690853 3.89927 0
M  V30 5492 H 502.696 3.42933 3.07788 0
M  V30 5493 H 501.011 2.991 2.89704 0
M  V30 5494 H 503.608 1.38161 5.16542 0
M  V30 5495 H 503.951 -0.00684729 4.16299 0
M  V30 5496 H 504.484 1.60882 3.63816 0
M  V30 5497 H 501.223 4.30922 4.9395 0
M  V30 5498 H 500.743 2.65396 5.3789 0
M  V30 5499 H 502.422 3.19433 5.62647 0
M  V30 5500 N 502.554 -1.34406 0.822964 0
M  V30 5501 C 503.501 -2.29519 0.24284 0
M  V30 5502 C 504.471 -1.5359 -0.632397 0
M  V30 5503 O 505.656 -1.8196 -0.57403 0
M  V30 5504 C 502.796 -3.40032 -0.58925 0
M  V30 5505 C 501.909 -4.30899 0.308236 0
M  V30 5506 C 501.044 -5.28515 -0.533425 0
M  V30 5507 C 500.083 -6.1102 0.363444 0
M  V30 5508 N 499.22 -7.00725 -0.439147 0
M  V30 5509 H 504.06 -2.78537 1.05929 0
M  V30 5510 H 501.597 -1.3707 0.533872 0
M  V30 5511 H 503.555 -4.0279 -1.087 0
M  V30 5512 H 502.185 -2.92248 -1.37081 0
M  V30 5513 H 501.237 -3.69002 0.924203 0
M  V30 5514 H 502.549 -4.88717 0.997862 0
M  V30 5515 H 501.703 -5.96725 -1.09565 0
M  V30 5516 H 500.442 -4.71235 -1.25656 0
M  V30 5517 H 499.447 -5.41743 0.937812 0
M  V30 5518 H 500.672 -6.70381 1.08469 0
M  V30 5519 H 498.618 -6.45913 -1.14595 0
M  V30 5520 H 498.535 -7.55756 0.19209 0
M  V30 5521 H 499.803 -7.73263 -0.984124 0
M  V30 5522 N 504.032 -0.577932 -1.46621 0
M  V30 5523 C 504.995 0.147805 -2.28723 0
M  V30 5524 C 505.995 0.823325 -1.38123 0
M  V30 5525 O 507.185 0.676011 -1.60548 0
M  V30 5526 C 504.317 1.21853 -3.18378 0
M  V30 5527 H 505.51 -0.573654 -2.94362 0
M  V30 5528 H 503.063 -0.335703 -1.52652 0
M  V30 5529 H 503.798 1.97173 -2.57475 0
M  V30 5530 H 503.583 0.738714 -3.85078 0
M  V30 5531 H 505.073 1.72768 -3.80186 0
M  V30 5532 N 505.51 1.54411 -0.315457 0
M  V30 5533 C 506.75 2.02329 0.290236 0
M  V30 5534 C 507.114 1.19878 1.49977 0
M  V30 5535 O 508.315 1.57562 2.17779 0
M  V30 5536 C 506.586 3.51912 0.623937 0
M  V30 5537 S 508.145 4.21775 1.21044 0
M  V30 5538 H 504.963 0.705499 0.0882739 0
M  V30 5539 H 507.565 1.90328 -0.446694 0
M  V30 5540 H 506.269 4.09546 -0.264624 0
M  V30 5541 H 505.8 3.67977 1.39128 0
M  V30 5542 H 507.815 4.28757 2.49764 0
M  V30 5543 N 506.988 0.0434614 1.5754 0
M  V30 5544 C 507.935 -0.93356 2.11077 0
M  V30 5545 C 508.905 -1.31383 1.01626 0
M  V30 5546 O 510.09 -1.40465 1.29129 0
M  V30 5547 C 507.23 -2.20578 2.65404 0
M  V30 5548 C 506.343 -1.88068 3.88914 0
M  V30 5549 C 505.478 -3.09691 4.31584 0
M  V30 5550 C 504.517 -2.73067 5.47815 0
M  V30 5551 N 503.654 -3.87359 5.85574 0
M  V30 5552 H 508.494 -0.470118 2.94268 0
M  V30 5553 H 506.031 -0.220434 1.45439 0
M  V30 5554 H 507.989 -2.95011 2.94999 0
M  V30 5555 H 506.619 -2.64513 1.85021 0
M  V30 5556 H 505.671 -1.03816 3.6596 0
M  V30 5557 H 506.983 -1.57104 4.73413 0
M  V30 5558 H 506.137 -3.92431 4.62691 0
M  V30 5559 H 504.876 -3.43827 3.45882 0
M  V30 5560 H 503.881 -1.88742 5.16388 0
M  V30 5561 H 505.106 -2.40131 6.35227 0
M  V30 5562 H 503.052 -4.21311 5.02825 0
M  V30 5563 H 502.969 -3.60068 6.64746 0
M  V30 5564 H 504.237 -4.70761 6.21292 0
M  V30 5565 N 508.466 -1.55915 -0.229846 0
M  V30 5566 C 509.694 -1.82617 -0.972562 0
M  V30 5567 C 510.109 -0.621488 -1.78278 0
M  V30 5568 O 509.466 0.409956 -1.77836 0
M  V30 5569 C 509.517 -3.0774 -1.89679 0
M  V30 5570 O 509.238 -4.23559 -1.11934 0
M  V30 5571 C 510.739 -3.47368 -2.75409 0
M  V30 5572 H 507.959 -0.60727 -0.285419 0
M  V30 5573 H 510.503 -2.02996 -0.247579 0
M  V30 5574 H 508.658 -2.89361 -2.57583 0
M  V30 5575 H 509.072 -4.94586 -1.74599 0
M  V30 5576 H 510.546 -4.37977 -3.35977 0
M  V30 5577 H 511.023 -2.68737 -3.47386 0
M  V30 5578 H 511.629 -3.68158 -2.12931 0
M  V30 5579 N 509.944 0.496216 -1.49584 0
M  V30 5580 C 510.854 1.62352 -1.69349 0
M  V30 5581 C 511.87 1.64184 -0.576147 0
M  V30 5582 O 513.046 1.82517 -0.85144 0
M  V30 5583 C 510.111 2.98698 -1.76013 0
M  V30 5584 C 509.172 3.07454 -2.99617 0
M  V30 5585 C 508.405 4.37296 -3.05953 0
M  V30 5586 O 508.628 5.2637 -2.19752 0
M  V30 5587 O 507.562 4.51124 -3.9846 0
M  V30 5588 H 511.388 1.48606 -2.64859 0
M  V30 5589 H 508.973 0.673022 -1.33382 0
M  V30 5590 H 510.855 3.79725 -1.82721 0
M  V30 5591 H 509.53 3.12696 -0.836828 0
M  V30 5592 H 508.437 2.25597 -2.98424 0
M  V30 5593 H 509.77 2.98385 -3.91443 0
M  V30 5594 N 511.423 1.38739 0.74761 0
M  V30 5595 C 512.386 1.36241 1.84312 0
M  V30 5596 C 513.386 0.261811 1.58654 0
M  V30 5597 O 514.576 0.519031 1.66288 0
M  V30 5598 C 511.708 1.12253 3.21888 0
M  V30 5599 H 512.901 2.33712 1.87933 0
M  V30 5600 H 510.454 1.2412 0.949946 0
M  V30 5601 H 511.189 0.154133 3.23934 0
M  V30 5602 H 510.974 1.91943 3.41907 0
M  V30 5603 H 512.464 1.13215 4.0196 0
M  V30 5604 N 512.901 -0.976442 1.23707 0
M  V30 5605 C 514.178 -1.69296 0.979699 0
M  V30 5606 C 514.558 -2.0508 -0.500555 0
M  V30 5607 O 513.906 -1.74708 -1.47273 0
M  V30 5608 C 514.116 -2.93143 1.89389 0
M  V30 5609 C 515.464 -3.65572 2.15968 0
M  V30 5610 O 516.488 -3.03184 1.86971 0
M  V30 5611 O 515.347 -4.77859 2.65167 0
M  V30 5612 H 512.441 -0.739708 0.369812 0
M  V30 5613 H 514.987 -1.03131 1.34767 0
M  V30 5614 H 513.759 -2.63327 2.89439 0
M  V30 5615 H 513.382 -3.67044 1.52854 0
M  V30 5616 N 514.379 -1.04941 -1.1758 0
M  V30 5617 C 515.627 -0.756492 -1.87408 0
M  V30 5618 C 515.948 0.718478 -1.81281 0
M  V30 5619 O 515.218 1.519 -1.23706 0
M  V30 5620 H 513.798 -0.276841 -0.693807 0
M  V30 5621 H 516.46 -1.32803 -1.42652 0
M  V30 5622 H 515.556 -1.06918 -2.93215 0
M  V30 5623 N 515.857 1.33968 -0.830081 0
M  V30 5624 C 517.273 1.51003 -0.516742 0
M  V30 5625 C 517.473 1.77286 0.957694 0
M  V30 5626 O 516.529 1.82797 1.74188 0
M  V30 5627 C 517.842 2.67036 -1.38247 0
M  V30 5628 C 519.39 2.80919 -1.38034 0
M  V30 5629 C 519.865 4.00004 -2.23071 0
M  V30 5630 N 521.356 4.07224 -2.20733 0
M  V30 5631 C 522.091 4.98541 -2.83275 0
M  V30 5632 N 521.587 5.95033 -3.54835 0
M  V30 5633 N 523.38 4.91469 -2.72791 0
M  V30 5634 H 515.531 1.15168 -1.78466 0
M  V30 5635 H 517.794 0.565443 -0.760906 0
M  V30 5636 H 517.5 2.54266 -2.42985 0
M  V30 5637 H 517.374 3.62226 -1.05225 0
M  V30 5638 H 519.761 2.93127 -0.340713 0
M  V30 5639 H 519.842 1.86517 -1.75057 0
M  V30 5640 H 519.486 3.88557 -3.27087 0
M  V30 5641 H 519.416 4.93634 -1.83394 0
M  V30 5642 H 521.907 3.38162 -1.68687 0
M  V30 5643 H 522.22 6.61357 -3.99784 0
M  V30 5644 H 520.565 5.95135 -3.58942 0
M  V30 5645 H 523.756 4.15048 -2.16456 0
M  V30 5646 H 523.929 5.62439 -3.21818 0
M  V30 5647 N 517.335 0.585699 1.46312 0
M  V30 5648 C 518.581 0.0725284 2.0267 0
M  V30 5649 C 518.914 -1.28523 1.45586 0
M  V30 5650 O 518.189 -1.84283 0.622101 0
M  V30 5651 C 518.472 0.0099788 3.60099 0
M  V30 5652 C 518.325 1.39685 4.27561 0
M  V30 5653 C 519.644 -0.689117 4.34671 0
M  V30 5654 H 516.763 0.0278307 0.736474 0
M  V30 5655 H 519.405 0.753472 1.74421 0
M  V30 5656 H 517.555 -0.56992 3.84297 0
M  V30 5657 H 519.227 2.02215 4.14617 0
M  V30 5658 H 517.47 1.96374 3.86807 0
M  V30 5659 H 518.141 1.30553 5.36339 0
M  V30 5660 H 520.617 -0.196446 4.15636 0
M  V30 5661 H 519.493 -0.701921 5.44393 0
M  V30 5662 H 519.754 -1.75101 4.05946 0
M  V30 5663 N 518.813 -1.54241 0.323641 0
M  V30 5664 C 520.059 -2.00867 -0.279323 0
M  V30 5665 C 520.392 -1.21146 -1.5178 0
M  V30 5666 O 519.667 -0.29378 -1.92269 0
M  V30 5667 C 519.95 -3.54837 -0.613387 0
M  V30 5668 C 519.803 -4.45284 0.635803 0
M  V30 5669 C 521.122 -4.16186 -1.43099 0
M  V30 5670 H 518.241 -0.730177 -0.100049 0
M  V30 5671 H 520.883 -1.84829 0.440235 0
M  V30 5672 H 519.033 -3.68634 -1.22641 0
M  V30 5673 H 520.705 -4.43357 1.27406 0
M  V30 5674 H 518.948 -4.14956 1.26466 0
M  V30 5675 H 519.619 -5.5084 0.357597 0
M  V30 5676 H 522.095 -4.05964 -0.912814 0
M  V30 5677 H 520.971 -5.24031 -1.6335 0
M  V30 5678 H 521.232 -3.69516 -2.42715 0
M  V30 5679 N 520.291 -0.0518155 -1.57515 0
M  V30 5680 C 521.201 0.937539 -2.15052 0
M  V30 5681 C 522.217 1.34121 -1.10849 0
M  V30 5682 O 523.393 1.418 -1.4302 0
M  V30 5683 C 520.458 2.19379 -2.68466 0
M  V30 5684 C 519.519 1.84841 -3.87469 0
M  V30 5685 C 518.752 3.04477 -4.38326 0
M  V30 5686 O 518.975 4.17868 -3.88256 0
M  V30 5687 O 517.909 2.85453 -5.29906 0
M  V30 5688 H 521.735 0.478201 -2.99912 0
M  V30 5689 H 519.32 0.17012 -1.48428 0
M  V30 5690 H 521.202 2.93084 -3.02787 0
M  V30 5691 H 519.877 2.64449 -1.86677 0
M  V30 5692 H 518.784 1.08449 -3.58036 0
M  V30 5693 H 520.117 1.44569 -4.7049 0
M  V30 5694 N 521.769 1.56035 0.221574 0
M  V30 5695 C 523.017 1.78693 0.944102 0
M  V30 5696 C 523.338 0.620317 1.8487 0
M  V30 5697 O 522.608 -0.362784 1.92512 0
M  V30 5698 H 521.188 0.659082 0.351597 0
M  V30 5699 H 523.85 1.93497 0.233435 0
M  V30 5700 H 522.946 2.70837 1.55093 0
M  V30 5701 N 523.247 -0.488276 1.49845 0
M  V30 5702 C 524.195 -1.60917 1.67954 0
M  V30 5703 C 525.189 -1.6038 0.54539 0
M  V30 5704 O 526.395 -1.64736 0.7254 0
M  V30 5705 H 522.77 -0.533658 0.529824 0
M  V30 5706 H 524.741 -1.428 2.62013 0
M  V30 5707 C 523.49 -2.98975 1.77509 0
M  V30 5708 H 522.813 -3.00099 2.6416 0
M  V30 5709 H 524.253 -3.76906 1.9421 0
M  V30 5710 C 522.712 -3.3282 0.522745 0
M  V30 5711 O 523.242 -4.00208 -0.345866 0
M  V30 5712 N 521.448 -2.8808 0.381882 0
M  V30 5713 H 520.995 -2.33415 1.08974 0
M  V30 5714 H 520.953 -3.11091 -0.454929 0
M  V30 5715 N 524.725 -1.39134 -0.740242 0
M  V30 5716 C 525.675 -1.33928 -1.84519 0
M  V30 5717 C 526.659 -0.221097 -1.59374 0
M  V30 5718 O 527.851 -0.458195 -1.70967 0
M  V30 5719 C 524.98 -1.17991 -3.22387 0
M  V30 5720 C 524.066 -2.34488 -3.53378 0
M  V30 5721 N 524.457 -3.59954 -3.5534 0
M  V30 5722 C 522.755 -2.27331 -3.83714 0
M  V30 5723 C 523.456 -4.36962 -3.83978 0
M  V30 5724 N 522.432 -3.66482 -4.01487 0
M  V30 5725 H 526.234 -2.28907 -1.84333 0
M  V30 5726 H 523.748 -1.32555 -0.938237 0
M  V30 5727 H 525.745 -1.12345 -4.01478 0
M  V30 5728 H 524.405 -0.23957 -3.23815 0
M  V30 5729 H 525.416 -3.93448 -3.36778 0
M  V30 5730 H 522.093 -1.41531 -3.92779 0
M  V30 5731 H 523.483 -5.45692 -3.92008 0
M  V30 5732 N 526.204 0.969867 -1.24223 0
M  V30 5733 C 527.45 1.7151 -1.08223 0
M  V30 5734 C 527.783 1.90478 0.37838 0
M  V30 5735 O 527.058 1.4647 1.27971 0
M  V30 5736 C 527.341 3.10714 -1.82013 0
M  V30 5737 C 527.194 2.9925 -3.35811 0
M  V30 5738 C 528.513 4.10332 -1.59108 0
M  V30 5739 H 525.632 0.622499 -0.394543 0
M  V30 5740 H 528.274 1.1284 -1.52863 0
M  V30 5741 H 526.424 3.608 -1.44068 0
M  V30 5742 H 528.096 2.56608 -3.83341 0
M  V30 5743 H 526.339 2.35512 -3.64303 0
M  V30 5744 H 527.01 3.97857 -3.82641 0
M  V30 5745 H 529.486 3.69097 -1.92111 0
M  V30 5746 H 528.362 5.05804 -2.13198 0
M  V30 5747 H 528.623 4.38926 -0.528832 0
M  V30 5748 N 527.682 1.05563 1.17022 0
M  V30 5749 C 528.928 0.769074 1.87652 0
M  V30 5750 C 529.261 -0.702326 1.81055 0
M  V30 5751 O 528.536 -1.5139 1.22112 0
M  V30 5752 C 528.819 1.25492 3.37526 0
M  V30 5753 C 528.672 2.78953 3.52853 0
M  V30 5754 C 529.991 0.856919 4.31677 0
M  V30 5755 H 527.11 0.280854 0.681388 0
M  V30 5756 H 529.752 1.31027 1.37593 0
M  V30 5757 H 527.902 0.794516 3.80289 0
M  V30 5758 H 529.574 3.33146 3.19079 0
M  V30 5759 H 527.817 3.18046 2.95007 0
M  V30 5760 H 528.488 3.08011 4.58076 0
M  V30 5761 H 530.964 1.25334 3.96775 0
M  V30 5762 H 529.84 1.22443 5.35069 0
M  V30 5763 H 530.101 -0.238787 4.41455 0
M  V30 5764 N 529.16 -1.33526 0.837174 0
M  V30 5765 C 530.39 -2.01754 0.444848 0
M  V30 5766 C 530.798 -1.63149 -0.958072 0
M  V30 5767 O 530.141 -0.839827 -1.63379 0
M  V30 5768 C 530.203 -3.56228 0.483917 0
M  V30 5769 C 529.867 -4.18205 1.84265 0
M  V30 5770 C 530.864 -4.37699 2.80563 0
M  V30 5771 C 528.549 -4.54667 2.13503 0
M  V30 5772 C 530.543 -4.928 4.04261 0
M  V30 5773 C 528.23 -5.09475 3.37458 0
M  V30 5774 C 529.228 -5.28488 4.32654 0
M  V30 5775 O 528.916 -5.82132 5.54417 0
M  V30 5776 H 528.648 -0.652928 0.175104 0
M  V30 5777 H 531.202 -1.71469 1.13082 0
M  V30 5778 H 529.432 -3.85833 -0.258826 0
M  V30 5779 H 531.121 -4.05752 0.109653 0
M  V30 5780 H 531.887 -4.0988 2.59274 0
M  V30 5781 H 527.766 -4.39164 1.40201 0
M  V30 5782 H 531.31 -5.07555 4.78574 0
M  V30 5783 H 527.207 -5.36725 3.58604 0
M  V30 5784 H 527.975 -6.00548 5.56133 0
M  V30 5785 N 530.638 -0.59345 -1.46 0
M  V30 5786 C 532.054 -0.255965 -1.57534 0
M  V30 5787 C 532.254 1.24167 -1.58697 0
M  V30 5788 O 531.31 2.02398 -1.50968 0
M  V30 5789 C 532.623 -0.91466 -2.86451 0
M  V30 5790 C 534.171 -0.889253 -3.00102 0
M  V30 5791 C 534.646 -1.52769 -4.3177 0
M  V30 5792 N 536.137 -1.49253 -4.38495 0
M  V30 5793 C 536.872 -1.9558 -5.39014 0
M  V30 5794 N 536.368 -2.49929 -6.46148 0
M  V30 5795 N 538.161 -1.86432 -5.30282 0
M  V30 5796 H 530.312 -1.56604 -1.43489 0
M  V30 5797 H 532.575 -0.655207 -0.685133 0
M  V30 5798 H 532.281 -1.96861 -2.91442 0
M  V30 5799 H 532.155 -0.429356 -3.74748 0
M  V30 5800 H 534.542 0.156111 -2.94687 0
M  V30 5801 H 534.623 -1.41268 -2.13253 0
M  V30 5802 H 534.267 -2.57231 -4.37944 0
M  V30 5803 H 534.197 -0.979398 -5.17412 0
M  V30 5804 H 536.688 -1.09536 -3.61677 0
M  V30 5805 H 537.001 -2.83109 -7.19075 0
M  V30 5806 H 535.346 -2.53961 -6.46938 0
M  V30 5807 H 538.537 -1.43722 -4.4549 0
M  V30 5808 H 538.71 -2.22852 -6.08474 0
M  V30 5809 N 532.116 1.54067 -0.331816 0
M  V30 5810 C 533.365 1.99895 0.269209 0
M  V30 5811 C 533.678 1.22371 1.52593 0
M  V30 5812 O 534.884 1.58618 2.20347 0
M  V30 5813 C 533.34 3.55972 0.530244 0
M  V30 5814 C 532.948 4.4234 -0.709901 0
M  V30 5815 C 534.692 4.10247 1.09077 0
M  V30 5816 C 532.599 5.89905 -0.420312 0
M  V30 5817 H 531.529 0.746741 0.104371 0
M  V30 5818 H 534.18 1.78014 -0.445324 0
M  V30 5819 H 532.562 3.73873 1.30518 0
M  V30 5820 H 533.736 4.36215 -1.48504 0
M  V30 5821 H 532.051 3.98997 -1.19123 0
M  V30 5822 H 534.648 5.18095 1.32219 0
M  V30 5823 H 534.991 3.62739 2.0427 0
M  V30 5824 H 535.524 3.96011 0.376824 0
M  V30 5825 H 532.263 6.41623 -1.34164 0
M  V30 5826 H 531.783 5.98962 0.316962 0
M  V30 5827 H 533.462 6.46991 -0.0331956 0
M  V30 5828 N 533.594 0.0601682 1.57485 0
M  V30 5829 C 534.819 -0.624416 1.97777 0
M  V30 5830 C 535.244 -1.63051 0.937867 0
M  V30 5831 O 534.602 -1.81036 -0.0978845 0
M  V30 5832 C 534.65 -1.27979 3.37126 0
M  V30 5833 O 533.754 -2.39556 3.35688 0
M  V30 5834 H 533.095 -0.161581 0.64404 0
M  V30 5835 H 535.625 0.131237 2.04179 0
M  V30 5836 H 535.635 -1.62937 3.74053 0
M  V30 5837 H 534.31 -0.542501 4.12347 0
M  V30 5838 H 532.887 -2.06478 3.10517 0
M  V30 5839 N 535.072 -1.5615 -0.213296 0
M  V30 5840 C 536.035 -1.92249 -1.24792 0
M  V30 5841 C 537.035 -0.801828 -1.39382 0
M  V30 5842 O 538.225 -1.06948 -1.37506 0
M  V30 5843 C 535.357 -2.18056 -2.62039 0
M  V30 5844 H 536.55 -2.84793 -0.939845 0
M  V30 5845 H 534.103 -1.49559 -0.454062 0
M  V30 5846 H 534.838 -1.2809 -2.97932 0
M  V30 5847 H 534.623 -2.99703 -2.52825 0
M  V30 5848 H 536.113 -2.47051 -3.36683 0
M  V30 5849 N 536.55 0.480323 -1.50102 0
M  V30 5850 C 537.961 1.06142 -1.53593 0
M  V30 5851 C 538.312 1.93335 -0.334055 0
M  V30 5852 O 537.437 2.09188 0.55403 0
M  V30 5853 C 538.032 1.9317 -2.78336 0
M  V30 5854 C 536.591 2.46405 -2.84538 0
M  V30 5855 C 535.738 1.24521 -2.4777 0
M  V30 5856 H 538.689 0.26333 -1.565 0
M  V30 5857 H 538.71 2.78123 -2.59669 0
M  V30 5858 H 538.222 1.29683 -3.65792 0
M  V30 5859 H 536.323 3.13472 -2.01411 0
M  V30 5860 H 536.436 2.82143 -3.87211 0
M  V30 5861 H 534.8 1.57706 -2.00003 0
M  V30 5862 H 535.583 0.627102 -3.37524 0
M  V30 5863 N 538.028 1.39524 0.732853 0
M  V30 5864 C 539.253 1.40329 1.52717 0
M  V30 5865 C 539.678 0.000286574 1.881 0
M  V30 5866 O 539.036 -0.987262 1.52062 0
M  V30 5867 C 539.084 2.28464 2.78992 0
M  V30 5868 O 538.188 1.716 3.75003 0
M  V30 5869 H 537.529 0.47778 0.461109 0
M  V30 5870 H 540.059 1.83546 0.903996 0
M  V30 5871 H 540.069 2.43051 3.27705 0
M  V30 5872 H 538.744 3.30425 2.52572 0
M  V30 5873 H 537.321 1.66267 3.33781 0
M  V30 5874 N 539.506 -0.963266 1.24736 0
M  V30 5875 C 540.917 -1.52145 1.08207 0
M  V30 5876 C 541.268 -1.93142 -0.345061 0
M  V30 5877 O 540.393 -1.77769 -1.23399 0
M  V30 5878 C 540.988 -2.76486 1.95808 0
M  V30 5879 C 539.547 -3.28646 1.8349 0
M  V30 5880 C 538.694 -2.01529 1.90476 0
M  V30 5881 H 541.645 -0.781083 1.38148 0
M  V30 5882 H 541.666 -3.49986 1.49297 0
M  V30 5883 H 541.178 -2.46617 2.99669 0
M  V30 5884 H 539.279 -3.63357 0.824787 0
M  V30 5885 H 539.392 -3.97246 2.67829 0
M  V30 5886 H 537.756 -2.16442 1.34258 0
M  V30 5887 H 538.539 -1.7402 2.95926 0
M  V30 5888 N 540.985 -1.06182 -1.16461 0
M  V30 5889 C 541.895 -0.682671 -2.24448 0
M  V30 5890 C 542.911 0.30078 -1.71381 0
M  V30 5891 O 544.087 0.150376 -2.00838 0
M  V30 5892 C 541.152 -0.0737202 -3.46622 0
M  V30 5893 C 540.213 -1.10889 -4.14731 0
M  V30 5894 C 539.446 -0.528908 -5.31073 0
M  V30 5895 O 539.669 0.65868 -5.66584 0
M  V30 5896 O 538.603 -1.26805 -5.88391 0
M  V30 5897 H 542.429 -1.58291 -2.59187 0
M  V30 5898 H 540.014 -0.834013 -1.23954 0
M  V30 5899 H 541.896 0.264192 -4.20571 0
M  V30 5900 H 540.571 0.800015 -3.13658 0
M  V30 5901 H 539.478 -1.49896 -3.42756 0
M  V30 5902 H 540.811 -1.95412 -4.51747 0
M  V30 5903 N 542.463 1.3308 -0.844243 0
M  V30 5904 C 543.373 2.32876 -0.283922 0
M  V30 5905 C 544.389 1.63589 0.592846 0
M  V30 5906 O 545.565 1.95205 0.495693 0
M  V30 5907 C 542.63 3.42667 0.527283 0
M  V30 5908 C 541.691 4.27664 -0.374394 0
M  V30 5909 C 540.924 5.32212 0.39819 0
M  V30 5910 O 541.147 5.46635 1.62932 0
M  V30 5911 O 540.081 6.01458 -0.2306 0
M  V30 5912 H 543.907 2.82671 -1.11045 0
M  V30 5913 H 541.492 1.36518 -0.606903 0
M  V30 5914 H 543.374 4.09652 0.988078 0
M  V30 5915 H 542.049 2.95079 1.33078 0
M  V30 5916 H 540.956 3.63526 -0.883144 0
M  V30 5917 H 542.289 4.78749 -1.1428 0
M  V30 5918 N 543.941 0.601185 1.45683 0
M  V30 5919 C 544.888 -0.121396 2.30481 0
M  V30 5920 C 545.858 -0.866232 1.41724 0
M  V30 5921 O 547.043 -0.85324 1.70659 0
M  V30 5922 C 544.183 -1.11704 3.26521 0
M  V30 5923 C 543.296 -0.373741 4.3038 0
M  V30 5924 C 542.431 -1.35854 5.13534 0
M  V30 5925 C 541.47 -0.602689 6.09126 0
M  V30 5926 N 540.607 -1.53645 6.85082 0
M  V30 5927 H 545.447 0.607732 2.91737 0
M  V30 5928 H 542.984 0.311502 1.43764 0
M  V30 5929 H 544.942 -1.70735 3.80664 0
M  V30 5930 H 543.572 -1.81366 2.67032 0
M  V30 5931 H 542.624 0.331962 3.78949 0
M  V30 5932 H 543.936 0.2163 4.98331 0
M  V30 5933 H 543.09 -2.02111 5.72046 0
M  V30 5934 H 541.829 -1.98251 4.45587 0
M  V30 5935 H 540.834 0.0735482 5.49751 0
M  V30 5936 H 542.059 0.0161467 6.79098 0
M  V30 5937 H 540.005 -2.14819 6.1983 0
M  V30 5938 H 539.922 -0.999688 7.49361 0
M  V30 5939 H 541.19 -2.1888 7.48139 0
M  V30 5940 N 545.419 -1.53889 0.339982 0
M  V30 5941 C 546.329 -2.28604 -0.526988 0
M  V30 5942 C 547.345 -1.33578 -1.11503 0
M  V30 5943 O 548.521 -1.66612 -1.13148 0
M  V30 5944 C 545.586 -3.04164 -1.66389 0
M  V30 5945 C 544.647 -4.14809 -1.10599 0
M  V30 5946 C 543.88 -4.86756 -2.18871 0
M  V30 5947 O 544.103 -4.58343 -3.39526 0
M  V30 5948 O 543.037 -5.73289 -1.83366 0
M  V30 5949 H 546.863 -3.03594 0.0802707 0
M  V30 5950 H 544.448 -1.4903 0.105141 0
M  V30 5951 H 546.33 -3.51427 -2.32544 0
M  V30 5952 H 545.005 -2.32035 -2.25703 0
M  V30 5953 H 543.912 -3.71857 -0.409067 0
M  V30 5954 H 545.245 -4.89029 -0.557771 0
M  V30 5955 N 546.897 -0.0685191 -1.57451 0
M  V30 5956 C 547.807 0.914677 -2.16034 0
M  V30 5957 C 548.823 1.32938 -1.12265 0
M  V30 5958 O 549.999 1.40275 -1.44516 0
M  V30 5959 C 547.064 2.16519 -2.70777 0
M  V30 5960 C 546.125 1.80721 -3.89408 0
M  V30 5961 C 545.358 2.9981 -4.41531 0
M  V30 5962 O 545.581 4.13727 -3.92666 0
M  V30 5963 O 544.515 2.79817 -5.32903 0
M  V30 5964 H 548.341 0.446364 -3.00402 0
M  V30 5965 H 545.926 0.154367 -1.486 0
M  V30 5966 H 547.808 2.89856 -3.05878 0
M  V30 5967 H 546.483 2.62454 -1.89471 0
M  V30 5968 H 545.39 1.04646 -3.59166 0
M  V30 5969 H 546.723 1.39571 -4.71997 0
M  V30 5970 N 548.375 1.56261 0.205012 0
M  V30 5971 C 549.621 1.81211 0.923805 0
M  V30 5972 C 549.976 0.644065 1.813 0
M  V30 5973 O 549.269 -0.361208 1.88164 0
M  V30 5974 C 549.463 3.09722 1.78345 0
M  V30 5975 C 549.292 4.38915 0.978979 0
M  V30 5976 C 548.062 5.00874 0.667332 0
M  V30 5977 C 550.26 5.13199 0.336386 0
M  V30 5978 N 548.242 6.137 -0.156814 0
M  V30 5979 C 549.613 6.19009 -0.350402 0
M  V30 5980 C 551.668 4.97266 0.251101 0
M  V30 5981 C 550.371 7.10616 -1.11434 0
M  V30 5982 C 552.397 5.89288 -0.499413 0
M  V30 5983 C 551.759 6.94536 -1.17468 0
M  V30 5984 H 547.858 0.714528 0.317764 0
M  V30 5985 H 550.442 1.93738 0.193317 0
M  V30 5986 H 548.613 2.98448 2.48563 0
M  V30 5987 H 550.345 3.22798 2.44098 0
M  V30 5988 H 547.1 4.63151 0.989366 0
M  V30 5989 H 547.524 6.74695 -0.558206 0
M  V30 5990 H 552.166 4.15935 0.758823 0
M  V30 5991 H 549.884 7.91417 -1.63353 0
M  V30 5992 H 553.47 5.79034 -0.566627 0
M  V30 5993 H 552.35 7.64513 -1.74613 0
M  V30 5994 N 549.853 -0.472356 1.50355 0
M  V30 5995 C 550.786 -1.58923 1.63764 0
M  V30 5996 C 551.764 -1.55173 0.485793 0
M  V30 5997 O 552.948 -1.74815 0.705132 0
M  V30 5998 C 550.075 -2.97497 1.61905 0
M  V30 5999 C 549.121 -3.19405 2.82635 0
M  V30 6000 S 549.954 -2.99441 4.43954 0
M  V30 6001 C 551.11 -4.40359 4.44786 0
M  V30 6002 H 551.343 -1.47309 2.58239 0
M  V30 6003 H 548.876 -0.659601 1.39602 0
M  V30 6004 H 550.834 -3.77389 1.61518 0
M  V30 6005 H 549.495 -3.06502 0.686683 0
M  V30 6006 H 548.688 -4.20636 2.77636 0
M  V30 6007 H 548.29 -2.47283 2.80583 0
M  V30 6008 H 550.582 -5.32969 4.1827 0
M  V30 6009 H 551.525 -4.50403 5.46391 0
M  V30 6010 H 551.933 -4.22378 3.74509 0
M  V30 6011 N 551.331 -1.39911 -0.725443 0
M  V30 6012 C 552.278 -1.39393 -1.83952 0
M  V30 6013 C 553.248 -0.252249 -1.64173 0
M  V30 6014 O 554.433 -0.44882 -1.85446 0
M  V30 6015 C 551.573 -1.25262 -3.21564 0
M  V30 6016 C 550.686 -2.49054 -3.52982 0
M  V30 6017 C 549.821 -2.27439 -4.80047 0
M  V30 6018 C 548.86 -3.46857 -5.04338 0
M  V30 6019 N 547.997 -3.24499 -6.22611 0
M  V30 6020 H 552.837 -2.34622 -1.83729 0
M  V30 6021 H 550.374 -1.16537 -0.897636 0
M  V30 6022 H 552.332 -1.15077 -4.01015 0
M  V30 6023 H 550.962 -0.33657 -3.21041 0
M  V30 6024 H 550.014 -2.69805 -2.6816 0
M  V30 6025 H 551.326 -3.37973 -3.66846 0
M  V30 6026 H 550.48 -2.14551 -5.67497 0
M  V30 6027 H 549.219 -1.35929 -4.68374 0
M  V30 6028 H 548.224 -3.60232 -4.15346 0
M  V30 6029 H 549.449 -4.3928 -5.17889 0
M  V30 6030 H 547.395 -2.35663 -6.12208 0
M  V30 6031 H 547.312 -4.06978 -6.37106 0
M  V30 6032 H 548.58 -3.15325 -7.12875 0
M  V30 6033 N 552.809 0.956637 -1.25245 0
M  V30 6034 C 554.034 1.74104 -1.12706 0
M  V30 6035 C 554.459 1.85436 0.315429 0
M  V30 6036 O 553.817 1.33334 1.22848 0
M  V30 6037 C 553.865 3.1338 -1.78396 0
M  V30 6038 O 552.969 3.98485 -1.06224 0
M  V30 6039 H 552.31 0.53476 -0.393609 0
M  V30 6040 H 554.84 1.19924 -1.65769 0
M  V30 6041 H 554.85 3.6385 -1.846 0
M  V30 6042 H 553.525 3.04448 -2.83345 0
M  V30 6043 H 552.102 3.56952 -1.07886 0
M  V30 6044 N 554.287 1.06798 1.15896 0
M  V30 6045 C 555.536 0.782796 1.8589 0
M  V30 6046 C 555.849 -0.693498 1.82893 0
M  V30 6047 O 557.055 -1.09325 2.48516 0
M  V30 6048 C 555.511 1.3502 3.33613 0
M  V30 6049 C 555.119 2.8571 3.45071 0
M  V30 6050 C 556.863 1.14278 4.08829 0
M  V30 6051 C 554.77 3.35669 4.86909 0
M  V30 6052 H 553.7 0.289149 0.696354 0
M  V30 6053 H 556.351 1.28734 1.30766 0
M  V30 6054 H 554.733 0.773407 3.88374 0
M  V30 6055 H 555.907 3.49385 3.00445 0
M  V30 6056 H 554.222 3.05178 2.83294 0
M  V30 6057 H 556.819 1.49087 5.13495 0
M  V30 6058 H 557.162 0.0814575 4.1622 0
M  V30 6059 H 557.695 1.68563 3.60321 0
M  V30 6060 H 554.434 4.41302 4.84698 0
M  V30 6061 H 553.954 2.76745 5.32139 0
M  V30 6062 H 555.633 3.31296 5.55745 0
M  V30 6063 N 555.766 -1.3263 0.851289 0
M  V30 6064 C 556.713 -2.28952 0.291469 0
M  V30 6065 C 557.683 -1.54897 -0.599676 0
M  V30 6066 O 558.868 -1.83137 -0.535305 0
M  V30 6067 C 556.008 -3.41206 -0.516992 0
M  V30 6068 C 555.121 -4.30148 0.399566 0
M  V30 6069 C 554.256 -5.29527 -0.4212 0
M  V30 6070 C 553.295 -6.10112 0.492969 0
M  V30 6071 N 552.432 -7.01499 -0.290414 0
M  V30 6072 H 557.272 -2.76228 1.11813 0
M  V30 6073 H 554.809 -1.35907 0.562826 0
M  V30 6074 H 556.767 -4.05005 -1.00132 0
M  V30 6075 H 555.397 -2.9509 -1.30851 0
M  V30 6076 H 554.449 -3.66959 1.00227 0
M  V30 6077 H 555.761 -4.8649 1.1013 0
M  V30 6078 H 554.915 -5.98914 -0.968832 0
M  V30 6079 H 553.654 -4.73794 -1.15632 0
M  V30 6080 H 552.659 -5.39632 1.05251 0
M  V30 6081 H 553.884 -6.6793 1.22664 0
M  V30 6082 H 551.83 -6.48199 -1.00868 0
M  V30 6083 H 551.747 -7.55178 0.352354 0
M  V30 6084 H 553.015 -7.75176 -0.819882 0
M  V30 6085 N 557.244 -0.608902 -1.45362 0
M  V30 6086 C 558.207 0.0992563 -2.28985 0
M  V30 6087 C 559.207 0.793841 -1.39838 0
M  V30 6088 O 560.397 0.641804 -1.61946 0
M  V30 6089 C 557.529 1.15073 -3.20891 0
M  V30 6090 H 558.722 -0.635964 -2.93079 0
M  V30 6091 H 556.275 -0.368007 -1.51906 0
M  V30 6092 H 557.01 1.91667 -2.616 0
M  V30 6093 H 556.795 0.656867 -3.86559 0
M  V30 6094 H 558.285 1.64665 -3.83765 0
M  V30 6095 N 558.722 1.53707 -0.348139 0
M  V30 6096 C 559.947 2.05877 0.250883 0
M  V30 6097 C 560.372 1.22115 1.43072 0
M  V30 6098 O 559.73 0.235986 1.79758 0
M  V30 6099 C 559.778 3.54886 0.639416 0
M  V30 6100 O 558.882 3.73948 1.73888 0
M  V30 6101 H 558.223 0.662754 0.040653 0
M  V30 6102 H 560.753 1.98303 -0.503685 0
M  V30 6103 H 560.763 3.97601 0.915295 0
M  V30 6104 H 559.438 4.153 -0.223386 0
M  V30 6105 H 558.015 3.43134 1.45991 0
M  V30 6106 N 560.2 0.0768682 1.57412 0
M  V30 6107 C 561.449 -0.590679 1.92857 0
M  V30 6108 C 561.762 -1.70461 0.959293 0
M  V30 6109 O 562.968 -2.43207 1.20675 0
M  V30 6110 C 561.424 -1.10204 3.42612 0
M  V30 6111 C 561.032 -0.0188447 4.47996 0
M  V30 6112 C 562.776 -1.74336 3.87049 0
M  V30 6113 C 560.683 -0.544536 5.88888 0
M  V30 6114 H 559.613 -0.224411 0.71983 0
M  V30 6115 H 562.264 0.149924 1.82887 0
M  V30 6116 H 560.646 -1.89577 3.47673 0
M  V30 6117 H 561.82 0.755936 4.54557 0
M  V30 6118 H 560.135 0.526555 4.13057 0
M  V30 6119 H 562.732 -2.14708 4.89699 0
M  V30 6120 H 563.075 -2.60537 3.24694 0
M  V30 6121 H 563.608 -1.01577 3.84613 0
M  V30 6122 H 560.347 0.280426 6.549 0
M  V30 6123 H 559.867 -1.28673 5.85836 0
M  V30 6124 H 561.546 -1.01933 6.3892 0
M  V30 6125 N 561.678 -1.56367 -0.196722 0
M  V30 6126 C 562.903 -1.84991 -0.937714 0
M  V30 6127 C 563.328 -0.660244 -1.76132 0
M  V30 6128 O 562.686 0.390967 -1.77034 0
M  V30 6129 C 562.734 -3.11828 -1.81096 0
M  V30 6130 O 561.838 -2.92266 -2.90955 0
M  V30 6131 H 561.179 -0.609193 -0.264159 0
M  V30 6132 H 563.709 -2.03595 -0.202529 0
M  V30 6133 H 563.719 -3.42579 -2.21594 0
M  V30 6134 H 562.394 -3.98037 -1.2058 0
M  V30 6135 H 560.971 -2.72809 -2.54224 0
M  V30 6136 N 563.156 0.464375 -1.50603 0
M  V30 6137 C 564.572 0.798684 -1.38178 0
M  V30 6138 C 564.772 1.96568 -0.44308 0
M  V30 6139 O 563.828 2.52252 0.111814 0
M  V30 6140 C 565.141 1.10444 -2.79683 0
M  V30 6141 C 566.689 1.2105 -2.88645 0
M  V30 6142 C 567.164 1.54934 -4.30998 0
M  V30 6143 N 568.655 1.61913 -4.3398 0
M  V30 6144 C 569.39 1.8965 -5.41129 0
M  V30 6145 N 568.886 2.15361 -6.58477 0
M  V30 6146 N 570.679 1.91207 -5.28579 0
M  V30 6147 H 562.83 -0.304603 -2.10204 0
M  V30 6148 H 565.093 -0.0737804 -0.945125 0
M  V30 6149 H 564.799 0.319934 -3.50242 0
M  V30 6150 H 564.673 2.03896 -3.17342 0
M  V30 6151 H 567.06 1.98567 -2.18301 0
M  V30 6152 H 567.141 0.255613 -2.5452 0
M  V30 6153 H 566.785 0.779549 -5.01882 0
M  V30 6154 H 566.715 2.51584 -4.62615 0
M  V30 6155 H 569.206 1.44055 -3.49366 0
M  V30 6156 H 569.519 2.35818 -7.35941 0
M  V30 6157 H 567.864 2.1274 -6.6164 0
M  V30 6158 H 571.055 1.70622 -4.35897 0
M  V30 6159 H 571.228 2.12488 -6.12171 0
M  V30 6160 N 564.634 1.40294 0.718013 0
M  V30 6161 C 565.911 1.2894 1.47084 0
M  V30 6162 C 566.291 -0.0933625 2.10893 0
M  V30 6163 O 565.639 -1.10598 1.99951 0
M  V30 6164 C 565.849 2.4264 2.50852 0
M  V30 6165 C 567.197 2.8276 3.16752 0
M  V30 6166 O 568.221 2.42215 2.61171 0
M  V30 6167 O 567.08 3.528 4.17366 0
M  V30 6168 H 564.174 0.506236 0.653952 0
M  V30 6169 H 566.72 1.52208 0.750394 0
M  V30 6170 H 565.492 3.35009 2.022 0
M  V30 6171 H 565.115 2.21129 3.30435 0
M  V30 6172 N 566.112 -0.949982 1.2575 0
M  V30 6173 C 567.523 -1.50989 1.09815 0
M  V30 6174 C 567.874 -1.93497 -0.324556 0
M  V30 6175 O 566.999 -1.79068 -1.21506 0
M  V30 6176 C 567.594 -2.74394 1.98729 0
M  V30 6177 C 566.153 -3.26682 1.86965 0
M  V30 6178 C 565.3 -1.99498 1.92603 0
M  V30 6179 H 568.251 -0.766387 1.38968 0
M  V30 6180 H 568.272 -3.48383 1.53001 0
M  V30 6181 H 567.784 -2.43425 3.02268 0
M  V30 6182 H 565.885 -3.62461 0.863279 0
M  V30 6183 H 565.998 -3.94383 2.72027 0
M  V30 6184 H 564.362 -2.15005 1.36546 0
M  V30 6185 H 565.145 -1.70871 2.97755 0
M  V30 6186 N 567.59 -1.07411 -1.15328 0
M  V30 6187 C 568.837 -0.797649 -1.86128 0
M  V30 6188 C 569.165 0.676298 -1.82364 0
M  V30 6189 O 568.42 1.51223 -1.24218 0
M  V30 6190 C 568.719 -1.25191 -3.34757 0
M  V30 6191 C 568.385 -2.73191 -3.58716 0
M  V30 6192 C 567.047 -3.13616 -3.64964 0
M  V30 6193 C 569.399 -3.68718 -3.6837 0
M  V30 6194 C 566.727 -4.48383 -3.78377 0
M  V30 6195 C 569.079 -5.03248 -3.83306 0
M  V30 6196 C 567.743 -5.43293 -3.878 0
M  V30 6197 H 567.013 -0.29188 -0.681092 0
M  V30 6198 H 569.66 -1.34524 -1.36292 0
M  V30 6199 H 567.965 -0.623712 -3.86804 0
M  V30 6200 H 569.662 -1.01489 -3.87945 0
M  V30 6201 H 566.252 -2.40898 -3.54494 0
M  V30 6202 H 570.436 -3.38614 -3.62842 0
M  V30 6203 H 565.692 -4.78877 -3.80114 0
M  V30 6204 H 569.866 -5.77142 -3.89718 0
M  V30 6205 H 567.493 -6.47721 -3.97946 0
M  V30 6206 N 569.068 1.32177 -0.85831 0
M  V30 6207 C 570.298 2.01021 -0.476889 0
M  V30 6208 C 570.706 1.64653 0.931995 0
M  V30 6209 O 570.049 0.865713 1.62022 0
M  V30 6210 C 570.111 3.55413 -0.540528 0
M  V30 6211 C 569.775 4.1522 -1.90895 0
M  V30 6212 C 570.772 4.3318 -2.87491 0
M  V30 6213 C 568.457 4.51212 -2.20709 0
M  V30 6214 C 570.451 4.86306 -4.1205 0
M  V30 6215 C 568.138 5.04042 -3.45521 0
M  V30 6216 C 569.136 5.21538 -4.41007 0
M  V30 6217 O 568.824 5.73238 -5.63608 0
M  V30 6218 H 568.556 0.650059 -0.18547 0
M  V30 6219 H 571.11 1.69648 -1.15796 0
M  V30 6220 H 569.34 3.86196 0.19741 0
M  V30 6221 H 571.029 4.05526 -0.174191 0
M  V30 6222 H 571.795 4.05704 -2.65762 0
M  V30 6223 H 567.674 4.36878 -1.4717 0
M  V30 6224 H 571.218 4.99877 -4.86589 0
M  V30 6225 H 567.115 5.30952 -3.67098 0
M  V30 6226 H 567.883 5.91625 -5.65617 0
M  V30 6227 N 570.547 0.616602 1.45037 0
M  V30 6228 C 571.824 0.0469086 1.95544 0
M  V30 6229 C 572.204 -1.42345 1.55888 0
M  V30 6230 O 571.552 -2.13055 0.825824 0
M  V30 6231 C 571.762 0.254489 3.48071 0
M  V30 6232 C 573.11 0.140025 4.24369 0
M  V30 6233 O 574.134 0.185084 3.55719 0
M  V30 6234 O 572.993 0.0327034 5.4649 0
M  V30 6235 H 570.087 -0.0306051 0.826433 0
M  V30 6236 H 572.633 0.687293 1.55159 0
M  V30 6237 H 571.405 1.27532 3.69934 0
M  V30 6238 H 571.028 -0.42073 3.95368 0
M  V30 6239 N 572.025 -1.5352 0.356285 0
M  V30 6240 C 572.958 -2.2177 -0.537913 0
M  V30 6241 C 573.936 -1.20626 -1.09033 0
M  V30 6242 O 575.12 -1.49494 -1.1482 0
M  V30 6243 C 572.247 -2.90513 -1.74126 0
M  V30 6244 C 571.293 -4.05652 -1.31715 0
M  V30 6245 S 572.126 -5.34505 -0.326236 0
M  V30 6246 C 573.282 -6.06757 -1.53612 0
M  V30 6247 H 573.515 -2.97271 0.0417411 0
M  V30 6248 H 571.048 -1.53761 0.140372 0
M  V30 6249 H 573.006 -3.30735 -2.43155 0
M  V30 6250 H 571.667 -2.14754 -2.29215 0
M  V30 6251 H 570.86 -4.52733 -2.21471 0
M  V30 6252 H 570.462 -3.67272 -0.706183 0
M  V30 6253 H 572.754 -6.30924 -2.46863 0
M  V30 6254 H 573.697 -6.99395 -1.10687 0
M  V30 6255 H 574.105 -5.3708 -1.73796 0
M  V30 6256 N 573.503 -0.0852151 -1.57369 0
M  V30 6257 C 574.433 0.874556 -2.16503 0
M  V30 6258 C 575.414 1.30111 -1.09568 0
M  V30 6259 O 576.599 1.36977 -1.37662 0
M  V30 6260 C 573.729 2.13731 -2.73745 0
M  V30 6261 C 572.683 1.84971 -3.85966 0
M  V30 6262 C 572.009 3.17991 -4.29867 0
M  V30 6263 C 573.309 1.14442 -5.09608 0
M  V30 6264 H 575.003 0.381899 -2.96954 0
M  V30 6265 H 572.549 0.18225 -1.42842 0
M  V30 6266 H 574.502 2.81302 -3.13763 0
M  V30 6267 H 573.226 2.65263 -1.90534 0
M  V30 6268 H 571.885 1.19801 -3.46473 0
M  V30 6269 H 571.533 3.6739 -3.4356 0
M  V30 6270 H 571.233 2.99534 -5.05523 0
M  V30 6271 H 572.757 3.86737 -4.72511 0
M  V30 6272 H 574.171 1.72105 -5.46857 0
M  V30 6273 H 572.568 1.06197 -5.90629 0
M  V30 6274 H 573.638 0.12559 -4.84737 0
M  V30 6275 N 574.981 1.5647 0.188427 0
M  V30 6276 C 575.944 1.9421 1.21718 0
M  V30 6277 C 576.944 0.823901 1.38089 0
M  V30 6278 O 578.134 1.09122 1.35787 0
M  V30 6279 C 575.266 2.22197 2.58537 0
M  V30 6280 H 576.459 2.86252 0.894418 0
M  V30 6281 H 574.012 1.50263 0.430211 0
M  V30 6282 H 574.747 1.32814 2.95856 0
M  V30 6283 H 574.532 3.03688 2.48025 0
M  V30 6284 H 576.022 2.52376 3.3271 0
M  V30 6285 N 576.459 -0.456382 1.50847 0
M  V30 6286 C 577.687 -1.23026 1.66349 0
M  V30 6287 C 578.102 -1.85473 0.352868 0
M  V30 6288 O 577.459 -1.69885 -0.666739 0
M  V30 6289 C 577.51 -2.32827 2.76539 0
M  V30 6290 O 577.231 -1.72938 4.02522 0
M  V30 6291 C 578.732 -3.23448 3.03144 0
M  V30 6292 H 575.952 -0.371527 0.558756 0
M  V30 6293 H 578.496 -0.543082 1.97157 0
M  V30 6294 H 576.651 -2.97294 2.48384 0
M  V30 6295 H 577.065 -2.45357 4.63573 0
M  V30 6296 H 578.539 -3.96669 3.83872 0
M  V30 6297 H 579.016 -3.83094 2.14793 0
M  V30 6298 H 579.622 -2.64702 3.32886 0
M  V30 6299 N 577.937 -1.40673 -0.710563 0
M  V30 6300 C 579.353 -1.22813 -1.01928 0
M  V30 6301 C 579.553 -0.10687 -2.01216 0
M  V30 6302 O 578.609 0.533614 -2.46797 0
M  V30 6303 C 579.922 -2.57178 -1.5582 0
M  V30 6304 C 581.47 -2.64233 -1.67779 0
M  V30 6305 C 581.945 -3.98879 -2.25076 0
M  V30 6306 N 583.436 -4.00647 -2.32456 0
M  V30 6307 C 584.171 -5.01621 -2.77784 0
M  V30 6308 N 583.667 -6.12989 -3.22826 0
M  V30 6309 N 585.46 -4.88988 -2.77213 0
M  V30 6310 H 577.611 -2.12335 -0.05253 0
M  V30 6311 H 579.874 -0.9441 -0.085898 0
M  V30 6312 H 579.58 -3.39903 -0.903249 0
M  V30 6313 H 579.454 -2.78618 -2.54267 0
M  V30 6314 H 581.841 -1.81876 -2.3239 0
M  V30 6315 H 581.922 -2.46619 -0.679178 0
M  V30 6316 H 581.566 -4.81678 -1.61086 0
M  V30 6317 H 581.496 -4.13826 -3.25661 0
M  V30 6318 H 583.987 -3.20231 -2.0065 0
M  V30 6319 H 584.3 -6.85921 -3.55995 0
M  V30 6320 H 582.645 -6.16547 -3.20773 0
M  V30 6321 H 585.836 -4.01075 -2.41363 0
M  V30 6322 H 586.009 -5.67822 -3.12221 0
M  V30 6323 N 579.415 0.9433 -1.26252 0
M  V30 6324 C 580.362 2.0417 -1.07625 0
M  V30 6325 C 581.332 1.6609 0.0180738 0
M  V30 6326 O 582.517 1.90276 -0.141289 0
M  V30 6327 C 579.657 3.37653 -0.713043 0
M  V30 6328 C 578.77 3.88783 -1.8834 0
M  V30 6329 C 577.905 5.10642 -1.4635 0
M  V30 6330 C 576.944 5.54028 -2.60229 0
M  V30 6331 N 576.081 6.67092 -2.18936 0
M  V30 6332 H 580.921 2.19436 -2.01623 0
M  V30 6333 H 578.458 1.07519 -1.00389 0
M  V30 6334 H 580.416 4.14391 -0.483358 0
M  V30 6335 H 579.046 3.22241 0.18996 0
M  V30 6336 H 578.098 3.08464 -2.22608 0
M  V30 6337 H 579.41 4.16922 -2.73821 0
M  V30 6338 H 578.564 5.94832 -1.19414 0
M  V30 6339 H 577.303 4.84244 -0.579568 0
M  V30 6340 H 576.308 4.68396 -2.87898 0
M  V30 6341 H 577.533 5.82429 -3.49219 0
M  V30 6342 H 575.479 6.42381 -1.32974 0
M  V30 6343 H 575.396 6.94806 -2.97961 0
M  V30 6344 H 576.664 7.54662 -1.95206 0
M  V30 6345 N 580.893 1.08022 1.14757 0
M  V30 6346 C 582.309 0.807072 1.3769 0
M  V30 6347 C 582.509 -0.585504 1.92806 0
M  V30 6348 O 581.565 -1.34301 2.13821 0
M  V30 6349 C 582.878 1.88651 2.34161 0
M  V30 6350 C 584.426 1.91206 2.47809 0
M  V30 6351 C 584.901 2.98253 3.47576 0
M  V30 6352 N 586.392 2.974 3.55117 0
M  V30 6353 C 587.127 3.76872 4.32152 0
M  V30 6354 N 586.623 4.66212 5.12463 0
M  V30 6355 N 588.416 3.6519 4.27309 0
M  V30 6356 H 580.567 1.97824 0.77326 0
M  V30 6357 H 582.83 0.85826 0.402608 0
M  V30 6358 H 582.536 2.88749 2.00791 0
M  V30 6359 H 582.41 1.75244 3.3402 0
M  V30 6360 H 584.797 0.917564 2.80472 0
M  V30 6361 H 584.878 2.08691 1.47925 0
M  V30 6362 H 584.522 3.97907 3.15646 0
M  V30 6363 H 584.452 2.78014 4.47231 0
M  V30 6364 H 586.943 2.32643 2.97801 0
M  V30 6365 H 587.256 5.23468 5.68508 0
M  V30 6366 H 585.601 4.70257 5.11745 0
M  V30 6367 H 588.792 2.94765 3.63636 0
M  V30 6368 H 588.965 4.27366 4.87095 0
M  V30 6369 N 582.371 -1.3172 0.865308 0
M  V30 6370 C 583.787 -1.4958 0.556596 0
M  V30 6371 C 583.987 -1.79763 -0.910353 0
M  V30 6372 O 583.043 -1.87351 -1.6928 0
M  V30 6373 C 584.356 -2.63277 1.45279 0
M  V30 6374 C 585.904 -2.77161 1.45433 0
M  V30 6375 C 586.379 -3.93949 2.33598 0
M  V30 6376 N 587.87 -4.01228 2.31453 0
M  V30 6377 C 588.605 -4.90855 2.96393 0
M  V30 6378 N 588.101 -5.85416 3.70486 0
M  V30 6379 N 589.894 -4.84063 2.85726 0
M  V30 6380 H 582.045 -1.10396 1.81456 0
M  V30 6381 H 584.308 -0.54507 0.775631 0
M  V30 6382 H 584.014 -2.47734 2.49641 0
M  V30 6383 H 583.888 -3.59309 1.14792 0
M  V30 6384 H 586.275 -2.9212 0.41831 0
M  V30 6385 H 586.356 -1.8181 1.79941 0
M  V30 6386 H 586 -3.79748 3.37274 0
M  V30 6387 H 585.93 -4.88598 1.96417 0
M  V30 6388 H 588.421 -3.3357 1.77593 0
M  V30 6389 H 588.734 -6.50525 4.17178 0
M  V30 6390 H 587.079 -5.85409 3.74594 0
M  V30 6391 H 590.27 -4.09163 2.27384 0
M  V30 6392 H 590.443 -5.53708 3.36617 0
M  V30 6393 N 583.85 -0.624285 -1.44708 0
M  V30 6394 C 585.099 -0.123539 -2.01321 0
M  V30 6395 C 585.412 1.25966 -1.49639 0
M  V30 6396 O 586.618 1.85405 -1.98336 0
M  V30 6397 C 585.074 -0.170124 -3.59498 0
M  V30 6398 C 584.682 -1.55421 -4.20176 0
M  V30 6399 C 586.426 0.274513 -4.23611 0
M  V30 6400 C 584.332 -1.55628 -5.70556 0
M  V30 6401 H 583.263 -0.0424183 -0.752806 0
M  V30 6402 H 585.913 -0.782076 -1.65999 0
M  V30 6403 H 584.296 0.555385 -3.92086 0
M  V30 6404 H 585.47 -2.30276 -3.99136 0
M  V30 6405 H 583.784 -1.94235 -3.68323 0
M  V30 6406 H 586.382 0.292402 -5.339 0
M  V30 6407 H 586.725 1.3005 -3.95465 0
M  V30 6408 H 587.258 -0.398275 -3.95801 0
M  V30 6409 H 583.997 -2.56041 -6.03426 0
M  V30 6410 H 583.517 -0.850563 -5.93739 0
M  V30 6411 H 585.196 -1.28721 -6.34066 0
M  V30 6412 N 585.328 1.53329 -0.364422 0
M  V30 6413 C 586.291 2.24323 0.470292 0
M  V30 6414 C 587.291 1.25068 1.01067 0
M  V30 6415 O 588.481 1.49354 0.896605 0
M  V30 6416 C 585.613 2.97908 1.65722 0
M  V30 6417 H 586.806 2.9952 -0.150917 0
M  V30 6418 H 584.359 1.55868 -0.116092 0
M  V30 6419 H 585.094 2.2695 2.31655 0
M  V30 6420 H 584.879 3.70732 1.27671 0
M  V30 6421 H 586.369 3.5188 2.24878 0
M  V30 6422 N 586.806 0.0935595 1.57322 0
M  V30 6423 C 587.754 -0.883457 2.15169 0
M  V30 6424 C 588.748 -1.29324 1.09415 0
M  V30 6425 O 589.954 -1.26795 1.27762 0
M  V30 6426 H 586.329 -0.302923 0.688289 0
M  V30 6427 H 588.3 -0.370845 2.96087 0
M  V30 6428 C 587.049 -2.13345 2.74552 0
M  V30 6429 H 586.372 -1.82702 3.55612 0
M  V30 6430 H 587.812 -2.7977 3.18598 0
M  V30 6431 C 586.271 -2.90646 1.70371 0
M  V30 6432 O 586.801 -3.85133 1.14173 0
M  V30 6433 N 585.007 -2.54157 1.40899 0
M  V30 6434 H 584.554 -1.77391 1.86789 0
M  V30 6435 H 584.512 -3.06178 0.714301 0
M  V30 6436 N 588.284 -1.56567 -0.180126 0
M  V30 6437 C 589.231 -1.95725 -1.22313 0
M  V30 6438 C 590.201 -0.819911 -1.44453 0
M  V30 6439 O 591.386 -1.07931 -1.57339 0
M  V30 6440 C 588.526 -2.31484 -2.55947 0
M  V30 6441 C 587.639 -3.58354 -2.4126 0
M  V30 6442 C 586.774 -3.83366 -3.67701 0
M  V30 6443 C 585.813 -5.03612 -3.47909 0
M  V30 6444 N 584.95 -5.24802 -4.66398 0
M  V30 6445 H 589.79 -2.84642 -0.882198 0
M  V30 6446 H 587.327 -1.4085 -0.42422 0
M  V30 6447 H 589.285 -2.50237 -3.33822 0
M  V30 6448 H 587.915 -1.45689 -2.88053 0
M  V30 6449 H 586.967 -3.47565 -1.54606 0
M  V30 6450 H 588.279 -4.46386 -2.22577 0
M  V30 6451 H 587.433 -4.02439 -4.54013 0
M  V30 6452 H 586.172 -2.93692 -3.89353 0
M  V30 6453 H 585.177 -4.84447 -2.59983 0
M  V30 6454 H 586.402 -5.94809 -3.27688 0
M  V30 6455 H 584.348 -4.38079 -4.88286 0
M  V30 6456 H 584.265 -6.07041 -4.50596 0
M  V30 6457 H 585.533 -5.48346 -5.54019 0
M  V30 6458 N 589.762 0.448376 -1.51087 0
M  V30 6459 C 590.709 1.54341 -1.71603 0
M  V30 6460 C 591.679 1.56463 -0.557536 0
M  V30 6461 O 592.864 1.73644 -0.79072 0
M  V30 6462 C 590.004 2.92148 -1.83695 0
M  V30 6463 C 589.117 2.99639 -3.11192 0
M  V30 6464 C 588.252 4.285 -3.13944 0
M  V30 6465 C 587.291 4.29819 -4.35801 0
M  V30 6466 N 586.428 5.50186 -4.36164 0
M  V30 6467 H 591.268 1.36151 -2.65079 0
M  V30 6468 H 588.805 0.661585 -1.31383 0
M  V30 6469 H 590.763 3.72093 -1.88687 0
M  V30 6470 H 589.393 3.0892 -0.936374 0
M  V30 6471 H 588.445 2.12425 -3.15562 0
M  V30 6472 H 589.757 2.96474 -4.01129 0
M  V30 6473 H 588.911 5.16811 -3.17791 0
M  V30 6474 H 587.65 4.34307 -2.21876 0
M  V30 6475 H 586.655 3.39902 -4.32142 0
M  V30 6476 H 587.88 4.25685 -5.29121 0
M  V30 6477 H 585.826 5.56735 -3.46961 0
M  V30 6478 H 585.743 5.48856 -5.19897 0
M  V30 6479 H 587.011 6.40559 -4.44189 0
M  V30 6480 O 591.279 1.50177 0.59407 0
M  V30 6481 H 591.97 1.48064 1.24887 0
M  V30 END ATOM
M  V30 BEGIN BOND
M  V30 END BOND
M  V30 END CTAB
M  END
$$$$
