drugbank_target|O43704 Sulfotransferase family cytosolic 1B member 1 (DB01812)
 OpenBabel12092120223D

  0  0  0     0  0            999 V3000
M  V30 BEGIN CTAB
M  V30 COUNTS 4898 4967 0 0 0
M  V30 BEGIN ATOM
M  V30 1 H -0.908 1.98254 -0.117106 0
M  V30 2 N 0 1.576 0 0
M  V30 3 C 0.933 2.03868 1.02534 0
M  V30 4 C 1.911 0.928543 1.3348 0
M  V30 5 O 3.095 1.19667 1.45644 0
M  V30 6 C 0.222 2.43627 2.35294 0
M  V30 7 C -0.732 3.65373 2.2001 0
M  V30 8 S 0.101 5.13292 1.52614 0
M  V30 9 C 1.257 5.56322 2.86805 0
M  V30 10 H 1.49 2.90518 0.631377 0
M  V30 11 H -0.977 1.52953 0.210867 0
M  V30 12 H 0.981 2.67203 3.11629 0
M  V30 13 H -0.358 1.57376 2.7183 0
M  V30 14 H -1.165 3.90944 3.18086 0
M  V30 15 H -1.563 3.418 1.51819 0
M  V30 16 H 0.729 5.58782 3.83104 0
M  V30 17 H 1.672 6.56266 2.65933 0
M  V30 18 H 2.08 4.83886 2.90714 0
M  V30 19 N 1.4781 -0.272755 1.55222 0
M  V30 20 C 2.4081 -1.34136 1.91127 0
M  V30 21 C 3.3891 -1.51513 0.773168 0
M  V30 22 O 4.5741 -1.64552 1.03132 0
M  V30 23 C 1.7041 -2.70083 2.1834 0
M  V30 24 C 0.6581 -2.67437 3.34158 0
M  V30 25 C -0.0159 -4.06938 3.46851 0
M  V30 26 C 1.2841 -2.26686 4.70543 0
M  V30 27 H 2.9781 -1.04333 2.80633 0
M  V30 28 H 0.5241 -0.500454 1.35024 0
M  V30 29 H 2.4771 -3.44952 2.42046 0
M  V30 30 H 1.2011 -3.01469 1.25634 0
M  V30 31 H -0.1399 -1.95026 3.1042 0
M  V30 32 H -0.4919 -4.35547 2.51611 0
M  V30 33 H -0.7919 -4.06062 4.2472 0
M  V30 34 H 0.7321 -4.83545 3.72849 0
M  V30 35 H 2.1461 -2.91277 4.93792 0
M  V30 36 H 0.5431 -2.36971 5.5133 0
M  V30 37 H 1.6131 -1.21818 4.69349 0
M  V30 38 N 2.9562 -1.48159 -0.537278 0
M  V30 39 C 4.1812 -1.59707 -1.32319 0
M  V30 40 C 4.6062 -0.254859 -1.86365 0
M  V30 41 O 3.9642 0.772378 -1.64024 0
M  V30 42 C 4.0122 -2.6412 -2.45505 0
M  V30 43 O 3.1162 -2.20774 -3.48328 0
M  V30 44 H 2.4572 -0.535791 -0.392204 0
M  V30 45 H 4.9872 -1.94092 -0.647268 0
M  V30 46 H 4.9972 -2.85166 -2.91795 0
M  V30 47 H 3.6722 -3.61567 -2.05528 0
M  V30 48 H 2.2492 -2.09911 -3.08207 0
M  V30 49 N 4.4343 0.785586 -1.36625 0
M  V30 50 C 5.8453 1.36101 -1.27803 0
M  V30 51 C 6.1963 1.96035 0.0804875 0
M  V30 52 O 5.3213 1.92834 0.982042 0
M  V30 53 C 5.9163 2.47442 -2.31426 0
M  V30 54 C 4.4753 3.00789 -2.26281 0
M  V30 55 C 3.6223 1.73896 -2.15999 0
M  V30 56 H 6.5733 0.586928 -1.47448 0
M  V30 57 H 6.5943 3.2656 -1.95291 0
M  V30 58 H 6.1063 2.03791 -3.30289 0
M  V30 59 H 4.2073 3.48851 -1.30896 0
M  V30 60 H 4.3203 3.57343 -3.19128 0
M  V30 61 H 2.6843 1.9628 -1.62316 0
M  V30 62 H 3.4673 1.32368 -3.16755 0
M  V30 63 N 5.9124 1.20967 1.01018 0
M  V30 64 C 6.8594 0.964281 2.09691 0
M  V30 65 C 7.8294 -0.107853 1.65749 0
M  V30 66 O 9.0144 0.0381987 1.90762 0
M  V30 67 C 6.1544 0.52943 3.41015 0
M  V30 68 C 5.2674 1.67043 3.98398 0
M  V30 69 C 4.4024 1.18525 5.17808 0
M  V30 70 C 3.4414 2.29892 5.67288 0
M  V30 71 N 2.5784 1.82546 6.77954 0
M  V30 72 H 7.4184 1.89463 2.30017 0
M  V30 73 H 4.9554 0.944289 1.1279 0
M  V30 74 H 6.9134 0.258588 4.16398 0
M  V30 75 H 5.5434 -0.363919 3.20742 0
M  V30 76 H 4.5954 2.05603 3.20049 0
M  V30 77 H 5.9074 2.50877 4.31117 0
M  V30 78 H 5.0614 0.870762 6.00419 0
M  V30 79 H 3.8004 0.316887 4.86669 0
M  V30 80 H 2.8054 2.6215 4.83278 0
M  V30 81 H 4.0304 3.17216 6.00459 0
M  V30 82 H 1.9764 0.980454 6.48632 0
M  V30 83 H 1.8934 2.59956 7.09901 0
M  V30 84 H 3.1614 1.54115 7.64113 0
M  V30 85 N 7.3905 -1.2043 1.01659 0
M  V30 86 C 8.6675 -1.8548 0.621004 0
M  V30 87 C 9.0475 -1.9091 -0.900919 0
M  V30 88 O 8.3955 -1.41694 -1.79263 0
M  V30 89 C 8.6055 -3.25119 1.2688 0
M  V30 90 C 9.9535 -4.01403 1.38423 0
M  V30 91 O 10.9775 -3.34473 1.22501 0
M  V30 92 O 9.8365 -5.21265 1.64151 0
M  V30 93 H 6.9305 -0.798761 0.214266 0
M  V30 94 H 9.4765 -1.28019 1.11396 0
M  V30 95 H 8.2485 -3.15932 2.30873 0
M  V30 96 H 7.8715 -3.90212 0.762917 0
M  V30 97 N 8.8686 -0.792821 -1.36206 0
M  V30 98 C 10.1176 -0.363353 -1.984 0
M  V30 99 C 10.4306 1.07172 -1.63626 0
M  V30 100 O 11.6366 1.60362 -2.19081 0
M  V30 101 C 10.0926 -0.59872 -3.54885 0
M  V30 102 C 9.7006 -2.04543 -3.9858 0
M  V30 103 C 11.4446 -0.233926 -4.23855 0
M  V30 104 C 9.3516 -2.22727 -5.47856 0
M  V30 105 H 8.2816 -0.13212 -0.742334 0
M  V30 106 H 10.9326 -0.974935 -1.55458 0
M  V30 107 H 9.3146 0.0826222 -3.95914 0
M  V30 108 H 10.4886 -2.76345 -3.68741 0
M  V30 109 H 8.8036 -2.36879 -3.42458 0
M  V30 110 H 11.4006 -0.348027 -5.33566 0
M  V30 111 H 11.7436 0.818351 -4.08177 0
M  V30 112 H 12.2766 -0.868639 -3.882 0
M  V30 113 H 9.0156 -3.2635 -5.68486 0
M  V30 114 H 8.5356 -1.55434 -5.7931 0
M  V30 115 H 10.2146 -2.03607 -6.14128 0
M  V30 116 N 10.3467 1.47872 -0.545128 0
M  V30 117 C 11.2767 2.32661 0.197793 0
M  V30 118 C 12.2577 1.43041 0.920504 0
M  V30 119 O 13.4427 1.71912 0.90333 0
M  V30 120 C 10.5727 3.24569 1.23582 0
M  V30 121 C 9.5267 4.23333 0.630323 0
M  V30 122 C 8.8527 5.0448 1.77211 0
M  V30 123 C 10.1527 5.20704 -0.407974 0
M  V30 124 H 11.8467 2.95024 -0.510045 0
M  V30 125 H 9.3927 1.4187 -0.246731 0
M  V30 126 H 11.3457 3.8272 1.76362 0
M  V30 127 H 10.0697 2.60236 1.97344 0
M  V30 128 H 8.7287 3.6639 0.123922 0
M  V30 129 H 8.3767 4.36561 2.49847 0
M  V30 130 H 8.0767 5.71339 1.37281 0
M  V30 131 H 9.6007 5.65487 2.3034 0
M  V30 132 H 11.0147 5.7329 0.033305 0
M  V30 133 H 9.4117 5.95699 -0.725486 0
M  V30 134 H 10.4817 4.66917 -1.30828 0
M  V30 135 N 11.8248 0.280983 1.55075 0
M  V30 136 C 13.2408 -0.0729964 1.59433 0
M  V30 137 C 13.4408 -1.5411 1.29817 0
M  V30 138 O 12.4968 -2.29086 1.06187 0
M  V30 139 C 13.8098 0.306921 2.9913 0
M  V30 140 C 15.3578 0.254023 3.11968 0
M  V30 141 C 15.8328 0.608467 4.5394 0
M  V30 142 N 17.3238 0.560241 4.59799 0
M  V30 143 C 18.0588 0.80722 5.6769 0
M  V30 144 N 17.5548 1.11912 6.83701 0
M  V30 145 N 19.3478 0.735623 5.57266 0
M  V30 146 H 11.4988 1.238 1.7259 0
M  V30 147 H 13.7618 0.500547 0.805082 0
M  V30 148 H 13.4678 1.32816 3.25657 0
M  V30 149 H 13.3418 -0.349363 3.75579 0
M  V30 150 H 15.7288 -0.75794 2.852 0
M  V30 151 H 15.8098 0.944649 2.37718 0
M  V30 152 H 15.4538 1.61814 4.81434 0
M  V30 153 H 15.3838 -0.104013 5.26497 0
M  V30 154 H 17.8748 0.329288 3.76463 0
M  V30 155 H 18.1878 1.29409 7.61888 0
M  V30 156 H 16.5328 1.15695 6.85303 0
M  V30 157 H 19.7238 0.491752 4.6551 0
M  V30 158 H 19.8968 0.931482 6.4127 0
M  V30 159 N 13.3029 -1.57598 0.00835791 0
M  V30 160 C 14.2499 -2.08945 -0.980346 0
M  V30 161 C 15.2199 -0.986738 -1.33614 0
M  V30 162 O 16.4049 -1.25968 -1.43306 0
M  V30 163 C 13.5449 -2.60425 -2.26435 0
M  V30 164 C 12.6579 -3.84628 -1.96685 0
M  V30 165 C 11.7929 -4.24579 -3.19228 0
M  V30 166 C 10.8319 -5.41596 -2.85202 0
M  V30 167 N 9.9689 -5.768 -4.00307 0
M  V30 168 H 14.8089 -2.93148 -0.535551 0
M  V30 169 H 12.3459 -1.44912 -0.252776 0
M  V30 170 H 14.3039 -2.88354 -3.01509 0
M  V30 171 H 12.9339 -1.79083 -2.68568 0
M  V30 172 H 11.9859 -3.63556 -1.11942 0
M  V30 173 H 13.2979 -4.69796 -1.67611 0
M  V30 174 H 12.4519 -4.53834 -4.02641 0
M  V30 175 H 11.1909 -3.38137 -3.51447 0
M  V30 176 H 10.1959 -5.12056 -2.00198 0
M  V30 177 H 11.4209 -6.29721 -2.54222 0
M  V30 178 H 9.3669 -4.93316 -4.32407 0
M  V30 179 H 9.2839 -6.5656 -3.74786 0
M  V30 180 H 10.5519 -6.10652 -4.84484 0
M  V30 181 N 14.781 0.264519 -1.55364 0
M  V30 182 C 16.058 1.01677 -1.67096 0
M  V30 183 C 16.438 2.03996 -0.543015 0
M  V30 184 O 15.786 2.23907 0.45585 0
M  V30 185 C 15.996 1.66596 -3.0667 0
M  V30 186 C 17.344 2.17442 -3.64697 0
M  V30 187 O 18.368 1.76568 -3.09358 0
M  V30 188 O 17.227 2.92439 -4.61673 0
M  V30 189 H 14.321 0.472161 -0.678965 0
M  V30 190 H 16.867 0.259703 -1.67701 0
M  V30 191 H 15.639 0.924962 -3.80211 0
M  V30 192 H 15.262 2.48968 -3.10001 0
M  V30 193 N 16.2591 1.48442 0.529413 0
M  V30 194 C 17.1891 1.65902 1.64313 0
M  V30 195 C 18.1701 0.507897 1.6234 0
M  V30 196 O 19.3551 0.740503 1.79528 0
M  V30 197 C 16.4851 1.69911 3.02898 0
M  V30 198 C 15.4391 2.8453 3.19729 0
M  V30 199 C 14.7651 2.73629 4.59381 0
M  V30 200 C 16.0651 4.25821 3.02447 0
M  V30 201 H 17.7591 2.5914 1.49955 0
M  V30 202 H 15.3051 1.24709 0.719982 0
M  V30 203 H 17.2581 1.80715 3.80684 0
M  V30 204 H 15.9821 0.732524 3.18279 0
M  V30 205 H 14.6411 2.73283 2.44361 0
M  V30 206 H 14.2891 1.74938 4.71599 0
M  V30 207 H 13.9891 3.50541 4.71588 0
M  V30 208 H 15.5131 2.86401 5.39265 0
M  V30 209 H 16.9271 4.37898 3.70024 0
M  V30 210 H 15.3241 5.03735 3.26146 0
M  V30 211 H 16.3941 4.42244 1.98867 0
M  V30 212 N 17.7372 -0.778329 1.37039 0
M  V30 213 C 18.6842 -1.89139 1.32269 0
M  V30 214 C 19.6542 -1.65017 0.189387 0
M  V30 215 O 20.8392 -1.87024 0.377693 0
M  V30 216 C 17.9792 -3.26112 1.12894 0
M  V30 217 C 17.0922 -3.62233 2.35396 0
M  V30 218 C 16.2272 -4.8838 2.08946 0
M  V30 219 C 15.2662 -5.17212 3.2735 0
M  V30 220 N 14.4032 -6.34546 3.00492 0
M  V30 221 H 19.2432 -1.92552 2.27437 0
M  V30 222 H 16.7802 -0.941473 1.13025 0
M  V30 223 H 18.7382 -4.05116 0.996835 0
M  V30 224 H 17.3682 -3.22091 0.213758 0
M  V30 225 H 16.4202 -2.78265 2.5937 0
M  V30 226 H 17.7322 -3.79481 3.23721 0
M  V30 227 H 16.8862 -5.75274 1.92729 0
M  V30 228 H 15.6252 -4.73222 1.17949 0
M  V30 229 H 14.6302 -4.28796 3.44113 0
M  V30 230 H 15.8552 -5.34283 4.19188 0
M  V30 231 H 13.8012 -6.20759 2.12118 0
M  V30 232 H 13.7182 -6.52179 3.82358 0
M  V30 233 H 14.9862 -7.24394 2.87879 0
M  V30 234 N 19.2153 -1.21501 -1.00376 0
M  V30 235 C 20.1453 -0.999478 -2.11028 0
M  V30 236 C 21.1263 0.0759671 -1.6993 0
M  V30 237 O 22.3113 -0.0841106 -1.94018 0
M  V30 238 C 19.4413 -0.564709 -3.42678 0
M  V30 239 C 18.3953 -1.58486 -3.97576 0
M  V30 240 C 17.7213 -1.00628 -5.25146 0
M  V30 241 C 19.0213 -2.97204 -4.29496 0
M  V30 242 H 20.7153 -1.92495 -2.29317 0
M  V30 243 H 18.2613 -0.92693 -1.102 0
M  V30 244 H 20.2143 -0.401091 -4.19487 0
M  V30 245 H 18.9383 0.396411 -3.24185 0
M  V30 246 H 17.5973 -1.73606 -3.22888 0
M  V30 247 H 17.2453 -0.0368439 -5.02987 0
M  V30 248 H 16.9453 -1.68771 -5.62841 0
M  V30 249 H 18.4693 -0.854015 -6.04598 0
M  V30 250 H 19.8833 -2.8552 -4.97143 0
M  V30 251 H 18.2803 -3.62372 -4.78338 0
M  V30 252 H 19.3503 -3.47956 -3.3772 0
M  V30 253 N 20.6934 1.19889 -1.02296 0
M  V30 254 C 21.9394 1.89701 -0.717033 0
M  V30 255 C 22.2724 1.7905 0.751989 0
M  V30 256 O 21.5474 1.17891 1.547 0
M  V30 257 C 21.8304 3.40858 -1.16136 0
M  V30 258 C 21.6834 3.60411 -2.69117 0
M  V30 259 C 23.0024 4.33876 -0.737549 0
M  V30 260 H 20.1214 0.688874 -0.261957 0
M  V30 261 H 22.7634 1.41154 -1.27183 0
M  V30 262 H 20.9134 3.82335 -0.689342 0
M  V30 263 H 22.5854 3.28145 -3.2422 0
M  V30 264 H 20.8284 3.03665 -3.0979 0
M  V30 265 H 21.4994 4.66396 -2.95261 0
M  V30 266 H 23.9754 4.00081 -1.14344 0
M  V30 267 H 22.8514 5.38242 -1.0764 0
M  V30 268 H 23.1124 4.40628 0.360436 0
M  V30 269 N 22.1715 0.800033 1.35784 0
M  V30 270 C 23.1215 0.178654 2.27299 0
M  V30 271 C 24.1055 -0.643667 1.47464 0
M  V30 272 O 25.2975 -0.502 1.69732 0
M  V30 273 C 22.4265 -0.677194 3.36555 0
M  V30 274 C 21.5125 0.154497 4.23818 0
M  V30 275 N 21.9035 1.21427 4.91008 0
M  V30 276 C 20.2015 -0.0649462 4.45953 0
M  V30 277 C 20.9025 1.72147 5.55644 0
M  V30 278 N 19.8785 1.02897 5.33773 0
M  V30 279 H 23.6805 0.989637 2.76737 0
M  V30 280 H 21.1945 0.64054 1.49234 0
M  V30 281 H 23.1915 -1.13835 4.01058 0
M  V30 282 H 21.8515 -1.4866 2.8867 0
M  V30 283 H 22.8625 1.59684 4.92668 0
M  V30 284 H 19.5395 -0.844016 4.0888 0
M  V30 285 H 20.9295 2.60683 6.19269 0
M  V30 286 N 23.6496 -1.47581 0.552962 0
M  V30 287 C 24.8976 -2.02082 0.0272703 0
M  V30 288 C 25.2186 -1.4301 -1.32563 0
M  V30 289 O 24.4886 -0.603745 -1.86365 0
M  V30 290 H 23.0686 -0.746966 0.00709182 0
M  V30 291 H 25.7306 -1.81033 0.722008 0
M  V30 292 H 24.8266 -3.12034 -0.0639951 0
M  V30 293 N 25.1277 -0.289203 -1.54924 0
M  V30 294 C 26.3577 0.325989 -2.04012 0
M  V30 295 C 26.7657 1.48961 -1.1665 0
M  V30 296 O 26.1087 1.82794 -0.1822 0
M  V30 297 C 26.1707 0.856112 -3.49158 0
M  V30 298 C 25.8347 -0.180697 -4.56643 0
M  V30 299 C 26.8317 -1.0051 -5.10092 0
M  V30 300 C 24.5167 -0.318998 -5.01286 0
M  V30 301 C 26.5107 -1.95385 -6.06715 0
M  V30 302 C 24.1977 -1.27121 -5.97732 0
M  V30 303 C 25.1957 -2.08713 -6.50329 0
M  V30 304 O 24.8837 -3.02322 -7.44887 0
M  V30 305 H 24.6157 0.0765276 -0.671654 0
M  V30 306 H 27.1697 -0.423254 -2.00992 0
M  V30 307 H 25.3997 1.65567 -3.49463 0
M  V30 308 H 27.0887 1.38591 -3.81507 0
M  V30 309 H 27.8547 -0.90906 -4.76404 0
M  V30 310 H 23.7337 0.306108 -4.59983 0
M  V30 311 H 27.2777 -2.59111 -6.47694 0
M  V30 312 H 23.1747 -1.36801 -6.30837 0
M  V30 313 H 23.9427 -2.97165 -7.6265 0
M  V30 314 N 26.6058 1.57591 -0.0167156 0
M  V30 315 C 28.0168 1.79201 0.523834 0
M  V30 316 C 28.3678 0.925796 1.72984 0
M  V30 317 O 27.4928 0.132792 2.15992 0
M  V30 318 C 28.0878 3.25 0.957091 0
M  V30 319 C 26.6468 3.47648 1.44283 0
M  V30 320 C 25.7938 2.74374 0.401757 0
M  V30 321 H 28.7448 1.56831 -0.242816 0
M  V30 322 H 28.7658 3.34031 1.82219 0
M  V30 323 H 28.2778 3.88019 0.0791415 0
M  V30 324 H 26.3788 2.89866 2.34113 0
M  V30 325 H 26.4918 4.56352 1.45877 0
M  V30 326 H 24.8558 2.39485 0.867121 0
M  V30 327 H 25.6388 3.40102 -0.467513 0
M  V30 328 N 28.0839 -0.256276 1.55502 0
M  V30 329 C 29.0169 -1.34321 1.84481 0
M  V30 330 C 29.9949 -1.46802 0.699131 0
M  V30 331 O 31.1789 -1.63165 0.943904 0
M  V30 332 C 28.3059 -2.71779 2.02123 0
M  V30 333 C 27.3519 -2.76496 3.24734 0
M  V30 334 S 28.1849 -2.3405 4.81644 0
M  V30 335 C 29.3409 -3.73452 5.02279 0
M  V30 336 H 29.5739 -1.09539 2.76385 0
M  V30 337 H 27.1069 -0.45678 1.47489 0
M  V30 338 H 29.0649 -3.50932 2.12972 0
M  V30 339 H 27.7259 -2.93803 1.11078 0
M  V30 340 H 26.9189 -3.77424 3.34016 0
M  V30 341 H 26.5209 -2.05379 3.12563 0
M  V30 342 H 28.8129 -4.6887 4.89047 0
M  V30 343 H 29.7559 -3.6911 6.04287 0
M  V30 344 H 30.1639 -3.6553 4.30172 0
M  V30 345 N 29.562 -1.4872 -0.521534 0
M  V30 346 C 30.79 -1.60843 -1.30142 0
M  V30 347 C 31.205 -0.271897 -1.86832 0
M  V30 348 O 30.562 0.739969 -1.66825 0
M  V30 349 C 30.613 -2.66155 -2.4463 0
M  V30 350 O 30.334 -3.94623 -1.90275 0
M  V30 351 C 31.835 -2.88795 -3.36322 0
M  V30 352 H 29.055 -0.542075 -0.395468 0
M  V30 353 H 31.599 -1.94609 -0.628285 0
M  V30 354 H 29.754 -2.35224 -3.07812 0
M  V30 355 H 30.168 -4.52468 -2.65279 0
M  V30 356 H 31.642 -3.66264 -4.12983 0
M  V30 357 H 32.119 -1.97934 -3.9207 0
M  V30 358 H 32.725 -3.21063 -2.78924 0
M  V30 359 N 31.0401 0.771051 -1.3745 0
M  V30 360 C 32.2801 1.54264 -1.34096 0
M  V30 361 C 32.6441 1.91858 0.0737639 0
M  V30 362 O 33.8451 2.67797 0.23203 0
M  V30 363 C 32.1161 2.77326 -2.25445 0
M  V30 364 S 33.6751 3.67383 -2.39948 0
M  V30 365 H 30.4931 0.528122 -0.476034 0
M  V30 366 H 33.0951 0.906633 -1.73206 0
M  V30 367 H 31.7991 2.47788 -3.27153 0
M  V30 368 H 31.3301 3.45886 -1.87421 0
M  V30 369 H 33.3451 4.69334 -1.61059 0
M  V30 370 N 32.5182 1.22032 0.997298 0
M  V30 371 C 33.4812 0.987909 2.06816 0
M  V30 372 C 34.4812 -0.0440084 1.6074 0
M  V30 373 O 35.6712 0.194053 1.73116 0
M  V30 374 C 32.8032 0.49132 3.37341 0
M  V30 375 H 33.9962 1.93803 2.28868 0
M  V30 376 H 31.5492 1.03838 1.16822 0
M  V30 377 H 32.2842 -0.463364 3.20973 0
M  V30 378 H 32.0692 1.23575 3.72118 0
M  V30 379 H 33.5592 0.348824 4.16141 0
M  V30 380 N 33.9963 -1.19345 1.0293 0
M  V30 381 C 35.2433 -1.89038 0.726008 0
M  V30 382 C 35.5713 -1.79649 -0.745427 0
M  V30 383 O 34.8263 -1.18354 -1.55855 0
M  V30 384 C 35.1253 -3.39292 1.12319 0
M  V30 385 C 34.7913 -3.68885 2.59297 0
M  V30 386 C 33.4533 -3.76671 2.99453 0
M  V30 387 C 35.8053 -3.82178 3.54386 0
M  V30 388 C 33.1333 -3.9522 4.33611 0
M  V30 389 C 35.4853 -4.0224 4.88248 0
M  V30 390 C 34.1493 -4.08259 5.28092 0
M  V30 391 H 33.4193 -0.691739 0.265665 0
M  V30 392 H 36.0663 -1.41328 1.29223 0
M  V30 393 H 34.3713 -3.88903 0.475584 0
M  V30 394 H 36.0683 -3.91536 0.866037 0
M  V30 395 H 32.6583 -3.63433 2.27189 0
M  V30 396 H 36.8423 -3.75505 3.24514 0
M  V30 397 H 32.0983 -3.98119 4.64016 0
M  V30 398 H 36.2723 -4.11468 5.61843 0
M  V30 399 H 33.8993 -4.22384 6.32057 0
M  V30 400 N 35.4744 -0.807222 -1.35358 0
M  V30 401 C 36.4374 -0.223665 -2.28106 0
M  V30 402 C 37.4374 0.589354 -1.4961 0
M  V30 403 O 38.6274 0.407745 -1.69361 0
M  V30 404 C 35.7594 0.688149 -3.33882 0
M  V30 405 H 36.9524 -1.04169 -2.81227 0
M  V30 406 H 34.5054 -0.577921 -1.45223 0
M  V30 407 H 35.2404 1.52984 -2.85948 0
M  V30 408 H 35.0254 0.10687 -3.91954 0
M  V30 409 H 36.5154 1.09075 -4.03104 0
M  V30 410 N 36.9525 1.47285 -0.560781 0
M  V30 411 C 38.1775 2.07359 -0.0410566 0
M  V30 412 C 38.6025 1.41017 1.24483 0
M  V30 413 O 37.9605 0.486368 1.74654 0
M  V30 414 C 38.0085 3.6035 0.134123 0
M  V30 415 O 37.1125 3.94681 1.19587 0
M  V30 416 H 36.4535 0.661887 -0.0529291 0
M  V30 417 H 38.9835 1.89252 -0.777482 0
M  V30 418 H 38.9935 4.0652 0.347207 0
M  V30 419 H 37.6685 4.08034 -0.805047 0
M  V30 420 H 36.2455 3.60251 0.962987 0
M  V30 421 N 38.4306 0.297415 1.54768 0
M  V30 422 C 39.3786 -0.596051 2.24833 0
M  V30 423 C 40.3726 -1.13992 1.25308 0
M  V30 424 O 41.5786 -1.09098 1.4317 0
M  V30 425 H 37.9536 -0.210814 0.721846 0
M  V30 426 H 39.9246 0.0174667 2.98395 0
M  V30 427 C 38.6736 -1.75818 2.99972 0
M  V30 428 H 37.9966 -1.3489 3.76357 0
M  V30 429 H 39.4366 -2.35949 3.52284 0
M  V30 430 C 37.8956 -2.66014 2.06732 0
M  V30 431 O 38.4256 -3.67009 1.63302 0
M  V30 432 N 36.6316 -2.33669 1.72763 0
M  V30 433 H 36.1786 -1.51586 2.08277 0
M  V30 434 H 36.1366 -2.94285 1.10652 0
M  V30 435 N 39.9087 -1.5758 0.0250728 0
M  V30 436 C 41.1547 -1.92746 -0.649648 0
M  V30 437 C 41.5097 -0.901588 -1.69968 0
M  V30 438 O 40.8027 0.0829251 -1.9142 0
M  V30 439 C 40.9967 -3.32421 -1.31268 0
M  V30 440 C 40.8257 -4.48499 -0.328394 0
M  V30 441 C 39.5957 -5.05251 0.070284 0
M  V30 442 C 41.7937 -5.12618 0.415665 0
M  V30 443 N 39.7757 -6.04851 1.05016 0
M  V30 444 C 41.1467 -6.0728 1.24943 0
M  V30 445 C 43.2017 -4.95612 0.476803 0
M  V30 446 C 41.9047 -6.86766 2.1388 0
M  V30 447 C 43.9307 -5.75703 1.3535 0
M  V30 448 C 43.2927 -6.69978 2.17504 0
M  V30 449 H 39.3917 -0.753231 -0.210159 0
M  V30 450 H 41.9757 -1.94486 0.0912999 0
M  V30 451 H 40.1467 -3.31508 -2.02379 0
M  V30 452 H 41.8787 -3.54946 -1.94411 0
M  V30 453 H 38.6337 -4.72628 -0.303323 0
M  V30 454 H 39.0577 -6.5934 1.53622 0
M  V30 455 H 43.6997 -4.22554 -0.144105 0
M  V30 456 H 41.4177 -7.59132 2.77027 0
M  V30 457 H 45.0037 -5.64579 1.40504 0
M  V30 458 H 43.8837 -7.30873 2.84244 0
M  V30 459 N 41.3868 0.248026 -1.55636 0
M  V30 460 C 42.2968 1.32859 -1.93354 0
M  V30 461 C 43.3128 1.52719 -0.833838 0
M  V30 462 O 44.4888 1.66363 -1.13513 0
M  V30 463 C 41.5538 2.66337 -2.21958 0
M  V30 464 C 40.6148 2.55008 -3.45354 0
M  V30 465 C 39.8478 3.82121 -3.72584 0
M  V30 466 O 40.0708 4.83951 -3.01907 0
M  V30 467 O 39.0048 3.80822 -4.6611 0
M  V30 468 H 42.8308 1.03862 -2.85388 0
M  V30 469 H 40.4158 0.448686 -1.42503 0
M  V30 470 H 42.2978 3.45216 -2.4167 0
M  V30 471 H 40.9728 2.95068 -1.33103 0
M  V30 472 H 39.8798 1.7442 -3.30951 0
M  V30 473 H 41.2128 2.31222 -4.34508 0
M  V30 474 N 42.8649 1.48995 0.513639 0
M  V30 475 C 43.8119 1.6473 1.61656 0
M  V30 476 C 44.7819 0.488984 1.58739 0
M  V30 477 O 45.9669 0.714478 1.76918 0
M  V30 478 C 43.1069 1.7082 2.99858 0
M  V30 479 C 42.2199 2.9787 3.12885 0
M  V30 480 C 41.3549 2.95017 4.41744 0
M  V30 481 C 40.3939 4.16702 4.48359 0
M  V30 482 N 39.5309 4.11832 5.68629 0
M  V30 483 H 44.3709 2.58909 1.47547 0
M  V30 484 H 41.9079 1.28382 0.71808 0
M  V30 485 H 43.8659 1.72331 3.79944 0
M  V30 486 H 42.4959 0.801181 3.12699 0
M  V30 487 H 41.5479 3.06029 2.25944 0
M  V30 488 H 42.8599 3.8786 3.13633 0
M  V30 489 H 42.0139 2.95021 5.30139 0
M  V30 490 H 40.7529 2.02784 4.43542 0
M  V30 491 H 39.7579 4.16955 3.58369 0
M  V30 492 H 40.9829 5.10113 4.48287 0
M  V30 493 H 38.9289 3.22428 5.71293 0
M  V30 494 H 38.8459 4.95543 5.7094 0
M  V30 495 H 40.1139 4.1592 6.59266 0
M  V30 496 N 44.343 -0.763751 1.37857 0
M  V30 497 C 45.592 -1.51789 1.32827 0
M  V30 498 C 45.905 -1.95426 -0.0823719 0
M  V30 499 O 47.111 -2.70298 -0.255172 0
M  V30 500 C 45.567 -2.74133 2.33193 0
M  V30 501 C 45.175 -2.37562 3.79827 0
M  V30 502 C 46.919 -3.52054 2.37188 0
M  V30 503 C 44.826 -3.56456 4.71904 0
M  V30 504 H 43.756 -0.569896 0.493695 0
M  V30 505 H 46.407 -0.835822 1.63359 0
M  V30 506 H 44.789 -3.4427 1.9569 0
M  V30 507 H 45.963 -1.75157 4.26212 0
M  V30 508 H 44.278 -1.72798 3.78853 0
M  V30 509 H 46.875 -4.40437 3.03182 0
M  V30 510 H 47.218 -3.92486 1.38782 0
M  V30 511 H 47.751 -2.88921 2.7344 0
M  V30 512 H 44.49 -3.21099 5.71468 0
M  V30 513 H 44.01 -4.17938 4.30218 0
M  V30 514 H 45.689 -4.23168 4.89426 0
M  V30 515 N 45.8211 -1.22559 -0.990812 0
M  V30 516 C 46.7311 -1.01394 -2.11557 0
M  V30 517 C 47.7471 0.0383962 -1.73958 0
M  V30 518 O 48.9231 -0.154787 -2.00804 0
M  V30 519 C 45.9881 -0.596569 -3.41529 0
M  V30 520 C 45.0491 -1.72276 -3.93217 0
M  V30 521 C 44.2821 -1.32521 -5.16985 0
M  V30 522 O 44.5051 -0.204909 -5.70032 0
M  V30 523 O 43.4391 -2.14247 -5.62478 0
M  V30 524 H 47.2651 -1.95633 -2.32296 0
M  V30 525 H 44.8501 -1.01172 -1.0993 0
M  V30 526 H 46.7321 -0.374263 -4.19735 0
M  V30 527 H 45.4071 0.316939 -3.22145 0
M  V30 528 H 44.3141 -1.99961 -3.16174 0
M  V30 529 H 45.6471 -2.61421 -4.17037 0
M  V30 530 N 47.2992 1.18797 -1.03562 0
M  V30 531 C 48.2312 2.21731 -0.580337 0
M  V30 532 C 49.2442 1.59051 0.347349 0
M  V30 533 O 50.4332 1.77929 0.142669 0
M  V30 534 C 47.5332 3.38459 0.172805 0
M  V30 535 C 46.7062 4.3072 -0.761496 0
M  V30 536 C 45.7652 5.26174 -0.0525547 0
M  V30 537 O 44.7912 5.65108 -0.681333 0
M  V30 538 N 45.9932 5.67624 1.21586 0
M  V30 539 H 48.7582 2.61417 -1.46565 0
M  V30 540 H 46.3192 1.33531 -0.915476 0
M  V30 541 H 48.3112 3.99335 0.656793 0
M  V30 542 H 46.8812 2.97507 0.959602 0
M  V30 543 H 46.1012 3.67525 -1.42544 0
M  V30 544 H 47.3892 4.89267 -1.39626 0
M  V30 545 H 46.7872 5.38038 1.74732 0
M  V30 546 H 45.3442 6.30721 1.64421 0
M  V30 547 N 48.7773 0.814389 1.34928 0
M  V30 548 C 50.0243 0.398423 1.98542 0
M  V30 549 C 50.3523 -1.03638 1.64589 0
M  V30 550 O 49.6073 -1.73509 0.90516 0
M  V30 551 C 49.9063 0.537781 3.53331 0
M  V30 552 C 49.5723 1.93704 4.07172 0
M  V30 553 C 48.2343 2.31984 4.21589 0
M  V30 554 C 50.5863 2.85213 4.36237 0
M  V30 555 C 47.9143 3.61125 4.62391 0
M  V30 556 C 50.2663 4.13809 4.78482 0
M  V30 557 C 48.9303 4.52077 4.91104 0
M  V30 558 H 48.2003 0.145793 0.726516 0
M  V30 559 H 50.8473 1.03669 1.61012 0
M  V30 560 H 49.1523 -0.183906 3.91368 0
M  V30 561 H 50.8493 0.196588 4.00518 0
M  V30 562 H 47.4393 1.62966 3.96409 0
M  V30 563 H 51.6233 2.56885 4.24645 0
M  V30 564 H 46.8793 3.90612 4.70353 0
M  V30 565 H 51.0533 4.84811 4.99932 0
M  V30 566 H 48.6803 5.52196 5.22478 0
M  V30 567 N 50.2554 -1.46986 0.568584 0
M  V30 568 C 51.2054 -2.27179 -0.193339 0
M  V30 569 C 52.1894 -1.35035 -0.874895 0
M  V30 570 O 53.3814 -1.5931 -0.771322 0
M  V30 571 C 50.5104 -3.21063 -1.21546 0
M  V30 572 C 49.5964 -4.2069 -0.536738 0
M  V30 573 N 49.9874 -5.04218 0.399673 0
M  V30 574 C 48.2854 -4.38961 -0.789254 0
M  V30 575 C 48.9864 -5.76242 0.795017 0
M  V30 576 N 47.9624 -5.434 0.1473 0
M  V30 577 H 51.7644 -2.89146 0.526458 0
M  V30 578 H 49.2784 -1.57664 0.389342 0
M  V30 579 H 51.2754 -3.77209 -1.77536 0
M  V30 580 H 49.9354 -2.60654 -1.93623 0
M  V30 581 H 50.9464 -5.12077 0.774454 0
M  V30 582 H 47.6234 -3.89713 -1.49767 0
M  V30 583 H 49.0134 -6.53417 1.56513 0
M  V30 584 N 51.7335 -0.305618 -1.54608 0
M  V30 585 C 52.9585 0.307562 -2.05107 0
M  V30 586 C 53.3835 1.46385 -1.18123 0
M  V30 587 O 52.7415 1.8034 -0.186324 0
M  V30 588 C 52.7895 0.73704 -3.52987 0
M  V30 589 O 51.8935 1.84134 -3.6901 0
M  V30 590 H 51.2345 0.0589143 -0.661381 0
M  V30 591 H 53.7645 -0.448807 -1.99617 0
M  V30 592 H 53.7745 1.02459 -3.94925 0
M  V30 593 H 52.4495 -0.108773 -4.15758 0
M  V30 594 H 51.0265 1.55398 -3.38978 0
M  V30 595 N 53.2116 1.57565 -0.0334293 0
M  V30 596 C 54.6276 1.56297 0.322997 0
M  V30 597 C 54.8276 1.03945 1.7262 0
M  V30 598 O 53.8836 0.688109 2.42943 0
M  V30 599 C 55.1966 3.00232 0.167664 0
M  V30 600 C 56.7446 3.12078 0.240107 0
M  V30 601 C 57.2196 4.57859 0.113513 0
M  V30 602 N 58.7106 4.62887 0.170359 0
M  V30 603 C 59.4456 5.73319 0.0962517 0
M  V30 604 N 58.9416 6.92794 -0.0291881 0
M  V30 605 N 60.7346 5.61898 0.150551 0
M  V30 606 H 52.8856 1.89923 -0.950956 0
M  V30 607 H 55.1486 0.873824 -0.367608 0
M  V30 608 H 54.8546 3.42501 -0.799102 0
M  V30 609 H 54.7286 3.654 0.936083 0
M  V30 610 H 57.1156 2.69718 1.19733 0
M  V30 611 H 57.1966 2.49623 -0.558763 0
M  V30 612 H 56.8406 5.009 -0.840314 0
M  V30 613 H 56.7706 5.18299 0.931302 0
M  V30 614 H 59.2616 3.76954 0.26728 0
M  V30 615 H 59.5746 7.7276 -0.0789252 0
M  V30 616 H 57.9196 6.94971 -0.0640299 0
M  V30 617 H 61.1106 4.67448 0.246981 0
M  V30 618 H 61.2836 6.47938 0.0893365 0
M  V30 619 N 54.6897 -0.239769 1.55765 0
M  V30 620 C 56.1007 -0.808263 1.68297 0
M  V30 621 C 56.4517 -1.85736 0.632181 0
M  V30 622 O 55.5767 -2.15277 -0.220204 0
M  V30 623 C 56.1717 -1.47284 3.05111 0
M  V30 624 C 54.7307 -1.98895 3.19559 0
M  V30 625 C 53.8777 -0.842575 2.64189 0
M  V30 626 H 56.8287 -0.0154422 1.58692 0
M  V30 627 H 56.8497 -2.34111 2.99954 0
M  V30 628 H 56.3617 -0.709053 3.81568 0
M  V30 629 H 54.4627 -2.78132 2.47938 0
M  V30 630 H 54.5757 -2.18143 4.26556 0
M  V30 631 H 52.9397 -1.24501 2.22197 0
M  V30 632 H 53.7227 -0.0917552 3.43177 0
M  V30 633 N 56.1678 -1.49265 -0.50573 0
M  V30 634 C 57.4448 -1.49012 -1.26707 0
M  V30 635 C 57.8248 -0.215205 -2.1 0
M  V30 636 O 57.1728 0.802547 -2.13943 0
M  V30 637 C 57.3828 -2.7663 -2.12783 0
M  V30 638 C 58.7308 -3.25932 -2.72127 0
M  V30 639 O 59.7548 -2.77715 -2.23054 0
M  V30 640 O 58.6138 -4.09897 -3.61451 0
M  V30 641 H 55.7078 -0.596197 -0.57313 0
M  V30 642 H 58.2538 -1.61524 -0.52039 0
M  V30 643 H 57.0258 -3.60916 -1.5118 0
M  V30 644 H 56.6488 -2.66956 -2.94653 0
M  V30 645 N 57.6459 0.756429 -1.3826 0
M  V30 646 C 58.9229 1.50584 -1.24835 0
M  V30 647 C 59.3029 2.10556 0.151485 0
M  V30 648 O 58.6509 1.96825 1.1607 0
M  V30 649 C 58.8609 2.57448 -2.3563 0
M  V30 650 C 60.2089 3.24429 -2.73917 0
M  V30 651 O 61.2329 2.67751 -2.34921 0
M  V30 652 O 60.0919 4.26937 -3.41156 0
M  V30 653 H 57.1859 0.667664 -0.48801 0
M  V30 654 H 59.7319 0.792083 -1.5008 0
M  V30 655 H 58.5039 2.11362 -3.29305 0
M  V30 656 H 58.1269 3.36408 -2.11933 0
M  V30 657 N 59.124 1.23083 0.984299 0
M  V30 658 C 60.373 1.05466 1.71929 0
M  V30 659 C 60.686 -0.409211 1.91272 0
M  V30 660 O 61.892 -0.705226 2.62181 0
M  V30 661 C 60.348 1.83874 3.09384 0
M  V30 662 C 59.956 3.34566 2.97943 0
M  V30 663 C 61.7 1.74734 3.8687 0
M  V30 664 C 59.607 4.05381 4.30605 0
M  V30 665 H 58.537 0.391039 0.644674 0
M  V30 666 H 61.188 1.47013 1.09815 0
M  V30 667 H 59.57 1.35131 3.72231 0
M  V30 668 H 60.744 3.90767 2.44209 0
M  V30 669 H 59.059 3.44476 2.33934 0
M  V30 670 H 61.656 2.24957 4.85076 0
M  V30 671 H 61.999 0.709372 4.10212 0
M  V30 672 H 62.532 2.21067 3.30717 0
M  V30 673 H 59.271 5.09467 4.1246 0
M  V30 674 H 58.791 3.53967 4.84218 0
M  V30 675 H 60.47 4.11458 4.99311 0
M  V30 676 N 60.6021 -1.18246 1.0419 0
M  V30 677 C 61.8481 -1.88536 0.747122 0
M  V30 678 C 62.1811 -1.80223 -0.723409 0
M  V30 679 O 61.4561 -1.20337 -1.52804 0
M  V30 680 C 61.7391 -3.38968 1.21544 0
M  V30 681 C 61.5921 -3.56084 2.74816 0
M  V30 682 C 62.9111 -4.32648 0.806482 0
M  V30 683 H 60.0301 -0.684619 0.272883 0
M  V30 684 H 62.6721 -1.39113 1.29413 0
M  V30 685 H 60.8221 -3.8119 0.750081 0
M  V30 686 H 62.4941 -3.22946 3.29399 0
M  V30 687 H 60.7371 -2.98699 3.14582 0
M  V30 688 H 61.4081 -4.61639 3.02644 0
M  V30 689 H 63.8841 -3.98211 1.20695 0
M  V30 690 H 62.7601 -5.36462 1.1619 0
M  V30 691 H 63.0211 -4.41146 -0.29029 0
M  V30 692 N 62.0802 -0.821533 -1.34494 0
M  V30 693 C 63.3292 -0.405355 -1.97585 0
M  V30 694 C 63.6422 1.03677 -1.65863 0
M  V30 695 O 64.8482 1.55679 -2.22433 0
M  V30 696 C 63.3042 -0.673861 -3.53535 0
M  V30 697 C 62.9122 -2.12951 -3.94152 0
M  V30 698 C 64.6562 -0.32378 -4.23263 0
M  V30 699 C 62.5632 -2.34298 -5.43009 0
M  V30 700 H 61.4932 -0.147836 -0.739365 0
M  V30 701 H 64.1442 -1.00769 -1.53355 0
M  V30 702 H 62.5262 -0.00137554 -3.96 0
M  V30 703 H 63.7002 -2.84104 -3.62797 0
M  V30 704 H 62.0152 -2.44089 -3.37356 0
M  V30 705 H 64.6122 -0.461126 -5.32708 0
M  V30 706 H 64.9552 0.731586 -4.09821 0
M  V30 707 H 65.4882 -0.950786 -3.8627 0
M  V30 708 H 62.2272 -3.38335 -5.61435 0
M  V30 709 H 61.7472 -1.67687 -5.75883 0
M  V30 710 H 63.4262 -2.16588 -6.09671 0
M  V30 711 N 63.5583 1.46682 -0.576371 0
M  V30 712 C 64.5213 2.28707 0.150239 0
M  V30 713 C 65.5213 1.38035 0.824794 0
M  V30 714 O 66.7113 1.60476 0.677719 0
M  V30 715 C 63.8433 3.18248 1.22192 0
M  V30 716 H 65.0363 2.94423 -0.570521 0
M  V30 717 H 62.5893 1.52688 -0.334078 0
M  V30 718 H 63.3243 2.57265 1.97447 0
M  V30 719 H 63.1093 3.85 0.742812 0
M  V30 720 H 64.5993 3.80001 1.73172 0
M  V30 721 N 65.0364 0.313813 1.54444 0
M  V30 722 C 66.2644 -0.293918 2.04802 0
M  V30 723 C 66.6794 -1.46537 1.19047 0
M  V30 724 O 66.0364 -1.81182 0.218939 0
M  V30 725 C 66.0874 -0.737806 3.53891 0
M  V30 726 O 65.8084 0.387038 4.36387 0
M  V30 727 C 67.3094 -1.40936 4.203 0
M  V30 728 H 64.5294 -0.0620057 0.668129 0
M  V30 729 H 67.0734 0.457169 1.99324 0
M  V30 730 H 65.2284 -1.43889 3.59687 0
M  V30 731 H 65.6424 0.0391274 5.24485 0
M  V30 732 H 67.1164 -1.67099 5.26101 0
M  V30 733 H 67.5934 -2.35355 3.70816 0
M  V30 734 H 68.1994 -0.751117 4.18615 0
M  V30 735 N 66.5145 -1.57545 0.0417849 0
M  V30 736 C 67.7445 -1.96339 -0.642995 0
M  V30 737 C 68.1525 -0.917536 -1.65463 0
M  V30 738 O 67.4955 0.107747 -1.83384 0
M  V30 739 C 67.5575 -3.31333 -1.39494 0
M  V30 740 C 67.2215 -4.53796 -0.540204 0
M  V30 741 C 68.2185 -5.19553 0.189806 0
M  V30 742 C 65.9035 -5.0006 -0.473886 0
M  V30 743 C 67.8975 -6.29904 0.974674 0
M  V30 744 C 65.5845 -6.10289 0.314677 0
M  V30 745 C 66.5825 -6.75072 1.03765 0
M  V30 746 O 66.2705 -7.83183 1.81327 0
M  V30 747 H 66.0025 -0.651241 -0.181277 0
M  V30 748 H 68.5565 -2.05148 0.101665 0
M  V30 749 H 66.7865 -3.19052 -2.18502 0
M  V30 750 H 68.4755 -3.54942 -1.96904 0
M  V30 751 H 69.2415 -4.84774 0.147981 0
M  V30 752 H 65.1205 -4.49433 -1.0262 0
M  V30 753 H 68.6645 -6.80401 1.5395 0
M  V30 754 H 64.5615 -6.44506 0.358174 0
M  V30 755 H 65.3295 -7.99913 1.73438 0
M  V30 756 N 67.9926 0.231505 -1.5589 0
M  V30 757 C 69.4036 0.799327 -1.68724 0
M  V30 758 C 69.7546 1.85398 -0.642022 0
M  V30 759 O 68.8796 2.1539 0.208784 0
M  V30 760 C 69.4746 1.45664 -3.05888 0
M  V30 761 C 68.0336 1.97197 -3.20609 0
M  V30 762 C 67.1806 0.828552 -2.64632 0
M  V30 763 H 70.1316 0.00702616 -1.58698 0
M  V30 764 H 70.1526 2.32517 -3.01191 0
M  V30 765 H 69.6646 0.688808 -3.81939 0
M  V30 766 H 67.7656 2.76813 -2.4941 0
M  V30 767 H 67.8786 2.15878 -4.27707 0
M  V30 768 H 66.2426 1.23321 -2.22854 0
M  V30 769 H 67.0256 0.0735544 -3.43221 0
M  V30 770 N 69.4707 1.49531 0.497807 0
M  V30 771 C 70.4177 1.66436 1.59899 0
M  V30 772 C 71.3877 0.505793 1.58212 0
M  V30 773 O 72.5727 0.733202 1.7615 0
M  V30 774 C 69.7127 1.7399 2.98029 0
M  V30 775 C 68.8257 3.01172 3.09708 0
M  V30 776 C 67.9607 2.99686 4.38591 0
M  V30 777 C 66.9997 4.21434 4.43914 0
M  V30 778 N 66.1367 4.1784 5.64229 0
M  V30 779 H 70.9767 2.60459 1.44793 0
M  V30 780 H 68.5137 1.29137 0.704423 0
M  V30 781 H 70.4717 1.76352 3.78095 0
M  V30 782 H 69.1017 0.834301 3.11832 0
M  V30 783 H 68.1537 3.08408 2.22685 0
M  V30 784 H 69.4657 3.91165 3.09502 0
M  V30 785 H 68.6197 3.00628 5.2698 0
M  V30 786 H 67.3587 2.07477 4.41367 0
M  V30 787 H 66.3637 4.20733 3.53926 0
M  V30 788 H 67.5887 5.14839 4.42851 0
M  V30 789 H 65.5347 3.28469 5.67841 0
M  V30 790 H 65.4517 5.01571 5.65652 0
M  V30 791 H 66.7197 4.22889 6.54817 0
M  V30 792 N 70.9488 -0.749086 1.3866 0
M  V30 793 C 72.1738 -1.54344 1.38538 0
M  V30 794 C 72.5988 -1.88088 -0.0216655 0
M  V30 795 O 71.9568 -1.50899 -1.00494 0
M  V30 796 C 72.0048 -2.8164 2.25192 0
M  V30 797 O 71.1088 -3.7698 1.67212 0
M  V30 798 H 70.4498 -0.466654 0.472367 0
M  V30 799 H 72.9798 -0.925355 1.82478 0
M  V30 800 H 72.9898 -3.30519 2.3921 0
M  V30 801 H 71.6648 -2.56411 3.27454 0
M  V30 802 H 70.2418 -3.35699 1.6236 0
M  V30 803 N 72.4269 -1.23603 -0.977757 0
M  V30 804 C 73.6749 -1.06759 -1.71601 0
M  V30 805 C 73.9959 0.395929 -1.90938 0
M  V30 806 O 73.2659 1.28356 -1.47992 0
M  V30 807 H 71.8459 -0.392062 -0.635843 0
M  V30 808 H 74.5079 -1.55362 -1.1768 0
M  V30 809 H 73.6039 -1.55763 -2.70452 0
M  V30 810 N 73.905 1.17692 -1.04816 0
M  V30 811 C 75.133 1.91786 -0.776254 0
M  V30 812 C 75.548 1.76604 0.667577 0
M  V30 813 O 74.905 1.10067 1.45573 0
M  V30 814 C 74.956 3.42967 -1.14263 0
M  V30 815 O 74.677 3.57678 -2.52978 0
M  V30 816 C 76.178 4.34144 -0.896311 0
M  V30 817 H 73.398 0.608624 -0.282519 0
M  V30 818 H 75.942 1.49268 -1.39783 0
M  V30 819 H 74.097 3.83245 -0.565874 0
M  V30 820 H 74.511 4.51319 -2.67229 0
M  V30 821 H 75.985 5.38744 -1.20244 0
M  V30 822 H 76.462 4.38876 0.168636 0
M  V30 823 H 77.068 3.99574 -1.45672 0
M  V30 824 N 75.3831 0.828654 1.34056 0
M  V30 825 C 76.6111 0.43262 2.02326 0
M  V30 826 C 77.0261 -0.963147 1.62385 0
M  V30 827 O 76.3831 -1.62425 0.832121 0
M  V30 828 C 76.4341 0.53182 3.57567 0
M  V30 829 O 76.1551 1.87258 3.96063 0
M  V30 830 C 77.6561 0.131422 4.43105 0
M  V30 831 H 74.8761 0.172923 0.648335 0
M  V30 832 H 77.4201 1.1184 1.71208 0
M  V30 833 H 75.5751 -0.105938 3.87255 0
M  V30 834 H 75.9891 1.85087 4.90758 0
M  V30 835 H 77.4631 0.251904 5.51425 0
M  V30 836 H 77.9401 -0.925645 4.29335 0
M  V30 837 H 78.5461 0.743207 4.18756 0
M  V30 838 N 76.8612 -1.46375 0.584142 0
M  V30 839 C 78.1072 -2.03248 0.0787103 0
M  V30 840 C 78.4622 -1.44737 -1.26763 0
M  V30 841 O 77.7552 -0.603625 -1.81843 0
M  V30 842 C 77.9492 -3.57373 -0.0439342 0
M  V30 843 C 77.7782 -4.30831 1.28897 0
M  V30 844 C 76.5482 -4.69683 1.8635 0
M  V30 845 C 78.7462 -4.64278 2.21248 0
M  V30 846 N 76.7282 -5.27898 3.13365 0
M  V30 847 C 78.0992 -5.23078 3.32851 0
M  V30 848 C 80.1542 -4.46209 2.20911 0
M  V30 849 C 78.8572 -5.65715 4.44251 0
M  V30 850 C 80.8832 -4.89864 3.31341 0
M  V30 851 C 80.2452 -5.48736 4.41665 0
M  V30 852 H 76.3442 -0.778714 0.0716144 0
M  V30 853 H 78.9282 -1.78509 0.777355 0
M  V30 854 H 77.0992 -3.81823 -0.711749 0
M  V30 855 H 78.8312 -4.00892 -0.553881 0
M  V30 856 H 75.5862 -4.52488 1.39826 0
M  V30 857 H 76.0102 -5.61525 3.78178 0
M  V30 858 H 80.6522 -4.00027 1.36888 0
M  V30 859 H 78.3702 -6.10875 5.29015 0
M  V30 860 H 81.9562 -4.77634 3.322 0
M  V30 861 H 80.8362 -5.81898 5.25704 0
M  V30 862 N 78.3393 -0.321999 -1.54275 0
M  V30 863 C 79.5853 0.281461 -2.00837 0
M  V30 864 C 79.9183 1.51909 -1.20985 0
M  V30 865 O 79.1933 1.923 -0.291733 0
M  V30 866 C 79.4763 0.617162 -3.54772 0
M  V30 867 C 79.3293 -0.631064 -4.45351 0
M  V30 868 C 80.6483 1.43542 -4.16033 0
M  V30 869 H 77.7673 0.100826 -0.730071 0
M  V30 870 H 80.4093 -0.438268 -1.84876 0
M  V30 871 H 78.5593 1.23034 -3.68504 0
M  V30 872 H 80.2313 -1.26934 -4.43492 0
M  V30 873 H 78.4743 -1.26025 -4.15091 0
M  V30 874 H 79.1453 -0.351735 -5.50878 0
M  V30 875 H 81.6213 0.917134 -4.05867 0
M  V30 876 H 80.4973 1.63907 -5.23856 0
M  V30 877 H 80.7583 2.43108 -3.69257 0
M  V30 878 N 79.8174 1.5752 -0.0501392 0
M  V30 879 C 81.0424 1.97376 0.636997 0
M  V30 880 C 81.4674 0.927466 1.63645 0
M  V30 881 O 80.8254 -0.10941 1.8097 0
M  V30 882 C 80.8734 3.36304 1.30123 0
M  V30 883 O 79.9774 3.34156 2.41689 0
M  V30 884 H 79.3184 0.642998 0.165679 0
M  V30 885 H 81.8484 2.04258 -0.118233 0
M  V30 886 H 81.8584 3.73008 1.65315 0
M  V30 887 H 80.5334 4.11993 0.568746 0
M  V30 888 H 79.1104 3.09196 2.08451 0
M  V30 889 N 81.2955 -0.223234 1.56011 0
M  V30 890 C 82.2055 -1.29766 1.95443 0
M  V30 891 C 83.2215 -1.51373 0.858028 0
M  V30 892 O 84.3975 -1.64536 1.16146 0
M  V30 893 C 81.4625 -2.62772 2.26167 0
M  V30 894 C 80.5235 -2.49482 3.49367 0
M  V30 895 C 79.7565 -3.76145 3.78616 0
M  V30 896 O 79.9795 -4.79087 3.09568 0
M  V30 897 O 78.9135 -3.73358 4.72109 0
M  V30 898 H 82.7395 -0.99309 2.87004 0
M  V30 899 H 80.3245 -0.425958 1.43199 0
M  V30 900 H 82.2065 -3.41327 2.47131 0
M  V30 901 H 80.8815 -2.92913 1.37781 0
M  V30 902 H 79.7885 -1.69133 3.33684 0
M  V30 903 H 81.1215 -2.2428 4.38131 0
M  V30 904 N 82.7736 -1.49793 -0.48987 0
M  V30 905 C 84.0226 -1.59085 -1.23995 0
M  V30 906 C 84.3356 -0.287907 -1.9347 0
M  V30 907 O 85.5416 -0.259506 -2.70257 0
M  V30 908 C 83.9976 -2.80736 -2.252 0
M  V30 909 C 83.6056 -4.17833 -1.61614 0
M  V30 910 C 85.3496 -2.99364 -3.00967 0
M  V30 911 C 83.2566 -5.30693 -2.60996 0
M  V30 912 H 82.1866 -0.592372 -0.466488 0
M  V30 913 H 84.8376 -1.76197 -0.51252 0
M  V30 914 H 83.2196 -2.57142 -3.01154 0
M  V30 915 H 84.3936 -4.51608 -0.915774 0
M  V30 916 H 82.7086 -4.04656 -0.981977 0
M  V30 917 H 85.3056 -3.80851 -3.75308 0
M  V30 918 H 85.6486 -2.10356 -3.59244 0
M  V30 919 H 86.1816 -3.2305 -2.32128 0
M  V30 920 H 82.9206 -6.21796 -2.07485 0
M  V30 921 H 82.4406 -5.01359 -3.2924 0
M  V30 922 H 84.1196 -5.6049 -3.23202 0
M  V30 923 N 84.2517 0.741722 -1.39055 0
M  V30 924 C 85.5007 1.49656 -1.35225 0
M  V30 925 C 85.8137 1.95533 0.0512708 0
M  V30 926 O 87.0197 2.7067 0.212138 0
M  V30 927 C 85.4757 2.70389 -2.37525 0
M  V30 928 C 85.0837 2.31489 -3.83558 0
M  V30 929 C 86.8277 3.48236 -2.42759 0
M  V30 930 C 84.7347 3.48903 -4.77515 0
M  V30 931 H 83.6647 0.56197 -0.502699 0
M  V30 932 H 86.3157 0.809727 -1.64668 0
M  V30 933 H 84.6977 3.41113 -2.01142 0
M  V30 934 H 85.8717 1.68354 -4.28945 0
M  V30 935 H 84.1867 1.66749 -3.81554 0
M  V30 936 H 86.7837 4.35558 -3.1015 0
M  V30 937 H 87.1267 3.90229 -1.45008 0
M  V30 938 H 87.6597 2.84535 -2.78002 0
M  V30 939 H 84.3987 3.11966 -5.76504 0
M  V30 940 H 83.9187 4.11041 -4.36813 0
M  V30 941 H 85.5977 4.15328 -4.96096 0
M  V30 942 N 85.7298 1.2412 0.971189 0
M  V30 943 C 87.0068 0.986867 1.6888 0
M  V30 944 C 87.3868 -0.491857 2.0529 0
M  V30 945 O 86.7348 -1.46531 1.75331 0
M  V30 946 C 86.9448 1.9063 2.92338 0
M  V30 947 C 88.2928 2.17515 3.64654 0
M  V30 948 O 89.3168 1.88254 3.02388 0
M  V30 949 O 88.1758 2.6719 4.7673 0
M  V30 950 H 85.2698 0.372944 0.738134 0
M  V30 951 H 87.8158 1.35203 1.02559 0
M  V30 952 H 86.5878 2.90552 2.62097 0
M  V30 953 H 86.2108 1.54408 3.66393 0
M  V30 954 N 87.2079 -1.17134 1.05439 0
M  V30 955 C 88.1409 -2.2012 0.601855 0
M  V30 956 C 89.1189 -1.58314 -0.370854 0
M  V30 957 O 90.3029 -1.8638 -0.281882 0
M  V30 958 C 87.4299 -3.38491 -0.118868 0
M  V30 959 C 86.4759 -4.18752 0.809242 0
M  V30 960 S 87.3089 -4.83602 2.29977 0
M  V30 961 C 88.4649 -6.0536 1.59029 0
M  V30 962 H 88.6979 -2.58165 1.47438 0
M  V30 963 H 86.2309 -1.27788 0.866573 0
M  V30 964 H 88.1889 -4.07084 -0.528495 0
M  V30 965 H 86.8499 -2.98829 -0.967465 0
M  V30 966 H 86.0429 -5.03373 0.251379 0
M  V30 967 H 85.6449 -3.5561 1.15835 0
M  V30 968 H 87.9369 -6.71615 0.891017 0
M  V30 969 H 88.8799 -6.65679 2.41407 0
M  V30 970 H 89.2879 -5.54138 1.07663 0
M  V30 971 N 88.686 -0.835752 -1.33615 0
M  V30 972 C 89.935 -0.426289 -1.97144 0
M  V30 973 C 90.248 1.01912 -1.66953 0
M  V30 974 O 91.454 1.53311 -2.24072 0
M  V30 975 C 89.91 -0.711321 -3.52801 0
M  V30 976 C 89.518 -2.1712 -3.91871 0
M  V30 977 C 91.262 -0.368654 -4.22896 0
M  V30 978 C 89.169 -2.40044 -5.40493 0
M  V30 979 H 88.099 -0.15567 -0.737755 0
M  V30 980 H 90.75 -1.0239 -1.52278 0
M  V30 981 H 89.132 -0.0433766 -3.95976 0
M  V30 982 H 90.306 -2.87936 -3.59763 0
M  V30 983 H 88.621 -2.47654 -3.34749 0
M  V30 984 H 91.218 -0.517601 -5.32189 0
M  V30 985 H 91.561 0.688078 -4.10574 0
M  V30 986 H 92.094 -0.991702 -3.8524 0
M  V30 987 H 88.833 -3.44271 -5.57815 0
M  V30 988 H 88.353 -1.73785 -5.74072 0
M  V30 989 H 90.032 -2.23042 -6.0734 0
M  V30 990 N 90.1641 1.46063 -0.591896 0
M  V30 991 C 91.0941 2.33172 0.123673 0
M  V30 992 C 92.0751 1.45897 0.87453 0
M  V30 993 O 93.2601 1.74698 0.848181 0
M  V30 994 C 90.3901 3.28336 1.13194 0
M  V30 995 C 89.3441 4.25124 0.495324 0
M  V30 996 C 88.6701 5.09863 1.61071 0
M  V30 997 C 89.9701 5.19143 -0.573425 0
M  V30 998 H 91.6641 2.93252 -0.603646 0
M  V30 999 H 89.2101 1.41014 -0.291741 0
M  V30 1000 H 91.1631 3.88137 1.64097 0
M  V30 1001 H 89.8871 2.66383 1.88965 0
M  V30 1002 H 88.5461 3.66599 0.00729452 0
M  V30 1003 H 88.1941 4.44288 2.35832 0
M  V30 1004 H 87.8941 5.75417 1.19035 0
M  V30 1005 H 89.4181 5.72529 2.12233 0
M  V30 1006 H 90.8321 5.73106 -0.1491 0
M  V30 1007 H 89.2291 5.93089 -0.914636 0
M  V30 1008 H 90.2991 4.62519 -1.45617 0
M  V30 1009 N 91.6422 0.330177 1.54103 0
M  V30 1010 C 92.5902 -0.548226 2.26047 0
M  V30 1011 C 93.5842 -1.11309 1.27698 0
M  V30 1012 O 94.7902 -1.06036 1.45452 0
M  V30 1013 H 91.1652 -0.195456 0.726155 0
M  V30 1014 H 93.1362 0.0807567 2.98291 0
M  V30 1015 C 91.8852 -1.69415 3.03634 0
M  V30 1016 H 91.2082 -1.26876 3.79134 0
M  V30 1017 H 92.6482 -2.28423 3.5721 0
M  V30 1018 C 91.1072 -2.61569 2.12328 0
M  V30 1019 O 91.6372 -3.63462 1.7105 0
M  V30 1020 N 89.8432 -2.29952 1.77681 0
M  V30 1021 H 89.3902 -1.47134 2.11446 0
M  V30 1022 H 89.3482 -2.91871 1.16869 0
M  V30 1023 N 93.1203 -1.57491 0.0584922 0
M  V30 1024 C 94.3973 -1.84346 -0.653918 0
M  V30 1025 C 94.7773 -0.948355 -1.88599 0
M  V30 1026 O 94.1253 -0.0112403 -2.28497 0
M  V30 1027 C 94.3353 -3.34239 -1.00425 0
M  V30 1028 C 95.6833 -4.01431 -1.38342 0
M  V30 1029 O 96.7073 -3.38907 -1.09637 0
M  V30 1030 O 95.5663 -5.11683 -1.91943 0
M  V30 1031 H 92.6603 -0.761112 -0.323478 0
M  V30 1032 H 95.2063 -1.6947 0.0884125 0
M  V30 1033 H 93.9783 -3.91089 -0.128625 0
M  V30 1034 H 93.6013 -3.54329 -1.80378 0
M  V30 1035 N 94.5984 0.214957 -1.56127 0
M  V30 1036 C 95.8464 0.936518 -1.79091 0
M  V30 1037 C 96.1674 1.84606 -0.628148 0
M  V30 1038 O 95.4374 1.92664 0.35462 0
M  V30 1039 H 94.0174 0.3488 -0.660566 0
M  V30 1040 H 96.6794 0.22523 -1.93594 0
M  V30 1041 H 95.7754 1.53943 -2.71492 0
M  V30 1042 N 96.0765 1.50051 0.48192 0
M  V30 1043 C 97.3535 1.51009 1.2432 0
M  V30 1044 C 97.7335 0.248587 2.09631 0
M  V30 1045 O 97.0815 -0.768409 2.15192 0
M  V30 1046 C 97.2915 2.79981 2.08355 0
M  V30 1047 C 98.6395 3.3022 2.66908 0
M  V30 1048 O 99.6635 2.81228 2.18607 0
M  V30 1049 O 98.5225 4.15595 3.54884 0
M  V30 1050 H 95.6165 0.605239 0.563573 0
M  V30 1051 H 98.1625 1.62332 0.494627 0
M  V30 1052 H 96.9345 3.63275 1.45419 0
M  V30 1053 H 96.5575 2.7161 2.90368 0
M  V30 1054 N 97.5546 -0.734337 1.39446 0
M  V30 1055 C 98.8036 -1.48937 1.36017 0
M  V30 1056 C 99.1166 -1.95557 -0.0409005 0
M  V30 1057 O 100.323 -2.70779 -0.19778 0
M  V30 1058 C 98.7786 -2.69125 2.38955 0
M  V30 1059 C 98.3866 -2.29452 3.8478 0
M  V30 1060 C 100.131 -3.46944 2.44603 0
M  V30 1061 C 98.0376 -3.46366 4.79358 0
M  V30 1062 H 96.9676 -0.559296 0.505672 0
M  V30 1063 H 99.6186 -0.800983 1.65095 0
M  V30 1064 H 98.0006 -3.40041 2.02948 0
M  V30 1065 H 99.1746 -1.66077 4.29831 0
M  V30 1066 H 97.4896 -1.64723 3.82433 0
M  V30 1067 H 100.087 -4.33907 3.12456 0
M  V30 1068 H 100.43 -3.89454 1.47076 0
M  V30 1069 H 100.963 -2.83056 2.79507 0
M  V30 1070 H 97.7016 -3.08905 5.78151 0
M  V30 1071 H 97.2216 -4.08719 4.38986 0
M  V30 1072 H 98.9006 -4.12691 4.98292 0
M  V30 1073 N 99.0327 -1.24633 -0.964593 0
M  V30 1074 C 99.9427 -1.05859 -2.09359 0
M  V30 1075 C 100.959 0.00148855 -1.74 0
M  V30 1076 O 102.135 -0.197346 -2.00431 0
M  V30 1077 C 99.1997 -0.668879 -3.40187 0
M  V30 1078 C 98.2607 -1.80578 -3.89474 0
M  V30 1079 C 97.4937 -1.43457 -5.14058 0
M  V30 1080 O 97.7167 -0.325775 -5.69469 0
M  V30 1081 O 96.6507 -2.2613 -5.57807 0
M  V30 1082 H 100.477 -2.00516 -2.28094 0
M  V30 1083 H 98.0617 -1.03481 -1.0776 0
M  V30 1084 H 99.9437 -0.463211 -4.18846 0
M  V30 1085 H 98.6187 0.248536 -3.22744 0
M  V30 1086 H 97.5257 -2.06623 -3.11862 0
M  V30 1087 H 98.8587 -2.70208 -4.11398 0
M  V30 1088 N 100.511 1.16574 -1.06058 0
M  V30 1089 C 101.458 2.20883 -0.669263 0
M  V30 1090 C 102.428 1.62729 0.332918 0
M  V30 1091 O 103.613 1.895 0.222346 0
M  V30 1092 C 100.753 3.45049 -0.0593572 0
M  V30 1093 C 99.8658 4.17458 -1.11143 0
M  V30 1094 C 99.0008 5.29135 -0.467916 0
M  V30 1095 C 98.0398 5.93343 -1.50369 0
M  V30 1096 N 97.1768 6.96516 -0.883706 0
M  V30 1097 H 102.017 2.53709 -1.5632 0
M  V30 1098 H 99.5538 1.24616 -0.781625 0
M  V30 1099 H 101.512 4.16033 0.311771 0
M  V30 1100 H 100.142 3.12781 0.797992 0
M  V30 1101 H 99.1938 3.45101 -1.60029 0
M  V30 1102 H 100.506 4.61307 -1.89731 0
M  V30 1103 H 99.6598 6.06684 -0.0436871 0
M  V30 1104 H 98.3988 4.86443 0.349864 0
M  V30 1105 H 97.4038 5.14517 -1.93784 0
M  V30 1106 H 98.6288 6.38114 -2.32352 0
M  V30 1107 H 96.5748 6.55943 -0.086595 0
M  V30 1108 H 96.4918 7.38723 -1.607 0
M  V30 1109 H 97.7598 7.77993 -0.484543 0
M  V30 1110 N 101.989 0.842826 1.3317 0
M  V30 1111 C 103.229 0.446574 1.99462 0
M  V30 1112 C 103.593 -0.976818 1.65295 0
M  V30 1113 O 104.794 -1.477 2.24584 0
M  V30 1114 C 103.065 0.665353 3.51152 0
M  V30 1115 S 104.624 0.364911 4.3728 0
M  V30 1116 H 101.442 0.167803 0.690915 0
M  V30 1117 H 104.044 1.09297 1.62094 0
M  V30 1118 H 102.748 1.7006 3.73507 0
M  V30 1119 H 102.279 0.00494568 3.934 0
M  V30 1120 H 104.294 -0.813761 4.89482 0
M  V30 1121 N 103.467 -1.45747 0.599634 0
M  V30 1122 C 104.414 -2.30467 -0.123849 0
M  V30 1123 C 105.384 -1.41632 -0.86774 0
M  V30 1124 O 106.569 -1.70568 -0.855056 0
M  V30 1125 C 103.709 -3.26402 -1.12051 0
M  V30 1126 C 102.822 -4.3034 -0.37832 0
M  V30 1127 C 101.957 -5.13389 -1.364 0
M  V30 1128 C 100.996 -6.09061 -0.609171 0
M  V30 1129 N 100.133 -6.84918 -1.54374 0
M  V30 1130 H 104.973 -2.91802 0.604627 0
M  V30 1131 H 102.51 -1.43797 0.309972 0
M  V30 1132 H 104.468 -3.80482 -1.7114 0
M  V30 1133 H 103.098 -2.66839 -1.8165 0
M  V30 1134 H 102.15 -3.78984 0.327929 0
M  V30 1135 H 103.462 -4.98354 0.210997 0
M  V30 1136 H 102.616 -5.7183 -2.02719 0
M  V30 1137 H 101.355 -4.45376 -1.98725 0
M  V30 1138 H 100.36 -5.49758 0.0676979 0
M  V30 1139 H 101.585 -6.79099 0.00891991 0
M  V30 1140 H 99.531 -6.19601 -2.15478 0
M  V30 1141 H 99.448 -7.49254 -1.00766 0
M  V30 1142 H 100.716 -7.47906 -2.19676 0
M  V30 1143 N 104.945 -0.338344 -1.53925 0
M  V30 1144 C 106.361 0.0137736 -1.59594 0
M  V30 1145 C 106.561 1.49186 -1.35447 0
M  V30 1146 O 105.617 2.24987 -1.14616 0
M  V30 1147 C 106.93 -0.41773 -2.97784 0
M  V30 1148 C 108.478 -0.369633 -3.1081 0
M  V30 1149 C 108.953 -0.776524 -4.51369 0
M  V30 1150 N 110.444 -0.730506 -4.57403 0
M  V30 1151 C 111.179 -1.01736 -5.64303 0
M  V30 1152 N 110.675 -1.3721 -6.79077 0
M  V30 1153 N 112.468 -0.941942 -5.54151 0
M  V30 1154 H 104.619 -1.3012 -1.67876 0
M  V30 1155 H 106.882 -0.530082 -0.78595 0
M  V30 1156 H 106.588 -1.44811 -3.20504 0
M  V30 1157 H 106.462 0.209729 -3.76616 0
M  V30 1158 H 108.849 0.651568 -2.87817 0
M  V30 1159 H 108.93 -1.03223 -2.34049 0
M  V30 1160 H 108.574 -1.79571 -4.75096 0
M  V30 1161 H 108.504 -0.0914649 -5.26521 0
M  V30 1162 H 110.995 -0.468783 -3.74981 0
M  V30 1163 H 111.308 -1.57597 -7.5656 0
M  V30 1164 H 109.653 -1.4105 -6.80536 0
M  V30 1165 H 112.844 -0.664184 -4.63364 0
M  V30 1166 H 113.017 -1.16884 -6.37371 0
M  V30 1167 N 106.423 1.57458 -0.0668435 0
M  V30 1168 C 107.671 1.92919 0.602214 0
M  V30 1169 C 107.992 0.947215 1.70449 0
M  V30 1170 O 107.262 -0.00544117 1.95899 0
M  V30 1171 H 105.842 0.71217 0.22544 0
M  V30 1172 H 108.504 1.94508 -0.123535 0
M  V30 1173 H 107.6 2.94589 1.03073 0
M  V30 1174 N 107.901 -0.206675 1.56239 0
M  V30 1175 C 109.148 -0.928842 1.79941 0
M  V30 1176 C 109.476 -1.83734 0.638131 0
M  V30 1177 O 108.731 -1.92039 -0.376746 0
M  V30 1178 C 109.03 -1.78675 3.09532 0
M  V30 1179 C 108.696 -1.03022 4.38973 0
M  V30 1180 C 107.358 -0.821302 4.74139 0
M  V30 1181 C 109.71 -0.497081 5.18824 0
M  V30 1182 C 107.038 -0.0675719 5.86661 0
M  V30 1183 C 109.39 0.24338 6.32132 0
M  V30 1184 C 108.054 0.463422 6.65889 0
M  V30 1185 H 107.324 -0.339887 0.658451 0
M  V30 1186 H 109.971 -0.195977 1.90495 0
M  V30 1187 H 108.276 -2.58794 2.94165 0
M  V30 1188 H 109.973 -2.34792 3.25075 0
M  V30 1189 H 106.563 -1.20306 4.11369 0
M  V30 1190 H 110.747 -0.645921 4.92079 0
M  V30 1191 H 106.003 0.112995 6.11296 0
M  V30 1192 H 110.177 0.66393 6.93228 0
M  V30 1193 H 107.804 1.04938 7.52922 0
M  V30 1194 N 109.379 -1.50304 -0.473955 0
M  V30 1195 C 110.628 -1.60392 -1.22301 0
M  V30 1196 C 110.941 -0.308411 -1.93153 0
M  V30 1197 O 112.147 -0.288156 -2.69966 0
M  V30 1198 C 110.603 -2.83109 -2.2221 0
M  V30 1199 C 110.211 -4.19524 -1.57173 0
M  V30 1200 C 111.955 -3.0254 -2.97775 0
M  V30 1201 C 109.862 -5.33431 -2.55353 0
M  V30 1202 H 108.792 -0.597286 -0.460179 0
M  V30 1203 H 111.443 -1.76731 -0.493803 0
M  V30 1204 H 109.825 -2.60322 -2.9841 0
M  V30 1205 H 110.999 -4.52554 -0.867824 0
M  V30 1206 H 109.314 -4.05674 -0.939002 0
M  V30 1207 H 111.911 -3.84811 -3.71248 0
M  V30 1208 H 112.254 -2.14154 -3.56992 0
M  V30 1209 H 112.787 -3.25494 -2.28688 0
M  V30 1210 H 109.526 -6.23962 -2.00878 0
M  V30 1211 H 109.046 -5.04823 -3.23904 0
M  V30 1212 H 110.725 -5.63887 -3.17239 0
M  V30 1213 N 110.857 0.726932 -1.39834 0
M  V30 1214 C 112.085 1.51613 -1.40787 0
M  V30 1215 C 112.5 1.88799 -0.00451505 0
M  V30 1216 O 111.857 1.54662 0.968809 0
M  V30 1217 C 111.908 2.79863 -2.28821 0
M  V30 1218 O 111.629 2.44253 -3.63692 0
M  V30 1219 C 113.13 3.73837 -2.38245 0
M  V30 1220 H 110.35 0.468264 -0.480593 0
M  V30 1221 H 112.894 0.897607 -1.83748 0
M  V30 1222 H 111.049 3.38027 -1.89252 0
M  V30 1223 H 111.463 3.26695 -4.1033 0
M  V30 1224 H 112.937 4.60699 -3.04073 0
M  V30 1225 H 113.414 4.16153 -1.40403 0
M  V30 1226 H 114.02 3.21589 -2.78317 0
M  V30 1227 N 112.336 1.25143 0.95797 0
M  V30 1228 C 113.246 1.06968 2.08794 0
M  V30 1229 C 114.262 0.00773911 1.73998 0
M  V30 1230 O 115.438 0.207972 2.00323 0
M  V30 1231 C 112.503 0.68691 3.39827 0
M  V30 1232 C 111.564 1.82641 3.88511 0
M  V30 1233 C 110.797 1.46181 5.1329 0
M  V30 1234 O 111.02 0.355971 5.69288 0
M  V30 1235 O 109.954 2.29085 5.566 0
M  V30 1236 H 113.78 2.01723 2.27027 0
M  V30 1237 H 111.365 1.04051 1.07209 0
M  V30 1238 H 113.247 0.485417 4.18595 0
M  V30 1239 H 111.922 -0.231417 3.22872 0
M  V30 1240 H 110.829 2.08274 3.10762 0
M  V30 1241 H 112.162 2.72386 4.09959 0
M  V30 1242 N 113.814 -1.1601 1.06675 0
M  V30 1243 C 114.761 -2.20525 0.680967 0
M  V30 1244 C 115.731 -1.62904 -0.324283 0
M  V30 1245 O 116.916 -1.89615 -0.212294 0
M  V30 1246 C 114.056 -3.45013 0.0776551 0
M  V30 1247 C 113.169 -4.16863 1.13355 0
M  V30 1248 C 112.304 -5.2888 0.49597 0
M  V30 1249 C 111.343 -5.92537 1.53513 0
M  V30 1250 N 110.48 -6.96038 0.920631 0
M  V30 1251 H 115.32 -2.52876 1.57663 0
M  V30 1252 H 112.857 -1.24199 0.788223 0
M  V30 1253 H 114.815 -4.16193 -0.289704 0
M  V30 1254 H 113.445 -3.132 -0.781393 0
M  V30 1255 H 112.497 -3.44248 1.61857 0
M  V30 1256 H 113.809 -4.60294 1.92174 0
M  V30 1257 H 112.963 -6.06653 0.0758604 0
M  V30 1258 H 111.702 -4.86622 -0.324062 0
M  V30 1259 H 110.707 -5.13482 1.9651 0
M  V30 1260 H 111.932 -6.36873 2.35733 0
M  V30 1261 H 109.878 -6.55888 0.12138 0
M  V30 1262 H 109.795 -7.3786 1.64616 0
M  V30 1263 H 111.063 -7.77725 0.525795 0
M  V30 1264 N 115.292 -0.849877 -1.32721 0
M  V30 1265 C 116.538 -0.451591 -1.97708 0
M  V30 1266 C 116.871 0.989175 -1.6712 0
M  V30 1267 O 116.146 1.69334 -0.956891 0
M  V30 1268 C 116.429 -0.685598 -3.53513 0
M  V30 1269 C 116.282 -2.17444 -3.93749 0
M  V30 1270 C 117.601 -0.138874 -4.39881 0
M  V30 1271 H 114.72 -0.16555 -0.718166 0
M  V30 1272 H 117.362 -1.06742 -1.57182 0
M  V30 1273 H 115.512 -0.161416 -3.88165 0
M  V30 1274 H 117.184 -2.76433 -3.693 0
M  V30 1275 H 115.427 -2.65476 -3.43081 0
M  V30 1276 H 116.098 -2.28888 -5.02309 0
M  V30 1277 H 118.574 -0.587068 -4.11938 0
M  V30 1278 H 117.45 -0.332213 -5.47894 0
M  V30 1279 H 117.711 0.95806 -4.31594 0
M  V30 1280 N 116.77 1.45427 -0.607355 0
M  V30 1281 C 118.181 1.85756 -0.187535 0
M  V30 1282 C 118.532 1.5077 1.25551 0
M  V30 1283 O 117.657 0.93427 1.95193 0
M  V30 1284 C 118.252 3.37154 -0.333572 0
M  V30 1285 C 116.811 3.76387 0.0315542 0
M  V30 1286 C 115.958 2.69377 -0.658117 0
M  V30 1287 H 118.909 1.36231 -0.81405 0
M  V30 1288 H 118.93 3.78014 0.43428 0
M  V30 1289 H 118.442 3.62586 -1.38393 0
M  V30 1290 H 116.543 3.56571 1.0811 0
M  V30 1291 H 116.656 4.77731 -0.361935 0
M  V30 1292 H 115.02 2.5452 -0.0957873 0
M  V30 1293 H 115.803 2.97646 -1.7106 0
M  V30 1294 N 118.248 0.346503 1.53744 0
M  V30 1295 C 119.181 -0.552023 2.21423 0
M  V30 1296 C 120.159 -1.09798 1.19929 0
M  V30 1297 O 121.343 -1.1577 1.4876 0
M  V30 1298 C 118.47 -1.75972 2.89398 0
M  V30 1299 C 117.516 -1.34295 4.04805 0
M  V30 1300 S 118.349 -0.360263 5.34287 0
M  V30 1301 C 119.505 -1.57473 6.05767 0
M  V30 1302 H 119.738 0.0228119 2.97291 0
M  V30 1303 H 117.271 0.130579 1.53847 0
M  V30 1304 H 119.229 -2.45256 3.2918 0
M  V30 1305 H 117.89 -2.30578 2.1329 0
M  V30 1306 H 117.083 -2.24349 4.51313 0
M  V30 1307 H 116.685 -0.729555 3.66815 0
M  V30 1308 H 118.977 -2.50875 6.29339 0
M  V30 1309 H 119.92 -1.15138 6.98676 0
M  V30 1310 H 120.328 -1.77212 5.35963 0
M  V30 1311 N 119.726 -1.57421 0.075193 0
M  V30 1312 C 120.656 -2.15942 -0.888324 0
M  V30 1313 C 121.637 -1.08737 -1.30806 0
M  V30 1314 O 122.822 -1.36787 -1.37851 0
M  V30 1315 C 119.952 -2.72379 -2.1547 0
M  V30 1316 C 118.906 -3.8478 -1.87425 0
M  V30 1317 C 118.232 -4.27834 -3.20721 0
M  V30 1318 C 119.532 -5.08869 -1.17684 0
M  V30 1319 H 121.226 -2.96705 -0.400799 0
M  V30 1320 H 118.772 -1.42723 -0.191342 0
M  V30 1321 H 120.725 -3.11965 -2.83295 0
M  V30 1322 H 119.449 -1.88841 -2.6647 0
M  V30 1323 H 118.108 -3.45703 -1.22004 0
M  V30 1324 H 117.756 -3.41214 -3.6957 0
M  V30 1325 H 117.456 -5.03605 -3.02746 0
M  V30 1326 H 118.98 -4.70039 -3.89738 0
M  V30 1327 H 120.394 -5.4575 -1.75584 0
M  V30 1328 H 118.791 -5.8994 -1.09956 0
M  V30 1329 H 119.861 -4.84648 -0.156453 0
M  V30 1330 N 121.204 0.198386 -1.56346 0
M  V30 1331 C 122.114 1.2664 -1.97483 0
M  V30 1332 C 123.13 1.49989 -0.882002 0
M  V30 1333 O 124.306 1.62668 -1.18748 0
M  V30 1334 C 121.371 2.59141 -2.30319 0
M  V30 1335 C 120.432 2.43892 -3.53292 0
M  V30 1336 C 119.665 3.70074 -3.84553 0
M  V30 1337 O 119.888 4.74101 -3.1715 0
M  V30 1338 O 118.822 3.658 -4.7799 0
M  V30 1339 H 122.648 0.947304 -2.88548 0
M  V30 1340 H 120.233 0.403123 -1.43859 0
M  V30 1341 H 122.115 3.37352 -2.5253 0
M  V30 1342 H 120.79 2.90684 -1.42423 0
M  V30 1343 H 119.697 1.63803 -3.36332 0
M  V30 1344 H 121.03 2.17282 -4.41644 0
M  V30 1345 N 122.682 1.50554 0.465978 0
M  V30 1346 C 123.615 1.64436 1.58227 0
M  V30 1347 C 124.593 0.492367 1.54966 0
M  V30 1348 O 125.777 0.712536 1.74514 0
M  V30 1349 C 122.904 1.63165 2.96808 0
M  V30 1350 C 121.95 2.83987 3.18204 0
M  V30 1351 S 122.783 4.45219 2.97557 0
M  V30 1352 C 123.939 4.46649 4.3847 0
M  V30 1353 H 124.172 2.58861 1.46213 0
M  V30 1354 H 121.705 1.3988 0.653678 0
M  V30 1355 H 123.663 1.63116 3.76701 0
M  V30 1356 H 122.324 0.69967 3.06208 0
M  V30 1357 H 121.517 2.79416 4.19455 0
M  V30 1358 H 121.119 2.81629 2.46092 0
M  V30 1359 H 123.411 4.20526 5.31191 0
M  V30 1360 H 124.354 5.48295 4.48082 0
M  V30 1361 H 124.762 3.76296 4.20787 0
M  V30 1362 N 124.16 -0.719506 1.40217 0
M  V30 1363 C 125.388 -1.50864 1.41589 0
M  V30 1364 C 125.803 -1.88794 0.0145275 0
M  V30 1365 O 125.16 -1.55174 -0.960594 0
M  V30 1366 C 125.211 -2.78646 2.30302 0
M  V30 1367 O 124.932 -2.42321 3.64983 0
M  V30 1368 C 126.433 -3.72569 2.40224 0
M  V30 1369 H 123.653 -0.465709 0.48307 0
M  V30 1370 H 126.197 -0.88785 1.84221 0
M  V30 1371 H 124.352 -3.37019 1.91042 0
M  V30 1372 H 124.766 -3.24514 4.12057 0
M  V30 1373 H 126.24 -4.5908 3.06512 0
M  V30 1374 H 126.717 -4.15403 1.42608 0
M  V30 1375 H 127.323 -3.20109 2.80019 0
M  V30 1376 N 125.638 -1.25649 -0.95132 0
M  V30 1377 C 126.568 -1.08808 -2.06599 0
M  V30 1378 C 127.549 0.00382547 -1.701 0
M  V30 1379 O 128.734 -0.166325 -1.93486 0
M  V30 1380 C 125.864 -0.709542 -3.39975 0
M  V30 1381 C 124.818 -1.75206 -3.90496 0
M  V30 1382 C 124.144 -1.22811 -5.20405 0
M  V30 1383 C 125.444 -3.15153 -4.16504 0
M  V30 1384 H 127.138 -2.02048 -2.20946 0
M  V30 1385 H 124.684 -0.972835 -1.06169 0
M  V30 1386 H 126.637 -0.578649 -4.17408 0
M  V30 1387 H 125.361 0.258556 -3.25575 0
M  V30 1388 H 124.02 -1.87145 -3.15234 0
M  V30 1389 H 123.668 -0.250145 -5.02378 0
M  V30 1390 H 123.368 -1.92492 -5.55176 0
M  V30 1391 H 124.892 -1.10968 -6.00432 0
M  V30 1392 H 126.306 -3.06349 -4.84586 0
M  V30 1393 H 124.703 -3.82333 -4.62538 0
M  V30 1394 H 125.773 -3.61966 -3.22658 0
M  V30 1395 N 127.117 1.15442 -1.07289 0
M  V30 1396 C 128.528 1.67803 -0.818475 0
M  V30 1397 C 128.879 1.8489 0.656507 0
M  V30 1398 O 128.004 1.55176 1.50829 0
M  V30 1399 C 128.599 3.04805 -1.47917 0
M  V30 1400 C 127.158 3.54245 -1.27229 0
M  V30 1401 C 126.305 2.29986 -1.54925 0
M  V30 1402 H 129.256 0.996646 -1.23502 0
M  V30 1403 H 129.277 3.69702 -0.90005 0
M  V30 1404 H 128.789 2.92336 -2.55267 0
M  V30 1405 H 126.89 3.71956 -0.21899 0
M  V30 1406 H 127.003 4.35723 -1.99203 0
M  V30 1407 H 125.367 2.35496 -0.970242 0
M  V30 1408 H 126.15 2.20105 -2.63455 0
M  V30 1409 N 128.595 0.856903 1.32268 0
M  V30 1410 C 129.843 0.460474 1.96784 0
M  V30 1411 C 130.164 -0.987701 1.68135 0
M  V30 1412 O 129.434 -1.69058 0.989765 0
M  V30 1413 H 128.014 0.167289 0.728027 0
M  V30 1414 H 130.676 1.09383 1.61312 0
M  V30 1415 H 129.772 0.60739 3.06133 0
M  V30 1416 N 130.073 -1.45103 0.615059 0
M  V30 1417 C 131.003 -2.33339 -0.0865619 0
M  V30 1418 C 131.984 -1.4727 -0.851209 0
M  V30 1419 O 133.169 -1.76026 -0.820281 0
M  V30 1420 C 130.299 -3.30095 -1.07956 0
M  V30 1421 C 129.253 -4.25858 -0.427628 0
M  V30 1422 C 128.579 -5.12361 -1.5294 0
M  V30 1423 C 129.879 -5.18165 0.655944 0
M  V30 1424 H 131.573 -2.92254 0.650224 0
M  V30 1425 H 129.119 -1.40532 0.314138 0
M  V30 1426 H 131.072 -3.90698 -1.57901 0
M  V30 1427 H 129.796 -2.69355 -1.84703 0
M  V30 1428 H 128.455 -3.66564 0.0510292 0
M  V30 1429 H 128.103 -4.47984 -2.28734 0
M  V30 1430 H 127.803 -5.77238 -1.09865 0
M  V30 1431 H 129.327 -5.75833 -2.03098 0
M  V30 1432 H 130.741 -5.72796 0.240257 0
M  V30 1433 H 129.138 -5.91559 1.00888 0
M  V30 1434 H 130.208 -4.60144 1.52957 0
M  V30 1435 N 131.551 -0.354651 -1.53558 0
M  V30 1436 C 132.967 -0.00315426 -1.596 0
M  V30 1437 C 133.167 1.47741 -1.37021 0
M  V30 1438 O 132.223 2.23759 -1.16996 0
M  V30 1439 C 133.536 -0.44929 -2.97325 0
M  V30 1440 C 135.084 -0.402578 -3.104 0
M  V30 1441 C 135.559 -0.824355 -4.5052 0
M  V30 1442 N 137.05 -0.778979 -4.56603 0
M  V30 1443 C 137.785 -1.07715 -5.63192 0
M  V30 1444 N 137.281 -1.44405 -6.77583 0
M  V30 1445 N 139.074 -1.00066 -5.53121 0
M  V30 1446 H 131.225 -1.31893 -1.66487 0
M  V30 1447 H 133.488 -0.538388 -0.780284 0
M  V30 1448 H 133.194 -1.48202 -3.1895 0
M  V30 1449 H 133.068 0.169772 -3.76818 0
M  V30 1450 H 135.455 0.621004 -2.88492 0
M  V30 1451 H 135.536 -1.05699 -2.32941 0
M  V30 1452 H 135.18 -1.846 -4.73165 0
M  V30 1453 H 135.11 -0.147304 -5.26394 0
M  V30 1454 H 137.601 -0.508528 -3.74463 0
M  V30 1455 H 137.914 -1.65612 -7.54846 0
M  V30 1456 H 136.259 -1.4826 -6.79002 0
M  V30 1457 H 139.45 -0.713293 -4.62633 0
M  V30 1458 H 139.623 -1.23638 -6.36096 0
M  V30 1459 N 133.029 1.57378 -0.0835403 0
M  V30 1460 C 134.257 1.98263 0.59157 0
M  V30 1461 C 134.672 0.962302 1.62435 0
M  V30 1462 O 134.029 -0.049581 1.82433 0
M  V30 1463 C 134.08 3.39214 1.24965 0
M  V30 1464 O 133.801 4.37339 0.258186 0
M  V30 1465 C 135.302 3.95038 2.01147 0
M  V30 1466 H 132.522 0.651773 0.159477 0
M  V30 1467 H 135.066 2.03878 -0.159415 0
M  V30 1468 H 133.221 3.34649 1.95164 0
M  V30 1469 H 133.635 5.19371 0.731734 0
M  V30 1470 H 135.109 4.95848 2.42567 0
M  V30 1471 H 135.586 3.32222 2.87272 0
M  V30 1472 H 136.192 4.0304 1.35789 0
M  V30 1473 N 134.507 -0.190092 1.56449 0
M  V30 1474 C 135.732 -0.929864 1.85387 0
M  V30 1475 C 136.157 -1.7585 0.667704 0
M  V30 1476 O 135.515 -1.77198 -0.383459 0
M  V30 1477 C 135.563 -1.79773 3.12593 0
M  V30 1478 O 134.667 -2.89713 2.93496 0
M  V30 1479 H 134.008 -0.261574 0.610307 0
M  V30 1480 H 136.538 -0.193896 2.03679 0
M  V30 1481 H 136.548 -2.20139 3.43515 0
M  V30 1482 H 135.223 -1.18892 3.98544 0
M  V30 1483 H 133.8 -2.53065 2.73884 0
M  V30 1484 N 135.985 -1.50799 -0.457987 0
M  V30 1485 C 137.233 -1.62121 -1.2067 0
M  V30 1486 C 137.554 -0.329793 -1.92191 0
M  V30 1487 O 136.824 0.653409 -1.84682 0
M  V30 1488 H 135.404 -0.597441 -0.448411 0
M  V30 1489 H 138.066 -1.87637 -0.527096 0
M  V30 1490 H 137.162 -2.43882 -1.94751 0
M  V30 1491 N 137.463 0.71206 -1.40597 0
M  V30 1492 C 138.712 1.46754 -1.38369 0
M  V30 1493 C 139.025 1.95598 0.0097839 0
M  V30 1494 O 140.231 2.71059 0.154677 0
M  V30 1495 C 138.687 2.65289 -2.43207 0
M  V30 1496 C 138.295 2.23301 -3.88382 0
M  V30 1497 C 140.039 3.43008 -2.50091 0
M  V30 1498 C 137.946 3.38696 -4.84808 0
M  V30 1499 H 136.876 0.55118 -0.514506 0
M  V30 1500 H 139.527 0.774616 -1.66349 0
M  V30 1501 H 137.909 3.36769 -2.08332 0
M  V30 1502 H 139.083 1.59218 -4.32419 0
M  V30 1503 H 137.398 1.58618 -3.85006 0
M  V30 1504 H 139.995 4.28881 -3.1932 0
M  V30 1505 H 140.338 3.87065 -1.53253 0
M  V30 1506 H 140.871 2.78574 -2.83974 0
M  V30 1507 H 137.61 2.99668 -5.82992 0
M  V30 1508 H 137.13 4.01683 -4.45433 0
M  V30 1509 H 138.809 4.04712 -5.04794 0
M  V30 1510 N 138.941 1.26152 0.944643 0
M  V30 1511 C 139.851 1.09176 2.07648 0
M  V30 1512 C 140.867 0.0261935 1.7398 0
M  V30 1513 O 142.043 0.229208 2.00091 0
M  V30 1514 C 139.108 0.722915 3.39079 0
M  V30 1515 C 138.169 1.86752 3.86552 0
M  V30 1516 C 137.402 1.51617 5.11711 0
M  V30 1517 O 137.625 0.416331 5.68879 0
M  V30 1518 O 136.559 2.34975 5.54139 0
M  V30 1519 H 140.385 2.0412 2.24875 0
M  V30 1520 H 137.97 1.05182 1.061 0
M  V30 1521 H 139.852 0.529787 4.18056 0
M  V30 1522 H 138.527 -0.197159 3.23099 0
M  V30 1523 H 137.434 2.11558 3.08535 0
M  V30 1524 H 138.767 2.76719 4.07047 0
M  V30 1525 N 140.419 -1.14872 1.07899 0
M  V30 1526 C 141.351 -2.19425 0.662231 0
M  V30 1527 C 142.364 -1.60231 -0.288079 0
M  V30 1528 O 143.553 -1.78336 -0.076534 0
M  V30 1529 C 140.653 -3.38867 -0.0470695 0
M  V30 1530 C 139.826 -4.27597 0.920831 0
M  V30 1531 C 138.885 -5.25616 0.247805 0
M  V30 1532 O 137.911 -5.62189 0.890599 0
M  V30 1533 N 139.113 -5.71746 -1.00435 0
M  V30 1534 H 141.878 -2.55797 1.56166 0
M  V30 1535 H 139.439 -1.30042 0.964404 0
M  V30 1536 H 141.431 -4.01497 -0.50813 0
M  V30 1537 H 140.001 -3.00864 -0.848523 0
M  V30 1538 H 139.221 -3.61982 1.56087 0
M  V30 1539 H 140.509 -4.83748 1.57688 0
M  V30 1540 H 139.907 -5.44153 -1.54642 0
M  V30 1541 H 138.464 -6.36389 -1.40899 0
M  V30 1542 N 141.898 -0.863906 -1.31812 0
M  V30 1543 C 142.828 -0.330843 -2.31144 0
M  V30 1544 C 143.809 0.575005 -1.60087 0
M  V30 1545 O 144.994 0.493304 -1.8783 0
M  V30 1546 C 142.124 0.47374 -3.44054 0
M  V30 1547 C 141.078 -0.338481 -4.26659 0
M  V30 1548 C 140.404 0.591412 -5.31419 0
M  V30 1549 C 141.704 -1.56926 -4.98168 0
M  V30 1550 H 143.398 -1.16086 -2.75979 0
M  V30 1551 H 140.944 -0.559657 -1.32679 0
M  V30 1552 H 142.897 0.857143 -4.12591 0
M  V30 1553 H 141.621 1.33721 -2.9797 0
M  V30 1554 H 140.28 -0.703754 -3.59782 0
M  V30 1555 H 139.928 1.45199 -4.81587 0
M  V30 1556 H 139.628 0.0519022 -5.87577 0
M  V30 1557 H 141.152 0.97179 -6.02817 0
M  V30 1558 H 142.566 -1.25764 -5.59336 0
M  V30 1559 H 140.963 -2.04739 -5.64094 0
M  V30 1560 H 142.033 -2.32544 -4.25501 0
M  V30 1561 N 143.376 1.44774 -0.622745 0
M  V30 1562 C 144.286 2.34433 0.0886031 0
M  V30 1563 C 145.302 1.52131 0.844529 0
M  V30 1564 O 146.478 1.84886 0.798691 0
M  V30 1565 C 143.543 3.29986 1.0635 0
M  V30 1566 C 142.604 4.28195 0.307873 0
M  V30 1567 C 141.837 5.19183 1.23633 0
M  V30 1568 O 142.06 5.13918 2.47476 0
M  V30 1569 O 140.994 5.97515 0.725189 0
M  V30 1570 H 144.82 2.96693 -0.648599 0
M  V30 1571 H 142.405 1.44408 -0.382957 0
M  V30 1572 H 144.287 3.88825 1.6246 0
M  V30 1573 H 142.962 2.70269 1.78146 0
M  V30 1574 H 141.869 3.72927 -0.296064 0
M  V30 1575 H 143.202 4.90808 -0.3699 0
M  V30 1576 N 144.854 0.36279 1.53368 0
M  V30 1577 C 145.801 -0.485008 2.25646 0
M  V30 1578 C 146.771 -1.07982 1.2621 0
M  V30 1579 O 147.956 -1.11284 1.54986 0
M  V30 1580 C 145.096 -1.62023 3.04701 0
M  V30 1581 C 144.209 -1.05086 4.19024 0
M  V30 1582 C 143.344 -2.15496 4.85525 0
M  V30 1583 C 142.383 -1.5601 5.91884 0
M  V30 1584 N 141.52 -2.60241 6.52088 0
M  V30 1585 H 146.36 0.137864 2.97681 0
M  V30 1586 H 143.897 0.0798061 1.46883 0
M  V30 1587 H 145.855 -2.28887 3.48807 0
M  V30 1588 H 144.485 -2.2138 2.34927 0
M  V30 1589 H 143.537 -0.27259 3.79422 0
M  V30 1590 H 144.849 -0.575926 4.95464 0
M  V30 1591 H 144.003 -2.90186 5.32801 0
M  V30 1592 H 142.742 -2.66341 4.08551 0
M  V30 1593 H 141.747 -0.798338 5.43973 0
M  V30 1594 H 142.972 -1.05994 6.70777 0
M  V30 1595 H 140.918 -3.10304 5.77968 0
M  V30 1596 H 140.835 -2.17426 7.24059 0
M  V30 1597 H 142.103 -3.34641 7.04014 0
M  V30 1598 N 146.332 -1.57332 0.0918853 0
M  V30 1599 C 147.28 -2.15075 -0.885747 0
M  V30 1600 C 148.274 -1.09277 -1.29441 0
M  V30 1601 O 149.48 -1.27627 -1.26931 0
M  V30 1602 H 145.855 -0.687966 -0.303656 0
M  V30 1603 H 147.826 -2.96047 -0.373995 0
M  V30 1604 C 146.575 -2.74325 -2.13638 0
M  V30 1605 H 145.898 -3.55418 -1.8308 0
M  V30 1606 H 147.338 -3.183 -2.80109 0
M  V30 1607 C 145.797 -1.70062 -2.90827 0
M  V30 1608 O 146.327 -1.13763 -3.85254 0
M  V30 1609 N 144.533 -1.40628 -2.54307 0
M  V30 1610 H 144.08 -1.866 -1.7759 0
M  V30 1611 H 144.038 -0.711043 -3.06254 0
M  V30 1612 N 147.81 0.181792 -1.56548 0
M  V30 1613 C 149.221 0.745244 -1.71181 0
M  V30 1614 C 149.572 1.83262 -0.70068 0
M  V30 1615 O 148.697 2.15946 0.140154 0
M  V30 1616 C 149.292 1.35859 -3.10367 0
M  V30 1617 C 147.851 1.86898 -3.2672 0
M  V30 1618 C 146.998 0.743942 -2.67134 0
M  V30 1619 H 149.949 -0.0434661 -1.5864 0
M  V30 1620 H 149.97 2.22817 -3.08436 0
M  V30 1621 H 149.482 0.566948 -3.83937 0
M  V30 1622 H 147.583 2.68738 -2.5809 0
M  V30 1623 H 147.696 2.02162 -4.34359 0
M  V30 1624 H 146.06 1.16169 -2.26665 0
M  V30 1625 H 146.843 -0.035676 -3.43281 0
M  V30 1626 N 149.288 1.51039 0.449983 0
M  V30 1627 C 150.513 1.6715 1.22783 0
M  V30 1628 C 150.938 0.363081 1.84563 0
M  V30 1629 O 150.296 -0.675433 1.68249 0
M  V30 1630 C 150.344 2.77985 2.29689 0
M  V30 1631 O 149.448 2.40707 3.34864 0
M  V30 1632 H 148.789 0.557746 0.360299 0
M  V30 1633 H 151.319 1.97535 0.533005 0
M  V30 1634 H 151.329 3.01693 2.74673 0
M  V30 1635 H 150.004 3.72935 1.84098 0
M  V30 1636 H 148.581 2.27523 2.95445 0
M  V30 1637 N 150.766 -0.704594 1.40972 0
M  V30 1638 C 152.177 -1.28418 1.3552 0
M  V30 1639 C 152.528 -1.96171 0.0339434 0
M  V30 1640 O 151.653 -1.98231 -0.867944 0
M  V30 1641 C 152.248 -2.33528 2.45459 0
M  V30 1642 C 150.807 -2.87085 2.43433 0
M  V30 1643 C 149.954 -1.61007 2.2577 0
M  V30 1644 H 152.905 -0.499963 1.50619 0
M  V30 1645 H 152.926 -3.14619 2.13998 0
M  V30 1646 H 152.438 -1.84187 3.41609 0
M  V30 1647 H 150.539 -3.40626 1.51013 0
M  V30 1648 H 150.652 -3.3813 3.39419 0
M  V30 1649 H 149.016 -1.86482 1.73483 0
M  V30 1650 H 149.799 -1.13675 3.23933 0
M  V30 1651 N 152.244 -1.26651 -0.937939 0
M  V30 1652 C 153.66 -1.03834 -1.21205 0
M  V30 1653 C 153.86 0.234502 -2.00131 0
M  V30 1654 O 152.916 0.942767 -2.3424 0
M  V30 1655 C 154.229 -2.27167 -1.97017 0
M  V30 1656 C 155.777 -2.32101 -2.09996 0
M  V30 1657 C 156.252 -3.55136 -2.8921 0
M  V30 1658 N 157.743 -3.55632 -2.96783 0
M  V30 1659 C 158.478 -4.475 -3.58512 0
M  V30 1660 N 157.974 -5.4966 -4.21717 0
M  V30 1661 N 159.767 -4.35145 -3.55816 0
M  V30 1662 H 151.918 -2.08398 -0.410391 0
M  V30 1663 H 154.181 -0.916031 -0.244114 0
M  V30 1664 H 153.887 -3.19765 -1.46434 0
M  V30 1665 H 153.761 -2.31672 -2.97671 0
M  V30 1666 H 156.148 -1.40015 -2.59769 0
M  V30 1667 H 156.229 -2.31605 -1.08594 0
M  V30 1668 H 155.873 -4.47553 -2.40123 0
M  V30 1669 H 155.803 -3.5288 -3.90875 0
M  V30 1670 H 158.294 -2.81743 -2.51852 0
M  V30 1671 H 158.607 -6.15943 -4.66727 0
M  V30 1672 H 156.952 -5.53514 -4.20294 0
M  V30 1673 H 160.143 -3.5455 -3.05634 0
M  V30 1674 H 160.316 -5.06934 -4.03636 0
M  V30 1675 N 153.722 1.14298 -1.08507 0
M  V30 1676 C 154.971 1.84708 -0.810305 0
M  V30 1677 C 155.284 1.83903 0.666271 0
M  V30 1678 O 156.49 2.50112 1.05624 0
M  V30 1679 C 154.946 3.31572 -1.39957 0
M  V30 1680 C 154.554 3.40791 -2.90801 0
M  V30 1681 C 156.298 4.07087 -1.20334 0
M  V30 1682 C 154.205 4.81872 -3.4286 0
M  V30 1683 H 153.135 0.691985 -0.299454 0
M  V30 1684 H 155.786 1.28841 -1.30661 0
M  V30 1685 H 154.168 3.87183 -0.830976 0
M  V30 1686 H 155.342 2.95225 -3.53806 0
M  V30 1687 H 153.657 2.78732 -3.0935 0
M  V30 1688 H 156.254 5.11225 -1.56693 0
M  V30 1689 H 156.597 4.16054 -0.143237 0
M  V30 1690 H 157.13 3.57779 -1.73893 0
M  V30 1691 H 153.869 4.78094 -4.48449 0
M  V30 1692 H 153.389 5.27972 -2.84615 0
M  V30 1693 H 155.068 5.50765 -3.39509 0
M  V30 1694 N 155.201 0.870884 1.31352 0
M  V30 1695 C 156.447 0.482987 1.96965 0
M  V30 1696 C 156.78 -0.962462 1.68672 0
M  V30 1697 O 156.055 -1.6779 0.98371 0
M  V30 1698 C 156.338 0.741752 3.52378 0
M  V30 1699 C 156.191 2.2368 3.9024 0
M  V30 1700 C 157.51 0.208838 4.39604 0
M  V30 1701 H 154.629 0.176955 0.715441 0
M  V30 1702 H 157.271 1.09229 1.55464 0
M  V30 1703 H 155.421 0.223149 3.87859 0
M  V30 1704 H 157.093 2.82273 3.64856 0
M  V30 1705 H 155.336 2.70901 3.38814 0
M  V30 1706 H 156.007 2.3685 4.98604 0
M  V30 1707 H 158.483 0.652529 4.10952 0
M  V30 1708 H 157.359 0.419336 5.47296 0
M  V30 1709 H 157.62 -0.889275 4.33064 0
M  V30 1710 N 156.679 -1.44442 0.630414 0
M  V30 1711 C 157.626 -2.30678 -0.0749355 0
M  V30 1712 C 158.596 -1.4344 -0.837502 0
M  V30 1713 O 159.781 -1.72343 -0.818684 0
M  V30 1714 C 156.921 -3.28706 -1.05103 0
M  V30 1715 C 156.034 -4.31046 -0.286954 0
M  V30 1716 C 155.169 -5.16167 -1.2548 0
M  V30 1717 C 154.208 -6.10216 -0.479843 0
M  V30 1718 N 153.345 -6.88039 -1.39811 0
M  V30 1719 H 158.185 -2.90454 0.666386 0
M  V30 1720 H 155.722 -1.43107 0.340404 0
M  V30 1721 H 157.68 -3.84027 -1.63031 0
M  V30 1722 H 156.31 -2.70632 -1.75949 0
M  V30 1723 H 155.362 -3.78203 0.408243 0
M  V30 1724 H 156.674 -4.97794 0.316657 0
M  V30 1725 H 155.828 -5.76002 -1.90544 0
M  V30 1726 H 154.567 -4.49491 -1.89233 0
M  V30 1727 H 153.572 -5.49491 0.184295 0
M  V30 1728 H 154.797 -6.78928 0.152965 0
M  V30 1729 H 152.743 -6.24032 -2.02287 0
M  V30 1730 H 152.66 -7.51223 -0.848508 0
M  V30 1731 H 153.928 -7.52397 -2.03762 0
M  V30 1732 N 158.157 -0.370918 -1.53173 0
M  V30 1733 C 159.385 0.217704 -2.05751 0
M  V30 1734 C 159.8 1.42018 -1.24404 0
M  V30 1735 O 159.157 1.80245 -0.286033 0
M  V30 1736 C 159.208 0.605954 -3.56385 0
M  V30 1737 O 158.929 -0.548734 -4.3465 0
M  V30 1738 C 160.43 1.2524 -4.25241 0
M  V30 1739 H 157.65 0.0371659 -0.66997 0
M  V30 1740 H 160.194 -0.530832 -1.9749 0
M  V30 1741 H 158.349 1.3044 -3.6478 0
M  V30 1742 H 158.763 -0.23376 -5.23979 0
M  V30 1743 H 160.237 1.47458 -5.3194 0
M  V30 1744 H 160.714 2.2143 -3.79296 0
M  V30 1745 H 161.32 0.595233 -4.21114 0
M  V30 1746 N 159.635 1.57281 -0.100228 0
M  V30 1747 C 160.585 2.10848 0.86759 0
M  V30 1748 C 161.569 1.02473 1.24049 0
M  V30 1749 O 162.761 1.28739 1.21471 0
M  V30 1750 C 159.89 2.69648 2.12474 0
M  V30 1751 C 158.976 3.85074 1.77704 0
M  V30 1752 N 159.367 4.92897 1.13518 0
M  V30 1753 C 157.665 3.94905 2.07282 0
M  V30 1754 C 158.366 5.73475 0.974735 0
M  V30 1755 N 157.342 5.22675 1.4937 0
M  V30 1756 H 161.144 2.91594 0.367471 0
M  V30 1757 H 158.658 1.62074 0.102829 0
M  V30 1758 H 160.655 3.06356 2.82757 0
M  V30 1759 H 159.315 1.90359 2.63047 0
M  V30 1760 H 160.326 5.11662 0.801381 0
M  V30 1761 H 157.003 3.26633 2.60033 0
M  V30 1762 H 158.393 6.70238 0.472364 0
M  V30 1763 N 161.113 -0.173488 1.56642 0
M  V30 1764 C 162.043 -1.2171 1.99271 0
M  V30 1765 C 163.024 -1.46289 0.867959 0
M  V30 1766 O 164.209 -1.5766 1.13388 0
M  V30 1767 C 161.339 -2.55651 2.35074 0
M  V30 1768 C 160.293 -2.45645 3.50489 0
M  V30 1769 C 159.619 -3.84056 3.72028 0
M  V30 1770 C 160.919 -1.96302 4.84007 0
M  V30 1771 H 162.613 -0.86275 2.867 0
M  V30 1772 H 160.159 -0.413571 1.37933 0
M  V30 1773 H 162.112 -3.2886 2.63494 0
M  V30 1774 H 160.836 -2.92869 1.44552 0
M  V30 1775 H 159.495 -1.7489 3.22194 0
M  V30 1776 H 159.143 -4.18664 2.788 0
M  V30 1777 H 158.843 -3.7823 4.49684 0
M  V30 1778 H 160.367 -4.58854 4.02846 0
M  V30 1779 H 161.781 -2.59284 5.11317 0
M  V30 1780 H 160.178 -2.01429 5.65284 0
M  V30 1781 H 161.248 -0.917226 4.76146 0
M  V30 1782 N 162.591 -1.51276 -0.441967 0
M  V30 1783 C 164.002 -1.56244 -1.02199 0
M  V30 1784 C 164.353 -0.383149 -1.92422 0
M  V30 1785 O 163.478 0.500613 -2.1053 0
M  V30 1786 C 164.073 -2.83162 -1.86024 0
M  V30 1787 C 162.632 -2.90716 -2.39084 0
M  V30 1788 C 161.779 -2.50858 -1.18175 0
M  V30 1789 H 164.73 -1.5712 -0.223416 0
M  V30 1790 H 164.751 -2.66663 -2.71425 0
M  V30 1791 H 164.263 -3.68974 -1.20331 0
M  V30 1792 H 162.364 -2.09323 -3.08244 0
M  V30 1793 H 162.477 -3.94266 -2.72198 0
M  V30 1794 H 160.841 -2.03951 -1.52565 0
M  V30 1795 H 161.624 -3.3901 -0.541001 0
M  V30 1796 N 164.069 0.697108 -1.41344 0
M  V30 1797 C 165.297 1.48593 -1.43972 0
M  V30 1798 C 165.712 1.88747 -0.0445612 0
M  V30 1799 O 165.069 1.56682 0.935785 0
M  V30 1800 C 165.12 2.74946 -2.34706 0
M  V30 1801 O 164.841 2.36484 -3.68791 0
M  V30 1802 C 166.342 3.687 -2.46121 0
M  V30 1803 H 163.562 0.457964 -0.490418 0
M  V30 1804 H 166.106 0.858429 -1.8561 0
M  V30 1805 H 164.261 3.33937 -1.9638 0
M  V30 1806 H 164.675 3.17918 -4.17167 0
M  V30 1807 H 166.149 4.54145 -3.13777 0
M  V30 1808 H 166.626 4.13081 -1.49199 0
M  V30 1809 H 167.232 3.15613 -2.85076 0
M  V30 1810 N 165.547 1.27147 0.931209 0
M  V30 1811 C 166.824 1.0401 1.65654 0
M  V30 1812 C 167.204 -0.426297 2.06751 0
M  V30 1813 O 166.552 -1.40879 1.79904 0
M  V30 1814 C 166.762 1.99834 2.86125 0
M  V30 1815 C 168.11 2.29007 3.57549 0
M  V30 1816 O 169.134 1.97779 2.96246 0
M  V30 1817 O 167.993 2.82222 4.67989 0
M  V30 1818 H 165.087 0.396239 0.725895 0
M  V30 1819 H 167.633 1.38397 0.982056 0
M  V30 1820 H 166.405 2.98744 2.52721 0
M  V30 1821 H 166.028 1.65987 3.61295 0
M  V30 1822 N 167.025 -1.13721 1.09112 0
M  V30 1823 C 167.955 -2.21148 0.749385 0
M  V30 1824 C 168.936 -1.6792 -0.271475 0
M  V30 1825 O 170.121 -1.93693 -0.140251 0
M  V30 1826 C 167.251 -3.46905 0.165659 0
M  V30 1827 C 166.205 -4.13203 1.11567 0
M  V30 1828 C 165.531 -5.33248 0.393809 0
M  V30 1829 C 166.831 -4.60912 2.45678 0
M  V30 1830 H 168.525 -2.4999 1.64758 0
M  V30 1831 H 166.071 -1.20156 0.793626 0
M  V30 1832 H 168.024 -4.21313 -0.085466 0
M  V30 1833 H 166.748 -3.17449 -0.767714 0
M  V30 1834 H 165.407 -3.40758 1.35202 0
M  V30 1835 H 165.055 -5.00054 -0.543599 0
M  V30 1836 H 164.755 -5.78552 1.02721 0
M  V30 1837 H 166.279 -6.10413 0.150908 0
M  V30 1838 H 167.693 -5.26759 2.26269 0
M  V30 1839 H 166.09 -5.16944 3.04776 0
M  V30 1840 H 167.16 -3.75603 3.06677 0
M  V30 1841 N 168.503 -0.877838 -1.30888 0
M  V30 1842 C 169.433 -0.35534 -2.3078 0
M  V30 1843 C 170.414 0.557994 -1.60687 0
M  V30 1844 O 171.599 0.473355 -1.88343 0
M  V30 1845 C 168.729 0.437221 -3.44537 0
M  V30 1846 C 167.683 -0.383715 -4.26276 0
M  V30 1847 C 167.009 0.535014 -5.32017 0
M  V30 1848 C 168.309 -1.62201 -4.96476 0
M  V30 1849 H 170.003 -1.19007 -2.74732 0
M  V30 1850 H 167.549 -0.573698 -1.32078 0
M  V30 1851 H 169.502 0.813334 -4.13477 0
M  V30 1852 H 168.226 1.30553 -2.99372 0
M  V30 1853 H 166.885 -0.741874 -3.59015 0
M  V30 1854 H 166.533 1.40083 -4.831 0
M  V30 1855 H 166.233 -0.0104211 -5.87599 0
M  V30 1856 H 167.757 0.907799 -6.03814 0
M  V30 1857 H 169.171 -1.31689 -5.5797 0
M  V30 1858 H 167.568 -2.10711 -5.61891 0
M  V30 1859 H 168.638 -2.37044 -4.23011 0
M  V30 1860 N 169.982 1.44106 -0.638065 0
M  V30 1861 C 171.393 1.85316 -0.226894 0
M  V30 1862 C 171.744 1.53399 1.22324 0
M  V30 1863 O 170.869 0.975463 1.93167 0
M  V30 1864 C 171.464 3.3637 -0.405013 0
M  V30 1865 C 170.023 3.76369 -0.0482902 0
M  V30 1866 C 169.17 2.67921 -0.715108 0
M  V30 1867 H 172.121 1.34474 -0.842764 0
M  V30 1868 H 172.142 3.7885 0.354 0
M  V30 1869 H 171.654 3.59569 -1.46053 0
M  V30 1870 H 169.755 3.58784 1.00522 0
M  V30 1871 H 169.868 4.76856 -0.463187 0
M  V30 1872 H 168.232 2.54259 -0.149753 0
M  V30 1873 H 169.015 2.93951 -1.77335 0
M  V30 1874 N 171.46 0.379036 1.52974 0
M  V30 1875 C 172.407 -0.461048 2.26148 0
M  V30 1876 C 173.377 -1.06637 1.27349 0
M  V30 1877 O 174.562 -1.09633 1.56157 0
M  V30 1878 C 171.702 -1.58782 3.06402 0
M  V30 1879 C 170.815 -1.00636 4.20115 0
M  V30 1880 C 169.95 -2.10334 4.87784 0
M  V30 1881 C 168.989 -1.49724 5.93506 0
M  V30 1882 N 168.126 -2.5331 6.54812 0
M  V30 1883 H 172.966 0.169429 2.97518 0
M  V30 1884 H 170.503 0.0953806 1.4679 0
M  V30 1885 H 172.461 -2.25174 3.51215 0
M  V30 1886 H 171.091 -2.18876 2.37261 0
M  V30 1887 H 170.143 -0.232332 3.7969 0
M  V30 1888 H 171.455 -0.523343 4.96047 0
M  V30 1889 H 170.609 -2.84519 5.35849 0
M  V30 1890 H 169.348 -2.61992 4.11353 0
M  V30 1891 H 168.353 -0.740598 5.44789 0
M  V30 1892 H 169.578 -0.988732 6.71864 0
M  V30 1893 H 167.524 -3.04156 5.81227 0
M  V30 1894 H 167.441 -2.09734 7.26325 0
M  V30 1895 H 168.709 -3.27155 7.07524 0
M  V30 1896 N 172.938 -1.57226 0.108567 0
M  V30 1897 C 174.163 -1.99604 -0.563303 0
M  V30 1898 C 174.588 -0.987563 -1.6009 0
M  V30 1899 O 173.946 0.0421687 -1.81251 0
M  V30 1900 C 173.994 -3.40902 -1.17552 0
M  V30 1901 O 173.098 -3.42896 -2.2912 0
M  V30 1902 H 172.439 -0.648704 -0.1417 0
M  V30 1903 H 174.969 -2.03679 0.193961 0
M  V30 1904 H 174.979 -3.78886 -1.51357 0
M  V30 1905 H 173.654 -4.1382 -0.415445 0
M  V30 1906 H 172.231 -3.1672 -1.96832 0
M  V30 1907 N 174.416 0.165178 -1.56732 0
M  V30 1908 C 175.663 0.880807 -1.8234 0
M  V30 1909 C 175.991 1.81977 -0.686621 0
M  V30 1910 O 175.246 1.92971 0.325697 0
M  V30 1911 C 175.545 1.70405 -3.1416 0
M  V30 1912 C 175.211 0.913475 -4.4155 0
M  V30 1913 C 173.873 0.695303 -4.7615 0
M  V30 1914 C 176.225 0.359349 -5.1996 0
M  V30 1915 C 173.553 -0.0879947 -5.86634 0
M  V30 1916 C 175.905 -0.410893 -6.31264 0
M  V30 1917 C 174.569 -0.639808 -6.64427 0
M  V30 1918 H 173.839 0.32231 -0.667231 0
M  V30 1919 H 176.486 0.145402 -1.90947 0
M  V30 1920 H 174.791 2.50903 -3.00923 0
M  V30 1921 H 176.488 2.26091 -3.31186 0
M  V30 1922 H 173.078 1.09357 -4.14414 0
M  V30 1923 H 177.262 0.515228 -4.93618 0
M  V30 1924 H 172.518 -0.27503 -6.10781 0
M  V30 1925 H 176.692 -0.847494 -6.91224 0
M  V30 1926 H 174.319 -1.24864 -7.49875 0
M  V30 1927 N 175.894 1.51508 0.433938 0
M  V30 1928 C 177.14 1.65549 1.18173 0
M  V30 1929 C 177.495 0.368751 1.88833 0
M  V30 1930 O 176.788 -0.635616 1.8075 0
M  V30 1931 C 176.982 2.79928 2.22205 0
M  V30 1932 C 176.811 4.19601 1.61756 0
M  V30 1933 C 175.581 4.85489 1.40101 0
M  V30 1934 C 177.779 5.02574 1.09194 0
M  V30 1935 N 175.761 6.09266 0.752859 0
M  V30 1936 C 177.132 6.17381 0.569255 0
M  V30 1937 C 179.187 4.88079 0.984025 0
M  V30 1938 C 177.89 7.19282 -0.0507472 0
M  V30 1939 C 179.916 5.90191 0.377912 0
M  V30 1940 C 179.278 7.04272 -0.134216 0
M  V30 1941 H 175.377 0.659653 0.419979 0
M  V30 1942 H 177.961 1.88746 0.477818 0
M  V30 1943 H 176.132 2.5839 2.89982 0
M  V30 1944 H 177.864 2.83132 2.89168 0
M  V30 1945 H 174.619 4.43417 1.66369 0
M  V30 1946 H 175.043 6.75528 0.446123 0
M  V30 1947 H 179.685 4.00131 1.36583 0
M  V30 1948 H 177.403 8.06876 -0.444676 0
M  V30 1949 H 180.989 5.81045 0.296269 0
M  V30 1950 H 179.869 7.81933 -0.59585 0
M  V30 1951 N 177.372 -0.689602 1.41712 0
M  V30 1952 C 178.282 -1.83314 1.46401 0
M  V30 1953 C 179.298 -1.7036 0.35405 0
M  V30 1954 O 180.474 -1.92171 0.602692 0
M  V30 1955 C 177.539 -3.19344 1.34982 0
M  V30 1956 C 176.6 -3.44363 2.56344 0
M  V30 1957 C 175.833 -4.73904 2.45461 0
M  V30 1958 O 176.056 -5.508 1.48241 0
M  V30 1959 O 174.99 -4.99839 3.35328 0
M  V30 1960 H 178.816 -1.82314 2.42889 0
M  V30 1961 H 176.401 -0.843438 1.23315 0
M  V30 1962 H 178.283 -4.00547 1.3092 0
M  V30 1963 H 176.958 -3.21014 0.41612 0
M  V30 1964 H 175.865 -2.63067 2.65982 0
M  V30 1965 H 177.198 -3.47512 3.48563 0
M  V30 1966 N 178.85 -1.27639 -0.924453 0
M  V30 1967 C 179.798 -1.10485 -2.04685 0
M  V30 1968 C 180.792 -0.0270421 -1.69378 0
M  V30 1969 O 181.998 -0.185008 -1.79047 0
M  V30 1970 H 178.373 -0.340546 -0.670472 0
M  V30 1971 H 180.344 -2.05566 -2.16298 0
M  V30 1972 C 179.093 -0.772229 -3.39016 0
M  V30 1973 H 178.416 -1.59351 -3.66671 0
M  V30 1974 H 179.856 -0.692097 -4.18313 0
M  V30 1975 C 178.315 0.523554 -3.32807 0
M  V30 1976 O 178.845 1.55702 -3.70297 0
M  V30 1977 N 177.051 0.520363 -2.85903 0
M  V30 1978 H 176.598 -0.32107 -2.55591 0
M  V30 1979 H 176.556 1.38742 -2.82131 0
M  V30 1980 N 180.328 1.1314 -1.09713 0
M  V30 1981 C 181.276 2.20717 -0.733934 0
M  V30 1982 C 182.27 1.6729 0.266506 0
M  V30 1983 O 183.476 1.79547 0.127656 0
M  V30 1984 H 179.851 0.719292 -0.21937 0
M  V30 1985 H 181.822 2.48611 -1.6503 0
M  V30 1986 C 180.571 3.47265 -0.173849 0
M  V30 1987 H 179.894 3.88716 -0.934873 0
M  V30 1988 H 181.334 4.23979 0.0423126 0
M  V30 1989 C 179.793 3.18724 1.09164 0
M  V30 1990 O 180.323 3.37762 2.17439 0
M  V30 1991 N 178.529 2.72583 1.00732 0
M  V30 1992 H 178.076 2.57291 0.126121 0
M  V30 1993 H 178.034 2.53862 1.85476 0
M  V30 1994 N 181.806 0.884767 1.30421 0
M  V30 1995 C 183.046 0.509806 1.9794 0
M  V30 1996 C 183.41 -0.923736 1.68319 0
M  V30 1997 O 184.611 -1.40481 2.29169 0
M  V30 1998 C 182.882 0.776732 3.48858 0
M  V30 1999 S 184.441 0.503843 4.35898 0
M  V30 2000 H 181.259 0.189699 0.685227 0
M  V30 2001 H 183.861 1.14399 1.58535 0
M  V30 2002 H 182.565 1.81857 3.67908 0
M  V30 2003 H 182.096 0.1301 3.93185 0
M  V30 2004 H 184.111 -0.657625 4.91823 0
M  V30 2005 N 183.284 -1.43765 0.645699 0
M  V30 2006 C 184.231 -2.30745 -0.0504648 0
M  V30 2007 C 185.201 -1.4432 -0.822241 0
M  V30 2008 O 186.386 -1.73202 -0.800358 0
M  V30 2009 C 183.526 -3.29802 -1.0161 0
M  V30 2010 C 182.639 -4.31326 -0.241219 0
M  V30 2011 C 181.774 -5.17469 -1.19998 0
M  V30 2012 C 180.813 -6.10691 -0.415094 0
M  V30 2013 N 179.95 -6.89483 -1.32506 0
M  V30 2014 H 184.79 -2.8973 0.697155 0
M  V30 2015 H 182.327 -1.42738 0.355563 0
M  V30 2016 H 184.285 -3.85734 -1.58949 0
M  V30 2017 H 182.915 -2.72483 -1.73069 0
M  V30 2018 H 181.967 -3.77749 0.448334 0
M  V30 2019 H 183.279 -4.9743 0.369437 0
M  V30 2020 H 182.433 -5.7799 -1.84424 0
M  V30 2021 H 181.172 -4.51473 -1.84455 0
M  V30 2022 H 180.177 -5.49265 0.242565 0
M  V30 2023 H 181.402 -6.78727 0.224966 0
M  V30 2024 H 179.348 -6.26142 -1.95657 0
M  V30 2025 H 179.265 -7.52081 -0.768783 0
M  V30 2026 H 180.533 -7.54516 -1.9577 0
M  V30 2027 N 184.763 -0.387143 -1.52771 0
M  V30 2028 C 185.696 0.493123 -2.22808 0
M  V30 2029 C 186.674 1.0658 -1.22798 0
M  V30 2030 O 187.858 1.11785 -1.51777 0
M  V30 2031 C 184.985 1.68238 -2.93962 0
M  V30 2032 C 184.031 1.23515 -4.08223 0
M  V30 2033 S 184.864 0.21848 -5.35054 0
M  V30 2034 C 186.02 1.41357 -6.09729 0
M  V30 2035 H 186.253 -0.101625 -2.97126 0
M  V30 2036 H 183.786 -0.171323 -1.53447 0
M  V30 2037 H 185.744 2.36443 -3.35567 0
M  V30 2038 H 184.405 2.24842 -2.19328 0
M  V30 2039 H 183.598 2.12304 -4.57103 0
M  V30 2040 H 183.2 0.632044 -3.68621 0
M  V30 2041 H 185.492 2.34101 -6.3577 0
M  V30 2042 H 186.435 0.965736 -7.01484 0
M  V30 2043 H 186.843 1.6294 -5.40473 0
M  V30 2044 N 186.241 1.57166 -0.116904 0
M  V30 2045 C 187.49 1.94298 0.541407 0
M  V30 2046 C 187.803 1.00236 1.67964 0
M  V30 2047 O 189.009 1.26826 2.40057 0
M  V30 2048 C 187.465 3.45306 1.01449 0
M  V30 2049 C 187.073 4.47899 -0.0951738 0
M  V30 2050 C 188.817 3.91361 1.6443 0
M  V30 2051 C 186.724 5.90083 0.394491 0
M  V30 2052 H 185.654 0.725308 0.206019 0
M  V30 2053 H 188.305 1.82446 -0.196419 0
M  V30 2054 H 186.687 3.52385 1.80667 0
M  V30 2055 H 187.861 4.52486 -0.871374 0
M  V30 2056 H 186.176 4.11583 -0.631505 0
M  V30 2057 H 188.773 4.95004 2.02176 0
M  V30 2058 H 189.116 3.3122 2.52189 0
M  V30 2059 H 189.649 3.87073 0.917559 0
M  V30 2060 H 186.388 6.53974 -0.447004 0
M  V30 2061 H 185.908 5.88921 1.13722 0
M  V30 2062 H 187.587 6.41307 0.856399 0
M  V30 2063 N 187.719 -0.156864 1.56817 0
M  V30 2064 C 188.949 -0.885031 1.86684 0
M  V30 2065 C 189.357 -1.75696 0.701954 0
M  V30 2066 O 188.7 -1.80569 -0.337732 0
M  V30 2067 C 188.762 -1.80092 3.11138 0
M  V30 2068 C 188.426 -1.10714 4.43386 0
M  V30 2069 C 189.423 -0.465714 5.1781 0
M  V30 2070 C 187.108 -1.09959 4.90117 0
M  V30 2071 C 189.102 0.174002 6.37162 0
M  V30 2072 C 186.789 -0.456055 6.09396 0
M  V30 2073 C 187.787 0.179622 6.82764 0
M  V30 2074 O 187.475 0.812975 7.99779 0
M  V30 2075 H 187.207 -0.261813 0.623242 0
M  V30 2076 H 189.761 -0.157383 2.04796 0
M  V30 2077 H 187.991 -2.56926 2.89009 0
M  V30 2078 H 189.68 -2.40018 3.27332 0
M  V30 2079 H 190.446 -0.463427 4.82781 0
M  V30 2080 H 186.325 -1.58378 4.3294 0
M  V30 2081 H 189.869 0.670765 6.94368 0
M  V30 2082 H 185.766 -0.455975 6.43888 0
M  V30 2083 H 186.534 0.71366 8.15383 0
M  V30 2084 N 189.197 -1.51736 -0.425897 0
M  V30 2085 C 190.127 -1.76827 -1.52494 0
M  V30 2086 C 191.108 -0.618524 -1.58456 0
M  V30 2087 O 192.293 -0.862416 -1.74 0
M  V30 2088 C 189.423 -1.90374 -2.90474 0
M  V30 2089 C 188.377 -3.0588 -2.99369 0
M  V30 2090 C 187.703 -3.04625 -4.3944 0
M  V30 2091 C 189.003 -4.45644 -2.72394 0
M  V30 2092 H 190.697 -2.68855 -1.31748 0
M  V30 2093 H 188.243 -1.29372 -0.632362 0
M  V30 2094 H 190.196 -2.0651 -3.6733 0
M  V30 2095 H 188.92 -0.95004 -3.12477 0
M  V30 2096 H 187.579 -2.89467 -2.24954 0
M  V30 2097 H 187.227 -2.0701 -4.58428 0
M  V30 2098 H 186.927 -3.82195 -4.46319 0
M  V30 2099 H 188.451 -3.22869 -5.18255 0
M  V30 2100 H 189.865 -4.62348 -3.38979 0
M  V30 2101 H 188.262 -5.25006 -2.9067 0
M  V30 2102 H 189.332 -4.54893 -1.67929 0
M  V30 2103 N 190.675 0.682077 -1.42076 0
M  V30 2104 C 191.638 1.77756 -1.44691 0
M  V30 2105 C 192.638 1.5726 -0.335535 0
M  V30 2106 O 193.828 1.63686 -0.596037 0
M  V30 2107 C 190.96 3.16301 -1.27146 0
M  V30 2108 H 192.153 1.76826 -2.42224 0
M  V30 2109 H 189.706 0.891012 -1.28416 0
M  V30 2110 H 190.441 3.22862 -0.305075 0
M  V30 2111 H 190.226 3.32581 -2.07683 0
M  V30 2112 H 191.716 3.96241 -1.31843 0
M  V30 2113 N 192.153 1.28127 0.917671 0
M  V30 2114 C 193.569 1.05749 1.19538 0
M  V30 2115 C 193.769 -0.202633 2.00479 0
M  V30 2116 O 192.825 -0.905382 2.3571 0
M  V30 2117 C 194.138 2.30273 1.93378 0
M  V30 2118 C 195.686 2.35412 2.06277 0
M  V30 2119 C 196.161 3.59692 2.83524 0
M  V30 2120 N 197.652 3.60309 2.91087 0
M  V30 2121 C 198.387 4.53147 3.51348 0
M  V30 2122 N 197.883 5.563 4.12919 0
M  V30 2123 N 199.676 4.40751 3.48849 0
M  V30 2124 H 191.827 2.09024 0.377184 0
M  V30 2125 H 194.09 0.919798 0.22951 0
M  V30 2126 H 193.796 3.22055 1.41328 0
M  V30 2127 H 193.67 2.36378 2.93947 0
M  V30 2128 H 196.057 1.4413 2.57508 0
M  V30 2129 H 196.138 2.33304 1.04895 0
M  V30 2130 H 195.782 4.51316 2.32973 0
M  V30 2131 H 195.712 3.59054 3.85211 0
M  V30 2132 H 198.203 2.85714 2.47338 0
M  V30 2133 H 198.516 6.2329 4.56869 0
M  V30 2134 H 196.861 5.60131 4.11435 0
M  V30 2135 H 200.052 3.59367 2.99955 0
M  V30 2136 H 200.225 5.13291 3.9552 0
M  V30 2137 N 193.631 -1.12557 1.10312 0
M  V30 2138 C 194.579 -2.20325 0.745629 0
M  V30 2139 C 195.573 -1.67429 -0.25763 0
M  V30 2140 O 196.779 -1.79612 -0.118132 0
M  V30 2141 H 193.154 -0.718118 0.223182 0
M  V30 2142 H 195.125 -2.47733 1.66346 0
M  V30 2143 C 193.874 -3.47168 0.192262 0
M  V30 2144 H 193.197 -3.88215 0.955475 0
M  V30 2145 H 194.637 -4.23995 -0.0198274 0
M  V30 2146 C 193.096 -3.19298 -1.07472 0
M  V30 2147 O 193.626 -3.3891 -2.15645 0
M  V30 2148 N 191.832 -2.73113 -0.992847 0
M  V30 2149 H 191.379 -2.57354 -0.112474 0
M  V30 2150 H 191.337 -2.54842 -1.84127 0
M  V30 2151 N 195.109 -0.891671 -1.2995 0
M  V30 2152 C 196.072 -0.36828 -2.26222 0
M  V30 2153 C 197.072 0.493014 -1.53056 0
M  V30 2154 O 198.262 0.299213 -1.71611 0
M  V30 2155 C 195.394 0.47442 -3.37583 0
M  V30 2156 H 196.587 -1.21844 -2.74033 0
M  V30 2157 H 194.14 -0.669107 -1.41254 0
M  V30 2158 H 194.875 1.34489 -2.95099 0
M  V30 2159 H 194.66 -0.142615 -3.91841 0
M  V30 2160 H 196.15 0.83218 -4.09224 0
M  V30 2161 N 196.587 1.43421 -0.653314 0
M  V30 2162 C 197.534 2.30768 0.0382271 0
M  V30 2163 C 198.504 1.44755 0.814576 0
M  V30 2164 O 199.689 1.73624 0.791162 0
M  V30 2165 C 196.829 3.30336 0.998599 0
M  V30 2166 C 195.942 4.31448 0.218342 0
M  V30 2167 C 195.077 5.18098 1.17252 0
M  V30 2168 C 194.116 6.10902 0.382702 0
M  V30 2169 N 193.253 6.90176 1.28848 0
M  V30 2170 H 198.093 2.89357 -0.712511 0
M  V30 2171 H 195.63 1.42548 -0.363128 0
M  V30 2172 H 197.588 3.86572 1.56901 0
M  V30 2173 H 196.218 2.73397 1.71621 0
M  V30 2174 H 195.27 3.77506 -0.46836 0
M  V30 2175 H 196.582 4.97227 -0.395812 0
M  V30 2176 H 195.736 5.7896 1.81356 0
M  V30 2177 H 194.475 4.52444 1.82058 0
M  V30 2178 H 193.48 5.49128 -0.27169 0
M  V30 2179 H 194.705 6.78598 -0.260957 0
M  V30 2180 H 192.651 6.27171 1.92334 0
M  V30 2181 H 192.568 7.52478 0.728887 0
M  V30 2182 H 193.836 7.55543 1.91766 0
M  V30 2183 N 198.065 0.39524 1.52563 0
M  V30 2184 C 199.342 -0.242908 1.94086 0
M  V30 2185 C 199.722 -1.63841 1.33114 0
M  V30 2186 O 199.07 -2.22928 0.501529 0
M  V30 2187 C 199.28 -0.26327 3.48006 0
M  V30 2188 C 200.628 -0.489354 4.21771 0
M  V30 2189 O 201.652 -0.343226 3.54543 0
M  V30 2190 O 200.511 -0.776169 5.4096 0
M  V30 2191 H 197.605 -0.152536 0.812811 0
M  V30 2192 H 200.151 0.450178 1.6362 0
M  V30 2193 H 198.923 0.713985 3.84731 0
M  V30 2194 H 198.546 -1.00103 3.84792 0
M  V30 2195 N 199.544 -1.57102 0.125237 0
M  V30 2196 C 200.79 -1.95697 -0.532035 0
M  V30 2197 C 201.123 -1.009 -1.6593 0
M  V30 2198 O 200.398 -0.047347 -1.94442 0
M  V30 2199 C 200.681 -3.44181 -1.05884 0
M  V30 2200 C 200.534 -4.49752 0.0654392 0
M  V30 2201 C 201.853 -3.94655 -1.9477 0
M  V30 2202 H 198.972 -0.711571 -0.191925 0
M  V30 2203 H 201.614 -1.88923 0.20206 0
M  V30 2204 H 199.764 -3.50085 -1.68442 0
M  V30 2205 H 201.436 -4.55943 0.700982 0
M  V30 2206 H 199.679 -4.27653 0.727709 0
M  V30 2207 H 200.35 -5.50924 -0.344505 0
M  V30 2208 H 202.826 -3.91094 -1.42074 0
M  V30 2209 H 201.702 -4.99057 -2.28546 0
M  V30 2210 H 201.963 -3.35718 -2.87656 0
M  V30 2211 N 201.022 0.148545 -1.56898 0
M  V30 2212 C 202.247 0.880385 -1.87787 0
M  V30 2213 C 202.672 1.74018 -0.714093 0
M  V30 2214 O 202.03 1.78153 0.336343 0
M  V30 2215 C 202.078 1.71422 -3.17249 0
M  V30 2216 O 201.182 2.8183 -3.01074 0
M  V30 2217 H 200.523 0.245301 -0.617028 0
M  V30 2218 H 203.053 0.139826 -2.04122 0
M  V30 2219 H 203.063 2.10954 -3.49231 0
M  V30 2220 H 201.738 1.08284 -4.01556 0
M  V30 2221 H 200.315 2.45715 -2.80497 0
M  V30 2222 N 202.5 1.5196 0.417844 0
M  V30 2223 C 203.746 1.65836 1.16732 0
M  V30 2224 C 204.079 0.382881 1.90388 0
M  V30 2225 O 203.354 -0.618368 1.84408 0
M  V30 2226 C 203.637 2.87466 2.16876 0
M  V30 2227 C 203.49 4.25041 1.47174 0
M  V30 2228 C 204.809 3.04613 3.17646 0
M  V30 2229 H 201.928 0.603515 0.423011 0
M  V30 2230 H 204.57 1.84494 0.454105 0
M  V30 2231 H 202.72 2.71689 2.777 0
M  V30 2232 H 204.392 4.52527 0.895376 0
M  V30 2233 H 202.635 4.26843 0.773806 0
M  V30 2234 H 203.306 5.06176 2.20204 0
M  V30 2235 H 205.782 3.1923 2.66892 0
M  V30 2236 H 204.658 3.91247 3.8499 0
M  V30 2237 H 204.919 2.17541 3.84874 0
M  V30 2238 N 203.978 -0.674533 1.42435 0
M  V30 2239 C 205.203 -1.46784 1.46524 0
M  V30 2240 C 205.628 -1.87938 0.078066 0
M  V30 2241 O 204.986 -1.56014 -0.92354 0
M  V30 2242 C 205.034 -2.69307 2.39805 0
M  V30 2243 O 204.138 -3.67587 1.86959 0
M  V30 2244 H 203.479 -0.440959 0.496439 0
M  V30 2245 H 206.009 -0.827326 1.87127 0
M  V30 2246 H 206.019 -3.17374 2.56393 0
M  V30 2247 H 204.694 -2.38692 3.40586 0
M  V30 2248 H 203.271 -3.2662 1.79927 0
M  V30 2249 N 205.456 -1.28612 -0.910864 0
M  V30 2250 C 206.686 -1.1862 -1.69153 0
M  V30 2251 C 207.094 0.257324 -1.87442 0
M  V30 2252 O 206.437 1.18543 -1.40332 0
M  V30 2253 C 206.499 -1.81606 -3.10257 0
M  V30 2254 C 206.163 -3.30864 -3.15243 0
M  V30 2255 C 207.16 -4.27256 -2.96223 0
M  V30 2256 C 204.845 -3.71871 -3.37664 0
M  V30 2257 C 206.839 -5.62631 -2.99541 0
M  V30 2258 C 204.526 -5.07371 -3.40614 0
M  V30 2259 C 205.524 -6.02561 -3.21573 0
M  V30 2260 O 205.212 -7.35589 -3.2429 0
M  V30 2261 H 204.944 -0.412633 -0.535453 0
M  V30 2262 H 207.498 -1.70306 -1.14827 0
M  V30 2263 H 205.728 -1.24418 -3.66138 0
M  V30 2264 H 207.417 -1.66092 -3.70362 0
M  V30 2265 H 208.183 -3.9691 -2.78725 0
M  V30 2266 H 204.062 -2.98241 -3.5153 0
M  V30 2267 H 207.606 -6.36907 -2.84597 0
M  V30 2268 H 203.503 -5.37366 -3.57642 0
M  V30 2269 H 204.271 -7.44252 -3.40633 0
M  V30 2270 N 206.934 1.1197 -1.10907 0
M  V30 2271 C 208.164 1.8713 -0.875553 0
M  V30 2272 C 208.572 1.8016 0.577843 0
M  V30 2273 O 207.915 1.17699 1.41042 0
M  V30 2274 C 207.977 3.37005 -1.2517 0
M  V30 2275 C 207.641 3.67748 -2.71313 0
M  V30 2276 C 208.638 3.65698 -3.69542 0
M  V30 2277 C 206.323 3.96928 -3.07821 0
M  V30 2278 C 208.317 3.92395 -5.023 0
M  V30 2279 C 206.004 4.23284 -4.40765 0
M  V30 2280 C 207.002 4.21005 -5.37814 0
M  V30 2281 O 206.69 4.46704 -6.68364 0
M  V30 2282 H 206.422 0.598786 -0.313737 0
M  V30 2283 H 208.976 1.42568 -1.47863 0
M  V30 2284 H 207.206 3.82146 -0.591741 0
M  V30 2285 H 208.895 3.93519 -0.994877 0
M  V30 2286 H 209.661 3.43211 -3.42682 0
M  V30 2287 H 205.54 3.97841 -2.32902 0
M  V30 2288 H 209.084 3.90531 -5.78041 0
M  V30 2289 H 204.981 4.45246 -4.67361 0
M  V30 2290 H 205.749 4.64299 -6.74069 0
M  V30 2291 N 208.412 0.89855 1.29475 0
M  V30 2292 C 209.362 0.346767 2.25348 0
M  V30 2293 C 210.346 -0.532509 1.51833 0
M  V30 2294 O 211.538 -0.374714 1.72988 0
M  V30 2295 C 208.667 -0.425681 3.40651 0
M  V30 2296 C 207.753 0.46845 4.21505 0
M  V30 2297 N 208.144 1.57514 4.80648 0
M  V30 2298 C 206.442 0.26603 4.45206 0
M  V30 2299 C 207.143 2.12889 5.41344 0
M  V30 2300 N 206.119 1.42208 5.24669 0
M  V30 2301 H 209.921 1.19219 2.68634 0
M  V30 2302 H 207.435 0.749473 1.44072 0
M  V30 2303 H 209.432 -0.837716 4.08397 0
M  V30 2304 H 208.092 -1.26838 2.98902 0
M  V30 2305 H 209.103 1.95789 4.79465 0
M  V30 2306 H 205.78 -0.538394 4.14014 0
M  V30 2307 H 207.17 3.05901 5.98226 0
M  V30 2308 N 209.89 -1.43072 0.660911 0
M  V30 2309 C 211.137 -2.01721 0.177445 0
M  V30 2310 C 211.465 -1.5218 -1.21126 0
M  V30 2311 O 210.72 -0.708659 -1.82419 0
M  V30 2312 C 211.019 -3.57103 0.145563 0
M  V30 2313 C 210.685 -4.26021 1.47705 0
M  V30 2314 C 209.347 -4.44563 1.84165 0
M  V30 2315 C 211.699 -4.64983 2.35458 0
M  V30 2316 C 209.027 -4.99334 3.0803 0
M  V30 2317 C 211.379 -5.21127 3.58622 0
M  V30 2318 C 210.043 -5.37884 3.95268 0
M  V30 2319 H 209.313 -0.73815 0.0649317 0
M  V30 2320 H 211.96 -1.71446 0.853144 0
M  V30 2321 H 210.265 -3.86965 -0.61361 0
M  V30 2322 H 211.962 -4.00248 -0.2455 0
M  V30 2323 H 208.552 -4.11939 1.18339 0
M  V30 2324 H 212.736 -4.50343 2.08579 0
M  V30 2325 H 207.992 -5.10493 3.36462 0
M  V30 2326 H 212.166 -5.50262 4.26831 0
M  V30 2327 H 209.793 -5.80089 4.91325 0
M  V30 2328 N 211.368 -0.403325 -1.52352 0
M  V30 2329 C 212.645 0.232611 -1.94212 0
M  V30 2330 C 213.025 1.63133 -1.33981 0
M  V30 2331 O 212.373 2.22659 -0.513344 0
M  V30 2332 C 212.583 0.244811 -3.4814 0
M  V30 2333 C 213.931 0.46698 -4.22024 0
M  V30 2334 O 214.955 0.324419 -3.5472 0
M  V30 2335 O 213.814 0.74747 -5.41364 0
M  V30 2336 H 210.908 0.148223 -0.813609 0
M  V30 2337 H 213.454 -0.458848 -1.63379 0
M  V30 2338 H 212.226 -0.734378 -3.84347 0
M  V30 2339 H 211.849 0.980611 -3.85318 0
M  V30 2340 N 212.846 1.57033 -0.133567 0
M  V30 2341 C 213.776 2.1909 0.807567 0
M  V30 2342 C 214.757 1.13517 1.26681 0
M  V30 2343 O 215.942 1.41809 1.32679 0
M  V30 2344 C 213.072 2.80188 2.05212 0
M  V30 2345 C 212.026 3.91471 1.73015 0
M  V30 2346 C 211.352 4.39443 3.04622 0
M  V30 2347 C 212.652 5.12886 0.987168 0
M  V30 2348 H 214.346 2.97988 0.290403 0
M  V30 2349 H 211.892 1.43335 0.138239 0
M  V30 2350 H 213.845 3.22264 2.71521 0
M  V30 2351 H 212.569 1.98601 2.59278 0
M  V30 2352 H 211.228 3.49993 1.0909 0
M  V30 2353 H 210.876 3.54695 3.56651 0
M  V30 2354 H 210.576 5.14495 2.83847 0
M  V30 2355 H 212.1 4.8418 3.72024 0
M  V30 2356 H 213.514 5.51891 1.55208 0
M  V30 2357 H 211.911 5.93615 0.87985 0
M  V30 2358 H 212.981 4.84894 -0.0235286 0
M  V30 2359 N 214.325 -0.140222 1.56975 0
M  V30 2360 C 215.258 -1.20266 1.93936 0
M  V30 2361 C 216.236 -1.41212 0.806099 0
M  V30 2362 O 217.42 -1.55713 1.06234 0
M  V30 2363 C 214.547 -2.56037 2.21726 0
M  V30 2364 C 213.593 -2.51646 3.44349 0
M  V30 2365 S 214.426 -1.97678 4.97678 0
M  V30 2366 C 215.582 -3.35165 5.28597 0
M  V30 2367 H 215.815 -0.887358 2.83749 0
M  V30 2368 H 213.348 -0.346119 1.50471 0
M  V30 2369 H 215.306 -3.34167 2.38416 0
M  V30 2370 H 213.967 -2.84755 1.32566 0
M  V30 2371 H 213.16 -3.51608 3.61092 0
M  V30 2372 H 212.762 -1.81628 3.26936 0
M  V30 2373 H 215.054 -4.31302 5.2248 0
M  V30 2374 H 215.997 -3.23269 6.30002 0
M  V30 2375 H 216.405 -3.32614 4.56101 0
M  V30 2376 N 215.803 -1.52179 -0.40978 0
M  V30 2377 C 216.751 -1.76086 -1.51975 0
M  V30 2378 C 217.745 -0.627964 -1.57331 0
M  V30 2379 O 218.951 -0.809993 -1.60745 0
M  V30 2380 H 215.326 -0.556829 -0.505416 0
M  V30 2381 H 217.297 -2.69077 -1.28996 0
M  V30 2382 C 216.046 -1.92799 -2.8935 0
M  V30 2383 H 215.369 -2.79392 -2.85972 0
M  V30 2384 H 216.809 -2.13527 -3.66309 0
M  V30 2385 C 215.268 -0.694923 -3.29655 0
M  V30 2386 O 215.798 0.13751 -4.01465 0
M  V30 2387 N 214.004 -0.53101 -2.85707 0
M  V30 2388 H 213.551 -1.20952 -2.27439 0
M  V30 2389 H 213.509 0.292718 -3.13034 0
M  V30 2390 N 217.281 0.66697 -1.42791 0
M  V30 2391 C 218.229 1.80157 -1.47127 0
M  V30 2392 C 219.223 1.65825 -0.346199 0
M  V30 2393 O 220.429 1.72338 -0.519572 0
M  V30 2394 H 216.804 0.594158 -0.460956 0
M  V30 2395 H 218.775 1.73619 -2.42692 0
M  V30 2396 C 217.524 3.18351 -1.39813 0
M  V30 2397 H 216.847 3.3001 -2.25684 0
M  V30 2398 H 218.287 3.97736 -1.46908 0
M  V30 2399 C 216.746 3.36707 -0.11391 0
M  V30 2400 O 217.276 3.93027 0.830241 0
M  V30 2401 N 215.482 2.90586 -0.0285295 0
M  V30 2402 H 215.029 2.4494 -0.79764 0
M  V30 2403 H 214.987 3.03245 0.830063 0
M  V30 2404 N 218.759 1.29093 0.90403 0
M  V30 2405 C 219.689 1.16401 2.02418 0
M  V30 2406 C 220.67 0.0593085 1.69997 0
M  V30 2407 O 221.855 0.238021 1.92736 0
M  V30 2408 C 218.985 0.835233 3.37107 0
M  V30 2409 C 217.939 1.89578 3.83724 0
M  V30 2410 C 217.265 1.42041 5.15489 0
M  V30 2411 C 218.565 3.30394 4.04521 0
M  V30 2412 H 220.259 2.10109 2.13295 0
M  V30 2413 H 217.805 1.01157 1.02486 0
M  V30 2414 H 219.758 0.733169 4.14973 0
M  V30 2415 H 218.482 -0.137543 3.2631 0
M  V30 2416 H 217.141 1.98715 3.08071 0
M  V30 2417 H 216.789 0.436426 5.01103 0
M  V30 2418 H 216.489 2.12964 5.4765 0
M  V30 2419 H 218.013 1.33176 5.959 0
M  V30 2420 H 219.427 3.24123 4.72882 0
M  V30 2421 H 217.824 3.99237 4.48029 0
M  V30 2422 H 218.894 3.73692 3.09002 0
M  V30 2423 N 220.237 -1.11381 1.11499 0
M  V30 2424 C 221.169 -2.17207 0.731704 0
M  V30 2425 C 222.182 -1.61066 -0.236957 0
M  V30 2426 O 223.371 -1.78489 -0.0197591 0
M  V30 2427 C 220.471 -3.38846 0.0607624 0
M  V30 2428 C 219.644 -4.24451 1.0564 0
M  V30 2429 C 218.703 -5.24562 0.4149 0
M  V30 2430 O 217.729 -5.59071 1.069 0
M  V30 2431 N 218.931 -5.74651 -0.821943 0
M  V30 2432 H 221.696 -2.50699 1.64225 0
M  V30 2433 H 219.257 -1.26908 1.00529 0
M  V30 2434 H 221.249 -4.02911 -0.380139 0
M  V30 2435 H 219.819 -3.03411 -0.752376 0
M  V30 2436 H 219.039 -3.56833 1.67524 0
M  V30 2437 H 220.327 -4.78486 1.72998 0
M  V30 2438 H 219.725 -5.48797 -1.37252 0
M  V30 2439 H 218.282 -6.40549 -1.20582 0
M  V30 2440 N 221.715 -0.905404 -1.28997 0
M  V30 2441 C 223.126 -0.581953 -1.77398 0
M  V30 2442 C 223.477 0.902552 -1.74208 0
M  V30 2443 O 222.602 1.70584 -1.33154 0
M  V30 2444 C 223.197 -1.04961 -3.22131 0
M  V30 2445 C 221.756 -0.777229 -3.68288 0
M  V30 2446 C 220.903 -1.22109 -2.48967 0
M  V30 2447 H 223.854 -1.08754 -1.15578 0
M  V30 2448 H 223.875 -0.387387 -3.78523 0
M  V30 2449 H 223.387 -2.13008 -3.24421 0
M  V30 2450 H 221.488 0.290383 -3.71467 0
M  V30 2451 H 221.601 -1.37911 -4.58822 0
M  V30 2452 H 219.965 -0.639971 -2.46529 0
M  V30 2453 H 220.748 -2.30972 -2.53982 0
M  V30 2454 N 223.193 1.4272 -0.668489 0
M  V30 2455 C 224.44 2.01624 -0.18814 0
M  V30 2456 C 224.768 1.5282 1.20317 0
M  V30 2457 O 224.023 0.718323 1.8204 0
M  V30 2458 C 224.322 3.57021 -0.164499 0
M  V30 2459 C 223.988 4.25232 -1.49962 0
M  V30 2460 C 222.65 4.4358 -1.8652 0
M  V30 2461 C 225.002 4.63727 -2.37921 0
M  V30 2462 C 222.33 4.97694 -3.10674 0
M  V30 2463 C 224.682 5.19218 -3.6138 0
M  V30 2464 C 223.346 5.3578 -3.98115 0
M  V30 2465 H 222.616 0.737795 -0.0688454 0
M  V30 2466 H 225.263 1.70991 -0.862225 0
M  V30 2467 H 223.568 3.87285 0.593079 0
M  V30 2468 H 225.265 4.00372 0.224271 0
M  V30 2469 H 221.855 4.11306 -1.20522 0
M  V30 2470 H 226.039 4.4923 -2.10964 0
M  V30 2471 H 221.295 5.08702 -3.39164 0
M  V30 2472 H 225.469 5.4799 -4.29743 0
M  V30 2473 H 223.096 5.77475 -4.94395 0
M  V30 2474 N 224.671 0.411399 1.52136 0
M  V30 2475 C 226.082 -0.0576826 1.86611 0
M  V30 2476 C 226.433 -1.44238 1.33003 0
M  V30 2477 O 225.558 -2.05759 0.670228 0
M  V30 2478 C 226.153 -0.111448 3.38617 0
M  V30 2479 C 224.712 -0.52487 3.72723 0
M  V30 2480 C 223.859 0.299176 2.75681 0
M  V30 2481 H 226.81 0.628368 1.4573 0
M  V30 2482 H 226.831 -0.926252 3.69054 0
M  V30 2483 H 226.343 0.896488 3.77604 0
M  V30 2484 H 224.444 -1.53936 3.39315 0
M  V30 2485 H 224.557 -0.267681 4.78352 0
M  V30 2486 H 222.921 -0.238814 2.53578 0
M  V30 2487 H 223.704 1.3055 3.17508 0
M  V30 2488 N 226.149 -1.5696 0.141893 0
M  V30 2489 C 227.397 -1.95573 -0.509484 0
M  V30 2490 C 227.718 -1.02746 -1.65736 0
M  V30 2491 O 226.988 -0.0880311 -1.95702 0
M  V30 2492 H 225.568 -0.722115 -0.191205 0
M  V30 2493 H 228.23 -1.93697 0.216196 0
M  V30 2494 H 227.326 -2.99171 -0.889 0
M  V30 2495 N 227.627 0.131896 -1.57047 0
M  V30 2496 C 228.855 0.856461 -1.88341 0
M  V30 2497 C 229.27 1.74042 -0.731757 0
M  V30 2498 O 228.627 1.80051 0.297945 0
M  V30 2499 C 228.678 1.70064 -3.18999 0
M  V30 2500 O 228.399 0.852278 -4.2973 0
M  V30 2501 C 229.9 2.53148 -3.63911 0
M  V30 2502 H 227.12 0.246885 -0.62393 0
M  V30 2503 H 229.664 0.120152 -2.04147 0
M  V30 2504 H 227.819 2.38984 -3.04902 0
M  V30 2505 H 228.233 1.43329 -5.04537 0
M  V30 2506 H 229.707 3.07931 -4.58129 0
M  V30 2507 H 230.184 3.29901 -2.89935 0
M  V30 2508 H 230.79 1.89492 -3.80753 0
M  V30 2509 N 229.106 1.52395 0.401703 0
M  V30 2510 C 230.352 1.68019 1.14635 0
M  V30 2511 C 230.707 0.408722 1.88009 0
M  V30 2512 O 230 -0.597133 1.82057 0
M  V30 2513 C 230.194 2.84578 2.16217 0
M  V30 2514 C 230.023 4.22938 1.5282 0
M  V30 2515 C 228.793 4.88352 1.29772 0
M  V30 2516 C 230.991 5.04778 0.985094 0
M  V30 2517 N 228.973 6.10726 0.623455 0
M  V30 2518 C 230.344 6.1845 0.438172 0
M  V30 2519 C 232.399 4.90057 0.880275 0
M  V30 2520 C 231.102 7.19013 -0.203306 0
M  V30 2521 C 233.128 5.9086 0.252639 0
M  V30 2522 C 232.49 7.03829 -0.283573 0
M  V30 2523 H 228.589 0.668413 0.405892 0
M  V30 2524 H 231.173 1.89717 0.437674 0
M  V30 2525 H 229.344 2.64483 2.84435 0
M  V30 2526 H 231.076 2.89202 2.83098 0
M  V30 2527 H 227.831 4.46846 1.56926 0
M  V30 2528 H 228.255 6.76323 0.302733 0
M  V30 2529 H 232.897 4.02938 1.28065 0
M  V30 2530 H 230.615 8.05751 -0.615726 0
M  V30 2531 H 234.201 5.81543 0.172954 0
M  V30 2532 H 233.081 7.80493 -0.761575 0
M  V30 2533 N 230.584 -0.659388 1.43143 0
M  V30 2534 C 231.494 -1.80167 1.50256 0
M  V30 2535 C 232.51 -1.69571 0.390106 0
M  V30 2536 O 233.686 -1.90849 0.643319 0
M  V30 2537 C 230.751 -3.16409 1.41725 0
M  V30 2538 C 229.812 -3.38848 2.63591 0
M  V30 2539 C 229.045 -4.68591 2.55458 0
M  V30 2540 O 229.268 -5.47532 1.59891 0
M  V30 2541 O 228.202 -4.92614 3.45854 0
M  V30 2542 H 232.028 -1.77121 2.46702 0
M  V30 2543 H 229.613 -0.817092 1.25076 0
M  V30 2544 H 231.495 -3.9768 1.39387 0
M  V30 2545 H 230.17 -3.20059 0.484118 0
M  V30 2546 H 229.077 -2.57366 2.71502 0
M  V30 2547 H 230.41 -3.4004 3.55856 0
M  V30 2548 N 232.062 -1.29571 -0.897171 0
M  V30 2549 C 232.972 -1.16808 -2.03453 0
M  V30 2550 C 233.988 -0.0907471 -1.73763 0
M  V30 2551 O 235.164 -0.303312 -1.99103 0
M  V30 2552 C 232.229 -0.848264 -3.36163 0
M  V30 2553 C 231.29 -2.0097 -3.79354 0
M  V30 2554 C 230.523 -1.70505 -5.05731 0
M  V30 2555 O 230.746 -0.62718 -5.66941 0
M  V30 2556 O 229.68 -2.5538 -5.45036 0
M  V30 2557 H 233.506 -2.12325 -2.17144 0
M  V30 2558 H 231.091 -1.09047 -1.02123 0
M  V30 2559 H 232.973 -0.684581 -4.15802 0
M  V30 2560 H 231.648 0.0771071 -3.23608 0
M  V30 2561 H 230.555 -2.22863 -3.00471 0
M  V30 2562 H 231.888 -2.91636 -3.96496 0
M  V30 2563 N 233.54 1.10788 -1.12088 0
M  V30 2564 C 234.77 1.86191 -0.895351 0
M  V30 2565 C 235.178 1.80763 0.558702 0
M  V30 2566 O 234.521 1.19188 1.39785 0
M  V30 2567 C 234.583 3.35659 -1.28737 0
M  V30 2568 C 234.247 3.64849 -2.75198 0
M  V30 2569 C 235.244 3.61757 -3.734 0
M  V30 2570 C 232.929 3.93641 -3.12013 0
M  V30 2571 C 234.923 3.87045 -5.06434 0
M  V30 2572 C 232.61 4.18585 -4.4523 0
M  V30 2573 C 233.608 4.15277 -5.42249 0
M  V30 2574 O 233.296 4.3959 -6.73065 0
M  V30 2575 H 233.028 0.595425 -0.32007 0
M  V30 2576 H 235.582 1.40992 -1.49367 0
M  V30 2577 H 233.812 3.81497 -0.63224 0
M  V30 2578 H 235.501 3.92441 -1.03656 0
M  V30 2579 H 236.267 3.39557 -3.46303 0
M  V30 2580 H 232.146 3.95348 -2.37109 0
M  V30 2581 H 235.69 3.84378 -5.82151 0
M  V30 2582 H 231.587 4.40264 -4.72057 0
M  V30 2583 H 232.355 4.57123 -6.78956 0
M  V30 2584 N 235.018 0.912232 1.28515 0
M  V30 2585 C 235.948 0.416403 2.29757 0
M  V30 2586 C 236.929 -0.515194 1.6211 0
M  V30 2587 O 238.114 -0.423253 1.89532 0
M  V30 2588 C 235.244 -0.34572 3.45575 0
M  V30 2589 C 234.198 0.496599 4.25109 0
M  V30 2590 C 233.524 -0.393771 5.33248 0
M  V30 2591 C 234.824 1.75307 4.92001 0
M  V30 2592 H 236.518 1.26249 2.7148 0
M  V30 2593 H 234.064 0.608515 1.30511 0
M  V30 2594 H 236.017 -0.703422 4.15488 0
M  V30 2595 H 234.741 -1.2257 3.02728 0
M  V30 2596 H 233.4 0.8368 3.56922 0
M  V30 2597 H 233.048 -1.27225 4.86644 0
M  V30 2598 H 232.748 0.166209 5.87365 0
M  V30 2599 H 234.272 -0.747389 6.06009 0
M  V30 2600 H 235.686 1.46437 5.54283 0
M  V30 2601 H 234.083 2.25534 5.56106 0
M  V30 2602 H 235.153 2.48176 4.16577 0
M  V30 2603 N 236.496 -1.42363 0.676048 0
M  V30 2604 C 237.406 -2.346 -0.00153389 0
M  V30 2605 C 238.422 -1.5516 -0.787485 0
M  V30 2606 O 239.598 -1.87723 -0.729521 0
M  V30 2607 C 236.663 -3.33705 -0.940298 0
M  V30 2608 C 235.724 -4.29042 -0.148739 0
M  V30 2609 C 234.957 -5.23413 -1.04279 0
M  V30 2610 O 235.18 -5.22749 -2.28232 0
M  V30 2611 O 234.114 -5.99795 -0.502925 0
M  V30 2612 H 237.94 -2.94082 0.758268 0
M  V30 2613 H 235.525 -1.42888 0.436289 0
M  V30 2614 H 237.407 -3.94586 -1.47917 0
M  V30 2615 H 236.082 -2.76695 -1.67993 0
M  V30 2616 H 234.989 -3.71571 0.43427 0
M  V30 2617 H 236.322 -4.89097 0.551805 0
M  V30 2618 N 237.974 -0.419461 -1.51915 0
M  V30 2619 C 238.921 0.400927 -2.27291 0
M  V30 2620 C 239.891 1.03224 -1.30131 0
M  V30 2621 O 241.076 1.05455 -1.59009 0
M  V30 2622 C 238.216 1.50603 -3.10504 0
M  V30 2623 C 237.329 0.89462 -4.22635 0
M  V30 2624 C 236.464 1.97328 -4.93189 0
M  V30 2625 C 235.503 1.33935 -5.97267 0
M  V30 2626 N 234.64 2.3586 -6.61298 0
M  V30 2627 H 239.48 -0.248251 -2.96964 0
M  V30 2628 H 237.017 -0.134266 -1.46486 0
M  V30 2629 H 238.975 2.15783 -3.57062 0
M  V30 2630 H 237.605 2.12509 -2.42981 0
M  V30 2631 H 236.657 0.131583 -3.80172 0
M  V30 2632 H 237.969 0.391641 -4.9726 0
M  V30 2633 H 237.123 2.70211 -5.43204 0
M  V30 2634 H 235.862 2.50994 -4.18155 0
M  V30 2635 H 234.867 0.595896 -5.46561 0
M  V30 2636 H 236.092 0.810252 -6.74249 0
M  V30 2637 H 234.038 2.88639 -5.89087 0
M  V30 2638 H 233.955 1.90403 -7.3163 0
M  V30 2639 H 235.223 3.08282 -7.15949 0
M  V30 2640 N 239.452 1.56882 -0.150215 0
M  V30 2641 C 240.699 1.96228 0.500093 0
M  V30 2642 C 241.027 1.03522 1.64661 0
M  V30 2643 O 240.282 0.0650683 1.95592 0
M  V30 2644 C 240.581 3.41801 1.04437 0
M  V30 2645 C 240.247 4.50897 0.0159671 0
M  V30 2646 C 238.909 4.8046 -0.266731 0
M  V30 2647 C 241.261 5.16703 -0.683192 0
M  V30 2648 C 238.589 5.73135 -1.25434 0
M  V30 2649 C 240.941 6.10441 -1.65964 0
M  V30 2650 C 239.605 6.38382 -1.95 0
M  V30 2651 H 238.875 0.718048 0.182997 0
M  V30 2652 H 241.522 1.90019 -0.237724 0
M  V30 2653 H 239.827 3.44857 1.85959 0
M  V30 2654 H 241.524 3.69573 1.55618 0
M  V30 2655 H 238.114 4.27891 0.246485 0
M  V30 2656 H 242.298 4.93993 -0.477983 0
M  V30 2657 H 237.554 5.93074 -1.48571 0
M  V30 2658 H 241.728 6.60507 -2.20689 0
M  V30 2659 H 239.355 7.09996 -2.71679 0
M  V30 2660 N 240.93 -0.123565 1.57115 0
M  V30 2661 C 241.86 -1.15309 2.03042 0
M  V30 2662 C 242.841 -1.43454 0.914061 0
M  V30 2663 O 244.026 -1.53973 1.18347 0
M  V30 2664 C 241.156 -2.48043 2.43089 0
M  V30 2665 C 240.11 -2.3437 3.58127 0
M  V30 2666 C 239.436 -3.72026 3.84059 0
M  V30 2667 C 240.736 -1.80804 4.90007 0
M  V30 2668 H 242.43 -0.771102 2.893 0
M  V30 2669 H 239.976 -0.369479 1.39179 0
M  V30 2670 H 241.929 -3.20311 2.73823 0
M  V30 2671 H 240.653 -2.88122 1.53796 0
M  V30 2672 H 239.312 -1.64551 3.27595 0
M  V30 2673 H 238.96 -4.09582 2.91979 0
M  V30 2674 H 238.66 -3.63732 4.6149 0
M  V30 2675 H 240.184 -4.45806 4.1724 0
M  V30 2676 H 241.598 -2.42886 5.19307 0
M  V30 2677 H 239.995 -1.83343 5.71407 0
M  V30 2678 H 241.065 -0.76528 4.78823 0
M  V30 2679 N 242.408 -1.52605 -0.393616 0
M  V30 2680 C 243.636 -1.71294 -1.16043 0
M  V30 2681 C 244.051 -0.429259 -1.83855 0
M  V30 2682 O 243.408 0.595921 -1.72496 0
M  V30 2683 C 243.459 -2.8593 -2.21193 0
M  V30 2684 O 243.18 -4.09329 -1.56146 0
M  V30 2685 C 244.681 -3.16259 -3.10636 0
M  V30 2686 H 241.901 -0.573641 -0.348104 0
M  V30 2687 H 244.445 -1.99234 -0.461092 0
M  V30 2688 H 242.6 -2.60465 -2.86769 0
M  V30 2689 H 243.014 -4.73323 -2.25978 0
M  V30 2690 H 244.488 -3.99946 -3.80456 0
M  V30 2691 H 244.965 -2.3045 -3.73884 0
M  V30 2692 H 245.571 -3.43547 -2.50711 0
M  V30 2693 N 243.887 0.651787 -1.4349 0
M  V30 2694 C 245.135 1.40888 -1.44897 0
M  V30 2695 C 245.456 1.94856 -0.0749086 0
M  V30 2696 O 244.726 1.74518 0.889956 0
M  V30 2697 H 243.306 0.522887 -0.533478 0
M  V30 2698 H 245.968 0.768609 -1.79104 0
M  V30 2699 H 245.064 2.25052 -2.16236 0
M  V30 2700 N 245.365 1.30045 0.890287 0
M  V30 2701 C 246.312 1.15976 1.99545 0
M  V30 2702 C 247.282 0.0506202 1.66023 0
M  V30 2703 O 248.467 0.219847 1.89529 0
M  V30 2704 C 245.607 0.852054 3.34416 0
M  V30 2705 C 244.72 2.04255 3.80662 0
M  V30 2706 C 243.855 1.6734 5.04154 0
M  V30 2707 C 242.894 2.82916 5.42794 0
M  V30 2708 N 242.031 2.46333 6.57468 0
M  V30 2709 H 246.871 2.10524 2.10911 0
M  V30 2710 H 244.408 1.04749 1.03276 0
M  V30 2711 H 246.366 0.654296 4.12037 0
M  V30 2712 H 244.996 -0.0565502 3.2275 0
M  V30 2713 H 244.048 2.35172 2.98995 0
M  V30 2714 H 245.36 2.90826 4.05242 0
M  V30 2715 H 244.514 1.43908 5.89386 0
M  V30 2716 H 243.253 0.779308 4.81433 0
M  V30 2717 H 242.258 3.0702 4.56091 0
M  V30 2718 H 243.483 3.73004 5.6749 0
M  V30 2719 H 241.429 1.59423 6.36334 0
M  V30 2720 H 241.346 3.26436 6.81891 0
M  V30 2721 H 242.614 2.26244 7.45945 0
M  V30 2722 N 246.843 -1.10192 1.12674 0
M  V30 2723 C 248.089 -1.82475 0.884915 0
M  V30 2724 C 248.422 -1.85093 -0.58773 0
M  V30 2725 O 247.697 -1.3134 -1.43457 0
M  V30 2726 C 247.98 -3.29018 1.46353 0
M  V30 2727 C 247.833 -3.34718 3.00473 0
M  V30 2728 C 249.152 -4.25473 1.12519 0
M  V30 2729 H 246.271 -0.662492 0.322915 0
M  V30 2730 H 248.913 -1.2913 1.39375 0
M  V30 2731 H 247.063 -3.74576 1.03077 0
M  V30 2732 H 248.735 -2.97622 3.52447 0
M  V30 2733 H 246.978 -2.74541 3.35872 0
M  V30 2734 H 247.649 -4.37918 3.36053 0
M  V30 2735 H 250.125 -3.88161 1.499 0
M  V30 2736 H 249.001 -5.26365 1.55663 0
M  V30 2737 H 249.262 -4.42084 0.0377407 0
M  V30 2738 N 248.321 -0.919034 -1.28029 0
M  V30 2739 C 249.284 -0.416182 -2.2539 0
M  V30 2740 C 250.284 0.460438 -1.54067 0
M  V30 2741 O 251.474 0.262744 -1.72207 0
M  V30 2742 C 248.606 0.402707 -3.38513 0
M  V30 2743 H 249.799 -1.27629 -2.71387 0
M  V30 2744 H 247.352 -0.698919 -1.39803 0
M  V30 2745 H 248.087 1.282 -2.97885 0
M  V30 2746 H 247.872 -0.225698 -3.9145 0
M  V30 2747 H 249.362 0.745191 -4.10897 0
M  V30 2748 N 249.799 1.42003 -0.683588 0
M  V30 2749 C 251.029 2.05448 -0.217866 0
M  V30 2750 C 251.437 1.51491 1.13346 0
M  V30 2751 O 250.78 0.653048 1.717 0
M  V30 2752 C 250.842 3.59399 -0.0850118 0
M  V30 2753 C 250.506 4.36093 -1.36645 0
M  V30 2754 C 251.503 4.66169 -2.30179 0
M  V30 2755 C 249.188 4.75578 -1.61649 0
M  V30 2756 C 251.182 5.34676 -3.46988 0
M  V30 2757 C 248.869 5.43824 -2.78745 0
M  V30 2758 C 249.867 5.73299 -3.71238 0
M  V30 2759 O 249.555 6.40142 -4.86285 0
M  V30 2760 H 249.287 0.668344 -0.101454 0
M  V30 2761 H 251.841 1.82974 -0.933248 0
M  V30 2762 H 250.071 3.80566 0.686031 0
M  V30 2763 H 251.76 4.04457 0.341973 0
M  V30 2764 H 252.526 4.36156 -2.12115 0
M  V30 2765 H 248.405 4.52025 -0.905243 0
M  V30 2766 H 251.949 5.57599 -4.19201 0
M  V30 2767 H 247.846 5.73254 -2.96732 0
M  V30 2768 H 248.614 6.58636 -4.85944 0
M  V30 2769 N 251.277 0.427512 1.51691 0
M  V30 2770 C 252.525 -0.141948 2.01601 0
M  V30 2771 C 252.846 -1.44067 1.31414 0
M  V30 2772 O 252.116 -1.90763 0.445658 0
M  V30 2773 H 250.696 -0.0554468 0.744939 0
M  V30 2774 H 253.358 0.567968 1.86441 0
M  V30 2775 H 252.454 -0.324913 3.10404 0
M  V30 2776 N 252.755 -1.56801 0.158532 0
M  V30 2777 C 253.98 -2.01295 -0.499516 0
M  V30 2778 C 254.405 -1.03799 -1.56867 0
M  V30 2779 O 253.763 -0.0155162 -1.81293 0
M  V30 2780 C 253.811 -3.44469 -1.06647 0
M  V30 2781 O 252.915 -3.50012 -2.18095 0
M  V30 2782 H 252.256 -0.652884 -0.12099 0
M  V30 2783 H 254.786 -2.02958 0.258661 0
M  V30 2784 H 254.796 -3.8351 -1.39227 0
M  V30 2785 H 253.471 -4.14932 -0.283581 0
M  V30 2786 H 252.048 -3.22822 -1.86656 0
M  V30 2787 N 254.233 0.115231 -1.57178 0
M  V30 2788 C 255.479 0.818565 -1.86202 0
M  V30 2789 C 255.834 1.77316 -0.746785 0
M  V30 2790 O 255.127 1.89923 0.25291 0
M  V30 2791 C 255.321 1.60324 -3.19423 0
M  V30 2792 C 255.15 0.726138 -4.43799 0
M  V30 2793 C 253.92 0.379535 -5.03873 0
M  V30 2794 C 256.118 0.0420774 -5.14283 0
M  V30 2795 N 254.1 -0.507841 -6.11796 0
M  V30 2796 C 255.471 -0.704152 -6.15988 0
M  V30 2797 C 257.526 -0.0339486 -4.97888 0
M  V30 2798 C 256.229 -1.51927 -7.03072 0
M  V30 2799 C 258.255 -0.835906 -5.85463 0
M  V30 2800 C 257.617 -1.57031 -6.86673 0
M  V30 2801 H 253.716 0.276343 -0.731545 0
M  V30 2802 H 256.3 0.0821032 -1.94527 0
M  V30 2803 H 254.471 2.31072 -3.12186 0
M  V30 2804 H 256.203 2.2522 -3.36241 0
M  V30 2805 H 252.958 0.722634 -4.68054 0
M  V30 2806 H 253.382 -0.94349 -6.70393 0
M  V30 2807 H 258.024 0.519496 -4.19596 0
M  V30 2808 H 255.742 -2.08386 -7.80769 0
M  V30 2809 H 259.328 -0.89714 -5.74841 0
M  V30 2810 H 258.208 -2.18088 -7.53264 0
M  V30 2811 N 255.711 1.52812 0.385517 0
M  V30 2812 C 256.958 1.68026 1.1302 0
M  V30 2813 C 257.286 0.421934 1.89868 0
M  V30 2814 O 256.541 -0.595749 1.86412 0
M  V30 2815 C 256.84 2.86856 2.13187 0
M  V30 2816 C 256.506 4.24159 1.5297 0
M  V30 2817 C 255.168 4.61501 1.36274 0
M  V30 2818 C 257.52 5.09627 1.09223 0
M  V30 2819 C 254.848 5.81966 0.743837 0
M  V30 2820 C 257.2 6.30719 0.487411 0
M  V30 2821 C 255.864 6.6679 0.307777 0
M  V30 2822 H 255.134 0.614849 0.413571 0
M  V30 2823 H 257.781 1.86962 0.414405 0
M  V30 2824 H 256.086 2.6235 2.90998 0
M  V30 2825 H 257.783 2.95821 2.70722 0
M  V30 2826 H 254.373 3.94746 1.66954 0
M  V30 2827 H 258.557 4.81343 1.20922 0
M  V30 2828 H 253.813 6.08519 0.592891 0
M  V30 2829 H 257.987 6.96259 0.140143 0
M  V30 2830 H 255.614 7.60001 -0.173879 0
M  V30 2831 N 257.189 -0.644168 1.43834 0
M  V30 2832 C 258.417 -1.43147 1.49387 0
M  V30 2833 C 258.832 -1.88452 0.114583 0
M  V30 2834 O 258.189 -1.60047 -0.876989 0
M  V30 2835 C 258.24 -2.66046 2.44748 0
M  V30 2836 O 257.961 -2.22633 3.77314 0
M  V30 2837 C 259.462 -3.59311 2.59635 0
M  V30 2838 H 256.682 -0.439447 0.507077 0
M  V30 2839 H 259.226 -0.78895 1.88669 0
M  V30 2840 H 257.381 -3.26418 2.08638 0
M  V30 2841 H 257.795 -3.02216 4.28679 0
M  V30 2842 H 259.269 -4.42187 3.30416 0
M  V30 2843 H 259.746 -4.07259 1.64427 0
M  V30 2844 H 260.352 -3.04816 2.96593 0
M  V30 2845 N 258.668 -1.30515 -0.883378 0
M  V30 2846 C 259.618 -1.13641 -1.9766 0
M  V30 2847 C 260.602 -0.0511314 -1.60819 0
M  V30 2848 O 261.794 -0.274623 -1.74857 0
M  V30 2849 C 258.923 -0.831976 -3.33066 0
M  V30 2850 C 258.009 -1.95759 -3.76217 0
M  V30 2851 N 258.4 -3.20313 -3.9145 0
M  V30 2852 C 256.698 -1.85431 -4.05625 0
M  V30 2853 C 257.399 -3.93856 -4.2808 0
M  V30 2854 N 256.375 -3.21919 -4.38029 0
M  V30 2855 H 260.177 -2.08106 -2.07531 0
M  V30 2856 H 257.691 -1.21877 -1.0733 0
M  V30 2857 H 259.688 -0.692102 -4.11115 0
M  V30 2858 H 258.348 0.104588 -3.24532 0
M  V30 2859 H 259.359 -3.55583 -3.76538 0
M  V30 2860 H 256.036 -0.991531 -4.05555 0
M  V30 2861 H 257.426 -5.01125 -4.47575 0
M  V30 2862 N 260.146 1.09593 -1.13257 0
M  V30 2863 C 261.392 1.82003 -0.89458 0
M  V30 2864 C 261.725 1.85402 0.577906 0
M  V30 2865 O 261 1.32099 1.42759 0
M  V30 2866 C 261.283 3.28237 -1.48096 0
M  V30 2867 C 261.136 3.3312 -3.02244 0
M  V30 2868 C 262.455 4.24871 -1.14774 0
M  V30 2869 H 259.574 0.66077 -0.326424 0
M  V30 2870 H 262.216 1.28389 -1.40058 0
M  V30 2871 H 260.366 3.74024 -1.05062 0
M  V30 2872 H 262.038 2.95748 -3.54021 0
M  V30 2873 H 260.281 2.72756 -3.37323 0
M  V30 2874 H 260.952 4.3613 -3.38371 0
M  V30 2875 H 263.428 3.87361 -1.51957 0
M  V30 2876 H 262.304 5.25532 -1.58452 0
M  V30 2877 H 262.565 4.42058 -0.0611849 0
M  V30 2878 N 261.624 0.925811 1.2754 0
M  V30 2879 C 262.571 0.422045 2.26908 0
M  V30 2880 C 263.541 -0.510029 1.58076 0
M  V30 2881 O 264.726 -0.429599 1.85901 0
M  V30 2882 C 261.866 -0.320837 3.43605 0
M  V30 2883 C 260.979 0.64513 4.27156 0
M  V30 2884 C 260.114 -0.117405 5.3107 0
M  V30 2885 C 259.153 0.841391 6.0629 0
M  V30 2886 N 258.29 0.111604 7.02011 0
M  V30 2887 H 263.13 1.27441 2.69375 0
M  V30 2888 H 260.667 0.639697 1.32462 0
M  V30 2889 H 262.625 -0.76785 4.10073 0
M  V30 2890 H 261.255 -1.13745 3.02096 0
M  V30 2891 H 260.307 1.21067 3.6062 0
M  V30 2892 H 261.619 1.37797 4.79389 0
M  V30 2893 H 260.773 -0.624422 6.03478 0
M  V30 2894 H 259.512 -0.883219 4.79636 0
M  V30 2895 H 258.517 1.35967 5.32722 0
M  V30 2896 H 259.742 1.60696 6.59813 0
M  V30 2897 H 257.688 -0.635999 6.5291 0
M  V30 2898 H 257.605 0.784044 7.51923 0
M  V30 2899 H 258.873 -0.374823 7.78598 0
M  V30 2900 N 263.102 -1.41638 0.69111 0
M  V30 2901 C 264.05 -2.32597 0.0115199 0
M  V30 2902 C 265.044 -1.5072 -0.773296 0
M  V30 2903 O 266.25 -1.66685 -0.67942 0
M  V30 2904 H 262.625 -0.751849 -0.0150746 0
M  V30 2905 H 264.596 -2.87593 0.795791 0
M  V30 2906 C 263.345 -3.35467 -0.914172 0
M  V30 2907 H 262.668 -3.9852 -0.319687 0
M  V30 2908 H 264.108 -4.01662 -1.35808 0
M  V30 2909 C 262.567 -2.69004 -2.02826 0
M  V30 2910 O 263.097 -2.53444 -3.11655 0
M  V30 2911 N 261.303 -2.2777 -1.80469 0
M  V30 2912 H 260.85 -2.40626 -0.919615 0
M  V30 2913 H 260.808 -1.83635 -2.55197 0
M  V30 2914 N 264.58 -0.43555 -1.51462 0
M  V30 2915 C 265.826 0.123979 -2.03022 0
M  V30 2916 C 266.181 1.4054 -1.31401 0
M  V30 2917 O 265.474 1.86948 -0.419634 0
M  V30 2918 C 265.668 0.39942 -3.55161 0
M  V30 2919 C 265.497 -0.853754 -4.41521 0
M  V30 2920 C 264.267 -1.38675 -4.85898 0
M  V30 2921 C 266.465 -1.73939 -4.83994 0
M  V30 2922 N 264.447 -2.59265 -5.56466 0
M  V30 2923 C 265.818 -2.79135 -5.5361 0
M  V30 2924 C 267.873 -1.75402 -4.65981 0
M  V30 2925 C 266.576 -3.85737 -6.07124 0
M  V30 2926 C 268.602 -2.80938 -5.20411 0
M  V30 2927 C 267.964 -3.84854 -5.89972 0
M  V30 2928 H 264.063 0.00624887 -0.781975 0
M  V30 2929 H 266.647 -0.59582 -1.85359 0
M  V30 2930 H 264.818 1.08825 -3.72843 0
M  V30 2931 H 266.55 0.95015 -3.93388 0
M  V30 2932 H 263.305 -0.94094 -4.64159 0
M  V30 2933 H 263.729 -3.2041 -5.96378 0
M  V30 2934 H 268.371 -0.963926 -4.11665 0
M  V30 2935 H 266.089 -4.65586 -6.60496 0
M  V30 2936 H 269.675 -2.8301 -5.08327 0
M  V30 2937 H 268.555 -4.65176 -6.31333 0
M  V30 2938 N 266.058 1.56714 -0.166846 0
M  V30 2939 C 267.304 1.97813 0.473473 0
M  V30 2940 C 267.659 1.05095 1.61161 0
M  V30 2941 O 266.952 0.0897541 1.9139 0
M  V30 2942 C 267.146 3.42889 1.00806 0
M  V30 2943 C 266.975 4.49635 -0.0767392 0
M  V30 2944 C 265.745 5.02566 -0.524894 0
M  V30 2945 C 267.943 5.06793 -0.875504 0
M  V30 2946 N 265.925 5.9294 -1.59047 0
M  V30 2947 C 267.296 5.93565 -1.79111 0
M  V30 2948 C 269.351 4.89306 -0.921083 0
M  V30 2949 C 268.054 6.64721 -2.74843 0
M  V30 2950 C 270.08 5.61179 -1.86633 0
M  V30 2951 C 269.442 6.47675 -2.76942 0
M  V30 2952 H 265.541 0.769093 0.141489 0
M  V30 2953 H 268.125 1.92874 -0.266031 0
M  V30 2954 H 266.296 3.48382 1.7171 0
M  V30 2955 H 268.028 3.71008 1.61664 0
M  V30 2956 H 264.783 4.73439 -0.123432 0
M  V30 2957 H 265.207 6.42831 -2.12361 0
M  V30 2958 H 269.849 4.22136 -0.23692 0
M  V30 2959 H 267.567 7.31107 -3.44249 0
M  V30 2960 H 271.153 5.49636 -1.90764 0
M  V30 2961 H 270.033 7.02313 -3.48893 0
M  V30 2962 N 267.536 -0.106894 1.57237 0
M  V30 2963 C 268.483 -1.13049 2.01217 0
M  V30 2964 C 269.453 -1.40471 0.886403 0
M  V30 2965 O 270.638 -1.52133 1.15153 0
M  V30 2966 C 267.778 -2.4487 2.43172 0
M  V30 2967 C 266.891 -2.24281 3.69218 0
M  V30 2968 C 266.026 -3.49417 4.00101 0
M  V30 2969 C 265.065 -3.24038 5.19294 0
M  V30 2970 N 264.202 -4.41409 5.45988 0
M  V30 2971 H 269.042 -0.748456 2.88448 0
M  V30 2972 H 266.579 -0.358054 1.42676 0
M  V30 2973 H 268.537 -3.21786 2.65537 0
M  V30 2974 H 267.167 -2.80944 1.58967 0
M  V30 2975 H 266.219 -1.38224 3.54398 0
M  V30 2976 H 267.531 -2.01512 4.56283 0
M  V30 2977 H 266.685 -4.34746 4.2318 0
M  V30 2978 H 265.424 -3.75229 3.11535 0
M  V30 2979 H 264.429 -2.37102 4.96047 0
M  V30 2980 H 265.654 -2.99584 6.09447 0
M  V30 2981 H 263.6 -4.67319 4.60379 0
M  V30 2982 H 263.517 -4.21788 6.274 0
M  V30 2983 H 264.785 -5.27836 5.73593 0
M  V30 2984 N 269.014 -1.53014 -0.377408 0
M  V30 2985 C 269.961 -1.78616 -1.46168 0
M  V30 2986 C 270.931 -0.629917 -1.53692 0
M  V30 2987 O 272.116 -0.870861 -1.69766 0
M  V30 2988 C 269.256 -1.97123 -2.8326 0
M  V30 2989 C 268.369 -3.24831 -2.84796 0
M  V30 2990 C 267.504 -3.33591 -4.13389 0
M  V30 2991 C 266.543 -4.55377 -4.09021 0
M  V30 2992 N 265.68 -4.61355 -5.29241 0
M  V30 2993 H 270.52 -2.71142 -1.23637 0
M  V30 2994 H 268.057 -1.34326 -0.599577 0
M  V30 2995 H 270.015 -2.05839 -3.62886 0
M  V30 2996 H 268.645 -1.07946 -3.04216 0
M  V30 2997 H 267.697 -3.25128 -1.97474 0
M  V30 2998 H 269.009 -4.14523 -2.77439 0
M  V30 2999 H 268.163 -3.41554 -5.01424 0
M  V30 3000 H 266.902 -2.41894 -4.23484 0
M  V30 3001 H 265.907 -4.47527 -3.19373 0
M  V30 3002 H 267.132 -5.48402 -4.00539 0
M  V30 3003 H 265.078 -3.72554 -5.39944 0
M  V30 3004 H 264.995 -5.44935 -5.24006 0
M  V30 3005 H 266.263 -4.73586 -6.19141 0
M  V30 3006 N 270.492 0.636531 -1.44174 0
M  V30 3007 C 271.439 1.74875 -1.50624 0
M  V30 3008 C 272.409 1.62275 -0.35442 0
M  V30 3009 O 273.594 1.82276 -0.563908 0
M  V30 3010 C 270.734 3.13102 -1.45125 0
M  V30 3011 C 269.847 3.36717 -2.7064 0
M  V30 3012 C 268.982 4.64885 -2.57013 0
M  V30 3013 C 268.021 4.8166 -3.77717 0
M  V30 3014 N 267.158 6.01101 -3.62798 0
M  V30 3015 H 271.998 1.68697 -2.45653 0
M  V30 3016 H 269.535 0.823004 -1.21922 0
M  V30 3017 H 271.493 3.93034 -1.39929 0
M  V30 3018 H 270.123 3.18308 -0.536671 0
M  V30 3019 H 269.175 2.50763 -2.86046 0
M  V30 3020 H 270.487 3.44993 -3.60252 0
M  V30 3021 H 269.641 5.52969 -2.49619 0
M  V30 3022 H 268.38 4.58957 -1.64953 0
M  V30 3023 H 267.385 3.92007 -3.85501 0
M  V30 3024 H 268.61 4.89406 -4.70807 0
M  V30 3025 H 266.556 5.96273 -2.73486 0
M  V30 3026 H 266.473 6.10409 -4.46023 0
M  V30 3027 H 267.741 6.91761 -3.59286 0
M  V30 3028 N 271.97 1.30982 0.876444 0
M  V30 3029 C 272.88 1.2003 2.01569 0
M  V30 3030 C 273.896 0.11838 1.73597 0
M  V30 3031 O 275.072 0.33495 1.98595 0
M  V30 3032 C 272.137 0.901637 3.34771 0
M  V30 3033 C 271.198 2.06979 3.76109 0
M  V30 3034 C 270.431 1.78529 5.02954 0
M  V30 3035 O 270.654 0.717296 5.65872 0
M  V30 3036 O 269.588 2.64019 5.40905 0
M  V30 3037 H 273.414 2.15753 2.13739 0
M  V30 3038 H 270.999 1.10658 1.00375 0
M  V30 3039 H 272.881 0.750645 4.1466 0
M  V30 3040 H 271.556 -0.0256141 3.2369 0
M  V30 3041 H 270.463 2.27616 2.96887 0
M  V30 3042 H 271.796 2.97907 3.91807 0
M  V30 3043 N 273.449 -1.08991 1.13837 0
M  V30 3044 C 274.359 -2.19301 0.833333 0
M  V30 3045 C 275.375 -1.73026 -0.183847 0
M  V30 3046 O 276.551 -2.01395 -0.0138092 0
M  V30 3047 C 273.616 -3.45323 0.308651 0
M  V30 3048 C 272.677 -4.06255 1.38764 0
M  V30 3049 C 271.91 -5.26262 0.887896 0
M  V30 3050 O 272.133 -5.69747 -0.27287 0
M  V30 3051 O 271.067 -5.78435 1.66421 0
M  V30 3052 H 274.893 -2.47854 1.75506 0
M  V30 3053 H 272.478 -1.18012 0.916166 0
M  V30 3054 H 274.36 -4.21394 0.0216739 0
M  V30 3055 H 273.035 -3.18362 -0.585431 0
M  V30 3056 H 271.942 -3.318 1.72799 0
M  V30 3057 H 273.275 -4.37452 2.25602 0
M  V30 3058 N 274.927 -0.932562 -1.27047 0
M  V30 3059 C 275.877 -0.406392 -2.24349 0
M  V30 3060 C 276.861 0.492066 -1.53191 0
M  V30 3061 O 278.053 0.328717 -1.73921 0
M  V30 3062 C 275.182 0.335214 -3.41659 0
M  V30 3063 C 274.268 -0.58004 -4.20115 0
M  V30 3064 N 274.659 -1.70203 -4.76303 0
M  V30 3065 C 272.957 -0.383974 -4.44344 0
M  V30 3066 C 273.658 -2.27167 -5.35509 0
M  V30 3067 N 272.634 -1.56068 -5.20715 0
M  V30 3068 H 276.436 -1.26299 -2.65378 0
M  V30 3069 H 273.95 -0.787408 -1.42034 0
M  V30 3070 H 275.947 0.729142 -4.10474 0
M  V30 3071 H 274.607 1.18868 -3.0216 0
M  V30 3072 H 275.618 -2.08433 -4.74106 0
M  V30 3073 H 272.295 0.428436 -4.15296 0
M  V30 3074 H 273.685 -3.21654 -5.89905 0
M  V30 3075 N 276.405 1.4127 -0.698611 0
M  V30 3076 C 277.816 1.84187 -0.305289 0
M  V30 3077 C 278.167 1.58449 1.15708 0
M  V30 3078 O 277.292 1.05651 1.88856 0
M  V30 3079 C 277.887 3.3435 -0.547314 0
M  V30 3080 C 276.446 3.75826 -0.207878 0
M  V30 3081 C 275.593 2.64647 -0.828099 0
M  V30 3082 H 278.544 1.30778 -0.89904 0
M  V30 3083 H 278.565 3.8001 0.192998 0
M  V30 3084 H 278.077 3.53051 -1.61172 0
M  V30 3085 H 276.178 3.62725 0.852143 0
M  V30 3086 H 276.291 4.74462 -0.665021 0
M  V30 3087 H 274.655 2.53395 -0.257458 0
M  V30 3088 H 275.438 2.86165 -1.89643 0
M  V30 3089 N 277.883 0.443576 1.51229 0
M  V30 3090 C 279.132 -0.122332 2.01329 0
M  V30 3091 C 279.445 -1.43237 1.33201 0
M  V30 3092 O 280.651 -2.0816 1.74304 0
M  V30 3093 C 279.107 -0.268551 3.58897 0
M  V30 3094 C 278.715 1.03142 4.35965 0
M  V30 3095 C 280.459 -0.787894 4.17124 0
M  V30 3096 C 278.366 0.850504 5.85252 0
M  V30 3097 H 277.296 -0.0494929 0.752374 0
M  V30 3098 H 279.947 0.574289 1.74282 0
M  V30 3099 H 278.329 -1.02832 3.82415 0
M  V30 3100 H 279.503 1.80001 4.24189 0
M  V30 3101 H 277.818 1.47977 3.89219 0
M  V30 3102 H 280.415 -0.939841 5.26375 0
M  V30 3103 H 280.758 -1.77201 3.76703 0
M  V30 3104 H 281.291 -0.0862669 3.97706 0
M  V30 3105 H 278.03 1.80718 6.30096 0
M  V30 3106 H 277.55 0.121825 5.99676 0
M  V30 3107 H 279.229 0.506163 6.45017 0
M  V30 3108 N 279.361 -1.56624 0.175154 0
M  V30 3109 C 280.291 -2.21155 -0.749195 0
M  V30 3110 C 281.272 -1.16836 -1.23626 0
M  V30 3111 O 282.457 -1.45277 -1.28873 0
M  V30 3112 C 279.587 -2.8553 -1.97711 0
M  V30 3113 C 278.541 -3.95921 -1.62575 0
M  V30 3114 C 277.867 -4.47365 -2.92864 0
M  V30 3115 C 279.167 -5.15323 -0.850838 0
M  V30 3116 H 280.861 -2.98653 -0.211295 0
M  V30 3117 H 278.407 -1.43651 -0.100188 0
M  V30 3118 H 280.36 -3.2935 -2.62881 0
M  V30 3119 H 279.084 -2.05406 -2.53921 0
M  V30 3120 H 277.743 -3.52762 -0.997719 0
M  V30 3121 H 277.391 -3.64027 -3.47122 0
M  V30 3122 H 277.091 -5.21839 -2.70106 0
M  V30 3123 H 278.615 -4.93873 -3.59056 0
M  V30 3124 H 280.029 -5.55812 -1.40521 0
M  V30 3125 H 278.426 -5.95739 -0.722154 0
M  V30 3126 H 279.496 -4.84661 0.152082 0
M  V30 3127 N 280.839 0.0985539 -1.57292 0
M  V30 3128 C 282.086 0.802678 -1.85912 0
M  V30 3129 C 282.414 1.78901 -0.763186 0
M  V30 3130 O 281.669 1.94178 0.243559 0
M  V30 3131 C 281.968 1.56927 -3.21105 0
M  V30 3132 C 281.634 0.725376 -4.45027 0
M  V30 3133 C 280.296 0.492726 -4.78671 0
M  V30 3134 C 282.648 0.138493 -5.21016 0
M  V30 3135 C 279.976 -0.336727 -5.85733 0
M  V30 3136 C 282.328 -0.678264 -6.28953 0
M  V30 3137 C 280.992 -0.921039 -6.61115 0
M  V30 3138 H 280.262 0.293721 -0.680301 0
M  V30 3139 H 282.909 0.0642841 -1.91392 0
M  V30 3140 H 281.214 2.37914 -3.11294 0
M  V30 3141 H 282.911 2.11841 -3.40477 0
M  V30 3142 H 279.501 0.916815 -4.18679 0
M  V30 3143 H 283.685 0.305404 -4.95359 0
M  V30 3144 H 278.941 -0.533836 -6.09065 0
M  V30 3145 H 283.115 -1.1399 -6.87007 0
M  V30 3146 H 280.742 -1.56556 -7.43905 0
M  V30 3147 N 282.317 1.53212 0.369288 0
M  V30 3148 C 283.247 1.82365 1.45826 0
M  V30 3149 C 284.228 0.676907 1.56051 0
M  V30 3150 O 285.413 0.926401 1.70679 0
M  V30 3151 C 282.543 2.01023 2.83208 0
M  V30 3152 C 281.497 3.1678 2.8781 0
M  V30 3153 C 280.823 3.20724 4.27832 0
M  V30 3154 C 282.123 4.55447 2.55667 0
M  V30 3155 H 283.817 2.73559 1.21678 0
M  V30 3156 H 281.363 1.3163 0.583911 0
M  V30 3157 H 283.316 2.20001 3.59413 0
M  V30 3158 H 282.04 1.06536 3.08736 0
M  V30 3159 H 280.699 2.97616 2.14056 0
M  V30 3160 H 280.347 2.23882 4.50429 0
M  V30 3161 H 280.047 3.98496 4.31827 0
M  V30 3162 H 281.571 3.41881 5.05915 0
M  V30 3163 H 282.985 4.74611 3.21586 0
M  V30 3164 H 281.382 5.35432 2.70984 0
M  V30 3165 H 282.452 4.60812 1.5093 0
M  V30 3166 N 283.795 -0.628877 1.44509 0
M  V30 3167 C 285.025 -1.41349 1.50678 0
M  V30 3168 C 285.433 -1.88745 0.131075 0
M  V30 3169 O 284.776 -1.61592 -0.87371 0
M  V30 3170 C 284.838 -2.66608 2.41165 0
M  V30 3171 C 284.502 -2.40993 3.88293 0
M  V30 3172 C 285.499 -2.0268 4.78766 0
M  V30 3173 C 283.184 -2.54563 4.33016 0
M  V30 3174 C 285.178 -1.78269 6.11963 0
M  V30 3175 C 282.865 -2.29766 5.6626 0
M  V30 3176 C 283.863 -1.91678 6.55552 0
M  V30 3177 O 283.551 -1.67158 7.86329 0
M  V30 3178 H 283.283 -0.439851 0.51333 0
M  V30 3179 H 285.837 -0.776084 1.90174 0
M  V30 3180 H 284.067 -3.32994 1.96601 0
M  V30 3181 H 285.756 -3.28615 2.38259 0
M  V30 3182 H 286.522 -1.91751 4.45485 0
M  V30 3183 H 282.401 -2.83179 3.63773 0
M  V30 3184 H 285.945 -1.48465 6.81619 0
M  V30 3185 H 281.842 -2.40306 5.99102 0
M  V30 3186 H 282.61 -1.81386 7.98149 0
M  V30 3187 N 285.273 -1.31445 -0.869486 0
M  V30 3188 C 286.503 -1.23942 -1.65294 0
M  V30 3189 C 286.911 0.197561 -1.88166 0
M  V30 3190 O 286.254 1.14019 -1.44033 0
M  V30 3191 C 286.316 -1.91385 -3.04322 0
M  V30 3192 C 285.98 -3.40726 -3.04557 0
M  V30 3193 C 286.977 -4.36464 -2.82481 0
M  V30 3194 C 284.662 -3.82425 -3.25663 0
M  V30 3195 C 286.656 -5.71876 -2.8149 0
M  V30 3196 C 284.343 -5.1795 -3.243 0
M  V30 3197 C 285.341 -6.12486 -3.02241 0
M  V30 3198 O 285.029 -7.45534 -3.00724 0
M  V30 3199 H 284.761 -0.429459 -0.522054 0
M  V30 3200 H 287.315 -1.73873 -1.0935 0
M  V30 3201 H 285.545 -1.36004 -3.61994 0
M  V30 3202 H 287.234 -1.77791 -3.64891 0
M  V30 3203 H 288 -4.05576 -2.65956 0
M  V30 3204 H 283.879 -3.09274 -3.41863 0
M  V30 3205 H 287.423 -6.45638 -2.64191 0
M  V30 3206 H 283.32 -5.48473 -3.40365 0
M  V30 3207 H 284.088 -7.54713 -3.16782 0
M  V30 3208 N 286.751 1.08385 -1.14413 0
M  V30 3209 C 287.661 2.18856 -0.844951 0
M  V30 3210 C 288.677 1.73121 0.174668 0
M  V30 3211 O 289.853 2.014 0.00312857 0
M  V30 3212 C 286.918 3.45155 -0.32696 0
M  V30 3213 C 285.979 4.05513 -1.40916 0
M  V30 3214 C 285.212 5.25784 -0.915793 0
M  V30 3215 O 285.435 5.69884 0.242651 0
M  V30 3216 O 284.369 5.77545 -1.69487 0
M  V30 3217 H 288.195 2.46919 -1.76818 0
M  V30 3218 H 285.78 1.17524 -0.922411 0
M  V30 3219 H 287.662 4.21377 -0.0440211 0
M  V30 3220 H 286.337 3.18668 0.568539 0
M  V30 3221 H 285.244 3.30879 -1.74556 0
M  V30 3222 H 286.577 4.3625 -2.27919 0
M  V30 3223 N 288.23 0.939286 1.26551 0
M  V30 3224 C 289.507 0.5038 1.89001 0
M  V30 3225 C 289.887 -1.01854 1.84903 0
M  V30 3226 O 289.235 -1.87773 1.30206 0
M  V30 3227 C 289.445 1.063 3.32417 0
M  V30 3228 C 290.793 1.13051 4.09273 0
M  V30 3229 O 291.817 1.01345 3.41479 0
M  V30 3230 O 290.676 1.31233 5.30509 0
M  V30 3231 H 287.77 0.163897 0.810597 0
M  V30 3232 H 290.316 1.03173 1.34735 0
M  V30 3233 H 289.088 2.10665 3.29752 0
M  V30 3234 H 288.711 0.517408 3.94219 0
M  V30 3235 N 289.708 -1.40897 0.706093 0
M  V30 3236 C 290.641 -2.282 -0.00328781 0
M  V30 3237 C 291.619 -1.42816 -0.77732 0
M  V30 3238 O 292.803 -1.72237 -0.765944 0
M  V30 3239 C 289.93 -3.23226 -1.01205 0
M  V30 3240 C 288.976 -4.25222 -0.329955 0
M  V30 3241 S 289.809 -5.27269 0.935298 0
M  V30 3242 C 290.965 -6.25859 -0.0716061 0
M  V30 3243 H 291.198 -2.88016 0.737143 0
M  V30 3244 H 288.731 -1.46191 0.496756 0
M  V30 3245 H 290.689 -3.78503 -1.58888 0
M  V30 3246 H 289.35 -2.62485 -1.72513 0
M  V30 3247 H 288.543 -4.92023 -1.09221 0
M  V30 3248 H 288.145 -3.73595 0.174069 0
M  V30 3249 H 290.437 -6.71204 -0.921521 0
M  V30 3250 H 291.38 -7.0586 0.562765 0
M  V30 3251 H 291.788 -5.62852 -0.431088 0
M  V30 3252 N 291.186 -0.45159 -1.50991 0
M  V30 3253 C 292.133 0.352625 -2.2809 0
M  V30 3254 C 293.103 1.0044 -1.32291 0
M  V30 3255 O 294.288 1.02058 -1.6121 0
M  V30 3256 C 291.428 1.43983 -3.13629 0
M  V30 3257 C 290.541 0.804772 -4.24438 0
M  V30 3258 C 289.676 1.86822 -4.97263 0
M  V30 3259 C 288.715 1.21236 -5.99973 0
M  V30 3260 N 287.852 2.2178 -6.66152 0
M  V30 3261 H 292.692 -0.311186 -2.96371 0
M  V30 3262 H 290.229 -0.165308 -1.46168 0
M  V30 3263 H 292.187 2.08161 -3.61559 0
M  V30 3264 H 290.817 2.07307 -2.47434 0
M  V30 3265 H 289.869 0.0509129 -3.80366 0
M  V30 3266 H 291.181 0.286076 -4.97979 0
M  V30 3267 H 290.335 2.58628 -5.48813 0
M  V30 3268 H 289.074 2.42068 -4.23385 0
M  V30 3269 H 288.079 0.479828 -5.47702 0
M  V30 3270 H 289.304 0.667051 -6.75816 0
M  V30 3271 H 287.25 2.76079 -5.95077 0
M  V30 3272 H 287.167 1.74841 -7.35504 0
M  V30 3273 H 288.435 2.93026 -7.22327 0
M  V30 3274 N 292.664 1.56529 -0.183458 0
M  V30 3275 C 293.574 2.22144 0.754272 0
M  V30 3276 C 294.59 1.21684 1.24374 0
M  V30 3277 O 295.766 1.54385 1.29333 0
M  V30 3278 C 292.831 2.85884 1.96141 0
M  V30 3279 C 291.892 4.01579 1.51765 0
M  V30 3280 C 291.125 4.6227 2.66725 0
M  V30 3281 O 291.348 4.21865 3.83909 0
M  V30 3282 O 290.282 5.51936 2.40104 0
M  V30 3283 H 294.108 3.02861 0.225527 0
M  V30 3284 H 291.693 1.49331 0.0453032 0
M  V30 3285 H 293.575 3.26253 2.66715 0
M  V30 3286 H 292.25 2.08154 2.47899 0
M  V30 3287 H 291.157 3.65856 0.781049 0
M  V30 3288 H 292.49 4.80938 1.04686 0
M  V30 3289 N 294.142 -0.090211 1.57342 0
M  V30 3290 C 295.09 -1.12792 2.03422 0
M  V30 3291 C 296.084 -1.41182 0.936166 0
M  V30 3292 O 297.29 -1.40805 1.12133 0
M  V30 3293 H 293.665 -0.380986 0.648347 0
M  V30 3294 H 295.636 -0.71299 2.89757 0
M  V30 3295 C 294.385 -2.43855 2.47851 0
M  V30 3296 H 293.708 -2.22855 3.31927 0
M  V30 3297 H 295.148 -3.14955 2.83865 0
M  V30 3298 C 293.607 -3.08503 1.3538 0
M  V30 3299 O 294.137 -3.95805 0.685641 0
M  V30 3300 N 292.343 -2.68831 1.10355 0
M  V30 3301 H 291.89 -1.97929 1.64869 0
M  V30 3302 H 291.848 -3.12412 0.353031 0
M  V30 3303 N 295.62 -1.53406 -0.361157 0
M  V30 3304 C 297.031 -1.61442 -0.937728 0
M  V30 3305 C 297.382 -0.48461 -1.90121 0
M  V30 3306 O 296.507 0.388312 -2.12888 0
M  V30 3307 C 297.102 -2.92624 -1.70753 0
M  V30 3308 C 295.661 -3.02981 -2.23337 0
M  V30 3309 C 294.808 -2.5677 -1.04712 0
M  V30 3310 H 297.759 -1.58083 -0.139816 0
M  V30 3311 H 297.78 -2.80675 -2.56908 0
M  V30 3312 H 297.292 -3.74834 -1.00604 0
M  V30 3313 H 295.393 -2.25368 -2.96715 0
M  V30 3314 H 295.506 -4.0814 -2.50916 0
M  V30 3315 H 293.87 -2.11752 -1.41539 0
M  V30 3316 H 294.653 -3.41402 -0.360539 0
M  V30 3317 N 297.098 0.621204 -1.44841 0
M  V30 3318 C 298.045 1.73267 -1.5247 0
M  V30 3319 C 299.015 1.6189 -0.371611 0
M  V30 3320 O 300.2 1.81668 -0.58321 0
M  V30 3321 C 297.34 3.11545 -1.48438 0
M  V30 3322 C 296.453 3.33827 -2.74196 0
M  V30 3323 C 295.588 4.62133 -2.61929 0
M  V30 3324 C 294.627 4.77627 -3.82804 0
M  V30 3325 N 293.764 5.97219 -3.69153 0
M  V30 3326 H 298.604 1.66082 -2.47428 0
M  V30 3327 H 296.141 0.810026 -1.22788 0
M  V30 3328 H 298.099 3.91528 -1.4409 0
M  V30 3329 H 296.729 3.1772 -0.570402 0
M  V30 3330 H 295.781 2.47715 -2.88689 0
M  V30 3331 H 297.093 3.41153 -3.6389 0
M  V30 3332 H 296.247 5.50291 -2.5547 0
M  V30 3333 H 294.986 4.57182 -1.69811 0
M  V30 3334 H 293.991 3.87896 -3.89637 0
M  V30 3335 H 295.216 4.84385 -4.75971 0
M  V30 3336 H 293.162 5.93339 -2.79794 0
M  V30 3337 H 293.079 6.05644 -4.52472 0
M  V30 3338 H 294.347 6.87912 -3.66603 0
M  V30 3339 N 298.576 1.31904 0.862503 0
M  V30 3340 C 299.486 1.22161 2.00285 0
M  V30 3341 C 300.502 0.136785 1.73462 0
M  V30 3342 O 301.678 0.355994 1.98229 0
M  V30 3343 C 298.743 0.937093 3.33796 0
M  V30 3344 C 297.804 2.10957 3.73893 0
M  V30 3345 C 297.037 1.83853 5.01033 0
M  V30 3346 O 297.26 0.777274 5.65079 0
M  V30 3347 O 296.194 2.69741 5.38074 0
M  V30 3348 H 300.02 2.18008 2.11439 0
M  V30 3349 H 297.605 1.11716 0.991957 0
M  V30 3350 H 299.487 0.794583 4.13841 0
M  V30 3351 H 298.162 0.00871894 3.23699 0
M  V30 3352 H 297.069 2.30752 2.94456 0
M  V30 3353 H 298.402 3.02046 3.88625 0
M  V30 3354 N 300.054 -1.07777 1.14986 0
M  V30 3355 C 300.964 -2.18404 0.856546 0
M  V30 3356 C 301.98 -1.73211 -0.165485 0
M  V30 3357 O 303.156 -2.01399 0.00755219 0
M  V30 3358 C 300.221 -3.44977 0.34526 0
M  V30 3359 C 299.282 -4.0476 1.43065 0
M  V30 3360 C 298.515 -5.25291 0.943663 0
M  V30 3361 O 298.738 -5.70004 -0.212426 0
M  V30 3362 O 297.672 -5.76638 1.72547 0
M  V30 3363 H 301.498 -2.45978 1.78125 0
M  V30 3364 H 299.083 -1.17033 0.928631 0
M  V30 3365 H 300.965 -4.21348 0.0663671 0
M  V30 3366 H 299.64 -3.18965 -0.551631 0
M  V30 3367 H 298.547 -3.29949 1.76309 0
M  V30 3368 H 299.88 -4.35035 2.30229 0
M  V30 3369 N 301.532 -0.945985 -1.26051 0
M  V30 3370 C 302.781 -0.591836 -1.92822 0
M  V30 3371 C 303.094 0.873956 -1.7499 0
M  V30 3372 O 304.3 1.33769 -2.36259 0
M  V30 3373 C 302.756 -1.00776 -3.45503 0
M  V30 3374 C 302.364 -2.4955 -3.7206 0
M  V30 3375 C 304.108 -0.725735 -4.1825 0
M  V30 3376 C 302.015 -2.84988 -5.18205 0
M  V30 3377 H 300.945 -0.217635 -0.721908 0
M  V30 3378 H 303.596 -1.14927 -1.43052 0
M  V30 3379 H 301.978 -0.378812 -3.94184 0
M  V30 3380 H 303.152 -3.1739 -3.34066 0
M  V30 3381 H 301.467 -2.75133 -3.12555 0
M  V30 3382 H 304.064 -0.966771 -5.25887 0
M  V30 3383 H 304.407 0.337639 -4.14929 0
M  V30 3384 H 304.94 -1.31463 -3.7545 0
M  V30 3385 H 301.679 -3.90307 -5.26631 0
M  V30 3386 H 301.199 -2.21813 -5.57278 0
M  V30 3387 H 302.878 -2.73712 -5.86252 0
M  V30 3388 N 303.011 1.40521 -0.713556 0
M  V30 3389 C 303.958 2.30723 -0.059684 0
M  V30 3390 C 304.928 1.48079 0.752448 0
M  V30 3391 O 306.113 1.76823 0.71681 0
M  V30 3392 C 303.253 3.34274 0.857594 0
M  V30 3393 C 302.366 4.31986 0.0351536 0
M  V30 3394 C 301.501 5.22605 0.951724 0
M  V30 3395 C 300.54 6.11976 0.123253 0
M  V30 3396 N 299.677 6.9502 0.99459 0
M  V30 3397 H 304.517 2.86074 -0.834596 0
M  V30 3398 H 302.054 1.40879 -0.42326 0
M  V30 3399 H 304.012 3.92879 1.40364 0
M  V30 3400 H 302.642 2.8043 1.59871 0
M  V30 3401 H 301.694 3.7518 -0.628052 0
M  V30 3402 H 303.006 4.95101 -0.606347 0
M  V30 3403 H 302.16 5.86131 1.56638 0
M  V30 3404 H 300.899 4.59759 1.62705 0
M  V30 3405 H 299.904 5.47482 -0.50435 0
M  V30 3406 H 301.129 6.76881 -0.548539 0
M  V30 3407 H 299.075 6.34764 1.6556 0
M  V30 3408 H 298.992 7.54892 0.40908 0
M  V30 3409 H 300.26 7.62997 1.59549 0
M  V30 3410 N 304.489 0.459591 1.5075 0
M  V30 3411 C 305.436 -0.340524 2.28274 0
M  V30 3412 C 306.406 -0.997371 1.32822 0
M  V30 3413 O 307.591 -1.01202 1.61749 0
M  V30 3414 C 304.731 -1.42317 3.14388 0
M  V30 3415 C 303.844 -0.782251 4.24859 0
M  V30 3416 C 302.979 -1.84182 4.98247 0
M  V30 3417 C 302.018 -1.18053 6.00608 0
M  V30 3418 N 301.155 -2.18244 6.67319 0
M  V30 3419 H 305.995 0.326899 2.96202 0
M  V30 3420 H 303.532 0.173057 1.46078 0
M  V30 3421 H 305.49 -2.06241 3.62658 0
M  V30 3422 H 304.12 -2.05992 2.4853 0
M  V30 3423 H 303.172 -0.0307404 3.80388 0
M  V30 3424 H 304.484 -0.259663 4.98124 0
M  V30 3425 H 303.638 -2.55714 5.50177 0
M  V30 3426 H 302.377 -2.39819 4.24662 0
M  V30 3427 H 301.382 -0.450776 5.47949 0
M  V30 3428 H 302.607 -0.631202 6.7616 0
M  V30 3429 H 300.553 -2.72919 5.96533 0
M  V30 3430 H 300.47 -1.70938 7.36421 0
M  V30 3431 H 301.738 -2.89191 7.23871 0
M  V30 3432 N 305.967 -1.56429 0.191757 0
M  V30 3433 C 307.216 -1.9666 -0.448088 0
M  V30 3434 C 307.529 -1.08136 -1.62991 0
M  V30 3435 O 308.735 -1.38135 -2.33733 0
M  V30 3436 C 307.191 -3.49753 -0.848585 0
M  V30 3437 C 306.799 -4.46935 0.308764 0
M  V30 3438 C 308.543 -3.9876 -1.4557 0
M  V30 3439 C 306.45 -5.91293 -0.112506 0
M  V30 3440 H 305.38 -0.734312 -0.171179 0
M  V30 3441 H 308.031 -1.81301 0.283242 0
M  V30 3442 H 306.413 -3.60604 -1.63649 0
M  V30 3443 H 307.587 -4.47813 1.08627 0
M  V30 3444 H 305.902 -4.08102 0.827158 0
M  V30 3445 H 308.499 -5.04086 -1.78328 0
M  V30 3446 H 308.842 -3.42875 -2.36099 0
M  V30 3447 H 309.375 -3.9101 -0.731836 0
M  V30 3448 H 306.114 -6.51097 0.758514 0
M  V30 3449 H 305.634 -5.93676 -0.854941 0
M  V30 3450 H 307.313 -6.44663 -0.549448 0
M  V30 3451 N 307.445 0.0818655 -1.57387 0
M  V30 3452 C 308.694 0.781681 -1.85937 0
M  V30 3453 C 309.007 1.79246 -0.782957 0
M  V30 3454 O 310.213 2.54112 -0.955987 0
M  V30 3455 C 308.669 1.44109 -3.29789 0
M  V30 3456 C 308.277 0.469396 -4.45534 0
M  V30 3457 C 310.021 2.12386 -3.67549 0
M  V30 3458 C 307.928 1.13415 -5.80423 0
M  V30 3459 H 306.858 0.295682 -0.693605 0
M  V30 3460 H 309.509 0.0348051 -1.83467 0
M  V30 3461 H 307.891 2.23588 -3.2684 0
M  V30 3462 H 309.065 -0.294856 -4.59856 0
M  V30 3463 H 307.38 -0.108383 -4.16259 0
M  V30 3464 H 309.977 2.62878 -4.65617 0
M  V30 3465 H 310.32 2.91877 -2.96839 0
M  V30 3466 H 310.853 1.39751 -3.72444 0
M  V30 3467 H 307.592 0.379771 -6.54399 0
M  V30 3468 H 307.112 1.8695 -5.69921 0
M  V30 3469 H 308.791 1.65686 -6.25426 0
M  V30 3470 N 308.923 1.53595 0.353017 0
M  V30 3471 C 310.339 1.43648 0.695516 0
M  V30 3472 C 310.539 0.585617 1.92802 0
M  V30 3473 O 309.595 0.0729223 2.52395 0
M  V30 3474 C 310.908 2.8701 0.896991 0
M  V30 3475 C 312.456 2.96723 0.996209 0
M  V30 3476 C 312.931 4.41173 1.23007 0
M  V30 3477 N 314.422 4.44657 1.29749 0
M  V30 3478 C 315.157 5.53547 1.49577 0
M  V30 3479 N 314.653 6.72461 1.66639 0
M  V30 3480 N 316.446 5.41145 1.52048 0
M  V30 3481 H 308.597 2.07415 -0.457481 0
M  V30 3482 H 310.86 0.9372 -0.142687 0
M  V30 3483 H 310.566 3.51644 0.0629938 0
M  V30 3484 H 310.44 3.31401 1.80148 0
M  V30 3485 H 312.827 2.32235 1.82074 0
M  V30 3486 H 312.908 2.55707 0.0688331 0
M  V30 3487 H 312.552 5.06238 0.410505 0
M  V30 3488 H 312.482 4.79772 2.17086 0
M  V30 3489 H 314.973 3.58963 1.18126 0
M  V30 3490 H 315.286 7.51214 1.81378 0
M  V30 3491 H 313.631 6.75423 1.63794 0
M  V30 3492 H 316.822 4.47205 1.38294 0
M  V30 3493 H 316.995 6.26068 1.67159 0
M  V30 3494 N 310.401 -0.613514 1.45168 0
M  V30 3495 C 311.648 -1.37268 1.48875 0
M  V30 3496 C 311.976 -1.94077 0.128161 0
M  V30 3497 O 311.231 -1.75178 -0.872416 0
M  V30 3498 C 311.53 -2.54347 2.51083 0
M  V30 3499 C 311.196 -2.1572 3.95949 0
M  V30 3500 C 309.858 -2.04899 4.35396 0
M  V30 3501 C 312.21 -1.85485 4.87078 0
M  V30 3502 C 309.538 -1.62057 5.63875 0
M  V30 3503 C 311.89 -1.4413 6.15962 0
M  V30 3504 C 310.554 -1.31863 6.54346 0
M  V30 3505 H 309.824 -0.502299 0.544773 0
M  V30 3506 H 312.471 -0.694021 1.78481 0
M  V30 3507 H 310.776 -3.27524 2.15024 0
M  V30 3508 H 312.473 -3.12577 2.51191 0
M  V30 3509 H 309.063 -2.25066 3.64751 0
M  V30 3510 H 313.247 -1.92745 4.57343 0
M  V30 3511 H 308.503 -1.51177 5.92415 0
M  V30 3512 H 312.677 -1.19778 6.86022 0
M  V30 3513 H 310.304 -0.984392 7.538 0
M  V30 3514 N 311.879 -1.3236 -0.855495 0
M  V30 3515 C 312.809 -1.23833 -1.97958 0
M  V30 3516 C 313.79 -0.122361 -1.69659 0
M  V30 3517 O 314.975 -0.30939 -1.9172 0
M  V30 3518 C 312.105 -0.959772 -3.33775 0
M  V30 3519 C 311.059 -2.03689 -3.76424 0
M  V30 3520 C 310.385 -1.61075 -5.09862 0
M  V30 3521 C 311.685 -3.4518 -3.9198 0
M  V30 3522 H 313.379 -2.1788 -2.0535 0
M  V30 3523 H 310.925 -1.04891 -0.986605 0
M  V30 3524 H 312.878 -0.886678 -4.11966 0
M  V30 3525 H 311.602 0.0163404 -3.26596 0
M  V30 3526 H 310.261 -2.10012 -3.00484 0
M  V30 3527 H 309.909 -0.622107 -4.99138 0
M  V30 3528 H 309.609 -2.33143 -5.39368 0
M  V30 3529 H 311.133 -1.55201 -5.90546 0
M  V30 3530 H 312.547 -3.4145 -4.60526 0
M  V30 3531 H 310.944 -4.1559 -4.32903 0
M  V30 3532 H 312.014 -3.84903 -2.94919 0
M  V30 3533 N 313.357 1.07166 -1.15556 0
M  V30 3534 C 314.267 2.17947 -0.868116 0
M  V30 3535 C 315.283 1.73297 0.156297 0
M  V30 3536 O 316.459 2.01392 -0.0182327 0
M  V30 3537 C 313.524 3.44789 -0.36355 0
M  V30 3538 C 312.585 4.03996 -1.45209 0
M  V30 3539 C 311.818 5.24783 -0.971508 0
M  V30 3540 O 312.041 5.70109 0.182194 0
M  V30 3541 O 310.975 5.75715 -1.75603 0
M  V30 3542 H 314.801 2.4503 -1.79427 0
M  V30 3543 H 312.386 1.16539 -0.934824 0
M  V30 3544 H 314.268 4.21307 -0.0887113 0
M  V30 3545 H 312.943 3.19253 0.534708 0
M  V30 3546 H 311.85 3.29009 -1.78056 0
M  V30 3547 H 313.183 4.33808 -2.32533 0
M  V30 3548 N 314.835 0.952656 1.25548 0
M  V30 3549 C 315.782 0.47008 2.25962 0
M  V30 3550 C 316.752 -0.476384 1.59122 0
M  V30 3551 O 317.937 -0.39007 1.8677 0
M  V30 3552 C 315.077 -0.247881 3.44209 0
M  V30 3553 C 314.19 0.735591 4.25691 0
M  V30 3554 C 313.325 -0.0047306 5.312 0
M  V30 3555 C 312.364 0.969805 6.04368 0
M  V30 3556 N 311.501 0.260486 7.01617 0
M  V30 3557 H 316.341 1.33126 2.66611 0
M  V30 3558 H 313.878 0.66765 1.31076 0
M  V30 3559 H 315.836 -0.680695 4.1161 0
M  V30 3560 H 314.466 -1.07312 3.0444 0
M  V30 3561 H 313.518 1.28689 3.57971 0
M  V30 3562 H 314.83 1.47934 4.76358 0
M  V30 3563 H 313.984 -0.496275 6.04667 0
M  V30 3564 H 312.723 -0.781282 4.81401 0
M  V30 3565 H 311.728 1.47237 5.29718 0
M  V30 3566 H 312.953 1.74655 6.56256 0
M  V30 3567 H 310.899 -0.497364 6.54112 0
M  V30 3568 H 310.816 0.943362 7.50091 0
M  V30 3569 H 312.084 -0.209587 7.79218 0
M  V30 3570 N 316.313 -1.40141 0.720998 0
M  V30 3571 C 317.261 -2.3252 0.0608547 0
M  V30 3572 C 318.255 -1.52326 -0.741152 0
M  V30 3573 O 319.461 -1.68089 -0.643911 0
M  V30 3574 H 315.836 -0.751999 0.000876664 0
M  V30 3575 H 317.807 -2.8584 0.856614 0
M  V30 3576 C 316.556 -3.37331 -0.842809 0
M  V30 3577 H 315.879 -3.99108 -0.235084 0
M  V30 3578 H 317.319 -4.04452 -1.27257 0
M  V30 3579 C 315.778 -2.73246 -1.97074 0
M  V30 3580 O 316.308 -2.59998 -3.06209 0
M  V30 3581 N 314.514 -2.31547 -1.75597 0
M  V30 3582 H 314.061 -2.42522 -0.868368 0
M  V30 3583 H 314.019 -1.89007 -2.51244 0
M  V30 3584 N 317.792 -0.46758 -1.50504 0
M  V30 3585 C 318.722 0.318381 -2.31319 0
M  V30 3586 C 319.703 0.993564 -1.38066 0
M  V30 3587 O 320.888 0.991411 -1.66987 0
M  V30 3588 C 318.018 1.40275 -3.17711 0
M  V30 3589 C 316.972 0.849373 -4.19487 0
M  V30 3590 C 316.298 2.03177 -4.94594 0
M  V30 3591 C 317.598 -0.136942 -5.2212 0
M  V30 3592 H 319.292 -0.356106 -2.97275 0
M  V30 3593 H 316.838 -0.172703 -1.42961 0
M  V30 3594 H 318.791 1.96004 -3.73042 0
M  V30 3595 H 317.515 2.10596 -2.49634 0
M  V30 3596 H 316.174 0.314076 -3.65252 0
M  V30 3597 H 315.822 2.72187 -4.22993 0
M  V30 3598 H 315.522 1.66774 -5.63436 0
M  V30 3599 H 317.046 2.59403 -5.52759 0
M  V30 3600 H 318.46 0.331056 -5.72343 0
M  V30 3601 H 316.857 -0.41507 -5.98663 0
M  V30 3602 H 317.927 -1.06398 -4.73083 0
M  V30 3603 N 319.27 1.56325 -0.20005 0
M  V30 3604 C 320.218 2.20666 0.735482 0
M  V30 3605 C 321.212 1.17934 1.21605 0
M  V30 3606 O 322.418 1.36068 1.17837 0
M  V30 3607 H 318.793 0.70725 0.255542 0
M  V30 3608 H 320.764 2.9792 0.169166 0
M  V30 3609 C 319.513 2.88391 1.94232 0
M  V30 3610 H 318.836 3.67185 1.58161 0
M  V30 3611 H 320.276 3.3684 2.57517 0
M  V30 3612 C 318.735 1.89692 2.78421 0
M  V30 3613 O 319.265 1.40032 3.76502 0
M  V30 3614 N 317.471 1.57813 2.44015 0
M  V30 3615 H 317.018 1.9839 1.64314 0
M  V30 3616 H 316.976 0.920325 3.00628 0
M  V30 3617 N 320.748 -0.0735177 1.57428 0
M  V30 3618 C 322.025 -0.805903 1.78226 0
M  V30 3619 C 322.405 -1.95874 0.787189 0
M  V30 3620 O 321.753 -2.2779 -0.180029 0
M  V30 3621 C 321.963 -1.28045 3.24662 0
M  V30 3622 C 323.311 -1.71453 3.88444 0
M  V30 3623 O 324.335 -1.37616 3.28543 0
M  V30 3624 O 323.194 -2.34093 4.93825 0
M  V30 3625 H 320.288 -0.386041 0.73137 0
M  V30 3626 H 322.834 -0.0537269 1.69615 0
M  V30 3627 H 321.606 -0.455476 3.8864 0
M  V30 3628 H 321.229 -2.094 3.37991 0
M  V30 3629 N 322.226 -1.5378 -0.344866 0
M  V30 3630 C 323.136 -1.84667 -1.4469 0
M  V30 3631 C 324.152 -0.736704 -1.57635 0
M  V30 3632 O 325.328 -1.02888 -1.73136 0
M  V30 3633 C 322.393 -2.04869 -2.79696 0
M  V30 3634 C 321.454 -3.28731 -2.76106 0
M  V30 3635 C 320.687 -3.4796 -4.04673 0
M  V30 3636 O 320.91 -2.71052 -5.01883 0
M  V30 3637 O 319.844 -4.41383 -4.09224 0
M  V30 3638 H 323.67 -2.78334 -1.21506 0
M  V30 3639 H 321.255 -1.39418 -0.536921 0
M  V30 3640 H 323.137 -2.19609 -3.59652 0
M  V30 3641 H 321.812 -1.14391 -3.02814 0
M  V30 3642 H 320.719 -3.19396 -1.94774 0
M  V30 3643 H 322.052 -4.19198 -2.57941 0
M  V30 3644 N 323.704 0.605807 -1.45491 0
M  V30 3645 C 324.953 1.36086 -1.48874 0
M  V30 3646 C 325.266 1.95131 -0.135333 0
M  V30 3647 O 326.472 2.7146 -0.0468144 0
M  V30 3648 C 324.928 2.46518 -2.62215 0
M  V30 3649 C 324.536 1.93877 -4.03876 0
M  V30 3650 C 326.28 3.23512 -2.74846 0
M  V30 3651 C 324.187 3.01801 -5.08596 0
M  V30 3652 H 323.117 0.511497 -0.553974 0
M  V30 3653 H 325.768 0.649089 -1.71636 0
M  V30 3654 H 324.15 3.20388 -2.32739 0
M  V30 3655 H 325.324 1.26704 -4.43038 0
M  V30 3656 H 323.639 1.29622 -3.95711 0
M  V30 3657 H 326.236 4.04013 -3.50253 0
M  V30 3658 H 326.579 3.74631 -1.81542 0
M  V30 3659 H 327.112 2.56742 -3.03856 0
M  V30 3660 H 323.851 2.55597 -6.03614 0
M  V30 3661 H 323.371 3.67535 -4.74002 0
M  V30 3662 H 325.05 3.66152 -5.33424 0
M  V30 3663 N 325.182 1.32811 0.848464 0
M  V30 3664 C 326.112 1.24882 1.97299 0
M  V30 3665 C 327.093 0.131357 1.69592 0
M  V30 3666 O 328.278 0.319553 1.91553 0
M  V30 3667 C 325.408 0.97746 3.33261 0
M  V30 3668 C 324.362 2.05682 3.75338 0
M  V30 3669 C 323.688 1.63777 5.09 0
M  V30 3670 C 324.988 3.47254 3.90144 0
M  V30 3671 H 326.682 2.18966 2.04191 0
M  V30 3672 H 324.228 1.05413 0.981029 0
M  V30 3673 H 326.181 0.908513 4.1149 0
M  V30 3674 H 324.905 0.000980011 3.266 0
M  V30 3675 H 323.564 2.11603 2.99366 0
M  V30 3676 H 323.212 0.648569 4.98801 0
M  V30 3677 H 322.912 2.36 5.38124 0
M  V30 3678 H 324.436 1.5833 5.89715 0
M  V30 3679 H 325.85 3.43888 4.58709 0
M  V30 3680 H 324.247 4.1788 4.30693 0
M  V30 3681 H 325.317 3.86462 2.92874 0
M  V30 3682 N 326.66 -1.06551 1.16123 0
M  V30 3683 C 327.937 -1.76097 0.85142 0
M  V30 3684 C 328.317 -2.00802 -0.6513 0
M  V30 3685 O 327.665 -1.63302 -1.59827 0
M  V30 3686 C 327.875 -3.06384 1.67122 0
M  V30 3687 C 329.223 -3.80585 1.88255 0
M  V30 3688 O 330.247 -3.16218 1.63966 0
M  V30 3689 O 329.106 -4.96212 2.2899 0
M  V30 3690 H 326.2 -0.765102 0.313923 0
M  V30 3691 H 328.746 -1.12844 1.26745 0
M  V30 3692 H 327.518 -2.84071 2.69108 0
M  V30 3693 H 327.141 -3.77371 1.25206 0
M  V30 3694 N 328.138 -0.959301 -1.25041 0
M  V30 3695 C 329.554 -0.664474 -1.4511 0
M  V30 3696 C 329.754 0.776481 -1.85938 0
M  V30 3697 O 328.81 1.55128 -1.99227 0
M  V30 3698 C 330.123 -1.64139 -2.5195 0
M  V30 3699 C 331.671 -1.65309 -2.65786 0
M  V30 3700 C 332.146 -2.61777 -3.75815 0
M  V30 3701 N 333.637 -2.60169 -3.83231 0
M  V30 3702 C 334.372 -3.31489 -4.6787 0
M  V30 3703 N 333.868 -4.12298 -5.56761 0
M  V30 3704 N 335.661 -3.20354 -4.61876 0
M  V30 3705 H 327.812 -1.89043 -0.968332 0
M  V30 3706 H 330.075 -0.813408 -0.4869 0
M  V30 3707 H 329.781 -2.67086 -2.28819 0
M  V30 3708 H 329.655 -1.40756 -3.49954 0
M  V30 3709 H 332.042 -0.630778 -2.8828 0
M  V30 3710 H 332.123 -1.92753 -1.68167 0
M  V30 3711 H 331.767 -3.64137 -3.54071 0
M  V30 3712 H 331.697 -2.31616 -4.72929 0
M  V30 3713 H 334.188 -2.01507 -3.19692 0
M  V30 3714 H 334.501 -4.63625 -6.18281 0
M  V30 3715 H 332.846 -4.16395 -5.56454 0
M  V30 3716 H 336.037 -2.56692 -3.91442 0
M  V30 3717 H 336.21 -3.76201 -5.27614 0
M  V30 3718 N 329.616 1.39756 -0.72842 0
M  V30 3719 C 330.865 1.99879 -0.270407 0
M  V30 3720 C 331.178 1.58449 1.14688 0
M  V30 3721 O 332.384 2.11362 1.70407 0
M  V30 3722 C 330.84 3.57292 -0.43252 0
M  V30 3723 C 330.448 4.07688 -1.85727 0
M  V30 3724 C 332.192 4.24485 -0.0359507 0
M  V30 3725 C 330.099 5.5765 -1.96928 0
M  V30 3726 H 329.029 0.747689 -0.0973472 0
M  V30 3727 H 331.68 1.59837 -0.901355 0
M  V30 3728 H 330.062 3.95097 0.267219 0
M  V30 3729 H 331.236 3.81231 -2.58843 0
M  V30 3730 H 329.551 3.53135 -2.20646 0
M  V30 3731 H 332.148 5.34609 -0.0987484 0
M  V30 3732 H 332.491 4.03915 1.00787 0
M  V30 3733 H 333.024 3.9183 -0.686604 0
M  V30 3734 H 329.763 5.8309 -2.99476 0
M  V30 3735 H 329.283 5.8593 -1.28241 0
M  V30 3736 H 330.962 6.22957 -1.74737 0
M  V30 3737 N 331.094 0.475555 1.50254 0
M  V30 3738 C 332.343 -0.0795996 2.01543 0
M  V30 3739 C 332.656 -1.4038 1.36209 0
M  V30 3740 O 333.862 -2.04415 1.7868 0
M  V30 3741 C 332.318 -0.192363 3.59386 0
M  V30 3742 C 331.926 1.12367 4.33679 0
M  V30 3743 C 333.67 -0.699238 4.18701 0
M  V30 3744 C 331.577 0.974453 5.83317 0
M  V30 3745 H 330.507 -0.0335228 0.753254 0
M  V30 3746 H 333.158 0.611128 1.73025 0
M  V30 3747 H 331.54 -0.946974 3.84511 0
M  V30 3748 H 332.714 1.88958 4.20276 0
M  V30 3749 H 331.029 1.562 3.85993 0
M  V30 3750 H 333.626 -0.827978 5.28251 0
M  V30 3751 H 333.969 -1.69171 3.80377 0
M  V30 3752 H 334.502 -0.00188807 3.978 0
M  V30 3753 H 331.241 1.94042 6.26121 0
M  V30 3754 H 330.761 0.248998 5.99283 0
M  V30 3755 H 332.44 0.642867 6.43798 0
M  V30 3756 N 332.573 -1.56217 0.208337 0
M  V30 3757 C 333.523 -2.16324 -0.720281 0
M  V30 3758 C 334.507 -1.10775 -1.16695 0
M  V30 3759 O 335.699 -1.36801 -1.12314 0
M  V30 3760 C 332.828 -2.83644 -1.93393 0
M  V30 3761 C 331.914 -3.96401 -1.50755 0
M  V30 3762 N 332.305 -4.99546 -0.792937 0
M  V30 3763 C 330.603 -4.08246 -1.79585 0
M  V30 3764 C 331.304 -5.78828 -0.577364 0
M  V30 3765 N 330.28 -5.31723 -1.1301 0
M  V30 3766 H 334.082 -2.93432 -0.165725 0
M  V30 3767 H 331.596 -1.62397 0.00906463 0
M  V30 3768 H 333.593 -3.25107 -2.60981 0
M  V30 3769 H 332.253 -2.08027 -2.49308 0
M  V30 3770 H 333.264 -5.15967 -0.447004 0
M  V30 3771 H 329.941 -3.4377 -2.36915 0
M  V30 3772 H 331.331 -6.71899 -0.00952956 0
M  V30 3773 N 334.051 0.0651679 -1.57465 0
M  V30 3774 C 335.001 1.0838 -2.00594 0
M  V30 3775 C 335.985 1.34106 -0.889071 0
M  V30 3776 O 337.177 1.34295 -1.15299 0
M  V30 3777 C 334.306 2.39565 -2.45894 0
M  V30 3778 C 333.392 2.17085 -3.64328 0
M  V30 3779 N 333.783 1.64553 -4.78285 0
M  V30 3780 C 332.081 2.4753 -3.71006 0
M  V30 3781 C 332.782 1.57042 -5.60101 0
M  V30 3782 N 331.758 2.03328 -5.04141 0
M  V30 3783 H 335.56 0.671062 -2.86136 0
M  V30 3784 H 333.074 0.27213 -1.60104 0
M  V30 3785 H 335.071 3.13308 -2.75034 0
M  V30 3786 H 333.731 2.81549 -1.61741 0
M  V30 3787 H 334.742 1.33323 -5.00445 0
M  V30 3788 H 331.419 2.92835 -2.9758 0
M  V30 3789 H 332.809 1.17223 -6.61595 0
M  V30 3790 N 335.529 1.53961 0.336706 0
M  V30 3791 C 336.757 1.75483 1.09605 0
M  V30 3792 C 337.172 0.4972 1.82136 0
M  V30 3793 O 336.529 -0.53149 1.74589 0
M  V30 3794 C 336.58 2.93943 2.10428 0
M  V30 3795 O 336.301 4.14842 1.40846 0
M  V30 3796 C 337.802 3.27571 2.98684 0
M  V30 3797 H 335.022 0.586166 0.326574 0
M  V30 3798 H 337.566 2.00808 0.38683 0
M  V30 3799 H 335.721 2.70929 2.76905 0
M  V30 3800 H 336.135 4.81383 2.08255 0
M  V30 3801 H 337.609 4.13791 3.6535 0
M  V30 3802 H 338.086 2.44168 3.65074 0
M  V30 3803 H 338.692 3.52615 2.37787 0
M  V30 3804 N 337.007 -0.598083 1.45811 0
M  V30 3805 C 338.232 -1.3881 1.54099 0
M  V30 3806 C 338.657 -1.8726 0.177578 0
M  V30 3807 O 338.015 -1.6069 -0.839541 0
M  V30 3808 C 338.063 -2.56217 2.53743 0
M  V30 3809 O 337.167 -3.5716 2.06182 0
M  V30 3810 H 336.508 -0.414024 0.519115 0
M  V30 3811 H 339.038 -0.726971 1.91249 0
M  V30 3812 H 339.048 -3.03337 2.72856 0
M  V30 3813 H 337.723 -2.20303 3.5276 0
M  V30 3814 H 336.3 -3.16624 1.96987 0
M  V30 3815 N 338.485 -1.33259 -0.841409 0
M  V30 3816 C 339.732 -1.24572 -1.5965 0
M  V30 3817 C 340.06 0.189137 -1.93578 0
M  V30 3818 O 339.315 1.14566 -1.5866 0
M  V30 3819 C 339.614 -2.06381 -2.9179 0
M  V30 3820 C 339.28 -3.556 -2.77235 0
M  V30 3821 C 337.942 -3.96282 -2.72973 0
M  V30 3822 C 340.294 -4.50433 -2.62221 0
M  V30 3823 C 337.622 -5.30017 -2.51592 0
M  V30 3824 C 339.974 -5.84327 -2.42374 0
M  V30 3825 C 338.638 -6.24194 -2.36512 0
M  V30 3826 H 337.908 -0.455842 -0.5842 0
M  V30 3827 H 340.555 -1.6482 -0.975016 0
M  V30 3828 H 338.86 -1.58903 -3.5813 0
M  V30 3829 H 340.557 -1.97019 -3.49263 0
M  V30 3830 H 337.147 -3.23298 -2.81384 0
M  V30 3831 H 341.331 -4.19914 -2.64549 0
M  V30 3832 H 336.587 -5.59947 -2.45499 0
M  V30 3833 H 340.761 -6.57414 -2.29739 0
M  V30 3834 H 338.388 -7.27759 -2.19706 0
M  V30 3835 N 339.963 1.05934 -1.16686 0
M  V30 3836 C 340.873 2.17014 -0.891183 0
M  V30 3837 C 341.889 1.73453 0.137907 0
M  V30 3838 O 343.065 2.01361 -0.039592 0
M  V30 3839 C 340.13 3.44384 -0.400099 0
M  V30 3840 C 339.191 4.02433 -1.49486 0
M  V30 3841 C 338.424 5.23723 -1.02711 0
M  V30 3842 O 338.647 5.7027 0.121716 0
M  V30 3843 O 337.581 5.7382 -1.81699 0
M  V30 3844 H 341.407 2.43113 -1.82015 0
M  V30 3845 H 338.992 1.15541 -0.947132 0
M  V30 3846 H 340.874 4.21189 -0.133392 0
M  V30 3847 H 339.549 3.19802 0.500817 0
M  V30 3848 H 338.456 3.27102 -1.81535 0
M  V30 3849 H 339.789 4.31317 -2.37121 0
M  V30 3850 N 341.441 0.965919 1.2453 0
M  V30 3851 C 342.687 0.62776 1.92839 0
M  V30 3852 C 343.02 -0.834694 1.75347 0
M  V30 3853 O 342.295 -1.60031 1.10546 0
M  V30 3854 C 342.578 1.00109 3.45905 0
M  V30 3855 C 342.431 2.52011 3.72573 0
M  V30 3856 C 343.75 0.53435 4.36844 0
M  V30 3857 H 340.869 0.229537 0.700344 0
M  V30 3858 H 343.511 1.2046 1.46933 0
M  V30 3859 H 341.661 0.510238 3.85135 0
M  V30 3860 H 343.333 3.08559 3.42912 0
M  V30 3861 H 341.576 2.95287 3.17786 0
M  V30 3862 H 342.247 2.73183 4.79661 0
M  V30 3863 H 344.723 0.955565 4.04979 0
M  V30 3864 H 343.599 0.824152 5.42678 0
M  V30 3865 H 343.86 -0.565589 4.38467 0
M  V30 3866 N 342.919 -1.39368 0.735821 0
M  V30 3867 C 343.852 -2.28155 0.0451175 0
M  V30 3868 C 344.83 -1.44433 -0.746852 0
M  V30 3869 O 346.014 -1.73823 -0.729237 0
M  V30 3870 C 343.141 -3.253 -0.943266 0
M  V30 3871 C 342.187 -4.25826 -0.239685 0
M  V30 3872 S 343.02 -5.25166 1.04693 0
M  V30 3873 C 344.176 -6.2587 0.0611639 0
M  V30 3874 H 344.409 -2.86388 0.79807 0
M  V30 3875 H 341.942 -1.45104 0.527653 0
M  V30 3876 H 343.9 -3.81789 -1.50824 0
M  V30 3877 H 342.561 -2.66085 -1.66906 0
M  V30 3878 H 341.754 -4.94229 -0.987596 0
M  V30 3879 H 341.356 -3.73141 0.253274 0
M  V30 3880 H 343.648 -6.73007 -0.778941 0
M  V30 3881 H 344.591 -7.04508 0.712362 0
M  V30 3882 H 344.999 -5.63639 -0.311602 0
M  V30 3883 N 344.397 -0.483516 -1.5 0
M  V30 3884 C 345.344 0.304164 -2.28787 0
M  V30 3885 C 346.314 0.976114 -1.34392 0
M  V30 3886 O 347.499 0.986156 -1.63339 0
M  V30 3887 C 344.639 1.37298 -3.16612 0
M  V30 3888 C 343.752 0.714561 -4.26049 0
M  V30 3889 C 342.887 1.76232 -5.01114 0
M  V30 3890 C 341.926 1.08483 -6.0241 0
M  V30 3891 N 341.063 2.076 -6.70706 0
M  V30 3892 H 345.903 -0.373981 -2.95644 0
M  V30 3893 H 343.44 -0.196275 -1.45785 0
M  V30 3894 H 345.398 2.00445 -3.65893 0
M  V30 3895 H 344.028 2.02012 -2.51776 0
M  V30 3896 H 343.08 -0.0297798 -3.80388 0
M  V30 3897 H 344.392 0.180383 -4.98474 0
M  V30 3898 H 343.546 2.46929 -5.54176 0
M  V30 3899 H 342.285 2.33033 -4.28424 0
M  V30 3900 H 341.29 0.363545 -5.48597 0
M  V30 3901 H 342.515 0.523551 -6.77079 0
M  V30 3902 H 340.461 2.63394 -6.00799 0
M  V30 3903 H 340.378 1.59201 -7.39047 0
M  V30 3904 H 341.646 2.77639 -7.2838 0
M  V30 3905 N 345.875 1.56104 -0.216619 0
M  V30 3906 C 347.152 1.89988 0.465165 0
M  V30 3907 C 347.532 1.13326 1.78102 0
M  V30 3908 O 346.88 0.241033 2.27225 0
M  V30 3909 C 347.09 3.42646 0.662939 0
M  V30 3910 C 348.438 4.13311 0.972602 0
M  V30 3911 O 349.462 3.48217 0.749901 0
M  V30 3912 O 348.321 5.28396 1.39499 0
M  V30 3913 H 345.415 0.78979 0.245276 0
M  V30 3914 H 347.961 1.67721 -0.258436 0
M  V30 3915 H 346.733 3.90399 -0.26543 0
M  V30 3916 H 346.356 3.70677 1.43821 0
M  V30 3917 N 347.353 -0.0568162 1.57498 0
M  V30 3918 C 348.301 -1.08452 2.05769 0
M  V30 3919 C 349.295 -1.39164 0.965903 0
M  V30 3920 O 350.501 -1.38395 1.15095 0
M  V30 3921 H 346.876 -0.367148 0.656282 0
M  V30 3922 H 348.847 -0.651368 2.91204 0
M  V30 3923 C 347.596 -2.38543 2.52968 0
M  V30 3924 H 346.919 -2.15765 3.36579 0
M  V30 3925 H 348.359 -3.08863 2.90481 0
M  V30 3926 C 346.818 -3.05562 1.41893 0
M  V30 3927 O 347.348 -3.94262 0.769442 0
M  V30 3928 N 345.554 -2.6643 1.16032 0
M  V30 3929 H 345.101 -1.94387 1.6903 0
M  V30 3930 H 345.059 -3.11593 0.419219 0
M  V30 3931 N 348.832 -1.54138 -0.328536 0
M  V30 3932 C 350.243 -1.63395 -0.903272 0
M  V30 3933 C 350.594 -0.524828 -1.8905 0
M  V30 3934 O 349.719 0.343068 -2.13663 0
M  V30 3935 C 350.314 -2.9618 -1.64507 0
M  V30 3936 C 348.873 -3.0765 -2.1686 0
M  V30 3937 C 348.02 -2.58933 -0.992416 0
M  V30 3938 H 350.971 -1.58344 -0.106253 0
M  V30 3939 H 350.992 -2.86061 -2.50897 0
M  V30 3940 H 350.504 -3.76884 -0.926302 0
M  V30 3941 H 348.605 -2.31611 -2.91868 0
M  V30 3942 H 348.718 -4.1337 -2.42202 0
M  V30 3943 H 347.082 -2.14706 -1.37016 0
M  V30 3944 H 347.865 -3.42089 -0.288041 0
M  V30 3945 N 350.31 0.590341 -1.46126 0
M  V30 3946 C 351.24 1.71032 -1.58966 0
M  V30 3947 C 352.221 1.64302 -0.440335 0
M  V30 3948 O 353.406 1.82436 -0.665634 0
M  V30 3949 C 350.536 3.09665 -1.57241 0
M  V30 3950 C 349.49 3.31221 -2.71066 0
M  V30 3951 C 348.816 4.70303 -2.54399 0
M  V30 3952 C 350.116 3.19796 -4.1295 0
M  V30 3953 H 351.81 1.60543 -2.52718 0
M  V30 3954 H 349.356 0.770933 -1.21625 0
M  V30 3955 H 351.309 3.87831 -1.64819 0
M  V30 3956 H 350.033 3.21036 -0.600289 0
M  V30 3957 H 348.692 2.55452 -2.62944 0
M  V30 3958 H 348.34 4.78429 -1.55288 0
M  V30 3959 H 348.04 4.85679 -3.30741 0
M  V30 3960 H 349.564 5.50647 -2.63857 0
M  V30 3961 H 350.978 3.87815 -4.22223 0
M  V30 3962 H 349.375 3.46696 -4.89818 0
M  V30 3963 H 350.445 2.16983 -4.33643 0
M  V30 3964 N 351.788 1.33704 0.83433 0
M  V30 3965 C 353.034 1.25603 1.59222 0
M  V30 3966 C 353.367 -0.176659 1.93395 0
M  V30 3967 O 352.642 -1.11915 1.59076 0
M  V30 3968 C 352.925 2.13576 2.89926 0
M  V30 3969 C 352.778 3.65326 2.62406 0
M  V30 3970 C 354.097 2.01238 3.91397 0
M  V30 3971 H 351.216 0.457613 0.577719 0
M  V30 3972 H 353.858 1.63848 0.961972 0
M  V30 3973 H 352.008 1.8109 3.43713 0
M  V30 3974 H 353.68 4.08124 2.15017 0
M  V30 3975 H 351.923 3.8698 1.96033 0
M  V30 3976 H 352.594 4.22232 3.55562 0
M  V30 3977 H 355.07 2.29738 3.46929 0
M  V30 3978 H 353.946 2.65036 4.80673 0
M  V30 3979 H 354.207 0.985951 4.30966 0
M  V30 3980 N 353.266 -1.05314 1.17247 0
M  V30 3981 C 354.214 -2.15137 0.884238 0
M  V30 3982 C 355.208 -1.68729 -0.15063 0
M  V30 3983 O 356.414 -1.8 -0.00366673 0
M  V30 3984 H 352.789 -0.702471 0.2684 0
M  V30 3985 H 354.76 -2.36652 1.81764 0
M  V30 3986 C 353.509 -3.45243 0.412659 0
M  V30 3987 H 352.832 -3.81352 1.20043 0
M  V30 3988 H 354.272 -4.23263 0.249858 0
M  V30 3989 C 352.731 -3.25487 -0.86948 0
M  V30 3990 O 353.261 -3.51938 -1.93655 0
M  V30 3991 N 351.467 -2.78875 -0.817147 0
M  V30 3992 H 351.014 -2.57549 0.0514211 0
M  V30 3993 H 350.972 -2.66036 -1.67547 0
M  V30 3994 N 354.744 -0.972509 -1.24016 0
M  V30 3995 C 355.974 -0.653853 -1.9598 0
M  V30 3996 C 356.382 0.781801 -1.72292 0
M  V30 3997 O 355.725 1.53677 -1.00644 0
M  V30 3998 C 355.787 -0.854608 -3.49194 0
M  V30 3999 C 355.451 -2.27082 -3.96589 0
M  V30 4000 C 356.448 -3.24892 -4.05883 0
M  V30 4001 C 354.133 -2.5998 -4.29786 0
M  V30 4002 C 356.127 -4.53684 -4.47716 0
M  V30 4003 C 353.814 -3.88997 -4.71301 0
M  V30 4004 C 354.812 -4.85661 -4.80232 0
M  V30 4005 O 354.5 -6.12376 -5.20818 0
M  V30 4006 H 354.232 -0.242572 -0.630979 0
M  V30 4007 H 356.786 -1.30431 -1.58673 0
M  V30 4008 H 355.016 -0.146985 -3.86421 0
M  V30 4009 H 356.705 -0.534311 -4.02368 0
M  V30 4010 H 357.471 -3.00805 -3.80449 0
M  V30 4011 H 353.35 -1.85457 -4.22051 0
M  V30 4012 H 356.894 -5.29135 -4.54601 0
M  V30 4013 H 352.791 -4.12882 -4.96184 0
M  V30 4014 H 353.559 -6.16013 -5.38953 0
M  V30 4015 N 356.222 1.38976 -0.743202 0
M  V30 4016 C 357.45 2.04636 -0.30525 0
M  V30 4017 C 357.865 1.56044 1.06281 0
M  V30 4018 O 357.222 0.728921 1.67311 0
M  V30 4019 C 357.273 3.60193 -0.307177 0
M  V30 4020 O 356.994 4.06998 -1.62124 0
M  V30 4021 C 358.495 4.4306 0.145928 0
M  V30 4022 H 355.715 0.65788 -0.132041 0
M  V30 4023 H 358.259 1.77866 -1.00915 0
M  V30 4024 H 356.414 3.85835 0.347898 0
M  V30 4025 H 356.828 5.01371 -1.54036 0
M  V30 4026 H 358.302 5.51921 0.0934183 0
M  V30 4027 H 358.779 4.22706 1.19231 0
M  V30 4028 H 359.385 4.22584 -0.479886 0
M  V30 4029 N 357.7 0.491464 1.49741 0
M  V30 4030 C 358.65 -0.311086 2.25868 0
M  V30 4031 C 359.634 -0.943857 1.30308 0
M  V30 4032 O 360.826 -0.853035 1.55088 0
M  V30 4033 C 357.955 -1.38059 3.14316 0
M  V30 4034 C 357.041 -0.754541 4.17334 0
M  V30 4035 N 357.432 0.137216 5.05614 0
M  V30 4036 C 355.73 -1.01621 4.34269 0
M  V30 4037 C 356.431 0.494614 5.79593 0
M  V30 4038 N 355.407 -0.135169 5.43432 0
M  V30 4039 H 359.209 0.37555 2.91491 0
M  V30 4040 H 356.723 0.306917 1.59473 0
M  V30 4041 H 358.72 -1.96891 3.67477 0
M  V30 4042 H 357.38 -2.06901 2.50244 0
M  V30 4043 H 358.391 0.50741 5.15408 0
M  V30 4044 H 355.068 -1.69808 3.81407 0
M  V30 4045 H 356.458 1.2236 6.60665 0
M  V30 4046 N 359.178 -1.55987 0.224894 0
M  V30 4047 C 360.108 -2.23426 -0.678457 0
M  V30 4048 C 361.089 -1.20709 -1.19847 0
M  V30 4049 O 362.274 -1.49304 -1.24186 0
M  V30 4050 C 359.404 -2.91676 -1.88527 0
M  V30 4051 C 358.358 -4.00893 -1.49896 0
M  V30 4052 C 357.684 -4.56455 -2.78483 0
M  V30 4053 C 358.984 -5.17769 -0.686461 0
M  V30 4054 H 360.678 -2.99175 -0.116173 0
M  V30 4055 H 358.224 -1.43897 -0.054436 0
M  V30 4056 H 360.177 -3.37547 -2.5227 0
M  V30 4057 H 358.901 -2.1338 -2.47258 0
M  V30 4058 H 357.56 -3.55758 -0.884985 0
M  V30 4059 H 357.208 -3.74886 -3.35365 0
M  V30 4060 H 356.908 -5.30169 -2.53368 0
M  V30 4061 H 358.432 -5.05047 -3.43162 0
M  V30 4062 H 359.846 -5.60001 -1.22767 0
M  V30 4063 H 358.243 -5.97735 -0.532259 0
M  V30 4064 H 359.313 -4.83932 0.306196 0
M  V30 4065 N 360.656 0.0484629 -1.57525 0
M  V30 4066 C 362.067 0.597486 -1.76881 0
M  V30 4067 C 362.418 1.76664 -0.853475 0
M  V30 4068 O 361.543 2.16357 -0.0433656 0
M  V30 4069 C 362.138 1.09066 -3.20765 0
M  V30 4070 C 360.697 1.58535 -3.41385 0
M  V30 4071 C 359.844 0.514868 -2.72478 0
M  V30 4072 H 362.795 -0.177758 -1.57701 0
M  V30 4073 H 362.816 1.95875 -3.2621 0
M  V30 4074 H 362.328 0.239521 -3.8736 0
M  V30 4075 H 360.429 2.45898 -2.79937 0
M  V30 4076 H 360.542 1.64622 -4.49929 0
M  V30 4077 H 358.906 0.965407 -2.35695 0
M  V30 4078 H 359.689 -0.32648 -3.41744 0
M  V30 4079 N 362.134 1.5431 0.320358 0
M  V30 4080 C 363.362 1.76636 1.07738 0
M  V30 4081 C 363.777 0.51649 1.81598 0
M  V30 4082 O 363.134 -0.512942 1.75143 0
M  V30 4083 C 363.185 2.96158 2.07299 0
M  V30 4084 O 362.906 4.16313 1.36438 0
M  V30 4085 C 364.407 3.3072 2.95193 0
M  V30 4086 H 361.627 0.589597 0.320339 0
M  V30 4087 H 364.171 2.01207 0.36551 0
M  V30 4088 H 362.326 2.73851 2.74016 0
M  V30 4089 H 362.74 4.83565 2.03138 0
M  V30 4090 H 364.214 4.17643 3.60941 0
M  V30 4091 H 364.691 2.48026 3.62463 0
M  V30 4092 H 365.297 3.55117 2.34034 0
M  V30 4093 N 363.613 -0.582584 1.46437 0
M  V30 4094 C 364.841 -1.36682 1.55324 0
M  V30 4095 C 365.256 -1.87796 0.194409 0
M  V30 4096 O 364.613 -1.63623 -0.808318 0
M  V30 4097 C 364.664 -2.55426 2.55812 0
M  V30 4098 O 364.385 -2.0643 3.86417 0
M  V30 4099 C 365.886 -3.47976 2.74641 0
M  V30 4100 H 363.106 -0.417545 0.525259 0
M  V30 4101 H 365.65 -0.708219 1.91845 0
M  V30 4102 H 363.805 -3.17275 2.22295 0
M  V30 4103 H 364.219 -2.83762 4.41111 0
M  V30 4104 H 365.693 -4.27775 3.48874 0
M  V30 4105 H 366.17 -3.99919 1.81553 0
M  V30 4106 H 366.776 -2.91962 3.09255 0
M  V30 4107 N 365.091 -1.34144 -0.827227 0
M  V30 4108 C 366.337 -1.26446 -1.58554 0
M  V30 4109 C 366.67 0.1664 -1.93486 0
M  V30 4110 O 365.945 1.1107 -1.59667 0
M  V30 4111 C 366.228 -2.15111 -2.8879 0
M  V30 4112 C 366.081 -3.66712 -2.60465 0
M  V30 4113 C 367.4 -2.03311 -3.90324 0
M  V30 4114 H 364.519 -0.46067 -0.575284 0
M  V30 4115 H 367.161 -1.64356 -0.953269 0
M  V30 4116 H 365.311 -1.8291 -3.42748 0
M  V30 4117 H 366.983 -4.09259 -2.1285 0
M  V30 4118 H 365.226 -3.88014 -1.93978 0
M  V30 4119 H 365.897 -4.24112 -3.53317 0
M  V30 4120 H 368.373 -2.31574 -3.45706 0
M  V30 4121 H 367.249 -2.67582 -4.79261 0
M  V30 4122 H 367.51 -1.00879 -4.30437 0
M  V30 4123 N 366.569 1.04691 -1.17803 0
M  V30 4124 C 367.502 2.12068 -0.842765 0
M  V30 4125 C 368.48 1.61455 0.192608 0
M  V30 4126 O 369.664 1.88359 0.072995 0
M  V30 4127 C 366.791 3.37715 -0.258063 0
M  V30 4128 C 365.837 4.07164 -1.26962 0
M  V30 4129 S 366.67 4.55047 -2.82299 0
M  V30 4130 C 367.826 5.83935 -2.25323 0
M  V30 4131 H 368.059 2.4018 -1.75217 0
M  V30 4132 H 365.592 1.17366 -1.00323 0
M  V30 4133 H 367.55 4.10435 0.0727935 0
M  V30 4134 H 366.211 3.0773 0.629357 0
M  V30 4135 H 365.404 4.9746 -0.809263 0
M  V30 4136 H 365.006 3.40533 -1.54639 0
M  V30 4137 H 367.298 6.57552 -1.63192 0
M  V30 4138 H 368.241 6.34725 -3.13894 0
M  V30 4139 H 368.649 5.3874 -1.68582 0
M  V30 4140 N 368.047 0.979072 1.23499 0
M  V30 4141 C 369.324 0.563674 1.87302 0
M  V30 4142 C 369.704 -0.959199 1.88049 0
M  V30 4143 O 369.052 -1.83535 1.36114 0
M  V30 4144 C 369.262 1.16822 3.28867 0
M  V30 4145 C 370.61 1.26014 4.0547 0
M  V30 4146 O 371.634 1.12158 3.38082 0
M  V30 4147 O 370.493 1.48044 5.26066 0
M  V30 4148 H 367.587 0.189602 0.804972 0
M  V30 4149 H 370.133 1.07407 1.31384 0
M  V30 4150 H 368.905 2.21049 3.22883 0
M  V30 4151 H 368.528 0.642564 3.92373 0
M  V30 4152 N 369.525 -1.3858 0.750561 0
M  V30 4153 C 370.475 -2.27795 0.0965949 0
M  V30 4154 C 371.459 -1.45048 -0.696411 0
M  V30 4155 O 372.651 -1.67812 -0.562863 0
M  V30 4156 C 369.78 -3.33894 -0.798085 0
M  V30 4157 C 368.866 -4.241 0.0016067 0
M  V30 4158 N 369.257 -4.95067 1.03647 0
M  V30 4159 C 367.555 -4.45429 -0.225674 0
M  V30 4160 C 368.256 -5.61489 1.52004 0
M  V30 4161 N 367.232 -5.37135 0.835874 0
M  V30 4162 H 371.034 -2.80125 0.889228 0
M  V30 4163 H 368.548 -1.51446 0.586323 0
M  V30 4164 H 370.545 -3.96693 -1.28219 0
M  V30 4165 H 369.205 -2.83123 -1.5897 0
M  V30 4166 H 370.216 -4.98104 1.41819 0
M  V30 4167 H 366.893 -4.05571 -0.990872 0
M  V30 4168 H 368.283 -6.28264 2.38188 0
M  V30 4169 N 371.003 -0.499398 -1.49478 0
M  V30 4170 C 372.228 0.044722 -2.07352 0
M  V30 4171 C 372.653 1.30207 -1.35749 0
M  V30 4172 O 372.011 1.76516 -0.413732 0
M  V30 4173 C 372.059 0.283013 -3.59488 0
M  V30 4174 O 371.163 1.35804 -3.89398 0
M  V30 4175 H 370.504 -0.0255147 -0.66351 0
M  V30 4176 H 373.034 -0.698561 -1.92305 0
M  V30 4177 H 373.044 0.515007 -4.04737 0
M  V30 4178 H 371.719 -0.635636 -4.11014 0
M  V30 4179 H 370.296 1.11113 -3.55961 0
M  V30 4180 N 372.481 1.55866 -0.233164 0
M  V30 4181 C 373.428 2.20796 0.67215 0
M  V30 4182 C 374.398 1.16731 1.18166 0
M  V30 4183 O 375.583 1.45129 1.23864 0
M  V30 4184 C 372.723 2.90072 1.86955 0
M  V30 4185 C 371.836 4.08759 1.39786 0
M  V30 4186 C 370.971 4.65787 2.55374 0
M  V30 4187 C 370.01 5.76752 2.04998 0
M  V30 4188 N 369.147 6.28021 3.13901 0
M  V30 4189 H 373.987 2.9779 0.111749 0
M  V30 4190 H 371.524 1.47036 0.0434007 0
M  V30 4191 H 373.482 3.28428 2.57276 0
M  V30 4192 H 372.112 2.15575 2.40265 0
M  V30 4193 H 371.164 3.7581 0.589173 0
M  V30 4194 H 372.476 4.88906 0.98856 0
M  V30 4195 H 371.63 5.06646 3.33758 0
M  V30 4196 H 370.369 3.84828 2.99598 0
M  V30 4197 H 369.374 5.35383 1.25079 0
M  V30 4198 H 370.599 6.59553 1.61759 0
M  V30 4199 H 368.545 5.49971 3.57586 0
M  V30 4200 H 368.462 7.03323 2.7726 0
M  V30 4201 H 369.73 6.73538 3.92386 0
M  V30 4202 N 373.959 -0.0401083 1.57549 0
M  V30 4203 C 375.184 -0.748931 1.93406 0
M  V30 4204 C 375.609 -1.68686 0.832274 0
M  V30 4205 O 374.967 -1.80047 -0.212818 0
M  V30 4206 C 375.015 -1.4916 3.28304 0
M  V30 4207 O 374.119 -2.6042 3.19774 0
M  V30 4208 H 373.46 -0.202212 0.63246 0
M  V30 4209 H 375.99 0.00112086 2.046 0
M  V30 4210 H 376 -1.86395 3.62934 0
M  V30 4211 H 374.675 -0.80364 4.08062 0
M  V30 4212 H 373.252 -2.25808 2.96758 0
M  V30 4213 N 375.437 -1.54477 -0.31217 0
M  V30 4214 C 376.848 -1.64344 -0.885891 0
M  V30 4215 C 377.199 -0.54485 -1.88483 0
M  V30 4216 O 376.324 0.320387 -2.14015 0
M  V30 4217 C 376.919 -2.97908 -1.61357 0
M  V30 4218 C 375.478 -3.09933 -2.13585 0
M  V30 4219 C 374.625 -2.59971 -0.964897 0
M  V30 4220 H 377.576 -1.58448 -0.0894528 0
M  V30 4221 H 377.597 -2.88706 -2.47848 0
M  V30 4222 H 377.109 -3.77845 -0.886277 0
M  V30 4223 H 375.21 -2.34694 -2.89395 0
M  V30 4224 H 375.323 -4.15916 -2.37804 0
M  V30 4225 H 373.687 -2.16147 -1.34731 0
M  V30 4226 H 374.47 -3.42376 -0.251742 0
M  V30 4227 N 376.915 0.57481 -1.46744 0
M  V30 4228 C 378.162 1.33272 -1.52462 0
M  V30 4229 C 378.49 1.93669 -0.179572 0
M  V30 4230 O 377.745 1.7743 0.825664 0
M  V30 4231 C 378.044 2.476 -2.57738 0
M  V30 4232 C 377.71 2.05146 -4.01529 0
M  V30 4233 C 376.372 1.93284 -4.40676 0
M  V30 4234 C 378.724 1.72506 -4.91824 0
M  V30 4235 C 376.052 1.47049 -5.67973 0
M  V30 4236 C 378.404 1.27748 -6.19567 0
M  V30 4237 C 377.068 1.14468 -6.57612 0
M  V30 4238 H 376.338 0.487678 -0.557899 0
M  V30 4239 H 378.985 0.646456 -1.80259 0
M  V30 4240 H 377.29 3.21708 -2.23632 0
M  V30 4241 H 378.987 3.05807 -2.5939 0
M  V30 4242 H 375.577 2.15316 -3.7059 0
M  V30 4243 H 379.761 1.80552 -4.62293 0
M  V30 4244 H 375.017 1.35417 -5.96215 0
M  V30 4245 H 379.191 1.01547 -6.88957 0
M  V30 4246 H 376.818 0.78419 -7.56145 0
M  V30 4247 N 378.394 1.34581 0.820102 0
M  V30 4248 C 379.327 1.20735 1.93644 0
M  V30 4249 C 380.305 0.0983343 1.62302 0
M  V30 4250 O 381.489 0.263997 1.86642 0
M  V30 4251 C 378.616 0.856037 3.27704 0
M  V30 4252 C 377.662 1.97521 3.78005 0
M  V30 4253 S 378.495 3.58906 3.97425 0
M  V30 4254 C 379.651 3.25822 5.34407 0
M  V30 4255 H 379.884 2.15231 2.05093 0
M  V30 4256 H 377.417 1.1964 0.97599 0
M  V30 4257 H 379.375 0.660133 4.05157 0
M  V30 4258 H 378.036 -0.0706253 3.14021 0
M  V30 4259 H 377.229 1.68321 4.75062 0
M  V30 4260 H 376.831 2.12875 3.07507 0
M  V30 4261 H 379.123 2.77812 6.17922 0
M  V30 4262 H 380.066 4.22029 5.68592 0
M  V30 4263 H 380.474 2.61932 5.00052 0
M  V30 4264 N 379.872 -1.04064 1.18357 0
M  V30 4265 C 381.288 -1.2947 0.933258 0
M  V30 4266 C 381.488 -1.97466 -0.401169 0
M  V30 4267 O 380.544 -2.25528 -1.13549 0
M  V30 4268 C 381.857 -2.15337 2.09882 0
M  V30 4269 C 383.405 -2.28683 2.13712 0
M  V30 4270 C 383.88 -3.17917 3.29686 0
M  V30 4271 N 385.371 -3.25504 3.29547 0
M  V30 4272 C 386.106 -3.94706 4.15926 0
M  V30 4273 N 385.602 -4.66239 5.12439 0
M  V30 4274 N 387.395 -3.90986 4.0384 0
M  V30 4275 H 379.546 -0.583359 2.04232 0
M  V30 4276 H 381.809 -0.319921 0.892387 0
M  V30 4277 H 381.515 -1.72682 3.06389 0
M  V30 4278 H 381.389 -3.16015 2.05947 0
M  V30 4279 H 383.776 -2.70575 1.17784 0
M  V30 4280 H 383.857 -1.27596 2.21705 0
M  V30 4281 H 383.501 -2.76736 4.25887 0
M  V30 4282 H 383.431 -4.19036 3.1893 0
M  V30 4283 H 385.922 -2.74547 2.59677 0
M  V30 4284 H 386.235 -5.16638 5.74722 0
M  V30 4285 H 384.58 -4.65143 5.16398 0
M  V30 4286 H 387.771 -3.34234 3.27727 0
M  V30 4287 H 387.944 -4.44646 4.71375 0
M  V30 4288 N 381.35 -0.985608 -1.22978 0
M  V30 4289 C 382.297 -0.529825 -2.24636 0
M  V30 4290 C 383.267 0.434028 -1.60329 0
M  V30 4291 O 384.452 0.340414 -1.87739 0
M  V30 4292 C 381.592 0.156533 -3.44745 0
M  V30 4293 C 380.705 -0.848197 -4.23591 0
M  V30 4294 C 379.84 -0.136109 -5.31026 0
M  V30 4295 C 378.879 -1.1297 -6.01585 0
M  V30 4296 N 378.016 -0.446415 -7.00679 0
M  V30 4297 H 382.856 -1.40148 -2.62988 0
M  V30 4298 H 380.393 -0.702168 -1.29259 0
M  V30 4299 H 382.351 0.571324 -4.1327 0
M  V30 4300 H 380.981 0.992025 -3.07179 0
M  V30 4301 H 380.033 -1.38135 -3.54433 0
M  V30 4302 H 381.345 -1.60512 -4.72268 0
M  V30 4303 H 380.499 0.335784 -6.0577 0
M  V30 4304 H 379.238 0.653373 -4.83304 0
M  V30 4305 H 378.243 -1.6123 -5.25628 0
M  V30 4306 H 379.468 -1.91993 -6.51395 0
M  V30 4307 H 377.414 0.323763 -6.55201 0
M  V30 4308 H 377.331 -1.1419 -7.47326 0
M  V30 4309 H 378.599 0.00291697 -7.795 0
M  V30 4310 N 382.828 1.3818 -0.7579 0
M  V30 4311 C 384.076 1.99624 -0.315361 0
M  V30 4312 C 384.397 1.60464 1.10799 0
M  V30 4313 O 383.667 0.863507 1.75842 0
M  V30 4314 H 382.247 0.73831 -0.113611 0
M  V30 4315 H 384.909 1.68878 -0.972952 0
M  V30 4316 H 384.005 3.09754 -0.381931 0
M  V30 4317 N 384.306 0.507319 1.49211 0
M  V30 4318 C 385.534 -0.0315749 2.06876 0
M  V30 4319 C 385.949 -1.30241 1.36685 0
M  V30 4320 O 385.306 -1.76937 0.447152 0
M  V30 4321 C 385.357 -0.282627 3.60393 0
M  V30 4322 O 385.078 0.937835 4.27944 0
M  V30 4323 C 386.579 -0.864453 4.3479 0
M  V30 4324 H 383.799 0.0233048 0.670595 0
M  V30 4325 H 386.343 0.706484 1.91909 0
M  V30 4326 H 384.498 -0.97068 3.75042 0
M  V30 4327 H 384.912 0.704567 5.19746 0
M  V30 4328 H 386.386 -0.989664 5.43056 0
M  V30 4329 H 386.863 -1.86382 3.97692 0
M  V30 4330 H 387.469 -0.213672 4.24763 0
M  V30 4331 N 385.784 -1.5574 0.241426 0
M  V30 4332 C 386.747 -2.19877 -0.647063 0
M  V30 4333 C 387.747 -1.16642 -1.10686 0
M  V30 4334 O 388.937 -1.41757 -1.01245 0
M  V30 4335 C 386.069 -2.83797 -1.88871 0
M  V30 4336 H 387.262 -2.99772 -0.087574 0
M  V30 4337 H 384.815 -1.56298 -0.00813574 0
M  V30 4338 H 385.55 -2.07824 -2.48957 0
M  V30 4339 H 385.335 -3.59414 -1.56728 0
M  V30 4340 H 386.825 -3.32898 -2.52129 0
M  V30 4341 N 387.262 0.0317525 -1.57568 0
M  V30 4342 C 388.51 0.721676 -1.88776 0
M  V30 4343 C 388.831 1.76039 -0.838772 0
M  V30 4344 O 388.101 1.95482 0.127935 0
M  V30 4345 H 386.681 0.269534 -0.696678 0
M  V30 4346 H 389.343 -0.00165879 -1.949 0
M  V30 4347 H 388.439 1.21293 -2.87566 0
M  V30 4348 N 388.74 1.54641 0.303973 0
M  V30 4349 C 390.017 1.64455 1.05896 0
M  V30 4350 C 390.397 0.490923 2.05312 0
M  V30 4351 O 389.745 -0.512685 2.22674 0
M  V30 4352 C 389.955 3.02331 1.74347 0
M  V30 4353 C 391.303 3.59045 2.26653 0
M  V30 4354 O 392.327 3.04764 1.84384 0
M  V30 4355 O 391.186 4.54081 3.04093 0
M  V30 4356 H 388.28 0.666729 0.489287 0
M  V30 4357 H 390.826 1.66986 0.302298 0
M  V30 4358 H 389.598 3.77734 1.02142 0
M  V30 4359 H 389.221 3.03565 2.56777 0
M  V30 4360 N 390.218 -0.567019 1.47046 0
M  V30 4361 C 391.464 -1.32434 1.54379 0
M  V30 4362 C 391.819 -1.91365 0.199276 0
M  V30 4363 O 391.112 -1.74378 -0.793915 0
M  V30 4364 C 391.306 -2.4623 2.59047 0
M  V30 4365 C 391.135 -1.98448 4.03545 0
M  V30 4366 C 389.905 -1.82741 4.71098 0
M  V30 4367 C 392.103 -1.53477 4.90866 0
M  V30 4368 N 390.085 -1.29196 6.00151 0
M  V30 4369 C 391.456 -1.1163 6.09868 0
M  V30 4370 C 393.511 -1.41438 4.77388 0
M  V30 4371 C 392.214 -0.589425 7.16881 0
M  V30 4372 C 394.24 -0.901528 5.84488 0
M  V30 4373 C 393.602 -0.492932 7.02673 0
M  V30 4374 H 389.701 -0.477005 0.61967 0
M  V30 4375 H 392.285 -0.643856 1.83746 0
M  V30 4376 H 390.456 -3.11821 2.31564 0
M  V30 4377 H 392.188 -3.13213 2.56281 0
M  V30 4378 H 388.943 -2.05162 4.26855 0
M  V30 4379 H 389.367 -1.0454 6.6888 0
M  V30 4380 H 394.009 -1.71643 3.86392 0
M  V30 4381 H 391.727 -0.274994 8.07632 0
M  V30 4382 H 395.313 -0.812071 5.76105 0
M  V30 4383 H 394.193 -0.102227 7.84133 0
M  V30 4384 N 391.696 -1.35014 -0.812953 0
M  V30 4385 C 392.643 -1.27412 -1.92444 0
M  V30 4386 C 393.613 -0.14733 -1.65445 0
M  V30 4387 O 394.798 -0.329974 -1.87925 0
M  V30 4388 C 391.938 -1.04558 -3.28879 0
M  V30 4389 C 391.051 -2.26101 -3.68106 0
M  V30 4390 C 390.186 -1.96449 -4.9354 0
M  V30 4391 C 389.225 -3.14081 -5.25376 0
M  V30 4392 N 388.362 -2.84246 -6.41988 0
M  V30 4393 H 393.202 -2.22463 -1.98278 0
M  V30 4394 H 390.739 -1.10593 -0.969933 0
M  V30 4395 H 392.697 -0.893413 -4.07522 0
M  V30 4396 H 391.327 -0.131719 -3.22531 0
M  V30 4397 H 390.379 -2.52204 -2.84775 0
M  V30 4398 H 391.691 -3.13959 -3.87597 0
M  V30 4399 H 390.845 -1.78026 -5.79993 0
M  V30 4400 H 389.584 -1.05867 -4.76071 0
M  V30 4401 H 388.589 -3.33089 -4.37415 0
M  V30 4402 H 389.814 -4.05455 -5.44778 0
M  V30 4403 H 387.76 -1.96252 -6.25956 0
M  V30 4404 H 387.677 -3.65637 -6.61699 0
M  V30 4405 H 388.945 -2.6935 -7.31485 0
M  V30 4406 N 393.175 1.03435 -1.18907 0
M  V30 4407 C 394.123 2.13703 -0.918353 0
M  V30 4408 C 395.117 1.68947 0.123767 0
M  V30 4409 O 396.323 1.79983 -0.0249701 0
M  V30 4410 H 392.698 0.698112 -0.279542 0
M  V30 4411 H 394.669 2.33731 -1.85506 0
M  V30 4412 C 393.418 3.44542 -0.467532 0
M  V30 4413 H 392.741 3.79394 -1.26095 0
M  V30 4414 H 394.181 4.22812 -0.317164 0
M  V30 4415 C 392.64 3.26829 0.817588 0
M  V30 4416 O 393.17 3.54975 1.88031 0
M  V30 4417 N 391.376 2.80139 0.772677 0
M  V30 4418 H 390.923 2.57434 -0.0923883 0
M  V30 4419 H 390.881 2.68668 1.63294 0
M  V30 4420 N 394.653 0.992116 1.22453 0
M  V30 4421 C 395.883 0.684949 1.94915 0
M  V30 4422 C 396.291 -0.754292 1.73514 0
M  V30 4423 O 395.634 -1.52056 1.03076 0
M  V30 4424 C 395.696 0.910054 3.47791 0
M  V30 4425 C 395.36 2.33363 3.92926 0
M  V30 4426 C 396.357 3.31308 4.00663 0
M  V30 4427 C 394.042 2.66785 4.25595 0
M  V30 4428 C 396.036 4.6075 4.40441 0
M  V30 4429 C 393.723 3.96446 4.65053 0
M  V30 4430 C 394.721 4.9324 4.72444 0
M  V30 4431 O 394.409 6.20584 5.1101 0
M  V30 4432 H 394.141 0.25258 0.62704 0
M  V30 4433 H 396.695 1.32939 1.56577 0
M  V30 4434 H 394.925 0.208443 3.86138 0
M  V30 4435 H 396.614 0.598257 4.01467 0
M  V30 4436 H 397.38 3.0682 3.75615 0
M  V30 4437 H 393.259 1.92148 4.19047 0
M  V30 4438 H 396.803 5.363 4.46126 0
M  V30 4439 H 392.7 4.20724 4.89552 0
M  V30 4440 H 393.468 6.24509 5.29085 0
M  V30 4441 N 396.131 -1.37776 0.765217 0
M  V30 4442 C 397.378 -1.99849 0.326588 0
M  V30 4443 C 397.706 -1.60746 -1.09504 0
M  V30 4444 O 396.961 -0.84202 -1.76659 0
M  V30 4445 C 397.26 -3.5504 0.410053 0
M  V30 4446 C 396.926 -4.13891 1.78899 0
M  V30 4447 C 395.588 -4.29678 2.16635 0
M  V30 4448 C 397.94 -4.46236 2.69301 0
M  V30 4449 C 395.268 -4.7511 3.44221 0
M  V30 4450 C 397.62 -4.93089 3.9629 0
M  V30 4451 C 396.284 -5.07082 4.34078 0
M  V30 4452 H 395.554 -0.7313 0.119507 0
M  V30 4453 H 398.201 -1.64645 0.977968 0
M  V30 4454 H 396.506 -3.90451 -0.324878 0
M  V30 4455 H 398.203 -4.00966 0.0520699 0
M  V30 4456 H 394.793 -4.02026 1.48569 0
M  V30 4457 H 398.977 -4.3363 2.41409 0
M  V30 4458 H 394.233 -4.84129 3.73402 0
M  V30 4459 H 398.407 -5.17084 4.66472 0
M  V30 4460 H 396.034 -5.42046 5.33001 0
M  V30 4461 N 397.609 -0.515225 -1.4894 0
M  V30 4462 C 398.837 0.0206034 -2.0689 0
M  V30 4463 C 399.252 1.29514 -1.37374 0
M  V30 4464 O 398.609 1.76698 -0.456529 0
M  V30 4465 C 398.66 0.26351 -3.60538 0
M  V30 4466 O 398.381 -0.960517 -4.27441 0
M  V30 4467 C 399.882 0.841383 -4.35242 0
M  V30 4468 H 397.102 -0.0268608 -0.670462 0
M  V30 4469 H 399.646 -0.716651 -1.91532 0
M  V30 4470 H 397.801 0.950777 -3.75552 0
M  V30 4471 H 398.215 -0.73212 -5.19365 0
M  V30 4472 H 399.689 0.96085 -5.43573 0
M  V30 4473 H 400.166 1.8427 -3.98674 0
M  V30 4474 H 400.772 0.191143 -4.2487 0
M  V30 4475 N 399.087 1.5561 -0.249682 0
M  V30 4476 C 400.333 1.99306 0.374841 0
M  V30 4477 C 400.666 1.13767 1.57387 0
M  V30 4478 O 399.941 0.201711 1.93451 0
M  V30 4479 C 400.224 3.51507 0.781986 0
M  V30 4480 C 400.077 4.4781 -0.422629 0
M  V30 4481 C 401.396 4.08884 1.62793 0
M  V30 4482 H 398.515 0.724572 0.134773 0
M  V30 4483 H 401.157 1.86719 -0.351549 0
M  V30 4484 H 399.307 3.62363 1.4009 0
M  V30 4485 H 400.979 4.48931 -1.06108 0
M  V30 4486 H 399.222 4.20518 -1.06524 0
M  V30 4487 H 399.893 5.51919 -0.0943766 0
M  V30 4488 H 402.369 4.01147 1.10547 0
M  V30 4489 H 401.245 5.1564 1.88166 0
M  V30 4490 H 401.506 3.57515 2.60068 0
M  V30 4491 N 400.565 -0.0233959 1.57583 0
M  V30 4492 C 401.528 -1.00693 2.05897 0
M  V30 4493 C 402.528 -1.28693 0.964092 0
M  V30 4494 O 403.718 -1.23602 1.22753 0
M  V30 4495 C 400.85 -2.33825 2.4807 0
M  V30 4496 H 402.043 -0.589476 2.9405 0
M  V30 4497 H 399.596 -0.270354 1.53944 0
M  V30 4498 H 400.331 -2.80307 1.6309 0
M  V30 4499 H 400.116 -2.1483 3.2801 0
M  V30 4500 H 401.606 -3.04426 2.85857 0
M  V30 4501 N 402.043 -1.548 -0.295768 0
M  V30 4502 C 402.975 -1.82492 -1.3867 0
M  V30 4503 C 403.988 -0.708134 -1.46592 0
M  V30 4504 O 405.177 -0.985686 -1.48817 0
M  V30 4505 C 402.277 -1.95256 -2.76999 0
M  V30 4506 C 401.45 -3.25709 -2.91946 0
M  V30 4507 C 400.509 -3.28824 -4.10806 0
M  V30 4508 O 399.535 -4.02328 -4.02643 0
M  V30 4509 N 400.737 -2.5459 -5.21694 0
M  V30 4510 H 403.502 -2.76646 -1.15269 0
M  V30 4511 H 401.063 -1.54438 -0.485849 0
M  V30 4512 H 403.055 -1.94736 -3.54768 0
M  V30 4513 H 401.625 -1.08072 -2.93324 0
M  V30 4514 H 400.845 -3.38959 -2.01247 0
M  V30 4515 H 402.133 -4.11786 -2.98847 0
M  V30 4516 H 401.531 -1.94512 -5.31208 0
M  V30 4517 H 400.088 -2.59818 -5.97778 0
M  V30 4518 N 403.521 0.559213 -1.47345 0
M  V30 4519 C 404.469 1.68747 -1.60085 0
M  V30 4520 C 405.463 1.628 -0.46825 0
M  V30 4521 O 406.669 1.68009 -0.645977 0
M  V30 4522 H 403.044 0.558329 -0.503759 0
M  V30 4523 H 405.015 1.55138 -2.54902 0
M  V30 4524 C 403.764 3.07103 -1.63042 0
M  V30 4525 H 403.087 3.12361 -2.49541 0
M  V30 4526 H 404.527 3.85743 -1.76006 0
M  V30 4527 C 402.986 3.34935 -0.363357 0
M  V30 4528 O 403.516 3.98102 0.536416 0
M  V30 4529 N 401.722 2.89574 -0.244 0
M  V30 4530 H 401.269 2.38348 -0.977133 0
M  V30 4531 H 401.227 3.08566 0.602836 0
M  V30 4532 N 404.999 1.35443 0.805782 0
M  V30 4533 C 405.909 1.30546 1.94923 0
M  V30 4534 C 406.925 0.210233 1.72725 0
M  V30 4535 O 408.101 0.43975 1.9654 0
M  V30 4536 C 405.166 1.07782 3.29521 0
M  V30 4537 C 404.227 2.26625 3.64609 0
M  V30 4538 C 403.46 2.04938 4.92784 0
M  V30 4539 O 403.683 1.01624 5.61274 0
M  V30 4540 O 402.617 2.9232 5.26149 0
M  V30 4541 H 406.443 2.26779 2.02002 0
M  V30 4542 H 404.028 1.15823 0.943682 0
M  V30 4543 H 405.91 0.969392 4.10098 0
M  V30 4544 H 404.585 0.146003 3.23371 0
M  V30 4545 H 403.492 2.43033 2.84404 0
M  V30 4546 H 404.825 3.18257 3.75464 0
M  V30 4547 N 406.477 -1.02803 1.19454 0
M  V30 4548 C 407.424 -2.11099 0.933046 0
M  V30 4549 C 408.394 -1.65571 -0.132447 0
M  V30 4550 O 409.579 -1.90797 0.00987576 0
M  V30 4551 C 406.719 -3.41763 0.478747 0
M  V30 4552 C 405.832 -4.00833 1.6111 0
M  V30 4553 C 404.967 -5.19511 1.10825 0
M  V30 4554 C 404.006 -5.70639 2.21445 0
M  V30 4555 N 403.143 -6.80589 1.72461 0
M  V30 4556 H 407.983 -2.32804 1.86028 0
M  V30 4557 H 405.52 -1.14179 0.927441 0
M  V30 4558 H 407.478 -4.16736 0.196745 0
M  V30 4559 H 406.108 -3.20166 -0.411493 0
M  V30 4560 H 405.16 -3.23066 2.00829 0
M  V30 4561 H 406.472 -4.34794 2.4445 0
M  V30 4562 H 405.626 -6.01645 0.781533 0
M  V30 4563 H 404.365 -4.87086 0.244606 0
M  V30 4564 H 403.37 -4.87116 2.54947 0
M  V30 4565 H 404.595 -6.05102 3.08267 0
M  V30 4566 H 402.541 -6.50016 0.884056 0
M  V30 4567 H 402.458 -7.13681 2.49389 0
M  V30 4568 H 403.726 -7.66317 1.42755 0
M  V30 4569 N 407.956 -0.998596 -1.21925 0
M  V30 4570 C 409.203 -0.677663 -1.90824 0
M  V30 4571 C 409.531 0.790905 -1.77693 0
M  V30 4572 O 408.786 1.58817 -1.14349 0
M  V30 4573 C 409.085 -1.03648 -3.42041 0
M  V30 4574 C 408.751 -2.49825 -3.75364 0
M  V30 4575 C 407.413 -2.8977 -3.8417 0
M  V30 4576 C 409.765 -3.44545 -3.91073 0
M  V30 4577 C 407.093 -4.23412 -4.06127 0
M  V30 4578 C 409.445 -4.77853 -4.14535 0
M  V30 4579 C 408.109 -5.17531 -4.21566 0
M  V30 4580 H 407.379 -0.247975 -0.698276 0
M  V30 4581 H 410.026 -1.25584 -1.44571 0
M  V30 4582 H 408.331 -0.376457 -3.89987 0
M  V30 4583 H 410.028 -0.766113 -3.93614 0
M  V30 4584 H 406.618 -2.17866 -3.69097 0
M  V30 4585 H 410.802 -3.14853 -3.83642 0
M  V30 4586 H 406.058 -4.53734 -4.09799 0
M  V30 4587 H 410.232 -5.51189 -4.25633 0
M  V30 4588 H 407.859 -6.21102 -4.38333 0
M  V30 4589 N 409.434 1.37368 -0.772513 0
M  V30 4590 C 410.711 1.93839 -0.26188 0
M  V30 4591 C 411.091 1.7061 1.24319 0
M  V30 4592 O 410.439 1.05534 2.02669 0
M  V30 4593 C 410.649 3.43154 -0.636102 0
M  V30 4594 C 411.997 4.20249 -0.606324 0
M  V30 4595 O 413.021 3.5152 -0.575538 0
M  V30 4596 O 411.88 5.42809 -0.634086 0
M  V30 4597 H 408.974 0.82478 -0.0605555 0
M  V30 4598 H 411.52 1.4665 -0.853917 0
M  V30 4599 H 410.292 3.53647 -1.6748 0
M  V30 4600 H 409.915 3.97596 -0.0170516 0
M  V30 4601 N 410.912 0.523116 1.48665 0
M  V30 4602 C 411.875 -0.232592 2.28017 0
M  V30 4603 C 412.875 -0.874021 1.34972 0
M  V30 4604 O 414.065 -0.735132 1.57929 0
M  V30 4605 C 411.197 -1.33586 3.13636 0
M  V30 4606 H 412.39 0.464008 2.96289 0
M  V30 4607 H 409.943 0.278816 1.53793 0
M  V30 4608 H 410.678 -2.06593 2.4998 0
M  V30 4609 H 410.463 -0.881125 3.82071 0
M  V30 4610 H 411.953 -1.86759 3.73511 0
M  V30 4611 N 412.39 -1.55475 0.257931 0
M  V30 4612 C 413.639 -1.98383 -0.364275 0
M  V30 4613 C 413.952 -1.14952 -1.58258 0
M  V30 4614 O 415.158 -1.47924 -2.27664 0
M  V30 4615 C 413.614 -3.53037 -0.699479 0
M  V30 4616 C 413.222 -4.45223 0.498046 0
M  V30 4617 C 414.966 -4.04575 -1.28526 0
M  V30 4618 C 412.873 -5.91238 0.138383 0
M  V30 4619 H 411.803 -0.740911 -0.13988 0
M  V30 4620 H 414.454 -1.79936 0.359883 0
M  V30 4621 H 412.836 -3.6722 -1.48207 0
M  V30 4622 H 414.01 -4.42803 1.27522 0
M  V30 4623 H 412.325 -4.04226 0.999503 0
M  V30 4624 H 414.922 -5.11196 -1.56788 0
M  V30 4625 H 415.265 -3.5258 -2.21344 0
M  V30 4626 H 415.798 -3.93762 -0.565337 0
M  V30 4627 H 412.537 -6.47294 1.03398 0
M  V30 4628 H 412.057 -5.96768 -0.602374 0
M  V30 4629 H 413.736 -6.46413 -0.27553 0
M  V30 4630 N 413.868 0.0150385 -1.57593 0
M  V30 4631 C 415.098 0.713359 -1.93894 0
M  V30 4632 C 415.506 1.68663 -0.857289 0
M  V30 4633 O 414.849 1.82876 0.173788 0
M  V30 4634 C 414.911 1.51348 -3.26089 0
M  V30 4635 C 414.575 0.703451 -4.51554 0
M  V30 4636 C 415.572 -0.00237924 -5.199 0
M  V30 4637 C 413.257 0.653854 -4.98026 0
M  V30 4638 C 415.251 -0.746955 -6.33008 0
M  V30 4639 C 412.938 -0.0944578 -6.11027 0
M  V30 4640 C 413.936 -0.793609 -6.78374 0
M  V30 4641 O 413.624 -1.52974 -7.89211 0
M  V30 4642 H 413.356 0.204637 -0.644282 0
M  V30 4643 H 415.91 -0.0276411 -2.05381 0
M  V30 4644 H 414.14 2.29862 -3.10967 0
M  V30 4645 H 415.829 2.09572 -3.47612 0
M  V30 4646 H 416.595 0.0268803 -4.84993 0
M  V30 4647 H 412.474 1.18756 -4.45441 0
M  V30 4648 H 416.018 -1.2932 -6.85509 0
M  V30 4649 H 411.915 -0.125591 -6.45378 0
M  V30 4650 H 412.683 -1.44488 -8.05646 0
M  V30 4651 N 415.346 1.54954 0.287554 0
M  V30 4652 C 416.256 1.8991 1.37736 0
M  V30 4653 C 417.272 0.794701 1.54792 0
M  V30 4654 O 418.448 1.09243 1.69198 0
M  V30 4655 C 415.513 2.15108 2.71899 0
M  V30 4656 C 414.574 3.38752 2.63715 0
M  V30 4657 C 413.807 3.62739 3.91479 0
M  V30 4658 O 414.03 2.89492 4.91478 0
M  V30 4659 O 412.964 4.56267 3.92561 0
M  V30 4660 H 416.79 2.82652 1.11092 0
M  V30 4661 H 414.375 1.41315 0.484807 0
M  V30 4662 H 416.257 2.32806 3.51254 0
M  V30 4663 H 414.932 1.25551 2.9836 0
M  V30 4664 H 413.839 3.26405 1.82786 0
M  V30 4665 H 415.172 4.28483 2.42205 0
M  V30 4666 N 416.824 -0.551391 1.4764 0
M  V30 4667 C 418.052 -1.33357 1.58189 0
M  V30 4668 C 418.467 -1.87342 0.234199 0
M  V30 4669 O 417.824 -1.65301 -0.77343 0
M  V30 4670 C 417.875 -2.49942 2.61173 0
M  V30 4671 O 417.596 -1.98187 3.90709 0
M  V30 4672 C 419.097 -3.42072 2.8196 0
M  V30 4673 H 416.317 -0.40631 0.533998 0
M  V30 4674 H 418.861 -0.667367 1.93304 0
M  V30 4675 H 417.016 -3.12489 2.28975 0
M  V30 4676 H 417.43 -2.74342 4.47031 0
M  V30 4677 H 418.904 -4.20278 3.57869 0
M  V30 4678 H 419.381 -3.95978 1.89995 0
M  V30 4679 H 419.987 -2.85336 3.15378 0
M  V30 4680 N 418.302 -1.35869 -0.798587 0
M  V30 4681 C 419.212 -1.31578 -1.94228 0
M  V30 4682 C 420.228 -0.21939 -1.72611 0
M  V30 4683 O 421.404 -0.450167 -1.96305 0
M  V30 4684 C 418.469 -1.09528 -3.28944 0
M  V30 4685 C 417.53 -2.28556 -3.63402 0
M  V30 4686 C 416.763 -2.07549 -4.9169 0
M  V30 4687 O 416.986 -1.046 -5.60727 0
M  V30 4688 O 415.92 -2.95106 -5.24591 0
M  V30 4689 H 419.746 -2.27847 -2.00796 0
M  V30 4690 H 417.331 -1.16322 -0.937526 0
M  V30 4691 H 419.213 -0.991127 -4.09579 0
M  V30 4692 H 417.888 -0.16315 -3.23289 0
M  V30 4693 H 416.795 -2.44538 -2.83112 0
M  V30 4694 H 418.128 -3.20244 -3.73771 0
M  V30 4695 N 419.78 1.02168 -1.19998 0
M  V30 4696 C 420.713 2.10232 -0.887558 0
M  V30 4697 C 421.691 1.61827 0.158317 0
M  V30 4698 O 422.875 1.88471 0.0330249 0
M  V30 4699 C 420.002 3.37092 -0.32964 0
M  V30 4700 C 419.048 4.0438 -1.3557 0
M  V30 4701 S 419.881 4.48956 -2.91888 0
M  V30 4702 C 421.037 5.79024 -2.37658 0
M  V30 4703 H 421.27 2.36409 -1.80272 0
M  V30 4704 H 418.803 1.15211 -1.0279 0
M  V30 4705 H 420.761 4.10498 -0.0142824 0
M  V30 4706 H 419.422 3.08996 0.563941 0
M  V30 4707 H 418.615 4.95632 -0.9146 0
M  V30 4708 H 418.217 3.37176 -1.61828 0
M  V30 4709 H 420.509 6.53942 -1.77103 0
M  V30 4710 H 421.452 6.27924 -3.27287 0
M  V30 4711 H 421.86 5.35043 -1.79971 0
M  V30 4712 N 421.258 1.00505 1.21394 0
M  V30 4713 C 422.483 0.706367 1.95001 0
M  V30 4714 C 422.908 -0.72463 1.73582 0
M  V30 4715 O 422.266 -1.49702 1.0227 0
M  V30 4716 C 422.314 1.03299 3.45487 0
M  V30 4717 O 421.418 0.138275 4.12168 0
M  V30 4718 H 420.759 0.263175 0.609619 0
M  V30 4719 H 423.289 1.34531 1.54151 0
M  V30 4720 H 423.299 0.979872 3.96059 0
M  V30 4721 H 421.974 2.07567 3.60401 0
M  V30 4722 H 420.551 0.247928 3.72075 0
M  V30 4723 N 422.737 -1.36956 0.779787 0
M  V30 4724 C 423.684 -2.30175 0.169697 0
M  V30 4725 C 424.654 -1.51501 -0.68094 0
M  V30 4726 O 425.839 -1.80042 -0.631629 0
M  V30 4727 C 422.979 -3.37985 -0.697131 0
M  V30 4728 C 422.092 -4.31661 0.170992 0
M  V30 4729 C 421.227 -5.2655 -0.701298 0
M  V30 4730 C 420.266 -6.11867 0.168869 0
M  V30 4731 N 419.403 -6.98973 -0.661855 0
M  V30 4732 H 424.243 -2.81767 0.970135 0
M  V30 4733 H 421.78 -1.38699 0.489994 0
M  V30 4734 H 423.738 -3.99128 -1.2146 0
M  V30 4735 H 422.368 -2.87739 -1.46309 0
M  V30 4736 H 421.42 -3.71756 0.80634 0
M  V30 4737 H 422.732 -4.91644 0.841875 0
M  V30 4738 H 421.886 -5.92937 -1.28494 0
M  V30 4739 H 420.625 -4.66998 -1.40584 0
M  V30 4740 H 419.63 -5.44452 0.764986 0
M  V30 4741 H 420.855 -6.73493 0.870863 0
M  V30 4742 H 418.801 -6.41941 -1.35086 0
M  V30 4743 H 418.718 -7.55984 -0.0484447 0
M  V30 4744 H 419.986 -7.6974 -1.22963 0
M  V30 4745 N 424.215 -0.530993 -1.48385 0
M  V30 4746 C 425.443 -0.00134122 -2.069 0
M  V30 4747 C 425.858 1.2805 -1.3874 0
M  V30 4748 O 425.215 1.76204 -0.475244 0
M  V30 4749 C 425.266 0.225256 -3.60798 0
M  V30 4750 O 424.987 -1.0058 -4.26398 0
M  V30 4751 C 426.488 0.795172 -4.3611 0
M  V30 4752 H 423.708 -0.0339704 -0.67014 0
M  V30 4753 H 426.252 -0.736926 -1.90761 0
M  V30 4754 H 424.407 0.910891 -3.76539 0
M  V30 4755 H 424.821 -0.787165 -5.1856 0
M  V30 4756 H 426.295 0.903143 -5.44562 0
M  V30 4757 H 426.772 1.80031 -4.00606 0
M  V30 4758 H 427.378 0.146069 -4.25049 0
M  V30 4759 N 425.693 1.55336 -0.266172 0
M  V30 4760 C 426.656 2.20878 0.612001 0
M  V30 4761 C 427.656 1.18388 1.08816 0
M  V30 4762 O 428.846 1.4335 0.989774 0
M  V30 4763 C 425.978 2.86765 1.84332 0
M  V30 4764 H 427.171 2.99873 0.0398718 0
M  V30 4765 H 424.724 1.56291 -0.0167309 0
M  V30 4766 H 425.459 2.11759 2.45619 0
M  V30 4767 H 425.244 3.61862 1.5099 0
M  V30 4768 H 426.734 3.36867 2.46801 0
M  V30 4769 N 427.171 -0.0066808 1.57599 0
M  V30 4770 C 428.101 -0.999296 2.11036 0
M  V30 4771 C 429.082 -1.36278 1.01795 0
M  V30 4772 O 430.267 -1.4477 1.29442 0
M  V30 4773 C 427.397 -2.29328 2.60818 0
M  V30 4774 C 426.351 -2.07159 3.74525 0
M  V30 4775 C 425.677 -3.42512 4.10596 0
M  V30 4776 C 426.977 -1.43959 5.02069 0
M  V30 4777 H 428.671 -0.554382 2.94223 0
M  V30 4778 H 426.217 -0.265221 1.41536 0
M  V30 4779 H 428.17 -2.99117 2.96828 0
M  V30 4780 H 426.894 -2.7592 1.74745 0
M  V30 4781 H 425.553 -1.39797 3.38899 0
M  V30 4782 H 425.201 -3.86795 3.21556 0
M  V30 4783 H 424.901 -3.28498 4.87199 0
M  V30 4784 H 426.425 -4.13628 4.4916 0
M  V30 4785 H 427.839 -2.03696 5.35893 0
M  V30 4786 H 426.236 -1.40452 5.83432 0
M  V30 4787 H 427.306 -0.407992 4.83181 0
M  V30 4788 N 428.649 -1.55105 -0.279332 0
M  V30 4789 C 429.581 -1.83952 -1.36727 0
M  V30 4790 C 430.594 -0.723642 -1.45833 0
M  V30 4791 O 431.783 -1.00141 -1.47763 0
M  V30 4792 C 428.883 -1.98183 -2.74912 0
M  V30 4793 C 428.056 -3.28787 -2.88475 0
M  V30 4794 C 427.115 -3.33162 -4.07295 0
M  V30 4795 O 426.141 -4.06576 -3.98353 0
M  V30 4796 N 427.343 -2.60109 -5.18964 0
M  V30 4797 H 430.108 -2.77853 -1.12328 0
M  V30 4798 H 427.669 -1.54945 -0.469442 0
M  V30 4799 H 429.661 -1.98488 -3.52682 0
M  V30 4800 H 428.231 -1.11177 -2.92162 0
M  V30 4801 H 427.451 -3.41075 -1.97641 0
M  V30 4802 H 428.739 -4.14933 -2.94463 0
M  V30 4803 H 428.137 -2.00136 -5.29115 0
M  V30 4804 H 426.694 -2.66143 -5.94988 0
M  V30 4805 N 430.127 0.543554 -1.4793 0
M  V30 4806 C 431.374 1.30008 -1.55255 0
M  V30 4807 C 431.702 1.93245 -0.220612 0
M  V30 4808 O 430.957 1.79141 0.787843 0
M  V30 4809 C 431.256 2.42078 -2.62932 0
M  V30 4810 C 430.922 1.96583 -4.0579 0
M  V30 4811 C 429.584 1.83893 -4.44676 0
M  V30 4812 C 431.936 1.62034 -4.95373 0
M  V30 4813 C 429.264 1.34969 -5.70964 0
M  V30 4814 C 431.616 1.14577 -6.22137 0
M  V30 4815 C 430.28 1.00493 -6.59892 0
M  V30 4816 H 429.55 0.475735 -0.568117 0
M  V30 4817 H 432.197 0.608075 -1.81589 0
M  V30 4818 H 430.502 3.16892 -2.30406 0
M  V30 4819 H 432.199 3.00236 -2.65818 0
M  V30 4820 H 428.789 2.07407 -3.75074 0
M  V30 4821 H 432.973 1.70705 -4.66019 0
M  V30 4822 H 428.229 1.2274 -5.98953 0
M  V30 4823 H 432.403 0.869109 -6.90955 0
M  V30 4824 H 430.03 0.623624 -7.57638 0
M  V30 4825 N 431.605 1.3629 0.791371 0
M  V30 4826 C 433.021 1.16661 1.08914 0
M  V30 4827 C 433.221 -0.0106266 2.01497 0
M  V30 4828 O 432.277 -0.676596 2.43266 0
M  V30 4829 C 433.59 2.47656 1.70549 0
M  V30 4830 C 435.138 2.54002 1.82899 0
M  V30 4831 C 435.613 3.85078 2.47949 0
M  V30 4832 N 437.104 3.86413 2.5542 0
M  V30 4833 C 437.839 4.84572 3.06557 0
M  V30 4834 N 437.335 5.93124 3.58016 0
M  V30 4835 N 439.128 4.71994 3.05251 0
M  V30 4836 H 431.279 2.11668 0.176238 0
M  V30 4837 H 433.542 0.937486 0.140796 0
M  V30 4838 H 433.248 3.34059 1.09989 0
M  V30 4839 H 433.122 2.63319 2.70079 0
M  V30 4840 H 435.509 1.68018 2.42598 0
M  V30 4841 H 435.59 2.42239 0.821808 0
M  V30 4842 H 435.234 4.71467 1.88895 0
M  V30 4843 H 435.164 3.94135 3.49235 0
M  V30 4844 H 437.655 3.07988 2.18979 0
M  V30 4845 H 437.968 6.63999 3.95381 0
M  V30 4846 H 436.313 5.96796 3.56173 0
M  V30 4847 H 439.504 3.86321 2.64336 0
M  V30 4848 H 439.677 5.48653 3.44796 0
M  V30 4849 N 433.083 -1.0153 1.20538 0
M  V30 4850 C 434.311 -1.78746 1.04199 0
M  V30 4851 C 434.726 -1.84323 -0.408733 0
M  V30 4852 O 434.083 -1.29714 -1.28377 0
M  V30 4853 C 434.134 -3.23152 1.62035 0
M  V30 4854 O 433.855 -3.17918 3.0143 0
M  V30 4855 C 435.356 -4.16911 1.50666 0
M  V30 4856 H 432.576 -0.56208 0.366479 0
M  V30 4857 H 435.12 -1.27794 1.59653 0
M  V30 4858 H 433.275 -3.71248 1.10697 0
M  V30 4859 H 433.689 -4.08567 3.28897 0
M  V30 4860 H 435.163 -5.16072 1.95892 0
M  V30 4861 H 435.64 -4.36791 0.459363 0
M  V30 4862 H 436.246 -3.74698 2.01201 0
M  V30 4863 N 434.561 -1.01147 -1.20859 0
M  V30 4864 C 435.471 -0.58686 -2.27141 0
M  V30 4865 C 436.487 0.373198 -1.69951 0
M  V30 4866 O 437.663 0.235423 -2.00019 0
M  V30 4867 C 434.728 0.0733602 -3.46622 0
M  V30 4868 C 433.789 -0.931995 -4.19061 0
M  V30 4869 C 433.022 -0.303186 -5.32838 0
M  V30 4870 O 433.245 0.898395 -5.63281 0
M  V30 4871 O 432.179 -1.01735 -5.9324 0
M  V30 4872 H 436.005 -1.47155 -2.65667 0
M  V30 4873 H 433.59 -0.780689 -1.2738 0
M  V30 4874 H 435.472 0.442333 -4.19072 0
M  V30 4875 H 434.147 0.932329 -3.09983 0
M  V30 4876 H 433.054 -1.35224 -3.48805 0
M  V30 4877 H 434.387 -1.76076 -4.59628 0
M  V30 4878 N 436.039 1.36541 -0.78704 0
M  V30 4879 C 437.288 1.98552 -0.35494 0
M  V30 4880 C 437.601 1.63171 1.07864 0
M  V30 4881 O 438.807 2.18399 1.61289 0
M  V30 4882 C 437.263 3.55136 -0.583671 0
M  V30 4883 C 436.871 3.99444 -2.02851 0
M  V30 4884 C 438.615 4.2395 -0.215957 0
M  V30 4885 C 436.522 5.48796 -2.20403 0
M  V30 4886 H 435.452 0.742888 -0.128972 0
M  V30 4887 H 438.103 1.5587 -0.968337 0
M  V30 4888 H 436.485 3.95875 0.0994046 0
M  V30 4889 H 437.659 3.6991 -2.74779 0
M  V30 4890 H 435.974 3.43459 -2.35425 0
M  V30 4891 H 438.571 5.33709 -0.325405 0
M  V30 4892 H 438.914 4.07827 0.835646 0
M  V30 4893 H 439.447 3.88565 -0.852175 0
M  V30 4894 H 436.186 5.69864 -3.23937 0
M  V30 4895 H 435.706 5.79964 -1.52977 0
M  V30 4896 H 437.385 6.14986 -2.01002 0
M  V30 4897 O 437.556 0.680126 1.4648 0
M  V30 4898 H 438.247 0.213972 1.92515 0
M  V30 END ATOM
M  V30 BEGIN BOND
M  V30 END BOND
M  V30 END CTAB
M  END
$$$$
