drugbank_target|O43837 Isocitrate dehydrogenase [NAD] subunit beta, mitochondrial (DB00157)
 OpenBabel12092119343D

  0  0  0     0  0            999 V3000
M  V30 BEGIN CTAB
M  V30 COUNTS 5950 6003 0 0 0
M  V30 BEGIN ATOM
M  V30 1 H -0.908 1.98254 -0.117106 0
M  V30 2 N 0 1.576 0 0
M  V30 3 C 0.933 2.03868 1.02534 0
M  V30 4 C 1.911 0.928543 1.3348 0
M  V30 5 O 3.095 1.19667 1.45644 0
M  V30 6 C 0.222 2.43627 2.35294 0
M  V30 7 C -0.732 3.65373 2.2001 0
M  V30 8 S 0.101 5.13292 1.52614 0
M  V30 9 C 1.257 5.56322 2.86805 0
M  V30 10 H 1.49 2.90518 0.631377 0
M  V30 11 H -0.977 1.52953 0.210867 0
M  V30 12 H 0.981 2.67203 3.11629 0
M  V30 13 H -0.358 1.57376 2.7183 0
M  V30 14 H -1.165 3.90944 3.18086 0
M  V30 15 H -1.563 3.418 1.51819 0
M  V30 16 H 0.729 5.58782 3.83104 0
M  V30 17 H 1.672 6.56266 2.65933 0
M  V30 18 H 2.08 4.83886 2.90714 0
M  V30 19 N 1.4781 -0.272755 1.55222 0
M  V30 20 C 2.4411 -1.32041 1.87344 0
M  V30 21 C 3.4411 -1.42342 0.74803 0
M  V30 22 O 4.6311 -1.41488 1.0162 0
M  V30 23 C 1.7631 -2.70173 2.07893 0
M  V30 24 H 2.9561 -1.04789 2.80997 0
M  V30 25 H 0.5091 -0.51083 1.47717 0
M  V30 26 H 1.2441 -3.02605 1.16622 0
M  V30 27 H 1.0291 -2.64082 2.89833 0
M  V30 28 H 2.5191 -3.45869 2.34017 0
M  V30 29 N 2.9562 -1.48159 -0.537278 0
M  V30 30 C 3.9192 -1.61665 -1.62472 0
M  V30 31 C 4.9192 -0.490395 -1.5314 0
M  V30 32 O 6.1092 -0.755998 -1.5694 0
M  V30 33 C 3.2412 -1.57997 -3.02076 0
M  V30 34 H 4.4342 -2.58621 -1.51839 0
M  V30 35 H 1.9872 -1.36647 -0.758771 0
M  V30 36 H 2.7222 -0.624913 -3.18222 0
M  V30 37 H 2.5072 -2.39755 -3.10258 0
M  V30 38 H 3.9972 -1.70627 -3.81151 0
M  V30 39 N 4.4343 0.785586 -1.36625 0
M  V30 40 C 5.3643 1.91259 -1.33949 0
M  V30 41 C 6.3453 1.68795 -0.210325 0
M  V30 42 O 7.5303 1.89854 -0.408561 0
M  V30 43 C 4.6603 3.28339 -1.13186 0
M  V30 44 C 3.6143 3.65335 -2.22967 0
M  V30 45 C 2.9403 5.00806 -1.87342 0
M  V30 46 C 4.2403 3.7352 -3.65075 0
M  V30 47 H 5.9343 1.93755 -2.28253 0
M  V30 48 H 3.4803 0.930788 -1.09874 0
M  V30 49 H 5.4333 4.06804 -1.09948 0
M  V30 50 H 4.1573 3.2624 -0.153332 0
M  V30 51 H 2.8163 2.89169 -2.25337 0
M  V30 52 H 2.4643 4.95233 -0.880545 0
M  V30 53 H 2.1643 5.26529 -2.60846 0
M  V30 54 H 3.6883 5.81687 -1.85667 0
M  V30 55 H 5.1023 4.42168 -3.64911 0
M  V30 56 H 3.4993 4.10731 -4.37516 0
M  V30 57 H 4.5693 2.74527 -3.99703 0
M  V30 58 N 5.9124 1.20967 1.01018 0
M  V30 59 C 7.1374 1.0503 1.78839 0
M  V30 60 C 7.5624 -0.395752 1.8389 0
M  V30 61 O 6.9204 -1.28529 1.27867 0
M  V30 62 C 6.9684 1.64602 3.2084 0
M  V30 63 O 6.0724 0.887988 4.02726 0
M  V30 64 H 5.4134 0.369987 0.551367 0
M  V30 65 H 7.9434 1.60399 1.27018 0
M  V30 66 H 7.9534 1.68607 3.71532 0
M  V30 67 H 6.6284 2.69841 3.16479 0
M  V30 68 H 5.2054 0.922648 3.61305 0
M  V30 69 N 7.3905 -1.2043 1.01659 0
M  V30 70 C 8.6385 -1.89423 0.704522 0
M  V30 71 C 8.9595 -1.79231 -0.768197 0
M  V30 72 O 8.2295 -1.1947 -1.55254 0
M  V30 73 H 6.8095 -0.701178 0.257602 0
M  V30 74 H 9.4715 -1.4626 1.28818 0
M  V30 75 H 8.5675 -2.96052 0.987916 0
M  V30 76 N 8.8686 -0.792821 -1.36206 0
M  V30 77 C 10.1146 -0.36733 -1.99446 0
M  V30 78 C 10.4476 1.05917 -1.62774 0
M  V30 79 O 9.7226 1.7324 -0.88421 0
M  V30 80 C 10.0056 -0.535044 -3.56103 0
M  V30 81 C 9.8586 -2.00548 -4.02617 0
M  V30 82 C 11.1776 0.0478191 -4.40074 0
M  V30 83 H 8.2966 -0.134941 -0.724541 0
M  V30 84 H 10.9386 -0.999794 -1.61568 0
M  V30 85 H 9.0886 0.00336329 -3.885 0
M  V30 86 H 10.7606 -2.60521 -3.80692 0
M  V30 87 H 9.0036 -2.50686 -3.54032 0
M  V30 88 H 9.6746 -2.07377 -5.11565 0
M  V30 89 H 12.1506 -0.411822 -4.14057 0
M  V30 90 H 11.0266 -0.0995336 -5.4881 0
M  V30 91 H 11.2876 1.14025 -4.27142 0
M  V30 92 N 10.3467 1.47872 -0.545128 0
M  V30 93 C 11.7627 1.5829 -0.204032 0
M  V30 94 C 11.9627 1.54529 1.29317 0
M  V30 95 O 11.0187 1.44232 2.07252 0
M  V30 96 C 12.3317 2.89304 -0.819987 0
M  V30 97 C 13.8797 3.02864 -0.790105 0
M  V30 98 C 14.3547 4.3656 -1.38491 0
M  V30 99 N 15.8457 4.43165 -1.34755 0
M  V30 100 C 16.5807 5.45153 -1.77753 0
M  V30 101 N 16.0767 6.54016 -2.2855 0
M  V30 102 N 17.8697 5.36125 -1.68897 0
M  V30 103 H 10.0207 1.4856 -1.51802 0
M  V30 104 H 12.2837 0.706305 -0.632327 0
M  V30 105 H 11.9897 2.97757 -1.87173 0
M  V30 106 H 11.8637 3.75957 -0.305915 0
M  V30 107 H 14.2507 2.94014 0.252913 0
M  V30 108 H 14.3317 2.17782 -1.34181 0
M  V30 109 H 13.9757 4.46164 -2.42693 0
M  V30 110 H 13.9057 5.20353 -0.808754 0
M  V30 111 H 16.3967 3.65083 -0.975855 0
M  V30 112 H 16.7097 7.27994 -2.59314 0
M  V30 113 H 15.0547 6.54938 -2.32553 0
M  V30 114 H 18.2457 4.49975 -1.28998 0
M  V30 115 H 18.4187 6.15472 -2.02726 0
M  V30 116 N 11.8248 0.280983 1.55075 0
M  V30 117 C 13.0708 -0.327573 2.00745 0
M  V30 118 C 13.4258 -1.53045 1.16598 0
M  V30 119 O 12.7188 -1.90221 0.229451 0
M  V30 120 C 12.9128 -0.754656 3.49342 0
M  V30 121 C 12.7418 0.40529 4.4787 0
M  V30 122 C 11.5118 0.890947 4.97383 0
M  V30 123 C 13.7098 1.24371 4.99035 0
M  V30 124 N 11.6918 2.01975 5.79724 0
M  V30 125 C 13.0628 2.22031 5.7888 0
M  V30 126 C 15.1178 1.27638 4.81262 0
M  V30 127 C 13.8208 3.22709 6.42846 0
M  V30 128 C 15.8468 2.27164 5.46031 0
M  V30 129 C 15.2088 3.23556 6.25692 0
M  V30 130 H 11.3078 -0.0848774 0.77738 0
M  V30 131 H 13.8918 0.406342 1.90413 0
M  V30 132 H 12.0628 -1.45778 3.60005 0
M  V30 133 H 13.7948 -1.34105 3.81835 0
M  V30 134 H 10.5498 0.469262 4.71269 0
M  V30 135 H 10.9738 2.58794 6.25584 0
M  V30 136 H 15.6158 0.544936 4.19274 0
M  V30 137 H 13.3338 3.96784 7.0398 0
M  V30 138 H 16.9198 2.30441 5.34217 0
M  V30 139 H 15.7998 3.99309 6.74924 0
M  V30 140 N 13.3029 -1.57598 0.00835791 0
M  V30 141 C 14.2329 -2.1198 -0.979113 0
M  V30 142 C 15.2139 -1.03091 -1.35301 0
M  V30 143 O 16.3989 -1.30818 -1.43528 0
M  V30 144 C 13.5289 -2.62995 -2.26828 0
M  V30 145 C 12.4829 -3.76485 -2.03576 0
M  V30 146 C 11.8089 -4.13846 -3.38579 0
M  V30 147 C 13.1089 -5.0342 -1.39161 0
M  V30 148 H 14.8029 -2.94738 -0.526281 0
M  V30 149 H 12.3489 -1.41783 -0.251704 0
M  V30 150 H 14.3019 -2.99669 -2.96271 0
M  V30 151 H 13.0259 -1.7737 -2.7424 0
M  V30 152 H 11.6849 -3.40217 -1.36557 0
M  V30 153 H 11.3329 -3.25232 -3.83709 0
M  V30 154 H 11.0329 -4.90312 -3.23834 0
M  V30 155 H 12.5569 -4.53086 -4.09323 0
M  V30 156 H 13.9709 -5.37812 -1.98573 0
M  V30 157 H 12.3679 -5.84746 -1.34878 0
M  V30 158 H 13.4379 -4.83548 -0.361868 0
M  V30 159 N 14.781 0.264519 -1.55364 0
M  V30 160 C 16.009 1.013 -1.80405 0
M  V30 161 C 16.424 1.79618 -0.581622 0
M  V30 162 O 15.781 1.76879 0.449468 0
M  V30 163 C 15.832 1.96487 -3.03439 0
M  V30 164 O 15.553 1.21341 -4.20961 0
M  V30 165 C 17.054 2.83079 -3.41147 0
M  V30 166 H 14.274 0.298875 -0.600762 0
M  V30 167 H 16.818 0.292736 -2.02394 0
M  V30 168 H 14.973 2.63965 -2.83551 0
M  V30 169 H 15.387 1.85573 -4.90574 0
M  V30 170 H 16.861 3.4565 -4.30384 0
M  V30 171 H 17.338 3.53286 -2.60932 0
M  V30 172 H 17.944 2.2108 -3.63323 0
M  V30 173 N 16.2591 1.48442 0.529413 0
M  V30 174 C 17.6751 1.34575 0.858004 0
M  V30 175 C 17.8751 0.3572 1.98309 0
M  V30 176 O 16.9311 -0.221379 2.51528 0
M  V30 177 C 18.2441 2.74617 1.22499 0
M  V30 178 C 19.7921 2.83109 1.33484 0
M  V30 179 C 20.2671 4.23854 1.73526 0
M  V30 180 N 21.7581 4.2653 1.80628 0
M  V30 181 C 22.4931 5.32372 2.12997 0
M  V30 182 N 21.9891 6.48491 2.43786 0
M  V30 183 N 23.7821 5.19766 2.14008 0
M  V30 184 H 15.9331 2.1133 -0.212925 0
M  V30 185 H 18.1961 0.947439 -0.0326199 0
M  V30 186 H 17.9021 3.4852 0.471905 0
M  V30 187 H 17.7761 3.08177 2.17501 0
M  V30 188 H 20.1631 2.09462 2.0787 0
M  V30 189 H 20.2441 2.53168 0.366027 0
M  V30 190 H 19.8881 4.98018 0.997013 0
M  V30 191 H 19.8181 4.5124 2.71459 0
M  V30 192 H 22.3091 3.42772 1.59108 0
M  V30 193 H 22.6221 7.24993 2.67592 0
M  V30 194 H 20.9671 6.51765 2.41304 0
M  V30 195 H 24.1581 4.28066 1.89412 0
M  V30 196 H 24.3311 6.02354 2.38902 0
M  V30 197 N 17.7372 -0.778329 1.37039 0
M  V30 198 C 18.7002 -1.87301 1.32102 0
M  V30 199 C 19.7002 -1.59198 0.226405 0
M  V30 200 O 20.8902 -1.67403 0.481861 0
M  V30 201 C 18.0222 -3.24309 1.05055 0
M  V30 202 H 19.2152 -1.93093 2.29467 0
M  V30 203 H 16.7682 -0.977358 1.21973 0
M  V30 204 H 17.5032 -3.24196 0.0819373 0
M  V30 205 H 17.2882 -3.46098 1.84279 0
M  V30 206 H 18.7782 -4.04382 1.04234 0
M  V30 207 N 19.2153 -1.21501 -1.00376 0
M  V30 208 C 20.1453 -0.999478 -2.11028 0
M  V30 209 C 21.1263 0.0759671 -1.6993 0
M  V30 210 O 22.3113 -0.0841106 -1.94018 0
M  V30 211 C 19.4413 -0.564709 -3.42678 0
M  V30 212 C 18.3953 -1.58486 -3.97576 0
M  V30 213 C 17.7213 -1.00628 -5.25146 0
M  V30 214 C 19.0213 -2.97204 -4.29496 0
M  V30 215 H 20.7153 -1.92495 -2.29317 0
M  V30 216 H 18.2613 -0.92693 -1.102 0
M  V30 217 H 20.2143 -0.401091 -4.19487 0
M  V30 218 H 18.9383 0.396411 -3.24185 0
M  V30 219 H 17.5973 -1.73606 -3.22888 0
M  V30 220 H 17.2453 -0.0368439 -5.02987 0
M  V30 221 H 16.9453 -1.68771 -5.62841 0
M  V30 222 H 18.4693 -0.854015 -6.04598 0
M  V30 223 H 19.8833 -2.8552 -4.97143 0
M  V30 224 H 18.2803 -3.62372 -4.78338 0
M  V30 225 H 19.3503 -3.47956 -3.3772 0
M  V30 226 N 20.6934 1.19889 -1.02296 0
M  V30 227 C 21.9394 1.89701 -0.717033 0
M  V30 228 C 22.2724 1.7905 0.751989 0
M  V30 229 O 21.5474 1.17891 1.547 0
M  V30 230 C 21.8304 3.40858 -1.16136 0
M  V30 231 C 21.6834 3.60411 -2.69117 0
M  V30 232 C 23.0024 4.33876 -0.737549 0
M  V30 233 H 20.1214 0.688874 -0.261957 0
M  V30 234 H 22.7634 1.41154 -1.27183 0
M  V30 235 H 20.9134 3.82335 -0.689342 0
M  V30 236 H 22.5854 3.28145 -3.2422 0
M  V30 237 H 20.8284 3.03665 -3.0979 0
M  V30 238 H 21.4994 4.66396 -2.95261 0
M  V30 239 H 23.9754 4.00081 -1.14344 0
M  V30 240 H 22.8514 5.38242 -1.0764 0
M  V30 241 H 23.1124 4.40628 0.360436 0
M  V30 242 N 22.1715 0.800033 1.35784 0
M  V30 243 C 23.3965 0.388511 2.03729 0
M  V30 244 C 23.8215 -0.990481 1.5991 0
M  V30 245 O 23.1795 -1.64013 0.772612 0
M  V30 246 C 23.2275 0.4726 3.5749 0
M  V30 247 O 22.3315 -0.51646 4.09153 0
M  V30 248 H 21.6725 0.163271 0.643614 0
M  V30 249 H 24.2025 1.0841 1.73518 0
M  V30 250 H 24.2125 0.34003 4.06581 0
M  V30 251 H 22.8875 1.47848 3.88734 0
M  V30 252 H 21.4645 -0.344673 3.71304 0
M  V30 253 N 23.6496 -1.47581 0.552962 0
M  V30 254 C 24.6126 -2.28439 -0.186605 0
M  V30 255 C 25.6126 -1.36706 -0.84665 0
M  V30 256 O 26.8026 -1.59378 -0.703164 0
M  V30 257 C 23.9346 -3.16264 -1.2724 0
M  V30 258 H 25.1276 -2.95294 0.523609 0
M  V30 259 H 22.6806 -1.532 0.309745 0
M  V30 260 H 23.4156 -2.54091 -2.01514 0
M  V30 261 H 23.2006 -3.83769 -0.803968 0
M  V30 262 H 24.6906 -3.77198 -1.79196 0
M  V30 263 N 25.1277 -0.289203 -1.54924 0
M  V30 264 C 26.3757 0.322879 -1.99504 0
M  V30 265 C 26.6967 1.55313 -1.1791 0
M  V30 266 O 25.9667 1.94001 -0.272097 0
M  V30 267 H 24.5467 0.122291 -0.736922 0
M  V30 268 H 27.2087 -0.397802 -1.90797 0
M  V30 269 H 26.3047 0.603061 -3.06218 0
M  V30 270 N 26.6058 1.57591 -0.0167156 0
M  V30 271 C 27.5538 2.10604 0.987353 0
M  V30 272 C 28.5478 1.02977 1.34507 0
M  V30 273 O 29.7538 1.21425 1.32875 0
M  V30 274 H 26.1288 0.672695 0.336134 0
M  V30 275 H 28.0998 2.93925 0.514817 0
M  V30 276 C 26.8488 2.6382 2.26483 0
M  V30 277 H 26.1718 3.46278 1.99829 0
M  V30 278 H 27.6118 3.04573 2.94977 0
M  V30 279 C 26.0708 1.55992 2.9861 0
M  V30 280 O 26.6008 0.952521 3.90243 0
M  V30 281 N 24.8068 1.28335 2.60727 0
M  V30 282 H 24.3538 1.77914 1.86291 0
M  V30 283 H 24.3118 0.564115 3.09298 0
M  V30 284 N 28.0839 -0.256276 1.55502 0
M  V30 285 C 29.4949 -0.826068 1.67431 0
M  V30 286 C 29.8459 -1.86396 0.612446 0
M  V30 287 O 28.9709 -2.15031 -0.243025 0
M  V30 288 C 29.5659 -1.50512 3.03532 0
M  V30 289 C 28.1249 -2.02273 3.17431 0
M  V30 290 C 27.2719 -0.870548 2.63281 0
M  V30 291 H 30.2229 -0.0322728 1.58667 0
M  V30 292 H 30.2439 -2.37279 2.97454 0
M  V30 293 H 29.7559 -0.749484 3.80794 0
M  V30 294 H 27.8569 -2.80746 2.44974 0
M  V30 295 H 27.9699 -2.22655 4.24219 0
M  V30 296 H 26.3339 -1.26851 2.20864 0
M  V30 297 H 27.1169 -0.128149 3.43061 0
M  V30 298 N 29.562 -1.4872 -0.521534 0
M  V30 299 C 30.81 -1.56857 -1.27437 0
M  V30 300 C 31.131 -0.247982 -1.93417 0
M  V30 301 O 30.401 0.731151 -1.81744 0
M  V30 302 H 28.981 -0.577885 -0.473347 0
M  V30 303 H 31.643 -1.85233 -0.606205 0
M  V30 304 H 30.739 -2.35402 -2.0492 0
M  V30 305 N 31.0401 0.771051 -1.3745 0
M  V30 306 C 32.0031 1.86598 -1.33093 0
M  V30 307 C 33.0031 1.59076 -0.234845 0
M  V30 308 O 34.1931 1.67145 -0.490732 0
M  V30 309 C 31.3251 3.23747 -1.06773 0
M  V30 310 H 32.5181 1.91873 -2.30488 0
M  V30 311 H 30.0711 0.970876 -1.2249 0
M  V30 312 H 30.8061 3.24148 -0.099129 0
M  V30 313 H 30.5911 3.45115 -1.86112 0
M  V30 314 H 32.0811 4.03824 -1.06377 0
M  V30 315 N 32.5182 1.22032 0.997298 0
M  V30 316 C 33.7642 1.05382 1.73972 0
M  V30 317 C 34.1192 -0.407419 1.88037 0
M  V30 318 O 33.4122 -1.29811 1.40924 0
M  V30 319 C 33.6062 1.69345 3.14733 0
M  V30 320 C 33.4352 3.21537 3.14395 0
M  V30 321 C 32.2052 3.9062 3.20537 0
M  V30 322 C 34.4032 4.18527 2.98897 0
M  V30 323 N 32.3852 5.29935 3.09906 0
M  V30 324 C 33.7562 5.44645 2.96247 0
M  V30 325 C 35.8112 4.09476 2.83255 0
M  V30 326 C 34.5142 6.62752 2.79557 0
M  V30 327 C 36.5402 5.27228 2.67926 0
M  V30 328 C 35.9022 6.52262 2.65959 0
M  V30 329 H 32.0012 0.440018 0.646458 0
M  V30 330 H 34.5852 1.54505 1.18475 0
M  V30 331 H 32.7562 1.22778 3.68484 0
M  V30 332 H 34.4882 1.45828 3.77513 0
M  V30 333 H 31.2432 3.41592 3.28043 0
M  V30 334 H 31.6672 6.02926 3.07912 0
M  V30 335 H 36.3092 3.13598 2.83577 0
M  V30 336 H 34.0272 7.58783 2.77982 0
M  V30 337 H 37.6132 5.22053 2.56812 0
M  V30 338 H 36.4932 7.41844 2.54239 0
M  V30 339 N 33.9963 -1.19345 1.0293 0
M  V30 340 C 35.4123 -1.41069 0.746446 0
M  V30 341 C 35.6123 -1.90078 -0.668776 0
M  V30 342 O 34.6683 -2.0778 -1.4347 0
M  V30 343 C 35.9813 -2.42141 1.78292 0
M  V30 344 C 37.5293 -2.55887 1.80252 0
M  V30 345 C 38.0043 -3.60214 2.8286 0
M  V30 346 N 39.4953 -3.67711 2.81679 0
M  V30 347 C 40.2303 -4.48128 3.57727 0
M  V30 348 N 39.7263 -5.32248 4.43491 0
M  V30 349 N 41.5193 -4.42782 3.46267 0
M  V30 350 H 33.6703 -0.858536 1.94275 0
M  V30 351 H 35.9333 -0.439541 0.839945 0
M  V30 352 H 35.6393 -2.13155 2.79746 0
M  V30 353 H 35.5133 -3.41323 1.60557 0
M  V30 354 H 37.9003 -2.84196 0.794757 0
M  V30 355 H 37.9813 -1.56858 2.02062 0
M  V30 356 H 37.6253 -3.32647 3.83807 0
M  V30 357 H 37.5553 -4.58895 2.58307 0
M  V30 358 H 40.0463 -3.07634 2.19476 0
M  V30 359 H 40.3593 -5.90729 4.98256 0
M  V30 360 H 38.7043 -5.31707 4.47564 0
M  V30 361 H 41.8953 -3.76107 2.78677 0
M  V30 362 H 42.0683 -5.05215 4.05785 0
M  V30 363 N 35.4744 -0.807222 -1.35358 0
M  V30 364 C 36.7224 -0.387122 -1.98358 0
M  V30 365 C 37.0434 1.04942 -1.64354 0
M  V30 366 O 36.3134 1.72615 -0.926339 0
M  V30 367 H 34.8934 -0.140154 -0.733734 0
M  V30 368 H 37.5554 -1.0332 -1.6526 0
M  V30 369 H 36.6514 -0.493352 -3.08176 0
M  V30 370 N 36.9525 1.47285 -0.560781 0
M  V30 371 C 37.8825 2.32857 0.173105 0
M  V30 372 C 38.8635 1.44009 0.905281 0
M  V30 373 O 40.0485 1.7286 0.885046 0
M  V30 374 C 37.1785 3.25861 1.20133 0
M  V30 375 C 36.1325 4.23978 0.585388 0
M  V30 376 C 35.4585 5.06332 1.7185 0
M  V30 377 C 36.7585 5.20242 -0.463178 0
M  V30 378 H 38.4525 2.94466 -0.541307 0
M  V30 379 H 35.9985 1.41601 -0.261764 0
M  V30 380 H 37.9515 3.84569 1.72293 0
M  V30 381 H 36.6755 2.62315 1.94573 0
M  V30 382 H 35.3345 3.66501 0.085054 0
M  V30 383 H 34.9825 4.39186 2.45203 0
M  V30 384 H 34.6825 5.72762 1.31213 0
M  V30 385 H 36.2065 5.67899 2.24329 0
M  V30 386 H 37.6205 5.73293 -0.027502 0
M  V30 387 H 36.0175 5.94896 -0.788627 0
M  V30 388 H 37.0875 4.65504 -1.35773 0
M  V30 389 N 38.4306 0.297415 1.54768 0
M  V30 390 C 39.6556 -0.318435 2.04941 0
M  V30 391 C 40.0806 -1.4701 1.17345 0
M  V30 392 O 39.4386 -1.80436 0.176758 0
M  V30 393 C 39.4866 -0.755749 3.52592 0
M  V30 394 O 38.5906 -1.86088 3.68028 0
M  V30 395 H 37.9316 -0.062421 0.661059 0
M  V30 396 H 40.4616 0.438215 1.99852 0
M  V30 397 H 40.4716 -1.04552 3.94376 0
M  V30 398 H 39.1466 0.0867233 4.1581 0
M  V30 399 H 37.7236 -1.57193 3.38149 0
M  V30 400 N 39.9087 -1.5758 0.0250728 0
M  V30 401 C 41.1367 -1.9593 -0.664747 0
M  V30 402 C 41.5517 -0.901352 -1.65895 0
M  V30 403 O 40.9087 0.117255 -1.82123 0
M  V30 404 C 40.9597 -3.34342 -1.37468 0
M  V30 405 O 40.6807 -4.36079 -0.420324 0
M  V30 406 C 42.1817 -3.873 -2.1567 0
M  V30 407 H 39.4017 -0.645405 -0.183557 0
M  V30 408 H 41.9457 -2.04329 0.0836372 0
M  V30 409 H 40.1007 -3.27175 -2.0745 0
M  V30 410 H 40.5147 -5.16297 -0.923991 0
M  V30 411 H 41.9887 -4.86504 -2.60803 0
M  V30 412 H 42.4657 -3.21331 -2.99405 0
M  V30 413 H 43.0717 -3.97723 -1.50654 0
M  V30 414 N 41.3868 0.248026 -1.55636 0
M  V30 415 C 42.6118 0.998028 -1.81808 0
M  V30 416 C 43.0368 1.78207 -0.601979 0
M  V30 417 O 42.3948 1.75653 0.448961 0
M  V30 418 C 42.4428 1.9125 -3.05705 0
M  V30 419 O 41.5468 3.00406 -2.82542 0
M  V30 420 H 40.8878 0.284045 -0.600179 0
M  V30 421 H 43.4178 0.269357 -2.02819 0
M  V30 422 H 43.4278 2.32737 -3.35108 0
M  V30 423 H 42.1028 1.33602 -3.93857 0
M  V30 424 H 40.6798 2.63056 -2.64303 0
M  V30 425 N 42.8649 1.48995 0.513639 0
M  V30 426 C 43.8279 1.64229 1.59879 0
M  V30 427 C 44.8279 0.514696 1.5234 0
M  V30 428 O 46.0179 0.78087 1.55718 0
M  V30 429 C 43.1499 1.62783 2.99524 0
M  V30 430 H 44.3429 2.61004 1.47705 0
M  V30 431 H 41.8959 1.37837 0.736936 0
M  V30 432 H 42.6309 0.675461 3.17188 0
M  V30 433 H 42.4159 2.4466 3.06404 0
M  V30 434 H 43.9059 1.76669 3.78388 0
M  V30 435 N 44.343 -0.763751 1.37857 0
M  V30 436 C 45.306 -1.85889 1.34081 0
M  V30 437 C 46.306 -1.58949 0.243277 0
M  V30 438 O 47.496 -1.66882 0.499589 0
M  V30 439 C 44.628 -3.23176 1.08489 0
M  V30 440 H 45.821 -1.90648 2.31502 0
M  V30 441 H 43.374 -0.964367 1.23003 0
M  V30 442 H 44.109 -3.24091 0.116318 0
M  V30 443 H 43.894 -3.44124 1.8794 0
M  V30 444 H 45.384 -4.03254 1.08517 0
M  V30 445 N 45.8211 -1.22559 -0.990812 0
M  V30 446 C 46.7841 -0.998863 -2.0629 0
M  V30 447 C 47.7841 0.0354834 -1.60761 0
M  V30 448 O 48.9741 -0.203231 -1.7301 0
M  V30 449 C 46.1061 -0.509203 -3.37076 0
M  V30 450 H 47.2991 -1.95014 -2.27837 0
M  V30 451 H 44.8521 -1.04456 -1.16269 0
M  V30 452 H 45.5871 0.446335 -3.21214 0
M  V30 453 H 45.3721 -1.25547 -3.71457 0
M  V30 454 H 46.8621 -0.370888 -4.1595 0
M  V30 455 N 47.2992 1.18797 -1.03562 0
M  V30 456 C 48.2492 2.20161 -0.592724 0
M  V30 457 C 49.2332 1.56772 0.362133 0
M  V30 458 O 50.4252 1.76062 0.182009 0
M  V30 459 C 47.5542 3.43266 0.0481024 0
M  V30 460 C 46.6402 4.13786 -0.9296 0
M  V30 461 N 47.0312 4.60388 -2.09467 0
M  V30 462 C 45.3292 4.39572 -0.754499 0
M  V30 463 C 46.0302 5.14619 -2.71187 0
M  V30 464 N 45.0062 5.05826 -1.991 0
M  V30 465 H 48.8082 2.53877 -1.48066 0
M  V30 466 H 46.3222 1.34946 -0.903514 0
M  V30 467 H 48.3192 4.15136 0.383058 0
M  V30 468 H 46.9792 3.11048 0.931636 0
M  V30 469 H 47.9902 4.54999 -2.47379 0
M  V30 470 H 44.6672 4.17425 0.0793713 0
M  V30 471 H 46.0572 5.60917 -3.69895 0
M  V30 472 N 48.7773 0.814389 1.34928 0
M  V30 473 C 49.7403 0.235759 2.27984 0
M  V30 474 C 50.7403 -0.581412 1.49921 0
M  V30 475 O 51.9303 -0.398758 1.69575 0
M  V30 476 C 49.0623 -0.670433 3.34242 0
M  V30 477 H 50.2553 1.05659 2.80671 0
M  V30 478 H 47.8083 0.585614 1.44915 0
M  V30 479 H 48.5433 -1.51466 2.86755 0
M  V30 480 H 48.3283 -0.0860822 3.92005 0
M  V30 481 H 49.8183 -1.06935 4.03676 0
M  V30 482 N 50.2554 -1.46986 0.568584 0
M  V30 483 C 51.2184 -2.28624 -0.162366 0
M  V30 484 C 52.2184 -1.37596 -0.832103 0
M  V30 485 O 53.4084 -1.60115 -0.68622 0
M  V30 486 C 50.5404 -3.17596 -1.23878 0
M  V30 487 H 51.7334 -2.94722 0.554899 0
M  V30 488 H 49.2864 -1.52863 0.325976 0
M  V30 489 H 50.0214 -2.56214 -1.98808 0
M  V30 490 H 49.8064 -3.846 -0.763219 0
M  V30 491 H 51.2964 -3.79078 -1.75185 0
M  V30 492 N 51.7335 -0.305618 -1.54608 0
M  V30 493 C 52.9585 0.307562 -2.05107 0
M  V30 494 C 53.3835 1.46385 -1.18123 0
M  V30 495 O 52.7415 1.8034 -0.186324 0
M  V30 496 C 52.7895 0.73704 -3.52987 0
M  V30 497 O 51.8935 1.84134 -3.6901 0
M  V30 498 H 51.2345 0.0589143 -0.661381 0
M  V30 499 H 53.7645 -0.448807 -1.99617 0
M  V30 500 H 53.7745 1.02459 -3.94925 0
M  V30 501 H 52.4495 -0.108773 -4.15758 0
M  V30 502 H 51.0265 1.55398 -3.38978 0
M  V30 503 N 53.2116 1.57565 -0.0334293 0
M  V30 504 C 54.6276 1.56297 0.322997 0
M  V30 505 C 54.8276 1.03945 1.7262 0
M  V30 506 O 53.8836 0.688109 2.42943 0
M  V30 507 C 55.1966 3.00232 0.167664 0
M  V30 508 C 56.7446 3.12078 0.240107 0
M  V30 509 C 57.2196 4.57859 0.113513 0
M  V30 510 N 58.7106 4.62887 0.170359 0
M  V30 511 C 59.4456 5.73319 0.0962517 0
M  V30 512 N 58.9416 6.92794 -0.0291881 0
M  V30 513 N 60.7346 5.61898 0.150551 0
M  V30 514 H 52.8856 1.89923 -0.950956 0
M  V30 515 H 55.1486 0.873824 -0.367608 0
M  V30 516 H 54.8546 3.42501 -0.799102 0
M  V30 517 H 54.7286 3.654 0.936083 0
M  V30 518 H 57.1156 2.69718 1.19733 0
M  V30 519 H 57.1966 2.49623 -0.558763 0
M  V30 520 H 56.8406 5.009 -0.840314 0
M  V30 521 H 56.7706 5.18299 0.931302 0
M  V30 522 H 59.2616 3.76954 0.26728 0
M  V30 523 H 59.5746 7.7276 -0.0789252 0
M  V30 524 H 57.9196 6.94971 -0.0640299 0
M  V30 525 H 61.1106 4.67448 0.246981 0
M  V30 526 H 61.2836 6.47938 0.0893365 0
M  V30 527 N 54.6897 -0.239769 1.55765 0
M  V30 528 C 55.9147 -0.988373 1.82335 0
M  V30 529 C 56.3397 -1.77886 0.611421 0
M  V30 530 O 55.6977 -1.75889 -0.439639 0
M  V30 531 C 55.7457 -1.89627 3.06715 0
M  V30 532 O 54.8497 -2.98904 2.84131 0
M  V30 533 H 54.1907 -0.280858 0.601677 0
M  V30 534 H 56.7207 -0.258597 2.02959 0
M  V30 535 H 56.7307 -2.30957 3.36338 0
M  V30 536 H 55.4057 -1.31511 3.9456 0
M  V30 537 H 53.9827 -2.61651 2.65694 0
M  V30 538 N 56.1678 -1.49265 -0.50573 0
M  V30 539 C 57.0998 -1.617 -1.62437 0
M  V30 540 C 58.1128 -0.499924 -1.54934 0
M  V30 541 O 59.3018 -0.771785 -1.60953 0
M  V30 542 C 56.4018 -1.5533 -3.01207 0
M  V30 543 C 55.5748 -2.8249 -3.33943 0
M  V30 544 C 54.6338 -2.69238 -4.52103 0
M  V30 545 O 53.6598 -3.43167 -4.5412 0
M  V30 546 N 54.8618 -1.80468 -5.51735 0
M  V30 547 H 57.6268 -2.58177 -1.52199 0
M  V30 548 H 55.1878 -1.46294 -0.693511 0
M  V30 549 H 57.1798 -1.44125 -3.78167 0
M  V30 550 H 55.7498 -0.667297 -3.05395 0
M  V30 551 H 54.9698 -3.08081 -2.45926 0
M  V30 552 H 56.2578 -3.66802 -3.5261 0
M  V30 553 H 55.6558 -1.19653 -5.52901 0
M  V30 554 H 54.2128 -1.75188 -6.27816 0
M  V30 555 N 57.6459 0.756429 -1.3826 0
M  V30 556 C 58.6089 1.85176 -1.35065 0
M  V30 557 C 59.6089 1.58818 -0.251703 0
M  V30 558 O 60.7989 1.66615 -0.508433 0
M  V30 559 C 57.9309 3.22596 -1.10201 0
M  V30 560 H 59.1239 1.89417 -2.3251 0
M  V30 561 H 56.6769 0.95783 -1.23512 0
M  V30 562 H 57.4119 3.24025 -0.133504 0
M  V30 563 H 57.1969 3.43122 -1.89762 0
M  V30 564 H 58.6869 4.02673 -1.10654 0
M  V30 565 N 59.124 1.23083 0.984299 0
M  V30 566 C 60.034 1.02515 2.11016 0
M  V30 567 C 61.05 -0.0291702 1.73976 0
M  V30 568 O 62.226 0.165434 2.00719 0
M  V30 569 C 59.291 0.614673 3.41208 0
M  V30 570 C 58.352 1.74359 3.92297 0
M  V30 571 C 57.585 1.35261 5.16275 0
M  V30 572 O 57.808 0.235136 5.69915 0
M  V30 573 O 56.742 2.17227 5.61334 0
M  V30 574 H 60.568 1.96862 2.31255 0
M  V30 575 H 58.153 1.01753 1.09392 0
M  V30 576 H 60.035 0.396518 4.1953 0
M  V30 577 H 58.71 -0.299851 3.22308 0
M  V30 578 H 57.617 2.01635 3.1511 0
M  V30 579 H 58.95 2.63629 4.15645 0
M  V30 580 N 60.6021 -1.18246 1.0419 0
M  V30 581 C 61.8791 -1.84121 0.660208 0
M  V30 582 C 62.2591 -1.92778 -0.860221 0
M  V30 583 O 61.6071 -1.45464 -1.76217 0
M  V30 584 C 61.8171 -3.22355 1.33747 0
M  V30 585 C 63.1651 -3.98376 1.46906 0
M  V30 586 O 64.1891 -3.31799 1.29568 0
M  V30 587 O 63.0481 -5.17665 1.75171 0
M  V30 588 H 60.1421 -0.794036 0.231161 0
M  V30 589 H 62.6881 -1.25628 1.14087 0
M  V30 590 H 61.4601 -3.10964 2.37522 0
M  V30 591 H 61.0831 -3.88506 0.845515 0
M  V30 592 N 62.0802 -0.821533 -1.34494 0
M  V30 593 C 63.3262 -0.409552 -1.98622 0
M  V30 594 C 63.6592 1.0244 -1.64984 0
M  V30 595 O 62.9342 1.71325 -0.920758 0
M  V30 596 C 63.2172 -0.610458 -3.54888 0
M  V30 597 C 63.0702 -2.09043 -3.98273 0
M  V30 598 C 64.3892 -0.0455379 -4.40076 0
M  V30 599 H 61.5082 -0.15028 -0.721516 0
M  V30 600 H 64.1502 -1.03384 -1.59411 0
M  V30 601 H 62.3002 -0.079044 -3.8842 0
M  V30 602 H 63.9722 -2.68537 -3.75081 0
M  V30 603 H 62.2152 -2.58139 -3.48635 0
M  V30 604 H 62.8862 -2.18182 -5.07051 0
M  V30 605 H 65.3622 -0.499557 -4.1309 0
M  V30 606 H 64.2382 -0.215922 -5.48475 0
M  V30 607 H 64.4992 1.04939 -4.29465 0
M  V30 608 N 63.5583 1.46682 -0.576371 0
M  V30 609 C 64.9743 1.57822 -0.237562 0
M  V30 610 C 65.1743 1.57237 1.26011 0
M  V30 611 O 64.2303 1.48596 2.04146 0
M  V30 612 C 65.5433 2.87499 -0.881168 0
M  V30 613 C 67.0913 3.01119 -0.85417 0
M  V30 614 C 67.5663 4.33524 -1.4772 0
M  V30 615 N 69.0573 4.40207 -1.44125 0
M  V30 616 C 69.7923 5.4126 -1.89276 0
M  V30 617 N 69.2883 6.49021 -2.42371 0
M  V30 618 N 71.0813 5.32422 -1.80231 0
M  V30 619 H 63.2323 1.45306 -1.54919 0
M  V30 620 H 65.4953 0.692733 -0.647167 0
M  V30 621 H 65.2013 2.9372 -1.93447 0
M  V30 622 H 65.0753 3.75224 -0.385592 0
M  V30 623 H 67.4623 2.94485 0.190491 0
M  V30 624 H 67.5433 2.14887 -1.3877 0
M  V30 625 H 67.1873 4.40916 -2.52103 0
M  V30 626 H 67.1173 5.1852 -0.918947 0
M  V30 627 H 69.6083 3.62931 -1.05307 0
M  V30 628 H 69.9213 7.2233 -2.74698 0
M  V30 629 H 68.2663 6.49858 -2.46393 0
M  V30 630 H 71.4573 4.47137 -1.38514 0
M  V30 631 H 71.6303 6.11034 -2.15735 0
M  V30 632 N 65.0364 0.313813 1.54444 0
M  V30 633 C 66.2824 -0.292108 2.00685 0
M  V30 634 C 66.6154 -1.52548 1.20177 0
M  V30 635 O 65.8904 -1.92452 0.281531 0
M  V30 636 C 66.1734 -0.635968 3.5444 0
M  V30 637 C 66.0264 0.607437 4.4568 0
M  V30 638 C 67.3454 -1.45747 4.15266 0
M  V30 639 H 64.4644 -0.104697 0.729526 0
M  V30 640 H 67.1064 0.428457 1.85106 0
M  V30 641 H 65.2564 -1.24986 3.67846 0
M  V30 642 H 66.9284 1.24581 4.44159 0
M  V30 643 H 65.1714 1.23822 4.15753 0
M  V30 644 H 65.8424 0.322515 5.51057 0
M  V30 645 H 68.3184 -0.938645 4.05375 0
M  V30 646 H 67.1944 -1.66683 5.2298 0
M  V30 647 H 67.4554 -2.45063 3.67963 0
M  V30 648 N 66.5145 -1.57545 0.0417849 0
M  V30 649 C 67.4245 -2.14451 -0.951213 0
M  V30 650 C 68.4405 -1.09992 -1.34825 0
M  V30 651 O 69.6165 -1.42114 -1.42708 0
M  V30 652 C 66.6815 -2.67063 -2.21084 0
M  V30 653 C 65.7425 -3.86284 -1.87304 0
M  V30 654 C 64.9755 -4.36378 -3.07261 0
M  V30 655 O 65.1985 -3.85587 -4.20332 0
M  V30 656 O 64.1325 -5.28077 -2.88822 0
M  V30 657 H 67.9585 -2.99601 -0.497287 0
M  V30 658 H 65.5435 -1.48317 -0.179567 0
M  V30 659 H 67.4255 -3.00914 -2.95006 0
M  V30 660 H 66.1005 -1.84989 -2.65633 0
M  V30 661 H 65.0075 -3.57338 -1.10727 0
M  V30 662 H 66.3405 -4.6956 -1.47562 0
M  V30 663 N 67.9926 0.231505 -1.5589 0
M  V30 664 C 69.2406 0.955461 -1.78088 0
M  V30 665 C 69.5616 1.85262 -0.608533 0
M  V30 666 O 68.8316 1.92277 0.375035 0
M  V30 667 H 67.4116 0.355787 -0.656829 0
M  V30 668 H 70.0736 0.245751 -1.93344 0
M  V30 669 H 69.1696 1.56814 -2.69844 0
M  V30 670 N 69.4707 1.49531 0.497807 0
M  V30 671 C 70.6957 1.63159 1.28039 0
M  V30 672 C 71.1207 0.30418 1.85624 0
M  V30 673 O 70.4787 -0.728618 1.66015 0
M  V30 674 C 70.5267 2.70537 2.38416 0
M  V30 675 O 69.6307 2.29931 3.42353 0
M  V30 676 H 68.9717 0.546001 0.377861 0
M  V30 677 H 71.5017 1.9574 0.59558 0
M  V30 678 H 71.5117 2.92802 2.84132 0
M  V30 679 H 70.1867 3.6689 1.95869 0
M  V30 680 H 68.7637 2.18009 3.02533 0
M  V30 681 N 70.9488 -0.749086 1.3866 0
M  V30 682 C 72.1958 -1.50833 1.35114 0
M  V30 683 C 72.5238 -1.94415 -0.0574049 0
M  V30 684 O 71.7788 -1.66065 -1.03541 0
M  V30 685 C 72.0778 -2.7712 2.25697 0
M  V30 686 C 71.7438 -2.52477 3.73585 0
M  V30 687 C 70.4058 -2.45466 4.13884 0
M  V30 688 C 72.7578 -2.31066 4.67181 0
M  V30 689 C 70.0858 -2.15064 5.45861 0
M  V30 690 C 72.4378 -2.02183 5.9942 0
M  V30 691 C 71.1018 -1.93631 6.38798 0
M  V30 692 H 70.3718 -0.551936 0.494416 0
M  V30 693 H 73.0188 -0.860979 1.71054 0
M  V30 694 H 71.3238 -3.46528 1.82827 0
M  V30 695 H 73.0208 -3.35096 2.20254 0
M  V30 696 H 69.6108 -2.58807 3.41638 0
M  V30 697 H 73.7948 -2.35459 4.3689 0
M  V30 698 H 69.0508 -2.06954 5.75308 0
M  V30 699 H 73.2248 -1.8462 6.71482 0
M  V30 700 H 70.8518 -1.69839 7.40985 0
M  V30 701 N 72.4269 -1.23603 -0.977757 0
M  V30 702 C 73.8379 -1.06424 -1.53398 0
M  V30 703 C 74.1889 0.367578 -1.92726 0
M  V30 704 O 73.3139 1.25465 -1.76316 0
M  V30 705 C 73.9089 -1.92568 -2.78753 0
M  V30 706 C 72.4679 -1.79642 -3.30765 0
M  V30 707 C 71.6149 -1.88111 -2.03739 0
M  V30 708 H 74.5659 -1.37227 -0.797152 0
M  V30 709 H 74.5869 -1.45203 -3.51705 0
M  V30 710 H 74.0989 -2.96771 -2.50098 0
M  V30 711 H 72.1999 -0.782325 -3.64294 0
M  V30 712 H 72.3129 -2.63174 -4.00345 0
M  V30 713 H 70.6769 -1.31723 -2.17994 0
M  V30 714 H 71.4599 -2.93875 -1.77461 0
M  V30 715 N 73.905 1.17692 -1.04816 0
M  V30 716 C 75.151 1.88137 -0.75711 0
M  V30 717 C 75.484 1.80604 0.713841 0
M  V30 718 O 74.759 1.21146 1.52164 0
M  V30 719 C 75.042 3.38318 -1.2334 0
M  V30 720 C 74.895 3.54622 -2.76701 0
M  V30 721 C 76.214 4.32214 -0.829415 0
M  V30 722 H 73.333 0.683163 -0.27651 0
M  V30 723 H 75.975 1.38424 -1.30149 0
M  V30 724 H 74.125 3.80787 -0.770286 0
M  V30 725 H 75.797 3.21194 -3.31107 0
M  V30 726 H 74.04 2.97026 -3.16161 0
M  V30 727 H 74.711 4.60028 -3.05088 0
M  V30 728 H 77.187 3.97565 -1.22805 0
M  V30 729 H 76.063 5.35838 -1.19033 0
M  V30 730 H 76.324 4.41294 0.266891 0
M  V30 731 N 75.3831 0.828654 1.34056 0
M  V30 732 C 76.6111 0.43262 2.02326 0
M  V30 733 C 77.0261 -0.963147 1.62385 0
M  V30 734 O 76.3831 -1.62425 0.832121 0
M  V30 735 C 76.4341 0.53182 3.57567 0
M  V30 736 O 76.1551 1.87258 3.96063 0
M  V30 737 C 77.6561 0.131422 4.43105 0
M  V30 738 H 74.8761 0.172923 0.648335 0
M  V30 739 H 77.4201 1.1184 1.71208 0
M  V30 740 H 75.5751 -0.105938 3.87255 0
M  V30 741 H 75.9891 1.85087 4.90758 0
M  V30 742 H 77.4631 0.251904 5.51425 0
M  V30 743 H 77.9401 -0.925645 4.29335 0
M  V30 744 H 78.5461 0.743207 4.18756 0
M  V30 745 N 76.8612 -1.46375 0.584142 0
M  V30 746 C 77.7942 -2.27351 -0.196676 0
M  V30 747 C 78.7722 -1.35715 -0.895561 0
M  V30 748 O 79.9562 -1.65126 -0.90916 0
M  V30 749 C 77.0832 -3.13486 -1.28235 0
M  V30 750 C 76.1292 -4.20896 -0.689145 0
M  V30 751 S 76.9622 -5.33299 0.48507 0
M  V30 752 C 78.1182 -6.23 -0.601767 0
M  V30 753 H 78.3512 -2.93228 0.490395 0
M  V30 754 H 75.8842 -1.49875 0.371071 0
M  V30 755 H 77.8422 -3.63676 -1.90395 0
M  V30 756 H 76.5032 -2.4692 -1.94138 0
M  V30 757 H 75.6962 -4.80997 -1.50527 0
M  V30 758 H 75.2982 -3.73726 -0.143181 0
M  V30 759 H 77.5902 -6.60979 -1.48705 0
M  V30 760 H 78.5332 -7.0809 -0.0374799 0
M  V30 761 H 78.9412 -5.57173 -0.906557 0
M  V30 762 N 78.3393 -0.321999 -1.54275 0
M  V30 763 C 79.2693 0.537411 -2.27231 0
M  V30 764 C 80.2503 1.12064 -1.27968 0
M  V30 765 O 81.4353 1.14606 -1.56777 0
M  V30 766 C 78.5653 1.69919 -3.02894 0
M  V30 767 C 77.5193 1.24534 -4.09482 0
M  V30 768 C 76.8453 2.49394 -4.72977 0
M  V30 769 C 78.1453 0.361335 -5.21049 0
M  V30 770 H 79.8393 -0.0711406 -2.99315 0
M  V30 771 H 77.3853 -0.0356555 -1.43956 0
M  V30 772 H 79.3383 2.30668 -3.52662 0
M  V30 773 H 78.0623 2.33431 -2.28424 0
M  V30 774 H 76.7213 0.660782 -3.60596 0
M  V30 775 H 76.3693 3.11265 -3.95124 0
M  V30 776 H 76.0693 2.19718 -5.44975 0
M  V30 777 H 77.5933 3.10908 -5.25517 0
M  V30 778 H 79.0073 0.875072 -5.66582 0
M  V30 779 H 77.4043 0.157428 -5.99893 0
M  V30 780 H 78.4743 -0.60822 -4.8107 0
M  V30 781 N 79.8174 1.5752 -0.0501392 0
M  V30 782 C 81.2284 1.80271 0.485705 0
M  V30 783 C 81.5794 0.96228 1.70981 0
M  V30 784 O 80.7044 0.178578 2.15662 0
M  V30 785 C 81.2994 3.26957 0.887938 0
M  V30 786 C 79.8584 3.5063 1.36877 0
M  V30 787 C 79.0054 2.75165 0.343468 0
M  V30 788 H 81.9564 1.56281 -0.276028 0
M  V30 789 H 81.9774 3.37821 1.75093 0
M  V30 790 H 81.4894 3.881 -0.0031809 0
M  V30 791 H 79.5904 2.94766 2.27911 0
M  V30 792 H 79.7034 4.59343 1.36164 0
M  V30 793 H 78.0674 2.4127 0.816128 0
M  V30 794 H 78.8504 3.39034 -0.539548 0
M  V30 795 N 81.2955 -0.223234 1.56011 0
M  V30 796 C 82.5435 -0.946003 1.78592 0
M  V30 797 C 82.8645 -1.84936 0.618349 0
M  V30 798 O 82.1345 -1.92473 -0.364833 0
M  V30 799 H 80.7145 -0.352298 0.658707 0
M  V30 800 H 83.3765 -0.235494 1.93472 0
M  V30 801 H 82.4725 -1.55381 2.70672 0
M  V30 802 N 82.7736 -1.49793 -0.48987 0
M  V30 803 C 84.0506 -1.50348 -1.25119 0
M  V30 804 C 84.4306 -0.237466 -2.0976 0
M  V30 805 O 83.7786 0.77981 -2.14782 0
M  V30 806 C 83.9886 -2.78872 -2.09837 0
M  V30 807 C 85.3366 -3.288 -2.68655 0
M  V30 808 O 86.3606 -2.80065 -2.20096 0
M  V30 809 O 85.2196 -4.13707 -3.57083 0
M  V30 810 H 82.3136 -0.602242 -0.566775 0
M  V30 811 H 84.8596 -1.62067 -0.503229 0
M  V30 812 H 83.6316 -3.62499 -1.47343 0
M  V30 813 H 83.2546 -2.70066 -2.91805 0
M  V30 814 N 84.2517 0.741722 -1.39055 0
M  V30 815 C 85.4997 1.49818 -1.35643 0
M  V30 816 C 85.8207 1.94938 0.0491642 0
M  V30 817 O 85.0907 1.68505 0.999141 0
M  V30 818 H 83.6707 0.555755 -0.499144 0
M  V30 819 H 86.3327 0.880957 -1.73854 0
M  V30 820 H 85.4287 2.38348 -2.01486 0
M  V30 821 N 85.7298 1.2412 0.971189 0
M  V30 822 C 86.9758 1.08041 1.71625 0
M  V30 823 C 87.3088 -0.380407 1.90438 0
M  V30 824 O 86.5838 -1.28127 1.46334 0
M  V30 825 C 86.8668 1.81682 3.10908 0
M  V30 826 C 86.7198 3.35493 2.99608 0
M  V30 827 C 88.0388 1.58671 4.10501 0
M  V30 828 H 85.1578 0.39388 0.622919 0
M  V30 829 H 87.7998 1.52743 1.13003 0
M  V30 830 H 85.9498 1.43684 3.60953 0
M  V30 831 H 87.6218 3.83068 2.57015 0
M  V30 832 H 85.8648 3.64052 2.35899 0
M  V30 833 H 86.5358 3.82217 3.98264 0
M  V30 834 H 89.0118 1.91719 3.69301 0
M  V30 835 H 87.8878 2.1266 5.06031 0
M  V30 836 H 88.1488 0.524161 4.38982 0
M  V30 837 N 87.2079 -1.17134 1.05439 0
M  V30 838 C 88.4559 -1.87085 0.764429 0
M  V30 839 C 88.7769 -1.81584 -0.710787 0
M  V30 840 O 88.0469 -1.24349 -1.51374 0
M  V30 841 H 86.6269 -0.692627 0.279779 0
M  V30 842 H 89.2889 -1.42087 1.33406 0
M  V30 843 H 88.3849 -2.92759 1.0816 0
M  V30 844 N 88.686 -0.835752 -1.33615 0
M  V30 845 C 90.097 -0.487099 -1.80234 0
M  V30 846 C 90.448 0.993627 -1.69179 0
M  V30 847 O 89.573 1.77403 -1.23924 0
M  V30 848 C 90.168 -0.877385 -3.27242 0
M  V30 849 C 88.727 -0.580915 -3.7189 0
M  V30 850 C 87.874 -1.0874 -2.5509 0
M  V30 851 H 90.825 -1.02474 -1.2118 0
M  V30 852 H 90.846 -0.186195 -3.80044 0
M  V30 853 H 90.358 -1.95512 -3.35256 0
M  V30 854 H 88.459 0.486881 -3.69405 0
M  V30 855 H 88.572 -1.13396 -4.65487 0
M  V30 856 H 86.936 -0.508392 -2.49575 0
M  V30 857 H 87.719 -2.17184 -2.65868 0
M  V30 858 N 90.1641 1.46063 -0.591896 0
M  V30 859 C 91.0741 2.34192 0.13831 0
M  V30 860 C 92.0901 1.50305 0.876608 0
M  V30 861 O 93.2661 1.8315 0.837728 0
M  V30 862 C 90.3311 3.27656 1.13326 0
M  V30 863 C 89.3921 4.27445 0.39863 0
M  V30 864 C 88.6251 5.16443 1.34618 0
M  V30 865 O 88.8481 5.08553 2.58321 0
M  V30 866 O 87.7821 5.95843 0.851768 0
M  V30 867 H 91.6081 2.98002 -0.58552 0
M  V30 868 H 89.1931 1.45188 -0.352239 0
M  V30 869 H 91.0751 3.85291 1.70671 0
M  V30 870 H 89.7501 2.6643 1.83839 0
M  V30 871 H 88.6571 3.73471 -0.216895 0
M  V30 872 H 89.9901 4.91482 -0.265709 0
M  V30 873 N 91.6422 0.330177 1.54103 0
M  V30 874 C 92.5722 -0.525353 2.27513 0
M  V30 875 C 93.5532 -1.11383 1.2856 0
M  V30 876 O 94.7382 -1.13773 1.57383 0
M  V30 877 C 91.8682 -1.6831 3.03791 0
M  V30 878 C 90.8222 -1.2236 4.10137 0
M  V30 879 C 90.1482 -2.46882 4.74293 0
M  V30 880 C 91.4482 -0.333697 5.21233 0
M  V30 881 H 93.1422 0.087013 2.99274 0
M  V30 882 H 90.6882 0.0432893 1.43935 0
M  V30 883 H 92.6412 -2.28795 3.5388 0
M  V30 884 H 91.3652 -2.32216 2.29659 0
M  V30 885 H 90.0242 -0.64165 3.60941 0
M  V30 886 H 89.6722 -3.09165 3.96769 0
M  V30 887 H 89.3722 -2.16825 5.46133 0
M  V30 888 H 90.8962 -3.08117 5.27159 0
M  V30 889 H 92.3102 -0.845013 5.67038 0
M  V30 890 H 90.7072 -0.125612 5.99969 0
M  V30 891 H 91.7772 0.633724 4.80741 0
M  V30 892 N 93.1203 -1.57491 0.0584922 0
M  V30 893 C 94.0533 -2.07533 -0.948969 0
M  V30 894 C 95.0313 -0.977444 -1.29942 0
M  V30 895 O 96.2153 -1.2499 -1.41102 0
M  V30 896 C 93.3423 -2.52192 -2.2609 0
M  V30 897 C 92.3883 -3.73287 -2.06298 0
M  V30 898 S 93.2213 -5.18603 -1.33459 0
M  V30 899 C 94.3773 -5.66583 -2.65959 0
M  V30 900 H 94.6103 -2.92662 -0.523118 0
M  V30 901 H 92.1433 -1.53631 -0.153954 0
M  V30 902 H 94.1013 -2.78585 -3.01498 0
M  V30 903 H 92.7623 -1.67356 -2.65802 0
M  V30 904 H 91.9553 -4.0248 -3.03357 0
M  V30 905 H 91.5573 -3.47199 -1.39029 0
M  V30 906 H 93.8493 -5.72616 -3.62101 0
M  V30 907 H 94.7923 -6.65684 -2.41393 0
M  V30 908 H 95.2003 -4.94342 -2.72554 0
M  V30 909 N 94.5984 0.214957 -1.56127 0
M  V30 910 C 95.5484 1.27006 -1.8935 0
M  V30 911 C 96.5324 1.41969 -0.757202 0
M  V30 912 O 97.7244 1.44673 -1.01973 0
M  V30 913 C 94.8534 2.61911 -2.2194 0
M  V30 914 C 93.9394 2.50822 -3.41978 0
M  V30 915 N 94.3304 2.09391 -4.60423 0
M  V30 916 C 92.6284 2.81765 -3.45723 0
M  V30 917 C 93.3294 2.09712 -5.42582 0
M  V30 918 N 92.3054 2.50454 -4.82466 0
M  V30 919 H 96.1074 0.940734 -2.78437 0
M  V30 920 H 93.6214 0.423492 -1.56781 0
M  V30 921 H 95.6184 3.38096 -2.43919 0
M  V30 922 H 94.2784 2.95684 -1.34169 0
M  V30 923 H 95.2894 1.80416 -4.85459 0
M  V30 924 H 91.9664 3.19865 -2.68314 0
M  V30 925 H 93.3564 1.79748 -6.4741 0
M  V30 926 N 96.0765 1.50051 0.48192 0
M  V30 927 C 97.0395 1.67584 1.5636 0
M  V30 928 C 98.0395 0.546894 1.51214 0
M  V30 929 O 99.2295 0.813725 1.54026 0
M  V30 930 C 96.3615 1.691 2.96003 0
M  V30 931 H 97.5545 2.64078 1.42136 0
M  V30 932 H 95.1075 1.39369 0.707533 0
M  V30 933 H 95.8425 0.742589 3.15684 0
M  V30 934 H 95.6275 2.51105 3.01146 0
M  V30 935 H 97.1175 1.84656 3.74556 0
M  V30 936 N 97.5546 -0.734337 1.39446 0
M  V30 937 C 98.8006 -1.49613 1.36908 0
M  V30 938 C 99.1336 -1.94169 -0.0347829 0
M  V30 939 O 98.4086 -1.66833 -0.999847 0
M  V30 940 C 98.6916 -2.73534 2.34203 0
M  V30 941 C 98.5446 -2.34993 3.83534 0
M  V30 942 C 99.8636 -3.75635 2.29317 0
M  V30 943 H 96.9826 -0.542714 0.498629 0
M  V30 944 H 99.6246 -0.839597 1.70443 0
M  V30 945 H 97.7746 -3.29553 2.05736 0
M  V30 946 H 99.4466 -1.84601 4.22753 0
M  V30 947 H 97.6896 -1.67213 4.00278 0
M  V30 948 H 98.3606 -3.23738 4.47099 0
M  V30 949 H 100.837 -3.29203 2.54489 0
M  V30 950 H 99.7126 -4.60008 2.99472 0
M  V30 951 H 99.9736 -4.22603 1.29842 0
M  V30 952 N 99.0327 -1.24633 -0.964593 0
M  V30 953 C 99.9797 -1.04144 -2.05968 0
M  V30 954 C 100.95 0.046262 -1.66036 0
M  V30 955 O 102.135 -0.108972 -1.90489 0
M  V30 956 C 99.2747 -0.65563 -3.38815 0
M  V30 957 C 98.3877 -1.81714 -3.91923 0
M  V30 958 C 97.5227 -1.37662 -5.13052 0
M  V30 959 C 96.5617 -2.50788 -5.58365 0
M  V30 960 N 95.6987 -2.07582 -6.70712 0
M  V30 961 H 100.539 -1.9787 -2.22827 0
M  V30 962 H 98.0757 -0.9855 -1.09208 0
M  V30 963 H 100.034 -0.412954 -4.15151 0
M  V30 964 H 98.6637 0.244627 -3.21872 0
M  V30 965 H 97.7157 -2.1734 -3.12198 0
M  V30 966 H 99.0277 -2.66705 -4.21509 0
M  V30 967 H 98.1817 -1.093 -5.96773 0
M  V30 968 H 96.9207 -0.497293 -4.85158 0
M  V30 969 H 95.9257 -2.79906 -4.73215 0
M  V30 970 H 97.1507 -3.39283 -5.88272 0
M  V30 971 H 95.0967 -1.22051 -6.44546 0
M  V30 972 H 95.0137 -2.86125 -6.99763 0
M  V30 973 H 96.2817 -1.82369 -7.57867 0
M  V30 974 N 100.511 1.16574 -1.06058 0
M  V30 975 C 101.421 2.2452 -0.680282 0
M  V30 976 C 102.437 1.71348 0.302604 0
M  V30 977 O 103.613 2.00822 0.152513 0
M  V30 978 C 100.678 3.46629 -0.0700315 0
M  V30 979 C 99.7388 4.14849 -1.10448 0
M  V30 980 C 98.9718 5.31129 -0.523256 0
M  V30 981 O 99.1948 5.66514 0.664709 0
M  V30 982 O 98.1288 5.88526 -1.26179 0
M  V30 983 H 101.955 2.59355 -1.58015 0
M  V30 984 H 99.5398 1.24043 -0.832694 0
M  V30 985 H 101.422 4.20543 0.268667 0
M  V30 986 H 100.097 3.13573 0.803353 0
M  V30 987 H 99.0038 3.42916 -1.49532 0
M  V30 988 H 100.337 4.51954 -1.94931 0
M  V30 989 N 101.989 0.842826 1.3317 0
M  V30 990 C 103.235 0.441099 1.97945 0
M  V30 991 C 103.568 -0.998024 1.66593 0
M  V30 992 O 102.843 -1.69839 0.947898 0
M  V30 993 C 103.126 0.666841 3.53872 0
M  V30 994 C 102.979 2.15352 3.94897 0
M  V30 995 C 104.298 0.115544 4.39948 0
M  V30 996 H 101.417 0.161739 0.719034 0
M  V30 997 H 104.059 1.05907 1.57746 0
M  V30 998 H 102.209 0.140828 3.88245 0
M  V30 999 H 103.881 2.7447 3.70761 0
M  V30 1000 H 102.124 2.63653 3.44484 0
M  V30 1001 H 102.795 2.26221 5.03516 0
M  V30 1002 H 105.271 0.565213 4.12243 0
M  V30 1003 H 104.147 0.303152 5.48062 0
M  V30 1004 H 104.408 -0.980935 4.3108 0
M  V30 1005 N 103.467 -1.45747 0.599634 0
M  V30 1006 C 104.714 -2.02292 0.0917284 0
M  V30 1007 C 105.042 -1.46906 -1.27472 0
M  V30 1008 O 104.297 -0.630652 -1.8526 0
M  V30 1009 C 104.596 -3.57399 -0.00602758 0
M  V30 1010 C 104.262 -4.31902 1.29503 0
M  V30 1011 C 102.924 -4.51974 1.65144 0
M  V30 1012 C 105.276 -4.74551 2.15525 0
M  V30 1013 C 102.604 -5.11949 2.86574 0
M  V30 1014 C 104.956 -5.35868 3.36196 0
M  V30 1015 C 103.62 -5.54165 3.72099 0
M  V30 1016 H 102.89 -0.740239 0.0335658 0
M  V30 1017 H 105.537 -1.7491 0.779661 0
M  V30 1018 H 103.842 -3.84014 -0.777183 0
M  V30 1019 H 105.539 -3.98846 -0.415038 0
M  V30 1020 H 102.129 -4.16588 1.00761 0
M  V30 1021 H 106.313 -4.58784 1.8929 0
M  V30 1022 H 101.569 -5.24305 3.14507 0
M  V30 1023 H 105.743 -5.6787 4.03109 0
M  V30 1024 H 103.37 -6.00406 4.6628 0
M  V30 1025 N 104.945 -0.338344 -1.53925 0
M  V30 1026 C 105.892 0.520845 -2.24846 0
M  V30 1027 C 106.862 1.09976 -1.24477 0
M  V30 1028 O 108.047 1.13735 -1.53196 0
M  V30 1029 C 105.187 1.6685 -3.02084 0
M  V30 1030 C 104.3 1.11739 -4.17299 0
M  V30 1031 C 103.435 2.23193 -4.82036 0
M  V30 1032 C 102.474 1.65407 -5.89328 0
M  V30 1033 N 101.611 2.70582 -6.47866 0
M  V30 1034 H 106.451 -0.0904881 -2.97863 0
M  V30 1035 H 103.988 -0.0564282 -1.46992 0
M  V30 1036 H 105.946 2.34407 -3.45122 0
M  V30 1037 H 104.576 2.2509 -2.31375 0
M  V30 1038 H 103.628 0.332919 -3.7894 0
M  V30 1039 H 104.94 0.654677 -4.94485 0
M  V30 1040 H 104.094 2.98626 -5.28117 0
M  V30 1041 H 102.833 2.72807 -4.04262 0
M  V30 1042 H 101.838 0.884779 -5.42634 0
M  V30 1043 H 103.063 1.16652 -6.69006 0
M  V30 1044 H 101.009 3.1946 -5.72959 0
M  V30 1045 H 100.926 2.28917 -7.20509 0
M  V30 1046 H 102.194 3.45799 -6.98601 0
M  V30 1047 N 106.423 1.57458 -0.0668435 0
M  V30 1048 C 107.386 2.11323 0.887422 0
M  V30 1049 C 108.386 1.03618 1.22964 0
M  V30 1050 O 109.576 1.29626 1.16373 0
M  V30 1051 C 106.708 2.61048 2.19242 0
M  V30 1052 H 107.901 2.96942 0.420194 0
M  V30 1053 H 105.454 1.55239 0.181793 0
M  V30 1054 H 106.189 1.78868 2.70512 0
M  V30 1055 H 105.974 3.39769 1.95702 0
M  V30 1056 H 107.464 3.02814 2.87565 0
M  V30 1057 N 107.901 -0.206675 1.56239 0
M  V30 1058 C 108.864 -1.23976 1.92776 0
M  V30 1059 C 109.864 -1.39041 0.807729 0
M  V30 1060 O 111.054 -1.37051 1.0753 0
M  V30 1061 C 108.186 -2.61112 2.19165 0
M  V30 1062 H 109.379 -0.927764 2.85189 0
M  V30 1063 H 106.932 -0.447718 1.4975 0
M  V30 1064 H 107.667 -2.97386 1.29352 0
M  V30 1065 H 107.452 -2.51552 3.00772 0
M  V30 1066 H 108.942 -3.35633 2.48476 0
M  V30 1067 N 109.379 -1.50304 -0.473955 0
M  V30 1068 C 110.342 -1.6841 -1.55469 0
M  V30 1069 C 111.342 -0.554905 -1.50922 0
M  V30 1070 O 112.532 -0.821882 -1.53593 0
M  V30 1071 C 109.664 -1.70667 -2.95102 0
M  V30 1072 H 110.857 -2.64828 -1.40733 0
M  V30 1073 H 108.41 -1.39742 -0.700132 0
M  V30 1074 H 109.145 -0.75932 -3.15285 0
M  V30 1075 H 108.93 -2.52698 -2.9981 0
M  V30 1076 H 110.42 -1.8664 -3.73571 0
M  V30 1077 N 110.857 0.726932 -1.39834 0
M  V30 1078 C 112.103 1.48884 -1.377 0
M  V30 1079 C 112.436 1.94185 0.0244852 0
M  V30 1080 O 111.711 1.67361 0.990986 0
M  V30 1081 C 111.994 2.72288 -2.3565 0
M  V30 1082 C 111.847 2.32956 -3.84775 0
M  V30 1083 C 113.166 3.74414 -2.31306 0
M  V30 1084 H 110.285 0.540062 -0.5015 0
M  V30 1085 H 112.927 0.830547 -1.70886 0
M  V30 1086 H 111.077 3.28457 -2.07481 0
M  V30 1087 H 112.749 1.82356 -4.23726 0
M  V30 1088 H 110.992 1.65088 -4.01159 0
M  V30 1089 H 111.663 3.21362 -4.4881 0
M  V30 1090 H 114.139 3.27849 -2.56231 0
M  V30 1091 H 113.015 4.58414 -3.01907 0
M  V30 1092 H 113.276 4.21909 -1.32081 0
M  V30 1093 N 112.336 1.25143 0.95797 0
M  V30 1094 C 113.747 1.08851 1.51685 0
M  V30 1095 C 114.098 -0.33687 1.93286 0
M  V30 1096 O 113.223 -1.22644 1.7829 0
M  V30 1097 C 113.818 1.96978 2.75654 0
M  V30 1098 C 112.377 1.84881 3.27866 0
M  V30 1099 C 111.524 1.91329 2.0072 0
M  V30 1100 H 114.475 1.38478 0.77522 0
M  V30 1101 H 114.496 1.5078 3.4935 0
M  V30 1102 H 114.008 3.00712 2.45345 0
M  V30 1103 H 112.109 0.840182 3.63004 0
M  V30 1104 H 112.222 2.6951 3.96107 0
M  V30 1105 H 110.586 1.35174 2.15871 0
M  V30 1106 H 111.369 2.96661 1.72764 0
M  V30 1107 N 113.814 -1.1601 1.06675 0
M  V30 1108 C 115.06 -1.86909 0.786945 0
M  V30 1109 C 115.393 -1.81717 -0.685018 0
M  V30 1110 O 114.668 -1.23551 -1.50218 0
M  V30 1111 C 114.951 -3.36313 1.28707 0
M  V30 1112 C 114.804 -3.50175 2.82308 0
M  V30 1113 C 116.123 -4.3084 0.898071 0
M  V30 1114 H 113.242 -0.678677 0.287343 0
M  V30 1115 H 115.884 -1.36336 1.32334 0
M  V30 1116 H 114.034 -3.79513 0.830768 0
M  V30 1117 H 115.706 -3.15886 3.36175 0
M  V30 1118 H 113.949 -2.91959 3.20847 0
M  V30 1119 H 114.62 -4.55116 3.12368 0
M  V30 1120 H 117.096 -3.95561 1.29114 0
M  V30 1121 H 115.972 -5.33876 1.27543 0
M  V30 1122 H 116.233 -4.41662 -0.196651 0
M  V30 1123 N 115.292 -0.849877 -1.32721 0
M  V30 1124 C 116.202 -0.293791 -2.32753 0
M  V30 1125 C 117.218 0.585906 -1.63839 0
M  V30 1126 O 118.394 0.487413 -1.95413 0
M  V30 1127 C 115.459 0.512752 -3.42887 0
M  V30 1128 C 114.52 -0.39252 -4.27502 0
M  V30 1129 C 113.753 0.375625 -5.32377 0
M  V30 1130 O 113.976 1.60613 -5.4732 0
M  V30 1131 O 112.91 -0.256094 -6.01355 0
M  V30 1132 H 116.736 -1.12242 -2.82197 0
M  V30 1133 H 114.321 -0.612685 -1.36259 0
M  V30 1134 H 116.203 0.970704 -4.10067 0
M  V30 1135 H 114.878 1.31826 -2.95641 0
M  V30 1136 H 113.785 -0.898547 -3.63149 0
M  V30 1137 H 115.118 -1.16309 -4.7826 0
M  V30 1138 N 116.77 1.45427 -0.607355 0
M  V30 1139 C 118.017 2.02241 -0.102455 0
M  V30 1140 C 118.345 1.4758 1.26691 0
M  V30 1141 O 117.6 0.640468 1.84923 0
M  V30 1142 C 117.899 3.57398 -0.0129263 0
M  V30 1143 C 117.565 4.3121 -1.31792 0
M  V30 1144 C 116.227 4.51092 -1.67539 0
M  V30 1145 C 118.579 4.73401 -2.18039 0
M  V30 1146 C 115.907 5.10422 -2.89285 0
M  V30 1147 C 118.259 5.34078 -3.39034 0
M  V30 1148 C 116.923 5.52184 -3.75033 0
M  V30 1149 H 116.193 0.740051 -0.037491 0
M  V30 1150 H 118.84 1.74494 -0.788926 0
M  V30 1151 H 117.145 3.84421 0.756806 0
M  V30 1152 H 118.842 3.99061 0.393881 0
M  V30 1153 H 115.432 4.16047 -1.02968 0
M  V30 1154 H 119.616 4.57774 -1.91721 0
M  V30 1155 H 114.872 5.22629 -3.17283 0
M  V30 1156 H 119.046 5.65724 -4.06115 0
M  V30 1157 H 116.673 5.97925 -4.69457 0
M  V30 1158 N 118.248 0.346503 1.53744 0
M  V30 1159 C 119.18 -0.543316 2.22667 0
M  V30 1160 C 120.193 -1.06159 1.23427 0
M  V30 1161 O 121.382 -0.971235 1.49764 0
M  V30 1162 C 118.482 -1.76076 2.89569 0
M  V30 1163 C 117.655 -1.37727 4.15151 0
M  V30 1164 C 116.714 -2.45471 4.65436 0
M  V30 1165 O 115.74 -2.08655 5.29577 0
M  V30 1166 N 116.942 -3.7677 4.41616 0
M  V30 1167 H 119.707 0.0469703 2.99663 0
M  V30 1168 H 117.268 0.170766 1.60997 0
M  V30 1169 H 119.26 -2.47593 3.20125 0
M  V30 1170 H 117.83 -2.25835 2.16142 0
M  V30 1171 H 117.05 -0.492746 3.91108 0
M  V30 1172 H 118.338 -1.09708 4.96832 0
M  V30 1173 H 117.736 -4.09467 3.90325 0
M  V30 1174 H 116.293 -4.44448 4.7677 0
M  V30 1175 N 119.726 -1.57421 0.075193 0
M  V30 1176 C 120.636 -2.1642 -0.905511 0
M  V30 1177 C 121.652 -1.12828 -1.32461 0
M  V30 1178 O 122.828 -1.45109 -1.39661 0
M  V30 1179 C 119.893 -2.71693 -2.15369 0
M  V30 1180 C 118.954 -3.90171 -1.79068 0
M  V30 1181 C 118.187 -4.42798 -2.97936 0
M  V30 1182 O 118.41 -3.94416 -4.12058 0
M  V30 1183 O 117.344 -5.34085 -2.77555 0
M  V30 1184 H 121.17 -3.00588 -0.433626 0
M  V30 1185 H 118.755 -1.48664 -0.148067 0
M  V30 1186 H 120.637 -3.07104 -2.88557 0
M  V30 1187 H 119.312 -1.90582 -2.61649 0
M  V30 1188 H 118.219 -3.59606 -1.03122 0
M  V30 1189 H 119.552 -4.72584 -1.37569 0
M  V30 1190 N 121.204 0.198386 -1.56346 0
M  V30 1191 C 122.154 1.2499 -1.90687 0
M  V30 1192 C 123.138 1.41158 -0.772217 0
M  V30 1193 O 124.33 1.43584 -1.03502 0
M  V30 1194 C 121.459 2.59542 -2.24706 0
M  V30 1195 C 120.545 2.47181 -3.44619 0
M  V30 1196 N 120.936 2.04495 -4.62618 0
M  V30 1197 C 119.234 2.78082 -3.48692 0
M  V30 1198 C 119.935 2.03945 -5.44776 0
M  V30 1199 N 118.911 2.45323 -4.85095 0
M  V30 1200 H 122.713 0.911149 -2.7942 0
M  V30 1201 H 120.227 0.40684 -1.57221 0
M  V30 1202 H 122.224 3.3549 -2.47491 0
M  V30 1203 H 120.884 2.94244 -1.37298 0
M  V30 1204 H 121.895 1.75256 -4.87345 0
M  V30 1205 H 118.572 3.17002 -2.71691 0
M  V30 1206 H 119.962 1.72872 -6.4928 0
M  V30 1207 N 122.682 1.50554 0.465978 0
M  V30 1208 C 123.632 1.66177 1.56106 0
M  V30 1209 C 124.616 0.516265 1.52393 0
M  V30 1210 O 125.808 0.770906 1.5933 0
M  V30 1211 C 122.937 1.76396 2.94515 0
M  V30 1212 C 122.023 2.9664 3.03093 0
M  V30 1213 N 122.414 4.20245 2.81474 0
M  V30 1214 C 120.712 2.95304 3.34233 0
M  V30 1215 C 121.413 5.01259 2.95151 0
M  V30 1216 N 120.389 4.35318 3.25576 0
M  V30 1217 H 124.191 2.59434 1.38099 0
M  V30 1218 H 121.705 1.47808 0.6728 0
M  V30 1219 H 123.702 1.85694 3.73261 0
M  V30 1220 H 122.362 0.843017 3.13565 0
M  V30 1221 H 123.373 4.4966 2.56956 0
M  V30 1222 H 120.05 2.12729 3.59239 0
M  V30 1223 H 121.44 6.09564 2.82632 0
M  V30 1224 N 124.16 -0.719506 1.40217 0
M  V30 1225 C 125.09 -1.8465 1.42922 0
M  V30 1226 C 126.071 -1.67599 0.29062 0
M  V30 1227 O 127.256 -1.87688 0.498677 0
M  V30 1228 C 124.386 -3.22565 1.28722 0
M  V30 1229 C 123.34 -3.54281 2.40144 0
M  V30 1230 C 122.666 -4.91298 2.11023 0
M  V30 1231 C 123.966 -3.55676 3.82481 0
M  V30 1232 H 125.66 -1.82644 2.37237 0
M  V30 1233 H 123.206 -0.877305 1.1419 0
M  V30 1234 H 125.159 -4.01095 1.29232 0
M  V30 1235 H 123.883 -3.25137 0.308811 0
M  V30 1236 H 122.542 -2.78088 2.38877 0
M  V30 1237 H 122.19 -4.90468 1.11582 0
M  V30 1238 H 121.89 -5.13485 2.8567 0
M  V30 1239 H 123.414 -5.72166 2.13209 0
M  V30 1240 H 124.828 -4.24254 3.85592 0
M  V30 1241 H 123.225 -3.89388 4.56614 0
M  V30 1242 H 124.295 -2.55144 4.12346 0
M  V30 1243 N 125.638 -1.25649 -0.95132 0
M  V30 1244 C 126.863 -1.13443 -1.73624 0
M  V30 1245 C 127.288 0.307565 -1.85568 0
M  V30 1246 O 126.646 1.22282 -1.33854 0
M  V30 1247 C 126.694 -1.79723 -3.12621 0
M  V30 1248 O 125.798 -1.07912 -3.98031 0
M  V30 1249 H 125.139 -0.395872 -0.533086 0
M  V30 1250 H 127.669 -1.66276 -1.1922 0
M  V30 1251 H 127.679 -1.86141 -3.63064 0
M  V30 1252 H 126.354 -2.84633 -3.03244 0
M  V30 1253 H 124.931 -1.09398 -3.56492 0
M  V30 1254 N 127.117 1.15442 -1.07289 0
M  V30 1255 C 128.027 2.23786 -0.704057 0
M  V30 1256 C 129.043 1.7166 0.284413 0
M  V30 1257 O 130.219 2.00972 0.131205 0
M  V30 1258 C 127.284 3.46535 -0.106792 0
M  V30 1259 C 126.345 4.13654 -1.14842 0
M  V30 1260 C 125.578 5.30544 -0.57956 0
M  V30 1261 O 125.801 5.67187 0.604585 0
M  V30 1262 O 124.735 5.87154 -1.32414 0
M  V30 1263 H 128.561 2.57664 -1.60757 0
M  V30 1264 H 126.146 1.23152 -0.845803 0
M  V30 1265 H 128.028 4.20804 0.224048 0
M  V30 1266 H 126.703 3.14407 0.770049 0
M  V30 1267 H 125.61 3.4131 -1.5316 0
M  V30 1268 H 126.943 4.49861 -1.99714 0
M  V30 1269 N 128.595 0.856903 1.32268 0
M  V30 1270 C 129.841 0.462069 1.97466 0
M  V30 1271 C 130.174 -0.980298 1.67642 0
M  V30 1272 O 129.449 -1.68824 0.965858 0
M  V30 1273 C 129.732 0.704336 3.53145 0
M  V30 1274 C 129.585 2.19529 3.9259 0
M  V30 1275 C 130.904 0.1622 4.39801 0
M  V30 1276 H 128.023 0.169357 0.717278 0
M  V30 1277 H 130.665 1.07574 1.56614 0
M  V30 1278 H 128.815 0.181999 3.88073 0
M  V30 1279 H 130.487 2.78387 3.67829 0
M  V30 1280 H 128.73 2.67292 3.41668 0
M  V30 1281 H 129.401 2.31549 5.01088 0
M  V30 1282 H 131.877 0.608905 4.11621 0
M  V30 1283 H 130.753 0.361265 5.4771 0
M  V30 1284 H 131.014 -0.935158 4.32096 0
M  V30 1285 N 130.073 -1.45103 0.615059 0
M  V30 1286 C 131.005 -2.28786 -0.13762 0
M  V30 1287 C 132.018 -1.40376 -0.824525 0
M  V30 1288 O 133.207 -1.64681 -0.688662 0
M  V30 1289 C 130.307 -3.16322 -1.21628 0
M  V30 1290 C 129.48 -4.33054 -0.615039 0
M  V30 1291 C 128.539 -5.01743 -1.58556 0
M  V30 1292 O 127.565 -5.58293 -1.10895 0
M  V30 1293 N 128.767 -5.01714 -2.91998 0
M  V30 1294 H 131.532 -2.94025 0.580483 0
M  V30 1295 H 129.093 -1.55373 0.45507 0
M  V30 1296 H 131.085 -3.59139 -1.86552 0
M  V30 1297 H 129.655 -2.52943 -1.83681 0
M  V30 1298 H 128.875 -3.93627 0.21245 0
M  V30 1299 H 130.163 -5.08431 -0.193704 0
M  V30 1300 H 129.561 -4.57075 -3.33316 0
M  V30 1301 H 128.118 -5.48371 -3.52325 0
M  V30 1302 N 131.551 -0.354651 -1.53558 0
M  V30 1303 C 132.499 0.512195 -2.26891 0
M  V30 1304 C 133.493 1.09263 -1.29452 0
M  V30 1305 O 134.699 1.03709 -1.47121 0
M  V30 1306 H 131.074 0.183878 -0.729173 0
M  V30 1307 H 133.045 -0.128202 -2.98124 0
M  V30 1308 C 131.794 1.64563 -3.06291 0
M  V30 1309 H 131.117 1.20829 -3.81104 0
M  V30 1310 H 132.557 2.22711 -3.60799 0
M  V30 1311 C 131.016 2.58158 -2.16462 0
M  V30 1312 O 131.546 3.60695 -1.76811 0
M  V30 1313 N 129.752 2.27096 -1.81317 0
M  V30 1314 H 129.299 1.43751 -2.1376 0
M  V30 1315 H 129.257 2.89975 -1.21498 0
M  V30 1316 N 133.029 1.57378 -0.0835403 0
M  V30 1317 C 133.962 2.09016 0.915833 0
M  V30 1318 C 134.94 0.997993 1.2837 0
M  V30 1319 O 136.124 1.27219 1.39096 0
M  V30 1320 C 133.251 2.55757 2.22049 0
M  V30 1321 C 132.297 3.76522 2.00333 0
M  V30 1322 S 133.13 5.20661 1.25191 0
M  V30 1323 C 134.286 5.70743 2.56912 0
M  V30 1324 H 134.519 2.93457 0.476492 0
M  V30 1325 H 132.052 1.53856 0.129493 0
M  V30 1326 H 134.01 2.83346 2.97027 0
M  V30 1327 H 132.671 1.71564 2.63106 0
M  V30 1328 H 131.864 4.07256 2.96916 0
M  V30 1329 H 131.466 3.49367 1.33488 0
M  V30 1330 H 133.758 5.78304 3.52946 0
M  V30 1331 H 134.701 6.6944 2.30772 0
M  V30 1332 H 135.109 4.98616 2.64655 0
M  V30 1333 N 134.507 -0.190092 1.56449 0
M  V30 1334 C 135.47 -1.21925 1.9408 0
M  V30 1335 C 136.47 -1.38176 0.822431 0
M  V30 1336 O 137.66 -1.35903 1.08977 0
M  V30 1337 C 134.792 -2.58773 2.21922 0
M  V30 1338 H 135.985 -0.897464 2.86157 0
M  V30 1339 H 133.538 -0.43181 1.50217 0
M  V30 1340 H 134.273 -2.95998 1.32499 0
M  V30 1341 H 134.058 -2.48348 3.03424 0
M  V30 1342 H 135.548 -3.32978 2.52022 0
M  V30 1343 N 135.985 -1.50799 -0.457987 0
M  V30 1344 C 137.21 -1.66496 -1.23668 0
M  V30 1345 C 137.635 -0.353288 -1.84752 0
M  V30 1346 O 136.993 0.684346 -1.67888 0
M  V30 1347 C 137.041 -2.76763 -2.3116 0
M  V30 1348 O 136.145 -2.38928 -3.36136 0
M  V30 1349 H 135.486 -0.555828 -0.363252 0
M  V30 1350 H 138.016 -1.9725 -0.543474 0
M  V30 1351 H 138.026 -3.00232 -2.76269 0
M  V30 1352 H 136.701 -3.71954 -1.86073 0
M  V30 1353 H 135.278 -2.25953 -2.96647 0
M  V30 1354 N 137.463 0.71206 -1.40597 0
M  V30 1355 C 138.373 1.8562 -1.43466 0
M  V30 1356 C 139.389 1.70902 -0.326902 0
M  V30 1357 O 140.565 1.93105 -0.572043 0
M  V30 1358 C 137.63 3.21451 -1.29884 0
M  V30 1359 C 136.691 3.48398 -2.50833 0
M  V30 1360 C 135.924 4.77749 -2.3789 0
M  V30 1361 O 136.147 5.53089 -1.39459 0
M  V30 1362 O 135.081 5.05111 -3.27333 0
M  V30 1363 H 138.907 1.86155 -2.39958 0
M  V30 1364 H 136.492 0.86295 -1.21957 0
M  V30 1365 H 138.374 4.02579 -1.24531 0
M  V30 1366 H 137.049 3.21636 -0.364997 0
M  V30 1367 H 135.956 2.67265 -2.61763 0
M  V30 1368 H 137.289 3.53014 -3.4299 0
M  V30 1369 N 138.941 1.26152 0.944643 0
M  V30 1370 C 139.851 1.09176 2.07648 0
M  V30 1371 C 140.867 0.0261935 1.7398 0
M  V30 1372 O 142.043 0.229208 2.00091 0
M  V30 1373 C 139.108 0.722915 3.39079 0
M  V30 1374 C 138.169 1.86752 3.86552 0
M  V30 1375 C 137.402 1.51617 5.11711 0
M  V30 1376 O 137.625 0.416331 5.68879 0
M  V30 1377 O 136.559 2.34975 5.54139 0
M  V30 1378 H 140.385 2.0412 2.24875 0
M  V30 1379 H 137.97 1.05182 1.061 0
M  V30 1380 H 139.852 0.529787 4.18056 0
M  V30 1381 H 138.527 -0.197159 3.23099 0
M  V30 1382 H 137.434 2.11558 3.08535 0
M  V30 1383 H 138.767 2.76719 4.07047 0
M  V30 1384 N 140.419 -1.14872 1.07899 0
M  V30 1385 C 141.366 -2.19791 0.704319 0
M  V30 1386 C 142.336 -1.63238 -0.306987 0
M  V30 1387 O 143.521 -1.8983 -0.192171 0
M  V30 1388 C 140.661 -3.44911 0.114244 0
M  V30 1389 C 139.774 -4.15637 1.1777 0
M  V30 1390 C 138.909 -5.28324 0.552037 0
M  V30 1391 C 137.948 -5.90875 1.59789 0
M  V30 1392 N 137.085 -6.95022 0.994404 0
M  V30 1393 H 141.925 -2.5119 1.60336 0
M  V30 1394 H 139.462 -1.23356 0.801352 0
M  V30 1395 H 141.42 -4.16477 -0.245544 0
M  V30 1396 H 140.05 -3.14011 -0.74813 0
M  V30 1397 H 139.102 -3.42512 1.65499 0
M  V30 1398 H 140.414 -4.5823 1.97046 0
M  V30 1399 H 139.568 -6.06538 0.1402 0
M  V30 1400 H 138.307 -4.86939 -0.272431 0
M  V30 1401 H 137.312 -5.11369 2.01945 0
M  V30 1402 H 138.537 -6.34337 2.42474 0
M  V30 1403 H 136.483 -6.55722 0.190939 0
M  V30 1404 H 136.4 -7.36073 1.72432 0
M  V30 1405 H 137.668 -7.77123 0.608253 0
M  V30 1406 N 141.898 -0.863906 -1.31812 0
M  V30 1407 C 142.828 -0.330843 -2.31144 0
M  V30 1408 C 143.809 0.575005 -1.60087 0
M  V30 1409 O 144.994 0.493304 -1.8783 0
M  V30 1410 C 142.124 0.47374 -3.44054 0
M  V30 1411 C 141.078 -0.338481 -4.26659 0
M  V30 1412 C 140.404 0.591412 -5.31419 0
M  V30 1413 C 141.704 -1.56926 -4.98168 0
M  V30 1414 H 143.398 -1.16086 -2.75979 0
M  V30 1415 H 140.944 -0.559657 -1.32679 0
M  V30 1416 H 142.897 0.857143 -4.12591 0
M  V30 1417 H 141.621 1.33721 -2.9797 0
M  V30 1418 H 140.28 -0.703754 -3.59782 0
M  V30 1419 H 139.928 1.45199 -4.81587 0
M  V30 1420 H 139.628 0.0519022 -5.87577 0
M  V30 1421 H 141.152 0.97179 -6.02817 0
M  V30 1422 H 142.566 -1.25764 -5.59336 0
M  V30 1423 H 140.963 -2.04739 -5.64094 0
M  V30 1424 H 142.033 -2.32544 -4.25501 0
M  V30 1425 N 143.376 1.44774 -0.622745 0
M  V30 1426 C 144.286 2.34433 0.0886031 0
M  V30 1427 C 145.302 1.52131 0.844529 0
M  V30 1428 O 146.478 1.84886 0.798691 0
M  V30 1429 C 143.543 3.29986 1.0635 0
M  V30 1430 C 142.604 4.28195 0.307873 0
M  V30 1431 C 141.837 5.19183 1.23633 0
M  V30 1432 O 142.06 5.13918 2.47476 0
M  V30 1433 O 140.994 5.97515 0.725189 0
M  V30 1434 H 144.82 2.96693 -0.648599 0
M  V30 1435 H 142.405 1.44408 -0.382957 0
M  V30 1436 H 144.287 3.88825 1.6246 0
M  V30 1437 H 142.962 2.70269 1.78146 0
M  V30 1438 H 141.869 3.72927 -0.296064 0
M  V30 1439 H 143.202 4.90808 -0.3699 0
M  V30 1440 N 144.854 0.36279 1.53368 0
M  V30 1441 C 145.786 -0.519668 2.23231 0
M  V30 1442 C 146.799 -1.04844 1.24546 0
M  V30 1443 O 147.988 -0.955296 1.50786 0
M  V30 1444 C 145.088 -1.72995 2.9142 0
M  V30 1445 C 144.261 -1.33316 4.16588 0
M  V30 1446 C 143.32 -2.40521 4.68013 0
M  V30 1447 O 142.346 -2.03027 5.3176 0
M  V30 1448 N 143.548 -3.72065 4.45587 0
M  V30 1449 H 146.313 0.078751 2.99597 0
M  V30 1450 H 143.874 0.187833 1.60807 0
M  V30 1451 H 145.866 -2.44184 3.22733 0
M  V30 1452 H 144.436 -2.2353 2.18525 0
M  V30 1453 H 143.656 -0.451236 3.91609 0
M  V30 1454 H 144.944 -1.04432 4.97967 0
M  V30 1455 H 144.342 -4.05304 3.94646 0
M  V30 1456 H 142.899 -4.39366 4.81457 0
M  V30 1457 N 146.332 -1.57332 0.0918853 0
M  V30 1458 C 147.578 -1.94524 -0.573425 0
M  V30 1459 C 147.911 -0.973578 -1.68033 0
M  V30 1460 O 147.186 -0.00609226 -1.94499 0
M  V30 1461 C 147.469 -3.41858 -1.13161 0
M  V30 1462 C 147.322 -4.4979 -0.0299747 0
M  V30 1463 C 148.641 -3.90435 -2.03098 0
M  V30 1464 H 145.76 -0.70734 -0.206975 0
M  V30 1465 H 148.402 -1.89309 0.161942 0
M  V30 1466 H 146.552 -3.46433 -1.7583 0
M  V30 1467 H 148.224 -4.57327 0.604112 0
M  V30 1468 H 146.467 -4.291 0.636833 0
M  V30 1469 H 147.138 -5.50069 -0.461287 0
M  V30 1470 H 149.614 -3.87992 -1.50338 0
M  V30 1471 H 148.49 -4.94097 -2.39081 0
M  V30 1472 H 148.751 -3.29541 -2.94712 0
M  V30 1473 N 147.81 0.181792 -1.56548 0
M  V30 1474 C 148.74 1.22765 -1.98623 0
M  V30 1475 C 149.721 1.46747 -0.860189 0
M  V30 1476 O 150.906 1.58259 -1.12551 0
M  V30 1477 C 148.036 2.56894 -2.33715 0
M  V30 1478 C 146.99 2.475 -3.49182 0
M  V30 1479 C 146.316 3.86023 -3.69986 0
M  V30 1480 C 147.616 1.98866 -4.82959 0
M  V30 1481 H 149.31 0.877942 -2.86239 0
M  V30 1482 H 146.856 0.42088 -1.37712 0
M  V30 1483 H 148.809 3.30253 -2.61746 0
M  V30 1484 H 147.533 2.93632 -1.42997 0
M  V30 1485 H 146.192 1.76596 -3.21262 0
M  V30 1486 H 145.84 4.20136 -2.76576 0
M  V30 1487 H 145.54 3.80609 -4.47672 0
M  V30 1488 H 147.064 4.60984 -4.00407 0
M  V30 1489 H 148.478 2.61992 -5.09934 0
M  V30 1490 H 146.875 2.04424 -5.64208 0
M  V30 1491 H 147.945 0.942465 -4.75653 0
M  V30 1492 N 149.288 1.51039 0.449983 0
M  V30 1493 C 150.513 1.6715 1.22783 0
M  V30 1494 C 150.938 0.363081 1.84563 0
M  V30 1495 O 150.296 -0.675433 1.68249 0
M  V30 1496 C 150.344 2.77985 2.29689 0
M  V30 1497 O 149.448 2.40707 3.34864 0
M  V30 1498 H 148.789 0.557746 0.360299 0
M  V30 1499 H 151.319 1.97535 0.533005 0
M  V30 1500 H 151.329 3.01693 2.74673 0
M  V30 1501 H 150.004 3.72935 1.84098 0
M  V30 1502 H 148.581 2.27523 2.95445 0
M  V30 1503 N 150.766 -0.704594 1.40972 0
M  V30 1504 C 151.991 -1.49858 1.43378 0
M  V30 1505 C 152.416 -1.88061 0.038184 0
M  V30 1506 O 151.774 -1.5402 -0.956425 0
M  V30 1507 C 151.822 -2.74333 2.34038 0
M  V30 1508 O 150.926 -3.7147 1.7912 0
M  V30 1509 H 150.267 -0.45139 0.486974 0
M  V30 1510 H 152.797 -0.866832 1.8533 0
M  V30 1511 H 152.807 -3.22741 2.49604 0
M  V30 1512 H 151.482 -2.45863 3.35446 0
M  V30 1513 H 150.059 -3.30363 1.72958 0
M  V30 1514 N 152.244 -1.26651 -0.937939 0
M  V30 1515 C 153.177 -1.02811 -2.03728 0
M  V30 1516 C 154.155 0.0481915 -1.62529 0
M  V30 1517 O 155.339 -0.0948839 -1.88261 0
M  V30 1518 C 152.466 -0.557517 -3.3408 0
M  V30 1519 C 151.512 -1.62686 -3.94253 0
M  V30 1520 S 152.345 -3.21667 -4.28125 0
M  V30 1521 C 153.501 -2.76384 -5.61572 0
M  V30 1522 H 153.734 -1.95891 -2.23638 0
M  V30 1523 H 151.267 -1.10367 -1.07974 0
M  V30 1524 H 153.225 -0.292674 -4.09455 0
M  V30 1525 H 151.886 0.353062 -3.12109 0
M  V30 1526 H 151.079 -1.24866 -4.88287 0
M  V30 1527 H 150.681 -1.84324 -3.25424 0
M  V30 1528 H 152.973 -2.2105 -6.40424 0
M  V30 1529 H 153.916 -3.69123 -6.0428 0
M  V30 1530 H 154.324 -2.15847 -5.21604 0
M  V30 1531 N 153.722 1.14298 -1.08507 0
M  V30 1532 C 154.669 2.19414 -0.715965 0
M  V30 1533 C 155.639 1.63399 0.298326 0
M  V30 1534 O 156.824 1.89929 0.182101 0
M  V30 1535 C 153.964 3.44845 -0.132534 0
M  V30 1536 C 153.077 4.15007 -1.19973 0
M  V30 1537 C 152.212 5.28024 -0.580048 0
M  V30 1538 C 151.251 5.9002 -1.62921 0
M  V30 1539 N 150.388 6.94485 -1.03125 0
M  V30 1540 H 155.228 2.50336 -1.61666 0
M  V30 1541 H 152.765 1.2293 -0.807882 0
M  V30 1542 H 154.723 4.16601 0.223454 0
M  V30 1543 H 153.353 3.14403 0.731467 0
M  V30 1544 H 152.405 3.41629 -1.67313 0
M  V30 1545 H 153.717 4.57178 -1.99473 0
M  V30 1546 H 152.871 6.06455 -0.172364 0
M  V30 1547 H 151.61 4.87076 0.246603 0
M  V30 1548 H 150.615 5.10291 -2.04654 0
M  V30 1549 H 151.84 6.33042 -2.45835 0
M  V30 1550 H 149.786 6.55612 -0.225711 0
M  V30 1551 H 149.703 7.35148 -1.76334 0
M  V30 1552 H 150.971 7.7679 -0.649458 0
M  V30 1553 N 155.201 0.870884 1.31352 0
M  V30 1554 C 156.111 0.330783 2.32256 0
M  V30 1555 C 157.127 -0.559767 1.6475 0
M  V30 1556 O 158.303 -0.456263 1.96164 0
M  V30 1557 C 155.368 -0.458137 3.4366 0
M  V30 1558 C 154.429 0.460482 4.26823 0
M  V30 1559 C 153.662 -0.290881 5.32907 0
M  V30 1560 O 153.885 -1.51885 5.49806 0
M  V30 1561 O 152.819 0.351732 6.00871 0
M  V30 1562 H 156.645 1.16718 2.80376 0
M  V30 1563 H 154.23 0.634285 1.35267 0
M  V30 1564 H 156.112 -0.905343 4.1156 0
M  V30 1565 H 154.787 -1.27106 2.97701 0
M  V30 1566 H 153.694 0.956207 3.61673 0
M  V30 1567 H 155.027 1.23903 4.7635 0
M  V30 1568 N 156.679 -1.44442 0.630414 0
M  V30 1569 C 157.627 -2.32437 -0.0871428 0
M  V30 1570 C 158.621 -1.47304 -0.836525 0
M  V30 1571 O 159.827 -1.63653 -0.749506 0
M  V30 1572 H 156.202 -0.750533 -0.0469495 0
M  V30 1573 H 158.173 -2.90709 0.673096 0
M  V30 1574 C 156.922 -3.31288 -1.05563 0
M  V30 1575 H 156.245 -3.96805 -0.488426 0
M  V30 1576 H 157.685 -3.9554 -1.52721 0
M  V30 1577 C 156.144 -2.6016 -2.14052 0
M  V30 1578 O 156.674 -2.39997 -3.22124 0
M  V30 1579 N 154.88 -2.19911 -1.89967 0
M  V30 1580 H 154.427 -2.36509 -1.02085 0
M  V30 1581 H 154.385 -1.72646 -2.62756 0
M  V30 1582 N 158.157 -0.370918 -1.53173 0
M  V30 1583 C 159.104 0.473035 -2.259 0
M  V30 1584 C 160.074 1.07311 -1.26781 0
M  V30 1585 O 161.259 1.1046 -1.55574 0
M  V30 1586 C 158.399 1.60405 -3.05556 0
M  V30 1587 C 157.512 1.02863 -4.19575 0
M  V30 1588 C 156.647 2.12918 -4.86661 0
M  V30 1589 C 155.686 1.52869 -5.92704 0
M  V30 1590 N 154.823 2.56779 -6.53459 0
M  V30 1591 H 159.663 -0.153649 -2.97604 0
M  V30 1592 H 157.2 -0.0875946 -1.46839 0
M  V30 1593 H 159.158 2.27034 -3.50016 0
M  V30 1594 H 157.788 2.20131 -2.36097 0
M  V30 1595 H 156.84 0.252465 -3.79561 0
M  V30 1596 H 158.152 0.549642 -4.95762 0
M  V30 1597 H 157.306 2.87356 -5.34333 0
M  V30 1598 H 156.045 2.6417 -4.09958 0
M  V30 1599 H 155.05 0.769479 -5.44389 0
M  V30 1600 H 156.275 1.02435 -6.7133 0
M  V30 1601 H 154.221 3.07235 -5.79606 0
M  V30 1602 H 154.138 2.13583 -7.25202 0
M  V30 1603 H 155.406 3.30903 -7.05779 0
M  V30 1604 N 159.635 1.57281 -0.100228 0
M  V30 1605 C 160.881 1.94826 0.563101 0
M  V30 1606 C 161.214 0.982475 1.67514 0
M  V30 1607 O 160.489 0.0164069 1.94493 0
M  V30 1608 C 160.772 3.42453 1.11346 0
M  V30 1609 C 160.625 4.498 0.00612081 0
M  V30 1610 C 161.944 3.91506 2.01024 0
M  V30 1611 H 159.063 0.708428 0.203221 0
M  V30 1612 H 161.705 1.8922 -0.171979 0
M  V30 1613 H 159.855 3.47361 1.7399 0
M  V30 1614 H 161.527 4.57 -0.628357 0
M  V30 1615 H 159.77 4.28756 -0.659581 0
M  V30 1616 H 160.441 5.50306 0.432109 0
M  V30 1617 H 162.917 3.88784 1.48278 0
M  V30 1618 H 161.793 4.95358 2.36457 0
M  V30 1619 H 162.054 3.31099 2.92961 0
M  V30 1620 N 161.113 -0.173488 1.56642 0
M  V30 1621 C 162.076 -1.19859 1.95362 0
M  V30 1622 C 163.076 -1.37296 0.83704 0
M  V30 1623 O 164.266 -1.34739 1.10413 0
M  V30 1624 C 161.398 -2.56405 2.24654 0
M  V30 1625 H 162.591 -0.867062 2.87092 0
M  V30 1626 H 160.144 -0.415853 1.50666 0
M  V30 1627 H 160.879 -2.94576 1.35631 0
M  V30 1628 H 160.664 -2.45115 3.06041 0
M  V30 1629 H 162.154 -3.30287 2.5554 0
M  V30 1630 N 162.591 -1.51276 -0.441967 0
M  V30 1631 C 163.84 -1.6295 -1.18871 0
M  V30 1632 C 164.153 -0.349312 -1.92456 0
M  V30 1633 O 165.359 -0.345355 -2.69295 0
M  V30 1634 C 163.815 -2.87759 -2.16155 0
M  V30 1635 C 163.423 -4.22764 -1.48239 0
M  V30 1636 C 165.167 -3.08788 -2.91291 0
M  V30 1637 C 163.074 -5.38728 -2.4398 0
M  V30 1638 H 162.004 -0.606913 -0.447406 0
M  V30 1639 H 164.655 -1.77739 -0.456205 0
M  V30 1640 H 163.037 -2.66593 -2.92821 0
M  V30 1641 H 164.211 -4.54293 -0.771635 0
M  V30 1642 H 162.526 -4.07575 -0.852741 0
M  V30 1643 H 165.123 -3.92599 -3.63002 0
M  V30 1644 H 165.466 -2.21679 -3.5237 0
M  V30 1645 H 165.999 -3.30272 -2.21733 0
M  V30 1646 H 162.738 -6.28082 -1.87598 0
M  V30 1647 H 162.258 -5.1158 -3.13123 0
M  V30 1648 H 163.937 -5.70489 -3.05207 0
M  V30 1649 N 164.069 0.697108 -1.41344 0
M  V30 1650 C 165.318 1.45279 -1.39918 0
M  V30 1651 C 165.631 1.95597 -0.0109624 0
M  V30 1652 O 166.837 2.71208 0.125919 0
M  V30 1653 C 165.293 2.62695 -2.46007 0
M  V30 1654 C 164.901 2.19169 -3.90729 0
M  V30 1655 C 166.645 3.40336 -2.53715 0
M  V30 1656 C 164.552 3.33535 -4.88373 0
M  V30 1657 H 163.482 0.545692 -0.520323 0
M  V30 1658 H 166.133 0.756929 -1.67161 0
M  V30 1659 H 164.515 3.34541 -2.11892 0
M  V30 1660 H 165.689 1.54623 -4.34083 0
M  V30 1661 H 164.004 1.54525 -3.86666 0
M  V30 1662 H 166.601 4.2547 -3.2385 0
M  V30 1663 H 166.944 3.85418 -1.5735 0
M  V30 1664 H 167.477 2.75546 -2.86913 0
M  V30 1665 H 164.216 2.93468 -5.86137 0
M  V30 1666 H 163.736 3.96936 -4.49668 0
M  V30 1667 H 165.415 3.99335 -5.09059 0
M  V30 1668 N 165.547 1.27147 0.931209 0
M  V30 1669 C 166.795 1.13055 1.6752 0
M  V30 1670 C 167.116 -0.324791 1.92276 0
M  V30 1671 O 166.386 -1.22775 1.52654 0
M  V30 1672 H 164.966 0.415391 0.620854 0
M  V30 1673 H 167.628 1.59623 1.11833 0
M  V30 1674 H 166.724 1.65694 2.64485 0
M  V30 1675 N 167.025 -1.13721 1.09112 0
M  V30 1676 C 167.972 -2.19031 0.727591 0
M  V30 1677 C 168.942 -1.63555 -0.289656 0
M  V30 1678 O 170.127 -1.90023 -0.172026 0
M  V30 1679 C 167.267 -3.4477 0.15082 0
M  V30 1680 C 166.38 -4.14365 1.22172 0
M  V30 1681 C 165.515 -5.27709 0.608042 0
M  V30 1682 C 164.554 -5.89147 1.66047 0
M  V30 1683 N 163.691 -6.93929 1.06806 0
M  V30 1684 H 168.531 -2.49475 1.62991 0
M  V30 1685 H 166.068 -1.22499 0.81439 0
M  V30 1686 H 168.026 -4.16714 -0.201358 0
M  V30 1687 H 166.656 -3.14787 -0.714783 0
M  V30 1688 H 165.708 -3.40737 1.69122 0
M  V30 1689 H 167.02 -4.56114 2.01895 0
M  V30 1690 H 166.174 -6.06355 0.204523 0
M  V30 1691 H 164.913 -4.872 -0.220769 0
M  V30 1692 H 163.918 -5.09198 2.07357 0
M  V30 1693 H 165.143 -6.31729 2.49189 0
M  V30 1694 H 163.089 -6.55483 0.260476 0
M  V30 1695 H 163.006 -7.34202 1.8023 0
M  V30 1696 H 164.274 -7.76434 0.690644 0
M  V30 1697 N 168.503 -0.877838 -1.30888 0
M  V30 1698 C 169.752 -0.488793 -1.95688 0
M  V30 1699 C 170.065 0.965485 -1.70111 0
M  V30 1700 O 171.271 1.46104 -2.28836 0
M  V30 1701 C 169.727 -0.823201 -3.50359 0
M  V30 1702 C 169.335 -2.29477 -3.84765 0
M  V30 1703 C 171.079 -0.503009 -4.21509 0
M  V30 1704 C 168.986 -2.57118 -5.32583 0
M  V30 1705 H 167.916 -0.179062 -0.732429 0
M  V30 1706 H 170.567 -1.07183 -1.48943 0
M  V30 1707 H 168.949 -0.169331 -3.95638 0
M  V30 1708 H 170.123 -2.99236 -3.5042 0
M  V30 1709 H 168.438 -2.58178 -3.267 0
M  V30 1710 H 171.035 -0.68665 -5.30273 0
M  V30 1711 H 171.378 0.557109 -4.12555 0
M  V30 1712 H 171.911 -1.11376 -3.8189 0
M  V30 1713 H 168.65 -3.61843 -5.4658 0
M  V30 1714 H 168.17 -1.91961 -5.68253 0
M  V30 1715 H 169.849 -2.42251 -5.99936 0
M  V30 1716 N 169.982 1.44106 -0.638065 0
M  V30 1717 C 170.932 2.27843 0.0847285 0
M  V30 1718 C 171.916 1.39055 0.809471 0
M  V30 1719 O 173.108 1.62808 0.694435 0
M  V30 1720 C 170.237 3.26497 1.06089 0
M  V30 1721 C 169.323 4.22772 0.33541 0
M  V30 1722 N 169.714 5.01737 -0.639787 0
M  V30 1723 C 168.012 4.42227 0.578921 0
M  V30 1724 C 168.713 5.71792 -1.06904 0
M  V30 1725 N 167.689 5.42079 -0.406395 0
M  V30 1726 H 171.491 2.86305 -0.663814 0
M  V30 1727 H 169.005 1.55627 -0.464122 0
M  V30 1728 H 171.002 3.8525 1.59337 0
M  V30 1729 H 169.662 2.69595 1.80966 0
M  V30 1730 H 170.673 5.07799 -1.01789 0
M  V30 1731 H 167.35 3.96415 1.31003 0
M  V30 1732 H 168.74 6.45205 -1.8751 0
M  V30 1733 N 171.46 0.379036 1.52974 0
M  V30 1734 C 172.688 -0.20679 2.05864 0
M  V30 1735 C 173.103 -1.41356 1.25155 0
M  V30 1736 O 172.46 -1.8009 0.295588 0
M  V30 1737 C 172.511 -0.587045 3.56702 0
M  V30 1738 O 172.232 0.571776 4.34353 0
M  V30 1739 C 173.733 -1.22983 4.25899 0
M  V30 1740 H 170.953 -0.0336123 0.670158 0
M  V30 1741 H 173.497 0.541298 1.97206 0
M  V30 1742 H 171.652 -1.28504 3.65466 0
M  V30 1743 H 172.066 0.261544 5.23847 0
M  V30 1744 H 173.54 -1.44635 5.32715 0
M  V30 1745 H 174.017 -2.19416 3.80465 0
M  V30 1746 H 174.623 -0.572892 4.21424 0
M  V30 1747 N 172.938 -1.57226 0.108567 0
M  V30 1748 C 174.349 -1.8195 -0.418464 0
M  V30 1749 C 174.7 -1.02508 -1.67292 0
M  V30 1750 O 173.825 -0.258496 -2.14851 0
M  V30 1751 C 174.42 -3.30028 -0.765979 0
M  V30 1752 C 172.979 -3.55469 -1.23769 0
M  V30 1753 C 172.126 -2.7625 -0.241106 0
M  V30 1754 H 175.077 -1.55149 0.33384 0
M  V30 1755 H 175.098 -3.44086 -1.62434 0
M  V30 1756 H 174.61 -3.87821 0.147219 0
M  V30 1757 H 172.711 -3.03022 -2.16814 0
M  V30 1758 H 172.824 -4.6408 -1.19022 0
M  V30 1759 H 171.188 -2.44133 -0.72602 0
M  V30 1760 H 171.971 -3.36797 0.665007 0
M  V30 1761 N 174.416 0.165178 -1.56732 0
M  V30 1762 C 175.349 1.23336 -1.91998 0
M  V30 1763 C 176.327 1.42476 -0.783531 0
M  V30 1764 O 177.511 1.57384 -1.03743 0
M  V30 1765 C 174.638 2.59533 -2.17625 0
M  V30 1766 C 173.684 2.57093 -3.40302 0
M  V30 1767 S 174.517 2.05571 -4.9447 0
M  V30 1768 C 175.673 3.43532 -5.23198 0
M  V30 1769 H 175.906 0.932387 -2.82301 0
M  V30 1770 H 173.439 0.370013 -1.49901 0
M  V30 1771 H 175.397 3.37918 -2.3307 0
M  V30 1772 H 174.058 2.86827 -1.28019 0
M  V30 1773 H 173.251 3.57308 -3.55453 0
M  V30 1774 H 172.853 1.86806 -3.24005 0
M  V30 1775 H 175.145 4.39559 -5.15552 0
M  V30 1776 H 176.088 3.33251 -6.2478 0
M  V30 1777 H 176.496 3.39828 -4.50752 0
M  V30 1778 N 175.894 1.51508 0.433938 0
M  V30 1779 C 176.804 1.75917 1.5521 0
M  V30 1780 C 177.82 0.643545 1.61662 0
M  V30 1781 O 178.996 0.926183 1.7884 0
M  V30 1782 C 176.061 1.88213 2.91164 0
M  V30 1783 C 175.122 3.12074 2.94802 0
M  V30 1784 C 174.355 3.23774 4.24271 0
M  V30 1785 O 174.578 2.4133 5.16833 0
M  V30 1786 O 173.512 4.16774 4.34262 0
M  V30 1787 H 177.338 2.70777 1.37527 0
M  V30 1788 H 174.923 1.36051 0.617293 0
M  V30 1789 H 176.805 1.98267 3.71845 0
M  V30 1790 H 175.48 0.965413 3.08968 0
M  V30 1791 H 174.387 3.07497 2.13065 0
M  V30 1792 H 175.72 4.03446 2.81943 0
M  V30 1793 N 177.372 -0.689602 1.41712 0
M  V30 1794 C 178.602 -1.47613 1.44548 0
M  V30 1795 C 179.01 -1.89132 0.0509034 0
M  V30 1796 O 178.353 -1.57741 -0.94146 0
M  V30 1797 C 178.415 -2.76596 2.2964 0
M  V30 1798 C 178.079 -2.57245 3.77722 0
M  V30 1799 C 179.076 -2.22804 4.69739 0
M  V30 1800 C 176.761 -2.727 4.2183 0
M  V30 1801 C 178.755 -2.04064 6.03851 0
M  V30 1802 C 176.442 -2.53576 5.56006 0
M  V30 1803 C 177.44 -2.1931 6.46832 0
M  V30 1804 O 177.128 -2.00359 7.78532 0
M  V30 1805 H 176.86 -0.461227 0.494212 0
M  V30 1806 H 179.414 -0.856045 1.86711 0
M  V30 1807 H 177.644 -3.41033 1.82301 0
M  V30 1808 H 179.333 -3.38424 2.24107 0
M  V30 1809 H 180.099 -2.10473 4.36951 0
M  V30 1810 H 175.978 -2.98353 3.51435 0
M  V30 1811 H 179.522 -1.77241 6.74708 0
M  V30 1812 H 175.419 -2.65499 5.88371 0
M  V30 1813 H 176.187 -2.15075 7.89737 0
M  V30 1814 N 178.85 -1.27639 -0.924453 0
M  V30 1815 C 179.797 -1.10644 -2.0255 0
M  V30 1816 C 180.767 -0.00658438 -1.66099 0
M  V30 1817 O 181.952 -0.16952 -1.90045 0
M  V30 1818 C 179.092 -0.76309 -3.36557 0
M  V30 1819 C 178.205 -1.94091 -3.85944 0
M  V30 1820 C 177.34 -1.53914 -5.08413 0
M  V30 1821 C 176.379 -2.68425 -5.50104 0
M  V30 1822 N 175.516 -2.28815 -6.63768 0
M  V30 1823 H 180.356 -2.04858 -2.16419 0
M  V30 1824 H 177.893 -1.01974 -1.06017 0
M  V30 1825 H 179.851 -0.544822 -4.13627 0
M  V30 1826 H 178.481 0.142102 -3.22487 0
M  V30 1827 H 177.533 -2.27162 -3.05125 0
M  V30 1828 H 178.845 -2.7998 -4.12811 0
M  V30 1829 H 177.999 -1.28231 -5.92994 0
M  V30 1830 H 176.738 -0.651391 -4.8333 0
M  V30 1831 H 175.743 -2.94819 -4.64071 0
M  V30 1832 H 176.968 -3.57826 -5.7718 0
M  V30 1833 H 174.914 -1.42495 -6.40337 0
M  V30 1834 H 174.831 -3.08242 -6.90306 0
M  V30 1835 H 176.099 -2.06387 -7.51681 0
M  V30 1836 N 180.328 1.1314 -1.09713 0
M  V30 1837 C 181.576 1.84119 -0.833338 0
M  V30 1838 C 181.897 1.84097 0.642904 0
M  V30 1839 O 181.167 1.29881 1.46655 0
M  V30 1840 H 179.747 0.681766 -0.305293 0
M  V30 1841 H 182.409 1.37038 -1.38588 0
M  V30 1842 H 181.505 2.88543 -1.18951 0
M  V30 1843 N 181.806 0.884767 1.30421 0
M  V30 1844 C 182.716 0.355398 2.31892 0
M  V30 1845 C 183.732 -0.542261 1.65335 0
M  V30 1846 O 184.908 -0.435432 1.96637 0
M  V30 1847 C 181.973 -0.421661 3.44126 0
M  V30 1848 C 181.034 0.505727 4.26311 0
M  V30 1849 C 180.267 -0.234343 5.33185 0
M  V30 1850 O 180.49 -1.46045 5.51386 0
M  V30 1851 O 179.424 0.415443 6.00465 0
M  V30 1852 H 183.25 1.19685 2.79122 0
M  V30 1853 H 180.835 0.648596 1.34587 0
M  V30 1854 H 182.717 -0.861641 4.12497 0
M  V30 1855 H 181.392 -1.23942 2.99032 0
M  V30 1856 H 180.299 0.994513 3.60639 0
M  V30 1857 H 181.632 1.28948 4.75009 0
M  V30 1858 N 183.284 -1.43765 0.645699 0
M  V30 1859 C 184.214 -2.33471 -0.0370477 0
M  V30 1860 C 185.195 -1.49042 -0.819779 0
M  V30 1861 O 186.38 -1.77726 -0.782758 0
M  V30 1862 C 183.51 -3.32311 -1.0093 0
M  V30 1863 C 182.464 -4.2667 -0.337201 0
M  V30 1864 C 181.79 -5.1549 -1.42037 0
M  V30 1865 C 183.09 -5.16657 0.765706 0
M  V30 1866 H 184.784 -2.90809 0.712069 0
M  V30 1867 H 182.33 -1.39834 0.343876 0
M  V30 1868 H 184.283 -3.9396 -1.49578 0
M  V30 1869 H 183.007 -2.73213 -1.78948 0
M  V30 1870 H 181.666 -3.66374 0.128771 0
M  V30 1871 H 181.314 -4.52735 -2.1918 0
M  V30 1872 H 181.014 -5.79438 -0.975966 0
M  V30 1873 H 182.538 -5.80012 -1.90838 0
M  V30 1874 H 183.952 -5.72158 0.361702 0
M  V30 1875 H 182.349 -5.89286 1.13413 0
M  V30 1876 H 183.419 -4.56796 1.62683 0
M  V30 1877 N 184.763 -0.387143 -1.52771 0
M  V30 1878 C 185.726 0.436939 -2.24997 0
M  V30 1879 C 186.726 0.991991 -1.26555 0
M  V30 1880 O 187.916 0.874335 -1.50669 0
M  V30 1881 C 185.048 1.61281 -3.00335 0
M  V30 1882 H 186.241 -0.195365 -2.99263 0
M  V30 1883 H 183.794 -0.139218 -1.55679 0
M  V30 1884 H 184.529 2.2826 -2.30364 0
M  V30 1885 H 184.314 1.22154 -3.72587 0
M  V30 1886 H 185.804 2.19629 -3.5518 0
M  V30 1887 N 186.241 1.57166 -0.116904 0
M  V30 1888 C 187.466 1.999 0.55271 0
M  V30 1889 C 187.891 0.996039 1.59564 0
M  V30 1890 O 187.249 -0.032556 1.81271 0
M  V30 1891 C 187.297 3.4152 1.15742 0
M  V30 1892 O 186.401 3.44106 2.27299 0
M  V30 1893 H 185.742 0.649447 0.138258 0
M  V30 1894 H 188.272 2.03573 -0.204759 0
M  V30 1895 H 188.282 3.79684 1.49346 0
M  V30 1896 H 186.957 4.14034 0.393493 0
M  V30 1897 H 185.534 3.17759 1.9515 0
M  V30 1898 N 187.719 -0.156864 1.56817 0
M  V30 1899 C 188.949 -0.885031 1.86684 0
M  V30 1900 C 189.357 -1.75696 0.701954 0
M  V30 1901 O 188.7 -1.80569 -0.337732 0
M  V30 1902 C 188.762 -1.80092 3.11138 0
M  V30 1903 C 188.426 -1.10714 4.43386 0
M  V30 1904 C 189.423 -0.465714 5.1781 0
M  V30 1905 C 187.108 -1.09959 4.90117 0
M  V30 1906 C 189.102 0.174002 6.37162 0
M  V30 1907 C 186.789 -0.456055 6.09396 0
M  V30 1908 C 187.787 0.179622 6.82764 0
M  V30 1909 O 187.475 0.812975 7.99779 0
M  V30 1910 H 187.207 -0.261813 0.623242 0
M  V30 1911 H 189.761 -0.157383 2.04796 0
M  V30 1912 H 187.991 -2.56926 2.89009 0
M  V30 1913 H 189.68 -2.40018 3.27332 0
M  V30 1914 H 190.446 -0.463427 4.82781 0
M  V30 1915 H 186.325 -1.58378 4.3294 0
M  V30 1916 H 189.869 0.670765 6.94368 0
M  V30 1917 H 185.766 -0.455975 6.43888 0
M  V30 1918 H 186.534 0.71366 8.15383 0
M  V30 1919 N 189.197 -1.51736 -0.425897 0
M  V30 1920 C 190.474 -1.55519 -1.1863 0
M  V30 1921 C 190.854 -0.326219 -2.08564 0
M  V30 1922 O 190.202 0.688012 -2.17896 0
M  V30 1923 C 190.412 -2.87521 -1.9782 0
M  V30 1924 C 191.76 -3.39899 -2.54468 0
M  V30 1925 O 192.784 -2.89148 -2.08019 0
M  V30 1926 O 191.643 -4.2848 -3.39215 0
M  V30 1927 H 188.737 -0.625739 -0.540721 0
M  V30 1928 H 191.283 -1.64055 -0.434038 0
M  V30 1929 H 190.055 -3.68422 -1.31836 0
M  V30 1930 H 189.678 -2.822 -2.80088 0
M  V30 1931 N 190.675 0.682077 -1.42076 0
M  V30 1932 C 191.608 1.80666 -1.3941 0
M  V30 1933 C 192.586 1.60518 -0.25939 0
M  V30 1934 O 193.77 1.83088 -0.448456 0
M  V30 1935 C 190.897 3.17556 -1.17796 0
M  V30 1936 C 189.943 3.56468 -2.34164 0
M  V30 1937 S 190.776 3.59729 -3.96681 0
M  V30 1938 C 191.932 4.99323 -3.77395 0
M  V30 1939 H 192.165 1.82652 -2.34575 0
M  V30 1940 H 189.698 0.852062 -1.2876 0
M  V30 1941 H 191.656 3.96575 -1.06012 0
M  V30 1942 H 190.317 3.13164 -0.242279 0
M  V30 1943 H 189.51 4.5595 -2.1477 0
M  V30 1944 H 189.112 2.84792 -2.42425 0
M  V30 1945 H 191.404 5.87202 -3.37935 0
M  V30 1946 H 192.347 5.23763 -4.76527 0
M  V30 1947 H 192.755 4.71498 -3.10403 0
M  V30 1948 N 192.153 1.28127 0.917671 0
M  V30 1949 C 193.569 1.05749 1.19538 0
M  V30 1950 C 193.769 -0.202633 2.00479 0
M  V30 1951 O 192.825 -0.905382 2.3571 0
M  V30 1952 C 194.138 2.30273 1.93378 0
M  V30 1953 C 195.686 2.35412 2.06277 0
M  V30 1954 C 196.161 3.59692 2.83524 0
M  V30 1955 N 197.652 3.60309 2.91087 0
M  V30 1956 C 198.387 4.53147 3.51348 0
M  V30 1957 N 197.883 5.563 4.12919 0
M  V30 1958 N 199.676 4.40751 3.48849 0
M  V30 1959 H 191.827 2.09024 0.377184 0
M  V30 1960 H 194.09 0.919798 0.22951 0
M  V30 1961 H 193.796 3.22055 1.41328 0
M  V30 1962 H 193.67 2.36378 2.93947 0
M  V30 1963 H 196.057 1.4413 2.57508 0
M  V30 1964 H 196.138 2.33304 1.04895 0
M  V30 1965 H 195.782 4.51316 2.32973 0
M  V30 1966 H 195.712 3.59054 3.85211 0
M  V30 1967 H 198.203 2.85714 2.47338 0
M  V30 1968 H 198.516 6.2329 4.56869 0
M  V30 1969 H 196.861 5.60131 4.11435 0
M  V30 1970 H 200.052 3.59367 2.99955 0
M  V30 1971 H 200.225 5.13291 3.9552 0
M  V30 1972 N 193.631 -1.12557 1.10312 0
M  V30 1973 C 194.561 -2.20341 0.772798 0
M  V30 1974 C 195.542 -1.68198 -0.25365 0
M  V30 1975 O 196.727 -1.93831 -0.119699 0
M  V30 1976 C 193.857 -3.46709 0.202443 0
M  V30 1977 C 192.811 -4.11996 1.15943 0
M  V30 1978 C 192.137 -5.328 0.450345 0
M  V30 1979 C 193.437 -4.5828 2.50552 0
M  V30 1980 H 195.131 -2.48229 1.674 0
M  V30 1981 H 192.677 -1.19308 0.806326 0
M  V30 1982 H 194.63 -4.2138 -0.0407752 0
M  V30 1983 H 193.354 -3.18245 -0.734001 0
M  V30 1984 H 192.013 -3.39305 1.38808 0
M  V30 1985 H 191.661 -5.00602 -0.490531 0
M  V30 1986 H 191.361 -5.7743 1.08851 0
M  V30 1987 H 192.885 -6.10219 0.215642 0
M  V30 1988 H 194.299 -5.2433 2.31843 0
M  V30 1989 H 192.696 -5.13683 3.10242 0
M  V30 1990 H 193.766 -3.72329 3.10643 0
M  V30 1991 N 195.109 -0.891671 -1.2995 0
M  V30 1992 C 196.525 -0.58662 -1.48428 0
M  V30 1993 C 196.725 0.873951 -1.81561 0
M  V30 1994 O 195.781 1.65471 -1.90724 0
M  V30 1995 C 197.094 -1.50553 -2.60296 0
M  V30 1996 C 198.642 -1.50988 -2.74175 0
M  V30 1997 C 199.117 -2.41488 -3.89163 0
M  V30 1998 N 200.608 -2.39489 -3.96483 0
M  V30 1999 C 201.343 -3.06223 -4.84784 0
M  V30 2000 N 200.839 -3.82206 -5.77833 0
M  V30 2001 N 202.632 -2.95421 -4.78208 0
M  V30 2002 H 194.783 -1.83644 -1.06718 0
M  V30 2003 H 197.046 -0.786455 -0.529332 0
M  V30 2004 H 196.752 -2.54581 -2.42654 0
M  V30 2005 H 196.626 -1.22008 -3.56923 0
M  V30 2006 H 199.013 -0.47708 -2.91218 0
M  V30 2007 H 199.094 -1.83567 -1.78148 0
M  V30 2008 H 198.738 -3.44857 -3.72876 0
M  V30 2009 H 198.668 -2.06222 -4.84541 0
M  V30 2010 H 201.159 -1.84278 -3.29924 0
M  V30 2011 H 201.472 -4.302 -6.41988 0
M  V30 2012 H 199.817 -3.86313 -5.77743 0
M  V30 2013 H 203.008 -2.35581 -4.04499 0
M  V30 2014 H 203.181 -3.47704 -5.46814 0
M  V30 2015 N 196.587 1.43421 -0.653314 0
M  V30 2016 C 198.003 1.56341 -0.320886 0
M  V30 2017 C 198.203 1.63696 1.17499 0
M  V30 2018 O 197.259 1.59208 1.95982 0
M  V30 2019 C 198.572 2.82424 -1.03233 0
M  V30 2020 C 200.12 2.96168 -1.01259 0
M  V30 2021 C 200.595 4.25084 -1.70492 0
M  V30 2022 N 202.086 4.31948 -1.67257 0
M  V30 2023 C 202.821 5.30466 -2.17701 0
M  V30 2024 N 202.317 6.35261 -2.76434 0
M  V30 2025 N 204.11 5.2212 -2.082 0
M  V30 2026 H 196.261 1.3689 -1.62403 0
M  V30 2027 H 198.524 0.657455 -0.682977 0
M  V30 2028 H 198.23 2.83053 -2.08744 0
M  V30 2029 H 198.104 3.72653 -0.583948 0
M  V30 2030 H 200.491 2.9508 0.0341235 0
M  V30 2031 H 200.572 2.07229 -1.49966 0
M  V30 2032 H 200.216 4.26932 -2.7512 0
M  V30 2033 H 200.146 5.1292 -1.19251 0
M  V30 2034 H 202.637 3.56838 -1.24398 0
M  V30 2035 H 202.95 7.06754 -3.12601 0
M  V30 2036 H 201.295 6.35884 -2.80495 0
M  V30 2037 H 204.486 4.39166 -1.62021 0
M  V30 2038 H 204.659 5.98739 -2.47822 0
M  V30 2039 N 198.065 0.39524 1.52563 0
M  V30 2040 C 199.012 -0.437036 2.26624 0
M  V30 2041 C 199.982 -1.05281 1.28472 0
M  V30 2042 O 201.167 -1.07971 1.57311 0
M  V30 2043 C 198.307 -1.55524 3.08069 0
M  V30 2044 C 197.42 -0.961745 4.21158 0
M  V30 2045 C 196.555 -2.05149 4.89987 0
M  V30 2046 C 195.594 -1.4342 5.95061 0
M  V30 2047 N 194.731 -2.46351 6.57462 0
M  V30 2048 H 199.571 0.200976 2.97322 0
M  V30 2049 H 197.108 0.110944 1.46681 0
M  V30 2050 H 199.066 -2.21437 3.53584 0
M  V30 2051 H 197.696 -2.16348 2.3957 0
M  V30 2052 H 196.748 -0.192048 3.79915 0
M  V30 2053 H 198.06 -0.470701 4.96574 0
M  V30 2054 H 197.214 -2.78819 5.38837 0
M  V30 2055 H 195.953 -2.57615 4.14109 0
M  V30 2056 H 194.958 -0.682774 5.45544 0
M  V30 2057 H 196.183 -0.917416 6.72875 0
M  V30 2058 H 194.129 -2.97975 5.8442 0
M  V30 2059 H 194.046 -2.02019 7.28508 0
M  V30 2060 H 195.314 -3.19633 7.10954 0
M  V30 2061 N 199.544 -1.57102 0.125237 0
M  V30 2062 C 200.474 -2.18659 -0.819174 0
M  V30 2063 C 201.455 -1.12843 -1.27281 0
M  V30 2064 O 202.64 -1.41104 -1.33429 0
M  V30 2065 C 199.77 -2.79096 -2.06695 0
M  V30 2066 C 198.724 -3.90548 -1.75088 0
M  V30 2067 C 198.05 -4.37821 -3.06948 0
M  V30 2068 C 199.35 -5.12356 -1.01435 0
M  V30 2069 H 201.044 -2.9783 -0.306202 0
M  V30 2070 H 198.59 -1.4326 -0.145839 0
M  V30 2071 H 200.543 -3.2082 -2.73226 0
M  V30 2072 H 199.267 -1.97223 -2.60328 0
M  V30 2073 H 197.926 -3.49409 -1.10944 0
M  V30 2074 H 197.574 -3.52799 -3.58527 0
M  V30 2075 H 197.274 -5.12982 -2.86571 0
M  V30 2076 H 198.798 -4.822 -3.74587 0
M  V30 2077 H 200.212 -5.5106 -1.58132 0
M  V30 2078 H 198.609 -5.9314 -0.911319 0
M  V30 2079 H 199.679 -4.849 -0.00218681 0
M  V30 2080 N 201.022 0.148545 -1.56898 0
M  V30 2081 C 202.299 0.890019 -1.74178 0
M  V30 2082 C 202.679 1.99407 -0.692839 0
M  V30 2083 O 202.027 2.26671 0.288505 0
M  V30 2084 C 202.237 1.43389 -3.18183 0
M  V30 2085 C 203.585 1.89791 -3.79822 0
M  V30 2086 O 204.609 1.53134 -3.21603 0
M  V30 2087 O 203.468 2.57387 -4.82093 0
M  V30 2088 H 200.562 0.420496 -0.712118 0
M  V30 2089 H 203.108 0.134591 -1.69165 0
M  V30 2090 H 201.88 0.640383 -3.86024 0
M  V30 2091 H 201.503 2.25287 -3.27615 0
M  V30 2092 N 202.5 1.5196 0.417844 0
M  V30 2093 C 203.43 1.77634 1.51554 0
M  V30 2094 C 204.411 0.626918 1.58126 0
M  V30 2095 O 205.596 0.871632 1.7354 0
M  V30 2096 C 202.726 1.91911 2.8946 0
M  V30 2097 C 201.68 3.07463 2.97743 0
M  V30 2098 C 201.006 3.06951 4.37819 0
M  V30 2099 C 202.306 4.47082 2.70027 0
M  V30 2100 H 204 2.6955 1.3032 0
M  V30 2101 H 201.546 1.29706 0.625492 0
M  V30 2102 H 203.499 2.08455 3.6623 0
M  V30 2103 H 202.223 0.966598 3.11969 0
M  V30 2104 H 200.882 2.90656 2.23416 0
M  V30 2105 H 200.53 2.09438 4.57323 0
M  V30 2106 H 200.23 3.84556 4.44286 0
M  V30 2107 H 201.754 3.25613 5.16535 0
M  V30 2108 H 203.168 4.6414 3.36522 0
M  V30 2109 H 201.565 5.2654 2.87881 0
M  V30 2110 H 202.635 4.55777 1.65514 0
M  V30 2111 N 203.978 -0.674533 1.42435 0
M  V30 2112 C 205.225 -1.43459 1.42919 0
M  V30 2113 C 205.553 -1.94446 0.0457312 0
M  V30 2114 O 204.808 -1.7132 -0.94593 0
M  V30 2115 C 205.107 -2.64767 2.40069 0
M  V30 2116 C 204.773 -2.3232 3.86443 0
M  V30 2117 C 203.435 -2.23182 4.26314 0
M  V30 2118 C 205.787 -2.05977 4.78773 0
M  V30 2119 C 203.115 -1.85827 5.56494 0
M  V30 2120 C 205.467 -1.70125 6.09295 0
M  V30 2121 C 204.131 -1.59498 6.48164 0
M  V30 2122 H 203.401 -0.524952 0.522978 0
M  V30 2123 H 206.048 -0.769097 1.75377 0
M  V30 2124 H 204.353 -3.36349 2.00939 0
M  V30 2125 H 206.05 -3.22949 2.37707 0
M  V30 2126 H 202.64 -2.40334 3.54877 0
M  V30 2127 H 206.824 -2.11969 4.48757 0
M  V30 2128 H 202.08 -1.76168 5.8547 0
M  V30 2129 H 206.254 -1.48767 6.80324 0
M  V30 2130 H 203.881 -1.30322 7.48946 0
M  V30 2131 N 205.456 -1.28612 -0.910864 0
M  V30 2132 C 206.419 -1.12803 -1.9952 0
M  V30 2133 C 207.419 -0.0668264 -1.60661 0
M  V30 2134 O 208.609 -0.312847 -1.71368 0
M  V30 2135 C 205.741 -0.72254 -3.33155 0
M  V30 2136 H 206.934 -2.09109 -2.14973 0
M  V30 2137 H 204.487 -1.11639 -1.09391 0
M  V30 2138 H 205.222 0.241152 -3.23402 0
M  V30 2139 H 205.007 -1.48916 -3.62721 0
M  V30 2140 H 206.497 -0.634666 -4.12749 0
M  V30 2141 N 206.934 1.1197 -1.10907 0
M  V30 2142 C 207.882 2.19927 -0.757303 0
M  V30 2143 C 208.876 1.67564 0.248747 0
M  V30 2144 O 210.082 1.79672 0.108605 0
M  V30 2145 H 206.457 0.716925 -0.226987 0
M  V30 2146 H 208.428 2.46847 -1.67658 0
M  V30 2147 C 207.177 3.47061 -0.210671 0
M  V30 2148 H 206.5 3.87703 -0.976049 0
M  V30 2149 H 207.94 4.24 -0.0026584 0
M  V30 2150 C 206.399 3.19864 1.05777 0
M  V30 2151 O 206.929 3.40049 2.13845 0
M  V30 2152 N 205.135 2.73636 0.978349 0
M  V30 2153 H 204.682 2.5741 0.0988246 0
M  V30 2154 H 204.64 2.55815 1.82773 0
M  V30 2155 N 208.412 0.89855 1.29475 0
M  V30 2156 C 209.658 0.524658 1.95896 0
M  V30 2157 C 209.991 -0.926468 1.70676 0
M  V30 2158 O 209.266 -1.65665 1.01908 0
M  V30 2159 C 209.549 0.81633 3.50725 0
M  V30 2160 C 209.402 2.31907 3.85408 0
M  V30 2161 C 210.721 0.302038 4.39062 0
M  V30 2162 H 207.84 0.19209 0.711527 0
M  V30 2163 H 210.482 1.12502 1.53112 0
M  V30 2164 H 208.632 0.305369 3.87298 0
M  V30 2165 H 210.304 2.89949 3.58786 0
M  V30 2166 H 208.547 2.78027 3.32992 0
M  V30 2167 H 209.218 2.47373 4.93468 0
M  V30 2168 H 211.694 0.739551 4.09475 0
M  V30 2169 H 210.57 0.535331 5.46283 0
M  V30 2170 H 210.831 -0.797216 4.34853 0
M  V30 2171 N 209.89 -1.43072 0.660911 0
M  V30 2172 C 211.136 -2.0202 0.177708 0
M  V30 2173 C 211.469 -1.52066 -1.20787 0
M  V30 2174 O 210.744 -0.716987 -1.80802 0
M  V30 2175 C 211.027 -3.59561 0.197019 0
M  V30 2176 C 210.88 -4.19727 1.61706 0
M  V30 2177 C 212.199 -4.37664 -0.462396 0
M  V30 2178 H 209.318 -0.734034 0.0660494 0
M  V30 2179 H 211.96 -1.70272 0.843058 0
M  V30 2180 H 210.11 -3.86739 -0.369527 0
M  V30 2181 H 211.782 -4.03553 2.23479 0
M  V30 2182 H 210.025 -3.76084 2.16201 0
M  V30 2183 H 210.696 -5.28834 1.58237 0
M  V30 2184 H 213.172 -4.16095 0.0197215 0
M  V30 2185 H 212.048 -5.47305 -0.418188 0
M  V30 2186 H 212.309 -4.14493 -1.53778 0
M  V30 2187 N 211.368 -0.403325 -1.52352 0
M  V30 2188 C 212.318 0.442244 -2.2367 0
M  V30 2189 C 213.302 1.01823 -1.24583 0
M  V30 2190 O 214.494 0.942005 -1.49851 0
M  V30 2191 C 211.623 1.5615 -3.05732 0
M  V30 2192 C 210.709 0.996575 -4.12225 0
M  V30 2193 N 211.1 0.157804 -5.05554 0
M  V30 2194 C 209.398 1.26767 -4.27605 0
M  V30 2195 C 210.099 -0.155853 -5.81491 0
M  V30 2196 N 209.075 0.451775 -5.41719 0
M  V30 2197 H 212.877 -0.204964 -2.93184 0
M  V30 2198 H 210.391 -0.213418 -1.60992 0
M  V30 2199 H 212.388 2.17981 -3.55373 0
M  V30 2200 H 211.048 2.21139 -2.37755 0
M  V30 2201 H 212.059 -0.206049 -5.1749 0
M  V30 2202 H 208.736 1.91757 -3.70858 0
M  V30 2203 H 210.126 -0.836329 -6.66675 0
M  V30 2204 N 212.846 1.57033 -0.133567 0
M  V30 2205 C 214.092 1.95976 0.521649 0
M  V30 2206 C 214.425 1.01779 1.65393 0
M  V30 2207 O 213.7 0.0576581 1.94415 0
M  V30 2208 C 213.983 3.44738 1.04057 0
M  V30 2209 C 213.836 4.49711 -0.0892897 0
M  V30 2210 C 215.155 3.95682 1.92675 0
M  V30 2211 H 212.274 0.712579 0.188149 0
M  V30 2212 H 214.916 1.88813 -0.212076 0
M  V30 2213 H 213.066 3.50973 1.66583 0
M  V30 2214 H 214.738 4.55565 -0.725152 0
M  V30 2215 H 212.981 4.27261 -0.750378 0
M  V30 2216 H 213.652 5.51099 0.315284 0
M  V30 2217 H 216.128 3.91841 1.39998 0
M  V30 2218 H 215.004 5.00262 2.25897 0
M  V30 2219 H 215.265 3.37239 2.85872 0
M  V30 2220 N 214.325 -0.140222 1.56975 0
M  V30 2221 C 215.272 -1.17292 1.98774 0
M  V30 2222 C 216.242 -1.4232 0.856408 0
M  V30 2223 O 217.427 -1.54541 1.119 0
M  V30 2224 C 214.567 -2.49973 2.37923 0
M  V30 2225 C 213.68 -2.32062 3.64378 0
M  V30 2226 C 212.815 -3.57825 3.926 0
M  V30 2227 C 211.854 -3.3498 5.12303 0
M  V30 2228 N 210.991 -4.52891 5.36502 0
M  V30 2229 H 215.831 -0.809472 2.86795 0
M  V30 2230 H 213.368 -0.388237 1.41884 0
M  V30 2231 H 215.326 -3.27346 2.58652 0
M  V30 2232 H 213.956 -2.84252 1.52972 0
M  V30 2233 H 213.008 -1.45711 3.51387 0
M  V30 2234 H 214.32 -2.11145 4.51906 0
M  V30 2235 H 213.474 -4.43624 4.13863 0
M  V30 2236 H 212.213 -3.81753 3.03506 0
M  V30 2237 H 211.218 -2.4757 4.90906 0
M  V30 2238 H 212.443 -3.12444 6.02956 0
M  V30 2239 H 210.389 -4.76979 4.50363 0
M  V30 2240 H 210.306 -4.35001 6.18312 0
M  V30 2241 H 211.574 -5.39884 5.62268 0
M  V30 2242 N 215.803 -1.52179 -0.40978 0
M  V30 2243 C 217.028 -1.70347 -1.18308 0
M  V30 2244 C 217.453 -0.411887 -1.83535 0
M  V30 2245 O 216.811 0.630587 -1.6998 0
M  V30 2246 C 216.859 -2.83977 -2.22238 0
M  V30 2247 O 215.963 -2.495 -3.28365 0
M  V30 2248 H 215.304 -0.567103 -0.345384 0
M  V30 2249 H 217.834 -1.98879 -0.480445 0
M  V30 2250 H 217.844 -3.0887 -2.66577 0
M  V30 2251 H 216.519 -3.77685 -1.74146 0
M  V30 2252 H 215.096 -2.35277 -2.89308 0
M  V30 2253 N 217.281 0.66697 -1.42791 0
M  V30 2254 C 218.211 1.79218 -1.49677 0
M  V30 2255 C 219.192 1.66405 -0.352623 0
M  V30 2256 O 220.377 1.85708 -0.567993 0
M  V30 2257 C 217.507 3.17565 -1.40605 0
M  V30 2258 C 216.461 3.45124 -2.53127 0
M  V30 2259 C 215.787 4.83127 -2.29112 0
M  V30 2260 C 217.087 3.41236 -3.95418 0
M  V30 2261 H 218.781 1.73713 -2.43853 0
M  V30 2262 H 216.327 0.83432 -1.17367 0
M  V30 2263 H 218.28 3.96022 -1.44029 0
M  V30 2264 H 217.004 3.23767 -0.429271 0
M  V30 2265 H 215.663 2.69031 -2.49034 0
M  V30 2266 H 215.311 4.85988 -1.29709 0
M  V30 2267 H 215.011 5.02528 -3.04531 0
M  V30 2268 H 216.535 5.63859 -2.34297 0
M  V30 2269 H 217.949 4.09651 -4.01073 0
M  V30 2270 H 216.346 3.72173 -4.70752 0
M  V30 2271 H 217.416 2.39665 -4.21532 0
M  V30 2272 N 218.759 1.29093 0.90403 0
M  V30 2273 C 220.17 1.15186 1.46932 0
M  V30 2274 C 220.521 -0.254587 1.94541 0
M  V30 2275 O 219.646 -1.14972 1.83332 0
M  V30 2276 C 220.241 2.08492 2.67051 0
M  V30 2277 C 218.8 1.98621 3.19729 0
M  V30 2278 C 217.947 1.9967 1.92425 0
M  V30 2279 H 220.898 1.41641 0.715789 0
M  V30 2280 H 220.919 1.65461 3.42641 0
M  V30 2281 H 220.431 3.10847 2.3237 0
M  V30 2282 H 218.532 0.993389 3.59114 0
M  V30 2283 H 218.645 2.86068 3.8432 0
M  V30 2284 H 217.009 1.44208 2.09943 0
M  V30 2285 H 217.792 3.03721 1.60026 0
M  V30 2286 N 220.237 -1.11381 1.11499 0
M  V30 2287 C 221.485 -1.8277 0.862524 0
M  V30 2288 C 221.806 -1.85097 -0.613534 0
M  V30 2289 O 221.076 -1.32198 -1.4457 0
M  V30 2290 H 219.656 -0.676823 0.316101 0
M  V30 2291 H 222.318 -1.34816 1.4075 0
M  V30 2292 H 221.414 -2.86614 1.23527 0
M  V30 2293 N 221.715 -0.905404 -1.28997 0
M  V30 2294 C 222.945 -0.549049 -1.99171 0
M  V30 2295 C 223.353 0.87203 -1.67906 0
M  V30 2296 O 222.696 1.58796 -0.923561 0
M  V30 2297 C 222.758 -0.668306 -3.53234 0
M  V30 2298 C 222.422 -2.0574 -4.08069 0
M  V30 2299 C 223.419 -3.0292 -4.22534 0
M  V30 2300 C 221.104 -2.36833 -4.42962 0
M  V30 2301 C 223.098 -4.29314 -4.71135 0
M  V30 2302 C 220.785 -3.63467 -4.91258 0
M  V30 2303 C 221.783 -4.59522 -5.053 0
M  V30 2304 O 221.471 -5.83907 -5.52546 0
M  V30 2305 H 221.203 -0.208784 -0.64295 0
M  V30 2306 H 223.757 -1.21836 -1.65363 0
M  V30 2307 H 221.987 0.0580547 -3.86656 0
M  V30 2308 H 223.676 -0.320273 -4.04634 0
M  V30 2309 H 224.442 -2.80216 -3.95859 0
M  V30 2310 H 220.321 -1.62824 -4.31288 0
M  V30 2311 H 223.865 -5.04293 -4.8201 0
M  V30 2312 H 219.762 -3.86 -5.17372 0
M  V30 2313 H 220.53 -5.86578 -5.70849 0
M  V30 2314 N 223.193 1.4272 -0.668489 0
M  V30 2315 C 224.126 2.28111 0.0637898 0
M  V30 2316 C 225.104 1.40705 0.814912 0
M  V30 2317 O 226.288 1.70146 0.81134 0
M  V30 2318 C 223.415 3.20429 1.0974 0
M  V30 2319 C 222.461 4.24197 0.442579 0
M  V30 2320 S 223.294 5.29563 -0.795173 0
M  V30 2321 C 224.45 6.25449 0.237516 0
M  V30 2322 H 224.683 2.8987 -0.660521 0
M  V30 2323 H 222.216 1.47456 -0.457821 0
M  V30 2324 H 224.174 3.74158 1.68868 0
M  V30 2325 H 222.835 2.57818 1.79411 0
M  V30 2326 H 222.028 4.88954 1.22227 0
M  V30 2327 H 221.63 3.73925 -0.0749554 0
M  V30 2328 H 223.922 6.68524 1.09915 0
M  V30 2329 H 224.865 7.07104 -0.375421 0
M  V30 2330 H 225.273 5.61511 0.580167 0
M  V30 2331 N 224.671 0.411399 1.52136 0
M  V30 2332 C 225.899 -0.163076 2.06256 0
M  V30 2333 C 226.314 -1.3867 1.28125 0
M  V30 2334 O 225.671 -1.79423 0.333721 0
M  V30 2335 C 225.722 -0.511252 3.57867 0
M  V30 2336 O 225.443 0.66378 4.33042 0
M  V30 2337 C 226.944 -1.13921 4.28412 0
M  V30 2338 H 224.164 -0.0193897 0.67072 0
M  V30 2339 H 226.708 0.583007 1.96013 0
M  V30 2340 H 224.863 -1.20723 3.6811 0
M  V30 2341 H 225.277 0.372601 5.23175 0
M  V30 2342 H 226.751 -1.33302 5.35663 0
M  V30 2343 H 227.228 -2.11296 3.85033 0
M  V30 2344 H 227.834 -0.483373 4.22544 0
M  V30 2345 N 226.149 -1.5696 0.141893 0
M  V30 2346 C 227.565 -1.58151 -0.21456 0
M  V30 2347 C 227.765 -1.1559 -1.65049 0
M  V30 2348 O 226.821 -0.853832 -2.37626 0
M  V30 2349 C 228.134 -3.00674 0.0395576 0
M  V30 2350 C 229.682 -3.1299 -0.0245529 0
M  V30 2351 C 230.157 -4.57554 0.202167 0
M  V30 2352 N 231.648 -4.62961 0.148919 0
M  V30 2353 C 232.383 -5.7262 0.298924 0
M  V30 2354 N 231.879 -6.90947 0.50637 0
M  V30 2355 N 233.672 -5.61601 0.236886 0
M  V30 2356 H 225.823 -1.8292 1.07953 0
M  V30 2357 H 228.086 -0.846425 0.42693 0
M  V30 2358 H 227.792 -3.36183 1.03315 0
M  V30 2359 H 227.666 -3.70981 -0.682143 0
M  V30 2360 H 230.053 -2.77326 -1.00869 0
M  V30 2361 H 230.134 -2.4518 0.729396 0
M  V30 2362 H 229.778 -4.93922 1.18338 0
M  V30 2363 H 229.708 -5.23484 -0.572044 0
M  V30 2364 H 232.199 -3.77899 -0.00697015 0
M  V30 2365 H 232.512 -7.7038 0.611076 0
M  V30 2366 H 230.857 -6.92878 0.542628 0
M  V30 2367 H 234.048 -4.68039 0.0756209 0
M  V30 2368 H 234.221 -6.47015 0.357227 0
M  V30 2369 N 227.627 0.131896 -1.57047 0
M  V30 2370 C 228.577 1.1679 -1.95816 0
M  V30 2371 C 229.561 1.37756 -0.831393 0
M  V30 2372 O 230.753 1.39065 -1.09499 0
M  V30 2373 C 227.882 2.49778 -2.35512 0
M  V30 2374 C 226.968 2.32342 -3.54793 0
M  V30 2375 N 227.359 1.8469 -4.70875 0
M  V30 2376 C 225.657 2.63043 -3.60173 0
M  V30 2377 C 226.358 1.80656 -5.52936 0
M  V30 2378 N 225.334 2.24528 -4.95064 0
M  V30 2379 H 229.136 0.791818 -2.83033 0
M  V30 2380 H 226.65 0.339791 -1.58805 0
M  V30 2381 H 228.647 3.24692 -2.61498 0
M  V30 2382 H 227.307 2.88156 -1.49654 0
M  V30 2383 H 228.318 1.54429 -4.9434 0
M  V30 2384 H 224.995 3.05193 -2.84892 0
M  V30 2385 H 226.385 1.45178 -6.56028 0
M  V30 2386 N 229.106 1.52395 0.401703 0
M  V30 2387 C 230.054 1.7689 1.51039 0
M  V30 2388 C 231.048 0.636298 1.56996 0
M  V30 2389 O 232.254 0.818507 1.60314 0
M  V30 2390 H 228.629 0.559502 0.502456 0
M  V30 2391 H 230.6 2.69757 1.27568 0
M  V30 2392 C 229.349 1.94331 2.88324 0
M  V30 2393 H 228.672 2.80905 2.84486 0
M  V30 2394 H 230.112 2.15466 3.65172 0
M  V30 2395 C 228.571 0.712396 3.29282 0
M  V30 2396 O 229.101 -0.116218 4.01532 0
M  V30 2397 N 227.307 0.546154 2.85422 0
M  V30 2398 H 226.854 1.22156 2.26794 0
M  V30 2399 H 226.812 -0.276113 3.13185 0
M  V30 2400 N 230.584 -0.659388 1.43143 0
M  V30 2401 C 231.532 -1.79374 1.4808 0
M  V30 2402 C 232.526 -1.65639 0.354988 0
M  V30 2403 O 233.732 -1.7206 0.528704 0
M  V30 2404 H 230.107 -0.591705 0.4641 0
M  V30 2405 H 232.078 -1.72329 2.43609 0
M  V30 2406 C 230.827 -3.17606 1.41499 0
M  V30 2407 H 230.15 -3.28809 2.27431 0
M  V30 2408 H 231.59 -3.96951 1.49015 0
M  V30 2409 C 230.049 -3.36642 0.131765 0
M  V30 2410 O 230.579 -3.93461 -0.809386 0
M  V30 2411 N 228.785 -2.90567 0.0439396 0
M  V30 2412 H 228.332 -2.44513 0.810619 0
M  V30 2413 H 228.29 -3.03681 -0.813969 0
M  V30 2414 N 232.062 -1.29571 -0.897171 0
M  V30 2415 C 232.992 -1.17473 -2.01798 0
M  V30 2416 C 233.973 -0.068323 -1.69963 0
M  V30 2417 O 235.158 -0.248239 -1.92607 0
M  V30 2418 C 232.288 -0.853099 -3.36659 0
M  V30 2419 C 231.242 -1.9161 -3.82713 0
M  V30 2420 C 230.568 -1.44773 -5.14728 0
M  V30 2421 C 231.868 -3.32535 -4.02763 0
M  V30 2422 H 233.562 -2.11237 -2.12177 0
M  V30 2423 H 231.108 -1.01699 -1.01948 0
M  V30 2424 H 233.061 -0.755165 -4.14578 0
M  V30 2425 H 231.785 0.120236 -3.26379 0
M  V30 2426 H 230.444 -2.00346 -3.07013 0
M  V30 2427 H 230.092 -0.462995 -5.00865 0
M  V30 2428 H 229.792 -2.15865 -5.46513 0
M  V30 2429 H 231.316 -1.36334 -5.95185 0
M  V30 2430 H 232.73 -3.26626 -4.71156 0
M  V30 2431 H 231.127 -4.01607 -4.45905 0
M  V30 2432 H 232.197 -3.75326 -3.07016 0
M  V30 2433 N 233.54 1.10788 -1.12088 0
M  V30 2434 C 234.817 1.79136 -0.785476 0
M  V30 2435 C 235.197 1.98246 0.725377 0
M  V30 2436 O 234.545 1.57258 1.65778 0
M  V30 2437 C 234.755 3.12375 -1.55636 0
M  V30 2438 C 236.103 3.8731 -1.74001 0
M  V30 2439 O 237.127 3.22085 -1.52117 0
M  V30 2440 O 235.986 5.04369 -2.10415 0
M  V30 2441 H 233.08 0.776226 -0.285311 0
M  V30 2442 H 235.626 1.1747 -1.2247 0
M  V30 2443 H 234.398 2.93863 -2.5838 0
M  V30 2444 H 234.021 3.81758 -1.11114 0
M  V30 2445 N 235.018 0.912232 1.28515 0
M  V30 2446 C 235.948 0.416403 2.29757 0
M  V30 2447 C 236.929 -0.515194 1.6211 0
M  V30 2448 O 238.114 -0.423253 1.89532 0
M  V30 2449 C 235.244 -0.34572 3.45575 0
M  V30 2450 C 234.198 0.496599 4.25109 0
M  V30 2451 C 233.524 -0.393771 5.33248 0
M  V30 2452 C 234.824 1.75307 4.92001 0
M  V30 2453 H 236.518 1.26249 2.7148 0
M  V30 2454 H 234.064 0.608515 1.30511 0
M  V30 2455 H 236.017 -0.703422 4.15488 0
M  V30 2456 H 234.741 -1.2257 3.02728 0
M  V30 2457 H 233.4 0.8368 3.56922 0
M  V30 2458 H 233.048 -1.27225 4.86644 0
M  V30 2459 H 232.748 0.166209 5.87365 0
M  V30 2460 H 234.272 -0.747389 6.06009 0
M  V30 2461 H 235.686 1.46437 5.54283 0
M  V30 2462 H 234.083 2.25534 5.56106 0
M  V30 2463 H 235.153 2.48176 4.16577 0
M  V30 2464 N 236.496 -1.42363 0.676048 0
M  V30 2465 C 237.742 -2.0182 0.199125 0
M  V30 2466 C 238.075 -1.53339 -1.19168 0
M  V30 2467 O 237.35 -0.736124 -1.80032 0
M  V30 2468 C 237.633 -3.59331 0.235144 0
M  V30 2469 C 237.486 -4.17989 1.66149 0
M  V30 2470 C 238.805 -4.3813 -0.41595 0
M  V30 2471 H 235.924 -0.733293 0.0738311 0
M  V30 2472 H 238.566 -1.69368 0.86107 0
M  V30 2473 H 236.716 -3.87109 -0.328487 0
M  V30 2474 H 238.388 -4.0116 2.27747 0
M  V30 2475 H 236.631 -3.7377 2.20178 0
M  V30 2476 H 237.302 -5.27126 1.63837 0
M  V30 2477 H 239.778 -4.16051 0.0638529 0
M  V30 2478 H 238.654 -5.47717 -0.360115 0
M  V30 2479 H 238.915 -4.16101 -1.49373 0
M  V30 2480 N 237.974 -0.419461 -1.51915 0
M  V30 2481 C 239.223 0.154346 -2.01109 0
M  V30 2482 C 239.536 1.45338 -1.30905 0
M  V30 2483 O 240.742 2.10906 -1.7097 0
M  V30 2484 C 239.198 0.325615 -3.58424 0
M  V30 2485 C 238.806 -0.961934 -4.37551 0
M  V30 2486 C 240.55 0.854155 -4.15818 0
M  V30 2487 C 238.457 -0.757287 -5.86531 0
M  V30 2488 H 237.387 0.0614563 -0.751491 0
M  V30 2489 H 240.038 -0.54649 -1.75173 0
M  V30 2490 H 238.42 1.08903 -3.80731 0
M  V30 2491 H 239.594 -1.7323 -4.26999 0
M  V30 2492 H 237.909 -1.41766 -3.91524 0
M  V30 2493 H 240.506 1.02346 -5.24814 0
M  V30 2494 H 240.849 1.83172 -3.73837 0
M  V30 2495 H 241.382 0.149528 -3.97519 0
M  V30 2496 H 238.121 -1.70671 -6.32892 0
M  V30 2497 H 237.641 -0.0264061 -5.99794 0
M  V30 2498 H 239.32 -0.403482 -6.45741 0
M  V30 2499 N 239.452 1.56882 -0.150215 0
M  V30 2500 C 240.701 1.95403 0.500071 0
M  V30 2501 C 241.014 1.03777 1.658 0
M  V30 2502 O 242.22 1.31889 2.37313 0
M  V30 2503 C 240.676 3.4738 0.941018 0
M  V30 2504 C 240.284 4.47596 -0.190158 0
M  V30 2505 C 242.028 3.9476 1.56091 0
M  V30 2506 C 239.935 5.90787 0.269237 0
M  V30 2507 H 238.865 0.729515 0.190588 0
M  V30 2508 H 241.516 1.81988 -0.235074 0
M  V30 2509 H 239.898 3.56138 1.73152 0
M  V30 2510 H 241.072 4.50536 -0.967157 0
M  V30 2511 H 239.387 4.10151 -0.718666 0
M  V30 2512 H 241.984 4.99181 1.9163 0
M  V30 2513 H 242.327 3.36494 2.45107 0
M  V30 2514 H 242.86 3.88932 0.835249 0
M  V30 2515 H 239.599 6.52879 -0.585621 0
M  V30 2516 H 239.119 5.912 1.01204 0
M  V30 2517 H 240.798 6.42979 0.720176 0
M  V30 2518 N 240.93 -0.123565 1.57115 0
M  V30 2519 C 242.346 -0.476961 1.52306 0
M  V30 2520 C 242.546 -1.82109 0.86248 0
M  V30 2521 O 241.602 -2.48586 0.442884 0
M  V30 2522 C 242.915 -0.465661 2.97073 0
M  V30 2523 C 244.463 -0.549534 3.08138 0
M  V30 2524 C 244.938 -0.568669 4.54456 0
M  V30 2525 N 246.429 -0.630237 4.58892 0
M  V30 2526 C 247.164 -0.666415 5.69514 0
M  V30 2527 N 246.66 -0.660514 6.89644 0
M  V30 2528 N 248.453 -0.709077 5.5761 0
M  V30 2529 H 240.604 0.757198 1.98445 0
M  V30 2530 H 242.867 0.278808 0.906074 0
M  V30 2531 H 242.573 0.454232 3.48754 0
M  V30 2532 H 242.447 -1.29513 3.54269 0
M  V30 2533 H 244.834 -1.45985 2.56461 0
M  V30 2534 H 244.915 0.307532 2.53945 0
M  V30 2535 H 244.559 0.337581 5.06777 0
M  V30 2536 H 244.489 -1.44256 5.06456 0
M  V30 2537 H 246.98 -0.641146 3.72421 0
M  V30 2538 H 247.293 -0.690616 7.69708 0
M  V30 2539 H 245.638 -0.628012 6.92157 0
M  V30 2540 H 248.829 -0.711019 4.62668 0
M  V30 2541 H 249.002 -0.733804 6.43832 0
M  V30 2542 N 242.408 -1.52605 -0.393616 0
M  V30 2543 C 243.318 -1.79971 -1.50492 0
M  V30 2544 C 244.334 -0.686181 -1.59899 0
M  V30 2545 O 245.51 -0.973274 -1.76322 0
M  V30 2546 C 242.575 -1.95867 -2.86072 0
M  V30 2547 C 241.636 -3.19781 -2.86424 0
M  V30 2548 C 240.869 -3.34909 -4.15538 0
M  V30 2549 O 241.092 -2.54948 -5.10253 0
M  V30 2550 O 240.026 -4.28141 -4.23059 0
M  V30 2551 H 243.852 -2.74328 -1.30299 0
M  V30 2552 H 241.437 -1.3764 -0.581005 0
M  V30 2553 H 243.319 -2.08056 -3.66457 0
M  V30 2554 H 241.994 -1.04699 -3.063 0
M  V30 2555 H 240.901 -3.13038 -2.04837 0
M  V30 2556 H 242.234 -4.1078 -2.71147 0
M  V30 2557 N 243.887 0.651787 -1.4349 0
M  V30 2558 C 244.819 1.77725 -1.44729 0
M  V30 2559 C 245.832 1.59141 -0.343231 0
M  V30 2560 O 247.021 1.67835 -0.607751 0
M  V30 2561 C 244.121 3.15172 -1.24579 0
M  V30 2562 C 243.294 3.60402 -2.47849 0
M  V30 2563 C 242.353 4.76656 -2.22902 0
M  V30 2564 O 241.379 4.86022 -2.96263 0
M  V30 2565 N 242.581 5.66958 -1.24656 0
M  V30 2566 H 245.346 1.77141 -2.41746 0
M  V30 2567 H 242.907 0.835678 -1.38665 0
M  V30 2568 H 244.899 3.90634 -1.0577 0
M  V30 2569 H 243.469 3.1052 -0.360015 0
M  V30 2570 H 242.689 2.75369 -2.82073 0
M  V30 2571 H 243.977 3.87368 -3.29884 0
M  V30 2572 H 243.375 5.62065 -0.640265 0
M  V30 2573 H 241.932 6.42135 -1.1183 0
M  V30 2574 N 245.365 1.30045 0.890287 0
M  V30 2575 C 246.593 1.21472 1.67487 0
M  V30 2576 C 247.008 -0.223241 1.87476 0
M  V30 2577 O 246.365 -1.14828 1.41847 0
M  V30 2578 C 246.416 1.93394 3.05419 0
M  V30 2579 O 246.137 3.31576 2.86337 0
M  V30 2580 C 247.638 1.91414 3.99844 0
M  V30 2581 H 244.858 0.420604 0.522813 0
M  V30 2582 H 247.402 1.7158 1.11268 0
M  V30 2583 H 245.557 1.47099 3.58386 0
M  V30 2584 H 245.971 3.67929 3.73802 0
M  V30 2585 H 247.445 2.46285 4.94012 0
M  V30 2586 H 247.922 0.891833 4.3005 0
M  V30 2587 H 248.528 2.37496 3.52811 0
M  V30 2588 N 246.843 -1.10192 1.12674 0
M  V30 2589 C 247.753 -2.20172 0.810026 0
M  V30 2590 C 248.769 -1.72821 -0.202188 0
M  V30 2591 O 249.945 -2.01369 -0.0351691 0
M  V30 2592 C 247.01 -3.45631 0.272007 0
M  V30 2593 C 246.071 -4.07704 1.34447 0
M  V30 2594 C 245.304 -5.27175 0.832029 0
M  V30 2595 O 245.527 -5.69425 -0.333284 0
M  V30 2596 O 244.461 -5.80168 1.60277 0
M  V30 2597 H 248.287 -2.49701 1.72867 0
M  V30 2598 H 245.872 -1.18977 0.903597 0
M  V30 2599 H 247.754 -4.21394 -0.0230219 0
M  V30 2600 H 246.429 -3.17723 -0.619164 0
M  V30 2601 H 245.336 -3.33614 1.6927 0
M  V30 2602 H 246.669 -4.3982 2.2095 0
M  V30 2603 N 248.321 -0.919034 -1.28029 0
M  V30 2604 C 249.569 -0.553838 -1.94363 0
M  V30 2605 C 249.89 0.906357 -1.72656 0
M  V30 2606 O 249.16 1.64143 -1.0693 0
M  V30 2607 H 247.74 -0.201834 -0.719216 0
M  V30 2608 H 250.402 -1.16954 -1.55909 0
M  V30 2609 H 249.498 -0.752758 -3.02886 0
M  V30 2610 N 249.799 1.42003 -0.683588 0
M  V30 2611 C 250.709 2.34597 -0.0109075 0
M  V30 2612 C 251.725 1.55576 0.779245 0
M  V30 2613 O 252.901 1.88107 0.719555 0
M  V30 2614 C 249.966 3.34199 0.922588 0
M  V30 2615 C 249.027 4.29115 0.125984 0
M  V30 2616 C 248.26 5.23959 1.01502 0
M  V30 2617 O 248.483 5.23952 2.25456 0
M  V30 2618 O 247.417 6.00053 0.47111 0
M  V30 2619 H 251.243 2.93675 -0.773853 0
M  V30 2620 H 248.828 1.42654 -0.443861 0
M  V30 2621 H 250.71 3.95365 1.45823 0
M  V30 2622 H 249.385 2.77582 1.66523 0
M  V30 2623 H 248.292 3.71335 -0.453969 0
M  V30 2624 H 249.625 4.88798 -0.577736 0
M  V30 2625 N 251.277 0.427512 1.51691 0
M  V30 2626 C 252.507 -0.140986 2.06118 0
M  V30 2627 C 252.915 -1.37854 1.29588 0
M  V30 2628 O 252.258 -1.80411 0.346036 0
M  V30 2629 C 252.32 -0.538276 3.55447 0
M  V30 2630 C 251.984 0.591095 4.53161 0
M  V30 2631 C 252.981 1.46027 4.98971 0
M  V30 2632 C 250.666 0.769028 4.96378 0
M  V30 2633 C 252.66 2.49216 5.8666 0
M  V30 2634 C 250.347 1.80421 5.83859 0
M  V30 2635 C 251.345 2.66417 6.28897 0
M  V30 2636 O 251.033 3.68159 7.14643 0
M  V30 2637 H 250.765 -0.0157455 0.675817 0
M  V30 2638 H 253.319 0.602495 1.96365 0
M  V30 2639 H 251.549 -1.33432 3.6295 0
M  V30 2640 H 253.238 -1.0368 3.92435 0
M  V30 2641 H 254.004 1.33429 4.66285 0
M  V30 2642 H 249.883 0.109273 4.6087 0
M  V30 2643 H 253.427 3.16372 6.21735 0
M  V30 2644 H 249.324 1.93042 6.15959 0
M  V30 2645 H 250.092 3.64622 7.32798 0
M  V30 2646 N 252.755 -1.56801 0.158532 0
M  V30 2647 C 253.98 -2.01295 -0.499516 0
M  V30 2648 C 254.405 -1.03799 -1.56867 0
M  V30 2649 O 253.763 -0.0155162 -1.81293 0
M  V30 2650 C 253.811 -3.44469 -1.06647 0
M  V30 2651 O 252.915 -3.50012 -2.18095 0
M  V30 2652 H 252.256 -0.652884 -0.12099 0
M  V30 2653 H 254.786 -2.02958 0.258661 0
M  V30 2654 H 254.796 -3.8351 -1.39227 0
M  V30 2655 H 253.471 -4.14932 -0.283581 0
M  V30 2656 H 252.048 -3.22822 -1.86656 0
M  V30 2657 N 254.233 0.115231 -1.57178 0
M  V30 2658 C 255.458 0.840354 -1.89612 0
M  V30 2659 C 255.883 1.72464 -0.750845 0
M  V30 2660 O 255.241 1.78826 0.298478 0
M  V30 2661 C 255.289 1.64654 -3.20814 0
M  V30 2662 O 254.393 2.7538 -3.06985 0
M  V30 2663 H 253.734 0.232158 -0.622092 0
M  V30 2664 H 256.264 0.0964977 -2.04372 0
M  V30 2665 H 256.274 2.03499 -3.53627 0
M  V30 2666 H 254.949 0.997416 -4.03763 0
M  V30 2667 H 253.526 2.3971 -2.85646 0
M  V30 2668 N 255.711 1.52812 0.385517 0
M  V30 2669 C 256.641 1.80808 1.47752 0
M  V30 2670 C 257.622 0.660318 1.5676 0
M  V30 2671 O 258.807 0.908246 1.71652 0
M  V30 2672 C 255.937 1.98008 2.85324 0
M  V30 2673 C 254.891 3.13709 2.91154 0
M  V30 2674 C 254.217 3.16169 4.31209 0
M  V30 2675 C 255.517 4.52709 2.60483 0
M  V30 2676 H 257.211 2.72253 1.24573 0
M  V30 2677 H 254.757 1.31003 0.597839 0
M  V30 2678 H 256.71 2.16176 3.61726 0
M  V30 2679 H 255.434 1.03255 3.09848 0
M  V30 2680 H 254.093 2.95329 2.17201 0
M  V30 2681 H 253.741 2.19092 4.52778 0
M  V30 2682 H 253.441 3.93894 4.36029 0
M  V30 2683 H 254.965 3.36496 5.09512 0
M  V30 2684 H 256.379 4.71173 3.26602 0
M  V30 2685 H 254.776 5.32528 2.76648 0
M  V30 2686 H 255.846 4.59186 1.55809 0
M  V30 2687 N 257.189 -0.644168 1.43834 0
M  V30 2688 C 258.099 -1.78563 1.52159 0
M  V30 2689 C 259.115 -1.69147 0.408069 0
M  V30 2690 O 260.291 -1.90156 0.663524 0
M  V30 2691 C 257.356 -3.14888 1.45073 0
M  V30 2692 C 256.417 -3.36034 2.6717 0
M  V30 2693 C 255.65 -4.65855 2.60413 0
M  V30 2694 O 255.873 -5.45805 1.65689 0
M  V30 2695 O 254.807 -4.88918 3.5106 0
M  V30 2696 H 258.633 -1.74494 2.48567 0
M  V30 2697 H 256.218 -0.80378 1.25935 0
M  V30 2698 H 258.1 -3.96179 1.43597 0
M  V30 2699 H 256.775 -3.19528 0.518037 0
M  V30 2700 H 255.682 -2.54472 2.74217 0
M  V30 2701 H 257.015 -3.36247 3.59442 0
M  V30 2702 N 258.668 -1.30515 -0.883378 0
M  V30 2703 C 259.618 -1.13641 -1.9766 0
M  V30 2704 C 260.602 -0.0511314 -1.60819 0
M  V30 2705 O 261.794 -0.274623 -1.74857 0
M  V30 2706 C 258.923 -0.831976 -3.33066 0
M  V30 2707 C 258.009 -1.95759 -3.76217 0
M  V30 2708 N 258.4 -3.20313 -3.9145 0
M  V30 2709 C 256.698 -1.85431 -4.05625 0
M  V30 2710 C 257.399 -3.93856 -4.2808 0
M  V30 2711 N 256.375 -3.21919 -4.38029 0
M  V30 2712 H 260.177 -2.08106 -2.07531 0
M  V30 2713 H 257.691 -1.21877 -1.0733 0
M  V30 2714 H 259.688 -0.692102 -4.11115 0
M  V30 2715 H 258.348 0.104588 -3.24532 0
M  V30 2716 H 259.359 -3.55583 -3.76538 0
M  V30 2717 H 256.036 -0.991531 -4.05555 0
M  V30 2718 H 257.426 -5.01125 -4.47575 0
M  V30 2719 N 260.146 1.09593 -1.13257 0
M  V30 2720 C 261.056 2.19739 -0.821691 0
M  V30 2721 C 262.072 1.72926 0.19302 0
M  V30 2722 O 263.248 2.01385 0.0244895 0
M  V30 2723 C 260.313 3.45482 -0.290333 0
M  V30 2724 C 259.374 4.06985 -1.36607 0
M  V30 2725 C 258.607 5.26726 -0.859975 0
M  V30 2726 O 258.83 5.69594 0.303082 0
M  V30 2727 O 257.764 5.7931 -1.63351 0
M  V30 2728 H 261.59 2.48781 -1.74189 0
M  V30 2729 H 259.175 1.18496 -0.909894 0
M  V30 2730 H 261.057 4.214 0.000674022 0
M  V30 2731 H 259.732 3.18047 0.602306 0
M  V30 2732 H 258.639 3.32712 -1.71037 0
M  V30 2733 H 259.972 4.38643 -2.23279 0
M  V30 2734 N 261.624 0.925811 1.2754 0
M  V30 2735 C 262.849 0.580924 1.99098 0
M  V30 2736 C 263.274 -0.833555 1.68622 0
M  V30 2737 O 262.632 -1.55903 0.925422 0
M  V30 2738 C 262.68 0.811186 3.51358 0
M  V30 2739 O 261.784 -0.124129 4.12213 0
M  V30 2740 H 261.125 0.223873 0.625122 0
M  V30 2741 H 263.655 1.24455 1.62395 0
M  V30 2742 H 263.665 0.72601 4.01489 0
M  V30 2743 H 262.34 1.84227 3.72872 0
M  V30 2744 H 260.917 0.0108006 3.72898 0
M  V30 2745 N 263.102 -1.41638 0.69111 0
M  V30 2746 C 264.065 -2.29178 0.0319786 0
M  V30 2747 C 265.065 -1.44153 -0.712496 0
M  V30 2748 O 266.255 -1.65354 -0.548053 0
M  V30 2749 C 263.387 -3.26952 -0.965161 0
M  V30 2750 H 264.58 -2.88959 0.802681 0
M  V30 2751 H 262.133 -1.4955 0.454356 0
M  V30 2752 H 262.868 -2.72142 -1.76378 0
M  V30 2753 H 262.653 -3.89685 -0.434522 0
M  V30 2754 H 264.143 -3.92561 -1.42428 0
M  V30 2755 N 264.58 -0.43555 -1.51462 0
M  V30 2756 C 265.996 -0.0877501 -1.59359 0
M  V30 2757 C 266.196 1.4027 -1.4466 0
M  V30 2758 O 265.252 2.17243 -1.28693 0
M  V30 2759 C 266.565 -0.606264 -2.94525 0
M  V30 2760 C 268.113 -0.566548 -3.0783 0
M  V30 2761 C 268.588 -1.06201 -4.45517 0
M  V30 2762 N 270.079 -1.01992 -4.51832 0
M  V30 2763 C 270.814 -1.37417 -5.5669 0
M  V30 2764 N 270.31 -1.80119 -6.68976 0
M  V30 2765 N 272.103 -1.29245 -5.47039 0
M  V30 2766 H 264.254 -1.40533 -1.59261 0
M  V30 2767 H 266.517 -0.578992 -0.750648 0
M  V30 2768 H 266.223 -1.64901 -3.10645 0
M  V30 2769 H 266.097 -0.0302097 -3.77188 0
M  V30 2770 H 268.484 0.467208 -2.91378 0
M  V30 2771 H 268.565 -1.17898 -2.2701 0
M  V30 2772 H 268.209 -2.09422 -4.62715 0
M  V30 2773 H 268.139 -0.426127 -5.24873 0
M  V30 2774 H 270.63 -0.706308 -3.71241 0
M  V30 2775 H 270.943 -2.05392 -7.45006 0
M  V30 2776 H 269.288 -1.84044 -6.70189 0
M  V30 2777 H 272.479 -0.957522 -4.58202 0
M  V30 2778 H 272.652 -1.57182 -6.28648 0
M  V30 2779 N 266.058 1.56714 -0.166846 0
M  V30 2780 C 267.306 1.96358 0.478305 0
M  V30 2781 C 267.627 1.0537 1.6408 0
M  V30 2782 O 266.897 0.119154 1.95537 0
M  V30 2783 H 265.477 0.725065 0.179692 0
M  V30 2784 H 268.139 1.93329 -0.246985 0
M  V30 2785 H 267.235 3.00547 0.841292 0
M  V30 2786 N 267.536 -0.106894 1.57237 0
M  V30 2787 C 268.782 -0.81373 1.85759 0
M  V30 2788 C 269.115 -1.78952 0.754315 0
M  V30 2789 O 268.39 -1.93029 -0.23879 0
M  V30 2790 C 268.673 -1.55293 3.24894 0
M  V30 2791 C 268.526 -0.595929 4.45835 0
M  V30 2792 C 269.845 -2.5063 3.61763 0
M  V30 2793 H 266.964 -0.294369 0.67566 0
M  V30 2794 H 269.606 -0.0776472 1.89841 0
M  V30 2795 H 267.756 -2.1804 3.21544 0
M  V30 2796 H 269.428 0.0236262 4.61294 0
M  V30 2797 H 267.671 0.0916191 4.33703 0
M  V30 2798 H 268.342 -1.15004 5.39887 0
M  V30 2799 H 270.818 -1.97982 3.65981 0
M  V30 2800 H 269.694 -2.99376 4.60071 0
M  V30 2801 H 269.955 -3.3385 2.89821 0
M  V30 2802 N 269.014 -1.53014 -0.377408 0
M  V30 2803 C 270.263 -1.67845 -1.11853 0
M  V30 2804 C 270.576 -0.430625 -1.90801 0
M  V30 2805 O 271.782 -0.459261 -2.67587 0
M  V30 2806 C 270.238 -2.96668 -2.03756 0
M  V30 2807 C 269.846 -4.28671 -1.30175 0
M  V30 2808 C 271.59 -3.20865 -2.77932 0
M  V30 2809 C 269.497 -5.48591 -2.20911 0
M  V30 2810 H 268.427 -0.625343 -0.421263 0
M  V30 2811 H 271.078 -1.79514 -0.380409 0
M  V30 2812 H 269.46 -2.78773 -2.8125 0
M  V30 2813 H 270.634 -4.57157 -0.578259 0
M  V30 2814 H 268.949 -4.10825 -0.679108 0
M  V30 2815 H 271.546 -4.07642 -3.46024 0
M  V30 2816 H 271.889 -2.36424 -3.4265 0
M  V30 2817 H 272.422 -3.39379 -2.07525 0
M  V30 2818 H 269.161 -6.35474 -1.6079 0
M  V30 2819 H 268.681 -5.244 -2.91144 0
M  V30 2820 H 270.36 -5.8292 -2.80736 0
M  V30 2821 N 270.492 0.636531 -1.44174 0
M  V30 2822 C 271.402 1.77754 -1.53103 0
M  V30 2823 C 272.418 1.68928 -0.417034 0
M  V30 2824 O 273.594 1.89801 -0.6736 0
M  V30 2825 C 270.659 3.14115 -1.46741 0
M  V30 2826 C 269.72 3.34612 -2.68948 0
M  V30 2827 C 268.953 4.64467 -2.6288 0
M  V30 2828 O 269.176 5.44919 -1.68581 0
M  V30 2829 O 268.11 4.87049 -3.53648 0
M  V30 2830 H 271.936 1.73174 -2.49489 0
M  V30 2831 H 269.521 0.79709 -1.2636 0
M  V30 2832 H 271.403 3.95412 -1.45696 0
M  V30 2833 H 270.078 3.19249 -0.534975 0
M  V30 2834 H 268.985 2.53014 -2.75562 0
M  V30 2835 H 270.318 3.34336 -3.61221 0
M  V30 2836 N 271.97 1.30982 0.876444 0
M  V30 2837 C 273.21 1.21589 1.64303 0
M  V30 2838 C 273.574 -0.223962 1.90689 0
M  V30 2839 O 274.775 -0.44128 2.65153 0
M  V30 2840 C 273.046 2.03007 2.94148 0
M  V30 2841 S 274.605 2.10405 3.85065 0
M  V30 2842 H 271.423 0.433161 0.563819 0
M  V30 2843 H 274.025 1.65565 1.03964 0
M  V30 2844 H 272.729 3.06719 2.72675 0
M  V30 2845 H 272.26 1.59725 3.59515 0
M  V30 2846 H 274.275 1.23765 4.80517 0
M  V30 2847 N 273.449 -1.08991 1.13837 0
M  V30 2848 C 274.379 -2.17771 0.842507 0
M  V30 2849 C 275.36 -1.6892 -0.20001 0
M  V30 2850 O 276.545 -1.94113 -0.0579731 0
M  V30 2851 C 273.675 -3.4589 0.312644 0
M  V30 2852 C 272.629 -4.08099 1.28992 0
M  V30 2853 C 271.955 -5.31098 0.619623 0
M  V30 2854 C 273.255 -4.50077 2.65005 0
M  V30 2855 H 274.949 -2.42777 1.75213 0
M  V30 2856 H 272.495 -1.16682 0.843875 0
M  V30 2857 H 274.448 -4.21297 0.0933043 0
M  V30 2858 H 273.172 -3.20419 -0.632382 0
M  V30 2859 H 271.831 -3.34717 1.49533 0
M  V30 2860 H 271.479 -5.0191 -0.33102 0
M  V30 2861 H 271.179 -5.73674 1.27167 0
M  V30 2862 H 272.703 -6.09224 0.409669 0
M  V30 2863 H 274.117 -5.16688 2.48407 0
M  V30 2864 H 272.514 -5.03553 3.26427 0
M  V30 2865 H 273.584 -3.62257 3.22332 0
M  V30 2866 N 274.927 -0.932562 -1.27047 0
M  V30 2867 C 275.874 -0.434072 -2.26681 0
M  V30 2868 C 276.844 0.501639 -1.58344 0
M  V30 2869 O 278.029 0.419734 -1.86126 0
M  V30 2870 C 275.169 0.30261 -3.43771 0
M  V30 2871 C 274.282 -0.667774 -4.26808 0
M  V30 2872 C 273.417 0.0892393 -5.31125 0
M  V30 2873 C 272.456 -0.873532 -6.05835 0
M  V30 2874 N 271.593 -0.148832 -7.01942 0
M  V30 2875 H 276.433 -1.28868 -2.68695 0
M  V30 2876 H 273.97 -0.646713 -1.32121 0
M  V30 2877 H 275.928 0.746092 -4.10474 0
M  V30 2878 H 274.558 1.12142 -3.02695 0
M  V30 2879 H 273.61 -1.22978 -3.59973 0
M  V30 2880 H 274.922 -1.40337 -4.78651 0
M  V30 2881 H 274.076 0.592409 -6.03801 0
M  V30 2882 H 272.815 0.85777 -4.80097 0
M  V30 2883 H 271.82 -1.38791 -5.31994 0
M  V30 2884 H 273.045 -1.64193 -6.58952 0
M  V30 2885 H 270.991 0.601365 -6.53238 0
M  V30 2886 H 270.908 -0.82391 -7.51497 0
M  V30 2887 H 272.176 0.333527 -7.78786 0
M  V30 2888 N 276.405 1.4127 -0.698611 0
M  V30 2889 C 277.654 2.00408 -0.227949 0
M  V30 2890 C 277.967 1.55981 1.18023 0
M  V30 2891 O 279.173 2.07699 1.74852 0
M  V30 2892 C 277.629 3.58129 -0.356636 0
M  V30 2893 C 277.237 4.11536 -1.77037 0
M  V30 2894 C 278.981 4.24466 0.0540969 0
M  V30 2895 C 276.888 5.61701 -1.85055 0
M  V30 2896 H 275.818 0.749586 -0.0814657 0
M  V30 2897 H 278.469 1.61713 -0.867249 0
M  V30 2898 H 276.851 3.94442 0.350965 0
M  V30 2899 H 278.025 3.86636 -2.50698 0
M  V30 2900 H 276.34 3.57736 -2.13105 0
M  V30 2901 H 278.937 5.34698 0.0146723 0
M  V30 2902 H 279.28 4.01687 1.09332 0
M  V30 2903 H 279.813 3.93198 -0.603337 0
M  V30 2904 H 276.552 5.89312 -2.8704 0
M  V30 2905 H 276.072 5.88519 -1.15783 0
M  V30 2906 H 277.751 6.26524 -1.61484 0
M  V30 2907 N 277.883 0.443576 1.51229 0
M  V30 2908 C 279.129 -0.120975 2.02439 0
M  V30 2909 C 279.462 -1.41815 1.32674 0
M  V30 2910 O 278.737 -1.89373 0.443622 0
M  V30 2911 C 279.02 -0.333291 3.58554 0
M  V30 2912 C 278.873 0.982968 4.38928 0
M  V30 2913 C 280.192 -1.10028 4.26124 0
M  V30 2914 H 277.311 -0.0424923 0.735774 0
M  V30 2915 H 279.953 0.583794 1.80809 0
M  V30 2916 H 278.103 -0.933614 3.77115 0
M  V30 2917 H 279.775 1.61775 4.32003 0
M  V30 2918 H 278.018 1.58611 4.03763 0
M  V30 2919 H 278.689 0.788379 5.46341 0
M  V30 2920 H 281.165 -0.591711 4.11871 0
M  V30 2921 H 280.041 -1.21761 5.35225 0
M  V30 2922 H 280.302 -2.12996 3.87408 0
M  V30 2923 N 279.361 -1.56624 0.175154 0
M  V30 2924 C 280.589 -2.01374 -0.474971 0
M  V30 2925 C 281.004 -1.05537 -1.56548 0
M  V30 2926 O 280.361 -0.0568668 -1.82411 0
M  V30 2927 C 280.412 -3.45923 -1.04975 0
M  V30 2928 O 280.133 -4.381 -0.00276605 0
M  V30 2929 C 281.634 -4.06093 -1.77773 0
M  V30 2930 H 278.854 -0.659962 -0.121206 0
M  V30 2931 H 281.398 -2.02601 0.27801 0
M  V30 2932 H 279.553 -3.45458 -1.75321 0
M  V30 2933 H 279.967 -5.22753 -0.427681 0
M  V30 2934 H 281.441 -5.09147 -2.13245 0
M  V30 2935 H 281.918 -3.48405 -2.67414 0
M  V30 2936 H 282.524 -4.10272 -1.12059 0
M  V30 2937 N 280.839 0.0985539 -1.57292 0
M  V30 2938 C 282.255 0.45267 -1.53046 0
M  V30 2939 C 282.455 1.80713 -0.891342 0
M  V30 2940 O 281.511 2.4785 -0.482375 0
M  V30 2941 C 282.824 0.418341 -2.97776 0
M  V30 2942 C 284.372 0.500443 -3.08973 0
M  V30 2943 C 284.847 0.496297 -4.55303 0
M  V30 2944 N 286.338 0.557151 -4.59837 0
M  V30 2945 C 287.073 0.575726 -5.70502 0
M  V30 2946 N 286.569 0.550714 -6.90608 0
M  V30 2947 N 288.362 0.620277 -5.58667 0
M  V30 2948 H 280.513 -0.788673 -1.97215 0
M  V30 2949 H 282.776 -0.293188 -0.901524 0
M  V30 2950 H 282.482 -0.509659 -3.47988 0
M  V30 2951 H 282.356 1.2386 -3.56284 0
M  V30 2952 H 284.743 1.41886 -2.58751 0
M  V30 2953 H 284.824 -0.347894 -2.53423 0
M  V30 2954 H 284.468 -0.418162 -5.06176 0
M  V30 2955 H 284.398 1.3618 -5.08687 0
M  V30 2956 H 286.889 0.581816 -3.73394 0
M  V30 2957 H 287.202 0.568075 -7.70709 0
M  V30 2958 H 285.547 0.517816 -6.93068 0
M  V30 2959 H 288.738 0.637322 -4.63741 0
M  V30 2960 H 288.911 0.631283 -6.44918 0
M  V30 2961 N 282.317 1.53212 0.369288 0
M  V30 2962 C 283.28 1.7872 1.43498 0
M  V30 2963 C 284.28 0.657554 1.46741 0
M  V30 2964 O 285.47 0.925736 1.47566 0
M  V30 2965 C 282.602 1.90591 2.82645 0
M  V30 2966 H 283.795 2.73894 1.22156 0
M  V30 2967 H 281.348 1.44233 0.602203 0
M  V30 2968 H 282.083 0.974709 3.09306 0
M  V30 2969 H 281.868 2.72751 2.8169 0
M  V30 2970 H 283.358 2.11931 3.59826 0
M  V30 2971 N 283.795 -0.628877 1.44509 0
M  V30 2972 C 284.742 -1.74074 1.51549 0
M  V30 2973 C 285.712 -1.62084 0.363021 0
M  V30 2974 O 286.897 -1.81975 0.573567 0
M  V30 2975 C 284.037 -3.12328 1.46784 0
M  V30 2976 C 283.15 -3.35277 2.72422 0
M  V30 2977 C 282.285 -4.63515 2.59475 0
M  V30 2978 C 281.324 -4.7965 3.80266 0
M  V30 2979 N 280.461 -5.99168 3.65981 0
M  V30 2980 H 285.301 -1.67392 2.46544 0
M  V30 2981 H 282.838 -0.816527 1.22357 0
M  V30 2982 H 284.796 -3.92286 1.42012 0
M  V30 2983 H 283.426 -3.18018 0.553544 0
M  V30 2984 H 282.478 -2.49242 2.87372 0
M  V30 2985 H 283.79 -3.43078 3.62076 0
M  V30 2986 H 282.944 -5.51638 2.52548 0
M  V30 2987 H 281.683 -4.58076 1.67384 0
M  V30 2988 H 280.688 -3.89957 3.87574 0
M  V30 2989 H 281.913 -4.86902 4.73395 0
M  V30 2990 H 279.859 -5.94814 2.76644 0
M  V30 2991 H 279.776 -6.08035 4.49254 0
M  V30 2992 H 281.044 -6.89846 3.6295 0
M  V30 2993 N 285.273 -1.31445 -0.869486 0
M  V30 2994 C 286.498 -1.24256 -1.66058 0
M  V30 2995 C 286.923 0.188928 -1.87149 0
M  V30 2996 O 286.281 1.13522 -1.4136 0
M  V30 2997 C 286.329 -1.9924 -3.00559 0
M  V30 2998 O 285.433 -1.33007 -3.90362 0
M  V30 2999 H 284.774 -0.428973 -0.506831 0
M  V30 3000 H 287.304 -1.73521 -1.08404 0
M  V30 3001 H 287.314 -2.08854 -3.50491 0
M  V30 3002 H 285.989 -3.03342 -2.84528 0
M  V30 3003 H 284.566 -1.31848 -3.48813 0
M  V30 3004 N 286.751 1.08385 -1.14413 0
M  V30 3005 C 287.683 2.1519 -0.789036 0
M  V30 3006 C 288.696 1.61638 0.19417 0
M  V30 3007 O 289.885 1.78479 -0.0275711 0
M  V30 3008 C 286.985 3.38565 -0.15058 0
M  V30 3009 C 286.158 4.21501 -1.16857 0
M  V30 3010 C 285.217 5.23277 -0.553832 0
M  V30 3011 O 284.243 5.56041 -1.21686 0
M  V30 3012 N 285.445 5.76629 0.669296 0
M  V30 3013 H 288.21 2.46257 -1.70814 0
M  V30 3014 H 285.771 1.24198 -1.03858 0
M  V30 3015 H 287.763 4.03777 0.273181 0
M  V30 3016 H 286.333 3.05299 0.671667 0
M  V30 3017 H 285.553 3.52265 -1.76926 0
M  V30 3018 H 286.841 4.73731 -1.85624 0
M  V30 3019 H 286.239 5.52243 1.22654 0
M  V30 3020 H 284.796 6.43521 1.03556 0
M  V30 3021 N 288.23 0.939286 1.26551 0
M  V30 3022 C 289.646 0.641304 1.46149 0
M  V30 3023 C 289.846 -0.805964 1.84679 0
M  V30 3024 O 288.902 -1.58278 1.96734 0
M  V30 3025 C 290.215 1.6011 2.54529 0
M  V30 3026 C 291.763 1.6106 2.68382 0
M  V30 3027 C 292.238 2.55765 3.79932 0
M  V30 3028 N 293.729 2.5404 3.87322 0
M  V30 3029 C 294.464 3.24004 4.73085 0
M  V30 3030 N 293.96 4.03388 5.63249 0
M  V30 3031 N 295.753 3.12965 4.66914 0
M  V30 3032 H 287.904 1.87478 0.998285 0
M  V30 3033 H 290.167 0.805559 0.499779 0
M  V30 3034 H 289.873 2.63412 2.33039 0
M  V30 3035 H 289.747 1.35171 3.52149 0
M  V30 3036 H 292.134 0.584835 2.89247 0
M  V30 3037 H 292.215 1.90053 1.71212 0
M  V30 3038 H 291.859 3.58458 3.5982 0
M  V30 3039 H 291.789 2.24063 4.76554 0
M  V30 3040 H 294.28 1.96396 3.22858 0
M  V30 3041 H 294.593 4.5373 6.25579 0
M  V30 3042 H 292.938 4.07489 5.63008 0
M  V30 3043 H 296.129 2.50432 3.95476 0
M  V30 3044 H 296.302 3.67759 5.33533 0
M  V30 3045 N 289.708 -1.40897 0.706093 0
M  V30 3046 C 290.957 -2.00284 0.238574 0
M  V30 3047 C 291.27 -1.56604 -1.17194 0
M  V30 3048 O 292.476 -2.08624 -1.73748 0
M  V30 3049 C 290.932 -3.57934 0.375623 0
M  V30 3050 C 290.54 -4.10591 1.79217 0
M  V30 3051 C 292.284 -4.24488 -0.0315857 0
M  V30 3052 C 290.191 -5.60712 1.88032 0
M  V30 3053 H 289.121 -0.749144 0.0854398 0
M  V30 3054 H 291.772 -1.61251 0.875813 0
M  V30 3055 H 290.154 -3.94622 -0.330042 0
M  V30 3056 H 291.328 -3.85301 2.52745 0
M  V30 3057 H 289.643 -3.56601 2.15 0
M  V30 3058 H 292.24 -5.34698 0.0136842 0
M  V30 3059 H 292.583 -4.02261 -1.072 0
M  V30 3060 H 293.116 -3.92873 0.624181 0
M  V30 3061 H 289.855 -5.87781 2.90161 0
M  V30 3062 H 289.375 -5.87896 1.18903 0
M  V30 3063 H 291.054 -6.25658 1.64805 0
M  V30 3064 N 291.186 -0.45159 -1.50991 0
M  V30 3065 C 292.149 0.341117 -2.26647 0
M  V30 3066 C 293.149 0.937422 -1.30649 0
M  V30 3067 O 294.339 0.809644 -1.54241 0
M  V30 3068 C 291.471 1.48398 -3.06905 0
M  V30 3069 H 292.664 -0.322117 -2.98165 0
M  V30 3070 H 290.217 -0.205122 -1.54948 0
M  V30 3071 H 290.952 2.18284 -2.39838 0
M  V30 3072 H 290.737 1.06241 -3.77432 0
M  V30 3073 H 292.227 2.04367 -3.64176 0
M  V30 3074 N 292.664 1.56529 -0.183458 0
M  V30 3075 C 293.611 2.18546 0.742055 0
M  V30 3076 C 294.581 1.12912 1.2182 0
M  V30 3077 O 295.766 1.41115 1.28418 0
M  V30 3078 C 292.906 2.83977 1.96089 0
M  V30 3079 C 292.019 4.04105 1.52719 0
M  V30 3080 C 291.154 4.57427 2.70063 0
M  V30 3081 C 290.193 5.69938 2.23243 0
M  V30 3082 N 289.33 6.17717 3.33722 0
M  V30 3083 H 294.17 2.97284 0.206432 0
M  V30 3084 H 291.707 1.46823 0.0901571 0
M  V30 3085 H 293.665 3.20077 2.67594 0
M  V30 3086 H 292.295 2.07822 2.47002 0
M  V30 3087 H 291.347 3.73745 0.708436 0
M  V30 3088 H 292.659 4.85513 1.1436 0
M  V30 3089 H 291.813 4.95772 3.49708 0
M  V30 3090 H 290.552 3.75101 3.11689 0
M  V30 3091 H 289.557 5.31133 1.42048 0
M  V30 3092 H 290.782 6.54073 1.82661 0
M  V30 3093 H 288.728 5.38317 3.74902 0
M  V30 3094 H 288.645 6.94146 2.99495 0
M  V30 3095 H 289.913 6.60713 4.13616 0
M  V30 3096 N 294.142 -0.090211 1.57342 0
M  V30 3097 C 295.389 -0.792807 1.86335 0
M  V30 3098 C 295.717 -1.78494 0.772662 0
M  V30 3099 O 294.972 -1.94305 -0.233258 0
M  V30 3100 C 295.271 -1.55222 3.21933 0
M  V30 3101 C 294.937 -0.701765 4.45406 0
M  V30 3102 C 293.599 -0.467334 4.78925 0
M  V30 3103 C 295.951 -0.11086 5.21082 0
M  V30 3104 C 293.279 0.367785 5.85546 0
M  V30 3105 C 295.631 0.711609 6.28585 0
M  V30 3106 C 294.295 0.956086 6.60617 0
M  V30 3107 H 293.565 -0.290109 0.681849 0
M  V30 3108 H 296.212 -0.0541332 1.91423 0
M  V30 3109 H 294.517 -2.3626 3.12551 0
M  V30 3110 H 296.214 -2.10032 3.41595 0
M  V30 3111 H 292.804 -0.894598 4.1916 0
M  V30 3112 H 296.988 -0.279129 4.95514 0
M  V30 3113 H 292.244 0.566128 6.08773 0
M  V30 3114 H 296.418 1.17632 6.86393 0
M  V30 3115 H 294.045 1.60499 7.43064 0
M  V30 3116 N 295.62 -1.53406 -0.361157 0
M  V30 3117 C 296.583 -1.79479 -1.42548 0
M  V30 3118 C 297.583 -0.665327 -1.4639 0
M  V30 3119 O 298.773 -0.933549 -1.47073 0
M  V30 3120 C 295.905 -1.92087 -2.8163 0
M  V30 3121 H 297.098 -2.74538 -1.20701 0
M  V30 3122 H 294.651 -1.4455 -0.594546 0
M  V30 3123 H 295.386 -0.991099 -3.08784 0
M  V30 3124 H 295.171 -2.74241 -2.80239 0
M  V30 3125 H 296.661 -2.13836 -3.58697 0
M  V30 3126 N 297.098 0.621204 -1.44841 0
M  V30 3127 C 298.345 1.38055 -1.48145 0
M  V30 3128 C 298.673 1.94143 -0.117867 0
M  V30 3129 O 297.928 1.74713 0.881694 0
M  V30 3130 C 298.227 2.55675 -2.4973 0
M  V30 3131 C 297.893 2.17817 -3.94799 0
M  V30 3132 C 296.555 2.07205 -4.34303 0
M  V30 3133 C 298.907 1.88065 -4.86087 0
M  V30 3134 C 296.235 1.65045 -5.63007 0
M  V30 3135 C 298.587 1.47394 -6.15189 0
M  V30 3136 C 297.251 1.35331 -6.53637 0
M  V30 3137 H 296.521 0.505181 -0.542101 0
M  V30 3138 H 299.168 0.703477 -1.78111 0
M  V30 3139 H 297.473 3.2866 -2.13284 0
M  V30 3140 H 299.17 3.13904 -2.4953 0
M  V30 3141 H 295.76 2.26998 -3.63552 0
M  V30 3142 H 299.944 1.95168 -4.56315 0
M  V30 3143 H 295.2 1.54317 -5.91605 0
M  V30 3144 H 299.374 1.23415 -6.85377 0
M  V30 3145 H 297.001 1.02435 -7.53267 0
M  V30 3146 N 298.576 1.31904 0.862503 0
M  V30 3147 C 299.853 1.12644 1.59908 0
M  V30 3148 C 300.233 -0.316104 2.0872 0
M  V30 3149 O 299.581 -1.31145 1.87118 0
M  V30 3150 C 299.791 2.1472 2.7513 0
M  V30 3151 C 301.139 2.47637 3.44907 0
M  V30 3152 O 302.163 2.13205 2.85346 0
M  V30 3153 O 301.022 3.06632 4.52371 0
M  V30 3154 H 298.116 0.43416 0.703871 0
M  V30 3155 H 300.662 1.43408 0.907314 0
M  V30 3156 H 299.434 3.1172 2.3653 0
M  V30 3157 H 299.057 1.84905 3.51989 0
M  V30 3158 N 300.054 -1.07777 1.14986 0
M  V30 3159 C 301.284 -1.83752 0.944402 0
M  V30 3160 C 301.692 -1.8218 -0.51058 0
M  V30 3161 O 301.035 -1.22852 -1.36576 0
M  V30 3162 C 301.097 -3.32128 1.37592 0
M  V30 3163 C 300.761 -3.57425 2.84775 0
M  V30 3164 C 301.758 -3.5173 3.8286 0
M  V30 3165 C 299.443 -3.8523 3.2234 0
M  V30 3166 C 301.437 -3.73482 5.16517 0
M  V30 3167 C 299.124 -4.06634 4.56171 0
M  V30 3168 C 300.122 -4.00754 5.53069 0
M  V30 3169 O 299.81 -4.2159 6.84483 0
M  V30 3170 H 299.542 -0.58673 0.335744 0
M  V30 3171 H 302.096 -1.36982 1.53052 0
M  V30 3172 H 300.326 -3.79686 0.733165 0
M  V30 3173 H 302.015 -3.89555 1.14024 0
M  V30 3174 H 302.781 -3.30256 3.55184 0
M  V30 3175 H 298.66 -3.88923 2.47508 0
M  V30 3176 H 302.204 -3.68808 5.92137 0
M  V30 3177 H 298.101 -4.27593 4.83564 0
M  V30 3178 H 298.869 -4.38961 6.90837 0
M  V30 3179 N 301.532 -0.945985 -1.26051 0
M  V30 3180 C 302.495 -0.463897 -2.24456 0
M  V30 3181 C 303.495 0.427655 -1.55009 0
M  V30 3182 O 304.685 0.226157 -1.72726 0
M  V30 3183 C 301.817 0.330812 -3.39291 0
M  V30 3184 H 303.01 -1.33357 -2.68619 0
M  V30 3185 H 300.563 -0.728416 -1.38289 0
M  V30 3186 H 301.298 1.21852 -3.00537 0
M  V30 3187 H 301.083 -0.308679 -3.90883 0
M  V30 3188 H 302.573 0.657865 -4.12386 0
M  V30 3189 N 303.011 1.40521 -0.713556 0
M  V30 3190 C 304.239 2.05237 -0.261775 0
M  V30 3191 C 304.654 1.53755 1.09567 0
M  V30 3192 O 304.011 0.693268 1.6882 0
M  V30 3193 C 304.062 3.60763 -0.230706 0
M  V30 3194 O 303.783 4.10345 -1.53455 0
M  V30 3195 C 305.284 4.42651 0.239874 0
M  V30 3196 H 302.504 0.660533 -0.118057 0
M  V30 3197 H 305.048 1.79967 -0.971192 0
M  V30 3198 H 303.203 3.8501 0.429661 0
M  V30 3199 H 303.617 5.04526 -1.43366 0
M  V30 3200 H 305.091 5.51599 0.210468 0
M  V30 3201 H 305.568 4.20082 1.28171 0
M  V30 3202 H 306.174 4.23507 -0.390142 0
M  V30 3203 N 304.489 0.459591 1.5075 0
M  V30 3204 C 305.436 -0.340524 2.28274 0
M  V30 3205 C 306.406 -0.997371 1.32822 0
M  V30 3206 O 307.591 -1.01202 1.61749 0
M  V30 3207 C 304.731 -1.42317 3.14388 0
M  V30 3208 C 303.844 -0.782251 4.24859 0
M  V30 3209 C 302.979 -1.84182 4.98247 0
M  V30 3210 C 302.018 -1.18053 6.00608 0
M  V30 3211 N 301.155 -2.18244 6.67319 0
M  V30 3212 H 305.995 0.326899 2.96202 0
M  V30 3213 H 303.532 0.173057 1.46078 0
M  V30 3214 H 305.49 -2.06241 3.62658 0
M  V30 3215 H 304.12 -2.05992 2.4853 0
M  V30 3216 H 303.172 -0.0307404 3.80388 0
M  V30 3217 H 304.484 -0.259663 4.98124 0
M  V30 3218 H 303.638 -2.55714 5.50177 0
M  V30 3219 H 302.377 -2.39819 4.24662 0
M  V30 3220 H 301.382 -0.450776 5.47949 0
M  V30 3221 H 302.607 -0.631202 6.7616 0
M  V30 3222 H 300.553 -2.72919 5.96533 0
M  V30 3223 H 300.47 -1.70938 7.36421 0
M  V30 3224 H 301.738 -2.89191 7.23871 0
M  V30 3225 N 305.967 -1.56429 0.191757 0
M  V30 3226 C 306.914 -2.18936 -0.730454 0
M  V30 3227 C 307.884 -1.13557 -1.21219 0
M  V30 3228 O 309.069 -1.41794 -1.27668 0
M  V30 3229 C 306.209 -2.85013 -1.9458 0
M  V30 3230 C 305.322 -4.04909 -1.50574 0
M  V30 3231 C 304.457 -4.58853 -2.67634 0
M  V30 3232 C 303.496 -5.71114 -2.20217 0
M  V30 3233 N 302.633 -6.19478 -3.30442 0
M  V30 3234 H 307.473 -2.97389 -0.190664 0
M  V30 3235 H 305.01 -1.46869 -0.0823694 0
M  V30 3236 H 306.968 -3.21492 -2.65893 0
M  V30 3237 H 305.598 -2.09129 -2.45896 0
M  V30 3238 H 304.65 -3.74115 -0.688605 0
M  V30 3239 H 305.962 -4.86113 -1.11784 0
M  V30 3240 H 305.116 -4.97619 -3.47074 0
M  V30 3241 H 303.855 -3.76749 -3.09696 0
M  V30 3242 H 302.86 -5.31879 -1.3923 0
M  V30 3243 H 304.085 -6.55033 -1.79189 0
M  V30 3244 H 302.031 -5.40297 -3.72041 0
M  V30 3245 H 301.948 -6.95725 -2.9581 0
M  V30 3246 H 303.216 -6.62898 -4.10106 0
M  V30 3247 N 307.445 0.0818655 -1.57387 0
M  V30 3248 C 308.693 0.781368 -1.86384 0
M  V30 3249 C 309.014 1.78618 -0.782342 0
M  V30 3250 O 308.284 1.94976 0.190061 0
M  V30 3251 H 306.864 0.291562 -0.687751 0
M  V30 3252 H 309.526 0.060348 -1.94807 0
M  V30 3253 H 308.622 1.3038 -2.83562 0
M  V30 3254 N 308.923 1.53595 0.353017 0
M  V30 3255 C 310.339 1.43648 0.695516 0
M  V30 3256 C 310.539 0.585617 1.92802 0
M  V30 3257 O 309.595 0.0729223 2.52395 0
M  V30 3258 C 310.908 2.8701 0.896991 0
M  V30 3259 C 312.456 2.96723 0.996209 0
M  V30 3260 C 312.931 4.41173 1.23007 0
M  V30 3261 N 314.422 4.44657 1.29749 0
M  V30 3262 C 315.157 5.53547 1.49577 0
M  V30 3263 N 314.653 6.72461 1.66639 0
M  V30 3264 N 316.446 5.41145 1.52048 0
M  V30 3265 H 308.597 2.07415 -0.457481 0
M  V30 3266 H 310.86 0.9372 -0.142687 0
M  V30 3267 H 310.566 3.51644 0.0629938 0
M  V30 3268 H 310.44 3.31401 1.80148 0
M  V30 3269 H 312.827 2.32235 1.82074 0
M  V30 3270 H 312.908 2.55707 0.0688331 0
M  V30 3271 H 312.552 5.06238 0.410505 0
M  V30 3272 H 312.482 4.79772 2.17086 0
M  V30 3273 H 314.973 3.58963 1.18126 0
M  V30 3274 H 315.286 7.51214 1.81378 0
M  V30 3275 H 313.631 6.75423 1.63794 0
M  V30 3276 H 316.822 4.47205 1.38294 0
M  V30 3277 H 316.995 6.26068 1.67159 0
M  V30 3278 N 310.401 -0.613514 1.45168 0
M  V30 3279 C 311.649 -1.36997 1.48581 0
M  V30 3280 C 311.97 -1.94589 0.126545 0
M  V30 3281 O 311.24 -1.76816 -0.843372 0
M  V30 3282 H 309.82 -0.508558 0.547154 0
M  V30 3283 H 312.482 -0.720853 1.81079 0
M  V30 3284 H 311.578 -2.1924 2.22127 0
M  V30 3285 N 311.879 -1.3236 -0.855495 0
M  V30 3286 C 312.826 -1.21225 -1.964 0
M  V30 3287 C 313.796 -0.0946204 -1.6583 0
M  V30 3288 O 314.981 -0.27002 -1.8888 0
M  V30 3289 C 312.121 -0.940419 -3.32039 0
M  V30 3290 C 311.234 -2.14276 -3.75113 0
M  V30 3291 C 310.369 -1.80648 -4.9954 0
M  V30 3292 C 309.408 -2.97208 -5.35102 0
M  V30 3293 N 308.545 -2.63678 -6.50706 0
M  V30 3294 H 313.385 -2.16042 -2.05255 0
M  V30 3295 H 310.922 -1.07451 -1.00463 0
M  V30 3296 H 312.88 -0.763311 -4.10158 0
M  V30 3297 H 311.51 -0.0290413 -3.22787 0
M  V30 3298 H 310.562 -2.43017 -2.92655 0
M  V30 3299 H 311.874 -3.01468 -3.97389 0
M  V30 3300 H 311.028 -1.59484 -5.85363 0
M  V30 3301 H 309.767 -0.906678 -4.79198 0
M  V30 3302 H 308.772 -3.19004 -4.47791 0
M  V30 3303 H 309.997 -3.87918 -5.57401 0
M  V30 3304 H 307.943 -1.76238 -6.31883 0
M  V30 3305 H 307.86 -3.444 -6.72997 0
M  V30 3306 H 309.128 -2.45942 -7.39684 0
M  V30 3307 N 313.357 1.07166 -1.15556 0
M  V30 3308 C 314.603 1.80065 -0.932984 0
M  V30 3309 C 314.936 1.86586 0.53845 0
M  V30 3310 O 314.211 1.35098 1.39924 0
M  V30 3311 C 314.494 3.25022 -1.55025 0
M  V30 3312 C 314.347 3.26634 -3.09242 0
M  V30 3313 C 315.666 4.22341 -1.2376 0
M  V30 3314 H 312.785 0.653697 -0.340366 0
M  V30 3315 H 315.427 1.25389 -1.4275 0
M  V30 3316 H 313.577 3.71712 -1.12972 0
M  V30 3317 H 315.249 2.88173 -3.60214 0
M  V30 3318 H 313.492 2.65539 -3.43033 0
M  V30 3319 H 314.163 4.28854 -3.47546 0
M  V30 3320 H 316.639 3.8405 -1.60139 0
M  V30 3321 H 315.515 5.22053 -1.69564 0
M  V30 3322 H 315.776 4.41828 -0.154938 0
M  V30 3323 N 314.835 0.952656 1.25548 0
M  V30 3324 C 316.063 0.623496 1.97282 0
M  V30 3325 C 316.478 -0.803987 1.70826 0
M  V30 3326 O 315.835 -1.53755 0.983147 0
M  V30 3327 C 315.886 0.870209 3.5087 0
M  V30 3328 O 315.607 2.24156 3.76412 0
M  V30 3329 C 317.108 0.553164 4.39835 0
M  V30 3330 H 314.328 0.233931 0.628902 0
M  V30 3331 H 316.872 1.27649 1.59768 0
M  V30 3332 H 315.027 0.263652 3.86502 0
M  V30 3333 H 315.441 2.31021 4.70882 0
M  V30 3334 H 316.915 0.776342 5.46513 0
M  V30 3335 H 317.392 -0.512215 4.36203 0
M  V30 3336 H 317.998 1.13896 4.09766 0
M  V30 3337 N 316.313 -1.40141 0.720998 0
M  V30 3338 C 317.276 -2.29058 0.0805834 0
M  V30 3339 C 318.276 -1.45632 -0.681758 0
M  V30 3340 O 319.466 -1.6648 -0.512856 0
M  V30 3341 C 316.598 -3.28925 -0.895593 0
M  V30 3342 H 317.791 -2.87191 0.863793 0
M  V30 3343 H 315.344 -1.48553 0.485975 0
M  V30 3344 H 316.079 -2.75822 -1.70566 0
M  V30 3345 H 315.864 -3.90519 -0.351766 0
M  V30 3346 H 317.354 -3.95494 -1.34069 0
M  V30 3347 N 317.792 -0.46758 -1.50504 0
M  V30 3348 C 319.038 0.0887532 -2.02606 0
M  V30 3349 C 319.371 1.39686 -1.34913 0
M  V30 3350 O 318.646 1.88644 -0.473694 0
M  V30 3351 C 318.929 0.276206 -3.59039 0
M  V30 3352 C 318.782 -1.05267 -4.37309 0
M  V30 3353 C 320.101 1.03235 -4.27821 0
M  V30 3354 H 317.22 0.0307814 -0.736357 0
M  V30 3355 H 319.862 -0.612485 -1.79857 0
M  V30 3356 H 318.012 0.8735 -3.78553 0
M  V30 3357 H 319.684 -1.68628 -4.29374 0
M  V30 3358 H 317.927 -1.65015 -4.01189 0
M  V30 3359 H 318.598 -0.875197 -5.45018 0
M  V30 3360 H 321.074 0.526111 -4.12761 0
M  V30 3361 H 319.95 1.1323 -5.37094 0
M  V30 3362 H 320.211 2.06806 -3.90748 0
M  V30 3363 N 319.27 1.56325 -0.20005 0
M  V30 3364 C 320.22 2.15939 0.731743 0
M  V30 3365 C 321.204 1.10154 1.17281 0
M  V30 3366 O 322.396 1.36203 1.13038 0
M  V30 3367 C 319.525 2.82614 1.94895 0
M  V30 3368 C 318.611 3.95596 1.52855 0
M  V30 3369 N 319.002 4.99118 0.819418 0
M  V30 3370 C 317.3 4.07288 1.81748 0
M  V30 3371 C 318.001 5.78513 0.608053 0
M  V30 3372 N 316.977 5.31117 1.15828 0
M  V30 3373 H 320.779 2.9334 0.181285 0
M  V30 3374 H 318.293 1.624 -0.000452172 0
M  V30 3375 H 320.29 3.23718 2.62702 0
M  V30 3376 H 318.95 2.06702 2.50408 0
M  V30 3377 H 319.961 5.15723 0.47436 0
M  V30 3378 H 316.638 3.42509 2.38734 0
M  V30 3379 H 318.028 6.71885 0.0451619 0
M  V30 3380 N 320.748 -0.0735177 1.57428 0
M  V30 3381 C 321.695 -1.08756 2.0357 0
M  V30 3382 C 322.665 -1.38559 0.916 0
M  V30 3383 O 323.85 -1.49656 1.18354 0
M  V30 3384 C 320.99 -2.39657 2.48311 0
M  V30 3385 C 320.103 -2.16399 3.73892 0
M  V30 3386 C 319.238 -3.40852 4.07423 0
M  V30 3387 C 318.277 -3.1295 5.2605 0
M  V30 3388 N 317.414 -4.29729 5.55228 0
M  V30 3389 H 322.254 -0.687104 2.8997 0
M  V30 3390 H 319.791 -0.327709 1.43403 0
M  V30 3391 H 321.749 -3.16081 2.72303 0
M  V30 3392 H 320.379 -2.77508 1.64891 0
M  V30 3393 H 319.431 -1.30676 3.57251 0
M  V30 3394 H 320.743 -1.91788 4.60455 0
M  V30 3395 H 319.897 -4.25671 4.32306 0
M  V30 3396 H 318.636 -3.68537 3.19425 0
M  V30 3397 H 317.641 -2.26526 5.00965 0
M  V30 3398 H 318.866 -2.86589 6.15665 0
M  V30 3399 H 316.812 -4.57448 4.70188 0
M  V30 3400 H 316.729 -4.08385 6.36206 0
M  V30 3401 H 317.997 -5.1555 5.84661 0
M  V30 3402 N 322.226 -1.5378 -0.344866 0
M  V30 3403 C 323.189 -1.80981 -1.40637 0
M  V30 3404 C 324.189 -0.680816 -1.45676 0
M  V30 3405 O 325.379 -0.949095 -1.46075 0
M  V30 3406 C 322.511 -1.95063 -2.79577 0
M  V30 3407 H 323.704 -2.75803 -1.17783 0
M  V30 3408 H 321.257 -1.45173 -0.579181 0
M  V30 3409 H 321.992 -1.02379 -3.07716 0
M  V30 3410 H 321.777 -2.77198 -2.77315 0
M  V30 3411 H 323.267 -2.17629 -3.56409 0
M  V30 3412 N 323.704 0.605807 -1.45491 0
M  V30 3413 C 324.652 1.73754 -1.54636 0
M  V30 3414 C 325.646 1.64207 -0.416219 0
M  V30 3415 O 326.852 1.69979 -0.592199 0
M  V30 3416 H 323.227 0.574073 -0.485741 0
M  V30 3417 H 325.198 1.63169 -2.49837 0
M  V30 3418 C 323.947 3.12135 -1.53189 0
M  V30 3419 H 323.27 3.20141 -2.39478 0
M  V30 3420 H 324.71 3.91147 -1.63645 0
M  V30 3421 C 323.169 3.35921 -0.256616 0
M  V30 3422 O 323.699 3.96194 0.662798 0
M  V30 3423 N 321.905 2.90204 -0.151751 0
M  V30 3424 H 321.452 2.41336 -0.90081 0
M  V30 3425 H 321.41 3.06492 0.700699 0
M  V30 3426 N 325.182 1.32811 0.848464 0
M  V30 3427 C 326.431 1.23075 1.59798 0
M  V30 3428 C 326.744 -0.204419 1.94529 0
M  V30 3429 O 327.95 -0.423701 2.68173 0
M  V30 3430 C 326.406 2.15594 2.88179 0
M  V30 3431 C 326.014 3.64228 2.60849 0
M  V30 3432 C 327.758 2.14709 3.66197 0
M  V30 3433 C 325.665 4.48689 3.85269 0
M  V30 3434 H 324.595 0.457091 0.599653 0
M  V30 3435 H 327.246 1.57813 0.936342 0
M  V30 3436 H 325.628 1.73778 3.55833 0
M  V30 3437 H 326.802 4.14424 2.01467 0
M  V30 3438 H 325.117 3.67306 1.96151 0
M  V30 3439 H 327.714 2.75046 4.58534 0
M  V30 3440 H 328.057 1.13966 4.00397 0
M  V30 3441 H 328.59 2.54837 3.05455 0
M  V30 3442 H 325.329 5.5027 3.56207 0
M  V30 3443 H 324.849 4.03241 4.44024 0
M  V30 3444 H 326.528 4.62006 4.52946 0
M  V30 3445 N 326.66 -1.06551 1.16123 0
M  V30 3446 C 327.593 -2.13382 0.80892 0
M  V30 3447 C 328.571 -1.61128 -0.21827 0
M  V30 3448 O 329.755 -1.88219 -0.102952 0
M  V30 3449 C 326.882 -3.38083 0.204303 0
M  V30 3450 C 325.928 -4.09133 1.20469 0
M  V30 3451 S 326.761 -4.5948 2.75024 0
M  V30 3452 C 327.917 -5.87446 2.16005 0
M  V30 3453 H 328.15 -2.42937 1.71373 0
M  V30 3454 H 325.683 -1.18947 0.984428 0
M  V30 3455 H 327.641 -4.10268 -0.138081 0
M  V30 3456 H 326.302 -3.0669 -0.678234 0
M  V30 3457 H 325.495 -4.98685 0.730019 0
M  V30 3458 H 325.097 -3.4295 1.49202 0
M  V30 3459 H 327.389 -6.60065 1.5271 0
M  V30 3460 H 328.332 -6.39639 3.03756 0
M  V30 3461 H 328.74 -5.41354 1.59989 0
M  V30 3462 N 328.138 -0.959301 -1.25041 0
M  V30 3463 C 329.085 -0.482057 -2.2571 0
M  V30 3464 C 330.055 0.467939 -1.59372 0
M  V30 3465 O 331.24 0.380159 -1.86974 0
M  V30 3466 C 328.38 0.229623 -3.44335 0
M  V30 3467 C 327.493 -0.758156 -4.25295 0
M  V30 3468 C 326.628 -0.0234403 -5.31195 0
M  V30 3469 C 325.667 -1.00184 -6.03846 0
M  V30 3470 N 324.804 -0.29769 -7.01469 0
M  V30 3471 H 329.644 -1.34538 -2.65901 0
M  V30 3472 H 327.181 -0.674592 -1.3072 0
M  V30 3473 H 329.139 0.658856 -4.11965 0
M  V30 3474 H 327.769 1.05696 -3.05005 0
M  V30 3475 H 326.821 -1.30586 -3.57284 0
M  V30 3476 H 328.133 -1.50458 -4.75567 0
M  V30 3477 H 327.287 0.464201 -6.04922 0
M  V30 3478 H 326.026 0.755741 -4.81809 0
M  V30 3479 H 325.031 -1.50044 -5.2893 0
M  V30 3480 H 326.256 -1.78133 -6.55321 0
M  V30 3481 H 324.202 0.462668 -6.54366 0
M  V30 3482 H 324.119 -0.983128 -7.4958 0
M  V30 3483 H 325.387 0.16826 -7.79318 0
M  V30 3484 N 329.616 1.39756 -0.72842 0
M  V30 3485 C 330.546 2.33289 -0.0991354 0
M  V30 3486 C 331.527 1.53568 0.731489 0
M  V30 3487 O 332.712 1.81987 0.677807 0
M  V30 3488 C 329.842 3.3763 0.813834 0
M  V30 3489 C 328.796 4.2791 0.0878663 0
M  V30 3490 C 328.122 5.22894 1.11741 0
M  V30 3491 C 329.422 5.11314 -1.06563 0
M  V30 3492 H 331.116 2.86163 -0.880408 0
M  V30 3493 H 328.662 1.37591 -0.424819 0
M  V30 3494 H 330.615 4.0201 1.26355 0
M  V30 3495 H 329.339 2.83181 1.62715 0
M  V30 3496 H 327.998 3.65 -0.342159 0
M  V30 3497 H 327.646 4.64744 1.92412 0
M  V30 3498 H 327.346 5.84143 0.636477 0
M  V30 3499 H 328.87 5.90151 1.56697 0
M  V30 3500 H 330.284 5.69076 -0.694671 0
M  V30 3501 H 328.681 5.81671 -1.47577 0
M  V30 3502 H 329.751 4.46534 -1.89038 0
M  V30 3503 N 331.094 0.475555 1.50254 0
M  V30 3504 C 332.342 -0.077738 2.0195 0
M  V30 3505 C 332.663 -1.39813 1.35931 0
M  V30 3506 O 331.933 -1.89249 0.506123 0
M  V30 3507 H 330.513 -0.031719 0.746326 0
M  V30 3508 H 333.175 0.626995 1.84539 0
M  V30 3509 H 332.271 -0.225995 3.11281 0
M  V30 3510 N 332.573 -1.56217 0.208337 0
M  V30 3511 C 333.85 -1.89739 -0.475234 0
M  V30 3512 C 334.23 -1.1238 -1.78701 0
M  V30 3513 O 333.578 -0.228979 -2.2735 0
M  V30 3514 C 333.788 -3.42289 -0.681101 0
M  V30 3515 C 335.136 -4.12789 -0.994507 0
M  V30 3516 O 336.16 -3.47814 -0.768357 0
M  V30 3517 O 335.019 -5.27649 -1.42299 0
M  V30 3518 H 332.113 -0.788478 -0.249461 0
M  V30 3519 H 334.659 -1.67855 0.249538 0
M  V30 3520 H 333.431 -3.90534 0.244722 0
M  V30 3521 H 333.054 -3.69909 -1.45785 0
M  V30 3522 N 334.051 0.0651679 -1.57465 0
M  V30 3523 C 335.299 0.761555 -1.87202 0
M  V30 3524 C 335.62 1.77778 -0.801243 0
M  V30 3525 O 334.89 1.95166 0.16937 0
M  V30 3526 H 333.47 0.284251 -0.690804 0
M  V30 3527 H 336.132 0.0396827 -1.9486 0
M  V30 3528 H 335.228 1.27365 -2.84929 0
M  V30 3529 N 335.529 1.53961 0.336706 0
M  V30 3530 C 336.459 1.85417 1.41925 0
M  V30 3531 C 337.44 0.709856 1.5458 0
M  V30 3532 O 338.625 0.962396 1.68676 0
M  V30 3533 C 335.755 2.06985 2.78881 0
M  V30 3534 C 334.709 3.22813 2.81026 0
M  V30 3535 C 334.035 3.29727 4.20932 0
M  V30 3536 C 335.335 4.60767 2.45949 0
M  V30 3537 H 337.029 2.76079 1.15848 0
M  V30 3538 H 334.575 1.32839 0.555859 0
M  V30 3539 H 336.528 2.27575 3.54665 0
M  V30 3540 H 335.252 1.13061 3.06406 0
M  V30 3541 H 333.911 3.0209 2.07695 0
M  V30 3542 H 333.559 2.33385 4.45579 0
M  V30 3543 H 333.259 4.07566 4.23277 0
M  V30 3544 H 334.783 3.52536 4.98549 0
M  V30 3545 H 336.197 4.81325 3.11446 0
M  V30 3546 H 334.594 5.4106 2.59566 0
M  V30 3547 H 335.664 4.6391 1.41122 0
M  V30 3548 N 337.007 -0.598083 1.45811 0
M  V30 3549 C 338.254 -1.35681 1.50323 0
M  V30 3550 C 338.582 -1.9393 0.148739 0
M  V30 3551 O 337.837 -1.76094 -0.853787 0
M  V30 3552 C 338.136 -2.51669 2.53766 0
M  V30 3553 C 337.802 -2.11508 3.98215 0
M  V30 3554 C 336.464 -2.0027 4.37545 0
M  V30 3555 C 338.816 -1.80308 4.89018 0
M  V30 3556 C 336.144 -1.56067 5.65562 0
M  V30 3557 C 338.496 -1.37589 6.17456 0
M  V30 3558 C 337.16 -1.24916 6.55708 0
M  V30 3559 H 336.43 -0.496492 0.550069 0
M  V30 3560 H 339.077 -0.675052 1.79207 0
M  V30 3561 H 337.382 -3.25225 2.18486 0
M  V30 3562 H 339.079 -3.09895 2.54492 0
M  V30 3563 H 335.669 -2.21185 3.67117 0
M  V30 3564 H 339.853 -1.87884 4.59362 0
M  V30 3565 H 335.109 -1.44886 5.93985 0
M  V30 3566 H 339.283 -1.12495 6.87254 0
M  V30 3567 H 336.91 -0.904386 7.54801 0
M  V30 3568 N 338.485 -1.33259 -0.841409 0
M  V30 3569 C 339.415 -1.25926 -1.96634 0
M  V30 3570 C 340.396 -0.140349 -1.6952 0
M  V30 3571 O 341.581 -0.329707 -1.91381 0
M  V30 3572 C 338.711 -0.99512 -3.32738 0
M  V30 3573 C 337.665 -2.0767 -3.74242 0
M  V30 3574 C 336.991 -1.66474 -5.08125 0
M  V30 3575 C 338.291 -3.49318 -3.88297 0
M  V30 3576 H 339.985 -2.20046 -2.03027 0
M  V30 3577 H 337.531 -1.05931 -0.975425 0
M  V30 3578 H 339.484 -0.930323 -4.11002 0
M  V30 3579 H 338.208 -0.0183004 -3.26595 0
M  V30 3580 H 336.867 -2.13187 -2.98239 0
M  V30 3581 H 336.515 -0.675012 -4.9845 0
M  V30 3582 H 336.215 -2.3885 -5.36865 0
M  V30 3583 H 337.739 -1.61455 -5.88867 0
M  V30 3584 H 339.153 -3.46316 -4.56879 0
M  V30 3585 H 337.55 -4.20158 -4.28471 0
M  V30 3586 H 338.62 -3.8801 -2.9082 0
M  V30 3587 N 339.963 1.05934 -1.16686 0
M  V30 3588 C 340.895 2.13468 -0.834503 0
M  V30 3589 C 341.908 1.62013 0.15984 0
M  V30 3590 O 343.097 1.7838 -0.0654228 0
M  V30 3591 C 340.197 3.3817 -0.222361 0
M  V30 3592 C 339.37 4.18928 -1.25771 0
M  V30 3593 C 338.429 5.21985 -0.664703 0
M  V30 3594 O 337.455 5.53334 -1.33453 0
M  V30 3595 N 338.657 5.77919 0.546834 0
M  V30 3596 H 341.422 2.42578 -1.75999 0
M  V30 3597 H 338.983 1.21967 -1.06469 0
M  V30 3598 H 340.975 4.04266 0.187472 0
M  V30 3599 H 339.545 3.06655 0.606758 0
M  V30 3600 H 338.765 3.48433 -1.84358 0
M  V30 3601 H 340.053 4.69687 -1.95631 0
M  V30 3602 H 339.451 5.54721 1.10912 0
M  V30 3603 H 338.008 6.45573 0.898829 0
M  V30 3604 N 341.441 0.965919 1.2453 0
M  V30 3605 C 342.681 0.634656 1.94297 0
M  V30 3606 C 343.045 -0.814822 1.73852 0
M  V30 3607 O 344.246 -1.25622 2.3764 0
M  V30 3608 C 342.517 0.99702 3.43212 0
M  V30 3609 S 344.076 0.780038 4.31811 0
M  V30 3610 H 340.894 0.232893 0.671775 0
M  V30 3611 H 343.496 1.24249 1.50938 0
M  V30 3612 H 342.2 2.04886 3.55598 0
M  V30 3613 H 341.731 0.379888 3.91562 0
M  V30 3614 H 343.746 -0.343512 4.9501 0
M  V30 3615 N 342.919 -1.39368 0.735821 0
M  V30 3616 C 344.159 -2.02349 0.288813 0
M  V30 3617 C 344.523 -1.57127 -1.10341 0
M  V30 3618 O 345.724 -2.12312 -1.64854 0
M  V30 3619 C 343.995 -3.55288 0.387986 0
M  V30 3620 S 345.554 -4.38795 0.0209408 0
M  V30 3621 H 342.372 -0.701944 0.113115 0
M  V30 3622 H 344.974 -1.70164 0.962518 0
M  V30 3623 H 343.678 -3.85691 1.40252 0
M  V30 3624 H 343.209 -3.92227 -0.303512 0
M  V30 3625 H 345.224 -4.81595 -1.19503 0
M  V30 3626 N 344.397 -0.483516 -1.5 0
M  V30 3627 C 345.307 0.309172 -2.32554 0
M  V30 3628 C 346.323 0.984159 -1.43493 0
M  V30 3629 O 347.499 0.969399 -1.76535 0
M  V30 3630 C 344.564 1.36979 -3.18493 0
M  V30 3631 C 343.625 0.710095 -4.23387 0
M  V30 3632 C 342.858 1.72018 -5.05218 0
M  V30 3633 O 343.081 2.94813 -4.88305 0
M  V30 3634 O 342.015 1.28515 -5.8802 0
M  V30 3635 H 345.841 -0.366064 -3.01486 0
M  V30 3636 H 343.426 -0.24514 -1.47375 0
M  V30 3637 H 345.308 1.98385 -3.71781 0
M  V30 3638 H 343.983 2.02828 -2.52275 0
M  V30 3639 H 342.89 0.0567539 -3.74057 0
M  V30 3640 H 344.223 0.0943557 -4.9211 0
M  V30 3641 N 345.875 1.56104 -0.216619 0
M  V30 3642 C 346.785 2.23694 0.706982 0
M  V30 3643 C 347.801 1.24295 1.21765 0
M  V30 3644 O 348.977 1.57094 1.2603 0
M  V30 3645 C 346.042 2.8998 1.90033 0
M  V30 3646 C 345.103 4.04708 1.43213 0
M  V30 3647 C 344.336 4.67824 2.56859 0
M  V30 3648 O 344.559 4.29913 3.74874 0
M  V30 3649 O 343.493 5.56905 2.28343 0
M  V30 3650 H 347.319 3.03272 0.161235 0
M  V30 3651 H 344.904 1.49394 0.0136177 0
M  V30 3652 H 346.786 3.31837 2.59735 0
M  V30 3653 H 345.461 2.13365 2.43428 0
M  V30 3654 H 344.368 3.6743 0.70327 0
M  V30 3655 H 345.701 4.83051 0.944615 0
M  V30 3656 N 347.353 -0.0568162 1.57498 0
M  V30 3657 C 348.599 -0.75422 1.88253 0
M  V30 3658 C 348.932 -1.76461 0.810865 0
M  V30 3659 O 348.207 -1.93691 -0.177259 0
M  V30 3660 C 348.49 -1.44878 3.2967 0
M  V30 3661 C 348.343 -0.453789 4.47505 0
M  V30 3662 C 349.662 -2.38994 3.69554 0
M  V30 3663 H 346.781 -0.272724 0.684683 0
M  V30 3664 H 349.423 -0.0172113 1.89992 0
M  V30 3665 H 347.573 -2.077 3.28318 0
M  V30 3666 H 349.245 0.170371 4.60985 0
M  V30 3667 H 347.488 0.229552 4.33192 0
M  V30 3668 H 348.159 -0.977699 5.43273 0
M  V30 3669 H 350.635 -1.86239 3.72095 0
M  V30 3670 H 349.511 -2.84587 4.69363 0
M  V30 3671 H 349.772 -3.24461 3.00296 0
M  V30 3672 N 348.832 -1.54138 -0.328536 0
M  V30 3673 C 349.795 -1.82462 -1.38709 0
M  V30 3674 C 350.795 -0.696229 -1.44946 0
M  V30 3675 O 351.985 -0.964535 -1.4506 0
M  V30 3676 C 349.117 -1.98018 -2.77492 0
M  V30 3677 H 350.31 -2.77037 -1.14851 0
M  V30 3678 H 347.863 -1.45779 -0.563751 0
M  V30 3679 H 348.598 -1.05637 -3.06613 0
M  V30 3680 H 348.383 -2.80124 -2.74359 0
M  V30 3681 H 349.873 -2.21396 -3.54081 0
M  V30 3682 N 350.31 0.590341 -1.46126 0
M  V30 3683 C 351.22 1.72793 -1.58681 0
M  V30 3684 C 352.236 1.67516 -0.470566 0
M  V30 3685 O 353.412 1.87562 -0.733642 0
M  V30 3686 C 350.477 3.09287 -1.5666 0
M  V30 3687 C 349.538 3.25886 -2.79458 0
M  V30 3688 C 348.771 4.55869 -2.77524 0
M  V30 3689 O 348.994 5.3928 -1.85832 0
M  V30 3690 O 347.928 4.75552 -3.68964 0
M  V30 3691 H 351.754 1.65149 -2.54872 0
M  V30 3692 H 349.339 0.756486 -1.28832 0
M  V30 3693 H 351.221 3.90577 -1.58202 0
M  V30 3694 H 349.896 3.17385 -0.636271 0
M  V30 3695 H 348.803 2.44119 -2.83472 0
M  V30 3696 H 350.136 3.22675 -3.71674 0
M  V30 3697 N 351.788 1.33704 0.83433 0
M  V30 3698 C 352.718 1.26967 1.95963 0
M  V30 3699 C 353.699 0.149337 1.69443 0
M  V30 3700 O 354.884 0.339852 1.91203 0
M  V30 3701 C 352.014 1.01275 3.32206 0
M  V30 3702 C 350.968 2.09652 3.73136 0
M  V30 3703 C 350.294 1.69166 5.07235 0
M  V30 3704 C 351.594 3.51372 3.86439 0
M  V30 3705 H 353.288 2.2112 2.01857 0
M  V30 3706 H 350.834 1.06447 0.969793 0
M  V30 3707 H 352.787 0.952106 4.10503 0
M  V30 3708 H 351.511 0.0356203 3.26581 0
M  V30 3709 H 350.17 2.14766 2.97104 0
M  V30 3710 H 349.818 0.701437 4.98085 0
M  V30 3711 H 349.518 2.41694 5.35591 0
M  V30 3712 H 351.042 1.64576 5.88003 0
M  V30 3713 H 352.456 3.48734 4.55036 0
M  V30 3714 H 350.853 4.22425 4.26236 0
M  V30 3715 H 351.923 3.89546 2.88759 0
M  V30 3716 N 353.266 -1.05314 1.17247 0
M  V30 3717 C 354.496 -1.81707 0.983166 0
M  V30 3718 C 354.904 -1.83222 -0.471822 0
M  V30 3719 O 354.247 -1.25721 -1.3394 0
M  V30 3720 C 354.309 -3.29134 1.44606 0
M  V30 3721 C 353.973 -3.51304 2.92292 0
M  V30 3722 C 354.97 -3.4353 3.90235 0
M  V30 3723 C 352.655 -3.78306 3.30439 0
M  V30 3724 C 354.649 -3.62442 5.24323 0
M  V30 3725 C 352.336 -3.96866 4.64694 0
M  V30 3726 C 353.334 -3.88933 5.61445 0
M  V30 3727 O 353.022 -4.06976 6.93272 0
M  V30 3728 H 352.754 -0.579476 0.348114 0
M  V30 3729 H 355.308 -1.33705 1.55924 0
M  V30 3730 H 353.538 -3.78046 0.813537 0
M  V30 3731 H 355.227 -3.87049 1.22262 0
M  V30 3732 H 355.993 -3.22648 3.62109 0
M  V30 3733 H 351.872 -3.83585 2.55702 0
M  V30 3734 H 355.416 -3.56165 5.99827 0
M  V30 3735 H 351.313 -4.1724 4.92525 0
M  V30 3736 H 352.081 -4.24209 6.99992 0
M  V30 3737 N 354.744 -0.972509 -1.24016 0
M  V30 3738 C 356.155 -0.67517 -1.74064 0
M  V30 3739 C 356.506 0.808939 -1.78747 0
M  V30 3740 O 355.631 1.63286 -1.42009 0
M  V30 3741 C 356.226 -1.21889 -3.16115 0
M  V30 3742 C 354.785 -0.971358 -3.6365 0
M  V30 3743 C 353.932 -1.35134 -2.42145 0
M  V30 3744 H 356.883 -1.14727 -1.09651 0
M  V30 3745 H 356.904 -0.587489 -3.75937 0
M  V30 3746 H 356.416 -2.29906 -3.12674 0
M  V30 3747 H 354.517 0.0930686 -3.72484 0
M  V30 3748 H 354.63 -1.62039 -4.50866 0
M  V30 3749 H 352.994 -0.769751 -2.4279 0
M  V30 3750 H 353.777 -2.4411 -2.41381 0
M  V30 3751 N 356.222 1.38976 -0.743202 0
M  V30 3752 C 357.169 2.30544 -0.10861 0
M  V30 3753 C 358.139 1.49642 0.720869 0
M  V30 3754 O 359.324 1.78304 0.679142 0
M  V30 3755 C 356.464 3.36018 0.786496 0
M  V30 3756 C 355.577 4.31963 -0.0564849 0
M  V30 3757 C 354.712 5.24506 0.840657 0
M  V30 3758 C 353.751 6.121 -0.00658363 0
M  V30 3759 N 352.888 6.96973 0.846943 0
M  V30 3760 H 357.728 2.8424 -0.895088 0
M  V30 3761 H 355.265 1.3995 -0.453048 0
M  V30 3762 H 357.223 3.95768 1.31999 0
M  V30 3763 H 355.853 2.83758 1.53887 0
M  V30 3764 H 354.905 3.73763 -0.707492 0
M  V30 3765 H 356.217 4.93703 -0.711229 0
M  V30 3766 H 355.371 5.89322 1.4417 0
M  V30 3767 H 354.11 4.63107 1.52916 0
M  V30 3768 H 353.115 5.46289 -0.620366 0
M  V30 3769 H 354.34 6.75565 -0.691992 0
M  V30 3770 H 352.286 6.38133 1.52059 0
M  V30 3771 H 352.203 7.5559 0.248864 0
M  V30 3772 H 353.471 7.6621 1.43328 0
M  V30 3773 N 357.7 0.491464 1.49741 0
M  V30 3774 C 358.949 -0.0582189 2.01616 0
M  V30 3775 C 359.262 -1.38927 1.3769 0
M  V30 3776 O 360.468 -2.02509 1.80838 0
M  V30 3777 C 358.924 -0.154235 3.59569 0
M  V30 3778 C 358.532 1.1696 4.32463 0
M  V30 3779 C 360.276 -0.65479 4.1942 0
M  V30 3780 C 358.183 1.03627 5.8225 0
M  V30 3781 H 357.113 -0.0255317 0.753568 0
M  V30 3782 H 359.764 0.629445 1.72367 0
M  V30 3783 H 358.146 -0.906138 3.85493 0
M  V30 3784 H 359.32 1.93405 4.18248 0
M  V30 3785 H 357.635 1.60285 3.84315 0
M  V30 3786 H 360.232 -0.771903 5.29099 0
M  V30 3787 H 360.575 -1.65127 3.8215 0
M  V30 3788 H 361.108 0.040304 3.9778 0
M  V30 3789 H 357.847 2.00672 6.24028 0
M  V30 3790 H 357.367 0.312546 5.98985 0
M  V30 3791 H 359.046 0.711114 6.4308 0
M  V30 3792 N 359.178 -1.55987 0.224894 0
M  V30 3793 C 360.125 -2.20436 -0.68385 0
M  V30 3794 C 361.095 -1.16102 -1.18783 0
M  V30 3795 O 362.28 -1.4447 -1.24632 0
M  V30 3796 C 359.42 -2.89076 -1.88491 0
M  V30 3797 C 358.533 -4.08012 -1.41951 0
M  V30 3798 C 357.668 -4.64426 -2.5784 0
M  V30 3799 C 356.707 -5.75656 -2.08053 0
M  V30 3800 N 355.844 -6.26347 -3.17227 0
M  V30 3801 H 360.684 -2.97727 -0.12754 0
M  V30 3802 H 358.221 -1.47011 -0.0511978 0
M  V30 3803 H 360.179 -3.27059 -2.59014 0
M  V30 3804 H 358.809 -2.14298 -2.41405 0
M  V30 3805 H 357.861 -3.75492 -0.609095 0
M  V30 3806 H 359.173 -4.88375 -1.01447 0
M  V30 3807 H 358.327 -5.04869 -3.3644 0
M  V30 3808 H 357.066 -3.83233 -3.01635 0
M  V30 3809 H 356.071 -5.34712 -1.27916 0
M  V30 3810 H 357.296 -6.58686 -1.65255 0
M  V30 3811 H 355.242 -5.48067 -3.60497 0
M  V30 3812 H 355.159 -7.01843 -2.80986 0
M  V30 3813 H 356.427 -6.71447 -3.95953 0
M  V30 3814 N 360.656 0.0484629 -1.57525 0
M  V30 3815 C 361.903 0.743125 -1.88372 0
M  V30 3816 C 362.231 1.76383 -0.819715 0
M  V30 3817 O 361.486 1.94855 0.181659 0
M  V30 3818 C 361.785 1.46632 -3.25935 0
M  V30 3819 C 361.451 0.583427 -4.4711 0
M  V30 3820 C 360.113 0.340191 -4.79996 0
M  V30 3821 C 362.465 -0.0273345 -5.21193 0
M  V30 3822 C 359.793 -0.522903 -5.84365 0
M  V30 3823 C 362.145 -0.878017 -6.26477 0
M  V30 3824 C 360.809 -1.1309 -6.5785 0
M  V30 3825 H 360.079 0.271929 -0.689301 0
M  V30 3826 H 362.726 0.00336166 -1.915 0
M  V30 3827 H 361.031 2.2789 -3.18706 0
M  V30 3828 H 362.728 2.00902 -3.47044 0
M  V30 3829 H 359.318 0.783151 -4.21384 0
M  V30 3830 H 363.502 0.147654 -4.9608 0
M  V30 3831 H 358.758 -0.727335 -6.07058 0
M  V30 3832 H 362.932 -1.35789 -6.83033 0
M  V30 3833 H 360.559 -1.80144 -7.38547 0
M  V30 3834 N 362.134 1.5431 0.320358 0
M  V30 3835 C 363.044 1.86946 1.41734 0
M  V30 3836 C 364.06 0.761689 1.56443 0
M  V30 3837 O 365.236 1.05629 1.71477 0
M  V30 3838 C 362.301 2.09293 2.76401 0
M  V30 3839 C 361.362 3.33082 2.70841 0
M  V30 3840 C 360.595 3.54353 3.99086 0
M  V30 3841 O 360.818 2.79002 4.97508 0
M  V30 3842 O 359.752 4.47838 4.0215 0
M  V30 3843 H 363.578 2.80232 1.17062 0
M  V30 3844 H 361.163 1.40255 0.514673 0
M  V30 3845 H 363.045 2.25303 3.56113 0
M  V30 3846 H 361.72 1.19194 3.00956 0
M  V30 3847 H 360.627 3.22454 1.89668 0
M  V30 3848 H 361.96 4.23249 2.5124 0
M  V30 3849 N 363.613 -0.582584 1.46437 0
M  V30 3850 C 364.841 -1.36682 1.55324 0
M  V30 3851 C 365.256 -1.87796 0.194409 0
M  V30 3852 O 364.613 -1.63623 -0.808318 0
M  V30 3853 C 364.664 -2.55426 2.55812 0
M  V30 3854 O 364.385 -2.0643 3.86417 0
M  V30 3855 C 365.886 -3.47976 2.74641 0
M  V30 3856 H 363.106 -0.417545 0.525259 0
M  V30 3857 H 365.65 -0.708219 1.91845 0
M  V30 3858 H 363.805 -3.17275 2.22295 0
M  V30 3859 H 364.219 -2.83762 4.41111 0
M  V30 3860 H 365.693 -4.27775 3.48874 0
M  V30 3861 H 366.17 -3.99919 1.81553 0
M  V30 3862 H 366.776 -2.91962 3.09255 0
M  V30 3863 N 365.091 -1.34144 -0.827227 0
M  V30 3864 C 366.024 -1.19707 -1.94282 0
M  V30 3865 C 367.002 -0.0897256 -1.62352 0
M  V30 3866 O 368.186 -0.254095 -1.8678 0
M  V30 3867 C 365.313 -0.838646 -3.28153 0
M  V30 3868 C 364.359 -1.95514 -3.79047 0
M  V30 3869 S 365.192 -3.56793 -3.99323 0
M  V30 3870 C 366.348 -3.22983 -5.36127 0
M  V30 3871 H 366.581 -2.1414 -2.06231 0
M  V30 3872 H 364.114 -1.19121 -0.982321 0
M  V30 3873 H 366.072 -0.638637 -4.05502 0
M  V30 3874 H 364.733 0.0872776 -3.13979 0
M  V30 3875 H 363.926 -1.658 -4.75948 0
M  V30 3876 H 363.528 -2.11241 -3.08631 0
M  V30 3877 H 365.82 -2.74531 -6.19386 0
M  V30 3878 H 366.763 -4.19008 -5.70822 0
M  V30 3879 H 367.171 -2.59276 -5.01434 0
M  V30 3880 N 366.569 1.04691 -1.17803 0
M  V30 3881 C 367.818 1.77176 -0.963931 0
M  V30 3882 C 368.131 1.88888 0.508015 0
M  V30 3883 O 369.337 2.58164 0.840465 0
M  V30 3884 C 367.793 3.18518 -1.67555 0
M  V30 3885 C 367.401 3.14919 -3.18637 0
M  V30 3886 C 369.145 3.95424 -1.54402 0
M  V30 3887 C 367.052 4.51081 -3.82466 0
M  V30 3888 H 365.982 0.664116 -0.357023 0
M  V30 3889 H 368.633 1.17303 -1.4111 0
M  V30 3890 H 367.015 3.78748 -1.15613 0
M  V30 3891 H 368.189 2.64178 -3.77554 0
M  V30 3892 H 366.504 2.51512 -3.31859 0
M  V30 3893 H 369.101 4.96106 -1.99456 0
M  V30 3894 H 369.444 4.13343 -0.495329 0
M  V30 3895 H 369.977 3.41754 -2.0359 0
M  V30 3896 H 366.716 4.38368 -4.87354 0
M  V30 3897 H 366.236 5.01951 -3.28337 0
M  V30 3898 H 367.915 5.2001 -3.84965 0
M  V30 3899 N 368.047 0.979072 1.23499 0
M  V30 3900 C 369.296 0.642751 1.91185 0
M  V30 3901 C 369.609 -0.827253 1.77245 0
M  V30 3902 O 370.815 -1.27458 2.39722 0
M  V30 3903 C 369.271 1.09901 3.42709 0
M  V30 3904 C 368.879 2.59327 3.65313 0
M  V30 3905 C 370.623 0.836371 4.16179 0
M  V30 3906 C 368.53 2.98627 5.10467 0
M  V30 3907 H 367.46 0.236698 0.715884 0
M  V30 3908 H 370.111 1.1868 1.39955 0
M  V30 3909 H 368.493 0.48319 3.93041 0
M  V30 3910 H 369.667 3.26136 3.25533 0
M  V30 3911 H 367.982 2.83323 3.05151 0
M  V30 3912 H 370.579 1.10586 5.23139 0
M  V30 3913 H 370.922 -0.227509 4.15678 0
M  V30 3914 H 371.455 1.41371 3.71832 0
M  V30 3915 H 368.194 4.04133 5.16098 0
M  V30 3916 H 367.714 2.3651 5.51201 0
M  V30 3917 H 369.393 2.89159 5.78788 0
M  V30 3918 N 369.525 -1.3858 0.750561 0
M  V30 3919 C 370.802 -1.94231 0.231009 0
M  V30 3920 C 371.182 -1.68611 -1.27018 0
M  V30 3921 O 370.53 -1.02296 -2.04323 0
M  V30 3922 C 370.74 -3.44123 0.581428 0
M  V30 3923 C 372.088 -4.2116 0.539389 0
M  V30 3924 O 373.112 -3.52391 0.519541 0
M  V30 3925 O 371.971 -5.43749 0.54765 0
M  V30 3926 H 369.065 -0.825639 0.0474263 0
M  V30 3927 H 371.611 -1.4799 0.830478 0
M  V30 3928 H 370.383 -3.56267 1.61833 0
M  V30 3929 H 370.006 -3.97573 -0.0462047 0
M  V30 3930 N 371.003 -0.499398 -1.49478 0
M  V30 3931 C 371.951 0.293604 -2.3074 0
M  V30 3932 C 372.945 0.96427 -1.39277 0
M  V30 3933 O 374.151 0.892141 -1.56336 0
M  V30 3934 H 370.526 0.113541 -0.743379 0
M  V30 3935 H 372.497 -0.411772 -2.95545 0
M  V30 3936 C 371.246 1.3462 -3.20582 0
M  V30 3937 H 370.569 0.83954 -3.90886 0
M  V30 3938 H 372.009 1.87308 -3.80384 0
M  V30 3939 C 370.468 2.36351 -2.40083 0
M  V30 3940 O 370.998 3.422 -2.10385 0
M  V30 3941 N 369.204 2.0878 -2.02137 0
M  V30 3942 H 368.751 1.22723 -2.26488 0
M  V30 3943 H 368.709 2.77075 -1.48583 0
M  V30 3944 N 372.481 1.55866 -0.233164 0
M  V30 3945 C 373.721 2.00506 0.397078 0
M  V30 3946 C 374.085 1.1176 1.56121 0
M  V30 3947 O 375.286 1.45796 2.25825 0
M  V30 3948 C 373.557 3.4811 0.809601 0
M  V30 3949 S 375.116 4.14765 1.43231 0
M  V30 3950 H 371.934 0.699828 0.125547 0
M  V30 3951 H 374.536 1.92429 -0.345177 0
M  V30 3952 H 373.24 4.10373 -0.0471601 0
M  V30 3953 H 372.771 3.60085 1.58438 0
M  V30 3954 H 374.786 4.14914 2.7214 0
M  V30 3955 N 373.959 -0.0401083 1.57549 0
M  V30 3956 C 375.199 -0.738098 1.90608 0
M  V30 3957 C 375.563 -1.73107 0.830539 0
M  V30 3958 O 376.764 -2.4765 1.04513 0
M  V30 3959 C 375.035 -1.39985 3.28845 0
M  V30 3960 S 376.594 -2.12852 3.83718 0
M  V30 3961 H 373.412 -0.24477 0.667539 0
M  V30 3962 H 376.014 0.00693599 1.95499 0
M  V30 3963 H 374.718 -0.663775 4.04997 0
M  V30 3964 H 374.249 -2.18366 3.2723 0
M  V30 3965 H 376.264 -3.39842 3.61555 0
M  V30 3966 N 375.437 -1.54477 -0.31217 0
M  V30 3967 C 376.37 -1.79519 -1.40884 0
M  V30 3968 C 377.348 -0.645753 -1.49227 0
M  V30 3969 O 378.532 -0.884468 -1.66461 0
M  V30 3970 C 375.659 -1.92194 -2.78889 0
M  V30 3971 C 374.705 -3.14555 -2.88023 0
M  V30 3972 S 375.538 -4.72893 -2.51262 0
M  V30 3973 C 376.694 -4.8849 -3.91317 0
M  V30 3974 H 376.927 -2.72256 -1.19432 0
M  V30 3975 H 374.46 -1.45746 -0.509654 0
M  V30 3976 H 376.418 -2.00182 -3.58382 0
M  V30 3977 H 375.079 -1.00414 -2.97617 0
M  V30 3978 H 374.272 -3.20193 -3.89221 0
M  V30 3979 H 373.874 -3.04955 -2.16514 0
M  V30 3980 H 376.166 -4.71826 -4.86196 0
M  V30 3981 H 377.109 -5.90588 -3.90656 0
M  V30 3982 H 377.517 -4.16715 -3.80801 0
M  V30 3983 N 376.915 0.57481 -1.46744 0
M  V30 3984 C 377.847 1.69804 -1.53946 0
M  V30 3985 C 378.86 1.57098 -0.427106 0
M  V30 3986 O 380.049 1.64378 -0.695863 0
M  V30 3987 C 377.149 3.08125 -1.4111 0
M  V30 3988 C 376.322 3.46757 -2.66605 0
M  V30 3989 C 375.381 4.6417 -2.47855 0
M  V30 3990 O 374.407 4.69634 -3.21609 0
M  V30 3991 N 375.609 5.59553 -1.54534 0
M  V30 3992 H 378.374 1.64077 -2.50796 0
M  V30 3993 H 375.935 0.761 -1.429 0
M  V30 3994 H 377.927 3.84478 -1.26328 0
M  V30 3995 H 376.497 3.08175 -0.524109 0
M  V30 3996 H 375.717 2.6003 -2.96274 0
M  V30 3997 H 377.005 3.69337 -3.49954 0
M  V30 3998 H 376.403 5.57881 -0.937304 0
M  V30 3999 H 374.96 6.35304 -1.45711 0
M  V30 4000 N 378.394 1.34581 0.820102 0
M  V30 4001 C 379.324 1.29038 1.94606 0
M  V30 4002 C 380.305 0.1673 1.69275 0
M  V30 4003 O 381.49 0.360112 1.90832 0
M  V30 4004 C 378.62 1.04793 3.31113 0
M  V30 4005 C 377.574 2.13597 3.70891 0
M  V30 4006 C 376.9 1.74537 5.05412 0
M  V30 4007 C 378.2 3.55451 3.8269 0
M  V30 4008 H 379.894 2.23248 1.99501 0
M  V30 4009 H 377.44 1.0747 0.958449 0
M  V30 4010 H 379.393 0.995592 4.0947 0
M  V30 4011 H 378.117 0.0702565 3.26524 0
M  V30 4012 H 376.776 2.17905 2.9481 0
M  V30 4013 H 376.424 0.754226 4.97313 0
M  V30 4014 H 376.124 2.47361 5.32997 0
M  V30 4015 H 377.648 1.70803 5.86224 0
M  V30 4016 H 379.062 3.5354 4.51312 0
M  V30 4017 H 377.459 4.26922 4.21732 0
M  V30 4018 H 378.529 3.92587 2.84611 0
M  V30 4019 N 379.872 -1.04064 1.18357 0
M  V30 4020 C 381.118 -1.77528 0.980397 0
M  V30 4021 C 381.451 -1.87948 -0.48879 0
M  V30 4022 O 380.726 -1.3876 -1.36293 0
M  V30 4023 C 381.009 -3.20797 1.63588 0
M  V30 4024 C 380.862 -3.1832 3.17793 0
M  V30 4025 C 382.181 -4.18911 1.34914 0
M  V30 4026 H 379.3 -0.644443 0.357578 0
M  V30 4027 H 381.942 -1.2156 1.46024 0
M  V30 4028 H 380.092 -3.68586 1.22788 0
M  V30 4029 H 381.764 -2.78521 3.67728 0
M  V30 4030 H 380.007 -2.56351 3.49952 0
M  V30 4031 H 380.678 -4.19489 3.58794 0
M  V30 4032 H 383.154 -3.7967 1.70265 0
M  V30 4033 H 382.03 -5.17374 1.83346 0
M  V30 4034 H 382.291 -4.41262 0.272027 0
M  V30 4035 N 381.35 -0.985608 -1.22978 0
M  V30 4036 C 382.282 -0.488154 -2.23941 0
M  V30 4037 C 383.295 0.41282 -1.57479 0
M  V30 4038 O 384.484 0.216121 -1.77187 0
M  V30 4039 C 381.584 0.312611 -3.37455 0
M  V30 4040 C 380.757 -0.582741 -4.33501 0
M  V30 4041 C 379.816 0.165064 -5.25941 0
M  V30 4042 O 378.842 -0.447077 -5.67442 0
M  V30 4043 N 380.044 1.44953 -5.62111 0
M  V30 4044 H 382.809 -1.3563 -2.67254 0
M  V30 4045 H 380.37 -0.859477 -1.37203 0
M  V30 4046 H 382.362 0.821357 -3.96277 0
M  V30 4047 H 380.932 1.0818 -2.93285 0
M  V30 4048 H 380.152 -1.27225 -3.73105 0
M  V30 4049 H 381.44 -1.19275 -4.94622 0
M  V30 4050 H 380.838 1.9683 -5.30353 0
M  V30 4051 H 379.395 1.90361 -6.23383 0
M  V30 4052 N 382.828 1.3818 -0.7579 0
M  V30 4053 C 383.776 2.32277 -0.122482 0
M  V30 4054 C 384.77 1.54238 0.700505 0
M  V30 4055 O 385.976 1.69737 0.599119 0
M  V30 4056 H 382.351 0.751712 -0.0208143 0
M  V30 4057 H 384.322 2.83469 -0.932099 0
M  V30 4058 C 383.071 3.39447 0.753076 0
M  V30 4059 H 382.394 3.99591 0.129184 0
M  V30 4060 H 383.834 4.07684 1.16489 0
M  V30 4061 C 382.293 2.78375 1.8976 0
M  V30 4062 O 382.823 2.68025 2.99208 0
M  V30 4063 N 381.029 2.36121 1.69397 0
M  V30 4064 H 380.576 2.4474 0.803762 0
M  V30 4065 H 380.534 1.95602 2.46145 0
M  V30 4066 N 384.306 0.507319 1.49211 0
M  V30 4067 C 385.717 0.0611118 1.866 0
M  V30 4068 C 386.068 -1.35488 1.41907 0
M  V30 4069 O 385.193 -2.0108 0.799726 0
M  V30 4070 C 385.788 0.104125 3.3864 0
M  V30 4071 C 384.347 -0.28677 3.75306 0
M  V30 4072 C 383.494 0.473893 2.73221 0
M  V30 4073 H 386.445 0.719775 1.41439 0
M  V30 4074 H 386.466 -0.689672 3.74198 0
M  V30 4075 H 385.978 1.13482 3.71138 0
M  V30 4076 H 384.079 -1.32046 3.48417 0
M  V30 4077 H 384.192 0.0370745 4.79086 0
M  V30 4078 H 382.556 -0.0770644 2.54583 0
M  V30 4079 H 383.339 1.50478 3.08563 0
M  V30 4080 N 385.784 -1.5574 0.241426 0
M  V30 4081 C 387.014 -2.02913 -0.38857 0
M  V30 4082 C 387.422 -1.12014 -1.52478 0
M  V30 4083 O 386.765 -0.125903 -1.83268 0
M  V30 4084 C 386.827 -3.4636 -0.963075 0
M  V30 4085 C 386.491 -4.56982 0.0401916 0
M  V30 4086 C 387.488 -5.12941 0.847766 0
M  V30 4087 C 385.173 -5.0203 0.164699 0
M  V30 4088 C 387.167 -6.12437 1.76636 0
M  V30 4089 C 384.854 -6.01358 1.0868 0
M  V30 4090 C 385.852 -6.5644 1.88616 0
M  V30 4091 O 385.54 -7.53831 2.79273 0
M  V30 4092 H 385.272 -0.668983 -0.0971452 0
M  V30 4093 H 387.826 -2.02198 0.361248 0
M  V30 4094 H 386.056 -3.44206 -1.76235 0
M  V30 4095 H 387.745 -3.77065 -1.50257 0
M  V30 4096 H 388.511 -4.78974 0.762133 0
M  V30 4097 H 384.39 -4.58824 -0.447411 0
M  V30 4098 H 387.934 -6.55355 2.39071 0
M  V30 4099 H 383.831 -6.34746 1.17338 0
M  V30 4100 H 384.599 -7.71428 2.73572 0
M  V30 4101 N 387.262 0.0317525 -1.57568 0
M  V30 4102 C 388.194 1.06073 -2.03178 0
M  V30 4103 C 389.207 1.32627 -0.944132 0
M  V30 4104 O 390.396 1.30162 -1.22148 0
M  V30 4105 C 387.496 2.40297 -2.38978 0
M  V30 4106 C 386.669 2.33137 -3.70089 0
M  V30 4107 C 385.728 3.49787 -3.9311 0
M  V30 4108 O 384.754 3.29403 -4.64201 0
M  V30 4109 N 385.956 4.71562 -3.38541 0
M  V30 4110 H 388.721 0.672006 -2.92069 0
M  V30 4111 H 386.282 0.219745 -1.60402 0
M  V30 4112 H 388.274 3.1705 -2.51518 0
M  V30 4113 H 386.844 2.71024 -1.55771 0
M  V30 4114 H 386.064 1.415 -3.67928 0
M  V30 4115 H 387.352 2.25493 -4.56104 0
M  V30 4116 H 386.75 4.91024 -2.80912 0
M  V30 4117 H 385.307 5.45689 -3.56464 0
M  V30 4118 N 388.74 1.54641 0.303973 0
M  V30 4119 C 389.987 1.7378 1.03955 0
M  V30 4120 C 390.315 0.521986 1.87365 0
M  V30 4121 O 389.57 -0.496099 1.89308 0
M  V30 4122 C 389.869 2.97753 1.97681 0
M  V30 4123 C 389.535 4.31671 1.30271 0
M  V30 4124 C 388.197 4.68075 1.11619 0
M  V30 4125 C 390.549 5.147 0.82055 0
M  V30 4126 C 387.877 5.8509 0.434304 0
M  V30 4127 C 390.229 6.32416 0.152395 0
M  V30 4128 C 388.893 6.67484 -0.0461067 0
M  V30 4129 H 388.163 0.635908 0.380398 0
M  V30 4130 H 390.81 1.88896 0.314718 0
M  V30 4131 H 389.115 2.77406 2.76682 0
M  V30 4132 H 390.812 3.09756 2.54661 0
M  V30 4133 H 387.402 4.03041 1.45795 0
M  V30 4134 H 391.586 4.87077 0.952374 0
M  V30 4135 H 386.842 6.10806 0.269495 0
M  V30 4136 H 391.016 6.96023 -0.229126 0
M  V30 4137 H 388.643 7.58011 -0.576494 0
M  V30 4138 N 390.218 -0.567019 1.47046 0
M  V30 4139 C 391.495 -1.3276 1.43646 0
M  V30 4140 C 391.875 -2.1071 0.128186 0
M  V30 4141 O 391.223 -2.10441 -0.890326 0
M  V30 4142 C 391.433 -2.2404 2.67595 0
M  V30 4143 C 392.781 -2.85372 3.14401 0
M  V30 4144 O 393.805 -2.34346 2.68254 0
M  V30 4145 O 392.664 -3.78091 3.946 0
M  V30 4146 H 389.758 -0.597293 0.571988 0
M  V30 4147 H 392.304 -0.586735 1.59234 0
M  V30 4148 H 391.076 -1.65975 3.54356 0
M  V30 4149 H 390.699 -3.05439 2.54544 0
M  V30 4150 N 391.696 -1.35014 -0.812953 0
M  V30 4151 C 392.942 -1.2812 -1.57204 0
M  V30 4152 C 393.275 0.145869 -1.93651 0
M  V30 4153 O 392.55 1.0937 -1.60836 0
M  V30 4154 C 392.833 -2.18162 -2.86492 0
M  V30 4155 C 392.686 -3.69454 -2.56561 0
M  V30 4156 C 394.005 -2.07439 -3.88145 0
M  V30 4157 H 391.124 -0.466746 -0.570366 0
M  V30 4158 H 393.766 -1.65357 -0.935783 0
M  V30 4159 H 391.916 -1.86535 -3.40789 0
M  V30 4160 H 393.588 -4.11493 -2.08497 0
M  V30 4161 H 391.831 -3.9005 -1.89851 0
M  V30 4162 H 392.502 -4.27835 -3.48799 0
M  V30 4163 H 394.978 -2.35228 -3.4323 0
M  V30 4164 H 393.854 -2.7265 -4.76396 0
M  V30 4165 H 394.115 -1.05439 -4.29343 0
M  V30 4166 N 393.175 1.03435 -1.18907 0
M  V30 4167 C 394.105 2.13503 -0.945448 0
M  V30 4168 C 395.086 1.69682 0.119189 0
M  V30 4169 O 396.271 1.94169 -0.034707 0
M  V30 4170 C 393.401 3.44004 -0.477316 0
M  V30 4171 C 392.355 4.0148 -1.48316 0
M  V30 4172 C 391.681 5.27537 -0.872311 0
M  V30 4173 C 392.981 4.36921 -2.86177 0
M  V30 4174 H 394.675 2.34141 -1.86597 0
M  V30 4175 H 392.221 1.12523 -0.898584 0
M  V30 4176 H 394.174 4.20372 -0.294204 0
M  V30 4177 H 392.898 3.23072 0.478786 0
M  V30 4178 H 391.557 3.27201 -1.65332 0
M  V30 4179 H 391.205 5.02917 0.0911752 0
M  V30 4180 H 390.905 5.66954 -1.54393 0
M  V30 4181 H 392.429 6.06576 -0.699871 0
M  V30 4182 H 393.843 5.04248 -2.72776 0
M  V30 4183 H 392.24 4.87405 -3.50081 0
M  V30 4184 H 393.31 3.46466 -3.39248 0
M  V30 4185 N 394.653 0.992116 1.22453 0
M  V30 4186 C 395.899 0.668523 1.91464 0
M  V30 4187 C 396.232 -0.797313 1.77078 0
M  V30 4188 O 395.507 -1.5765 1.13916 0
M  V30 4189 C 395.79 1.07424 3.43703 0
M  V30 4190 C 395.643 2.59857 3.67143 0
M  V30 4191 C 396.962 0.626891 4.35612 0
M  V30 4192 H 394.081 0.244341 0.695318 0
M  V30 4193 H 396.723 1.2355 1.44345 0
M  V30 4194 H 394.873 0.591816 3.83966 0
M  V30 4195 H 396.545 3.15764 3.3629 0
M  V30 4196 H 394.788 3.01961 3.11451 0
M  V30 4197 H 395.459 2.83296 4.73759 0
M  V30 4198 H 397.935 1.04125 4.02861 0
M  V30 4199 H 396.811 0.939076 5.40807 0
M  V30 4200 H 397.072 -0.472457 4.39568 0
M  V30 4201 N 396.131 -1.37776 0.765217 0
M  V30 4202 C 397.064 -2.28008 0.0935025 0
M  V30 4203 C 398.042 -1.45985 -0.716047 0
M  V30 4204 O 399.226 -1.75331 -0.692203 0
M  V30 4205 C 396.353 -3.27228 -0.874052 0
M  V30 4206 C 395.399 -4.26239 -0.149307 0
M  V30 4207 S 396.232 -5.22827 1.15809 0
M  V30 4208 C 397.388 -6.256 0.193906 0
M  V30 4209 H 397.621 -2.84631 0.858637 0
M  V30 4210 H 395.154 -1.43952 0.558313 0
M  V30 4211 H 397.112 -3.84902 -1.42691 0
M  V30 4212 H 395.773 -2.69565 -1.61225 0
M  V30 4213 H 394.966 -4.96213 -0.88254 0
M  V30 4214 H 394.568 -3.7252 0.332366 0
M  V30 4215 H 396.86 -6.74508 -0.636011 0
M  V30 4216 H 397.803 -7.02838 0.861638 0
M  V30 4217 H 398.211 -5.64173 -0.191975 0
M  V30 4218 N 397.609 -0.515225 -1.4894 0
M  V30 4219 C 399.02 -0.0710067 -1.86565 0
M  V30 4220 C 399.371 1.34733 -1.42623 0
M  V30 4221 O 398.496 2.00653 -0.810379 0
M  V30 4222 C 399.091 -0.122083 -3.3858 0
M  V30 4223 C 397.65 0.266863 -3.75453 0
M  V30 4224 C 396.797 -0.488376 -2.72966 0
M  V30 4225 H 399.748 -0.727266 -1.41055 0
M  V30 4226 H 399.769 0.669818 -3.74558 0
M  V30 4227 H 399.281 -1.15448 -3.70531 0
M  V30 4228 H 397.382 1.30196 -3.49113 0
M  V30 4229 H 397.495 -0.0624811 -4.79059 0
M  V30 4230 H 395.859 0.0635622 -2.54621 0
M  V30 4231 H 396.642 -1.52113 -3.07761 0
M  V30 4232 N 399.087 1.5561 -0.249682 0
M  V30 4233 C 400.035 2.22894 0.664906 0
M  V30 4234 C 401.029 1.21743 1.17792 0
M  V30 4235 O 402.235 1.39748 1.13449 0
M  V30 4236 H 398.61 0.715022 0.232912 0
M  V30 4237 H 400.581 2.98307 0.0742998 0
M  V30 4238 C 399.33 2.94424 1.84959 0
M  V30 4239 H 398.653 3.72031 1.46399 0
M  V30 4240 H 400.093 3.44862 2.4667 0
M  V30 4241 C 398.552 1.98454 2.72245 0
M  V30 4242 O 399.082 1.51939 3.71857 0
M  V30 4243 N 397.288 1.65496 2.38871 0
M  V30 4244 H 396.835 2.03517 1.57919 0
M  V30 4245 H 396.793 1.0155 2.97548 0
M  V30 4246 N 400.565 -0.0233959 1.57583 0
M  V30 4247 C 401.495 -1.02162 2.09965 0
M  V30 4248 C 402.476 -1.3735 1.00344 0
M  V30 4249 O 403.661 -1.46135 1.27899 0
M  V30 4250 C 400.791 -2.32081 2.58371 0
M  V30 4251 C 399.745 -2.1112 3.72307 0
M  V30 4252 C 399.071 -3.46848 4.06941 0
M  V30 4253 C 400.371 -1.49276 5.00514 0
M  V30 4254 H 402.065 -0.585557 2.93618 0
M  V30 4255 H 399.611 -0.280218 1.41247 0
M  V30 4256 H 401.564 -3.02249 2.93639 0
M  V30 4257 H 400.288 -2.77758 1.71808 0
M  V30 4258 H 398.947 -1.43384 3.37397 0
M  V30 4259 H 398.595 -3.90184 3.17436 0
M  V30 4260 H 398.295 -3.33646 4.83688 0
M  V30 4261 H 399.819 -4.18369 4.44747 0
M  V30 4262 H 401.233 -2.09368 5.33702 0
M  V30 4263 H 399.63 -1.46632 5.8191 0
M  V30 4264 H 400.7 -0.459217 4.82721 0
M  V30 4265 N 402.043 -1.548 -0.295768 0
M  V30 4266 C 403.273 -1.78069 -1.04762 0
M  V30 4267 C 403.681 -0.542847 -1.81245 0
M  V30 4268 O 403.024 0.497051 -1.76848 0
M  V30 4269 C 403.086 -2.93881 -2.07061 0
M  V30 4270 C 402.75 -4.31777 -1.49725 0
M  V30 4271 C 403.747 -5.11613 -0.924581 0
M  V30 4272 C 401.432 -4.78389 -1.5313 0
M  V30 4273 C 403.426 -6.36184 -0.393594 0
M  V30 4274 C 401.113 -6.02921 -0.996447 0
M  V30 4275 C 402.111 -6.81654 -0.428569 0
M  V30 4276 O 401.799 -8.0384 0.0981593 0
M  V30 4277 H 401.531 -0.597475 -0.316226 0
M  V30 4278 H 404.085 -2.02584 -0.338973 0
M  V30 4279 H 402.315 -2.65003 -2.81621 0
M  V30 4280 H 404.004 -3.04679 -2.6819 0
M  V30 4281 H 404.77 -4.76743 -0.891136 0
M  V30 4282 H 400.649 -4.17132 -1.9627 0
M  V30 4283 H 404.193 -6.97582 0.0503014 0
M  V30 4284 H 400.09 -6.37277 -1.02706 0
M  V30 4285 H 400.858 -8.18499 -0.0146455 0
M  V30 4286 N 403.521 0.559213 -1.47345 0
M  V30 4287 C 404.769 1.31388 -1.53563 0
M  V30 4288 C 405.09 1.93985 -0.198678 0
M  V30 4289 O 404.36 1.79825 0.777167 0
M  V30 4290 H 402.94 0.487901 -0.565652 0
M  V30 4291 H 405.602 0.65315 -1.8363 0
M  V30 4292 H 404.698 2.10844 -2.30111 0
M  V30 4293 N 404.999 1.35443 0.805782 0
M  V30 4294 C 405.947 1.28465 1.93906 0
M  V30 4295 C 406.941 0.17943 1.68447 0
M  V30 4296 O 408.147 0.345459 1.76654 0
M  V30 4297 H 404.522 0.399528 0.637088 0
M  V30 4298 H 406.493 2.24206 1.96912 0
M  V30 4299 C 405.242 1.07432 3.30687 0
M  V30 4300 H 404.565 1.91716 3.50835 0
M  V30 4301 H 406.005 1.06591 4.10383 0
M  V30 4302 C 404.464 -0.22179 3.36169 0
M  V30 4303 O 404.994 -1.21731 3.82811 0
M  V30 4304 N 403.2 -0.260841 2.89427 0
M  V30 4305 H 402.747 0.549884 2.51663 0
M  V30 4306 H 402.705 -1.12777 2.93477 0
M  V30 4307 N 406.477 -1.02803 1.19454 0
M  V30 4308 C 407.726 -1.7562 0.991996 0
M  V30 4309 C 408.039 -1.89672 -0.477901 0
M  V30 4310 O 409.245 -2.59468 -0.799287 0
M  V30 4311 C 407.701 -3.15812 1.72601 0
M  V30 4312 C 407.309 -3.0981 3.23607 0
M  V30 4313 C 409.053 -3.92918 1.60674 0
M  V30 4314 C 406.96 -4.44939 3.89594 0
M  V30 4315 H 405.89 -0.658352 0.367543 0
M  V30 4316 H 408.541 -1.15044 1.42959 0
M  V30 4317 H 406.923 -3.7686 1.21624 0
M  V30 4318 H 408.097 -2.58138 3.81709 0
M  V30 4319 H 406.412 -2.46201 3.35819 0
M  V30 4320 H 409.009 -4.9287 2.07323 0
M  V30 4321 H 409.352 -4.12502 0.561025 0
M  V30 4322 H 409.885 -3.38472 2.09001 0
M  V30 4323 H 406.624 -4.30559 4.94267 0
M  V30 4324 H 406.144 -4.96664 3.36281 0
M  V30 4325 H 407.823 -5.1382 3.93189 0
M  V30 4326 N 407.956 -0.998596 -1.21925 0
M  V30 4327 C 409.205 -0.673085 -1.90138 0
M  V30 4328 C 409.518 0.79895 -1.78539 0
M  V30 4329 O 410.724 1.23628 -2.4172 0
M  V30 4330 C 409.18 -1.15339 -3.40918 0
M  V30 4331 C 408.788 -2.65106 -3.61141 0
M  V30 4332 C 410.532 -0.902476 -4.14796 0
M  V30 4333 C 408.439 -3.0671 -5.05651 0
M  V30 4334 H 407.369 -0.248057 -0.712028 0
M  V30 4335 H 410.02 -1.20891 -1.38049 0
M  V30 4336 H 408.402 -0.545658 -3.92223 0
M  V30 4337 H 409.576 -3.31274 -3.20304 0
M  V30 4338 H 407.891 -2.88142 -3.00605 0
M  V30 4339 H 410.488 -1.18895 -5.21314 0
M  V30 4340 H 410.831 0.161349 -4.15987 0
M  V30 4341 H 411.364 -1.47269 -3.69536 0
M  V30 4342 H 408.103 -4.12292 -5.09603 0
M  V30 4343 H 407.623 -2.45249 -5.47369 0
M  V30 4344 H 409.302 -2.9833 -5.74115 0
M  V30 4345 N 409.434 1.37368 -0.772513 0
M  V30 4346 C 410.711 1.93839 -0.26188 0
M  V30 4347 C 411.091 1.7061 1.24319 0
M  V30 4348 O 410.439 1.05534 2.02669 0
M  V30 4349 C 410.649 3.43154 -0.636102 0
M  V30 4350 C 411.997 4.20249 -0.606324 0
M  V30 4351 O 413.021 3.5152 -0.575538 0
M  V30 4352 O 411.88 5.42809 -0.634086 0
M  V30 4353 H 408.974 0.82478 -0.0605555 0
M  V30 4354 H 411.52 1.4665 -0.853917 0
M  V30 4355 H 410.292 3.53647 -1.6748 0
M  V30 4356 H 409.915 3.97596 -0.0170516 0
M  V30 4357 N 410.912 0.523116 1.48665 0
M  V30 4358 C 411.86 -0.256859 2.31177 0
M  V30 4359 C 412.854 -0.94199 1.40794 0
M  V30 4360 O 414.06 -0.867157 1.57735 0
M  V30 4361 H 410.435 -0.1017 0.745091 0
M  V30 4362 H 412.406 0.458739 2.94853 0
M  V30 4363 C 411.155 -1.29503 3.22683 0
M  V30 4364 H 410.478 -0.777248 3.92172 0
M  V30 4365 H 411.918 -1.81233 3.83315 0
M  V30 4366 C 410.377 -2.32501 2.43813 0
M  V30 4367 O 410.907 -3.3881 2.15803 0
M  V30 4368 N 409.113 -2.05538 2.05432 0
M  V30 4369 H 408.66 -1.19104 2.28412 0
M  V30 4370 H 408.618 -2.74676 1.52973 0
M  V30 4371 N 412.39 -1.55475 0.257931 0
M  V30 4372 C 413.32 -2.24815 -0.630912 0
M  V30 4373 C 414.301 -1.23224 -1.17259 0
M  V30 4374 O 415.486 -1.51904 -1.20991 0
M  V30 4375 C 412.616 -2.95609 -1.82298 0
M  V30 4376 C 411.57 -4.03982 -1.41359 0
M  V30 4377 C 410.896 -4.6226 -2.68738 0
M  V30 4378 C 412.196 -5.19109 -0.57648 0
M  V30 4379 H 413.89 -2.99354 -0.0526878 0
M  V30 4380 H 411.436 -1.4398 -0.023901 0
M  V30 4381 H 413.389 -3.42822 -2.45054 0
M  V30 4382 H 412.113 -2.18577 -2.42676 0
M  V30 4383 H 410.772 -3.57555 -0.809324 0
M  V30 4384 H 410.42 -3.81915 -3.27338 0
M  V30 4385 H 410.12 -5.35424 -2.42065 0
M  V30 4386 H 411.644 -5.12212 -3.32372 0
M  V30 4387 H 413.058 -5.62479 -1.10861 0
M  V30 4388 H 411.455 -5.98729 -0.405351 0
M  V30 4389 H 412.525 -4.83174 0.408776 0
M  V30 4390 N 413.868 0.0150385 -1.57593 0
M  V30 4391 C 414.831 0.995996 -2.06428 0
M  V30 4392 C 415.831 1.2818 -0.970903 0
M  V30 4393 O 417.021 1.22949 -1.23406 0
M  V30 4394 C 414.153 2.32506 -2.49307 0
M  V30 4395 H 415.346 0.573873 -2.94358 0
M  V30 4396 H 412.899 0.262186 -1.54085 0
M  V30 4397 H 413.634 2.79438 -1.64575 0
M  V30 4398 H 413.419 2.13087 -3.29145 0
M  V30 4399 H 414.909 3.02906 -2.87468 0
M  V30 4400 N 415.346 1.54954 0.287554 0
M  V30 4401 C 416.309 1.86076 1.33823 0
M  V30 4402 C 417.309 0.734414 1.43049 0
M  V30 4403 O 418.499 1.00266 1.42452 0
M  V30 4404 C 415.631 2.05305 2.72144 0
M  V30 4405 H 416.824 2.79984 1.07465 0
M  V30 4406 H 414.377 1.47223 0.524902 0
M  V30 4407 H 415.112 1.1373 3.03704 0
M  V30 4408 H 414.897 2.873 2.66836 0
M  V30 4409 H 416.387 2.30706 3.48087 0
M  V30 4410 N 416.824 -0.551391 1.4764 0
M  V30 4411 C 418.072 -1.30572 1.54258 0
M  V30 4412 C 418.393 -1.93877 0.208963 0
M  V30 4413 O 417.663 -1.80234 -0.767619 0
M  V30 4414 H 416.243 -0.484894 0.568231 0
M  V30 4415 H 418.905 -0.643402 1.83974 0
M  V30 4416 H 418.001 -2.09621 2.31226 0
M  V30 4417 N 418.302 -1.35869 -0.798587 0
M  V30 4418 C 419.232 -1.32118 -1.92528 0
M  V30 4419 C 420.213 -0.194209 -1.68988 0
M  V30 4420 O 421.398 -0.390426 -1.90235 0
M  V30 4421 C 418.528 -1.10047 -3.29404 0
M  V30 4422 C 417.482 -2.19471 -3.67446 0
M  V30 4423 C 416.808 -1.82555 -5.02571 0
M  V30 4424 C 418.108 -3.61495 -3.76987 0
M  V30 4425 H 419.802 -2.26394 -1.95924 0
M  V30 4426 H 417.348 -1.08981 -0.94123 0
M  V30 4427 H 419.301 -1.06061 -4.07835 0
M  V30 4428 H 418.025 -0.122195 -3.26371 0
M  V30 4429 H 416.684 -2.22568 -2.91306 0
M  V30 4430 H 416.332 -0.833249 -4.9605 0
M  V30 4431 H 416.032 -2.5581 -5.28995 0
M  V30 4432 H 417.556 -1.80108 -5.83432 0
M  V30 4433 H 418.97 -3.60676 -4.4563 0
M  V30 4434 H 417.367 -4.33577 -4.14887 0
M  V30 4435 H 418.437 -3.97065 -2.78329 0
M  V30 4436 N 419.78 1.02168 -1.19998 0
M  V30 4437 C 421.026 1.75945 -1.00852 0
M  V30 4438 C 421.359 1.88702 0.458828 0
M  V30 4439 O 420.634 1.40911 1.34069 0
M  V30 4440 C 420.917 3.18154 -1.68671 0
M  V30 4441 C 420.77 3.13224 -3.22817 0
M  V30 4442 C 422.089 4.16711 -1.41561 0
M  V30 4443 H 419.208 0.638673 -0.367785 0
M  V30 4444 H 421.85 1.19222 -1.4794 0
M  V30 4445 H 420 3.66586 -1.28636 0
M  V30 4446 H 421.672 2.72635 -3.72112 0
M  V30 4447 H 419.915 2.50751 -3.53986 0
M  V30 4448 H 420.586 4.13728 -3.65422 0
M  V30 4449 H 423.062 3.76913 -1.76284 0
M  V30 4450 H 421.938 5.14391 -1.91553 0
M  V30 4451 H 422.199 4.40774 -0.342193 0
M  V30 4452 N 421.258 1.00505 1.21394 0
M  V30 4453 C 422.506 0.686415 1.90086 0
M  V30 4454 C 422.827 -0.785264 1.7849 0
M  V30 4455 O 422.097 -1.56387 1.17983 0
M  V30 4456 H 420.677 0.2509 0.703604 0
M  V30 4457 H 423.339 1.27417 1.47482 0
M  V30 4458 H 422.435 0.959621 2.96981 0
M  V30 4459 N 422.737 -1.36956 0.779787 0
M  V30 4460 C 423.985 -1.99097 0.347079 0
M  V30 4461 C 424.306 -1.62206 -1.08232 0
M  V30 4462 O 423.576 -0.891373 -1.74446 0
M  V30 4463 H 422.156 -0.736409 0.125342 0
M  V30 4464 H 424.818 -1.67308 0.999696 0
M  V30 4465 H 423.914 -3.09107 0.431162 0
M  V30 4466 N 424.215 -0.530993 -1.48385 0
M  V30 4467 C 425.178 0.220497 -2.28137 0
M  V30 4468 C 426.178 0.866851 -1.35434 0
M  V30 4469 O 427.368 0.726746 -1.58316 0
M  V30 4470 C 424.5 1.31921 -3.1434 0
M  V30 4471 H 425.693 -0.479714 -2.96038 0
M  V30 4472 H 423.246 -0.286968 -1.53643 0
M  V30 4473 H 423.981 2.05264 -2.51072 0
M  V30 4474 H 423.766 0.86085 -3.82533 0
M  V30 4475 H 425.256 1.84776 -3.74497 0
M  V30 4476 N 425.693 1.55336 -0.266172 0
M  V30 4477 C 426.941 1.99003 0.35246 0
M  V30 4478 C 427.262 1.15591 1.57047 0
M  V30 4479 O 426.532 0.243268 1.94384 0
M  V30 4480 H 425.112 0.735025 0.133217 0
M  V30 4481 H 427.774 1.91367 -0.369434 0
M  V30 4482 H 426.87 3.05289 0.648453 0
M  V30 4483 N 427.171 -0.0066808 1.57599 0
M  V30 4484 C 428.417 -0.693947 1.90558 0
M  V30 4485 C 428.75 -1.73792 0.866594 0
M  V30 4486 O 428.025 -1.94156 -0.115548 0
M  V30 4487 C 428.308 -1.34317 3.34112 0
M  V30 4488 C 428.161 -0.311189 4.48722 0
M  V30 4489 C 429.48 -2.27116 3.7697 0
M  V30 4490 H 426.599 -0.250803 0.693013 0
M  V30 4491 H 429.241 0.043242 1.89951 0
M  V30 4492 H 427.391 -1.9715 3.3476 0
M  V30 4493 H 429.063 0.316944 4.6021 0
M  V30 4494 H 427.306 0.367253 4.32243 0
M  V30 4495 H 427.977 -0.804366 5.46108 0
M  V30 4496 H 430.453 -1.74306 3.77831 0
M  V30 4497 H 429.329 -2.69511 4.78179 0
M  V30 4498 H 429.59 -3.14743 3.10466 0
M  V30 4499 N 428.649 -1.55105 -0.279332 0
M  V30 4500 C 429.895 -1.75672 -1.01327 0
M  V30 4501 C 430.228 -0.552739 -1.86168 0
M  V30 4502 O 429.503 0.449827 -1.89227 0
M  V30 4503 C 429.786 -3.05825 -1.90114 0
M  V30 4504 C 429.639 -4.36565 -1.08309 0
M  V30 4505 C 430.958 -3.31975 -2.8893 0
M  V30 4506 H 428.077 -0.639149 -0.366957 0
M  V30 4507 H 430.719 -1.87833 -0.286154 0
M  V30 4508 H 428.869 -2.95588 -2.52111 0
M  V30 4509 H 430.541 -4.58751 -0.484314 0
M  V30 4510 H 428.784 -4.32076 -0.386362 0
M  V30 4511 H 429.455 -5.23946 -1.73737 0
M  V30 4512 H 431.931 -3.41963 -2.37067 0
M  V30 4513 H 430.807 -4.2432 -3.48201 0
M  V30 4514 H 431.068 -2.51309 -3.63725 0
M  V30 4515 N 430.127 0.543554 -1.4793 0
M  V30 4516 C 431.538 1.12561 -1.48953 0
M  V30 4517 C 431.889 1.94578 -0.251754 0
M  V30 4518 O 431.014 2.0665 0.642255 0
M  V30 4519 C 431.609 2.04801 -2.69892 0
M  V30 4520 C 430.168 2.58251 -2.73831 0
M  V30 4521 C 429.315 1.34918 -2.42265 0
M  V30 4522 H 432.266 0.32947 -1.55242 0
M  V30 4523 H 432.287 2.88886 -2.47639 0
M  V30 4524 H 431.799 1.4508 -3.59963 0
M  V30 4525 H 429.9 3.21732 -1.87934 0
M  V30 4526 H 430.013 2.98312 -3.74895 0
M  V30 4527 H 428.377 1.66046 -1.93134 0
M  V30 4528 H 429.16 0.769693 -3.3456 0
M  V30 4529 N 431.605 1.3629 0.791371 0
M  V30 4530 C 432.853 1.30154 1.5461 0
M  V30 4531 C 433.174 -0.119409 1.94634 0
M  V30 4532 O 432.444 -1.05924 1.64794 0
M  V30 4533 H 431.024 0.478784 0.573389 0
M  V30 4534 H 433.686 1.70565 0.94306 0
M  V30 4535 H 432.782 1.92762 2.45457 0
M  V30 4536 N 433.083 -1.0153 1.20538 0
M  V30 4537 C 433.993 -2.13557 0.971113 0
M  V30 4538 C 435.009 -1.73845 -0.0734366 0
M  V30 4539 O 436.185 -2.01075 0.114299 0
M  V30 4540 C 433.25 -3.42661 0.527639 0
M  V30 4541 C 432.311 -3.96608 1.64319 0
M  V30 4542 C 431.544 -5.1955 1.22078 0
M  V30 4543 O 431.767 -5.70329 0.0900198 0
M  V30 4544 O 430.701 -5.66681 2.02871 0
M  V30 4545 H 434.527 -2.3619 1.90913 0
M  V30 4546 H 432.112 -1.11946 0.989362 0
M  V30 4547 H 433.994 -4.20404 0.289621 0
M  V30 4548 H 432.669 -3.21441 -0.381779 0
M  V30 4549 H 431.576 -3.20139 1.93551 0
M  V30 4550 H 432.909 -4.22219 2.52966 0
M  V30 4551 N 434.561 -1.01147 -1.20859 0
M  V30 4552 C 435.786 -0.716698 -1.94623 0
M  V30 4553 C 436.211 0.715415 -1.73964 0
M  V30 4554 O 435.569 1.49157 -1.03062 0
M  V30 4555 C 435.617 -1.0513 -3.44935 0
M  V30 4556 O 434.721 -0.160131 -4.12089 0
M  V30 4557 H 434.062 -0.266404 -0.608214 0
M  V30 4558 H 436.592 -1.35346 -1.53436 0
M  V30 4559 H 436.602 -1.00086 -3.95533 0
M  V30 4560 H 435.277 -2.09475 -3.59295 0
M  V30 4561 H 433.854 -0.267657 -3.71938 0
M  V30 4562 N 436.039 1.36541 -0.78704 0
M  V30 4563 C 437.269 2.03266 -0.369662 0
M  V30 4564 C 437.677 1.59481 1.01796 0
M  V30 4565 O 437.02 0.778612 1.66383 0
M  V30 4566 C 437.082 3.57779 -0.351371 0
M  V30 4567 C 436.746 4.24756 -1.68617 0
M  V30 4568 C 437.743 4.47811 -2.64124 0
M  V30 4569 C 435.428 4.62277 -1.96481 0
M  V30 4570 C 437.422 5.07464 -3.85693 0
M  V30 4571 C 435.109 5.21649 -3.18317 0
M  V30 4572 C 436.107 5.44182 -4.12741 0
M  V30 4573 O 435.795 6.02307 -5.32429 0
M  V30 4574 H 435.527 0.658977 -0.150751 0
M  V30 4575 H 438.081 1.75548 -1.0664 0
M  V30 4576 H 436.311 3.84606 0.401847 0
M  V30 4577 H 438 4.05879 0.0410147 0
M  V30 4578 H 438.766 4.19221 -2.43883 0
M  V30 4579 H 434.645 4.44065 -1.23805 0
M  V30 4580 H 438.189 5.24968 -4.59407 0
M  V30 4581 H 434.086 5.49664 -3.38437 0
M  V30 4582 H 434.854 6.20775 -5.33461 0
M  V30 4583 N 437.518 0.538854 1.48102 0
M  V30 4584 C 438.743 0.0102694 2.07397 0
M  V30 4585 C 439.168 -1.26562 1.39153 0
M  V30 4586 O 438.526 -1.75357 0.460387 0
M  V30 4587 C 438.574 -0.187602 3.60112 0
M  V30 4588 O 437.678 -1.25432 3.92862 0
M  V30 4589 H 437.019 0.0430975 0.6626 0
M  V30 4590 H 439.549 0.749301 1.90385 0
M  V30 4591 H 439.559 -0.407517 4.0596 0
M  V30 4592 H 438.234 0.744386 4.09184 0
M  V30 4593 H 436.811 -1.01636 3.58782 0
M  V30 4594 N 438.996 -1.55193 0.274407 0
M  V30 4595 C 439.959 -2.212 -0.600279 0
M  V30 4596 C 440.959 -1.18963 -1.08187 0
M  V30 4597 O 442.149 -1.43873 -0.982158 0
M  V30 4598 C 439.281 -2.87739 -1.82809 0
M  V30 4599 H 440.474 -2.9989 -0.0239682 0
M  V30 4600 H 438.027 -1.5628 0.0250192 0
M  V30 4601 H 438.762 -2.13058 -2.44493 0
M  V30 4602 H 438.547 -3.62658 -1.49069 0
M  V30 4603 H 440.037 -3.38171 -2.45011 0
M  V30 4604 N 440.474 -0.00167713 -1.576 0
M  V30 4605 C 441.384 1.00548 -2.1196 0
M  V30 4606 C 442.4 1.3758 -1.06526 0
M  V30 4607 O 443.576 1.46278 -1.38436 0
M  V30 4608 C 440.641 2.27809 -2.6135 0
M  V30 4609 C 439.702 1.97074 -3.81393 0
M  V30 4610 C 438.935 3.18267 -4.28417 0
M  V30 4611 O 439.158 4.30009 -3.74765 0
M  V30 4612 O 438.092 3.02167 -5.20556 0
M  V30 4613 H 441.918 0.573373 -2.98238 0
M  V30 4614 H 439.503 0.217255 -1.47812 0
M  V30 4615 H 441.385 3.02568 -2.93309 0
M  V30 4616 H 440.06 2.70254 -1.78169 0
M  V30 4617 H 438.967 1.19785 -3.54404 0
M  V30 4618 H 440.3 1.59464 -4.65652 0
M  V30 4619 N 441.952 1.55251 0.271103 0
M  V30 4620 C 443.182 1.79713 1.01916 0
M  V30 4621 C 443.59 0.571613 1.80359 0
M  V30 4622 O 442.933 -0.468853 1.77616 0
M  V30 4623 C 442.995 2.97138 2.02359 0
M  V30 4624 C 442.659 4.34104 1.42837 0
M  V30 4625 C 443.656 5.13019 0.843071 0
M  V30 4626 C 441.341 4.80765 1.455 0
M  V30 4627 C 443.335 6.36729 0.292333 0
M  V30 4628 C 441.022 6.0443 0.900402 0
M  V30 4629 C 442.02 6.8225 0.32007 0
M  V30 4630 O 441.708 8.03582 -0.226031 0
M  V30 4631 H 441.44 0.602431 0.306681 0
M  V30 4632 H 443.994 2.03097 0.306701 0
M  V30 4633 H 442.224 2.6945 2.77369 0
M  V30 4634 H 443.913 3.08907 2.63309 0
M  V30 4635 H 444.679 4.781 0.815178 0
M  V30 4636 H 440.558 4.20202 1.89609 0
M  V30 4637 H 444.102 6.97414 -0.161274 0
M  V30 4638 H 439.999 6.3883 0.925541 0
M  V30 4639 H 440.767 8.18418 -0.115572 0
M  V30 4640 N 443.43 -0.535701 1.48216 0
M  V30 4641 C 444.393 -1.623 1.61838 0
M  V30 4642 C 445.393 -1.53087 0.492024 0
M  V30 4643 O 446.583 -1.5686 0.757668 0
M  V30 4644 C 443.715 -3.01907 1.58319 0
M  V30 4645 H 444.908 -1.51564 2.58783 0
M  V30 4646 H 442.461 -0.757317 1.36727 0
M  V30 4647 H 443.196 -3.18155 0.628299 0
M  V30 4648 H 442.981 -3.10003 2.40085 0
M  V30 4649 H 444.471 -3.80969 1.71033 0
M  V30 4650 N 444.908 -1.36708 -0.784132 0
M  V30 4651 C 446.154 -1.31426 -1.54451 0
M  V30 4652 C 446.487 0.10476 -1.93917 0
M  V30 4653 O 445.762 1.05934 -1.6312 0
M  V30 4654 C 446.045 -2.24189 -2.818 0
M  V30 4655 C 445.898 -3.74813 -2.48667 0
M  V30 4656 C 447.217 -2.15626 -3.83658 0
M  V30 4657 H 444.336 -0.478739 -0.560337 0
M  V30 4658 H 446.978 -1.67305 -0.900498 0
M  V30 4659 H 445.128 -1.93722 -3.36755 0
M  V30 4660 H 446.8 -4.15823 -1.99722 0
M  V30 4661 H 445.043 -3.93989 -1.81535 0
M  V30 4662 H 445.714 -4.35138 -3.39646 0
M  V30 4663 H 448.19 -2.42456 -3.38163 0
M  V30 4664 H 447.066 -2.82694 -4.70506 0
M  V30 4665 H 447.327 -1.14522 -4.27009 0
M  V30 4666 N 446.386 1.0089 -1.21074 0
M  V30 4667 C 447.633 1.74607 -1.0256 0
M  V30 4668 C 447.961 1.89426 0.44136 0
M  V30 4669 O 447.216 1.42266 1.34384 0
M  V30 4670 C 447.515 3.16335 -1.66334 0
M  V30 4671 C 447.181 3.21474 -3.16173 0
M  V30 4672 C 445.843 3.22583 -3.57062 0
M  V30 4673 C 448.195 3.19025 -4.12156 0
M  V30 4674 C 445.523 3.18925 -4.92446 0
M  V30 4675 C 447.875 3.16909 -5.47496 0
M  V30 4676 C 446.539 3.16326 -5.87787 0
M  V30 4677 H 445.809 0.638933 -0.375294 0
M  V30 4678 H 448.456 1.18274 -1.50611 0
M  V30 4679 H 446.761 3.75876 -1.10566 0
M  V30 4680 H 448.458 3.72083 -1.49516 0
M  V30 4681 H 445.048 3.2135 -2.83605 0
M  V30 4682 H 449.232 3.17332 -3.81595 0
M  V30 4683 H 444.488 3.16809 -5.22917 0
M  V30 4684 H 448.662 3.13968 -6.21609 0
M  V30 4685 H 446.289 3.13246 -6.92662 0
M  V30 4686 N 447.864 1.01787 1.20321 0
M  V30 4687 C 448.774 0.598898 2.26827 0
M  V30 4688 C 449.79 -0.36418 1.70146 0
M  V30 4689 O 450.966 -0.224812 2.00141 0
M  V30 4690 C 448.031 -0.0549769 3.46656 0
M  V30 4691 C 447.092 0.954205 4.18561 0
M  V30 4692 C 446.325 0.331439 5.3267 0
M  V30 4693 O 446.548 -0.86851 5.63749 0
M  V30 4694 O 445.482 1.0488 5.92692 0
M  V30 4695 H 449.308 1.48562 2.64883 0
M  V30 4696 H 446.893 0.787434 1.26964 0
M  V30 4697 H 448.775 -0.420102 4.19301 0
M  V30 4698 H 447.45 -0.915876 3.10473 0
M  V30 4699 H 446.357 1.37072 3.48083 0
M  V30 4700 H 447.69 1.78511 4.58688 0
M  V30 4701 N 449.342 -1.36122 0.79427 0
M  V30 4702 C 450.57 -2.03362 0.380989 0
M  V30 4703 C 450.985 -1.59881 -1.00416 0
M  V30 4704 O 450.342 -0.790515 -1.6449 0
M  V30 4705 C 450.393 -3.58804 0.440649 0
M  V30 4706 O 450.114 -4.007 1.77118 0
M  V30 4707 C 451.615 -4.43296 0.0186117 0
M  V30 4708 H 448.835 -0.652526 0.156367 0
M  V30 4709 H 451.379 -1.73998 1.07447 0
M  V30 4710 H 449.534 -3.8686 -0.204458 0
M  V30 4711 H 449.948 -4.95309 1.72538 0
M  V30 4712 H 451.422 -5.51887 0.111488 0
M  V30 4713 H 451.899 -4.2684 -1.03461 0
M  V30 4714 H 452.505 -4.20512 0.636395 0
M  V30 4715 N 450.82 -0.546701 -1.47814 0
M  V30 4716 C 452.068 -0.0187037 -2.02091 0
M  V30 4717 C 452.389 1.33168 -1.42447 0
M  V30 4718 O 451.659 1.86619 -0.595839 0
M  V30 4719 H 450.239 -0.00392531 -0.74699 0
M  V30 4720 H 452.901 -0.714327 -1.81338 0
M  V30 4721 H 451.997 0.0772219 -3.12004 0
M  V30 4722 N 452.299 1.55045 -0.282633 0
M  V30 4723 C 453.262 2.21515 0.588539 0
M  V30 4724 C 454.262 1.19535 1.07554 0
M  V30 4725 O 455.452 1.44391 0.974514 0
M  V30 4726 C 452.584 2.88704 1.8128 0
M  V30 4727 H 453.777 2.99899 0.00806397 0
M  V30 4728 H 451.33 1.56265 -0.0333067 0
M  V30 4729 H 452.065 2.14352 2.43359 0
M  V30 4730 H 451.85 3.63443 1.47144 0
M  V30 4731 H 453.34 3.39465 2.43214 0
M  V30 4732 N 453.777 0.010035 1.57597 0
M  V30 4733 C 455.193 -0.346164 1.55801 0
M  V30 4734 C 455.393 -1.74144 1.01371 0
M  V30 4735 O 454.449 -2.43938 0.651968 0
M  V30 4736 C 455.762 -0.212216 2.9995 0
M  V30 4737 C 457.31 -0.286409 3.11687 0
M  V30 4738 C 457.785 -0.18147 4.5764 0
M  V30 4739 N 459.276 -0.239056 4.62583 0
M  V30 4740 C 460.011 -0.181351 5.73113 0
M  V30 4741 N 459.507 -0.073661 6.92761 0
M  V30 4742 N 461.3 -0.233949 5.61613 0
M  V30 4743 H 453.451 0.922657 1.91313 0
M  V30 4744 H 455.714 0.354595 0.879185 0
M  V30 4745 H 455.42 0.748169 3.4365 0
M  V30 4746 H 455.294 -0.990224 3.6397 0
M  V30 4747 H 457.681 -1.23724 2.67911 0
M  V30 4748 H 457.762 0.521645 2.50425 0
M  V30 4749 H 457.406 0.765863 5.02093 0
M  V30 4750 H 457.336 -1.00814 5.1686 0
M  V30 4751 H 459.827 -0.32321 3.76515 0
M  V30 4752 H 460.14 -0.0358003 7.72792 0
M  V30 4753 H 458.485 -0.0391461 6.94989 0
M  V30 4754 H 461.676 -0.316347 4.6703 0
M  V30 4755 H 461.849 -0.185514 6.47734 0
M  V30 4756 N 455.255 -1.55392 -0.262866 0
M  V30 4757 C 456.205 -1.85355 -1.32768 0
M  V30 4758 C 457.189 -0.713188 -1.44231 0
M  V30 4759 O 458.381 -0.974765 -1.47741 0
M  V30 4760 C 455.51 -2.13781 -2.68612 0
M  V30 4761 C 454.596 -3.34104 -2.61219 0
M  V30 4762 N 454.987 -4.53766 -2.2345 0
M  V30 4763 C 453.285 -3.36895 -2.92263 0
M  V30 4764 C 453.986 -5.35877 -2.26298 0
M  V30 4765 N 452.962 -4.74536 -2.65172 0
M  V30 4766 H 456.764 -2.75413 -1.02591 0
M  V30 4767 H 454.278 -1.55405 -0.471503 0
M  V30 4768 H 456.275 -2.33407 -3.45437 0
M  V30 4769 H 454.935 -1.25013 -2.99669 0
M  V30 4770 H 455.946 -4.79682 -1.95258 0
M  V30 4771 H 452.623 -2.58351 -3.27965 0
M  V30 4772 H 454.013 -6.41577 -1.99572 0
M  V30 4773 N 456.733 0.527833 -1.48498 0
M  V30 4774 C 458.144 1.10975 -1.50138 0
M  V30 4775 C 458.495 1.943 -0.272378 0
M  V30 4776 O 457.62 2.07319 0.620301 0
M  V30 4777 C 458.215 2.01927 -2.72049 0
M  V30 4778 C 456.774 2.55332 -2.76554 0
M  V30 4779 C 455.921 1.32341 -2.43683 0
M  V30 4780 H 458.872 0.312986 -1.55583 0
M  V30 4781 H 458.893 2.86244 -2.50689 0
M  V30 4782 H 458.405 1.41254 -3.61481 0
M  V30 4783 H 456.506 3.19721 -1.91336 0
M  V30 4784 H 456.619 2.94319 -3.78038 0
M  V30 4785 H 454.983 1.63989 -1.94884 0
M  V30 4786 H 455.766 0.734165 -3.35358 0
M  V30 4787 N 458.211 1.37122 0.776871 0
M  V30 4788 C 459.458 1.32047 1.53524 0
M  V30 4789 C 459.786 -0.0965631 1.9426 0
M  V30 4790 O 459.041 -1.06866 1.63945 0
M  V30 4791 C 459.34 2.20068 2.81611 0
M  V30 4792 C 459.006 3.68423 2.59953 0
M  V30 4793 C 457.668 4.08854 2.53755 0
M  V30 4794 C 460.02 4.62431 2.40431 0
M  V30 4795 C 457.348 5.41417 2.26018 0
M  V30 4796 C 459.7 5.95225 2.14219 0
M  V30 4797 C 458.364 6.34767 2.06462 0
M  V30 4798 H 457.634 0.483196 0.561785 0
M  V30 4799 H 460.281 1.69284 0.895268 0
M  V30 4800 H 458.586 1.75809 3.50141 0
M  V30 4801 H 460.283 2.13458 3.39465 0
M  V30 4802 H 456.873 3.36354 2.65638 0
M  V30 4803 H 461.057 4.32057 2.44213 0
M  V30 4804 H 456.313 5.71022 2.18504 0
M  V30 4805 H 460.487 6.67626 1.98112 0
M  V30 4806 H 458.114 7.37413 1.84733 0
M  V30 4807 N 459.689 -1.00246 1.21608 0
M  V30 4808 C 460.652 -2.07233 0.979133 0
M  V30 4809 C 461.652 -1.6072 -0.0508219 0
M  V30 4810 O 462.842 -1.73196 0.186712 0
M  V30 4811 C 459.974 -3.37546 0.477016 0
M  V30 4812 H 461.167 -2.29687 1.92831 0
M  V30 4813 H 458.72 -1.17261 1.03342 0
M  V30 4814 H 459.455 -3.20773 -0.476966 0
M  V30 4815 H 459.24 -3.72638 1.21997 0
M  V30 4816 H 460.73 -4.16285 0.331181 0
M  V30 4817 N 461.167 -1.02423 -1.1978 0
M  V30 4818 C 462.099 -0.559152 -2.22275 0
M  V30 4819 C 463.112 0.36251 -1.58713 0
M  V30 4820 O 464.301 0.159641 -1.77785 0
M  V30 4821 C 461.401 0.205094 -3.38279 0
M  V30 4822 C 460.574 -0.720361 -4.31427 0
M  V30 4823 C 459.633 -0.00234368 -5.262 0
M  V30 4824 O 458.659 -0.627378 -5.65732 0
M  V30 4825 N 459.861 1.26996 -5.66438 0
M  V30 4826 H 462.626 -1.44064 -2.62804 0
M  V30 4827 H 460.187 -0.902692 -1.34399 0
M  V30 4828 H 462.179 0.694868 -3.9869 0
M  V30 4829 H 460.749 0.987947 -2.96578 0
M  V30 4830 H 459.969 -1.39031 -3.68869 0
M  V30 4831 H 461.257 -1.3495 -4.90577 0
M  V30 4832 H 460.655 1.79858 -5.36347 0
M  V30 4833 H 459.212 1.70432 -6.29123 0
M  V30 4834 N 462.645 1.35699 -0.801477 0
M  V30 4835 C 463.608 2.28199 -0.213994 0
M  V30 4836 C 464.608 1.49359 0.595691 0
M  V30 4837 O 465.798 1.69186 0.414921 0
M  V30 4838 C 462.93 3.33587 0.702297 0
M  V30 4839 H 464.123 2.81666 -1.02976 0
M  V30 4840 H 461.676 1.45467 -0.571759 0
M  V30 4841 H 462.411 2.85297 1.54195 0
M  V30 4842 H 462.196 3.91906 0.123484 0
M  V30 4843 H 463.686 4.02638 1.10783 0
M  V30 4844 N 464.123 0.554532 1.47522 0
M  V30 4845 C 465.369 0.0295227 2.02779 0
M  V30 4846 C 465.702 -1.31582 1.42828 0
M  V30 4847 O 464.977 -1.85561 0.582872 0
M  V30 4848 C 465.26 -0.0664057 3.60039 0
M  V30 4849 C 465.113 1.30585 4.30427 0
M  V30 4850 C 466.432 -0.781162 4.33112 0
M  V30 4851 H 463.551 0.0122027 0.736899 0
M  V30 4852 H 466.193 0.716305 1.7598 0
M  V30 4853 H 464.343 -0.651307 3.83002 0
M  V30 4854 H 466.015 1.93374 4.18813 0
M  V30 4855 H 464.258 1.88125 3.90886 0
M  V30 4856 H 464.929 1.19147 5.38988 0
M  V30 4857 H 467.405 -0.284565 4.15126 0
M  V30 4858 H 466.281 -0.817237 5.42782 0
M  V30 4859 H 466.542 -1.83672 4.0214 0
M  V30 4860 N 465.601 -1.54893 0.290851 0
M  V30 4861 C 466.849 -1.99538 -0.320756 0
M  V30 4862 C 467.17 -1.18075 -1.55188 0
M  V30 4863 O 466.44 -0.274162 -1.93972 0
M  V30 4864 H 465.02 -0.737052 -0.121507 0
M  V30 4865 H 467.682 -1.90755 0.399832 0
M  V30 4866 H 466.778 -3.06282 -0.599802 0
M  V30 4867 N 467.08 -0.0183926 -1.57589 0
M  V30 4868 C 468.496 0.337897 -1.55982 0
M  V30 4869 C 468.696 1.73604 -1.02294 0
M  V30 4870 O 467.752 2.43589 -0.664895 0
M  V30 4871 C 469.065 0.196305 -3.00059 0
M  V30 4872 C 470.613 0.269875 -3.11834 0
M  V30 4873 C 471.088 0.157197 -4.5773 0
M  V30 4874 N 472.579 0.214521 -4.62703 0
M  V30 4875 C 473.314 0.150955 -5.73201 0
M  V30 4876 N 472.81 0.0369212 -6.9279 0
M  V30 4877 N 474.603 0.204162 -5.61729 0
M  V30 4878 H 466.754 -0.93279 -1.90821 0
M  V30 4879 H 469.017 -0.359253 -0.877292 0
M  V30 4880 H 468.723 -0.766383 -3.43248 0
M  V30 4881 H 468.597 0.970908 -3.6449 0
M  V30 4882 H 470.984 1.22302 -2.68563 0
M  V30 4883 H 471.065 -0.534918 -2.50144 0
M  V30 4884 H 470.709 -0.792479 -5.01679 0
M  V30 4885 H 470.639 0.980717 -5.17387 0
M  V30 4886 H 473.13 0.303238 -3.76681 0
M  V30 4887 H 473.443 -0.00518321 -7.728 0
M  V30 4888 H 471.788 0.0022886 -6.95 0
M  V30 4889 H 474.979 0.291575 -4.67191 0
M  V30 4890 H 475.152 0.15116 -6.47824 0
M  V30 4891 N 468.558 1.5553 0.254621 0
M  V30 4892 C 469.506 1.9048 1.33492 0
M  V30 4893 C 470.5 0.78304 1.50216 0
M  V30 4894 O 471.706 0.967582 1.51782 0
M  V30 4895 H 468.081 0.604846 0.44684 0
M  V30 4896 H 470.052 2.80688 1.01275 0
M  V30 4897 C 468.801 2.20928 2.68489 0
M  V30 4898 H 468.124 3.06742 2.56417 0
M  V30 4899 H 469.564 2.49291 3.42972 0
M  V30 4900 C 468.023 1.023 3.20993 0
M  V30 4901 O 468.553 0.267027 4.00811 0
M  V30 4902 N 466.759 0.815714 2.78917 0
M  V30 4903 H 466.306 1.43217 2.14119 0
M  V30 4904 H 466.264 0.0236532 3.14391 0
M  V30 4905 N 470.036 -0.519951 1.48776 0
M  V30 4906 C 471.285 -1.27175 1.56555 0
M  V30 4907 C 471.598 -1.9401 0.248869 0
M  V30 4908 O 472.804 -2.70725 0.205004 0
M  V30 4909 C 471.26 -2.30811 2.76142 0
M  V30 4910 C 470.868 -1.7 4.14493 0
M  V30 4911 C 472.612 -3.06937 2.9324 0
M  V30 4912 C 470.519 -2.71635 5.25327 0
M  V30 4913 H 469.449 -0.478329 0.582853 0
M  V30 4914 H 472.1 -0.547916 1.75129 0
M  V30 4915 H 470.482 -3.06274 2.51023 0
M  V30 4916 H 471.656 -1.00658 4.49672 0
M  V30 4917 H 469.971 -1.06331 4.02595 0
M  V30 4918 H 472.568 -3.82905 3.73213 0
M  V30 4919 H 472.911 -3.63409 2.03075 0
M  V30 4920 H 473.444 -2.38589 3.18308 0
M  V30 4921 H 470.183 -2.1997 6.1749 0
M  V30 4922 H 469.703 -3.39275 4.94624 0
M  V30 4923 H 471.382 -3.34429 5.53865 0
M  V30 4924 N 471.514 -1.37532 -0.769588 0
M  V30 4925 C 472.477 -1.33292 -1.86456 0
M  V30 4926 C 473.477 -0.236537 -1.59051 0
M  V30 4927 O 474.667 -0.492511 -1.67093 0
M  V30 4928 C 471.799 -1.07118 -3.23633 0
M  V30 4929 H 472.992 -2.30692 -1.91628 0
M  V30 4930 H 470.545 -1.22593 -0.969572 0
M  V30 4931 H 471.28 -0.102578 -3.24138 0
M  V30 4932 H 471.065 -1.86479 -3.44917 0
M  V30 4933 H 472.555 -1.06806 -4.03711 0
M  V30 4934 N 472.992 0.995999 -1.22138 0
M  V30 4935 C 473.94 2.10673 -0.985876 0
M  V30 4936 C 474.934 1.69255 0.0699553 0
M  V30 4937 O 476.14 1.79812 -0.0822176 0
M  V30 4938 H 472.515 0.688865 -0.30161 0
M  V30 4939 H 474.486 2.27711 -1.92848 0
M  V30 4940 C 473.235 3.42881 -0.576909 0
M  V30 4941 H 472.558 3.75191 -1.38101 0
M  V30 4942 H 473.998 4.21589 -0.451518 0
M  V30 4943 C 472.457 3.29265 0.713196 0
M  V30 4944 O 472.987 3.60777 1.76643 0
M  V30 4945 N 471.193 2.82456 0.683162 0
M  V30 4946 H 470.74 2.5701 -0.174242 0
M  V30 4947 H 470.698 2.73727 1.54663 0
M  V30 4948 N 474.47 1.03057 1.19235 0
M  V30 4949 C 475.881 0.757449 1.70645 0
M  V30 4950 C 476.232 -0.722735 1.82403 0
M  V30 4951 O 475.357 -1.56325 1.49638 0
M  V30 4952 C 475.952 1.36833 3.09939 0
M  V30 4953 C 474.511 1.14375 3.58602 0
M  V30 4954 C 473.658 1.46533 2.35422 0
M  V30 4955 H 476.609 1.19828 1.04052 0
M  V30 4956 H 476.63 0.766184 3.72706 0
M  V30 4957 H 476.142 2.44562 3.01349 0
M  V30 4958 H 474.243 0.0847542 3.72504 0
M  V30 4959 H 474.356 1.83366 4.42622 0
M  V30 4960 H 472.72 0.884712 2.38841 0
M  V30 4961 H 473.503 2.55349 2.2946 0
M  V30 4962 N 475.948 -1.35272 0.808662 0
M  V30 4963 C 477.176 -2.02946 0.402537 0
M  V30 4964 C 477.591 -1.60937 -0.987147 0
M  V30 4965 O 476.948 -0.807917 -1.63643 0
M  V30 4966 C 476.999 -3.58317 0.47868 0
M  V30 4967 O 476.72 -3.98799 1.81358 0
M  V30 4968 C 478.221 -4.43251 0.0656281 0
M  V30 4969 H 475.441 -0.650831 0.163279 0
M  V30 4970 H 477.985 -1.72849 1.09286 0
M  V30 4971 H 476.14 -3.87055 -0.163415 0
M  V30 4972 H 476.554 -4.93451 1.77781 0
M  V30 4973 H 478.028 -5.51738 0.170017 0
M  V30 4974 H 478.505 -4.27913 -0.989278 0
M  V30 4975 H 479.111 -4.19813 0.68096 0
M  V30 4976 N 477.426 -0.562348 -1.47226 0
M  V30 4977 C 478.389 0.172056 -2.28553 0
M  V30 4978 C 479.389 0.837928 -1.37242 0
M  V30 4979 O 480.579 0.693001 -1.59822 0
M  V30 4980 C 477.711 1.25223 -3.17068 0
M  V30 4981 H 478.904 -0.542401 -2.94954 0
M  V30 4982 H 476.457 -0.319493 -1.53 0
M  V30 4983 H 477.192 1.99892 -2.55369 0
M  V30 4984 H 476.977 0.779515 -3.84273 0
M  V30 4985 H 478.467 1.76791 -3.78332 0
M  V30 4986 N 478.904 1.54736 -0.299062 0
M  V30 4987 C 479.837 2.1962 0.619851 0
M  V30 4988 C 480.815 1.16496 1.13434 0
M  V30 4989 O 481.999 1.4513 1.2029 0
M  V30 4990 C 479.126 2.8385 1.84788 0
M  V30 4991 C 478.172 4.00484 1.46679 0
M  V30 4992 S 479.005 5.32926 0.524389 0
M  V30 4993 C 480.161 6.00638 1.76026 0
M  V30 4994 H 480.394 2.97221 0.0686177 0
M  V30 4995 H 477.927 1.54176 -0.0832085 0
M  V30 4996 H 479.885 3.21483 2.55263 0
M  V30 4997 H 478.546 2.06099 2.37028 0
M  V30 4998 H 477.739 4.44201 2.38121 0
M  V30 4999 H 477.341 3.64398 0.842008 0
M  V30 5000 H 479.633 6.21327 2.70109 0
M  V30 5001 H 480.576 6.94805 1.36569 0
M  V30 5002 H 480.984 5.3026 1.93609 0
M  V30 5003 N 480.382 0.0267497 1.57577 0
M  V30 5004 C 481.312 -0.954308 2.13108 0
M  V30 5005 C 482.293 -1.34088 1.04663 0
M  V30 5006 O 483.478 -1.41992 1.32484 0
M  V30 5007 C 480.608 -2.23744 2.65624 0
M  V30 5008 C 479.562 -1.99168 3.78835 0
M  V30 5009 C 478.888 -3.33726 4.17769 0
M  V30 5010 C 480.188 -1.33277 5.0501 0
M  V30 5011 H 481.882 -0.491848 2.95332 0
M  V30 5012 H 479.428 -0.23514 1.42067 0
M  V30 5013 H 481.381 -2.92754 3.03106 0
M  V30 5014 H 480.105 -2.72151 1.80558 0
M  V30 5015 H 478.764 -1.32577 3.41788 0
M  V30 5016 H 478.412 -3.79888 3.29688 0
M  V30 5017 H 478.112 -3.18089 4.94058 0
M  V30 5018 H 479.636 -4.04008 4.57832 0
M  V30 5019 H 481.05 -1.92283 5.40093 0
M  V30 5020 H 479.447 -1.28045 5.8628 0
M  V30 5021 H 480.517 -0.305411 4.83937 0
M  V30 5022 N 481.861 -1.55662 -0.24637 0
M  V30 5023 C 482.791 -1.93377 -1.30873 0
M  V30 5024 C 483.772 -0.798773 -1.50179 0
M  V30 5025 O 484.957 -1.0591 -1.62778 0
M  V30 5026 C 482.087 -2.22893 -2.66338 0
M  V30 5027 C 481.041 -3.38649 -2.61727 0
M  V30 5028 C 480.367 -3.53708 -4.00992 0
M  V30 5029 C 481.667 -4.74323 -2.18666 0
M  V30 5030 H 483.361 -2.82363 -0.995552 0
M  V30 5031 H 480.907 -1.35854 -0.477464 0
M  V30 5032 H 482.86 -2.47866 -3.40794 0
M  V30 5033 H 481.584 -1.30733 -2.99293 0
M  V30 5034 H 480.243 -3.13685 -1.89729 0
M  V30 5035 H 479.891 -2.58967 -4.31214 0
M  V30 5036 H 479.591 -4.31551 -3.98795 0
M  V30 5037 H 481.115 -3.81003 -4.77147 0
M  V30 5038 H 482.529 -4.98665 -2.82854 0
M  V30 5039 H 480.926 -5.55273 -2.27579 0
M  V30 5040 H 481.996 -4.71349 -1.13834 0
M  V30 5041 N 483.339 0.512053 -1.4905 0
M  V30 5042 C 484.564 1.2959 -1.6193 0
M  V30 5043 C 484.989 1.85906 -0.286454 0
M  V30 5044 O 484.347 1.65312 0.744426 0
M  V30 5045 C 484.395 2.40987 -2.68249 0
M  V30 5046 O 483.499 3.44531 -2.26654 0
M  V30 5047 H 482.84 0.383053 -0.542371 0
M  V30 5048 H 485.37 0.614231 -1.95162 0
M  V30 5049 H 485.38 2.86913 -2.90078 0
M  V30 5050 H 484.055 1.99361 -3.65004 0
M  V30 5051 H 482.632 3.046 -2.15112 0
M  V30 5052 N 484.817 1.37938 0.762283 0
M  V30 5053 C 485.78 1.34279 1.85747 0
M  V30 5054 C 486.78 0.244969 1.58923 0
M  V30 5055 O 487.97 0.501365 1.66829 0
M  V30 5056 C 485.102 1.08833 3.23061 0
M  V30 5057 H 486.295 2.31705 1.90401 0
M  V30 5058 H 483.848 1.23105 0.963057 0
M  V30 5059 H 484.583 0.119767 3.24079 0
M  V30 5060 H 484.368 1.88306 3.43923 0
M  V30 5061 H 485.858 1.08946 4.03138 0
M  V30 5062 N 486.295 -0.989507 1.22664 0
M  V30 5063 C 487.52 -1.77031 1.08051 0
M  V30 5064 C 487.945 -1.84535 -0.364483 0
M  V30 5065 O 487.303 -1.3003 -1.2634 0
M  V30 5066 C 487.351 -3.18 1.70024 0
M  V30 5067 O 486.455 -4.01161 0.956216 0
M  V30 5068 H 485.796 -0.545008 0.379292 0
M  V30 5069 H 488.326 -1.24277 1.62531 0
M  V30 5070 H 488.336 -3.68616 1.74888 0
M  V30 5071 H 487.011 -3.11853 2.75174 0
M  V30 5072 H 485.588 -3.59687 0.98384 0
M  V30 5073 N 487.773 -1.03688 -1.18687 0
M  V30 5074 C 488.721 -0.618292 -2.24232 0
M  V30 5075 C 489.715 0.353045 -1.6568 0
M  V30 5076 O 490.921 0.220749 -1.78641 0
M  V30 5077 H 487.296 -0.181711 -0.729716 0
M  V30 5078 H 489.267 -1.51893 -2.56848 0
M  V30 5079 C 488.016 0.00677342 -3.47699 0
M  V30 5080 H 487.339 -0.731692 -3.93047 0
M  V30 5081 H 488.779 0.262492 -4.23187 0
M  V30 5082 C 487.238 1.25572 -3.12623 0
M  V30 5083 O 487.768 2.34691 -3.26011 0
M  V30 5084 N 485.974 1.14755 -2.66982 0
M  V30 5085 H 485.521 0.259601 -2.56289 0
M  V30 5086 H 485.479 1.98412 -2.43885 0
M  V30 5087 N 489.251 1.34841 -0.815825 0
M  V30 5088 C 490.184 2.27504 -0.178062 0
M  V30 5089 C 491.162 1.48542 0.661373 0
M  V30 5090 O 492.346 1.77779 0.626653 0
M  V30 5091 C 489.473 3.30246 0.752002 0
M  V30 5092 C 488.519 4.26499 -0.00899172 0
M  V30 5093 S 489.352 5.18169 -1.35134 0
M  V30 5094 C 490.508 6.24449 -0.42596 0
M  V30 5095 H 490.741 2.81248 -0.963684 0
M  V30 5096 H 488.274 1.41781 -0.611355 0
M  V30 5097 H 490.232 3.89933 1.28308 0
M  V30 5098 H 488.893 2.75363 1.51109 0
M  V30 5099 H 488.086 4.99146 0.697766 0
M  V30 5100 H 487.688 3.7103 -0.470396 0
M  V30 5101 H 489.98 6.76404 0.385234 0
M  V30 5102 H 490.923 6.99156 -1.1219 0
M  V30 5103 H 491.331 5.64497 -0.0175461 0
M  V30 5104 N 490.729 0.570148 1.46925 0
M  V30 5105 C 491.659 -0.158274 2.32963 0
M  V30 5106 C 492.64 -0.896093 1.44583 0
M  V30 5107 O 493.825 -0.874022 1.7342 0
M  V30 5108 C 490.955 -1.18055 3.26619 0
M  V30 5109 C 489.909 -0.558379 4.24342 0
M  V30 5110 C 489.235 -1.68623 5.07415 0
M  V30 5111 C 490.535 0.496295 5.19937 0
M  V30 5112 H 492.229 0.560046 2.94115 0
M  V30 5113 H 489.775 0.270775 1.41431 0
M  V30 5114 H 491.728 -1.69841 3.85658 0
M  V30 5115 H 490.452 -1.92899 2.63548 0
M  V30 5116 H 489.111 -0.0617157 3.66548 0
M  V30 5117 H 488.759 -2.42402 4.40738 0
M  V30 5118 H 488.459 -1.27564 5.73586 0
M  V30 5119 H 489.983 -2.20709 5.69315 0
M  V30 5120 H 491.397 0.0640052 5.73264 0
M  V30 5121 H 489.794 0.82649 5.94381 0
M  V30 5122 H 490.864 1.38735 4.6463 0
M  V30 5123 N 492.207 -1.54576 0.307264 0
M  V30 5124 C 493.623 -1.59534 -0.0459251 0
M  V30 5125 C 493.823 -1.32414 -1.51884 0
M  V30 5126 O 492.879 -1.1006 -2.27251 0
M  V30 5127 C 494.192 -2.98566 0.357649 0
M  V30 5128 C 495.74 -3.11491 0.306937 0
M  V30 5129 C 496.215 -4.52842 0.685427 0
M  V30 5130 N 497.706 -4.58782 0.638203 0
M  V30 5131 C 498.441 -5.66238 0.903458 0
M  V30 5132 N 497.937 -6.81703 1.23501 0
M  V30 5133 N 499.73 -5.55937 0.830102 0
M  V30 5134 H 491.881 -1.70464 1.26712 0
M  V30 5135 H 494.144 -0.79647 0.514139 0
M  V30 5136 H 493.85 -3.23356 1.38325 0
M  V30 5137 H 493.724 -3.76117 -0.285565 0
M  V30 5138 H 496.111 -2.86446 -0.709424 0
M  V30 5139 H 496.192 -2.36081 0.984861 0
M  V30 5140 H 495.836 -4.78618 1.69963 0
M  V30 5141 H 495.766 -5.26598 -0.0146346 0
M  V30 5142 H 498.257 -3.75849 0.393138 0
M  V30 5143 H 498.57 -7.59582 1.42322 0
M  V30 5144 H 496.915 -6.8324 1.27311 0
M  V30 5145 H 500.106 -4.64608 0.570693 0
M  V30 5146 H 500.279 -6.39597 1.04019 0
M  V30 5147 N 493.685 -0.035106 -1.57561 0
M  V30 5148 C 494.635 0.954034 -2.0708 0
M  V30 5149 C 495.619 1.2818 -0.972558 0
M  V30 5150 O 496.811 1.26691 -1.23606 0
M  V30 5151 C 493.94 2.23442 -2.60631 0
M  V30 5152 C 493.026 1.93475 -3.77396 0
M  V30 5153 N 493.417 1.33802 -4.87781 0
M  V30 5154 C 491.715 2.23434 -3.85996 0
M  V30 5155 C 492.416 1.21103 -5.68954 0
M  V30 5156 N 491.392 1.70855 -5.16052 0
M  V30 5157 H 495.194 0.487731 -2.89825 0
M  V30 5158 H 492.708 0.169759 -1.6151 0
M  V30 5159 H 494.705 2.95183 -2.94402 0
M  V30 5160 H 493.365 2.70693 -1.79319 0
M  V30 5161 H 494.376 1.01227 -5.07911 0
M  V30 5162 H 491.053 2.73317 -3.15601 0
M  V30 5163 H 492.443 0.749105 -6.67711 0
M  V30 5164 N 495.163 1.55791 0.238111 0
M  V30 5165 C 496.093 1.94068 1.29846 0
M  V30 5166 C 497.074 0.806726 1.49753 0
M  V30 5167 O 498.259 1.06772 1.62214 0
M  V30 5168 C 495.389 2.24302 2.65153 0
M  V30 5169 C 494.343 3.40032 2.59927 0
M  V30 5170 C 493.669 3.55829 3.99111 0
M  V30 5171 C 494.969 4.75476 2.16148 0
M  V30 5172 H 496.663 2.82887 0.980563 0
M  V30 5173 H 494.209 1.36105 0.470253 0
M  V30 5174 H 496.162 2.4967 3.39475 0
M  V30 5175 H 494.886 1.32318 2.98596 0
M  V30 5176 H 493.545 3.14687 1.88063 0
M  V30 5177 H 493.193 2.6125 4.29834 0
M  V30 5178 H 492.893 4.3366 3.96501 0
M  V30 5179 H 494.417 3.83528 4.7512 0
M  V30 5180 H 495.831 5.00158 2.80205 0
M  V30 5181 H 494.228 5.56472 2.24631 0
M  V30 5182 H 495.298 4.71946 1.11333 0
M  V30 5183 N 496.642 -0.504142 1.49319 0
M  V30 5184 C 497.59 -1.62689 1.66238 0
M  V30 5185 C 498.584 -1.6095 0.528349 0
M  V30 5186 O 499.79 -1.65496 0.707887 0
M  V30 5187 H 496.165 -0.539247 0.524134 0
M  V30 5188 H 498.136 -1.45571 2.60484 0
M  V30 5189 C 496.885 -3.00841 1.74328 0
M  V30 5190 H 496.208 -3.02884 2.60963 0
M  V30 5191 H 497.648 -3.78945 1.90202 0
M  V30 5192 C 496.107 -3.33355 0.487416 0
M  V30 5193 O 496.637 -3.99819 -0.388294 0
M  V30 5194 N 494.843 -2.88469 0.351306 0
M  V30 5195 H 494.39 -2.34557 1.06492 0
M  V30 5196 H 494.348 -3.10591 -0.487899 0
M  V30 5197 N 498.12 -1.38341 -0.754957 0
M  V30 5198 C 499.05 -1.38176 -1.88227 0
M  V30 5199 C 500.031 -0.247873 -1.68284 0
M  V30 5200 O 501.216 -0.45075 -1.88896 0
M  V30 5201 C 498.346 -1.20471 -3.25736 0
M  V30 5202 C 497.3 -2.3105 -3.60278 0
M  V30 5203 C 496.626 -1.98452 -4.96509 0
M  V30 5204 C 497.926 -3.73305 -3.65295 0
M  V30 5205 H 499.62 -2.32512 -1.88622 0
M  V30 5206 H 497.166 -1.1192 -0.906082 0
M  V30 5207 H 499.119 -1.18982 -4.04254 0
M  V30 5208 H 497.843 -0.225965 -3.25817 0
M  V30 5209 H 496.502 -2.31723 -2.84078 0
M  V30 5210 H 496.15 -0.990641 -4.93148 0
M  V30 5211 H 495.85 -2.7251 -5.20588 0
M  V30 5212 H 497.374 -1.98578 -5.77407 0
M  V30 5213 H 498.788 -3.7467 -4.3393 0
M  V30 5214 H 497.185 -4.46557 -4.00883 0
M  V30 5215 H 498.255 -4.05719 -2.65556 0
M  V30 5216 N 499.598 0.982988 -1.23187 0
M  V30 5217 C 500.508 2.10907 -1.02739 0
M  V30 5218 C 501.524 1.73979 0.0273188 0
M  V30 5219 O 502.7 2.00702 -0.16757 0
M  V30 5220 C 499.765 3.41142 -0.618304 0
M  V30 5221 C 498.826 3.92112 -1.74777 0
M  V30 5222 C 498.059 5.16131 -1.3581 0
M  V30 5223 O 498.282 5.6989 -0.241201 0
M  V30 5224 O 497.216 5.61103 -2.17824 0
M  V30 5225 H 501.042 2.31046 -1.97108 0
M  V30 5226 H 498.627 1.09284 -1.01869 0
M  V30 5227 H 500.509 4.19488 -0.400982 0
M  V30 5228 H 499.184 3.2234 0.296421 0
M  V30 5229 H 498.091 3.14895 -2.0197 0
M  V30 5230 H 499.424 4.15364 -2.64071 0
M  V30 5231 N 501.076 1.04316 1.18135 0
M  V30 5232 C 502.306 0.767003 1.91835 0
M  V30 5233 C 502.714 -0.68002 1.76557 0
M  V30 5234 O 502.057 -1.47548 1.09432 0
M  V30 5235 C 502.119 1.05674 3.43618 0
M  V30 5236 C 501.783 2.49818 3.82675 0
M  V30 5237 C 502.78 3.48003 3.86251 0
M  V30 5238 C 500.465 2.84596 4.13897 0
M  V30 5239 C 502.459 4.79016 4.20503 0
M  V30 5240 C 500.146 4.15813 4.4782 0
M  V30 5241 C 501.144 5.12834 4.51099 0
M  V30 5242 O 500.832 6.41699 4.84229 0
M  V30 5243 H 500.564 0.278948 0.615763 0
M  V30 5244 H 503.118 1.3946 1.50798 0
M  V30 5245 H 501.348 0.372029 3.84906 0
M  V30 5246 H 503.037 0.767994 3.98568 0
M  V30 5247 H 503.803 3.22475 3.62264 0
M  V30 5248 H 499.682 2.09748 4.1052 0
M  V30 5249 H 503.226 5.54739 4.22978 0
M  V30 5250 H 499.123 4.41109 4.71268 0
M  V30 5251 H 499.891 6.46387 5.02121 0
M  V30 5252 N 502.554 -1.34406 0.822964 0
M  V30 5253 C 503.504 -2.26963 0.217208 0
M  V30 5254 C 504.488 -1.48536 -0.618545 0
M  V30 5255 O 505.68 -1.7056 -0.473118 0
M  V30 5256 C 502.809 -3.37655 -0.619973 0
M  V30 5257 C 501.895 -4.23495 0.226411 0
M  V30 5258 N 502.286 -4.88876 1.29744 0
M  V30 5259 C 500.584 -4.45999 0.0107554 0
M  V30 5260 C 501.285 -5.52642 1.81553 0
M  V30 5261 N 500.261 -5.31949 1.11942 0
M  V30 5262 H 504.063 -2.75017 1.03647 0
M  V30 5263 H 501.577 -1.48126 0.665777 0
M  V30 5264 H 503.574 -4.02932 -1.07011 0
M  V30 5265 H 502.234 -2.91151 -1.43739 0
M  V30 5266 H 503.245 -4.89886 1.68024 0
M  V30 5267 H 499.922 -4.10253 -0.774495 0
M  V30 5268 H 501.312 -6.14755 2.71156 0
M  V30 5269 N 504.032 -0.577932 -1.46621 0
M  V30 5270 C 505.257 -0.0652536 -2.07297 0
M  V30 5271 C 505.682 1.22828 -1.4246 0
M  V30 5272 O 505.04 1.74075 -0.506718 0
M  V30 5273 C 505.088 0.0920589 -3.60482 0
M  V30 5274 O 504.192 1.14972 -3.96049 0
M  V30 5275 H 503.533 -0.06065 -0.661224 0
M  V30 5276 H 506.063 -0.799515 -1.88332 0
M  V30 5277 H 506.073 0.299741 -4.06897 0
M  V30 5278 H 504.748 -0.852612 -4.07067 0
M  V30 5279 H 503.325 0.920879 -3.61351 0
M  V30 5280 N 505.51 1.54411 -0.315457 0
M  V30 5281 C 506.735 2.05299 0.294496 0
M  V30 5282 C 507.16 1.19052 1.4563 0
M  V30 5283 O 506.518 0.197804 1.80218 0
M  V30 5284 C 506.566 3.5345 0.714549 0
M  V30 5285 O 505.67 3.70175 1.81781 0
M  V30 5286 H 505.011 0.661743 0.0547019 0
M  V30 5287 H 507.541 1.99327 -0.461508 0
M  V30 5288 H 507.551 3.9557 0.999426 0
M  V30 5289 H 506.226 4.1568 -0.135244 0
M  V30 5290 H 504.803 3.3996 1.53236 0
M  V30 5291 N 506.988 0.0434614 1.5754 0
M  V30 5292 C 507.921 -0.968729 2.06618 0
M  V30 5293 C 508.899 -1.30868 0.965 0
M  V30 5294 O 510.083 -1.42288 1.23638 0
M  V30 5295 C 507.21 -2.28486 2.50023 0
M  V30 5296 C 506.256 -2.09851 3.71302 0
M  V30 5297 S 507.089 -1.38401 5.17306 0
M  V30 5298 C 508.245 -2.71354 5.64019 0
M  V30 5299 H 508.478 -0.551021 2.92149 0
M  V30 5300 H 506.011 -0.168607 1.53477 0
M  V30 5301 H 507.969 -3.04142 2.75695 0
M  V30 5302 H 506.63 -2.67387 1.64812 0
M  V30 5303 H 505.823 -3.07184 3.99567 0
M  V30 5304 H 505.425 -1.42336 3.45856 0
M  V30 5305 H 507.717 -3.67549 5.69134 0
M  V30 5306 H 508.66 -2.47734 6.6335 0
M  V30 5307 H 509.068 -2.77259 4.91719 0
M  V30 5308 N 508.466 -1.55915 -0.229846 0
M  V30 5309 C 509.715 -1.77742 -0.953455 0
M  V30 5310 C 510.028 -0.610524 -1.85828 0
M  V30 5311 O 511.234 -0.712219 -2.61992 0
M  V30 5312 C 509.69 -3.14738 -1.74551 0
M  V30 5313 C 509.298 -4.39126 -0.887242 0
M  V30 5314 C 511.042 -3.45895 -2.46084 0
M  V30 5315 C 508.949 -5.67149 -1.67617 0
M  V30 5316 H 507.879 -0.662648 -0.359741 0
M  V30 5317 H 510.53 -1.82322 -0.207576 0
M  V30 5318 H 508.912 -3.04311 -2.53399 0
M  V30 5319 H 510.086 -4.60588 -0.139892 0
M  V30 5320 H 508.401 -4.15427 -0.284443 0
M  V30 5321 H 510.998 -4.38767 -3.05594 0
M  V30 5322 H 511.341 -2.68007 -3.18556 0
M  V30 5323 H 511.874 -3.57614 -1.74233 0
M  V30 5324 H 508.613 -6.47906 -0.994881 0
M  V30 5325 H 508.133 -5.49763 -2.39836 0
M  V30 5326 H 509.812 -6.07025 -2.23898 0
M  V30 5327 N 509.944 0.496216 -1.49584 0
M  V30 5328 C 510.907 1.57952 -1.66084 0
M  V30 5329 C 511.907 1.51729 -0.53244 0
M  V30 5330 O 513.097 1.54796 -0.79899 0
M  V30 5331 C 510.229 2.97604 -1.66268 0
M  V30 5332 H 511.422 1.44649 -2.6271 0
M  V30 5333 H 508.975 0.7208 -1.38687 0
M  V30 5334 H 509.71 3.16378 -0.712432 0
M  V30 5335 H 509.495 3.03528 -2.4822 0
M  V30 5336 H 510.985 3.76301 -1.81073 0
M  V30 5337 N 511.423 1.38739 0.74761 0
M  V30 5338 C 512.7 1.25791 1.49786 0
M  V30 5339 C 513.08 -0.138075 2.10648 0
M  V30 5340 O 512.428 -1.14815 1.9756 0
M  V30 5341 C 512.638 2.37265 2.55942 0
M  V30 5342 C 513.986 2.75978 3.22679 0
M  V30 5343 O 515.01 2.36621 2.6625 0
M  V30 5344 O 513.869 3.43867 4.24756 0
M  V30 5345 H 510.963 0.492251 0.664543 0
M  V30 5346 H 513.509 1.50582 0.782511 0
M  V30 5347 H 512.281 3.30644 2.0926 0
M  V30 5348 H 511.904 2.14071 3.35051 0
M  V30 5349 N 512.901 -0.976442 1.23707 0
M  V30 5350 C 513.864 -2.0511 1.02287 0
M  V30 5351 C 514.864 -1.60791 -0.0167195 0
M  V30 5352 O 516.054 -1.72761 0.223408 0
M  V30 5353 C 513.186 -3.36458 0.548507 0
M  V30 5354 H 514.379 -2.25545 1.9766 0
M  V30 5355 H 511.932 -1.15042 1.05806 0
M  V30 5356 H 512.667 -3.21713 -0.408818 0
M  V30 5357 H 512.452 -3.69967 1.29874 0
M  V30 5358 H 513.942 -4.15489 0.419406 0
M  V30 5359 N 514.379 -1.04941 -1.1758 0
M  V30 5360 C 515.625 -0.759112 -1.88057 0
M  V30 5361 C 515.958 0.711918 -1.8068 0
M  V30 5362 O 515.233 1.52035 -1.21308 0
M  V30 5363 C 515.516 -1.237 -3.38187 0
M  V30 5364 C 515.369 -2.77078 -3.54327 0
M  V30 5365 C 516.688 -0.834014 -4.32125 0
M  V30 5366 H 513.807 -0.277237 -0.682868 0
M  V30 5367 H 516.449 -1.30296 -1.38286 0
M  V30 5368 H 514.599 -0.774337 -3.80705 0
M  V30 5369 H 516.271 -3.31449 -3.20842 0
M  V30 5370 H 514.514 -3.16477 -2.96689 0
M  V30 5371 H 515.185 -3.05577 -4.59703 0
M  V30 5372 H 517.661 -1.23228 -3.97434 0
M  V30 5373 H 516.537 -1.19603 -5.35711 0
M  V30 5374 H 516.798 0.262195 -4.41322 0
M  V30 5375 N 515.857 1.33968 -0.830081 0
M  V30 5376 C 516.804 2.29387 -0.255008 0
M  V30 5377 C 517.774 1.53923 0.624243 0
M  V30 5378 O 518.959 1.82262 0.564372 0
M  V30 5379 C 516.099 3.4034 0.571209 0
M  V30 5380 C 515.212 4.30729 -0.331083 0
M  V30 5381 C 514.347 5.2879 0.505389 0
M  V30 5382 C 513.386 6.10819 -0.395843 0
M  V30 5383 N 512.523 7.00948 0.401979 0
M  V30 5384 H 517.363 2.77972 -1.07404 0
M  V30 5385 H 514.9 1.36785 -0.541133 0
M  V30 5386 H 516.858 4.03361 1.06562 0
M  V30 5387 H 515.488 2.9297 1.35529 0
M  V30 5388 H 514.54 3.68507 -0.943759 0
M  V30 5389 H 515.852 4.88181 -1.02377 0
M  V30 5390 H 515.006 5.97297 1.06399 0
M  V30 5391 H 513.745 4.71894 1.23155 0
M  V30 5392 H 512.75 5.41238 -0.966529 0
M  V30 5393 H 513.975 6.69797 -1.12023 0
M  V30 5394 H 511.921 6.46512 1.11168 0
M  V30 5395 H 511.838 7.55643 -0.232167 0
M  V30 5396 H 513.106 7.73774 0.943102 0
M  V30 5397 N 517.335 0.585699 1.46312 0
M  V30 5398 C 518.282 -0.145835 2.30339 0
M  V30 5399 C 519.252 -0.881215 1.40797 0
M  V30 5400 O 520.437 -0.871293 1.69744 0
M  V30 5401 C 517.577 -1.15161 3.25318 0
M  V30 5402 C 516.69 -0.419367 4.2996 0
M  V30 5403 C 515.825 -1.41293 5.12064 0
M  V30 5404 C 514.864 -0.667261 6.08452 0
M  V30 5405 N 514.001 -1.60903 6.83414 0
M  V30 5406 H 518.841 0.576755 2.92365 0
M  V30 5407 H 516.378 0.296237 1.44086 0
M  V30 5408 H 518.336 -1.74763 3.78832 0
M  V30 5409 H 516.966 -1.84188 2.65094 0
M  V30 5410 H 516.018 0.291751 3.7928 0
M  V30 5411 H 517.33 0.163433 4.98532 0
M  V30 5412 H 516.484 -2.08167 5.6987 0
M  V30 5413 H 515.223 -2.02966 4.43459 0
M  V30 5414 H 514.228 0.0152356 5.49798 0
M  V30 5415 H 515.453 -0.0558817 6.79077 0
M  V30 5416 H 513.399 -2.21381 6.17516 0
M  V30 5417 H 513.316 -1.07911 7.48259 0
M  V30 5418 H 514.584 -2.26802 7.45775 0
M  V30 5419 N 518.813 -1.54241 0.323641 0
M  V30 5420 C 520.059 -2.00867 -0.279323 0
M  V30 5421 C 520.392 -1.21146 -1.5178 0
M  V30 5422 O 519.667 -0.29378 -1.92269 0
M  V30 5423 C 519.95 -3.54837 -0.613387 0
M  V30 5424 C 519.803 -4.45284 0.635803 0
M  V30 5425 C 521.122 -4.16186 -1.43099 0
M  V30 5426 H 518.241 -0.730177 -0.100049 0
M  V30 5427 H 520.883 -1.84829 0.440235 0
M  V30 5428 H 519.033 -3.68634 -1.22641 0
M  V30 5429 H 520.705 -4.43357 1.27406 0
M  V30 5430 H 518.948 -4.14956 1.26466 0
M  V30 5431 H 519.619 -5.5084 0.357597 0
M  V30 5432 H 522.095 -4.05964 -0.912814 0
M  V30 5433 H 520.971 -5.24031 -1.6335 0
M  V30 5434 H 521.232 -3.69516 -2.42715 0
M  V30 5435 N 520.291 -0.0518155 -1.57515 0
M  V30 5436 C 521.54 0.621286 -1.91893 0
M  V30 5437 C 521.853 1.71966 -0.932052 0
M  V30 5438 O 523.059 2.45096 -1.16791 0
M  V30 5439 C 521.515 1.15641 -3.40816 0
M  V30 5440 C 521.123 0.0901146 -4.47909 0
M  V30 5441 C 522.867 1.80472 -3.84227 0
M  V30 5442 C 520.774 0.638154 -5.87947 0
M  V30 5443 H 519.704 0.235835 -0.716169 0
M  V30 5444 H 522.355 -0.120809 -1.83102 0
M  V30 5445 H 520.737 1.95084 -3.44613 0
M  V30 5446 H 521.911 -0.683525 -4.55702 0
M  V30 5447 H 520.226 -0.460774 -4.13843 0
M  V30 5448 H 522.823 2.22471 -4.86221 0
M  V30 5449 H 523.166 2.65669 -3.20508 0
M  V30 5450 H 523.699 1.07683 -3.82948 0
M  V30 5451 H 520.438 -0.176202 -6.55263 0
M  V30 5452 H 519.958 1.37976 -5.83714 0
M  V30 5453 H 521.637 1.12085 -6.37217 0
M  V30 5454 N 521.769 1.56035 0.221574 0
M  V30 5455 C 522.716 1.92413 1.27459 0
M  V30 5456 C 523.686 0.781323 1.46576 0
M  V30 5457 O 524.871 1.03721 1.60145 0
M  V30 5458 C 522.011 2.24617 2.61995 0
M  V30 5459 C 521.124 3.51831 2.50677 0
M  V30 5460 C 520.259 3.73482 3.77736 0
M  V30 5461 C 519.298 4.94211 3.6114 0
M  V30 5462 N 518.435 5.12252 4.80148 0
M  V30 5463 H 523.275 2.82203 0.957355 0
M  V30 5464 H 520.812 1.39676 0.461415 0
M  V30 5465 H 522.77 2.41298 3.40339 0
M  V30 5466 H 521.4 1.38 2.91815 0
M  V30 5467 H 520.452 3.43343 1.63767 0
M  V30 5468 H 521.764 4.40328 2.34334 0
M  V30 5469 H 520.918 3.9026 4.64523 0
M  V30 5470 H 519.657 2.83266 3.97003 0
M  V30 5471 H 518.662 4.77384 2.72736 0
M  V30 5472 H 519.887 5.85912 3.43343 0
M  V30 5473 H 517.833 4.24978 4.99729 0
M  V30 5474 H 517.75 5.94881 4.66532 0
M  V30 5475 H 519.018 5.33465 5.68362 0
M  V30 5476 N 523.247 -0.488276 1.49845 0
M  V30 5477 C 524.493 -1.24341 1.6021 0
M  V30 5478 C 524.826 -1.91967 0.293651 0
M  V30 5479 O 524.101 -1.81323 -0.703718 0
M  V30 5480 C 524.384 -2.3005 2.77036 0
M  V30 5481 C 524.237 -1.66842 4.17713 0
M  V30 5482 C 525.556 -3.31509 2.89464 0
M  V30 5483 H 522.675 -0.450704 0.583125 0
M  V30 5484 H 525.317 -0.539673 1.82174 0
M  V30 5485 H 523.467 -2.90071 2.58439 0
M  V30 5486 H 525.139 -1.1055 4.47858 0
M  V30 5487 H 523.382 -0.972079 4.22768 0
M  V30 5488 H 524.053 -2.43576 4.95353 0
M  V30 5489 H 526.529 -2.81493 3.06433 0
M  V30 5490 H 525.405 -4.02822 3.72861 0
M  V30 5491 H 525.666 -3.94603 1.99351 0
M  V30 5492 N 524.725 -1.39134 -0.740242 0
M  V30 5493 C 525.973 -1.35803 -1.49673 0
M  V30 5494 C 526.294 0.0470897 -1.94943 0
M  V30 5495 O 525.564 0.997347 -1.68611 0
M  V30 5496 H 524.144 -0.499736 -0.555224 0
M  V30 5497 H 526.806 -1.73947 -0.879107 0
M  V30 5498 H 525.902 -2.0174 -2.38133 0
M  V30 5499 N 526.204 0.969867 -1.24223 0
M  V30 5500 C 527.151 2.06407 -1.0327 0
M  V30 5501 C 528.121 1.66014 0.0533 0
M  V30 5502 O 529.306 1.90533 -0.100896 0
M  V30 5503 C 526.446 3.3909 -0.641262 0
M  V30 5504 C 525.559 3.9269 -1.80051 0
M  V30 5505 C 524.694 5.13631 -1.35486 0
M  V30 5506 C 523.733 5.59423 -2.48419 0
M  V30 5507 N 522.87 6.71586 -2.04737 0
M  V30 5508 H 527.71 2.23663 -1.96923 0
M  V30 5509 H 525.247 1.09624 -0.980862 0
M  V30 5510 H 527.205 4.15323 -0.395351 0
M  V30 5511 H 525.835 3.21765 0.258269 0
M  V30 5512 H 524.887 3.13116 -2.16014 0
M  V30 5513 H 526.199 4.22636 -2.64916 0
M  V30 5514 H 525.353 5.97231 -1.0677 0
M  V30 5515 H 524.092 4.85364 -0.476722 0
M  V30 5516 H 523.097 4.74398 -2.77897 0
M  V30 5517 H 524.322 5.89705 -3.36786 0
M  V30 5518 H 522.268 6.45058 -1.19318 0
M  V30 5519 H 522.185 7.0097 -2.83156 0
M  V30 5520 H 523.453 7.58633 -1.79154 0
M  V30 5521 N 527.682 1.05563 1.17022 0
M  V30 5522 C 528.928 0.769074 1.87652 0
M  V30 5523 C 529.261 -0.702326 1.81055 0
M  V30 5524 O 528.536 -1.5139 1.22112 0
M  V30 5525 C 528.819 1.25492 3.37526 0
M  V30 5526 C 528.672 2.78953 3.52853 0
M  V30 5527 C 529.991 0.856919 4.31677 0
M  V30 5528 H 527.11 0.280854 0.681388 0
M  V30 5529 H 529.752 1.31027 1.37593 0
M  V30 5530 H 527.902 0.794516 3.80289 0
M  V30 5531 H 529.574 3.33146 3.19079 0
M  V30 5532 H 527.817 3.18046 2.95007 0
M  V30 5533 H 528.488 3.08011 4.58076 0
M  V30 5534 H 530.964 1.25334 3.96775 0
M  V30 5535 H 529.84 1.22443 5.35069 0
M  V30 5536 H 530.101 -0.238787 4.41455 0
M  V30 5537 N 529.16 -1.33526 0.837174 0
M  V30 5538 C 530.576 -1.50727 0.524743 0
M  V30 5539 C 530.776 -1.77792 -0.948279 0
M  V30 5540 O 529.832 -1.83719 -1.73216 0
M  V30 5541 C 531.145 -2.66299 1.39661 0
M  V30 5542 C 532.693 -2.80183 1.39521 0
M  V30 5543 C 533.168 -3.98815 2.25189 0
M  V30 5544 N 534.659 -4.06047 2.2289 0
M  V30 5545 C 535.394 -4.97032 2.85915 0
M  V30 5546 N 534.89 -5.93143 3.57985 0
M  V30 5547 N 536.683 -4.90015 2.75394 0
M  V30 5548 H 528.834 -1.1422 1.79074 0
M  V30 5549 H 531.097 -0.561399 0.763894 0
M  V30 5550 H 530.803 -2.52974 2.4433 0
M  V30 5551 H 530.677 -3.61663 1.07145 0
M  V30 5552 H 533.064 -2.92942 0.356253 0
M  V30 5553 H 533.145 -1.85586 1.76044 0
M  V30 5554 H 532.789 -3.86817 3.29143 0
M  V30 5555 H 532.719 -4.92654 1.86009 0
M  V30 5556 H 535.21 -3.37262 1.70478 0
M  V30 5557 H 535.523 -6.59227 4.03286 0
M  V30 5558 H 533.868 -5.93223 3.62093 0
M  V30 5559 H 537.059 -4.13894 2.18654 0
M  V30 5560 H 537.232 -5.60724 3.24796 0
M  V30 5561 N 530.638 -0.59345 -1.46 0
M  V30 5562 C 531.866 -0.0890934 -2.06708 0
M  V30 5563 C 532.281 1.2205 -1.44046 0
M  V30 5564 O 531.638 1.74029 -0.549551 0
M  V30 5565 C 531.689 0.0720263 -3.61428 0
M  V30 5566 O 531.41 -1.18574 -4.21748 0
M  V30 5567 C 532.911 0.609487 -4.3909 0
M  V30 5568 H 530.131 -0.0623628 -0.668096 0
M  V30 5569 H 532.675 -0.817171 -1.87464 0
M  V30 5570 H 530.83 0.750369 -3.80063 0
M  V30 5571 H 531.244 -1.0064 -5.14754 0
M  V30 5572 H 532.718 0.671363 -5.47902 0
M  V30 5573 H 533.195 1.62878 -4.07882 0
M  V30 5574 H 533.801 -0.03434 -4.25286 0
M  V30 5575 N 532.116 1.54067 -0.331816 0
M  V30 5576 C 533.532 1.59587 0.0205388 0
M  V30 5577 C 533.732 1.34813 1.49759 0
M  V30 5578 O 532.788 1.13661 2.25471 0
M  V30 5579 C 534.101 2.97959 -0.405103 0
M  V30 5580 C 535.649 3.10964 -0.356454 0
M  V30 5581 C 536.124 4.51694 -0.757384 0
M  V30 5582 N 537.615 4.57709 -0.71111 0
M  V30 5583 C 538.35 5.64729 -0.993427 0
M  V30 5584 N 537.846 6.79652 -1.3433 0
M  V30 5585 N 539.639 5.54546 -0.918442 0
M  V30 5586 H 531.79 1.68426 -1.29407 0
M  V30 5587 H 534.053 0.78819 -0.526745 0
M  V30 5588 H 533.759 3.21115 -1.43451 0
M  V30 5589 H 533.633 3.76524 0.225692 0
M  V30 5590 H 536.02 2.87538 0.663763 0
M  V30 5591 H 536.101 2.34484 -1.02229 0
M  V30 5592 H 535.745 4.75853 -1.77555 0
M  V30 5593 H 535.675 5.26555 -0.0691444 0
M  V30 5594 H 538.166 3.75176 -0.452883 0
M  V30 5595 H 538.479 7.57221 -1.54388 0
M  V30 5596 H 536.824 6.81128 -1.38164 0
M  V30 5597 H 540.015 4.63641 -0.644536 0
M  V30 5598 H 540.188 6.37861 -1.14181 0
M  V30 5599 N 533.594 0.0601682 1.57485 0
M  V30 5600 C 534.871 -0.651956 1.84415 0
M  V30 5601 C 535.251 -1.88498 0.950361 0
M  V30 5602 O 534.599 -2.28496 0.0136719 0
M  V30 5603 C 534.809 -1.00069 3.34346 0
M  V30 5604 C 536.157 -1.37915 4.01578 0
M  V30 5605 O 537.181 -1.09277 3.39024 0
M  V30 5606 O 536.04 -1.91399 5.11887 0
M  V30 5607 H 533.134 -0.322668 0.761455 0
M  V30 5608 H 535.68 0.0902159 1.6946 0
M  V30 5609 H 534.452 -0.124463 3.91102 0
M  V30 5610 H 534.075 -1.80001 3.54521 0
M  V30 5611 N 535.072 -1.5615 -0.213296 0
M  V30 5612 C 536.005 -1.88115 -1.29182 0
M  V30 5613 C 536.983 -0.739348 -1.44819 0
M  V30 5614 O 538.167 -0.988541 -1.605 0
M  V30 5615 C 535.294 -2.09541 -2.66102 0
M  V30 5616 C 534.34 -3.32236 -2.67436 0
M  V30 5617 S 535.173 -4.87915 -2.20679 0
M  V30 5618 C 536.329 -5.12387 -3.59458 0
M  V30 5619 H 536.562 -2.793 -1.01876 0
M  V30 5620 H 534.095 -1.48692 -0.415934 0
M  V30 5621 H 536.053 -2.22568 -3.44925 0
M  V30 5622 H 534.714 -1.19138 -2.90628 0
M  V30 5623 H 533.907 -3.44297 -3.6807 0
M  V30 5624 H 533.509 -3.18108 -1.96681 0
M  V30 5625 H 535.801 -5.01791 -4.55205 0
M  V30 5626 H 536.744 -6.14236 -3.52306 0
M  V30 5627 H 537.152 -4.40089 -3.53528 0
M  V30 5628 N 536.55 0.480323 -1.50102 0
M  V30 5629 C 537.798 1.23063 -1.60312 0
M  V30 5630 C 538.119 1.92659 -0.301226 0
M  V30 5631 O 537.389 1.83691 0.680753 0
M  V30 5632 H 535.969 0.457231 -0.590719 0
M  V30 5633 H 538.631 0.554893 -1.86834 0
M  V30 5634 H 537.727 1.9835 -2.40964 0
M  V30 5635 N 538.028 1.39524 0.732853 0
M  V30 5636 C 539.276 1.36594 1.48951 0
M  V30 5637 C 539.597 -0.0367507 1.94965 0
M  V30 5638 O 538.867 -0.988391 1.69138 0
M  V30 5639 H 537.447 0.502673 0.552566 0
M  V30 5640 H 540.109 1.74411 0.869869 0
M  V30 5641 H 539.205 2.03 2.3706 0
M  V30 5642 N 539.506 -0.963266 1.24736 0
M  V30 5643 C 540.736 -1.73913 1.11524 0
M  V30 5644 C 541.144 -1.86218 -0.334612 0
M  V30 5645 O 540.487 -1.3531 -1.24245 0
M  V30 5646 C 540.549 -3.17501 1.68622 0
M  V30 5647 C 540.213 -3.28655 3.17546 0
M  V30 5648 C 541.21 -3.13637 4.14642 0
M  V30 5649 C 538.895 -3.52753 3.5759 0
M  V30 5650 C 540.889 -3.2255 5.49764 0
M  V30 5651 C 538.576 -3.61303 4.92852 0
M  V30 5652 C 539.574 -3.46214 5.88748 0
M  V30 5653 O 539.262 -3.5443 7.2155 0
M  V30 5654 H 538.994 -0.552057 0.390139 0
M  V30 5655 H 541.548 -1.2177 1.65412 0
M  V30 5656 H 539.778 -3.70969 1.09172 0
M  V30 5657 H 541.467 -3.76914 1.50635 0
M  V30 5658 H 542.233 -2.94899 3.85045 0
M  V30 5659 H 538.112 -3.63561 2.83451 0
M  V30 5660 H 541.656 -3.1069 6.24594 0
M  V30 5661 H 537.553 -3.79556 5.22118 0
M  V30 5662 H 538.321 -3.71116 7.29531 0
M  V30 5663 N 540.985 -1.06182 -1.16461 0
M  V30 5664 C 542.21 -0.798599 -1.91408 0
M  V30 5665 C 542.635 0.640987 -1.76842 0
M  V30 5666 O 541.993 1.44652 -1.09296 0
M  V30 5667 C 542.041 -1.19665 -3.40165 0
M  V30 5668 O 541.145 -0.334768 -4.11039 0
M  V30 5669 H 540.486 -0.291961 -0.596368 0
M  V30 5670 H 543.016 -1.41732 -1.47557 0
M  V30 5671 H 543.026 -1.16772 -3.90933 0
M  V30 5672 H 541.701 -2.24526 -3.50087 0
M  V30 5673 H 540.278 -0.425168 -3.70468 0
M  V30 5674 N 542.463 1.3308 -0.844243 0
M  V30 5675 C 543.691 2.01808 -0.456203 0
M  V30 5676 C 544.106 1.63498 0.944131 0
M  V30 5677 O 543.463 0.85102 1.61443 0
M  V30 5678 C 543.514 3.56922 -0.573513 0
M  V30 5679 O 543.235 3.93851 -1.91868 0
M  V30 5680 C 544.736 4.42922 -0.183125 0
M  V30 5681 H 541.956 0.646273 -0.180477 0
M  V30 5682 H 544.5 1.69891 -1.1383 0
M  V30 5683 H 542.655 3.87352 0.0607367 0
M  V30 5684 H 543.069 4.88564 -1.90802 0
M  V30 5685 H 544.543 5.51093 -0.316241 0
M  V30 5686 H 545.02 4.30386 0.875477 0
M  V30 5687 H 545.626 4.1786 -0.792027 0
M  V30 5688 N 543.941 0.601185 1.45683 0
M  V30 5689 C 545.169 0.100054 2.06658 0
M  V30 5690 C 545.584 -1.21285 1.44691 0
M  V30 5691 O 544.941 -1.73735 0.558772 0
M  V30 5692 C 544.992 -0.0528579 3.61461 0
M  V30 5693 O 544.713 1.20809 4.21114 0
M  V30 5694 C 546.214 -0.586193 4.39407 0
M  V30 5695 H 543.434 0.065905 0.667756 0
M  V30 5696 H 545.978 0.827101 1.87028 0
M  V30 5697 H 544.133 -0.730203 3.80456 0
M  V30 5698 H 544.547 1.03368 5.14213 0
M  V30 5699 H 546.021 -0.642297 5.4825 0
M  V30 5700 H 546.498 -1.60713 4.0874 0
M  V30 5701 H 547.104 0.0568935 4.25262 0
M  V30 5702 N 545.419 -1.53889 0.339982 0
M  V30 5703 C 546.647 -2.05271 -0.259114 0
M  V30 5704 C 547.062 -1.21517 -1.44496 0
M  V30 5705 O 546.419 -0.24966 -1.80784 0
M  V30 5706 C 546.47 -3.55092 -0.677634 0
M  V30 5707 O 546.191 -4.35667 0.461051 0
M  V30 5708 C 547.692 -4.22631 -1.33782 0
M  V30 5709 H 544.912 -0.669085 -0.0506566 0
M  V30 5710 H 547.456 -1.9852 0.490935 0
M  V30 5711 H 545.611 -3.62077 -1.37763 0
M  V30 5712 H 546.025 -5.24343 0.128144 0
M  V30 5713 H 547.499 -5.28861 -1.58145 0
M  V30 5714 H 547.976 -3.74758 -2.29027 0
M  V30 5715 H 548.582 -4.19829 -0.679957 0
M  V30 5716 N 546.897 -0.0685191 -1.57451 0
M  V30 5717 C 548.174 0.642167 -1.84758 0
M  V30 5718 C 548.554 1.87991 -0.960344 0
M  V30 5719 O 547.902 2.28485 -0.0257894 0
M  V30 5720 C 548.112 0.982946 -3.34872 0
M  V30 5721 C 549.46 1.35784 -4.02303 0
M  V30 5722 O 550.484 1.07477 -3.39598 0
M  V30 5723 O 549.343 1.88681 -5.12895 0
M  V30 5724 H 546.437 0.318625 -0.763156 0
M  V30 5725 H 548.983 -0.0992015 -1.6941 0
M  V30 5726 H 547.755 0.10372 -3.91163 0
M  V30 5727 H 547.378 1.78119 -3.55471 0
M  V30 5728 N 548.375 1.56261 0.205012 0
M  V30 5729 C 549.622 1.8004 0.926927 0
M  V30 5730 C 549.95 0.640086 1.83666 0
M  V30 5731 O 549.205 -0.374702 1.92079 0
M  V30 5732 C 549.504 3.09722 1.78345 0
M  V30 5733 C 549.17 4.39082 1.02555 0
M  V30 5734 C 547.832 4.74226 0.816256 0
M  V30 5735 C 550.184 5.18877 0.491559 0
M  V30 5736 C 547.512 5.86668 0.0613287 0
M  V30 5737 C 549.864 6.32105 -0.250107 0
M  V30 5738 C 548.528 6.6584 -0.470508 0
M  V30 5739 H 547.798 0.658812 0.339187 0
M  V30 5740 H 550.445 1.90515 0.19395 0
M  V30 5741 H 548.75 2.9444 2.5848 0
M  V30 5742 H 550.447 3.25324 2.34446 0
M  V30 5743 H 547.037 4.11497 1.19868 0
M  V30 5744 H 551.221 4.92147 0.640684 0
M  V30 5745 H 546.477 6.11283 -0.119501 0
M  V30 5746 H 550.651 6.93157 -0.671307 0
M  V30 5747 H 548.278 7.5281 -1.05739 0
M  V30 5748 N 549.853 -0.472356 1.50355 0
M  V30 5749 C 551.102 -1.2213 1.60522 0
M  V30 5750 C 551.415 -1.9312 0.310466 0
M  V30 5751 O 552.621 -2.69936 0.291029 0
M  V30 5752 C 551.077 -2.21909 2.83345 0
M  V30 5753 C 550.685 -1.56727 4.19691 0
M  V30 5754 C 552.429 -2.97453 3.02856 0
M  V30 5755 C 550.336 -2.54785 5.33703 0
M  V30 5756 H 549.266 -0.459543 0.597776 0
M  V30 5757 H 551.917 -0.491922 1.76783 0
M  V30 5758 H 550.299 -2.98133 2.60639 0
M  V30 5759 H 551.473 -0.863007 4.52646 0
M  V30 5760 H 549.788 -0.934685 4.05774 0
M  V30 5761 H 552.385 -3.70838 3.85205 0
M  V30 5762 H 552.728 -3.56764 2.14534 0
M  V30 5763 H 553.261 -2.28342 3.25737 0
M  V30 5764 H 550 -2.00214 6.24175 0
M  V30 5765 H 549.52 -3.23367 5.05167 0
M  V30 5766 H 551.199 -3.16639 5.64224 0
M  V30 5767 N 551.331 -1.39911 -0.725443 0
M  V30 5768 C 552.278 -1.39393 -1.83952 0
M  V30 5769 C 553.248 -0.252249 -1.64173 0
M  V30 5770 O 554.433 -0.44882 -1.85446 0
M  V30 5771 C 551.573 -1.25262 -3.21564 0
M  V30 5772 C 550.686 -2.49054 -3.52982 0
M  V30 5773 C 549.821 -2.27439 -4.80047 0
M  V30 5774 C 548.86 -3.46857 -5.04338 0
M  V30 5775 N 547.997 -3.24499 -6.22611 0
M  V30 5776 H 552.837 -2.34622 -1.83729 0
M  V30 5777 H 550.374 -1.16537 -0.897636 0
M  V30 5778 H 552.332 -1.15077 -4.01015 0
M  V30 5779 H 550.962 -0.33657 -3.21041 0
M  V30 5780 H 550.014 -2.69805 -2.6816 0
M  V30 5781 H 551.326 -3.37973 -3.66846 0
M  V30 5782 H 550.48 -2.14551 -5.67497 0
M  V30 5783 H 549.219 -1.35929 -4.68374 0
M  V30 5784 H 548.224 -3.60232 -4.15346 0
M  V30 5785 H 549.449 -4.3928 -5.17889 0
M  V30 5786 H 547.395 -2.35663 -6.12208 0
M  V30 5787 H 547.312 -4.06978 -6.37106 0
M  V30 5788 H 548.58 -3.15325 -7.12875 0
M  V30 5789 N 552.809 0.956637 -1.25245 0
M  V30 5790 C 554.034 1.74104 -1.12706 0
M  V30 5791 C 554.459 1.85436 0.315429 0
M  V30 5792 O 553.817 1.33334 1.22848 0
M  V30 5793 C 553.865 3.1338 -1.78396 0
M  V30 5794 O 552.969 3.98485 -1.06224 0
M  V30 5795 H 552.31 0.53476 -0.393609 0
M  V30 5796 H 554.84 1.19924 -1.65769 0
M  V30 5797 H 554.85 3.6385 -1.846 0
M  V30 5798 H 553.525 3.04448 -2.83345 0
M  V30 5799 H 552.102 3.56952 -1.07886 0
M  V30 5800 N 554.287 1.06798 1.15896 0
M  V30 5801 C 555.533 0.788934 1.86825 0
M  V30 5802 C 555.866 -0.683084 1.8179 0
M  V30 5803 O 555.141 -1.50086 1.23711 0
M  V30 5804 C 555.424 1.29065 3.36176 0
M  V30 5805 C 555.277 2.8268 3.49874 0
M  V30 5806 C 556.596 0.902655 4.30744 0
M  V30 5807 H 553.715 0.288066 0.678371 0
M  V30 5808 H 556.357 1.32479 1.36195 0
M  V30 5809 H 554.507 0.834806 3.79425 0
M  V30 5810 H 556.179 3.36511 3.15528 0
M  V30 5811 H 554.422 3.21157 2.91617 0
M  V30 5812 H 555.093 3.12852 4.54783 0
M  V30 5813 H 557.569 1.29535 3.95424 0
M  V30 5814 H 556.445 1.28111 5.3374 0
M  V30 5815 H 556.706 -0.191951 4.41683 0
M  V30 5816 N 555.766 -1.3263 0.851289 0
M  V30 5817 C 557.015 -1.96633 0.449267 0
M  V30 5818 C 557.328 -1.68131 -0.999562 0
M  V30 5819 O 558.534 -2.25845 -1.50685 0
M  V30 5820 C 556.99 -3.51946 0.752446 0
M  V30 5821 C 556.598 -3.89311 2.21678 0
M  V30 5822 C 558.342 -4.22437 0.417983 0
M  V30 5823 C 556.249 -5.37655 2.46336 0
M  V30 5824 H 555.179 -0.735888 0.164269 0
M  V30 5825 H 557.83 -1.51073 1.0416 0
M  V30 5826 H 556.212 -3.95899 0.0895858 0
M  V30 5827 H 557.386 -3.56378 2.92115 0
M  V30 5828 H 555.701 -3.31836 2.51543 0
M  V30 5829 H 558.298 -5.31549 0.579674 0
M  V30 5830 H 558.641 -4.11349 -0.640115 0
M  V30 5831 H 559.174 -3.84057 1.03659 0
M  V30 5832 H 555.913 -5.5376 3.50757 0
M  V30 5833 H 555.433 -5.72005 1.80473 0
M  V30 5834 H 557.112 -6.04695 2.30115 0
M  V30 5835 N 557.244 -0.608902 -1.45362 0
M  V30 5836 C 558.492 -0.104401 -2.0183 0
M  V30 5837 C 558.813 1.27007 -1.47967 0
M  V30 5838 O 558.083 1.83924 -0.674455 0
M  V30 5839 H 556.663 -0.0356042 -0.746151 0
M  V30 5840 H 559.325 -0.790596 -1.78145 0
M  V30 5841 H 558.421 -0.0551793 -3.12051 0
M  V30 5842 N 558.722 1.53707 -0.348139 0
M  V30 5843 C 559.672 2.2193 0.522592 0
M  V30 5844 C 560.656 1.20831 1.06248 0
M  V30 5845 O 561.848 1.46357 0.995415 0
M  V30 5846 C 558.977 2.99904 1.6707 0
M  V30 5847 C 558.063 4.08364 1.14454 0
M  V30 5848 N 558.454 5.04656 0.339958 0
M  V30 5849 C 556.752 4.22757 1.421 0
M  V30 5850 C 557.453 5.81675 0.0538806 0
M  V30 5851 N 556.429 5.39739 0.646776 0
M  V30 5852 H 560.231 2.93733 -0.099135 0
M  V30 5853 H 557.745 1.61656 -0.15524 0
M  V30 5854 H 559.742 3.47284 2.30651 0
M  V30 5855 H 558.402 2.29629 2.29566 0
M  V30 5856 H 559.413 5.17896 -0.0193552 0
M  V30 5857 H 556.09 3.63704 2.05002 0
M  V30 5858 H 557.48 6.69256 -0.595443 0
M  V30 5859 N 560.2 0.0768682 1.57412 0
M  V30 5860 C 561.13 -0.886026 2.16037 0
M  V30 5861 C 562.111 -1.30691 1.08876 0
M  V30 5862 O 563.296 -1.37705 1.36934 0
M  V30 5863 C 560.426 -2.1518 2.72608 0
M  V30 5864 C 559.38 -1.87015 3.8498 0
M  V30 5865 C 558.706 -3.20266 4.28175 0
M  V30 5866 C 560.006 -1.17143 5.08994 0
M  V30 5867 H 561.7 -0.397642 2.96748 0
M  V30 5868 H 559.246 -0.189823 1.42743 0
M  V30 5869 H 561.199 -2.82962 3.12266 0
M  V30 5870 H 559.923 -2.66269 1.89125 0
M  V30 5871 H 558.582 -1.21636 3.45833 0
M  V30 5872 H 558.23 -3.69207 3.41607 0
M  V30 5873 H 557.93 -3.0221 5.03927 0
M  V30 5874 H 559.454 -3.89237 4.70454 0
M  V30 5875 H 560.868 -1.75003 5.45937 0
M  V30 5876 H 559.265 -1.09328 5.90057 0
M  V30 5877 H 560.335 -0.151295 4.84664 0
M  V30 5878 N 561.678 -1.56367 -0.196722 0
M  V30 5879 C 562.61 -1.90941 -1.26784 0
M  V30 5880 C 563.623 -0.799928 -1.41792 0
M  V30 5881 O 564.812 -1.07833 -1.42247 0
M  V30 5882 C 561.912 -2.12477 -2.6402 0
M  V30 5883 C 561.085 -3.43616 -2.70641 0
M  V30 5884 C 560.144 -3.54284 -3.89062 0
M  V30 5885 O 559.17 -4.2712 -3.76241 0
M  V30 5886 N 560.372 -2.87252 -5.04447 0
M  V30 5887 H 563.137 -2.83417 -0.974417 0
M  V30 5888 H 560.698 -1.57215 -0.386649 0
M  V30 5889 H 562.69 -2.16904 -3.41665 0
M  V30 5890 H 561.26 -1.26508 -2.85857 0
M  V30 5891 H 560.48 -3.51072 -1.79283 0
M  V30 5892 H 561.768 -4.29958 -2.72054 0
M  V30 5893 H 561.166 -2.27901 -5.17762 0
M  V30 5894 H 559.723 -2.97308 -5.80044 0
M  V30 5895 N 563.156 0.464375 -1.50603 0
M  V30 5896 C 564.384 1.23907 -1.65695 0
M  V30 5897 C 564.799 1.85658 -0.343027 0
M  V30 5898 O 564.156 1.69529 0.675739 0
M  V30 5899 C 564.207 2.3429 -2.75301 0
M  V30 5900 O 563.928 1.7507 -4.01599 0
M  V30 5901 C 565.429 3.25051 -3.01424 0
M  V30 5902 H 562.649 0.374485 -0.556778 0
M  V30 5903 H 565.193 0.55353 -1.96866 0
M  V30 5904 H 563.348 2.98607 -2.46804 0
M  V30 5905 H 563.762 2.47812 -4.62266 0
M  V30 5906 H 565.236 3.98699 -3.81763 0
M  V30 5907 H 565.713 3.84227 -2.12758 0
M  V30 5908 H 566.319 2.66463 -3.31477 0
M  V30 5909 N 564.634 1.40294 0.718013 0
M  V30 5910 C 565.581 1.40367 1.8321 0
M  V30 5911 C 566.551 0.260952 1.64037 0
M  V30 5912 O 567.736 0.458648 1.85205 0
M  V30 5913 C 564.876 1.26965 3.20895 0
M  V30 5914 C 563.989 2.50922 3.51656 0
M  V30 5915 C 563.124 2.29981 4.78834 0
M  V30 5916 C 562.163 3.49527 5.02491 0
M  V30 5917 N 561.3 3.27796 6.20882 0
M  V30 5918 H 566.14 2.35593 1.82482 0
M  V30 5919 H 563.677 1.17012 0.891444 0
M  V30 5920 H 565.635 1.17202 4.00399 0
M  V30 5921 H 564.265 0.353591 3.20858 0
M  V30 5922 H 563.317 2.71223 2.66725 0
M  V30 5923 H 564.629 3.39913 3.65048 0
M  V30 5924 H 563.783 2.17558 5.66351 0
M  V30 5925 H 562.522 1.38411 4.67647 0
M  V30 5926 H 561.527 3.6243 4.1343 0
M  V30 5927 H 562.752 4.42021 5.15553 0
M  V30 5928 H 560.698 2.38906 6.1095 0
M  V30 5929 H 560.615 4.10351 6.34939 0
M  V30 5930 H 561.883 3.19101 7.11193 0
M  V30 5931 N 566.112 -0.949982 1.2575 0
M  V30 5932 C 567.36 -1.6918 1.10555 0
M  V30 5933 C 567.681 -1.91773 -0.353298 0
M  V30 5934 O 566.951 -1.50814 -1.25027 0
M  V30 5935 H 565.531 -0.626952 0.406129 0
M  V30 5936 H 568.193 -1.1419 1.57945 0
M  V30 5937 H 567.289 -2.66915 1.61749 0
M  V30 5938 N 567.59 -1.07411 -1.15328 0
M  V30 5939 C 568.815 -0.818856 -1.90551 0
M  V30 5940 C 569.24 0.622194 -1.77512 0
M  V30 5941 O 568.598 1.43484 -1.10824 0
M  V30 5942 C 568.646 -1.23267 -3.38877 0
M  V30 5943 O 567.75 -0.378345 -4.10661 0
M  V30 5944 H 567.091 -0.29827 -0.593238 0
M  V30 5945 H 569.621 -1.43289 -1.46046 0
M  V30 5946 H 569.631 -1.20912 -3.89672 0
M  V30 5947 H 568.306 -2.28226 -3.47686 0
M  V30 5948 H 566.883 -0.464437 -3.69996 0
M  V30 5949 O 569.107 1.27418 -0.99231 0
M  V30 5950 H 569.798 1.82762 -0.641704 0
M  V30 END ATOM
M  V30 BEGIN BOND
M  V30 END BOND
M  V30 END CTAB
M  END
$$$$
