drugbank_target|O43920 NADH dehydrogenase [ubiquinone] iron-sulfur protein 5 (DB00157)
 OpenBabel12092119243D

  0  0  0     0  0            999 V3000
M  V30 BEGIN CTAB
M  V30 COUNTS 1762 1784 0 0 0
M  V30 BEGIN ATOM
M  V30 1 H -0.908 1.98254 -0.117106 0
M  V30 2 N 0 1.576 0 0
M  V30 3 C 0.933 2.03868 1.02534 0
M  V30 4 C 1.911 0.928543 1.3348 0
M  V30 5 O 3.095 1.19667 1.45644 0
M  V30 6 C 0.222 2.43627 2.35294 0
M  V30 7 C -0.732 3.65373 2.2001 0
M  V30 8 S 0.101 5.13292 1.52614 0
M  V30 9 C 1.257 5.56322 2.86805 0
M  V30 10 H 1.49 2.90518 0.631377 0
M  V30 11 H -0.977 1.52953 0.210867 0
M  V30 12 H 0.981 2.67203 3.11629 0
M  V30 13 H -0.358 1.57376 2.7183 0
M  V30 14 H -1.165 3.90944 3.18086 0
M  V30 15 H -1.563 3.418 1.51819 0
M  V30 16 H 0.729 5.58782 3.83104 0
M  V30 17 H 1.672 6.56266 2.65933 0
M  V30 18 H 2.08 4.83886 2.90714 0
M  V30 19 N 1.4781 -0.272755 1.55222 0
M  V30 20 C 2.8891 -0.84378 1.66545 0
M  V30 21 C 3.2401 -1.87035 0.592641 0
M  V30 22 O 2.3651 -2.14761 -0.265818 0
M  V30 23 C 2.9601 -1.53723 3.01918 0
M  V30 24 C 1.5191 -2.05628 3.15268 0
M  V30 25 C 0.6661 -0.898424 2.62343 0
M  V30 26 H 3.6171 -0.0490998 1.58624 0
M  V30 27 H 3.6381 -2.40421 2.94921 0
M  V30 28 H 3.1501 -0.78983 3.79978 0
M  V30 29 H 1.2511 -2.83329 2.41983 0
M  V30 30 H 1.3641 -2.27142 4.21833 0
M  V30 31 H -0.2719 -1.29186 2.19506 0
M  V30 32 H 0.5111 -0.164528 3.42906 0
M  V30 33 N 2.9562 -1.48159 -0.537278 0
M  V30 34 C 4.2032 -1.55804 -1.29349 0
M  V30 35 C 4.5312 -0.228802 -1.9315 0
M  V30 36 O 3.7862 0.780242 -1.79473 0
M  V30 37 C 4.0852 -2.63956 -2.40961 0
M  V30 38 C 3.7512 -4.0662 -1.94861 0
M  V30 39 C 2.4132 -4.45452 -1.82006 0
M  V30 40 C 4.7652 -4.96055 -1.59933 0
M  V30 41 C 2.0932 -5.71531 -1.32547 0
M  V30 42 C 4.4452 -6.22617 -1.11939 0
M  V30 43 C 3.1092 -6.60312 -0.976951 0
M  V30 44 H 2.3792 -0.570129 -0.473322 0
M  V30 45 H 5.0262 -1.81845 -0.600372 0
M  V30 46 H 3.3312 -2.31747 -3.15912 0
M  V30 47 H 5.0282 -2.67089 -2.99107 0
M  V30 48 H 1.6182 -3.75949 -2.05815 0
M  V30 49 H 5.8022 -4.66738 -1.68728 0
M  V30 50 H 1.0582 -5.99468 -1.202 0
M  V30 51 H 5.2322 -6.91318 -0.839811 0
M  V30 52 H 2.8592 -7.57895 -0.591501 0
M  V30 53 N 4.4343 0.785586 -1.36625 0
M  V30 54 C 5.3643 1.91259 -1.33949 0
M  V30 55 C 6.3453 1.68795 -0.210325 0
M  V30 56 O 7.5303 1.89854 -0.408561 0
M  V30 57 C 4.6603 3.28339 -1.13186 0
M  V30 58 C 3.6143 3.65335 -2.22967 0
M  V30 59 C 2.9403 5.00806 -1.87342 0
M  V30 60 C 4.2403 3.7352 -3.65075 0
M  V30 61 H 5.9343 1.93755 -2.28253 0
M  V30 62 H 3.4803 0.930788 -1.09874 0
M  V30 63 H 5.4333 4.06804 -1.09948 0
M  V30 64 H 4.1573 3.2624 -0.153332 0
M  V30 65 H 2.8163 2.89169 -2.25337 0
M  V30 66 H 2.4643 4.95233 -0.880545 0
M  V30 67 H 2.1643 5.26529 -2.60846 0
M  V30 68 H 3.6883 5.81687 -1.85667 0
M  V30 69 H 5.1023 4.42168 -3.64911 0
M  V30 70 H 3.4993 4.10731 -4.37516 0
M  V30 71 H 4.5693 2.74527 -3.99703 0
M  V30 72 N 5.9124 1.20967 1.01018 0
M  V30 73 C 7.1894 0.93264 1.71934 0
M  V30 74 C 7.5694 -0.55692 2.03621 0
M  V30 75 O 6.9174 -1.52035 1.7058 0
M  V30 76 C 7.1274 1.81233 2.98254 0
M  V30 77 C 8.4754 2.05804 3.71389 0
M  V30 78 O 9.4994 1.78539 3.08225 0
M  V30 79 O 8.3584 2.51888 4.84989 0
M  V30 80 H 5.4524 0.349272 0.749625 0
M  V30 81 H 7.9984 1.31871 1.06808 0
M  V30 82 H 6.7704 2.82067 2.71208 0
M  V30 83 H 6.3934 1.42674 3.7112 0
M  V30 84 N 7.3905 -1.2043 1.01659 0
M  V30 85 C 8.6395 -1.89118 0.701237 0
M  V30 86 C 8.9525 -1.79705 -0.772358 0
M  V30 87 O 10.1585 -2.43528 -1.20026 0
M  V30 88 C 8.6145 -3.39168 1.20388 0
M  V30 89 C 8.2225 -3.57166 2.70438 0
M  V30 90 C 9.9665 -4.1341 0.963953 0
M  V30 91 C 7.8735 -5.01042 3.14183 0
M  V30 92 H 6.8035 -0.708267 0.2586 0
M  V30 93 H 9.4545 -1.36239 1.22927 0
M  V30 94 H 7.8365 -3.91369 0.603824 0
M  V30 95 H 9.0105 -3.15351 3.35992 0
M  V30 96 H 7.3255 -2.96294 2.92572 0
M  V30 97 H 9.9225 -5.19491 1.26621 0
M  V30 98 H 10.2655 -4.16181 -0.099578 0
M  V30 99 H 10.7985 -3.67309 1.52738 0
M  V30 100 H 7.5375 -5.03426 4.19812 0
M  V30 101 H 7.0575 -5.43668 2.53348 0
M  V30 102 H 8.7365 -5.69623 3.0682 0
M  V30 103 N 8.8686 -0.792821 -1.36206 0
M  V30 104 C 9.8006 -0.151469 -2.28699 0
M  V30 105 C 10.8136 0.641262 -1.49638 0
M  V30 106 O 12.0026 0.475885 -1.72039 0
M  V30 107 C 9.1026 0.808424 -3.29117 0
M  V30 108 C 8.2756 0.0650202 -4.37352 0
M  V30 109 C 7.3346 0.941358 -5.17711 0
M  V30 110 O 6.3606 0.397352 -5.67811 0
M  V30 111 N 7.5626 2.2652 -5.3448 0
M  V30 112 H 10.3276 -0.945982 -2.84379 0
M  V30 113 H 7.8886 -0.647032 -1.48409 0
M  V30 114 H 9.8806 1.3986 -3.79765 0
M  V30 115 H 8.4506 1.5038 -2.74052 0
M  V30 116 H 7.6706 -0.706255 -3.87822 0
M  V30 117 H 8.9586 -0.447847 -5.06825 0
M  V30 118 H 8.3566 2.73128 -4.95396 0
M  V30 119 H 6.9136 2.80493 -5.88359 0
M  V30 120 N 10.3467 1.47872 -0.545128 0
M  V30 121 C 11.2937 2.29849 0.2093 0
M  V30 122 C 12.2637 1.38313 0.919707 0
M  V30 123 O 13.4487 1.67277 0.917772 0
M  V30 124 C 10.5887 3.22019 1.24088 0
M  V30 125 C 9.7017 4.2864 0.537778 0
M  V30 126 C 8.8367 5.07973 1.5536 0
M  V30 127 C 7.8757 6.06381 0.8348 0
M  V30 128 N 7.0127 6.78717 1.79688 0
M  V30 129 H 11.8527 2.93845 -0.49591 0
M  V30 130 H 9.3897 1.44848 -0.256389 0
M  V30 131 H 11.3477 3.73868 1.85144 0
M  V30 132 H 9.9777 2.59914 1.91428 0
M  V30 133 H 9.0297 3.7994 -0.187046 0
M  V30 134 H 10.3417 4.98793 -0.0258907 0
M  V30 135 H 9.4957 5.63912 2.23803 0
M  V30 136 H 8.2347 4.37693 2.15118 0
M  V30 137 H 7.2397 5.49631 0.136388 0
M  V30 138 H 8.4647 6.78665 0.24313 0
M  V30 139 H 6.4107 6.11177 2.38326 0
M  V30 140 H 6.3277 7.44998 1.28505 0
M  V30 141 H 7.5957 7.39237 2.47282 0
M  V30 142 N 11.8248 0.280983 1.55075 0
M  V30 143 C 13.2408 -0.0729964 1.59433 0
M  V30 144 C 13.4408 -1.5411 1.29817 0
M  V30 145 O 12.4968 -2.29086 1.06187 0
M  V30 146 C 13.8098 0.306921 2.9913 0
M  V30 147 C 15.3578 0.254023 3.11968 0
M  V30 148 C 15.8328 0.608467 4.5394 0
M  V30 149 N 17.3238 0.560241 4.59799 0
M  V30 150 C 18.0588 0.80722 5.6769 0
M  V30 151 N 17.5548 1.11912 6.83701 0
M  V30 152 N 19.3478 0.735623 5.57266 0
M  V30 153 H 11.4988 1.238 1.7259 0
M  V30 154 H 13.7618 0.500547 0.805082 0
M  V30 155 H 13.4678 1.32816 3.25657 0
M  V30 156 H 13.3418 -0.349363 3.75579 0
M  V30 157 H 15.7288 -0.75794 2.852 0
M  V30 158 H 15.8098 0.944649 2.37718 0
M  V30 159 H 15.4538 1.61814 4.81434 0
M  V30 160 H 15.3838 -0.104013 5.26497 0
M  V30 161 H 17.8748 0.329288 3.76463 0
M  V30 162 H 18.1878 1.29409 7.61888 0
M  V30 163 H 16.5328 1.15695 6.85303 0
M  V30 164 H 19.7238 0.491752 4.6551 0
M  V30 165 H 19.8968 0.931482 6.4127 0
M  V30 166 N 13.3029 -1.57598 0.00835791 0
M  V30 167 C 14.5499 -1.90928 -0.674732 0
M  V30 168 C 14.8779 -0.88277 -1.73313 0
M  V30 169 O 14.1329 0.111294 -1.95383 0
M  V30 170 C 14.4319 -3.3101 -1.34787 0
M  V30 171 C 14.0979 -4.48922 -0.421861 0
M  V30 172 C 12.7599 -4.8091 -0.166927 0
M  V30 173 C 15.1119 -5.20755 0.215211 0
M  V30 174 C 12.4399 -5.821 0.733232 0
M  V30 175 C 14.7919 -6.22905 1.1033 0
M  V30 176 C 13.4559 -6.53346 1.36733 0
M  V30 177 H 12.7259 -0.698656 -0.246902 0
M  V30 178 H 15.3729 -1.91387 0.0656779 0
M  V30 179 H 13.6779 -3.26714 -2.16253 0
M  V30 180 H 15.3749 -3.54061 -1.8826 0
M  V30 181 H 11.9649 -4.23934 -0.630729 0
M  V30 182 H 16.1489 -4.9629 0.0312829 0
M  V30 183 H 11.4049 -6.04042 0.945712 0
M  V30 184 H 15.5789 -6.77694 1.60325 0
M  V30 185 H 13.2059 -7.31573 2.06652 0
M  V30 186 N 14.781 0.264519 -1.55364 0
M  V30 187 C 16.029 0.993021 -1.76021 0
M  V30 188 C 16.35 1.86511 -0.569099 0
M  V30 189 O 15.62 1.91438 0.415735 0
M  V30 190 H 14.2 0.369639 -0.649135 0
M  V30 191 H 16.862 0.286707 -1.9278 0
M  V30 192 H 15.958 1.62502 -2.66457 0
M  V30 193 N 16.2591 1.48442 0.529413 0
M  V30 194 C 17.1891 1.65902 1.64313 0
M  V30 195 C 18.1701 0.507897 1.6234 0
M  V30 196 O 19.3551 0.740503 1.79528 0
M  V30 197 C 16.4851 1.69911 3.02898 0
M  V30 198 C 15.4391 2.8453 3.19729 0
M  V30 199 C 14.7651 2.73629 4.59381 0
M  V30 200 C 16.0651 4.25821 3.02447 0
M  V30 201 H 17.7591 2.5914 1.49955 0
M  V30 202 H 15.3051 1.24709 0.719982 0
M  V30 203 H 17.2581 1.80715 3.80684 0
M  V30 204 H 15.9821 0.732524 3.18279 0
M  V30 205 H 14.6411 2.73283 2.44361 0
M  V30 206 H 14.2891 1.74938 4.71599 0
M  V30 207 H 13.9891 3.50541 4.71588 0
M  V30 208 H 15.5131 2.86401 5.39265 0
M  V30 209 H 16.9271 4.37898 3.70024 0
M  V30 210 H 15.3241 5.03735 3.26146 0
M  V30 211 H 16.3941 4.42244 1.98867 0
M  V30 212 N 17.7372 -0.778329 1.37039 0
M  V30 213 C 18.6852 -1.91278 1.32345 0
M  V30 214 C 19.6792 -1.68051 0.213331 0
M  V30 215 O 20.8852 -1.75922 0.38098 0
M  V30 216 H 17.2602 -0.628909 0.412283 0
M  V30 217 H 19.2312 -1.92355 2.28127 0
M  V30 218 C 17.9802 -3.28455 1.14073 0
M  V30 219 H 17.3032 -3.46901 1.98746 0
M  V30 220 H 18.7432 -4.08152 1.14837 0
M  V30 221 C 17.2022 -3.36548 -0.154015 0
M  V30 222 O 17.7322 -3.85186 -1.13993 0
M  V30 223 N 15.9382 -2.89894 -0.202475 0
M  V30 224 H 15.4852 -2.50504 0.600476 0
M  V30 225 H 15.4432 -2.9569 -1.06841 0
M  V30 226 N 19.2153 -1.21501 -1.00376 0
M  V30 227 C 20.4643 -1.02718 -1.73586 0
M  V30 228 C 20.7773 0.439589 -1.90596 0
M  V30 229 O 21.9833 0.746848 -2.61026 0
M  V30 230 C 20.4393 -1.78929 -3.1227 0
M  V30 231 C 20.0473 -3.29783 -3.03228 0
M  V30 232 C 21.7913 -1.68557 -3.89601 0
M  V30 233 C 19.6983 -3.98479 -4.36999 0
M  V30 234 H 18.6283 -0.380733 -0.650814 0
M  V30 235 H 21.2793 -1.45248 -1.1214 0
M  V30 236 H 19.6613 -1.29192 -3.74333 0
M  V30 237 H 20.8353 -3.86832 -2.50395 0
M  V30 238 H 19.1503 -3.40711 -2.39385 0
M  V30 239 H 21.7473 -2.17211 -4.88593 0
M  V30 240 H 22.0903 -0.644021 -4.11288 0
M  V30 241 H 22.6233 -2.15778 -3.34193 0
M  V30 242 H 19.3623 -5.02841 -4.20513 0
M  V30 243 H 18.8823 -3.46219 -4.89788 0
M  V30 244 H 20.5613 -4.03462 -5.05794 0
M  V30 245 N 20.6934 1.19889 -1.02296 0
M  V30 246 C 21.9704 1.85148 -0.630832 0
M  V30 247 C 22.3504 1.91385 0.890782 0
M  V30 248 O 21.6984 1.42642 1.78509 0
M  V30 249 C 21.9084 3.24442 -1.28602 0
M  V30 250 C 23.2564 4.00663 -1.4055 0
M  V30 251 O 24.2804 3.33818 -1.24273 0
M  V30 252 O 23.1394 5.20387 -1.66913 0
M  V30 253 H 20.2334 0.797613 -0.218499 0
M  V30 254 H 22.7794 1.27427 -1.12074 0
M  V30 255 H 21.5514 3.14704 -2.32545 0
M  V30 256 H 21.1744 3.89802 -0.7836 0
M  V30 257 N 22.1715 0.800033 1.35784 0
M  V30 258 C 23.5875 0.482977 1.52117 0
M  V30 259 C 23.7875 -0.996948 1.75109 0
M  V30 260 O 22.8435 -1.78216 1.78872 0
M  V30 261 C 24.1565 1.32264 2.70049 0
M  V30 262 C 25.7045 1.31742 2.83924 0
M  V30 263 C 26.1795 2.14106 4.04874 0
M  V30 264 N 27.6705 2.11607 4.12039 0
M  V30 265 C 28.4055 2.72099 5.04727 0
M  V30 266 N 27.9015 3.41492 6.02789 0
M  V30 267 N 29.6945 2.61776 4.97423 0
M  V30 268 H 21.8455 1.75856 1.19115 0
M  V30 269 H 24.1085 0.748122 0.582252 0
M  V30 270 H 23.8145 2.37261 2.59616 0
M  V30 271 H 23.6885 0.971303 3.6448 0
M  V30 272 H 26.0755 0.275333 2.93813 0
M  V30 273 H 26.1565 1.70859 1.9037 0
M  V30 274 H 25.8005 3.18351 3.95746 0
M  V30 275 H 25.7305 1.72353 4.97596 0
M  V30 276 H 28.2215 1.61112 3.41835 0
M  V30 277 H 28.5345 3.84953 6.70098 0
M  V30 278 H 26.8795 3.45596 6.02983 0
M  V30 279 H 30.0705 2.07157 4.19766 0
M  V30 280 H 30.2435 3.0921 5.69468 0
M  V30 281 N 23.6496 -1.47581 0.552962 0
M  V30 282 C 24.8956 -2.03369 0.0355807 0
M  V30 283 C 25.2506 -1.42016 -1.29805 0
M  V30 284 O 24.5436 -0.564917 -1.83083 0
M  V30 285 C 24.7376 -3.57199 -0.119728 0
M  V30 286 C 24.5666 -4.33468 1.1973 0
M  V30 287 C 23.3366 -4.7353 1.76345 0
M  V30 288 C 25.5346 -4.68866 2.11351 0
M  V30 289 N 23.5166 -5.34426 3.02097 0
M  V30 290 C 24.8876 -5.3002 3.21681 0
M  V30 291 C 26.9426 -4.50795 2.11397 0
M  V30 292 C 25.6456 -5.75011 4.32151 0
M  V30 293 C 27.6716 -4.96782 3.20876 0
M  V30 294 C 27.0336 -5.57981 4.29926 0
M  V30 295 H 23.1326 -0.780058 0.0550806 0
M  V30 296 H 25.7166 -1.80117 0.739315 0
M  V30 297 H 23.8876 -3.80227 -0.792579 0
M  V30 298 H 25.6196 -3.99627 -0.638792 0
M  V30 299 H 22.3746 -4.55352 1.30196 0
M  V30 300 H 22.7986 -5.69421 3.66182 0
M  V30 301 H 27.4406 -4.0284 1.28372 0
M  V30 302 H 25.1586 -6.21959 5.15938 0
M  V30 303 H 28.7446 -4.84573 3.21994 0
M  V30 304 H 27.6246 -5.92918 5.13243 0
M  V30 305 N 25.1277 -0.289203 -1.54924 0
M  V30 306 C 26.0577 0.58549 -2.2604 0
M  V30 307 C 27.0387 1.14753 -1.25562 0
M  V30 308 O 28.2237 1.17906 -1.54311 0
M  V30 309 C 25.3537 1.76305 -2.99222 0
M  V30 310 C 24.3077 1.33191 -4.06748 0
M  V30 311 C 23.6337 2.5937 -4.6758 0
M  V30 312 C 24.9337 0.471775 -5.20165 0
M  V30 313 H 26.6277 -0.00763532 -2.99399 0
M  V30 314 H 24.1737 -0.00511229 -1.43999 0
M  V30 315 H 26.1267 2.38097 -3.47689 0
M  V30 316 H 24.8507 2.38223 -2.23422 0
M  V30 317 H 23.5097 0.737121 -3.59113 0
M  V30 318 H 23.1577 3.19576 -3.88433 0
M  V30 319 H 22.8577 2.31228 -5.40192 0
M  V30 320 H 24.3817 3.21985 -5.18804 0
M  V30 321 H 25.7957 0.995056 -5.64599 0
M  V30 322 H 24.1927 0.284639 -5.99425 0
M  V30 323 H 25.2627 -0.506041 -4.82252 0
M  V30 324 N 26.6058 1.57591 -0.0167156 0
M  V30 325 C 27.8338 1.95575 0.675128 0
M  V30 326 C 28.2488 0.892542 1.6637 0
M  V30 327 O 27.6058 -0.126912 1.82058 0
M  V30 328 C 27.6568 3.33608 1.39239 0
M  V30 329 O 27.3778 4.3585 0.443444 0
M  V30 330 C 28.8788 3.86151 2.17721 0
M  V30 331 H 26.0988 0.644423 0.186978 0
M  V30 332 H 28.6428 2.0437 -0.0728 0
M  V30 333 H 26.7978 3.2607 2.09182 0
M  V30 334 H 27.2118 5.158 0.951358 0
M  V30 335 H 28.6858 4.85114 2.63379 0
M  V30 336 H 29.1628 3.19738 3.01105 0
M  V30 337 H 29.7688 3.96918 1.52761 0
M  V30 338 N 28.0839 -0.256276 1.55502 0
M  V30 339 C 29.3329 -0.983486 1.76098 0
M  V30 340 C 29.6459 -1.86837 0.578896 0
M  V30 341 O 30.8519 -2.63163 0.667648 0
M  V30 342 C 29.3079 -1.79868 3.1173 0
M  V30 343 C 28.9159 -0.961648 4.37557 0
M  V30 344 C 30.6599 -2.51919 3.41668 0
M  V30 345 C 28.5669 -1.77219 5.64223 0
M  V30 346 H 27.4969 -0.370936 0.656447 0
M  V30 347 H 30.1479 -0.238492 1.81944 0
M  V30 348 H 28.5299 -2.58527 2.99966 0
M  V30 349 H 29.7039 -0.218048 4.60284 0
M  V30 350 H 28.0189 -0.354913 4.14885 0
M  V30 351 H 30.6159 -3.12998 4.33516 0
M  V30 352 H 30.9589 -3.23059 2.62562 0
M  V30 353 H 31.4919 -1.80278 3.54605 0
M  V30 354 H 28.2309 -1.10471 6.46124 0
M  V30 355 H 27.7509 -2.49132 5.45613 0
M  V30 356 H 29.4299 -2.34169 6.03137 0
M  V30 357 N 29.562 -1.4872 -0.521534 0
M  V30 358 C 30.494 -1.59968 -1.64143 0
M  V30 359 C 31.507 -0.483463 -1.55456 0
M  V30 360 O 32.696 -0.75467 -1.61762 0
M  V30 361 C 29.796 -1.52127 -3.02838 0
M  V30 362 C 28.969 -2.78932 -3.36921 0
M  V30 363 C 28.028 -2.64428 -4.54933 0
M  V30 364 O 27.054 -3.38331 -4.57735 0
M  V30 365 N 28.256 -1.74606 -5.53618 0
M  V30 366 H 31.021 -2.56548 -1.54929 0
M  V30 367 H 28.582 -1.45551 -0.708988 0
M  V30 368 H 30.574 -1.40106 -3.79674 0
M  V30 369 H 29.144 -0.634868 -3.06085 0
M  V30 370 H 28.364 -3.05455 -2.4918 0
M  V30 371 H 29.652 -3.63041 -3.56481 0
M  V30 372 H 29.05 -1.13782 -5.54139 0
M  V30 373 H 27.607 -1.6852 -6.29638 0
M  V30 374 N 31.0401 0.771051 -1.3745 0
M  V30 375 C 32.2651 1.56529 -1.36065 0
M  V30 376 C 32.6901 1.88029 0.0515859 0
M  V30 377 O 32.0481 1.49282 1.02882 0
M  V30 378 C 32.0961 2.85187 -2.20683 0
M  V30 379 O 31.2001 3.79593 -1.61193 0
M  V30 380 H 30.5411 0.47411 -0.464883 0
M  V30 381 H 33.0711 0.954269 -1.80983 0
M  V30 382 H 33.0811 3.34283 -2.33921 0
M  V30 383 H 31.7561 2.61588 -3.23334 0
M  V30 384 H 30.3331 3.38239 -1.56999 0
M  V30 385 N 32.5182 1.22032 0.997298 0
M  V30 386 C 33.7662 1.04016 1.73278 0
M  V30 387 C 34.0872 -0.426255 1.90284 0
M  V30 388 O 33.3572 -1.30694 1.45931 0
M  V30 389 H 31.9372 0.381897 0.642 0
M  V30 390 H 34.5992 1.5347 1.20137 0
M  V30 391 H 33.6952 1.51441 2.72896 0
M  V30 392 N 33.9963 -1.19345 1.0293 0
M  V30 393 C 34.9063 -2.26245 0.620515 0
M  V30 394 C 35.9223 -1.70486 -0.347928 0
M  V30 395 O 37.0983 -2.00347 -0.205704 0
M  V30 396 C 34.1633 -3.46693 -0.0218957 0
M  V30 397 C 33.2243 -4.17632 0.994102 0
M  V30 398 C 32.4573 -5.32329 0.382253 0
M  V30 399 O 32.6803 -5.64552 -0.814676 0
M  V30 400 O 31.6143 -5.91664 1.10531 0
M  V30 401 H 35.4403 -2.63453 1.51083 0
M  V30 402 H 33.0253 -1.26207 0.799513 0
M  V30 403 H 34.9073 -4.19683 -0.380072 0
M  V30 404 H 33.5823 -3.11333 -0.886209 0
M  V30 405 H 32.4893 -3.4676 1.40387 0
M  V30 406 H 33.8223 -4.56964 1.8288 0
M  V30 407 N 35.4744 -0.807222 -1.35358 0
M  V30 408 C 36.4064 -0.175717 -2.28525 0
M  V30 409 C 37.4194 0.625354 -1.5031 0
M  V30 410 O 38.6084 0.457611 -1.72535 0
M  V30 411 C 35.7084 0.773471 -3.29956 0
M  V30 412 C 34.8814 0.0186296 -4.37396 0
M  V30 413 C 33.9404 0.886395 -5.18681 0
M  V30 414 O 32.9664 0.337106 -5.68201 0
M  V30 415 N 34.1684 2.20839 -5.36852 0
M  V30 416 H 36.9334 -0.976091 -2.83359 0
M  V30 417 H 34.4944 -0.662737 -1.47714 0
M  V30 418 H 36.4864 1.35824 -3.81227 0
M  V30 419 H 35.0564 1.47465 -2.75632 0
M  V30 420 H 34.2764 -0.747349 -3.87051 0
M  V30 421 H 35.5644 -0.501577 -5.06322 0
M  V30 422 H 34.9624 2.67858 -4.98265 0
M  V30 423 H 33.5194 2.74237 -5.91301 0
M  V30 424 N 36.9525 1.47285 -0.560781 0
M  V30 425 C 38.3635 1.86258 -0.128343 0
M  V30 426 C 38.7145 1.46699 1.30284 0
M  V30 427 O 37.8395 0.871698 1.98067 0
M  V30 428 C 38.4345 3.38044 -0.22614 0
M  V30 429 C 36.9935 3.76096 0.151283 0
M  V30 430 C 36.1405 2.71335 -0.572084 0
M  V30 431 H 39.0915 1.38752 -0.770297 0
M  V30 432 H 39.1125 3.76441 0.554322 0
M  V30 433 H 38.6245 3.66806 -1.26788 0
M  V30 434 H 36.7255 3.52951 1.19399 0
M  V30 435 H 36.8385 4.78641 -0.209765 0
M  V30 436 H 35.2025 2.54696 -0.0147653 0
M  V30 437 H 35.9855 3.02938 -1.61504 0
M  V30 438 N 38.4306 0.297415 1.54768 0
M  V30 439 C 39.6606 -0.315165 2.04182 0
M  V30 440 C 40.0686 -1.4834 1.17439 0
M  V30 441 O 39.4116 -1.82695 0.191891 0
M  V30 442 C 39.4736 -0.837583 3.49607 0
M  V30 443 C 39.1376 0.204912 4.5654 0
M  V30 444 C 40.1346 1.03214 5.09552 0
M  V30 445 C 37.8196 0.345578 5.0111 0
M  V30 446 C 39.8136 1.986 6.05671 0
M  V30 447 C 37.5006 1.30289 5.97049 0
M  V30 448 C 38.4986 2.12159 6.49213 0
M  V30 449 O 38.1866 3.06268 7.43273 0
M  V30 450 H 37.9186 -0.0729646 0.672051 0
M  V30 451 H 40.4726 0.433907 2.00765 0
M  V30 452 H 38.7026 -1.63712 3.50336 0
M  V30 453 H 40.3916 -1.36566 3.82236 0
M  V30 454 H 41.1576 0.934312 4.75916 0
M  V30 455 H 37.0366 -0.28171 4.60138 0
M  V30 456 H 40.5806 2.62542 6.46311 0
M  V30 457 H 36.4776 1.40145 6.30103 0
M  V30 458 H 37.2456 3.01205 7.61064 0
M  V30 459 N 39.9087 -1.5758 0.0250728 0
M  V30 460 C 40.8557 -2.09973 -0.958129 0
M  V30 461 C 41.8257 -1.00085 -1.3256 0
M  V30 462 O 43.0107 -1.27481 -1.41962 0
M  V30 463 C 40.1507 -2.62812 -2.2366 0
M  V30 464 C 39.2637 -3.86693 -1.92594 0
M  V30 465 C 38.3987 -4.27941 -3.14707 0
M  V30 466 C 37.4377 -5.44591 -2.79442 0
M  V30 467 N 36.5747 -5.81014 -3.94167 0
M  V30 468 H 41.4147 -2.937 -0.504428 0
M  V30 469 H 38.9517 -1.45172 -0.237392 0
M  V30 470 H 40.9097 -2.91536 -2.98434 0
M  V30 471 H 39.5397 -1.81922 -2.66654 0
M  V30 472 H 38.5917 -3.64723 -1.0808 0
M  V30 473 H 39.9037 -4.71547 -1.62619 0
M  V30 474 H 39.0577 -4.58079 -3.97804 0
M  V30 475 H 37.7967 -3.41845 -3.4784 0
M  V30 476 H 36.8017 -5.1415 -1.94755 0
M  V30 477 H 38.0267 -6.32382 -2.47528 0
M  V30 478 H 35.9727 -4.97874 -4.2715 0
M  V30 479 H 35.8897 -6.60498 -3.67801 0
M  V30 480 H 37.1577 -6.15756 -4.7798 0
M  V30 481 N 41.3868 0.248026 -1.55636 0
M  V30 482 C 42.3198 1.3334 -1.85191 0
M  V30 483 C 43.2978 1.46429 -0.706906 0
M  V30 484 O 44.4818 1.62662 -0.952544 0
M  V30 485 C 41.6088 2.70703 -2.03562 0
M  V30 486 C 40.6548 2.7477 -3.26196 0
M  V30 487 S 41.4878 2.31493 -4.82878 0
M  V30 488 C 42.6438 3.70783 -5.04253 0
M  V30 489 H 42.8768 1.08072 -2.76962 0
M  V30 490 H 40.4098 0.448952 -1.47729 0
M  V30 491 H 42.3678 3.49798 -2.1483 0
M  V30 492 H 41.0288 2.9321 -1.12635 0
M  V30 493 H 40.2218 3.75648 -3.36013 0
M  V30 494 H 39.8238 2.03719 -3.13647 0
M  V30 495 H 42.1158 4.6627 -4.91527 0
M  V30 496 H 43.0588 3.65901 -6.06236 0
M  V30 497 H 43.4668 3.63244 -4.32105 0
M  V30 498 N 42.8649 1.48995 0.513639 0
M  V30 499 C 43.8279 1.64229 1.59879 0
M  V30 500 C 44.8279 0.514696 1.5234 0
M  V30 501 O 46.0179 0.78087 1.55718 0
M  V30 502 C 43.1499 1.62783 2.99524 0
M  V30 503 H 44.3429 2.61004 1.47705 0
M  V30 504 H 41.8959 1.37837 0.736936 0
M  V30 505 H 42.6309 0.675461 3.17188 0
M  V30 506 H 42.4159 2.4466 3.06404 0
M  V30 507 H 43.9059 1.76669 3.78388 0
M  V30 508 N 44.343 -0.763751 1.37857 0
M  V30 509 C 45.591 -1.51957 1.33243 0
M  V30 510 C 45.912 -1.94835 -0.0801709 0
M  V30 511 O 45.182 -1.66894 -1.02582 0
M  V30 512 H 43.762 -0.563626 0.49024 0
M  V30 513 H 46.424 -0.908504 1.7243 0
M  V30 514 H 45.52 -2.41523 1.97669 0
M  V30 515 N 45.8211 -1.22559 -0.990812 0
M  V30 516 C 47.2371 -0.985996 -1.255 0
M  V30 517 C 47.4371 0.319173 -1.98956 0
M  V30 518 O 46.4931 1.04127 -2.3003 0
M  V30 519 C 47.8061 -2.18607 -2.06474 0
M  V30 520 C 49.3541 -2.22985 -2.19651 0
M  V30 521 C 49.8291 -3.4255 -3.04012 0
M  V30 522 N 51.3201 -3.42725 -3.11599 0
M  V30 523 C 52.0551 -4.31892 -3.7717 0
M  V30 524 N 51.5511 -5.31279 -4.44651 0
M  V30 525 N 53.3441 -4.19662 -3.73952 0
M  V30 526 H 45.4951 -2.06469 -0.49841 0
M  V30 527 H 47.7581 -0.904853 -0.282747 0
M  V30 528 H 47.4641 -3.13267 -1.59865 0
M  V30 529 H 47.3381 -2.18838 -3.07229 0
M  V30 530 H 49.7251 -1.28871 -2.65474 0
M  V30 531 H 49.8061 -2.26791 -1.18319 0
M  V30 532 H 49.4501 -4.36965 -2.58889 0
M  V30 533 H 49.3801 -3.35984 -4.0549 0
M  V30 534 H 51.8711 -2.70807 -2.63575 0
M  V30 535 H 52.1841 -5.95593 -4.92431 0
M  V30 536 H 50.5291 -5.3519 -4.43392 0
M  V30 537 H 53.7201 -3.41268 -3.20396 0
M  V30 538 H 53.8931 -4.89358 -4.24774 0
M  V30 539 N 47.2992 1.18797 -1.03562 0
M  V30 540 C 48.5392 1.90346 -0.744832 0
M  V30 541 C 48.9032 1.78231 0.713972 0
M  V30 542 O 50.1042 2.44441 1.11813 0
M  V30 543 C 48.3752 3.36942 -1.19184 0
M  V30 544 S 49.9342 4.26638 -1.02593 0
M  V30 545 H 46.7522 0.657343 -0.270963 0
M  V30 546 H 49.3542 1.43579 -1.32685 0
M  V30 547 H 48.0582 3.43287 -2.24905 0
M  V30 548 H 47.5892 3.88745 -0.603397 0
M  V30 549 H 49.6042 4.96164 0.0596033 0
M  V30 550 N 48.7773 0.814389 1.34928 0
M  V30 551 C 49.7273 0.202752 2.27097 0
M  V30 552 C 50.7113 -0.62799 1.48139 0
M  V30 553 O 51.9033 -0.483969 1.70255 0
M  V30 554 C 49.0323 -0.64146 3.37254 0
M  V30 555 C 48.1183 0.19944 4.23631 0
M  V30 556 N 48.5093 1.26628 4.89693 0
M  V30 557 C 46.8073 -0.0176433 4.45997 0
M  V30 558 C 47.5083 1.78031 5.53787 0
M  V30 559 N 46.4843 1.08553 5.32651 0
M  V30 560 H 50.2863 1.01893 2.75672 0
M  V30 561 H 47.8003 0.656332 1.48546 0
M  V30 562 H 49.7973 -1.09575 4.02243 0
M  V30 563 H 48.4573 -1.4559 2.9023 0
M  V30 564 H 49.4683 1.64901 4.90946 0
M  V30 565 H 46.1453 -0.800601 4.09752 0
M  V30 566 H 47.5353 2.67236 6.16469 0
M  V30 567 N 50.2554 -1.46986 0.568584 0
M  V30 568 C 51.2184 -2.28624 -0.162366 0
M  V30 569 C 52.2184 -1.37596 -0.832103 0
M  V30 570 O 53.4084 -1.60115 -0.68622 0
M  V30 571 C 50.5404 -3.17596 -1.23878 0
M  V30 572 H 51.7334 -2.94722 0.554899 0
M  V30 573 H 49.2864 -1.52863 0.325976 0
M  V30 574 H 50.0214 -2.56214 -1.98808 0
M  V30 575 H 49.8064 -3.846 -0.763219 0
M  V30 576 H 51.2964 -3.79078 -1.75185 0
M  V30 577 N 51.7335 -0.305618 -1.54608 0
M  V30 578 C 52.9805 0.302298 -2.00231 0
M  V30 579 C 53.3085 1.5354 -1.19398 0
M  V30 580 O 52.5635 1.93973 -0.259423 0
M  V30 581 C 52.8625 0.698983 -3.50498 0
M  V30 582 C 52.5285 -0.432903 -4.48817 0
M  V30 583 C 51.1905 -0.743622 -4.75419 0
M  V30 584 C 53.5425 -1.19409 -5.07337 0
M  V30 585 C 50.8705 -1.81857 -5.57804 0
M  V30 586 C 53.2225 -2.25899 -5.90891 0
M  V30 587 C 51.8865 -2.57572 -6.15803 0
M  V30 588 H 51.1565 0.110619 -0.732697 0
M  V30 589 H 53.8035 -0.425674 -1.86709 0
M  V30 590 H 52.1085 1.50711 -3.61654 0
M  V30 591 H 53.8055 1.1806 -3.83227 0
M  V30 592 H 50.3955 -0.18063 -4.28219 0
M  V30 593 H 54.5795 -0.967295 -4.86782 0
M  V30 594 H 49.8355 -2.06864 -5.75341 0
M  V30 595 H 54.0095 -2.85335 -6.35261 0
M  V30 596 H 51.6365 -3.40998 -6.7943 0
M  V30 597 N 53.2116 1.57565 -0.0334293 0
M  V30 598 C 54.1216 2.13943 0.962572 0
M  V30 599 C 55.1376 1.09276 1.35406 0
M  V30 600 O 56.3136 1.41355 1.4346 0
M  V30 601 C 53.3786 2.65887 2.22497 0
M  V30 602 C 52.4396 3.85286 1.8935 0
M  V30 603 C 51.6726 4.34743 3.09571 0
M  V30 604 O 51.8956 3.83352 4.22371 0
M  V30 605 O 50.8296 5.26538 2.91618 0
M  V30 606 H 54.6556 2.99333 0.513169 0
M  V30 607 H 52.2406 1.4822 0.18743 0
M  V30 608 H 54.1226 2.99346 2.96598 0
M  V30 609 H 52.7976 1.83578 2.6661 0
M  V30 610 H 51.7046 3.56746 1.1262 0
M  V30 611 H 53.0376 4.68771 1.5005 0
M  V30 612 N 54.6897 -0.239769 1.55765 0
M  V30 613 C 55.6367 -1.29696 1.90913 0
M  V30 614 C 56.6067 -1.47478 0.764164 0
M  V30 615 O 57.7917 -1.61345 1.01845 0
M  V30 616 C 54.9317 -2.64598 2.21544 0
M  V30 617 C 54.0447 -2.54765 3.48882 0
M  V30 618 C 53.1797 -3.82069 3.69049 0
M  V30 619 C 52.2187 -3.66883 4.89963 0
M  V30 620 N 51.3557 -4.86094 5.06614 0
M  V30 621 H 56.1957 -0.990224 2.81067 0
M  V30 622 H 53.7327 -0.477684 1.39128 0
M  V30 623 H 55.6907 -3.43132 2.3731 0
M  V30 624 H 54.3207 -2.93405 1.34585 0
M  V30 625 H 53.3727 -1.67763 3.41409 0
M  V30 626 H 54.6847 -2.39457 4.37563 0
M  V30 627 H 53.8387 -4.69046 3.84812 0
M  V30 628 H 52.5777 -4.00282 2.78614 0
M  V30 629 H 51.5827 -2.78289 4.74168 0
M  V30 630 H 52.8077 -3.50157 5.81865 0
M  V30 631 H 50.7537 -5.04655 4.19117 0
M  V30 632 H 50.6707 -4.73443 5.89396 0
M  V30 633 H 51.9387 -5.74549 5.26795 0
M  V30 634 N 56.1678 -1.49265 -0.50573 0
M  V30 635 C 57.0778 -1.68312 -1.63427 0
M  V30 636 C 58.0938 -0.565682 -1.64548 0
M  V30 637 O 59.2698 -0.839801 -1.83055 0
M  V30 638 C 56.3348 -1.74107 -2.99813 0
M  V30 639 C 55.3958 -2.97653 -3.09356 0
M  V30 640 C 54.6288 -3.03163 -4.39236 0
M  V30 641 O 54.8518 -2.16396 -5.27758 0
M  V30 642 O 53.7858 -3.9558 -4.53652 0
M  V30 643 H 57.6118 -2.63907 -1.50289 0
M  V30 644 H 55.1968 -1.32951 -0.681502 0
M  V30 645 H 57.0788 -1.803 -3.80881 0
M  V30 646 H 55.7538 -0.816901 -3.13223 0
M  V30 647 H 54.6608 -2.96981 -2.27493 0
M  V30 648 H 55.9938 -3.89535 -3.00871 0
M  V30 649 N 57.6459 0.756429 -1.3826 0
M  V30 650 C 58.8919 1.5168 -1.35517 0
M  V30 651 C 59.2469 1.9232 0.0554451 0
M  V30 652 O 58.5399 1.62352 1.01746 0
M  V30 653 C 58.7339 2.78313 -2.24224 0
M  V30 654 C 58.5629 2.50053 -3.7377 0
M  V30 655 C 57.3329 2.43414 -4.42807 0
M  V30 656 C 59.5309 2.1702 -4.66269 0
M  V30 657 N 57.5129 2.07398 -5.77805 0
M  V30 658 C 58.8839 1.91271 -5.89759 0
M  V30 659 C 60.9389 2.03305 -4.54501 0
M  V30 660 C 59.6419 1.53192 -7.02798 0
M  V30 661 C 61.6679 1.66627 -5.67441 0
M  V30 662 C 61.0299 1.4175 -6.8999 0
M  V30 663 H 57.1289 0.554735 -0.551174 0
M  V30 664 H 59.7129 0.881106 -1.73622 0
M  V30 665 H 57.8839 3.39696 -1.88311 0
M  V30 666 H 59.6159 3.44343 -2.12627 0
M  V30 667 H 56.3709 2.59789 -3.95988 0
M  V30 668 H 56.7949 1.92044 -6.4919 0
M  V30 669 H 61.4369 2.21215 -3.60311 0
M  V30 670 H 59.1549 1.34022 -7.96909 0
M  V30 671 H 62.7409 1.56652 -5.60314 0
M  V30 672 H 61.6209 1.1379 -7.759 0
M  V30 673 N 59.124 1.23083 0.984299 0
M  V30 674 C 60.373 1.05466 1.71929 0
M  V30 675 C 60.686 -0.409211 1.91272 0
M  V30 676 O 61.892 -0.705226 2.62181 0
M  V30 677 C 60.348 1.83874 3.09384 0
M  V30 678 C 59.956 3.34566 2.97943 0
M  V30 679 C 61.7 1.74734 3.8687 0
M  V30 680 C 59.607 4.05381 4.30605 0
M  V30 681 H 58.537 0.391039 0.644674 0
M  V30 682 H 61.188 1.47013 1.09815 0
M  V30 683 H 59.57 1.35131 3.72231 0
M  V30 684 H 60.744 3.90767 2.44209 0
M  V30 685 H 59.059 3.44476 2.33934 0
M  V30 686 H 61.656 2.24957 4.85076 0
M  V30 687 H 61.999 0.709372 4.10212 0
M  V30 688 H 62.532 2.21067 3.30717 0
M  V30 689 H 59.271 5.09467 4.1246 0
M  V30 690 H 58.791 3.53967 4.84218 0
M  V30 691 H 60.47 4.11458 4.99311 0
M  V30 692 N 60.6021 -1.18246 1.0419 0
M  V30 693 C 61.5121 -2.25574 0.644476 0
M  V30 694 C 62.5281 -1.70845 -0.329826 0
M  V30 695 O 63.7041 -2.00554 -0.184443 0
M  V30 696 C 60.7691 -3.46697 0.014877 0
M  V30 697 C 59.8301 -4.16554 1.03834 0
M  V30 698 C 59.0631 -5.31894 0.438692 0
M  V30 699 O 59.2861 -5.65385 -0.754752 0
M  V30 700 O 58.2201 -5.90459 1.168 0
M  V30 701 H 62.0461 -2.61836 1.53869 0
M  V30 702 H 59.6311 -1.25352 0.812854 0
M  V30 703 H 61.5131 -4.20062 -0.335538 0
M  V30 704 H 60.1881 -3.12255 -0.853138 0
M  V30 705 H 59.0951 -3.45251 1.44057 0
M  V30 706 H 60.4281 -4.54998 1.87716 0
M  V30 707 N 62.0802 -0.821533 -1.34494 0
M  V30 708 C 63.3202 -0.414785 -2.00147 0
M  V30 709 C 63.6842 1.00299 -1.6372 0
M  V30 710 O 64.8852 1.51255 -2.22206 0
M  V30 711 C 63.1562 -0.609403 -3.52166 0
M  V30 712 S 64.7152 -0.295297 -4.37805 0
M  V30 713 H 61.5332 -0.15679 -0.693497 0
M  V30 714 H 64.1352 -1.06705 -1.63812 0
M  V30 715 H 62.8392 -1.64096 -3.76166 0
M  V30 716 H 62.3702 0.0576414 -3.93358 0
M  V30 717 H 64.3852 0.891531 -4.88125 0
M  V30 718 N 63.5583 1.46682 -0.576371 0
M  V30 719 C 64.5213 2.28707 0.150239 0
M  V30 720 C 65.5213 1.38035 0.824794 0
M  V30 721 O 66.7113 1.60476 0.677719 0
M  V30 722 C 63.8433 3.18248 1.22192 0
M  V30 723 H 65.0363 2.94423 -0.570521 0
M  V30 724 H 62.5893 1.52688 -0.334078 0
M  V30 725 H 63.3243 2.57265 1.97447 0
M  V30 726 H 63.1093 3.85 0.742812 0
M  V30 727 H 64.5993 3.80001 1.73172 0
M  V30 728 N 65.0364 0.313813 1.54444 0
M  V30 729 C 65.9864 -0.571898 2.20711 0
M  V30 730 C 66.9704 -1.08913 1.18435 0
M  V30 731 O 68.1624 -1.02777 1.44104 0
M  V30 732 C 65.2914 -1.7371 2.96108 0
M  V30 733 C 64.3774 -1.23522 4.05713 0
M  V30 734 N 64.7684 -0.452288 5.03774 0
M  V30 735 C 63.0664 -1.51482 4.19487 0
M  V30 736 C 63.7674 -0.183438 5.81411 0
M  V30 737 N 62.7434 -0.766845 5.38164 0
M  V30 738 H 66.5454 0.0336802 2.93881 0
M  V30 739 H 64.0594 0.119192 1.61962 0
M  V30 740 H 66.0564 -2.38329 3.4206 0
M  V30 741 H 64.7164 -2.34625 2.24458 0
M  V30 742 H 65.7274 -0.0960131 5.17811 0
M  V30 743 H 62.4044 -2.13053 3.59047 0
M  V30 744 H 63.7944 0.446216 6.70417 0
M  V30 745 N 66.5145 -1.57545 0.0417849 0
M  V30 746 C 67.7625 -1.91937 -0.632829 0
M  V30 747 C 68.0835 -0.919978 -1.71934 0
M  V30 748 O 67.3535 0.0366064 -1.95866 0
M  V30 749 H 65.9335 -0.708493 -0.236742 0
M  V30 750 H 68.5955 -1.9468 0.0925745 0
M  V30 751 H 67.6915 -2.92912 -1.07746 0
M  V30 752 N 67.9926 0.231505 -1.5589 0
M  V30 753 C 69.2416 0.955346 -1.7764 0
M  V30 754 C 69.5546 1.85893 -0.608546 0
M  V30 755 O 70.7606 2.62067 -0.70943 0
M  V30 756 C 69.2166 1.74886 -3.14552 0
M  V30 757 C 68.8246 0.891915 -4.39032 0
M  V30 758 C 70.5686 2.46452 -3.45633 0
M  V30 759 C 68.4756 1.68221 -5.66971 0
M  V30 760 H 67.4056 0.360446 -0.662265 0
M  V30 761 H 70.0566 0.209516 -1.823 0
M  V30 762 H 68.4386 2.53723 -3.04041 0
M  V30 763 H 69.6126 0.144793 -4.60572 0
M  V30 764 H 67.9276 0.288863 -4.15397 0
M  V30 765 H 70.5246 3.06061 -4.38441 0
M  V30 766 H 70.8676 3.18841 -2.67668 0
M  V30 767 H 71.4006 1.74613 -3.57428 0
M  V30 768 H 68.1396 1.00178 -6.478 0
M  V30 769 H 67.6596 2.4042 -5.49507 0
M  V30 770 H 69.3386 2.24544 -6.06786 0
M  V30 771 N 69.4707 1.49531 0.497807 0
M  V30 772 C 70.7187 1.58865 1.24926 0
M  V30 773 C 71.0397 0.278721 1.92998 0
M  V30 774 O 70.3097 -0.702144 1.82885 0
M  V30 775 H 68.8897 0.585343 0.464094 0
M  V30 776 H 71.5517 1.86174 0.57666 0
M  V30 777 H 70.6477 2.38633 2.01149 0
M  V30 778 N 70.9488 -0.749086 1.3866 0
M  V30 779 C 72.1788 -1.53611 1.38157 0
M  V30 780 C 72.5868 -1.89177 -0.0293595 0
M  V30 781 O 71.9298 -1.53606 -1.00752 0
M  V30 782 C 71.9918 -2.86087 2.17702 0
M  V30 783 C 71.6558 -2.73034 3.66472 0
M  V30 784 C 72.6528 -2.42526 4.59866 0
M  V30 785 C 70.3378 -2.90345 4.09884 0
M  V30 786 C 72.3318 -2.29492 5.94653 0
M  V30 787 C 70.0188 -2.7693 5.4475 0
M  V30 788 C 71.0168 -2.46547 6.36949 0
M  V30 789 O 70.7048 -2.33199 7.69333 0
M  V30 790 H 70.4368 -0.481773 0.474205 0
M  V30 791 H 72.9908 -0.934465 1.82912 0
M  V30 792 H 71.2208 -3.48458 1.67672 0
M  V30 793 H 72.9098 -3.47625 2.09551 0
M  V30 794 H 73.6758 -2.28816 4.27631 0
M  V30 795 H 69.5548 -3.1299 3.38464 0
M  V30 796 H 73.0988 -2.05698 6.66584 0
M  V30 797 H 68.9958 -2.90215 5.76581 0
M  V30 798 H 69.7638 -2.48376 7.79905 0
M  V30 799 N 72.4269 -1.23603 -0.977757 0
M  V30 800 C 73.6549 -1.09646 -1.75458 0
M  V30 801 C 74.0699 0.351859 -1.85492 0
M  V30 802 O 73.4269 1.24327 -1.336 0
M  V30 803 C 73.4779 -1.71895 -3.18016 0
M  V30 804 O 73.1989 -3.11063 -3.08498 0
M  V30 805 C 74.6999 -1.63415 -4.12081 0
M  V30 806 H 71.9199 -0.38359 -0.550545 0
M  V30 807 H 74.4639 -1.63507 -1.22824 0
M  V30 808 H 72.6189 -1.22061 -3.67668 0
M  V30 809 H 73.0329 -3.41305 -3.9826 0
M  V30 810 H 74.5069 -2.11669 -5.09804 0
M  V30 811 H 74.9839 -0.593462 -4.35172 0
M  V30 812 H 75.5899 -2.12628 -3.68334 0
M  V30 813 N 73.905 1.17692 -1.04816 0
M  V30 814 C 75.321 1.39863 -0.768794 0
M  V30 815 C 75.521 1.91118 0.638451 0
M  V30 816 O 74.577 2.10036 1.40146 0
M  V30 817 C 75.89 2.39274 -1.82122 0
M  V30 818 C 77.438 2.52987 -1.843 0
M  V30 819 C 77.913 3.55669 -2.88555 0
M  V30 820 N 79.404 3.63183 -2.87493 0
M  V30 821 C 80.139 4.42381 -3.64811 0
M  V30 822 N 79.635 5.25125 -4.51903 0
M  V30 823 N 81.428 4.37217 -3.53267 0
M  V30 824 H 73.579 0.82752 -1.95617 0
M  V30 825 H 75.842 0.426123 -0.846831 0
M  V30 826 H 75.548 2.08678 -2.83102 0
M  V30 827 H 75.422 3.38725 -1.65967 0
M  V30 828 H 77.809 2.82896 -0.839869 0
M  V30 829 H 77.89 1.53623 -2.04532 0
M  V30 830 H 77.534 3.26499 -3.89051 0
M  V30 831 H 77.464 4.54728 -2.65575 0
M  V30 832 H 79.955 3.04103 -2.24343 0
M  V30 833 H 80.268 5.82728 -5.07591 0
M  V30 834 H 78.613 5.24519 -4.55966 0
M  V30 835 H 81.804 3.71626 -2.84625 0
M  V30 836 H 81.977 4.98696 -4.13771 0
M  V30 837 N 75.3831 0.828654 1.34056 0
M  V30 838 C 76.3461 0.259927 2.27721 0
M  V30 839 C 77.3461 -0.565478 1.50529 0
M  V30 840 O 78.5361 -0.38075 1.69988 0
M  V30 841 C 75.6681 -0.634944 3.34935 0
M  V30 842 H 76.8611 1.0863 2.79534 0
M  V30 843 H 74.4141 0.600951 1.44285 0
M  V30 844 H 75.1491 -1.48416 2.88346 0
M  V30 845 H 74.9341 -0.0444999 3.92075 0
M  V30 846 H 76.4241 -1.02648 4.04788 0
M  V30 847 N 76.8612 -1.46375 0.584142 0
M  V30 848 C 77.7712 -2.34115 -0.150728 0
M  V30 849 C 78.7872 -1.49838 -0.884567 0
M  V30 850 O 79.9632 -1.82704 -0.847429 0
M  V30 851 C 77.0282 -3.2705 -1.15062 0
M  V30 852 C 76.0892 -4.27228 -0.421293 0
M  V30 853 C 75.3222 -5.15722 -1.37355 0
M  V30 854 O 75.5452 -5.07176 -2.61014 0
M  V30 855 O 74.4792 -5.95383 -0.883355 0
M  V30 856 H 78.3052 -2.98309 0.569708 0
M  V30 857 H 75.8902 -1.45373 0.344535 0
M  V30 858 H 77.7722 -3.84381 -1.72712 0
M  V30 859 H 76.4472 -2.65451 -1.8525 0
M  V30 860 H 75.3542 -3.7358 0.197085 0
M  V30 861 H 76.6872 -4.91616 0.239641 0
M  V30 862 N 78.3393 -0.321999 -1.54275 0
M  V30 863 C 79.2863 0.544664 -2.24281 0
M  V30 864 C 80.2563 1.1129 -1.23303 0
M  V30 865 O 81.4413 1.15354 -1.51981 0
M  V30 866 C 78.5813 1.70045 -3.00298 0
M  V30 867 C 77.6943 1.16159 -4.1609 0
M  V30 868 C 76.8293 2.28293 -4.79641 0
M  V30 869 C 75.8683 1.71648 -5.8754 0
M  V30 870 N 75.0053 2.77438 -6.44959 0
M  V30 871 H 79.8453 -0.0588907 -2.97942 0
M  V30 872 H 77.3823 -0.0408345 -1.47043 0
M  V30 873 H 79.3403 2.38054 -3.42616 0
M  V30 874 H 77.9703 2.27531 -2.28975 0
M  V30 875 H 77.0223 0.373092 -3.78566 0
M  V30 876 H 78.3343 0.707087 -4.93763 0
M  V30 877 H 77.4883 3.0421 -5.2492 0
M  V30 878 H 76.2273 2.77079 -4.01346 0
M  V30 879 H 75.2323 0.942282 -5.41665 0
M  V30 880 H 76.4573 1.23741 -6.67731 0
M  V30 881 H 74.4033 3.25519 -5.69538 0
M  V30 882 H 74.3203 2.36547 -7.1804 0
M  V30 883 H 75.5883 3.53189 -6.94894 0
M  V30 884 N 79.8174 1.5752 -0.0501392 0
M  V30 885 C 80.7274 2.14952 0.939827 0
M  V30 886 C 81.7434 1.10706 1.34239 0
M  V30 887 O 82.9194 1.42869 1.41952 0
M  V30 888 C 79.9844 2.68232 2.19665 0
M  V30 889 C 79.0454 3.87272 1.85253 0
M  V30 890 C 78.2784 4.38002 3.04943 0
M  V30 891 O 78.5014 3.87811 4.18281 0
M  V30 892 O 77.4354 5.29602 2.86017 0
M  V30 893 H 81.2614 2.9986 0.481392 0
M  V30 894 H 78.8464 1.4841 0.171699 0
M  V30 895 H 80.7284 3.02475 2.93406 0
M  V30 896 H 79.4034 1.86395 2.64648 0
M  V30 897 H 78.3104 3.5792 1.0883 0
M  V30 898 H 79.6434 4.70336 1.4507 0
M  V30 899 N 81.2955 -0.223234 1.56011 0
M  V30 900 C 82.5355 -0.954962 1.8072 0
M  V30 901 C 82.8995 -1.81598 0.623384 0
M  V30 902 O 84.1005 -2.58132 0.749745 0
M  V30 903 C 82.3715 -1.77313 3.10314 0
M  V30 904 S 83.9305 -2.56073 3.56332 0
M  V30 905 H 80.7485 -0.320812 0.634508 0
M  V30 906 H 83.3505 -0.220686 1.9425 0
M  V30 907 H 82.0545 -1.13071 3.94516 0
M  V30 908 H 81.5855 -2.54974 2.99586 0
M  V30 909 H 83.6005 -3.79619 3.19536 0
M  V30 910 N 82.7736 -1.49793 -0.48987 0
M  V30 911 C 83.7206 -1.67281 -1.59014 0
M  V30 912 C 84.6906 -0.514177 -1.57941 0
M  V30 913 O 85.8756 -0.742533 -1.75759 0
M  V30 914 C 83.0156 -1.75569 -2.97102 0
M  V30 915 C 82.1286 -3.0281 -3.08107 0
M  V30 916 C 81.2636 -3.02008 -4.36995 0
M  V30 917 C 80.3026 -4.23782 -4.41673 0
M  V30 918 N 79.4396 -4.20826 -5.62005 0
M  V30 919 H 84.2796 -2.61224 -1.43409 0
M  V30 920 H 81.8166 -1.29508 -0.697565 0
M  V30 921 H 83.7746 -1.78354 -3.77155 0
M  V30 922 H 82.4046 -0.850827 -3.11385 0
M  V30 923 H 81.4566 -3.09584 -2.21047 0
M  V30 924 H 82.7686 -3.92801 -3.07423 0
M  V30 925 H 81.9226 -3.03418 -5.25378 0
M  V30 926 H 80.6616 -2.09815 -4.4026 0
M  V30 927 H 79.6666 -4.22604 -3.5169 0
M  V30 928 H 80.8916 -5.17181 -4.40115 0
M  V30 929 H 78.8376 -3.31476 -5.66091 0
M  V30 930 H 78.7546 -5.04564 -5.62984 0
M  V30 931 H 80.0226 -4.26355 -6.52565 0
M  V30 932 N 84.2517 0.741722 -1.39055 0
M  V30 933 C 85.5007 1.49656 -1.35225 0
M  V30 934 C 85.8137 1.95533 0.0512708 0
M  V30 935 O 87.0197 2.7067 0.212138 0
M  V30 936 C 85.4757 2.70389 -2.37525 0
M  V30 937 C 85.0837 2.31489 -3.83558 0
M  V30 938 C 86.8277 3.48236 -2.42759 0
M  V30 939 C 84.7347 3.48903 -4.77515 0
M  V30 940 H 83.6647 0.56197 -0.502699 0
M  V30 941 H 86.3157 0.809727 -1.64668 0
M  V30 942 H 84.6977 3.41113 -2.01142 0
M  V30 943 H 85.8717 1.68354 -4.28945 0
M  V30 944 H 84.1867 1.66749 -3.81554 0
M  V30 945 H 86.7837 4.35558 -3.1015 0
M  V30 946 H 87.1267 3.90229 -1.45008 0
M  V30 947 H 87.6597 2.84535 -2.78002 0
M  V30 948 H 84.3987 3.11966 -5.76504 0
M  V30 949 H 83.9187 4.11041 -4.36813 0
M  V30 950 H 85.5977 4.15328 -4.96096 0
M  V30 951 N 85.7298 1.2412 0.971189 0
M  V30 952 C 86.6398 1.04747 2.09917 0
M  V30 953 C 87.6558 -0.0107162 1.73997 0
M  V30 954 O 88.8318 0.186714 2.00533 0
M  V30 955 C 85.8968 0.650828 3.40537 0
M  V30 956 C 84.9578 1.7851 3.90426 0
M  V30 957 C 84.1908 1.40729 5.14812 0
M  V30 958 O 84.4138 0.29557 5.69634 0
M  V30 959 O 83.3478 2.23168 5.58999 0
M  V30 960 H 87.1738 1.99304 2.29154 0
M  V30 961 H 84.7588 1.02908 1.08307 0
M  V30 962 H 86.6408 0.440992 4.19086 0
M  V30 963 H 85.3158 -0.265649 3.22608 0
M  V30 964 H 84.2228 2.04966 3.12953 0
M  V30 965 H 85.5558 2.68023 4.12825 0
M  V30 966 N 87.2079 -1.17134 1.05439 0
M  V30 967 C 88.4379 -1.91094 0.785274 0
M  V30 968 C 88.8459 -1.77198 -0.663142 0
M  V30 969 O 88.1889 -1.10835 -1.46497 0
M  V30 970 C 88.2509 -3.42594 1.08949 0
M  V30 971 C 87.9149 -3.80274 2.53458 0
M  V30 972 C 88.9119 -3.82912 3.51673 0
M  V30 973 C 86.5969 -4.11162 2.88532 0
M  V30 974 C 88.5909 -4.15913 4.83006 0
M  V30 975 C 86.2779 -4.43831 4.20068 0
M  V30 976 C 87.2759 -4.46185 5.17115 0
M  V30 977 O 86.9639 -4.78083 6.46291 0
M  V30 978 H 86.6959 -0.613073 0.284811 0
M  V30 979 H 89.2499 -1.49461 1.40893 0
M  V30 980 H 87.4799 -3.84534 0.408741 0
M  V30 981 H 89.1689 -3.97817 0.805991 0
M  V30 982 H 89.9349 -3.5917 3.25917 0
M  V30 983 H 85.8139 -4.085 2.13656 0
M  V30 984 H 89.3579 -4.17665 5.5875 0
M  V30 985 H 85.2549 -4.67037 4.45586 0
M  V30 986 H 86.0229 -4.9593 6.51149 0
M  V30 987 N 88.686 -0.835752 -1.33615 0
M  V30 988 C 89.963 -0.352017 -1.92406 0
M  V30 989 C 90.343 1.16225 -1.76224 0
M  V30 990 O 89.691 1.97526 -1.14873 0
M  V30 991 C 89.901 -0.795485 -3.39813 0
M  V30 992 C 91.249 -0.801703 -4.16963 0
M  V30 993 O 92.273 -0.738889 -3.48452 0
M  V30 994 O 91.132 -0.886607 -5.3926 0
M  V30 995 H 88.226 -0.0989641 -0.821057 0
M  V30 996 H 90.772 -0.921397 -1.42507 0
M  V30 997 H 89.544 -1.83795 -3.45449 0
M  V30 998 H 89.167 -0.202505 -3.97084 0
M  V30 999 N 90.1641 1.46063 -0.591896 0
M  V30 1000 C 91.4411 1.95595 -0.0137119 0
M  V30 1001 C 91.8211 1.5345 1.4497 0
M  V30 1002 O 91.1691 0.789543 2.14426 0
M  V30 1003 C 91.3791 3.48453 -0.195373 0
M  V30 1004 C 92.7271 4.24546 -0.0679765 0
M  V30 1005 O 93.7511 3.55982 -0.124681 0
M  V30 1006 O 92.6101 5.46467 0.0600579 0
M  V30 1007 H 89.7041 0.825795 0.0446279 0
M  V30 1008 H 92.2501 1.56303 -0.660859 0
M  V30 1009 H 91.0221 3.72045 -1.21235 0
M  V30 1010 H 90.6451 3.94597 0.487775 0
M  V30 1011 N 91.6422 0.330177 1.54103 0
M  V30 1012 C 92.8892 -0.270405 2.00686 0
M  V30 1013 C 93.2172 -1.51621 1.21825 0
M  V30 1014 O 92.4722 -1.93536 0.29025 0
M  V30 1015 C 92.7712 -0.643134 3.51566 0
M  V30 1016 C 92.4372 0.504251 4.48072 0
M  V30 1017 C 91.0992 0.819163 4.74176 0
M  V30 1018 C 93.4512 1.27465 5.05373 0
M  V30 1019 C 90.7792 1.90708 5.5484 0
M  V30 1020 C 93.1312 2.35271 5.87223 0
M  V30 1021 C 91.7952 2.67336 6.11627 0
M  V30 1022 H 91.0652 -0.0989482 0.734364 0
M  V30 1023 H 93.7122 0.455324 1.86008 0
M  V30 1024 H 92.0172 -1.44938 3.64006 0
M  V30 1025 H 93.7142 -1.11949 3.85056 0
M  V30 1026 H 90.3042 0.248733 4.27878 0
M  V30 1027 H 94.4882 1.04462 4.85182 0
M  V30 1028 H 89.7442 2.15991 5.71977 0
M  V30 1029 H 93.9182 2.95405 6.30641 0
M  V30 1030 H 91.5452 3.51763 6.73919 0
M  V30 1031 N 93.1203 -1.57491 0.0584922 0
M  V30 1032 C 94.3663 -1.93264 -0.614558 0
M  V30 1033 C 94.6993 -0.937717 -1.7006 0
M  V30 1034 O 93.9743 0.0351652 -1.94468 0
M  V30 1035 C 94.2573 -3.3938 -1.20386 0
M  V30 1036 C 94.1103 -4.49625 -0.125375 0
M  V30 1037 C 95.4293 -3.86039 -2.11334 0
M  V30 1038 H 92.5483 -0.702791 -0.221933 0
M  V30 1039 H 95.1903 -1.8961 0.12175 0
M  V30 1040 H 93.3403 -3.42626 -1.83139 0
M  V30 1041 H 95.0123 -4.58506 0.506971 0
M  V30 1042 H 93.2553 -4.30354 0.545672 0
M  V30 1043 H 93.9263 -5.48967 -0.577861 0
M  V30 1044 H 96.4023 -3.84716 -1.58534 0
M  V30 1045 H 95.2783 -4.88914 -2.49507 0
M  V30 1046 H 95.5393 -3.23215 -3.01636 0
M  V30 1047 N 94.5984 0.214957 -1.56127 0
M  V30 1048 C 95.5084 1.28727 -1.96129 0
M  V30 1049 C 96.5244 1.50916 -0.866044 0
M  V30 1050 O 97.7004 1.63918 -1.17016 0
M  V30 1051 C 94.7654 2.61569 -2.27558 0
M  V30 1052 C 93.8264 2.47625 -3.50685 0
M  V30 1053 C 93.0594 3.74132 -3.80606 0
M  V30 1054 O 93.2824 4.77438 -3.12104 0
M  V30 1055 O 92.2164 3.70849 -4.74083 0
M  V30 1056 H 96.0424 0.977855 -2.87527 0
M  V30 1057 H 93.6274 0.418358 -1.43423 0
M  V30 1058 H 95.5094 3.40012 -2.48938 0
M  V30 1059 H 94.1844 2.92178 -1.39332 0
M  V30 1060 H 93.0914 1.67361 -3.34576 0
M  V30 1061 H 94.4244 2.21954 -4.39315 0
M  V30 1062 N 96.0765 1.50051 0.48192 0
M  V30 1063 C 97.3165 1.62128 1.24474 0
M  V30 1064 C 97.6805 0.309742 1.89485 0
M  V30 1065 O 98.8815 0.305854 2.67054 0
M  V30 1066 C 97.1525 2.76151 2.26882 0
M  V30 1067 S 98.7115 3.08297 3.12247 0
M  V30 1068 H 95.5295 0.571661 0.422759 0
M  V30 1069 H 98.1315 1.87791 0.54359 0
M  V30 1070 H 96.8355 3.69942 1.77683 0
M  V30 1071 H 96.3665 2.52541 3.0164 0
M  V30 1072 H 98.3815 2.51287 4.27866 0
M  V30 1073 N 97.5546 -0.734337 1.39446 0
M  V30 1074 C 98.4846 -1.86155 1.40955 0
M  V30 1075 C 99.4656 -1.67898 0.272827 0
M  V30 1076 O 100.651 -1.88207 0.478743 0
M  V30 1077 C 97.7806 -3.23912 1.25294 0
M  V30 1078 C 96.7346 -3.56808 2.36373 0
M  V30 1079 C 96.0606 -4.93508 2.058 0
M  V30 1080 C 97.3606 -3.59713 3.78687 0
M  V30 1081 H 99.0546 -1.8515 2.35287 0
M  V30 1082 H 96.6006 -0.889367 1.13253 0
M  V30 1083 H 98.5536 -4.02443 1.2497 0
M  V30 1084 H 97.2776 -3.25446 0.274308 0
M  V30 1085 H 95.9366 -2.80606 2.35914 0
M  V30 1086 H 95.5846 -4.91623 1.06374 0
M  V30 1087 H 95.2846 -5.16486 2.80208 0
M  V30 1088 H 96.8086 -5.74396 2.07128 0
M  V30 1089 H 98.2226 -4.2832 3.81071 0
M  V30 1090 H 96.6196 -3.94209 4.52459 0
M  V30 1091 H 97.6896 -2.59504 4.09617 0
M  V30 1092 N 99.0327 -1.24633 -0.964593 0
M  V30 1093 C 99.9627 -1.06611 -2.07741 0
M  V30 1094 C 100.944 0.0218666 -1.70086 0
M  V30 1095 O 102.129 -0.145793 -1.93652 0
M  V30 1096 C 99.2587 -0.673444 -3.40708 0
M  V30 1097 C 98.2127 -1.71054 -3.92332 0
M  V30 1098 C 97.5387 -1.17285 -5.21678 0
M  V30 1099 C 98.8387 -3.10718 -4.19824 0
M  V30 1100 H 100.533 -1.99693 -2.23076 0
M  V30 1101 H 98.0787 -0.96152 -1.07195 0
M  V30 1102 H 100.032 -0.534345 -4.17998 0
M  V30 1103 H 98.7557 0.293073 -3.25282 0
M  V30 1104 H 97.4147 -1.83791 -3.17201 0
M  V30 1105 H 97.0627 -0.196847 -5.02615 0
M  V30 1106 H 96.7627 -1.86592 -5.57187 0
M  V30 1107 H 98.2867 -1.04593 -6.01575 0
M  V30 1108 H 99.7007 -3.01192 -4.87808 0
M  V30 1109 H 98.0977 -3.77406 -4.66567 0
M  V30 1110 H 99.1677 -3.58524 -3.26479 0
M  V30 1111 N 100.511 1.16574 -1.06058 0
M  V30 1112 C 101.927 1.3904 -0.783585 0
M  V30 1113 C 102.127 1.91784 0.618145 0
M  V30 1114 O 101.183 2.11511 1.37911 0
M  V30 1115 C 102.496 2.37329 -1.84649 0
M  V30 1116 C 104.044 2.51018 -1.86973 0
M  V30 1117 C 104.519 3.52588 -2.92311 0
M  V30 1118 N 106.01 3.60113 -2.91329 0
M  V30 1119 C 106.745 4.38486 -3.69482 0
M  V30 1120 N 106.241 5.20302 -4.57447 0
M  V30 1121 N 108.034 4.33446 -3.57885 0
M  V30 1122 H 100.185 0.806725 -1.96483 0
M  V30 1123 H 102.448 0.417117 -0.851303 0
M  V30 1124 H 102.154 2.05663 -2.85299 0
M  V30 1125 H 102.028 3.36946 -1.6955 0
M  V30 1126 H 104.415 2.81989 -0.869827 0
M  V30 1127 H 104.496 1.51445 -2.0615 0
M  V30 1128 H 104.14 3.22354 -3.92492 0
M  V30 1129 H 104.07 4.51886 -2.70383 0
M  V30 1130 H 106.561 3.01707 -2.27555 0
M  V30 1131 H 106.874 5.77311 -5.13743 0
M  V30 1132 H 105.219 5.19653 -4.61503 0
M  V30 1133 H 108.41 3.68586 -2.88551 0
M  V30 1134 H 108.583 4.94279 -4.19037 0
M  V30 1135 N 101.989 0.842826 1.3317 0
M  V30 1136 C 102.921 0.236245 2.27979 0
M  V30 1137 C 103.934 -0.585282 1.51915 0
M  V30 1138 O 105.123 -0.411705 1.73687 0
M  V30 1139 C 102.223 -0.685717 3.3189 0
M  V30 1140 C 101.396 0.0973448 4.37292 0
M  V30 1141 C 100.455 -0.748565 5.20848 0
M  V30 1142 O 99.4809 -0.186339 5.68895 0
M  V30 1143 N 100.683 -2.06527 5.42519 0
M  V30 1144 H 103.448 1.05088 2.80672 0
M  V30 1145 H 101.009 0.701667 1.45905 0
M  V30 1146 H 103.001 -1.25669 3.84694 0
M  V30 1147 H 101.571 -1.40105 2.79445 0
M  V30 1148 H 100.791 0.849706 3.84933 0
M  V30 1149 H 102.079 0.635643 5.04814 0
M  V30 1150 H 101.477 -2.54554 5.05192 0
M  V30 1151 H 100.034 -2.58464 5.98364 0
M  V30 1152 N 103.467 -1.45747 0.599634 0
M  V30 1153 C 104.414 -2.30467 -0.123849 0
M  V30 1154 C 105.384 -1.41632 -0.86774 0
M  V30 1155 O 106.569 -1.70568 -0.855056 0
M  V30 1156 C 103.709 -3.26402 -1.12051 0
M  V30 1157 C 102.822 -4.3034 -0.37832 0
M  V30 1158 C 101.957 -5.13389 -1.364 0
M  V30 1159 C 100.996 -6.09061 -0.609171 0
M  V30 1160 N 100.133 -6.84918 -1.54374 0
M  V30 1161 H 104.973 -2.91802 0.604627 0
M  V30 1162 H 102.51 -1.43797 0.309972 0
M  V30 1163 H 104.468 -3.80482 -1.7114 0
M  V30 1164 H 103.098 -2.66839 -1.8165 0
M  V30 1165 H 102.15 -3.78984 0.327929 0
M  V30 1166 H 103.462 -4.98354 0.210997 0
M  V30 1167 H 102.616 -5.7183 -2.02719 0
M  V30 1168 H 101.355 -4.45376 -1.98725 0
M  V30 1169 H 100.36 -5.49758 0.0676979 0
M  V30 1170 H 101.585 -6.79099 0.00891991 0
M  V30 1171 H 99.531 -6.19601 -2.15478 0
M  V30 1172 H 99.448 -7.49254 -1.00766 0
M  V30 1173 H 100.716 -7.47906 -2.19676 0
M  V30 1174 N 104.945 -0.338344 -1.53925 0
M  V30 1175 C 106.173 0.261298 -2.05243 0
M  V30 1176 C 106.588 1.44625 -1.21363 0
M  V30 1177 O 105.945 1.80811 -0.247736 0
M  V30 1178 C 105.996 0.681412 -3.5502 0
M  V30 1179 O 105.717 -0.456414 -4.35716 0
M  V30 1180 C 107.218 1.34232 -4.22489 0
M  V30 1181 H 104.438 0.0513685 -0.669031 0
M  V30 1182 H 106.982 -0.488822 -1.98572 0
M  V30 1183 H 105.137 1.38148 -3.61931 0
M  V30 1184 H 105.551 -0.122564 -5.24357 0
M  V30 1185 H 107.025 1.58708 -5.28693 0
M  V30 1186 H 107.502 2.29426 -3.74514 0
M  V30 1187 H 108.108 0.684424 -4.19757 0
M  V30 1188 N 106.423 1.57458 -0.0668435 0
M  V30 1189 C 107.356 2.08033 0.93795 0
M  V30 1190 C 108.334 0.984321 1.29421 0
M  V30 1191 O 109.518 1.25736 1.40437 0
M  V30 1192 C 106.645 2.53388 2.24749 0
M  V30 1193 C 105.691 3.74376 2.04315 0
M  V30 1194 S 106.524 5.19303 1.30706 0
M  V30 1195 C 107.68 5.67986 2.62951 0
M  V30 1196 H 107.913 2.92935 0.50759 0
M  V30 1197 H 105.446 1.5371 0.145804 0
M  V30 1198 H 107.404 2.8018 3.00016 0
M  V30 1199 H 106.065 1.68763 2.64911 0
M  V30 1200 H 105.258 4.04083 3.01218 0
M  V30 1201 H 104.86 3.47931 1.37186 0
M  V30 1202 H 107.152 5.74528 3.5906 0
M  V30 1203 H 108.095 6.66955 2.3786 0
M  V30 1204 H 108.503 4.95781 2.69929 0
M  V30 1205 N 107.901 -0.206675 1.56239 0
M  V30 1206 C 109.317 -0.557025 1.49564 0
M  V30 1207 C 109.517 -1.86424 0.764735 0
M  V30 1208 O 108.573 -2.50584 0.310491 0
M  V30 1209 C 109.886 -0.622478 2.94186 0
M  V30 1210 C 111.434 -0.712099 3.04792 0
M  V30 1211 C 111.909 -0.808767 4.50803 0
M  V30 1212 N 113.4 -0.8726 4.54907 0
M  V30 1213 C 114.135 -0.967365 5.65181 0
M  V30 1214 N 113.631 -1.02515 6.85173 0
M  V30 1215 N 115.424 -1.00366 5.53067 0
M  V30 1216 H 107.575 0.650943 2.02179 0
M  V30 1217 H 109.838 0.230387 0.919579 0
M  V30 1218 H 109.544 0.268727 3.50672 0
M  V30 1219 H 109.418 -1.4811 3.46905 0
M  V30 1220 H 111.805 -1.59374 2.48363 0
M  V30 1221 H 111.886 0.172489 2.55218 0
M  V30 1222 H 111.53 0.0684754 5.07854 0
M  V30 1223 H 111.46 -1.70899 4.98098 0
M  V30 1224 H 113.951 -0.837657 3.68499 0
M  V30 1225 H 114.264 -1.09765 7.64965 0
M  V30 1226 H 112.609 -0.994026 6.87855 0
M  V30 1227 H 115.8 -0.95527 4.58249 0
M  V30 1228 H 115.973 -1.07405 6.39037 0
M  V30 1229 N 109.379 -1.50304 -0.473955 0
M  V30 1230 C 110.795 -1.37667 -0.807466 0
M  V30 1231 C 110.995 -0.430555 -1.96846 0
M  V30 1232 O 110.051 0.127874 -2.52176 0
M  V30 1233 C 111.364 -2.78974 -1.12223 0
M  V30 1234 C 112.912 -2.87868 -1.22885 0
M  V30 1235 C 113.387 -4.30003 -1.57676 0
M  V30 1236 N 114.878 -4.3294 -1.64673 0
M  V30 1237 C 115.613 -5.3991 -1.93091 0
M  V30 1238 N 115.109 -6.57092 -2.1955 0
M  V30 1239 N 116.902 -5.27351 -1.94569 0
M  V30 1240 H 109.053 -2.10394 0.291212 0
M  V30 1241 H 111.316 -0.945575 0.0677609 0
M  V30 1242 H 111.022 -3.50031 -0.342229 0
M  V30 1243 H 110.896 -3.16038 -2.05913 0
M  V30 1244 H 113.283 -2.17032 -1.99953 0
M  V30 1245 H 113.364 -2.54352 -0.271814 0
M  V30 1246 H 113.008 -5.01375 -0.81149 0
M  V30 1247 H 112.938 -4.61004 -2.54525 0
M  V30 1248 H 115.429 -3.48441 -1.46277 0
M  V30 1249 H 115.742 -7.34425 -2.405 0
M  V30 1250 H 114.087 -6.60272 -2.16948 0
M  V30 1251 H 117.278 -4.34801 -1.73394 0
M  V30 1252 H 117.451 -6.10805 -2.16381 0
M  V30 1253 N 110.857 0.726932 -1.39834 0
M  V30 1254 C 111.82 1.82269 -1.38962 0
M  V30 1255 C 112.82 1.58248 -0.285334 0
M  V30 1256 O 114.01 1.65499 -0.54366 0
M  V30 1257 C 111.142 3.20186 -1.17019 0
M  V30 1258 H 112.335 1.84443 -2.36476 0
M  V30 1259 H 109.888 0.931416 -1.25516 0
M  V30 1260 H 110.623 3.23669 -0.202204 0
M  V30 1261 H 110.408 3.3902 -1.96998 0
M  V30 1262 H 111.898 4.00235 -1.1917 0
M  V30 1263 N 112.336 1.25143 0.95797 0
M  V30 1264 C 113.584 1.09476 1.69881 0
M  V30 1265 C 113.905 -0.365502 1.91544 0
M  V30 1266 O 113.175 -1.25985 1.50015 0
M  V30 1267 H 111.755 0.402128 0.629525 0
M  V30 1268 H 114.417 1.57214 1.15194 0
M  V30 1269 H 113.513 1.60046 2.6794 0
M  V30 1270 N 113.814 -1.1601 1.06675 0
M  V30 1271 C 115.042 -1.90527 0.806667 0
M  V30 1272 C 115.457 -1.77643 -0.639396 0
M  V30 1273 O 114.814 -1.12369 -1.43803 0
M  V30 1274 C 114.865 -3.41106 1.19705 0
M  V30 1275 O 114.586 -3.53608 2.58636 0
M  V30 1276 C 116.087 -4.32663 0.965266 0
M  V30 1277 H 113.307 -0.604053 0.292166 0
M  V30 1278 H 115.851 -1.47026 1.4214 0
M  V30 1279 H 114.006 -3.82296 0.626774 0
M  V30 1280 H 114.42 -4.47011 2.74375 0
M  V30 1281 H 115.894 -5.36763 1.288 0
M  V30 1282 H 116.371 -4.39089 -0.0987936 0
M  V30 1283 H 116.977 -3.97206 1.52011 0
M  V30 1284 N 115.292 -0.849877 -1.32721 0
M  V30 1285 C 116.541 -0.447175 -1.96681 0
M  V30 1286 C 116.854 1.00135 -1.68025 0
M  V30 1287 O 118.06 1.50926 -2.25685 0
M  V30 1288 C 116.516 -0.7487 -3.52026 0
M  V30 1289 C 116.124 -2.21264 -3.89546 0
M  V30 1290 C 117.868 -0.413487 -4.22481 0
M  V30 1291 C 115.775 -2.45763 -5.37917 0
M  V30 1292 H 114.705 -0.163486 -0.736063 0
M  V30 1293 H 117.356 -1.03999 -1.51183 0
M  V30 1294 H 115.738 -0.0853727 -3.95908 0
M  V30 1295 H 116.912 -2.91736 -3.56689 0
M  V30 1296 H 115.227 -2.5119 -3.32103 0
M  V30 1297 H 117.824 -0.574017 -5.3161 0
M  V30 1298 H 118.167 0.644492 -4.11281 0
M  V30 1299 H 118.7 -1.03251 -3.84167 0
M  V30 1300 H 115.439 -3.50168 -5.54132 0
M  V30 1301 H 114.959 -1.79864 -5.72197 0
M  V30 1302 H 116.638 -2.29471 -6.0494 0
M  V30 1303 N 116.77 1.45427 -0.607355 0
M  V30 1304 C 118.186 1.57283 -0.270985 0
M  V30 1305 C 118.386 1.59875 1.22647 0
M  V30 1306 O 117.442 1.52893 2.00948 0
M  V30 1307 C 118.755 2.85566 -0.941952 0
M  V30 1308 C 120.303 2.9924 -0.917849 0
M  V30 1309 C 120.778 4.30293 -1.56882 0
M  V30 1310 N 122.269 4.37051 -1.5343 0
M  V30 1311 C 123.004 5.37123 -2.00715 0
M  V30 1312 N 122.5 6.43734 -2.56084 0
M  V30 1313 N 124.293 5.28479 -1.91484 0
M  V30 1314 H 116.444 1.41988 -1.57966 0
M  V30 1315 H 118.707 0.67885 -0.661715 0
M  V30 1316 H 118.413 2.8955 -1.99633 0
M  V30 1317 H 118.287 3.74322 -0.465096 0
M  V30 1318 H 120.674 2.94822 0.127984 0
M  V30 1319 H 120.755 2.11895 -1.43297 0
M  V30 1320 H 120.399 4.35469 -2.61398 0
M  V30 1321 H 120.329 5.16454 -1.02873 0
M  V30 1322 H 122.82 3.60615 -1.12982 0
M  V30 1323 H 123.133 7.16341 -2.89958 0
M  V30 1324 H 121.478 6.44485 -2.60122 0
M  V30 1325 H 124.669 4.44098 -1.47967 0
M  V30 1326 H 124.842 6.0632 -2.28648 0
M  V30 1327 N 118.248 0.346503 1.53744 0
M  V30 1328 C 119.195 -0.508914 2.25119 0
M  V30 1329 C 120.165 -1.09315 1.25058 0
M  V30 1330 O 121.35 -1.12921 1.53797 0
M  V30 1331 C 118.49 -1.65246 3.02965 0
M  V30 1332 C 117.603 -1.09525 4.17886 0
M  V30 1333 C 116.738 -2.20634 4.83212 0
M  V30 1334 C 115.777 -1.62279 5.90196 0
M  V30 1335 N 114.914 -2.67143 6.49291 0
M  V30 1336 H 119.754 0.106283 2.9781 0
M  V30 1337 H 117.291 0.0642227 1.4696 0
M  V30 1338 H 119.249 -2.32574 3.4636 0
M  V30 1339 H 117.879 -2.2386 2.32565 0
M  V30 1340 H 116.931 -0.312818 3.79112 0
M  V30 1341 H 118.243 -0.628444 4.94825 0
M  V30 1342 H 117.397 -2.95821 5.29693 0
M  V30 1343 H 116.136 -2.70659 4.05703 0
M  V30 1344 H 115.141 -0.855989 5.43096 0
M  V30 1345 H 116.366 -1.13102 6.69615 0
M  V30 1346 H 114.312 -3.16417 5.74645 0
M  V30 1347 H 114.229 -2.25093 7.21713 0
M  V30 1348 H 115.497 -3.4209 7.00425 0
M  V30 1349 N 119.726 -1.57421 0.075193 0
M  V30 1350 C 120.658 -2.09904 -0.920483 0
M  V30 1351 C 121.671 -1.03191 -1.25918 0
M  V30 1352 O 122.86 -1.30695 -1.21577 0
M  V30 1353 C 119.96 -2.54726 -2.23534 0
M  V30 1354 C 119.133 -3.8505 -2.07498 0
M  V30 1355 C 118.192 -4.15929 -3.22319 0
M  V30 1356 O 117.218 -4.85474 -2.9716 0
M  V30 1357 N 118.42 -3.69745 -4.47514 0
M  V30 1358 H 121.185 -2.95954 -0.472359 0
M  V30 1359 H 118.746 -1.61523 -0.110444 0
M  V30 1360 H 120.738 -2.72443 -2.9926 0
M  V30 1361 H 119.308 -1.73795 -2.59835 0
M  V30 1362 H 118.528 -3.76679 -1.16219 0
M  V30 1363 H 119.816 -4.70348 -1.94038 0
M  V30 1364 H 119.214 -3.13569 -4.7084 0
M  V30 1365 H 117.771 -3.92655 -5.20255 0
M  V30 1366 N 121.204 0.198386 -1.56346 0
M  V30 1367 C 122.62 0.549085 -1.49857 0
M  V30 1368 C 122.82 1.86016 -0.774611 0
M  V30 1369 O 121.876 2.50416 -0.323776 0
M  V30 1370 C 123.189 0.606868 -2.94512 0
M  V30 1371 C 124.737 0.695925 -3.05165 0
M  V30 1372 C 125.212 0.784848 -4.51225 0
M  V30 1373 N 126.703 0.848463 -4.55363 0
M  V30 1374 C 127.438 0.937378 -5.65686 0
M  V30 1375 N 126.934 0.9888 -6.85707 0
M  V30 1376 N 128.727 0.974312 -5.53592 0
M  V30 1377 H 120.878 -0.661655 -2.01831 0
M  V30 1378 H 123.141 -0.235261 -0.918344 0
M  V30 1379 H 122.847 -0.28732 -3.50524 0
M  V30 1380 H 122.721 1.46268 -3.47686 0
M  V30 1381 H 125.108 1.58055 -2.49204 0
M  V30 1382 H 125.189 -0.186022 -2.55123 0
M  V30 1383 H 124.833 -0.0954072 -5.0781 0
M  V30 1384 H 124.763 1.68255 -4.98997 0
M  V30 1385 H 127.254 0.818103 -3.68938 0
M  V30 1386 H 127.567 1.05707 -7.65536 0
M  V30 1387 H 125.912 0.957534 -6.88372 0
M  V30 1388 H 129.103 0.930954 -4.58749 0
M  V30 1389 H 129.276 1.04015 -6.39597 0
M  V30 1390 N 122.682 1.50554 0.465978 0
M  V30 1391 C 123.959 1.5232 1.22712 0
M  V30 1392 C 124.339 0.270807 2.09356 0
M  V30 1393 O 123.687 -0.745541 2.15995 0
M  V30 1394 C 123.897 2.82175 2.05374 0
M  V30 1395 C 125.245 3.33033 2.6339 0
M  V30 1396 O 126.269 2.83531 2.15612 0
M  V30 1397 O 125.128 4.19336 3.50456 0
M  V30 1398 H 122.222 0.611183 0.557122 0
M  V30 1399 H 124.768 1.62847 0.477381 0
M  V30 1400 H 123.54 3.64797 1.41558 0
M  V30 1401 H 123.163 2.74675 2.87471 0
M  V30 1402 N 124.16 -0.719506 1.40217 0
M  V30 1403 C 125.107 -1.83359 1.40172 0
M  V30 1404 C 126.077 -1.64065 0.259206 0
M  V30 1405 O 127.262 -1.85254 0.456677 0
M  V30 1406 C 124.402 -3.2103 1.26624 0
M  V30 1407 C 123.515 -3.51923 2.50548 0
M  V30 1408 C 122.65 -4.79079 2.29471 0
M  V30 1409 C 121.689 -5.02863 3.48992 0
M  V30 1410 N 120.826 -6.2123 3.27135 0
M  V30 1411 H 125.666 -1.82733 2.35399 0
M  V30 1412 H 123.203 -0.892688 1.16917 0
M  V30 1413 H 125.161 -4.00524 1.16776 0
M  V30 1414 H 123.791 -3.20895 0.350176 0
M  V30 1415 H 122.843 -2.67014 2.70939 0
M  V30 1416 H 124.155 -3.6541 3.39525 0
M  V30 1417 H 123.309 -5.66582 2.16955 0
M  V30 1418 H 122.048 -4.67794 1.37913 0
M  V30 1419 H 121.053 -4.13816 3.6199 0
M  V30 1420 H 122.278 -5.16023 4.41472 0
M  V30 1421 H 120.224 -6.11204 2.38256 0
M  V30 1422 H 120.141 -6.35375 4.09675 0
M  V30 1423 H 121.409 -7.11532 3.18344 0
M  V30 1424 N 125.638 -1.25649 -0.95132 0
M  V30 1425 C 126.568 -1.08808 -2.06599 0
M  V30 1426 C 127.549 0.00382547 -1.701 0
M  V30 1427 O 128.734 -0.166325 -1.93486 0
M  V30 1428 C 125.864 -0.709542 -3.39975 0
M  V30 1429 C 124.818 -1.75206 -3.90496 0
M  V30 1430 C 124.144 -1.22811 -5.20405 0
M  V30 1431 C 125.444 -3.15153 -4.16504 0
M  V30 1432 H 127.138 -2.02048 -2.20946 0
M  V30 1433 H 124.684 -0.972835 -1.06169 0
M  V30 1434 H 126.637 -0.578649 -4.17408 0
M  V30 1435 H 125.361 0.258556 -3.25575 0
M  V30 1436 H 124.02 -1.87145 -3.15234 0
M  V30 1437 H 123.668 -0.250145 -5.02378 0
M  V30 1438 H 123.368 -1.92492 -5.55176 0
M  V30 1439 H 124.892 -1.10968 -6.00432 0
M  V30 1440 H 126.306 -3.06349 -4.84586 0
M  V30 1441 H 124.703 -3.82333 -4.62538 0
M  V30 1442 H 125.773 -3.61966 -3.22658 0
M  V30 1443 N 127.117 1.15442 -1.07289 0
M  V30 1444 C 128.366 1.85557 -0.790669 0
M  V30 1445 C 128.679 1.83186 0.685739 0
M  V30 1446 O 129.885 2.48977 1.0827 0
M  V30 1447 C 128.341 3.33038 -1.36433 0
M  V30 1448 C 127.949 3.43856 -2.8717 0
M  V30 1449 C 129.693 4.0834 -1.1601 0
M  V30 1450 C 127.6 4.85482 -3.3773 0
M  V30 1451 H 126.53 0.695122 -0.292098 0
M  V30 1452 H 129.181 1.30219 -1.29287 0
M  V30 1453 H 127.563 3.88043 -0.789864 0
M  V30 1454 H 128.737 2.98961 -3.50655 0
M  V30 1455 H 127.052 2.81998 -3.06376 0
M  V30 1456 H 129.649 5.12859 -1.51262 0
M  V30 1457 H 129.992 4.16182 -0.0991007 0
M  V30 1458 H 130.525 3.59603 -1.70089 0
M  V30 1459 H 127.264 4.82823 -4.43353 0
M  V30 1460 H 126.784 5.30961 -2.78999 0
M  V30 1461 H 128.463 5.54335 -3.33648 0
M  V30 1462 N 128.595 0.856903 1.32268 0
M  V30 1463 C 129.542 0.301172 2.28827 0
M  V30 1464 C 130.512 -0.593104 1.5515 0
M  V30 1465 O 131.697 -0.527537 1.83362 0
M  V30 1466 C 128.837 -0.502523 3.41422 0
M  V30 1467 C 127.95 0.417797 4.29975 0
M  V30 1468 C 127.085 -0.398749 5.29701 0
M  V30 1469 C 126.124 0.518827 6.09897 0
M  V30 1470 N 125.261 -0.260674 7.01616 0
M  V30 1471 H 130.101 1.12983 2.75751 0
M  V30 1472 H 127.638 0.568582 1.35667 0
M  V30 1473 H 129.596 -0.984141 4.05426 0
M  V30 1474 H 128.226 -1.29599 2.95642 0
M  V30 1475 H 127.278 1.01781 3.66531 0
M  V30 1476 H 128.59 1.12191 4.86019 0
M  V30 1477 H 127.744 -0.943435 5.9932 0
M  V30 1478 H 126.483 -1.13622 4.7428 0
M  V30 1479 H 125.488 1.07538 5.39181 0
M  V30 1480 H 126.713 1.25495 6.67404 0
M  V30 1481 H 124.659 -0.981198 6.4862 0
M  V30 1482 H 124.576 0.384364 7.55022 0
M  V30 1483 H 125.844 -0.787014 7.75517 0
M  V30 1484 N 130.073 -1.45103 0.615059 0
M  V30 1485 C 130.983 -2.34382 -0.101034 0
M  V30 1486 C 131.999 -1.51681 -0.852585 0
M  V30 1487 O 133.175 -1.8446 -0.808484 0
M  V30 1488 C 130.24 -3.29417 -1.08099 0
M  V30 1489 C 129.301 -4.28025 -0.330577 0
M  V30 1490 C 128.534 -5.1852 -1.26385 0
M  V30 1491 O 128.757 -5.12598 -2.50198 0
M  V30 1492 O 127.691 -5.97122 -0.756866 0
M  V30 1493 H 131.517 -2.97033 0.632855 0
M  V30 1494 H 129.102 -1.4461 0.375293 0
M  V30 1495 H 130.984 -3.87958 -1.6452 0
M  V30 1496 H 129.659 -2.69321 -1.79577 0
M  V30 1497 H 128.566 -3.73078 0.276283 0
M  V30 1498 H 129.899 -4.90997 0.343866 0
M  V30 1499 N 131.551 -0.354651 -1.53558 0
M  V30 1500 C 132.799 0.237972 -2.00694 0
M  V30 1501 C 133.12 1.50173 -1.24391 0
M  V30 1502 O 132.39 1.92673 -0.354135 0
M  V30 1503 H 130.97 0.0909256 -0.741446 0
M  V30 1504 H 133.632 -0.478368 -1.88938 0
M  V30 1505 H 132.728 0.47264 -3.085 0
M  V30 1506 N 133.029 1.57378 -0.0835403 0
M  V30 1507 C 133.976 2.13384 0.879539 0
M  V30 1508 C 134.946 1.04936 1.28754 0
M  V30 1509 O 136.131 1.32662 1.37133 0
M  V30 1510 C 133.271 2.70932 2.13752 0
M  V30 1511 C 132.384 3.93575 1.7811 0
M  V30 1512 C 131.519 4.39326 2.98607 0
M  V30 1513 C 130.558 5.54587 2.59037 0
M  V30 1514 N 129.695 5.95243 3.72331 0
M  V30 1515 H 134.535 2.9537 0.395076 0
M  V30 1516 H 132.072 1.45953 0.183349 0
M  V30 1517 H 134.03 3.02411 2.87408 0
M  V30 1518 H 132.66 1.91693 2.59718 0
M  V30 1519 H 131.712 3.68483 0.94469 0
M  V30 1520 H 133.024 4.77258 1.45005 0
M  V30 1521 H 132.178 4.72528 3.80529 0
M  V30 1522 H 130.917 3.5452 3.34913 0
M  V30 1523 H 129.922 5.21024 1.75539 0
M  V30 1524 H 131.147 6.41133 2.23887 0
M  V30 1525 H 129.093 5.13385 4.08378 0
M  V30 1526 H 129.01 6.73694 3.43034 0
M  V30 1527 H 130.278 6.33072 4.54797 0
M  V30 1528 N 134.507 -0.190092 1.56449 0
M  V30 1529 C 135.737 -0.92443 1.84764 0
M  V30 1530 C 136.145 -1.77146 0.664529 0
M  V30 1531 O 135.488 -1.79812 -0.375957 0
M  V30 1532 C 135.55 -1.86651 3.07248 0
M  V30 1533 C 135.214 -1.20094 4.40938 0
M  V30 1534 C 136.211 -0.575445 5.16706 0
M  V30 1535 C 133.896 -1.2033 4.87674 0
M  V30 1536 C 135.89 0.0388111 6.37388 0
M  V30 1537 C 133.577 -0.585214 6.08291 0
M  V30 1538 C 134.575 0.0347578 6.82991 0
M  V30 1539 O 134.263 0.643147 8.01323 0
M  V30 1540 H 133.995 -0.274974 0.617548 0
M  V30 1541 H 136.549 -0.200788 2.04416 0
M  V30 1542 H 134.779 -2.62998 2.83494 0
M  V30 1543 H 136.468 -2.46907 3.22167 0
M  V30 1544 H 137.234 -0.565728 4.81689 0
M  V30 1545 H 133.113 -1.67526 4.29484 0
M  V30 1546 H 136.657 0.523329 6.95634 0
M  V30 1547 H 132.554 -0.592451 6.42775 0
M  V30 1548 H 133.322 0.540545 8.16713 0
M  V30 1549 N 135.985 -1.50799 -0.457987 0
M  V30 1550 C 137.213 -1.66218 -1.23203 0
M  V30 1551 C 137.628 -0.350894 -1.85511 0
M  V30 1552 O 136.985 0.668546 -1.69814 0
M  V30 1553 C 137.036 -2.76291 -2.33121 0
M  V30 1554 O 136.757 -4.02338 -1.73366 0
M  V30 1555 C 138.258 -3.028 -3.2377 0
M  V30 1556 H 135.478 -0.558361 -0.372121 0
M  V30 1557 H 138.022 -1.97099 -0.545179 0
M  V30 1558 H 136.177 -2.48068 -2.97558 0
M  V30 1559 H 136.591 -4.63312 -2.4585 0
M  V30 1560 H 138.065 -3.8345 -3.97077 0
M  V30 1561 H 138.542 -2.14385 -3.83322 0
M  V30 1562 H 139.148 -3.32604 -2.65056 0
M  V30 1563 N 137.463 0.71206 -1.40597 0
M  V30 1564 C 138.874 1.29135 -1.34837 0
M  V30 1565 C 139.225 1.96186 -0.0235395 0
M  V30 1566 O 138.35 1.97768 0.878444 0
M  V30 1567 C 138.945 2.34827 -2.44217 0
M  V30 1568 C 137.504 2.88371 -2.41907 0
M  V30 1569 C 136.651 1.62202 -2.24913 0
M  V30 1570 H 139.602 0.507944 -1.50352 0
M  V30 1571 H 139.623 3.15749 -2.12327 0
M  V30 1572 H 139.135 1.85996 -3.40627 0
M  V30 1573 H 137.236 3.41422 -1.49204 0
M  V30 1574 H 137.349 3.39925 -3.37621 0
M  V30 1575 H 135.713 1.874 -1.72492 0
M  V30 1576 H 136.496 1.15391 -3.23326 0
M  V30 1577 N 138.941 1.26152 0.944643 0
M  V30 1578 C 140.352 1.10454 1.50522 0
M  V30 1579 C 140.703 -0.31635 1.93633 0
M  V30 1580 O 139.828 -1.20746 1.79581 0
M  V30 1581 C 140.423 1.99891 2.73549 0
M  V30 1582 C 138.982 1.88348 3.25886 0
M  V30 1583 C 138.129 1.93447 1.9868 0
M  V30 1584 H 141.08 1.39292 0.760489 0
M  V30 1585 H 141.101 1.54477 3.47732 0
M  V30 1586 H 140.613 3.03297 2.42141 0
M  V30 1587 H 138.714 0.878636 3.62092 0
M  V30 1588 H 138.827 2.73696 3.93227 0
M  V30 1589 H 137.191 1.37456 2.14425 0
M  V30 1590 H 137.974 2.98476 1.69607 0
M  V30 1591 N 140.419 -1.14872 1.07899 0
M  V30 1592 C 141.83 -1.67367 0.827363 0
M  V30 1593 C 142.181 -1.85236 -0.646693 0
M  V30 1594 O 141.306 -1.55974 -1.50004 0
M  V30 1595 C 141.901 -3.04016 1.49532 0
M  V30 1596 C 140.46 -3.53566 1.29106 0
M  V30 1597 C 139.607 -2.29161 1.56143 0
M  V30 1598 H 142.558 -0.990083 1.24028 0
M  V30 1599 H 142.579 -3.69219 0.919643 0
M  V30 1600 H 142.091 -2.90978 2.56814 0
M  V30 1601 H 140.192 -3.71835 0.238713 0
M  V30 1602 H 140.305 -4.34661 2.01511 0
M  V30 1603 H 138.669 -2.34978 0.982717 0
M  V30 1604 H 139.452 -2.18705 2.64619 0
M  V30 1605 N 141.898 -0.863906 -1.31812 0
M  V30 1606 C 142.848 -0.286898 -2.26188 0
M  V30 1607 C 143.832 0.572577 -1.50367 0
M  V30 1608 O 145.024 0.420447 -1.71934 0
M  V30 1609 C 142.153 0.515849 -3.39402 0
M  V30 1610 C 141.239 -0.356531 -4.22599 0
M  V30 1611 N 141.63 -1.44716 -4.84656 0
M  V30 1612 C 139.928 -0.147898 -4.45755 0
M  V30 1613 C 140.629 -1.98462 -5.46798 0
M  V30 1614 N 139.605 -1.28247 -5.28255 0
M  V30 1615 H 143.407 -1.12055 -2.717 0
M  V30 1616 H 140.921 -0.711012 -1.46008 0
M  V30 1617 H 142.918 0.945701 -4.06032 0
M  V30 1618 H 141.578 1.34718 -2.95434 0
M  V30 1619 H 142.589 -1.83008 -4.84488 0
M  V30 1620 H 139.266 0.647973 -4.12441 0
M  V30 1621 H 140.656 -2.89932 -6.06126 0
M  V30 1622 N 143.376 1.44774 -0.622745 0
M  V30 1623 C 144.326 2.2774 0.108889 0
M  V30 1624 C 145.31 1.38189 0.824175 0
M  V30 1625 O 146.502 1.62063 0.711664 0
M  V30 1626 C 143.631 3.25353 1.09546 0
M  V30 1627 C 142.717 4.22392 0.380232 0
M  V30 1628 N 143.108 5.02388 -0.586535 0
M  V30 1629 C 141.406 4.41588 0.625792 0
M  V30 1630 C 142.107 5.72894 -1.00834 0
M  V30 1631 N 141.083 5.42479 -0.348878 0
M  V30 1632 H 144.885 2.86993 -0.63341 0
M  V30 1633 H 142.399 1.5611 -0.447589 0
M  V30 1634 H 144.396 3.83538 1.63414 0
M  V30 1635 H 143.056 2.6766 1.83815 0
M  V30 1636 H 144.067 5.0885 -0.963975 0
M  V30 1637 H 140.744 3.95003 1.352 0
M  V30 1638 H 142.134 6.47158 -1.80656 0
M  V30 1639 N 144.854 0.36279 1.53368 0
M  V30 1640 C 146.103 -0.22888 2.00397 0
M  V30 1641 C 146.416 -1.50096 1.25421 0
M  V30 1642 O 147.622 -2.17106 1.63025 0
M  V30 1643 C 146.078 -0.458417 3.56969 0
M  V30 1644 C 145.686 0.798877 4.4082 0
M  V30 1645 C 147.43 -1.00789 4.12361 0
M  V30 1646 C 145.337 0.539078 5.88938 0
M  V30 1647 H 144.267 -0.089305 0.748693 0
M  V30 1648 H 146.918 0.481099 1.77081 0
M  V30 1649 H 145.3 -1.22959 3.76427 0
M  V30 1650 H 146.474 1.57262 4.33134 0
M  V30 1651 H 144.789 1.27137 3.96516 0
M  V30 1652 H 147.386 -1.21754 5.20653 0
M  V30 1653 H 147.729 -1.9692 3.66781 0
M  V30 1654 H 148.262 -0.296961 3.9669 0
M  V30 1655 H 145.001 1.47064 6.3879 0
M  V30 1656 H 144.521 -0.196222 5.99479 0
M  V30 1657 H 146.2 0.163542 6.46793 0
M  V30 1658 N 146.332 -1.57332 0.0918853 0
M  V30 1659 C 147.58 -1.93853 -0.571446 0
M  V30 1660 C 147.901 -0.974212 -1.6892 0
M  V30 1661 O 147.171 -0.0257254 -1.95883 0
M  V30 1662 H 145.751 -0.715666 -0.214082 0
M  V30 1663 H 148.413 -1.94287 0.154464 0
M  V30 1664 H 147.509 -2.96191 -0.983729 0
M  V30 1665 N 147.81 0.181792 -1.56548 0
M  V30 1666 C 148.757 1.22521 -1.95595 0
M  V30 1667 C 149.727 1.4454 -0.818373 0
M  V30 1668 O 150.912 1.57454 -1.07763 0
M  V30 1669 C 148.052 2.56193 -2.31212 0
M  V30 1670 C 147.165 2.41641 -3.58097 0
M  V30 1671 C 146.3 3.68108 -3.82975 0
M  V30 1672 C 145.339 3.48445 -5.03242 0
M  V30 1673 N 144.476 4.66956 -5.24306 0
M  V30 1674 H 149.316 0.885226 -2.84548 0
M  V30 1675 H 146.853 0.425718 -1.40805 0
M  V30 1676 H 148.811 3.34088 -2.49882 0
M  V30 1677 H 147.441 2.88208 -1.45382 0
M  V30 1678 H 146.493 1.54976 -3.474 0
M  V30 1679 H 147.805 2.23052 -4.46149 0
M  V30 1680 H 146.959 4.54441 -4.01956 0
M  V30 1681 H 145.698 3.89666 -2.93278 0
M  V30 1682 H 144.703 2.60499 -4.8417 0
M  V30 1683 H 145.928 3.2832 -5.9446 0
M  V30 1684 H 143.874 4.88752 -4.37559 0
M  V30 1685 H 143.791 4.51242 -6.06561 0
M  V30 1686 H 145.059 5.54602 -5.47756 0
M  V30 1687 N 149.288 1.51039 0.449983 0
M  V30 1688 C 150.536 1.62759 1.19808 0
M  V30 1689 C 150.857 0.339981 1.92013 0
M  V30 1690 O 150.127 -0.643606 1.85026 0
M  V30 1691 H 148.707 0.599811 0.445237 0
M  V30 1692 H 151.369 1.87914 0.517138 0
M  V30 1693 H 150.465 2.44911 1.93455 0
M  V30 1694 N 150.766 -0.704594 1.40972 0
M  V30 1695 C 151.676 -1.84856 1.44448 0
M  V30 1696 C 152.692 -1.70726 0.335961 0
M  V30 1697 O 153.868 -1.92799 0.582276 0
M  V30 1698 C 150.933 -3.20758 1.31587 0
M  V30 1699 C 149.994 -3.47063 2.52677 0
M  V30 1700 C 149.227 -4.76481 2.4042 0
M  V30 1701 O 149.45 -5.52341 1.42391 0
M  V30 1702 O 148.384 -5.03367 3.30007 0
M  V30 1703 H 152.21 -1.8488 2.40942 0
M  V30 1704 H 149.795 -0.85647 1.22413 0
M  V30 1705 H 151.677 -4.01913 1.26665 0
M  V30 1706 H 150.352 -3.21438 0.382049 0
M  V30 1707 H 149.259 -2.65873 2.63177 0
M  V30 1708 H 150.592 -3.5119 3.44858 0
M  V30 1709 N 152.244 -1.26651 -0.937939 0
M  V30 1710 C 153.655 -1.1125 -1.49934 0
M  V30 1711 C 154.006 0.306077 -1.93798 0
M  V30 1712 O 153.131 1.19792 -1.80219 0
M  V30 1713 C 153.726 -2.01339 -2.72485 0
M  V30 1714 C 152.285 -1.90074 -3.24883 0
M  V30 1715 C 151.432 -1.94498 -1.97651 0
M  V30 1716 H 154.383 -1.39693 -0.753091 0
M  V30 1717 H 154.404 -1.56319 -3.46907 0
M  V30 1718 H 153.916 -3.04577 -2.40529 0
M  V30 1719 H 152.017 -0.897827 -3.61621 0
M  V30 1720 H 152.13 -2.75778 -3.9177 0
M  V30 1721 H 150.494 -1.38591 -2.13693 0
M  V30 1722 H 151.277 -2.99372 -1.68022 0
M  V30 1723 N 153.722 1.14298 -1.08507 0
M  V30 1724 C 155.138 1.37347 -0.812901 0
M  V30 1725 C 155.338 1.93052 0.577325 0
M  V30 1726 O 154.394 2.14389 1.33393 0
M  V30 1727 C 155.707 2.33359 -1.89642 0
M  V30 1728 C 157.255 2.46996 -1.92255 0
M  V30 1729 C 157.73 3.46309 -2.99724 0
M  V30 1730 N 159.221 3.53853 -2.98902 0
M  V30 1731 C 159.956 4.3055 -3.787 0
M  V30 1732 N 159.452 5.10482 -4.6838 0
M  V30 1733 N 161.245 4.25757 -3.66998 0
M  V30 1734 H 153.396 0.764867 -1.9815 0
M  V30 1735 H 155.659 0.398966 -0.859959 0
M  V30 1736 H 155.365 1.99565 -2.89597 0
M  V30 1737 H 155.239 3.33274 -1.76659 0
M  V30 1738 H 157.626 2.80081 -0.929445 0
M  V30 1739 H 157.707 1.47039 -2.09316 0
M  V30 1740 H 157.351 3.13957 -3.99241 0
M  V30 1741 H 157.281 4.46049 -2.79907 0
M  V30 1742 H 159.772 2.96812 -2.33904 0
M  V30 1743 H 160.085 5.66284 -5.25873 0
M  V30 1744 H 158.43 5.09747 -4.72422 0
M  V30 1745 H 161.621 3.62383 -2.96304 0
M  V30 1746 H 161.794 4.85279 -4.29427 0
M  V30 1747 N 155.201 0.870884 1.31352 0
M  V30 1748 C 156.612 0.534714 1.78879 0
M  V30 1749 C 156.963 -0.948423 1.71754 0
M  V30 1750 O 156.088 -1.74055 1.28584 0
M  V30 1751 C 156.683 0.963839 3.24801 0
M  V30 1752 C 155.242 0.679311 3.70219 0
M  V30 1753 C 154.389 1.15465 2.52117 0
M  V30 1754 H 157.34 1.05651 1.18421 0
M  V30 1755 H 157.361 0.286892 3.79417 0
M  V30 1756 H 156.873 2.04332 3.29955 0
M  V30 1757 H 154.974 -0.388769 3.70566 0
M  V30 1758 H 155.087 1.25698 4.62317 0
M  V30 1759 H 153.451 0.574383 2.48139 0
M  V30 1760 H 154.234 2.24157 2.60016 0
M  V30 1761 O 156.718 -1.41941 0.770395 0
M  V30 1762 H 157.409 -1.908 0.333941 0
M  V30 END ATOM
M  V30 BEGIN BOND
M  V30 END BOND
M  V30 END CTAB
M  END
$$$$
