drugbank_target|O52646 Aklanonic acid methyl ester cyclase AcmA (DB04624)
 OpenBabel12092120303D

  0  0  0     0  0            999 V3000
M  V30 BEGIN CTAB
M  V30 COUNTS 2312 2346 0 0 0
M  V30 BEGIN ATOM
M  V30 1 H -0.908 1.98254 -0.117106 0
M  V30 2 N 0 1.576 0 0
M  V30 3 C 0.933 2.03868 1.02534 0
M  V30 4 C 1.911 0.928543 1.3348 0
M  V30 5 O 3.095 1.19667 1.45644 0
M  V30 6 C 0.222 2.43627 2.35294 0
M  V30 7 C -0.732 3.65373 2.2001 0
M  V30 8 S 0.101 5.13292 1.52614 0
M  V30 9 C 1.257 5.56322 2.86805 0
M  V30 10 H 1.49 2.90518 0.631377 0
M  V30 11 H -0.977 1.52953 0.210867 0
M  V30 12 H 0.981 2.67203 3.11629 0
M  V30 13 H -0.358 1.57376 2.7183 0
M  V30 14 H -1.165 3.90944 3.18086 0
M  V30 15 H -1.563 3.418 1.51819 0
M  V30 16 H 0.729 5.58782 3.83104 0
M  V30 17 H 1.672 6.56266 2.65933 0
M  V30 18 H 2.08 4.83886 2.90714 0
M  V30 19 N 1.4781 -0.272755 1.55222 0
M  V30 20 C 2.7031 -1.02683 1.80197 0
M  V30 21 C 3.1281 -1.79142 0.573551 0
M  V30 22 O 2.4861 -1.74917 -0.476849 0
M  V30 23 C 2.5341 -1.9609 3.02624 0
M  V30 24 O 1.6381 -3.04863 2.77727 0
M  V30 25 H 0.9791 -0.293557 0.595584 0
M  V30 26 H 3.5091 -0.30159 2.02365 0
M  V30 27 H 3.5191 -2.38039 3.31363 0
M  V30 28 H 2.1941 -1.39851 3.91682 0
M  V30 29 H 0.7711 -2.67228 2.60084 0
M  V30 30 N 2.9562 -1.48159 -0.537278 0
M  V30 31 C 3.8662 -1.64807 -1.6696 0
M  V30 32 C 4.8822 -0.530651 -1.65711 0
M  V30 33 O 6.0582 -0.800784 -1.84796 0
M  V30 34 C 3.1232 -1.67708 -3.03438 0
M  V30 35 C 2.1842 -2.91025 -3.156 0
M  V30 36 C 1.4172 -2.93778 -4.45567 0
M  V30 37 O 1.6402 -2.05153 -5.3223 0
M  V30 38 O 0.5742 -3.85868 -4.61941 0
M  V30 39 H 4.4002 -2.6066 -1.55853 0
M  V30 40 H 1.9852 -1.31475 -0.709549 0
M  V30 41 H 3.8672 -1.7218 -3.84619 0
M  V30 42 H 2.5422 -0.750278 -3.14885 0
M  V30 43 H 1.4492 -2.92089 -2.33741 0
M  V30 44 H 2.7822 -3.83065 -3.09066 0
M  V30 45 N 4.4343 0.785586 -1.36625 0
M  V30 46 C 5.3663 1.90711 -1.2713 0
M  V30 47 C 6.3793 1.61688 -0.189986 0
M  V30 48 O 7.5683 1.72864 -0.445014 0
M  V30 49 C 4.6683 3.25611 -0.939713 0
M  V30 50 C 3.8413 3.82385 -2.12369 0
M  V30 51 C 2.9003 4.95732 -1.76456 0
M  V30 52 O 1.9263 5.12047 -2.48589 0
M  V30 53 N 3.1283 5.76258 -0.700492 0
M  V30 54 H 5.8933 1.99376 -2.23762 0
M  V30 55 H 3.4543 0.964041 -1.30069 0
M  V30 56 H 5.4463 3.98937 -0.680554 0
M  V30 57 H 4.0163 3.12538 -0.0624074 0
M  V30 58 H 3.2363 3.01001 -2.54543 0
M  V30 59 H 4.5243 4.17047 -2.9146 0
M  V30 60 H 3.9223 5.65609 -0.101624 0
M  V30 61 H 2.4793 6.4987 -0.501165 0
M  V30 62 N 5.9124 1.20967 1.01018 0
M  V30 63 C 7.1614 1.01796 1.74128 0
M  V30 64 C 7.4744 -0.449691 1.90361 0
M  V30 65 O 8.6804 -0.76068 2.60626 0
M  V30 66 C 7.1364 1.7727 3.13215 0
M  V30 67 C 6.7444 3.28171 3.04972 0
M  V30 68 C 8.4884 1.66489 3.90489 0
M  V30 69 C 6.3954 3.96156 4.39107 0
M  V30 70 H 5.3254 0.377276 0.652824 0
M  V30 71 H 7.9764 1.44651 1.12909 0
M  V30 72 H 6.3584 1.27205 3.75013 0
M  V30 73 H 7.5324 3.85499 2.52443 0
M  V30 74 H 5.8474 3.39437 2.41188 0
M  V30 75 H 8.4444 2.14617 4.89738 0
M  V30 76 H 8.7874 0.6222 4.11624 0
M  V30 77 H 9.3204 2.14003 3.35332 0
M  V30 78 H 6.0594 5.00604 4.23174 0
M  V30 79 H 5.5794 3.43617 4.91617 0
M  V30 80 H 7.2584 4.00774 5.07926 0
M  V30 81 N 7.3905 -1.2043 1.01659 0
M  V30 82 C 8.3535 -2.21433 0.591616 0
M  V30 83 C 9.3535 -1.57203 -0.338226 0
M  V30 84 O 10.5435 -1.73737 -0.126918 0
M  V30 85 C 7.6755 -3.40628 -0.136058 0
M  V30 86 H 8.8685 -2.60545 1.48514 0
M  V30 87 H 6.4215 -1.33893 0.806379 0
M  V30 88 H 7.1565 -3.07019 -1.04449 0
M  V30 89 H 6.9415 -3.88475 0.531917 0
M  V30 90 H 8.4315 -4.15475 -0.420735 0
M  V30 91 N 8.8686 -0.792821 -1.36206 0
M  V30 92 C 9.8316 -0.199459 -2.2833 0
M  V30 93 C 10.8316 0.605189 -1.48977 0
M  V30 94 O 12.0216 0.425685 -1.68919 0
M  V30 95 C 9.1536 0.723523 -3.33134 0
M  V30 96 H 10.3466 -1.01181 -2.82316 0
M  V30 97 H 7.8996 -0.562485 -1.45828 0
M  V30 98 H 8.6346 1.56008 -2.84309 0
M  V30 99 H 8.4196 0.148436 -3.91819 0
M  V30 100 H 9.9096 1.13344 -4.01924 0
M  V30 101 N 10.3467 1.47872 -0.545128 0
M  V30 102 C 11.5927 2.02793 -0.0166104 0
M  V30 103 C 11.9257 1.41987 1.32489 0
M  V30 104 O 11.2007 0.571045 1.85928 0
M  V30 105 C 11.4837 3.59989 0.0893294 0
M  V30 106 C 11.3367 4.3125 -1.27841 0
M  V30 107 C 12.6557 4.32606 0.808724 0
M  V30 108 H 9.7747 0.736962 -0.00751035 0
M  V30 109 H 12.4167 1.76433 -0.705085 0
M  V30 110 H 10.5667 3.82579 0.675681 0
M  V30 111 H 12.2387 4.20035 -1.90704 0
M  V30 112 H 10.4817 3.92076 -1.85632 0
M  V30 113 H 11.1527 5.39736 -1.15713 0
M  V30 114 H 13.6287 4.14936 0.310992 0
M  V30 115 H 12.5047 5.42251 0.851782 0
M  V30 116 H 12.7657 4.00963 1.86229 0
M  V30 117 N 11.8248 0.280983 1.55075 0
M  V30 118 C 13.2408 -0.0729964 1.59433 0
M  V30 119 C 13.4408 -1.5411 1.29817 0
M  V30 120 O 12.4968 -2.29086 1.06187 0
M  V30 121 C 13.8098 0.306921 2.9913 0
M  V30 122 C 15.3578 0.254023 3.11968 0
M  V30 123 C 15.8328 0.608467 4.5394 0
M  V30 124 N 17.3238 0.560241 4.59799 0
M  V30 125 C 18.0588 0.80722 5.6769 0
M  V30 126 N 17.5548 1.11912 6.83701 0
M  V30 127 N 19.3478 0.735623 5.57266 0
M  V30 128 H 11.4988 1.238 1.7259 0
M  V30 129 H 13.7618 0.500547 0.805082 0
M  V30 130 H 13.4678 1.32816 3.25657 0
M  V30 131 H 13.3418 -0.349363 3.75579 0
M  V30 132 H 15.7288 -0.75794 2.852 0
M  V30 133 H 15.8098 0.944649 2.37718 0
M  V30 134 H 15.4538 1.61814 4.81434 0
M  V30 135 H 15.3838 -0.104013 5.26497 0
M  V30 136 H 17.8748 0.329288 3.76463 0
M  V30 137 H 18.1878 1.29409 7.61888 0
M  V30 138 H 16.5328 1.15695 6.85303 0
M  V30 139 H 19.7238 0.491752 4.6551 0
M  V30 140 H 19.8968 0.931482 6.4127 0
M  V30 141 N 13.3029 -1.57598 0.00835791 0
M  V30 142 C 14.7189 -1.55764 -0.347822 0
M  V30 143 C 14.9189 -1.01186 -1.74252 0
M  V30 144 O 13.9749 -0.649371 -2.44007 0
M  V30 145 C 15.2879 -2.99927 -0.215407 0
M  V30 146 C 16.8359 -3.11656 -0.289725 0
M  V30 147 C 17.3109 -4.57621 -0.18634 0
M  V30 148 N 18.8019 -4.62557 -0.243978 0
M  V30 149 C 19.5369 -5.73094 -0.18745 0
M  V30 150 N 19.0329 -6.92753 -0.0810331 0
M  V30 151 N 20.8259 -5.61588 -0.239925 0
M  V30 152 H 12.9769 -1.91411 0.92062 0
M  V30 153 H 15.2399 -0.879562 0.353659 0
M  V30 154 H 14.9459 -3.43729 0.744512 0
M  V30 155 H 14.8199 -3.63865 -0.994097 0
M  V30 156 H 17.2069 -2.67779 -1.24009 0
M  V30 157 H 17.2879 -2.5048 0.51898 0
M  V30 158 H 16.9319 -5.02174 0.760519 0
M  V30 159 H 16.8619 -5.16752 -1.01364 0
M  V30 160 H 19.3529 -3.76481 -0.327217 0
M  V30 161 H 19.6659 -7.72787 -0.0440241 0
M  V30 162 H 18.0109 -6.94984 -0.0465419 0
M  V30 163 H 21.2019 -4.66996 -0.321317 0
M  V30 164 H 21.3749 -6.47714 -0.192407 0
M  V30 165 N 14.781 0.264519 -1.55364 0
M  V30 166 C 15.714 1.35297 -1.83766 0
M  V30 167 C 16.692 1.47171 -0.691336 0
M  V30 168 O 17.876 1.63663 -0.935238 0
M  V30 169 C 15.003 2.72847 -2.00679 0
M  V30 170 C 14.049 2.78214 -3.23263 0
M  V30 171 S 14.882 2.36601 -4.80396 0
M  V30 172 C 16.038 3.7611 -5.00292 0
M  V30 173 H 16.271 1.11003 -2.758 0
M  V30 174 H 13.804 0.464596 -1.47244 0
M  V30 175 H 15.762 3.52057 -2.11108 0
M  V30 176 H 14.423 2.94388 -1.09518 0
M  V30 177 H 13.616 3.7919 -3.3201 0
M  V30 178 H 13.218 2.07034 -3.11469 0
M  V30 179 H 15.51 4.71457 -4.86554 0
M  V30 180 H 16.453 3.7231 -6.02321 0
M  V30 181 H 16.861 3.67806 -4.28228 0
M  V30 182 N 16.2591 1.48442 0.529413 0
M  V30 183 C 17.5051 1.5672 1.28711 0
M  V30 184 C 17.8381 0.2406 1.92704 0
M  V30 185 O 17.1131 -0.753454 1.79313 0
M  V30 186 C 17.3961 2.70587 2.37603 0
M  V30 187 C 17.2491 4.12953 1.78297 0
M  V30 188 C 18.5681 2.80212 3.39366 0
M  V30 189 H 15.6871 0.570474 0.466613 0
M  V30 190 H 18.3291 1.80617 0.589706 0
M  V30 191 H 16.4791 2.50342 2.97088 0
M  V30 192 H 18.1511 4.44639 1.22858 0
M  V30 193 H 16.3941 4.19927 1.0883 0
M  V30 194 H 17.0651 4.88448 2.57144 0
M  V30 195 H 19.5411 2.98553 2.89836 0
M  V30 196 H 18.4171 3.61611 4.12951 0
M  V30 197 H 18.6781 1.88393 3.99951 0
M  V30 198 N 17.7372 -0.778329 1.37039 0
M  V30 199 C 18.6472 -1.92253 1.34446 0
M  V30 200 C 19.6632 -1.72267 0.244991 0
M  V30 201 O 20.8392 -1.95615 0.479258 0
M  V30 202 C 17.9042 -3.27282 1.144 0
M  V30 203 C 16.9652 -3.59969 2.33925 0
M  V30 204 C 16.1982 -4.88555 2.14825 0
M  V30 205 O 16.4212 -5.59113 1.12912 0
M  V30 206 O 15.3552 -5.20153 3.02861 0
M  V30 207 H 19.1812 -1.97392 2.30803 0
M  V30 208 H 16.7662 -0.920154 1.17701 0
M  V30 209 H 18.6482 -4.08062 1.05182 0
M  V30 210 H 17.3232 -3.23011 0.211124 0
M  V30 211 H 16.2302 -2.7945 2.48714 0
M  V30 212 H 17.5632 -3.68976 3.25757 0
M  V30 213 N 19.2153 -1.21501 -1.00376 0
M  V30 214 C 20.1783 -0.976927 -2.07337 0
M  V30 215 C 21.1783 0.0525322 -1.60714 0
M  V30 216 O 22.3683 -0.184869 -1.73216 0
M  V30 217 C 19.5003 -0.473423 -3.37597 0
M  V30 218 H 20.6933 -1.92587 -2.29892 0
M  V30 219 H 18.2463 -1.03217 -1.17371 0
M  V30 220 H 18.9813 0.480379 -3.20722 0
M  V30 221 H 18.7663 -1.216 -3.72768 0
M  V30 222 H 20.2563 -0.32675 -4.1632 0
M  V30 223 N 20.6934 1.19889 -1.02296 0
M  V30 224 C 21.9234 1.93109 -0.734332 0
M  V30 225 C 22.3314 1.75377 0.709889 0
M  V30 226 O 21.6744 1.06912 1.49384 0
M  V30 227 C 21.7364 3.45362 -0.99827 0
M  V30 228 C 21.4004 3.8686 -2.43287 0
M  V30 229 C 22.3974 3.92102 -3.41397 0
M  V30 230 C 20.0824 4.18668 -2.77529 0
M  V30 231 C 22.0764 4.28573 -4.71809 0
M  V30 232 C 19.7634 4.54813 -4.08153 0
M  V30 233 C 20.7614 4.59739 -5.05103 0
M  V30 234 O 20.4494 4.95051 -6.33388 0
M  V30 235 H 20.1814 0.620409 -0.268456 0
M  V30 236 H 22.7354 1.53144 -1.3688 0
M  V30 237 H 20.9654 3.85482 -0.306645 0
M  V30 238 H 22.6544 3.99814 -0.700234 0
M  V30 239 H 23.4204 3.67685 -3.1628 0
M  V30 240 H 19.2994 4.14021 -2.0275 0
M  V30 241 H 22.8434 4.32333 -5.4748 0
M  V30 242 H 18.7404 4.78687 -4.33047 0
M  V30 243 H 19.5084 5.1302 -6.37772 0
M  V30 244 N 22.1715 0.800033 1.35784 0
M  V30 245 C 23.1195 0.193851 2.31791 0
M  V30 246 C 24.1135 -0.652744 1.56319 0
M  V30 247 O 25.3195 -0.546641 1.71499 0
M  V30 248 H 21.6945 0.04392 0.750716 0
M  V30 249 H 23.6655 1.01883 2.80468 0
M  V30 250 C 22.4145 -0.648338 3.41602 0
M  V30 251 H 21.7375 -0.00624665 3.998 0
M  V30 252 H 23.1775 -1.03898 4.11073 0
M  V30 253 C 21.6365 -1.8111 2.84079 0
M  V30 254 O 22.1665 -2.90825 2.77099 0
M  V30 255 N 20.3725 -1.62056 2.41218 0
M  V30 256 H 19.9195 -0.728123 2.47095 0
M  V30 257 H 19.8775 -2.40013 2.03079 0
M  V30 258 N 23.6496 -1.47581 0.552962 0
M  V30 259 C 24.8776 -2.06875 0.0320556 0
M  V30 260 C 25.2926 -1.40625 -1.25976 0
M  V30 261 O 24.6496 -0.501349 -1.75479 0
M  V30 262 C 24.7006 -3.61092 -0.17167 0
M  V30 263 O 24.4216 -4.24858 1.06899 0
M  V30 264 C 25.9226 -4.37242 -0.730344 0
M  V30 265 H 23.1426 -0.669561 0.043915 0
M  V30 266 H 25.6866 -1.89646 0.765163 0
M  V30 267 H 23.8416 -3.7785 -0.854894 0
M  V30 268 H 24.2556 -5.17334 0.864059 0
M  V30 269 H 25.7296 -5.45842 -0.822203 0
M  V30 270 H 26.2066 -4.03235 -1.74064 0
M  V30 271 H 26.8126 -4.25219 -0.0829543 0
M  V30 272 N 25.1277 -0.289203 -1.54924 0
M  V30 273 C 26.3757 0.322879 -1.99504 0
M  V30 274 C 26.6967 1.55313 -1.1791 0
M  V30 275 O 25.9667 1.94001 -0.272097 0
M  V30 276 H 24.5467 0.122291 -0.736922 0
M  V30 277 H 27.2087 -0.397802 -1.90797 0
M  V30 278 H 26.3047 0.603061 -3.06218 0
M  V30 279 N 26.6058 1.57591 -0.0167156 0
M  V30 280 C 27.5528 2.09462 0.969251 0
M  V30 281 C 28.5228 0.99381 1.33089 0
M  V30 282 O 29.7078 1.26726 1.42636 0
M  V30 283 C 26.8478 2.61622 2.25051 0
M  V30 284 C 25.9608 3.85666 1.94642 0
M  V30 285 C 25.0958 4.26266 3.16972 0
M  V30 286 C 24.1348 5.43101 2.82326 0
M  V30 287 N 23.2718 5.78915 3.97243 0
M  V30 288 H 28.1118 2.93428 0.519997 0
M  V30 289 H 25.6488 1.45044 0.245087 0
M  V30 290 H 27.6068 2.89949 2.99976 0
M  V30 291 H 26.2368 1.80505 2.67615 0
M  V30 292 H 25.2888 3.64145 1.10013 0
M  V30 293 H 26.6008 4.70678 1.65117 0
M  V30 294 H 25.7548 4.55963 4.00228 0
M  V30 295 H 24.4938 3.39996 3.49648 0
M  V30 296 H 23.4988 5.1311 1.97479 0
M  V30 297 H 24.7238 6.3106 2.50879 0
M  V30 298 H 22.6698 4.95602 4.29785 0
M  V30 299 H 22.5868 6.58539 3.71299 0
M  V30 300 H 23.8548 6.13212 4.81239 0
M  V30 301 N 28.0839 -0.256276 1.55502 0
M  V30 302 C 29.3119 -1.00342 1.8094 0
M  V30 303 C 29.7269 -1.79307 0.59114 0
M  V30 304 O 29.0839 -1.77114 -0.440081 0
M  V30 305 C 29.1349 -1.94875 3.04476 0
M  V30 306 O 28.8559 -1.19107 4.21598 0
M  V30 307 C 30.3569 -2.81266 3.42644 0
M  V30 308 H 27.5769 -0.295685 0.602338 0
M  V30 309 H 30.1209 -0.281998 2.02546 0
M  V30 310 H 28.2759 -2.62457 2.84947 0
M  V30 311 H 28.6899 -1.82969 4.91551 0
M  V30 312 H 30.1639 -3.43362 4.32211 0
M  V30 313 H 30.6409 -3.51897 2.62802 0
M  V30 314 H 31.2469 -2.1915 3.64491 0
M  V30 315 N 29.562 -1.4872 -0.521534 0
M  V30 316 C 30.839 -1.4766 -1.2828 0
M  V30 317 C 31.219 -0.19292 -2.10217 0
M  V30 318 O 30.567 0.825193 -2.13079 0
M  V30 319 C 30.777 -2.74358 -2.15705 0
M  V30 320 C 32.125 -3.23028 -2.75569 0
M  V30 321 O 33.149 -2.75333 -2.25987 0
M  V30 322 O 32.008 -4.0604 -3.65778 0
M  V30 323 H 29.102 -0.590085 -0.579421 0
M  V30 324 H 31.648 -1.60963 -0.537492 0
M  V30 325 H 30.42 -3.59292 -1.54999 0
M  V30 326 H 30.043 -2.63816 -2.97467 0
M  V30 327 N 31.0401 0.771051 -1.3745 0
M  V30 328 C 32.3171 1.519 -1.23231 0
M  V30 329 C 32.6971 2.10383 0.173809 0
M  V30 330 O 32.0451 1.95583 1.18151 0
M  V30 331 C 32.2551 2.59933 -2.32886 0
M  V30 332 C 33.6031 3.27316 -2.70461 0
M  V30 333 O 34.6271 2.70228 -2.32068 0
M  V30 334 O 33.4861 4.30531 -3.36608 0
M  V30 335 H 30.5801 0.672803 -0.480901 0
M  V30 336 H 33.1261 0.807957 -1.49232 0
M  V30 337 H 31.8981 2.14842 -3.27045 0
M  V30 338 H 31.5211 3.38637 -2.08353 0
M  V30 339 N 32.5182 1.22032 0.997298 0
M  V30 340 C 33.7642 1.04376 1.73878 0
M  V30 341 C 34.0972 -0.420716 1.89588 0
M  V30 342 O 33.3722 -1.31202 1.43583 0
M  V30 343 C 33.6552 1.75047 3.14691 0
M  V30 344 C 33.5082 3.29062 3.06656 0
M  V30 345 C 34.8272 1.49928 4.13775 0
M  V30 346 H 31.9462 0.380578 0.631133 0
M  V30 347 H 34.5882 1.50312 1.16217 0
M  V30 348 H 32.7382 1.35996 3.63919 0
M  V30 349 H 34.4102 3.7753 2.65083 0
M  V30 350 H 32.6532 3.58967 2.43568 0
M  V30 351 H 33.3242 3.73683 4.06282 0
M  V30 352 H 35.8002 1.83842 3.73285 0
M  V30 353 H 34.6762 2.01878 5.10428 0
M  V30 354 H 34.9372 0.430929 4.39995 0
M  V30 355 N 33.9963 -1.19345 1.0293 0
M  V30 356 C 34.9593 -2.20793 0.615069 0
M  V30 357 C 35.9593 -1.57553 -0.321533 0
M  V30 358 O 37.1493 -1.73862 -0.108483 0
M  V30 359 C 34.2813 -3.40754 -0.0999222 0
M  V30 360 H 35.4743 -2.58955 1.51269 0
M  V30 361 H 33.0273 -1.3303 0.820534 0
M  V30 362 H 33.7623 -3.0811 -1.01187 0
M  V30 363 H 33.5473 -3.87889 0.57309 0
M  V30 364 H 35.0373 -4.15898 -0.376645 0
M  V30 365 N 35.4744 -0.807222 -1.35358 0
M  V30 366 C 36.7514 -0.311126 -1.9311 0
M  V30 367 C 37.1314 1.19937 -1.73719 0
M  V30 368 O 36.4794 1.99918 -1.10657 0
M  V30 369 C 36.6894 -0.723226 -3.41424 0
M  V30 370 C 38.0374 -0.713078 -4.18569 0
M  V30 371 O 39.0614 -0.664811 -3.49941 0
M  V30 372 O 37.9204 -0.772022 -5.41019 0
M  V30 373 H 35.0144 -0.081526 -0.822972 0
M  V30 374 H 37.5604 -0.890962 -1.4443 0
M  V30 375 H 36.3324 -1.76426 -3.4927 0
M  V30 376 H 35.9554 -0.118232 -3.97424 0
M  V30 377 N 36.9525 1.47285 -0.560781 0
M  V30 378 C 38.1825 2.06555 -0.0429638 0
M  V30 379 C 38.5905 1.41339 1.25777 0
M  V30 380 O 37.9335 0.505182 1.76617 0
M  V30 381 C 37.9955 3.58827 0.219887 0
M  V30 382 C 37.6595 4.46105 -0.991944 0
M  V30 383 C 38.6565 4.84 -1.89843 0
M  V30 384 C 36.3415 4.87567 -1.20762 0
M  V30 385 C 38.3355 5.6216 -3.00425 0
M  V30 386 C 36.0225 5.65491 -2.31653 0
M  V30 387 C 37.0205 6.02699 -3.21315 0
M  V30 388 O 36.7085 6.79052 -4.30283 0
M  V30 389 H 36.4405 0.674537 -0.0444468 0
M  V30 390 H 38.9945 1.90225 -0.774818 0
M  V30 391 H 37.2245 3.73383 1.00609 0
M  V30 392 H 38.9135 4.00103 0.683522 0
M  V30 393 H 39.6795 4.52564 -1.74387 0
M  V30 394 H 35.5585 4.5807 -0.518893 0
M  V30 395 H 39.1025 5.9112 -3.70436 0
M  V30 396 H 34.9995 5.9634 -2.47081 0
M  V30 397 H 35.7675 6.9745 -4.28376 0
M  V30 398 N 38.4306 0.297415 1.54768 0
M  V30 399 C 39.6796 -0.313669 1.99246 0
M  V30 400 C 39.9926 -1.55281 1.18942 0
M  V30 401 O 41.1986 -2.23825 1.5367 0
M  V30 402 C 39.6546 -0.609407 3.54703 0
M  V30 403 C 39.2626 0.611192 4.43811 0
M  V30 404 C 41.0066 -1.18188 4.07715 0
M  V30 405 C 38.9136 0.288805 5.90694 0
M  V30 406 H 37.8436 -0.120979 0.744231 0
M  V30 407 H 40.4946 0.40556 1.78962 0
M  V30 408 H 38.8766 -1.38813 3.70873 0
M  V30 409 H 40.0506 1.3875 4.39414 0
M  V30 410 H 38.3656 1.10205 4.01552 0
M  V30 411 H 40.9626 -1.43727 5.15021 0
M  V30 412 H 41.3056 -2.12299 3.58099 0
M  V30 413 H 41.8386 -0.464944 3.95074 0
M  V30 414 H 38.5776 1.19838 6.44453 0
M  V30 415 H 38.0976 -0.450305 5.98107 0
M  V30 416 H 39.7766 -0.110933 6.46905 0
M  V30 417 N 39.9087 -1.5758 0.0250728 0
M  V30 418 C 40.8587 -2.06468 -0.967201 0
M  V30 419 C 41.8427 -0.964376 -1.28797 0
M  V30 420 O 43.0347 -1.22797 -1.27475 0
M  V30 421 C 40.1637 -2.59203 -2.25097 0
M  V30 422 C 39.2497 -3.76157 -1.95874 0
M  V30 423 N 39.6407 -4.86919 -1.36905 0
M  V30 424 C 37.9387 -3.84566 -2.25887 0
M  V30 425 C 38.6397 -5.68172 -1.24724 0
M  V30 426 N 37.6157 -5.14953 -1.74138 0
M  V30 427 H 41.4177 -2.89508 -0.506176 0
M  V30 428 H 38.9317 -1.61399 -0.18004 0
M  V30 429 H 40.9287 -2.92517 -2.97052 0
M  V30 430 H 39.5887 -1.77592 -2.71829 0
M  V30 431 H 40.5997 -5.07256 -1.04459 0
M  V30 432 H 37.2767 -3.13854 -2.75321 0
M  V30 433 H 38.6667 -6.67221 -0.791605 0
M  V30 434 N 41.3868 0.248026 -1.55636 0
M  V30 435 C 42.7978 0.817177 -1.67866 0
M  V30 436 C 43.1488 1.86069 -0.622322 0
M  V30 437 O 42.2738 2.15157 0.231618 0
M  V30 438 C 42.8688 1.489 -3.04326 0
M  V30 439 C 41.4278 2.00587 -3.185 0
M  V30 440 C 40.5748 0.856573 -2.63739 0
M  V30 441 H 43.5258 0.0238579 -1.58682 0
M  V30 442 H 43.5468 2.35698 -2.98708 0
M  V30 443 H 43.0588 0.729279 -3.81186 0
M  V30 444 H 41.1598 2.79443 -2.4646 0
M  V30 445 H 41.2728 2.20402 -4.25393 0
M  V30 446 H 39.6368 1.25678 -2.21534 0
M  V30 447 H 40.4198 0.109953 -3.43124 0
M  V30 448 N 42.8649 1.48995 0.513639 0
M  V30 449 C 43.7749 1.67443 1.64317 0
M  V30 450 C 44.7909 0.556947 1.64846 0
M  V30 451 O 45.9669 0.830082 1.83498 0
M  V30 452 C 43.0319 1.72515 3.00732 0
M  V30 453 C 42.0929 2.96009 3.1093 0
M  V30 454 C 41.3259 3.00829 4.40837 0
M  V30 455 O 41.5489 2.13594 5.28898 0
M  V30 456 O 40.4829 3.93168 4.55744 0
M  V30 457 H 44.3089 2.63106 1.51687 0
M  V30 458 H 41.8939 1.32588 0.688543 0
M  V30 459 H 43.7759 1.78277 3.81831 0
M  V30 460 H 42.4509 0.800278 3.13651 0
M  V30 461 H 41.3579 2.9577 2.29065 0
M  V30 462 H 42.6909 3.87934 3.02933 0
M  V30 463 N 44.343 -0.763751 1.37857 0
M  V30 464 C 45.573 -1.55067 1.3652 0
M  V30 465 C 45.981 -1.89135 -0.0494227 0
M  V30 466 O 45.324 -1.52529 -1.02375 0
M  V30 467 C 45.386 -2.8838 2.14656 0
M  V30 468 C 45.05 -2.76905 3.63555 0
M  V30 469 C 46.047 -2.4739 4.57268 0
M  V30 470 C 43.732 -2.94676 4.06781 0
M  V30 471 C 45.726 -2.35786 5.92186 0
M  V30 472 C 43.413 -2.82692 5.41782 0
M  V30 473 C 44.411 -2.53289 6.34298 0
M  V30 474 O 44.099 -2.41345 7.66817 0
M  V30 475 H 43.831 -0.486776 0.469069 0
M  V30 476 H 46.385 -0.953812 1.81911 0
M  V30 477 H 44.615 -3.50217 1.63967 0
M  V30 478 H 46.304 -3.49828 2.05852 0
M  V30 479 H 47.07 -2.33339 4.2518 0
M  V30 480 H 42.949 -3.16563 3.35126 0
M  V30 481 H 46.493 -2.12757 6.64365 0
M  V30 482 H 42.39 -2.96314 5.7347 0
M  V30 483 H 43.158 -2.56634 7.77226 0
M  V30 484 N 45.8211 -1.22559 -0.990812 0
M  V30 485 C 46.7541 -0.940773 -2.07905 0
M  V30 486 C 47.7321 0.117082 -1.62178 0
M  V30 487 O 48.9161 -0.0149506 -1.88494 0
M  V30 488 C 46.0431 -0.415321 -3.36144 0
M  V30 489 C 45.0891 -1.45818 -4.00799 0
M  V30 490 S 45.9221 -3.03219 -4.41382 0
M  V30 491 C 47.0781 -2.52317 -5.72789 0
M  V30 492 H 47.3111 -1.8623 -2.31745 0
M  V30 493 H 44.8441 -1.05688 -1.12558 0
M  V30 494 H 46.8021 -0.118747 -4.10328 0
M  V30 495 H 45.4631 0.485121 -3.10331 0
M  V30 496 H 44.6561 -1.04044 -4.93144 0
M  V30 497 H 44.2581 -1.70356 -3.32949 0
M  V30 498 H 46.5501 -1.93688 -6.49224 0
M  V30 499 H 47.4931 -3.43161 -6.19392 0
M  V30 500 H 47.9011 -1.93529 -5.30289 0
M  V30 501 N 47.2992 1.18797 -1.03562 0
M  V30 502 C 48.2472 2.24297 -0.615905 0
M  V30 503 C 49.2412 1.65643 0.354808 0
M  V30 504 O 50.4472 1.78618 0.22265 0
M  V30 505 H 46.8222 0.729909 -0.180934 0
M  V30 506 H 48.7932 2.5701 -1.5162 0
M  V30 507 C 47.5422 3.47698 0.0104735 0
M  V30 508 H 46.8652 3.93125 -0.727509 0
M  V30 509 H 48.3052 4.23159 0.266995 0
M  V30 510 C 46.7642 3.12489 1.25905 0
M  V30 511 O 47.2942 3.25761 2.35038 0
M  V30 512 N 45.5002 2.6686 1.15039 0
M  V30 513 H 45.0472 2.56261 0.262328 0
M  V30 514 H 45.0052 2.43674 1.98672 0
M  V30 515 N 48.7773 0.814389 1.34928 0
M  V30 516 C 50.1883 0.458364 1.80986 0
M  V30 517 C 50.5393 -1.02042 1.67577 0
M  V30 518 O 49.6643 -1.79352 1.21086 0
M  V30 519 C 50.2593 0.825212 3.28597 0
M  V30 520 C 48.8183 0.521677 3.72767 0
M  V30 521 C 47.9653 1.04668 2.56788 0
M  V30 522 H 50.9163 1.00533 1.22795 0
M  V30 523 H 50.9373 0.12571 3.80292 0
M  V30 524 H 50.4493 1.90154 3.38324 0
M  V30 525 H 48.5503 -0.545589 3.68584 0
M  V30 526 H 48.6633 1.05977 4.67232 0
M  V30 527 H 47.0273 0.468622 2.50352 0
M  V30 528 H 47.8103 2.12927 2.6929 0
M  V30 529 N 50.2554 -1.46986 0.568584 0
M  V30 530 C 51.5034 -2.02041 0.0487022 0
M  V30 531 C 51.8244 -1.44408 -1.31039 0
M  V30 532 O 51.0944 -0.623477 -1.85714 0
M  V30 533 H 49.6744 -0.746849 0.015014 0
M  V30 534 H 52.3364 -1.80257 0.741168 0
M  V30 535 H 51.4324 -3.12085 -0.0308961 0
M  V30 536 N 51.7335 -0.305618 -1.54608 0
M  V30 537 C 52.9615 0.304775 -2.04643 0
M  V30 538 C 53.3765 1.47167 -1.18268 0
M  V30 539 O 52.7335 1.81296 -0.209328 0
M  V30 540 C 52.7845 0.756564 -3.53495 0
M  V30 541 O 52.5055 -0.36389 -4.36586 0
M  V30 542 C 54.0065 1.43163 -4.19546 0
M  V30 543 H 51.2265 0.0655481 -0.667791 0
M  V30 544 H 53.7705 -0.446592 -1.99564 0
M  V30 545 H 51.9255 1.45794 -3.58919 0
M  V30 546 H 52.3395 -0.0113121 -5.24499 0
M  V30 547 H 53.8135 1.69886 -5.25207 0
M  V30 548 H 54.2905 2.37318 -3.69563 0
M  V30 549 H 54.8965 0.773307 -4.18211 0
M  V30 550 N 53.2116 1.57565 -0.0334293 0
M  V30 551 C 54.1416 2.13511 0.945265 0
M  V30 552 C 55.1226 1.05231 1.33643 0
M  V30 553 O 56.3076 1.33084 1.41429 0
M  V30 554 C 53.4376 2.6657 2.22616 0
M  V30 555 C 52.3916 3.79676 1.97561 0
M  V30 556 C 51.7176 4.1918 3.31952 0
M  V30 557 C 53.0176 5.0557 1.31135 0
M  V30 558 H 54.7116 2.95538 0.479325 0
M  V30 559 H 52.2576 1.42166 0.229115 0
M  V30 560 H 54.2106 3.04344 2.91466 0
M  V30 561 H 52.9346 1.8171 2.71384 0
M  V30 562 H 51.5936 3.42347 1.31127 0
M  V30 563 H 51.2416 3.31296 3.78487 0
M  V30 564 H 50.9416 4.95402 3.15992 0
M  V30 565 H 52.4656 4.59541 4.02063 0
M  V30 566 H 53.8796 5.40903 1.89992 0
M  V30 567 H 52.2766 5.86818 1.25559 0
M  V30 568 H 53.3466 4.84062 0.284894 0
M  V30 569 N 54.6897 -0.239769 1.55765 0
M  V30 570 C 55.5997 -1.31831 1.94056 0
M  V30 571 C 56.6157 -1.52275 0.841925 0
M  V30 572 O 57.7917 -1.65759 1.14394 0
M  V30 573 C 54.8567 -2.65156 2.23368 0
M  V30 574 C 53.9177 -2.53173 3.46701 0
M  V30 575 C 53.1507 -3.8014 3.74606 0
M  V30 576 O 53.3737 -4.82343 3.04469 0
M  V30 577 O 52.3077 -3.78344 4.68123 0
M  V30 578 H 56.1337 -1.02347 2.85935 0
M  V30 579 H 53.7187 -0.441123 1.42739 0
M  V30 580 H 55.6007 -3.43929 2.43497 0
M  V30 581 H 54.2757 -2.94358 1.34666 0
M  V30 582 H 53.1827 -1.72662 3.31871 0
M  V30 583 H 54.5157 -2.28915 4.35728 0
M  V30 584 N 56.1678 -1.49265 -0.50573 0
M  V30 585 C 57.4148 -1.58513 -1.26015 0
M  V30 586 C 57.7428 -0.26972 -1.92621 0
M  V30 587 O 56.9978 0.741997 -1.81088 0
M  V30 588 C 57.2968 -2.69008 -2.35308 0
M  V30 589 C 56.9628 -4.10662 -1.86192 0
M  V30 590 C 55.6248 -4.49212 -1.72516 0
M  V30 591 C 57.9768 -4.99336 -1.49375 0
M  V30 592 C 55.3048 -5.74214 -1.20394 0
M  V30 593 C 57.6568 -6.24852 -0.987072 0
M  V30 594 C 56.3208 -6.62236 -0.836669 0
M  V30 595 H 55.5908 -0.580041 -0.461122 0
M  V30 596 H 58.2378 -1.83078 -0.561665 0
M  V30 597 H 56.5428 -2.38396 -3.10926 0
M  V30 598 H 58.2398 -2.73373 -2.93374 0
M  V30 599 H 54.8298 -3.8023 -1.97795 0
M  V30 600 H 59.0138 -4.70212 -1.5879 0
M  V30 601 H 54.2698 -6.01883 -1.07458 0
M  V30 602 H 58.4438 -6.92944 -0.692983 0
M  V30 603 H 56.0708 -7.58979 -0.430607 0
M  V30 604 N 57.6459 0.756429 -1.3826 0
M  V30 605 C 58.8739 1.54565 -1.3754 0
M  V30 606 C 59.2889 1.88767 0.0355331 0
M  V30 607 O 58.6459 1.52572 1.0014 0
M  V30 608 C 58.6969 2.84654 -2.22833 0
M  V30 609 O 58.4179 2.51912 -3.5843 0
M  V30 610 C 59.9189 3.78807 -2.30261 0
M  V30 611 H 57.1389 0.478353 -0.470553 0
M  V30 612 H 59.6829 0.936381 -1.81803 0
M  V30 613 H 57.8379 3.41965 -1.8204 0
M  V30 614 H 58.2519 3.35325 -4.03308 0
M  V30 615 H 59.7259 4.67045 -2.94233 0
M  V30 616 H 60.2029 4.19038 -1.31545 0
M  V30 617 H 60.8089 3.2742 -2.71433 0
M  V30 618 N 59.124 1.23083 0.984299 0
M  V30 619 C 60.349 1.088 1.76571 0
M  V30 620 C 60.774 -0.356657 1.84688 0
M  V30 621 O 60.132 -1.25788 1.30565 0
M  V30 622 C 60.18 1.71371 3.17277 0
M  V30 623 O 59.284 0.973213 4.00752 0
M  V30 624 H 58.625 0.381599 0.543395 0
M  V30 625 H 61.155 1.63057 1.23587 0
M  V30 626 H 61.165 1.76449 3.67872 0
M  V30 627 H 59.84 2.76493 3.10684 0
M  V30 628 H 58.417 0.999078 3.59267 0
M  V30 629 N 60.6021 -1.18246 1.0419 0
M  V30 630 C 61.5321 -2.24127 0.654914 0
M  V30 631 C 62.5131 -1.66617 -0.342451 0
M  V30 632 O 63.6981 -1.92924 -0.222277 0
M  V30 633 C 60.8281 -3.47295 0.0183757 0
M  V30 634 C 59.7821 -4.17563 0.939414 0
M  V30 635 C 59.1081 -5.34438 0.167286 0
M  V30 636 C 60.4081 -4.70917 2.25908 0
M  V30 637 H 62.1021 -2.56753 1.54007 0
M  V30 638 H 59.6481 -1.23414 0.74195 0
M  V30 639 H 61.6011 -4.20572 -0.264082 0
M  V30 640 H 60.3251 -3.13907 -0.901664 0
M  V30 641 H 58.9841 -3.46186 1.20628 0
M  V30 642 H 58.6321 -4.97298 -0.7552 0
M  V30 643 H 58.3321 -5.82388 0.780901 0
M  V30 644 H 59.8561 -6.10504 -0.108125 0
M  V30 645 H 61.2701 -5.35882 2.03724 0
M  V30 646 H 59.6671 -5.29406 2.82577 0
M  V30 647 H 60.7371 -3.88272 2.9047 0
M  V30 648 N 62.0802 -0.821533 -1.34494 0
M  V30 649 C 63.4962 -0.507117 -1.51329 0
M  V30 650 C 63.6962 0.968964 -1.76673 0
M  V30 651 O 62.7522 1.75348 -1.81685 0
M  V30 652 C 64.0652 -1.36544 -2.67911 0
M  V30 653 C 65.6132 -1.36242 -2.81793 0
M  V30 654 C 66.0882 -2.2052 -4.01416 0
M  V30 655 N 67.5792 -2.18136 -4.08621 0
M  V30 656 C 68.3142 -2.80095 -5.00334 0
M  V30 657 N 67.8102 -3.51039 -5.9728 0
M  V30 658 N 69.6032 -2.69656 -4.93196 0
M  V30 659 H 61.7542 -1.77729 -1.16302 0
M  V30 660 H 64.0172 -0.757291 -0.570276 0
M  V30 661 H 63.7232 -2.41361 -2.55808 0
M  V30 662 H 63.5972 -1.02917 -3.62888 0
M  V30 663 H 65.9842 -0.322041 -2.93338 0
M  V30 664 H 66.0652 -1.73866 -1.87628 0
M  V30 665 H 65.7092 -3.24607 -3.90631 0
M  V30 666 H 65.6392 -1.80247 -4.94791 0
M  V30 667 H 68.1302 -1.6653 -3.39229 0
M  V30 668 H 68.4432 -3.95565 -6.63889 0
M  V30 669 H 66.7882 -3.55145 -5.97409 0
M  V30 670 H 69.9792 -2.13808 -4.16418 0
M  V30 671 H 70.1522 -3.1823 -5.64476 0
M  V30 672 N 63.5583 1.46682 -0.576371 0
M  V30 673 C 64.8063 2.02013 -0.0594163 0
M  V30 674 C 65.1273 1.45101 1.30271 0
M  V30 675 O 64.3973 0.633317 1.8538 0
M  V30 676 H 62.9773 0.746759 -0.0189745 0
M  V30 677 H 65.6393 1.79862 -0.750717 0
M  V30 678 H 64.7353 3.12097 0.014345 0
M  V30 679 N 65.0364 0.313813 1.54444 0
M  V30 680 C 66.4474 -0.176243 1.85866 0
M  V30 681 C 66.7984 -1.52405 1.23561 0
M  V30 682 O 65.9234 -2.09605 0.538016 0
M  V30 683 C 66.5184 -0.32657 3.37222 0
M  V30 684 C 65.0774 -0.760846 3.6863 0
M  V30 685 C 64.2244 0.123247 2.77026 0
M  V30 686 H 67.1754 0.534418 1.49431 0
M  V30 687 H 67.1964 -1.15908 3.62416 0
M  V30 688 H 66.7084 0.654531 3.82541 0
M  V30 689 H 64.8094 -1.75204 3.28838 0
M  V30 690 H 64.9224 -0.571353 4.75681 0
M  V30 691 H 63.2864 -0.399597 2.51546 0
M  V30 692 H 64.0694 1.10094 3.25168 0
M  V30 693 N 66.5145 -1.57545 0.0417849 0
M  V30 694 C 67.4245 -2.14451 -0.951213 0
M  V30 695 C 68.4405 -1.09992 -1.34825 0
M  V30 696 O 69.6165 -1.42114 -1.42708 0
M  V30 697 C 66.6815 -2.67063 -2.21084 0
M  V30 698 C 65.7425 -3.86284 -1.87304 0
M  V30 699 C 64.9755 -4.36378 -3.07261 0
M  V30 700 O 65.1985 -3.85587 -4.20332 0
M  V30 701 O 64.1325 -5.28077 -2.88822 0
M  V30 702 H 67.9585 -2.99601 -0.497287 0
M  V30 703 H 65.5435 -1.48317 -0.179567 0
M  V30 704 H 67.4255 -3.00914 -2.95006 0
M  V30 705 H 66.1005 -1.84989 -2.65633 0
M  V30 706 H 65.0075 -3.57338 -1.10727 0
M  V30 707 H 66.3405 -4.6956 -1.47562 0
M  V30 708 N 67.9926 0.231505 -1.5589 0
M  V30 709 C 68.9226 1.29022 -1.94617 0
M  V30 710 C 69.9036 1.4941 -0.813067 0
M  V30 711 O 71.0886 1.6176 -1.07459 0
M  V30 712 C 68.2186 2.64199 -2.25424 0
M  V30 713 C 67.1726 2.58484 -3.41131 0
M  V30 714 C 66.4986 3.97599 -3.57518 0
M  V30 715 C 67.7986 2.1413 -4.76388 0
M  V30 716 H 69.4926 0.968563 -2.83301 0
M  V30 717 H 67.0386 0.464479 -1.36303 0
M  V30 718 H 68.9916 3.38413 -2.51107 0
M  V30 719 H 67.7156 2.98032 -1.33583 0
M  V30 720 H 66.3746 1.86727 -3.15481 0
M  V30 721 H 66.0226 4.28723 -2.6307 0
M  V30 722 H 65.7226 3.94659 -4.35337 0
M  V30 723 H 67.2466 4.7349 -3.85538 0
M  V30 724 H 68.6606 2.78083 -5.01341 0
M  V30 725 H 67.0576 2.2227 -5.57419 0
M  V30 726 H 68.1276 1.09331 -4.72414 0
M  V30 727 N 69.4707 1.49531 0.497807 0
M  V30 728 C 70.7177 1.59179 1.25173 0
M  V30 729 C 71.0457 0.279932 1.92475 0
M  V30 730 O 70.3007 -0.732383 1.81479 0
M  V30 731 C 70.5997 2.70252 2.33878 0
M  V30 732 C 70.2657 4.11644 1.84012 0
M  V30 733 C 68.9277 4.50121 1.70132 0
M  V30 734 C 71.2797 5.00121 1.46725 0
M  V30 735 C 68.6077 5.74845 1.17348 0
M  V30 736 C 70.9597 6.25366 0.95392 0
M  V30 737 C 69.6237 6.6267 0.801538 0
M  V30 738 H 68.8937 0.582478 0.45804 0
M  V30 739 H 71.5407 1.83373 0.551948 0
M  V30 740 H 69.8457 2.40041 3.09657 0
M  V30 741 H 71.5427 2.74925 2.9192 0
M  V30 742 H 68.1327 3.81274 1.95775 0
M  V30 743 H 72.3167 4.71048 1.56294 0
M  V30 744 H 67.5727 6.02444 1.04264 0
M  V30 745 H 71.7467 6.93301 0.656225 0
M  V30 746 H 69.3737 7.59197 0.390351 0
M  V30 747 N 70.9488 -0.749086 1.3866 0
M  V30 748 C 71.9118 -1.84457 1.36045 0
M  V30 749 C 72.9118 -1.58682 0.260122 0
M  V30 750 O 74.1018 -1.66343 0.517261 0
M  V30 751 C 71.2338 -3.22008 1.11911 0
M  V30 752 H 72.4268 -1.88182 2.33512 0
M  V30 753 H 69.9798 -0.951266 1.24019 0
M  V30 754 H 70.7148 -3.2395 0.150686 0
M  V30 755 H 70.4998 -3.42111 1.91579 0
M  V30 756 H 71.9898 -4.0208 1.12788 0
M  V30 757 N 72.4269 -1.23603 -0.977757 0
M  V30 758 C 73.6759 -1.06377 -1.71368 0
M  V30 759 C 73.9889 0.399062 -1.91486 0
M  V30 760 O 75.1949 0.691312 -2.62551 0
M  V30 761 C 73.6509 -1.85512 -3.08404 0
M  V30 762 C 73.2589 -3.36141 -2.96164 0
M  V30 763 C 75.0029 -1.76783 -3.85938 0
M  V30 764 C 72.9099 -4.07659 -4.28449 0
M  V30 765 H 71.8399 -0.394452 -0.642591 0
M  V30 766 H 74.4909 -1.47594 -1.09034 0
M  V30 767 H 72.8729 -1.37103 -3.71509 0
M  V30 768 H 74.0469 -3.92056 -2.42133 0
M  V30 769 H 72.3619 -3.45712 -2.32104 0
M  V30 770 H 74.9589 -2.27526 -4.83876 0
M  V30 771 H 75.3019 -0.731116 -4.0983 0
M  V30 772 H 75.8349 -2.22818 -3.2954 0
M  V30 773 H 72.5739 -5.11648 -4.09752 0
M  V30 774 H 72.0939 -3.5653 -4.82334 0
M  V30 775 H 73.7729 -4.141 -4.97122 0
M  V30 776 N 73.905 1.17692 -1.04816 0
M  V30 777 C 74.853 2.23632 -0.63966 0
M  V30 778 C 75.847 1.6601 0.337219 0
M  V30 779 O 77.053 1.78844 0.203693 0
M  V30 780 H 73.428 0.727949 -0.188665 0
M  V30 781 H 75.399 2.55387 -1.54337 0
M  V30 782 C 74.148 3.4769 -0.0264051 0
M  V30 783 H 73.471 3.92331 -0.769164 0
M  V30 784 H 74.911 4.23418 0.222098 0
M  V30 785 C 73.37 3.13807 1.22584 0
M  V30 786 O 73.9 3.28236 2.31569 0
M  V30 787 N 72.106 2.68065 1.12202 0
M  V30 788 H 71.653 2.56525 0.235133 0
M  V30 789 H 71.611 2.45767 1.96076 0
M  V30 790 N 75.3831 0.828654 1.34056 0
M  V30 791 C 76.6291 0.42008 1.98402 0
M  V30 792 C 76.9621 -1.01564 1.65525 0
M  V30 793 O 76.2371 -1.70834 0.929831 0
M  V30 794 C 76.5201 0.62927 3.54559 0
M  V30 795 C 76.3731 2.11152 3.97159 0
M  V30 796 C 77.6921 0.0688756 4.40046 0
M  V30 797 H 74.8111 0.154104 0.720709 0
M  V30 798 H 77.4531 1.04228 1.5886 0
M  V30 799 H 75.6031 0.0996418 3.88372 0
M  V30 800 H 77.2751 2.70522 3.73651 0
M  V30 801 H 75.5181 2.59985 3.47261 0
M  V30 802 H 76.1891 2.20868 5.05887 0
M  V30 803 H 78.6651 0.521458 4.1282 0
M  V30 804 H 77.5411 0.245006 5.48353 0
M  V30 805 H 77.8021 -1.0266 4.30015 0
M  V30 806 N 76.8612 -1.46375 0.584142 0
M  V30 807 C 77.8242 -2.28784 -0.138108 0
M  V30 808 C 78.8242 -1.38471 -0.817462 0
M  V30 809 O 80.0142 -1.60833 -0.669199 0
M  V30 810 C 77.1462 -3.18892 -1.20503 0
M  V30 811 H 78.3392 -2.94117 0.586127 0
M  V30 812 H 75.8922 -1.52509 0.342171 0
M  V30 813 H 76.6272 -2.58309 -1.96079 0
M  V30 814 H 76.4122 -3.85388 -0.722384 0
M  V30 815 H 77.9022 -3.80914 -1.71155 0
M  V30 816 N 78.3393 -0.321999 -1.54275 0
M  V30 817 C 79.5853 0.274234 -2.01543 0
M  V30 818 C 79.9403 1.499 -1.20614 0
M  V30 819 O 79.2333 1.89546 -0.279804 0
M  V30 820 C 79.4273 0.661769 -3.5122 0
M  V30 821 C 79.2563 -0.523892 -4.46638 0
M  V30 822 C 78.0263 -1.02251 -4.94846 0
M  V30 823 C 80.2243 -1.37558 -4.95563 0
M  V30 824 N 78.2063 -2.17274 -5.74165 0
M  V30 825 C 79.5773 -2.37301 -5.7279 0
M  V30 826 C 81.6323 -1.40353 -4.77709 0
M  V30 827 C 80.3353 -3.3964 -6.34064 0
M  V30 828 C 82.3613 -2.41562 -5.39817 0
M  V30 829 C 81.7233 -3.40031 -6.16894 0
M  V30 830 H 77.8223 0.0642367 -0.779357 0
M  V30 831 H 80.4063 -0.456683 -1.89268 0
M  V30 832 H 78.5773 1.36182 -3.63743 0
M  V30 833 H 80.3093 1.23934 -3.85256 0
M  V30 834 H 77.0643 -0.594046 -4.6986 0
M  V30 835 H 77.4883 -2.75289 -6.18502 0
M  V30 836 H 82.1303 -0.655907 -4.17681 0
M  V30 837 H 79.8483 -4.15309 -6.93213 0
M  V30 838 H 83.4343 -2.44524 -5.2792 0
M  V30 839 H 82.3143 -4.17063 -6.64099 0
M  V30 840 N 79.8174 1.5752 -0.0501392 0
M  V30 841 C 81.0634 1.92936 0.624798 0
M  V30 842 C 81.3964 0.928685 1.70555 0
M  V30 843 O 80.6714 -0.0454779 1.94447 0
M  V30 844 C 80.9544 3.38737 1.22185 0
M  V30 845 C 80.8074 4.49552 0.149218 0
M  V30 846 C 82.1264 3.84913 2.13378 0
M  V30 847 H 79.2454 0.701604 0.225657 0
M  V30 848 H 81.8874 1.89671 -0.111693 0
M  V30 849 H 80.0374 3.4165 1.84953 0
M  V30 850 H 81.7094 4.58768 -0.482648 0
M  V30 851 H 79.9524 4.30638 -0.522841 0
M  V30 852 H 80.6234 5.48653 0.606966 0
M  V30 853 H 83.0994 3.8387 1.60572 0
M  V30 854 H 81.9754 4.87584 2.52097 0
M  V30 855 H 82.2364 3.21611 3.03346 0
M  V30 856 N 81.2955 -0.223234 1.56011 0
M  V30 857 C 82.2425 -1.27664 1.92277 0
M  V30 858 C 83.2125 -1.46659 0.779763 0
M  V30 859 O 84.3975 -1.60256 1.03551 0
M  V30 860 C 81.5375 -2.62234 2.24338 0
M  V30 861 C 80.6505 -2.51051 3.51564 0
M  V30 862 C 79.7855 -3.78133 3.7308 0
M  V30 863 C 78.8245 -3.61665 4.93827 0
M  V30 864 N 77.9615 -4.80693 5.11741 0
M  V30 865 H 82.8015 -0.960358 2.82101 0
M  V30 866 H 80.3385 -0.462901 1.39627 0
M  V30 867 H 82.2965 -3.40596 2.40936 0
M  V30 868 H 80.9265 -2.91961 1.3769 0
M  V30 869 H 79.9785 -1.64132 3.43169 0
M  V30 870 H 81.2905 -2.34803 4.40079 0
M  V30 871 H 80.4445 -4.64938 3.89766 0
M  V30 872 H 79.1835 -3.97304 2.82844 0
M  V30 873 H 78.1885 -2.73244 4.77093 0
M  V30 874 H 79.4135 -3.43966 5.85546 0
M  V30 875 H 77.3595 -5.00181 4.24446 0
M  V30 876 H 77.2765 -4.67165 5.94384 0
M  V30 877 H 78.5445 -5.6893 5.3286 0
M  V30 878 N 82.7736 -1.49793 -0.48987 0
M  V30 879 C 83.7206 -1.67281 -1.59014 0
M  V30 880 C 84.6906 -0.514177 -1.57941 0
M  V30 881 O 85.8756 -0.742533 -1.75759 0
M  V30 882 C 83.0156 -1.75569 -2.97102 0
M  V30 883 C 82.1286 -3.0281 -3.08107 0
M  V30 884 C 81.2636 -3.02008 -4.36995 0
M  V30 885 C 80.3026 -4.23782 -4.41673 0
M  V30 886 N 79.4396 -4.20826 -5.62005 0
M  V30 887 H 84.2796 -2.61224 -1.43409 0
M  V30 888 H 81.8166 -1.29508 -0.697565 0
M  V30 889 H 83.7746 -1.78354 -3.77155 0
M  V30 890 H 82.4046 -0.850827 -3.11385 0
M  V30 891 H 81.4566 -3.09584 -2.21047 0
M  V30 892 H 82.7686 -3.92801 -3.07423 0
M  V30 893 H 81.9226 -3.03418 -5.25378 0
M  V30 894 H 80.6616 -2.09815 -4.4026 0
M  V30 895 H 79.6666 -4.22604 -3.5169 0
M  V30 896 H 80.8916 -5.17181 -4.40115 0
M  V30 897 H 78.8376 -3.31476 -5.66091 0
M  V30 898 H 78.7546 -5.04564 -5.62984 0
M  V30 899 H 80.0226 -4.26355 -6.52565 0
M  V30 900 N 84.2517 0.741722 -1.39055 0
M  V30 901 C 85.4797 1.53098 -1.39171 0
M  V30 902 C 85.8947 1.88794 0.0155099 0
M  V30 903 O 85.2517 1.53626 0.985159 0
M  V30 904 C 85.3027 2.82274 -2.2584 0
M  V30 905 O 85.0237 2.48097 -3.61081 0
M  V30 906 C 86.5247 3.76343 -2.34266 0
M  V30 907 H 83.7447 0.473335 -0.4756 0
M  V30 908 H 86.2887 0.917045 -1.82785 0
M  V30 909 H 84.4437 3.40015 -1.85656 0
M  V30 910 H 84.8577 3.31029 -4.06842 0
M  V30 911 H 86.3317 4.63898 -2.9917 0
M  V30 912 H 86.8087 4.17619 -1.35982 0
M  V30 913 H 87.4147 3.24523 -2.74891 0
M  V30 914 N 85.7298 1.2412 0.971189 0
M  V30 915 C 86.9768 1.07881 1.71371 0
M  V30 916 C 87.3048 -0.382901 1.90694 0
M  V30 917 O 86.5598 -1.29945 1.46331 0
M  V30 918 C 86.8588 1.75983 3.11071 0
M  V30 919 C 86.5248 3.25909 3.11599 0
M  V30 920 C 85.1868 3.66813 3.11451 0
M  V30 921 C 87.5388 4.21771 3.062 0
M  V30 922 C 84.8668 5.02021 3.03631 0
M  V30 923 C 87.2188 5.56982 2.99923 0
M  V30 924 C 85.8828 5.97237 2.98102 0
M  V30 925 H 85.1528 0.394764 0.62709 0
M  V30 926 H 87.7998 1.54176 1.13587 0
M  V30 927 H 86.1048 1.22072 3.72298 0
M  V30 928 H 87.8018 1.60887 3.6731 0
M  V30 929 H 84.3918 2.93353 3.12477 0
M  V30 930 H 88.5758 3.91172 3.05447 0
M  V30 931 H 83.8318 5.32411 3.0058 0
M  V30 932 H 88.0058 6.30969 2.94704 0
M  V30 933 H 85.6328 7.01967 2.91798 0
M  V30 934 N 87.2079 -1.17134 1.05439 0
M  V30 935 C 88.4329 -1.91913 0.786396 0
M  V30 936 C 88.8579 -1.7643 -0.652234 0
M  V30 937 O 88.2159 -1.08372 -1.45345 0
M  V30 938 C 88.2639 -3.40921 1.17497 0
M  V30 939 O 87.3679 -4.11244 0.308589 0
M  V30 940 H 86.7089 -0.598215 0.288158 0
M  V30 941 H 89.2389 -1.48457 1.4079 0
M  V30 942 H 89.2489 -3.91668 1.14281 0
M  V30 943 H 87.9239 -3.5151 2.22292 0
M  V30 944 H 86.5009 -3.70731 0.40157 0
M  V30 945 N 88.686 -0.835752 -1.33615 0
M  V30 946 C 89.596 -0.269088 -2.33052 0
M  V30 947 C 90.612 0.603251 -1.63208 0
M  V30 948 O 91.788 0.508112 -1.94885 0
M  V30 949 C 88.853 0.549091 -3.42324 0
M  V30 950 C 87.914 -0.347156 -4.27894 0
M  V30 951 C 87.147 0.43207 -5.31948 0
M  V30 952 O 87.37 1.66409 -5.45586 0
M  V30 953 O 86.304 -0.192298 -6.01593 0
M  V30 954 H 90.13 -1.09243 -2.83372 0
M  V30 955 H 87.715 -0.598198 -1.36901 0
M  V30 956 H 89.597 1.01414 -4.09015 0
M  V30 957 H 88.272 1.34955 -2.94226 0
M  V30 958 H 87.179 -0.859979 -3.64081 0
M  V30 959 H 88.512 -1.1123 -4.79467 0
M  V30 960 N 90.1641 1.46063 -0.591896 0
M  V30 961 C 91.0741 2.34192 0.13831 0
M  V30 962 C 92.0901 1.50305 0.876608 0
M  V30 963 O 93.2661 1.8315 0.837728 0
M  V30 964 C 90.3311 3.27656 1.13326 0
M  V30 965 C 89.3921 4.27445 0.39863 0
M  V30 966 C 88.6251 5.16443 1.34618 0
M  V30 967 O 88.8481 5.08553 2.58321 0
M  V30 968 O 87.7821 5.95843 0.851768 0
M  V30 969 H 91.6081 2.98002 -0.58552 0
M  V30 970 H 89.1931 1.45188 -0.352239 0
M  V30 971 H 91.0751 3.85291 1.70671 0
M  V30 972 H 89.7501 2.6643 1.83839 0
M  V30 973 H 88.6571 3.73471 -0.216895 0
M  V30 974 H 89.9901 4.91482 -0.265709 0
M  V30 975 N 91.6422 0.330177 1.54103 0
M  V30 976 C 92.6052 -0.520144 2.2322 0
M  V30 977 C 93.6052 -1.03828 1.22786 0
M  V30 978 O 94.7952 -0.929652 1.4732 0
M  V30 979 C 91.9272 -1.72317 2.94142 0
M  V30 980 H 93.1202 0.0841605 2.99782 0
M  V30 981 H 90.6732 0.0813433 1.56088 0
M  V30 982 H 91.4082 -2.36653 2.21734 0
M  V30 983 H 91.1932 -1.35898 3.67796 0
M  V30 984 H 92.6832 -2.3266 3.46784 0
M  V30 985 N 93.1203 -1.57491 0.0584922 0
M  V30 986 C 94.5363 -1.56792 -0.298091 0
M  V30 987 C 94.7363 -1.06679 -1.70944 0
M  V30 988 O 93.7923 -0.726672 -2.41818 0
M  V30 989 C 95.1053 -3.00461 -0.119879 0
M  V30 990 C 96.6533 -3.1242 -0.190428 0
M  V30 991 C 97.1283 -4.57982 -0.0406567 0
M  V30 992 N 98.6193 -4.63099 -0.0966958 0
M  V30 993 C 99.3543 -5.734 -0.00502943 0
M  V30 994 N 98.8503 -6.9266 0.139402 0
M  V30 995 N 100.643 -5.62067 -0.0611391 0
M  V30 996 H 92.7943 -1.88386 0.98105 0
M  V30 997 H 95.0573 -0.867865 0.381463 0
M  V30 998 H 94.7633 -3.41187 0.85349 0
M  V30 999 H 94.6373 -3.66843 -0.877833 0
M  V30 1000 H 97.0243 -2.71589 -1.15427 0
M  V30 1001 H 97.1053 -2.48702 0.598405 0
M  V30 1002 H 96.7493 -4.995 0.919897 0
M  V30 1003 H 96.6793 -5.19715 -0.848727 0
M  V30 1004 H 99.1703 -3.77331 -0.207277 0
M  V30 1005 H 99.4833 -7.72536 0.201855 0
M  V30 1006 H 97.8283 -6.94781 0.174586 0
M  V30 1007 H 101.019 -4.67782 -0.172583 0
M  V30 1008 H 101.192 -6.47999 0.0137562 0
M  V30 1009 N 94.5984 0.214957 -1.56127 0
M  V30 1010 C 95.5284 1.2695 -1.95974 0
M  V30 1011 C 96.5094 1.48539 -0.828868 0
M  V30 1012 O 97.6944 1.60611 -1.09168 0
M  V30 1013 C 94.8244 2.61794 -2.28214 0
M  V30 1014 C 93.7784 2.54851 -3.43853 0
M  V30 1015 C 93.1044 3.93785 -3.61715 0
M  V30 1016 C 94.4044 2.09065 -4.78632 0
M  V30 1017 H 96.0984 0.93846 -2.84312 0
M  V30 1018 H 93.6444 0.449996 -1.36788 0
M  V30 1019 H 95.5974 3.35731 -2.54682 0
M  V30 1020 H 94.3214 2.96599 -1.36736 0
M  V30 1021 H 92.9804 1.8337 -3.17444 0
M  V30 1022 H 92.6284 4.25908 -2.67602 0
M  V30 1023 H 92.3284 3.90019 -4.39498 0
M  V30 1024 H 93.8524 4.69374 -3.90539 0
M  V30 1025 H 95.2664 2.7275 -5.04262 0
M  V30 1026 H 93.6634 2.16346 -5.59745 0
M  V30 1027 H 94.7334 1.04315 -4.73547 0
M  V30 1028 N 96.0765 1.50051 0.48192 0
M  V30 1029 C 96.9865 1.7089 1.60728 0
M  V30 1030 C 98.0025 0.591788 1.63627 0
M  V30 1031 O 99.1785 0.868817 1.81696 0
M  V30 1032 C 96.2435 1.78855 2.97005 0
M  V30 1033 C 95.3045 3.02537 3.04581 0
M  V30 1034 C 94.5375 3.10112 4.34357 0
M  V30 1035 O 94.7605 2.24765 5.24249 0
M  V30 1036 O 93.6945 4.02747 4.47301 0
M  V30 1037 H 97.5205 2.66264 1.46072 0
M  V30 1038 H 95.1055 1.34018 0.660264 0
M  V30 1039 H 96.9875 1.86336 3.77964 0
M  V30 1040 H 95.6625 0.866628 3.11883 0
M  V30 1041 H 94.5695 3.00563 2.22739 0
M  V30 1042 H 95.9025 3.94272 2.94636 0
M  V30 1043 N 97.5546 -0.734337 1.39446 0
M  V30 1044 C 98.4646 -1.87879 1.40495 0
M  V30 1045 C 99.4806 -1.714 0.299672 0
M  V30 1046 O 100.657 -1.93991 0.541249 0
M  V30 1047 C 97.7216 -3.23477 1.24754 0
M  V30 1048 C 96.7826 -3.52344 2.45259 0
M  V30 1049 C 96.0156 -4.81473 2.30259 0
M  V30 1050 O 96.2386 -5.55237 1.30643 0
M  V30 1051 O 95.1726 -5.10254 3.19256 0
M  V30 1052 H 98.9986 -1.89949 2.36966 0
M  V30 1053 H 96.5836 -0.882243 1.20569 0
M  V30 1054 H 98.4656 -4.04509 1.18111 0
M  V30 1055 H 97.1406 -3.22176 0.313781 0
M  V30 1056 H 96.0476 -2.71396 2.57478 0
M  V30 1057 H 97.3806 -3.58426 3.37331 0
M  V30 1058 N 99.0327 -1.24633 -0.964593 0
M  V30 1059 C 100.279 -1.08949 -1.71049 0
M  V30 1060 C 100.612 0.370302 -1.90637 0
M  V30 1061 O 99.8867 1.27349 -1.47011 0
M  V30 1062 C 100.17 -1.83329 -3.0994 0
M  V30 1063 C 100.023 -3.37077 -2.97824 0
M  V30 1064 C 101.342 -1.60846 -4.09654 0
M  V30 1065 H 98.4607 -0.397178 -0.620821 0
M  V30 1066 H 101.103 -1.5334 -1.12191 0
M  V30 1067 H 99.2527 -1.45597 -3.60186 0
M  V30 1068 H 100.925 -3.84425 -2.5498 0
M  V30 1069 H 99.1677 -3.65298 -2.33965 0
M  V30 1070 H 99.8387 -3.84324 -3.96231 0
M  V30 1071 H 102.315 -1.93674 -3.68279 0
M  V30 1072 H 101.191 -2.1534 -5.04896 0
M  V30 1073 H 101.452 -0.547434 -4.38698 0
M  V30 1074 N 100.511 1.16574 -1.06058 0
M  V30 1075 C 101.759 1.86677 -0.77434 0
M  V30 1076 C 102.08 1.81959 0.701147 0
M  V30 1077 O 101.35 1.2515 1.50713 0
M  V30 1078 H 99.9298 0.691134 -0.283449 0
M  V30 1079 H 102.592 1.41378 -1.34158 0
M  V30 1080 H 101.688 2.92181 -1.09711 0
M  V30 1081 N 101.989 0.842826 1.3317 0
M  V30 1082 C 103.238 0.436738 1.96915 0
M  V30 1083 C 103.551 -1.01025 1.67491 0
M  V30 1084 O 104.757 -1.5212 2.24881 0
M  V30 1085 C 103.213 0.730021 3.52418 0
M  V30 1086 C 102.821 2.19195 3.90714 0
M  V30 1087 C 104.565 0.391076 4.22695 0
M  V30 1088 C 102.472 2.42907 5.39212 0
M  V30 1089 H 101.402 0.15958 0.736919 0
M  V30 1090 H 104.053 1.03196 1.51733 0
M  V30 1091 H 102.435 0.0643755 3.95948 0
M  V30 1092 H 103.609 2.8984 3.58231 0
M  V30 1093 H 101.924 2.49425 3.33431 0
M  V30 1094 H 104.521 0.545817 5.31907 0
M  V30 1095 H 104.864 -0.666294 4.10933 0
M  V30 1096 H 105.397 1.01212 3.84709 0
M  V30 1097 H 102.136 3.47224 5.55982 0
M  V30 1098 H 101.656 1.76827 5.73142 0
M  V30 1099 H 103.335 2.2626 6.06148 0
M  V30 1100 N 103.467 -1.45747 0.599634 0
M  V30 1101 C 104.377 -2.34262 -0.125888 0
M  V30 1102 C 105.393 -1.50768 -0.868625 0
M  V30 1103 O 106.569 -1.83592 -0.828003 0
M  V30 1104 C 103.634 -3.28252 -1.11587 0
M  V30 1105 C 102.695 -4.27651 -0.375956 0
M  V30 1106 C 101.928 -5.1715 -1.31877 0
M  V30 1107 O 102.151 -5.09916 -2.55621 0
M  V30 1108 O 101.085 -5.96286 -0.820157 0
M  V30 1109 H 104.911 -2.97688 0.601315 0
M  V30 1110 H 102.496 -1.44999 0.359934 0
M  V30 1111 H 104.378 -3.86191 -1.68626 0
M  V30 1112 H 103.053 -2.67401 -1.82424 0
M  V30 1113 H 101.96 -3.7335 0.236698 0
M  V30 1114 H 103.293 -4.91334 0.29177 0
M  V30 1115 N 104.945 -0.338344 -1.53925 0
M  V30 1116 C 105.855 0.529421 -2.28548 0
M  V30 1117 C 106.871 1.11645 -1.3346 0
M  V30 1118 O 108.047 1.13325 -1.66492 0
M  V30 1119 C 105.112 1.66713 -3.03987 0
M  V30 1120 C 104.173 1.11041 -4.14691 0
M  V30 1121 C 103.406 2.19389 -4.86522 0
M  V30 1122 O 103.629 3.40013 -4.57982 0
M  V30 1123 O 102.563 1.83976 -5.73094 0
M  V30 1124 H 106.389 -0.0770399 -3.03602 0
M  V30 1125 H 103.974 -0.103555 -1.49041 0
M  V30 1126 H 105.856 2.32918 -3.5118 0
M  V30 1127 H 104.531 2.25949 -2.31794 0
M  V30 1128 H 103.438 0.413024 -3.71813 0
M  V30 1129 H 104.771 0.562975 -4.8897 0
M  V30 1130 N 106.423 1.57458 -0.0668435 0
M  V30 1131 C 107.839 1.56947 0.289772 0
M  V30 1132 C 108.039 1.07584 1.70376 0
M  V30 1133 O 107.095 0.739486 2.41429 0
M  V30 1134 C 108.408 3.0052 0.103943 0
M  V30 1135 C 109.956 3.12517 0.173857 0
M  V30 1136 C 110.431 4.57997 0.0163682 0
M  V30 1137 N 111.922 4.63144 0.0721352 0
M  V30 1138 C 112.657 5.73394 -0.0253794 0
M  V30 1139 N 112.153 6.92576 -0.176133 0
M  V30 1140 N 113.946 5.62091 0.0313305 0
M  V30 1141 H 106.097 1.87863 -0.991027 0
M  V30 1142 H 108.36 0.86583 -0.38606 0
M  V30 1143 H 108.066 3.40729 -0.871572 0
M  V30 1144 H 107.94 3.67304 0.858366 0
M  V30 1145 H 110.327 2.72197 1.13985 0
M  V30 1146 H 110.408 2.48381 -0.611586 0
M  V30 1147 H 110.052 4.99005 -0.946374 0
M  V30 1148 H 109.982 5.20158 0.821153 0
M  V30 1149 H 112.473 3.77436 0.187263 0
M  V30 1150 H 112.786 7.72418 -0.242821 0
M  V30 1151 H 111.131 6.94678 -0.211429 0
M  V30 1152 H 114.322 4.67867 0.147773 0
M  V30 1153 H 114.495 6.47982 -0.048121 0
M  V30 1154 N 107.901 -0.206675 1.56239 0
M  V30 1155 C 108.864 -1.23976 1.92776 0
M  V30 1156 C 109.864 -1.39041 0.807729 0
M  V30 1157 O 111.054 -1.37051 1.0753 0
M  V30 1158 C 108.186 -2.61112 2.19165 0
M  V30 1159 H 109.379 -0.927764 2.85189 0
M  V30 1160 H 106.932 -0.447718 1.4975 0
M  V30 1161 H 107.667 -2.97386 1.29352 0
M  V30 1162 H 107.452 -2.51552 3.00772 0
M  V30 1163 H 108.942 -3.35633 2.48476 0
M  V30 1164 N 109.379 -1.50304 -0.473955 0
M  V30 1165 C 110.656 -1.51667 -1.23518 0
M  V30 1166 C 111.036 -0.259701 -2.09496 0
M  V30 1167 O 110.384 0.756986 -2.15597 0
M  V30 1168 C 110.594 -2.81082 -2.06868 0
M  V30 1169 C 111.942 -3.31631 -2.65153 0
M  V30 1170 O 112.966 -2.82384 -2.17113 0
M  V30 1171 O 111.825 -4.17471 -3.52675 0
M  V30 1172 H 108.919 -0.60822 -0.560355 0
M  V30 1173 H 111.465 -1.62592 -0.486011 0
M  V30 1174 H 110.237 -3.64041 -1.4349 0
M  V30 1175 H 109.86 -2.73146 -2.88924 0
M  V30 1176 N 110.857 0.726932 -1.39834 0
M  V30 1177 C 112.103 1.48771 -1.38704 0
M  V30 1178 C 112.458 1.92394 0.0146387 0
M  V30 1179 O 111.751 1.64474 0.982797 0
M  V30 1180 C 111.945 2.73495 -2.30077 0
M  V30 1181 C 111.774 2.42068 -3.78989 0
M  V30 1182 C 110.544 2.33966 -4.4787 0
M  V30 1183 C 112.742 2.0708 -4.70768 0
M  V30 1184 N 110.724 1.95095 -5.82075 0
M  V30 1185 C 112.095 1.78719 -5.93683 0
M  V30 1186 C 114.15 1.93618 -4.58712 0
M  V30 1187 C 112.853 1.3825 -7.05889 0
M  V30 1188 C 114.879 1.54553 -5.70848 0
M  V30 1189 C 114.241 1.27082 -6.92842 0
M  V30 1190 H 110.34 0.542919 -0.562817 0
M  V30 1191 H 112.924 0.84408 -1.75452 0
M  V30 1192 H 111.095 3.35625 -1.95474 0
M  V30 1193 H 112.827 3.39755 -2.19883 0
M  V30 1194 H 109.582 2.51331 -4.0141 0
M  V30 1195 H 110.006 1.7823 -6.53118 0
M  V30 1196 H 114.648 2.13522 -3.64922 0
M  V30 1197 H 112.366 1.17088 -7.99572 0
M  V30 1198 H 115.952 1.44731 -5.6351 0
M  V30 1199 H 114.832 0.973069 -7.78139 0
M  V30 1200 N 112.336 1.25143 0.95797 0
M  V30 1201 C 113.582 1.09855 1.70469 0
M  V30 1202 C 113.915 -0.360187 1.90831 0
M  V30 1203 O 113.19 -1.26568 1.47685 0
M  V30 1204 C 113.473 1.8497 3.08963 0
M  V30 1205 C 113.326 3.38652 2.96032 0
M  V30 1206 C 114.645 1.63016 4.08795 0
M  V30 1207 H 111.764 0.400465 0.618706 0
M  V30 1208 H 114.406 1.53933 1.11376 0
M  V30 1209 H 112.556 1.47505 3.59409 0
M  V30 1210 H 114.228 3.85772 2.52938 0
M  V30 1211 H 112.471 3.66534 2.32025 0
M  V30 1212 H 113.142 3.8642 3.94187 0
M  V30 1213 H 115.618 1.95625 3.67247 0
M  V30 1214 H 114.494 2.18015 5.03747 0
M  V30 1215 H 114.755 0.570692 4.38401 0
M  V30 1216 N 113.814 -1.1601 1.06675 0
M  V30 1217 C 115.23 -1.38622 0.790948 0
M  V30 1218 C 115.43 -1.92109 -0.607965 0
M  V30 1219 O 114.486 -2.12239 -1.36787 0
M  V30 1220 C 115.799 -2.36347 1.85905 0
M  V30 1221 C 117.347 -2.50023 1.88301 0
M  V30 1222 C 117.822 -3.51033 2.94176 0
M  V30 1223 N 119.313 -3.58563 2.93235 0
M  V30 1224 C 120.048 -4.36521 3.71803 0
M  V30 1225 N 119.544 -5.17869 4.602 0
M  V30 1226 N 121.337 -4.31541 3.60178 0
M  V30 1227 H 113.488 -0.796294 1.96908 0
M  V30 1228 H 115.751 -0.412597 0.853503 0
M  V30 1229 H 115.457 -2.04147 2.86386 0
M  V30 1230 H 115.331 -3.36042 1.71334 0
M  V30 1231 H 117.718 -2.81524 0.884769 0
M  V30 1232 H 117.799 -1.5035 2.06951 0
M  V30 1233 H 117.443 -3.20268 3.94196 0
M  V30 1234 H 117.373 -4.50445 2.72776 0
M  V30 1235 H 119.864 -3.00496 2.29152 0
M  V30 1236 H 120.177 -5.74578 5.16797 0
M  V30 1237 H 118.522 -5.17199 4.64253 0
M  V30 1238 H 121.713 -3.67051 2.90502 0
M  V30 1239 H 121.886 -4.9205 4.21653 0
M  V30 1240 N 115.292 -0.849877 -1.32721 0
M  V30 1241 C 116.255 -0.296122 -2.27279 0
M  V30 1242 C 117.255 0.541458 -1.5141 0
M  V30 1243 O 118.445 0.353658 -1.70572 0
M  V30 1244 C 115.577 0.581579 -3.35902 0
M  V30 1245 H 116.77 -1.13064 -2.77771 0
M  V30 1246 H 114.323 -0.62383 -1.43311 0
M  V30 1247 H 115.058 1.43809 -2.9067 0
M  V30 1248 H 114.843 -0.0178814 -3.92096 0
M  V30 1249 H 116.333 0.961951 -4.0637 0
M  V30 1250 N 116.77 1.45427 -0.607355 0
M  V30 1251 C 118.186 1.57283 -0.270985 0
M  V30 1252 C 118.386 1.59875 1.22647 0
M  V30 1253 O 117.442 1.52893 2.00948 0
M  V30 1254 C 118.755 2.85566 -0.941952 0
M  V30 1255 C 120.303 2.9924 -0.917849 0
M  V30 1256 C 120.778 4.30293 -1.56882 0
M  V30 1257 N 122.269 4.37051 -1.5343 0
M  V30 1258 C 123.004 5.37123 -2.00715 0
M  V30 1259 N 122.5 6.43734 -2.56084 0
M  V30 1260 N 124.293 5.28479 -1.91484 0
M  V30 1261 H 116.444 1.41988 -1.57966 0
M  V30 1262 H 118.707 0.67885 -0.661715 0
M  V30 1263 H 118.413 2.8955 -1.99633 0
M  V30 1264 H 118.287 3.74322 -0.465096 0
M  V30 1265 H 120.674 2.94822 0.127984 0
M  V30 1266 H 120.755 2.11895 -1.43297 0
M  V30 1267 H 120.399 4.35469 -2.61398 0
M  V30 1268 H 120.329 5.16454 -1.02873 0
M  V30 1269 H 122.82 3.60615 -1.12982 0
M  V30 1270 H 123.133 7.16341 -2.89958 0
M  V30 1271 H 121.478 6.44485 -2.60122 0
M  V30 1272 H 124.669 4.44098 -1.47967 0
M  V30 1273 H 124.842 6.0632 -2.28648 0
M  V30 1274 N 118.248 0.346503 1.53744 0
M  V30 1275 C 119.178 -0.501193 2.28058 0
M  V30 1276 C 120.159 -1.10014 1.29734 0
M  V30 1277 O 121.344 -1.12097 1.58581 0
M  V30 1278 C 118.474 -1.65078 3.05559 0
M  V30 1279 C 117.428 -1.18003 4.11411 0
M  V30 1280 C 116.754 -2.41837 4.76884 0
M  V30 1281 C 118.054 -0.278394 5.21558 0
M  V30 1282 H 119.748 0.11875 2.99164 0
M  V30 1283 H 117.294 0.0585531 1.43881 0
M  V30 1284 H 119.247 -2.25028 3.56287 0
M  V30 1285 H 117.971 -2.29767 2.32109 0
M  V30 1286 H 116.63 -0.603331 3.61601 0
M  V30 1287 H 116.278 -3.0494 4.00026 0
M  V30 1288 H 115.978 -2.1102 5.48402 0
M  V30 1289 H 117.502 -3.02508 5.30397 0
M  V30 1290 H 118.916 -0.784823 5.67903 0
M  V30 1291 H 117.313 -0.0619707 6.00068 0
M  V30 1292 H 118.383 0.684677 4.80042 0
M  V30 1293 N 119.726 -1.57421 0.075193 0
M  V30 1294 C 120.972 -1.93905 -0.594025 0
M  V30 1295 C 121.305 -0.955701 -1.69056 0
M  V30 1296 O 120.58 0.0145373 -1.94495 0
M  V30 1297 C 120.863 -3.40638 -1.1678 0
M  V30 1298 C 120.716 -4.49733 -0.0776792 0
M  V30 1299 C 122.035 -3.88259 -2.07228 0
M  V30 1300 H 119.154 -0.705105 -0.214466 0
M  V30 1301 H 121.796 -1.8947 0.141854 0
M  V30 1302 H 119.946 -3.44549 -1.79494 0
M  V30 1303 H 121.618 -4.57942 0.555573 0
M  V30 1304 H 119.861 -4.29751 0.591286 0
M  V30 1305 H 120.532 -5.49549 -0.519603 0
M  V30 1306 H 123.008 -3.86376 -1.54445 0
M  V30 1307 H 121.884 -4.91533 -2.44308 0
M  V30 1308 H 122.145 -3.26396 -2.98191 0
M  V30 1309 N 121.204 0.198386 -1.56346 0
M  V30 1310 C 122.134 1.24865 -1.9731 0
M  V30 1311 C 123.115 1.47651 -0.844576 0
M  V30 1312 O 124.3 1.59444 -1.10866 0
M  V30 1313 C 121.43 2.59358 -2.30977 0
M  V30 1314 C 120.384 2.5119 -3.46537 0
M  V30 1315 C 119.71 3.89926 -3.65871 0
M  V30 1316 C 121.01 2.03977 -4.80823 0
M  V30 1317 H 122.704 0.908252 -2.85291 0
M  V30 1318 H 120.25 0.435462 -1.37258 0
M  V30 1319 H 122.203 3.33011 -2.58228 0
M  V30 1320 H 120.927 2.95132 -1.39874 0
M  V30 1321 H 119.586 1.79993 -3.19371 0
M  V30 1322 H 119.234 4.23046 -2.72105 0
M  V30 1323 H 118.934 3.85336 -4.4361 0
M  V30 1324 H 120.458 4.65205 -3.95495 0
M  V30 1325 H 121.872 2.67386 -5.07127 0
M  V30 1326 H 120.269 2.10397 -5.62008 0
M  V30 1327 H 121.339 0.992861 -4.74626 0
M  V30 1328 N 122.682 1.50554 0.465978 0
M  V30 1329 C 123.912 1.65323 1.23903 0
M  V30 1330 C 124.32 0.338051 1.86155 0
M  V30 1331 O 123.663 -0.690518 1.70228 0
M  V30 1332 C 123.725 2.69048 2.3844 0
M  V30 1333 C 123.389 4.12462 1.96784 0
M  V30 1334 C 124.386 4.98168 1.48745 0
M  V30 1335 C 122.071 4.58407 2.05349 0
M  V30 1336 C 124.065 6.27868 1.0982 0
M  V30 1337 C 121.752 5.88112 1.66035 0
M  V30 1338 C 122.75 6.72668 1.18349 0
M  V30 1339 O 122.438 7.99951 0.795825 0
M  V30 1340 H 122.17 0.558629 0.38067 0
M  V30 1341 H 124.724 1.97561 0.562022 0
M  V30 1342 H 122.954 2.32062 3.09328 0
M  V30 1343 H 124.643 2.72985 3.0039 0
M  V30 1344 H 125.409 4.63885 1.41546 0
M  V30 1345 H 121.288 3.92735 2.41414 0
M  V30 1346 H 124.832 6.93819 0.725293 0
M  V30 1347 H 120.729 6.21914 1.72895 0
M  V30 1348 H 121.497 8.13265 0.924222 0
M  V30 1349 N 124.16 -0.719506 1.40217 0
M  V30 1350 C 125.408 -1.47641 1.3801 0
M  V30 1351 C 125.729 -1.94992 -0.018145 0
M  V30 1352 O 124.999 -1.70073 -0.972207 0
M  V30 1353 H 123.579 -0.547744 0.507923 0
M  V30 1354 H 126.241 -0.853187 1.75233 0
M  V30 1355 H 125.337 -2.35112 2.05253 0
M  V30 1356 N 125.638 -1.25649 -0.95132 0
M  V30 1357 C 127.054 -1.02542 -1.223 0
M  V30 1358 C 127.254 0.255715 -1.99871 0
M  V30 1359 O 126.31 0.967558 -2.33226 0
M  V30 1360 C 127.623 -2.25065 -1.99415 0
M  V30 1361 C 129.171 -2.29861 -2.12446 0
M  V30 1362 C 129.646 -3.52048 -2.92961 0
M  V30 1363 N 131.137 -3.52465 -3.00538 0
M  V30 1364 C 131.872 -4.43672 -3.63239 0
M  V30 1365 N 131.368 -5.45157 -4.27523 0
M  V30 1366 N 133.161 -4.31346 -3.60412 0
M  V30 1367 H 125.312 -2.07951 -0.432471 0
M  V30 1368 H 127.575 -0.91339 -0.253816 0
M  V30 1369 H 127.281 -3.18194 -1.49817 0
M  V30 1370 H 127.155 -2.28502 -3.00111 0
M  V30 1371 H 129.542 -1.37252 -2.61239 0
M  V30 1372 H 129.623 -2.3044 -1.11044 0
M  V30 1373 H 129.267 -4.44981 -2.44856 0
M  V30 1374 H 129.197 -3.48715 -3.94596 0
M  V30 1375 H 131.688 -2.79056 -2.54826 0
M  V30 1376 H 132.001 -6.10958 -4.73234 0
M  V30 1377 H 130.346 -5.49025 -4.26141 0
M  V30 1378 H 133.537 -3.51288 -3.09377 0
M  V30 1379 H 133.71 -5.02624 -4.0899 0
M  V30 1380 N 127.117 1.15442 -1.07289 0
M  V30 1381 C 128.067 2.18164 -0.662467 0
M  V30 1382 C 129.051 1.57845 0.312074 0
M  V30 1383 O 130.243 1.76552 0.125905 0
M  V30 1384 C 127.372 3.43246 -0.0611295 0
M  V30 1385 C 126.458 4.1062 -1.06077 0
M  V30 1386 N 126.849 4.53491 -2.24008 0
M  V30 1387 C 125.147 4.36949 -0.893964 0
M  V30 1388 C 125.848 5.05731 -2.87422 0
M  V30 1389 N 124.824 4.99236 -2.15091 0
M  V30 1390 H 128.626 2.49038 -1.56068 0
M  V30 1391 H 126.14 1.32003 -0.945988 0
M  V30 1392 H 128.137 4.16145 0.250792 0
M  V30 1393 H 126.797 3.13854 0.832207 0
M  V30 1394 H 127.808 4.46898 -2.6173 0
M  V30 1395 H 124.485 4.17466 -0.0534693 0
M  V30 1396 H 125.875 5.48865 -3.87553 0
M  V30 1397 N 128.595 0.856903 1.32268 0
M  V30 1398 C 129.841 0.462069 1.97466 0
M  V30 1399 C 130.174 -0.980298 1.67642 0
M  V30 1400 O 129.449 -1.68824 0.965858 0
M  V30 1401 C 129.732 0.704336 3.53145 0
M  V30 1402 C 129.585 2.19529 3.9259 0
M  V30 1403 C 130.904 0.1622 4.39801 0
M  V30 1404 H 128.023 0.169357 0.717278 0
M  V30 1405 H 130.665 1.07574 1.56614 0
M  V30 1406 H 128.815 0.181999 3.88073 0
M  V30 1407 H 130.487 2.78387 3.67829 0
M  V30 1408 H 128.73 2.67292 3.41668 0
M  V30 1409 H 129.401 2.31549 5.01088 0
M  V30 1410 H 131.877 0.608905 4.11621 0
M  V30 1411 H 130.753 0.361265 5.4771 0
M  V30 1412 H 131.014 -0.935158 4.32096 0
M  V30 1413 N 130.073 -1.45103 0.615059 0
M  V30 1414 C 131.321 -2.01784 0.112955 0
M  V30 1415 C 131.642 -1.48504 -1.26378 0
M  V30 1416 O 130.912 -0.682245 -1.83636 0
M  V30 1417 H 129.492 -0.745993 0.0387668 0
M  V30 1418 H 132.154 -1.77808 0.798141 0
M  V30 1419 H 131.25 -3.12025 0.0684069 0
M  V30 1420 N 131.551 -0.354651 -1.53558 0
M  V30 1421 C 132.461 0.50515 -2.29097 0
M  V30 1422 C 133.477 1.10223 -1.34636 0
M  V30 1423 O 134.653 1.11553 -1.67684 0
M  V30 1424 C 131.718 1.63479 -3.05738 0
M  V30 1425 C 130.779 1.06636 -4.15845 0
M  V30 1426 C 130.012 2.14217 -4.88822 0
M  V30 1427 O 130.235 3.35137 -4.61562 0
M  V30 1428 O 129.169 1.77887 -5.75013 0
M  V30 1429 H 132.995 -0.109237 -3.03503 0
M  V30 1430 H 130.58 -0.119357 -1.48922 0
M  V30 1431 H 132.462 2.2918 -3.5363 0
M  V30 1432 H 131.137 2.23478 -2.34178 0
M  V30 1433 H 130.044 0.373565 -3.7223 0
M  V30 1434 H 131.377 0.511081 -4.89539 0
M  V30 1435 N 133.029 1.57378 -0.0835403 0
M  V30 1436 C 133.962 2.09016 0.915833 0
M  V30 1437 C 134.94 0.997993 1.2837 0
M  V30 1438 O 136.124 1.27219 1.39096 0
M  V30 1439 C 133.251 2.55757 2.22049 0
M  V30 1440 C 132.297 3.76522 2.00333 0
M  V30 1441 S 133.13 5.20661 1.25191 0
M  V30 1442 C 134.286 5.70743 2.56912 0
M  V30 1443 H 134.519 2.93457 0.476492 0
M  V30 1444 H 132.052 1.53856 0.129493 0
M  V30 1445 H 134.01 2.83346 2.97027 0
M  V30 1446 H 132.671 1.71564 2.63106 0
M  V30 1447 H 131.864 4.07256 2.96916 0
M  V30 1448 H 131.466 3.49367 1.33488 0
M  V30 1449 H 133.758 5.78304 3.52946 0
M  V30 1450 H 134.701 6.6944 2.30772 0
M  V30 1451 H 135.109 4.98616 2.64655 0
M  V30 1452 N 134.507 -0.190092 1.56449 0
M  V30 1453 C 135.753 -0.911052 1.81184 0
M  V30 1454 C 136.086 -1.82699 0.658396 0
M  V30 1455 O 135.361 -1.91491 -0.340775 0
M  V30 1456 C 135.644 -1.72297 3.16205 0
M  V30 1457 C 135.497 -0.831419 4.42049 0
M  V30 1458 C 136.816 -2.69454 3.47969 0
M  V30 1459 H 133.935 -0.32977 0.659106 0
M  V30 1460 H 136.577 -0.178169 1.89163 0
M  V30 1461 H 134.727 -2.34778 3.09534 0
M  V30 1462 H 136.399 -0.220929 4.60771 0
M  V30 1463 H 134.642 -0.138406 4.33579 0
M  V30 1464 H 135.313 -1.43461 5.33032 0
M  V30 1465 H 137.789 -2.17104 3.54972 0
M  V30 1466 H 136.665 -3.23342 4.43555 0
M  V30 1467 H 136.926 -3.48744 2.71717 0
M  V30 1468 N 135.985 -1.50799 -0.457987 0
M  V30 1469 C 137.233 -1.62121 -1.2067 0
M  V30 1470 C 137.554 -0.329793 -1.92191 0
M  V30 1471 O 136.824 0.653409 -1.84682 0
M  V30 1472 H 135.404 -0.597441 -0.448411 0
M  V30 1473 H 138.066 -1.87637 -0.527096 0
M  V30 1474 H 137.162 -2.43882 -1.94751 0
M  V30 1475 N 137.463 0.71206 -1.40597 0
M  V30 1476 C 138.396 1.83582 -1.35546 0
M  V30 1477 C 139.374 1.61032 -0.225284 0
M  V30 1478 O 140.558 1.83998 -0.409519 0
M  V30 1479 C 137.685 3.19983 -1.11034 0
M  V30 1480 C 136.731 3.61355 -2.2655 0
M  V30 1481 S 137.564 3.68062 -3.88961 0
M  V30 1482 C 138.72 5.07216 -3.66719 0
M  V30 1483 H 138.953 1.87586 -2.30648 0
M  V30 1484 H 136.486 0.879182 -1.26924 0
M  V30 1485 H 138.444 3.98734 -0.975761 0
M  V30 1486 H 137.105 3.13608 -0.175798 0
M  V30 1487 H 136.298 4.60403 -2.0505 0
M  V30 1488 H 135.9 2.8987 -2.36329 0
M  V30 1489 H 138.192 5.94238 -3.25404 0
M  V30 1490 H 139.135 5.33753 -4.6531 0
M  V30 1491 H 139.543 4.77976 -3.00332 0
M  V30 1492 N 138.941 1.26152 0.944643 0
M  V30 1493 C 139.904 1.07474 2.0244 0
M  V30 1494 C 140.904 0.0242064 1.60782 0
M  V30 1495 O 142.094 0.267302 1.72137 0
M  V30 1496 C 139.226 0.633956 3.34953 0
M  V30 1497 H 140.419 2.03336 2.20442 0
M  V30 1498 H 137.972 1.087 1.12312 0
M  V30 1499 H 138.707 -0.326811 3.22649 0
M  V30 1500 H 138.492 1.39247 3.66542 0
M  V30 1501 H 139.982 0.52501 4.14287 0
M  V30 1502 N 140.419 -1.14872 1.07899 0
M  V30 1503 C 141.83 -1.67367 0.827363 0
M  V30 1504 C 142.181 -1.85236 -0.646693 0
M  V30 1505 O 141.306 -1.55974 -1.50004 0
M  V30 1506 C 141.901 -3.04016 1.49532 0
M  V30 1507 C 140.46 -3.53566 1.29106 0
M  V30 1508 C 139.607 -2.29161 1.56143 0
M  V30 1509 H 142.558 -0.990083 1.24028 0
M  V30 1510 H 142.579 -3.69219 0.919643 0
M  V30 1511 H 142.091 -2.90978 2.56814 0
M  V30 1512 H 140.192 -3.71835 0.238713 0
M  V30 1513 H 140.305 -4.34661 2.01511 0
M  V30 1514 H 138.669 -2.34978 0.982717 0
M  V30 1515 H 139.452 -2.18705 2.64619 0
M  V30 1516 N 141.898 -0.863906 -1.31812 0
M  V30 1517 C 143.126 -0.486111 -2.01108 0
M  V30 1518 C 143.541 0.919755 -1.64882 0
M  V30 1519 O 142.898 1.60162 -0.874893 0
M  V30 1520 C 142.949 -0.626435 -3.56031 0
M  V30 1521 O 142.67 -1.97693 -3.90959 0
M  V30 1522 C 144.171 -0.248857 -4.42601 0
M  V30 1523 H 141.391 -0.190052 -0.643523 0
M  V30 1524 H 143.935 -1.1634 -1.68182 0
M  V30 1525 H 142.09 0.00322717 -3.874 0
M  V30 1526 H 142.504 -1.98034 -4.85678 0
M  V30 1527 H 143.978 -0.398016 -5.50563 0
M  V30 1528 H 144.455 0.811489 -4.31638 0
M  V30 1529 H 145.061 -0.853971 -4.16638 0
M  V30 1530 N 143.376 1.44774 -0.622745 0
M  V30 1531 C 144.624 2.01721 -0.123655 0
M  V30 1532 C 144.945 1.49172 1.25589 0
M  V30 1533 O 144.215 0.691974 1.83272 0
M  V30 1534 H 142.795 0.745777 -0.0427225 0
M  V30 1535 H 145.457 1.77382 -0.807559 0
M  V30 1536 H 144.553 3.11984 -0.0849534 0
M  V30 1537 N 144.854 0.36279 1.53368 0
M  V30 1538 C 146.27 0.0116182 1.59596 0
M  V30 1539 C 146.47 -1.47012 1.37803 0
M  V30 1540 O 145.526 -2.23136 1.18181 0
M  V30 1541 C 146.839 0.465052 2.97082 0
M  V30 1542 C 148.387 0.419033 3.10182 0
M  V30 1543 C 148.862 0.848235 4.50077 0
M  V30 1544 N 150.353 0.803183 4.56183 0
M  V30 1545 C 151.088 1.107 5.62613 0
M  V30 1546 N 150.584 1.47996 6.76808 0
M  V30 1547 N 152.377 1.02998 5.52583 0
M  V30 1548 H 144.528 1.32775 1.65785 0
M  V30 1549 H 146.791 0.542518 0.777417 0
M  V30 1550 H 146.497 1.49892 3.18159 0
M  V30 1551 H 146.371 -0.149786 3.76902 0
M  V30 1552 H 148.758 -0.605696 2.88817 0
M  V30 1553 H 148.839 1.06933 2.32377 0
M  V30 1554 H 148.483 1.87107 4.7218 0
M  V30 1555 H 148.413 0.175218 5.26308 0
M  V30 1556 H 150.904 0.52838 3.74188 0
M  V30 1557 H 151.217 1.69613 7.53957 0
M  V30 1558 H 149.562 1.51859 6.78206 0
M  V30 1559 H 152.753 0.737817 4.62249 0
M  V30 1560 H 152.926 1.2701 6.35431 0
M  V30 1561 N 146.332 -1.57332 0.0918853 0
M  V30 1562 C 147.262 -2.16872 -0.865371 0
M  V30 1563 C 148.243 -1.10118 -1.29646 0
M  V30 1564 O 149.428 -1.38242 -1.36392 0
M  V30 1565 C 146.558 -2.74649 -2.12569 0
M  V30 1566 C 145.512 -3.86747 -1.83333 0
M  V30 1567 C 144.838 -4.31212 -3.16166 0
M  V30 1568 C 146.138 -5.10089 -1.1228 0
M  V30 1569 H 147.832 -2.97114 -0.369307 0
M  V30 1570 H 145.378 -1.42918 -0.176194 0
M  V30 1571 H 147.331 -3.14952 -2.7997 0
M  V30 1572 H 146.055 -1.91657 -2.64452 0
M  V30 1573 H 144.714 -3.46978 -1.18331 0
M  V30 1574 H 144.362 -3.45115 -3.6593 0
M  V30 1575 H 144.062 -5.06788 -2.97388 0
M  V30 1576 H 145.586 -4.74146 -3.84731 0
M  V30 1577 H 147 -5.47582 -1.69785 0
M  V30 1578 H 145.397 -5.91073 -1.03693 0
M  V30 1579 H 146.467 -4.84786 -0.105041 0
M  V30 1580 N 147.81 0.181792 -1.56548 0
M  V30 1581 C 149.057 0.900097 -1.81396 0
M  V30 1582 C 149.385 1.82695 -0.667281 0
M  V30 1583 O 148.64 1.92614 0.346146 0
M  V30 1584 C 148.939 1.73728 -3.12335 0
M  V30 1585 C 148.605 0.960255 -4.40556 0
M  V30 1586 C 147.267 0.745766 -4.75386 0
M  V30 1587 C 149.619 0.414477 -5.19549 0
M  V30 1588 C 146.947 -0.0257694 -5.86694 0
M  V30 1589 C 149.299 -0.343916 -6.31664 0
M  V30 1590 C 147.963 -0.569301 -6.65068 0
M  V30 1591 H 147.233 0.329369 -0.663775 0
M  V30 1592 H 149.88 0.165647 -1.90782 0
M  V30 1593 H 148.185 2.54081 -2.98245 0
M  V30 1594 H 149.882 2.29591 -3.28769 0
M  V30 1595 H 146.472 1.13746 -4.13231 0
M  V30 1596 H 150.656 0.567554 -4.93044 0
M  V30 1597 H 145.912 -0.210233 -6.11038 0
M  V30 1598 H 150.086 -0.774133 -6.92084 0
M  V30 1599 H 147.713 -1.16903 -7.51158 0
M  V30 1600 N 149.288 1.51039 0.449983 0
M  V30 1601 C 150.513 1.6715 1.22783 0
M  V30 1602 C 150.938 0.363081 1.84563 0
M  V30 1603 O 150.296 -0.675433 1.68249 0
M  V30 1604 C 150.344 2.77985 2.29689 0
M  V30 1605 O 149.448 2.40707 3.34864 0
M  V30 1606 H 148.789 0.557746 0.360299 0
M  V30 1607 H 151.319 1.97535 0.533005 0
M  V30 1608 H 151.329 3.01693 2.74673 0
M  V30 1609 H 150.004 3.72935 1.84098 0
M  V30 1610 H 148.581 2.27523 2.95445 0
M  V30 1611 N 150.766 -0.704594 1.40972 0
M  V30 1612 C 152.014 -1.46169 1.39568 0
M  V30 1613 C 152.335 -1.95 0.00253745 0
M  V30 1614 O 151.605 -1.71095 -0.954114 0
M  V30 1615 H 150.185 -0.542326 0.513704 0
M  V30 1616 H 152.847 -0.834553 1.76128 0
M  V30 1617 H 151.943 -2.32922 2.07735 0
M  V30 1618 N 152.244 -1.26651 -0.937939 0
M  V30 1619 C 153.154 -1.10276 -2.07066 0
M  V30 1620 C 154.17 -0.0354197 -1.73964 0
M  V30 1621 O 155.346 -0.239816 -1.99967 0
M  V30 1622 C 152.411 -0.740887 -3.38691 0
M  V30 1623 C 151.472 -1.88799 -3.85556 0
M  V30 1624 C 150.705 -1.54329 -5.10899 0
M  V30 1625 O 150.928 -0.446494 -5.6865 0
M  V30 1626 O 149.862 -2.37911 -5.52885 0
M  V30 1627 H 153.688 -2.05309 -2.23789 0
M  V30 1628 H 151.273 -1.05743 -1.0554 0
M  V30 1629 H 153.155 -0.55195 -4.1777 0
M  V30 1630 H 151.83 0.180022 -3.23199 0
M  V30 1631 H 150.737 -2.13191 -3.07409 0
M  V30 1632 H 152.07 -2.78874 -4.05574 0
M  V30 1633 N 153.722 1.14298 -1.08507 0
M  V30 1634 C 154.654 2.1907 -0.673859 0
M  V30 1635 C 155.667 1.60381 0.279577 0
M  V30 1636 O 156.856 1.78374 0.0670754 0
M  V30 1637 C 153.956 3.38888 0.0290979 0
M  V30 1638 C 153.129 4.27103 -0.943494 0
M  V30 1639 C 152.188 5.25477 -0.275676 0
M  V30 1640 O 151.214 5.61709 -0.920401 0
M  V30 1641 N 152.416 5.7227 0.974013 0
M  V30 1642 H 155.181 2.54965 -1.57521 0
M  V30 1643 H 152.742 1.29528 -0.971287 0
M  V30 1644 H 154.734 4.01761 0.48683 0
M  V30 1645 H 153.304 3.01309 0.832555 0
M  V30 1646 H 152.524 3.61149 -1.58004 0
M  V30 1647 H 153.812 4.82905 -1.60251 0
M  V30 1648 H 153.21 5.44965 1.51755 0
M  V30 1649 H 151.767 6.37127 1.37522 0
M  V30 1650 N 155.201 0.870884 1.31352 0
M  V30 1651 C 156.45 0.478408 1.95944 0
M  V30 1652 C 156.763 -0.974493 1.69597 0
M  V30 1653 O 157.969 -1.47316 2.28058 0
M  V30 1654 C 156.425 0.804609 3.50791 0
M  V30 1655 C 156.033 2.27433 3.85977 0
M  V30 1656 C 157.777 0.480648 4.2177 0
M  V30 1657 C 155.684 2.5429 5.33939 0
M  V30 1658 H 154.614 0.175175 0.733369 0
M  V30 1659 H 157.265 1.06391 1.4951 0
M  V30 1660 H 155.647 0.148347 3.95722 0
M  V30 1661 H 156.821 2.97373 3.52002 0
M  V30 1662 H 155.136 2.56442 3.28065 0
M  V30 1663 H 157.733 0.658519 5.30629 0
M  V30 1664 H 158.076 -0.578979 4.12254 0
M  V30 1665 H 158.609 1.09349 3.82476 0
M  V30 1666 H 155.348 3.58939 5.48491 0
M  V30 1667 H 154.868 1.88945 5.69263 0
M  V30 1668 H 156.547 2.39066 6.01212 0
M  V30 1669 N 156.679 -1.44442 0.630414 0
M  V30 1670 C 157.629 -2.27794 -0.0968103 0
M  V30 1671 C 158.613 -1.38624 -0.816834 0
M  V30 1672 O 159.805 -1.62438 -0.70306 0
M  V30 1673 C 156.934 -3.25929 -1.07819 0
M  V30 1674 C 156.02 -4.22588 -0.357826 0
M  V30 1675 N 156.411 -5.0207 0.613169 0
M  V30 1676 C 154.709 -4.41914 -0.602365 0
M  V30 1677 C 155.41 -5.72351 1.03871 0
M  V30 1678 N 154.386 -5.42287 0.377642 0
M  V30 1679 H 158.188 -2.86653 0.648621 0
M  V30 1680 H 155.702 -1.55871 0.455862 0
M  V30 1681 H 157.699 -3.84399 -1.61378 0
M  V30 1682 H 156.359 -2.68631 -1.82393 0
M  V30 1683 H 157.37 -5.08331 0.990947 0
M  V30 1684 H 154.047 -3.95714 -1.33103 0
M  V30 1685 H 155.437 -6.4619 1.84086 0
M  V30 1686 N 158.157 -0.370918 -1.53173 0
M  V30 1687 C 159.087 0.464847 -2.28826 0
M  V30 1688 C 160.068 1.07936 -1.31468 0
M  V30 1689 O 161.253 1.0956 -1.60344 0
M  V30 1690 C 158.383 1.60196 -3.08147 0
M  V30 1691 C 157.337 1.11443 -4.13237 0
M  V30 1692 C 156.663 2.3422 -4.80672 0
M  V30 1693 C 157.963 0.195384 -5.21934 0
M  V30 1694 H 159.657 -0.166329 -2.98938 0
M  V30 1695 H 157.203 -0.0814359 -1.4377 0
M  V30 1696 H 159.156 2.19332 -3.59822 0
M  V30 1697 H 157.88 2.26045 -2.35735 0
M  V30 1698 H 156.539 0.545727 -3.62515 0
M  V30 1699 H 156.187 2.98537 -4.04827 0
M  V30 1700 H 155.887 2.02269 -5.51689 0
M  V30 1701 H 157.411 2.94032 -5.35143 0
M  V30 1702 H 158.825 0.694375 -5.69079 0
M  V30 1703 H 157.222 -0.0335027 -6.00091 0
M  V30 1704 H 158.292 -0.760961 -4.78892 0
M  V30 1705 N 159.635 1.57281 -0.100228 0
M  V30 1706 C 160.565 2.17328 0.853857 0
M  V30 1707 C 161.546 1.10804 1.2906 0
M  V30 1708 O 162.731 1.38963 1.35657 0
M  V30 1709 C 159.861 2.75772 2.11109 0
M  V30 1710 C 158.815 3.87713 1.81279 0
M  V30 1711 C 158.141 4.32882 3.13874 0
M  V30 1712 C 159.441 5.10677 1.09574 0
M  V30 1713 H 161.135 2.97305 0.353545 0
M  V30 1714 H 158.681 1.43009 0.168612 0
M  V30 1715 H 160.634 3.16433 2.78296 0
M  V30 1716 H 159.358 1.93057 2.63432 0
M  V30 1717 H 158.017 3.476 1.16489 0
M  V30 1718 H 157.665 3.47051 3.64095 0
M  V30 1719 H 157.365 5.08358 2.94696 0
M  V30 1720 H 158.889 4.7618 3.82211 0
M  V30 1721 H 160.303 5.48474 1.66879 0
M  V30 1722 H 158.7 5.91615 1.00557 0
M  V30 1723 H 159.77 4.84835 0.0793299 0
M  V30 1724 N 161.113 -0.173488 1.56642 0
M  V30 1725 C 162.063 -1.21941 1.92651 0
M  V30 1726 C 163.047 -1.39912 0.794577 0
M  V30 1727 O 164.239 -1.41919 1.05773 0
M  V30 1728 C 161.368 -2.55935 2.28806 0
M  V30 1729 C 160.454 -2.41667 3.48508 0
M  V30 1730 N 160.845 -1.9711 4.65813 0
M  V30 1731 C 159.143 -2.72499 3.53072 0
M  V30 1732 C 159.844 -1.95253 5.47952 0
M  V30 1733 N 158.82 -2.37575 4.88937 0
M  V30 1734 H 162.622 -0.866581 2.80834 0
M  V30 1735 H 160.136 -0.381776 1.57849 0
M  V30 1736 H 162.133 -3.31511 2.52797 0
M  V30 1737 H 160.793 -2.92022 1.41961 0
M  V30 1738 H 161.804 -1.67481 4.90072 0
M  V30 1739 H 158.481 -3.12639 2.767 0
M  V30 1740 H 159.871 -1.6252 6.51948 0
M  V30 1741 N 162.591 -1.51276 -0.441967 0
M  V30 1742 C 163.838 -1.63715 -1.19179 0
M  V30 1743 C 164.166 -0.351175 -1.91303 0
M  V30 1744 O 163.421 0.664524 -1.84072 0
M  V30 1745 C 163.72 -2.78746 -2.23686 0
M  V30 1746 C 163.386 -4.18189 -1.68607 0
M  V30 1747 C 162.048 -4.56125 -1.53308 0
M  V30 1748 C 164.4 -5.05222 -1.28062 0
M  V30 1749 C 161.728 -5.78804 -0.959317 0
M  V30 1750 C 164.08 -6.28476 -0.721162 0
M  V30 1751 C 162.744 -6.65188 -0.55504 0
M  V30 1752 H 162.014 -0.599076 -0.436106 0
M  V30 1753 H 164.661 -1.85296 -0.48351 0
M  V30 1754 H 162.966 -2.51369 -3.00535 0
M  V30 1755 H 164.663 -2.8557 -2.81515 0
M  V30 1756 H 161.253 -3.88277 -1.8149 0
M  V30 1757 H 165.437 -4.76524 -1.38704 0
M  V30 1758 H 160.693 -6.05899 -0.81833 0
M  V30 1759 H 164.867 -6.95259 -0.398458 0
M  V30 1760 H 162.494 -7.60123 -0.108311 0
M  V30 1761 N 164.069 0.697108 -1.41344 0
M  V30 1762 C 165.315 1.4593 -1.40827 0
M  V30 1763 C 165.648 1.94193 -0.0167098 0
M  V30 1764 O 164.923 1.69425 0.955263 0
M  V30 1765 C 165.206 2.67229 -2.41373 0
M  V30 1766 C 165.059 2.24741 -3.8963 0
M  V30 1767 C 166.378 3.69423 -2.39196 0
M  V30 1768 H 163.497 0.529303 -0.512842 0
M  V30 1769 H 166.139 0.794112 -1.72609 0
M  V30 1770 H 164.289 3.23982 -2.14401 0
M  V30 1771 H 165.961 1.73327 -4.27499 0
M  V30 1772 H 164.204 1.56542 -4.0457 0
M  V30 1773 H 164.875 3.1177 -4.55525 0
M  V30 1774 H 167.351 3.2234 -2.63128 0
M  V30 1775 H 166.227 4.51907 -3.11563 0
M  V30 1776 H 166.488 4.19012 -1.41001 0
M  V30 1777 N 165.547 1.27147 0.931209 0
M  V30 1778 C 166.824 1.0401 1.65654 0
M  V30 1779 C 167.204 -0.426297 2.06751 0
M  V30 1780 O 166.552 -1.40879 1.79904 0
M  V30 1781 C 166.762 1.99834 2.86125 0
M  V30 1782 C 168.11 2.29007 3.57549 0
M  V30 1783 O 169.134 1.97779 2.96246 0
M  V30 1784 O 167.993 2.82222 4.67989 0
M  V30 1785 H 165.087 0.396239 0.725895 0
M  V30 1786 H 167.633 1.38397 0.982056 0
M  V30 1787 H 166.405 2.98744 2.52721 0
M  V30 1788 H 166.028 1.65987 3.61295 0
M  V30 1789 N 167.025 -1.13721 1.09112 0
M  V30 1790 C 168.273 -1.84559 0.823562 0
M  V30 1791 C 168.594 -1.83754 -0.652658 0
M  V30 1792 O 167.864 -1.29102 -1.47342 0
M  V30 1793 H 166.444 -0.683376 0.301673 0
M  V30 1794 H 169.106 -1.37771 1.37859 0
M  V30 1795 H 168.202 -2.8917 1.17419 0
M  V30 1796 N 168.503 -0.877838 -1.30888 0
M  V30 1797 C 169.45 -0.337538 -2.28318 0
M  V30 1798 C 170.42 0.568346 -1.56074 0
M  V30 1799 O 171.605 0.498298 -1.84178 0
M  V30 1800 C 168.745 0.448142 -3.42178 0
M  V30 1801 C 167.858 -0.48615 -4.29256 0
M  V30 1802 C 166.993 0.314427 -5.30269 0
M  V30 1803 C 166.032 -0.615791 -6.08995 0
M  V30 1804 N 165.169 0.14902 -7.01942 0
M  V30 1805 H 170.009 -1.17356 -2.73919 0
M  V30 1806 H 167.546 -0.590094 -1.34745 0
M  V30 1807 H 169.504 0.919517 -4.06941 0
M  V30 1808 H 168.134 1.24879 -2.97666 0
M  V30 1809 H 167.186 -1.076 -3.64865 0
M  V30 1810 H 168.498 -1.19909 -4.84173 0
M  V30 1811 H 167.652 0.847969 -6.00745 0
M  V30 1812 H 166.391 1.06062 -4.76027 0
M  V30 1813 H 165.396 -1.16102 -5.37401 0
M  V30 1814 H 166.621 -1.36097 -6.65323 0
M  V30 1815 H 164.567 0.877884 -6.50099 0
M  V30 1816 H 164.484 -0.504433 -7.54315 0
M  V30 1817 H 165.752 0.663537 -7.76671 0
M  V30 1818 N 169.982 1.44106 -0.638065 0
M  V30 1819 C 171.231 2.01194 -0.142744 0
M  V30 1820 C 171.544 1.50835 1.24532 0
M  V30 1821 O 172.75 2.00096 1.83504 0
M  V30 1822 C 171.206 3.59319 -0.20442 0
M  V30 1823 C 170.814 4.18674 -1.59423 0
M  V30 1824 C 172.558 4.23854 0.234079 0
M  V30 1825 C 170.465 5.69045 -1.61065 0
M  V30 1826 H 169.395 0.752367 -0.0495998 0
M  V30 1827 H 172.046 1.65246 -0.797881 0
M  V30 1828 H 170.428 3.92598 0.517946 0
M  V30 1829 H 171.602 3.96921 -2.34074 0
M  V30 1830 H 169.917 3.66453 -1.97741 0
M  V30 1831 H 172.514 5.34155 0.241443 0
M  V30 1832 H 172.857 3.96688 1.2627 0
M  V30 1833 H 173.39 3.95403 -0.436025 0
M  V30 1834 H 170.129 6.00956 -2.61787 0
M  V30 1835 H 169.649 5.929 -0.90718 0
M  V30 1836 H 171.328 6.32809 -1.34766 0
M  V30 1837 N 171.46 0.379036 1.52974 0
M  V30 1838 C 172.41 -0.477772 2.22938 0
M  V30 1839 C 173.394 -1.03792 1.22948 0
M  V30 1840 O 174.586 -0.965725 1.48333 0
M  V30 1841 C 171.715 -1.60994 3.03209 0
M  V30 1842 C 170.801 -1.06203 4.10587 0
M  V30 1843 N 171.192 -0.238214 5.05239 0
M  V30 1844 C 169.49 -1.33554 4.25534 0
M  V30 1845 C 170.191 0.0633235 5.81666 0
M  V30 1846 N 169.167 -0.537901 5.40932 0
M  V30 1847 H 172.969 0.158295 2.93473 0
M  V30 1848 H 170.483 0.187778 1.61311 0
M  V30 1849 H 172.48 -2.23607 3.5186 0
M  V30 1850 H 171.14 -2.24893 2.34207 0
M  V30 1851 H 172.151 0.123695 5.17752 0
M  V30 1852 H 168.828 -1.97632 3.6776 0
M  V30 1853 H 170.218 0.730161 6.67921 0
M  V30 1854 N 172.938 -1.57226 0.108567 0
M  V30 1855 C 173.888 -2.11305 -0.856396 0
M  V30 1856 C 174.872 -1.03129 -1.23504 0
M  V30 1857 O 176.064 -1.29381 -1.20787 0
M  V30 1858 C 173.193 -2.70771 -2.11041 0
M  V30 1859 C 172.279 -3.86011 -1.7566 0
M  V30 1860 N 172.67 -4.93492 -1.10902 0
M  V30 1861 C 170.968 -3.95999 -2.05185 0
M  V30 1862 C 171.669 -5.73984 -0.944308 0
M  V30 1863 N 170.645 -5.2346 -1.46596 0
M  V30 1864 H 174.447 -2.91784 -0.352002 0
M  V30 1865 H 171.961 -1.62126 -0.0942324 0
M  V30 1866 H 173.958 -3.07851 -2.81128 0
M  V30 1867 H 172.618 -1.91751 -2.62034 0
M  V30 1868 H 173.629 -5.1208 -0.774235 0
M  V30 1869 H 170.306 -3.28007 -2.58298 0
M  V30 1870 H 171.696 -6.70479 -0.436813 0
M  V30 1871 N 174.416 0.165178 -1.56732 0
M  V30 1872 C 175.366 1.20917 -1.93295 0
M  V30 1873 C 176.35 1.39488 -0.801985 0
M  V30 1874 O 177.542 1.41356 -1.06525 0
M  V30 1875 C 174.671 2.54718 -2.3016 0
M  V30 1876 C 173.757 2.39815 -3.49785 0
M  V30 1877 N 174.148 1.94637 -4.66851 0
M  V30 1878 C 172.446 2.70623 -3.54513 0
M  V30 1879 C 173.147 1.92344 -5.4898 0
M  V30 1880 N 172.123 2.34978 -4.9019 0
M  V30 1881 H 175.925 0.851675 -2.81289 0
M  V30 1882 H 173.439 0.373399 -1.58049 0
M  V30 1883 H 175.436 3.30165 -2.54552 0
M  V30 1884 H 174.096 2.91265 -1.43508 0
M  V30 1885 H 175.107 1.6488 -4.90953 0
M  V30 1886 H 171.784 3.11167 -2.78354 0
M  V30 1887 H 173.174 1.5906 -6.52801 0
M  V30 1888 N 175.894 1.51508 0.433938 0
M  V30 1889 C 177.31 1.39759 0.770682 0
M  V30 1890 C 177.51 0.482594 1.95636 0
M  V30 1891 O 176.566 -0.0609691 2.52426 0
M  V30 1892 C 177.879 2.81851 1.04787 0
M  V30 1893 C 179.427 2.91025 1.1521 0
M  V30 1894 C 179.902 4.34032 1.46219 0
M  V30 1895 N 181.393 4.37154 1.53136 0
M  V30 1896 C 182.128 5.4484 1.78709 0
M  V30 1897 N 181.624 6.62682 2.02051 0
M  V30 1898 N 183.417 5.32324 1.80519 0
M  V30 1899 H 175.568 2.09548 -0.346892 0
M  V30 1900 H 177.831 0.943446 -0.0928074 0
M  V30 1901 H 177.537 3.50815 0.249304 0
M  V30 1902 H 177.411 3.21386 1.97461 0
M  V30 1903 H 179.798 2.22257 1.94128 0
M  V30 1904 H 179.879 2.54983 0.204281 0
M  V30 1905 H 179.523 5.03351 0.678274 0
M  V30 1906 H 179.453 4.6759 2.42212 0
M  V30 1907 H 181.944 3.52197 1.36987 0
M  V30 1908 H 182.257 7.40543 2.20943 0
M  V30 1909 H 180.602 6.65791 1.99366 0
M  V30 1910 H 183.793 4.39246 1.61805 0
M  V30 1911 H 183.966 6.16328 2.00111 0
M  V30 1912 N 177.372 -0.689602 1.41712 0
M  V30 1913 C 178.649 -1.44457 1.31877 0
M  V30 1914 C 179.029 -2.11039 -0.0508537 0
M  V30 1915 O 178.377 -2.02138 -1.06547 0
M  V30 1916 C 178.587 -2.45913 2.47645 0
M  V30 1917 C 179.935 -3.10991 2.89084 0
M  V30 1918 O 180.959 -2.56238 2.47428 0
M  V30 1919 O 179.818 -4.10174 3.61137 0
M  V30 1920 H 176.912 -0.64362 0.519309 0
M  V30 1921 H 179.458 -0.719576 1.53689 0
M  V30 1922 H 178.23 -1.95409 3.39015 0
M  V30 1923 H 177.853 -3.25913 2.27742 0
M  V30 1924 N 178.85 -1.27639 -0.924453 0
M  V30 1925 C 180.096 -1.15345 -1.67532 0
M  V30 1926 C 180.451 0.297096 -1.90092 0
M  V30 1927 O 179.744 1.21374 -1.48253 0
M  V30 1928 C 179.938 -1.87407 -3.04325 0
M  V30 1929 C 179.767 -3.3932 -2.95114 0
M  V30 1930 C 178.537 -4.08644 -2.97218 0
M  V30 1931 C 180.735 -4.35242 -2.73987 0
M  V30 1932 N 178.717 -5.47102 -2.78482 0
M  V30 1933 C 180.088 -5.6099 -2.63988 0
M  V30 1934 C 182.143 -4.25294 -2.589 0
M  V30 1935 C 180.846 -6.77924 -2.40442 0
M  V30 1936 C 182.872 -5.41952 -2.36731 0
M  V30 1937 C 182.234 -6.66658 -2.27478 0
M  V30 1938 H 178.333 -0.47696 -0.619704 0
M  V30 1939 H 180.917 -1.6115 -1.09265 0
M  V30 1940 H 179.088 -1.44053 -3.60699 0
M  V30 1941 H 180.82 -1.6759 -3.68369 0
M  V30 1942 H 177.575 -3.60136 -3.07569 0
M  V30 1943 H 177.999 -6.19852 -2.72236 0
M  V30 1944 H 182.641 -3.29598 -2.64811 0
M  V30 1945 H 180.359 -7.73699 -2.3327 0
M  V30 1946 H 183.945 -5.36137 -2.25938 0
M  V30 1947 H 182.825 -7.55405 -2.10555 0
M  V30 1948 N 180.328 1.1314 -1.09713 0
M  V30 1949 C 181.739 1.66029 -0.853885 0
M  V30 1950 C 182.09 1.86241 0.617142 0
M  V30 1951 O 181.215 1.5834 1.47503 0
M  V30 1952 C 181.81 3.01599 -1.5435 0
M  V30 1953 C 180.369 3.51467 -1.34714 0
M  V30 1954 C 179.516 2.26648 -1.59769 0
M  V30 1955 H 182.467 0.970226 -1.25588 0
M  V30 1956 H 182.488 3.67709 -0.978267 0
M  V30 1957 H 182 2.86856 -2.6141 0
M  V30 1958 H 180.101 3.71408 -0.297838 0
M  V30 1959 H 180.214 4.314 -2.08401 0
M  V30 1960 H 178.578 2.33385 -1.01998 0
M  V30 1961 H 179.361 2.14467 -2.68065 0
M  V30 1962 N 181.806 0.884767 1.30421 0
M  V30 1963 C 183.083 0.423185 1.90967 0
M  V30 1964 C 183.463 -1.09605 1.80416 0
M  V30 1965 O 182.811 -1.93126 1.22125 0
M  V30 1966 C 183.021 0.921056 3.36627 0
M  V30 1967 C 184.369 0.955903 4.137 0
M  V30 1968 O 185.393 0.867706 3.4547 0
M  V30 1969 O 184.252 1.08614 5.35598 0
M  V30 1970 H 181.346 0.129369 0.816819 0
M  V30 1971 H 183.892 0.973653 1.3899 0
M  V30 1972 H 182.664 1.96489 3.3839 0
M  V30 1973 H 182.287 0.349741 3.96059 0
M  V30 1974 N 183.284 -1.43765 0.645699 0
M  V30 1975 C 184.514 -2.05953 0.163318 0
M  V30 1976 C 184.922 -1.48432 -1.17322 0
M  V30 1977 O 184.265 -0.607295 -1.73371 0
M  V30 1978 C 184.327 -3.59499 -0.0103065 0
M  V30 1979 C 183.991 -4.39563 1.25035 0
M  V30 1980 C 184.988 -4.72108 2.17739 0
M  V30 1981 C 182.673 -4.79697 1.48983 0
M  V30 1982 C 184.667 -5.43688 3.3269 0
M  V30 1983 C 182.354 -5.51023 2.64229 0
M  V30 1984 C 183.352 -5.8294 3.55908 0
M  V30 1985 O 183.04 -6.5281 4.69142 0
M  V30 1986 H 182.772 -0.670798 0.0836986 0
M  V30 1987 H 185.326 -1.85384 0.884407 0
M  V30 1988 H 183.556 -3.78613 -0.78669 0
M  V30 1989 H 185.245 -4.03408 -0.449087 0
M  V30 1990 H 186.011 -4.41627 2.00476 0
M  V30 1991 H 181.89 -4.54266 0.785078 0
M  V30 1992 H 185.434 -5.68517 4.04269 0
M  V30 1993 H 181.331 -5.8092 2.81429 0
M  V30 1994 H 182.099 -6.71288 4.6831 0
M  V30 1995 N 184.763 -0.387143 -1.52771 0
M  V30 1996 C 185.695 0.484089 -2.2403 0
M  V30 1997 C 186.708 1.02849 -1.26198 0
M  V30 1998 O 187.897 0.931186 -1.52286 0
M  V30 1999 C 184.997 1.68337 -2.94136 0
M  V30 2000 C 184.17 1.26672 -4.18656 0
M  V30 2001 C 183.229 2.33045 -4.7178 0
M  V30 2002 O 182.255 1.94541 -5.34923 0
M  V30 2003 N 183.457 3.64929 -4.5145 0
M  V30 2004 H 186.222 -0.126404 -2.99433 0
M  V30 2005 H 183.783 -0.213392 -1.60488 0
M  V30 2006 H 185.775 2.39019 -3.26577 0
M  V30 2007 H 184.345 2.20025 -2.22053 0
M  V30 2008 H 183.565 0.388878 -3.92277 0
M  V30 2009 H 184.853 0.964964 -4.99566 0
M  V30 2010 H 184.251 3.98974 -4.01044 0
M  V30 2011 H 182.808 4.31651 -4.88386 0
M  V30 2012 N 186.241 1.57166 -0.116904 0
M  V30 2013 C 187.489 1.94737 0.540533 0
M  V30 2014 C 187.81 1.00096 1.67349 0
M  V30 2015 O 187.08 0.0568854 1.95817 0
M  V30 2016 H 185.66 0.718981 0.202669 0
M  V30 2017 H 188.322 1.94017 -0.185353 0
M  V30 2018 H 187.418 2.97719 0.936483 0
M  V30 2019 N 187.719 -0.156864 1.56817 0
M  V30 2020 C 188.947 -0.886316 1.86955 0
M  V30 2021 C 189.362 -1.75185 0.703975 0
M  V30 2022 O 188.719 -1.79555 -0.326552 0
M  V30 2023 C 188.77 -1.75117 3.16253 0
M  V30 2024 O 188.491 -0.920537 4.2832 0
M  V30 2025 C 189.992 -2.58905 3.59837 0
M  V30 2026 H 187.212 -0.25678 0.619923 0
M  V30 2027 H 189.756 -0.152615 2.0393 0
M  V30 2028 H 187.911 -2.43805 3.01062 0
M  V30 2029 H 188.325 -1.51337 5.02192 0
M  V30 2030 H 189.799 -3.1518 4.53172 0
M  V30 2031 H 190.276 -3.34472 2.84649 0
M  V30 2032 H 190.882 -1.95526 3.7769 0
M  V30 2033 N 189.197 -1.51736 -0.425897 0
M  V30 2034 C 190.427 -1.68549 -1.19476 0
M  V30 2035 C 190.835 -0.387288 -1.85194 0
M  V30 2036 O 190.178 0.645142 -1.71999 0
M  V30 2037 C 190.24 -2.75275 -2.31223 0
M  V30 2038 C 189.904 -4.17534 -1.8578 0
M  V30 2039 C 190.901 -5.01936 -1.35485 0
M  V30 2040 C 188.586 -4.6369 -1.93123 0
M  V30 2041 C 190.58 -6.30559 -0.931347 0
M  V30 2042 C 188.267 -5.92307 -1.50384 0
M  V30 2043 C 189.265 -6.75569 -1.00473 0
M  V30 2044 O 188.953 -8.0178 -0.583452 0
M  V30 2045 H 188.685 -0.568525 -0.365725 0
M  V30 2046 H 191.239 -1.98982 -0.509444 0
M  V30 2047 H 189.469 -2.40182 -3.03067 0
M  V30 2048 H 191.158 -2.80853 -2.93047 0
M  V30 2049 H 191.924 -4.67475 -1.29197 0
M  V30 2050 H 187.803 -3.98997 -2.30916 0
M  V30 2051 H 191.347 -6.95498 -0.541084 0
M  V30 2052 H 187.244 -6.2628 -1.56346 0
M  V30 2053 H 188.012 -8.1543 -0.708275 0
M  V30 2054 N 190.675 0.682077 -1.42076 0
M  V30 2055 C 192.091 0.994324 -1.24841 0
M  V30 2056 C 192.291 2.0096 -0.147389 0
M  V30 2057 O 191.347 2.47822 0.483782 0
M  V30 2058 C 192.66 1.50607 -2.60265 0
M  V30 2059 C 194.208 1.62421 -2.6756 0
M  V30 2060 C 194.683 2.16994 -4.03333 0
M  V30 2061 N 196.174 2.24337 -4.0525 0
M  V30 2062 C 196.909 2.67621 -5.07116 0
M  V30 2063 N 196.405 3.1041 -6.19368 0
M  V30 2064 N 198.198 2.67305 -4.94474 0
M  V30 2065 H 190.349 0.00973908 -2.12398 0
M  V30 2066 H 192.612 0.0668593 -0.945639 0
M  V30 2067 H 192.318 0.834583 -3.41654 0
M  V30 2068 H 192.192 2.48602 -2.83684 0
M  V30 2069 H 194.579 2.28678 -1.86521 0
M  V30 2070 H 194.66 0.629352 -2.47937 0
M  V30 2071 H 194.304 1.51349 -4.84826 0
M  V30 2072 H 194.234 3.17258 -4.20304 0
M  V30 2073 H 196.725 1.94158 -3.24209 0
M  V30 2074 H 197.038 3.42103 -6.92954 0
M  V30 2075 H 195.383 3.08286 -6.22884 0
M  V30 2076 H 198.574 2.33233 -4.05857 0
M  V30 2077 H 198.747 3.00718 -5.73997 0
M  V30 2078 N 192.153 1.28127 0.917671 0
M  V30 2079 C 193.085 1.07517 2.02417 0
M  V30 2080 C 194.098 0.0281099 1.62776 0
M  V30 2081 O 195.287 0.270748 1.76435 0
M  V30 2082 C 192.387 0.610957 3.33347 0
M  V30 2083 C 191.56 1.73255 4.01624 0
M  V30 2084 C 190.619 1.26238 5.10833 0
M  V30 2085 O 189.645 1.96389 5.34247 0
M  V30 2086 N 190.847 0.123448 5.80369 0
M  V30 2087 H 193.612 2.02806 2.20658 0
M  V30 2088 H 191.173 1.19827 1.08871 0
M  V30 2089 H 193.165 0.280101 4.0373 0
M  V30 2090 H 191.735 -0.24898 3.11607 0
M  V30 2091 H 190.955 2.23319 3.24842 0
M  V30 2092 H 192.243 2.48503 4.43986 0
M  V30 2093 H 191.641 -0.461847 5.63812 0
M  V30 2094 H 190.198 -0.148158 6.51632 0
M  V30 2095 N 193.631 -1.12557 1.10312 0
M  V30 2096 C 194.561 -2.20341 0.772798 0
M  V30 2097 C 195.542 -1.68198 -0.25365 0
M  V30 2098 O 196.727 -1.93831 -0.119699 0
M  V30 2099 C 193.857 -3.46709 0.202443 0
M  V30 2100 C 192.811 -4.11996 1.15943 0
M  V30 2101 C 192.137 -5.328 0.450345 0
M  V30 2102 C 193.437 -4.5828 2.50552 0
M  V30 2103 H 195.131 -2.48229 1.674 0
M  V30 2104 H 192.677 -1.19308 0.806326 0
M  V30 2105 H 194.63 -4.2138 -0.0407752 0
M  V30 2106 H 193.354 -3.18245 -0.734001 0
M  V30 2107 H 192.013 -3.39305 1.38808 0
M  V30 2108 H 191.661 -5.00602 -0.490531 0
M  V30 2109 H 191.361 -5.7743 1.08851 0
M  V30 2110 H 192.885 -6.10219 0.215642 0
M  V30 2111 H 194.299 -5.2433 2.31843 0
M  V30 2112 H 192.696 -5.13683 3.10242 0
M  V30 2113 H 193.766 -3.72329 3.10643 0
M  V30 2114 N 195.109 -0.891671 -1.2995 0
M  V30 2115 C 196.357 -0.512486 -1.95494 0
M  V30 2116 C 196.678 0.942776 -1.70695 0
M  V30 2117 O 195.948 1.66374 -1.03424 0
M  V30 2118 H 194.528 -0.186533 -0.723336 0
M  V30 2119 H 197.19 -1.13621 -1.58355 0
M  V30 2120 H 196.286 -0.688342 -3.04415 0
M  V30 2121 N 196.587 1.43421 -0.653314 0
M  V30 2122 C 197.497 2.34568 0.0388565 0
M  V30 2123 C 198.513 1.53888 0.81207 0
M  V30 2124 O 199.689 1.86539 0.759294 0
M  V30 2125 C 196.754 3.32167 0.993269 0
M  V30 2126 C 195.815 4.28751 0.216977 0
M  V30 2127 C 195.048 5.21688 1.12593 0
M  V30 2128 O 195.271 5.19052 2.36519 0
M  V30 2129 O 194.205 5.98919 0.598284 0
M  V30 2130 H 198.031 2.95251 -0.711386 0
M  V30 2131 H 195.616 1.43564 -0.413502 0
M  V30 2132 H 197.498 3.92183 1.54176 0
M  V30 2133 H 196.173 2.73987 1.72374 0
M  V30 2134 H 195.08 3.72215 -0.375101 0
M  V30 2135 H 196.413 4.89913 -0.473924 0
M  V30 2136 N 198.065 0.39524 1.52563 0
M  V30 2137 C 199.476 -0.0774719 1.86539 0
M  V30 2138 C 199.827 -1.45641 1.31466 0
M  V30 2139 O 198.952 -2.06459 0.648367 0
M  V30 2140 C 199.547 -0.147356 3.38479 0
M  V30 2141 C 198.106 -0.564373 3.72145 0
M  V30 2142 C 197.253 0.269919 2.75983 0
M  V30 2143 H 200.204 0.612876 1.46388 0
M  V30 2144 H 200.225 -0.965343 3.68051 0
M  V30 2145 H 199.737 0.856387 3.78534 0
M  V30 2146 H 197.838 -1.57527 3.37663 0
M  V30 2147 H 197.951 -0.318402 4.78041 0
M  V30 2148 H 196.315 -0.265696 2.5331 0
M  V30 2149 H 197.098 1.27175 3.18875 0
M  V30 2150 N 199.544 -1.57102 0.125237 0
M  V30 2151 C 200.79 -1.96488 -0.525753 0
M  V30 2152 C 201.145 -1.00786 -1.6389 0
M  V30 2153 O 200.438 -0.038979 -1.9156 0
M  V30 2154 C 200.632 -3.40096 -1.09862 0
M  V30 2155 C 200.461 -4.4968 -0.0425004 0
M  V30 2156 C 199.231 -5.03781 0.391463 0
M  V30 2157 C 201.429 -5.08936 0.740829 0
M  V30 2158 N 199.411 -5.96948 1.4327 0
M  V30 2159 C 200.782 -5.98105 1.6331 0
M  V30 2160 C 202.837 -4.91576 0.791029 0
M  V30 2161 C 201.54 -6.71774 2.57122 0
M  V30 2162 C 203.566 -5.6593 1.71688 0
M  V30 2163 C 202.928 -6.5479 2.59672 0
M  V30 2164 H 199.027 -0.765072 -0.161831 0
M  V30 2165 H 201.611 -1.93511 0.214801 0
M  V30 2166 H 199.782 -3.43707 -1.80887 0
M  V30 2167 H 201.514 -3.66591 -1.71444 0
M  V30 2168 H 198.269 -4.736 -0.00213584 0
M  V30 2169 H 198.693 -6.48236 1.95243 0
M  V30 2170 H 203.335 -4.22615 0.124915 0
M  V30 2171 H 201.053 -7.39977 3.24744 0
M  V30 2172 H 204.639 -5.54501 1.76125 0
M  V30 2173 H 203.519 -7.11316 3.30149 0
M  V30 2174 N 201.022 0.148545 -1.56898 0
M  V30 2175 C 202.433 0.708766 -1.72723 0
M  V30 2176 C 202.784 1.81734 -0.739395 0
M  V30 2177 O 201.909 2.16194 0.0943169 0
M  V30 2178 C 202.504 1.29245 -3.13179 0
M  V30 2179 C 201.063 1.79925 -3.30611 0
M  V30 2180 C 200.21 0.687111 -2.68652 0
M  V30 2181 H 203.161 -0.0771063 -1.58513 0
M  V30 2182 H 203.182 2.16224 -3.13093 0
M  V30 2183 H 202.694 0.485382 -3.85053 0
M  V30 2184 H 200.795 2.63203 -2.63732 0
M  V30 2185 H 200.908 1.92903 -4.38549 0
M  V30 2186 H 199.272 1.11335 -2.29078 0
M  V30 2187 H 200.055 -0.108483 -3.43129 0
M  V30 2188 N 202.5 1.5196 0.417844 0
M  V30 2189 C 203.41 1.77554 1.53336 0
M  V30 2190 C 204.426 0.660655 1.6097 0
M  V30 2191 O 205.602 0.945099 1.77848 0
M  V30 2192 C 202.667 1.91291 2.89152 0
M  V30 2193 C 201.728 3.15183 2.91475 0
M  V30 2194 C 200.961 3.28256 4.20813 0
M  V30 2195 O 201.184 2.46798 5.14244 0
M  V30 2196 O 200.118 4.21356 4.29817 0
M  V30 2197 H 203.944 2.7222 1.34647 0
M  V30 2198 H 201.529 1.36698 0.602828 0
M  V30 2199 H 203.411 2.02199 3.69721 0
M  V30 2200 H 202.086 0.998129 3.07927 0
M  V30 2201 H 200.993 3.09739 2.09791 0
M  V30 2202 H 202.326 4.06414 2.77648 0
M  V30 2203 N 203.978 -0.674533 1.42435 0
M  V30 2204 C 205.206 -1.46283 1.46317 0
M  V30 2205 C 205.621 -1.88653 0.0745836 0
M  V30 2206 O 204.978 -1.58151 -0.91074 0
M  V30 2207 C 205.029 -2.71178 2.3905 0
M  V30 2208 O 204.75 -2.30586 3.72507 0
M  V30 2209 C 206.251 -3.64738 2.51955 0
M  V30 2210 H 203.471 -0.450104 0.497642 0
M  V30 2211 H 206.015 -0.828792 1.86953 0
M  V30 2212 H 204.17 -3.3077 2.01667 0
M  V30 2213 H 204.584 -3.11241 4.22172 0
M  V30 2214 H 206.058 -4.49096 3.20962 0
M  V30 2215 H 206.535 -4.10656 1.55752 0
M  V30 2216 H 207.141 -3.11038 2.90061 0
M  V30 2217 N 205.456 -1.28612 -0.910864 0
M  V30 2218 C 206.366 -1.14643 -2.0468 0
M  V30 2219 C 207.382 -0.0723121 -1.7385 0
M  V30 2220 O 208.558 -0.282178 -1.99413 0
M  V30 2221 C 205.623 -0.812561 -3.37044 0
M  V30 2222 C 204.684 -1.96935 -3.81465 0
M  V30 2223 C 203.917 -1.65131 -5.07511 0
M  V30 2224 O 204.14 -0.567013 -5.67575 0
M  V30 2225 O 203.074 -2.49585 -5.47714 0
M  V30 2226 H 206.9 -2.1001 -2.19384 0
M  V30 2227 H 204.485 -1.07958 -1.03274 0
M  V30 2228 H 206.367 -0.640441 -4.16505 0
M  V30 2229 H 205.042 0.111426 -3.23508 0
M  V30 2230 H 203.949 -2.19664 -3.02818 0
M  V30 2231 H 205.282 -2.87414 -3.99567 0
M  V30 2232 N 206.934 1.1197 -1.10907 0
M  V30 2233 C 207.884 2.15946 -0.731538 0
M  V30 2234 C 208.868 1.58758 0.261699 0
M  V30 2235 O 210.06 1.76863 0.0696722 0
M  V30 2236 C 207.189 3.42877 -0.170299 0
M  V30 2237 C 206.275 4.07037 -1.19087 0
M  V30 2238 N 206.666 4.46135 -2.38322 0
M  V30 2239 C 204.964 4.33884 -1.03252 0
M  V30 2240 C 205.665 4.96331 -3.03366 0
M  V30 2241 N 204.641 4.9214 -2.30865 0
M  V30 2242 H 208.443 2.43947 -1.63912 0
M  V30 2243 H 205.957 1.28927 -0.987505 0
M  V30 2244 H 207.954 4.16732 0.118271 0
M  V30 2245 H 206.614 3.16343 0.731935 0
M  V30 2246 H 207.625 4.38345 -2.75815 0
M  V30 2247 H 204.302 4.17084 -0.186256 0
M  V30 2248 H 205.692 5.36257 -4.04818 0
M  V30 2249 N 208.412 0.89855 1.29475 0
M  V30 2250 C 209.828 0.594483 1.48115 0
M  V30 2251 C 210.028 -0.86431 1.82022 0
M  V30 2252 O 209.084 -1.64457 1.91599 0
M  V30 2253 C 210.397 1.51932 2.59494 0
M  V30 2254 C 211.945 1.5244 2.7337 0
M  V30 2255 C 212.42 2.43548 3.87877 0
M  V30 2256 N 213.911 2.41589 3.95208 0
M  V30 2257 C 214.646 3.08789 4.83153 0
M  V30 2258 N 214.142 3.85265 5.75798 0
M  V30 2259 N 215.935 2.97952 4.76635 0
M  V30 2260 H 208.086 1.84207 1.05742 0
M  V30 2261 H 210.349 0.789251 0.525154 0
M  V30 2262 H 210.055 2.55865 2.41301 0
M  V30 2263 H 209.929 1.23899 3.56271 0
M  V30 2264 H 212.316 0.492518 2.90961 0
M  V30 2265 H 212.397 1.8451 1.77172 0
M  V30 2266 H 212.041 3.46829 3.71041 0
M  V30 2267 H 211.971 2.08788 4.83441 0
M  V30 2268 H 214.462 1.86025 3.28943 0
M  V30 2269 H 214.775 4.33598 6.39697 0
M  V30 2270 H 213.12 3.89371 5.75687 0
M  V30 2271 H 216.311 2.37723 4.03244 0
M  V30 2272 H 216.484 3.50599 5.44962 0
M  V30 2273 N 209.89 -1.43072 0.660911 0
M  V30 2274 C 211.306 -1.56169 0.329173 0
M  V30 2275 C 211.506 -1.64317 -1.16629 0
M  V30 2276 O 210.562 -1.60245 -1.95135 0
M  V30 2277 C 211.875 -2.81873 1.04729 0
M  V30 2278 C 213.423 -2.95627 1.02828 0
M  V30 2279 C 213.898 -4.24174 1.72744 0
M  V30 2280 N 215.389 -4.31055 1.69545 0
M  V30 2281 C 216.124 -5.29304 2.20511 0
M  V30 2282 N 215.62 -6.33786 2.79799 0
M  V30 2283 N 217.413 -5.21008 2.10966 0
M  V30 2284 H 209.564 -1.36027 1.63127 0
M  V30 2285 H 211.827 -0.653823 0.686454 0
M  V30 2286 H 211.533 -2.81942 2.10242 0
M  V30 2287 H 211.407 -3.72338 0.603702 0
M  V30 2288 H 213.794 -2.95094 -0.0184742 0
M  V30 2289 H 213.875 -2.06431 1.51063 0
M  V30 2290 H 213.519 -4.25467 2.7738 0
M  V30 2291 H 213.449 -5.1228 1.2197 0
M  V30 2292 H 215.94 -3.56174 1.26288 0
M  V30 2293 H 216.253 -7.05086 3.16344 0
M  V30 2294 H 214.598 -6.34387 2.83863 0
M  V30 2295 H 217.789 -4.38301 1.64347 0
M  V30 2296 H 217.962 -5.97416 2.50993 0
M  V30 2297 N 211.368 -0.403325 -1.52352 0
M  V30 2298 C 212.779 0.0675782 -1.86578 0
M  V30 2299 C 213.13 1.44941 -1.32236 0
M  V30 2300 O 212.255 2.06112 -0.659307 0
M  V30 2301 C 212.85 0.129404 -3.38553 0
M  V30 2302 C 211.409 0.544629 -3.72439 0
M  V30 2303 C 210.556 -0.284551 -2.75836 0
M  V30 2304 H 213.507 -0.620631 -1.46061 0
M  V30 2305 H 213.528 0.94581 -3.68558 0
M  V30 2306 H 213.04 -0.87645 -3.78074 0
M  V30 2307 H 211.141 1.55734 -3.38493 0
M  V30 2308 H 211.254 0.293046 -4.78203 0
M  V30 2309 H 209.618 0.252258 -2.53448 0
M  V30 2310 H 210.401 -1.28865 -3.18196 0
M  V30 2311 O 212.885 1.59156 -0.274172 0
M  V30 2312 H 213.576 1.91425 0.295987 0
M  V30 END ATOM
M  V30 BEGIN BOND
M  V30 END BOND
M  V30 END CTAB
M  END
$$$$
