drugbank_target|O52791 4-hydroxymandelate synthase (DB07896)
 OpenBabel12092120473D

  0  0  0     0  0            999 V3000
M  V30 BEGIN CTAB
M  V30 COUNTS 5293 5345 0 0 0
M  V30 BEGIN ATOM
M  V30 1 H -0.908 1.98254 -0.117106 0
M  V30 2 N 0 1.576 0 0
M  V30 3 C 0.933 2.03868 1.02534 0
M  V30 4 C 1.911 0.928543 1.3348 0
M  V30 5 O 3.095 1.19667 1.45644 0
M  V30 6 C 0.222 2.43627 2.35294 0
M  V30 7 C -0.732 3.65373 2.2001 0
M  V30 8 S 0.101 5.13292 1.52614 0
M  V30 9 C 1.257 5.56322 2.86805 0
M  V30 10 H 1.49 2.90518 0.631377 0
M  V30 11 H -0.977 1.52953 0.210867 0
M  V30 12 H 0.981 2.67203 3.11629 0
M  V30 13 H -0.358 1.57376 2.7183 0
M  V30 14 H -1.165 3.90944 3.18086 0
M  V30 15 H -1.563 3.418 1.51819 0
M  V30 16 H 0.729 5.58782 3.83104 0
M  V30 17 H 1.672 6.56266 2.65933 0
M  V30 18 H 2.08 4.83886 2.90714 0
M  V30 19 N 1.4781 -0.272755 1.55222 0
M  V30 20 C 2.4101 -1.35946 1.8453 0
M  V30 21 C 3.4231 -1.45525 0.729818 0
M  V30 22 O 4.6121 -1.47337 1.00767 0
M  V30 23 C 1.7121 -2.74069 1.99347 0
M  V30 24 C 0.8851 -2.87079 3.30007 0
M  V30 25 C -0.0559 -4.05879 3.34886 0
M  V30 26 O -1.0299 -3.96626 4.08261 0
M  V30 27 N 0.1721 -5.17857 2.62307 0
M  V30 28 H 2.9371 -1.11149 2.78327 0
M  V30 29 H 0.4981 -0.462869 1.55142 0
M  V30 30 H 2.4901 -3.51838 1.99981 0
M  V30 31 H 1.0601 -2.91688 1.12415 0
M  V30 32 H 0.2801 -1.96193 3.41909 0
M  V30 33 H 1.5681 -2.92701 4.16177 0
M  V30 34 H 0.9661 -5.28261 2.02377 0
M  V30 35 H -0.4769 -5.93855 2.68663 0
M  V30 36 N 2.9562 -1.48159 -0.537278 0
M  V30 37 C 3.9042 -1.62573 -1.66352 0
M  V30 38 C 4.8982 -0.492366 -1.62087 0
M  V30 39 O 6.1042 -0.670847 -1.67032 0
M  V30 40 H 2.4792 -0.511992 -0.550789 0
M  V30 41 H 4.4502 -2.57176 -1.51337 0
M  V30 42 C 3.1992 -1.67583 -3.04649 0
M  V30 43 H 2.5222 -2.54151 -3.08622 0
M  V30 44 H 3.9622 -1.81713 -3.83088 0
M  V30 45 C 2.4212 -0.413039 -3.34358 0
M  V30 46 O 2.9512 0.477259 -3.98855 0
M  V30 47 N 1.1572 -0.286961 -2.8918 0
M  V30 48 H 0.7042 -1.01241 -2.36871 0
M  V30 49 H 0.6622 0.556963 -3.09427 0
M  V30 50 N 4.4343 0.785586 -1.36625 0
M  V30 51 C 5.6813 1.54362 -1.31067 0
M  V30 52 C 6.0093 1.94195 0.10893 0
M  V30 53 O 5.2643 1.63262 1.07908 0
M  V30 54 C 5.5633 2.83007 -2.1827 0
M  V30 55 C 5.2293 2.62294 -3.6676 0
M  V30 56 C 3.8913 2.56353 -4.0723 0
M  V30 57 C 6.2433 2.43371 -4.6089 0
M  V30 58 C 3.5713 2.29461 -5.39967 0
M  V30 59 C 5.9233 2.18005 -5.93849 0
M  V30 60 C 4.5873 2.105 -6.3344 0
M  V30 61 H 3.8573 0.564851 -0.479609 0
M  V30 62 H 6.5043 0.906028 -1.68711 0
M  V30 63 H 4.8093 3.51253 -1.73576 0
M  V30 64 H 6.5063 3.40817 -2.11292 0
M  V30 65 H 3.0963 2.67774 -3.34656 0
M  V30 66 H 7.2803 2.46959 -4.30494 0
M  V30 67 H 2.5363 2.22135 -5.69619 0
M  V30 68 H 6.7103 2.02359 -6.66351 0
M  V30 69 H 4.3373 1.89425 -7.36222 0
M  V30 70 N 5.9124 1.20967 1.01018 0
M  V30 71 C 6.8224 0.980157 2.13143 0
M  V30 72 C 7.8384 -0.0660665 1.73875 0
M  V30 73 O 9.0144 0.122821 2.01025 0
M  V30 74 C 6.0794 0.54216 3.42435 0
M  V30 75 C 5.1404 1.65999 3.95908 0
M  V30 76 C 4.3734 1.2428 5.19028 0
M  V30 77 O 4.5964 0.114196 5.70286 0
M  V30 78 O 3.5304 2.05271 5.65816 0
M  V30 79 H 7.3564 1.91913 2.35379 0
M  V30 80 H 4.9414 0.994099 1.11526 0
M  V30 81 H 6.8234 0.30744 4.20277 0
M  V30 82 H 5.4984 -0.36815 3.216 0
M  V30 83 H 4.4054 1.94906 3.19316 0
M  V30 84 H 5.7384 2.54753 4.21143 0
M  V30 85 N 7.3905 -1.2043 1.01659 0
M  V30 86 C 8.6395 -1.89118 0.701237 0
M  V30 87 C 8.9525 -1.79705 -0.772358 0
M  V30 88 O 10.1585 -2.43528 -1.20026 0
M  V30 89 C 8.6145 -3.39168 1.20388 0
M  V30 90 C 8.2225 -3.57166 2.70438 0
M  V30 91 C 9.9665 -4.1341 0.963953 0
M  V30 92 C 7.8735 -5.01042 3.14183 0
M  V30 93 H 6.8035 -0.708267 0.2586 0
M  V30 94 H 9.4545 -1.36239 1.22927 0
M  V30 95 H 7.8365 -3.91369 0.603824 0
M  V30 96 H 9.0105 -3.15351 3.35992 0
M  V30 97 H 7.3255 -2.96294 2.92572 0
M  V30 98 H 9.9225 -5.19491 1.26621 0
M  V30 99 H 10.2655 -4.16181 -0.099578 0
M  V30 100 H 10.7985 -3.67309 1.52738 0
M  V30 101 H 7.5375 -5.03426 4.19812 0
M  V30 102 H 7.0575 -5.43668 2.53348 0
M  V30 103 H 8.7365 -5.69623 3.0682 0
M  V30 104 N 8.8686 -0.792821 -1.36206 0
M  V30 105 C 10.1456 -0.290627 -1.93429 0
M  V30 106 C 10.5256 1.21773 -1.72437 0
M  V30 107 O 9.8736 2.0108 -1.08531 0
M  V30 108 C 10.0836 -0.686973 -3.42172 0
M  V30 109 C 11.4316 -0.668643 -4.19302 0
M  V30 110 O 12.4556 -0.627658 -3.50626 0
M  V30 111 O 11.3146 -0.714597 -5.41808 0
M  V30 112 H 8.4086 -0.0727927 -0.82379 0
M  V30 113 H 10.9546 -0.875593 -1.45367 0
M  V30 114 H 9.7266 -1.72711 -3.51122 0
M  V30 115 H 9.3496 -0.0760733 -3.97527 0
M  V30 116 N 10.3467 1.47872 -0.545128 0
M  V30 117 C 11.5767 2.06589 -0.0210534 0
M  V30 118 C 11.9847 1.39997 1.27269 0
M  V30 119 O 11.3277 0.486421 1.77143 0
M  V30 120 C 11.3897 3.58574 0.257933 0
M  V30 121 C 11.0537 4.47132 -0.944573 0
M  V30 122 C 12.0507 4.85986 -1.84699 0
M  V30 123 C 9.7357 4.88821 -1.15584 0
M  V30 124 C 11.7297 5.65314 -2.94446 0
M  V30 125 C 9.4167 5.67916 -2.25642 0
M  V30 126 C 10.4147 6.06073 -3.14905 0
M  V30 127 O 10.1027 6.83578 -4.23057 0
M  V30 128 H 9.8347 0.674971 -0.0372899 0
M  V30 129 H 12.3887 1.91037 -0.754599 0
M  V30 130 H 10.6187 3.72295 1.04564 0
M  V30 131 H 12.3077 3.99356 0.72592 0
M  V30 132 H 13.0737 4.54388 -1.69577 0
M  V30 133 H 8.9527 4.58595 -0.470279 0
M  V30 134 H 12.4967 5.95016 -3.64145 0
M  V30 135 H 8.3937 5.98927 -2.40742 0
M  V30 136 H 9.1617 7.01954 -4.20954 0
M  V30 137 N 11.8248 0.280983 1.55075 0
M  V30 138 C 13.0708 -0.33461 2.00021 0
M  V30 139 C 13.4038 -1.55063 1.16915 0
M  V30 140 O 12.6788 -1.93006 0.240646 0
M  V30 141 C 12.9618 -0.711007 3.53011 0
M  V30 142 C 12.8148 0.512766 4.46868 0
M  V30 143 C 14.1338 -1.54522 4.12081 0
M  V30 144 H 11.2528 -0.120147 0.727141 0
M  V30 145 H 13.8948 0.389097 1.85973 0
M  V30 146 H 12.0448 -1.32761 3.65112 0
M  V30 147 H 13.7168 1.15131 4.46702 0
M  V30 148 H 11.9598 1.14975 4.18286 0
M  V30 149 H 12.6308 0.205556 5.51617 0
M  V30 150 H 15.1068 -1.02442 4.03293 0
M  V30 151 H 13.9828 -1.77739 5.19327 0
M  V30 152 H 14.2438 -2.52813 3.62682 0
M  V30 153 N 13.3029 -1.57598 0.00835791 0
M  V30 154 C 14.2129 -2.12385 -0.996487 0
M  V30 155 C 15.2289 -1.07108 -1.37127 0
M  V30 156 O 16.4049 -1.39055 -1.4569 0
M  V30 157 C 13.4699 -2.62314 -2.26699 0
M  V30 158 C 12.5309 -3.82225 -1.95456 0
M  V30 159 C 11.7639 -4.29763 -3.16449 0
M  V30 160 O 11.9869 -3.76584 -4.28416 0
M  V30 161 O 10.9209 -5.21832 -2.99958 0
M  V30 162 H 14.7469 -2.98479 -0.560725 0
M  V30 163 H 12.3319 -1.47903 -0.210987 0
M  V30 164 H 14.2139 -2.94589 -3.01322 0
M  V30 165 H 12.8889 -1.79313 -2.69497 0
M  V30 166 H 11.7959 -3.54909 -1.18282 0
M  V30 167 H 13.1289 -4.66324 -1.57489 0
M  V30 168 N 14.781 0.264519 -1.55364 0
M  V30 169 C 15.714 1.35297 -1.83766 0
M  V30 170 C 16.692 1.47171 -0.691336 0
M  V30 171 O 17.876 1.63663 -0.935238 0
M  V30 172 C 15.003 2.72847 -2.00679 0
M  V30 173 C 14.049 2.78214 -3.23263 0
M  V30 174 S 14.882 2.36601 -4.80396 0
M  V30 175 C 16.038 3.7611 -5.00292 0
M  V30 176 H 16.271 1.11003 -2.758 0
M  V30 177 H 13.804 0.464596 -1.47244 0
M  V30 178 H 15.762 3.52057 -2.11108 0
M  V30 179 H 14.423 2.94388 -1.09518 0
M  V30 180 H 13.616 3.7919 -3.3201 0
M  V30 181 H 13.218 2.07034 -3.11469 0
M  V30 182 H 15.51 4.71457 -4.86554 0
M  V30 183 H 16.453 3.7231 -6.02321 0
M  V30 184 H 16.861 3.67806 -4.28228 0
M  V30 185 N 16.2591 1.48442 0.529413 0
M  V30 186 C 17.4891 1.59919 1.30804 0
M  V30 187 C 17.8971 0.258792 1.87422 0
M  V30 188 O 17.2401 -0.762096 1.67146 0
M  V30 189 C 17.3021 2.58693 2.49636 0
M  V30 190 C 16.9661 4.03745 2.14101 0
M  V30 191 C 17.9631 4.9141 1.6974 0
M  V30 192 C 15.6481 4.49285 2.24607 0
M  V30 193 C 17.6421 6.22645 1.36351 0
M  V30 194 C 15.3291 5.8054 1.9083 0
M  V30 195 C 16.3271 6.67043 1.46773 0
M  V30 196 O 16.0151 7.95856 1.1344 0
M  V30 197 H 15.7471 0.541981 0.404021 0
M  V30 198 H 18.3011 1.95 0.645309 0
M  V30 199 H 16.5311 2.18734 3.18892 0
M  V30 200 H 18.2201 2.59999 3.11698 0
M  V30 201 H 18.9861 4.57465 1.61094 0
M  V30 202 H 14.8651 3.82142 2.57854 0
M  V30 203 H 18.4091 6.90119 1.01891 0
M  V30 204 H 14.3061 6.14022 1.99117 0
M  V30 205 H 15.0741 8.08613 1.26832 0
M  V30 206 N 17.7372 -0.778329 1.37039 0
M  V30 207 C 18.9832 -1.53892 1.32079 0
M  V30 208 C 19.3162 -1.9396 -0.0965386 0
M  V30 209 O 18.5912 -1.63568 -1.05242 0
M  V30 210 C 18.8742 -2.80847 2.25382 0
M  V30 211 C 18.7272 -2.47076 3.75864 0
M  V30 212 C 20.0462 -3.82741 2.1725 0
M  V30 213 H 17.1652 -0.558303 0.48111 0
M  V30 214 H 19.8072 -0.893397 1.67685 0
M  V30 215 H 17.9572 -3.35931 1.95148 0
M  V30 216 H 19.6292 -1.97957 4.16666 0
M  V30 217 H 17.8722 -1.79863 3.94755 0
M  V30 218 H 18.5432 -3.37798 4.36574 0
M  V30 219 H 21.0192 -3.37133 2.43887 0
M  V30 220 H 19.8952 -4.69303 2.84686 0
M  V30 221 H 20.1562 -4.2652 1.16331 0
M  V30 222 N 19.2153 -1.21501 -1.00376 0
M  V30 223 C 20.1253 -0.991447 -2.12621 0
M  V30 224 C 21.1413 0.0568446 -1.73907 0
M  V30 225 O 22.3173 -0.13348 -2.00957 0
M  V30 226 C 19.3823 -0.560312 -3.42142 0
M  V30 227 C 18.4433 -1.68096 -3.95022 0
M  V30 228 C 17.6763 -1.2703 -5.18362 0
M  V30 229 O 17.8993 -0.144438 -5.70217 0
M  V30 230 O 16.8333 -2.08269 -5.64719 0
M  V30 231 H 20.6593 -1.93158 -2.34358 0
M  V30 232 H 18.2443 -0.999999 -1.10997 0
M  V30 233 H 20.1263 -0.329724 -4.20108 0
M  V30 234 H 18.8013 0.351089 -3.2179 0
M  V30 235 H 17.7083 -1.96597 -3.18278 0
M  V30 236 H 19.0413 -2.56983 -4.19786 0
M  V30 237 N 20.6934 1.19889 -1.02296 0
M  V30 238 C 21.6414 2.24938 -0.592081 0
M  V30 239 C 22.6354 1.65257 0.372357 0
M  V30 240 O 23.8414 1.78371 0.241583 0
M  V30 241 H 20.2164 0.731787 -0.173182 0
M  V30 242 H 22.1874 2.58603 -1.48885 0
M  V30 243 C 20.9364 3.47668 0.047351 0
M  V30 244 H 20.2594 3.93875 -0.685772 0
M  V30 245 H 21.6994 4.22852 0.311862 0
M  V30 246 C 20.1584 3.11136 1.29212 0
M  V30 247 O 20.6884 3.2325 2.38479 0
M  V30 248 N 18.8944 2.65625 1.17863 0
M  V30 249 H 18.4414 2.55968 0.289493 0
M  V30 250 H 18.3994 2.41553 2.01245 0
M  V30 251 N 22.1715 0.800033 1.35784 0
M  V30 252 C 23.1015 0.220184 2.3246 0
M  V30 253 C 24.0825 -0.65073 1.57161 0
M  V30 254 O 25.2675 -0.582359 1.85263 0
M  V30 255 C 22.3975 -0.637353 3.41402 0
M  V30 256 C 21.3515 0.134531 4.27789 0
M  V30 257 C 20.6775 -0.844285 5.27992 0
M  V30 258 C 21.9775 1.32979 5.05088 0
M  V30 259 H 23.6715 1.02787 2.81203 0
M  V30 260 H 21.2175 0.495717 1.35199 0
M  V30 261 H 23.1705 -1.05302 4.08031 0
M  V30 262 H 21.8945 -1.47785 2.91251 0
M  V30 263 H 20.5535 0.531296 3.6273 0
M  V30 264 H 20.2015 -1.68011 4.74111 0
M  V30 265 H 19.9015 -0.332184 5.8666 0
M  V30 266 H 21.4255 -1.2583 5.97494 0
M  V30 267 H 22.8395 0.98934 5.64699 0
M  V30 268 H 21.2365 1.77593 5.7322 0
M  V30 269 H 22.3065 2.11978 4.36111 0
M  V30 270 N 23.6496 -1.47581 0.552962 0
M  V30 271 C 24.5596 -2.33743 -0.200353 0
M  V30 272 C 25.5756 -1.47928 -0.916151 0
M  V30 273 O 26.7516 -1.80865 -0.885993 0
M  V30 274 C 23.8166 -3.24536 -1.21973 0
M  V30 275 C 22.8776 -4.26238 -0.511819 0
M  V30 276 C 22.1106 -5.12693 -1.48263 0
M  V30 277 O 22.3336 -5.01525 -2.71714 0
M  V30 278 O 21.2676 -5.93375 -1.00945 0
M  V30 279 H 25.0936 -2.9945 0.506304 0
M  V30 280 H 22.6786 -1.46071 0.313622 0
M  V30 281 H 24.5606 -3.80631 -1.80827 0
M  V30 282 H 23.2356 -2.61462 -1.90839 0
M  V30 283 H 22.1426 -3.73914 0.117799 0
M  V30 284 H 23.4756 -4.92014 0.135308 0
M  V30 285 N 25.1277 -0.289203 -1.54924 0
M  V30 286 C 26.3737 0.323998 -2.00195 0
M  V30 287 C 26.7067 1.54441 -1.17735 0
M  V30 288 O 25.9817 1.92875 -0.250878 0
M  V30 289 C 26.2647 0.692276 -3.53383 0
M  V30 290 C 26.1177 -0.536457 -4.46589 0
M  V30 291 C 27.4367 1.52335 -4.12895 0
M  V30 292 H 24.5557 0.116289 -0.727768 0
M  V30 293 H 27.1977 -0.398954 -1.85764 0
M  V30 294 H 25.3477 1.30822 -3.65811 0
M  V30 295 H 27.0197 -1.17499 -4.46085 0
M  V30 296 H 25.2627 -1.17192 -4.1767 0
M  V30 297 H 25.9337 -0.234806 -5.515 0
M  V30 298 H 28.4097 1.00302 -4.0383 0
M  V30 299 H 27.2857 1.74982 -5.20262 0
M  V30 300 H 27.5467 2.50886 -3.64018 0
M  V30 301 N 26.6058 1.57591 -0.0167156 0
M  V30 302 C 27.5688 2.08393 0.954204 0
M  V30 303 C 28.5688 0.996531 1.26198 0
M  V30 304 O 29.7588 1.25858 1.20438 0
M  V30 305 C 26.8908 2.5394 2.27436 0
M  V30 306 H 28.0838 2.95455 0.514451 0
M  V30 307 H 25.6368 1.54582 0.231089 0
M  V30 308 H 26.3718 1.70171 2.76066 0
M  V30 309 H 26.1568 3.33371 2.06412 0
M  V30 310 H 27.6468 2.93512 2.97053 0
M  V30 311 N 28.0839 -0.256276 1.55502 0
M  V30 312 C 29.0469 -1.30047 1.88734 0
M  V30 313 C 30.0469 -1.4154 0.763086 0
M  V30 314 O 31.2369 -1.40403 1.03115 0
M  V30 315 C 28.3689 -2.67953 2.10747 0
M  V30 316 H 29.5619 -1.01802 2.82093 0
M  V30 317 H 27.1149 -0.495134 1.4825 0
M  V30 318 H 27.8499 -3.01351 1.19825 0
M  V30 319 H 27.6349 -2.60993 2.92617 0
M  V30 320 H 29.1249 -3.43368 2.37673 0
M  V30 321 N 29.562 -1.4872 -0.521534 0
M  V30 322 C 30.809 -1.57168 -1.27689 0
M  V30 323 C 31.137 -0.249275 -1.92896 0
M  V30 324 O 30.392 0.761162 -1.80291 0
M  V30 325 C 30.691 -2.66497 -2.38148 0
M  V30 326 C 30.357 -4.08664 -1.90538 0
M  V30 327 C 29.019 -4.47357 -1.77271 0
M  V30 328 C 31.371 -4.97724 -1.54663 0
M  V30 329 C 28.699 -5.72905 -1.26478 0
M  V30 330 C 31.051 -6.2377 -1.05329 0
M  V30 331 C 29.715 -6.61311 -0.906861 0
M  V30 332 H 28.985 -0.575117 -0.467249 0
M  V30 333 H 31.632 -1.82472 -0.581051 0
M  V30 334 H 29.937 -2.35085 -3.13437 0
M  V30 335 H 31.634 -2.70246 -2.96257 0
M  V30 336 H 28.224 -3.78111 -2.01816 0
M  V30 337 H 32.408 -4.68501 -1.63768 0
M  V30 338 H 27.664 -6.00709 -1.13835 0
M  V30 339 H 31.838 -6.9217 -0.76644 0
M  V30 340 H 29.465 -7.5848 -0.511083 0
M  V30 341 N 31.0401 0.771051 -1.3745 0
M  V30 342 C 32.2651 1.56529 -1.36065 0
M  V30 343 C 32.6901 1.88029 0.0515859 0
M  V30 344 O 32.0481 1.49282 1.02882 0
M  V30 345 C 32.0961 2.85187 -2.20683 0
M  V30 346 O 31.2001 3.79593 -1.61193 0
M  V30 347 H 30.5411 0.47411 -0.464883 0
M  V30 348 H 33.0711 0.954269 -1.80983 0
M  V30 349 H 33.0811 3.34283 -2.33921 0
M  V30 350 H 31.7561 2.61588 -3.23334 0
M  V30 351 H 30.3331 3.38239 -1.56999 0
M  V30 352 N 32.5182 1.22032 0.997298 0
M  V30 353 C 33.7642 1.05382 1.73972 0
M  V30 354 C 34.1192 -0.407419 1.88037 0
M  V30 355 O 33.4122 -1.29811 1.40924 0
M  V30 356 C 33.6062 1.69345 3.14733 0
M  V30 357 C 33.4352 3.21537 3.14395 0
M  V30 358 C 32.2052 3.9062 3.20537 0
M  V30 359 C 34.4032 4.18527 2.98897 0
M  V30 360 N 32.3852 5.29935 3.09906 0
M  V30 361 C 33.7562 5.44645 2.96247 0
M  V30 362 C 35.8112 4.09476 2.83255 0
M  V30 363 C 34.5142 6.62752 2.79557 0
M  V30 364 C 36.5402 5.27228 2.67926 0
M  V30 365 C 35.9022 6.52262 2.65959 0
M  V30 366 H 32.0012 0.440018 0.646458 0
M  V30 367 H 34.5852 1.54505 1.18475 0
M  V30 368 H 32.7562 1.22778 3.68484 0
M  V30 369 H 34.4882 1.45828 3.77513 0
M  V30 370 H 31.2432 3.41592 3.28043 0
M  V30 371 H 31.6672 6.02926 3.07912 0
M  V30 372 H 36.3092 3.13598 2.83577 0
M  V30 373 H 34.0272 7.58783 2.77982 0
M  V30 374 H 37.6132 5.22053 2.56812 0
M  V30 375 H 36.4932 7.41844 2.54239 0
M  V30 376 N 33.9963 -1.19345 1.0293 0
M  V30 377 C 35.2423 -1.89318 0.727083 0
M  V30 378 C 35.5753 -1.79446 -0.742483 0
M  V30 379 O 34.8503 -1.1871 -1.54072 0
M  V30 380 C 35.1333 -3.40238 1.17942 0
M  V30 381 C 34.9863 -3.58979 2.71024 0
M  V30 382 C 36.3053 -4.33479 0.760548 0
M  V30 383 H 33.4243 -0.687475 0.265606 0
M  V30 384 H 36.0663 -1.40477 1.2793 0
M  V30 385 H 34.2163 -3.81964 0.709608 0
M  V30 386 H 35.8883 -3.26421 3.25955 0
M  V30 387 H 34.1313 -3.02018 3.11396 0
M  V30 388 H 34.8023 -4.64823 2.9773 0
M  V30 389 H 37.2783 -3.99469 1.16464 0
M  V30 390 H 36.1543 -5.37664 1.10493 0
M  V30 391 H 36.4153 -4.40813 -0.337063 0
M  V30 392 N 35.4744 -0.807222 -1.35358 0
M  V30 393 C 36.7514 -0.311126 -1.9311 0
M  V30 394 C 37.1314 1.19937 -1.73719 0
M  V30 395 O 36.4794 1.99918 -1.10657 0
M  V30 396 C 36.6894 -0.723226 -3.41424 0
M  V30 397 C 38.0374 -0.713078 -4.18569 0
M  V30 398 O 39.0614 -0.664811 -3.49941 0
M  V30 399 O 37.9204 -0.772022 -5.41019 0
M  V30 400 H 35.0144 -0.081526 -0.822972 0
M  V30 401 H 37.5604 -0.890962 -1.4443 0
M  V30 402 H 36.3324 -1.76426 -3.4927 0
M  V30 403 H 35.9554 -0.118232 -3.97424 0
M  V30 404 N 36.9525 1.47285 -0.560781 0
M  V30 405 C 37.8995 2.30058 0.18491 0
M  V30 406 C 38.8695 1.39281 0.904986 0
M  V30 407 O 40.0545 1.68241 0.899979 0
M  V30 408 C 37.1945 3.23317 1.20666 0
M  V30 409 C 36.3075 4.29186 0.492285 0
M  V30 410 C 35.4425 5.09592 1.49964 0
M  V30 411 C 34.4815 6.07232 0.770439 0
M  V30 412 N 33.6185 6.80584 1.72479 0
M  V30 413 H 38.4585 2.93302 -0.527048 0
M  V30 414 H 35.9955 1.44568 -0.271738 0
M  V30 415 H 37.9535 3.75811 1.81168 0
M  V30 416 H 36.5835 2.61929 1.88661 0
M  V30 417 H 35.6355 3.7972 -0.227333 0
M  V30 418 H 36.9475 4.98738 -0.0787929 0
M  V30 419 H 36.1015 5.66254 2.17809 0
M  V30 420 H 34.8405 4.3995 2.10464 0
M  V30 421 H 33.8455 5.49745 0.0780846 0
M  V30 422 H 35.0705 6.78884 0.171134 0
M  V30 423 H 33.0165 6.1367 2.3183 0
M  V30 424 H 32.9335 7.46319 1.20596 0
M  V30 425 H 34.2015 7.41818 2.39428 0
M  V30 426 N 38.4306 0.297415 1.54768 0
M  V30 427 C 39.6606 -0.315165 2.04182 0
M  V30 428 C 40.0686 -1.4834 1.17439 0
M  V30 429 O 39.4116 -1.82695 0.191891 0
M  V30 430 C 39.4736 -0.837583 3.49607 0
M  V30 431 C 39.1376 0.204912 4.5654 0
M  V30 432 C 40.1346 1.03214 5.09552 0
M  V30 433 C 37.8196 0.345578 5.0111 0
M  V30 434 C 39.8136 1.986 6.05671 0
M  V30 435 C 37.5006 1.30289 5.97049 0
M  V30 436 C 38.4986 2.12159 6.49213 0
M  V30 437 O 38.1866 3.06268 7.43273 0
M  V30 438 H 37.9186 -0.0729646 0.672051 0
M  V30 439 H 40.4726 0.433907 2.00765 0
M  V30 440 H 38.7026 -1.63712 3.50336 0
M  V30 441 H 40.3916 -1.36566 3.82236 0
M  V30 442 H 41.1576 0.934312 4.75916 0
M  V30 443 H 37.0366 -0.28171 4.60138 0
M  V30 444 H 40.5806 2.62542 6.46311 0
M  V30 445 H 36.4776 1.40145 6.30103 0
M  V30 446 H 37.2456 3.01205 7.61064 0
M  V30 447 N 39.9087 -1.5758 0.0250728 0
M  V30 448 C 40.8717 -2.08896 -0.943139 0
M  V30 449 C 41.8717 -1.00321 -1.25668 0
M  V30 450 O 43.0617 -1.26495 -1.19769 0
M  V30 451 C 40.1937 -2.55143 -2.26086 0
M  V30 452 H 41.3867 -2.95723 -0.498775 0
M  V30 453 H 38.9397 -1.54703 -0.222888 0
M  V30 454 H 39.6747 -1.71633 -2.75159 0
M  V30 455 H 39.4597 -3.34461 -2.04641 0
M  V30 456 H 40.9497 -2.95083 -2.95492 0
M  V30 457 N 41.3868 0.248026 -1.55636 0
M  V30 458 C 42.6338 0.976224 -1.77415 0
M  V30 459 C 42.9618 1.85361 -0.589193 0
M  V30 460 O 42.2168 1.90973 0.427529 0
M  V30 461 C 42.5158 1.86819 -3.04686 0
M  V30 462 C 42.1818 1.14625 -4.36087 0
M  V30 463 C 40.8438 0.946723 -4.71795 0
M  V30 464 C 43.1958 0.634463 -5.17324 0
M  V30 465 C 40.5238 0.223091 -5.86276 0
M  V30 466 C 42.8758 -0.0756959 -6.32555 0
M  V30 467 C 41.5398 -0.286711 -6.66884 0
M  V30 468 H 40.8098 0.357226 -0.649208 0
M  V30 469 H 43.4568 0.246415 -1.89908 0
M  V30 470 H 41.7618 2.66502 -2.872 0
M  V30 471 H 43.4588 2.43329 -3.18735 0
M  V30 472 H 40.0488 1.3117 -4.08035 0
M  V30 473 H 44.2328 0.77616 -4.90193 0
M  V30 474 H 39.4888 0.0491185 -6.1138 0
M  V30 475 H 43.6628 -0.479899 -6.94745 0
M  V30 476 H 41.2898 -0.849389 -7.5544 0
M  V30 477 N 42.8649 1.48995 0.513639 0
M  V30 478 C 43.8279 1.64229 1.59879 0
M  V30 479 C 44.8279 0.514696 1.5234 0
M  V30 480 O 46.0179 0.78087 1.55718 0
M  V30 481 C 43.1499 1.62783 2.99524 0
M  V30 482 H 44.3429 2.61004 1.47705 0
M  V30 483 H 41.8959 1.37837 0.736936 0
M  V30 484 H 42.6309 0.675461 3.17188 0
M  V30 485 H 42.4159 2.4466 3.06404 0
M  V30 486 H 43.9059 1.76669 3.78388 0
M  V30 487 N 44.343 -0.763751 1.37857 0
M  V30 488 C 45.589 -1.52483 1.33704 0
M  V30 489 C 45.922 -1.94051 -0.0759612 0
M  V30 490 O 45.197 -1.64675 -1.03501 0
M  V30 491 C 45.48 -2.78441 2.28348 0
M  V30 492 C 45.333 -2.43075 3.78463 0
M  V30 493 C 46.652 -3.80415 2.21298 0
M  V30 494 H 43.771 -0.553169 0.487005 0
M  V30 495 H 46.413 -0.875562 1.68624 0
M  V30 496 H 44.563 -3.33842 1.987 0
M  V30 497 H 46.235 -1.93527 4.18742 0
M  V30 498 H 44.478 -1.75666 3.96641 0
M  V30 499 H 45.149 -3.33149 4.40132 0
M  V30 500 H 47.625 -3.34527 2.47449 0
M  V30 501 H 46.501 -4.66257 2.89647 0
M  V30 502 H 46.762 -4.25262 1.20849 0
M  V30 503 N 45.8211 -1.22559 -0.990812 0
M  V30 504 C 46.7841 -0.998863 -2.0629 0
M  V30 505 C 47.7841 0.0354834 -1.60761 0
M  V30 506 O 48.9741 -0.203231 -1.7301 0
M  V30 507 C 46.1061 -0.509203 -3.37076 0
M  V30 508 H 47.2991 -1.95014 -2.27837 0
M  V30 509 H 44.8521 -1.04456 -1.16269 0
M  V30 510 H 45.5871 0.446335 -3.21214 0
M  V30 511 H 45.3721 -1.25547 -3.71457 0
M  V30 512 H 46.8621 -0.370888 -4.1595 0
M  V30 513 N 47.2992 1.18797 -1.03562 0
M  V30 514 C 48.5472 1.88278 -0.734569 0
M  V30 515 C 48.8682 1.8043 0.739586 0
M  V30 516 O 48.1382 1.21925 1.53333 0
M  V30 517 H 46.7182 0.696991 -0.268725 0
M  V30 518 H 49.3802 1.44192 -1.31129 0
M  V30 519 H 48.4762 2.94443 -1.03489 0
M  V30 520 N 48.7773 0.814389 1.34928 0
M  V30 521 C 50.0053 0.411136 2.02774 0
M  V30 522 C 50.4203 -0.980316 1.61354 0
M  V30 523 O 49.7773 -1.63299 0.814847 0
M  V30 524 C 49.8283 0.493865 3.58111 0
M  V30 525 O 49.5493 1.83047 3.98027 0
M  V30 526 C 51.0503 0.0844174 4.4322 0
M  V30 527 H 48.2703 0.166037 0.650133 0
M  V30 528 H 50.8143 1.10018 1.72384 0
M  V30 529 H 48.9693 -0.147006 3.87121 0
M  V30 530 H 49.3833 1.79872 4.92693 0
M  V30 531 H 50.8573 0.193404 5.51661 0
M  V30 532 H 51.3343 -0.97113 4.28329 0
M  V30 533 H 51.9403 0.69875 4.19521 0
M  V30 534 N 50.2554 -1.46986 0.568584 0
M  V30 535 C 51.4804 -2.07335 0.0520528 0
M  V30 536 C 51.9054 -1.41675 -1.23733 0
M  V30 537 O 51.2634 -0.495623 -1.74394 0
M  V30 538 C 51.3114 -3.60417 -0.11501 0
M  V30 539 O 50.4154 -3.95309 -1.17492 0
M  V30 540 H 49.7564 -0.661597 0.0564385 0
M  V30 541 H 52.2864 -1.88837 0.787507 0
M  V30 542 H 52.2964 -4.06698 -0.325644 0
M  V30 543 H 50.9714 -4.07601 0.826675 0
M  V30 544 H 49.5484 -3.60757 -0.943869 0
M  V30 545 N 51.7335 -0.305618 -1.54608 0
M  V30 546 C 53.1495 0.0476228 -1.59529 0
M  V30 547 C 53.3495 1.52025 -1.32252 0
M  V30 548 O 52.4055 2.27368 -1.09818 0
M  V30 549 C 53.7185 -0.354471 -2.98603 0
M  V30 550 C 55.2665 -0.303622 -3.11524 0
M  V30 551 C 55.7415 -0.680608 -4.52915 0
M  V30 552 N 57.2325 -0.63332 -4.5885 0
M  V30 553 C 57.9675 -0.897432 -5.66334 0
M  V30 554 N 57.4635 -1.22775 -6.81834 0
M  V30 555 N 59.2565 -0.824186 -5.56025 0
M  V30 556 H 51.4075 -1.2653 -1.70599 0
M  V30 557 H 53.6705 -0.513291 -0.797017 0
M  V30 558 H 53.3765 -1.3798 -3.23503 0
M  V30 559 H 53.2505 0.289568 -3.76087 0
M  V30 560 H 55.6375 0.712472 -2.8637 0
M  V30 561 H 55.7185 -0.982348 -2.36185 0
M  V30 562 H 55.3625 -1.69453 -4.78799 0
M  V30 563 H 55.2925 0.0202385 -5.26596 0
M  V30 564 H 57.7835 -0.389138 -3.75891 0
M  V30 565 H 58.0965 -1.41513 -7.59733 0
M  V30 566 H 56.4415 -1.26583 -6.83375 0
M  V30 567 H 59.6325 -0.565748 -4.64669 0
M  V30 568 H 59.8055 -1.03338 -6.39707 0
M  V30 569 N 53.2116 1.57565 -0.0334293 0
M  V30 570 C 54.4366 1.96689 0.657895 0
M  V30 571 C 54.8616 0.910057 1.64619 0
M  V30 572 O 54.2196 -0.128598 1.80843 0
M  V30 573 C 54.2676 3.34905 1.33683 0
M  V30 574 O 53.3716 3.31574 2.45219 0
M  V30 575 H 52.7126 0.641205 0.172489 0
M  V30 576 H 55.2426 2.04372 -0.0965621 0
M  V30 577 H 55.2526 3.71234 1.69262 0
M  V30 578 H 53.9276 4.11366 0.612411 0
M  V30 579 H 52.5046 3.06968 2.11719 0
M  V30 580 N 54.6897 -0.239769 1.55765 0
M  V30 581 C 55.6527 -1.28038 1.90103 0
M  V30 582 C 56.6527 -1.40723 0.778055 0
M  V30 583 O 57.8427 -1.39301 1.04599 0
M  V30 584 C 54.9747 -2.65702 2.13577 0
M  V30 585 H 56.1677 -0.988048 2.83157 0
M  V30 586 H 53.7207 -0.479382 1.48767 0
M  V30 587 H 54.4557 -3.00063 1.23015 0
M  V30 588 H 54.2407 -2.57875 2.95369 0
M  V30 589 H 55.7307 -3.40828 2.41301 0
M  V30 590 N 56.1678 -1.49265 -0.50573 0
M  V30 591 C 57.4448 -1.49012 -1.26707 0
M  V30 592 C 57.8248 -0.215205 -2.1 0
M  V30 593 O 57.1728 0.802547 -2.13943 0
M  V30 594 C 57.3828 -2.7663 -2.12783 0
M  V30 595 C 58.7308 -3.25932 -2.72127 0
M  V30 596 O 59.7548 -2.77715 -2.23054 0
M  V30 597 O 58.6138 -4.09897 -3.61451 0
M  V30 598 H 55.7078 -0.596197 -0.57313 0
M  V30 599 H 58.2538 -1.61524 -0.52039 0
M  V30 600 H 57.0258 -3.60916 -1.5118 0
M  V30 601 H 56.6488 -2.66956 -2.94653 0
M  V30 602 N 57.6459 0.756429 -1.3826 0
M  V30 603 C 58.5959 1.86069 -1.31766 0
M  V30 604 C 59.5799 1.59621 -0.202483 0
M  V30 605 O 60.7719 1.7149 -0.438211 0
M  V30 606 C 57.9009 3.23742 -1.1422 0
M  V30 607 C 56.9869 3.56091 -2.30348 0
M  V30 608 N 57.3779 3.59517 -3.55783 0
M  V30 609 C 55.6759 3.86341 -2.22838 0
M  V30 610 C 56.3769 3.89052 -4.32451 0
M  V30 611 N 55.3529 4.05736 -3.61772 0
M  V30 612 H 59.1549 1.86992 -2.26741 0
M  V30 613 H 56.6689 0.953643 -1.31451 0
M  V30 614 H 58.6659 4.02761 -1.07652 0
M  V30 615 H 57.3259 3.24073 -0.201763 0
M  V30 616 H 58.3369 3.41347 -3.89491 0
M  V30 617 H 55.0139 3.94404 -1.36937 0
M  V30 618 H 56.4039 3.98349 -5.4108 0
M  V30 619 N 59.124 1.23083 0.984299 0
M  V30 620 C 60.54 0.992637 1.24975 0
M  V30 621 C 60.74 -0.308618 1.99123 0
M  V30 622 O 59.796 -1.02905 2.30579 0
M  V30 623 C 61.109 2.19698 2.05312 0
M  V30 624 C 62.657 2.24147 2.18465 0
M  V30 625 C 63.132 3.44157 3.02192 0
M  V30 626 N 64.623 3.44372 3.09777 0
M  V30 627 C 65.358 4.33886 3.74874 0
M  V30 628 N 64.854 5.3363 4.41827 0
M  V30 629 N 66.647 4.21639 3.71721 0
M  V30 630 H 58.798 2.06731 0.487453 0
M  V30 631 H 61.061 0.906339 0.277944 0
M  V30 632 H 60.767 3.1411 1.58201 0
M  V30 633 H 60.641 2.20465 3.06064 0
M  V30 634 H 63.028 1.30277 2.64786 0
M  V30 635 H 63.109 2.27415 1.17115 0
M  V30 636 H 62.753 4.38332 2.56568 0
M  V30 637 H 62.683 3.3813 4.03702 0
M  V30 638 H 65.174 2.72201 2.62135 0
M  V30 639 H 65.487 5.98196 4.89266 0
M  V30 640 H 63.832 5.37534 4.40548 0
M  V30 641 H 67.023 3.42962 3.18582 0
M  V30 642 H 67.196 4.91604 4.22173 0
M  V30 643 N 60.6021 -1.18246 1.0419 0
M  V30 644 C 61.8271 -1.92736 0.765996 0
M  V30 645 C 62.2521 -1.75728 -0.67091 0
M  V30 646 O 61.6101 -1.06825 -1.46486 0
M  V30 647 C 61.6581 -3.42148 1.13875 0
M  V30 648 O 60.7621 -4.11548 0.264954 0
M  V30 649 H 60.1031 -0.601238 0.281797 0
M  V30 650 H 62.6331 -1.49942 1.39207 0
M  V30 651 H 62.6431 -3.92858 1.1012 0
M  V30 652 H 61.3181 -3.53848 2.18551 0
M  V30 653 H 59.8951 -3.71137 0.362226 0
M  V30 654 N 62.0802 -0.821533 -1.34494 0
M  V30 655 C 63.3292 -0.405355 -1.97585 0
M  V30 656 C 63.6422 1.03677 -1.65863 0
M  V30 657 O 64.8482 1.55679 -2.22433 0
M  V30 658 C 63.3042 -0.673861 -3.53535 0
M  V30 659 C 62.9122 -2.12951 -3.94152 0
M  V30 660 C 64.6562 -0.32378 -4.23263 0
M  V30 661 C 62.5632 -2.34298 -5.43009 0
M  V30 662 H 61.4932 -0.147836 -0.739365 0
M  V30 663 H 64.1442 -1.00769 -1.53355 0
M  V30 664 H 62.5262 -0.00137554 -3.96 0
M  V30 665 H 63.7002 -2.84104 -3.62797 0
M  V30 666 H 62.0152 -2.44089 -3.37356 0
M  V30 667 H 64.6122 -0.461126 -5.32708 0
M  V30 668 H 64.9552 0.731586 -4.09821 0
M  V30 669 H 65.4882 -0.950786 -3.8627 0
M  V30 670 H 62.2272 -3.38335 -5.61435 0
M  V30 671 H 61.7472 -1.67687 -5.75883 0
M  V30 672 H 63.4262 -2.16588 -6.09671 0
M  V30 673 N 63.5583 1.46682 -0.576371 0
M  V30 674 C 64.5213 2.28707 0.150239 0
M  V30 675 C 65.5213 1.38035 0.824794 0
M  V30 676 O 66.7113 1.60476 0.677719 0
M  V30 677 C 63.8433 3.18248 1.22192 0
M  V30 678 H 65.0363 2.94423 -0.570521 0
M  V30 679 H 62.5893 1.52688 -0.334078 0
M  V30 680 H 63.3243 2.57265 1.97447 0
M  V30 681 H 63.1093 3.85 0.742812 0
M  V30 682 H 64.5993 3.80001 1.73172 0
M  V30 683 N 65.0364 0.313813 1.54444 0
M  V30 684 C 65.9664 -0.549454 2.26943 0
M  V30 685 C 66.9474 -1.12741 1.27372 0
M  V30 686 O 68.1324 -1.15436 1.56167 0
M  V30 687 C 65.2624 -1.71523 3.01989 0
M  V30 688 C 64.2164 -1.26703 4.08816 0
M  V30 689 C 63.5424 -2.51898 4.71647 0
M  V30 690 C 64.8424 -0.388962 5.2085 0
M  V30 691 H 66.5364 0.0552661 2.99349 0
M  V30 692 H 64.0824 0.0280207 1.43973 0
M  V30 693 H 66.0354 -2.32535 3.51433 0
M  V30 694 H 64.7594 -2.34639 2.27183 0
M  V30 695 H 63.4184 -0.679896 3.6024 0
M  V30 696 H 63.0664 -3.13356 3.93468 0
M  V30 697 H 62.7664 -2.22605 5.43802 0
M  V30 698 H 64.2904 -3.1369 5.23861 0
M  V30 699 H 65.7044 -0.905107 5.6611 0
M  V30 700 H 64.1014 -0.18924 5.99802 0
M  V30 701 H 65.1714 0.582699 4.81386 0
M  V30 702 N 66.5145 -1.57545 0.0417849 0
M  V30 703 C 67.9305 -1.56467 -0.314704 0
M  V30 704 C 68.1305 -1.04859 -1.72066 0
M  V30 705 O 67.1865 -0.700983 -2.42575 0
M  V30 706 C 68.4995 -3.00317 -0.15174 0
M  V30 707 C 70.0475 -3.12201 -0.223553 0
M  V30 708 C 70.5225 -4.57913 -0.0892295 0
M  V30 709 N 72.0135 -4.6297 -0.145808 0
M  V30 710 C 72.7485 -5.73362 -0.0658459 0
M  V30 711 N 72.2445 -6.92769 0.0659282 0
M  V30 712 N 74.0375 -5.6197 -0.12075 0
M  V30 713 H 66.1885 -1.89416 0.961014 0
M  V30 714 H 68.4515 -0.871862 0.372237 0
M  V30 715 H 68.1575 -3.42073 0.817254 0
M  V30 716 H 68.0315 -3.65892 -0.916692 0
M  V30 717 H 70.4185 -2.70349 -1.18301 0
M  V30 718 H 70.4995 -2.49323 0.571994 0
M  V30 719 H 70.1435 -5.00448 0.866867 0
M  V30 720 H 70.0735 -5.18786 -0.903802 0
M  V30 721 H 72.5645 -3.7709 -0.247286 0
M  V30 722 H 72.8775 -7.72707 0.119905 0
M  V30 723 H 71.2225 -6.94927 0.100885 0
M  V30 724 H 74.4135 -4.67572 -0.222187 0
M  V30 725 H 74.5865 -6.47977 -0.0549735 0
M  V30 726 N 67.9926 0.231505 -1.5589 0
M  V30 727 C 68.9246 1.31006 -1.8807 0
M  V30 728 C 69.9376 1.43539 -0.768145 0
M  V30 729 O 71.1266 1.44614 -1.04638 0
M  V30 730 C 68.2266 2.68688 -2.06543 0
M  V30 731 C 67.3996 2.78228 -3.37502 0
M  V30 732 C 66.4586 3.96857 -3.4553 0
M  V30 733 O 65.4846 3.85662 -4.18633 0
M  V30 734 N 66.6866 5.1072 -2.75944 0
M  V30 735 H 69.4516 1.03731 -2.81176 0
M  V30 736 H 67.0126 0.421573 -1.56315 0
M  V30 737 H 69.0046 3.46412 -2.09239 0
M  V30 738 H 67.5746 2.88605 -1.20109 0
M  V30 739 H 66.7946 1.87059 -3.46991 0
M  V30 740 H 68.0826 2.81564 -4.23791 0
M  V30 741 H 67.4806 5.2271 -2.16311 0
M  V30 742 H 66.0376 5.86523 -2.84314 0
M  V30 743 N 69.4707 1.49531 0.497807 0
M  V30 744 C 70.7187 1.58865 1.24926 0
M  V30 745 C 71.0397 0.278721 1.92998 0
M  V30 746 O 70.3097 -0.702144 1.82885 0
M  V30 747 H 68.8897 0.585343 0.464094 0
M  V30 748 H 71.5517 1.86174 0.57666 0
M  V30 749 H 70.6477 2.38633 2.01149 0
M  V30 750 N 70.9488 -0.749086 1.3866 0
M  V30 751 C 71.8808 -1.87273 1.32142 0
M  V30 752 C 72.8938 -1.61127 0.232787 0
M  V30 753 O 74.0828 -1.71623 0.49069 0
M  V30 754 C 71.1828 -3.23005 1.02571 0
M  V30 755 C 70.3558 -3.7662 2.22433 0
M  V30 756 C 69.4148 -4.90879 1.89537 0
M  V30 757 O 68.4408 -5.05276 2.62078 0
M  V30 758 N 69.6428 -5.74198 0.853031 0
M  V30 759 H 72.4078 -1.93373 2.28969 0
M  V30 760 H 69.9688 -0.929216 1.32579 0
M  V30 761 H 71.9608 -3.96992 0.786085 0
M  V30 762 H 70.5308 -3.12262 0.145249 0
M  V30 763 H 69.7508 -2.94147 2.62434 0
M  V30 764 H 71.0388 -4.09173 3.02415 0
M  V30 765 H 70.4368 -5.6514 0.25155 0
M  V30 766 H 68.9938 -6.48313 0.67329 0
M  V30 767 N 72.4269 -1.23603 -0.977757 0
M  V30 768 C 73.6729 -1.07129 -1.72195 0
M  V30 769 C 74.0059 0.390501 -1.90233 0
M  V30 770 O 73.2809 1.28902 -1.45653 0
M  V30 771 C 73.5639 -1.80031 -3.11867 0
M  V30 772 C 73.4169 -3.33899 -3.01383 0
M  V30 773 C 74.7359 -1.56492 -4.11337 0
M  V30 774 H 71.8549 -0.390571 -0.624999 0
M  V30 775 H 74.4969 -1.52142 -1.13811 0
M  V30 776 H 72.6469 -1.41768 -3.6171 0
M  V30 777 H 74.3189 -3.81699 -2.59043 0
M  V30 778 H 72.5619 -3.62796 -2.37827 0
M  V30 779 H 73.2329 -3.801 -4.00285 0
M  V30 780 H 75.7089 -1.89757 -3.70313 0
M  V30 781 H 74.5849 -2.09973 -5.07151 0
M  V30 782 H 74.8459 -0.500874 -4.39254 0
M  V30 783 N 73.905 1.17692 -1.04816 0
M  V30 784 C 75.133 1.91786 -0.776254 0
M  V30 785 C 75.548 1.76604 0.667577 0
M  V30 786 O 74.905 1.10067 1.45573 0
M  V30 787 C 74.956 3.42967 -1.14263 0
M  V30 788 O 74.677 3.57678 -2.52978 0
M  V30 789 C 76.178 4.34144 -0.896311 0
M  V30 790 H 73.398 0.608624 -0.282519 0
M  V30 791 H 75.942 1.49268 -1.39783 0
M  V30 792 H 74.097 3.83245 -0.565874 0
M  V30 793 H 74.511 4.51319 -2.67229 0
M  V30 794 H 75.985 5.38744 -1.20244 0
M  V30 795 H 76.462 4.38876 0.168636 0
M  V30 796 H 77.068 3.99574 -1.45672 0
M  V30 797 N 75.3831 0.828654 1.34056 0
M  V30 798 C 76.3131 0.269443 2.3194 0
M  V30 799 C 77.2941 -0.617247 1.58506 0
M  V30 800 O 78.4791 -0.542931 1.86456 0
M  V30 801 C 75.6091 -0.564793 3.42677 0
M  V30 802 C 74.5631 0.225241 4.27407 0
M  V30 803 C 73.8891 -0.7321 5.29664 0
M  V30 804 C 75.1891 1.43663 5.02154 0
M  V30 805 H 76.8831 1.08728 2.7896 0
M  V30 806 H 74.4291 0.524283 1.34117 0
M  V30 807 H 76.3821 -0.966233 4.10173 0
M  V30 808 H 75.1061 -1.41574 2.9432 0
M  V30 809 H 73.7651 0.608117 3.61521 0
M  V30 810 H 73.4131 -1.57916 4.77568 0
M  V30 811 H 73.1131 -0.20767 5.87233 0
M  V30 812 H 74.6371 -1.13128 6.00029 0
M  V30 813 H 76.0511 1.1089 5.62473 0
M  V30 814 H 74.4481 1.89711 5.69324 0
M  V30 815 H 75.5181 2.21181 4.31517 0
M  V30 816 N 76.8612 -1.46375 0.584142 0
M  V30 817 C 78.1072 -2.02678 0.0703716 0
M  V30 818 C 78.4402 -1.4545 -1.28678 0
M  V30 819 O 77.7152 -0.62014 -1.84349 0
M  V30 820 C 77.9982 -3.60099 0.00614674 0
M  V30 821 C 77.8512 -4.27709 1.3923 0
M  V30 822 C 79.1702 -4.34598 -0.693742 0
M  V30 823 H 76.2892 -0.736504 0.027047 0
M  V30 824 H 78.9312 -1.74501 0.751615 0
M  V30 825 H 77.0812 -3.84236 -0.574009 0
M  V30 826 H 78.7532 -4.14832 2.01773 0
M  V30 827 H 76.9962 -3.87016 1.95962 0
M  V30 828 H 77.6672 -5.36478 1.29982 0
M  V30 829 H 80.1432 -4.15615 -0.200869 0
M  V30 830 H 79.0192 -5.44318 -0.707714 0
M  V30 831 H 79.2802 -4.05759 -1.75533 0
M  V30 832 N 78.3393 -0.321999 -1.54275 0
M  V30 833 C 79.2693 0.537411 -2.27231 0
M  V30 834 C 80.2503 1.12064 -1.27968 0
M  V30 835 O 81.4353 1.14606 -1.56777 0
M  V30 836 C 78.5653 1.69919 -3.02894 0
M  V30 837 C 77.5193 1.24534 -4.09482 0
M  V30 838 C 76.8453 2.49394 -4.72977 0
M  V30 839 C 78.1453 0.361335 -5.21049 0
M  V30 840 H 79.8393 -0.0711406 -2.99315 0
M  V30 841 H 77.3853 -0.0356555 -1.43956 0
M  V30 842 H 79.3383 2.30668 -3.52662 0
M  V30 843 H 78.0623 2.33431 -2.28424 0
M  V30 844 H 76.7213 0.660782 -3.60596 0
M  V30 845 H 76.3693 3.11265 -3.95124 0
M  V30 846 H 76.0693 2.19718 -5.44975 0
M  V30 847 H 77.5933 3.10908 -5.25517 0
M  V30 848 H 79.0073 0.875072 -5.66582 0
M  V30 849 H 77.4043 0.157428 -5.99893 0
M  V30 850 H 78.4743 -0.60822 -4.8107 0
M  V30 851 N 79.8174 1.5752 -0.0501392 0
M  V30 852 C 81.0454 1.96963 0.633492 0
M  V30 853 C 81.4604 0.927631 1.6444 0
M  V30 854 O 80.8174 -0.0882665 1.82286 0
M  V30 855 C 80.8684 3.36487 1.32132 0
M  V30 856 O 80.5894 4.36693 0.350894 0
M  V30 857 C 82.0904 3.90682 2.09481 0
M  V30 858 H 79.3104 0.648244 0.173266 0
M  V30 859 H 81.8544 2.0417 -0.116134 0
M  V30 860 H 80.0094 3.30434 2.02218 0
M  V30 861 H 80.4234 5.17702 0.841735 0
M  V30 862 H 81.8974 4.90591 2.5303 0
M  V30 863 H 82.3744 3.26053 2.94255 0
M  V30 864 H 82.9804 4.00069 1.44307 0
M  V30 865 N 81.2955 -0.223234 1.56011 0
M  V30 866 C 82.2055 -1.29766 1.95443 0
M  V30 867 C 83.2215 -1.51373 0.858028 0
M  V30 868 O 84.3975 -1.64536 1.16146 0
M  V30 869 C 81.4625 -2.62772 2.26167 0
M  V30 870 C 80.5235 -2.49482 3.49367 0
M  V30 871 C 79.7565 -3.76145 3.78616 0
M  V30 872 O 79.9795 -4.79087 3.09568 0
M  V30 873 O 78.9135 -3.73358 4.72109 0
M  V30 874 H 82.7395 -0.99309 2.87004 0
M  V30 875 H 80.3245 -0.425958 1.43199 0
M  V30 876 H 82.2065 -3.41327 2.47131 0
M  V30 877 H 80.8815 -2.92913 1.37781 0
M  V30 878 H 79.7885 -1.69133 3.33684 0
M  V30 879 H 81.1215 -2.2428 4.38131 0
M  V30 880 N 82.7736 -1.49793 -0.48987 0
M  V30 881 C 84.1846 -1.52914 -1.07118 0
M  V30 882 C 84.5356 -0.321738 -1.93544 0
M  V30 883 O 83.6606 0.567338 -2.08831 0
M  V30 884 C 84.2556 -2.771 -1.94938 0
M  V30 885 C 82.8146 -2.82963 -2.48212 0
M  V30 886 C 81.9616 -2.46972 -1.26096 0
M  V30 887 H 84.9126 -1.56329 -0.273289 0
M  V30 888 H 84.9336 -2.57892 -2.79771 0
M  V30 889 H 84.4456 -3.64959 -1.32009 0
M  V30 890 H 82.5466 -1.99411 -3.14748 0
M  V30 891 H 82.6596 -3.85406 -2.84603 0
M  V30 892 H 81.0236 -1.98994 -1.58976 0
M  V30 893 H 81.8066 -3.37118 -0.648581 0
M  V30 894 N 84.2517 0.741722 -1.39055 0
M  V30 895 C 85.4797 1.53098 -1.39171 0
M  V30 896 C 85.8947 1.88794 0.0155099 0
M  V30 897 O 85.2517 1.53626 0.985159 0
M  V30 898 C 85.3027 2.82274 -2.2584 0
M  V30 899 O 85.0237 2.48097 -3.61081 0
M  V30 900 C 86.5247 3.76343 -2.34266 0
M  V30 901 H 83.7447 0.473335 -0.4756 0
M  V30 902 H 86.2887 0.917045 -1.82785 0
M  V30 903 H 84.4437 3.40015 -1.85656 0
M  V30 904 H 84.8577 3.31029 -4.06842 0
M  V30 905 H 86.3317 4.63898 -2.9917 0
M  V30 906 H 86.8087 4.17619 -1.35982 0
M  V30 907 H 87.4147 3.24523 -2.74891 0
M  V30 908 N 85.7298 1.2412 0.971189 0
M  V30 909 C 86.9548 1.10667 1.75407 0
M  V30 910 C 87.3798 -0.337048 1.85056 0
M  V30 911 O 86.7378 -1.24396 1.31892 0
M  V30 912 C 86.7858 1.74726 3.15441 0
M  V30 913 O 85.8898 1.01566 3.99697 0
M  V30 914 H 85.2308 0.387341 0.539317 0
M  V30 915 H 87.7608 1.64358 1.2185 0
M  V30 916 H 87.7708 1.80341 3.6598 0
M  V30 917 H 86.4458 2.79773 3.07734 0
M  V30 918 H 85.0228 1.03713 3.58187 0
M  V30 919 N 87.2079 -1.17134 1.05439 0
M  V30 920 C 88.4849 -1.83411 0.679699 0
M  V30 921 C 88.8649 -1.9368 -0.839726 0
M  V30 922 O 88.2129 -1.47325 -1.74664 0
M  V30 923 C 88.4229 -3.20918 1.37159 0
M  V30 924 C 89.7709 -3.96796 1.51123 0
M  V30 925 O 90.7949 -3.30406 1.3308 0
M  V30 926 O 89.6539 -5.15778 1.80651 0
M  V30 927 H 86.7479 -0.79154 0.239569 0
M  V30 928 H 89.2939 -1.24411 1.15413 0
M  V30 929 H 88.0659 -3.08428 2.40807 0
M  V30 930 H 87.6889 -3.87587 0.886674 0
M  V30 931 N 88.686 -0.835752 -1.33615 0
M  V30 932 C 90.102 -0.523139 -1.50783 0
M  V30 933 C 90.302 0.950171 -1.77691 0
M  V30 934 O 89.358 1.73411 -1.83534 0
M  V30 935 C 90.671 -1.39378 -2.66448 0
M  V30 936 C 92.219 -1.39223 -2.80332 0
M  V30 937 C 92.694 -2.24765 -3.99055 0
M  V30 938 N 94.185 -2.22458 -4.06284 0
M  V30 939 C 94.92 -2.85386 -4.97336 0
M  V30 940 N 94.416 -3.57354 -5.93523 0
M  V30 941 N 96.209 -2.74872 -4.90308 0
M  V30 942 H 88.36 -1.78952 -1.14411 0
M  V30 943 H 90.623 -0.763297 -0.562212 0
M  V30 944 H 90.329 -2.44061 -2.53234 0
M  V30 945 H 90.203 -1.0676 -3.61776 0
M  V30 946 H 92.59 -0.353136 -2.92979 0
M  V30 947 H 92.671 -1.75846 -1.85773 0
M  V30 948 H 92.315 -3.28732 -3.87167 0
M  V30 949 H 92.245 -1.85485 -4.92852 0
M  V30 950 H 94.736 -1.70119 -3.37443 0
M  V30 951 H 95.049 -4.02584 -6.59656 0
M  V30 952 H 93.394 -3.61461 -5.93608 0
M  V30 953 H 96.585 -2.18213 -4.14126 0
M  V30 954 H 96.758 -3.24199 -5.61069 0
M  V30 955 N 90.1641 1.46063 -0.591896 0
M  V30 956 C 91.1141 2.27458 0.157172 0
M  V30 957 C 92.0981 1.3641 0.853301 0
M  V30 958 O 93.2901 1.60517 0.74588 0
M  V30 959 C 90.4191 3.22956 1.16423 0
M  V30 960 C 89.5051 4.2149 0.469742 0
M  V30 961 N 89.8961 5.03519 -0.479839 0
M  V30 962 C 88.1941 4.40161 0.719319 0
M  V30 963 C 88.8951 5.74904 -0.886591 0
M  V30 964 N 87.8711 5.43097 -0.233731 0
M  V30 965 H 91.6731 2.88272 -0.572392 0
M  V30 966 H 89.1871 1.57024 -0.414375 0
M  V30 967 H 91.1841 3.79986 1.71513 0
M  V30 968 H 89.8441 2.63701 1.89451 0
M  V30 969 H 90.8551 5.1078 -0.855823 0
M  V30 970 H 87.5321 3.92046 1.43548 0
M  V30 971 H 88.9221 6.50844 -1.66888 0
M  V30 972 N 91.6422 0.330177 1.54103 0
M  V30 973 C 93.0532 -0.15652 1.86043 0
M  V30 974 C 93.4042 -1.51086 1.2517 0
M  V30 975 O 92.5292 -2.09023 0.560217 0
M  V30 976 C 93.1242 -0.290784 3.3755 0
M  V30 977 C 91.6832 -0.721705 3.69416 0
M  V30 978 C 90.8302 0.152622 2.7688 0
M  V30 979 H 93.7812 0.550237 1.48856 0
M  V30 980 H 93.8022 -1.12058 3.63625 0
M  V30 981 H 93.3142 0.695068 3.81825 0
M  V30 982 H 91.4152 -1.71706 3.30678 0
M  V30 983 H 91.5282 -0.520869 4.7626 0
M  V30 984 H 89.8922 -0.372894 2.51956 0
M  V30 985 H 90.6752 1.13536 3.23982 0
M  V30 986 N 93.1203 -1.57491 0.0584922 0
M  V30 987 C 94.0833 -2.1085 -0.898617 0
M  V30 988 C 95.0833 -1.02964 -1.23511 0
M  V30 989 O 96.2733 -1.29007 -1.17059 0
M  V30 990 C 93.4053 -2.59881 -2.20623 0
M  V30 991 H 94.5983 -2.96715 -0.435936 0
M  V30 992 H 92.1513 -1.55141 -0.190023 0
M  V30 993 H 92.8863 -1.77431 -2.71457 0
M  V30 994 H 92.6713 -3.38727 -1.97501 0
M  V30 995 H 94.1613 -3.01285 -2.89166 0
M  V30 996 N 94.5984 0.214957 -1.56127 0
M  V30 997 C 95.5614 1.24997 -1.92116 0
M  V30 998 C 96.5614 1.39467 -0.800344 0
M  V30 999 O 97.7514 1.37619 -1.06802 0
M  V30 1000 C 94.8834 2.62271 -2.17777 0
M  V30 1001 H 96.0764 0.942875 -2.84693 0
M  V30 1002 H 93.6294 0.455654 -1.49511 0
M  V30 1003 H 94.3644 2.98068 -1.27773 0
M  V30 1004 H 94.1494 2.53143 -2.99434 0
M  V30 1005 H 95.6394 3.36946 -2.46693 0
M  V30 1006 N 96.0765 1.50051 0.48192 0
M  V30 1007 C 97.0395 1.67584 1.5636 0
M  V30 1008 C 98.0395 0.546894 1.51214 0
M  V30 1009 O 99.2295 0.813725 1.54026 0
M  V30 1010 C 96.3615 1.691 2.96003 0
M  V30 1011 H 97.5545 2.64078 1.42136 0
M  V30 1012 H 95.1075 1.39369 0.707533 0
M  V30 1013 H 95.8425 0.742589 3.15684 0
M  V30 1014 H 95.6275 2.51105 3.01146 0
M  V30 1015 H 97.1175 1.84656 3.74556 0
M  V30 1016 N 97.5546 -0.734337 1.39446 0
M  V30 1017 C 98.7846 -1.52137 1.39778 0
M  V30 1018 C 99.1926 -1.89198 -0.00929312 0
M  V30 1019 O 98.5356 -1.54666 -0.991168 0
M  V30 1020 C 98.5976 -2.83762 2.20724 0
M  V30 1021 C 98.2616 -2.69131 3.69347 0
M  V30 1022 C 99.2586 -2.37635 4.62413 0
M  V30 1023 C 96.9436 -2.85982 4.1294 0
M  V30 1024 C 98.9376 -2.23172 5.97054 0
M  V30 1025 C 96.6246 -2.71137 5.47657 0
M  V30 1026 C 97.6226 -2.39777 6.39528 0
M  V30 1027 O 97.3106 -2.25026 7.71763 0
M  V30 1028 H 97.0426 -0.476717 0.479288 0
M  V30 1029 H 99.5966 -0.915012 1.83893 0
M  V30 1030 H 97.8266 -3.4666 1.71359 0
M  V30 1031 H 99.5156 -3.45383 2.13226 0
M  V30 1032 H 100.282 -2.24267 4.30034 0
M  V30 1033 H 96.1606 -3.09383 3.41765 0
M  V30 1034 H 99.7046 -1.98617 6.68728 0
M  V30 1035 H 95.6016 -2.84083 5.79626 0
M  V30 1036 H 96.3696 -2.40091 7.82495 0
M  V30 1037 N 99.0327 -1.24633 -0.964593 0
M  V30 1038 C 99.9627 -1.06611 -2.07741 0
M  V30 1039 C 100.944 0.0218666 -1.70086 0
M  V30 1040 O 102.129 -0.145793 -1.93652 0
M  V30 1041 C 99.2587 -0.673444 -3.40708 0
M  V30 1042 C 98.2127 -1.71054 -3.92332 0
M  V30 1043 C 97.5387 -1.17285 -5.21678 0
M  V30 1044 C 98.8387 -3.10718 -4.19824 0
M  V30 1045 H 100.533 -1.99693 -2.23076 0
M  V30 1046 H 98.0787 -0.96152 -1.07195 0
M  V30 1047 H 100.032 -0.534345 -4.17998 0
M  V30 1048 H 98.7557 0.293073 -3.25282 0
M  V30 1049 H 97.4147 -1.83791 -3.17201 0
M  V30 1050 H 97.0627 -0.196847 -5.02615 0
M  V30 1051 H 96.7627 -1.86592 -5.57187 0
M  V30 1052 H 98.2867 -1.04593 -6.01575 0
M  V30 1053 H 99.7007 -3.01192 -4.87808 0
M  V30 1054 H 98.0977 -3.77406 -4.66567 0
M  V30 1055 H 99.1677 -3.58524 -3.26479 0
M  V30 1056 N 100.511 1.16574 -1.06058 0
M  V30 1057 C 101.443 2.2045 -0.627239 0
M  V30 1058 C 102.456 1.59752 0.313534 0
M  V30 1059 O 103.645 1.78192 0.104896 0
M  V30 1060 C 100.745 3.3875 0.100974 0
M  V30 1061 C 99.9178 4.29008 -0.852687 0
M  V30 1062 C 98.9768 5.25944 -0.164152 0
M  V30 1063 O 98.0028 5.63535 -0.801047 0
M  V30 1064 N 99.2048 5.70075 1.09518 0
M  V30 1065 H 101.97 2.58249 -1.52077 0
M  V30 1066 H 99.5308 1.3156 -0.943594 0
M  V30 1067 H 101.523 4.00638 0.57194 0
M  V30 1068 H 100.093 2.99476 0.89628 0
M  V30 1069 H 99.3128 3.64419 -1.50308 0
M  V30 1070 H 100.601 4.86195 -1.49972 0
M  V30 1071 H 99.9988 5.41624 1.6328 0
M  V30 1072 H 98.5558 6.34067 1.51006 0
M  V30 1073 N 101.989 0.842826 1.3317 0
M  V30 1074 C 103.217 0.454055 2.01856 0
M  V30 1075 C 103.632 -0.94587 1.63397 0
M  V30 1076 O 102.989 -1.61534 0.849302 0
M  V30 1077 C 103.04 0.569715 3.56982 0
M  V30 1078 O 102.761 1.91448 3.94055 0
M  V30 1079 C 104.262 0.178412 4.42941 0
M  V30 1080 H 101.482 0.17979 0.646465 0
M  V30 1081 H 104.026 1.1365 1.70012 0
M  V30 1082 H 102.181 -0.0648587 3.87346 0
M  V30 1083 H 102.595 1.90282 4.88767 0
M  V30 1084 H 104.069 0.310376 5.51127 0
M  V30 1085 H 104.546 -0.880056 4.30293 0
M  V30 1086 H 105.152 0.787579 4.17944 0
M  V30 1087 N 103.467 -1.45747 0.599634 0
M  V30 1088 C 104.417 -2.27538 -0.145107 0
M  V30 1089 C 105.401 -1.3686 -0.846055 0
M  V30 1090 O 106.593 -1.6091 -0.737357 0
M  V30 1091 C 103.722 -3.23569 -1.14708 0
M  V30 1092 C 102.808 -4.21734 -0.447383 0
M  V30 1093 N 103.199 -5.03257 0.506535 0
M  V30 1094 C 101.497 -4.40536 -0.695966 0
M  V30 1095 C 102.198 -5.74426 0.917068 0
M  V30 1096 N 101.174 -5.42966 0.26253 0
M  V30 1097 H 104.976 -2.87965 0.587672 0
M  V30 1098 H 102.49 -1.56803 0.422697 0
M  V30 1099 H 104.487 -3.8089 -1.69495 0
M  V30 1100 H 103.147 -2.64702 -1.8805 0
M  V30 1101 H 104.158 -5.10319 0.882899 0
M  V30 1102 H 100.835 -3.92802 -1.41467 0
M  V30 1103 H 102.225 -6.4995 1.70338 0
M  V30 1104 N 104.945 -0.338344 -1.53925 0
M  V30 1105 C 106.193 0.259245 -2.0043 0
M  V30 1106 C 106.514 1.51484 -1.22791 0
M  V30 1107 O 105.784 1.93037 -0.33368 0
M  V30 1108 H 104.364 0.0987845 -0.740439 0
M  V30 1109 H 107.026 -0.458302 -1.89435 0
M  V30 1110 H 106.122 0.505334 -3.07982 0
M  V30 1111 N 106.423 1.57458 -0.0668435 0
M  V30 1112 C 107.7 1.8469 0.644132 0
M  V30 1113 C 108.08 0.958343 1.88093 0
M  V30 1114 O 107.428 0.0233579 2.28488 0
M  V30 1115 C 107.638 3.34767 0.986509 0
M  V30 1116 C 108.986 4.02159 1.36212 0
M  V30 1117 O 110.01 3.39484 1.07839 0
M  V30 1118 O 108.869 5.12694 1.89227 0
M  V30 1119 H 105.963 0.762816 0.319437 0
M  V30 1120 H 108.509 1.6942 -0.0973986 0
M  V30 1121 H 107.281 3.91151 0.107883 0
M  V30 1122 H 106.904 3.55281 1.78497 0
M  V30 1123 N 107.901 -0.206675 1.56239 0
M  V30 1124 C 109.149 -0.927007 1.79586 0
M  V30 1125 C 109.47 -1.8427 0.637929 0
M  V30 1126 O 108.74 -1.92849 -0.344398 0
M  V30 1127 H 107.32 -0.345292 0.662407 0
M  V30 1128 H 109.982 -0.21496 1.93711 0
M  V30 1129 H 109.078 -1.52501 2.72305 0
M  V30 1130 N 109.379 -1.50304 -0.473955 0
M  V30 1131 C 110.625 -1.61389 -1.22806 0
M  V30 1132 C 110.958 -0.311955 -1.91678 0
M  V30 1133 O 110.233 0.686384 -1.81986 0
M  V30 1134 C 110.516 -2.79219 -2.27396 0
M  V30 1135 C 110.369 -4.19286 -1.62848 0
M  V30 1136 C 111.688 -2.92614 -3.28732 0
M  V30 1137 H 108.807 -0.587399 -0.445119 0
M  V30 1138 H 111.449 -1.82681 -0.522265 0
M  V30 1139 H 109.599 -2.61195 -2.87592 0
M  V30 1140 H 111.271 -4.48892 -1.06271 0
M  V30 1141 H 109.514 -4.23677 -0.931693 0
M  V30 1142 H 110.185 -4.97655 -2.38838 0
M  V30 1143 H 112.661 -3.09105 -2.78556 0
M  V30 1144 H 111.537 -3.76688 -3.99246 0
M  V30 1145 H 111.798 -2.03107 -3.92683 0
M  V30 1146 N 110.857 0.726932 -1.39834 0
M  V30 1147 C 111.82 1.82269 -1.38962 0
M  V30 1148 C 112.82 1.58248 -0.285334 0
M  V30 1149 O 114.01 1.65499 -0.54366 0
M  V30 1150 C 111.142 3.20186 -1.17019 0
M  V30 1151 H 112.335 1.84443 -2.36476 0
M  V30 1152 H 109.888 0.931416 -1.25516 0
M  V30 1153 H 110.623 3.23669 -0.202204 0
M  V30 1154 H 110.408 3.3902 -1.96998 0
M  V30 1155 H 111.898 4.00235 -1.1917 0
M  V30 1156 N 112.336 1.25143 0.95797 0
M  V30 1157 C 113.613 1.00472 1.67823 0
M  V30 1158 C 113.993 -0.470056 2.058 0
M  V30 1159 O 113.341 -1.44663 1.76875 0
M  V30 1160 C 113.551 1.9372 2.90299 0
M  V30 1161 C 114.899 2.21371 3.62326 0
M  V30 1162 O 115.923 1.91451 3.00375 0
M  V30 1163 O 114.782 2.72231 4.7387 0
M  V30 1164 H 111.876 0.380752 0.734137 0
M  V30 1165 H 114.422 1.36283 1.01119 0
M  V30 1166 H 113.194 2.93316 2.59001 0
M  V30 1167 H 112.817 1.58286 3.64735 0
M  V30 1168 N 113.814 -1.1601 1.06675 0
M  V30 1169 C 115.063 -1.85973 0.780818 0
M  V30 1170 C 115.376 -1.82819 -0.695444 0
M  V30 1171 O 116.582 -2.484 -1.09589 0
M  V30 1172 C 115.038 -3.33757 1.34665 0
M  V30 1173 C 114.646 -3.45374 2.85343 0
M  V30 1174 C 116.39 -4.0895 1.13843 0
M  V30 1175 C 114.297 -4.87266 3.35151 0
M  V30 1176 H 113.227 -0.696661 0.288407 0
M  V30 1177 H 115.878 -1.30903 1.28595 0
M  V30 1178 H 114.26 -3.88456 0.769274 0
M  V30 1179 H 115.434 -3.00816 3.49065 0
M  V30 1180 H 113.749 -2.83619 3.04876 0
M  V30 1181 H 116.346 -5.13654 1.4854 0
M  V30 1182 H 116.689 -4.16229 0.0770282 0
M  V30 1183 H 117.222 -3.605 1.68179 0
M  V30 1184 H 113.961 -4.85168 4.40786 0
M  V30 1185 H 113.481 -5.32433 2.76179 0
M  V30 1186 H 115.16 -5.56097 3.30704 0
M  V30 1187 N 115.292 -0.849877 -1.32721 0
M  V30 1188 C 116.255 -0.296122 -2.27279 0
M  V30 1189 C 117.255 0.541458 -1.5141 0
M  V30 1190 O 118.445 0.353658 -1.70572 0
M  V30 1191 C 115.577 0.581579 -3.35902 0
M  V30 1192 H 116.77 -1.13064 -2.77771 0
M  V30 1193 H 114.323 -0.62383 -1.43311 0
M  V30 1194 H 115.058 1.43809 -2.9067 0
M  V30 1195 H 114.843 -0.0178814 -3.92096 0
M  V30 1196 H 116.333 0.961951 -4.0637 0
M  V30 1197 N 116.77 1.45427 -0.607355 0
M  V30 1198 C 117.703 2.27635 0.160482 0
M  V30 1199 C 118.681 1.37122 0.873857 0
M  V30 1200 O 119.865 1.66551 0.882775 0
M  V30 1201 C 116.992 3.15486 1.23231 0
M  V30 1202 C 116.038 4.21939 0.622097 0
M  V30 1203 S 116.871 5.32459 -0.569852 0
M  V30 1204 C 118.027 6.23879 0.502577 0
M  V30 1205 H 118.26 2.9241 -0.536983 0
M  V30 1206 H 115.793 1.49265 -0.394868 0
M  V30 1207 H 117.751 3.66659 1.84585 0
M  V30 1208 H 116.412 2.49977 1.90185 0
M  V30 1209 H 115.605 4.8333 1.42856 0
M  V30 1210 H 115.207 3.73906 0.0837063 0
M  V30 1211 H 117.499 6.63261 1.38171 0
M  V30 1212 H 118.442 7.0806 -0.0751759 0
M  V30 1213 H 118.85 5.58545 0.8178 0
M  V30 1214 N 118.248 0.346503 1.53744 0
M  V30 1215 C 119.211 -0.496439 2.23759 0
M  V30 1216 C 120.211 -1.0252 1.2388 0
M  V30 1217 O 121.401 -0.913974 1.48297 0
M  V30 1218 C 118.533 -1.69187 2.95954 0
M  V30 1219 H 119.726 0.115952 2.99676 0
M  V30 1220 H 117.279 0.0978939 1.55993 0
M  V30 1221 H 118.014 -2.34288 2.24231 0
M  V30 1222 H 117.799 -1.31989 3.69217 0
M  V30 1223 H 119.289 -2.28969 3.49232 0
M  V30 1224 N 119.726 -1.57421 0.075193 0
M  V30 1225 C 120.954 -1.97946 -0.602076 0
M  V30 1226 C 121.369 -0.953674 -1.62943 0
M  V30 1227 O 120.726 0.0592551 -1.82404 0
M  V30 1228 C 120.777 -3.38546 -1.26762 0
M  V30 1229 O 120.498 -4.37195 -0.281376 0
M  V30 1230 C 121.999 -3.93966 -2.03239 0
M  V30 1231 H 119.219 -0.650918 -0.162931 0
M  V30 1232 H 121.763 -2.03959 0.148601 0
M  V30 1233 H 119.918 -3.33609 -1.96936 0
M  V30 1234 H 120.332 -5.18975 -0.759267 0
M  V30 1235 H 121.806 -4.94555 -2.45193 0
M  V30 1236 H 122.283 -3.30693 -2.8903 0
M  V30 1237 H 122.889 -4.02315 -1.37924 0
M  V30 1238 N 121.204 0.198386 -1.56346 0
M  V30 1239 C 122.429 0.939682 -1.84891 0
M  V30 1240 C 122.854 1.76202 -0.658369 0
M  V30 1241 O 122.212 1.76993 0.392851 0
M  V30 1242 C 122.26 1.81428 -3.11635 0
M  V30 1243 O 121.364 2.91265 -2.91956 0
M  V30 1244 H 120.705 0.264807 -0.608912 0
M  V30 1245 H 123.235 0.204695 -2.03573 0
M  V30 1246 H 123.245 2.21958 -3.42343 0
M  V30 1247 H 121.92 1.21004 -3.97908 0
M  V30 1248 H 120.497 2.54514 -2.72538 0
M  V30 1249 N 122.682 1.50554 0.465978 0
M  V30 1250 C 123.959 1.5232 1.22712 0
M  V30 1251 C 124.339 0.270807 2.09356 0
M  V30 1252 O 123.687 -0.745541 2.15995 0
M  V30 1253 C 123.897 2.82175 2.05374 0
M  V30 1254 C 125.245 3.33033 2.6339 0
M  V30 1255 O 126.269 2.83531 2.15612 0
M  V30 1256 O 125.128 4.19336 3.50456 0
M  V30 1257 H 122.222 0.611183 0.557122 0
M  V30 1258 H 124.768 1.62847 0.477381 0
M  V30 1259 H 123.54 3.64797 1.41558 0
M  V30 1260 H 123.163 2.74675 2.87471 0
M  V30 1261 N 124.16 -0.719506 1.40217 0
M  V30 1262 C 125.406 -1.48152 1.38488 0
M  V30 1263 C 125.739 -1.94195 -0.0141867 0
M  V30 1264 O 125.014 -1.67884 -0.982096 0
M  V30 1265 C 125.297 -2.71035 2.37091 0
M  V30 1266 C 125.15 -2.30912 3.86005 0
M  V30 1267 C 126.469 -3.73182 2.33288 0
M  V30 1268 H 123.588 -0.537395 0.504357 0
M  V30 1269 H 126.23 -0.821472 1.71324 0
M  V30 1270 H 124.38 -3.27352 2.0922 0
M  V30 1271 H 126.052 -1.80107 4.24687 0
M  V30 1272 H 124.295 -1.62958 4.02029 0
M  V30 1273 H 124.966 -3.18978 4.50508 0
M  V30 1274 H 127.442 -3.26485 2.57966 0
M  V30 1275 H 126.318 -4.56806 3.04334 0
M  V30 1276 H 126.579 -4.21202 1.34317 0
M  V30 1277 N 125.638 -1.25649 -0.95132 0
M  V30 1278 C 126.601 -1.06399 -2.03007 0
M  V30 1279 C 127.601 -0.0156794 -1.60792 0
M  V30 1280 O 128.791 -0.25817 -1.72276 0
M  V30 1281 C 125.923 -0.616184 -3.35285 0
M  V30 1282 H 127.116 -2.02164 -2.21517 0
M  V30 1283 H 124.669 -1.08103 -1.12887 0
M  V30 1284 H 125.404 0.343917 -3.22471 0
M  V30 1285 H 125.189 -1.37301 -3.67275 0
M  V30 1286 H 126.679 -0.503032 -4.14559 0
M  V30 1287 N 127.117 1.15442 -1.07289 0
M  V30 1288 C 128.08 2.18358 -0.696591 0
M  V30 1289 C 129.08 1.58637 0.262837 0
M  V30 1290 O 130.27 1.74145 0.0438809 0
M  V30 1291 C 127.402 3.4089 -0.0266151 0
M  V30 1292 H 128.595 2.53162 -1.60776 0
M  V30 1293 H 126.148 1.29893 -0.869342 0
M  V30 1294 H 126.883 3.11653 0.896822 0
M  V30 1295 H 126.668 3.85495 -0.716657 0
M  V30 1296 H 128.158 4.17009 0.222028 0
M  V30 1297 N 128.595 0.856903 1.32268 0
M  V30 1298 C 129.558 0.308171 2.27119 0
M  V30 1299 C 130.558 -0.533421 1.51695 0
M  V30 1300 O 131.748 -0.344607 1.70757 0
M  V30 1301 C 128.88 -0.563757 3.36206 0
M  V30 1302 H 130.073 1.14535 2.77167 0
M  V30 1303 H 127.626 0.631421 1.42978 0
M  V30 1304 H 128.361 -1.42266 2.91429 0
M  V30 1305 H 128.146 0.0386749 3.92081 0
M  V30 1306 H 129.636 -0.940386 4.06874 0
M  V30 1307 N 130.073 -1.45103 0.615059 0
M  V30 1308 C 131.303 -2.06254 0.119596 0
M  V30 1309 C 131.711 -1.4591 -1.20445 0
M  V30 1310 O 131.054 -0.570384 -1.7462 0
M  V30 1311 C 131.116 -3.59396 -0.0865591 0
M  V30 1312 C 130.78 -4.42116 1.15683 0
M  V30 1313 C 131.777 -4.7662 2.07676 0
M  V30 1314 C 129.462 -4.82749 1.38775 0
M  V30 1315 C 131.456 -5.50622 3.21082 0
M  V30 1316 C 129.143 -5.56504 2.52481 0
M  V30 1317 C 130.141 -5.90358 3.43463 0
M  V30 1318 O 129.829 -6.62615 4.55189 0
M  V30 1319 H 129.561 -0.672423 0.0694512 0
M  V30 1320 H 132.115 -1.87219 0.844885 0
M  V30 1321 H 130.345 -3.76859 -0.866823 0
M  V30 1322 H 132.034 -4.02365 -0.534555 0
M  V30 1323 H 132.8 -4.4578 1.91063 0
M  V30 1324 H 128.679 -4.55829 0.688545 0
M  V30 1325 H 132.223 -5.76965 3.92119 0
M  V30 1326 H 128.12 -5.86759 2.69043 0
M  V30 1327 H 128.888 -6.81071 4.53966 0
M  V30 1328 N 131.551 -0.354651 -1.53558 0
M  V30 1329 C 132.461 0.50515 -2.29097 0
M  V30 1330 C 133.477 1.10223 -1.34636 0
M  V30 1331 O 134.653 1.11553 -1.67684 0
M  V30 1332 C 131.718 1.63479 -3.05738 0
M  V30 1333 C 130.779 1.06636 -4.15845 0
M  V30 1334 C 130.012 2.14217 -4.88822 0
M  V30 1335 O 130.235 3.35137 -4.61562 0
M  V30 1336 O 129.169 1.77887 -5.75013 0
M  V30 1337 H 132.995 -0.109237 -3.03503 0
M  V30 1338 H 130.58 -0.119357 -1.48922 0
M  V30 1339 H 132.462 2.2918 -3.5363 0
M  V30 1340 H 131.137 2.23478 -2.34178 0
M  V30 1341 H 130.044 0.373565 -3.7223 0
M  V30 1342 H 131.377 0.511081 -4.89539 0
M  V30 1343 N 133.029 1.57378 -0.0835403 0
M  V30 1344 C 133.992 2.12252 0.864959 0
M  V30 1345 C 134.992 1.04916 1.21858 0
M  V30 1346 O 136.182 1.30853 1.14991 0
M  V30 1347 C 133.314 2.63358 2.16461 0
M  V30 1348 H 134.507 2.97371 0.388676 0
M  V30 1349 H 132.06 1.55423 0.165317 0
M  V30 1350 H 132.795 1.81727 2.686 0
M  V30 1351 H 132.58 3.41826 1.92087 0
M  V30 1352 H 134.07 3.05847 2.84337 0
M  V30 1353 N 134.507 -0.190092 1.56449 0
M  V30 1354 C 135.47 -1.21925 1.9408 0
M  V30 1355 C 136.47 -1.38176 0.822431 0
M  V30 1356 O 137.66 -1.35903 1.08977 0
M  V30 1357 C 134.792 -2.58773 2.21922 0
M  V30 1358 H 135.985 -0.897464 2.86157 0
M  V30 1359 H 133.538 -0.43181 1.50217 0
M  V30 1360 H 134.273 -2.95998 1.32499 0
M  V30 1361 H 134.058 -2.48348 3.03424 0
M  V30 1362 H 135.548 -3.32978 2.52022 0
M  V30 1363 N 135.985 -1.50799 -0.457987 0
M  V30 1364 C 137.231 -1.62683 -1.21088 0
M  V30 1365 C 137.564 -0.332268 -1.91336 0
M  V30 1366 O 136.839 0.667043 -1.82704 0
M  V30 1367 C 137.122 -2.81615 -2.24422 0
M  V30 1368 C 136.975 -4.20989 -1.58392 0
M  V30 1369 C 138.294 -2.96085 -3.2561 0
M  V30 1370 H 135.413 -0.592087 -0.438864 0
M  V30 1371 H 138.055 -1.83225 -0.50286 0
M  V30 1372 H 136.205 -2.64231 -2.84806 0
M  V30 1373 H 137.877 -4.49994 -1.01504 0
M  V30 1374 H 136.12 -4.24641 -0.886704 0
M  V30 1375 H 136.791 -5.0016 -2.33547 0
M  V30 1376 H 139.267 -3.12042 -2.75262 0
M  V30 1377 H 138.143 -3.80902 -3.95228 0
M  V30 1378 H 138.404 -2.0726 -3.90507 0
M  V30 1379 N 137.463 0.71206 -1.40597 0
M  V30 1380 C 138.879 1.02058 -1.22704 0
M  V30 1381 C 139.079 2.01228 -0.104729 0
M  V30 1382 O 138.135 2.4674 0.53624 0
M  V30 1383 C 139.448 1.56094 -2.57012 0
M  V30 1384 C 140.996 1.6806 -2.64054 0
M  V30 1385 C 141.471 2.25501 -3.9864 0
M  V30 1386 N 142.962 2.32882 -4.004 0
M  V30 1387 C 143.697 2.78317 -5.01325 0
M  V30 1388 N 143.193 3.23478 -6.12645 0
M  V30 1389 N 144.986 2.77733 -4.88693 0
M  V30 1390 H 137.137 0.0547896 -2.12329 0
M  V30 1391 H 139.4 0.0869027 -0.944008 0
M  V30 1392 H 139.106 0.906865 -3.39807 0
M  V30 1393 H 138.98 2.54564 -2.78347 0
M  V30 1394 H 141.367 2.32583 -1.81629 0
M  V30 1395 H 141.448 0.681802 -2.46546 0
M  V30 1396 H 141.092 1.61598 -4.81506 0
M  V30 1397 H 141.022 3.26102 -4.13479 0
M  V30 1398 H 143.513 2.00991 -3.20017 0
M  V30 1399 H 143.826 3.56725 -6.85542 0
M  V30 1400 H 142.171 3.21429 -6.16205 0
M  V30 1401 H 145.362 2.4179 -4.00818 0
M  V30 1402 H 145.535 3.12826 -5.67489 0
M  V30 1403 N 138.941 1.26152 0.944643 0
M  V30 1404 C 139.904 1.07474 2.0244 0
M  V30 1405 C 140.904 0.0242064 1.60782 0
M  V30 1406 O 142.094 0.267302 1.72137 0
M  V30 1407 C 139.226 0.633956 3.34953 0
M  V30 1408 H 140.419 2.03336 2.20442 0
M  V30 1409 H 137.972 1.087 1.12312 0
M  V30 1410 H 138.707 -0.326811 3.22649 0
M  V30 1411 H 138.492 1.39247 3.66542 0
M  V30 1412 H 139.982 0.52501 4.14287 0
M  V30 1413 N 140.419 -1.14872 1.07899 0
M  V30 1414 C 141.667 -1.85422 0.803941 0
M  V30 1415 C 141.988 -1.83051 -0.67211 0
M  V30 1416 O 141.258 -1.27532 -1.48703 0
M  V30 1417 H 139.838 -0.686537 0.294408 0
M  V30 1418 H 142.5 -1.39226 1.3639 0
M  V30 1419 H 141.596 -2.90399 1.14346 0
M  V30 1420 N 141.898 -0.863906 -1.31812 0
M  V30 1421 C 142.861 -0.320212 -2.26952 0
M  V30 1422 C 143.861 0.525369 -1.51975 0
M  V30 1423 O 145.051 0.335547 -1.70938 0
M  V30 1424 C 142.183 0.545919 -3.365 0
M  V30 1425 H 143.376 -1.16004 -2.76556 0
M  V30 1426 H 140.929 -0.638995 -1.42641 0
M  V30 1427 H 141.664 1.40718 -2.92179 0
M  V30 1428 H 141.449 -0.0594674 -3.92055 0
M  V30 1429 H 142.939 0.918796 -4.07367 0
M  V30 1430 N 143.376 1.44774 -0.622745 0
M  V30 1431 C 144.286 2.34433 0.0886031 0
M  V30 1432 C 145.302 1.52131 0.844529 0
M  V30 1433 O 146.478 1.84886 0.798691 0
M  V30 1434 C 143.543 3.29986 1.0635 0
M  V30 1435 C 142.604 4.28195 0.307873 0
M  V30 1436 C 141.837 5.19183 1.23633 0
M  V30 1437 O 142.06 5.13918 2.47476 0
M  V30 1438 O 140.994 5.97515 0.725189 0
M  V30 1439 H 144.82 2.96693 -0.648599 0
M  V30 1440 H 142.405 1.44408 -0.382957 0
M  V30 1441 H 144.287 3.88825 1.6246 0
M  V30 1442 H 142.962 2.70269 1.78146 0
M  V30 1443 H 141.869 3.72927 -0.296064 0
M  V30 1444 H 143.202 4.90808 -0.3699 0
M  V30 1445 N 144.854 0.36279 1.53368 0
M  V30 1446 C 145.817 -0.472679 2.24273 0
M  V30 1447 C 146.817 -1.012 1.24961 0
M  V30 1448 O 148.007 -0.898194 1.49259 0
M  V30 1449 C 145.139 -1.66039 2.97731 0
M  V30 1450 H 146.332 0.14773 2.99536 0
M  V30 1451 H 143.885 0.114434 1.55881 0
M  V30 1452 H 144.62 -2.31896 2.26704 0
M  V30 1453 H 144.405 -1.28066 3.70596 0
M  V30 1454 H 145.895 -2.25252 3.51641 0
M  V30 1455 N 146.332 -1.57332 0.0918853 0
M  V30 1456 C 147.578 -1.94524 -0.573425 0
M  V30 1457 C 147.911 -0.973578 -1.68033 0
M  V30 1458 O 147.186 -0.00609226 -1.94499 0
M  V30 1459 C 147.469 -3.41858 -1.13161 0
M  V30 1460 C 147.322 -4.4979 -0.0299747 0
M  V30 1461 C 148.641 -3.90435 -2.03098 0
M  V30 1462 H 145.76 -0.70734 -0.206975 0
M  V30 1463 H 148.402 -1.89309 0.161942 0
M  V30 1464 H 146.552 -3.46433 -1.7583 0
M  V30 1465 H 148.224 -4.57327 0.604112 0
M  V30 1466 H 146.467 -4.291 0.636833 0
M  V30 1467 H 147.138 -5.50069 -0.461287 0
M  V30 1468 H 149.614 -3.87992 -1.50338 0
M  V30 1469 H 148.49 -4.94097 -2.39081 0
M  V30 1470 H 148.751 -3.29541 -2.94712 0
M  V30 1471 N 147.81 0.181792 -1.56548 0
M  V30 1472 C 149.226 0.53316 -1.50431 0
M  V30 1473 C 149.426 1.85184 -0.794297 0
M  V30 1474 O 148.482 2.50058 -0.350318 0
M  V30 1475 C 149.795 0.575597 -2.9514 0
M  V30 1476 C 151.343 0.663519 -3.05886 0
M  V30 1477 C 151.818 0.736946 -4.52032 0
M  V30 1478 N 153.309 0.800118 -4.56237 0
M  V30 1479 C 154.044 0.877327 -5.66649 0
M  V30 1480 N 153.54 0.916016 -6.86718 0
M  V30 1481 N 155.333 0.915542 -5.54594 0
M  V30 1482 H 147.484 -0.683025 -2.01118 0
M  V30 1483 H 149.747 -0.244988 -0.915797 0
M  V30 1484 H 149.453 -0.324482 -3.502 0
M  V30 1485 H 149.327 1.42572 -3.49218 0
M  V30 1486 H 151.714 1.55403 -2.50867 0
M  V30 1487 H 151.795 -0.21307 -2.54911 0
M  V30 1488 H 151.439 -0.149262 -5.07681 0
M  V30 1489 H 151.369 1.62953 -5.00753 0
M  V30 1490 H 153.86 0.778926 -3.69785 0
M  V30 1491 H 154.173 0.975813 -7.66614 0
M  V30 1492 H 152.518 0.884469 -6.89349 0
M  V30 1493 H 155.709 0.882245 -4.59711 0
M  V30 1494 H 155.882 0.972253 -6.40665 0
M  V30 1495 N 149.288 1.51039 0.449983 0
M  V30 1496 C 150.251 1.70863 1.5277 0
M  V30 1497 C 151.251 0.578846 1.5002 0
M  V30 1498 O 152.441 0.846213 1.52266 0
M  V30 1499 C 149.573 1.75341 2.9235 0
M  V30 1500 H 150.766 2.67034 1.36502 0
M  V30 1501 H 148.319 1.40838 0.677812 0
M  V30 1502 H 149.054 0.809383 3.14037 0
M  V30 1503 H 148.839 2.57436 2.95752 0
M  V30 1504 H 150.329 1.92559 3.70555 0
M  V30 1505 N 150.766 -0.704594 1.40972 0
M  V30 1506 C 152.177 -1.28418 1.3552 0
M  V30 1507 C 152.528 -1.96171 0.0339434 0
M  V30 1508 O 151.653 -1.98231 -0.867944 0
M  V30 1509 C 152.248 -2.33528 2.45459 0
M  V30 1510 C 150.807 -2.87085 2.43433 0
M  V30 1511 C 149.954 -1.61007 2.2577 0
M  V30 1512 H 152.905 -0.499963 1.50619 0
M  V30 1513 H 152.926 -3.14619 2.13998 0
M  V30 1514 H 152.438 -1.84187 3.41609 0
M  V30 1515 H 150.539 -3.40626 1.51013 0
M  V30 1516 H 150.652 -3.3813 3.39419 0
M  V30 1517 H 149.016 -1.86482 1.73483 0
M  V30 1518 H 149.799 -1.13675 3.23933 0
M  V30 1519 N 152.244 -1.26651 -0.937939 0
M  V30 1520 C 153.492 -1.12165 -1.68118 0
M  V30 1521 C 153.813 0.334983 -1.92101 0
M  V30 1522 O 153.083 1.23583 -1.52 0
M  V30 1523 H 151.663 -0.412093 -0.623048 0
M  V30 1524 H 154.325 -1.59027 -1.12678 0
M  V30 1525 H 153.421 -1.64289 -2.6536 0
M  V30 1526 N 153.722 1.14298 -1.08507 0
M  V30 1527 C 154.654 2.1907 -0.673859 0
M  V30 1528 C 155.667 1.60381 0.279577 0
M  V30 1529 O 156.856 1.78374 0.0670754 0
M  V30 1530 C 153.956 3.38888 0.0290979 0
M  V30 1531 C 153.129 4.27103 -0.943494 0
M  V30 1532 C 152.188 5.25477 -0.275676 0
M  V30 1533 O 151.214 5.61709 -0.920401 0
M  V30 1534 N 152.416 5.7227 0.974013 0
M  V30 1535 H 155.181 2.54965 -1.57521 0
M  V30 1536 H 152.742 1.29528 -0.971287 0
M  V30 1537 H 154.734 4.01761 0.48683 0
M  V30 1538 H 153.304 3.01309 0.832555 0
M  V30 1539 H 152.524 3.61149 -1.58004 0
M  V30 1540 H 153.812 4.82905 -1.60251 0
M  V30 1541 H 153.21 5.44965 1.51755 0
M  V30 1542 H 151.767 6.37127 1.37522 0
M  V30 1543 N 155.201 0.870884 1.31352 0
M  V30 1544 C 156.151 0.298889 2.26032 0
M  V30 1545 C 157.135 -0.564595 1.50669 0
M  V30 1546 O 158.327 -0.411323 1.72154 0
M  V30 1547 C 155.456 -0.497842 3.39671 0
M  V30 1548 C 154.542 0.378937 4.22404 0
M  V30 1549 N 154.933 1.47284 4.83881 0
M  V30 1550 C 153.231 0.171535 4.4567 0
M  V30 1551 C 153.932 2.01359 5.45738 0
M  V30 1552 N 152.908 1.31047 5.27568 0
M  V30 1553 H 156.71 1.13494 2.71102 0
M  V30 1554 H 154.224 0.718745 1.45629 0
M  V30 1555 H 156.221 -0.924155 4.06528 0
M  V30 1556 H 154.881 -1.33149 2.96144 0
M  V30 1557 H 155.892 1.85575 4.8351 0
M  V30 1558 H 152.569 -0.626091 4.12779 0
M  V30 1559 H 153.959 2.93143 6.0458 0
M  V30 1560 N 156.679 -1.44442 0.630414 0
M  V30 1561 C 157.904 -2.06927 0.139944 0
M  V30 1562 C 158.329 -1.46795 -1.17613 0
M  V30 1563 O 157.687 -0.569144 -1.72135 0
M  V30 1564 C 157.735 -3.6058 0.0379581 0
M  V30 1565 O 156.839 -3.99937 -1.0062 0
M  V30 1566 H 156.18 -0.658608 0.0844483 0
M  V30 1567 H 158.71 -1.85327 0.866891 0
M  V30 1568 H 158.72 -4.07714 -0.152856 0
M  V30 1569 H 157.395 -4.03728 0.998809 0
M  V30 1570 H 155.972 -3.64436 -0.79001 0
M  V30 1571 N 158.157 -0.370918 -1.53173 0
M  V30 1572 C 159.067 0.480823 -2.2962 0
M  V30 1573 C 160.083 1.08789 -1.35798 0
M  V30 1574 O 161.259 1.09768 -1.68858 0
M  V30 1575 C 158.324 1.60227 -3.07454 0
M  V30 1576 C 157.385 1.0222 -4.16953 0
M  V30 1577 C 156.618 2.0902 -4.91066 0
M  V30 1578 O 156.841 3.30222 -4.65091 0
M  V30 1579 O 155.775 1.71778 -5.76867 0
M  V30 1580 H 159.601 -0.141421 -3.03371 0
M  V30 1581 H 157.186 -0.135146 -1.48787 0
M  V30 1582 H 159.068 2.25417 -3.56041 0
M  V30 1583 H 157.743 2.20982 -2.36535 0
M  V30 1584 H 156.65 0.334064 -3.72605 0
M  V30 1585 H 157.983 0.459131 -4.90054 0
M  V30 1586 N 159.635 1.57281 -0.100228 0
M  V30 1587 C 160.598 2.13158 0.842398 0
M  V30 1588 C 161.598 1.06202 1.20738 0
M  V30 1589 O 162.788 1.32066 1.13597 0
M  V30 1590 C 159.92 2.65639 2.13655 0
M  V30 1591 H 161.113 2.97766 0.357114 0
M  V30 1592 H 158.666 1.5559 0.148823 0
M  V30 1593 H 159.401 1.84566 2.66657 0
M  V30 1594 H 159.186 3.43844 1.88451 0
M  V30 1595 H 160.676 3.08846 2.81077 0
M  V30 1596 N 161.113 -0.173488 1.56642 0
M  V30 1597 C 162.076 -1.19859 1.95362 0
M  V30 1598 C 163.076 -1.37296 0.83704 0
M  V30 1599 O 164.266 -1.34739 1.10413 0
M  V30 1600 C 161.398 -2.56405 2.24654 0
M  V30 1601 H 162.591 -0.867062 2.87092 0
M  V30 1602 H 160.144 -0.415853 1.50666 0
M  V30 1603 H 160.879 -2.94576 1.35631 0
M  V30 1604 H 160.664 -2.45115 3.06041 0
M  V30 1605 H 162.154 -3.30287 2.5554 0
M  V30 1606 N 162.591 -1.51276 -0.441967 0
M  V30 1607 C 163.837 -1.63958 -1.19355 0
M  V30 1608 C 164.17 -0.352543 -1.90973 0
M  V30 1609 O 163.445 0.647627 -1.83401 0
M  V30 1610 C 163.728 -2.83979 -2.21422 0
M  V30 1611 C 163.581 -4.22646 -1.53918 0
M  V30 1612 C 164.9 -2.99521 -3.22451 0
M  V30 1613 H 162.019 -0.596709 -0.432559 0
M  V30 1614 H 164.661 -1.83748 -0.483398 0
M  V30 1615 H 162.811 -2.67237 -2.81987 0
M  V30 1616 H 164.483 -4.51045 -0.967256 0
M  V30 1617 H 162.726 -4.25558 -0.841615 0
M  V30 1618 H 163.397 -5.02609 -2.28229 0
M  V30 1619 H 165.873 -3.14944 -2.71937 0
M  V30 1620 H 164.749 -3.85072 -3.91166 0
M  V30 1621 H 165.01 -2.11391 -3.88287 0
M  V30 1622 N 164.069 0.697108 -1.41344 0
M  V30 1623 C 165.297 1.48593 -1.43972 0
M  V30 1624 C 165.712 1.88747 -0.0445612 0
M  V30 1625 O 165.069 1.56682 0.935785 0
M  V30 1626 C 165.12 2.74946 -2.34706 0
M  V30 1627 O 164.841 2.36484 -3.68791 0
M  V30 1628 C 166.342 3.687 -2.46121 0
M  V30 1629 H 163.562 0.457964 -0.490418 0
M  V30 1630 H 166.106 0.858429 -1.8561 0
M  V30 1631 H 164.261 3.33937 -1.9638 0
M  V30 1632 H 164.675 3.17918 -4.17167 0
M  V30 1633 H 166.149 4.54145 -3.13777 0
M  V30 1634 H 166.626 4.13081 -1.49199 0
M  V30 1635 H 167.232 3.15613 -2.85076 0
M  V30 1636 N 165.547 1.27147 0.931209 0
M  V30 1637 C 166.775 1.16082 1.71267 0
M  V30 1638 C 167.19 -0.282772 1.8667 0
M  V30 1639 O 166.547 -1.19283 1.38122 0
M  V30 1640 C 166.598 1.8358 3.11417 0
M  V30 1641 O 166.319 3.22299 2.96741 0
M  V30 1642 C 167.82 1.78597 4.05732 0
M  V30 1643 H 165.04 0.403758 0.535929 0
M  V30 1644 H 167.584 1.67953 1.16671 0
M  V30 1645 H 165.739 1.35623 3.62885 0
M  V30 1646 H 166.153 3.55851 3.85319 0
M  V30 1647 H 167.627 2.30444 5.01597 0
M  V30 1648 H 168.104 0.754564 4.3267 0
M  V30 1649 H 168.71 2.26152 3.60188 0
M  V30 1650 N 167.025 -1.13721 1.09112 0
M  V30 1651 C 167.988 -2.17222 0.731241 0
M  V30 1652 C 168.988 -1.59035 -0.237566 0
M  V30 1653 O 170.178 -1.74192 -0.0161704 0
M  V30 1654 C 167.31 -3.40804 0.0808443 0
M  V30 1655 H 168.503 -2.50573 1.64783 0
M  V30 1656 H 166.056 -1.28493 0.889897 0
M  V30 1657 H 166.791 -3.1304 -0.847127 0
M  V30 1658 H 166.576 -3.84306 0.777896 0
M  V30 1659 H 168.066 -4.1731 -0.155657 0
M  V30 1660 N 168.503 -0.877838 -1.30888 0
M  V30 1661 C 169.731 -0.507414 -2.00581 0
M  V30 1662 C 170.146 0.902216 -1.65848 0
M  V30 1663 O 169.503 1.59225 -0.891831 0
M  V30 1664 C 169.554 -0.664162 -3.55347 0
M  V30 1665 O 169.275 -2.01829 -3.8884 0
M  V30 1666 C 170.776 -0.295787 -4.42312 0
M  V30 1667 H 167.996 -0.196866 -0.641471 0
M  V30 1668 H 170.54 -1.18117 -1.66939 0
M  V30 1669 H 168.695 -0.0378619 -3.87381 0
M  V30 1670 H 169.109 -2.03174 -4.8355 0
M  V30 1671 H 170.583 -0.456388 -5.5011 0
M  V30 1672 H 171.06 0.765663 -4.32475 0
M  V30 1673 H 171.666 -0.898113 -4.15709 0
M  V30 1674 N 169.982 1.44106 -0.638065 0
M  V30 1675 C 171.231 2.01194 -0.142744 0
M  V30 1676 C 171.544 1.50835 1.24532 0
M  V30 1677 O 172.75 2.00096 1.83504 0
M  V30 1678 C 171.206 3.59319 -0.20442 0
M  V30 1679 C 170.814 4.18674 -1.59423 0
M  V30 1680 C 172.558 4.23854 0.234079 0
M  V30 1681 C 170.465 5.69045 -1.61065 0
M  V30 1682 H 169.395 0.752367 -0.0495998 0
M  V30 1683 H 172.046 1.65246 -0.797881 0
M  V30 1684 H 170.428 3.92598 0.517946 0
M  V30 1685 H 171.602 3.96921 -2.34074 0
M  V30 1686 H 169.917 3.66453 -1.97741 0
M  V30 1687 H 172.514 5.34155 0.241443 0
M  V30 1688 H 172.857 3.96688 1.2627 0
M  V30 1689 H 173.39 3.95403 -0.436025 0
M  V30 1690 H 170.129 6.00956 -2.61787 0
M  V30 1691 H 169.649 5.929 -0.90718 0
M  V30 1692 H 171.328 6.32809 -1.34766 0
M  V30 1693 N 171.46 0.379036 1.52974 0
M  V30 1694 C 172.708 -0.206014 2.01047 0
M  V30 1695 C 173.029 -1.48175 1.26765 0
M  V30 1696 O 172.299 -1.92085 0.384743 0
M  V30 1697 H 170.879 -0.0791184 0.742798 0
M  V30 1698 H 173.541 0.508366 1.88153 0
M  V30 1699 H 172.637 -0.423501 3.09213 0
M  V30 1700 N 172.938 -1.57226 0.108567 0
M  V30 1701 C 174.186 -1.94448 -0.550853 0
M  V30 1702 C 174.507 -0.992074 -1.67878 0
M  V30 1703 O 173.777 -0.0465 -1.95845 0
M  V30 1704 H 172.357 -0.717897 -0.206479 0
M  V30 1705 H 175.019 -1.94112 0.175062 0
M  V30 1706 H 174.115 -2.97218 -0.952259 0
M  V30 1707 N 174.416 0.165178 -1.56732 0
M  V30 1708 C 175.663 0.880807 -1.8234 0
M  V30 1709 C 175.991 1.81977 -0.686621 0
M  V30 1710 O 175.246 1.92971 0.325697 0
M  V30 1711 C 175.545 1.70405 -3.1416 0
M  V30 1712 C 175.211 0.913475 -4.4155 0
M  V30 1713 C 173.873 0.695303 -4.7615 0
M  V30 1714 C 176.225 0.359349 -5.1996 0
M  V30 1715 C 173.553 -0.0879947 -5.86634 0
M  V30 1716 C 175.905 -0.410893 -6.31264 0
M  V30 1717 C 174.569 -0.639808 -6.64427 0
M  V30 1718 H 173.839 0.32231 -0.667231 0
M  V30 1719 H 176.486 0.145402 -1.90947 0
M  V30 1720 H 174.791 2.50903 -3.00923 0
M  V30 1721 H 176.488 2.26091 -3.31186 0
M  V30 1722 H 173.078 1.09357 -4.14414 0
M  V30 1723 H 177.262 0.515228 -4.93618 0
M  V30 1724 H 172.518 -0.27503 -6.10781 0
M  V30 1725 H 176.692 -0.847494 -6.91224 0
M  V30 1726 H 174.319 -1.24864 -7.49875 0
M  V30 1727 N 175.894 1.51508 0.433938 0
M  V30 1728 C 177.142 1.6402 1.18075 0
M  V30 1729 C 177.463 0.360328 1.91642 0
M  V30 1730 O 176.733 -0.623945 1.85698 0
M  V30 1731 H 175.313 0.6045 0.43885 0
M  V30 1732 H 177.975 1.88452 0.497178 0
M  V30 1733 H 177.071 2.46949 1.90847 0
M  V30 1734 N 177.372 -0.689602 1.41712 0
M  V30 1735 C 178.649 -1.44457 1.31877 0
M  V30 1736 C 179.029 -2.11039 -0.0508537 0
M  V30 1737 O 178.377 -2.02138 -1.06547 0
M  V30 1738 C 178.587 -2.45913 2.47645 0
M  V30 1739 C 179.935 -3.10991 2.89084 0
M  V30 1740 O 180.959 -2.56238 2.47428 0
M  V30 1741 O 179.818 -4.10174 3.61137 0
M  V30 1742 H 176.912 -0.64362 0.519309 0
M  V30 1743 H 179.458 -0.719576 1.53689 0
M  V30 1744 H 178.23 -1.95409 3.39015 0
M  V30 1745 H 177.853 -3.25913 2.27742 0
M  V30 1746 N 178.85 -1.27639 -0.924453 0
M  V30 1747 C 180.096 -1.14336 -1.67497 0
M  V30 1748 C 180.429 0.309465 -1.91718 0
M  V30 1749 O 179.704 1.22608 -1.50989 0
M  V30 1750 C 179.987 -1.93096 -3.0395 0
M  V30 1751 C 179.84 -3.46381 -2.8695 0
M  V30 1752 C 181.159 -1.73798 -4.0433 0
M  V30 1753 H 178.278 -0.416728 -0.607871 0
M  V30 1754 H 180.92 -1.56832 -1.07256 0
M  V30 1755 H 179.07 -1.56982 -3.55372 0
M  V30 1756 H 180.742 -3.92343 -2.42621 0
M  V30 1757 H 178.985 -3.72557 -2.22225 0
M  V30 1758 H 179.656 -3.96735 -3.83804 0
M  V30 1759 H 182.132 -2.05293 -3.61931 0
M  V30 1760 H 181.008 -2.31294 -4.97789 0
M  V30 1761 H 181.269 -0.686725 -4.36734 0
M  V30 1762 N 180.328 1.1314 -1.09713 0
M  V30 1763 C 181.574 1.84757 -0.836224 0
M  V30 1764 C 181.907 1.8347 0.636598 0
M  V30 1765 O 181.182 1.27491 1.46889 0
M  V30 1766 C 181.465 3.32782 -1.37578 0
M  V30 1767 C 181.318 3.42567 -2.91493 0
M  V30 1768 C 182.637 4.28307 -1.01198 0
M  V30 1769 H 179.756 0.67082 -0.305236 0
M  V30 1770 H 182.398 1.3278 -1.35903 0
M  V30 1771 H 180.548 3.77177 -0.931097 0
M  V30 1772 H 182.22 3.06862 -3.44432 0
M  V30 1773 H 180.463 2.83349 -3.28475 0
M  V30 1774 H 181.134 4.46674 -3.24324 0
M  V30 1775 H 183.61 3.91999 -1.39556 0
M  V30 1776 H 182.486 5.30307 -1.41653 0
M  V30 1777 H 182.747 4.42029 0.0794833 0
M  V30 1778 N 181.806 0.884767 1.30421 0
M  V30 1779 C 182.756 0.322846 2.25703 0
M  V30 1780 C 183.74 -0.548582 1.51259 0
M  V30 1781 O 184.932 -0.39304 1.72581 0
M  V30 1782 C 182.061 -0.461787 3.4018 0
M  V30 1783 C 181.147 0.423717 4.21978 0
M  V30 1784 N 181.538 1.52408 4.82292 0
M  V30 1785 C 179.836 0.218795 4.45463 0
M  V30 1786 C 180.537 2.07136 5.43571 0
M  V30 1787 N 179.513 1.36635 5.26148 0
M  V30 1788 H 183.315 1.16363 2.69883 0
M  V30 1789 H 180.829 0.73415 1.44859 0
M  V30 1790 H 182.826 -0.880985 4.07485 0
M  V30 1791 H 181.486 -1.30001 2.9754 0
M  V30 1792 H 182.497 1.90693 4.81515 0
M  V30 1793 H 179.174 -0.582275 4.1342 0
M  V30 1794 H 180.564 2.99538 6.01437 0
M  V30 1795 N 183.284 -1.43765 0.645699 0
M  V30 1796 C 184.512 -2.06253 0.163556 0
M  V30 1797 C 184.927 -1.48352 -1.16778 0
M  V30 1798 O 184.284 -0.611932 -1.71935 0
M  V30 1799 C 184.335 -3.61453 0.0583186 0
M  V30 1800 O 184.056 -4.172 1.33702 0
M  V30 1801 C 185.557 -4.41002 -0.450795 0
M  V30 1802 H 182.777 -0.665413 0.0864077 0
M  V30 1803 H 185.321 -1.84396 0.884222 0
M  V30 1804 H 183.476 -3.82522 -0.612865 0
M  V30 1805 H 183.89 -5.10791 1.19131 0
M  V30 1806 H 185.364 -5.49966 -0.473403 0
M  V30 1807 H 185.841 -4.13488 -1.48068 0
M  V30 1808 H 186.447 -4.24886 0.187637 0
M  V30 1809 N 184.763 -0.387143 -1.52771 0
M  V30 1810 C 185.693 0.440551 -2.29306 0
M  V30 1811 C 186.674 1.06535 -1.32606 0
M  V30 1812 O 187.859 1.07853 -1.61497 0
M  V30 1813 C 184.989 1.56919 -3.09829 0
M  V30 1814 C 183.943 1.07054 -4.14395 0
M  V30 1815 C 183.269 2.29109 -4.83129 0
M  V30 1816 C 184.569 0.140015 -5.22112 0
M  V30 1817 H 186.263 -0.198026 -2.98744 0
M  V30 1818 H 183.809 -0.09668 -1.43675 0
M  V30 1819 H 185.762 2.15503 -3.62128 0
M  V30 1820 H 184.486 2.23532 -2.3812 0
M  V30 1821 H 183.145 0.507247 -3.63074 0
M  V30 1822 H 182.793 2.94227 -4.0797 0
M  V30 1823 H 182.493 1.96406 -5.53804 0
M  V30 1824 H 184.017 2.88339 -5.38231 0
M  V30 1825 H 185.431 0.633978 -5.69784 0
M  V30 1826 H 183.828 -0.0971485 -6.00021 0
M  V30 1827 H 184.898 -0.811711 -4.78058 0
M  V30 1828 N 186.241 1.57166 -0.116904 0
M  V30 1829 C 187.49 1.94298 0.541407 0
M  V30 1830 C 187.803 1.00236 1.67964 0
M  V30 1831 O 189.009 1.26826 2.40057 0
M  V30 1832 C 187.465 3.45306 1.01449 0
M  V30 1833 C 187.073 4.47899 -0.0951738 0
M  V30 1834 C 188.817 3.91361 1.6443 0
M  V30 1835 C 186.724 5.90083 0.394491 0
M  V30 1836 H 185.654 0.725308 0.206019 0
M  V30 1837 H 188.305 1.82446 -0.196419 0
M  V30 1838 H 186.687 3.52385 1.80667 0
M  V30 1839 H 187.861 4.52486 -0.871374 0
M  V30 1840 H 186.176 4.11583 -0.631505 0
M  V30 1841 H 188.773 4.95004 2.02176 0
M  V30 1842 H 189.116 3.3122 2.52189 0
M  V30 1843 H 189.649 3.87073 0.917559 0
M  V30 1844 H 186.388 6.53974 -0.447004 0
M  V30 1845 H 185.908 5.88921 1.13722 0
M  V30 1846 H 187.587 6.41307 0.856399 0
M  V30 1847 N 187.719 -0.156864 1.56817 0
M  V30 1848 C 188.651 -1.21883 1.94106 0
M  V30 1849 C 189.664 -1.3971 0.835754 0
M  V30 1850 O 190.853 -1.39457 1.11418 0
M  V30 1851 C 187.953 -2.58527 2.19127 0
M  V30 1852 C 187.126 -2.61809 3.50393 0
M  V30 1853 C 186.185 -3.7992 3.64071 0
M  V30 1854 O 185.211 -3.65249 4.36557 0
M  V30 1855 N 186.413 -4.96973 2.99997 0
M  V30 1856 H 189.178 -0.901974 2.85805 0
M  V30 1857 H 186.739 -0.346513 1.58148 0
M  V30 1858 H 188.731 -3.36034 2.25529 0
M  V30 1859 H 187.301 -2.82545 1.33742 0
M  V30 1860 H 186.521 -1.7029 3.5552 0
M  V30 1861 H 187.809 -2.61024 4.36742 0
M  V30 1862 H 187.207 -5.11794 2.41004 0
M  V30 1863 H 185.764 -5.7229 3.11974 0
M  V30 1864 N 189.197 -1.51736 -0.425897 0
M  V30 1865 C 190.613 -1.40166 -0.76326 0
M  V30 1866 C 190.813 -0.492962 -1.95377 0
M  V30 1867 O 189.869 0.0475815 -2.52455 0
M  V30 1868 C 191.182 -2.82403 -1.03291 0
M  V30 1869 C 192.73 -2.91632 -1.13665 0
M  V30 1870 C 193.205 -4.34801 -1.43916 0
M  V30 1871 N 194.696 -4.3796 -1.50816 0
M  V30 1872 C 195.431 -5.4578 -1.75817 0
M  V30 1873 N 194.927 -6.63744 -1.98534 0
M  V30 1874 N 196.72 -5.33274 -1.77694 0
M  V30 1875 H 188.871 -2.09361 0.358 0
M  V30 1876 H 191.134 -0.942941 0.0978094 0
M  V30 1877 H 190.84 -3.50943 -0.230696 0
M  V30 1878 H 190.714 -3.22428 -1.95754 0
M  V30 1879 H 193.101 -2.23284 -1.92947 0
M  V30 1880 H 193.182 -2.55088 -0.190756 0
M  V30 1881 H 192.826 -5.03703 -0.65157 0
M  V30 1882 H 192.756 -4.68868 -2.39729 0
M  V30 1883 H 195.247 -3.52919 -1.35118 0
M  V30 1884 H 195.56 -7.41704 -2.17013 0
M  V30 1885 H 193.905 -6.66839 -1.95832 0
M  V30 1886 H 197.096 -4.40098 -1.59473 0
M  V30 1887 H 197.269 -6.1738 -1.9684 0
M  V30 1888 N 190.675 0.682077 -1.42076 0
M  V30 1889 C 191.952 1.43755 -1.32642 0
M  V30 1890 C 192.332 2.11063 0.0396611 0
M  V30 1891 O 191.68 2.02701 1.05474 0
M  V30 1892 C 191.89 2.44596 -2.48946 0
M  V30 1893 C 193.238 3.09454 -2.9073 0
M  V30 1894 O 194.262 2.54922 -2.48783 0
M  V30 1895 O 193.121 4.08253 -3.63307 0
M  V30 1896 H 190.215 0.640857 -0.522715 0
M  V30 1897 H 192.761 0.711415 -1.54068 0
M  V30 1898 H 191.533 1.93609 -3.40046 0
M  V30 1899 H 191.156 3.24701 -2.29467 0
M  V30 1900 N 192.153 1.28127 0.917671 0
M  V30 1901 C 193.401 1.14825 1.66312 0
M  V30 1902 C 193.722 -0.304379 1.9261 0
M  V30 1903 O 192.992 -1.21149 1.53947 0
M  V30 1904 H 191.572 0.421953 0.616413 0
M  V30 1905 H 194.234 1.608 1.10134 0
M  V30 1906 H 193.33 1.68489 2.62712 0
M  V30 1907 N 193.631 -1.12557 1.10312 0
M  V30 1908 C 194.859 -1.87864 0.866873 0
M  V30 1909 C 195.274 -1.79588 -0.582557 0
M  V30 1910 O 194.631 -1.16887 -1.40156 0
M  V30 1911 C 194.682 -3.37125 1.30496 0
M  V30 1912 O 194.403 -3.45201 2.69755 0
M  V30 1913 C 195.904 -4.29373 1.10243 0
M  V30 1914 H 193.124 -0.594452 0.311236 0
M  V30 1915 H 195.668 -1.42429 1.46745 0
M  V30 1916 H 193.823 -3.80109 0.748081 0
M  V30 1917 H 194.237 -4.38056 2.88457 0
M  V30 1918 H 195.711 -5.32394 1.45811 0
M  V30 1919 H 196.188 -4.39181 0.0409492 0
M  V30 1920 H 196.794 -3.92169 1.64571 0
M  V30 1921 N 195.109 -0.891671 -1.2995 0
M  V30 1922 C 196.334 -0.527932 -2.00568 0
M  V30 1923 C 196.759 0.877969 -1.66353 0
M  V30 1924 O 196.117 1.58301 -0.883762 0
M  V30 1925 C 196.165 -0.717745 -3.53385 0
M  V30 1926 O 195.269 0.233376 -4.11739 0
M  V30 1927 H 194.61 -0.20722 -0.630837 0
M  V30 1928 H 197.14 -1.20105 -1.65638 0
M  V30 1929 H 197.15 -0.619307 -4.03272 0
M  V30 1930 H 195.825 -1.74276 -3.77625 0
M  V30 1931 H 194.402 0.0880706 -3.72796 0
M  V30 1932 N 196.587 1.43421 -0.653314 0
M  V30 1933 C 197.55 2.29182 0.0287951 0
M  V30 1934 C 198.55 1.42213 0.750465 0
M  V30 1935 O 199.74 1.63843 0.591701 0
M  V30 1936 C 196.872 3.24278 1.05151 0
M  V30 1937 H 198.065 2.90985 -0.725786 0
M  V30 1938 H 195.618 1.50702 -0.414545 0
M  V30 1939 H 196.353 2.6737 1.83532 0
M  V30 1940 H 196.138 3.88396 0.537687 0
M  V30 1941 H 197.628 3.88647 1.52786 0
M  V30 1942 N 198.065 0.39524 1.52563 0
M  V30 1943 C 198.975 -0.444232 2.30356 0
M  V30 1944 C 199.991 -1.06615 1.37511 0
M  V30 1945 O 201.167 -1.07067 1.70583 0
M  V30 1946 C 198.232 -1.55315 3.09964 0
M  V30 1947 C 197.293 -0.955734 4.18526 0
M  V30 1948 C 196.526 -2.01181 4.9433 0
M  V30 1949 O 196.749 -3.22781 4.70285 0
M  V30 1950 O 195.683 -1.62579 5.79527 0
M  V30 1951 H 199.509 0.189667 3.03107 0
M  V30 1952 H 197.094 0.1588 1.48554 0
M  V30 1953 H 198.976 -2.19724 3.59582 0
M  V30 1954 H 197.651 -2.17191 2.4002 0
M  V30 1955 H 196.558 -0.274743 3.7309 0
M  V30 1956 H 197.891 -0.381109 4.90722 0
M  V30 1957 N 199.544 -1.57102 0.125237 0
M  V30 1958 C 200.474 -2.18659 -0.819174 0
M  V30 1959 C 201.455 -1.12843 -1.27281 0
M  V30 1960 O 202.64 -1.41104 -1.33429 0
M  V30 1961 C 199.77 -2.79096 -2.06695 0
M  V30 1962 C 198.724 -3.90548 -1.75088 0
M  V30 1963 C 198.05 -4.37821 -3.06948 0
M  V30 1964 C 199.35 -5.12356 -1.01435 0
M  V30 1965 H 201.044 -2.9783 -0.306202 0
M  V30 1966 H 198.59 -1.4326 -0.145839 0
M  V30 1967 H 200.543 -3.2082 -2.73226 0
M  V30 1968 H 199.267 -1.97223 -2.60328 0
M  V30 1969 H 197.926 -3.49409 -1.10944 0
M  V30 1970 H 197.574 -3.52799 -3.58527 0
M  V30 1971 H 197.274 -5.12982 -2.86571 0
M  V30 1972 H 198.798 -4.822 -3.74587 0
M  V30 1973 H 200.212 -5.5106 -1.58132 0
M  V30 1974 H 198.609 -5.9314 -0.911319 0
M  V30 1975 H 199.679 -4.849 -0.00218681 0
M  V30 1976 N 201.022 0.148545 -1.56898 0
M  V30 1977 C 202.433 0.708766 -1.72723 0
M  V30 1978 C 202.784 1.81734 -0.739395 0
M  V30 1979 O 201.909 2.16194 0.0943169 0
M  V30 1980 C 202.504 1.29245 -3.13179 0
M  V30 1981 C 201.063 1.79925 -3.30611 0
M  V30 1982 C 200.21 0.687111 -2.68652 0
M  V30 1983 H 203.161 -0.0771063 -1.58513 0
M  V30 1984 H 203.182 2.16224 -3.13093 0
M  V30 1985 H 202.694 0.485382 -3.85053 0
M  V30 1986 H 200.795 2.63203 -2.63732 0
M  V30 1987 H 200.908 1.92903 -4.38549 0
M  V30 1988 H 199.272 1.11335 -2.29078 0
M  V30 1989 H 200.055 -0.108483 -3.43129 0
M  V30 1990 N 202.5 1.5196 0.417844 0
M  V30 1991 C 203.911 1.57851 0.997 0
M  V30 1992 C 204.262 0.413714 1.91789 0
M  V30 1993 O 203.387 -0.467057 2.113 0
M  V30 1994 C 203.982 2.86085 1.81496 0
M  V30 1995 C 202.541 2.94483 2.34428 0
M  V30 1996 C 201.688 2.52707 1.14169 0
M  V30 1997 H 204.639 1.57455 0.198392 0
M  V30 1998 H 204.66 2.70947 2.67148 0
M  V30 1999 H 204.172 3.70842 1.14446 0
M  V30 2000 H 202.273 2.142 3.04875 0
M  V30 2001 H 202.386 3.98546 2.65891 0
M  V30 2002 H 200.75 2.06353 1.49301 0
M  V30 2003 H 201.533 3.39828 0.486999 0
M  V30 2004 N 203.978 -0.674533 1.42435 0
M  V30 2005 C 205.226 -1.43175 1.42637 0
M  V30 2006 C 205.547 -1.94951 0.0438992 0
M  V30 2007 O 204.817 -1.7308 -0.917607 0
M  V30 2008 H 203.397 -0.531307 0.525092 0
M  V30 2009 H 206.059 -0.797006 1.77859 0
M  V30 2010 H 205.155 -2.28463 2.12629 0
M  V30 2011 N 205.456 -1.28612 -0.910864 0
M  V30 2012 C 206.703 -1.15934 -1.66029 0
M  V30 2013 C 207.031 0.291483 -1.92303 0
M  V30 2014 O 206.286 1.22816 -1.52364 0
M  V30 2015 C 206.585 -1.90624 -3.0232 0
M  V30 2016 C 206.251 -3.40405 -2.95695 0
M  V30 2017 C 204.913 -3.81255 -2.93595 0
M  V30 2018 C 207.265 -4.359 -2.85728 0
M  V30 2019 C 204.593 -5.15936 -2.79334 0
M  V30 2020 C 206.945 -5.70657 -2.73007 0
M  V30 2021 C 205.609 -6.10779 -2.69267 0
M  V30 2022 H 204.879 -0.424234 -0.607541 0
M  V30 2023 H 207.526 -1.5942 -1.06101 0
M  V30 2024 H 205.831 -1.39696 -3.6605 0
M  V30 2025 H 207.528 -1.78228 -3.59215 0
M  V30 2026 H 204.118 -3.07927 -2.98125 0
M  V30 2027 H 208.302 -4.053 -2.86436 0
M  V30 2028 H 203.558 -5.46146 -2.74835 0
M  V30 2029 H 207.732 -6.44311 -2.64264 0
M  V30 2030 H 205.359 -7.1509 -2.57974 0
M  V30 2031 N 206.934 1.1197 -1.10907 0
M  V30 2032 C 208.162 1.87402 -0.876824 0
M  V30 2033 C 208.577 1.79894 0.573025 0
M  V30 2034 O 207.934 1.17629 1.39534 0
M  V30 2035 C 207.985 3.36428 -1.32282 0
M  V30 2036 O 207.706 3.43765 -2.71582 0
M  V30 2037 C 209.207 4.28783 -1.12518 0
M  V30 2038 H 206.427 0.592793 -0.314384 0
M  V30 2039 H 208.971 1.41649 -1.47499 0
M  V30 2040 H 207.126 3.79706 -0.768229 0
M  V30 2041 H 207.54 4.3652 -2.90776 0
M  V30 2042 H 209.014 5.31613 -1.48633 0
M  V30 2043 H 209.491 4.39153 -0.0642394 0
M  V30 2044 H 210.097 3.91291 -1.66648 0
M  V30 2045 N 208.412 0.89855 1.29475 0
M  V30 2046 C 209.66 0.522847 1.9522 0
M  V30 2047 C 209.981 -0.93371 1.71192 0
M  V30 2048 O 209.251 -1.65823 1.04305 0
M  V30 2049 H 207.831 0.190366 0.722336 0
M  V30 2050 H 210.493 1.14459 1.5775 0
M  V30 2051 H 209.589 0.704476 3.04045 0
M  V30 2052 N 209.89 -1.43072 0.660911 0
M  V30 2053 C 211.115 -2.06584 0.183805 0
M  V30 2054 C 211.54 -1.49257 -1.14472 0
M  V30 2055 O 210.898 -0.605528 -1.70889 0
M  V30 2056 C 210.946 -3.60418 0.114434 0
M  V30 2057 O 210.05 -4.01981 -0.921137 0
M  V30 2058 H 209.391 -0.656669 0.0983994 0
M  V30 2059 H 211.921 -1.83447 0.906006 0
M  V30 2060 H 211.931 -4.07946 -0.0663394 0
M  V30 2061 H 210.606 -4.01519 1.08422 0
M  V30 2062 H 209.183 -3.66029 -0.71253 0
M  V30 2063 N 211.368 -0.403325 -1.52352 0
M  V30 2064 C 212.301 0.469463 -2.23319 0
M  V30 2065 C 213.279 1.05272 -1.23922 0
M  V30 2066 O 214.463 1.10169 -1.52954 0
M  V30 2067 C 211.59 1.6511 -2.9573 0
M  V30 2068 C 210.636 1.19178 -4.0951 0
M  V30 2069 S 211.469 0.161718 -5.35256 0
M  V30 2070 C 212.625 1.34882 -6.11194 0
M  V30 2071 H 212.858 -0.133134 -2.97002 0
M  V30 2072 H 210.391 -0.187588 -1.53256 0
M  V30 2073 H 212.349 2.3287 -3.38056 0
M  V30 2074 H 211.01 2.22503 -2.21701 0
M  V30 2075 H 210.203 2.07444 -4.59329 0
M  V30 2076 H 209.805 0.592911 -3.6927 0
M  V30 2077 H 212.097 2.27345 -6.38217 0
M  V30 2078 H 213.04 0.89128 -7.02468 0
M  V30 2079 H 213.448 1.57198 -5.42171 0
M  V30 2080 N 212.846 1.57033 -0.133567 0
M  V30 2081 C 214.123 1.87256 0.56522 0
M  V30 2082 C 214.503 1.03726 1.83859 0
M  V30 2083 O 213.851 0.120247 2.28183 0
M  V30 2084 C 214.061 3.3865 0.843636 0
M  V30 2085 C 215.409 4.07574 1.19032 0
M  V30 2086 O 216.433 3.43752 0.933429 0
M  V30 2087 O 215.292 5.20259 1.67312 0
M  V30 2088 H 212.386 0.775678 0.286796 0
M  V30 2089 H 214.932 1.68855 -0.169168 0
M  V30 2090 H 213.704 3.91257 -0.0581149 0
M  V30 2091 H 213.327 3.62532 1.63268 0
M  V30 2092 N 214.325 -0.140222 1.56975 0
M  V30 2093 C 215.571 -0.852949 1.83991 0
M  V30 2094 C 215.904 -1.80512 0.716187 0
M  V30 2095 O 215.179 -1.92479 -0.279681 0
M  V30 2096 C 215.462 -1.6215 3.21527 0
M  V30 2097 C 215.315 -0.690363 4.4447 0
M  V30 2098 C 216.634 -2.58247 3.56366 0
M  V30 2099 H 213.753 -0.308634 0.669264 0
M  V30 2100 H 216.395 -0.117898 1.89634 0
M  V30 2101 H 214.545 -2.24812 3.16847 0
M  V30 2102 H 216.217 -0.0742264 4.6124 0
M  V30 2103 H 214.46 -0.000396433 4.338 0
M  V30 2104 H 215.131 -1.2643 5.37326 0
M  V30 2105 H 217.607 -2.05701 3.61699 0
M  V30 2106 H 216.483 -3.09067 4.53617 0
M  V30 2107 H 216.744 -3.39923 2.82674 0
M  V30 2108 N 215.803 -1.52179 -0.40978 0
M  V30 2109 C 217.031 -1.70054 -1.17853 0
M  V30 2110 C 217.446 -0.409735 -1.843 0
M  V30 2111 O 216.803 0.614183 -1.71855 0
M  V30 2112 C 216.854 -2.83568 -2.24213 0
M  V30 2113 O 216.575 -4.0765 -1.60478 0
M  V30 2114 C 218.076 -3.12947 -3.13973 0
M  V30 2115 H 215.296 -0.569917 -0.354169 0
M  V30 2116 H 217.84 -1.98734 -0.482198 0
M  V30 2117 H 215.995 -2.57409 -2.89516 0
M  V30 2118 H 216.409 -4.70899 -2.30986 0
M  V30 2119 H 217.883 -3.95889 -3.84677 0
M  V30 2120 H 218.36 -2.26472 -3.76307 0
M  V30 2121 H 218.966 -3.40868 -2.5434 0
M  V30 2122 N 217.281 0.66697 -1.42791 0
M  V30 2123 C 218.229 1.80157 -1.47127 0
M  V30 2124 C 219.223 1.65825 -0.346199 0
M  V30 2125 O 220.429 1.72338 -0.519572 0
M  V30 2126 H 216.804 0.594158 -0.460956 0
M  V30 2127 H 218.775 1.73619 -2.42692 0
M  V30 2128 C 217.524 3.18351 -1.39813 0
M  V30 2129 H 216.847 3.3001 -2.25684 0
M  V30 2130 H 218.287 3.97736 -1.46908 0
M  V30 2131 C 216.746 3.36707 -0.11391 0
M  V30 2132 O 217.276 3.93027 0.830241 0
M  V30 2133 N 215.482 2.90586 -0.0285295 0
M  V30 2134 H 215.029 2.4494 -0.79764 0
M  V30 2135 H 214.987 3.03245 0.830063 0
M  V30 2136 N 218.759 1.29093 0.90403 0
M  V30 2137 C 219.709 1.10482 1.99443 0
M  V30 2138 C 220.693 0.0255401 1.6088 0
M  V30 2139 O 221.885 0.24677 1.75271 0
M  V30 2140 C 219.014 0.778882 3.34348 0
M  V30 2141 C 218.1 1.89749 3.79284 0
M  V30 2142 N 218.491 3.14045 3.96497 0
M  V30 2143 C 216.789 1.78955 4.08523 0
M  V30 2144 C 217.49 3.86996 4.34292 0
M  V30 2145 N 216.466 3.14909 4.43095 0
M  V30 2146 H 220.268 2.04778 2.10815 0
M  V30 2147 H 217.782 1.20155 1.09255 0
M  V30 2148 H 219.779 0.62661 4.12164 0
M  V30 2149 H 218.439 -0.156205 3.24324 0
M  V30 2150 H 219.45 3.49548 3.82148 0
M  V30 2151 H 216.127 0.926886 4.07081 0
M  V30 2152 H 217.517 4.93941 4.55491 0
M  V30 2153 N 220.237 -1.11381 1.11499 0
M  V30 2154 C 221.485 -1.8277 0.862524 0
M  V30 2155 C 221.806 -1.85097 -0.613534 0
M  V30 2156 O 221.076 -1.32198 -1.4457 0
M  V30 2157 H 219.656 -0.676823 0.316101 0
M  V30 2158 H 222.318 -1.34816 1.4075 0
M  V30 2159 H 221.414 -2.86614 1.23527 0
M  V30 2160 N 221.715 -0.905404 -1.28997 0
M  V30 2161 C 222.662 -0.385892 -2.27551 0
M  V30 2162 C 223.632 0.535113 -1.57244 0
M  V30 2163 O 224.817 0.459119 -1.85194 0
M  V30 2164 C 221.957 0.375461 -3.43051 0
M  V30 2165 C 221.07 -0.577092 -4.28128 0
M  V30 2166 C 220.205 0.201879 -5.30816 0
M  V30 2167 C 219.244 -0.744829 -6.07551 0
M  V30 2168 N 218.381 9.42587e-05 -7.021 0
M  V30 2169 H 223.221 -1.23139 -2.71368 0
M  V30 2170 H 220.758 -0.618542 -1.33463 0
M  V30 2171 H 222.716 0.832992 -4.088 0
M  V30 2172 H 221.346 1.18537 -3.00248 0
M  V30 2173 H 220.398 -1.15315 -3.62501 0
M  V30 2174 H 221.71 -1.30152 -4.8152 0
M  V30 2175 H 220.864 0.720351 -6.02408 0
M  V30 2176 H 219.603 0.959413 -4.7817 0
M  V30 2177 H 218.608 -1.27475 -5.34818 0
M  V30 2178 H 219.833 -1.50178 -6.62286 0
M  V30 2179 H 217.779 0.739791 -6.51815 0
M  V30 2180 H 217.696 -0.664321 -7.53076 0
M  V30 2181 H 218.964 0.498644 -7.77903 0
M  V30 2182 N 223.193 1.4272 -0.668489 0
M  V30 2183 C 224.441 2.01226 -0.187769 0
M  V30 2184 C 224.762 1.53092 1.2078 0
M  V30 2185 O 224.032 0.74993 1.80977 0
M  V30 2186 H 222.612 0.744041 -0.0664272 0
M  V30 2187 H 225.274 1.74723 -0.863583 0
M  V30 2188 H 224.37 3.11556 -0.184166 0
M  V30 2189 N 224.671 0.411399 1.52136 0
M  V30 2190 C 225.948 -0.222308 1.94333 0
M  V30 2191 C 226.328 -1.6242 1.34844 0
M  V30 2192 O 225.676 -2.22384 0.525145 0
M  V30 2193 C 225.886 -0.226345 3.48265 0
M  V30 2194 C 227.234 -0.444592 4.22266 0
M  V30 2195 O 228.258 -0.305602 3.54887 0
M  V30 2196 O 227.117 -0.718749 5.41753 0
M  V30 2197 H 224.211 -0.143907 0.814383 0
M  V30 2198 H 226.757 0.467506 1.63133 0
M  V30 2199 H 225.529 0.75475 3.83952 0
M  V30 2200 H 225.152 -0.960163 3.85832 0
M  V30 2201 N 226.149 -1.5696 0.141893 0
M  V30 2202 C 227.395 -1.9625 -0.511248 0
M  V30 2203 C 227.728 -1.02654 -1.64851 0
M  V30 2204 O 227.003 -0.0679676 -1.94381 0
M  V30 2205 C 227.286 -3.45285 -1.02227 0
M  V30 2206 C 227.139 -4.49658 0.113138 0
M  V30 2207 C 228.458 -3.96698 -1.90574 0
M  V30 2208 H 225.577 -0.713567 -0.184367 0
M  V30 2209 H 228.219 -1.88698 0.222087 0
M  V30 2210 H 226.369 -3.51852 -1.64719 0
M  V30 2211 H 228.041 -4.55174 0.749302 0
M  V30 2212 H 226.284 -4.26857 0.773026 0
M  V30 2213 H 226.955 -5.51258 -0.286053 0
M  V30 2214 H 229.431 -3.92578 -1.37918 0
M  V30 2215 H 228.307 -5.01453 -2.2324 0
M  V30 2216 H 228.568 -3.3875 -2.84079 0
M  V30 2217 N 227.627 0.131896 -1.57047 0
M  V30 2218 C 228.904 0.871495 -1.75112 0
M  V30 2219 C 229.284 1.9866 -0.713949 0
M  V30 2220 O 228.632 2.26965 0.264447 0
M  V30 2221 C 228.842 1.40007 -3.19686 0
M  V30 2222 C 230.19 1.85752 -3.81813 0
M  V30 2223 O 231.214 1.49715 -3.23209 0
M  V30 2224 O 230.073 2.5226 -4.84796 0
M  V30 2225 H 227.167 0.412919 -0.716538 0
M  V30 2226 H 229.713 0.116641 -1.69299 0
M  V30 2227 H 228.485 0.599404 -3.86682 0
M  V30 2228 H 228.108 2.218 -3.29986 0
M  V30 2229 N 229.106 1.52395 0.401703 0
M  V30 2230 C 230.036 1.79231 1.49661 0
M  V30 2231 C 231.017 0.643654 1.57452 0
M  V30 2232 O 232.202 0.889989 1.72606 0
M  V30 2233 C 229.332 1.94971 2.87409 0
M  V30 2234 C 228.286 3.10604 2.94465 0
M  V30 2235 C 227.612 3.11577 4.34538 0
M  V30 2236 C 228.912 4.49921 2.6527 0
M  V30 2237 H 230.606 2.70917 1.27454 0
M  V30 2238 H 228.152 1.30362 0.6117 0
M  V30 2239 H 230.105 2.12328 3.63999 0
M  V30 2240 H 228.829 0.999632 3.10926 0
M  V30 2241 H 227.488 2.93009 2.20321 0
M  V30 2242 H 227.136 2.14277 4.55076 0
M  V30 2243 H 226.836 3.89247 4.40183 0
M  V30 2244 H 228.36 3.31073 5.13053 0
M  V30 2245 H 229.774 4.67683 3.31581 0
M  V30 2246 H 228.171 5.29564 2.82281 0
M  V30 2247 H 229.241 4.57507 1.60671 0
M  V30 2248 N 230.584 -0.659388 1.43143 0
M  V30 2249 C 231.514 -1.78422 1.50625 0
M  V30 2250 C 232.495 -1.66216 0.361443 0
M  V30 2251 O 233.68 -1.85404 0.577834 0
M  V30 2252 C 230.81 -3.16815 1.42287 0
M  V30 2253 C 229.764 -3.43777 2.54954 0
M  V30 2254 C 229.09 -4.81905 2.31671 0
M  V30 2255 C 230.39 -3.39134 3.97222 0
M  V30 2256 H 232.084 -1.72417 2.44771 0
M  V30 2257 H 229.63 -0.828084 1.17808 0
M  V30 2258 H 231.583 -3.95253 1.46127 0
M  V30 2259 H 230.307 -3.23534 0.446435 0
M  V30 2260 H 228.966 -2.67707 2.50457 0
M  V30 2261 H 228.614 -4.85294 1.32284 0
M  V30 2262 H 228.314 -5.00906 3.07192 0
M  V30 2263 H 229.838 -5.62609 2.37284 0
M  V30 2264 H 231.252 -4.07518 4.03239 0
M  V30 2265 H 229.649 -3.69671 4.72719 0
M  V30 2266 H 230.719 -2.37426 4.22797 0
M  V30 2267 N 232.062 -1.29571 -0.897171 0
M  V30 2268 C 233.31 -1.17456 -1.64464 0
M  V30 2269 C 233.631 0.273698 -1.9307 0
M  V30 2270 O 232.901 1.18684 -1.55855 0
M  V30 2271 H 231.481 -0.431706 -0.609622 0
M  V30 2272 H 234.143 -1.62531 -1.07562 0
M  V30 2273 H 233.239 -1.72648 -2.59998 0
M  V30 2274 N 233.54 1.10788 -1.12088 0
M  V30 2275 C 234.789 1.82036 -0.868659 0
M  V30 2276 C 235.102 1.85929 0.607426 0
M  V30 2277 O 236.308 2.53346 0.97613 0
M  V30 2278 C 234.764 3.26951 -1.50435 0
M  V30 2279 C 234.372 3.31367 -3.01496 0
M  V30 2280 C 236.116 4.03053 -1.33225 0
M  V30 2281 C 234.023 4.7072 -3.58017 0
M  V30 2282 H 232.953 0.682108 -0.321318 0
M  V30 2283 H 235.604 1.24618 -1.34694 0
M  V30 2284 H 233.986 3.84343 -0.953735 0
M  V30 2285 H 235.16 2.83819 -3.6302 0
M  V30 2286 H 233.475 2.6875 -3.18061 0
M  V30 2287 H 236.072 5.05981 -1.72878 0
M  V30 2288 H 236.415 4.15387 -0.275529 0
M  V30 2289 H 236.948 3.52066 -1.85188 0
M  V30 2290 H 233.687 4.63585 -4.63432 0
M  V30 2291 H 233.207 5.1865 -3.01268 0
M  V30 2292 H 234.886 5.39685 -3.56859 0
M  V30 2293 N 235.018 0.912232 1.28515 0
M  V30 2294 C 236.295 0.463597 1.90027 0
M  V30 2295 C 236.675 -1.05753 1.82701 0
M  V30 2296 O 236.023 -1.90492 1.26194 0
M  V30 2297 C 236.233 0.992253 3.34597 0
M  V30 2298 C 237.581 1.04344 4.11579 0
M  V30 2299 O 238.605 0.94079 3.43551 0
M  V30 2300 O 237.464 1.1995 5.33174 0
M  V30 2301 H 234.558 0.146666 0.813891 0
M  V30 2302 H 237.104 1.00292 1.36893 0
M  V30 2303 H 235.876 2.03623 3.34146 0
M  V30 2304 H 235.499 0.433672 3.95228 0
M  V30 2305 N 236.496 -1.42363 0.676048 0
M  V30 2306 C 237.446 -2.27987 -0.0242903 0
M  V30 2307 C 238.43 -1.41153 -0.772319 0
M  V30 2308 O 239.622 -1.64592 -0.651025 0
M  V30 2309 C 236.751 -3.29195 -0.973953 0
M  V30 2310 C 235.837 -4.23512 -0.223202 0
M  V30 2311 N 236.228 -4.99865 0.772589 0
M  V30 2312 C 234.526 -4.43606 -0.461469 0
M  V30 2313 C 235.227 -5.68757 1.22027 0
M  V30 2314 N 234.203 -5.40811 0.549975 0
M  V30 2315 H 238.005 -2.84445 0.73949 0
M  V30 2316 H 235.519 -1.54341 0.50522 0
M  V30 2317 H 237.516 -3.89339 -1.49067 0
M  V30 2318 H 236.176 -2.74298 -1.73755 0
M  V30 2319 H 237.187 -5.04921 1.15217 0
M  V30 2320 H 233.864 -3.99749 -1.20446 0
M  V30 2321 H 235.254 -6.40007 2.0455 0
M  V30 2322 N 237.974 -0.419461 -1.51915 0
M  V30 2323 C 239.221 0.152939 -2.01922 0
M  V30 2324 C 239.549 1.4426 -1.30458 0
M  V30 2325 O 238.804 1.91514 -0.402593 0
M  V30 2326 C 239.103 0.437067 -3.54717 0
M  V30 2327 C 238.769 -0.764632 -4.44369 0
M  V30 2328 C 237.431 -1.09423 -4.68594 0
M  V30 2329 C 239.783 -1.56713 -4.97082 0
M  V30 2330 C 237.111 -2.22732 -5.42777 0
M  V30 2331 C 239.463 -2.69107 -5.72507 0
M  V30 2332 C 238.127 -3.02541 -5.95 0
M  V30 2333 H 237.397 0.0559644 -0.738884 0
M  V30 2334 H 240.044 -0.562998 -1.83037 0
M  V30 2335 H 238.349 1.23469 -3.71837 0
M  V30 2336 H 240.046 0.893083 -3.90928 0
M  V30 2337 H 236.636 -0.497775 -4.257 0
M  V30 2338 H 240.82 -1.32571 -4.78266 0
M  V30 2339 H 236.076 -2.48971 -5.58411 0
M  V30 2340 H 240.25 -3.31671 -6.12346 0
M  V30 2341 H 237.877 -3.90457 -6.52264 0
M  V30 2342 N 239.452 1.56882 -0.150215 0
M  V30 2343 C 240.415 2.1573 0.774157 0
M  V30 2344 C 241.415 1.0999 1.17298 0
M  V30 2345 O 242.605 1.35613 1.09338 0
M  V30 2346 C 239.737 2.72302 2.05096 0
M  V30 2347 H 240.93 2.98752 0.262201 0
M  V30 2348 H 238.483 1.55985 0.099248 0
M  V30 2349 H 239.218 1.92956 2.6065 0
M  V30 2350 H 239.003 3.49665 1.77416 0
M  V30 2351 H 240.493 3.17632 2.71109 0
M  V30 2352 N 240.93 -0.123565 1.57115 0
M  V30 2353 C 242.179 -0.830704 1.83799 0
M  V30 2354 C 242.492 -1.81259 0.735158 0
M  V30 2355 O 243.698 -2.56558 0.888278 0
M  V30 2356 C 242.154 -1.52802 3.25852 0
M  V30 2357 C 241.762 -0.587356 4.44133 0
M  V30 2358 C 243.506 -2.22056 3.61789 0
M  V30 2359 C 241.413 -1.28764 5.77212 0
M  V30 2360 H 240.343 -0.313967 0.685522 0
M  V30 2361 H 242.994 -0.0834359 1.8331 0
M  V30 2362 H 241.376 -2.32175 3.20797 0
M  V30 2363 H 242.55 0.172829 4.60476 0
M  V30 2364 H 240.865 -0.00201892 4.164 0
M  V30 2365 H 243.462 -2.75131 4.58483 0
M  V30 2366 H 243.805 -2.99644 2.88997 0
M  V30 2367 H 244.338 -1.49576 3.68608 0
M  V30 2368 H 241.077 -0.55314 6.53162 0
M  V30 2369 H 240.597 -2.01995 5.64764 0
M  V30 2370 H 242.276 -1.8221 6.20813 0
M  V30 2371 N 242.408 -1.52605 -0.393616 0
M  V30 2372 C 243.648 -1.6911 -1.1481 0
M  V30 2373 C 244.012 -0.41969 -1.87357 0
M  V30 2374 O 245.213 -0.461034 -2.64817 0
M  V30 2375 C 243.484 -2.88909 -2.10395 0
M  V30 2376 S 245.043 -3.25977 -2.93742 0
M  V30 2377 H 241.861 -0.595337 -0.38871 0
M  V30 2378 H 244.463 -1.90641 -0.433178 0
M  V30 2379 H 243.167 -3.79672 -1.55812 0
M  V30 2380 H 242.698 -2.69698 -2.86403 0
M  V30 2381 H 244.713 -2.75806 -4.12487 0
M  V30 2382 N 243.887 0.651787 -1.4349 0
M  V30 2383 C 244.817 1.77621 -1.51569 0
M  V30 2384 C 245.798 1.66022 -0.370253 0
M  V30 2385 O 246.983 1.85095 -0.587658 0
M  V30 2386 C 244.113 3.16056 -1.43966 0
M  V30 2387 C 243.067 3.4242 -2.56774 0
M  V30 2388 C 242.393 4.8067 -2.34223 0
M  V30 2389 C 243.693 3.37023 -3.99015 0
M  V30 2390 H 245.387 1.71117 -2.45681 0
M  V30 2391 H 242.933 0.821825 -1.18246 0
M  V30 2392 H 244.886 3.94472 -1.48221 0
M  V30 2393 H 243.61 3.23293 -0.463586 0
M  V30 2394 H 242.269 2.66375 -2.51873 0
M  V30 2395 H 241.917 4.84585 -1.34856 0
M  V30 2396 H 241.617 4.9927 -3.09844 0
M  V30 2397 H 243.141 5.61342 -2.40265 0
M  V30 2398 H 244.555 4.05374 -4.05395 0
M  V30 2399 H 242.952 3.67159 -4.74673 0
M  V30 2400 H 244.022 2.3518 -4.2405 0
M  V30 2401 N 245.365 1.30045 0.890287 0
M  V30 2402 C 246.313 1.15873 2.01683 0
M  V30 2403 C 247.307 0.0719403 1.69247 0
M  V30 2404 O 248.513 0.232414 1.78493 0
M  V30 2405 H 244.888 0.358203 0.661207 0
M  V30 2406 H 246.859 2.11229 2.10772 0
M  V30 2407 C 245.608 0.861842 3.36849 0
M  V30 2408 H 244.931 1.69016 3.62317 0
M  V30 2409 H 246.371 0.802762 4.16331 0
M  V30 2410 C 244.83 -0.435132 3.34078 0
M  V30 2411 O 245.36 -1.4583 3.74295 0
M  V30 2412 N 243.566 -0.444377 2.87182 0
M  V30 2413 H 243.113 0.388723 2.5465 0
M  V30 2414 H 243.071 -1.31213 2.85711 0
M  V30 2415 N 246.843 -1.10192 1.12674 0
M  V30 2416 C 247.806 -2.14786 0.799979 0
M  V30 2417 C 248.806 -1.59711 -0.18685 0
M  V30 2418 O 249.996 -1.74156 0.0392558 0
M  V30 2419 C 247.128 -3.40374 0.189228 0
M  V30 2420 H 248.321 -2.45203 1.72671 0
M  V30 2421 H 245.874 -1.25597 0.930326 0
M  V30 2422 H 246.609 -3.15577 -0.747107 0
M  V30 2423 H 246.394 -3.81637 0.899766 0
M  V30 2424 H 247.884 -4.17594 -0.0228143 0
M  V30 2425 N 248.321 -0.919034 -1.28029 0
M  V30 2426 C 249.569 -0.553838 -1.94363 0
M  V30 2427 C 249.89 0.906357 -1.72656 0
M  V30 2428 O 249.16 1.64143 -1.0693 0
M  V30 2429 H 247.74 -0.201834 -0.719216 0
M  V30 2430 H 250.402 -1.16954 -1.55909 0
M  V30 2431 H 249.498 -0.752758 -3.02886 0
M  V30 2432 N 249.799 1.42003 -0.683588 0
M  V30 2433 C 251.076 1.95112 -0.138075 0
M  V30 2434 C 251.456 1.62359 1.34918 0
M  V30 2435 O 250.804 0.924311 2.08971 0
M  V30 2436 C 251.014 3.46505 -0.416581 0
M  V30 2437 C 252.362 4.23254 -0.337834 0
M  V30 2438 O 253.386 3.54468 -0.35082 0
M  V30 2439 O 252.245 5.45743 -0.287596 0
M  V30 2440 H 249.339 0.826961 -0.00797996 0
M  V30 2441 H 251.885 1.51784 -0.758924 0
M  V30 2442 H 250.657 3.63582 -1.4465 0
M  V30 2443 H 250.28 3.969 0.235839 0
M  V30 2444 N 251.277 0.427512 1.51691 0
M  V30 2445 C 252.207 -0.3796 2.30394 0
M  V30 2446 C 253.188 -1.02982 1.35384 0
M  V30 2447 O 254.373 -1.03534 1.643 0
M  V30 2448 C 251.503 -1.48649 3.1388 0
M  V30 2449 C 250.457 -0.960294 4.17088 0
M  V30 2450 C 249.783 -2.16219 4.89033 0
M  V30 2451 C 251.083 -0.00153679 5.223 0
M  V30 2452 H 252.777 0.277164 2.98114 0
M  V30 2453 H 250.323 0.134739 1.43368 0
M  V30 2454 H 252.276 -2.05826 3.67714 0
M  V30 2455 H 251 -2.1714 2.43962 0
M  V30 2456 H 249.659 -0.410806 3.64291 0
M  V30 2457 H 249.307 -2.83307 4.15628 0
M  V30 2458 H 249.007 -1.81654 5.58816 0
M  V30 2459 H 250.531 -2.73968 5.45687 0
M  V30 2460 H 251.945 -0.482687 5.71264 0
M  V30 2461 H 250.342 0.256199 5.99553 0
M  V30 2462 H 251.412 0.938174 4.75738 0
M  V30 2463 N 252.755 -1.56801 0.158532 0
M  V30 2464 C 254.003 -1.96102 -0.488712 0
M  V30 2465 C 254.324 -1.04498 -1.64636 0
M  V30 2466 O 253.594 -0.108783 -1.95598 0
M  V30 2467 H 252.174 -0.724102 -0.183535 0
M  V30 2468 H 254.836 -1.93457 0.236728 0
M  V30 2469 H 253.932 -3.00097 -0.857219 0
M  V30 2470 N 254.233 0.115231 -1.57178 0
M  V30 2471 C 255.644 0.67197 -1.74188 0
M  V30 2472 C 255.995 1.80125 -0.777777 0
M  V30 2473 O 255.12 2.16346 0.0484376 0
M  V30 2474 C 255.715 1.22573 -3.1585 0
M  V30 2475 C 254.274 1.72872 -3.34353 0
M  V30 2476 C 253.421 0.629972 -2.70049 0
M  V30 2477 H 256.372 -0.110712 -1.58313 0
M  V30 2478 H 256.393 2.09535 -3.17609 0
M  V30 2479 H 255.905 0.403598 -3.85996 0
M  V30 2480 H 254.006 2.5755 -2.69256 0
M  V30 2481 H 254.119 1.83557 -4.42542 0
M  V30 2482 H 252.483 1.0645 -2.31388 0
M  V30 2483 H 253.266 -0.181241 -3.42821 0
M  V30 2484 N 255.711 1.52812 0.385517 0
M  V30 2485 C 256.939 1.71907 1.15133 0
M  V30 2486 C 257.354 0.439004 1.83625 0
M  V30 2487 O 256.711 -0.586765 1.7281 0
M  V30 2488 C 256.762 2.87099 2.19673 0
M  V30 2489 O 256.483 4.10151 1.53973 0
M  V30 2490 C 257.984 3.17902 3.08955 0
M  V30 2491 H 255.204 0.575479 0.345057 0
M  V30 2492 H 257.748 1.99476 0.45052 0
M  V30 2493 H 255.903 2.61982 2.85384 0
M  V30 2494 H 256.317 4.74514 2.23465 0
M  V30 2495 H 257.791 4.01959 3.7833 0
M  V30 2496 H 258.268 2.3243 3.72657 0
M  V30 2497 H 258.874 3.44871 2.48885 0
M  V30 2498 N 257.189 -0.644168 1.43834 0
M  V30 2499 C 258.435 -1.40603 1.46146 0
M  V30 2500 C 258.768 -1.93997 0.0887717 0
M  V30 2501 O 258.043 -1.72854 -0.891724 0
M  V30 2502 C 258.326 -2.58086 2.51124 0
M  V30 2503 C 258.179 -2.10126 3.97702 0
M  V30 2504 C 259.498 -3.60291 2.52742 0
M  V30 2505 H 256.617 -0.509905 0.532134 0
M  V30 2506 H 259.259 -0.729502 1.75437 0
M  V30 2507 H 257.409 -3.15801 2.26278 0
M  V30 2508 H 259.081 -1.57342 4.33637 0
M  V30 2509 H 257.324 -1.41419 4.10101 0
M  V30 2510 H 257.995 -2.94649 4.66783 0
M  V30 2511 H 260.471 -3.12352 2.7491 0
M  V30 2512 H 259.347 -4.40032 3.28121 0
M  V30 2513 H 259.608 -4.1349 1.56455 0
M  V30 2514 N 258.668 -1.30515 -0.883378 0
M  V30 2515 C 259.578 -1.18959 -2.02203 0
M  V30 2516 C 260.594 -0.109172 -1.73657 0
M  V30 2517 O 261.77 -0.324413 -1.9877 0
M  V30 2518 C 258.835 -0.883871 -3.35244 0
M  V30 2519 C 257.896 -2.04982 -3.77201 0
M  V30 2520 C 257.129 -1.75859 -5.03894 0
M  V30 2521 O 257.352 -0.687276 -5.66244 0
M  V30 2522 O 256.286 -2.61146 -5.42297 0
M  V30 2523 H 260.112 -2.14616 -2.1488 0
M  V30 2524 H 257.697 -1.10124 -1.0096 0
M  V30 2525 H 259.579 -0.728644 -4.15053 0
M  V30 2526 H 258.254 0.0427798 -3.23672 0
M  V30 2527 H 257.161 -2.26038 -2.9809 0
M  V30 2528 H 258.494 -2.95825 -3.93381 0
M  V30 2529 N 260.146 1.09593 -1.13257 0
M  V30 2530 C 261.376 1.85231 -0.915049 0
M  V30 2531 C 261.784 1.81345 0.539498 0
M  V30 2532 O 261.127 1.20664 1.38513 0
M  V30 2533 C 261.189 3.34275 -1.3229 0
M  V30 2534 C 260.853 3.6191 -2.79052 0
M  V30 2535 C 261.85 3.57777 -3.77216 0
M  V30 2536 C 259.535 3.90309 -3.16171 0
M  V30 2537 C 261.529 3.81652 -5.1051 0
M  V30 2538 C 259.216 4.13839 -4.49644 0
M  V30 2539 C 260.214 4.09502 -5.46623 0
M  V30 2540 O 259.902 4.32426 -6.77689 0
M  V30 2541 H 259.634 0.591997 -0.326367 0
M  V30 2542 H 262.188 1.394 -1.50854 0
M  V30 2543 H 260.418 3.80805 -0.672667 0
M  V30 2544 H 262.107 3.9132 -1.07812 0
M  V30 2545 H 262.873 3.35865 -3.49885 0
M  V30 2546 H 258.752 3.92811 -2.41289 0
M  V30 2547 H 262.296 3.78182 -5.86195 0
M  V30 2548 H 258.193 4.35232 -4.767 0
M  V30 2549 H 258.961 4.49896 -6.83766 0
M  V30 2550 N 261.624 0.925811 1.2754 0
M  V30 2551 C 262.854 0.580666 1.98272 0
M  V30 2552 C 263.262 -0.845207 1.69272 0
M  V30 2553 O 262.605 -1.57306 0.948707 0
M  V30 2554 C 262.667 0.724418 3.52126 0
M  V30 2555 C 262.331 2.12206 4.04744 0
M  V30 2556 C 263.328 3.09604 4.17662 0
M  V30 2557 C 261.013 2.4385 4.39138 0
M  V30 2558 C 263.007 4.36755 4.64246 0
M  V30 2559 C 260.694 3.71237 4.85414 0
M  V30 2560 C 261.692 4.67503 4.97926 0
M  V30 2561 O 261.38 5.92624 5.43187 0
M  V30 2562 H 261.112 0.218987 0.639547 0
M  V30 2563 H 263.666 1.24452 1.63404 0
M  V30 2564 H 261.896 0.0034663 3.867 0
M  V30 2565 H 263.585 0.384607 4.04074 0
M  V30 2566 H 264.351 2.86478 3.91351 0
M  V30 2567 H 260.23 1.69665 4.28643 0
M  V30 2568 H 263.774 5.11898 4.73927 0
M  V30 2569 H 259.671 3.94182 5.11166 0
M  V30 2570 H 260.439 5.95585 5.61445 0
M  V30 2571 N 263.102 -1.41638 0.69111 0
M  V30 2572 C 264.012 -2.34588 0.0233487 0
M  V30 2573 C 265.028 -1.55987 -0.770984 0
M  V30 2574 O 266.204 -1.88486 -0.709569 0
M  V30 2575 C 263.269 -3.34684 -0.904851 0
M  V30 2576 C 262.33 -4.29176 -0.103225 0
M  V30 2577 C 261.563 -5.2449 -0.987216 0
M  V30 2578 O 261.786 -5.2514 -2.22674 0
M  V30 2579 O 260.72 -6.00295 -0.439281 0
M  V30 2580 H 264.546 -2.93261 0.789416 0
M  V30 2581 H 262.131 -1.42417 0.45142 0
M  V30 2582 H 264.013 -3.96133 -1.43724 0
M  V30 2583 H 262.688 -2.78461 -1.65049 0
M  V30 2584 H 261.595 -3.71089 0.473655 0
M  V30 2585 H 262.928 -4.88484 0.60365 0
M  V30 2586 N 264.58 -0.43555 -1.51462 0
M  V30 2587 C 265.996 -0.0877501 -1.59359 0
M  V30 2588 C 266.196 1.4027 -1.4466 0
M  V30 2589 O 265.252 2.17243 -1.28693 0
M  V30 2590 C 266.565 -0.606264 -2.94525 0
M  V30 2591 C 268.113 -0.566548 -3.0783 0
M  V30 2592 C 268.588 -1.06201 -4.45517 0
M  V30 2593 N 270.079 -1.01992 -4.51832 0
M  V30 2594 C 270.814 -1.37417 -5.5669 0
M  V30 2595 N 270.31 -1.80119 -6.68976 0
M  V30 2596 N 272.103 -1.29245 -5.47039 0
M  V30 2597 H 264.254 -1.40533 -1.59261 0
M  V30 2598 H 266.517 -0.578992 -0.750648 0
M  V30 2599 H 266.223 -1.64901 -3.10645 0
M  V30 2600 H 266.097 -0.0302097 -3.77188 0
M  V30 2601 H 268.484 0.467208 -2.91378 0
M  V30 2602 H 268.565 -1.17898 -2.2701 0
M  V30 2603 H 268.209 -2.09422 -4.62715 0
M  V30 2604 H 268.139 -0.426127 -5.24873 0
M  V30 2605 H 270.63 -0.706308 -3.71241 0
M  V30 2606 H 270.943 -2.05392 -7.45006 0
M  V30 2607 H 269.288 -1.84044 -6.70189 0
M  V30 2608 H 272.479 -0.957522 -4.58202 0
M  V30 2609 H 272.652 -1.57182 -6.28648 0
M  V30 2610 N 266.058 1.56714 -0.166846 0
M  V30 2611 C 267.021 2.16539 0.751232 0
M  V30 2612 C 268.021 1.11228 1.16125 0
M  V30 2613 O 269.211 1.36765 1.07894 0
M  V30 2614 C 266.343 2.74462 2.02196 0
M  V30 2615 H 267.536 2.99013 0.230499 0
M  V30 2616 H 265.089 1.56081 0.0826982 0
M  V30 2617 H 265.824 1.95709 2.58589 0
M  V30 2618 H 265.609 3.51527 1.73698 0
M  V30 2619 H 267.099 3.20489 2.67725 0
M  V30 2620 N 267.536 -0.106894 1.57237 0
M  V30 2621 C 268.466 -1.13148 2.04254 0
M  V30 2622 C 269.447 -1.42476 0.929224 0
M  V30 2623 O 270.632 -1.52709 1.19973 0
M  V30 2624 C 267.762 -2.4545 2.45706 0
M  V30 2625 C 266.716 -2.30558 3.60592 0
M  V30 2626 C 266.042 -3.67931 3.87983 0
M  V30 2627 C 267.342 -1.75597 4.91897 0
M  V30 2628 H 269.036 -0.740374 2.90101 0
M  V30 2629 H 266.582 -0.354696 1.39563 0
M  V30 2630 H 268.535 -3.17389 2.77205 0
M  V30 2631 H 267.259 -2.86475 1.56843 0
M  V30 2632 H 265.918 -1.61067 3.29322 0
M  V30 2633 H 265.566 -4.06462 2.96306 0
M  V30 2634 H 265.266 -3.58817 4.65322 0
M  V30 2635 H 266.79 -4.41356 4.21945 0
M  V30 2636 H 268.204 -2.37364 5.21854 0
M  V30 2637 H 266.601 -1.77272 5.73319 0
M  V30 2638 H 267.671 -0.714451 4.79608 0
M  V30 2639 N 269.014 -1.53014 -0.377408 0
M  V30 2640 C 270.262 -1.6829 -1.11906 0
M  V30 2641 C 270.583 -0.431206 -1.90173 0
M  V30 2642 O 269.853 0.554595 -1.87886 0
M  V30 2643 H 268.433 -0.620371 -0.416112 0
M  V30 2644 H 271.095 -1.90167 -0.426893 0
M  V30 2645 H 270.191 -2.53862 -1.8155 0
M  V30 2646 N 270.492 0.636531 -1.44174 0
M  V30 2647 C 271.739 1.39619 -1.46672 0
M  V30 2648 C 272.067 1.94257 -0.0972691 0
M  V30 2649 O 271.322 1.73768 0.900175 0
M  V30 2650 C 271.621 2.58309 -2.47005 0
M  V30 2651 C 271.287 2.21992 -3.92467 0
M  V30 2652 C 269.949 2.118 -4.32081 0
M  V30 2653 C 272.301 1.9321 -4.84065 0
M  V30 2654 C 269.629 1.71007 -5.61225 0
M  V30 2655 C 271.981 1.53911 -6.13591 0
M  V30 2656 C 270.645 1.42257 -6.52165 0
M  V30 2657 H 269.915 0.510902 -0.536712 0
M  V30 2658 H 272.562 0.722328 -1.77355 0
M  V30 2659 H 270.867 3.30903 -2.09786 0
M  V30 2660 H 272.564 3.16533 -2.46186 0
M  V30 2661 H 269.154 2.30841 -3.61124 0
M  V30 2662 H 273.338 1.99997 -4.54219 0
M  V30 2663 H 268.594 1.60583 -5.89935 0
M  V30 2664 H 272.768 1.30677 -6.8403 0
M  V30 2665 H 270.395 1.10419 -7.52138 0
M  V30 2666 N 271.97 1.30982 0.876444 0
M  V30 2667 C 273.386 1.09498 1.16113 0
M  V30 2668 C 273.586 -0.13875 2.01022 0
M  V30 2669 O 272.642 -0.829935 2.38471 0
M  V30 2670 C 273.955 2.36308 1.85954 0
M  V30 2671 C 275.503 2.41856 1.98683 0
M  V30 2672 C 275.978 3.6853 2.71937 0
M  V30 2673 N 277.469 3.69387 2.79477 0
M  V30 2674 C 278.204 4.64096 3.36753 0
M  V30 2675 N 277.7 5.69155 3.95012 0
M  V30 2676 N 279.493 4.51626 3.3465 0
M  V30 2677 H 271.644 2.10118 0.310494 0
M  V30 2678 H 273.907 0.926634 0.200131 0
M  V30 2679 H 273.613 3.26388 1.31011 0
M  V30 2680 H 273.487 2.4561 2.86278 0
M  V30 2681 H 275.874 1.52249 2.52793 0
M  V30 2682 H 275.955 2.36523 0.9742 0
M  V30 2683 H 275.599 4.58499 2.18496 0
M  V30 2684 H 275.529 3.71127 3.73593 0
M  V30 2685 H 278.02 2.93438 2.38123 0
M  V30 2686 H 278.333 6.3751 4.36808 0
M  V30 2687 H 276.678 5.72937 3.93406 0
M  V30 2688 H 279.869 3.68728 2.8837 0
M  V30 2689 H 280.042 5.25614 3.7899 0
M  V30 2690 N 273.449 -1.08991 1.13837 0
M  V30 2691 C 274.381 -2.15606 0.777612 0
M  V30 2692 C 275.394 -1.61533 -0.202739 0
M  V30 2693 O 276.583 -1.78491 0.0181055 0
M  V30 2694 C 273.683 -3.3864 0.132623 0
M  V30 2695 C 272.856 -4.22115 1.1462 0
M  V30 2696 C 271.915 -5.23564 0.526074 0
M  V30 2697 O 270.941 -5.56678 1.18735 0
M  V30 2698 N 272.143 -5.76266 -0.699866 0
M  V30 2699 H 274.908 -2.47159 1.69506 0
M  V30 2700 H 272.469 -1.24747 1.03198 0
M  V30 2701 H 274.461 -4.03626 -0.29459 0
M  V30 2702 H 273.031 -3.04938 -0.687849 0
M  V30 2703 H 272.251 -3.53199 1.75055 0
M  V30 2704 H 273.539 -4.74709 1.83109 0
M  V30 2705 H 272.937 -5.51585 -1.25581 0
M  V30 2706 H 271.494 -6.42963 -1.06968 0
M  V30 2707 N 274.927 -0.932562 -1.27047 0
M  V30 2708 C 276.176 -0.571351 -1.93439 0
M  V30 2709 C 276.489 0.892467 -1.74053 0
M  V30 2710 O 277.695 1.36267 -2.34826 0
M  V30 2711 C 276.151 -0.97106 -3.46552 0
M  V30 2712 C 275.759 -2.4559 -3.74686 0
M  V30 2713 C 277.503 -0.681333 -4.18997 0
M  V30 2714 C 275.41 -2.79475 -5.21198 0
M  V30 2715 H 274.34 -0.209966 -0.724176 0
M  V30 2716 H 276.991 -1.13403 -1.44263 0
M  V30 2717 H 275.373 -0.336983 -3.94564 0
M  V30 2718 H 276.547 -3.13829 -3.37414 0
M  V30 2719 H 274.862 -2.71802 -3.15456 0
M  V30 2720 H 277.459 -0.910939 -5.26883 0
M  V30 2721 H 277.802 0.381628 -4.14547 0
M  V30 2722 H 278.335 -1.27473 -3.76823 0
M  V30 2723 H 275.074 -3.847 -5.30741 0
M  V30 2724 H 274.594 -2.1589 -5.596 0
M  V30 2725 H 276.273 -2.67478 -5.89122 0
M  V30 2726 N 276.405 1.4127 -0.698611 0
M  V30 2727 C 277.652 2.0118 -0.230865 0
M  V30 2728 C 277.98 1.55338 1.17049 0
M  V30 2729 O 277.235 0.756775 1.80475 0
M  V30 2730 C 277.534 3.56592 -0.240192 0
M  V30 2731 C 277.2 4.21955 -1.58948 0
M  V30 2732 C 275.862 4.39524 -1.95887 0
M  V30 2733 C 278.214 4.58576 -2.47704 0
M  V30 2734 C 275.542 4.90992 -3.2116 0
M  V30 2735 C 277.894 5.11435 -3.72313 0
M  V30 2736 C 276.558 5.27215 -4.0939 0
M  V30 2737 H 275.828 0.736169 -0.0844796 0
M  V30 2738 H 278.475 1.69124 -0.8983 0
M  V30 2739 H 276.78 3.88456 0.510797 0
M  V30 2740 H 278.477 4.00758 0.139296 0
M  V30 2741 H 275.067 4.08657 -1.29219 0
M  V30 2742 H 279.251 4.44654 -2.20445 0
M  V30 2743 H 274.507 5.01393 -3.49878 0
M  V30 2744 H 278.681 5.38752 -4.4127 0
M  V30 2745 H 276.308 5.66859 -5.06533 0
M  V30 2746 N 277.883 0.443576 1.51229 0
M  V30 2747 C 279.16 -0.181038 1.9476 0
M  V30 2748 C 279.54 -1.59523 1.38259 0
M  V30 2749 O 278.888 -2.2122 0.572198 0
M  V30 2750 C 279.098 -0.152422 3.48667 0
M  V30 2751 C 280.446 -0.354923 4.23114 0
M  V30 2752 O 281.47 -0.230257 3.55455 0
M  V30 2753 O 280.329 -0.603674 5.43156 0
M  V30 2754 H 277.423 -0.1266 0.817252 0
M  V30 2755 H 279.969 0.502004 1.62105 0
M  V30 2756 H 278.741 0.836022 3.82265 0
M  V30 2757 H 278.364 -0.878107 3.87782 0
M  V30 2758 N 279.361 -1.56624 0.175154 0
M  V30 2759 C 280.271 -2.21741 -0.766042 0
M  V30 2760 C 281.287 -1.21023 -1.25018 0
M  V30 2761 O 282.463 -1.53697 -1.3015 0
M  V30 2762 C 279.528 -2.84839 -1.97655 0
M  V30 2763 C 278.589 -4.00769 -1.53892 0
M  V30 2764 C 277.822 -4.60849 -2.69173 0
M  V30 2765 O 278.045 -4.19823 -3.86141 0
M  V30 2766 O 276.979 -5.50655 -2.43028 0
M  V30 2767 H 280.805 -3.02738 -0.241585 0
M  V30 2768 H 278.39 -1.49305 -0.053222 0
M  V30 2769 H 280.272 -3.24834 -2.68442 0
M  V30 2770 H 278.947 -2.06836 -2.48999 0
M  V30 2771 H 277.854 -3.65436 -0.80044 0
M  V30 2772 H 279.187 -4.80376 -1.07236 0
M  V30 2773 N 280.839 0.0985539 -1.57292 0
M  V30 2774 C 281.789 1.1261 -1.9825 0
M  V30 2775 C 282.773 1.35961 -0.860426 0
M  V30 2776 O 283.965 1.36711 -1.12424 0
M  V30 2777 C 281.094 2.44727 -2.40757 0
M  V30 2778 C 280.18 2.24764 -3.59642 0
M  V30 2779 N 280.571 1.74661 -4.74687 0
M  V30 2780 C 278.869 2.55344 -3.65672 0
M  V30 2781 C 279.57 1.68887 -5.56644 0
M  V30 2782 N 278.546 2.13976 -4.99715 0
M  V30 2783 H 282.348 0.731604 -2.84648 0
M  V30 2784 H 279.862 0.306029 -1.59491 0
M  V30 2785 H 281.859 3.19072 -2.68326 0
M  V30 2786 H 280.519 2.84917 -1.55733 0
M  V30 2787 H 281.53 1.43908 -4.97505 0
M  V30 2788 H 278.207 2.99081 -2.91302 0
M  V30 2789 H 279.597 1.3123 -6.5896 0
M  V30 2790 N 282.317 1.53212 0.369288 0
M  V30 2791 C 283.566 1.68436 1.10961 0
M  V30 2792 C 283.879 0.440738 1.9057 0
M  V30 2793 O 285.085 0.473446 2.6734 0
M  V30 2794 C 283.541 2.97744 2.0218 0
M  V30 2795 C 283.149 4.29355 1.279 0
M  V30 2796 C 284.893 3.22334 2.76226 0
M  V30 2797 C 282.8 5.49755 2.17999 0
M  V30 2798 H 281.73 0.627568 0.41794 0
M  V30 2799 H 284.381 1.79713 0.370884 0
M  V30 2800 H 282.763 2.8026 2.79768 0
M  V30 2801 H 283.937 4.57458 0.554007 0
M  V30 2802 H 282.252 4.11179 0.657311 0
M  V30 2803 H 284.849 4.09471 3.43857 0
M  V30 2804 H 285.192 2.38238 3.41392 0
M  V30 2805 H 285.725 3.40475 2.05723 0
M  V30 2806 H 282.464 6.36318 1.57417 0
M  V30 2807 H 281.984 5.25937 2.88359 0
M  V30 2808 H 283.663 5.84401 2.77641 0
M  V30 2809 N 283.795 -0.628877 1.44509 0
M  V30 2810 C 285.041 -1.39045 1.47629 0
M  V30 2811 C 285.374 -1.93892 0.109343 0
M  V30 2812 O 284.649 -1.7379 -0.87334 0
M  V30 2813 C 284.932 -2.55408 2.53848 0
M  V30 2814 C 284.785 -2.05896 3.99909 0
M  V30 2815 C 286.104 -3.5759 2.56549 0
M  V30 2816 H 283.223 -0.504232 0.537512 0
M  V30 2817 H 285.865 -0.710854 1.76201 0
M  V30 2818 H 284.015 -3.13384 2.29615 0
M  V30 2819 H 285.687 -1.52734 4.35282 0
M  V30 2820 H 283.93 -1.37061 4.11578 0
M  V30 2821 H 284.601 -2.89681 4.69882 0
M  V30 2822 H 287.077 -3.09419 2.78207 0
M  V30 2823 H 285.953 -4.36527 3.32769 0
M  V30 2824 H 286.214 -4.11808 1.60832 0
M  V30 2825 N 285.273 -1.31445 -0.869486 0
M  V30 2826 C 286.519 -1.21337 -1.62496 0
M  V30 2827 C 286.852 0.227872 -1.92858 0
M  V30 2828 O 286.127 1.16094 -1.56053 0
M  V30 2829 C 286.41 -2.05814 -2.95487 0
M  V30 2830 C 286.263 -3.5824 -2.72 0
M  V30 2831 C 287.582 -1.9079 -3.96594 0
M  V30 2832 H 284.701 -0.442135 -0.589649 0
M  V30 2833 H 287.343 -1.6124 -1.00507 0
M  V30 2834 H 285.493 -1.71913 -3.48394 0
M  V30 2835 H 287.165 -4.0228 -2.25762 0
M  V30 2836 H 285.408 -3.81647 -2.06224 0
M  V30 2837 H 286.079 -4.12657 -3.66631 0
M  V30 2838 H 288.555 -2.20459 -3.52898 0
M  V30 2839 H 287.431 -2.52199 -4.87531 0
M  V30 2840 H 287.692 -0.871341 -4.33428 0
M  V30 2841 N 286.751 1.08385 -1.14413 0
M  V30 2842 C 287.999 1.80419 -0.910679 0
M  V30 2843 C 288.32 1.86658 0.564243 0
M  V30 2844 O 287.59 1.35985 1.41014 0
M  V30 2845 H 286.17 0.668204 -0.333934 0
M  V30 2846 H 288.832 1.31037 -1.44275 0
M  V30 2847 H 287.928 2.83238 -1.31082 0
M  V30 2848 N 288.23 0.939286 1.26551 0
M  V30 2849 C 289.193 0.451987 2.24699 0
M  V30 2850 C 290.193 -0.435869 1.5478 0
M  V30 2851 O 291.383 -0.235314 1.72603 0
M  V30 2852 C 288.515 -0.348801 3.39111 0
M  V30 2853 H 289.708 1.3193 2.69322 0
M  V30 2854 H 287.261 0.721072 1.38673 0
M  V30 2855 H 287.996 -1.23444 2.99887 0
M  V30 2856 H 287.781 0.287945 3.91041 0
M  V30 2857 H 289.271 -0.679726 4.12031 0
M  V30 2858 N 289.708 -1.40897 0.706093 0
M  V30 2859 C 290.64 -2.29199 0.00815776 0
M  V30 2860 C 291.653 -1.45336 -0.733582 0
M  V30 2861 O 292.842 -1.68727 -0.582537 0
M  V30 2862 C 289.942 -3.23417 -1.01265 0
M  V30 2863 C 289.115 -4.36089 -0.338387 0
M  V30 2864 C 288.174 -5.10811 -1.26326 0
M  V30 2865 O 287.2 -5.64215 -0.751651 0
M  V30 2866 N 288.402 -5.19269 -2.595 0
M  V30 2867 H 291.167 -2.89738 0.766297 0
M  V30 2868 H 288.728 -1.52164 0.55296 0
M  V30 2869 H 290.72 -3.70276 -1.63334 0
M  V30 2870 H 289.29 -2.64112 -1.67223 0
M  V30 2871 H 288.51 -3.91479 0.462352 0
M  V30 2872 H 289.798 -5.08634 0.130031 0
M  V30 2873 H 289.196 -4.77347 -3.03573 0
M  V30 2874 H 287.753 -5.69667 -3.16737 0
M  V30 2875 N 291.186 -0.45159 -1.50991 0
M  V30 2876 C 292.149 0.341117 -2.26647 0
M  V30 2877 C 293.149 0.937422 -1.30649 0
M  V30 2878 O 294.339 0.809644 -1.54241 0
M  V30 2879 C 291.471 1.48398 -3.06905 0
M  V30 2880 H 292.664 -0.322117 -2.98165 0
M  V30 2881 H 290.217 -0.205122 -1.54948 0
M  V30 2882 H 290.952 2.18284 -2.39838 0
M  V30 2883 H 290.737 1.06241 -3.77432 0
M  V30 2884 H 292.227 2.04367 -3.64176 0
M  V30 2885 N 292.664 1.56529 -0.183458 0
M  V30 2886 C 293.597 2.14417 0.781052 0
M  V30 2887 C 294.575 1.07761 1.21763 0
M  V30 2888 O 295.759 1.35807 1.30724 0
M  V30 2889 C 292.886 2.69361 2.05335 0
M  V30 2890 C 291.932 3.885 1.75982 0
M  V30 2891 S 292.765 5.27568 0.918256 0
M  V30 2892 C 293.921 5.85926 2.20095 0
M  V30 2893 H 294.154 2.95893 0.2889 0
M  V30 2894 H 291.687 1.54368 0.0313844 0
M  V30 2895 H 293.645 3.01662 2.78406 0
M  V30 2896 H 292.306 1.87949 2.51663 0
M  V30 2897 H 291.499 4.25314 2.70415 0
M  V30 2898 H 291.101 3.57149 1.10999 0
M  V30 2899 H 293.393 5.99579 3.15453 0
M  V30 2900 H 294.336 6.82761 1.87731 0
M  V30 2901 H 294.744 5.14438 2.32409 0
M  V30 2902 N 294.142 -0.090211 1.57342 0
M  V30 2903 C 295.09 -1.12792 2.03422 0
M  V30 2904 C 296.084 -1.41182 0.936166 0
M  V30 2905 O 297.29 -1.40805 1.12133 0
M  V30 2906 H 293.665 -0.380986 0.648347 0
M  V30 2907 H 295.636 -0.71299 2.89757 0
M  V30 2908 C 294.385 -2.43855 2.47851 0
M  V30 2909 H 293.708 -2.22855 3.31927 0
M  V30 2910 H 295.148 -3.14955 2.83865 0
M  V30 2911 C 293.607 -3.08503 1.3538 0
M  V30 2912 O 294.137 -3.95805 0.685641 0
M  V30 2913 N 292.343 -2.68831 1.10355 0
M  V30 2914 H 291.89 -1.97929 1.64869 0
M  V30 2915 H 291.848 -3.12412 0.353031 0
M  V30 2916 N 295.62 -1.53406 -0.361157 0
M  V30 2917 C 296.845 -1.74024 -1.12829 0
M  V30 2918 C 297.27 -0.470069 -1.82132 0
M  V30 2919 O 296.628 0.57619 -1.719 0
M  V30 2920 C 296.676 -2.90903 -2.13091 0
M  V30 2921 O 295.78 -2.59821 -3.20261 0
M  V30 2922 H 295.121 -0.577804 -0.327168 0
M  V30 2923 H 297.651 -2.00307 -0.41693 0
M  V30 2924 H 297.661 -3.17194 -2.56616 0
M  V30 2925 H 296.336 -3.83034 -1.62042 0
M  V30 2926 H 294.913 -2.44362 -2.81677 0
M  V30 2927 N 297.098 0.621204 -1.44841 0
M  V30 2928 C 298.326 1.40752 -1.51646 0
M  V30 2929 C 298.741 1.88246 -0.144549 0
M  V30 2930 O 298.098 1.61422 0.851416 0
M  V30 2931 C 298.149 2.62119 -2.4895 0
M  V30 2932 O 297.87 2.16602 -3.80808 0
M  V30 2933 C 299.371 3.55135 -2.65319 0
M  V30 2934 H 296.591 0.431325 -0.514004 0
M  V30 2935 H 299.135 0.758835 -1.899 0
M  V30 2936 H 297.29 3.23058 -2.13805 0
M  V30 2937 H 297.704 2.95358 -4.33433 0
M  V30 2938 H 299.178 4.36874 -3.37409 0
M  V30 2939 H 299.655 4.04592 -1.70886 0
M  V30 2940 H 300.261 3.00058 -3.01405 0
M  V30 2941 N 298.576 1.31904 0.862503 0
M  V30 2942 C 299.822 1.22197 1.61851 0
M  V30 2943 C 300.155 -0.217641 1.92977 0
M  V30 2944 O 299.43 -1.15264 1.56666 0
M  V30 2945 C 299.713 2.07378 2.94391 0
M  V30 2946 C 299.566 3.59678 2.70096 0
M  V30 2947 C 300.885 1.92891 3.95577 0
M  V30 2948 H 298.004 0.445255 0.587296 0
M  V30 2949 H 300.646 1.6177 0.99651 0
M  V30 2950 H 298.796 1.73758 3.47477 0
M  V30 2951 H 300.468 4.03472 2.23625 0
M  V30 2952 H 298.711 3.82735 2.04197 0
M  V30 2953 H 299.382 4.14595 3.64438 0
M  V30 2954 H 301.858 2.22327 3.51724 0
M  V30 2955 H 300.734 2.54781 4.86187 0
M  V30 2956 H 300.995 0.894315 4.3296 0
M  V30 2957 N 300.054 -1.07777 1.14986 0
M  V30 2958 C 301.3 -1.80557 0.923422 0
M  V30 2959 C 301.633 -1.86298 -0.548337 0
M  V30 2960 O 300.908 -1.34354 -1.40639 0
M  V30 2961 C 301.191 -3.25839 1.53299 0
M  V30 2962 C 301.044 -3.28269 3.07505 0
M  V30 2963 C 302.363 -4.22991 1.21518 0
M  V30 2964 H 299.482 -0.655493 0.336894 0
M  V30 2965 H 302.124 -1.26144 1.42083 0
M  V30 2966 H 300.274 -3.72306 1.10999 0
M  V30 2967 H 301.946 -2.90079 3.58681 0
M  V30 2968 H 300.189 -2.67355 3.4162 0
M  V30 2969 H 300.86 -4.30691 3.45266 0
M  V30 2970 H 303.336 -3.84894 1.581 0
M  V30 2971 H 302.212 -5.22945 1.66793 0
M  V30 2972 H 302.473 -4.41904 0.131505 0
M  V30 2973 N 301.532 -0.945985 -1.26051 0
M  V30 2974 C 302.464 -0.416662 -2.25381 0
M  V30 2975 C 303.477 0.462712 -1.56086 0
M  V30 2976 O 304.666 0.272383 -1.7641 0
M  V30 2977 C 301.766 0.419812 -3.3629 0
M  V30 2978 C 300.939 -0.444531 -4.35135 0
M  V30 2979 C 299.998 0.332305 -5.2515 0
M  V30 2980 O 299.024 -0.266324 -5.68577 0
M  V30 2981 N 300.226 1.62763 -5.57215 0
M  V30 2982 H 302.991 -1.27059 -2.71433 0
M  V30 2983 H 300.552 -0.815392 -1.39868 0
M  V30 2984 H 302.544 0.947013 -3.93464 0
M  V30 2985 H 301.114 1.17456 -2.89694 0
M  V30 2986 H 300.334 -1.15291 -3.76964 0
M  V30 2987 H 301.622 -1.03478 -4.98166 0
M  V30 2988 H 301.02 2.13603 -5.23823 0
M  V30 2989 H 299.577 2.10097 -6.17011 0
M  V30 2990 N 303.011 1.40521 -0.713556 0
M  V30 2991 C 304.236 2.05759 -0.26035 0
M  V30 2992 C 304.661 1.53403 1.08854 0
M  V30 2993 O 304.019 0.668535 1.68524 0
M  V30 2994 C 304.067 3.59745 -0.248122 0
M  V30 2995 O 303.171 4.05123 0.77131 0
M  V30 2996 H 302.512 0.652564 -0.122703 0
M  V30 2997 H 305.042 1.79958 -0.973467 0
M  V30 2998 H 305.052 4.07911 -0.0851129 0
M  V30 2999 H 303.727 3.97218 -1.2325 0
M  V30 3000 H 302.304 3.68422 0.57619 0
M  V30 3001 N 304.489 0.459591 1.5075 0
M  V30 3002 C 305.452 -0.329093 2.26825 0
M  V30 3003 C 306.452 -0.930481 1.31144 0
M  V30 3004 O 307.642 -0.801453 1.54669 0
M  V30 3005 C 304.774 -1.46768 3.07688 0
M  V30 3006 H 305.967 0.337924 2.9799 0
M  V30 3007 H 303.52 0.213336 1.54837 0
M  V30 3008 H 304.255 -2.17009 2.40993 0
M  V30 3009 H 304.04 -1.04238 3.77991 0
M  V30 3010 H 305.53 -2.02433 3.65254 0
M  V30 3011 N 305.967 -1.56429 0.191757 0
M  V30 3012 C 307.192 -2.02309 -0.456706 0
M  V30 3013 C 307.617 -1.07103 -1.5463 0
M  V30 3014 O 306.975 -0.0539677 -1.8122 0
M  V30 3015 C 307.023 -3.46654 -0.993159 0
M  V30 3016 O 306.127 -3.54559 -2.10622 0
M  V30 3017 H 305.468 -0.655303 -0.107114 0
M  V30 3018 H 307.998 -2.02364 0.301653 0
M  V30 3019 H 308.008 -3.86377 -1.31061 0
M  V30 3020 H 306.683 -4.1544 -0.195504 0
M  V30 3021 H 305.26 -3.26708 -1.79767 0
M  V30 3022 N 307.445 0.0818655 -1.57387 0
M  V30 3023 C 308.693 0.781368 -1.86384 0
M  V30 3024 C 309.014 1.78618 -0.782342 0
M  V30 3025 O 308.284 1.94976 0.190061 0
M  V30 3026 H 306.864 0.291562 -0.687751 0
M  V30 3027 H 309.526 0.060348 -1.94807 0
M  V30 3028 H 308.622 1.3038 -2.83562 0
M  V30 3029 N 308.923 1.53595 0.353017 0
M  V30 3030 C 309.886 1.80232 1.41594 0
M  V30 3031 C 310.886 0.673081 1.46035 0
M  V30 3032 O 312.076 0.941335 1.46576 0
M  V30 3033 C 309.208 1.93578 2.80607 0
M  V30 3034 H 310.401 2.75174 1.19244 0
M  V30 3035 H 307.954 1.44864 0.586872 0
M  V30 3036 H 308.689 1.00746 3.08254 0
M  V30 3037 H 308.474 2.75724 2.78781 0
M  V30 3038 H 309.964 2.15735 3.57558 0
M  V30 3039 N 310.401 -0.613514 1.45168 0
M  V30 3040 C 311.647 -1.37471 1.49096 0
M  V30 3041 C 311.98 -1.93765 0.129901 0
M  V30 3042 O 311.255 -1.74707 -0.854858 0
M  V30 3043 C 311.538 -2.52701 2.56542 0
M  V30 3044 C 311.391 -2.01643 4.0207 0
M  V30 3045 C 312.71 -3.54849 2.60327 0
M  V30 3046 H 309.829 -0.498502 0.54283 0
M  V30 3047 H 312.471 -0.692125 1.76945 0
M  V30 3048 H 310.621 -3.10931 2.32926 0
M  V30 3049 H 312.293 -1.48108 4.36877 0
M  V30 3050 H 310.536 -1.32688 4.13009 0
M  V30 3051 H 311.207 -2.84681 4.72928 0
M  V30 3052 H 313.683 -3.0645 2.81474 0
M  V30 3053 H 312.559 -4.32973 3.37381 0
M  V30 3054 H 312.82 -4.10079 1.6519 0
M  V30 3055 N 311.879 -1.3236 -0.855495 0
M  V30 3056 C 313.107 -1.2587 -1.64208 0
M  V30 3057 C 313.522 0.173457 -1.88002 0
M  V30 3058 O 312.879 1.11027 -1.44842 0
M  V30 3059 C 312.93 -2.01424 -3.00184 0
M  V30 3060 O 312.651 -3.39051 -2.77445 0
M  V30 3061 C 314.152 -2.01948 -3.94629 0
M  V30 3062 H 311.372 -0.434318 -0.511477 0
M  V30 3063 H 313.916 -1.74469 -1.0668 0
M  V30 3064 H 312.071 -1.56549 -3.5436 0
M  V30 3065 H 312.485 -3.77711 -3.63916 0
M  V30 3066 H 313.959 -2.59297 -4.87308 0
M  V30 3067 H 314.436 -1.00554 -4.27534 0
M  V30 3068 H 315.042 -2.46767 -3.4639 0
M  V30 3069 N 313.357 1.07166 -1.15556 0
M  V30 3070 C 314.287 2.16403 -0.877046 0
M  V30 3071 C 315.268 1.69217 0.173111 0
M  V30 3072 O 316.453 1.94181 0.027084 0
M  V30 3073 C 313.583 3.45349 -0.367632 0
M  V30 3074 C 312.537 4.05995 -1.35468 0
M  V30 3075 C 311.863 5.30045 -0.704038 0
M  V30 3076 C 313.163 4.45804 -2.72132 0
M  V30 3077 H 314.857 2.39959 -1.79053 0
M  V30 3078 H 312.403 1.15325 -0.862331 0
M  V30 3079 H 314.356 4.21095 -0.160317 0
M  V30 3080 H 313.08 3.21385 0.581326 0
M  V30 3081 H 311.739 3.32296 -1.54839 0
M  V30 3082 H 311.387 5.02373 0.251128 0
M  V30 3083 H 311.087 5.71579 -1.36277 0
M  V30 3084 H 312.611 6.08495 -0.50654 0
M  V30 3085 H 314.025 5.12671 -2.56595 0
M  V30 3086 H 312.422 4.98296 -3.34397 0
M  V30 3087 H 313.492 3.57083 -3.28054 0
M  V30 3088 N 314.835 0.952656 1.25548 0
M  V30 3089 C 316.063 0.623496 1.97282 0
M  V30 3090 C 316.478 -0.803987 1.70826 0
M  V30 3091 O 315.835 -1.53755 0.983147 0
M  V30 3092 C 315.886 0.870209 3.5087 0
M  V30 3093 O 315.607 2.24156 3.76412 0
M  V30 3094 C 317.108 0.553164 4.39835 0
M  V30 3095 H 314.328 0.233931 0.628902 0
M  V30 3096 H 316.872 1.27649 1.59768 0
M  V30 3097 H 315.027 0.263652 3.86502 0
M  V30 3098 H 315.441 2.31021 4.70882 0
M  V30 3099 H 316.915 0.776342 5.46513 0
M  V30 3100 H 317.392 -0.512215 4.36203 0
M  V30 3101 H 317.998 1.13896 4.09766 0
M  V30 3102 N 316.313 -1.40141 0.720998 0
M  V30 3103 C 317.243 -2.33339 0.0867621 0
M  V30 3104 C 318.224 -1.53178 -0.739622 0
M  V30 3105 O 319.409 -1.81625 -0.687449 0
M  V30 3106 C 316.539 -3.37194 -0.831728 0
M  V30 3107 C 315.493 -4.27857 -0.110558 0
M  V30 3108 C 314.819 -5.22294 -1.14513 0
M  V30 3109 C 316.119 -5.11872 1.0385 0
M  V30 3110 H 317.813 -2.86626 0.865219 0
M  V30 3111 H 315.359 -1.37814 0.417516 0
M  V30 3112 H 317.312 -4.01335 -1.28485 0
M  V30 3113 H 316.036 -2.82314 -1.64214 0
M  V30 3114 H 314.695 -3.65176 0.322797 0
M  V30 3115 H 314.343 -4.63717 -1.94874 0
M  V30 3116 H 314.043 -5.83797 -0.667446 0
M  V30 3117 H 315.567 -5.89312 -1.59824 0
M  V30 3118 H 316.981 -5.69436 0.664482 0
M  V30 3119 H 315.378 -5.82445 1.4449 0
M  V30 3120 H 316.448 -4.4753 1.86668 0
M  V30 3121 N 317.792 -0.46758 -1.50504 0
M  V30 3122 C 319.041 0.0902868 -2.01498 0
M  V30 3123 C 319.354 1.411 -1.35463 0
M  V30 3124 O 320.56 2.0536 -1.77594 0
M  V30 3125 C 319.016 0.21142 -3.59278 0
M  V30 3126 C 318.624 -1.10065 -4.34269 0
M  V30 3127 C 320.368 0.721433 -4.18325 0
M  V30 3128 C 318.275 -0.943505 -5.83825 0
M  V30 3129 H 317.205 0.037517 -0.753066 0
M  V30 3130 H 319.856 -0.601943 -1.73346 0
M  V30 3131 H 318.238 0.967352 -3.84003 0
M  V30 3132 H 319.412 -1.86726 -4.21272 0
M  V30 3133 H 317.727 -1.5415 -3.86816 0
M  V30 3134 H 320.324 0.85598 -5.27804 0
M  V30 3135 H 320.667 1.71186 -3.79475 0
M  V30 3136 H 321.2 0.0229843 -3.97793 0
M  V30 3137 H 317.939 -1.90719 -6.27141 0
M  V30 3138 H 317.459 -0.217213 -5.99407 0
M  V30 3139 H 319.138 -0.608715 -6.4413 0
M  V30 3140 N 319.27 1.56325 -0.20005 0
M  V30 3141 C 320.18 2.22931 0.730668 0
M  V30 3142 C 321.196 1.22997 1.23076 0
M  V30 3143 O 322.372 1.55748 1.27689 0
M  V30 3144 C 319.437 2.87948 1.93098 0
M  V30 3145 C 318.498 4.03166 1.47497 0
M  V30 3146 C 317.731 4.65073 2.61807 0
M  V30 3147 O 317.954 4.25913 3.79413 0
M  V30 3148 O 316.888 5.54452 2.34237 0
M  V30 3149 H 320.714 3.03084 0.193391 0
M  V30 3150 H 318.299 1.49371 0.0294621 0
M  V30 3151 H 320.181 3.29063 2.6324 0
M  V30 3152 H 318.856 2.10771 2.45677 0
M  V30 3153 H 317.763 3.66664 0.742201 0
M  V30 3154 H 319.096 4.82022 0.995796 0
M  V30 3155 N 320.748 -0.0735177 1.57428 0
M  V30 3156 C 322.159 -0.625551 1.75908 0
M  V30 3157 C 322.51 -1.78 0.825261 0
M  V30 3158 O 321.635 -2.16398 0.00893964 0
M  V30 3159 C 322.23 -1.14155 3.18989 0
M  V30 3160 C 320.789 -1.63946 3.38819 0
M  V30 3161 C 319.936 -0.558151 2.71625 0
M  V30 3162 H 322.887 0.152647 1.57964 0
M  V30 3163 H 322.908 -2.0104 3.23053 0
M  V30 3164 H 322.42 -0.301116 3.8693 0
M  V30 3165 H 320.521 -2.50321 2.7599 0
M  V30 3166 H 320.634 -1.71759 4.47253 0
M  V30 3167 H 318.998 -1.00278 2.34129 0
M  V30 3168 H 319.781 0.272071 3.4222 0
M  V30 3169 N 322.226 -1.5378 -0.344866 0
M  V30 3170 C 323.503 -1.61589 -1.10219 0
M  V30 3171 C 323.883 -0.436316 -2.06542 0
M  V30 3172 O 323.231 0.571543 -2.21237 0
M  V30 3173 C 323.441 -2.97602 -1.82301 0
M  V30 3174 C 324.789 -3.5291 -2.36093 0
M  V30 3175 O 325.813 -2.99768 -1.924 0
M  V30 3176 O 324.672 -4.45859 -3.16026 0
M  V30 3177 H 321.766 -0.653522 -0.506792 0
M  V30 3178 H 324.312 -1.66126 -0.346465 0
M  V30 3179 H 323.084 -3.74893 -1.12121 0
M  V30 3180 H 322.707 -2.9665 -2.64735 0
M  V30 3181 N 323.704 0.605807 -1.45491 0
M  V30 3182 C 325.12 0.926751 -1.29936 0
M  V30 3183 C 325.32 1.99896 -0.253706 0
M  V30 3184 O 324.376 2.50038 0.351737 0
M  V30 3185 C 325.689 1.36599 -2.67883 0
M  V30 3186 C 327.237 1.4801 -2.75793 0
M  V30 3187 C 327.712 1.95309 -4.14268 0
M  V30 3188 N 329.203 2.0254 -4.16571 0
M  V30 3189 C 329.938 2.40363 -5.20589 0
M  V30 3190 N 329.434 2.77143 -6.34952 0
M  V30 3191 N 331.227 2.40718 -5.07948 0
M  V30 3192 H 323.378 -0.102862 -2.12151 0
M  V30 3193 H 325.641 0.016639 -0.947854 0
M  V30 3194 H 325.347 0.652306 -3.45598 0
M  V30 3195 H 325.221 2.33215 -2.96463 0
M  V30 3196 H 327.608 2.1847 -1.98381 0
M  V30 3197 H 327.689 0.497041 -2.50925 0
M  V30 3198 H 327.333 1.25436 -4.92167 0
M  V30 3199 H 327.263 2.94532 -4.3653 0
M  V30 3200 H 329.754 1.76699 -3.34045 0
M  V30 3201 H 330.067 3.0489 -7.10114 0
M  V30 3202 H 328.412 2.74834 -6.3835 0
M  V30 3203 H 331.603 2.11392 -4.1765 0
M  V30 3204 H 331.776 2.69869 -5.89131 0
M  V30 3205 N 325.182 1.32811 0.848464 0
M  V30 3206 C 326.13 1.22231 1.97895 0
M  V30 3207 C 327.124 0.125749 1.68933 0
M  V30 3208 O 328.33 0.289083 1.77663 0
M  V30 3209 H 324.705 0.379058 0.649476 0
M  V30 3210 H 326.676 2.17828 2.03945 0
M  V30 3211 C 325.425 0.968572 3.33937 0
M  V30 3212 H 324.748 1.80458 3.56756 0
M  V30 3213 H 326.188 0.934808 4.13567 0
M  V30 3214 C 324.647 -0.328628 3.35293 0
M  V30 3215 O 325.177 -1.33848 3.78745 0
M  V30 3216 N 323.383 -0.352788 2.88451 0
M  V30 3217 H 322.93 0.469541 2.53285 0
M  V30 3218 H 322.888 -1.22057 2.89741 0
M  V30 3219 N 326.66 -1.06551 1.16123 0
M  V30 3220 C 327.623 -2.12132 0.867906 0
M  V30 3221 C 328.623 -1.60224 -0.135944 0
M  V30 3222 O 329.813 -1.73943 0.0946422 0
M  V30 3223 C 326.945 -3.396 0.297419 0
M  V30 3224 H 328.138 -2.39586 1.80385 0
M  V30 3225 H 325.691 -1.22574 0.969812 0
M  V30 3226 H 326.426 -3.17794 -0.64633 0
M  V30 3227 H 326.211 -3.78581 1.02073 0
M  V30 3228 H 327.701 -4.17455 0.110052 0
M  V30 3229 N 328.138 -0.959301 -1.25041 0
M  V30 3230 C 329.415 -0.533805 -1.88175 0
M  V30 3231 C 329.795 0.988994 -1.865 0
M  V30 3232 O 329.143 1.85677 -1.33177 0
M  V30 3233 C 329.353 -1.11575 -3.30684 0
M  V30 3234 C 330.701 -1.19548 -4.07423 0
M  V30 3235 O 331.725 -1.06765 -3.39823 0
M  V30 3236 O 330.584 -1.39656 -5.28354 0
M  V30 3237 H 327.678 -0.176772 -0.807887 0
M  V30 3238 H 330.224 -1.05303 -1.33076 0
M  V30 3239 H 328.996 -2.15884 -3.26358 0
M  V30 3240 H 328.619 -0.580059 -3.93346 0
M  V30 3241 N 329.616 1.39756 -0.72842 0
M  V30 3242 C 331.027 1.83498 -0.344289 0
M  V30 3243 C 331.378 1.60868 1.12321 0
M  V30 3244 O 330.503 1.09634 1.86573 0
M  V30 3245 C 331.098 3.33114 -0.618112 0
M  V30 3246 C 329.657 3.753 -0.287549 0
M  V30 3247 C 328.804 2.62831 -0.884048 0
M  V30 3248 H 331.755 1.28842 -0.926578 0
M  V30 3249 H 331.776 3.80334 0.112349 0
M  V30 3250 H 331.288 3.49553 -1.68625 0
M  V30 3251 H 329.389 3.64451 0.775012 0
M  V30 3252 H 329.502 4.72945 -0.765512 0
M  V30 3253 H 327.866 2.52792 -0.311149 0
M  V30 3254 H 328.649 2.82078 -1.95671 0
M  V30 3255 N 331.094 0.475555 1.50254 0
M  V30 3256 C 332.342 -0.077738 2.0195 0
M  V30 3257 C 332.663 -1.39813 1.35931 0
M  V30 3258 O 331.933 -1.89249 0.506123 0
M  V30 3259 H 330.513 -0.031719 0.746326 0
M  V30 3260 H 333.175 0.626995 1.84539 0
M  V30 3261 H 332.271 -0.225995 3.11281 0
M  V30 3262 N 332.573 -1.56217 0.208337 0
M  V30 3263 C 333.505 -2.1695 -0.739276 0
M  V30 3264 C 334.518 -1.13492 -1.1672 0
M  V30 3265 O 335.707 -1.40529 -1.10063 0
M  V30 3266 C 332.807 -2.72755 -2.01142 0
M  V30 3267 C 331.98 -4.0125 -1.74118 0
M  V30 3268 C 331.039 -4.41749 -2.85909 0
M  V30 3269 O 330.065 -5.08912 -2.54946 0
M  V30 3270 N 331.267 -4.06342 -4.14568 0
M  V30 3271 H 334.032 -2.98893 -0.219837 0
M  V30 3272 H 331.593 -1.61878 0.0268445 0
M  V30 3273 H 333.585 -2.96826 -2.75094 0
M  V30 3274 H 332.155 -1.95191 -2.4417 0
M  V30 3275 H 331.375 -3.85173 -0.838775 0
M  V30 3276 H 332.663 -4.851 -1.53477 0
M  V30 3277 H 332.061 -3.52345 -4.42571 0
M  V30 3278 H 330.618 -4.35335 -4.85105 0
M  V30 3279 N 334.051 0.0651679 -1.57465 0
M  V30 3280 C 335.3 0.761916 -1.86756 0
M  V30 3281 C 335.613 1.78406 -0.801925 0
M  V30 3282 O 336.819 2.53084 -0.982885 0
M  V30 3283 C 335.275 1.40603 -3.31299 0
M  V30 3284 C 334.883 0.422115 -4.46007 0
M  V30 3285 C 336.627 2.08476 -3.69781 0
M  V30 3286 C 334.534 1.07252 -5.81593 0
M  V30 3287 H 333.464 0.288308 -0.696702 0
M  V30 3288 H 336.115 0.015344 -1.83494 0
M  V30 3289 H 334.497 2.20109 -3.29193 0
M  V30 3290 H 335.671 -0.343613 -4.59517 0
M  V30 3291 H 333.986 -0.152527 -4.16121 0
M  V30 3292 H 336.583 2.57925 -4.68379 0
M  V30 3293 H 336.926 2.88712 -2.99919 0
M  V30 3294 H 337.459 1.35792 -3.73905 0
M  V30 3295 H 334.198 0.310342 -6.54765 0
M  V30 3296 H 333.718 1.80895 -5.71872 0
M  V30 3297 H 335.397 1.59043 -6.27148 0
M  V30 3298 N 335.529 1.53961 0.336706 0
M  V30 3299 C 336.806 1.62171 1.09361 0
M  V30 3300 C 337.186 0.447263 2.06307 0
M  V30 3301 O 336.534 -0.559802 2.21537 0
M  V30 3302 C 336.744 2.98565 1.80721 0
M  V30 3303 C 338.092 3.54157 2.34218 0
M  V30 3304 O 339.116 3.00784 1.90807 0
M  V30 3305 O 337.975 4.47528 3.13657 0
M  V30 3306 H 335.069 0.6562 0.503319 0
M  V30 3307 H 337.615 1.66307 0.33765 0
M  V30 3308 H 336.387 3.75482 1.10132 0
M  V30 3309 H 336.01 2.9805 2.63158 0
M  V30 3310 N 337.007 -0.598083 1.45811 0
M  V30 3311 C 337.917 -1.73632 1.57763 0
M  V30 3312 C 338.933 -1.67763 0.461676 0
M  V30 3313 O 340.109 -1.87949 0.723685 0
M  V30 3314 C 337.174 -3.10114 1.55018 0
M  V30 3315 C 336.235 -3.27364 2.77726 0
M  V30 3316 C 335.468 -4.57334 2.75102 0
M  V30 3317 O 335.691 -5.40258 1.8297 0
M  V30 3318 O 334.625 -4.77502 3.66437 0
M  V30 3319 H 338.451 -1.66498 2.53992 0
M  V30 3320 H 336.036 -0.763308 1.28429 0
M  V30 3321 H 337.918 -3.9141 1.56129 0
M  V30 3322 H 336.593 -3.17718 0.619431 0
M  V30 3323 H 335.5 -2.45619 2.82174 0
M  V30 3324 H 336.833 -3.24641 3.69958 0
M  V30 3325 N 338.485 -1.33259 -0.841409 0
M  V30 3326 C 339.732 -1.24572 -1.5965 0
M  V30 3327 C 340.06 0.189137 -1.93578 0
M  V30 3328 O 339.315 1.14566 -1.5866 0
M  V30 3329 C 339.614 -2.06381 -2.9179 0
M  V30 3330 C 339.28 -3.556 -2.77235 0
M  V30 3331 C 337.942 -3.96282 -2.72973 0
M  V30 3332 C 340.294 -4.50433 -2.62221 0
M  V30 3333 C 337.622 -5.30017 -2.51592 0
M  V30 3334 C 339.974 -5.84327 -2.42374 0
M  V30 3335 C 338.638 -6.24194 -2.36512 0
M  V30 3336 H 337.908 -0.455842 -0.5842 0
M  V30 3337 H 340.555 -1.6482 -0.975016 0
M  V30 3338 H 338.86 -1.58903 -3.5813 0
M  V30 3339 H 340.557 -1.97019 -3.49263 0
M  V30 3340 H 337.147 -3.23298 -2.81384 0
M  V30 3341 H 341.331 -4.19914 -2.64549 0
M  V30 3342 H 336.587 -5.59947 -2.45499 0
M  V30 3343 H 340.761 -6.57414 -2.29739 0
M  V30 3344 H 338.388 -7.27759 -2.19706 0
M  V30 3345 N 339.963 1.05934 -1.16686 0
M  V30 3346 C 340.893 2.1546 -0.899949 0
M  V30 3347 C 341.874 1.69391 0.155154 0
M  V30 3348 O 343.059 1.94199 0.00648693 0
M  V30 3349 C 340.189 3.44939 -0.404241 0
M  V30 3350 C 339.143 4.04536 -1.39767 0
M  V30 3351 C 338.469 5.29268 -0.760216 0
M  V30 3352 C 339.769 4.42893 -2.76845 0
M  V30 3353 H 341.463 2.38046 -1.81588 0
M  V30 3354 H 339.009 1.14404 -0.874514 0
M  V30 3355 H 340.962 4.20901 -0.204971 0
M  V30 3356 H 339.686 3.21983 0.547206 0
M  V30 3357 H 338.345 3.30635 -1.58355 0
M  V30 3358 H 337.993 5.02611 0.197831 0
M  V30 3359 H 337.693 5.70101 -1.42332 0
M  V30 3360 H 339.217 6.07924 -0.57105 0
M  V30 3361 H 340.631 5.09921 -2.62019 0
M  V30 3362 H 339.028 4.94721 -3.39663 0
M  V30 3363 H 340.098 3.53584 -3.31823 0
M  V30 3364 N 341.441 0.965919 1.2453 0
M  V30 3365 C 342.388 0.49402 2.25451 0
M  V30 3366 C 343.358 -0.45948 1.59618 0
M  V30 3367 O 344.543 -0.370238 1.87173 0
M  V30 3368 C 341.683 -0.211359 3.44452 0
M  V30 3369 C 340.796 0.7807 4.24887 0
M  V30 3370 C 339.931 0.0516105 5.31175 0
M  V30 3371 C 338.97 1.03385 6.03306 0
M  V30 3372 N 338.107 0.334887 7.01301 0
M  V30 3373 H 342.947 1.35946 2.65184 0
M  V30 3374 H 340.484 0.681515 1.3036 0
M  V30 3375 H 342.442 -0.637 4.12308 0
M  V30 3376 H 341.072 -1.04077 3.05562 0
M  V30 3377 H 340.124 1.32479 3.56586 0
M  V30 3378 H 341.436 1.52978 4.74762 0
M  V30 3379 H 340.59 -0.432114 6.05159 0
M  V30 3380 H 339.329 -0.730179 4.82203 0
M  V30 3381 H 338.334 1.52847 5.28127 0
M  V30 3382 H 339.559 1.81606 6.54367 0
M  V30 3383 H 337.505 -0.427959 6.54603 0
M  V30 3384 H 337.422 1.02287 7.49048 0
M  V30 3385 H 338.69 -0.126928 7.79397 0
M  V30 3386 N 342.919 -1.39368 0.735821 0
M  V30 3387 C 344.196 -1.94465 0.210395 0
M  V30 3388 C 344.576 -1.67254 -1.28799 0
M  V30 3389 O 343.924 -1.00123 -2.05396 0
M  V30 3390 C 344.134 -3.4472 0.544897 0
M  V30 3391 C 345.482 -4.21708 0.494689 0
M  V30 3392 O 346.506 -3.52922 0.482136 0
M  V30 3393 O 345.365 -5.44299 0.489947 0
M  V30 3394 H 342.459 -0.826096 0.0386666 0
M  V30 3395 H 345.005 -1.48863 0.814735 0
M  V30 3396 H 343.777 -3.57963 1.58045 0
M  V30 3397 H 343.4 -3.97502 -0.08837 0
M  V30 3398 N 344.397 -0.483516 -1.5 0
M  V30 3399 C 345.347 0.32306 -2.257 0
M  V30 3400 C 346.331 0.950755 -1.29805 0
M  V30 3401 O 347.523 0.861247 -1.54634 0
M  V30 3402 C 344.652 1.39724 -3.13579 0
M  V30 3403 C 343.738 0.776663 -4.16928 0
M  V30 3404 N 344.129 -0.1104 -5.0568 0
M  V30 3405 C 342.427 1.03922 -4.33724 0
M  V30 3406 C 343.128 -0.46387 -5.79848 0
M  V30 3407 N 342.104 0.163987 -5.43353 0
M  V30 3408 H 345.906 -0.360086 -2.91686 0
M  V30 3409 H 343.42 -0.298456 -1.59634 0
M  V30 3410 H 345.417 1.98837 -3.66428 0
M  V30 3411 H 344.077 2.08225 -2.49143 0
M  V30 3412 H 345.088 -0.480069 -5.1567 0
M  V30 3413 H 341.765 1.71829 -3.80501 0
M  V30 3414 H 343.155 -1.18854 -6.61304 0
M  V30 3415 N 345.875 1.56104 -0.216619 0
M  V30 3416 C 346.807 2.17339 0.72776 0
M  V30 3417 C 347.82 1.14109 1.16116 0
M  V30 3418 O 349.009 1.4111 1.09317 0
M  V30 3419 C 346.109 2.73818 1.99693 0
M  V30 3420 C 345.282 4.02168 1.71988 0
M  V30 3421 C 344.341 4.43259 2.83562 0
M  V30 3422 O 343.367 5.10257 2.52244 0
M  V30 3423 N 344.569 4.08535 4.12407 0
M  V30 3424 H 347.334 2.99005 0.203983 0
M  V30 3425 H 344.895 1.61861 -0.0354289 0
M  V30 3426 H 346.887 2.9828 2.73516 0
M  V30 3427 H 345.457 1.96483 2.43132 0
M  V30 3428 H 344.677 3.85612 0.818337 0
M  V30 3429 H 345.965 4.85907 1.50903 0
M  V30 3430 H 345.363 3.54687 4.40696 0
M  V30 3431 H 343.92 4.37901 4.8279 0
M  V30 3432 N 347.353 -0.0568162 1.57498 0
M  V30 3433 C 348.601 -0.751617 1.87604 0
M  V30 3434 C 348.922 -1.77351 0.81066 0
M  V30 3435 O 348.192 -1.95254 -0.159018 0
M  V30 3436 H 346.772 -0.280583 0.692302 0
M  V30 3437 H 349.434 -0.0293483 1.94878 0
M  V30 3438 H 348.53 -1.25852 2.856 0
M  V30 3439 N 348.832 -1.54138 -0.328536 0
M  V30 3440 C 349.795 -1.82462 -1.38709 0
M  V30 3441 C 350.795 -0.696229 -1.44946 0
M  V30 3442 O 351.985 -0.964535 -1.4506 0
M  V30 3443 C 349.117 -1.98018 -2.77492 0
M  V30 3444 H 350.31 -2.77037 -1.14851 0
M  V30 3445 H 347.863 -1.45779 -0.563751 0
M  V30 3446 H 348.598 -1.05637 -3.06613 0
M  V30 3447 H 348.383 -2.80124 -2.74359 0
M  V30 3448 H 349.873 -2.21396 -3.54081 0
M  V30 3449 N 350.31 0.590341 -1.46126 0
M  V30 3450 C 351.558 1.34616 -1.50742 0
M  V30 3451 C 351.879 1.94363 -0.157486 0
M  V30 3452 O 351.149 1.78136 0.815136 0
M  V30 3453 H 349.729 0.499789 -0.555175 0
M  V30 3454 H 352.391 0.691953 -1.82203 0
M  V30 3455 H 351.487 2.15678 -2.25587 0
M  V30 3456 N 351.788 1.33704 0.83433 0
M  V30 3457 C 353.034 1.25603 1.59222 0
M  V30 3458 C 353.367 -0.176659 1.93395 0
M  V30 3459 O 352.642 -1.11915 1.59076 0
M  V30 3460 C 352.925 2.13576 2.89926 0
M  V30 3461 C 352.778 3.65326 2.62406 0
M  V30 3462 C 354.097 2.01238 3.91397 0
M  V30 3463 H 351.216 0.457613 0.577719 0
M  V30 3464 H 353.858 1.63848 0.961972 0
M  V30 3465 H 352.008 1.8109 3.43713 0
M  V30 3466 H 353.68 4.08124 2.15017 0
M  V30 3467 H 351.923 3.8698 1.96033 0
M  V30 3468 H 352.594 4.22232 3.55562 0
M  V30 3469 H 355.07 2.29738 3.46929 0
M  V30 3470 H 353.946 2.65036 4.80673 0
M  V30 3471 H 354.207 0.985951 4.30966 0
M  V30 3472 N 353.266 -1.05314 1.17247 0
M  V30 3473 C 354.198 -2.13023 0.845812 0
M  V30 3474 C 355.211 -1.62096 -0.151246 0
M  V30 3475 O 356.4 -1.78343 0.0748818 0
M  V30 3476 C 353.5 -3.38047 0.240292 0
M  V30 3477 C 352.673 -4.18255 1.27991 0
M  V30 3478 C 351.732 -5.21625 0.692375 0
M  V30 3479 O 350.758 -5.52619 1.36385 0
M  V30 3480 N 351.96 -5.78201 -0.516178 0
M  V30 3481 H 354.725 -2.41642 1.77283 0
M  V30 3482 H 352.286 -1.21401 1.07115 0
M  V30 3483 H 354.278 -4.04359 -0.16603 0
M  V30 3484 H 352.848 -3.06972 -0.590487 0
M  V30 3485 H 352.068 -3.47451 1.86203 0
M  V30 3486 H 353.356 -4.68643 1.98119 0
M  V30 3487 H 352.754 -5.55301 -1.07969 0
M  V30 3488 H 351.311 -6.4604 -0.86458 0
M  V30 3489 N 354.744 -0.972509 -1.24016 0
M  V30 3490 C 355.694 -0.477561 -2.22942 0
M  V30 3491 C 356.678 0.44308 -1.54679 0
M  V30 3492 O 357.87 0.273219 -1.74879 0
M  V30 3493 C 354.999 0.226348 -3.42553 0
M  V30 3494 C 354.085 -0.713403 -4.18057 0
M  V30 3495 N 354.476 -1.8527 -4.70647 0
M  V30 3496 C 352.774 -0.525145 -4.42898 0
M  V30 3497 C 353.475 -2.44089 -5.28011 0
M  V30 3498 N 352.451 -1.72556 -5.15486 0
M  V30 3499 H 356.253 -1.34678 -2.61226 0
M  V30 3500 H 353.767 -0.832196 -1.39457 0
M  V30 3501 H 355.764 0.598184 -4.12586 0
M  V30 3502 H 354.424 1.09195 -3.05788 0
M  V30 3503 H 355.435 -2.2341 -4.67235 0
M  V30 3504 H 352.112 0.296096 -4.16449 0
M  V30 3505 H 353.502 -3.40259 -5.79374 0
M  V30 3506 N 356.222 1.38976 -0.743202 0
M  V30 3507 C 357.471 1.99581 -0.291592 0
M  V30 3508 C 357.784 1.59656 1.13001 0
M  V30 3509 O 358.99 2.13157 1.68156 0
M  V30 3510 C 357.446 3.56813 -0.470391 0
M  V30 3511 C 357.054 4.05695 -1.90041 0
M  V30 3512 C 358.798 4.24423 -0.0809709 0
M  V30 3513 C 356.705 5.5553 -2.02832 0
M  V30 3514 H 355.635 0.746615 -0.105272 0
M  V30 3515 H 358.286 1.58872 -0.918258 0
M  V30 3516 H 356.668 3.95359 0.225299 0
M  V30 3517 H 357.842 3.78464 -2.62872 0
M  V30 3518 H 356.157 3.50775 -2.24379 0
M  V30 3519 H 358.754 5.34474 -0.155445 0
M  V30 3520 H 359.097 4.04962 0.96497 0
M  V30 3521 H 359.63 3.9108 -0.728124 0
M  V30 3522 H 356.369 5.79881 -3.05643 0
M  V30 3523 H 355.889 5.84537 -1.34448 0
M  V30 3524 H 357.568 6.21069 -1.81335 0
M  V30 3525 N 357.7 0.491464 1.49741 0
M  V30 3526 C 358.663 -0.280906 2.27472 0
M  V30 3527 C 359.663 -0.902454 1.33088 0
M  V30 3528 O 360.853 -0.768465 1.56334 0
M  V30 3529 C 357.985 -1.40209 3.10732 0
M  V30 3530 H 359.178 0.401056 2.97206 0
M  V30 3531 H 356.731 0.246131 1.5435 0
M  V30 3532 H 357.466 -2.11849 2.45541 0
M  V30 3533 H 357.251 -0.961969 3.80117 0
M  V30 3534 H 358.741 -1.9464 3.69466 0
M  V30 3535 N 359.178 -1.55987 0.224894 0
M  V30 3536 C 360.425 -1.9839 -0.4059 0
M  V30 3537 C 360.753 -1.11261 -1.59535 0
M  V30 3538 O 360.008 -0.158314 -1.95059 0
M  V30 3539 C 360.307 -3.46394 -0.880106 0
M  V30 3540 C 359.973 -4.5046 0.19918 0
M  V30 3541 C 358.635 -4.7864 0.495661 0
M  V30 3542 C 360.987 -5.12855 0.928939 0
M  V30 3543 C 358.315 -5.66497 1.52636 0
M  V30 3544 C 360.667 -6.01828 1.949 0
M  V30 3545 C 359.331 -6.28351 2.25236 0
M  V30 3546 H 358.601 -0.725961 -0.148529 0
M  V30 3547 H 361.248 -1.88668 0.328113 0
M  V30 3548 H 359.553 -3.53337 -1.69294 0
M  V30 3549 H 361.25 -3.76577 -1.37808 0
M  V30 3550 H 357.84 -4.28579 -0.0420526 0
M  V30 3551 H 362.024 -4.9115 0.713129 0
M  V30 3552 H 357.28 -5.8531 1.76698 0
M  V30 3553 H 361.454 -6.49225 2.51951 0
M  V30 3554 H 359.081 -6.96226 3.05244 0
M  V30 3555 N 360.656 0.0484629 -1.57525 0
M  V30 3556 C 361.604 1.07359 -2.06341 0
M  V30 3557 C 362.598 1.3865 -0.973269 0
M  V30 3558 O 363.804 1.37783 -1.15827 0
M  V30 3559 H 360.179 0.363662 -0.65822 0
M  V30 3560 H 362.15 0.635916 -2.91545 0
M  V30 3561 C 360.899 2.37198 -2.54229 0
M  V30 3562 H 360.222 2.13977 -3.37719 0
M  V30 3563 H 361.662 3.07319 -2.92115 0
M  V30 3564 C 360.121 3.04805 -1.43511 0
M  V30 3565 O 360.651 3.93848 -0.79034 0
M  V30 3566 N 358.857 2.65811 -1.17444 0
M  V30 3567 H 358.404 1.93488 -1.70059 0
M  V30 3568 H 358.362 3.11366 -0.435737 0
M  V30 3569 N 362.134 1.5431 0.320358 0
M  V30 3570 C 363.359 1.76954 1.08175 0
M  V30 3571 C 363.784 0.518193 1.80821 0
M  V30 3572 O 363.142 -0.530411 1.73368 0
M  V30 3573 C 363.19 2.96451 2.05303 0
M  V30 3574 O 362.294 2.68221 3.13259 0
M  V30 3575 H 361.635 0.586275 0.311733 0
M  V30 3576 H 364.165 2.01342 0.363676 0
M  V30 3577 H 364.175 3.23887 2.48116 0
M  V30 3578 H 362.85 3.87196 1.51829 0
M  V30 3579 H 361.427 2.51744 2.75099 0
M  V30 3580 N 363.613 -0.582584 1.46437 0
M  V30 3581 C 364.561 -1.71272 1.5738 0
M  V30 3582 C 365.555 -1.63524 0.44229 0
M  V30 3583 O 366.761 -1.69016 0.619166 0
M  V30 3584 H 363.136 -0.566273 0.494813 0
M  V30 3585 H 365.107 -1.59174 2.52401 0
M  V30 3586 C 363.856 -3.09658 1.58136 0
M  V30 3587 H 363.179 -3.16291 2.44541 0
M  V30 3588 H 364.619 -3.88494 1.69847 0
M  V30 3589 C 363.078 -3.3547 0.310026 0
M  V30 3590 O 363.608 -3.97199 -0.599683 0
M  V30 3591 N 361.814 -2.89925 0.197901 0
M  V30 3592 H 361.361 -2.39873 0.93909 0
M  V30 3593 H 361.319 -3.07568 -0.65185 0
M  V30 3594 N 365.091 -1.34144 -0.827227 0
M  V30 3595 C 366.368 -1.16844 -1.56865 0
M  V30 3596 C 366.748 0.260654 -2.09485 0
M  V30 3597 O 366.096 1.26138 -1.9053 0
M  V30 3598 C 366.306 -2.21939 -2.6934 0
M  V30 3599 C 367.654 -2.56695 -3.3822 0
M  V30 3600 O 368.678 -2.20695 -2.79593 0
M  V30 3601 O 367.537 -3.18518 -4.44082 0
M  V30 3602 H 364.631 -0.452669 -0.692112 0
M  V30 3603 H 367.177 -1.45763 -0.868973 0
M  V30 3604 H 365.949 -3.17882 -2.28182 0
M  V30 3605 H 365.572 -1.94172 -3.46962 0
M  V30 3606 N 366.569 1.04691 -1.17803 0
M  V30 3607 C 367.532 2.10724 -0.901545 0
M  V30 3608 C 368.532 1.6042 0.110437 0
M  V30 3609 O 369.722 1.7377 -0.122303 0
M  V30 3610 C 366.854 3.39084 -0.351409 0
M  V30 3611 H 368.047 2.36686 -1.84174 0
M  V30 3612 H 365.6 1.21015 -0.98919 0
M  V30 3613 H 366.335 3.18782 0.59569 0
M  V30 3614 H 366.12 3.76909 -1.08083 0
M  V30 3615 H 367.61 4.17227 -0.176451 0
M  V30 3616 N 368.047 0.979072 1.23499 0
M  V30 3617 C 369.293 0.648178 1.92163 0
M  V30 3618 C 369.626 -0.816049 1.76222 0
M  V30 3619 O 368.901 -1.58849 1.12237 0
M  V30 3620 C 369.184 1.03773 3.44824 0
M  V30 3621 C 369.037 2.55948 3.69879 0
M  V30 3622 C 370.356 0.580653 4.36253 0
M  V30 3623 H 367.475 0.236952 0.69787 0
M  V30 3624 H 370.117 1.22012 1.45647 0
M  V30 3625 H 368.267 0.551058 3.84572 0
M  V30 3626 H 369.939 3.12179 3.3962 0
M  V30 3627 H 368.182 2.98641 3.14636 0
M  V30 3628 H 368.853 2.78255 4.76737 0
M  V30 3629 H 371.329 0.998465 4.03943 0
M  V30 3630 H 370.205 0.881663 5.41773 0
M  V30 3631 H 370.466 -0.519052 4.39042 0
M  V30 3632 N 369.525 -1.3858 0.750561 0
M  V30 3633 C 370.941 -1.53759 0.427824 0
M  V30 3634 C 371.141 -1.71401 -1.05943 0
M  V30 3635 O 370.197 -1.72331 -1.84549 0
M  V30 3636 C 371.51 -2.74642 1.22443 0
M  V30 3637 C 373.058 -2.88489 1.2142 0
M  V30 3638 C 373.533 -4.12329 1.9937 0
M  V30 3639 N 375.024 -4.194 1.96616 0
M  V30 3640 C 375.759 -5.14209 2.53727 0
M  V30 3641 N 375.255 -6.14709 3.19539 0
M  V30 3642 N 377.048 -5.06537 2.43673 0
M  V30 3643 H 369.199 -1.25377 1.71447 0
M  V30 3644 H 371.462 -0.608844 0.726645 0
M  V30 3645 H 371.168 -2.68 2.27747 0
M  V30 3646 H 371.042 -3.67745 0.839273 0
M  V30 3647 H 373.429 -2.94614 0.169232 0
M  V30 3648 H 373.51 -1.96406 1.63885 0
M  V30 3649 H 373.154 -4.06966 3.03877 0
M  V30 3650 H 373.084 -5.03486 1.54302 0
M  V30 3651 H 375.575 -3.47421 1.48684 0
M  V30 3652 H 375.888 -6.8354 3.60545 0
M  V30 3653 H 374.233 -6.1505 3.23633 0
M  V30 3654 H 377.424 -4.26962 1.91889 0
M  V30 3655 H 377.597 -5.80245 2.88479 0
M  V30 3656 N 371.003 -0.499398 -1.49478 0
M  V30 3657 C 371.966 0.268838 -2.27618 0
M  V30 3658 C 372.966 0.895383 -1.33565 0
M  V30 3659 O 374.156 0.760164 -1.56739 0
M  V30 3660 C 371.288 1.38559 -3.11471 0
M  V30 3661 H 372.481 -0.416812 -2.96989 0
M  V30 3662 H 370.034 -0.254313 -1.54217 0
M  V30 3663 H 370.769 2.10544 -2.46661 0
M  V30 3664 H 370.554 0.941797 -3.80621 0
M  V30 3665 H 372.044 1.92678 -3.70493 0
M  V30 3666 N 372.481 1.55866 -0.233164 0
M  V30 3667 C 373.727 1.98897 0.395959 0
M  V30 3668 C 374.06 1.12091 1.58585 0
M  V30 3669 O 373.335 0.181182 1.93654 0
M  V30 3670 C 373.618 3.50658 0.819224 0
M  V30 3671 C 373.471 4.48233 -0.375109 0
M  V30 3672 C 374.79 4.07135 1.67121 0
M  V30 3673 H 371.909 0.723102 0.142451 0
M  V30 3674 H 374.551 1.87082 -0.331725 0
M  V30 3675 H 372.701 3.60857 1.43925 0
M  V30 3676 H 374.373 4.50031 -1.01341 0
M  V30 3677 H 372.616 4.21624 -1.02058 0
M  V30 3678 H 373.287 5.51988 -0.0358328 0
M  V30 3679 H 375.763 3.99952 1.14795 0
M  V30 3680 H 374.639 5.13615 1.93625 0
M  V30 3681 H 374.9 3.54736 2.63846 0
M  V30 3682 N 373.959 -0.0401083 1.57549 0
M  V30 3683 C 374.906 -1.04413 2.05831 0
M  V30 3684 C 375.876 -1.36585 0.945184 0
M  V30 3685 O 377.061 -1.47112 1.21502 0
M  V30 3686 C 374.201 -2.34336 2.53339 0
M  V30 3687 C 373.314 -2.08419 3.78398 0
M  V30 3688 C 372.449 -3.32133 4.14561 0
M  V30 3689 C 371.488 -3.01721 5.3257 0
M  V30 3690 N 370.625 -4.17855 5.64218 0
M  V30 3691 H 375.465 -0.625442 2.91363 0
M  V30 3692 H 373.002 -0.297218 1.44066 0
M  V30 3693 H 374.96 -3.10234 2.78946 0
M  V30 3694 H 373.59 -2.73948 1.7074 0
M  V30 3695 H 372.642 -1.23069 3.59942 0
M  V30 3696 H 373.954 -1.81978 4.64419 0
M  V30 3697 H 373.108 -4.16406 4.41238 0
M  V30 3698 H 371.847 -3.61678 3.2717 0
M  V30 3699 H 370.852 -2.15849 5.05657 0
M  V30 3700 H 372.077 -2.73466 6.21605 0
M  V30 3701 H 370.023 -4.47372 4.79786 0
M  V30 3702 H 369.94 -3.94798 6.44725 0
M  V30 3703 H 371.208 -5.03033 5.95465 0
M  V30 3704 N 375.437 -1.54477 -0.31217 0
M  V30 3705 C 376.4 -1.83923 -1.36766 0
M  V30 3706 C 377.4 -0.711563 -1.44199 0
M  V30 3707 O 378.59 -0.979866 -1.44029 0
M  V30 3708 C 375.722 -2.0095 -2.75376 0
M  V30 3709 H 376.915 -2.78239 -1.11906 0
M  V30 3710 H 374.468 -1.46369 -0.548257 0
M  V30 3711 H 375.203 -1.08883 -3.05475 0
M  V30 3712 H 374.988 -2.83018 -2.71373 0
M  V30 3713 H 376.478 -2.2514 -3.51713 0
M  V30 3714 N 376.915 0.57481 -1.46744 0
M  V30 3715 C 377.845 1.69337 -1.60771 0
M  V30 3716 C 378.826 1.63825 -0.457736 0
M  V30 3717 O 380.011 1.8172 -0.684947 0
M  V30 3718 C 377.141 3.0798 -1.60517 0
M  V30 3719 C 376.095 3.28327 -2.74564 0
M  V30 3720 C 375.421 4.67578 -2.59373 0
M  V30 3721 C 376.721 3.15398 -4.16319 0
M  V30 3722 H 378.415 1.57853 -2.54407 0
M  V30 3723 H 375.961 0.75799 -1.22436 0
M  V30 3724 H 377.914 3.86061 -1.68923 0
M  V30 3725 H 376.638 3.20381 -0.634305 0
M  V30 3726 H 375.297 2.52649 -2.65639 0
M  V30 3727 H 374.945 4.76755 -1.60353 0
M  V30 3728 H 374.645 4.82144 -3.35873 0
M  V30 3729 H 376.169 5.47817 -2.69682 0
M  V30 3730 H 377.583 3.83315 -4.26313 0
M  V30 3731 H 375.98 3.41482 -4.93468 0
M  V30 3732 H 377.05 2.12372 -4.3592 0
M  V30 3733 N 378.394 1.34581 0.820102 0
M  V30 3734 C 379.619 1.30333 1.61332 0
M  V30 3735 C 380.044 -0.119339 1.87721 0
M  V30 3736 O 379.402 -1.08197 1.45475 0
M  V30 3737 C 379.45 2.10258 2.92957 0
M  V30 3738 O 378.554 1.47404 3.85157 0
M  V30 3739 H 377.895 0.447488 0.490561 0
M  V30 3740 H 380.425 1.77425 1.01889 0
M  V30 3741 H 380.435 2.21718 3.42498 0
M  V30 3742 H 379.11 3.13693 2.73074 0
M  V30 3743 H 377.687 1.44703 3.43679 0
M  V30 3744 N 379.872 -1.04064 1.18357 0
M  V30 3745 C 380.782 -2.15569 0.925596 0
M  V30 3746 C 381.798 -1.7365 -0.110295 0
M  V30 3747 O 382.974 -2.01273 0.0716218 0
M  V30 3748 C 380.039 -3.43704 0.454836 0
M  V30 3749 C 379.1 -4.00004 1.55869 0
M  V30 3750 C 378.333 -5.22023 1.1103 0
M  V30 3751 O 378.556 -5.70392 -0.0309756 0
M  V30 3752 O 377.49 -5.70856 1.90805 0
M  V30 3753 H 381.316 -2.40187 1.8586 0
M  V30 3754 H 378.901 -1.1402 0.965394 0
M  V30 3755 H 380.783 -4.20923 0.200382 0
M  V30 3756 H 379.458 -3.20559 -0.449876 0
M  V30 3757 H 378.365 -3.24172 1.86716 0
M  V30 3758 H 379.698 -4.2749 2.43953 0
M  V30 3759 N 381.35 -0.985608 -1.22978 0
M  V30 3760 C 382.766 -0.695104 -1.43668 0
M  V30 3761 C 382.966 0.736866 -1.87543 0
M  V30 3762 O 382.022 1.50868 -2.02473 0
M  V30 3763 C 383.335 -1.69447 -2.48412 0
M  V30 3764 C 384.883 -1.70909 -2.62219 0
M  V30 3765 C 385.358 -2.6969 -3.70178 0
M  V30 3766 N 386.849 -2.6824 -3.77626 0
M  V30 3767 C 387.584 -3.41339 -4.60733 0
M  V30 3768 N 387.08 -4.24015 -5.4789 0
M  V30 3769 N 388.873 -3.30079 -4.54977 0
M  V30 3770 H 381.024 -1.91054 -0.928016 0
M  V30 3771 H 383.287 -0.823553 -0.469536 0
M  V30 3772 H 382.993 -2.7188 -2.23102 0
M  V30 3773 H 382.867 -1.48147 -3.46889 0
M  V30 3774 H 385.254 -0.691785 -2.86877 0
M  V30 3775 H 385.335 -1.96276 -1.6404 0
M  V30 3776 H 384.979 -3.71566 -3.46268 0
M  V30 3777 H 384.909 -2.41595 -4.67909 0
M  V30 3778 H 387.4 -2.08243 -3.15346 0
M  V30 3779 H 387.713 -4.76636 -6.08308 0
M  V30 3780 H 386.058 -4.28104 -5.47496 0
M  V30 3781 H 389.249 -2.64937 -3.85909 0
M  V30 3782 H 389.422 -3.87308 -5.19516 0
M  V30 3783 N 382.828 1.3818 -0.7579 0
M  V30 3784 C 384.076 1.99624 -0.315361 0
M  V30 3785 C 384.397 1.60464 1.10799 0
M  V30 3786 O 383.667 0.863507 1.75842 0
M  V30 3787 H 382.247 0.73831 -0.113611 0
M  V30 3788 H 384.909 1.68878 -0.972952 0
M  V30 3789 H 384.005 3.09754 -0.381931 0
M  V30 3790 N 384.306 0.507319 1.49211 0
M  V30 3791 C 385.552 -0.0350047 2.0277 0
M  V30 3792 C 385.885 -1.3606 1.38569 0
M  V30 3793 O 385.16 -1.87321 0.523542 0
M  V30 3794 C 385.443 -0.180916 3.59645 0
M  V30 3795 C 385.296 1.16825 4.34364 0
M  V30 3796 C 386.615 -0.918558 4.30407 0
M  V30 3797 H 383.734 -0.0112473 0.736914 0
M  V30 3798 H 386.376 0.659956 1.7817 0
M  V30 3799 H 384.526 -0.772826 3.80736 0
M  V30 3800 H 386.198 1.79952 4.24753 0
M  V30 3801 H 384.441 1.75594 3.96673 0
M  V30 3802 H 385.112 1.01939 5.42506 0
M  V30 3803 H 387.588 -0.41649 4.1401 0
M  V30 3804 H 386.464 -0.989505 5.39907 0
M  V30 3805 H 386.725 -1.96373 3.96093 0
M  V30 3806 N 385.784 -1.5574 0.241426 0
M  V30 3807 C 386.694 -2.2479 -0.671305 0
M  V30 3808 C 387.71 -1.26217 -1.19772 0
M  V30 3809 O 388.886 -1.59079 -1.23514 0
M  V30 3810 C 385.951 -2.92966 -1.85396 0
M  V30 3811 C 385.012 -4.06935 -1.36756 0
M  V30 3812 C 384.245 -4.71851 -2.49384 0
M  V30 3813 O 384.468 -4.35823 -3.67987 0
M  V30 3814 O 383.402 -5.60467 -2.19454 0
M  V30 3815 H 387.228 -3.0349 -0.112966 0
M  V30 3816 H 384.813 -1.49397 0.0101513 0
M  V30 3817 H 386.695 -3.35927 -2.54423 0
M  V30 3818 H 385.37 -2.17211 -2.40002 0
M  V30 3819 H 384.277 -3.68503 -0.644726 0
M  V30 3820 H 385.61 -4.84492 -0.867647 0
M  V30 3821 N 387.262 0.0317525 -1.57568 0
M  V30 3822 C 388.509 0.723104 -1.89149 0
M  V30 3823 C 388.837 1.75504 -0.838377 0
M  V30 3824 O 388.092 1.95037 0.160982 0
M  V30 3825 C 388.391 1.43167 -3.27472 0
M  V30 3826 C 388.057 0.535972 -4.47703 0
M  V30 3827 C 386.719 0.289262 -4.8033 0
M  V30 3828 C 389.071 -0.0826125 -5.21135 0
M  V30 3829 C 386.399 -0.584853 -5.83778 0
M  V30 3830 C 388.751 -0.944414 -6.25511 0
M  V30 3831 C 387.415 -1.20061 -6.56614 0
M  V30 3832 H 386.685 0.264602 -0.692146 0
M  V30 3833 H 389.332 -0.0169496 -1.91492 0
M  V30 3834 H 387.637 2.24497 -3.21105 0
M  V30 3835 H 389.334 1.97209 -3.49155 0
M  V30 3836 H 385.924 0.738414 -4.22191 0
M  V30 3837 H 390.108 0.0950302 -4.96209 0
M  V30 3838 H 385.364 -0.79168 -6.06253 0
M  V30 3839 H 389.538 -1.43026 -6.81554 0
M  V30 3840 H 387.165 -1.87967 -7.36595 0
M  V30 3841 N 388.74 1.54641 0.303973 0
M  V30 3842 C 389.67 1.88386 1.3796 0
M  V30 3843 C 390.651 0.742485 1.5304 0
M  V30 3844 O 391.836 0.997959 1.66597 0
M  V30 3845 C 388.966 2.12854 2.74427 0
M  V30 3846 C 387.92 3.28702 2.74115 0
M  V30 3847 C 387.246 3.38582 4.13844 0
M  V30 3848 C 388.546 4.65881 2.3612 0
M  V30 3849 H 390.24 2.78474 1.09966 0
M  V30 3850 H 387.786 1.33988 0.527556 0
M  V30 3851 H 389.739 2.35047 3.49758 0
M  V30 3852 H 388.463 1.19535 3.03939 0
M  V30 3853 H 387.122 3.06428 2.0124 0
M  V30 3854 H 386.77 2.42784 4.40528 0
M  V30 3855 H 386.47 4.16453 4.14537 0
M  V30 3856 H 387.994 3.63031 4.90959 0
M  V30 3857 H 389.408 4.87823 3.01167 0
M  V30 3858 H 387.805 5.46444 2.48031 0
M  V30 3859 H 388.875 4.66799 1.3125 0
M  V30 3860 N 390.218 -0.567019 1.47046 0
M  V30 3861 C 391.165 -1.67489 1.58796 0
M  V30 3862 C 392.135 -1.60399 0.43144 0
M  V30 3863 O 393.32 -1.79378 0.650233 0
M  V30 3864 C 390.46 -3.05821 1.59899 0
M  V30 3865 C 389.573 -3.2342 2.86397 0
M  V30 3866 C 388.708 -4.52093 2.789 0
M  V30 3867 C 387.747 -4.6309 4.00267 0
M  V30 3868 N 386.884 -5.83106 3.91064 0
M  V30 3869 H 391.724 -1.56785 2.53422 0
M  V30 3870 H 389.261 -0.763896 1.2571 0
M  V30 3871 H 391.219 -3.8591 1.58522 0
M  V30 3872 H 389.849 -3.15384 0.687929 0
M  V30 3873 H 388.901 -2.3683 2.97684 0
M  V30 3874 H 390.213 -3.27412 3.76301 0
M  V30 3875 H 389.367 -5.4043 2.75718 0
M  V30 3876 H 388.106 -4.50565 1.86662 0
M  V30 3877 H 387.111 -3.73168 4.03765 0
M  V30 3878 H 388.336 -4.66386 4.93621 0
M  V30 3879 H 386.282 -5.82546 3.01623 0
M  V30 3880 H 386.199 -5.88434 4.74638 0
M  V30 3881 H 387.467 -6.73831 3.91882 0
M  V30 3882 N 391.696 -1.35014 -0.812953 0
M  V30 3883 C 392.924 -1.31031 -1.6012 0
M  V30 3884 C 393.339 0.113558 -1.88458 0
M  V30 3885 O 392.696 1.06363 -1.48301 0
M  V30 3886 C 392.747 -2.10872 -2.93624 0
M  V30 3887 O 392.468 -3.47706 -2.66518 0
M  V30 3888 C 393.969 -2.14401 -3.88004 0
M  V30 3889 H 391.189 -0.45037 -0.497401 0
M  V30 3890 H 393.733 -1.77775 -1.01076 0
M  V30 3891 H 391.888 -1.67744 -3.492 0
M  V30 3892 H 392.302 -3.89097 -3.51715 0
M  V30 3893 H 393.776 -2.74669 -4.78812 0
M  V30 3894 H 394.253 -1.14105 -4.24119 0
M  V30 3895 H 394.859 -2.57662 -3.38364 0
M  V30 3896 N 393.175 1.03435 -1.18907 0
M  V30 3897 C 394.586 1.58195 -0.991523 0
M  V30 3898 C 394.937 1.90801 0.457081 0
M  V30 3899 O 394.062 1.70272 1.33553 0
M  V30 3900 C 394.657 2.87432 -1.79355 0
M  V30 3901 C 393.216 3.38785 -1.64017 0
M  V30 3902 C 392.363 2.12292 -1.78402 0
M  V30 3903 H 395.314 0.860299 -1.33359 0
M  V30 3904 H 395.335 3.58096 -1.28638 0
M  V30 3905 H 394.847 2.63669 -2.84781 0
M  V30 3906 H 392.948 3.67547 -0.611536 0
M  V30 3907 H 393.061 4.12186 -2.44212 0
M  V30 3908 H 391.425 2.23901 -1.2141 0
M  V30 3909 H 392.208 1.90977 -2.85277 0
M  V30 3910 N 394.653 0.992116 1.22453 0
M  V30 3911 C 395.901 0.666215 1.90804 0
M  V30 3912 C 396.222 -0.804152 1.77647 0
M  V30 3913 O 395.492 -1.57629 1.16318 0
M  V30 3914 H 394.072 0.243423 0.706225 0
M  V30 3915 H 396.734 1.25845 1.48825 0
M  V30 3916 H 395.83 0.928069 2.97982 0
M  V30 3917 N 396.131 -1.37776 0.765217 0
M  V30 3918 C 397.094 -2.28686 0.153416 0
M  V30 3919 C 398.094 -1.47727 -0.635081 0
M  V30 3920 O 399.284 -1.68027 -0.459632 0
M  V30 3921 C 396.416 -3.31608 -0.790495 0
M  V30 3922 H 397.609 -2.84297 0.954723 0
M  V30 3923 H 395.162 -1.46932 0.53299 0
M  V30 3924 H 395.897 -2.81109 -1.61705 0
M  V30 3925 H 395.682 -3.9144 -0.227348 0
M  V30 3926 H 397.172 -3.99559 -1.21419 0
M  V30 3927 N 397.609 -0.515225 -1.4894 0
M  V30 3928 C 398.839 0.0205735 -2.0659 0
M  V30 3929 C 399.247 1.30064 -1.37405 0
M  V30 3930 O 398.59 1.78087 -0.450632 0
M  V30 3931 C 398.652 0.330124 -3.57981 0
M  V30 3932 C 398.316 -0.854295 -4.48944 0
M  V30 3933 C 399.313 -1.7487 -4.89609 0
M  V30 3934 C 396.998 -1.05712 -4.9105 0
M  V30 3935 C 398.992 -2.82996 -5.71132 0
M  V30 3936 C 396.679 -2.14154 -5.72347 0
M  V30 3937 C 397.677 -3.0263 -6.12294 0
M  V30 3938 O 397.365 -4.09198 -6.91962 0
M  V30 3939 H 397.097 -0.0236833 -0.675585 0
M  V30 3940 H 399.651 -0.715956 -1.92518 0
M  V30 3941 H 397.881 1.12044 -3.70112 0
M  V30 3942 H 399.57 0.806233 -3.97812 0
M  V30 3943 H 400.336 -1.60388 -4.57712 0
M  V30 3944 H 396.215 -0.377788 -4.59449 0
M  V30 3945 H 399.759 -3.52083 -6.02232 0
M  V30 3946 H 395.656 -2.28626 -6.03656 0
M  V30 3947 H 396.424 -4.06726 -7.10293 0
M  V30 3948 N 399.087 1.5561 -0.249682 0
M  V30 3949 C 400.317 2.03116 0.377803 0
M  V30 3950 C 400.725 1.12822 1.51881 0
M  V30 3951 O 400.068 0.13562 1.83199 0
M  V30 3952 C 400.13 3.46866 0.944693 0
M  V30 3953 C 399.794 4.56955 -0.0644259 0
M  V30 3954 C 400.791 5.12485 -0.874957 0
M  V30 3955 C 398.476 5.01936 -0.19132 0
M  V30 3956 C 400.47 6.11491 -1.79881 0
M  V30 3957 C 398.157 6.00773 -1.11868 0
M  V30 3958 C 399.155 6.5543 -1.92095 0
M  V30 3959 O 398.843 7.5234 -2.83267 0
M  V30 3960 H 398.575 0.669489 0.0935961 0
M  V30 3961 H 401.129 2.02004 -0.371966 0
M  V30 3962 H 399.359 3.45136 1.74407 0
M  V30 3963 H 401.048 3.77856 1.48255 0
M  V30 3964 H 401.814 4.78564 -0.787523 0
M  V30 3965 H 397.693 4.59055 0.423072 0
M  V30 3966 H 401.237 6.54078 -2.42543 0
M  V30 3967 H 397.134 6.34114 -1.20703 0
M  V30 3968 H 397.902 7.69966 -2.7766 0
M  V30 3969 N 400.565 -0.0233959 1.57583 0
M  V30 3970 C 401.842 -0.748794 1.807 0
M  V30 3971 C 402.222 -1.9327 0.849106 0
M  V30 3972 O 401.57 -2.28247 -0.107468 0
M  V30 3973 C 401.78 -1.17651 3.28571 0
M  V30 3974 C 403.128 -1.59008 3.93702 0
M  V30 3975 O 404.152 -1.27094 3.32755 0
M  V30 3976 O 403.011 -2.18264 5.01022 0
M  V30 3977 H 400.105 -0.362578 0.743281 0
M  V30 3978 H 402.651 0.000261958 1.697 0
M  V30 3979 H 401.423 -0.331603 3.89892 0
M  V30 3980 H 401.046 -1.98541 3.44481 0
M  V30 3981 N 402.043 -1.548 -0.295768 0
M  V30 3982 C 402.973 -1.89115 -1.36959 0
M  V30 3983 C 403.954 -0.75059 -1.52644 0
M  V30 3984 O 405.139 -1.00678 -1.66065 0
M  V30 3985 C 402.269 -2.14307 -2.73295 0
M  V30 3986 C 401.223 -3.30151 -2.72368 0
M  V30 3987 C 400.549 -3.40772 -4.12042 0
M  V30 3988 C 401.849 -4.67126 -2.33646 0
M  V30 3989 H 403.543 -2.79053 -1.08488 0
M  V30 3990 H 401.089 -1.34266 -0.520443 0
M  V30 3991 H 403.042 -2.36898 -3.48507 0
M  V30 3992 H 401.766 -1.21145 -3.03301 0
M  V30 3993 H 400.425 -3.0749 -1.99613 0
M  V30 3994 H 400.073 -2.45117 -4.39234 0
M  V30 3995 H 399.773 -4.18645 -4.12322 0
M  V30 3996 H 401.297 -3.6563 -4.89027 0
M  V30 3997 H 402.711 -4.89414 -2.98575 0
M  V30 3998 H 401.108 -5.47751 -2.45129 0
M  V30 3999 H 402.178 -4.67489 -1.28772 0
M  V30 4000 N 403.521 0.559213 -1.47345 0
M  V30 4001 C 404.451 1.67622 -1.62558 0
M  V30 4002 C 405.432 1.63331 -0.475087 0
M  V30 4003 O 406.617 1.80983 -0.704182 0
M  V30 4004 C 403.747 3.0626 -1.63774 0
M  V30 4005 C 402.701 3.25397 -2.7803 0
M  V30 4006 C 402.027 4.64801 -2.64318 0
M  V30 4007 C 403.327 3.10965 -4.19641 0
M  V30 4008 H 405.021 1.55146 -2.56067 0
M  V30 4009 H 402.567 0.744961 -1.23233 0
M  V30 4010 H 404.52 3.84247 -1.73008 0
M  V30 4011 H 403.244 3.1969 -0.66825 0
M  V30 4012 H 401.903 2.49817 -2.68304 0
M  V30 4013 H 401.551 4.75028 -1.65401 0
M  V30 4014 H 401.251 4.78555 -3.40968 0
M  V30 4015 H 402.775 5.44926 -2.75478 0
M  V30 4016 H 404.189 3.78772 -4.30354 0
M  V30 4017 H 402.586 3.36229 -4.97062 0
M  V30 4018 H 403.656 2.07736 -4.38148 0
M  V30 4019 N 404.999 1.35443 0.805782 0
M  V30 4020 C 406.247 1.28507 1.55982 0
M  V30 4021 C 406.568 -0.140046 1.94496 0
M  V30 4022 O 405.838 -1.07666 1.63661 0
M  V30 4023 H 404.418 0.472676 0.578434 0
M  V30 4024 H 407.08 1.69555 0.961098 0
M  V30 4025 H 406.176 1.90148 2.47488 0
M  V30 4026 N 406.477 -1.02803 1.19454 0
M  V30 4027 C 407.387 -2.14575 0.948408 0
M  V30 4028 C 408.403 -1.73757 -0.091871 0
M  V30 4029 O 409.579 -2.01185 0.0929654 0
M  V30 4030 C 406.644 -3.43202 0.491265 0
M  V30 4031 C 405.705 -3.98328 1.60103 0
M  V30 4032 C 404.938 -5.20816 1.16561 0
M  V30 4033 O 405.161 -5.70392 0.0295238 0
M  V30 4034 O 404.095 -5.68801 1.96849 0
M  V30 4035 H 407.921 -2.38202 1.88397 0
M  V30 4036 H 405.506 -1.12989 0.977433 0
M  V30 4037 H 407.388 -4.20687 0.245015 0
M  V30 4038 H 406.063 -3.21018 -0.415851 0
M  V30 4039 H 404.97 -3.22174 1.90144 0
M  V30 4040 H 406.303 -4.24879 2.48473 0
M  V30 4041 N 407.956 -0.998596 -1.21925 0
M  V30 4042 C 409.372 -0.710303 -1.42923 0
M  V30 4043 C 409.572 0.716933 -1.88314 0
M  V30 4044 O 408.628 1.48712 -2.04062 0
M  V30 4045 C 409.941 -1.72072 -2.466 0
M  V30 4046 C 411.489 -1.73681 -2.60392 0
M  V30 4047 C 411.964 -2.73601 -3.67296 0
M  V30 4048 N 413.455 -2.7223 -3.7476 0
M  V30 4049 C 414.19 -3.46206 -4.57087 0
M  V30 4050 N 413.686 -4.29802 -5.43362 0
M  V30 4051 N 415.479 -3.34886 -4.51451 0
M  V30 4052 H 407.63 -1.92028 -0.9077 0
M  V30 4053 H 409.893 -0.828487 -0.460775 0
M  V30 4054 H 409.599 -2.74231 -2.20206 0
M  V30 4055 H 409.473 -1.51818 -3.45299 0
M  V30 4056 H 411.86 -0.722173 -2.86127 0
M  V30 4057 H 411.941 -1.98005 -1.61949 0
M  V30 4058 H 411.585 -3.75217 -3.42307 0
M  V30 4059 H 411.515 -2.46545 -4.65321 0
M  V30 4060 H 414.006 -2.11576 -3.1312 0
M  V30 4061 H 414.319 -4.83061 -6.03218 0
M  V30 4062 H 412.664 -4.33887 -5.42925 0
M  V30 4063 H 415.855 -2.69015 -3.83078 0
M  V30 4064 H 416.028 -3.92796 -5.15379 0
M  V30 4065 N 409.434 1.37368 -0.772513 0
M  V30 4066 C 410.683 1.98918 -0.333861 0
M  V30 4067 C 410.996 1.62017 1.09589 0
M  V30 4068 O 412.202 2.16676 1.63596 0
M  V30 4069 C 410.658 3.55735 -0.545971 0
M  V30 4070 C 410.266 4.01573 -1.98603 0
M  V30 4071 C 412.01 4.24156 -0.170979 0
M  V30 4072 C 409.917 5.51102 -2.1457 0
M  V30 4073 H 408.847 0.744214 -0.121085 0
M  V30 4074 H 411.498 1.56888 -0.95175 0
M  V30 4075 H 409.88 3.95748 0.141387 0
M  V30 4076 H 411.054 3.72803 -2.7084 0
M  V30 4077 H 409.369 3.45937 -2.31769 0
M  V30 4078 H 411.966 5.34024 -0.26878 0
M  V30 4079 H 412.309 4.06917 0.878855 0
M  V30 4080 H 412.842 3.89447 -0.810914 0
M  V30 4081 H 409.581 5.73268 -3.17875 0
M  V30 4082 H 409.101 5.81554 -1.46817 0
M  V30 4083 H 410.78 6.17083 -1.94468 0
M  V30 4084 N 410.912 0.523116 1.48665 0
M  V30 4085 C 412.14 -0.0096312 2.06898 0
M  V30 4086 C 412.555 -1.28784 1.38059 0
M  V30 4087 O 411.912 -1.76453 0.465893 0
M  V30 4088 C 411.963 -0.244386 3.60673 0
M  V30 4089 O 411.684 0.983172 4.26925 0
M  V30 4090 C 413.185 -0.818289 4.35682 0
M  V30 4091 H 410.405 0.0304161 0.67031 0
M  V30 4092 H 412.949 0.726799 1.91149 0
M  V30 4093 H 411.104 -0.930847 3.76051 0
M  V30 4094 H 411.518 0.759653 5.1897 0
M  V30 4095 H 412.992 -0.93201 5.44075 0
M  V30 4096 H 413.469 -1.82153 3.99646 0
M  V30 4097 H 414.075 -0.168609 4.24966 0
M  V30 4098 N 412.39 -1.55475 0.257931 0
M  V30 4099 C 413.32 -2.24815 -0.630912 0
M  V30 4100 C 414.301 -1.23224 -1.17259 0
M  V30 4101 O 415.486 -1.51904 -1.20991 0
M  V30 4102 C 412.616 -2.95609 -1.82298 0
M  V30 4103 C 411.57 -4.03982 -1.41359 0
M  V30 4104 C 410.896 -4.6226 -2.68738 0
M  V30 4105 C 412.196 -5.19109 -0.57648 0
M  V30 4106 H 413.89 -2.99354 -0.0526878 0
M  V30 4107 H 411.436 -1.4398 -0.023901 0
M  V30 4108 H 413.389 -3.42822 -2.45054 0
M  V30 4109 H 412.113 -2.18577 -2.42676 0
M  V30 4110 H 410.772 -3.57555 -0.809324 0
M  V30 4111 H 410.42 -3.81915 -3.27338 0
M  V30 4112 H 410.12 -5.35424 -2.42065 0
M  V30 4113 H 411.644 -5.12212 -3.32372 0
M  V30 4114 H 413.058 -5.62479 -1.10861 0
M  V30 4115 H 411.455 -5.98729 -0.405351 0
M  V30 4116 H 412.525 -4.83174 0.408776 0
M  V30 4117 N 413.868 0.0150385 -1.57593 0
M  V30 4118 C 414.8 1.03912 -2.04291 0
M  V30 4119 C 415.813 1.31618 -0.958146 0
M  V30 4120 O 417.002 1.28859 -1.23522 0
M  V30 4121 C 414.102 2.37749 -2.41514 0
M  V30 4122 C 413.275 2.29198 -3.72541 0
M  V30 4123 C 412.334 3.45598 -3.96797 0
M  V30 4124 O 411.36 3.24461 -4.67668 0
M  V30 4125 N 412.562 4.67945 -3.43523 0
M  V30 4126 H 415.327 0.64099 -2.92765 0
M  V30 4127 H 412.888 0.20272 -1.60626 0
M  V30 4128 H 414.88 3.14364 -2.54867 0
M  V30 4129 H 413.45 2.69357 -1.58637 0
M  V30 4130 H 412.67 1.3759 -3.69408 0
M  V30 4131 H 413.958 2.20642 -4.5847 0
M  V30 4132 H 413.356 4.88017 -2.86104 0
M  V30 4133 H 411.913 5.41878 -3.62232 0
M  V30 4134 N 415.346 1.54954 0.287554 0
M  V30 4135 C 416.574 1.78881 1.03967 0
M  V30 4136 C 416.989 0.554894 1.80462 0
M  V30 4137 O 416.346 -0.475676 1.76192 0
M  V30 4138 C 416.397 3.00488 2.0097 0
M  V30 4139 O 416.118 4.19113 1.27577 0
M  V30 4140 C 417.619 3.36907 2.88112 0
M  V30 4141 H 414.839 0.596259 0.307761 0
M  V30 4142 H 417.383 2.01937 0.322749 0
M  V30 4143 H 415.538 2.79601 2.68145 0
M  V30 4144 H 415.952 4.87765 1.92835 0
M  V30 4145 H 417.426 4.25205 3.52001 0
M  V30 4146 H 417.903 2.55659 3.57121 0
M  V30 4147 H 418.509 3.60001 2.26449 0
M  V30 4148 N 416.824 -0.551391 1.4764 0
M  V30 4149 C 417.774 -1.65362 1.56969 0
M  V30 4150 C 418.758 -1.55098 0.428189 0
M  V30 4151 O 419.95 -1.63481 0.678441 0
M  V30 4152 C 417.079 -3.04129 1.59249 0
M  V30 4153 C 416.165 -3.19576 2.78804 0
M  V30 4154 N 416.556 -3.05067 4.03445 0
M  V30 4155 C 414.854 -3.50588 2.75688 0
M  V30 4156 C 415.555 -3.2336 4.83543 0
M  V30 4157 N 414.531 -3.4996 4.15968 0
M  V30 4158 H 418.333 -1.52722 2.51104 0
M  V30 4159 H 415.847 -0.756303 1.43714 0
M  V30 4160 H 417.844 -3.83278 1.64024 0
M  V30 4161 H 416.504 -3.17877 0.662148 0
M  V30 4162 H 417.515 -2.82273 4.34215 0
M  V30 4163 H 414.192 -3.70827 1.91817 0
M  V30 4164 H 415.582 -3.17061 5.92387 0
M  V30 4165 N 418.302 -1.35869 -0.798587 0
M  V30 4166 C 419.527 -1.32883 -1.59238 0
M  V30 4167 C 419.952 0.0894587 -1.87887 0
M  V30 4168 O 419.31 1.05869 -1.47178 0
M  V30 4169 C 419.358 -2.14892 -2.89575 0
M  V30 4170 O 418.462 -1.53512 -3.82763 0
M  V30 4171 H 417.803 -0.455236 -0.48338 0
M  V30 4172 H 420.333 -1.79024 -0.990539 0
M  V30 4173 H 420.343 -2.27139 -3.38928 0
M  V30 4174 H 419.018 -3.17998 -2.68049 0
M  V30 4175 H 417.595 -1.50153 -3.41334 0
M  V30 4176 N 419.78 1.02168 -1.19998 0
M  V30 4177 C 420.71 2.12488 -0.96804 0
M  V30 4178 C 421.691 1.69799 0.101185 0
M  V30 4179 O 422.876 1.94121 -0.0552993 0
M  V30 4180 C 420.006 3.43479 -0.513776 0
M  V30 4181 C 418.96 3.99884 -1.52566 0
M  V30 4182 C 418.286 5.26582 -0.928214 0
M  V30 4183 C 419.586 4.33861 -2.90795 0
M  V30 4184 H 421.28 2.32149 -1.89069 0
M  V30 4185 H 418.826 1.11564 -0.910468 0
M  V30 4186 H 420.779 4.20036 -0.338774 0
M  V30 4187 H 419.503 3.23561 0.444493 0
M  V30 4188 H 418.162 3.25429 -1.68794 0
M  V30 4189 H 417.81 5.02986 0.0378289 0
M  V30 4190 H 417.51 5.65284 -1.60397 0
M  V30 4191 H 419.034 6.05799 -0.764167 0
M  V30 4192 H 420.448 5.01327 -2.78109 0
M  V30 4193 H 418.845 4.83664 -3.55231 0
M  V30 4194 H 419.915 3.42848 -3.42904 0
M  V30 4195 N 421.258 1.00505 1.21394 0
M  V30 4196 C 422.535 0.603277 1.86064 0
M  V30 4197 C 422.915 -0.919095 1.90042 0
M  V30 4198 O 422.263 -1.80607 1.39977 0
M  V30 4199 C 422.473 1.23772 3.26315 0
M  V30 4200 C 423.821 1.34586 4.02705 0
M  V30 4201 O 424.845 1.19304 3.35626 0
M  V30 4202 O 423.704 1.59169 5.22807 0
M  V30 4203 H 420.798 0.206634 0.800769 0
M  V30 4204 H 423.344 1.1017 1.29076 0
M  V30 4205 H 422.116 2.27848 3.18121 0
M  V30 4206 H 421.739 0.725648 3.90922 0
M  V30 4207 N 422.737 -1.36956 0.779787 0
M  V30 4208 C 424.014 -1.93697 0.272156 0
M  V30 4209 C 424.394 -1.71267 -1.23413 0
M  V30 4210 O 423.742 -1.06607 -2.02107 0
M  V30 4211 C 423.952 -3.42812 0.654291 0
M  V30 4212 C 425.3 -4.19921 0.628602 0
M  V30 4213 O 426.324 -3.51209 0.594172 0
M  V30 4214 O 425.183 -5.42465 0.662864 0
M  V30 4215 H 422.277 -0.824447 0.0649286 0
M  V30 4216 H 424.823 -1.46196 0.861682 0
M  V30 4217 H 423.595 -3.52754 1.69353 0
M  V30 4218 H 423.218 -3.97582 0.0381369 0
M  V30 4219 N 424.215 -0.530993 -1.48385 0
M  V30 4220 C 425.145 0.219985 -2.32461 0
M  V30 4221 C 426.126 0.934111 -1.42156 0
M  V30 4222 O 427.311 0.919694 -1.71042 0
M  V30 4223 C 424.441 1.26674 -3.23375 0
M  V30 4224 C 423.395 0.67069 -4.22712 0
M  V30 4225 C 422.721 1.82017 -5.02766 0
M  V30 4226 C 424.021 -0.358268 -5.2107 0
M  V30 4227 H 425.715 -0.48187 -2.95497 0
M  V30 4228 H 423.261 -0.233182 -1.42099 0
M  V30 4229 H 425.214 1.80006 -3.81019 0
M  V30 4230 H 423.938 1.99818 -2.58341 0
M  V30 4231 H 422.597 0.158878 -3.66256 0
M  V30 4232 H 422.245 2.54002 -4.34157 0
M  V30 4233 H 421.945 1.42727 -5.70003 0
M  V30 4234 H 423.469 2.35725 -5.63264 0
M  V30 4235 H 424.883 0.0880081 -5.73232 0
M  V30 4236 H 423.28 -0.66861 -5.96364 0
M  V30 4237 H 424.35 -1.26367 -4.68145 0
M  V30 4238 N 425.693 1.55336 -0.266172 0
M  V30 4239 C 427.109 1.59356 0.0882065 0
M  V30 4240 C 427.309 1.2834 1.55342 0
M  V30 4241 O 426.365 1.03996 2.30089 0
M  V30 4242 C 427.678 2.99409 -0.278364 0
M  V30 4243 C 429.226 3.12196 -0.224243 0
M  V30 4244 C 429.701 4.545 -0.565123 0
M  V30 4245 N 431.192 4.60313 -0.51634 0
M  V30 4246 C 431.927 5.68434 -0.753013 0
M  V30 4247 N 431.423 6.84738 -1.05383 0
M  V30 4248 N 433.216 5.57942 -0.682414 0
M  V30 4249 H 425.367 1.73764 -1.22147 0
M  V30 4250 H 427.63 0.809822 -0.492841 0
M  V30 4251 H 427.336 3.2691 -1.29703 0
M  V30 4252 H 427.21 3.75228 0.385186 0
M  V30 4253 H 429.597 2.84464 0.78512 0
M  V30 4254 H 429.678 2.38609 -0.921922 0
M  V30 4255 H 429.322 4.82956 -1.57213 0
M  V30 4256 H 429.252 5.26374 0.154248 0
M  V30 4257 H 431.743 3.7676 -0.29335 0
M  V30 4258 H 432.056 7.63088 -1.22133 0
M  V30 4259 H 430.401 6.86375 -1.09151 0
M  V30 4260 H 433.592 4.65958 -0.44731 0
M  V30 4261 H 433.765 6.4213 -0.870248 0
M  V30 4262 N 427.171 -0.0066808 1.57599 0
M  V30 4263 C 428.134 -0.985035 2.06953 0
M  V30 4264 C 429.134 -1.27663 0.977687 0
M  V30 4265 O 430.324 -1.22293 1.24057 0
M  V30 4266 C 427.456 -2.3118 2.50536 0
M  V30 4267 H 428.649 -0.558255 2.94658 0
M  V30 4268 H 426.202 -0.254011 1.54222 0
M  V30 4269 H 426.937 -2.78561 1.66054 0
M  V30 4270 H 426.722 -2.11338 3.3027 0
M  V30 4271 H 428.212 -3.01377 2.8907 0
M  V30 4272 N 428.649 -1.55105 -0.279332 0
M  V30 4273 C 429.877 -1.7943 -1.03017 0
M  V30 4274 C 430.292 -0.564456 -1.80165 0
M  V30 4275 O 429.649 0.466326 -1.76442 0
M  V30 4276 C 429.7 -3.0155 -1.99374 0
M  V30 4277 O 429.421 -4.19784 -1.25352 0
M  V30 4278 C 430.922 -3.3843 -2.86321 0
M  V30 4279 H 428.142 -0.597882 -0.304594 0
M  V30 4280 H 430.686 -2.02105 -0.312035 0
M  V30 4281 H 428.841 -2.81019 -2.66659 0
M  V30 4282 H 429.255 -4.88781 -1.90246 0
M  V30 4283 H 430.729 -4.27066 -3.49741 0
M  V30 4284 H 431.206 -2.57549 -3.5576 0
M  V30 4285 H 431.812 -3.61197 -2.24536 0
M  V30 4286 N 430.127 0.543554 -1.4793 0
M  V30 4287 C 431.075 1.67039 -1.61866 0
M  V30 4288 C 432.069 1.62294 -0.48549 0
M  V30 4289 O 433.275 1.67315 -0.66376 0
M  V30 4290 H 429.65 0.552954 -0.509652 0
M  V30 4291 H 431.621 1.52426 -2.56533 0
M  V30 4292 C 430.37 3.05357 -1.6629 0
M  V30 4293 H 429.693 3.09696 -2.5284 0
M  V30 4294 H 431.133 3.83855 -1.80088 0
M  V30 4295 C 429.592 3.34531 -0.398861 0
M  V30 4296 O 430.122 3.98649 0.494162 0
M  V30 4297 N 428.328 2.89299 -0.2747 0
M  V30 4298 H 427.875 2.37298 -1.00236 0
M  V30 4299 H 427.833 3.09188 0.570075 0
M  V30 4300 N 431.605 1.3629 0.791371 0
M  V30 4301 C 432.851 1.30605 1.55146 0
M  V30 4302 C 433.184 -0.115042 1.93859 0
M  V30 4303 O 432.459 -1.06798 1.62556 0
M  V30 4304 C 432.742 2.22692 2.82985 0
M  V30 4305 C 432.595 3.73489 2.50651 0
M  V30 4306 C 433.914 2.13588 3.84796 0
M  V30 4307 H 431.033 0.475761 0.562868 0
M  V30 4308 H 433.675 1.66825 0.909358 0
M  V30 4309 H 431.825 1.91933 3.37778 0
M  V30 4310 H 433.497 4.14758 2.01924 0
M  V30 4311 H 431.74 3.93021 1.83622 0
M  V30 4312 H 432.411 4.3333 3.41949 0
M  V30 4313 H 434.887 2.40659 3.39445 0
M  V30 4314 H 433.763 2.80195 4.71998 0
M  V30 4315 H 434.024 1.12256 4.27611 0
M  V30 4316 N 433.083 -1.0153 1.20538 0
M  V30 4317 C 434.013 -2.11972 0.979295 0
M  V30 4318 C 434.994 -1.6985 -0.0921787 0
M  V30 4319 O 436.179 -1.94089 0.0655932 0
M  V30 4320 C 433.309 -3.43201 0.531984 0
M  V30 4321 C 432.263 -3.9907 1.54685 0
M  V30 4322 C 431.589 -5.26082 0.956127 0
M  V30 4323 C 432.889 -4.32313 2.93092 0
M  V30 4324 H 434.583 -2.31143 1.90298 0
M  V30 4325 H 432.129 -1.11079 0.916372 0
M  V30 4326 H 434.082 -4.1985 0.361044 0
M  V30 4327 H 432.806 -3.23792 -0.427327 0
M  V30 4328 H 431.465 -3.2453 1.70517 0
M  V30 4329 H 431.113 -5.02999 -0.0111538 0
M  V30 4330 H 430.813 -5.64426 1.63393 0
M  V30 4331 H 432.337 -6.05386 0.796284 0
M  V30 4332 H 433.751 -4.99845 2.80763 0
M  V30 4333 H 432.148 -4.81774 3.57791 0
M  V30 4334 H 433.218 -3.41025 3.44717 0
M  V30 4335 N 434.561 -1.01147 -1.20859 0
M  V30 4336 C 435.524 -0.582224 -2.21682 0
M  V30 4337 C 436.524 0.344887 -1.57058 0
M  V30 4338 O 437.714 0.134281 -1.73682 0
M  V30 4339 C 434.846 0.150496 -3.40568 0
M  V30 4340 H 436.039 -1.47408 -2.61172 0
M  V30 4341 H 433.592 -0.800695 -1.34233 0
M  V30 4342 H 434.327 1.0575 -3.06574 0
M  V30 4343 H 434.112 -0.515444 -3.88697 0
M  V30 4344 H 435.602 0.438344 -4.15293 0
M  V30 4345 N 436.039 1.36541 -0.78704 0
M  V30 4346 C 437.316 1.9355 -0.282424 0
M  V30 4347 C 437.696 1.71919 1.22503 0
M  V30 4348 O 437.044 1.07677 2.01539 0
M  V30 4349 C 437.254 3.4246 -0.672462 0
M  V30 4350 C 438.602 4.19582 -0.650863 0
M  V30 4351 O 439.626 3.50889 -0.612789 0
M  V30 4352 O 438.485 5.42106 -0.691623 0
M  V30 4353 H 435.579 0.824091 -0.0693 0
M  V30 4354 H 438.125 1.45736 -0.869423 0
M  V30 4355 H 436.897 3.51851 -1.71221 0
M  V30 4356 H 436.52 3.97556 -0.0592211 0
M  V30 4357 N 437.518 0.538854 1.48102 0
M  V30 4358 C 438.428 -0.222648 2.33541 0
M  V30 4359 C 439.444 -0.930225 1.47047 0
M  V30 4360 O 440.62 -0.903211 1.80011 0
M  V30 4361 C 437.685 -1.25064 3.23357 0
M  V30 4362 C 436.746 -0.552469 4.2573 0
M  V30 4363 C 435.979 -1.53149 5.11254 0
M  V30 4364 O 436.202 -2.76487 4.9891 0
M  V30 4365 O 435.136 -1.06602 5.92385 0
M  V30 4366 H 438.962 0.477707 2.99919 0
M  V30 4367 H 436.547 0.299669 1.46364 0
M  V30 4368 H 438.429 -1.8445 3.78888 0
M  V30 4369 H 437.104 -1.93325 2.59629 0
M  V30 4370 H 436.011 0.082114 3.7401 0
M  V30 4371 H 437.344 0.0883526 4.92121 0
M  V30 4372 N 438.996 -1.55193 0.274407 0
M  V30 4373 C 440.273 -1.91584 -0.394331 0
M  V30 4374 C 440.653 -1.19858 -1.73774 0
M  V30 4375 O 440.001 -0.3252 -2.26174 0
M  V30 4376 C 440.211 -3.4487 -0.535311 0
M  V30 4377 C 441.559 -4.16636 -0.818534 0
M  V30 4378 O 442.583 -3.5076 -0.620146 0
M  V30 4379 O 441.442 -5.33209 -1.19792 0
M  V30 4380 H 438.536 -0.798349 -0.215794 0
M  V30 4381 H 441.082 -1.66646 0.320507 0
M  V30 4382 H 439.854 -3.89145 0.410141 0
M  V30 4383 H 439.477 -3.75759 -1.29964 0
M  V30 4384 N 440.474 -0.00167713 -1.576 0
M  V30 4385 C 441.424 0.997744 -2.0501 0
M  V30 4386 C 442.408 1.30214 -0.94515 0
M  V30 4387 O 443.6 1.29284 -1.20891 0
M  V30 4388 C 440.729 2.2892 -2.55833 0
M  V30 4389 C 439.815 2.01437 -3.73208 0
M  V30 4390 N 440.206 1.44119 -4.84833 0
M  V30 4391 C 438.504 2.31571 -3.8117 0
M  V30 4392 C 439.205 1.33145 -5.66257 0
M  V30 4393 N 438.181 1.81763 -5.12312 0
M  V30 4394 H 441.983 0.549098 -2.88725 0
M  V30 4395 H 439.497 0.20398 -1.61114 0
M  V30 4396 H 441.494 3.01361 -2.88075 0
M  V30 4397 H 440.154 2.74436 -1.73537 0
M  V30 4398 H 441.165 1.11978 -5.0565 0
M  V30 4399 H 437.842 2.7995 -3.09732 0
M  V30 4400 H 439.232 0.890567 -6.65972 0
M  V30 4401 N 441.952 1.55251 0.271103 0
M  V30 4402 C 443.2 1.75599 1.00047 0
M  V30 4403 C 443.521 0.561188 1.8675 0
M  V30 4404 O 442.791 -0.423846 1.9126 0
M  V30 4405 H 441.371 0.647562 0.372387 0
M  V30 4406 H 444.033 1.92656 0.294876 0
M  V30 4407 H 443.129 2.65766 1.6363 0
M  V30 4408 N 443.43 -0.535701 1.48216 0
M  V30 4409 C 444.678 -1.28928 1.55634 0
M  V30 4410 C 444.999 -1.93645 0.229514 0
M  V30 4411 O 444.269 -1.81038 -0.74846 0
M  V30 4412 H 442.849 -0.47884 0.573342 0
M  V30 4413 H 445.511 -0.623853 1.84646 0
M  V30 4414 H 444.607 -2.07157 2.33436 0
M  V30 4415 N 444.908 -1.36708 -0.784132 0
M  V30 4416 C 445.84 -1.27333 -1.90575 0
M  V30 4417 C 446.853 -0.191706 -1.61667 0
M  V30 4418 O 448.042 -0.446854 -1.72816 0
M  V30 4419 C 445.142 -0.943177 -3.25511 0
M  V30 4420 C 444.315 -2.12776 -3.82158 0
M  V30 4421 C 443.374 -1.76983 -4.95544 0
M  V30 4422 O 442.4 -2.49134 -5.11782 0
M  V30 4423 N 443.602 -0.706624 -5.76183 0
M  V30 4424 H 446.367 -2.23974 -1.99138 0
M  V30 4425 H 443.928 -1.30171 -0.962656 0
M  V30 4426 H 445.92 -0.684799 -3.98864 0
M  V30 4427 H 444.49 -0.0657333 -3.12531 0
M  V30 4428 H 443.71 -2.54863 -3.0073 0
M  V30 4429 H 444.998 -2.91904 -4.16737 0
M  V30 4430 H 444.396 -0.107643 -5.65598 0
M  V30 4431 H 442.953 -0.50808 -6.49817 0
M  V30 4432 N 446.386 1.0089 -1.21074 0
M  V30 4433 C 447.316 2.1145 -0.990523 0
M  V30 4434 C 448.297 1.69897 0.0831699 0
M  V30 4435 O 449.482 1.94052 -0.0758853 0
M  V30 4436 C 446.612 3.42914 -0.550177 0
M  V30 4437 C 445.566 3.98244 -1.56799 0
M  V30 4438 C 444.892 5.25568 -0.984013 0
M  V30 4439 C 446.192 4.30752 -2.95381 0
M  V30 4440 H 447.886 2.3013 -1.91521 0
M  V30 4441 H 445.432 1.10592 -0.92225 0
M  V30 4442 H 447.385 4.19653 -0.383305 0
M  V30 4443 H 446.109 3.24014 0.41015 0
M  V30 4444 H 444.768 3.23621 -1.72236 0
M  V30 4445 H 444.416 5.02998 -0.0155216 0
M  V30 4446 H 444.116 5.63551 -1.66384 0
M  V30 4447 H 445.64 6.04955 -0.828378 0
M  V30 4448 H 447.054 4.98349 -2.8341 0
M  V30 4449 H 445.451 4.79869 -3.60341 0
M  V30 4450 H 446.521 3.39192 -3.46521 0
M  V30 4451 N 447.864 1.01787 1.20321 0
M  V30 4452 C 449.111 0.707936 1.89722 0
M  V30 4453 C 449.439 -0.762535 1.78929 0
M  V30 4454 O 448.694 -1.56977 1.16861 0
M  V30 4455 C 448.993 1.09076 3.40349 0
M  V30 4456 C 448.659 2.55765 3.71342 0
M  V30 4457 C 447.321 2.95845 3.79511 0
M  V30 4458 C 449.673 3.50723 3.85542 0
M  V30 4459 C 447.001 4.2982 3.99339 0
M  V30 4460 C 449.353 4.84387 4.06881 0
M  V30 4461 C 448.017 5.24172 4.1328 0
M  V30 4462 H 447.287 0.259052 0.694243 0
M  V30 4463 H 449.934 1.27868 1.42555 0
M  V30 4464 H 448.239 0.438453 3.89339 0
M  V30 4465 H 449.936 0.828636 3.92345 0
M  V30 4466 H 446.526 2.2371 3.65584 0
M  V30 4467 H 450.71 3.20916 3.78585 0
M  V30 4468 H 445.966 4.60196 4.02529 0
M  V30 4469 H 450.14 5.57891 4.1681 0
M  V30 4470 H 447.767 6.27997 4.28396 0
M  V30 4471 N 449.342 -1.36122 0.79427 0
M  V30 4472 C 450.274 -2.28683 0.153903 0
M  V30 4473 C 451.287 -1.49707 -0.639669 0
M  V30 4474 O 452.476 -1.7209 -0.474054 0
M  V30 4475 C 449.576 -3.29202 -0.804921 0
M  V30 4476 C 448.749 -4.37358 -0.060366 0
M  V30 4477 C 447.808 -5.17811 -0.935849 0
M  V30 4478 O 446.834 -5.67853 -0.391309 0
M  V30 4479 N 448.036 -5.34721 -2.25951 0
M  V30 4480 H 450.801 -2.84278 0.949008 0
M  V30 4481 H 448.362 -1.4834 0.648611 0
M  V30 4482 H 450.354 -3.79914 -1.39455 0
M  V30 4483 H 448.924 -2.74212 -1.50088 0
M  V30 4484 H 448.144 -3.87746 0.710382 0
M  V30 4485 H 449.432 -5.06777 0.45324 0
M  V30 4486 H 448.83 -4.95687 -2.72601 0
M  V30 4487 H 447.387 -5.88657 -2.79867 0
M  V30 4488 N 450.82 -0.546701 -1.47814 0
M  V30 4489 C 452.069 -0.0166497 -2.01693 0
M  V30 4490 C 452.382 1.33721 -1.42752 0
M  V30 4491 O 453.588 1.95658 -1.8823 0
M  V30 4492 C 452.044 0.0206769 -3.59894 0
M  V30 4493 C 451.652 -1.3293 -4.27824 0
M  V30 4494 C 453.396 0.498674 -4.21561 0
M  V30 4495 C 451.303 -1.25165 -5.78003 0
M  V30 4496 H 450.233 -0.0024541 -0.753996 0
M  V30 4497 H 452.884 -0.692984 -1.69912 0
M  V30 4498 H 451.266 0.76244 -3.88591 0
M  V30 4499 H 452.44 -2.08795 -4.10781 0
M  V30 4500 H 450.755 -1.74438 -3.78101 0
M  V30 4501 H 453.352 0.575 -5.31599 0
M  V30 4502 H 453.695 1.5083 -3.88016 0
M  V30 4503 H 454.228 -0.18791 -3.97356 0
M  V30 4504 H 450.967 -2.23695 -6.1615 0
M  V30 4505 H 450.487 -0.53464 -5.97412 0
M  V30 4506 H 452.166 -0.949299 -6.39998 0
M  V30 4507 N 452.299 1.55045 -0.282633 0
M  V30 4508 C 453.546 1.9976 0.33199 0
M  V30 4509 C 453.874 1.17105 1.55295 0
M  V30 4510 O 453.129 0.230599 1.94337 0
M  V30 4511 C 453.428 3.49422 0.750938 0
M  V30 4512 C 453.094 4.4941 -0.366228 0
M  V30 4513 C 451.756 4.76471 -0.672964 0
M  V30 4514 C 454.108 5.09054 -1.11864 0
M  V30 4515 C 451.436 5.60442 -1.73556 0
M  V30 4516 C 453.788 5.9418 -2.17102 0
M  V30 4517 C 452.452 6.19558 -2.48402 0
M  V30 4518 H 451.722 0.730974 0.121484 0
M  V30 4519 H 454.369 1.8732 -0.39791 0
M  V30 4520 H 452.674 3.59377 1.56063 0
M  V30 4521 H 454.371 3.81432 1.23736 0
M  V30 4522 H 450.961 4.2844 -0.117041 0
M  V30 4523 H 455.145 4.88165 -0.894925 0
M  V30 4524 H 450.401 5.78349 -1.983 0
M  V30 4525 H 454.575 6.39427 -2.75873 0
M  V30 4526 H 452.202 6.84417 -3.30874 0
M  V30 4527 N 453.777 0.010035 1.57597 0
M  V30 4528 C 455.005 -0.683413 1.95287 0
M  V30 4529 C 455.42 -1.66747 0.885481 0
M  V30 4530 O 454.777 -1.82003 -0.134629 0
M  V30 4531 C 454.828 -1.40652 3.33015 0
M  V30 4532 O 454.549 -0.461916 4.35658 0
M  V30 4533 C 456.05 -2.19356 3.85225 0
M  V30 4534 H 453.27 -0.189708 0.643624 0
M  V30 4535 H 455.814 0.0641359 2.04399 0
M  V30 4536 H 453.969 -2.10562 3.2518 0
M  V30 4537 H 454.383 -0.973215 5.15392 0
M  V30 4538 H 455.857 -2.65433 4.83993 0
M  V30 4539 H 456.334 -3.02457 3.18459 0
M  V30 4540 H 456.94 -1.54442 3.96267 0
M  V30 4541 N 455.255 -1.55392 -0.262866 0
M  V30 4542 C 456.218 -1.88181 -1.30846 0
M  V30 4543 C 457.218 -0.757079 -1.41862 0
M  V30 4544 O 458.408 -1.02519 -1.40838 0
M  V30 4545 C 455.54 -2.09609 -2.68844 0
M  V30 4546 H 456.733 -2.81659 -1.02997 0
M  V30 4547 H 454.286 -1.48039 -0.501414 0
M  V30 4548 H 455.021 -1.18547 -3.01856 0
M  V30 4549 H 454.806 -2.91508 -2.62231 0
M  V30 4550 H 456.296 -2.36215 -3.44372 0
M  V30 4551 N 456.733 0.527833 -1.48498 0
M  V30 4552 C 457.958 1.313 -1.60546 0
M  V30 4553 C 458.383 1.86199 -0.26672 0
M  V30 4554 O 457.741 1.64513 0.761918 0
M  V30 4555 C 457.789 2.43818 -2.65678 0
M  V30 4556 O 456.893 3.46916 -2.22987 0
M  V30 4557 H 456.234 0.388784 -0.538277 0
M  V30 4558 H 458.764 0.634896 -1.945 0
M  V30 4559 H 458.774 2.89973 -2.87018 0
M  V30 4560 H 457.449 2.03222 -3.62869 0
M  V30 4561 H 456.026 3.06864 -2.11869 0
M  V30 4562 N 458.211 1.37122 0.776871 0
M  V30 4563 C 459.439 1.3523 1.5659 0
M  V30 4564 C 459.854 -0.0635518 1.88693 0
M  V30 4565 O 459.211 -1.02394 1.51069 0
M  V30 4566 C 459.262 2.18583 2.8793 0
M  V30 4567 O 458.983 3.5465 2.57206 0
M  V30 4568 C 460.484 2.24612 3.82183 0
M  V30 4569 H 457.704 0.4634 0.485285 0
M  V30 4570 H 460.248 1.80392 0.963266 0
M  V30 4571 H 458.403 1.76943 3.4463 0
M  V30 4572 H 458.817 3.98286 3.41275 0
M  V30 4573 H 460.291 2.87267 4.71361 0
M  V30 4574 H 460.768 1.25309 4.20944 0
M  V30 4575 H 461.374 2.66543 3.31414 0
M  V30 4576 N 459.689 -1.00246 1.21608 0
M  V30 4577 C 460.639 -2.07492 0.945051 0
M  V30 4578 C 461.623 -1.60585 -0.100675 0
M  V30 4579 O 462.815 -1.76667 0.10859 0
M  V30 4580 C 459.944 -3.39425 0.514342 0
M  V30 4581 C 459.03 -3.92993 1.59428 0
M  V30 4582 N 459.421 -4.19898 2.81991 0
M  V30 4583 C 457.719 -4.21297 1.46374 0
M  V30 4584 C 458.42 -4.63297 3.51754 0
M  V30 4585 N 457.396 -4.66421 2.79199 0
M  V30 4586 H 461.198 -2.26222 1.87619 0
M  V30 4587 H 458.712 -1.18339 1.11219 0
M  V30 4588 H 460.709 -4.15808 0.301527 0
M  V30 4589 H 459.369 -3.22101 -0.410008 0
M  V30 4590 H 460.38 -4.08377 3.1851 0
M  V30 4591 H 457.057 -4.13095 0.604863 0
M  V30 4592 H 458.447 -4.92816 4.56708 0
M  V30 4593 N 461.167 -1.02423 -1.1978 0
M  V30 4594 C 462.578 -0.748389 -1.71044 0
M  V30 4595 C 462.929 0.732398 -1.82017 0
M  V30 4596 O 462.054 1.57116 -1.48807 0
M  V30 4597 C 462.649 -1.35187 -3.1066 0
M  V30 4598 C 461.208 -1.12472 -3.59203 0
M  V30 4599 C 460.355 -1.45283 -2.36195 0
M  V30 4600 H 463.306 -1.19275 -1.04686 0
M  V30 4601 H 463.327 -0.746408 -3.73107 0
M  V30 4602 H 462.839 -2.4296 -3.02642 0
M  V30 4603 H 460.94 -0.0649983 -3.72543 0
M  V30 4604 H 461.053 -1.81016 -4.43588 0
M  V30 4605 H 459.417 -0.872034 -2.39307 0
M  V30 4606 H 460.2 -2.54129 -2.30811 0
M  V30 4607 N 462.645 1.35699 -0.801477 0
M  V30 4608 C 464.061 1.52065 -0.484596 0
M  V30 4609 C 464.261 1.75215 0.995084 0
M  V30 4610 O 463.317 1.79061 1.78026 0
M  V30 4611 C 464.63 2.69908 -1.32552 0
M  V30 4612 C 466.178 2.83784 -1.32044 0
M  V30 4613 C 466.653 4.04646 -2.14536 0
M  V30 4614 N 468.144 4.11814 -2.12046 0
M  V30 4615 C 468.879 5.04437 -2.72636 0
M  V30 4616 N 468.375 6.02426 -3.42133 0
M  V30 4617 N 470.168 4.97144 -2.62305 0
M  V30 4618 H 462.319 1.18928 -1.75983 0
M  V30 4619 H 464.582 0.581455 -0.748741 0
M  V30 4620 H 464.288 2.59363 -2.37537 0
M  V30 4621 H 464.162 3.64376 -0.975181 0
M  V30 4622 H 466.549 2.93783 -0.27846 0
M  V30 4623 H 466.63 1.90188 -1.71062 0
M  V30 4624 H 466.274 3.95407 -3.18772 0
M  V30 4625 H 466.204 4.97413 -1.72882 0
M  V30 4626 H 468.695 3.41664 -1.61476 0
M  V30 4627 H 469.008 6.69688 -3.85666 0
M  V30 4628 H 467.353 6.02615 -3.46237 0
M  V30 4629 H 470.544 4.19546 -2.07603 0
M  V30 4630 H 470.717 5.69138 -3.09815 0
M  V30 4631 N 464.123 0.554532 1.47522 0
M  V30 4632 C 465.073 -0.215008 2.26984 0
M  V30 4633 C 466.057 -0.88774 1.34194 0
M  V30 4634 O 467.249 -0.786489 1.58567 0
M  V30 4635 C 464.378 -1.24604 3.19889 0
M  V30 4636 C 463.464 -0.576857 4.20159 0
M  V30 4637 N 463.855 0.351541 5.04577 0
M  V30 4638 C 462.153 -0.831104 4.38188 0
M  V30 4639 C 462.854 0.739995 5.76974 0
M  V30 4640 N 461.83 0.0954407 5.43516 0
M  V30 4641 H 465.632 0.498843 2.89636 0
M  V30 4642 H 463.146 0.374279 1.58028 0
M  V30 4643 H 465.143 -1.81128 3.75498 0
M  V30 4644 H 463.803 -1.96101 2.58794 0
M  V30 4645 H 464.814 0.725556 5.12792 0
M  V30 4646 H 461.491 -1.53479 3.88266 0
M  V30 4647 H 462.881 1.50271 6.5488 0
M  V30 4648 N 465.601 -1.54893 0.290851 0
M  V30 4649 C 466.829 -2.04343 -0.324288 0
M  V30 4650 C 467.244 -1.16859 -1.48289 0
M  V30 4651 O 466.601 -0.192018 -1.81487 0
M  V30 4652 C 466.652 -3.52756 -0.79026 0
M  V30 4653 O 466.373 -4.36913 0.322213 0
M  V30 4654 C 467.874 -4.18161 -1.4716 0
M  V30 4655 H 465.094 -0.667135 -0.0719173 0
M  V30 4656 H 467.638 -1.99981 0.427529 0
M  V30 4657 H 465.793 -3.57511 -1.49213 0
M  V30 4658 H 466.207 -5.24486 -0.0387372 0
M  V30 4659 H 467.681 -5.23562 -1.7489 0
M  V30 4660 H 468.158 -3.67282 -2.40834 0
M  V30 4661 H 468.764 -4.17454 -0.813178 0
M  V30 4662 N 467.08 -0.0183926 -1.57589 0
M  V30 4663 C 468.329 0.66185 -1.90532 0
M  V30 4664 C 468.642 1.73904 -0.895366 0
M  V30 4665 O 469.848 2.47518 -1.11566 0
M  V30 4666 C 468.304 1.22844 -3.38286 0
M  V30 4667 C 467.912 0.185103 -4.47617 0
M  V30 4668 C 469.656 1.88581 -3.80312 0
M  V30 4669 C 467.563 0.762723 -5.86461 0
M  V30 4670 H 466.493 0.250972 -0.711006 0
M  V30 4671 H 469.144 -0.0819435 -1.83317 0
M  V30 4672 H 467.526 2.0235 -3.40398 0
M  V30 4673 H 468.7 -0.58671 -4.5705 0
M  V30 4674 H 467.015 -0.372889 -4.14727 0
M  V30 4675 H 469.612 2.32735 -4.81392 0
M  V30 4676 H 469.955 2.72408 -3.14801 0
M  V30 4677 H 470.488 1.15782 -3.80578 0
M  V30 4678 H 467.227 -0.0371713 -6.55489 0
M  V30 4679 H 466.747 1.50327 -5.80656 0
M  V30 4680 H 468.426 1.25576 -6.34697 0
M  V30 4681 N 468.558 1.5553 0.254621 0
M  V30 4682 C 469.805 1.77 0.983736 0
M  V30 4683 C 470.133 0.58133 1.85609 0
M  V30 4684 O 469.388 -0.435621 1.9079 0
M  V30 4685 C 469.687 3.03891 1.88109 0
M  V30 4686 C 469.353 4.35597 1.16472 0
M  V30 4687 C 468.015 4.7139 0.966714 0
M  V30 4688 C 470.367 5.1705 0.656387 0
M  V30 4689 C 467.695 5.86176 0.247942 0
M  V30 4690 C 470.047 6.32581 -0.0488807 0
M  V30 4691 C 468.711 6.67 -0.258438 0
M  V30 4692 H 467.981 0.647688 0.359974 0
M  V30 4693 H 470.628 1.89802 0.254463 0
M  V30 4694 H 468.933 2.86068 2.67717 0
M  V30 4695 H 470.63 3.17701 2.44677 0
M  V30 4696 H 467.22 4.07475 1.32899 0
M  V30 4697 H 471.404 4.8986 0.796933 0
M  V30 4698 H 466.66 6.11354 0.075035 0
M  V30 4699 H 470.834 6.94942 -0.450444 0
M  V30 4700 H 468.461 7.55793 -0.817358 0
M  V30 4701 N 470.036 -0.519951 1.48776 0
M  V30 4702 C 471.283 -1.27522 1.57303 0
M  V30 4703 C 471.611 -1.92869 0.251328 0
M  V30 4704 O 470.866 -1.80372 -0.759243 0
M  V30 4705 C 471.165 -2.37864 2.6675 0
M  V30 4706 C 470.831 -1.90103 4.08867 0
M  V30 4707 C 469.493 -1.76795 4.47546 0
M  V30 4708 C 471.845 -1.54133 4.97888 0
M  V30 4709 C 469.173 -1.25868 5.73039 0
M  V30 4710 C 471.525 -1.04665 6.23881 0
M  V30 4711 C 470.189 -0.899823 6.61407 0
M  V30 4712 H 469.459 -0.466636 0.575614 0
M  V30 4713 H 472.106 -0.579109 1.82534 0
M  V30 4714 H 470.411 -3.13186 2.35418 0
M  V30 4715 H 472.108 -2.95969 2.70561 0
M  V30 4716 H 468.698 -2.01414 3.78326 0
M  V30 4717 H 472.882 -1.6327 4.68675 0
M  V30 4718 H 468.138 -1.13196 6.0083 0
M  V30 4719 H 472.312 -0.759074 6.92251 0
M  V30 4720 H 469.939 -0.503011 7.58534 0
M  V30 4721 N 471.514 -1.37532 -0.769588 0
M  V30 4722 C 472.424 -1.35668 -1.91393 0
M  V30 4723 C 473.44 -0.255954 -1.72107 0
M  V30 4724 O 474.616 -0.491704 -1.95305 0
M  V30 4725 C 471.681 -1.16481 -3.26547 0
M  V30 4726 C 470.742 -2.36212 -3.58472 0
M  V30 4727 C 469.975 -2.17932 -4.87177 0
M  V30 4728 O 470.198 -1.1647 -5.58382 0
M  V30 4729 O 469.132 -3.06167 -5.18214 0
M  V30 4730 H 472.958 -2.32055 -1.95918 0
M  V30 4731 H 470.543 -1.18284 -0.912641 0
M  V30 4732 H 472.425 -1.07778 -4.07384 0
M  V30 4733 H 471.1 -0.231687 -3.2287 0
M  V30 4734 H 470.007 -2.50488 -2.77861 0
M  V30 4735 H 471.34 -3.281 -3.66894 0
M  V30 4736 N 472.992 0.995999 -1.22138 0
M  V30 4737 C 474.238 1.73767 -1.04561 0
M  V30 4738 C 474.571 1.89633 0.418698 0
M  V30 4739 O 473.846 1.43723 1.3105 0
M  V30 4740 C 474.129 3.14505 -1.75382 0
M  V30 4741 C 473.982 3.06306 -3.29388 0
M  V30 4742 C 475.301 4.13615 -1.50369 0
M  V30 4743 H 472.42 0.630728 -0.38125 0
M  V30 4744 H 475.062 1.16057 -1.50435 0
M  V30 4745 H 473.212 3.63775 -1.36383 0
M  V30 4746 H 474.884 2.64681 -3.77812 0
M  V30 4747 H 473.127 2.43186 -3.59226 0
M  V30 4748 H 473.798 4.05884 -3.74116 0
M  V30 4749 H 476.274 3.73089 -1.84239 0
M  V30 4750 H 475.15 5.10212 -2.02421 0
M  V30 4751 H 475.411 4.39949 -0.435611 0
M  V30 4752 N 474.47 1.03057 1.19235 0
M  V30 4753 C 475.719 0.72326 1.88287 0
M  V30 4754 C 476.032 -0.751333 1.80594 0
M  V30 4755 O 477.238 -1.17176 2.44912 0
M  V30 4756 C 475.694 1.24338 3.3774 0
M  V30 4757 C 475.302 2.74587 3.53986 0
M  V30 4758 C 477.046 1.01213 4.12257 0
M  V30 4759 C 474.953 3.20009 4.97341 0
M  V30 4760 H 473.883 0.266848 0.705201 0
M  V30 4761 H 476.534 1.24509 1.34795 0
M  V30 4762 H 474.916 0.649457 3.90638 0
M  V30 4763 H 476.09 3.39649 3.11408 0
M  V30 4764 H 474.405 2.9601 2.9286 0
M  V30 4765 H 477.002 1.32675 5.17978 0
M  V30 4766 H 477.345 -0.051001 4.16269 0
M  V30 4767 H 477.878 1.57014 3.65501 0
M  V30 4768 H 474.617 4.25659 4.98493 0
M  V30 4769 H 474.137 2.59676 5.40674 0
M  V30 4770 H 475.816 3.13447 5.66003 0
M  V30 4771 N 475.948 -1.35272 0.808662 0
M  V30 4772 C 476.858 -2.33546 0.222079 0
M  V30 4773 C 477.874 -1.6196 -0.636011 0
M  V30 4774 O 479.05 -1.93822 -0.547274 0
M  V30 4775 C 476.115 -3.41148 -0.61795 0
M  V30 4776 C 475.176 -4.28507 0.260875 0
M  V30 4777 C 474.409 -5.3097 -0.539156 0
M  V30 4778 O 474.632 -5.42123 -1.77367 0
M  V30 4779 O 473.566 -6.01858 0.0710526 0
M  V30 4780 H 477.392 -2.85515 1.03512 0
M  V30 4781 H 474.977 -1.38079 0.570495 0
M  V30 4782 H 476.859 -4.06889 -1.09634 0
M  V30 4783 H 475.534 -2.91447 -1.40855 0
M  V30 4784 H 474.441 -3.6574 0.786451 0
M  V30 4785 H 475.774 -4.81611 1.01547 0
M  V30 4786 N 477.426 -0.562348 -1.47226 0
M  V30 4787 C 478.842 -0.222492 -1.58042 0
M  V30 4788 C 479.042 1.27505 -1.56028 0
M  V30 4789 O 478.098 2.05555 -1.46641 0
M  V30 4790 C 479.411 -0.853694 -2.88327 0
M  V30 4791 C 480.959 -0.825397 -3.01921 0
M  V30 4792 C 481.434 -1.43576 -4.34914 0
M  V30 4793 N 482.925 -1.39918 -4.41562 0
M  V30 4794 C 483.66 -1.84103 -5.43041 0
M  V30 4795 N 483.156 -2.36167 -6.51304 0
M  V30 4796 N 484.949 -1.75142 -5.34118 0
M  V30 4797 H 477.1 -1.53525 -1.46778 0
M  V30 4798 H 479.363 -0.640527 -0.698877 0
M  V30 4799 H 479.069 -1.90635 -2.95552 0
M  V30 4800 H 478.943 -0.34977 -3.75575 0
M  V30 4801 H 481.33 0.218583 -2.94289 0
M  V30 4802 H 481.411 -1.36713 -2.16202 0
M  V30 4803 H 481.055 -2.47884 -4.43301 0
M  V30 4804 H 480.985 -0.869427 -5.19373 0
M  V30 4805 H 483.476 -1.0184 -3.63919 0
M  V30 4806 H 483.789 -2.67793 -7.24919 0
M  V30 4807 H 482.134 -2.40181 -6.52179 0
M  V30 4808 H 485.325 -1.34241 -4.48439 0
M  V30 4809 H 485.498 -2.09895 -6.13065 0
M  V30 4810 N 478.904 1.54736 -0.299062 0
M  V30 4811 C 479.836 2.20891 0.61153 0
M  V30 4812 C 480.849 1.20104 1.09904 0
M  V30 4813 O 482.038 1.46707 1.01683 0
M  V30 4814 C 479.138 2.84018 1.84897 0
M  V30 4815 C 478.311 4.10719 1.50428 0
M  V30 4816 C 477.37 4.57667 2.59667 0
M  V30 4817 O 476.396 5.2291 2.24842 0
M  V30 4818 N 477.598 4.29821 3.90172 0
M  V30 4819 H 480.363 2.99666 0.0452001 0
M  V30 4820 H 477.924 1.61446 -0.121178 0
M  V30 4821 H 479.916 3.1236 2.5732 0
M  V30 4822 H 478.486 2.09095 2.32375 0
M  V30 4823 H 477.706 3.89408 0.612781 0
M  V30 4824 H 478.994 4.93223 1.24934 0
M  V30 4825 H 478.392 3.77549 4.21276 0
M  V30 4826 H 476.949 4.62877 4.58899 0
M  V30 4827 N 480.382 0.0267497 1.57577 0
M  V30 4828 C 481.63 -0.651116 1.91324 0
M  V30 4829 C 481.951 -1.72804 0.90353 0
M  V30 4830 O 481.221 -1.95822 -0.0552946 0
M  V30 4831 H 479.801 -0.243491 0.706202 0
M  V30 4832 H 482.463 0.0739935 1.94759 0
M  V30 4833 H 481.559 -1.10536 2.9187 0
M  V30 4834 N 481.861 -1.55662 -0.24637 0
M  V30 4835 C 482.824 -1.89558 -1.28842 0
M  V30 4836 C 483.824 -0.772082 -1.41052 0
M  V30 4837 O 485.014 -1.04007 -1.39743 0
M  V30 4838 C 482.146 -2.12449 -2.66605 0
M  V30 4839 H 483.339 -2.82735 -1.00004 0
M  V30 4840 H 480.892 -1.48562 -0.485684 0
M  V30 4841 H 481.627 -1.21742 -3.00582 0
M  V30 4842 H 481.412 -2.94273 -2.59125 0
M  V30 4843 H 482.902 -2.39854 -3.41847 0
M  V30 4844 N 483.339 0.512053 -1.4905 0
M  V30 4845 C 484.587 1.26436 -1.57665 0
M  V30 4846 C 484.908 1.93255 -0.260293 0
M  V30 4847 O 484.178 1.82206 0.719564 0
M  V30 4848 H 482.758 0.469658 -0.580888 0
M  V30 4849 H 485.42 0.594398 -1.85615 0
M  V30 4850 H 484.516 2.03417 -2.36702 0
M  V30 4851 N 484.817 1.37938 0.762283 0
M  V30 4852 C 486.045 1.36883 1.55147 0
M  V30 4853 C 486.46 -0.0435348 1.8875 0
M  V30 4854 O 485.817 -1.00786 1.52146 0
M  V30 4855 C 485.868 2.21624 2.85596 0
M  V30 4856 O 485.589 3.57358 2.5343 0
M  V30 4857 C 487.09 2.28653 3.7978 0
M  V30 4858 H 484.31 0.468521 0.480343 0
M  V30 4859 H 486.854 1.81404 0.944079 0
M  V30 4860 H 485.009 1.80588 3.42734 0
M  V30 4861 H 485.423 4.01883 3.37032 0
M  V30 4862 H 486.897 2.9225 4.68288 0
M  V30 4863 H 487.374 1.29767 4.19592 0
M  V30 4864 H 487.98 2.70043 3.28568 0
M  V30 4865 N 486.295 -0.989507 1.22664 0
M  V30 4866 C 487.542 -1.72953 1.05325 0
M  V30 4867 C 487.87 -1.90104 -0.411168 0
M  V30 4868 O 487.125 -1.44386 -1.32103 0
M  V30 4869 C 487.424 -3.13649 1.71345 0
M  V30 4870 C 487.09 -3.16403 3.21248 0
M  V30 4871 C 485.752 -3.16862 3.62149 0
M  V30 4872 C 488.104 -3.12428 4.17179 0
M  V30 4873 C 485.432 -3.11051 4.97458 0
M  V30 4874 C 487.784 -3.08159 5.52468 0
M  V30 4875 C 486.448 -3.06935 5.92746 0
M  V30 4876 H 485.718 -0.632881 0.385412 0
M  V30 4877 H 488.365 -1.15863 1.52473 0
M  V30 4878 H 486.67 -3.74069 1.16532 0
M  V30 4879 H 488.367 -3.69658 1.55416 0
M  V30 4880 H 484.957 -3.16798 2.88682 0
M  V30 4881 H 489.141 -3.11221 3.86595 0
M  V30 4882 H 484.397 -3.0845 5.27891 0
M  V30 4883 H 488.571 -3.04039 6.26525 0
M  V30 4884 H 486.198 -3.02186 6.97558 0
M  V30 4885 N 487.773 -1.03688 -1.18687 0
M  V30 4886 C 489.021 -0.736572 -1.88199 0
M  V30 4887 C 489.342 0.737665 -1.80509 0
M  V30 4888 O 488.612 1.53204 -1.22088 0
M  V30 4889 H 487.192 -0.269466 -0.696704 0
M  V30 4890 H 489.854 -1.31282 -1.44052 0
M  V30 4891 H 488.95 -1.03802 -2.94332 0
M  V30 4892 N 489.251 1.34841 -0.815825 0
M  V30 4893 C 490.476 2.03261 -0.41226 0
M  V30 4894 C 490.901 1.61055 0.971751 0
M  V30 4895 O 490.259 0.7917 1.63101 0
M  V30 4896 C 490.307 3.56914 -0.514289 0
M  V30 4897 O 489.411 4.09728 0.468675 0
M  V30 4898 H 488.752 0.641664 -0.170771 0
M  V30 4899 H 491.282 1.72241 -1.10427 0
M  V30 4900 H 491.292 4.06156 -0.387457 0
M  V30 4901 H 489.967 3.86982 -1.52375 0
M  V30 4902 H 488.544 3.71681 0.301316 0
M  V30 4903 N 490.729 0.570148 1.46925 0
M  V30 4904 C 491.954 0.0542592 2.07329 0
M  V30 4905 C 492.379 -1.23582 1.41806 0
M  V30 4906 O 491.737 -1.74341 0.497479 0
M  V30 4907 C 491.785 -0.111175 3.60429 0
M  V30 4908 O 490.889 -1.17071 3.95434 0
M  V30 4909 H 490.23 0.0571425 0.661537 0
M  V30 4910 H 492.76 0.789516 1.88753 0
M  V30 4911 H 492.77 -0.321315 4.06733 0
M  V30 4912 H 491.445 0.831012 4.07513 0
M  V30 4913 H 490.022 -0.940029 3.60857 0
M  V30 4914 N 492.207 -1.54576 0.307264 0
M  V30 4915 C 493.155 -2.25208 -0.581723 0
M  V30 4916 C 494.149 -1.26031 -1.13192 0
M  V30 4917 O 495.355 -1.43862 -1.08184 0
M  V30 4918 H 491.73 -0.723173 -0.206214 0
M  V30 4919 H 493.701 -2.98378 0.0364663 0
M  V30 4920 C 492.45 -3.01086 -1.73904 0
M  V30 4921 H 491.773 -3.77208 -1.32491 0
M  V30 4922 H 493.213 -3.5378 -2.33701 0
M  V30 4923 C 491.672 -2.08422 -2.64692 0
M  V30 4924 O 492.202 -1.65636 -3.65961 0
M  V30 4925 N 490.408 -1.74247 -2.32564 0
M  V30 4926 H 489.955 -2.09238 -1.50257 0
M  V30 4927 H 489.913 -1.12524 -2.93574 0
M  V30 4928 N 493.685 -0.035106 -1.57561 0
M  V30 4929 C 494.934 0.641604 -1.91223 0
M  V30 4930 C 495.247 1.72944 -0.913761 0
M  V30 4931 O 496.453 2.46321 -1.14185 0
M  V30 4932 C 494.909 1.19249 -3.3957 0
M  V30 4933 C 494.517 0.137616 -4.47789 0
M  V30 4934 C 496.261 1.84537 -3.82291 0
M  V30 4935 C 494.168 0.700478 -5.87237 0
M  V30 4936 H 493.098 0.243417 -0.713627 0
M  V30 4937 H 495.749 -0.101382 -1.8322 0
M  V30 4938 H 494.131 1.98728 -3.42525 0
M  V30 4939 H 495.305 -0.635153 -4.56402 0
M  V30 4940 H 493.62 -0.416855 -4.14308 0
M  V30 4941 H 496.217 2.27616 -4.83834 0
M  V30 4942 H 496.56 2.69054 -3.17672 0
M  V30 4943 H 497.093 1.11739 -3.81784 0
M  V30 4944 H 493.832 -0.106693 -6.55413 0
M  V30 4945 H 493.352 1.4416 -5.82218 0
M  V30 4946 H 495.031 1.18837 -6.35993 0
M  V30 4947 N 495.163 1.55791 0.238111 0
M  V30 4948 C 496.11 1.9105 1.29493 0
M  V30 4949 C 497.08 0.765733 1.47397 0
M  V30 4950 O 498.265 1.02017 1.61236 0
M  V30 4951 C 495.405 2.21826 2.64362 0
M  V30 4952 C 494.518 3.49153 2.54394 0
M  V30 4953 C 493.653 3.69455 3.81676 0
M  V30 4954 C 492.692 4.90353 3.66361 0
M  V30 4955 N 491.829 5.07131 4.85554 0
M  V30 4956 H 496.669 2.81172 0.987233 0
M  V30 4957 H 494.206 1.39179 0.476203 0
M  V30 4958 H 496.164 2.37675 3.4288 0
M  V30 4959 H 494.794 1.34897 2.93262 0
M  V30 4960 H 493.846 3.41587 1.67399 0
M  V30 4961 H 495.158 4.37818 2.38991 0
M  V30 4962 H 494.312 3.85311 4.68636 0
M  V30 4963 H 493.051 2.7904 3.99985 0
M  V30 4964 H 492.056 4.74464 2.77784 0
M  V30 4965 H 493.281 5.82237 3.49538 0
M  V30 4966 H 491.227 4.19654 5.04209 0
M  V30 4967 H 491.144 5.89899 4.72816 0
M  V30 4968 H 492.412 5.27407 5.73988 0
M  V30 4969 N 496.642 -0.504142 1.49319 0
M  V30 4970 C 497.605 -1.5883 1.65244 0
M  V30 4971 C 498.605 -1.52009 0.524386 0
M  V30 4972 O 499.795 -1.55218 0.79077 0
M  V30 4973 C 496.927 -2.98481 1.64687 0
M  V30 4974 H 498.12 -1.4604 2.61939 0
M  V30 4975 H 495.673 -0.728144 1.38303 0
M  V30 4976 H 496.408 -3.16751 0.695644 0
M  V30 4977 H 496.193 -3.0484 2.46607 0
M  V30 4978 H 497.683 -3.77256 1.79075 0
M  V30 4979 N 498.12 -1.38341 -0.754957 0
M  V30 4980 C 499.05 -1.38176 -1.88227 0
M  V30 4981 C 500.031 -0.247873 -1.68284 0
M  V30 4982 O 501.216 -0.45075 -1.88896 0
M  V30 4983 C 498.346 -1.20471 -3.25736 0
M  V30 4984 C 497.3 -2.3105 -3.60278 0
M  V30 4985 C 496.626 -1.98452 -4.96509 0
M  V30 4986 C 497.926 -3.73305 -3.65295 0
M  V30 4987 H 499.62 -2.32512 -1.88622 0
M  V30 4988 H 497.166 -1.1192 -0.906082 0
M  V30 4989 H 499.119 -1.18982 -4.04254 0
M  V30 4990 H 497.843 -0.225965 -3.25817 0
M  V30 4991 H 496.502 -2.31723 -2.84078 0
M  V30 4992 H 496.15 -0.990641 -4.93148 0
M  V30 4993 H 495.85 -2.7251 -5.20588 0
M  V30 4994 H 497.374 -1.98578 -5.77407 0
M  V30 4995 H 498.788 -3.7467 -4.3393 0
M  V30 4996 H 497.185 -4.46557 -4.00883 0
M  V30 4997 H 498.255 -4.05719 -2.65556 0
M  V30 4998 N 499.598 0.982988 -1.23187 0
M  V30 4999 C 500.828 1.75666 -1.08743 0
M  V30 5000 C 501.236 1.85662 0.364195 0
M  V30 5001 O 500.579 1.33317 1.26382 0
M  V30 5002 C 500.641 3.20144 -1.63549 0
M  V30 5003 C 500.305 3.33665 -3.12277 0
M  V30 5004 C 501.302 3.20194 -4.096 0
M  V30 5005 C 498.987 3.58397 -3.51933 0
M  V30 5006 C 500.981 3.31256 -5.44563 0
M  V30 5007 C 498.668 3.69098 -4.87042 0
M  V30 5008 C 499.666 3.55537 -5.83166 0
M  V30 5009 O 499.354 3.65864 -7.1582 0
M  V30 5010 H 499.086 0.558194 -0.381307 0
M  V30 5011 H 501.64 1.24387 -1.63454 0
M  V30 5012 H 499.87 3.72659 -1.03256 0
M  V30 5013 H 501.559 3.79262 -1.4462 0
M  V30 5014 H 502.325 3.00987 -3.80305 0
M  V30 5015 H 498.204 3.68025 -2.77631 0
M  V30 5016 H 501.748 3.20588 -6.19572 0
M  V30 5017 H 497.645 3.87814 -5.16014 0
M  V30 5018 H 498.413 3.82675 -7.23534 0
M  V30 5019 N 501.076 1.04316 1.18135 0
M  V30 5020 C 501.986 0.646876 2.25505 0
M  V30 5021 C 503.002 -0.328008 1.7088 0
M  V30 5022 O 504.178 -0.182309 2.00573 0
M  V30 5023 C 501.243 0.0185664 3.46695 0
M  V30 5024 C 500.304 1.04277 4.16443 0
M  V30 5025 C 499.537 0.444352 5.31847 0
M  V30 5026 O 499.76 -0.748735 5.65465 0
M  V30 5027 O 498.694 1.17428 5.90334 0
M  V30 5028 H 502.52 1.54147 2.61672 0
M  V30 5029 H 500.105 0.814188 1.25265 0
M  V30 5030 H 501.987 -0.331068 4.20097 0
M  V30 5031 H 500.662 -0.849814 3.12346 0
M  V30 5032 H 499.569 1.44425 3.45098 0
M  V30 5033 H 500.902 1.882 4.54798 0
M  V30 5034 N 502.554 -1.34406 0.822964 0
M  V30 5035 C 503.517 -2.2783 0.250271 0
M  V30 5036 C 504.517 -1.50288 -0.571854 0
M  V30 5037 O 505.707 -1.69825 -0.387952 0
M  V30 5038 C 502.839 -3.34663 -0.649137 0
M  V30 5039 H 504.032 -2.79992 1.07444 0
M  V30 5040 H 501.585 -1.44539 0.594829 0
M  V30 5041 H 502.32 -2.87714 -1.49637 0
M  V30 5042 H 502.105 -3.92052 -0.0611199 0
M  V30 5043 H 503.595 -4.04349 -1.04363 0
M  V30 5044 N 504.032 -0.577932 -1.46621 0
M  V30 5045 C 505.278 -0.0617793 -2.02706 0
M  V30 5046 C 505.611 1.29294 -1.44903 0
M  V30 5047 O 504.886 1.8461 -0.61232 0
M  V30 5048 C 505.169 0.00911824 -3.60099 0
M  V30 5049 C 505.022 -1.37416 -4.28295 0
M  V30 5050 C 506.341 0.712159 -4.343 0
M  V30 5051 H 503.46 -0.0239246 -0.736612 0
M  V30 5052 H 506.102 -0.744211 -1.74818 0
M  V30 5053 H 504.252 0.590292 -3.83989 0
M  V30 5054 H 505.924 -2.00013 -4.15683 0
M  V30 5055 H 504.167 -1.94319 -3.87843 0
M  V30 5056 H 504.838 -1.27707 -5.37024 0
M  V30 5057 H 507.314 0.218486 -4.15526 0
M  V30 5058 H 506.19 0.730782 -5.44014 0
M  V30 5059 H 506.451 1.77251 -4.05012 0
M  V30 5060 N 505.51 1.54411 -0.315457 0
M  V30 5061 C 506.42 2.27737 0.56329 0
M  V30 5062 C 507.436 1.31787 1.13614 0
M  V30 5063 O 508.612 1.64791 1.15784 0
M  V30 5064 C 505.677 3.01478 1.71207 0
M  V30 5065 C 504.738 4.12997 1.17185 0
M  V30 5066 C 503.971 4.83212 2.26588 0
M  V30 5067 O 504.194 4.52884 3.46775 0
M  V30 5068 O 503.128 5.70299 1.92463 0
M  V30 5069 H 506.954 3.03683 -0.0319614 0
M  V30 5070 H 504.539 1.49178 -0.0814188 0
M  V30 5071 H 506.421 3.47683 2.38106 0
M  V30 5072 H 505.096 2.28414 2.29366 0
M  V30 5073 H 504.003 3.71159 0.468174 0
M  V30 5074 H 505.336 4.8808 0.635501 0
M  V30 5075 N 506.988 0.0434614 1.5754 0
M  V30 5076 C 507.918 -0.931651 2.14109 0
M  V30 5077 C 508.899 -1.32971 1.06079 0
M  V30 5078 O 510.084 -1.40579 1.33982 0
M  V30 5079 C 507.214 -2.20914 2.67982 0
M  V30 5080 C 506.168 -1.95139 3.80926 0
M  V30 5081 C 505.494 -3.29276 4.21285 0
M  V30 5082 C 506.794 -1.27913 5.06395 0
M  V30 5083 H 508.488 -0.460497 2.95837 0
M  V30 5084 H 506.034 -0.220058 1.42309 0
M  V30 5085 H 507.987 -2.89522 3.06194 0
M  V30 5086 H 506.711 -2.70221 1.83434 0
M  V30 5087 H 505.37 -1.28945 3.43175 0
M  V30 5088 H 505.018 -3.76369 3.33699 0
M  V30 5089 H 504.718 -3.12831 4.97404 0
M  V30 5090 H 506.242 -3.99129 4.62091 0
M  V30 5091 H 507.656 -1.86544 5.42102 0
M  V30 5092 H 506.053 -1.2182 5.87605 0
M  V30 5093 H 507.123 -0.254066 4.84234 0
M  V30 5094 N 508.466 -1.55915 -0.229846 0
M  V30 5095 C 509.376 -1.94891 -1.30593 0
M  V30 5096 C 510.392 -0.851604 -1.51736 0
M  V30 5097 O 511.568 -1.15447 -1.65027 0
M  V30 5098 C 508.633 -2.25052 -2.63728 0
M  V30 5099 C 507.694 -3.48306 -2.5096 0
M  V30 5100 C 506.927 -3.77019 -3.77747 0
M  V30 5101 O 507.15 -3.07534 -4.80395 0
M  V30 5102 O 506.084 -4.70523 -3.75356 0
M  V30 5103 H 509.91 -2.86581 -1.00525 0
M  V30 5104 H 507.495 -1.43017 -0.432025 0
M  V30 5105 H 509.377 -2.45682 -3.42372 0
M  V30 5106 H 508.052 -1.36538 -2.93495 0
M  V30 5107 H 506.959 -3.32964 -1.70546 0
M  V30 5108 H 508.292 -4.37177 -2.26136 0
M  V30 5109 N 509.944 0.496216 -1.49584 0
M  V30 5110 C 511.36 0.827814 -1.36453 0
M  V30 5111 C 511.56 1.97464 -0.401285 0
M  V30 5112 O 510.616 2.51958 0.165296 0
M  V30 5113 C 511.929 1.16352 -2.77277 0
M  V30 5114 C 513.477 1.27145 -2.86013 0
M  V30 5115 C 513.952 1.64042 -4.27615 0
M  V30 5116 N 515.443 1.71082 -4.30448 0
M  V30 5117 C 516.178 2.01085 -5.36984 0
M  V30 5118 N 515.674 2.2928 -6.5376 0
M  V30 5119 N 517.467 2.02376 -5.24405 0
M  V30 5120 H 509.618 -0.259947 -2.10803 0
M  V30 5121 H 511.881 -0.0537163 -0.946477 0
M  V30 5122 H 511.587 0.394153 -3.49484 0
M  V30 5123 H 511.461 2.10582 -3.12946 0
M  V30 5124 H 513.848 2.03152 -2.1404 0
M  V30 5125 H 513.929 0.309542 -2.5392 0
M  V30 5126 H 513.573 0.88583 -5.00115 0
M  V30 5127 H 513.503 2.6134 -4.57175 0
M  V30 5128 H 515.994 1.51434 -3.46232 0
M  V30 5129 H 516.307 2.51376 -7.30774 0
M  V30 5130 H 514.652 2.26726 -6.56978 0
M  V30 5131 H 517.843 1.79829 -4.32179 0
M  V30 5132 H 518.016 2.25425 -6.07526 0
M  V30 5133 N 511.423 1.38739 0.74761 0
M  V30 5134 C 512.651 1.38521 1.53686 0
M  V30 5135 C 513.066 -0.0235129 1.88785 0
M  V30 5136 O 512.423 -0.991662 1.53207 0
M  V30 5137 C 512.474 2.24641 2.83229 0
M  V30 5138 O 512.195 3.60026 2.49625 0
M  V30 5139 C 513.696 2.32669 3.77333 0
M  V30 5140 H 510.916 0.473589 0.475347 0
M  V30 5141 H 513.46 1.82395 0.924786 0
M  V30 5142 H 511.615 1.84213 3.40799 0
M  V30 5143 H 512.029 4.05435 3.3275 0
M  V30 5144 H 513.503 2.97201 4.65162 0
M  V30 5145 H 513.98 1.3421 4.18192 0
M  V30 5146 H 514.586 2.73512 3.25685 0
M  V30 5147 N 512.901 -0.976442 1.23707 0
M  V30 5148 C 514.149 -1.71487 1.06942 0
M  V30 5149 C 514.47 -1.9098 -0.393897 0
M  V30 5150 O 513.74 -1.48128 -1.28198 0
M  V30 5151 H 512.32 -0.635425 0.392739 0
M  V30 5152 H 514.982 -1.17515 1.55487 0
M  V30 5153 H 514.078 -2.70286 1.56051 0
M  V30 5154 N 514.379 -1.04941 -1.1758 0
M  V30 5155 C 515.311 -0.606174 -2.21039 0
M  V30 5156 C 516.324 0.328763 -1.59446 0
M  V30 5157 O 517.513 0.121895 -1.78083 0
M  V30 5158 C 514.613 0.133294 -3.38638 0
M  V30 5159 C 513.786 -0.811711 -4.29802 0
M  V30 5160 C 512.845 -0.113958 -5.26077 0
M  V30 5161 O 511.871 -0.747237 -5.64274 0
M  V30 5162 N 513.073 1.14953 -5.69004 0
M  V30 5163 H 515.838 -1.49606 -2.59689 0
M  V30 5164 H 513.399 -0.930997 -1.32454 0
M  V30 5165 H 515.391 0.610144 -4.00074 0
M  V30 5166 H 513.961 0.924816 -2.98607 0
M  V30 5167 H 513.181 -1.46824 -3.65837 0
M  V30 5168 H 514.469 -1.45326 -4.87604 0
M  V30 5169 H 513.867 1.68441 -5.40041 0
M  V30 5170 H 512.424 1.57049 -6.32597 0
M  V30 5171 N 515.857 1.33968 -0.830081 0
M  V30 5172 C 517.082 2.02813 -0.433796 0
M  V30 5173 C 517.507 1.62076 0.954614 0
M  V30 5174 O 516.865 0.808955 1.62252 0
M  V30 5175 C 516.913 3.56348 -0.552115 0
M  V30 5176 O 516.017 4.10202 0.425191 0
M  V30 5177 H 515.358 0.639817 -0.177567 0
M  V30 5178 H 517.888 1.7106 -1.12248 0
M  V30 5179 H 517.898 4.05722 -0.430513 0
M  V30 5180 H 516.573 3.85344 -1.56471 0
M  V30 5181 H 515.15 3.71979 0.261878 0
M  V30 5182 N 517.335 0.585699 1.46312 0
M  V30 5183 C 518.245 -0.148236 2.34131 0
M  V30 5184 C 519.261 -0.882972 1.49932 0
M  V30 5185 O 520.437 -0.845484 1.82794 0
M  V30 5186 C 517.502 -1.14714 3.27172 0
M  V30 5187 C 516.563 -0.416746 4.27272 0
M  V30 5188 C 515.796 -1.36806 5.15868 0
M  V30 5189 O 516.019 -2.60475 5.07454 0
M  V30 5190 O 514.953 -0.877018 5.95476 0
M  V30 5191 H 518.779 0.572882 2.98248 0
M  V30 5192 H 516.364 0.346082 1.45336 0
M  V30 5193 H 518.246 -1.72303 3.84564 0
M  V30 5194 H 516.921 -1.84967 2.65648 0
M  V30 5195 H 515.828 0.201061 3.73559 0
M  V30 5196 H 517.161 0.244872 4.9159 0
M  V30 5197 N 518.813 -1.54241 0.323641 0
M  V30 5198 C 520.06 -2.0057 -0.27891 0
M  V30 5199 C 520.388 -1.21181 -1.52136 0
M  V30 5200 O 519.643 -0.282043 -1.93657 0
M  V30 5201 C 519.942 -3.5129 -0.658031 0
M  V30 5202 C 519.608 -4.48281 0.485252 0
M  V30 5203 C 518.27 -4.74519 0.799055 0
M  V30 5204 C 520.622 -5.05909 1.25322 0
M  V30 5205 C 517.95 -5.55643 1.88354 0
M  V30 5206 C 520.302 -5.88215 2.32779 0
M  V30 5207 C 518.966 -6.12755 2.64741 0
M  V30 5208 H 518.236 -0.733938 -0.10206 0
M  V30 5209 H 520.883 -1.862 0.447435 0
M  V30 5210 H 519.188 -3.63388 -1.4648 0
M  V30 5211 H 520.885 -3.84578 -1.1358 0
M  V30 5212 H 517.475 -4.27979 0.230593 0
M  V30 5213 H 521.659 -4.8562 1.02404 0
M  V30 5214 H 516.915 -5.72888 2.13564 0
M  V30 5215 H 521.089 -6.31888 2.92729 0
M  V30 5216 H 518.716 -6.75404 3.48904 0
M  V30 5217 N 520.291 -0.0518155 -1.57515 0
M  V30 5218 C 521.539 0.620595 -1.92336 0
M  V30 5219 C 521.86 1.71345 -0.930907 0
M  V30 5220 O 521.13 1.95885 0.0241341 0
M  V30 5221 H 519.71 0.232226 -0.709986 0
M  V30 5222 H 522.372 -0.104969 -1.94617 0
M  V30 5223 H 521.468 1.05879 -2.93592 0
M  V30 5224 N 521.769 1.56035 0.221574 0
M  V30 5225 C 522.732 1.91584 1.2581 0
M  V30 5226 C 523.732 0.794425 1.39805 0
M  V30 5227 O 524.922 1.06217 1.38071 0
M  V30 5228 C 522.054 2.16663 2.63192 0
M  V30 5229 H 523.247 2.8429 0.954935 0
M  V30 5230 H 520.8 1.49316 0.461988 0
M  V30 5231 H 521.535 1.26508 2.98607 0
M  V30 5232 H 521.32 2.98358 2.5441 0
M  V30 5233 H 522.81 2.45262 3.37988 0
M  V30 5234 N 523.247 -0.488276 1.49845 0
M  V30 5235 C 524.21 -1.57069 1.66919 0
M  V30 5236 C 525.21 -1.51445 0.540479 0
M  V30 5237 O 526.4 -1.5437 0.807188 0
M  V30 5238 C 523.532 -2.96718 1.67844 0
M  V30 5239 H 524.725 -1.43254 2.63474 0
M  V30 5240 H 522.278 -0.713435 1.39068 0
M  V30 5241 H 523.013 -3.15996 0.7292 0
M  V30 5242 H 522.798 -3.02208 2.49826 0
M  V30 5243 H 524.288 -3.75335 1.83066 0
M  V30 5244 N 524.725 -1.39134 -0.740242 0
M  V30 5245 C 526.141 -1.20623 -1.0451 0
M  V30 5246 C 526.341 -0.0641651 -2.01398 0
M  V30 5247 O 525.397 0.585843 -2.4561 0
M  V30 5248 C 526.71 -2.53815 -1.6124 0
M  V30 5249 C 528.258 -2.60615 -1.73346 0
M  V30 5250 C 528.733 -3.94015 -2.33486 0
M  V30 5251 N 530.224 -3.95627 -2.40902 0
M  V30 5252 C 530.959 -4.95616 -2.88361 0
M  V30 5253 N 530.455 -6.06003 -3.35756 0
M  V30 5254 N 532.248 -4.82998 -2.87523 0
M  V30 5255 H 524.399 -2.12176 -0.0975576 0
M  V30 5256 H 526.662 -0.942066 -0.105904 0
M  V30 5257 H 526.368 -3.37911 -0.975144 0
M  V30 5258 H 526.242 -2.73162 -2.6012 0
M  V30 5259 H 528.629 -1.76906 -2.36195 0
M  V30 5260 H 528.71 -2.45123 -0.731336 0
M  V30 5261 H 528.354 -4.78153 -1.71267 0
M  V30 5262 H 528.284 -4.06825 -3.34366 0
M  V30 5263 H 530.775 -3.15903 -2.07398 0
M  V30 5264 H 531.088 -6.78215 -3.70464 0
M  V30 5265 H 529.433 -6.09604 -3.33778 0
M  V30 5266 H 532.624 -3.95866 -2.49816 0
M  V30 5267 H 532.797 -5.61072 -3.24196 0
M  V30 5268 N 526.204 0.969867 -1.24223 0
M  V30 5269 C 527.62 1.23809 -1.00716 0
M  V30 5270 C 527.82 1.99469 0.285358 0
M  V30 5271 O 526.876 2.31764 1.00207 0
M  V30 5272 C 528.189 2.02734 -2.2208 0
M  V30 5273 C 529.737 2.15834 -2.26681 0
M  V30 5274 C 530.212 2.98154 -3.47661 0
M  V30 5275 N 531.703 3.05737 -3.47964 0
M  V30 5276 C 532.438 3.69785 -4.38231 0
M  V30 5277 N 531.934 4.35569 -5.3875 0
M  V30 5278 N 533.727 3.66775 -4.25949 0
M  V30 5279 H 525.878 0.463294 -2.07286 0
M  V30 5280 H 528.141 0.267348 -0.909521 0
M  V30 5281 H 527.847 1.54524 -3.15935 0
M  V30 5282 H 527.721 3.0347 -2.24021 0
M  V30 5283 H 530.108 2.63248 -1.33359 0
M  V30 5284 H 530.189 1.14453 -2.28767 0
M  V30 5285 H 529.833 2.51435 -4.41297 0
M  V30 5286 H 529.763 3.99729 -3.42818 0
M  V30 5287 H 532.254 2.58941 -2.75242 0
M  V30 5288 H 532.567 4.82251 -6.03866 0
M  V30 5289 H 530.912 4.34244 -5.42639 0
M  V30 5290 H 534.103 3.14558 -3.46657 0
M  V30 5291 H 534.276 4.16407 -4.96497 0
M  V30 5292 O 527.721 1.18047 1.10214 0
M  V30 5293 H 528.412 0.921332 1.70385 0
M  V30 END ATOM
M  V30 BEGIN BOND
M  V30 END BOND
M  V30 END CTAB
M  END
$$$$
