drugbank_target|O52806 PCZA361.16 (DB01643)
 OpenBabel12092120223D

  0  0  0     0  0            999 V3000
M  V30 BEGIN CTAB
M  V30 COUNTS 3168 3200 0 0 0
M  V30 BEGIN ATOM
M  V30 1 H -0.908 1.98254 -0.117106 0
M  V30 2 N 0 1.576 0 0
M  V30 3 C 0.933 2.03868 1.02534 0
M  V30 4 C 1.911 0.928543 1.3348 0
M  V30 5 O 3.095 1.19667 1.45644 0
M  V30 6 C 0.222 2.43627 2.35294 0
M  V30 7 C -0.732 3.65373 2.2001 0
M  V30 8 S 0.101 5.13292 1.52614 0
M  V30 9 C 1.257 5.56322 2.86805 0
M  V30 10 H 1.49 2.90518 0.631377 0
M  V30 11 H -0.977 1.52953 0.210867 0
M  V30 12 H 0.981 2.67203 3.11629 0
M  V30 13 H -0.358 1.57376 2.7183 0
M  V30 14 H -1.165 3.90944 3.18086 0
M  V30 15 H -1.563 3.418 1.51819 0
M  V30 16 H 0.729 5.58782 3.83104 0
M  V30 17 H 1.672 6.56266 2.65933 0
M  V30 18 H 2.08 4.83886 2.90714 0
M  V30 19 N 1.4781 -0.272755 1.55222 0
M  V30 20 C 2.4101 -1.35946 1.8453 0
M  V30 21 C 3.4231 -1.45525 0.729818 0
M  V30 22 O 4.6121 -1.47337 1.00767 0
M  V30 23 C 1.7121 -2.74069 1.99347 0
M  V30 24 C 0.8851 -2.87079 3.30007 0
M  V30 25 C -0.0559 -4.05879 3.34886 0
M  V30 26 O -1.0299 -3.96626 4.08261 0
M  V30 27 N 0.1721 -5.17857 2.62307 0
M  V30 28 H 2.9371 -1.11149 2.78327 0
M  V30 29 H 0.4981 -0.462869 1.55142 0
M  V30 30 H 2.4901 -3.51838 1.99981 0
M  V30 31 H 1.0601 -2.91688 1.12415 0
M  V30 32 H 0.2801 -1.96193 3.41909 0
M  V30 33 H 1.5681 -2.92701 4.16177 0
M  V30 34 H 0.9661 -5.28261 2.02377 0
M  V30 35 H -0.4769 -5.93855 2.68663 0
M  V30 36 N 2.9562 -1.48159 -0.537278 0
M  V30 37 C 3.9192 -1.61665 -1.62472 0
M  V30 38 C 4.9192 -0.490395 -1.5314 0
M  V30 39 O 6.1092 -0.755998 -1.5694 0
M  V30 40 C 3.2412 -1.57997 -3.02076 0
M  V30 41 H 4.4342 -2.58621 -1.51839 0
M  V30 42 H 1.9872 -1.36647 -0.758771 0
M  V30 43 H 2.7222 -0.624913 -3.18222 0
M  V30 44 H 2.5072 -2.39755 -3.10258 0
M  V30 45 H 3.9972 -1.70627 -3.81151 0
M  V30 46 N 4.4343 0.785586 -1.36625 0
M  V30 47 C 5.8503 1.08419 -1.17122 0
M  V30 48 C 6.0503 2.015 0.00208491 0
M  V30 49 O 5.1063 2.43551 0.666278 0
M  V30 50 C 6.4193 1.69498 -2.48377 0
M  V30 51 C 7.9673 1.81821 -2.54775 0
M  V30 52 C 8.4423 2.46315 -3.86126 0
M  V30 53 N 9.9333 2.53779 -3.87492 0
M  V30 54 C 10.6683 3.045 -4.85868 0
M  V30 55 N 10.1643 3.55499 -5.94637 0
M  V30 56 N 11.9573 3.03247 -4.73284 0
M  V30 57 H 4.1083 0.167264 -2.1174 0
M  V30 58 H 6.3713 0.13682 -0.938075 0
M  V30 59 H 6.0773 1.08571 -3.34522 0
M  V30 60 H 5.9513 2.6896 -2.64462 0
M  V30 61 H 8.3383 2.41884 -1.69045 0
M  V30 62 H 8.4193 0.811532 -2.42586 0
M  V30 63 H 8.0633 1.86895 -4.72263 0
M  V30 64 H 7.9933 3.47561 -3.95612 0
M  V30 65 H 10.4843 2.17672 -3.08913 0
M  V30 66 H 10.7973 3.92562 -6.65669 0
M  V30 67 H 9.1423 3.5364 -5.98301 0
M  V30 68 H 12.3333 2.62696 -3.87438 0
M  V30 69 H 12.5063 3.42467 -5.50109 0
M  V30 70 N 5.9124 1.20967 1.01018 0
M  V30 71 C 6.8594 0.964281 2.09691 0
M  V30 72 C 7.8294 -0.107853 1.65749 0
M  V30 73 O 9.0144 0.0381987 1.90762 0
M  V30 74 C 6.1544 0.52943 3.41015 0
M  V30 75 C 5.2674 1.67043 3.98398 0
M  V30 76 C 4.4024 1.18525 5.17808 0
M  V30 77 C 3.4414 2.29892 5.67288 0
M  V30 78 N 2.5784 1.82546 6.77954 0
M  V30 79 H 7.4184 1.89463 2.30017 0
M  V30 80 H 4.9554 0.944289 1.1279 0
M  V30 81 H 6.9134 0.258588 4.16398 0
M  V30 82 H 5.5434 -0.363919 3.20742 0
M  V30 83 H 4.5954 2.05603 3.20049 0
M  V30 84 H 5.9074 2.50877 4.31117 0
M  V30 85 H 5.0614 0.870762 6.00419 0
M  V30 86 H 3.8004 0.316887 4.86669 0
M  V30 87 H 2.8054 2.6215 4.83278 0
M  V30 88 H 4.0304 3.17216 6.00459 0
M  V30 89 H 1.9764 0.980454 6.48632 0
M  V30 90 H 1.8934 2.59956 7.09901 0
M  V30 91 H 3.1614 1.54115 7.64113 0
M  V30 92 N 7.3905 -1.2043 1.01659 0
M  V30 93 C 8.3205 -2.25466 0.607226 0
M  V30 94 C 9.3015 -1.65853 -0.377716 0
M  V30 95 O 10.4865 -1.92409 -0.263149 0
M  V30 96 C 7.6165 -3.47256 -0.0552949 0
M  V30 97 C 6.5705 -4.19462 0.850632 0
M  V30 98 C 5.8965 -5.34673 0.0538859 0
M  V30 99 C 7.1965 -4.75603 2.15868 0
M  V30 100 H 8.8905 -2.59962 1.48526 0
M  V30 101 H 6.4365 -1.2496 0.715605 0
M  V30 102 H 8.3895 -4.19917 -0.353233 0
M  V30 103 H 7.1135 -3.11924 -0.968045 0
M  V30 104 H 5.7725 -3.48667 1.13257 0
M  V30 105 H 5.4205 -4.95585 -0.860514 0
M  V30 106 H 5.1205 -5.83913 0.657192 0
M  V30 107 H 6.6445 -6.10138 -0.237598 0
M  V30 108 H 8.0585 -5.40083 1.92311 0
M  V30 109 H 6.4555 -5.3528 2.71284 0
M  V30 110 H 7.5255 -3.94346 2.82169 0
M  V30 111 N 8.8686 -0.792821 -1.36206 0
M  V30 112 C 9.8316 -0.199459 -2.2833 0
M  V30 113 C 10.8316 0.605189 -1.48977 0
M  V30 114 O 12.0216 0.425685 -1.68919 0
M  V30 115 C 9.1536 0.723523 -3.33134 0
M  V30 116 H 10.3466 -1.01181 -2.82316 0
M  V30 117 H 7.8996 -0.562485 -1.45828 0
M  V30 118 H 8.6346 1.56008 -2.84309 0
M  V30 119 H 8.4196 0.148436 -3.91819 0
M  V30 120 H 9.9096 1.13344 -4.01924 0
M  V30 121 N 10.3467 1.47872 -0.545128 0
M  V30 122 C 11.5927 2.02793 -0.0166104 0
M  V30 123 C 11.9257 1.41987 1.32489 0
M  V30 124 O 11.2007 0.571045 1.85928 0
M  V30 125 C 11.4837 3.59989 0.0893294 0
M  V30 126 C 11.3367 4.3125 -1.27841 0
M  V30 127 C 12.6557 4.32606 0.808724 0
M  V30 128 H 9.7747 0.736962 -0.00751035 0
M  V30 129 H 12.4167 1.76433 -0.705085 0
M  V30 130 H 10.5667 3.82579 0.675681 0
M  V30 131 H 12.2387 4.20035 -1.90704 0
M  V30 132 H 10.4817 3.92076 -1.85632 0
M  V30 133 H 11.1527 5.39736 -1.15713 0
M  V30 134 H 13.6287 4.14936 0.310992 0
M  V30 135 H 12.5047 5.42251 0.851782 0
M  V30 136 H 12.7657 4.00963 1.86229 0
M  V30 137 N 11.8248 0.280983 1.55075 0
M  V30 138 C 13.1018 -0.386207 1.91749 0
M  V30 139 C 13.4818 -1.73264 1.20594 0
M  V30 140 O 12.8298 -2.26034 0.334784 0
M  V30 141 C 13.0398 -0.520687 3.45094 0
M  V30 142 C 14.3878 -0.800865 4.16979 0
M  V30 143 O 15.4118 -0.605271 3.5102 0
M  V30 144 O 14.2708 -1.1753 5.33712 0
M  V30 145 H 11.3648 -0.212408 0.799257 0
M  V30 146 H 13.9108 0.327568 1.66509 0
M  V30 147 H 12.6828 0.426633 3.88967 0
M  V30 148 H 12.3058 -1.2837 3.76307 0
M  V30 149 N 13.3029 -1.57598 0.00835791 0
M  V30 150 C 14.5509 -1.90551 -0.6734 0
M  V30 151 C 14.8719 -0.883301 -1.73847 0
M  V30 152 O 14.1419 0.0781442 -1.95744 0
M  V30 153 H 12.7219 -0.703312 -0.251717 0
M  V30 154 H 15.3839 -1.94833 0.0512592 0
M  V30 155 H 14.4799 -2.9056 -1.13935 0
M  V30 156 N 14.781 0.264519 -1.55364 0
M  V30 157 C 15.744 1.31046 -1.88042 0
M  V30 158 C 16.744 1.41943 -0.755569 0
M  V30 159 O 17.934 1.40947 -1.02369 0
M  V30 160 C 15.066 2.69067 -2.09323 0
M  V30 161 H 16.259 1.03297 -2.81549 0
M  V30 162 H 13.812 0.502989 -1.47986 0
M  V30 163 H 14.547 3.01982 -1.18226 0
M  V30 164 H 14.332 2.62542 -2.91229 0
M  V30 165 H 15.822 3.44623 -2.35848 0
M  V30 166 N 16.2591 1.48442 0.529413 0
M  V30 167 C 17.5081 1.55742 1.28169 0
M  V30 168 C 17.8211 0.236511 1.94165 0
M  V30 169 O 19.0271 0.187761 2.7085 0
M  V30 170 C 17.4831 2.74667 2.32564 0
M  V30 171 C 17.0911 4.13402 1.72636 0
M  V30 172 C 18.8351 2.9128 3.08798 0
M  V30 173 C 16.7421 5.23587 2.74975 0
M  V30 174 H 15.6721 0.579796 0.48203 0
M  V30 175 H 18.3231 1.74776 0.559056 0
M  V30 176 H 16.7051 2.49067 3.07866 0
M  V30 177 H 17.8791 4.49022 1.03519 0
M  V30 178 H 16.1941 4.0191 1.08892 0
M  V30 179 H 18.7911 3.70767 3.85274 0
M  V30 180 H 19.1341 2.00757 3.64695 0
M  V30 181 H 19.6671 3.16782 2.40611 0
M  V30 182 H 16.4061 6.16076 2.23897 0
M  V30 183 H 15.9261 4.92454 3.42417 0
M  V30 184 H 17.6051 5.51724 3.37949 0
M  V30 185 N 17.7372 -0.778329 1.37039 0
M  V30 186 C 18.6472 -1.92253 1.34446 0
M  V30 187 C 19.6632 -1.72267 0.244991 0
M  V30 188 O 20.8392 -1.95615 0.479258 0
M  V30 189 C 17.9042 -3.27282 1.144 0
M  V30 190 C 16.9652 -3.59969 2.33925 0
M  V30 191 C 16.1982 -4.88555 2.14825 0
M  V30 192 O 16.4212 -5.59113 1.12912 0
M  V30 193 O 15.3552 -5.20153 3.02861 0
M  V30 194 H 19.1812 -1.97392 2.30803 0
M  V30 195 H 16.7662 -0.920154 1.17701 0
M  V30 196 H 18.6482 -4.08062 1.05182 0
M  V30 197 H 17.3232 -3.23011 0.211124 0
M  V30 198 H 16.2302 -2.7945 2.48714 0
M  V30 199 H 17.5632 -3.68976 3.25757 0
M  V30 200 N 19.2153 -1.21501 -1.00376 0
M  V30 201 C 20.4623 -1.03299 -1.74171 0
M  V30 202 C 20.7903 0.433326 -1.89612 0
M  V30 203 O 20.0453 1.33779 -1.42834 0
M  V30 204 C 20.3443 -1.67673 -3.15627 0
M  V30 205 C 20.0103 -3.17533 -3.2013 0
M  V30 206 C 18.6723 -3.58427 -3.21067 0
M  V30 207 C 21.0243 -4.13504 -3.17275 0
M  V30 208 C 18.3523 -4.93794 -3.16835 0
M  V30 209 C 20.7043 -5.48834 -3.14585 0
M  V30 210 C 19.3683 -5.89123 -3.13831 0
M  V30 211 H 18.6383 -0.377999 -0.637336 0
M  V30 212 H 21.2853 -1.51111 -1.17634 0
M  V30 213 H 19.5903 -1.12158 -3.75404 0
M  V30 214 H 21.2873 -1.51091 -3.71446 0
M  V30 215 H 17.8773 -2.84965 -3.20145 0
M  V30 216 H 22.0613 -3.82936 -3.15711 0
M  V30 217 H 17.3173 -5.24255 -3.1459 0
M  V30 218 H 21.4913 -6.22934 -3.1133 0
M  V30 219 H 19.1183 -6.93984 -3.10307 0
M  V30 220 N 20.6934 1.19889 -1.02296 0
M  V30 221 C 21.9214 1.9339 -0.735399 0
M  V30 222 C 22.3364 1.75148 0.704887 0
M  V30 223 O 21.6934 1.06954 1.47875 0
M  V30 224 C 21.7444 3.45313 -1.06962 0
M  V30 225 O 21.4654 3.62964 -2.45334 0
M  V30 226 C 22.9664 4.35948 -0.804021 0
M  V30 227 H 20.1864 0.61448 -0.269546 0
M  V30 228 H 22.7304 1.522 -1.36585 0
M  V30 229 H 20.8854 3.84359 -0.484455 0
M  V30 230 H 21.2994 4.56886 -2.57595 0
M  V30 231 H 22.7734 5.41174 -1.0879 0
M  V30 232 H 23.2504 4.3842 0.261691 0
M  V30 233 H 23.8564 4.02574 -1.37164 0
M  V30 234 N 22.1715 0.800033 1.35784 0
M  V30 235 C 23.5825 0.439142 1.81462 0
M  V30 236 C 23.9335 -1.03813 1.66485 0
M  V30 237 O 23.0585 -1.80626 1.19177 0
M  V30 238 C 23.6535 0.790314 3.29453 0
M  V30 239 C 22.2125 0.482111 3.733 0
M  V30 240 C 21.3595 1.01938 2.57883 0
M  V30 241 H 24.3105 0.992254 1.23855 0
M  V30 242 H 24.3315 0.0853677 3.80404 0
M  V30 243 H 23.8435 1.86554 3.40322 0
M  V30 244 H 21.9445 -0.584652 3.67984 0
M  V30 245 H 22.0575 1.01015 4.6833 0
M  V30 246 H 20.4215 0.442043 2.50835 0
M  V30 247 H 21.2045 2.10059 2.71533 0
M  V30 248 N 23.6496 -1.47581 0.552962 0
M  V30 249 C 25.0656 -1.5818 0.212424 0
M  V30 250 C 25.2656 -1.55213 -1.28496 0
M  V30 251 O 24.3216 -1.45329 -2.06484 0
M  V30 252 C 25.6346 -2.88865 0.835318 0
M  V30 253 C 27.1826 -3.0244 0.806156 0
M  V30 254 C 27.6576 -4.35819 1.40804 0
M  V30 255 N 29.1486 -4.42444 1.37103 0
M  V30 256 C 29.8836 -5.44202 1.80641 0
M  V30 257 N 29.3796 -6.52795 2.32015 0
M  V30 258 N 31.1726 -5.35222 1.71738 0
M  V30 259 H 23.3236 -1.47753 1.52587 0
M  V30 260 H 25.5866 -0.702941 0.636064 0
M  V30 261 H 25.2926 -2.9676 1.88749 0
M  V30 262 H 25.1666 -3.7579 0.325848 0
M  V30 263 H 27.5536 -2.94144 -0.237317 0
M  V30 264 H 27.6346 -2.17068 1.35334 0
M  V30 265 H 27.2786 -4.44871 2.45056 0
M  V30 266 H 27.2086 -5.19916 0.836338 0
M  V30 267 H 29.6996 -3.6456 0.995202 0
M  V30 268 H 30.0126 -7.26609 2.63171 0
M  V30 269 H 28.3576 -6.53696 2.36023 0
M  V30 270 H 31.5486 -4.49284 1.31382 0
M  V30 271 H 31.7216 -6.14389 2.05987 0
M  V30 272 N 25.1277 -0.289203 -1.54924 0
M  V30 273 C 26.3737 0.323998 -2.00195 0
M  V30 274 C 26.7067 1.54441 -1.17735 0
M  V30 275 O 25.9817 1.92875 -0.250878 0
M  V30 276 C 26.2647 0.692276 -3.53383 0
M  V30 277 C 26.1177 -0.536457 -4.46589 0
M  V30 278 C 27.4367 1.52335 -4.12895 0
M  V30 279 H 24.5557 0.116289 -0.727768 0
M  V30 280 H 27.1977 -0.398954 -1.85764 0
M  V30 281 H 25.3477 1.30822 -3.65811 0
M  V30 282 H 27.0197 -1.17499 -4.46085 0
M  V30 283 H 25.2627 -1.17192 -4.1767 0
M  V30 284 H 25.9337 -0.234806 -5.515 0
M  V30 285 H 28.4097 1.00302 -4.0383 0
M  V30 286 H 27.2857 1.74982 -5.20262 0
M  V30 287 H 27.5467 2.50886 -3.64018 0
M  V30 288 N 26.6058 1.57591 -0.0167156 0
M  V30 289 C 27.8528 1.91283 0.664597 0
M  V30 290 C 28.1808 0.891949 1.72842 0
M  V30 291 O 27.4358 -0.100931 1.9544 0
M  V30 292 C 27.7348 3.3172 1.33029 0
M  V30 293 C 27.4008 4.4914 0.398047 0
M  V30 294 C 26.0628 4.80992 0.141421 0
M  V30 295 C 28.4148 5.20634 -0.242825 0
M  V30 296 C 25.7428 5.81703 -0.764092 0
M  V30 297 C 28.0948 6.22311 -1.13632 0
M  V30 298 C 26.7588 6.52611 -1.40196 0
M  V30 299 H 26.0288 0.699956 0.243193 0
M  V30 300 H 28.6758 1.9135 -0.0758267 0
M  V30 301 H 26.9808 3.27856 2.14517 0
M  V30 302 H 28.6778 3.55055 1.86379 0
M  V30 303 H 25.2678 4.24262 0.608238 0
M  V30 304 H 29.4518 4.96267 -0.0576019 0
M  V30 305 H 24.7078 6.03532 -0.977732 0
M  V30 306 H 28.8818 6.76834 -1.63917 0
M  V30 307 H 26.5088 7.30467 -2.10529 0
M  V30 308 N 28.0839 -0.256276 1.55502 0
M  V30 309 C 29.0469 -1.30047 1.88734 0
M  V30 310 C 30.0469 -1.4154 0.763086 0
M  V30 311 O 31.2369 -1.40403 1.03115 0
M  V30 312 C 28.3689 -2.67953 2.10747 0
M  V30 313 H 29.5619 -1.01802 2.82093 0
M  V30 314 H 27.1149 -0.495134 1.4825 0
M  V30 315 H 27.8499 -3.01351 1.19825 0
M  V30 316 H 27.6349 -2.60993 2.92617 0
M  V30 317 H 29.1249 -3.43368 2.37673 0
M  V30 318 N 29.562 -1.4872 -0.521534 0
M  V30 319 C 30.839 -1.4766 -1.2828 0
M  V30 320 C 31.219 -0.19292 -2.10217 0
M  V30 321 O 30.567 0.825193 -2.13079 0
M  V30 322 C 30.777 -2.74358 -2.15705 0
M  V30 323 C 32.125 -3.23028 -2.75569 0
M  V30 324 O 33.149 -2.75333 -2.25987 0
M  V30 325 O 32.008 -4.0604 -3.65778 0
M  V30 326 H 29.102 -0.590085 -0.579421 0
M  V30 327 H 31.648 -1.60963 -0.537492 0
M  V30 328 H 30.42 -3.59292 -1.54999 0
M  V30 329 H 30.043 -2.63816 -2.97467 0
M  V30 330 N 31.0401 0.771051 -1.3745 0
M  V30 331 C 32.3171 1.519 -1.23231 0
M  V30 332 C 32.6971 2.10383 0.173809 0
M  V30 333 O 32.0451 1.95583 1.18151 0
M  V30 334 C 32.2551 2.59933 -2.32886 0
M  V30 335 C 33.6031 3.27316 -2.70461 0
M  V30 336 O 34.6271 2.70228 -2.32068 0
M  V30 337 O 33.4861 4.30531 -3.36608 0
M  V30 338 H 30.5801 0.672803 -0.480901 0
M  V30 339 H 33.1261 0.807957 -1.49232 0
M  V30 340 H 31.8981 2.14842 -3.27045 0
M  V30 341 H 31.5211 3.38637 -2.08353 0
M  V30 342 N 32.5182 1.22032 0.997298 0
M  V30 343 C 33.9342 0.979326 1.26021 0
M  V30 344 C 34.1342 -0.32972 1.98784 0
M  V30 345 O 33.1902 -1.05345 2.29475 0
M  V30 346 C 34.5032 2.17509 2.07631 0
M  V30 347 C 36.0512 2.21817 2.2083 0
M  V30 348 C 36.5262 3.40933 3.05825 0
M  V30 349 N 38.0172 3.41067 3.13412 0
M  V30 350 C 38.7522 4.29885 3.79455 0
M  V30 351 N 38.2482 5.28914 4.47462 0
M  V30 352 N 40.0412 4.17673 3.76173 0
M  V30 353 H 32.1922 2.06202 0.509352 0
M  V30 354 H 34.4552 0.90334 0.287541 0
M  V30 355 H 34.1612 3.12415 1.61524 0
M  V30 356 H 34.0352 2.17206 3.08385 0
M  V30 357 H 36.4222 1.27462 2.66153 0
M  V30 358 H 36.5032 2.2616 1.1952 0
M  V30 359 H 36.1472 4.35586 2.61203 0
M  V30 360 H 36.0772 3.33829 4.07266 0
M  V30 361 H 38.5682 2.69406 2.65007 0
M  V30 362 H 38.8812 5.92973 4.95583 0
M  V30 363 H 37.2262 5.32831 4.46224 0
M  V30 364 H 40.4172 3.39564 3.22202 0
M  V30 365 H 40.5902 4.87098 4.27363 0
M  V30 366 N 33.9963 -1.19345 1.0293 0
M  V30 367 C 35.2443 -1.88665 0.724574 0
M  V30 368 C 35.5653 -1.80036 -0.749144 0
M  V30 369 O 34.8353 -1.2111 -1.53978 0
M  V30 370 H 33.4153 -0.698406 0.265025 0
M  V30 371 H 36.0773 -1.44885 1.30362 0
M  V30 372 H 35.1733 -2.94987 1.01926 0
M  V30 373 N 35.4744 -0.807222 -1.35358 0
M  V30 374 C 36.4044 -0.232509 -2.3234 0
M  V30 375 C 37.3854 0.642386 -1.57504 0
M  V30 376 O 38.5704 0.572526 -1.85569 0
M  V30 377 C 35.7004 0.619238 -3.41735 0
M  V30 378 C 34.6544 -0.157215 -4.27711 0
M  V30 379 C 33.9804 0.816273 -5.28433 0
M  V30 380 C 35.2804 -1.35656 -5.04376 0
M  V30 381 H 36.9744 -1.04276 -2.80654 0
M  V30 382 H 34.5204 -0.50288 -1.34934 0
M  V30 383 H 36.4734 1.03137 -4.08584 0
M  V30 384 H 35.1974 1.46239 -2.92031 0
M  V30 385 H 33.8564 -0.550525 -3.62443 0
M  V30 386 H 33.5044 1.65494 -4.74996 0
M  V30 387 H 33.2044 0.301067 -5.86828 0
M  V30 388 H 34.7284 1.22659 -5.98153 0
M  V30 389 H 36.1424 -1.01927 -5.64166 0
M  V30 390 H 34.5394 -1.8063 -5.7227 0
M  V30 391 H 35.6094 -2.14288 -4.34981 0
M  V30 392 N 36.9525 1.47285 -0.560781 0
M  V30 393 C 37.8825 2.32857 0.173105 0
M  V30 394 C 38.8635 1.44009 0.905281 0
M  V30 395 O 40.0485 1.7286 0.885046 0
M  V30 396 C 37.1785 3.25861 1.20133 0
M  V30 397 C 36.1325 4.23978 0.585388 0
M  V30 398 C 35.4585 5.06332 1.7185 0
M  V30 399 C 36.7585 5.20242 -0.463178 0
M  V30 400 H 38.4525 2.94466 -0.541307 0
M  V30 401 H 35.9985 1.41601 -0.261764 0
M  V30 402 H 37.9515 3.84569 1.72293 0
M  V30 403 H 36.6755 2.62315 1.94573 0
M  V30 404 H 35.3345 3.66501 0.085054 0
M  V30 405 H 34.9825 4.39186 2.45203 0
M  V30 406 H 34.6825 5.72762 1.31213 0
M  V30 407 H 36.2065 5.67899 2.24329 0
M  V30 408 H 37.6205 5.73293 -0.027502 0
M  V30 409 H 36.0175 5.94896 -0.788627 0
M  V30 410 H 37.0875 4.65504 -1.35773 0
M  V30 411 N 38.4306 0.297415 1.54768 0
M  V30 412 C 39.6796 -0.313669 1.99246 0
M  V30 413 C 39.9926 -1.55281 1.18942 0
M  V30 414 O 41.1986 -2.23825 1.5367 0
M  V30 415 C 39.6546 -0.609407 3.54703 0
M  V30 416 C 39.2626 0.611192 4.43811 0
M  V30 417 C 41.0066 -1.18188 4.07715 0
M  V30 418 C 38.9136 0.288805 5.90694 0
M  V30 419 H 37.8436 -0.120979 0.744231 0
M  V30 420 H 40.4946 0.40556 1.78962 0
M  V30 421 H 38.8766 -1.38813 3.70873 0
M  V30 422 H 40.0506 1.3875 4.39414 0
M  V30 423 H 38.3656 1.10205 4.01552 0
M  V30 424 H 40.9626 -1.43727 5.15021 0
M  V30 425 H 41.3056 -2.12299 3.58099 0
M  V30 426 H 41.8386 -0.464944 3.95074 0
M  V30 427 H 38.5776 1.19838 6.44453 0
M  V30 428 H 38.0976 -0.450305 5.98107 0
M  V30 429 H 39.7766 -0.110933 6.46905 0
M  V30 430 N 39.9087 -1.5758 0.0250728 0
M  V30 431 C 40.8387 -2.13007 -0.956575 0
M  V30 432 C 41.8197 -1.0452 -1.342 0
M  V30 433 O 43.0047 -1.32332 -1.42133 0
M  V30 434 C 40.1347 -2.65386 -2.24026 0
M  V30 435 C 39.0887 -3.78623 -1.99571 0
M  V30 436 C 38.4147 -4.17414 -3.3417 0
M  V30 437 C 39.7147 -5.04867 -1.33814 0
M  V30 438 H 41.4087 -2.9528 -0.494991 0
M  V30 439 H 38.9547 -1.42042 -0.236651 0
M  V30 440 H 40.9077 -3.02794 -2.93076 0
M  V30 441 H 39.6317 -1.80268 -2.72343 0
M  V30 442 H 38.2907 -3.41646 -1.32941 0
M  V30 443 H 37.9387 -3.29284 -3.80238 0
M  V30 444 H 37.6387 -4.93719 -3.18615 0
M  V30 445 H 39.1627 -4.57402 -4.04495 0
M  V30 446 H 40.5767 -5.39888 -1.92857 0
M  V30 447 H 38.9737 -5.86144 -1.28669 0
M  V30 448 H 40.0437 -4.83904 -0.310561 0
M  V30 449 N 41.3868 0.248026 -1.55636 0
M  V30 450 C 42.7978 0.817177 -1.67866 0
M  V30 451 C 43.1488 1.86069 -0.622322 0
M  V30 452 O 42.2738 2.15157 0.231618 0
M  V30 453 C 42.8688 1.489 -3.04326 0
M  V30 454 C 41.4278 2.00587 -3.185 0
M  V30 455 C 40.5748 0.856573 -2.63739 0
M  V30 456 H 43.5258 0.0238579 -1.58682 0
M  V30 457 H 43.5468 2.35698 -2.98708 0
M  V30 458 H 43.0588 0.729279 -3.81186 0
M  V30 459 H 41.1598 2.79443 -2.4646 0
M  V30 460 H 41.2728 2.20402 -4.25393 0
M  V30 461 H 39.6368 1.25678 -2.21534 0
M  V30 462 H 40.4198 0.109953 -3.43124 0
M  V30 463 N 42.8649 1.48995 0.513639 0
M  V30 464 C 44.0949 1.61297 1.291 0
M  V30 465 C 44.5029 0.278656 1.87137 0
M  V30 466 O 43.8459 -0.744325 1.67945 0
M  V30 467 C 43.9079 2.61326 2.46879 0
M  V30 468 C 43.5719 4.05993 2.09807 0
M  V30 469 C 44.5689 4.93183 1.64519 0
M  V30 470 C 42.2539 4.51642 2.19829 0
M  V30 471 C 44.2479 6.24056 1.2974 0
M  V30 472 C 41.9349 5.82532 1.84662 0
M  V30 473 C 42.9329 6.68562 1.3969 0
M  V30 474 O 42.6209 7.97014 1.04992 0
M  V30 475 H 42.3529 0.546236 0.39825 0
M  V30 476 H 44.9069 1.95673 0.62459 0
M  V30 477 H 43.1369 2.22104 3.16554 0
M  V30 478 H 44.8259 2.6329 3.08923 0
M  V30 479 H 45.5919 4.59147 1.56233 0
M  V30 480 H 41.4709 3.84855 2.53786 0
M  V30 481 H 45.0149 6.91161 0.945659 0
M  V30 482 H 40.9119 6.16099 1.92594 0
M  V30 483 H 41.6799 8.09913 1.18249 0
M  V30 484 N 44.343 -0.763751 1.37857 0
M  V30 485 C 45.275 -1.88664 1.30148 0
M  V30 486 C 46.288 -1.61365 0.215685 0
M  V30 487 O 47.477 -1.72134 0.472459 0
M  V30 488 C 44.577 -3.24075 0.991396 0
M  V30 489 C 43.75 -3.78958 2.18426 0
M  V30 490 C 42.809 -4.92862 1.8432 0
M  V30 491 O 41.835 -5.08027 2.56704 0
M  V30 492 N 43.037 -5.75071 0.792081 0
M  V30 493 H 45.802 -1.95791 2.26905 0
M  V30 494 H 43.363 -0.943226 1.31586 0
M  V30 495 H 45.355 -3.97804 0.743935 0
M  V30 496 H 43.925 -3.12399 0.112122 0
M  V30 497 H 43.145 -2.96913 2.59299 0
M  V30 498 H 44.433 -4.12357 2.98058 0
M  V30 499 H 43.831 -5.65375 0.191595 0
M  V30 500 H 42.388 -6.48991 0.60449 0
M  V30 501 N 45.8211 -1.22559 -0.990812 0
M  V30 502 C 46.7311 -1.01394 -2.11557 0
M  V30 503 C 47.7471 0.0383962 -1.73958 0
M  V30 504 O 48.9231 -0.154787 -2.00804 0
M  V30 505 C 45.9881 -0.596569 -3.41529 0
M  V30 506 C 45.0491 -1.72276 -3.93217 0
M  V30 507 C 44.2821 -1.32521 -5.16985 0
M  V30 508 O 44.5051 -0.204909 -5.70032 0
M  V30 509 O 43.4391 -2.14247 -5.62478 0
M  V30 510 H 47.2651 -1.95633 -2.32296 0
M  V30 511 H 44.8501 -1.01172 -1.0993 0
M  V30 512 H 46.7321 -0.374263 -4.19735 0
M  V30 513 H 45.4071 0.316939 -3.22145 0
M  V30 514 H 44.3141 -1.99961 -3.16174 0
M  V30 515 H 45.6471 -2.61421 -4.17037 0
M  V30 516 N 47.2992 1.18797 -1.03562 0
M  V30 517 C 48.2092 2.25913 -0.632505 0
M  V30 518 C 49.2252 1.70668 0.338882 0
M  V30 519 O 50.4012 2.00453 0.195076 0
M  V30 520 C 47.4662 3.467 0.00350942 0
M  V30 521 C 46.5272 4.17098 -1.01624 0
M  V30 522 C 45.7602 5.32119 -0.410478 0
M  V30 523 O 45.9832 5.64976 0.784725 0
M  V30 524 O 44.9172 5.9107 -1.13667 0
M  V30 525 H 48.7432 2.62648 -1.52478 0
M  V30 526 H 46.3282 1.25781 -0.806195 0
M  V30 527 H 48.2102 4.19878 0.35781 0
M  V30 528 H 46.8852 3.11798 0.869686 0
M  V30 529 H 45.7922 3.4601 -1.42224 0
M  V30 530 H 47.1252 4.55987 -1.85301 0
M  V30 531 N 48.7773 0.814389 1.34928 0
M  V30 532 C 49.7403 0.235759 2.27984 0
M  V30 533 C 50.7403 -0.581412 1.49921 0
M  V30 534 O 51.9303 -0.398758 1.69575 0
M  V30 535 C 49.0623 -0.670433 3.34242 0
M  V30 536 H 50.2553 1.05659 2.80671 0
M  V30 537 H 47.8083 0.585614 1.44915 0
M  V30 538 H 48.5433 -1.51466 2.86755 0
M  V30 539 H 48.3283 -0.0860822 3.92005 0
M  V30 540 H 49.8183 -1.06935 4.03676 0
M  V30 541 N 50.2554 -1.46986 0.568584 0
M  V30 542 C 51.5024 -2.02441 0.0487986 0
M  V30 543 C 51.8304 -1.44169 -1.30559 0
M  V30 544 O 51.0854 -0.591213 -1.86556 0
M  V30 545 C 51.3844 -3.57306 -0.081836 0
M  V30 546 C 51.0504 -4.34552 1.20313 0
M  V30 547 C 49.7124 -4.55376 1.5552 0
M  V30 548 C 52.0644 -4.79016 2.05411 0
M  V30 549 C 49.3924 -5.17913 2.7565 0
M  V30 550 C 51.7444 -5.42879 3.24754 0
M  V30 551 C 50.4084 -5.61933 3.60261 0
M  V30 552 H 49.6784 -0.740785 0.0178567 0
M  V30 553 H 52.3254 -1.76525 0.742384 0
M  V30 554 H 50.6304 -3.8228 -0.858463 0
M  V30 555 H 52.3274 -3.97876 -0.499546 0
M  V30 556 H 48.9174 -4.18631 0.919014 0
M  V30 557 H 53.1014 -4.62696 1.79516 0
M  V30 558 H 48.3574 -5.30858 3.03315 0
M  V30 559 H 52.5314 -5.76293 3.90973 0
M  V30 560 H 50.1584 -6.10161 4.53439 0
M  V30 561 N 51.7335 -0.305618 -1.54608 0
M  V30 562 C 52.9795 0.302746 -2.00528 0
M  V30 563 C 53.3125 1.53184 -1.19367 0
M  V30 564 O 52.5875 1.92598 -0.271321 0
M  V30 565 C 52.8705 0.654756 -3.54097 0
M  V30 566 C 52.7235 -0.583793 -4.45995 0
M  V30 567 C 54.0425 1.47947 -4.14487 0
M  V30 568 H 51.1615 0.108564 -0.72896 0
M  V30 569 H 53.8035 -0.418634 -1.85331 0
M  V30 570 H 51.9535 1.26935 -3.67178 0
M  V30 571 H 53.6255 -1.22224 -4.44814 0
M  V30 572 H 51.8685 -1.21615 -4.16404 0
M  V30 573 H 52.5395 -0.293287 -5.5122 0
M  V30 574 H 55.0155 0.96013 -4.04871 0
M  V30 575 H 53.8915 1.69454 -5.22088 0
M  V30 576 H 54.1525 2.47011 -3.66658 0
M  V30 577 N 53.2116 1.57565 -0.0334293 0
M  V30 578 C 54.1216 2.13943 0.962572 0
M  V30 579 C 55.1376 1.09276 1.35406 0
M  V30 580 O 56.3136 1.41355 1.4346 0
M  V30 581 C 53.3786 2.65887 2.22497 0
M  V30 582 C 52.4396 3.85286 1.8935 0
M  V30 583 C 51.6726 4.34743 3.09571 0
M  V30 584 O 51.8956 3.83352 4.22371 0
M  V30 585 O 50.8296 5.26538 2.91618 0
M  V30 586 H 54.6556 2.99333 0.513169 0
M  V30 587 H 52.2406 1.4822 0.18743 0
M  V30 588 H 54.1226 2.99346 2.96598 0
M  V30 589 H 52.7976 1.83578 2.6661 0
M  V30 590 H 51.7046 3.56746 1.1262 0
M  V30 591 H 53.0376 4.68771 1.5005 0
M  V30 592 N 54.6897 -0.239769 1.55765 0
M  V30 593 C 55.6527 -1.28038 1.90103 0
M  V30 594 C 56.6527 -1.40723 0.778055 0
M  V30 595 O 57.8427 -1.39301 1.04599 0
M  V30 596 C 54.9747 -2.65702 2.13577 0
M  V30 597 H 56.1677 -0.988048 2.83157 0
M  V30 598 H 53.7207 -0.479382 1.48767 0
M  V30 599 H 54.4557 -3.00063 1.23015 0
M  V30 600 H 54.2407 -2.57875 2.95369 0
M  V30 601 H 55.7307 -3.40828 2.41301 0
M  V30 602 N 56.1678 -1.49265 -0.50573 0
M  V30 603 C 57.1178 -1.6198 -1.60457 0
M  V30 604 C 58.1018 -0.47568 -1.53708 0
M  V30 605 O 59.2938 -0.728392 -1.61318 0
M  V30 606 C 56.4228 -1.68526 -2.99089 0
M  V30 607 C 55.5088 -2.885 -3.10852 0
M  V30 608 N 55.8998 -4.12635 -2.92517 0
M  V30 609 C 54.1978 -2.86338 -3.41945 0
M  V30 610 C 54.8988 -4.93258 -3.08337 0
M  V30 611 N 53.8748 -4.26533 -3.37003 0
M  V30 612 H 57.6768 -2.55681 -1.44928 0
M  V30 613 H 55.1908 -1.45972 -0.711752 0
M  V30 614 H 57.1878 -1.75732 -3.78053 0
M  V30 615 H 55.8478 -0.759584 -3.1569 0
M  V30 616 H 56.8588 -4.42689 -2.68787 0
M  V30 617 H 53.5358 -2.03129 -3.64753 0
M  V30 618 H 54.9258 -6.01856 -2.98695 0
M  V30 619 N 57.6459 0.756429 -1.3826 0
M  V30 620 C 58.8939 1.51248 -1.34047 0
M  V30 621 C 59.2149 1.94875 0.0698372 0
M  V30 622 O 58.4849 1.67436 1.01696 0
M  V30 623 H 57.0649 0.561018 -0.493222 0
M  V30 624 H 59.7269 0.899347 -1.7291 0
M  V30 625 H 58.8229 2.40472 -1.98947 0
M  V30 626 N 59.124 1.23083 0.984299 0
M  V30 627 C 60.372 1.05848 1.72165 0
M  V30 628 C 60.693 -0.406049 1.90726 0
M  V30 629 O 59.963 -1.29139 1.47309 0
M  V30 630 H 58.543 0.388685 0.637913 0
M  V30 631 H 61.205 1.54736 1.18503 0
M  V30 632 H 60.301 1.54327 2.71274 0
M  V30 633 N 60.6021 -1.18246 1.0419 0
M  V30 634 C 62.0131 -1.69914 0.773698 0
M  V30 635 C 62.3641 -1.83085 -0.705297 0
M  V30 636 O 61.4891 -1.51123 -1.5489 0
M  V30 637 C 62.0841 -3.08619 1.39784 0
M  V30 638 C 60.6431 -3.57494 1.17792 0
M  V30 639 C 59.7901 -2.34013 1.48773 0
M  V30 640 H 62.7411 -1.02904 1.20816 0
M  V30 641 H 62.7621 -3.71958 0.801714 0
M  V30 642 H 62.2741 -2.99001 2.47426 0
M  V30 643 H 60.3751 -3.72406 0.120295 0
M  V30 644 H 60.4881 -4.40852 1.87581 0
M  V30 645 H 58.8521 -2.37986 0.907463 0
M  V30 646 H 59.6351 -2.27013 2.57527 0
M  V30 647 N 62.0802 -0.821533 -1.34494 0
M  V30 648 C 63.0102 -0.257138 -2.3208 0
M  V30 649 C 63.9912 0.625645 -1.58176 0
M  V30 650 O 65.1762 0.552811 -1.86166 0
M  V30 651 C 62.3062 0.582958 -3.42372 0
M  V30 652 C 61.2602 -0.202571 -4.2752 0
M  V30 653 C 60.5862 0.760179 -5.29269 0
M  V30 654 C 61.8862 -1.40998 -5.02908 0
M  V30 655 H 63.5802 -1.07247 -2.79532 0
M  V30 656 H 61.1262 -0.517163 -1.34393 0
M  V30 657 H 63.0792 0.987972 -4.09655 0
M  V30 658 H 61.8032 1.43133 -2.93565 0
M  V30 659 H 60.4622 -0.588936 -3.61838 0
M  V30 660 H 60.1102 1.60447 -4.76724 0
M  V30 661 H 59.8102 0.238809 -5.87115 0
M  V30 662 H 61.3342 1.16308 -5.9942 0
M  V30 663 H 62.7482 -1.07905 -5.63054 0
M  V30 664 H 61.1452 -1.86689 -5.70322 0
M  V30 665 H 62.2152 -2.1889 -4.32684 0
M  V30 666 N 63.5583 1.46682 -0.576371 0
M  V30 667 C 64.8053 2.02412 -0.0595339 0
M  V30 668 C 65.1333 1.44859 1.29793 0
M  V30 669 O 64.3883 0.601099 1.8624 0
M  V30 670 C 64.6873 3.57345 0.062886 0
M  V30 671 C 64.3533 4.33908 -1.22616 0
M  V30 672 C 63.0153 4.54544 -1.57933 0
M  V30 673 C 65.3673 4.77919 -2.07948 0
M  V30 674 C 62.6953 5.16444 -2.78393 0
M  V30 675 C 65.0473 5.41149 -3.27629 0
M  V30 676 C 63.7113 5.60014 -3.63236 0
M  V30 677 H 62.9813 0.74068 -0.021785 0
M  V30 678 H 65.6283 1.76128 -0.751735 0
M  V30 679 H 63.9333 3.82729 0.838178 0
M  V30 680 H 65.6303 3.98136 0.478439 0
M  V30 681 H 62.2203 4.18138 -0.941202 0
M  V30 682 H 66.4043 4.61738 -1.81967 0
M  V30 683 H 61.6603 5.29242 -3.06126 0
M  V30 684 H 65.8343 5.74211 -3.94023 0
M  V30 685 H 63.4613 6.07748 -4.56669 0
M  V30 686 N 65.0364 0.313813 1.54444 0
M  V30 687 C 66.4524 -0.0391619 1.59552 0
M  V30 688 C 66.6524 -1.51322 1.33056 0
M  V30 689 O 65.7084 -2.26782 1.11022 0
M  V30 690 C 67.0214 0.370302 2.98411 0
M  V30 691 C 68.5694 0.320139 3.11358 0
M  V30 692 C 69.0444 0.704617 4.52547 0
M  V30 693 N 70.5354 0.657645 4.58508 0
M  V30 694 C 71.2704 0.927453 5.6585 0
M  V30 695 N 70.7664 1.26389 6.81174 0
M  V30 696 N 72.5594 0.853662 5.5558 0
M  V30 697 H 64.7104 1.27433 1.69925 0
M  V30 698 H 66.9734 0.517511 0.794284 0
M  V30 699 H 66.6794 1.39694 3.22767 0
M  V30 700 H 66.5534 -0.269619 3.76235 0
M  V30 701 H 68.9404 -0.697275 2.86744 0
M  V30 702 H 69.0214 0.99486 2.35661 0
M  V30 703 H 68.6654 1.7199 4.77893 0
M  V30 704 H 68.5954 0.00768843 5.26599 0
M  V30 705 H 71.0864 0.409067 3.75679 0
M  V30 706 H 71.3994 1.4554 7.58972 0
M  V30 707 H 69.7444 1.30206 6.82694 0
M  V30 708 H 72.9354 0.590383 4.64362 0
M  V30 709 H 73.1084 1.0673 6.3915 0
M  V30 710 N 66.5145 -1.57545 0.0417849 0
M  V30 711 C 67.7605 -1.92601 -0.635021 0
M  V30 712 C 68.0935 -0.919627 -1.71045 0
M  V30 713 O 67.3685 0.0557892 -1.9442 0
M  V30 714 C 67.6515 -3.38085 -1.23979 0
M  V30 715 C 67.5045 -4.49467 -0.173057 0
M  V30 716 C 68.8235 -3.83776 -2.15416 0
M  V30 717 H 65.9425 -0.700397 -0.229374 0
M  V30 718 H 68.5845 -1.89728 0.101633 0
M  V30 719 H 66.7345 -3.40664 -1.86762 0
M  V30 720 H 68.4065 -4.59018 0.458312 0
M  V30 721 H 66.6495 -4.30909 0.499996 0
M  V30 722 H 67.3205 -5.48323 -0.636054 0
M  V30 723 H 69.7965 -3.83013 -1.62605 0
M  V30 724 H 68.6725 -4.8624 -2.54679 0
M  V30 725 H 68.9335 -3.19998 -3.05047 0
M  V30 726 N 67.9926 0.231505 -1.5589 0
M  V30 727 C 68.9556 1.27028 -1.90779 0
M  V30 728 C 69.9556 1.40308 -0.785507 0
M  V30 729 O 71.1456 1.38744 -1.05336 0
M  V30 730 C 68.2776 2.64566 -2.14983 0
M  V30 731 H 69.4706 0.973017 -2.83677 0
M  V30 732 H 67.0236 0.471486 -1.49019 0
M  V30 733 H 67.7586 2.99406 -1.24604 0
M  V30 734 H 67.5436 2.56305 -2.96732 0
M  V30 735 H 69.0336 3.39543 -2.43105 0
M  V30 736 N 69.4707 1.49531 0.497807 0
M  V30 737 C 70.4027 1.62559 1.61578 0
M  V30 738 C 71.4157 0.508134 1.54667 0
M  V30 739 O 72.6047 0.780309 1.60541 0
M  V30 740 C 69.7047 1.56925 3.00379 0
M  V30 741 C 68.8777 2.84257 3.3244 0
M  V30 742 C 67.9367 2.71632 4.50669 0
M  V30 743 O 66.9627 3.4557 4.52294 0
M  V30 744 N 68.1647 1.83391 5.5077 0
M  V30 745 H 70.9297 2.58981 1.50828 0
M  V30 746 H 68.4907 1.4666 0.685743 0
M  V30 747 H 70.4827 1.46129 3.77397 0
M  V30 748 H 69.0527 0.683483 3.05037 0
M  V30 749 H 68.2727 3.09381 2.44289 0
M  V30 750 H 69.5607 3.68666 3.5066 0
M  V30 751 H 68.9587 1.22583 5.52259 0
M  V30 752 H 67.5157 1.78515 6.26878 0
M  V30 753 N 70.9488 -0.749086 1.3866 0
M  V30 754 C 72.1768 -1.53834 1.38358 0
M  V30 755 C 72.5918 -1.88783 -0.0255219 0
M  V30 756 O 71.9488 -1.53101 -0.993292 0
M  V30 757 C 71.9998 -2.83468 2.2434 0
M  V30 758 O 71.7208 -2.50008 3.5976 0
M  V30 759 C 73.2218 -3.7758 2.32267 0
M  V30 760 H 70.4418 -0.47585 0.473083 0
M  V30 761 H 72.9858 -0.926726 1.82297 0
M  V30 762 H 71.1408 -3.40995 1.83851 0
M  V30 763 H 71.5548 -3.33182 4.05081 0
M  V30 764 H 73.0288 -4.65478 2.96706 0
M  V30 765 H 73.5058 -4.18334 1.33765 0
M  V30 766 H 74.1118 -3.25976 2.73166 0
M  V30 767 N 72.4269 -1.23603 -0.977757 0
M  V30 768 C 73.6759 -1.06377 -1.71368 0
M  V30 769 C 73.9889 0.399062 -1.91486 0
M  V30 770 O 75.1949 0.691312 -2.62551 0
M  V30 771 C 73.6509 -1.85512 -3.08404 0
M  V30 772 C 73.2589 -3.36141 -2.96164 0
M  V30 773 C 75.0029 -1.76783 -3.85938 0
M  V30 774 C 72.9099 -4.07659 -4.28449 0
M  V30 775 H 71.8399 -0.394452 -0.642591 0
M  V30 776 H 74.4909 -1.47594 -1.09034 0
M  V30 777 H 72.8729 -1.37103 -3.71509 0
M  V30 778 H 74.0469 -3.92056 -2.42133 0
M  V30 779 H 72.3619 -3.45712 -2.32104 0
M  V30 780 H 74.9589 -2.27526 -4.83876 0
M  V30 781 H 75.3019 -0.731116 -4.0983 0
M  V30 782 H 75.8349 -2.22818 -3.2954 0
M  V30 783 H 72.5739 -5.11648 -4.09752 0
M  V30 784 H 72.0939 -3.5653 -4.82334 0
M  V30 785 H 73.7729 -4.141 -4.97122 0
M  V30 786 N 73.905 1.17692 -1.04816 0
M  V30 787 C 74.855 2.1952 -0.616042 0
M  V30 788 C 75.839 1.57147 0.345485 0
M  V30 789 O 77.031 1.76245 0.163325 0
M  V30 790 C 74.16 3.43298 0.0116917 0
M  V30 791 C 73.246 4.12777 -0.973435 0
M  V30 792 N 73.637 4.5814 -2.14339 0
M  V30 793 C 71.935 4.38747 -0.80108 0
M  V30 794 C 72.636 5.11713 -2.7663 0
M  V30 795 N 71.612 5.03686 -2.04453 0
M  V30 796 H 75.414 2.52293 -1.5075 0
M  V30 797 H 72.928 1.3398 -0.917776 0
M  V30 798 H 74.925 4.15519 0.339006 0
M  V30 799 H 73.585 3.12018 0.898593 0
M  V30 800 H 74.596 4.52349 -2.52191 0
M  V30 801 H 71.273 4.17485 0.0350934 0
M  V30 802 H 72.663 5.56962 -3.75823 0
M  V30 803 N 75.3831 0.828654 1.34056 0
M  V30 804 C 76.6081 0.431637 2.02859 0
M  V30 805 C 77.0331 -0.956339 1.61975 0
M  V30 806 O 76.3911 -1.62338 0.807228 0
M  V30 807 C 76.4391 0.548323 3.56407 0
M  V30 808 O 75.5431 -0.429556 4.10157 0
M  V30 809 H 74.8841 0.176886 0.640006 0
M  V30 810 H 77.4141 1.12066 1.71179 0
M  V30 811 H 77.4241 0.426196 4.05768 0
M  V30 812 H 76.0991 1.5606 3.8551 0
M  V30 813 H 74.6761 -0.265836 3.71951 0
M  V30 814 N 76.8612 -1.46375 0.584142 0
M  V30 815 C 77.7942 -2.27351 -0.196676 0
M  V30 816 C 78.7722 -1.35715 -0.895561 0
M  V30 817 O 79.9562 -1.65126 -0.90916 0
M  V30 818 C 77.0832 -3.13486 -1.28235 0
M  V30 819 C 76.1292 -4.20896 -0.689145 0
M  V30 820 S 76.9622 -5.33299 0.48507 0
M  V30 821 C 78.1182 -6.23 -0.601767 0
M  V30 822 H 78.3512 -2.93228 0.490395 0
M  V30 823 H 75.8842 -1.49875 0.371071 0
M  V30 824 H 77.8422 -3.63676 -1.90395 0
M  V30 825 H 76.5032 -2.4692 -1.94138 0
M  V30 826 H 75.6962 -4.80997 -1.50527 0
M  V30 827 H 75.2982 -3.73726 -0.143181 0
M  V30 828 H 77.5902 -6.60979 -1.48705 0
M  V30 829 H 78.5332 -7.0809 -0.0374799 0
M  V30 830 H 78.9412 -5.57173 -0.906557 0
M  V30 831 N 78.3393 -0.321999 -1.54275 0
M  V30 832 C 79.5643 0.285791 -2.05422 0
M  V30 833 C 79.9893 1.45124 -1.19669 0
M  V30 834 O 79.3473 1.80132 -0.205441 0
M  V30 835 C 79.3953 0.69956 -3.53749 0
M  V30 836 O 78.4993 1.8021 -3.70942 0
M  V30 837 H 77.8403 0.0518962 -0.661969 0
M  V30 838 H 80.3703 -0.469954 -1.9913 0
M  V30 839 H 80.3803 0.982649 -3.9599 0
M  V30 840 H 79.0553 -0.152864 -4.15619 0
M  V30 841 H 77.6323 1.51794 -3.40607 0
M  V30 842 N 79.8174 1.5752 -0.0501392 0
M  V30 843 C 80.7644 2.1147 0.924603 0
M  V30 844 C 81.7344 1.02182 1.30951 0
M  V30 845 O 82.9194 1.29723 1.39916 0
M  V30 846 C 80.0594 2.66337 2.19451 0
M  V30 847 C 79.1724 3.89708 1.86418 0
M  V30 848 C 78.3074 4.32893 3.07859 0
M  V30 849 C 77.3464 5.48967 2.70742 0
M  V30 850 N 76.4834 5.87211 3.84874 0
M  V30 851 H 81.3234 2.94465 0.457639 0
M  V30 852 H 78.8604 1.45531 0.214266 0
M  V30 853 H 80.8184 2.96247 2.93758 0
M  V30 854 H 79.4484 1.86141 2.63726 0
M  V30 855 H 78.5004 3.66396 1.02264 0
M  V30 856 H 79.8124 4.74074 1.55096 0
M  V30 857 H 78.9664 4.6435 3.90466 0
M  V30 858 H 77.7054 3.47336 3.42358 0
M  V30 859 H 76.7104 5.17183 1.86551 0
M  V30 860 H 77.9354 6.3624 2.37436 0
M  V30 861 H 75.8814 5.04607 4.19175 0
M  V30 862 H 75.7984 6.66266 3.57247 0
M  V30 863 H 77.0664 6.23282 4.68123 0
M  V30 864 N 81.2955 -0.223234 1.56011 0
M  V30 865 C 82.7115 -0.572856 1.48965 0
M  V30 866 C 82.9115 -1.87225 0.74492 0
M  V30 867 O 81.9675 -2.50899 0.283896 0
M  V30 868 C 83.2805 -0.653646 2.9351 0
M  V30 869 C 84.8285 -0.744386 3.0402 0
M  V30 870 C 85.3035 -0.856535 4.49919 0
M  V30 871 N 86.7945 -0.9208 4.53955 0
M  V30 872 C 87.5295 -1.02726 5.64123 0
M  V30 873 N 87.0255 -1.09777 6.84047 0
M  V30 874 N 88.8185 -1.06226 5.51971 0
M  V30 875 H 80.9695 0.629462 2.02858 0
M  V30 876 H 83.2325 0.220621 0.921971 0
M  V30 877 H 82.9385 0.231518 3.50937 0
M  V30 878 H 82.8125 -1.51781 3.45315 0
M  V30 879 H 85.1995 -1.61999 2.46658 0
M  V30 880 H 85.2805 0.14541 2.55386 0
M  V30 881 H 84.9245 0.0146069 5.07898 0
M  V30 882 H 84.8545 -1.76172 4.96257 0
M  V30 883 H 87.3455 -0.876694 3.6759 0
M  V30 884 H 87.6585 -1.17872 7.63758 0
M  V30 885 H 86.0035 -1.06693 6.86762 0
M  V30 886 H 89.1945 -1.00382 4.5721 0
M  V30 887 H 89.3675 -1.14177 6.37862 0
M  V30 888 N 82.7736 -1.49793 -0.48987 0
M  V30 889 C 84.0216 -1.59525 -1.24081 0
M  V30 890 C 84.3426 -0.288953 -1.92847 0
M  V30 891 O 83.6126 0.692436 -1.83254 0
M  V30 892 H 82.1926 -0.587796 -0.460983 0
M  V30 893 H 84.8546 -1.86477 -0.566778 0
M  V30 894 H 83.9506 -2.39696 -1.99881 0
M  V30 895 N 84.2517 0.741722 -1.39055 0
M  V30 896 C 85.4977 1.50336 -1.36113 0
M  V30 897 C 85.8307 1.94148 0.0450796 0
M  V30 898 O 85.1057 1.66301 1.00868 0
M  V30 899 C 85.3887 2.74773 -2.32749 0
M  V30 900 C 85.2417 2.37023 -3.82283 0
M  V30 901 C 86.5607 3.76846 -2.27322 0
M  V30 902 H 83.6797 0.545351 -0.495743 0
M  V30 903 H 86.3217 0.848624 -1.69995 0
M  V30 904 H 84.4717 3.30639 -2.03986 0
M  V30 905 H 86.1437 1.8684 -4.21768 0
M  V30 906 H 84.3867 1.69334 -3.99385 0
M  V30 907 H 85.0577 3.26104 -4.45376 0
M  V30 908 H 87.5337 3.30548 -2.5274 0
M  V30 909 H 86.4097 4.6159 -2.97028 0
M  V30 910 H 86.6707 4.23286 -1.27599 0
M  V30 911 N 85.7298 1.2412 0.971189 0
M  V30 912 C 86.9758 1.08041 1.71625 0
M  V30 913 C 87.3088 -0.380407 1.90438 0
M  V30 914 O 86.5838 -1.28127 1.46334 0
M  V30 915 C 86.8668 1.81682 3.10908 0
M  V30 916 C 86.7198 3.35493 2.99608 0
M  V30 917 C 88.0388 1.58671 4.10501 0
M  V30 918 H 85.1578 0.39388 0.622919 0
M  V30 919 H 87.7998 1.52743 1.13003 0
M  V30 920 H 85.9498 1.43684 3.60953 0
M  V30 921 H 87.6218 3.83068 2.57015 0
M  V30 922 H 85.8648 3.64052 2.35899 0
M  V30 923 H 86.5358 3.82217 3.98264 0
M  V30 924 H 89.0118 1.91719 3.69301 0
M  V30 925 H 87.8878 2.1266 5.06031 0
M  V30 926 H 88.1488 0.524161 4.38982 0
M  V30 927 N 87.2079 -1.17134 1.05439 0
M  V30 928 C 88.6239 -1.39454 0.776201 0
M  V30 929 C 88.8239 -1.91454 -0.628307 0
M  V30 930 O 87.8799 -2.10777 -1.39031 0
M  V30 931 C 89.1929 -2.38305 1.83388 0
M  V30 932 C 90.7409 -2.52006 1.85639 0
M  V30 933 C 91.2159 -3.54133 2.90437 0
M  V30 934 N 92.7069 -3.61653 2.89415 0
M  V30 935 C 93.4419 -4.4044 3.67152 0
M  V30 936 N 92.9379 -5.22721 4.54681 0
M  V30 937 N 94.7309 -4.35337 3.55581 0
M  V30 938 H 86.8819 -0.817134 1.96053 0
M  V30 939 H 89.1449 -0.421626 0.849079 0
M  V30 940 H 88.8509 -2.07173 2.84204 0
M  V30 941 H 88.7249 -3.37841 1.67761 0
M  V30 942 H 91.1119 -2.82447 0.85486 0
M  V30 943 H 91.1929 -1.52537 2.05344 0
M  V30 944 H 90.8369 -3.24431 3.90777 0
M  V30 945 H 90.7669 -4.53313 2.67983 0
M  V30 946 H 93.2579 -3.02909 2.25952 0
M  V30 947 H 93.5709 -5.80027 5.10674 0
M  V30 948 H 91.9159 -5.22093 4.58741 0
M  V30 949 H 95.1069 -3.70112 2.86592 0
M  V30 950 H 95.2799 -4.96494 4.1641 0
M  V30 951 N 88.686 -0.835752 -1.33615 0
M  V30 952 C 89.934 -0.429109 -1.97492 0
M  V30 953 C 90.255 1.01433 -1.66543 0
M  V30 954 O 89.525 1.70611 -0.962744 0
M  V30 955 H 88.105 -0.155686 -0.730596 0
M  V30 956 H 90.767 -1.06802 -1.63031 0
M  V30 957 H 89.863 -0.55861 -3.0706 0
M  V30 958 N 90.1641 1.46063 -0.591896 0
M  V30 959 C 91.4131 2.01547 -0.0786637 0
M  V30 960 C 91.7261 1.46796 1.29268 0
M  V30 961 O 92.9321 1.94157 1.89777 0
M  V30 962 C 91.3881 3.59787 -0.0900024 0
M  V30 963 C 90.9961 4.23534 -1.46023 0
M  V30 964 C 92.7401 4.22895 0.368806 0
M  V30 965 C 90.6471 5.73881 -1.4288 0
M  V30 966 H 89.5771 0.753564 -0.0256388 0
M  V30 967 H 92.2281 1.677 -0.744905 0
M  V30 968 H 90.6101 3.90752 0.642586 0
M  V30 969 H 91.7841 4.04167 -2.21328 0
M  V30 970 H 90.0991 3.72558 -1.85982 0
M  V30 971 H 92.6961 5.33116 0.411258 0
M  V30 972 H 93.0391 3.9247 1.38827 0
M  V30 973 H 93.5721 3.9659 -0.31001 0
M  V30 974 H 90.3111 6.0898 -2.42536 0
M  V30 975 H 89.8311 5.95486 -0.718095 0
M  V30 976 H 91.5101 6.36776 -1.14565 0
M  V30 977 N 91.6422 0.330177 1.54103 0
M  V30 978 C 92.5922 -0.548456 2.21305 0
M  V30 979 C 93.5762 -1.07651 1.19583 0
M  V30 980 O 94.7682 -1.01243 1.45186 0
M  V30 981 C 91.8972 -1.70559 2.97934 0
M  V30 982 C 90.9832 -1.19212 4.07 0
M  V30 983 N 91.3742 -0.398831 5.04225 0
M  V30 984 C 89.6722 -1.47024 4.2107 0
M  V30 985 C 90.3732 -0.121761 5.81573 0
M  V30 986 N 89.3492 -0.709722 5.38947 0
M  V30 987 H 93.1512 0.0648483 2.93828 0
M  V30 988 H 90.6652 0.136363 1.61826 0
M  V30 989 H 92.6622 -2.34688 3.44568 0
M  V30 990 H 91.3222 -2.32231 2.26934 0
M  V30 991 H 92.3332 -0.0410869 5.17884 0
M  V30 992 H 89.0102 -2.09232 3.61287 0
M  V30 993 H 90.4002 0.517298 6.69906 0
M  V30 994 N 93.1203 -1.57491 0.0584922 0
M  V30 995 C 94.3503 -1.9701 -0.622134 0
M  V30 996 C 94.7583 -0.935034 -1.6448 0
M  V30 997 O 94.1013 0.0882904 -1.83488 0
M  V30 998 C 94.1633 -3.32794 -1.35972 0
M  V30 999 C 93.8273 -4.54343 -0.492043 0
M  V30 1000 C 94.8243 -5.19323 0.244901 0
M  V30 1001 C 92.5093 -5.00534 -0.420821 0
M  V30 1002 C 94.5033 -6.28835 1.04143 0
M  V30 1003 C 92.1903 -6.09921 0.379389 0
M  V30 1004 C 93.1883 -6.73933 1.10919 0
M  V30 1005 O 92.8763 -7.81216 1.89623 0
M  V30 1006 H 92.6083 -0.653127 -0.174359 0
M  V30 1007 H 95.1623 -2.05029 0.123418 0
M  V30 1008 H 93.3923 -3.21351 -2.15105 0
M  V30 1009 H 95.0813 -3.5701 -1.93129 0
M  V30 1010 H 95.8473 -4.8459 0.19939 0
M  V30 1011 H 91.7263 -4.50496 -0.978474 0
M  V30 1012 H 95.2703 -6.7873 1.61157 0
M  V30 1013 H 91.1673 -6.44089 0.426512 0
M  V30 1014 H 91.9353 -7.98029 1.81913 0
M  V30 1015 N 94.5984 0.214957 -1.56127 0
M  V30 1016 C 95.8264 0.955092 -1.83536 0
M  V30 1017 C 96.2414 1.77677 -0.638472 0
M  V30 1018 O 95.5984 1.78219 0.392968 0
M  V30 1019 C 95.6494 1.86734 -3.09536 0
M  V30 1020 O 95.3704 1.07887 -4.24608 0
M  V30 1021 C 96.8714 2.72082 -3.4998 0
M  V30 1022 H 94.0914 0.279611 -0.609966 0
M  V30 1023 H 96.6354 0.228197 -2.03223 0
M  V30 1024 H 94.7904 2.5481 -2.91806 0
M  V30 1025 H 95.2044 1.69872 -4.9623 0
M  V30 1026 H 96.6784 3.31782 -4.41163 0
M  V30 1027 H 97.1554 3.44806 -2.7204 0
M  V30 1028 H 97.7614 2.09409 -3.70173 0
M  V30 1029 N 96.0765 1.50051 0.48192 0
M  V30 1030 C 97.3225 1.60736 1.2366 0
M  V30 1031 C 97.6555 0.301786 1.91841 0
M  V30 1032 O 96.9305 -0.696025 1.8162 0
M  V30 1033 C 97.2135 2.78009 2.28874 0
M  V30 1034 C 97.0665 4.18416 1.65069 0
M  V30 1035 C 98.3855 2.90867 3.30279 0
M  V30 1036 H 95.5045 0.585031 0.448228 0
M  V30 1037 H 98.1465 1.82402 0.531946 0
M  V30 1038 H 96.2965 2.59667 2.88973 0
M  V30 1039 H 97.9685 4.48322 1.0865 0
M  V30 1040 H 96.2115 4.23177 0.954148 0
M  V30 1041 H 96.8825 4.96381 2.41474 0
M  V30 1042 H 99.3585 3.07623 2.80191 0
M  V30 1043 H 98.2345 3.74566 4.01238 0
M  V30 1044 H 98.4955 2.01021 3.93755 0
M  V30 1045 N 97.5546 -0.734337 1.39446 0
M  V30 1046 C 98.7826 -1.52358 1.39981 0
M  V30 1047 C 99.1976 -1.88799 -0.0054975 0
M  V30 1048 O 98.5546 -1.54146 -0.976998 0
M  V30 1049 C 98.6056 -2.81072 2.27333 0
M  V30 1050 O 98.3266 -2.46178 3.62392 0
M  V30 1051 C 99.8276 -3.75096 2.36259 0
M  V30 1052 H 97.0476 -0.470806 0.478103 0
M  V30 1053 H 99.5916 -0.907339 1.83269 0
M  V30 1054 H 97.7466 -3.39026 1.87457 0
M  V30 1055 H 98.1606 -3.28866 4.08592 0
M  V30 1056 H 99.6346 -4.62305 3.01626 0
M  V30 1057 H 100.112 -4.16892 1.38194 0
M  V30 1058 H 100.718 -3.23061 2.76608 0
M  V30 1059 N 99.0327 -1.24633 -0.964593 0
M  V30 1060 C 100.444 -1.08045 -1.5226 0
M  V30 1061 C 100.795 0.347116 -1.93105 0
M  V30 1062 O 99.9197 1.23588 -1.77637 0
M  V30 1063 C 100.515 -1.95514 -2.76695 0
M  V30 1064 C 99.0737 -1.8314 -3.28841 0
M  V30 1065 C 98.2207 -1.90262 -2.01732 0
M  V30 1066 H 101.172 -1.38064 -0.782553 0
M  V30 1067 H 101.193 -1.48925 -3.50145 0
M  V30 1068 H 100.705 -2.99407 -2.46936 0
M  V30 1069 H 98.8057 -0.82092 -3.63444 0
M  V30 1070 H 98.9187 -2.67406 -3.97531 0
M  V30 1071 H 97.2827 -1.34027 -2.16584 0
M  V30 1072 H 98.0657 -2.9574 -1.74334 0
M  V30 1073 N 100.511 1.16574 -1.06058 0
M  V30 1074 C 101.922 1.68662 -0.800632 0
M  V30 1075 C 102.273 1.84184 0.67608 0
M  V30 1076 O 101.398 1.53568 1.52466 0
M  V30 1077 C 101.993 3.06356 -1.44676 0
M  V30 1078 C 100.552 3.55575 -1.23465 0
M  V30 1079 C 99.6988 2.31616 -1.52477 0
M  V30 1080 H 102.65 1.00969 -1.22438 0
M  V30 1081 H 102.671 3.70636 -0.860788 0
M  V30 1082 H 102.183 2.95027 -2.52152 0
M  V30 1083 H 100.284 3.72167 -0.179527 0
M  V30 1084 H 100.397 4.37812 -1.94571 0
M  V30 1085 H 98.7608 2.36512 -0.945209 0
M  V30 1086 H 99.5438 2.22887 -2.61106 0
M  V30 1087 N 101.989 0.842826 1.3317 0
M  V30 1088 C 103.237 0.439577 1.97262 0
M  V30 1089 C 103.558 -1.00548 1.67078 0
M  V30 1090 O 102.828 -1.70098 0.971779 0
M  V30 1091 H 101.408 0.159558 0.72976 0
M  V30 1092 H 104.07 1.07665 1.62463 0
M  V30 1093 H 103.166 0.574886 3.0676 0
M  V30 1094 N 103.467 -1.45747 0.599634 0
M  V30 1095 C 104.695 -2.06668 0.0978551 0
M  V30 1096 C 105.11 -1.44562 -1.21439 0
M  V30 1097 O 104.467 -0.556923 -1.73795 0
M  V30 1098 C 104.518 -3.61456 -0.0567044 0
M  V30 1099 O 104.239 -4.21242 1.20361 0
M  V30 1100 C 105.74 -4.39345 -0.590869 0
M  V30 1101 H 102.96 -0.667825 0.0651943 0
M  V30 1102 H 105.504 -1.87115 0.82511 0
M  V30 1103 H 103.659 -3.80378 -0.734251 0
M  V30 1104 H 104.073 -5.14323 1.02821 0
M  V30 1105 H 105.547 -5.48182 -0.648131 0
M  V30 1106 H 106.024 -4.08568 -1.61147 0
M  V30 1107 H 106.63 -4.25268 0.0523679 0
M  V30 1108 N 104.945 -0.338344 -1.53925 0
M  V30 1109 C 105.908 0.508299 -2.23493 0
M  V30 1110 C 106.908 1.03175 -1.23335 0
M  V30 1111 O 108.098 0.921826 -1.47811 0
M  V30 1112 C 105.23 1.70754 -2.95052 0
M  V30 1113 H 106.423 -0.100058 -2.99733 0
M  V30 1114 H 103.976 -0.0896198 -1.56043 0
M  V30 1115 H 104.711 2.35474 -2.22986 0
M  V30 1116 H 104.496 1.33946 -3.68512 0
M  V30 1117 H 105.986 2.30818 -3.48013 0
M  V30 1118 N 106.423 1.57458 -0.0668435 0
M  V30 1119 C 107.37 2.12439 0.902122 0
M  V30 1120 C 108.34 1.03565 1.2986 0
M  V30 1121 O 109.525 1.312 1.38532 0
M  V30 1122 C 106.665 2.6865 2.16614 0
M  V30 1123 C 105.778 3.91663 1.82274 0
M  V30 1124 C 104.913 4.36134 3.0325 0
M  V30 1125 C 103.952 5.51808 2.64904 0
M  V30 1126 N 103.089 5.9126 3.78624 0
M  V30 1127 H 107.929 2.94934 0.426382 0
M  V30 1128 H 105.466 1.4575 0.198819 0
M  V30 1129 H 107.424 2.99346 2.90599 0
M  V30 1130 H 106.054 1.88928 2.61737 0
M  V30 1131 H 105.106 3.6746 0.983719 0
M  V30 1132 H 106.418 4.75693 1.50059 0
M  V30 1133 H 105.572 4.68465 3.85519 0
M  V30 1134 H 104.311 3.50948 3.38655 0
M  V30 1135 H 103.316 5.19133 1.81055 0
M  V30 1136 H 104.541 6.38722 2.30675 0
M  V30 1137 H 102.487 5.09024 4.138 0
M  V30 1138 H 102.404 6.70018 3.5016 0
M  V30 1139 H 103.672 6.28212 4.61486 0
M  V30 1140 N 107.901 -0.206675 1.56239 0
M  V30 1141 C 109.131 -0.943975 1.83773 0
M  V30 1142 C 109.539 -1.77841 0.645703 0
M  V30 1143 O 108.882 -1.79403 -0.395008 0
M  V30 1144 C 108.944 -1.899 3.05251 0
M  V30 1145 C 108.608 -1.24764 4.39639 0
M  V30 1146 C 109.605 -0.630216 5.16066 0
M  V30 1147 C 107.29 -1.25496 4.8637 0
M  V30 1148 C 109.284 -0.0287946 6.37393 0
M  V30 1149 C 106.971 -0.649698 6.07637 0
M  V30 1150 C 107.969 -0.0376845 6.8299 0
M  V30 1151 O 107.657 0.55812 8.0196 0
M  V30 1152 H 107.389 -0.281508 0.614597 0
M  V30 1153 H 109.943 -0.222458 2.04192 0
M  V30 1154 H 108.173 -2.6599 2.80689 0
M  V30 1155 H 109.862 -2.5031 3.1953 0
M  V30 1156 H 110.628 -0.616785 4.81062 0
M  V30 1157 H 106.507 -1.72072 4.27683 0
M  V30 1158 H 110.051 0.449518 6.9615 0
M  V30 1159 H 105.948 -0.660592 6.42111 0
M  V30 1160 H 106.716 0.453891 8.17241 0
M  V30 1161 N 109.379 -1.50304 -0.473955 0
M  V30 1162 C 110.625 -1.61389 -1.22806 0
M  V30 1163 C 110.958 -0.311955 -1.91678 0
M  V30 1164 O 110.233 0.686384 -1.81986 0
M  V30 1165 C 110.516 -2.79219 -2.27396 0
M  V30 1166 C 110.369 -4.19286 -1.62848 0
M  V30 1167 C 111.688 -2.92614 -3.28732 0
M  V30 1168 H 108.807 -0.587399 -0.445119 0
M  V30 1169 H 111.449 -1.82681 -0.522265 0
M  V30 1170 H 109.599 -2.61195 -2.87592 0
M  V30 1171 H 111.271 -4.48892 -1.06271 0
M  V30 1172 H 109.514 -4.23677 -0.931693 0
M  V30 1173 H 110.185 -4.97655 -2.38838 0
M  V30 1174 H 112.661 -3.09105 -2.78556 0
M  V30 1175 H 111.537 -3.76688 -3.99246 0
M  V30 1176 H 111.798 -2.03107 -3.92683 0
M  V30 1177 N 110.857 0.726932 -1.39834 0
M  V30 1178 C 112.087 1.51393 -1.40583 0
M  V30 1179 C 112.495 1.892 -0.000740625 0
M  V30 1180 O 111.838 1.55189 0.982951 0
M  V30 1181 C 111.9 2.82588 -2.22226 0
M  V30 1182 C 111.564 2.67169 -3.70769 0
M  V30 1183 C 112.561 2.3518 -4.63666 0
M  V30 1184 C 110.246 2.83788 -4.14451 0
M  V30 1185 C 112.24 2.20002 -5.98229 0
M  V30 1186 C 109.927 2.68229 -5.49087 0
M  V30 1187 C 110.925 2.36382 -6.4079 0
M  V30 1188 O 110.613 2.2093 -7.72946 0
M  V30 1189 H 110.345 0.474168 -0.48181 0
M  V30 1190 H 112.899 0.905247 -1.84376 0
M  V30 1191 H 111.129 3.45746 -1.73195 0
M  V30 1192 H 112.818 3.44247 -2.15055 0
M  V30 1193 H 113.584 2.21984 -4.31217 0
M  V30 1194 H 109.463 3.07566 -3.43401 0
M  V30 1195 H 113.007 1.95067 -6.69772 0
M  V30 1196 H 108.904 2.81006 -5.81125 0
M  V30 1197 H 109.672 2.35937 -7.83757 0
M  V30 1198 N 112.336 1.25143 0.95797 0
M  V30 1199 C 113.576 1.10893 1.71703 0
M  V30 1200 C 113.94 -0.34478 1.88879 0
M  V30 1201 O 115.141 -0.609014 2.6181 0
M  V30 1202 C 113.412 1.83889 3.06463 0
M  V30 1203 S 114.971 1.85491 3.97666 0
M  V30 1204 H 111.789 0.396428 0.590226 0
M  V30 1205 H 114.391 1.58618 1.14283 0
M  V30 1206 H 113.095 2.88756 2.9163 0
M  V30 1207 H 112.626 1.36538 3.68946 0
M  V30 1208 H 114.641 0.929553 4.87415 0
M  V30 1209 N 113.814 -1.1601 1.06675 0
M  V30 1210 C 114.777 -2.18724 0.685001 0
M  V30 1211 C 115.777 -1.58496 -0.271246 0
M  V30 1212 O 116.967 -1.74119 -0.0531156 0
M  V30 1213 C 114.099 -3.40899 0.00853648 0
M  V30 1214 H 115.292 -2.54011 1.59431 0
M  V30 1215 H 112.845 -1.30352 0.862441 0
M  V30 1216 H 113.58 -3.11173 -0.913337 0
M  V30 1217 H 113.365 -3.8587 0.696204 0
M  V30 1218 H 114.855 -4.16886 -0.24414 0
M  V30 1219 N 115.292 -0.849877 -1.32721 0
M  V30 1220 C 116.708 -0.539102 -1.50219 0
M  V30 1221 C 116.908 0.931271 -1.78689 0
M  V30 1222 O 115.964 1.71455 -1.85363 0
M  V30 1223 C 117.277 -1.42196 -2.64954 0
M  V30 1224 C 118.825 -1.42189 -2.78839 0
M  V30 1225 C 119.3 -2.28985 -3.96648 0
M  V30 1226 N 120.791 -2.26754 -4.03902 0
M  V30 1227 C 121.526 -2.90644 -4.94281 0
M  V30 1228 N 121.022 -3.63629 -5.897 0
M  V30 1229 N 122.815 -2.80057 -4.87365 0
M  V30 1230 H 114.966 -1.80156 -1.12506 0
M  V30 1231 H 117.229 -0.769217 -0.554085 0
M  V30 1232 H 116.935 -2.46733 -2.50631 0
M  V30 1233 H 116.809 -1.10591 -3.60624 0
M  V30 1234 H 119.196 -0.38419 -2.92588 0
M  V30 1235 H 119.277 -1.77807 -1.83898 0
M  V30 1236 H 118.921 -3.32819 -3.83658 0
M  V30 1237 H 118.851 -1.90702 -4.90857 0
M  V30 1238 H 121.342 -1.73688 -3.3562 0
M  V30 1239 H 121.655 -4.09558 -6.55349 0
M  V30 1240 H 120 -3.67737 -5.89741 0
M  V30 1241 H 123.191 -2.22593 -4.11789 0
M  V30 1242 H 123.364 -3.30132 -5.57599 0
M  V30 1243 N 116.77 1.45427 -0.607355 0
M  V30 1244 C 118.018 2.01841 -0.102253 0
M  V30 1245 C 118.339 1.47832 1.27164 0
M  V30 1246 O 117.609 0.672497 1.83995 0
M  V30 1247 H 116.189 0.746188 -0.0348101 0
M  V30 1248 H 118.851 1.78229 -0.7887 0
M  V30 1249 H 117.947 3.12057 -0.0518585 0
M  V30 1250 N 118.248 0.346503 1.53744 0
M  V30 1251 C 119.195 -0.508914 2.25119 0
M  V30 1252 C 120.165 -1.09315 1.25058 0
M  V30 1253 O 121.35 -1.12921 1.53797 0
M  V30 1254 C 118.49 -1.65246 3.02965 0
M  V30 1255 C 117.603 -1.09525 4.17886 0
M  V30 1256 C 116.738 -2.20634 4.83212 0
M  V30 1257 C 115.777 -1.62279 5.90196 0
M  V30 1258 N 114.914 -2.67143 6.49291 0
M  V30 1259 H 119.754 0.106283 2.9781 0
M  V30 1260 H 117.291 0.0642227 1.4696 0
M  V30 1261 H 119.249 -2.32574 3.4636 0
M  V30 1262 H 117.879 -2.2386 2.32565 0
M  V30 1263 H 116.931 -0.312818 3.79112 0
M  V30 1264 H 118.243 -0.628444 4.94825 0
M  V30 1265 H 117.397 -2.95821 5.29693 0
M  V30 1266 H 116.136 -2.70659 4.05703 0
M  V30 1267 H 115.141 -0.855989 5.43096 0
M  V30 1268 H 116.366 -1.13102 6.69615 0
M  V30 1269 H 114.312 -3.16417 5.74645 0
M  V30 1270 H 114.229 -2.25093 7.21713 0
M  V30 1271 H 115.497 -3.4209 7.00425 0
M  V30 1272 N 119.726 -1.57421 0.075193 0
M  V30 1273 C 120.689 -2.11791 -0.876203 0
M  V30 1274 C 121.689 -1.04268 -1.22412 0
M  V30 1275 O 122.879 -1.30242 -1.15684 0
M  V30 1276 C 120.011 -2.62207 -2.17854 0
M  V30 1277 H 121.204 -2.9716 -0.40444 0
M  V30 1278 H 118.757 -1.55333 -0.173557 0
M  V30 1279 H 119.492 -1.803 -2.6956 0
M  V30 1280 H 119.277 -3.40802 -1.93897 0
M  V30 1281 H 120.767 -3.04335 -2.85955 0
M  V30 1282 N 121.204 0.198386 -1.56346 0
M  V30 1283 C 122.137 1.27381 -1.89339 0
M  V30 1284 C 123.115 1.44106 -0.753134 0
M  V30 1285 O 124.299 1.59549 -1.00381 0
M  V30 1286 C 121.426 2.6409 -2.12071 0
M  V30 1287 C 120.472 2.64253 -3.34772 0
M  V30 1288 S 121.305 2.16013 -4.89999 0
M  V30 1289 C 122.461 3.54553 -5.15794 0
M  V30 1290 H 122.694 0.992058 -2.8026 0
M  V30 1291 H 120.227 0.401726 -1.49082 0
M  V30 1292 H 122.185 3.42786 -2.2585 0
M  V30 1293 H 120.846 2.89478 -1.21906 0
M  V30 1294 H 120.039 3.64768 -3.47794 0
M  V30 1295 H 119.641 1.93637 -3.1997 0
M  V30 1296 H 121.933 4.50396 -5.06112 0
M  V30 1297 H 122.876 3.46428 -6.1757 0
M  V30 1298 H 123.284 3.49313 -4.43442 0
M  V30 1299 N 122.682 1.50554 0.465978 0
M  V30 1300 C 123.959 1.5232 1.22712 0
M  V30 1301 C 124.339 0.270807 2.09356 0
M  V30 1302 O 123.687 -0.745541 2.15995 0
M  V30 1303 C 123.897 2.82175 2.05374 0
M  V30 1304 C 125.245 3.33033 2.6339 0
M  V30 1305 O 126.269 2.83531 2.15612 0
M  V30 1306 O 125.128 4.19336 3.50456 0
M  V30 1307 H 122.222 0.611183 0.557122 0
M  V30 1308 H 124.768 1.62847 0.477381 0
M  V30 1309 H 123.54 3.64797 1.41558 0
M  V30 1310 H 123.163 2.74675 2.87471 0
M  V30 1311 N 124.16 -0.719506 1.40217 0
M  V30 1312 C 125.409 -1.47486 1.37589 0
M  V30 1313 C 125.722 -1.9559 -0.0201568 0
M  V30 1314 O 126.928 -2.70973 -0.169049 0
M  V30 1315 C 125.384 -2.66575 2.41796 0
M  V30 1316 C 124.992 -2.25358 3.87192 0
M  V30 1317 C 126.736 -3.4433 2.48269 0
M  V30 1318 C 124.643 -3.41262 4.83005 0
M  V30 1319 H 123.573 -0.553901 0.511576 0
M  V30 1320 H 126.224 -0.783427 1.65936 0
M  V30 1321 H 124.606 -3.3787 2.06543 0
M  V30 1322 H 125.78 -1.61509 4.31569 0
M  V30 1323 H 124.095 -1.60657 3.84159 0
M  V30 1324 H 126.692 -4.30569 3.17041 0
M  V30 1325 H 127.035 -3.87872 1.51198 0
M  V30 1326 H 127.568 -2.80076 2.82493 0
M  V30 1327 H 124.307 -3.02755 5.81394 0
M  V30 1328 H 123.827 -4.0404 4.43297 0
M  V30 1329 H 125.506 -4.07383 5.02641 0
M  V30 1330 N 125.638 -1.25649 -0.95132 0
M  V30 1331 C 126.884 -1.10757 -1.69884 0
M  V30 1332 C 127.217 0.350061 -1.91019 0
M  V30 1333 O 126.492 1.25783 -1.48354 0
M  V30 1334 C 126.775 -1.86606 -3.07978 0
M  V30 1335 C 126.628 -3.40217 -2.94232 0
M  V30 1336 C 127.947 -1.65182 -4.07925 0
M  V30 1337 H 125.066 -0.40374 -0.616574 0
M  V30 1338 H 127.708 -1.54521 -1.10558 0
M  V30 1339 H 125.858 -1.49409 -3.58621 0
M  V30 1340 H 127.53 -3.87108 -2.50889 0
M  V30 1341 H 125.773 -3.67759 -2.30078 0
M  V30 1342 H 126.444 -3.88505 -3.92133 0
M  V30 1343 H 128.92 -1.9757 -3.66204 0
M  V30 1344 H 127.796 -2.20683 -5.02583 0
M  V30 1345 H 128.057 -0.593933 -4.38092 0
M  V30 1346 N 127.117 1.15442 -1.07289 0
M  V30 1347 C 128.366 1.85557 -0.790669 0
M  V30 1348 C 128.679 1.83186 0.685739 0
M  V30 1349 O 129.885 2.48977 1.0827 0
M  V30 1350 C 128.341 3.33038 -1.36433 0
M  V30 1351 C 127.949 3.43856 -2.8717 0
M  V30 1352 C 129.693 4.0834 -1.1601 0
M  V30 1353 C 127.6 4.85482 -3.3773 0
M  V30 1354 H 126.53 0.695122 -0.292098 0
M  V30 1355 H 129.181 1.30219 -1.29287 0
M  V30 1356 H 127.563 3.88043 -0.789864 0
M  V30 1357 H 128.737 2.98961 -3.50655 0
M  V30 1358 H 127.052 2.81998 -3.06376 0
M  V30 1359 H 129.649 5.12859 -1.51262 0
M  V30 1360 H 129.992 4.16182 -0.0991007 0
M  V30 1361 H 130.525 3.59603 -1.70089 0
M  V30 1362 H 127.264 4.82823 -4.43353 0
M  V30 1363 H 126.784 5.30961 -2.78999 0
M  V30 1364 H 128.463 5.54335 -3.33648 0
M  V30 1365 N 128.595 0.856903 1.32268 0
M  V30 1366 C 129.872 0.382583 1.91822 0
M  V30 1367 C 130.252 -1.13407 1.78051 0
M  V30 1368 O 129.6 -1.95673 1.18001 0
M  V30 1369 C 129.81 0.849446 3.38505 0
M  V30 1370 C 131.158 0.867936 4.15634 0
M  V30 1371 O 132.182 0.794232 3.47232 0
M  V30 1372 O 131.041 0.972286 5.37781 0
M  V30 1373 H 128.135 0.112014 0.819379 0
M  V30 1374 H 130.681 0.943952 1.41024 0
M  V30 1375 H 129.453 1.89267 3.42482 0
M  V30 1376 H 129.076 0.265652 3.96712 0
M  V30 1377 N 130.073 -1.45103 0.615059 0
M  V30 1378 C 131.322 -2.01396 0.110718 0
M  V30 1379 C 131.635 -1.48834 -1.26916 0
M  V30 1380 O 132.841 -1.97152 -1.86664 0
M  V30 1381 C 131.297 -3.59599 0.14723 0
M  V30 1382 C 130.905 -4.21158 1.52743 0
M  V30 1383 C 132.649 -4.23428 -0.30148 0
M  V30 1384 C 130.556 -5.71535 1.51992 0
M  V30 1385 H 129.486 -0.753061 0.0376241 0
M  V30 1386 H 132.137 -1.66494 0.77149 0
M  V30 1387 H 130.519 -3.91724 -0.580339 0
M  V30 1388 H 131.693 -4.00594 2.2773 0
M  V30 1389 H 130.008 -3.69552 1.91886 0
M  V30 1390 H 132.605 -5.33703 -0.326392 0
M  V30 1391 H 132.948 -3.94629 -1.32565 0
M  V30 1392 H 133.481 -3.96047 0.373065 0
M  V30 1393 H 130.22 -6.05044 2.52193 0
M  V30 1394 H 129.74 -5.94268 0.81274 0
M  V30 1395 H 131.419 -6.34873 1.24681 0
M  V30 1396 N 131.551 -0.354651 -1.53558 0
M  V30 1397 C 132.967 -0.00315426 -1.596 0
M  V30 1398 C 133.167 1.47741 -1.37021 0
M  V30 1399 O 132.223 2.23759 -1.16996 0
M  V30 1400 C 133.536 -0.44929 -2.97325 0
M  V30 1401 C 135.084 -0.402578 -3.104 0
M  V30 1402 C 135.559 -0.824355 -4.5052 0
M  V30 1403 N 137.05 -0.778979 -4.56603 0
M  V30 1404 C 137.785 -1.07715 -5.63192 0
M  V30 1405 N 137.281 -1.44405 -6.77583 0
M  V30 1406 N 139.074 -1.00066 -5.53121 0
M  V30 1407 H 131.225 -1.31893 -1.66487 0
M  V30 1408 H 133.488 -0.538388 -0.780284 0
M  V30 1409 H 133.194 -1.48202 -3.1895 0
M  V30 1410 H 133.068 0.169772 -3.76818 0
M  V30 1411 H 135.455 0.621004 -2.88492 0
M  V30 1412 H 135.536 -1.05699 -2.32941 0
M  V30 1413 H 135.18 -1.846 -4.73165 0
M  V30 1414 H 135.11 -0.147304 -5.26394 0
M  V30 1415 H 137.601 -0.508528 -3.74463 0
M  V30 1416 H 137.914 -1.65612 -7.54846 0
M  V30 1417 H 136.259 -1.4826 -6.79002 0
M  V30 1418 H 139.45 -0.713293 -4.62633 0
M  V30 1419 H 139.623 -1.23638 -6.36096 0
M  V30 1420 N 133.029 1.57378 -0.0835403 0
M  V30 1421 C 134.275 1.94217 0.583733 0
M  V30 1422 C 134.608 0.964653 1.68547 0
M  V30 1423 O 133.883 -0.00422258 1.945 0
M  V30 1424 C 134.166 3.41253 1.14972 0
M  V30 1425 C 134.019 4.49768 0.0538277 0
M  V30 1426 C 135.338 3.89352 2.05166 0
M  V30 1427 H 132.457 0.706233 0.210724 0
M  V30 1428 H 135.099 1.89392 -0.1519 0
M  V30 1429 H 133.249 3.45496 1.77665 0
M  V30 1430 H 134.921 4.57641 -0.579851 0
M  V30 1431 H 133.164 4.29432 -0.614068 0
M  V30 1432 H 133.835 5.49817 0.490452 0
M  V30 1433 H 136.311 3.87189 1.52393 0
M  V30 1434 H 135.187 4.92822 2.41698 0
M  V30 1435 H 135.448 3.27973 2.96456 0
M  V30 1436 N 134.507 -0.190092 1.56449 0
M  V30 1437 C 135.755 -0.907908 1.80559 0
M  V30 1438 C 136.076 -1.83583 0.657438 0
M  V30 1439 O 135.346 -1.93203 -0.323924 0
M  V30 1440 H 133.926 -0.338247 0.666032 0
M  V30 1441 H 136.588 -0.194403 1.93928 0
M  V30 1442 H 135.684 -1.49604 2.73907 0
M  V30 1443 N 135.985 -1.50799 -0.457987 0
M  V30 1444 C 137.21 -1.66496 -1.23668 0
M  V30 1445 C 137.635 -0.353288 -1.84752 0
M  V30 1446 O 136.993 0.684346 -1.67888 0
M  V30 1447 C 137.041 -2.76763 -2.3116 0
M  V30 1448 O 136.145 -2.38928 -3.36136 0
M  V30 1449 H 135.486 -0.555828 -0.363252 0
M  V30 1450 H 138.016 -1.9725 -0.543474 0
M  V30 1451 H 138.026 -3.00232 -2.76269 0
M  V30 1452 H 136.701 -3.71954 -1.86073 0
M  V30 1453 H 135.278 -2.25953 -2.96647 0
M  V30 1454 N 137.463 0.71206 -1.40597 0
M  V30 1455 C 138.874 1.29135 -1.34837 0
M  V30 1456 C 139.225 1.96186 -0.0235395 0
M  V30 1457 O 138.35 1.97768 0.878444 0
M  V30 1458 C 138.945 2.34827 -2.44217 0
M  V30 1459 C 137.504 2.88371 -2.41907 0
M  V30 1460 C 136.651 1.62202 -2.24913 0
M  V30 1461 H 139.602 0.507944 -1.50352 0
M  V30 1462 H 139.623 3.15749 -2.12327 0
M  V30 1463 H 139.135 1.85996 -3.40627 0
M  V30 1464 H 137.236 3.41422 -1.49204 0
M  V30 1465 H 137.349 3.39925 -3.37621 0
M  V30 1466 H 135.713 1.874 -1.72492 0
M  V30 1467 H 136.496 1.15391 -3.23326 0
M  V30 1468 N 138.941 1.26152 0.944643 0
M  V30 1469 C 140.169 1.14259 1.72489 0
M  V30 1470 C 140.584 -0.302555 1.8636 0
M  V30 1471 O 139.941 -1.20741 1.36849 0
M  V30 1472 C 139.992 1.80266 3.13347 0
M  V30 1473 O 139.713 3.19133 3.00143 0
M  V30 1474 C 141.214 1.74283 4.07603 0
M  V30 1475 H 138.434 0.398051 0.540181 0
M  V30 1476 H 140.978 1.66706 1.18446 0
M  V30 1477 H 139.133 1.31766 3.64303 0
M  V30 1478 H 139.547 3.51744 3.89071 0
M  V30 1479 H 141.021 2.25111 5.04013 0
M  V30 1480 H 141.498 0.708631 4.33446 0
M  V30 1481 H 142.104 2.22319 3.62567 0
M  V30 1482 N 140.419 -1.14872 1.07899 0
M  V30 1483 C 141.666 -1.85789 0.805532 0
M  V30 1484 C 141.994 -1.82649 -0.668561 0
M  V30 1485 O 141.249 -1.24858 -1.50695 0
M  V30 1486 C 141.548 -3.34223 1.26609 0
M  V30 1487 C 141.214 -3.57555 2.74709 0
M  V30 1488 C 139.876 -3.63631 3.1516 0
M  V30 1489 C 142.228 -3.66803 3.70277 0
M  V30 1490 C 139.556 -3.76473 4.49983 0
M  V30 1491 C 141.908 -3.8117 5.04869 0
M  V30 1492 C 140.572 -3.85494 5.44932 0
M  V30 1493 H 139.842 -0.679849 0.294765 0
M  V30 1494 H 142.489 -1.3572 1.35101 0
M  V30 1495 H 140.794 -3.86536 0.640103 0
M  V30 1496 H 142.491 -3.87511 1.03132 0
M  V30 1497 H 139.081 -3.5347 2.42398 0
M  V30 1498 H 143.265 -3.61404 3.40149 0
M  V30 1499 H 138.521 -3.7808 4.80484 0
M  V30 1500 H 142.695 -3.87268 5.78789 0
M  V30 1501 H 140.322 -3.95197 6.49403 0
M  V30 1502 N 141.898 -0.863906 -1.31812 0
M  V30 1503 C 143.146 -0.470904 -1.96537 0
M  V30 1504 C 143.467 0.978771 -1.68657 0
M  V30 1505 O 142.737 1.6853 -0.998717 0
M  V30 1506 H 141.317 -0.171148 -0.72713 0
M  V30 1507 H 143.979 -1.10236 -1.60729 0
M  V30 1508 H 143.075 -0.623616 -3.05806 0
M  V30 1509 N 143.376 1.44774 -0.622745 0
M  V30 1510 C 144.308 2.28856 0.125485 0
M  V30 1511 C 145.321 1.40811 0.817069 0
M  V30 1512 O 146.51 1.65044 0.679918 0
M  V30 1513 C 143.61 3.16963 1.19949 0
M  V30 1514 C 142.783 4.33374 0.592064 0
M  V30 1515 C 141.842 5.02577 1.55893 0
M  V30 1516 O 140.868 5.58873 1.07933 0
M  V30 1517 N 142.07 5.03256 2.89334 0
M  V30 1518 H 144.835 2.93713 -0.596068 0
M  V30 1519 H 142.396 1.55129 -0.463303 0
M  V30 1520 H 144.388 3.60123 1.84644 0
M  V30 1521 H 142.958 2.53913 1.82337 0
M  V30 1522 H 142.178 3.93509 -0.233322 0
M  V30 1523 H 143.466 5.08527 0.166738 0
M  V30 1524 H 142.864 4.58836 3.30887 0
M  V30 1525 H 141.421 5.50232 3.49412 0
M  V30 1526 N 144.854 0.36279 1.53368 0
M  V30 1527 C 146.1 -0.220702 2.02199 0
M  V30 1528 C 146.455 -1.46649 1.24546 0
M  V30 1529 O 145.748 -1.88737 0.32996 0
M  V30 1530 C 145.942 -0.568417 3.52851 0
M  V30 1531 C 145.771 0.642126 4.45092 0
M  V30 1532 C 144.541 1.15335 4.91961 0
M  V30 1533 C 146.739 1.50649 4.91741 0
M  V30 1534 N 144.721 2.3242 5.68202 0
M  V30 1535 C 146.092 2.52404 5.66297 0
M  V30 1536 C 148.147 1.52969 4.73819 0
M  V30 1537 C 146.85 3.56331 6.24836 0
M  V30 1538 C 148.876 2.55789 5.33222 0
M  V30 1539 C 148.238 3.56268 6.07662 0
M  V30 1540 H 144.337 -0.0435508 0.780786 0
M  V30 1541 H 146.921 0.506704 1.87991 0
M  V30 1542 H 145.092 -1.2649 3.67226 0
M  V30 1543 H 146.824 -1.13676 3.88407 0
M  V30 1544 H 143.579 0.718412 4.68119 0
M  V30 1545 H 144.003 2.91591 6.10986 0
M  V30 1546 H 148.645 0.766418 4.15795 0
M  V30 1547 H 146.363 4.33543 6.81958 0
M  V30 1548 H 149.949 2.58435 5.21251 0
M  V30 1549 H 148.829 4.34524 6.52808 0
M  V30 1550 N 146.332 -1.57332 0.0918853 0
M  V30 1551 C 147.609 -1.85691 -0.614668 0
M  V30 1552 C 147.989 -0.988146 -1.86545 0
M  V30 1553 O 147.337 -0.0597055 -2.28422 0
M  V30 1554 C 147.547 -3.36294 -0.933126 0
M  V30 1555 C 148.895 -4.04275 -1.29796 0
M  V30 1556 O 149.919 -3.41157 -1.02424 0
M  V30 1557 O 148.778 -5.1564 -1.81047 0
M  V30 1558 H 145.872 -0.767802 -0.307261 0
M  V30 1559 H 148.418 -1.69244 0.12434 0
M  V30 1560 H 147.19 -3.91273 -0.0456404 0
M  V30 1561 H 146.813 -3.58076 -1.72822 0
M  V30 1562 N 147.81 0.181792 -1.56548 0
M  V30 1563 C 149.035 0.920019 -1.85877 0
M  V30 1564 C 149.46 1.75494 -0.677021 0
M  V30 1565 O 148.818 1.77399 0.374056 0
M  V30 1566 C 148.866 1.78112 -3.13542 0
M  V30 1567 O 147.97 2.88152 -2.95029 0
M  V30 1568 H 147.311 0.258334 -0.611686 0
M  V30 1569 H 149.841 0.183092 -2.03779 0
M  V30 1570 H 149.851 2.18314 -3.44678 0
M  V30 1571 H 148.526 1.16777 -3.99169 0
M  V30 1572 H 147.103 2.51609 -2.75222 0
M  V30 1573 N 149.288 1.51039 0.449983 0
M  V30 1574 C 150.534 1.63322 1.20223 0
M  V30 1575 C 150.867 0.34241 1.91158 0
M  V30 1576 O 150.142 -0.657344 1.83055 0
M  V30 1577 C 150.425 2.82801 2.22925 0
M  V30 1578 C 150.278 4.21823 1.56157 0
M  V30 1579 C 151.597 2.97807 3.24035 0
M  V30 1580 H 148.716 0.594407 0.435718 0
M  V30 1581 H 151.358 1.83489 0.493136 0
M  V30 1582 H 149.508 2.65738 2.834 0
M  V30 1583 H 151.18 4.50526 0.991162 0
M  V30 1584 H 149.423 4.25105 0.864172 0
M  V30 1585 H 150.094 5.01391 2.30891 0
M  V30 1586 H 152.57 3.13497 2.73603 0
M  V30 1587 H 151.446 3.82992 3.93202 0
M  V30 1588 H 151.707 2.09328 3.89402 0
M  V30 1589 N 150.766 -0.704594 1.40972 0
M  V30 1590 C 151.696 -1.83124 1.44872 0
M  V30 1591 C 152.677 -1.67281 0.30838 0
M  V30 1592 O 153.862 -1.87149 0.518556 0
M  V30 1593 C 150.992 -3.21181 1.32136 0
M  V30 1594 C 149.946 -3.51714 2.43888 0
M  V30 1595 C 149.272 -4.89032 2.16222 0
M  V30 1596 C 150.572 -3.516 3.86232 0
M  V30 1597 H 152.266 -1.80117 2.39161 0
M  V30 1598 H 149.812 -0.865145 1.15114 0
M  V30 1599 H 151.765 -3.99702 1.33479 0
M  V30 1600 H 150.489 -3.24791 0.343279 0
M  V30 1601 H 149.148 -2.75539 2.41813 0
M  V30 1602 H 148.796 -4.89256 1.16778 0
M  V30 1603 H 148.496 -5.10426 2.911 0
M  V30 1604 H 150.02 -5.69873 2.19265 0
M  V30 1605 H 151.434 -4.2014 3.9007 0
M  V30 1606 H 149.831 -3.84523 4.60719 0
M  V30 1607 H 150.901 -2.50757 4.15029 0
M  V30 1608 N 152.244 -1.26651 -0.937939 0
M  V30 1609 C 153.177 -1.02811 -2.03728 0
M  V30 1610 C 154.155 0.0481915 -1.62529 0
M  V30 1611 O 155.339 -0.0948839 -1.88261 0
M  V30 1612 C 152.466 -0.557517 -3.3408 0
M  V30 1613 C 151.512 -1.62686 -3.94253 0
M  V30 1614 S 152.345 -3.21667 -4.28125 0
M  V30 1615 C 153.501 -2.76384 -5.61572 0
M  V30 1616 H 153.734 -1.95891 -2.23638 0
M  V30 1617 H 151.267 -1.10367 -1.07974 0
M  V30 1618 H 153.225 -0.292674 -4.09455 0
M  V30 1619 H 151.886 0.353062 -3.12109 0
M  V30 1620 H 151.079 -1.24866 -4.88287 0
M  V30 1621 H 150.681 -1.84324 -3.25424 0
M  V30 1622 H 152.973 -2.2105 -6.40424 0
M  V30 1623 H 153.916 -3.69123 -6.0428 0
M  V30 1624 H 154.324 -2.15847 -5.21604 0
M  V30 1625 N 153.722 1.14298 -1.08507 0
M  V30 1626 C 154.999 1.81544 -0.728088 0
M  V30 1627 C 155.379 1.95838 0.78808 0
M  V30 1628 O 154.727 1.51904 1.70697 0
M  V30 1629 C 154.937 3.17169 -1.45619 0
M  V30 1630 C 156.285 3.9265 -1.61591 0
M  V30 1631 O 157.309 3.26762 -1.41793 0
M  V30 1632 O 156.168 5.10807 -1.94263 0
M  V30 1633 H 153.262 0.78491 -0.260471 0
M  V30 1634 H 155.808 1.21307 -1.18671 0
M  V30 1635 H 154.58 3.01934 -2.489 0
M  V30 1636 H 154.203 3.851 -0.989124 0
M  V30 1637 N 155.201 0.870884 1.31352 0
M  V30 1638 C 156.133 0.28455 2.27427 0
M  V30 1639 C 157.146 -0.552927 1.53123 0
M  V30 1640 O 158.335 -0.374771 1.74521 0
M  V30 1641 C 155.435 -0.615164 3.3327 0
M  V30 1642 C 154.608 0.190079 4.36987 0
M  V30 1643 C 153.667 -0.637917 5.22319 0
M  V30 1644 O 152.693 -0.065626 5.69162 0
M  V30 1645 N 153.895 -1.94973 5.46778 0
M  V30 1646 H 156.66 1.11017 2.7838 0
M  V30 1647 H 154.221 0.732458 1.44384 0
M  V30 1648 H 156.213 -1.1748 3.87273 0
M  V30 1649 H 154.783 -1.34146 2.82354 0
M  V30 1650 H 154.003 0.931165 3.83044 0
M  V30 1651 H 155.291 0.742579 5.03352 0
M  V30 1652 H 154.689 -2.4378 5.10478 0
M  V30 1653 H 153.246 -2.45713 6.03712 0
M  V30 1654 N 156.679 -1.44442 0.630414 0
M  V30 1655 C 157.611 -2.2892 -0.113347 0
M  V30 1656 C 158.624 -1.41243 -0.80959 0
M  V30 1657 O 159.813 -1.65402 -0.671156 0
M  V30 1658 C 156.913 -3.17594 -1.18266 0
M  V30 1659 C 156.086 -4.33682 -0.569073 0
M  V30 1660 C 155.145 -5.03397 -1.53226 0
M  V30 1661 O 154.171 -5.59438 -1.04967 0
M  V30 1662 N 155.373 -5.04783 -2.86661 0
M  V30 1663 H 158.138 -2.93392 0.611636 0
M  V30 1664 H 155.699 -1.54881 0.471523 0
M  V30 1665 H 157.691 -3.61097 -1.82732 0
M  V30 1666 H 156.261 -2.54876 -1.80988 0
M  V30 1667 H 155.481 -3.9338 0.254187 0
M  V30 1668 H 156.769 -5.08608 -0.139767 0
M  V30 1669 H 156.167 -4.60584 -3.28449 0
M  V30 1670 H 154.724 -5.52077 -3.46489 0
M  V30 1671 N 158.157 -0.370918 -1.53173 0
M  V30 1672 C 159.434 0.273754 -1.93675 0
M  V30 1673 C 159.814 1.65938 -1.3049 0
M  V30 1674 O 159.162 2.23698 -0.465999 0
M  V30 1675 C 159.372 0.318602 -3.47543 0
M  V30 1676 C 160.72 0.556392 -4.20939 0
M  V30 1677 O 161.744 0.399587 -3.53952 0
M  V30 1678 O 160.603 0.862133 -5.39657 0
M  V30 1679 H 157.697 0.165448 -0.810281 0
M  V30 1680 H 160.243 -0.42409 -1.64315 0
M  V30 1681 H 159.015 -0.652687 -3.85818 0
M  V30 1682 H 158.638 1.06212 -3.83151 0
M  V30 1683 N 159.635 1.57281 -0.100228 0
M  V30 1684 C 161.046 1.81725 0.428107 0
M  V30 1685 C 161.397 1.01619 1.67833 0
M  V30 1686 O 160.522 0.247098 2.14985 0
M  V30 1687 C 161.117 3.29617 0.78347 0
M  V30 1688 C 159.676 3.54808 1.25653 0
M  V30 1689 C 158.823 2.76118 0.255752 0
M  V30 1690 H 161.774 1.55324 -0.325608 0
M  V30 1691 H 161.795 3.4322 1.64256 0
M  V30 1692 H 161.307 3.87893 -0.12665 0
M  V30 1693 H 159.408 3.01868 2.18418 0
M  V30 1694 H 159.521 4.63443 1.21482 0
M  V30 1695 H 157.885 2.43745 0.738956 0
M  V30 1696 H 158.668 3.37145 -0.647136 0
M  V30 1697 N 161.113 -0.173488 1.56642 0
M  V30 1698 C 162.529 -0.525174 1.50712 0
M  V30 1699 C 162.729 -1.8476 0.804107 0
M  V30 1700 O 161.785 -2.49869 0.363574 0
M  V30 1701 C 163.098 -0.559937 2.95441 0
M  V30 1702 C 164.646 -0.647288 3.06234 0
M  V30 1703 C 165.121 -0.712963 4.52417 0
M  V30 1704 N 166.612 -0.775911 4.56655 0
M  V30 1705 C 167.347 -0.847264 5.67106 0
M  V30 1706 N 166.843 -0.879585 6.87194 0
M  V30 1707 N 168.636 -0.886117 5.55071 0
M  V30 1708 H 160.787 0.693681 2.00753 0
M  V30 1709 H 163.05 0.249841 0.914485 0
M  V30 1710 H 162.756 0.343049 3.50023 0
M  V30 1711 H 162.63 -1.40718 3.49969 0
M  V30 1712 H 165.017 -1.5407 2.51687 0
M  V30 1713 H 165.098 0.226586 2.54794 0
M  V30 1714 H 164.742 0.176183 5.07594 0
M  V30 1715 H 164.672 -1.60295 5.0161 0
M  V30 1716 H 167.163 -0.759304 3.70193 0
M  V30 1717 H 167.476 -0.935144 7.67121 0
M  V30 1718 H 165.821 -0.847898 6.89808 0
M  V30 1719 H 169.012 -0.857853 4.60172 0
M  V30 1720 H 169.185 -0.938263 6.41171 0
M  V30 1721 N 162.591 -1.51276 -0.441967 0
M  V30 1722 C 163.554 -1.7167 -1.51862 0
M  V30 1723 C 164.554 -0.586793 -1.49711 0
M  V30 1724 O 165.744 -0.854276 -1.51815 0
M  V30 1725 C 162.876 -1.76889 -2.91416 0
M  V30 1726 H 164.069 -2.67754 -1.35084 0
M  V30 1727 H 161.622 -1.41196 -0.670333 0
M  V30 1728 H 162.357 -0.826026 -3.13604 0
M  V30 1729 H 162.142 -2.59001 -2.94382 0
M  V30 1730 H 163.632 -1.94522 -3.69528 0
M  V30 1731 N 164.069 0.697108 -1.41344 0
M  V30 1732 C 165.315 1.4593 -1.40827 0
M  V30 1733 C 165.648 1.94193 -0.0167098 0
M  V30 1734 O 164.923 1.69425 0.955263 0
M  V30 1735 C 165.206 2.67229 -2.41373 0
M  V30 1736 C 165.059 2.24741 -3.8963 0
M  V30 1737 C 166.378 3.69423 -2.39196 0
M  V30 1738 H 163.497 0.529303 -0.512842 0
M  V30 1739 H 166.139 0.794112 -1.72609 0
M  V30 1740 H 164.289 3.23982 -2.14401 0
M  V30 1741 H 165.961 1.73327 -4.27499 0
M  V30 1742 H 164.204 1.56542 -4.0457 0
M  V30 1743 H 164.875 3.1177 -4.55525 0
M  V30 1744 H 167.351 3.2234 -2.63128 0
M  V30 1745 H 166.227 4.51907 -3.11563 0
M  V30 1746 H 166.488 4.19012 -1.41001 0
M  V30 1747 N 165.547 1.27147 0.931209 0
M  V30 1748 C 166.777 1.15914 1.71019 0
M  V30 1749 C 167.185 -0.287112 1.87009 0
M  V30 1750 O 166.528 -1.20761 1.38429 0
M  V30 1751 C 166.59 1.76647 3.13107 0
M  V30 1752 C 166.254 3.25807 3.20467 0
M  V30 1753 C 167.251 4.22489 3.02983 0
M  V30 1754 C 164.936 3.66452 3.43538 0
M  V30 1755 C 166.93 5.57794 3.08454 0
M  V30 1756 C 164.617 5.01888 3.48643 0
M  V30 1757 C 165.615 5.97369 3.31119 0
M  V30 1758 O 165.303 7.30337 3.35952 0
M  V30 1759 H 165.035 0.404062 0.54195 0
M  V30 1760 H 167.589 1.68457 1.17521 0
M  V30 1761 H 165.819 1.18578 3.68071 0
M  V30 1762 H 167.508 1.60179 3.72958 0
M  V30 1763 H 168.274 3.92425 2.85004 0
M  V30 1764 H 164.153 2.92611 3.5623 0
M  V30 1765 H 167.697 6.32298 2.94694 0
M  V30 1766 H 163.594 5.31609 3.66145 0
M  V30 1767 H 164.362 7.38739 3.5243 0
M  V30 1768 N 167.025 -1.13721 1.09112 0
M  V30 1769 C 167.955 -2.21148 0.749385 0
M  V30 1770 C 168.936 -1.6792 -0.271475 0
M  V30 1771 O 170.121 -1.93693 -0.140251 0
M  V30 1772 C 167.251 -3.46905 0.165659 0
M  V30 1773 C 166.205 -4.13203 1.11567 0
M  V30 1774 C 165.531 -5.33248 0.393809 0
M  V30 1775 C 166.831 -4.60912 2.45678 0
M  V30 1776 H 168.525 -2.4999 1.64758 0
M  V30 1777 H 166.071 -1.20156 0.793626 0
M  V30 1778 H 168.024 -4.21313 -0.085466 0
M  V30 1779 H 166.748 -3.17449 -0.767714 0
M  V30 1780 H 165.407 -3.40758 1.35202 0
M  V30 1781 H 165.055 -5.00054 -0.543599 0
M  V30 1782 H 164.755 -5.78552 1.02721 0
M  V30 1783 H 166.279 -6.10413 0.150908 0
M  V30 1784 H 167.693 -5.26759 2.26269 0
M  V30 1785 H 166.09 -5.16944 3.04776 0
M  V30 1786 H 167.16 -3.75603 3.06677 0
M  V30 1787 N 168.503 -0.877838 -1.30888 0
M  V30 1788 C 169.914 -0.544193 -1.78593 0
M  V30 1789 C 170.265 0.939301 -1.72254 0
M  V30 1790 O 169.39 1.7337 -1.29505 0
M  V30 1791 C 169.985 -0.98105 -3.24285 0
M  V30 1792 C 168.544 -0.698935 -3.69854 0
M  V30 1793 C 167.691 -1.168 -2.51502 0
M  V30 1794 H 170.642 -1.06278 -1.17859 0
M  V30 1795 H 170.663 -0.307009 -3.79259 0
M  V30 1796 H 170.175 -2.06079 -3.28866 0
M  V30 1797 H 168.276 0.369112 -3.70767 0
M  V30 1798 H 168.389 -1.28148 -4.61644 0
M  V30 1799 H 166.753 -0.587535 -2.47831 0
M  V30 1800 H 167.536 -2.25533 -2.58824 0
M  V30 1801 N 169.982 1.44106 -0.638065 0
M  V30 1802 C 171.228 2.02277 -0.145546 0
M  V30 1803 C 171.561 1.50125 1.23191 0
M  V30 1804 O 170.836 0.688133 1.8192 0
M  V30 1805 C 171.119 3.59829 -0.139791 0
M  V30 1806 C 170.972 4.22247 -1.55008 0
M  V30 1807 C 172.291 4.36873 0.531966 0
M  V30 1808 H 169.41 0.734992 -0.0543632 0
M  V30 1809 H 172.052 1.71592 -0.815863 0
M  V30 1810 H 170.202 3.86102 0.431007 0
M  V30 1811 H 171.874 4.07057 -2.1703 0
M  V30 1812 H 170.117 3.79476 -2.10191 0
M  V30 1813 H 170.788 5.31284 -1.49804 0
M  V30 1814 H 173.264 4.16074 0.0464781 0
M  V30 1815 H 172.14 5.4657 0.505206 0
M  V30 1816 H 172.401 4.11995 1.60352 0
M  V30 1817 N 171.46 0.379036 1.52974 0
M  V30 1818 C 172.708 -0.206014 2.01047 0
M  V30 1819 C 173.029 -1.48175 1.26765 0
M  V30 1820 O 172.299 -1.92085 0.384743 0
M  V30 1821 H 170.879 -0.0791184 0.742798 0
M  V30 1822 H 173.541 0.508366 1.88153 0
M  V30 1823 H 172.637 -0.423501 3.09213 0
M  V30 1824 N 172.938 -1.57226 0.108567 0
M  V30 1825 C 174.184 -1.95121 -0.552761 0
M  V30 1826 C 174.517 -0.991345 -1.66991 0
M  V30 1827 O 173.792 -0.0267211 -1.94482 0
M  V30 1828 C 174.075 -3.43039 -1.09528 0
M  V30 1829 C 173.928 -4.49797 0.0177332 0
M  V30 1830 C 175.247 -3.92567 -1.98945 0
M  V30 1831 H 172.366 -0.709496 -0.199461 0
M  V30 1832 H 175.008 -1.89126 0.182011 0
M  V30 1833 H 173.158 -3.48279 -1.72146 0
M  V30 1834 H 174.83 -4.56661 0.652584 0
M  V30 1835 H 173.073 -4.284 0.682309 0
M  V30 1836 H 173.744 -5.50528 -0.402919 0
M  V30 1837 H 176.22 -3.89565 -1.46214 0
M  V30 1838 H 175.096 -4.96605 -2.33827 0
M  V30 1839 H 175.357 -3.32648 -2.91201 0
M  V30 1840 N 174.416 0.165178 -1.56732 0
M  V30 1841 C 175.664 0.879068 -1.8198 0
M  V30 1842 C 175.985 1.82514 -0.686561 0
M  V30 1843 O 175.255 1.93694 0.293146 0
M  V30 1844 H 173.835 0.327608 -0.671329 0
M  V30 1845 H 176.497 0.163526 -1.94213 0
M  V30 1846 H 175.593 1.45228 -2.76252 0
M  V30 1847 N 175.894 1.51508 0.433938 0
M  V30 1848 C 176.844 1.69451 1.52546 0
M  V30 1849 C 177.828 0.548474 1.51263 0
M  V30 1850 O 179.02 0.804529 1.57659 0
M  V30 1851 C 176.149 1.82604 2.90707 0
M  V30 1852 C 175.235 3.03002 2.96733 0
M  V30 1853 N 175.626 4.26121 2.72496 0
M  V30 1854 C 173.924 3.02327 3.27894 0
M  V30 1855 C 174.625 5.07407 2.84452 0
M  V30 1856 N 173.601 4.42126 3.16269 0
M  V30 1857 H 177.403 2.62305 1.32564 0
M  V30 1858 H 174.917 1.49202 0.641297 0
M  V30 1859 H 176.914 1.93569 3.69238 0
M  V30 1860 H 175.574 0.909339 3.11707 0
M  V30 1861 H 176.585 4.55009 2.4736 0
M  V30 1862 H 173.262 2.20301 3.54646 0
M  V30 1863 H 174.652 6.15422 2.69639 0
M  V30 1864 N 177.372 -0.689602 1.41712 0
M  V30 1865 C 178.335 -1.78521 1.43746 0
M  V30 1866 C 179.335 -1.57436 0.327191 0
M  V30 1867 O 180.525 -1.64 0.587348 0
M  V30 1868 C 177.657 -3.16971 1.25467 0
M  V30 1869 H 178.85 -1.78108 2.41283 0
M  V30 1870 H 176.403 -0.89781 1.27942 0
M  V30 1871 H 177.138 -3.23019 0.287948 0
M  V30 1872 H 176.923 -3.33678 2.05917 0
M  V30 1873 H 178.413 -3.96935 1.2974 0
M  V30 1874 N 178.85 -1.27639 -0.924453 0
M  V30 1875 C 180.097 -1.14167 -1.67249 0
M  V30 1876 C 180.425 0.311863 -1.91984 0
M  V30 1877 O 179.68 1.24425 -1.51053 0
M  V30 1878 C 179.979 -1.87407 -3.04325 0
M  V30 1879 C 179.645 -3.37249 -2.99289 0
M  V30 1880 C 178.307 -3.7812 -2.97622 0
M  V30 1881 C 180.659 -4.32845 -2.90336 0
M  V30 1882 C 177.987 -5.12944 -2.8479 0
M  V30 1883 C 180.339 -5.6773 -2.79045 0
M  V30 1884 C 179.003 -6.07889 -2.7573 0
M  V30 1885 H 178.273 -0.417766 -0.612007 0
M  V30 1886 H 180.92 -1.58286 -1.07786 0
M  V30 1887 H 179.225 -1.35805 -3.67511 0
M  V30 1888 H 180.922 -1.74408 -3.61086 0
M  V30 1889 H 177.512 -3.04748 -3.01374 0
M  V30 1890 H 181.696 -4.02239 -2.90719 0
M  V30 1891 H 176.952 -5.432 -2.80612 0
M  V30 1892 H 181.126 -6.41472 -2.71083 0
M  V30 1893 H 178.753 -7.12314 -2.65544 0
M  V30 1894 N 180.328 1.1314 -1.09713 0
M  V30 1895 C 181.574 1.84757 -0.836224 0
M  V30 1896 C 181.907 1.8347 0.636598 0
M  V30 1897 O 181.182 1.27491 1.46889 0
M  V30 1898 C 181.465 3.32782 -1.37578 0
M  V30 1899 C 181.318 3.42567 -2.91493 0
M  V30 1900 C 182.637 4.28307 -1.01198 0
M  V30 1901 H 179.756 0.67082 -0.305236 0
M  V30 1902 H 182.398 1.3278 -1.35903 0
M  V30 1903 H 180.548 3.77177 -0.931097 0
M  V30 1904 H 182.22 3.06862 -3.44432 0
M  V30 1905 H 180.463 2.83349 -3.28475 0
M  V30 1906 H 181.134 4.46674 -3.24324 0
M  V30 1907 H 183.61 3.91999 -1.39556 0
M  V30 1908 H 182.486 5.30307 -1.41653 0
M  V30 1909 H 182.747 4.42029 0.0794833 0
M  V30 1910 N 181.806 0.884767 1.30421 0
M  V30 1911 C 182.769 0.356277 2.26414 0
M  V30 1912 C 183.769 -0.501124 1.52792 0
M  V30 1913 O 184.959 -0.30831 1.7145 0
M  V30 1914 C 182.091 -0.492316 3.37326 0
M  V30 1915 H 183.284 1.20389 2.74675 0
M  V30 1916 H 180.837 0.661607 1.41607 0
M  V30 1917 H 181.572 -1.36052 2.94381 0
M  V30 1918 H 181.357 0.121832 3.91911 0
M  V30 1919 H 182.847 -0.853871 4.08777 0
M  V30 1920 N 183.284 -1.43765 0.645699 0
M  V30 1921 C 184.214 -2.33471 -0.0370477 0
M  V30 1922 C 185.195 -1.49042 -0.819779 0
M  V30 1923 O 186.38 -1.77726 -0.782758 0
M  V30 1924 C 183.51 -3.32311 -1.0093 0
M  V30 1925 C 182.464 -4.2667 -0.337201 0
M  V30 1926 C 181.79 -5.1549 -1.42037 0
M  V30 1927 C 183.09 -5.16657 0.765706 0
M  V30 1928 H 184.784 -2.90809 0.712069 0
M  V30 1929 H 182.33 -1.39834 0.343876 0
M  V30 1930 H 184.283 -3.9396 -1.49578 0
M  V30 1931 H 183.007 -2.73213 -1.78948 0
M  V30 1932 H 181.666 -3.66374 0.128771 0
M  V30 1933 H 181.314 -4.52735 -2.1918 0
M  V30 1934 H 181.014 -5.79438 -0.975966 0
M  V30 1935 H 182.538 -5.80012 -1.90838 0
M  V30 1936 H 183.952 -5.72158 0.361702 0
M  V30 1937 H 182.349 -5.89286 1.13413 0
M  V30 1938 H 183.419 -4.56796 1.62683 0
M  V30 1939 N 184.763 -0.387143 -1.52771 0
M  V30 1940 C 185.673 0.456442 -2.30117 0
M  V30 1941 C 186.689 1.07342 -1.36944 0
M  V30 1942 O 187.865 1.07971 -1.70013 0
M  V30 1943 C 184.93 1.56957 -3.09136 0
M  V30 1944 C 183.991 0.977916 -4.18014 0
M  V30 1945 C 183.224 2.038 -4.93256 0
M  V30 1946 O 183.447 3.25271 -4.68567 0
M  V30 1947 O 182.381 1.6565 -5.78657 0
M  V30 1948 H 186.207 -0.17359 -3.03203 0
M  V30 1949 H 183.792 -0.150919 -1.48636 0
M  V30 1950 H 185.674 2.21628 -3.58412 0
M  V30 1951 H 184.349 2.18461 -2.38865 0
M  V30 1952 H 183.256 0.294525 -3.72939 0
M  V30 1953 H 184.589 0.407128 -4.90513 0
M  V30 1954 N 186.241 1.57166 -0.116904 0
M  V30 1955 C 187.518 1.86645 0.585049 0
M  V30 1956 C 187.898 1.0177 1.84949 0
M  V30 1957 O 187.246 0.0960379 2.28298 0
M  V30 1958 C 187.456 3.37736 0.879507 0
M  V30 1959 C 188.804 4.06289 1.23348 0
M  V30 1960 O 189.828 3.42743 0.969836 0
M  V30 1961 O 188.687 5.18455 1.7282 0
M  V30 1962 H 185.781 0.772593 0.295007 0
M  V30 1963 H 188.327 1.69025 -0.151249 0
M  V30 1964 H 187.099 3.91296 -0.0166136 0
M  V30 1965 H 186.722 3.6078 1.67103 0
M  V30 1966 N 187.719 -0.156864 1.56817 0
M  V30 1967 C 188.996 -0.899244 1.73704 0
M  V30 1968 C 189.376 -1.99771 0.682254 0
M  V30 1969 O 188.724 -2.26515 -0.300522 0
M  V30 1970 C 188.934 -1.45075 3.17418 0
M  V30 1971 C 190.282 -1.91802 3.7881 0
M  V30 1972 O 191.306 -1.54838 3.20786 0
M  V30 1973 O 190.165 -2.5994 4.80722 0
M  V30 1974 H 187.259 -0.424267 0.709878 0
M  V30 1975 H 189.805 -0.143561 1.69092 0
M  V30 1976 H 188.577 -0.660846 3.85679 0
M  V30 1977 H 188.2 -2.27021 3.26416 0
M  V30 1978 N 189.197 -1.51736 -0.425897 0
M  V30 1979 C 190.425 -1.68794 -1.1965 0
M  V30 1980 C 190.84 -0.390164 -1.84725 0
M  V30 1981 O 190.197 0.632376 -1.71194 0
M  V30 1982 C 190.248 -2.81174 -2.27208 0
M  V30 1983 O 189.969 -4.05925 -1.64793 0
M  V30 1984 C 191.47 -3.09599 -3.17275 0
M  V30 1985 H 188.69 -0.566128 -0.360194 0
M  V30 1986 H 191.234 -1.98211 -0.503249 0
M  V30 1987 H 189.389 -2.54324 -2.9223 0
M  V30 1988 H 189.803 -4.68423 -2.35967 0
M  V30 1989 H 191.277 -3.91786 -3.88854 0
M  V30 1990 H 191.754 -2.22468 -3.78688 0
M  V30 1991 H 192.36 -3.38151 -2.57941 0
M  V30 1992 N 190.675 0.682077 -1.42076 0
M  V30 1993 C 191.921 1.44428 -1.42367 0
M  V30 1994 C 192.254 1.94164 -0.0373056 0
M  V30 1995 O 191.529 1.70429 0.937239 0
M  V30 1996 C 191.812 2.64654 -2.44194 0
M  V30 1997 C 191.665 2.20596 -3.91991 0
M  V30 1998 C 192.984 3.66865 -2.431 0
M  V30 1999 H 190.103 0.523834 -0.518428 0
M  V30 2000 H 192.745 0.77576 -1.73442 0
M  V30 2001 H 190.895 3.2169 -2.17826 0
M  V30 2002 H 192.567 1.68783 -4.29313 0
M  V30 2003 H 190.81 1.52242 -4.06208 0
M  V30 2004 H 191.481 3.06921 -4.58807 0
M  V30 2005 H 193.957 3.19531 -2.66532 0
M  V30 2006 H 192.833 4.48577 -3.16339 0
M  V30 2007 H 193.094 4.17493 -1.45437 0
M  V30 2008 N 192.153 1.28127 0.917671 0
M  V30 2009 C 193.086 1.06039 2.02067 0
M  V30 2010 C 194.064 -0.0223285 1.62585 0
M  V30 2011 O 195.248 0.124823 1.88086 0
M  V30 2012 C 192.375 0.610596 3.33151 0
M  V30 2013 C 191.421 1.68937 3.91615 0
M  V30 2014 S 192.254 3.28437 4.22953 0
M  V30 2015 C 193.41 2.85283 5.57103 0
M  V30 2016 H 193.643 1.99425 2.20493 0
M  V30 2017 H 191.176 1.12071 1.06205 0
M  V30 2018 H 193.134 0.357778 4.08938 0
M  V30 2019 H 191.795 -0.303364 3.12632 0
M  V30 2020 H 190.988 1.32619 4.86239 0
M  V30 2021 H 190.59 1.89478 3.2245 0
M  V30 2022 H 192.882 2.3121 6.36827 0
M  V30 2023 H 193.825 3.7869 5.98331 0
M  V30 2024 H 194.233 2.24118 5.18104 0
M  V30 2025 N 193.631 -1.12557 1.10312 0
M  V30 2026 C 194.856 -1.88405 0.867085 0
M  V30 2027 C 195.281 -1.79038 -0.576817 0
M  V30 2028 O 194.639 -1.14439 -1.40618 0
M  V30 2029 C 194.687 -3.3563 1.31851 0
M  V30 2030 O 193.791 -4.09565 0.482734 0
M  V30 2031 H 193.132 -0.585455 0.313271 0
M  V30 2032 H 195.662 -1.42352 1.4696 0
M  V30 2033 H 195.672 -3.86469 1.3079 0
M  V30 2034 H 194.347 -3.41765 2.37001 0
M  V30 2035 H 192.924 -3.68695 0.558448 0
M  V30 2036 N 195.109 -0.891671 -1.2995 0
M  V30 2037 C 196.339 -0.527893 -1.99742 0
M  V30 2038 C 196.747 0.88979 -1.66971 0
M  V30 2039 O 196.09 1.59766 -0.906667 0
M  V30 2040 C 196.152 -0.630804 -3.53922 0
M  V30 2041 C 195.816 -2.01401 -4.10228 0
M  V30 2042 C 196.813 -2.98422 -4.25724 0
M  V30 2043 C 194.498 -2.32121 -4.45449 0
M  V30 2044 C 196.492 -4.24293 -4.75662 0
M  V30 2045 C 194.179 -3.58237 -4.95086 0
M  V30 2046 C 195.177 -4.54137 -5.10146 0
M  V30 2047 O 194.865 -5.78014 -5.58708 0
M  V30 2048 H 194.597 -0.201953 -0.645129 0
M  V30 2049 H 197.151 -1.20076 -1.66646 0
M  V30 2050 H 195.381 0.0990616 -3.86573 0
M  V30 2051 H 197.07 -0.277338 -4.04951 0
M  V30 2052 H 197.836 -2.76001 -3.98809 0
M  V30 2053 H 193.715 -1.5824 -4.32991 0
M  V30 2054 H 197.259 -4.99153 -4.87332 0
M  V30 2055 H 193.156 -3.80491 -5.21437 0
M  V30 2056 H 193.924 -5.8049 -5.77039 0
M  V30 2057 N 196.587 1.43421 -0.653314 0
M  V30 2058 C 197.52 2.2803 0.0879804 0
M  V30 2059 C 198.498 1.39833 0.82979 0
M  V30 2060 O 199.682 1.69275 0.829341 0
M  V30 2061 C 196.809 3.19247 1.13132 0
M  V30 2062 C 195.855 4.23704 0.487546 0
M  V30 2063 S 196.688 5.30377 -0.738961 0
M  V30 2064 C 197.844 6.25162 0.30384 0
M  V30 2065 H 198.077 2.90554 -0.629739 0
M  V30 2066 H 195.61 1.47934 -0.442156 0
M  V30 2067 H 197.568 3.72346 1.72827 0
M  V30 2068 H 196.229 2.55901 1.82136 0
M  V30 2069 H 195.422 4.87631 1.27407 0
M  V30 2070 H 195.024 3.73983 -0.0352915 0
M  V30 2071 H 197.316 6.67321 1.17 0
M  V30 2072 H 198.259 7.07463 -0.300402 0
M  V30 2073 H 198.667 5.60864 0.63969 0
M  V30 2074 N 198.065 0.39524 1.52563 0
M  V30 2075 C 198.995 -0.428384 2.29537 0
M  V30 2076 C 199.976 -1.05831 1.33169 0
M  V30 2077 O 201.161 -1.06995 1.62067 0
M  V30 2078 C 198.291 -1.55274 3.10656 0
M  V30 2079 C 197.245 -1.04855 4.14957 0
M  V30 2080 C 196.571 -2.26543 4.84337 0
M  V30 2081 C 197.871 -0.112324 5.22179 0
M  V30 2082 H 199.565 0.213867 2.98635 0
M  V30 2083 H 197.111 0.104298 1.43622 0
M  V30 2084 H 199.064 -2.1358 3.63265 0
M  V30 2085 H 197.788 -2.22266 2.39302 0
M  V30 2086 H 196.447 -0.487985 3.63338 0
M  V30 2087 H 196.095 -2.92059 4.09525 0
M  V30 2088 H 195.795 -1.93466 5.54837 0
M  V30 2089 H 197.319 -2.85481 5.39753 0
M  V30 2090 H 198.733 -0.603752 5.70112 0
M  V30 2091 H 197.13 0.128968 5.99961 0
M  V30 2092 H 198.2 0.837052 4.77621 0
M  V30 2093 N 199.544 -1.57102 0.125237 0
M  V30 2094 C 200.769 -2.0019 -0.542101 0
M  V30 2095 C 201.194 -1.00449 -1.59034 0
M  V30 2096 O 200.552 0.0229423 -1.81285 0
M  V30 2097 C 200.6 -3.42129 -1.13929 0
M  V30 2098 O 199.704 -3.45307 -2.2547 0
M  V30 2099 H 199.045 -0.650171 -0.134812 0
M  V30 2100 H 201.575 -2.03461 0.215553 0
M  V30 2101 H 201.585 -3.80471 -1.4733 0
M  V30 2102 H 200.26 -4.14237 -0.371531 0
M  V30 2103 H 198.837 -3.1879 -1.93462 0
M  V30 2104 N 201.022 0.148545 -1.56898 0
M  V30 2105 C 202.438 0.501131 -1.51528 0
M  V30 2106 C 202.638 1.83458 -0.833399 0
M  V30 2107 O 201.694 2.49259 -0.40328 0
M  V30 2108 C 203.007 0.512864 -2.96294 0
M  V30 2109 C 204.555 0.598487 -3.07225 0
M  V30 2110 C 205.03 0.640897 -4.53494 0
M  V30 2111 N 206.521 0.703163 -4.57832 0
M  V30 2112 C 207.256 0.756935 -5.68382 0
M  V30 2113 N 206.752 0.770147 -6.88506 0
M  V30 2114 N 208.545 0.797698 -5.56411 0
M  V30 2115 H 200.696 -0.725532 -1.99624 0
M  V30 2116 H 202.959 -0.264358 -0.910395 0
M  V30 2117 H 202.665 -0.398691 -3.49433 0
M  V30 2118 H 202.539 1.35133 -3.52163 0
M  V30 2119 H 204.926 1.50046 -2.54106 0
M  V30 2120 H 205.007 -0.267093 -2.54402 0
M  V30 2121 H 204.651 -0.256915 -5.0725 0
M  V30 2122 H 204.581 1.52295 -5.04097 0
M  V30 2123 H 207.072 0.700314 -3.71354 0
M  V30 2124 H 207.385 0.812983 -7.68512 0
M  V30 2125 H 205.73 0.738049 -6.9107 0
M  V30 2126 H 208.921 0.784535 -4.61479 0
M  V30 2127 H 209.094 0.83614 -6.42583 0
M  V30 2128 N 202.5 1.5196 0.417844 0
M  V30 2129 C 203.725 1.69717 1.1921 0
M  V30 2130 C 204.15 0.402148 1.83751 0
M  V30 2131 O 203.508 -0.639593 1.69643 0
M  V30 2132 C 203.556 2.82794 2.2374 0
M  V30 2133 O 202.66 2.47756 3.29683 0
M  V30 2134 H 202.001 0.565263 0.348387 0
M  V30 2135 H 204.531 1.98621 0.490985 0
M  V30 2136 H 204.541 3.07452 2.68212 0
M  V30 2137 H 203.216 3.76756 1.76146 0
M  V30 2138 H 201.793 2.33739 2.90552 0
M  V30 2139 N 203.978 -0.674533 1.42435 0
M  V30 2140 C 205.208 -1.46071 1.46105 0
M  V30 2141 C 205.616 -1.89067 0.0709605 0
M  V30 2142 O 204.959 -1.58731 -0.924677 0
M  V30 2143 C 205.021 -2.74145 2.32561 0
M  V30 2144 C 204.685 -2.53224 3.8043 0
M  V30 2145 C 205.682 -2.17809 4.72075 0
M  V30 2146 C 203.367 -2.6821 4.24698 0
M  V30 2147 C 205.361 -1.97648 6.05982 0
M  V30 2148 C 203.048 -2.47665 5.58664 0
M  V30 2149 C 204.046 -2.12437 6.49122 0
M  V30 2150 O 203.734 -1.9209 7.80613 0
M  V30 2151 H 203.466 -0.455959 0.499076 0
M  V30 2152 H 206.02 -0.836193 1.87609 0
M  V30 2153 H 204.25 -3.3908 1.85908 0
M  V30 2154 H 205.939 -3.36028 2.27683 0
M  V30 2155 H 206.705 -2.05826 4.39159 0
M  V30 2156 H 202.584 -2.94609 3.54579 0
M  V30 2157 H 206.128 -1.70075 6.7655 0
M  V30 2158 H 202.025 -2.59244 5.91154 0
M  V30 2159 H 202.793 -2.06686 7.91974 0
M  V30 2160 N 205.456 -1.28612 -0.910864 0
M  V30 2161 C 206.702 -1.16106 -1.66274 0
M  V30 2162 C 207.035 0.289113 -1.92036 0
M  V30 2163 O 206.31 1.21 -1.52281 0
M  V30 2164 C 206.593 -1.96309 -3.01885 0
M  V30 2165 C 206.446 -3.49405 -2.8326 0
M  V30 2166 C 207.765 -1.78076 -4.02463 0
M  V30 2167 H 204.884 -0.423152 -0.603417 0
M  V30 2168 H 207.526 -1.57961 -1.05586 0
M  V30 2169 H 205.676 -1.60742 -3.53687 0
M  V30 2170 H 207.348 -3.94894 -2.38446 0
M  V30 2171 H 205.591 -3.74893 -2.18261 0
M  V30 2172 H 206.262 -4.00784 -3.79574 0
M  V30 2173 H 208.738 -2.0912 -3.59733 0
M  V30 2174 H 207.614 -2.36561 -4.95308 0
M  V30 2175 H 207.875 -0.733008 -4.35981 0
M  V30 2176 N 206.934 1.1197 -1.10907 0
M  V30 2177 C 208.162 1.87402 -0.876824 0
M  V30 2178 C 208.577 1.79894 0.573025 0
M  V30 2179 O 207.934 1.17629 1.39534 0
M  V30 2180 C 207.985 3.36428 -1.32282 0
M  V30 2181 O 207.706 3.43765 -2.71582 0
M  V30 2182 C 209.207 4.28783 -1.12518 0
M  V30 2183 H 206.427 0.592793 -0.314384 0
M  V30 2184 H 208.971 1.41649 -1.47499 0
M  V30 2185 H 207.126 3.79706 -0.768229 0
M  V30 2186 H 207.54 4.3652 -2.90776 0
M  V30 2187 H 209.014 5.31613 -1.48633 0
M  V30 2188 H 209.491 4.39153 -0.0642394 0
M  V30 2189 H 210.097 3.91291 -1.66648 0
M  V30 2190 N 208.412 0.89855 1.29475 0
M  V30 2191 C 209.344 0.332726 2.26772 0
M  V30 2192 C 210.357 -0.520323 1.54261 0
M  V30 2193 O 211.546 -0.337668 1.75277 0
M  V30 2194 C 208.646 -0.544334 3.345 0
M  V30 2195 C 207.819 0.282728 4.36485 0
M  V30 2196 C 206.878 -0.526982 5.23555 0
M  V30 2197 O 205.904 0.0551165 5.69173 0
M  V30 2198 N 207.106 -1.83331 5.5079 0
M  V30 2199 H 209.871 1.16897 2.75962 0
M  V30 2200 H 207.432 0.762919 1.42798 0
M  V30 2201 H 209.424 -1.09239 3.89678 0
M  V30 2202 H 207.994 -1.28127 2.85136 0
M  V30 2203 H 207.214 1.01221 3.80983 0
M  V30 2204 H 208.502 0.84918 5.01664 0
M  V30 2205 H 207.9 -2.32898 5.15534 0
M  V30 2206 H 206.457 -2.32852 6.08788 0
M  V30 2207 N 209.89 -1.43072 0.660911 0
M  V30 2208 C 211.167 -1.95307 0.107017 0
M  V30 2209 C 211.547 -1.60192 -1.37484 0
M  V30 2210 O 210.895 -0.890949 -2.10415 0
M  V30 2211 C 211.105 -3.47124 0.361402 0
M  V30 2212 C 212.453 -4.23738 0.270455 0
M  V30 2213 O 213.477 -3.54981 0.294382 0
M  V30 2214 O 212.336 -5.46131 0.200737 0
M  V30 2215 H 209.43 -0.826984 -0.00517729 0
M  V30 2216 H 211.976 -1.52972 0.734681 0
M  V30 2217 H 210.748 -3.65837 1.38848 0
M  V30 2218 H 210.371 -3.96475 -0.298953 0
M  V30 2219 N 211.368 -0.403325 -1.52352 0
M  V30 2220 C 212.278 0.432009 -2.30588 0
M  V30 2221 C 213.294 1.05884 -1.38075 0
M  V30 2222 O 214.47 1.06161 -1.71148 0
M  V30 2223 C 211.535 1.53669 -3.10784 0
M  V30 2224 C 210.596 0.933525 -4.19027 0
M  V30 2225 C 209.829 1.98557 -4.9539 0
M  V30 2226 O 210.052 3.20283 -4.71991 0
M  V30 2227 O 208.986 1.59504 -5.80381 0
M  V30 2228 H 212.812 -0.205739 -3.03002 0
M  V30 2229 H 210.397 -0.166675 -1.48467 0
M  V30 2230 H 212.279 2.17814 -3.60742 0
M  V30 2231 H 210.954 2.15915 -2.41169 0
M  V30 2232 H 209.861 0.254954 -3.7323 0
M  V30 2233 H 211.194 0.35508 -4.90918 0
M  V30 2234 N 212.846 1.57033 -0.133567 0
M  V30 2235 C 213.776 2.1909 0.807567 0
M  V30 2236 C 214.757 1.13517 1.26681 0
M  V30 2237 O 215.942 1.41809 1.32679 0
M  V30 2238 C 213.072 2.80188 2.05212 0
M  V30 2239 C 212.026 3.91471 1.73015 0
M  V30 2240 C 211.352 4.39443 3.04622 0
M  V30 2241 C 212.652 5.12886 0.987168 0
M  V30 2242 H 214.346 2.97988 0.290403 0
M  V30 2243 H 211.892 1.43335 0.138239 0
M  V30 2244 H 213.845 3.22264 2.71521 0
M  V30 2245 H 212.569 1.98601 2.59278 0
M  V30 2246 H 211.228 3.49993 1.0909 0
M  V30 2247 H 210.876 3.54695 3.56651 0
M  V30 2248 H 210.576 5.14495 2.83847 0
M  V30 2249 H 212.1 4.8418 3.72024 0
M  V30 2250 H 213.514 5.51891 1.55208 0
M  V30 2251 H 211.911 5.93615 0.87985 0
M  V30 2252 H 212.981 4.84894 -0.0235286 0
M  V30 2253 N 214.325 -0.140222 1.56975 0
M  V30 2254 C 215.288 -1.15689 1.97861 0
M  V30 2255 C 216.288 -1.3549 0.865974 0
M  V30 2256 O 217.478 -1.32367 1.13246 0
M  V30 2257 C 214.61 -2.51582 2.30042 0
M  V30 2258 H 215.803 -0.805971 2.88867 0
M  V30 2259 H 213.356 -0.383801 1.51515 0
M  V30 2260 H 214.091 -2.91632 1.41849 0
M  V30 2261 H 213.876 -2.38569 3.11171 0
M  V30 2262 H 215.366 -3.24792 2.62488 0
M  V30 2263 N 215.803 -1.52179 -0.40978 0
M  V30 2264 C 216.733 -1.78435 -1.5061 0
M  V30 2265 C 217.714 -0.635295 -1.57791 0
M  V30 2266 O 218.899 -0.880823 -1.73076 0
M  V30 2267 C 216.029 -1.93444 -2.88439 0
M  V30 2268 C 214.983 -3.09038 -2.96108 0
M  V30 2269 C 214.309 -3.09268 -4.36185 0
M  V30 2270 C 215.609 -4.48508 -2.67652 0
M  V30 2271 H 217.303 -2.70237 -1.28889 0
M  V30 2272 H 214.849 -1.30036 -0.618605 0
M  V30 2273 H 216.802 -2.10394 -3.65119 0
M  V30 2274 H 215.526 -0.983129 -3.11452 0
M  V30 2275 H 214.185 -2.91837 -2.21872 0
M  V30 2276 H 213.833 -2.11861 -4.56206 0
M  V30 2277 H 213.533 -3.86907 -4.42241 0
M  V30 2278 H 215.057 -3.28348 -5.14801 0
M  V30 2279 H 216.471 -4.65918 -3.34056 0
M  V30 2280 H 214.868 -5.28059 -2.85085 0
M  V30 2281 H 215.938 -4.56649 -1.63095 0
M  V30 2282 N 217.281 0.66697 -1.42791 0
M  V30 2283 C 218.506 1.46004 -1.47301 0
M  V30 2284 C 218.931 1.87894 -0.0880317 0
M  V30 2285 O 218.289 1.56502 0.915253 0
M  V30 2286 C 218.337 2.68031 -2.41229 0
M  V30 2287 O 217.441 3.6659 -1.88906 0
M  V30 2288 H 216.782 0.43832 -0.49877 0
M  V30 2289 H 219.312 0.817391 -1.87563 0
M  V30 2290 H 219.322 3.1601 -2.58073 0
M  V30 2291 H 217.997 2.36883 -3.41847 0
M  V30 2292 H 216.574 3.25661 -1.81656 0
M  V30 2293 N 218.759 1.29093 0.90403 0
M  V30 2294 C 219.722 1.1386 1.98919 0
M  V30 2295 C 220.722 0.0753457 1.60623 0
M  V30 2296 O 221.912 0.321931 1.71199 0
M  V30 2297 C 219.044 0.740198 3.32767 0
M  V30 2298 H 220.237 2.10246 2.13861 0
M  V30 2299 H 217.79 1.12218 1.08797 0
M  V30 2300 H 218.525 -0.223997 3.23525 0
M  V30 2301 H 218.31 1.50838 3.61926 0
M  V30 2302 H 219.8 0.656546 4.12407 0
M  V30 2303 N 220.237 -1.11381 1.11499 0
M  V30 2304 C 221.167 -2.19509 0.796125 0
M  V30 2305 C 222.148 -1.68458 -0.235796 0
M  V30 2306 O 223.333 -1.93947 -0.0991344 0
M  V30 2307 C 220.463 -3.46475 0.239205 0
M  V30 2308 C 219.417 -4.10744 1.20307 0
M  V30 2309 C 218.743 -5.32293 0.50683 0
M  V30 2310 C 220.043 -4.55597 2.55399 0
M  V30 2311 H 221.737 -2.46439 1.70024 0
M  V30 2312 H 219.283 -1.18446 0.818935 0
M  V30 2313 H 221.236 -4.214 0.00392006 0
M  V30 2314 H 219.96 -3.19006 -0.700206 0
M  V30 2315 H 218.619 -3.37813 1.42399 0
M  V30 2316 H 218.267 -5.01095 -0.437408 0
M  V30 2317 H 217.967 -5.76243 1.1497 0
M  V30 2318 H 219.491 -6.09956 0.280351 0
M  V30 2319 H 220.905 -5.21841 2.37391 0
M  V30 2320 H 219.302 -5.10363 3.15673 0
M  V30 2321 H 220.372 -3.69013 3.14575 0
M  V30 2322 N 221.715 -0.905404 -1.28997 0
M  V30 2323 C 222.992 -0.453513 -1.9027 0
M  V30 2324 C 223.372 1.06721 -1.82137 0
M  V30 2325 O 222.72 1.91159 -1.25182 0
M  V30 2326 C 222.93 -0.974494 -3.35119 0
M  V30 2327 C 224.278 -1.0216 -4.12127 0
M  V30 2328 O 225.302 -0.922557 -3.44046 0
M  V30 2329 O 224.161 -1.17121 -5.33802 0
M  V30 2330 H 221.255 -0.142347 -0.814657 0
M  V30 2331 H 223.801 -0.995642 -1.37423 0
M  V30 2332 H 222.573 -2.01848 -3.35221 0
M  V30 2333 H 222.196 -0.412706 -3.95452 0
M  V30 2334 N 223.193 1.4272 -0.668489 0
M  V30 2335 C 224.604 1.84793 -0.266151 0
M  V30 2336 C 224.955 1.55959 1.19043 0
M  V30 2337 O 224.08 1.01622 1.91055 0
M  V30 2338 C 224.675 3.35436 -0.476271 0
M  V30 2339 C 223.234 3.76182 -0.128113 0
M  V30 2340 C 222.381 2.66344 -0.771777 0
M  V30 2341 H 225.332 1.32656 -0.871098 0
M  V30 2342 H 225.353 3.79515 0.273561 0
M  V30 2343 H 224.865 3.5639 -1.53647 0
M  V30 2344 H 222.966 3.60836 0.928891 0
M  V30 2345 H 223.079 4.75766 -0.564231 0
M  V30 2346 H 221.443 2.53885 -0.203652 0
M  V30 2347 H 222.226 2.90123 -1.83531 0
M  V30 2348 N 224.671 0.411399 1.52136 0
M  V30 2349 C 225.634 -0.401089 2.25663 0
M  V30 2350 C 226.634 -0.971732 1.28117 0
M  V30 2351 O 227.824 -0.850254 1.52041 0
M  V30 2352 C 224.956 -1.56483 3.02863 0
M  V30 2353 H 226.149 0.24295 2.98914 0
M  V30 2354 H 223.702 0.163968 1.55438 0
M  V30 2355 H 224.437 -2.24567 2.33967 0
M  V30 2356 H 224.222 -1.16211 3.74483 0
M  V30 2357 H 225.712 -2.13951 3.58629 0
M  V30 2358 N 226.149 -1.5696 0.141893 0
M  V30 2359 C 227.079 -2.19516 -0.795936 0
M  V30 2360 C 228.06 -1.14187 -1.26077 0
M  V30 2361 O 229.245 -1.42511 -1.31925 0
M  V30 2362 C 226.375 -2.81272 -2.03723 0
M  V30 2363 C 225.329 -3.92384 -1.70936 0
M  V30 2364 C 224.655 -4.41052 -3.02287 0
M  V30 2365 C 225.955 -5.13403 -0.959954 0
M  V30 2366 H 227.649 -2.98138 -0.274596 0
M  V30 2367 H 225.195 -1.43406 -0.130636 0
M  V30 2368 H 227.148 -3.237 -2.69808 0
M  V30 2369 H 225.872 -1.99973 -2.58221 0
M  V30 2370 H 224.531 -3.50566 -1.07232 0
M  V30 2371 H 224.179 -3.56582 -3.54765 0
M  V30 2372 H 223.879 -5.15993 -2.81114 0
M  V30 2373 H 225.403 -4.86146 -3.69451 0
M  V30 2374 H 226.817 -5.52706 -1.52279 0
M  V30 2375 H 225.214 -5.94073 -0.848357 0
M  V30 2376 H 226.284 -4.84875 0.0492434 0
M  V30 2377 N 227.627 0.131896 -1.57047 0
M  V30 2378 C 228.875 0.840269 -1.83804 0
M  V30 2379 C 229.196 1.81017 -0.72512 0
M  V30 2380 O 228.466 1.94272 0.251995 0
M  V30 2381 H 227.046 0.313294 -0.678127 0
M  V30 2382 H 229.708 0.122294 -1.94516 0
M  V30 2383 H 228.804 1.39335 -2.79271 0
M  V30 2384 N 229.106 1.52395 0.401703 0
M  V30 2385 C 230.036 1.79231 1.49661 0
M  V30 2386 C 231.017 0.643654 1.57452 0
M  V30 2387 O 232.202 0.889989 1.72606 0
M  V30 2388 C 229.332 1.94971 2.87409 0
M  V30 2389 C 228.286 3.10604 2.94465 0
M  V30 2390 C 227.612 3.11577 4.34538 0
M  V30 2391 C 228.912 4.49921 2.6527 0
M  V30 2392 H 230.606 2.70917 1.27454 0
M  V30 2393 H 228.152 1.30362 0.6117 0
M  V30 2394 H 230.105 2.12328 3.63999 0
M  V30 2395 H 228.829 0.999632 3.10926 0
M  V30 2396 H 227.488 2.93009 2.20321 0
M  V30 2397 H 227.136 2.14277 4.55076 0
M  V30 2398 H 226.836 3.89247 4.40183 0
M  V30 2399 H 228.36 3.31073 5.13053 0
M  V30 2400 H 229.774 4.67683 3.31581 0
M  V30 2401 H 228.171 5.29564 2.82281 0
M  V30 2402 H 229.241 4.57507 1.60671 0
M  V30 2403 N 230.584 -0.659388 1.43143 0
M  V30 2404 C 231.995 -1.24041 1.39537 0
M  V30 2405 C 232.346 -1.95963 0.0963364 0
M  V30 2406 O 231.471 -2.00892 -0.804438 0
M  V30 2407 C 232.066 -2.25601 2.52764 0
M  V30 2408 C 230.625 -2.79195 2.52443 0
M  V30 2409 C 229.772 -1.53743 2.30778 0
M  V30 2410 H 232.723 -0.451792 1.52133 0
M  V30 2411 H 232.744 -3.07651 2.23899 0
M  V30 2412 H 232.256 -1.73226 3.47296 0
M  V30 2413 H 230.357 -3.35649 1.61773 0
M  V30 2414 H 230.47 -3.2716 3.50004 0
M  V30 2415 H 228.834 -1.80869 1.79328 0
M  V30 2416 H 229.617 -1.03312 3.27386 0
M  V30 2417 N 232.062 -1.29571 -0.897171 0
M  V30 2418 C 233.311 -1.1706 -1.64256 0
M  V30 2419 C 233.624 0.276476 -1.93636 0
M  V30 2420 O 234.83 0.52294 -2.66416 0
M  V30 2421 C 233.286 -2.0475 -2.95982 0
M  V30 2422 C 232.894 -3.54295 -2.74187 0
M  V30 2423 C 234.638 -2.0097 -3.73914 0
M  V30 2424 C 232.545 -4.34081 -4.01656 0
M  V30 2425 H 231.475 -0.43452 -0.616205 0
M  V30 2426 H 234.126 -1.54229 -0.994268 0
M  V30 2427 H 232.508 -1.60452 -3.62038 0
M  V30 2428 H 233.682 -4.06662 -2.1671 0
M  V30 2429 H 231.997 -3.59773 -2.09648 0
M  V30 2430 H 234.594 -2.57838 -4.68427 0
M  V30 2431 H 234.937 -0.990273 -4.0435 0
M  V30 2432 H 235.47 -2.43325 -3.14703 0
M  V30 2433 H 232.209 -5.36671 -3.76384 0
M  V30 2434 H 231.729 -3.86483 -4.58684 0
M  V30 2435 H 233.408 -4.44877 -4.69781 0
M  V30 2436 N 233.54 1.10788 -1.12088 0
M  V30 2437 C 234.817 1.79136 -0.785476 0
M  V30 2438 C 235.197 1.98246 0.725377 0
M  V30 2439 O 234.545 1.57258 1.65778 0
M  V30 2440 C 234.755 3.12375 -1.55636 0
M  V30 2441 C 236.103 3.8731 -1.74001 0
M  V30 2442 O 237.127 3.22085 -1.52117 0
M  V30 2443 O 235.986 5.04369 -2.10415 0
M  V30 2444 H 233.08 0.776226 -0.285311 0
M  V30 2445 H 235.626 1.1747 -1.2247 0
M  V30 2446 H 234.398 2.93863 -2.5838 0
M  V30 2447 H 234.021 3.81758 -1.11114 0
M  V30 2448 N 235.018 0.912232 1.28515 0
M  V30 2449 C 236.267 0.540504 1.94323 0
M  V30 2450 C 236.58 -0.920044 1.72611 0
M  V30 2451 O 237.786 -1.39986 2.32629 0
M  V30 2452 C 236.242 0.915803 3.48053 0
M  V30 2453 C 235.85 2.39598 3.78546 0
M  V30 2454 C 237.594 0.614588 4.20027 0
M  V30 2455 C 235.501 2.71148 5.25578 0
M  V30 2456 H 234.431 0.198418 0.727424 0
M  V30 2457 H 237.082 1.11094 1.46049 0
M  V30 2458 H 235.464 0.274168 3.9505 0
M  V30 2459 H 236.638 3.08422 3.42364 0
M  V30 2460 H 234.953 2.66749 3.1974 0
M  V30 2461 H 237.55 0.827002 5.28266 0
M  V30 2462 H 237.893 -0.447531 4.13887 0
M  V30 2463 H 238.426 1.21462 3.78803 0
M  V30 2464 H 235.165 3.76207 5.36794 0
M  V30 2465 H 234.685 2.0696 5.62963 0
M  V30 2466 H 236.364 2.58072 5.93302 0
M  V30 2467 N 236.496 -1.42363 0.676048 0
M  V30 2468 C 237.744 -2.01123 0.198437 0
M  V30 2469 C 238.065 -1.53731 -1.19966 0
M  V30 2470 O 237.335 -0.759518 -1.80577 0
M  V30 2471 H 235.915 -0.743678 0.0703721 0
M  V30 2472 H 238.577 -1.74263 0.872837 0
M  V30 2473 H 237.673 -3.11454 0.200686 0
M  V30 2474 N 237.974 -0.419461 -1.51915 0
M  V30 2475 C 239.22 0.153166 -2.02221 0
M  V30 2476 C 239.553 1.43907 -1.30401 0
M  V30 2477 O 238.828 1.90055 -0.413438 0
M  V30 2478 C 239.111 0.390291 -3.57979 0
M  V30 2479 C 238.964 -0.913014 -4.40436 0
M  V30 2480 C 240.283 1.16794 -4.2432 0
M  V30 2481 H 237.402 0.0541924 -0.735005 0
M  V30 2482 H 240.044 -0.554955 -1.81715 0
M  V30 2483 H 238.194 0.993491 -3.75582 0
M  V30 2484 H 239.866 -1.54882 -4.34522 0
M  V30 2485 H 238.109 -1.52168 -4.06236 0
M  V30 2486 H 238.78 -0.701361 -5.47526 0
M  V30 2487 H 241.256 0.657161 -4.10878 0
M  V30 2488 H 240.132 1.3026 -5.3322 0
M  V30 2489 H 240.393 2.19132 -3.83971 0
M  V30 2490 N 239.452 1.56882 -0.150215 0
M  V30 2491 C 240.362 2.20494 0.801222 0
M  V30 2492 C 241.378 1.19019 1.26927 0
M  V30 2493 O 242.554 1.51607 1.32579 0
M  V30 2494 C 239.619 2.81659 2.02161 0
M  V30 2495 C 238.68 3.9827 1.60249 0
M  V30 2496 C 237.913 4.56508 2.7647 0
M  V30 2497 O 238.136 4.13627 3.92771 0
M  V30 2498 O 237.07 5.46719 2.51757 0
M  V30 2499 H 240.896 3.02315 0.289717 0
M  V30 2500 H 238.481 1.49202 0.0769684 0
M  V30 2501 H 240.363 3.20522 2.73576 0
M  V30 2502 H 239.038 2.02849 2.52258 0
M  V30 2503 H 237.945 3.64117 0.858477 0
M  V30 2504 H 239.278 4.78609 1.14864 0
M  V30 2505 N 240.93 -0.123565 1.57115 0
M  V30 2506 C 242.341 -0.681198 1.73829 0
M  V30 2507 C 242.692 -1.80535 0.768214 0
M  V30 2508 O 241.817 -2.16317 -0.0599103 0
M  V30 2509 C 242.412 -1.24246 3.15196 0
M  V30 2510 C 240.971 -1.74643 3.33432 0
M  V30 2511 C 240.118 -0.644284 2.69711 0
M  V30 2512 H 243.069 0.102315 1.5837 0
M  V30 2513 H 243.09 -2.11216 3.16493 0
M  V30 2514 H 242.602 -0.424062 3.85776 0
M  V30 2515 H 240.703 -2.58974 2.67886 0
M  V30 2516 H 240.816 -1.85902 4.41562 0
M  V30 2517 H 239.18 -1.07676 2.3082 0
M  V30 2518 H 239.963 0.163058 3.42913 0
M  V30 2519 N 242.408 -1.52605 -0.393616 0
M  V30 2520 C 243.657 -1.66649 -1.13627 0
M  V30 2521 C 243.97 -0.410364 -1.91247 0
M  V30 2522 O 245.176 -0.430854 -2.68059 0
M  V30 2523 C 243.632 -2.9449 -2.06891 0
M  V30 2524 C 243.24 -4.27266 -1.34714 0
M  V30 2525 C 244.984 -3.17899 -2.81319 0
M  V30 2526 C 242.891 -5.46217 -2.26717 0
M  V30 2527 H 241.821 -0.62084 -0.427871 0
M  V30 2528 H 244.472 -1.791 -0.399428 0
M  V30 2529 H 242.854 -2.75774 -2.84191 0
M  V30 2530 H 244.028 -4.56518 -0.626714 0
M  V30 2531 H 242.343 -4.10081 -0.722643 0
M  V30 2532 H 244.94 -4.03949 -3.50328 0
M  V30 2533 H 245.283 -2.32777 -3.45139 0
M  V30 2534 H 245.816 -3.37159 -2.11113 0
M  V30 2535 H 242.555 -6.33733 -1.67521 0
M  V30 2536 H 242.075 -5.21283 -2.96689 0
M  V30 2537 H 243.754 -5.7991 -2.86903 0
M  V30 2538 N 243.887 0.651787 -1.4349 0
M  V30 2539 C 245.133 1.41376 -1.45398 0
M  V30 2540 C 245.466 1.94041 -0.0784823 0
M  V30 2541 O 244.741 1.72379 0.900878 0
M  V30 2542 C 245.024 2.59414 -2.49752 0
M  V30 2543 C 244.877 2.12232 -3.96582 0
M  V30 2544 C 246.196 3.61626 -2.50827 0
M  V30 2545 H 243.315 0.512719 -0.529422 0
M  V30 2546 H 245.957 0.738796 -1.75048 0
M  V30 2547 H 244.107 3.16997 -2.246 0
M  V30 2548 H 245.779 1.59639 -4.32797 0
M  V30 2549 H 244.022 1.43592 -4.09346 0
M  V30 2550 H 244.693 2.9712 -4.65214 0
M  V30 2551 H 247.169 3.13805 -2.7325 0
M  V30 2552 H 246.045 4.41766 -3.25783 0
M  V30 2553 H 246.306 4.14314 -1.5426 0
M  V30 2554 N 245.365 1.30045 0.890287 0
M  V30 2555 C 246.59 1.21598 1.68014 0
M  V30 2556 C 247.015 -0.218678 1.86825 0
M  V30 2557 O 246.373 -1.15756 1.39536 0
M  V30 2558 C 246.421 1.94434 3.03691 0
M  V30 2559 O 245.525 1.2678 3.92429 0
M  V30 2560 H 244.866 0.420856 0.513592 0
M  V30 2561 H 247.396 1.71775 1.11151 0
M  V30 2562 H 247.406 2.03251 3.5377 0
M  V30 2563 H 246.081 2.98777 2.89318 0
M  V30 2564 H 244.658 1.26282 3.50866 0
M  V30 2565 N 246.843 -1.10192 1.12674 0
M  V30 2566 C 248.12 -1.78717 0.794965 0
M  V30 2567 C 248.5 -1.98628 -0.714853 0
M  V30 2568 O 247.848 -1.58135 -1.64941 0
M  V30 2569 C 248.058 -3.11546 1.5729 0
M  V30 2570 C 249.406 -3.86382 1.76052 0
M  V30 2571 O 250.43 -3.21274 1.53823 0
M  V30 2572 O 249.289 -5.03246 2.13087 0
M  V30 2573 H 246.383 -0.774702 0.289423 0
M  V30 2574 H 248.929 -1.16819 1.23091 0
M  V30 2575 H 247.701 -2.92489 2.59935 0
M  V30 2576 H 247.324 -3.81164 1.13137 0
M  V30 2577 N 248.321 -0.919034 -1.28029 0
M  V30 2578 C 249.737 -0.617972 -1.4715 0
M  V30 2579 C 249.937 0.835242 -1.83374 0
M  V30 2580 O 248.993 1.61388 -1.94191 0
M  V30 2581 C 250.306 -1.56041 -2.57044 0
M  V30 2582 C 251.854 -1.56769 -2.7091 0
M  V30 2583 C 252.329 -2.49688 -3.83953 0
M  V30 2584 N 253.82 -2.47845 -3.91314 0
M  V30 2585 C 254.555 -3.16437 -4.78179 0
M  V30 2586 N 254.051 -3.94376 -5.69596 0
M  V30 2587 N 255.844 -3.05498 -4.71834 0
M  V30 2588 H 247.995 -1.85866 -1.02798 0
M  V30 2589 H 250.258 -0.797506 -0.512531 0
M  V30 2590 H 249.964 -2.59671 -2.372 0
M  V30 2591 H 249.838 -1.29551 -3.54255 0
M  V30 2592 H 252.225 -0.538745 -2.90141 0
M  V30 2593 H 252.306 -1.87305 -1.74214 0
M  V30 2594 H 251.95 -3.52688 -3.65477 0
M  V30 2595 H 251.88 -2.16453 -4.80058 0
M  V30 2596 H 254.371 -1.91234 -3.25941 0
M  V30 2597 H 254.684 -4.43721 -6.32718 0
M  V30 2598 H 253.029 -3.98481 -5.69419 0
M  V30 2599 H 256.22 -2.44108 -3.99411 0
M  V30 2600 H 256.393 -3.59225 -5.39316 0
M  V30 2601 N 249.799 1.42003 -0.683588 0
M  V30 2602 C 251.076 1.95112 -0.138075 0
M  V30 2603 C 251.456 1.62359 1.34918 0
M  V30 2604 O 250.804 0.924311 2.08971 0
M  V30 2605 C 251.014 3.46505 -0.416581 0
M  V30 2606 C 252.362 4.23254 -0.337834 0
M  V30 2607 O 253.386 3.54468 -0.35082 0
M  V30 2608 O 252.245 5.45743 -0.287596 0
M  V30 2609 H 249.339 0.826961 -0.00797996 0
M  V30 2610 H 251.885 1.51784 -0.758924 0
M  V30 2611 H 250.657 3.63582 -1.4465 0
M  V30 2612 H 250.28 3.969 0.235839 0
M  V30 2613 N 251.277 0.427512 1.51691 0
M  V30 2614 C 252.693 0.0792977 1.59403 0
M  V30 2615 C 252.893 -1.41035 1.43914 0
M  V30 2616 O 251.949 -2.17922 1.27539 0
M  V30 2617 C 253.262 0.590636 2.94842 0
M  V30 2618 C 254.81 0.550215 3.08126 0
M  V30 2619 C 255.285 1.03836 4.46074 0
M  V30 2620 N 256.776 0.995943 4.52366 0
M  V30 2621 C 257.511 1.34463 5.57411 0
M  V30 2622 N 257.007 1.76569 6.69922 0
M  V30 2623 N 258.8 1.26343 5.47717 0
M  V30 2624 H 250.951 1.39687 1.60004 0
M  V30 2625 H 253.214 0.575003 0.753708 0
M  V30 2626 H 252.92 1.63251 3.11516 0
M  V30 2627 H 252.794 0.0102061 3.77199 0
M  V30 2628 H 255.181 -0.482654 2.91126 0
M  V30 2629 H 255.262 1.16693 2.27632 0
M  V30 2630 H 254.906 2.06965 4.63819 0
M  V30 2631 H 254.836 0.398286 5.25092 0
M  V30 2632 H 257.327 0.68661 3.7161 0
M  V30 2633 H 257.64 2.01438 7.46085 0
M  V30 2634 H 255.985 1.80488 6.71155 0
M  V30 2635 H 259.176 0.933209 4.58703 0
M  V30 2636 H 259.349 1.53846 6.29472 0
M  V30 2637 N 252.755 -1.56801 0.158532 0
M  V30 2638 C 254.001 -1.96781 -0.490405 0
M  V30 2639 C 254.334 -1.04397 -1.63753 0
M  V30 2640 O 253.609 -0.0885805 -1.94298 0
M  V30 2641 C 253.892 -3.4635 -0.985594 0
M  V30 2642 C 253.745 -4.49512 0.160824 0
M  V30 2643 C 255.064 -3.98697 -1.86355 0
M  V30 2644 H 252.183 -0.715482 -0.176788 0
M  V30 2645 H 254.825 -1.88451 0.242088 0
M  V30 2646 H 252.975 -3.53579 -1.60978 0
M  V30 2647 H 254.647 -4.54353 0.797537 0
M  V30 2648 H 252.89 -4.26013 0.818256 0
M  V30 2649 H 253.561 -5.51531 -0.227569 0
M  V30 2650 H 256.037 -3.94019 -1.33746 0
M  V30 2651 H 254.913 -5.03792 -2.17909 0
M  V30 2652 H 255.174 -3.41744 -2.8047 0
M  V30 2653 N 254.233 0.115231 -1.57178 0
M  V30 2654 C 255.196 1.12526 -1.99676 0
M  V30 2655 C 256.196 1.34095 -0.88742 0
M  V30 2656 O 257.386 1.30548 -1.15337 0
M  V30 2657 C 254.518 2.4789 -2.34015 0
M  V30 2658 H 255.711 0.759912 -2.90113 0
M  V30 2659 H 253.264 0.359648 -1.52106 0
M  V30 2660 H 253.999 2.89339 -1.4647 0
M  V30 2661 H 253.784 2.33588 -3.14927 0
M  V30 2662 H 255.274 3.20575 -2.67622 0
M  V30 2663 N 255.711 1.52812 0.385517 0
M  V30 2664 C 256.96 1.67249 1.12741 0
M  V30 2665 C 257.273 0.4205 1.91027 0
M  V30 2666 O 258.479 0.445064 2.67827 0
M  V30 2667 C 256.935 2.95583 2.05326 0
M  V30 2668 C 256.543 4.27974 1.32447 0
M  V30 2669 C 258.287 3.19386 2.7963 0
M  V30 2670 C 256.194 5.47412 2.23818 0
M  V30 2671 H 255.124 0.6231 0.424573 0
M  V30 2672 H 257.775 1.79309 0.389924 0
M  V30 2673 H 256.157 2.77277 2.82725 0
M  V30 2674 H 257.331 4.56844 0.602495 0
M  V30 2675 H 255.646 4.10459 0.700885 0
M  V30 2676 H 258.243 4.05801 3.48181 0
M  V30 2677 H 258.586 2.34604 3.43899 0
M  V30 2678 H 259.119 3.38274 2.09322 0
M  V30 2679 H 255.858 6.34612 1.64157 0
M  V30 2680 H 255.378 5.22849 2.93921 0
M  V30 2681 H 257.057 5.81423 2.83824 0
M  V30 2682 N 257.189 -0.644168 1.43834 0
M  V30 2683 C 258.417 -1.43147 1.49387 0
M  V30 2684 C 258.832 -1.88452 0.114583 0
M  V30 2685 O 258.189 -1.60047 -0.876989 0
M  V30 2686 C 258.24 -2.66046 2.44748 0
M  V30 2687 O 257.961 -2.22633 3.77314 0
M  V30 2688 C 259.462 -3.59311 2.59635 0
M  V30 2689 H 256.682 -0.439447 0.507077 0
M  V30 2690 H 259.226 -0.78895 1.88669 0
M  V30 2691 H 257.381 -3.26418 2.08638 0
M  V30 2692 H 257.795 -3.02216 4.28679 0
M  V30 2693 H 259.269 -4.42187 3.30416 0
M  V30 2694 H 259.746 -4.07259 1.64427 0
M  V30 2695 H 260.352 -3.04816 2.96593 0
M  V30 2696 N 258.668 -1.30515 -0.883378 0
M  V30 2697 C 259.598 -1.19607 -2.00541 0
M  V30 2698 C 260.579 -0.086346 -1.69881 0
M  V30 2699 O 261.764 -0.268654 -1.92333 0
M  V30 2700 C 258.894 -0.888758 -3.35736 0
M  V30 2701 C 257.848 -1.95659 -3.8066 0
M  V30 2702 C 257.174 -1.50224 -5.13164 0
M  V30 2703 C 258.474 -3.36788 -3.99213 0
M  V30 2704 H 260.168 -2.13476 -2.09925 0
M  V30 2705 H 257.714 -1.02775 -1.00863 0
M  V30 2706 H 259.667 -0.799094 -4.13754 0
M  V30 2707 H 258.391 0.0856125 -3.26488 0
M  V30 2708 H 257.05 -2.03591 -3.04871 0
M  V30 2709 H 256.698 -0.516092 -5.00345 0
M  V30 2710 H 256.398 -2.2165 -5.44192 0
M  V30 2711 H 257.922 -1.42639 -5.93706 0
M  V30 2712 H 259.336 -3.31605 -4.67665 0
M  V30 2713 H 257.733 -4.06314 -4.41621 0
M  V30 2714 H 258.803 -3.78561 -3.03017 0
M  V30 2715 N 260.146 1.09593 -1.13257 0
M  V30 2716 C 261.109 2.14359 -0.811358 0
M  V30 2717 C 262.109 1.59808 0.178377 0
M  V30 2718 O 263.299 1.74132 -0.0484911 0
M  V30 2719 C 260.431 3.40269 -0.207276 0
M  V30 2720 H 261.624 2.44284 -1.73969 0
M  V30 2721 H 259.177 1.25102 -0.936973 0
M  V30 2722 H 259.912 3.15969 0.73036 0
M  V30 2723 H 259.697 3.81154 -0.919992 0
M  V30 2724 H 261.187 4.176 0.000667944 0
M  V30 2725 N 261.624 0.925811 1.2754 0
M  V30 2726 C 262.534 0.428993 2.30644 0
M  V30 2727 C 263.55 -0.489387 1.66976 0
M  V30 2728 O 264.726 -0.372653 1.97922 0
M  V30 2729 C 261.791 -0.311967 3.45294 0
M  V30 2730 C 260.852 0.641098 4.24486 0
M  V30 2731 C 260.085 -0.0645955 5.33661 0
M  V30 2732 O 260.308 -1.28429 5.55754 0
M  V30 2733 O 259.242 0.606265 5.98839 0
M  V30 2734 H 263.068 1.28504 2.75173 0
M  V30 2735 H 260.653 0.691086 1.32455 0
M  V30 2736 H 262.535 -0.729972 4.15029 0
M  V30 2737 H 261.21 -1.14365 3.02824 0
M  V30 2738 H 260.117 1.10874 3.57292 0
M  V30 2739 H 261.45 1.43995 4.70666 0
M  V30 2740 N 263.102 -1.41638 0.69111 0
M  V30 2741 C 264.065 -2.29178 0.0319786 0
M  V30 2742 C 265.065 -1.44153 -0.712496 0
M  V30 2743 O 266.255 -1.65354 -0.548053 0
M  V30 2744 C 263.387 -3.26952 -0.965161 0
M  V30 2745 H 264.58 -2.88959 0.802681 0
M  V30 2746 H 262.133 -1.4955 0.454356 0
M  V30 2747 H 262.868 -2.72142 -1.76378 0
M  V30 2748 H 262.653 -3.89685 -0.434522 0
M  V30 2749 H 264.143 -3.92561 -1.42428 0
M  V30 2750 N 264.58 -0.43555 -1.51462 0
M  V30 2751 C 265.512 0.41257 -2.25456 0
M  V30 2752 C 266.525 0.987822 -1.29406 0
M  V30 2753 O 267.714 0.882266 -1.55172 0
M  V30 2754 C 264.814 1.58894 -2.99342 0
M  V30 2755 C 263.987 1.13288 -4.22474 0
M  V30 2756 C 263.046 2.17917 -4.78956 0
M  V30 2757 O 262.072 1.77425 -5.40841 0
M  V30 2758 N 263.274 3.50382 -4.62832 0
M  V30 2759 H 266.039 -0.221603 -2.9888 0
M  V30 2760 H 263.6 -0.264342 -1.59727 0
M  V30 2761 H 265.592 2.28508 -3.34015 0
M  V30 2762 H 264.162 2.12849 -2.28941 0
M  V30 2763 H 263.382 0.263881 -3.93316 0
M  V30 2764 H 264.67 0.805542 -5.02383 0
M  V30 2765 H 264.068 3.86013 -4.13534 0
M  V30 2766 H 262.625 4.15895 -5.01871 0
M  V30 2767 N 266.058 1.56714 -0.166846 0
M  V30 2768 C 267.474 1.58473 0.189372 0
M  V30 2769 C 267.674 1.18201 1.63189 0
M  V30 2770 O 266.73 0.891528 2.36237 0
M  V30 2771 C 268.043 3.00573 -0.0873872 0
M  V30 2772 C 269.591 3.1299 -0.0252443 0
M  V30 2773 C 270.066 4.57174 -0.274934 0
M  V30 2774 N 271.557 4.62665 -0.222553 0
M  V30 2775 C 272.292 5.72072 -0.389985 0
M  V30 2776 N 271.788 6.90054 -0.616229 0
M  V30 2777 N 273.581 5.61153 -0.326202 0
M  V30 2778 H 265.732 1.8118 -1.10849 0
M  V30 2779 H 267.995 0.839525 -0.440342 0
M  V30 2780 H 267.701 3.34497 -1.0865 0
M  V30 2781 H 267.575 3.72019 0.623037 0
M  V30 2782 H 269.962 2.78895 0.96444 0
M  V30 2783 H 270.043 2.43989 -0.768309 0
M  V30 2784 H 269.687 4.91976 -1.26181 0
M  V30 2785 H 269.617 5.24328 0.48869 0
M  V30 2786 H 272.108 3.77863 -0.0531512 0
M  V30 2787 H 272.421 7.69311 -0.733559 0
M  V30 2788 H 270.766 6.91927 -0.652791 0
M  V30 2789 H 273.957 4.67859 -0.150072 0
M  V30 2790 H 274.13 6.46364 -0.460116 0
M  V30 2791 N 267.536 -0.106894 1.57237 0
M  V30 2792 C 268.468 -1.15646 1.97885 0
M  V30 2793 C 269.481 -1.36981 0.879779 0
M  V30 2794 O 270.67 -1.35841 1.15799 0
M  V30 2795 C 267.77 -2.51425 2.27241 0
M  V30 2796 C 266.943 -2.50529 3.58545 0
M  V30 2797 C 266.002 -3.68145 3.75973 0
M  V30 2798 O 265.028 -3.51176 4.47956 0
M  V30 2799 N 266.23 -4.87177 3.15656 0
M  V30 2800 H 268.995 -0.81059 2.8853 0
M  V30 2801 H 266.556 -0.296024 1.59171 0
M  V30 2802 H 268.548 -3.28689 2.36105 0
M  V30 2803 H 267.118 -2.78147 1.42663 0
M  V30 2804 H 266.338 -1.58894 3.60758 0
M  V30 2805 H 267.626 -2.46997 4.44826 0
M  V30 2806 H 267.024 -5.03868 2.57165 0
M  V30 2807 H 265.581 -5.62075 3.30023 0
M  V30 2808 N 269.014 -1.53014 -0.377408 0
M  V30 2809 C 270.262 -1.6829 -1.11906 0
M  V30 2810 C 270.583 -0.431206 -1.90173 0
M  V30 2811 O 269.853 0.554595 -1.87886 0
M  V30 2812 H 268.433 -0.620371 -0.416112 0
M  V30 2813 H 271.095 -1.90167 -0.426893 0
M  V30 2814 H 270.191 -2.53862 -1.8155 0
M  V30 2815 N 270.492 0.636531 -1.44174 0
M  V30 2816 C 271.422 1.76003 -1.53444 0
M  V30 2817 C 272.403 1.65619 -0.387841 0
M  V30 2818 O 273.588 1.84461 -0.607257 0
M  V30 2819 C 270.718 3.14511 -1.4731 0
M  V30 2820 C 269.672 3.39677 -2.60391 0
M  V30 2821 C 268.998 4.78159 -2.39308 0
M  V30 2822 C 270.298 3.32772 -4.02567 0
M  V30 2823 H 271.992 1.68501 -2.47483 0
M  V30 2824 H 269.538 0.809237 -1.19111 0
M  V30 2825 H 271.491 3.92878 -1.52397 0
M  V30 2826 H 270.215 3.22783 -0.49785 0
M  V30 2827 H 268.874 2.63688 -2.54684 0
M  V30 2828 H 268.522 4.83128 -1.39988 0
M  V30 2829 H 268.222 4.95956 -3.15122 0
M  V30 2830 H 269.746 5.58762 -2.46205 0
M  V30 2831 H 271.16 4.01051 -4.09672 0
M  V30 2832 H 269.557 3.62104 -4.7854 0
M  V30 2833 H 270.627 2.30669 -4.2652 0
M  V30 2834 N 271.97 1.30982 0.876444 0
M  V30 2835 C 272.9 1.20668 1.99903 0
M  V30 2836 C 273.881 0.095354 1.69833 0
M  V30 2837 O 275.066 0.27885 1.92188 0
M  V30 2838 C 272.196 0.90655 3.3526 0
M  V30 2839 C 271.15 1.97675 3.79617 0
M  V30 2840 C 270.476 1.52943 5.1236 0
M  V30 2841 C 271.776 3.389 3.97422 0
M  V30 2842 H 273.47 2.14586 2.0879 0
M  V30 2843 H 271.016 1.03308 1.00317 0
M  V30 2844 H 272.969 0.821025 4.13324 0
M  V30 2845 H 271.693 -0.0682969 3.26529 0
M  V30 2846 H 270.352 2.05205 3.03787 0
M  V30 2847 H 270 0.54262 5.00065 0
M  V30 2848 H 269.7 2.24532 5.43009 0
M  V30 2849 H 271.224 1.45786 5.92941 0
M  V30 2850 H 272.638 3.34081 4.659 0
M  V30 2851 H 271.035 4.0865 4.3946 0
M  V30 2852 H 272.105 3.80163 3.01006 0
M  V30 2853 N 273.449 -1.08991 1.13837 0
M  V30 2854 C 274.86 -1.62746 0.914917 0
M  V30 2855 C 275.211 -1.88403 -0.547594 0
M  V30 2856 O 274.336 -1.63706 -1.41525 0
M  V30 2857 C 274.931 -2.95662 1.65437 0
M  V30 2858 C 273.49 -3.46225 1.47666 0
M  V30 2859 C 272.637 -2.20562 1.6807 0
M  V30 2860 H 275.588 -0.922946 1.29102 0
M  V30 2861 H 275.609 -3.63825 1.11407 0
M  V30 2862 H 275.121 -2.76956 2.71877 0
M  V30 2863 H 273.222 -3.70046 0.435478 0
M  V30 2864 H 273.335 -4.23368 2.24268 0
M  V30 2865 H 271.699 -2.29439 1.10589 0
M  V30 2866 H 272.482 -2.0437 2.7584 0
M  V30 2867 N 274.927 -0.932562 -1.27047 0
M  V30 2868 C 276.204 -0.49377 -1.89265 0
M  V30 2869 C 276.584 1.02833 -1.8436 0
M  V30 2870 O 275.932 1.88461 -1.29209 0
M  V30 2871 C 276.142 -1.04536 -3.32976 0
M  V30 2872 C 277.49 -1.10879 -4.09867 0
M  V30 2873 O 278.514 -0.995327 -3.42011 0
M  V30 2874 O 277.373 -1.28417 -5.31198 0
M  V30 2875 H 274.467 -0.159596 -0.811454 0
M  V30 2876 H 277.013 -1.02457 -1.3528 0
M  V30 2877 H 275.785 -2.08913 -3.30864 0
M  V30 2878 H 275.408 -0.496494 -3.94488 0
M  V30 2879 N 276.405 1.4127 -0.698611 0
M  V30 2880 C 277.635 2.05205 -0.239644 0
M  V30 2881 C 278.043 1.52684 1.11733 0
M  V30 2882 O 277.386 0.671222 1.70998 0
M  V30 2883 C 277.448 3.59289 -0.123126 0
M  V30 2884 C 277.112 4.34619 -1.41263 0
M  V30 2885 C 278.109 4.63701 -2.35111 0
M  V30 2886 C 275.794 4.73837 -1.66684 0
M  V30 2887 C 277.788 5.30966 -3.52639 0
M  V30 2888 C 275.475 5.40837 -2.84498 0
M  V30 2889 C 276.473 5.69329 -3.77298 0
M  V30 2890 O 276.161 6.34949 -4.93047 0
M  V30 2891 H 275.893 0.66723 -0.108537 0
M  V30 2892 H 278.447 1.81974 -0.952602 0
M  V30 2893 H 276.677 3.81272 0.645628 0
M  V30 2894 H 278.366 4.04797 0.299056 0
M  V30 2895 H 279.132 4.33882 -2.16729 0
M  V30 2896 H 275.011 4.51039 -0.953135 0
M  V30 2897 H 278.555 5.53121 -4.25091 0
M  V30 2898 H 274.452 5.70075 -3.02795 0
M  V30 2899 H 275.22 6.53445 -4.92902 0
M  V30 2900 N 277.883 0.443576 1.51229 0
M  V30 2901 C 279.111 -0.11929 2.06556 0
M  V30 2902 C 279.526 -1.35921 1.31038 0
M  V30 2903 O 278.883 -1.78675 0.371704 0
M  V30 2904 C 278.934 -0.435228 3.5887 0
M  V30 2905 O 278.655 0.755486 4.31537 0
M  V30 2906 C 280.156 -1.04808 4.30732 0
M  V30 2907 H 277.376 -0.0051584 0.67098 0
M  V30 2908 H 279.92 0.624453 1.94733 0
M  V30 2909 H 278.075 -1.12887 3.70588 0
M  V30 2910 H 278.489 0.483491 5.22267 0
M  V30 2911 H 279.963 -1.2191 5.3837 0
M  V30 2912 H 280.44 -2.03081 3.89429 0
M  V30 2913 H 281.046 -0.393637 4.23474 0
M  V30 2914 N 279.361 -1.56624 0.175154 0
M  V30 2915 C 280.589 -2.01374 -0.474971 0
M  V30 2916 C 281.004 -1.05537 -1.56548 0
M  V30 2917 O 280.361 -0.0568668 -1.82411 0
M  V30 2918 C 280.412 -3.45923 -1.04975 0
M  V30 2919 O 280.133 -4.381 -0.00276605 0
M  V30 2920 C 281.634 -4.06093 -1.77773 0
M  V30 2921 H 278.854 -0.659962 -0.121206 0
M  V30 2922 H 281.398 -2.02601 0.27801 0
M  V30 2923 H 279.553 -3.45458 -1.75321 0
M  V30 2924 H 279.967 -5.22753 -0.427681 0
M  V30 2925 H 281.441 -5.09147 -2.13245 0
M  V30 2926 H 281.918 -3.48405 -2.67414 0
M  V30 2927 H 282.524 -4.10272 -1.12059 0
M  V30 2928 N 280.839 0.0985539 -1.57292 0
M  V30 2929 C 282.064 0.820196 -1.90493 0
M  V30 2930 C 282.489 1.71658 -0.769094 0
M  V30 2931 O 281.847 1.79133 0.279495 0
M  V30 2932 C 281.895 1.61242 -3.22542 0
M  V30 2933 O 280.999 2.72108 -3.09888 0
M  V30 2934 H 280.34 0.225547 -0.62452 0
M  V30 2935 H 282.87 0.0748159 -2.04463 0
M  V30 2936 H 282.88 1.99737 -3.55766 0
M  V30 2937 H 281.555 0.954535 -4.04798 0
M  V30 2938 H 280.132 2.36667 -2.88172 0
M  V30 2939 N 282.317 1.53212 0.369288 0
M  V30 2940 C 283.249 1.75668 1.47219 0
M  V30 2941 C 284.262 0.637387 1.49804 0
M  V30 2942 O 285.451 0.913561 1.5335 0
M  V30 2943 C 282.551 1.81818 2.85999 0
M  V30 2944 C 281.724 3.11409 3.07153 0
M  V30 2945 C 280.783 3.08849 4.26026 0
M  V30 2946 O 279.809 3.82659 4.2138 0
M  V30 2947 N 281.011 2.29409 5.33246 0
M  V30 2948 H 283.776 2.70832 1.28337 0
M  V30 2949 H 281.337 1.51944 0.55898 0
M  V30 2950 H 283.329 1.77588 3.63655 0
M  V30 2951 H 281.899 0.939544 2.98146 0
M  V30 2952 H 281.119 3.28971 2.1719 0
M  V30 2953 H 282.407 3.97059 3.18154 0
M  V30 2954 H 281.805 1.68946 5.39883 0
M  V30 2955 H 280.362 2.31001 6.09493 0
M  V30 2956 N 283.795 -0.628877 1.44509 0
M  V30 2957 C 284.705 -1.7694 1.54044 0
M  V30 2958 C 285.721 -1.68705 0.425987 0
M  V30 2959 O 286.897 -1.89442 0.683656 0
M  V30 2960 C 283.962 -3.13332 1.48405 0
M  V30 2961 C 283.023 -3.33181 2.70719 0
M  V30 2962 C 282.256 -4.63067 2.6534 0
M  V30 2963 O 282.479 -5.44017 1.71469 0
M  V30 2964 O 281.413 -4.85167 3.56226 0
M  V30 2965 H 285.239 -1.71848 2.50403 0
M  V30 2966 H 282.824 -0.790378 1.26781 0
M  V30 2967 H 284.706 -3.94634 1.47791 0
M  V30 2968 H 283.381 -3.1896 0.551898 0
M  V30 2969 H 282.288 -2.51549 2.769 0
M  V30 2970 H 283.621 -3.32416 3.62988 0
M  V30 2971 N 285.273 -1.31445 -0.869486 0
M  V30 2972 C 286.522 -1.20517 -1.61736 0
M  V30 2973 C 286.835 0.235341 -1.94179 0
M  V30 2974 O 288.041 0.466312 -2.67465 0
M  V30 2975 C 286.497 -2.10982 -2.91573 0
M  V30 2976 C 286.105 -3.60032 -2.66611 0
M  V30 2977 C 287.849 -2.08856 -3.69567 0
M  V30 2978 C 285.756 -4.42503 -3.92358 0
M  V30 2979 H 284.686 -0.447493 -0.606849 0
M  V30 2980 H 287.337 -1.56303 -0.96133 0
M  V30 2981 H 285.719 -1.68095 -3.58553 0
M  V30 2982 H 286.893 -4.11167 -2.08035 0
M  V30 2983 H 285.208 -3.64139 -2.0197 0
M  V30 2984 H 287.805 -2.67716 -4.62852 0
M  V30 2985 H 288.148 -1.07582 -4.02159 0
M  V30 2986 H 288.681 -2.49945 -3.09471 0
M  V30 2987 H 285.42 -5.44533 -3.64916 0
M  V30 2988 H 284.94 -3.96125 -4.50383 0
M  V30 2989 H 286.619 -4.54741 -4.60238 0
M  V30 2990 N 286.751 1.08385 -1.14413 0
M  V30 2991 C 287.661 2.18856 -0.844951 0
M  V30 2992 C 288.677 1.73121 0.174668 0
M  V30 2993 O 289.853 2.014 0.00312857 0
M  V30 2994 C 286.918 3.45155 -0.32696 0
M  V30 2995 C 285.979 4.05513 -1.40916 0
M  V30 2996 C 285.212 5.25784 -0.915793 0
M  V30 2997 O 285.435 5.69884 0.242651 0
M  V30 2998 O 284.369 5.77545 -1.69487 0
M  V30 2999 H 288.195 2.46919 -1.76818 0
M  V30 3000 H 285.78 1.17524 -0.922411 0
M  V30 3001 H 287.662 4.21377 -0.0440211 0
M  V30 3002 H 286.337 3.18668 0.568539 0
M  V30 3003 H 285.244 3.30879 -1.74556 0
M  V30 3004 H 286.577 4.3625 -2.27919 0
M  V30 3005 N 288.23 0.939286 1.26551 0
M  V30 3006 C 289.646 0.641304 1.46149 0
M  V30 3007 C 289.846 -0.805964 1.84679 0
M  V30 3008 O 288.902 -1.58278 1.96734 0
M  V30 3009 C 290.215 1.6011 2.54529 0
M  V30 3010 C 291.763 1.6106 2.68382 0
M  V30 3011 C 292.238 2.55765 3.79932 0
M  V30 3012 N 293.729 2.5404 3.87322 0
M  V30 3013 C 294.464 3.24004 4.73085 0
M  V30 3014 N 293.96 4.03388 5.63249 0
M  V30 3015 N 295.753 3.12965 4.66914 0
M  V30 3016 H 287.904 1.87478 0.998285 0
M  V30 3017 H 290.167 0.805559 0.499779 0
M  V30 3018 H 289.873 2.63412 2.33039 0
M  V30 3019 H 289.747 1.35171 3.52149 0
M  V30 3020 H 292.134 0.584835 2.89247 0
M  V30 3021 H 292.215 1.90053 1.71212 0
M  V30 3022 H 291.859 3.58458 3.5982 0
M  V30 3023 H 291.789 2.24063 4.76554 0
M  V30 3024 H 294.28 1.96396 3.22858 0
M  V30 3025 H 294.593 4.5373 6.25579 0
M  V30 3026 H 292.938 4.07489 5.63008 0
M  V30 3027 H 296.129 2.50432 3.95476 0
M  V30 3028 H 296.302 3.67759 5.33533 0
M  V30 3029 N 289.708 -1.40897 0.706093 0
M  V30 3030 C 291.124 -1.55042 0.37869 0
M  V30 3031 C 291.324 -1.67944 -1.11342 0
M  V30 3032 O 290.38 -1.66372 -1.89938 0
M  V30 3033 C 291.693 -2.78398 1.13643 0
M  V30 3034 C 293.241 -2.92206 1.12181 0
M  V30 3035 C 293.716 -4.18463 1.86152 0
M  V30 3036 N 295.207 -4.25443 1.83173 0
M  V30 3037 C 295.942 -5.2202 2.37239 0
M  V30 3038 N 295.438 -6.24563 2.99821 0
M  V30 3039 N 297.231 -5.14033 2.27435 0
M  V30 3040 H 289.382 -1.30769 1.67372 0
M  V30 3041 H 291.645 -0.631653 0.706907 0
M  V30 3042 H 291.351 -2.7511 2.19106 0
M  V30 3043 H 291.225 -3.70228 0.721853 0
M  V30 3044 H 293.612 -2.95004 0.0754171 0
M  V30 3045 H 293.693 -2.01521 1.57554 0
M  V30 3046 H 293.337 -4.16427 2.90776 0
M  V30 3047 H 293.267 -5.08141 1.38206 0
M  V30 3048 H 295.758 -3.51976 1.37556 0
M  V30 3049 H 296.071 -6.94665 3.38616 0
M  V30 3050 H 294.416 -6.25035 3.03902 0
M  V30 3051 H 297.607 -4.3285 1.78208 0
M  V30 3052 H 297.78 -5.89129 2.69873 0
M  V30 3053 N 291.186 -0.45159 -1.50991 0
M  V30 3054 C 292.116 0.342898 -2.30969 0
M  V30 3055 C 293.097 1.00815 -1.37005 0
M  V30 3056 O 294.282 1.00907 -1.65926 0
M  V30 3057 C 291.412 1.43637 -3.16205 0
M  V30 3058 C 290.366 0.893818 -4.18563 0
M  V30 3059 C 289.692 2.08411 -4.92411 0
M  V30 3060 C 290.992 -0.0815568 -5.22236 0
M  V30 3061 H 292.686 -0.324556 -2.97636 0
M  V30 3062 H 290.232 -0.157531 -1.43136 0
M  V30 3063 H 292.185 1.9995 -3.70942 0
M  V30 3064 H 290.909 2.13232 -2.47386 0
M  V30 3065 H 289.568 0.352798 -3.64898 0
M  V30 3066 H 289.216 2.76658 -4.20082 0
M  V30 3067 H 288.916 1.72741 -5.61636 0
M  V30 3068 H 290.44 2.65251 -5.49976 0
M  V30 3069 H 291.854 0.391742 -5.7196 0
M  V30 3070 H 290.251 -0.351551 -5.99069 0
M  V30 3071 H 291.321 -1.01374 -4.74185 0
M  V30 3072 N 292.664 1.56529 -0.183458 0
M  V30 3073 C 293.892 2.01623 0.464285 0
M  V30 3074 C 294.307 1.06366 1.55986 0
M  V30 3075 O 293.664 0.0665398 1.82379 0
M  V30 3076 C 293.715 3.46475 1.03139 0
M  V30 3077 O 293.436 4.38095 -0.0204675 0
M  V30 3078 C 294.937 4.0703 1.75617 0
M  V30 3079 H 292.157 0.660596 0.117704 0
M  V30 3080 H 294.701 2.02451 -0.288751 0
M  V30 3081 H 292.856 3.46383 1.73486 0
M  V30 3082 H 293.27 5.22973 0.399952 0
M  V30 3083 H 294.744 5.10271 2.10542 0
M  V30 3084 H 295.221 3.49819 2.65563 0
M  V30 3085 H 295.827 4.1086 1.09882 0
M  V30 3086 N 294.142 -0.090211 1.57342 0
M  V30 3087 C 295.105 -1.09335 2.01441 0
M  V30 3088 C 296.105 -1.32666 0.908641 0
M  V30 3089 O 297.295 -1.28697 1.174 0
M  V30 3090 C 294.427 -2.44136 2.3793 0
M  V30 3091 H 295.62 -0.713662 2.91285 0
M  V30 3092 H 293.173 -0.335404 1.52659 0
M  V30 3093 H 293.908 -2.86972 1.51055 0
M  V30 3094 H 293.693 -2.28548 3.18603 0
M  V30 3095 H 295.183 -3.16277 2.72688 0
M  V30 3096 N 295.62 -1.53406 -0.361157 0
M  V30 3097 C 296.866 -1.70054 -1.10496 0
M  V30 3098 C 297.199 -0.453278 -1.88836 0
M  V30 3099 O 296.474 0.5495 -1.86576 0
M  V30 3100 C 296.757 -2.95317 -2.06058 0
M  V30 3101 C 296.61 -4.3021 -1.31298 0
M  V30 3102 C 297.929 -3.16193 -3.06121 0
M  V30 3103 H 295.048 -0.618799 -0.400321 0
M  V30 3104 H 297.69 -1.86052 -0.385318 0
M  V30 3105 H 295.84 -2.81809 -2.67425 0
M  V30 3106 H 297.512 -4.55538 -0.726807 0
M  V30 3107 H 295.755 -4.29421 -0.614853 0
M  V30 3108 H 296.426 -5.14 -2.01265 0
M  V30 3109 H 298.902 -3.28916 -2.5486 0
M  V30 3110 H 297.778 -4.05266 -3.70204 0
M  V30 3111 H 298.039 -2.31676 -3.76535 0
M  V30 3112 N 297.098 0.621204 -1.44841 0
M  V30 3113 C 298.509 1.20298 -1.42777 0
M  V30 3114 C 298.86 1.95639 -0.148259 0
M  V30 3115 O 297.985 2.02955 0.750892 0
M  V30 3116 C 298.58 2.1882 -2.58657 0
M  V30 3117 C 297.139 2.72403 -2.59756 0
M  V30 3118 C 296.286 1.4757 -2.34773 0
M  V30 3119 H 299.237 0.411297 -1.53278 0
M  V30 3120 H 299.258 3.01607 -2.31977 0
M  V30 3121 H 298.77 1.63957 -3.51766 0
M  V30 3122 H 296.871 3.31242 -1.70615 0
M  V30 3123 H 296.984 3.17765 -3.58556 0
M  V30 3124 H 295.348 1.76051 -1.8406 0
M  V30 3125 H 296.131 0.945954 -3.3001 0
M  V30 3126 N 298.576 1.31904 0.862503 0
M  V30 3127 C 299.822 1.22197 1.61851 0
M  V30 3128 C 300.155 -0.217641 1.92977 0
M  V30 3129 O 299.43 -1.15264 1.56666 0
M  V30 3130 C 299.713 2.07378 2.94391 0
M  V30 3131 C 299.566 3.59678 2.70096 0
M  V30 3132 C 300.885 1.92891 3.95577 0
M  V30 3133 H 298.004 0.445255 0.587296 0
M  V30 3134 H 300.646 1.6177 0.99651 0
M  V30 3135 H 298.796 1.73758 3.47477 0
M  V30 3136 H 300.468 4.03472 2.23625 0
M  V30 3137 H 298.711 3.82735 2.04197 0
M  V30 3138 H 299.382 4.14595 3.64438 0
M  V30 3139 H 301.858 2.22327 3.51724 0
M  V30 3140 H 300.734 2.54781 4.86187 0
M  V30 3141 H 300.995 0.894315 4.3296 0
M  V30 3142 N 300.054 -1.07777 1.14986 0
M  V30 3143 C 301.279 -1.84558 0.946213 0
M  V30 3144 C 301.704 -1.81323 -0.500362 0
M  V30 3145 O 301.062 -1.20301 -1.35637 0
M  V30 3146 C 301.11 -3.29736 1.45968 0
M  V30 3147 O 300.214 -4.07149 0.65601 0
M  V30 3148 H 299.555 -0.571641 0.33782 0
M  V30 3149 H 302.085 -1.35991 1.52865 0
M  V30 3150 H 302.095 -3.80574 1.47063 0
M  V30 3151 H 300.77 -3.31406 2.51283 0
M  V30 3152 H 299.347 -3.65994 0.714322 0
M  V30 3153 N 301.532 -0.945985 -1.26051 0
M  V30 3154 C 302.76 -0.613025 -1.9761 0
M  V30 3155 C 303.175 0.813035 -1.70397 0
M  V30 3156 O 302.532 1.54274 -0.974979 0
M  V30 3157 C 302.583 -0.85159 -3.51326 0
M  V30 3158 O 302.304 -2.22157 -3.77595 0
M  V30 3159 C 303.805 -0.529831 -4.40122 0
M  V30 3160 H 301.025 -0.230593 -0.630133 0
M  V30 3161 H 303.569 -1.268 -1.60443 0
M  V30 3162 H 301.724 -0.243151 -3.86636 0
M  V30 3163 H 302.138 -2.2852 -4.721 0
M  V30 3164 H 303.612 -0.747348 -5.46917 0
M  V30 3165 H 304.089 0.535341 -4.35925 0
M  V30 3166 H 304.695 -1.11721 -4.10364 0
M  V30 3167 O 303.049 1.37208 -0.85184 0
M  V30 3168 H 303.74 1.88528 -0.444614 0
M  V30 END ATOM
M  V30 BEGIN BOND
M  V30 END BOND
M  V30 END CTAB
M  END
$$$$
