drugbank_target|O53240 Conserved protein (DB03382)
 OpenBabel12092120273D

  0  0  0     0  0            999 V3000
M  V30 BEGIN CTAB
M  V30 COUNTS 2540 2566 0 0 0
M  V30 BEGIN ATOM
M  V30 1 H -0.908 1.98254 -0.117106 0
M  V30 2 N 0 1.576 0 0
M  V30 3 C 0.933 2.03868 1.02534 0
M  V30 4 C 1.911 0.928543 1.3348 0
M  V30 5 O 3.095 1.19667 1.45644 0
M  V30 6 C 0.222 2.43627 2.35294 0
M  V30 7 C -0.732 3.65373 2.2001 0
M  V30 8 S 0.101 5.13292 1.52614 0
M  V30 9 C 1.257 5.56322 2.86805 0
M  V30 10 H 1.49 2.90518 0.631377 0
M  V30 11 H -0.977 1.52953 0.210867 0
M  V30 12 H 0.981 2.67203 3.11629 0
M  V30 13 H -0.358 1.57376 2.7183 0
M  V30 14 H -1.165 3.90944 3.18086 0
M  V30 15 H -1.563 3.418 1.51819 0
M  V30 16 H 0.729 5.58782 3.83104 0
M  V30 17 H 1.672 6.56266 2.65933 0
M  V30 18 H 2.08 4.83886 2.90714 0
M  V30 19 N 1.4781 -0.272755 1.55222 0
M  V30 20 C 2.7261 -1.00234 1.75492 0
M  V30 21 C 3.0471 -1.8681 0.5592 0
M  V30 22 O 2.3171 -1.91215 -0.425882 0
M  V30 23 H 0.8971 -0.373076 0.647166 0
M  V30 24 H 3.5591 -0.296926 1.92625 0
M  V30 25 H 2.6551 -1.63913 2.65592 0
M  V30 26 N 2.9562 -1.48159 -0.537278 0
M  V30 27 C 4.1842 -1.59454 -1.31841 0
M  V30 28 C 4.5992 -0.252065 -1.8711 0
M  V30 29 O 3.9562 0.757621 -1.66031 0
M  V30 30 C 4.0072 -2.63546 -2.47439 0
M  V30 31 O 3.7282 -3.92583 -1.94449 0
M  V30 32 C 5.2292 -2.85212 -3.39366 0
M  V30 33 H 2.4492 -0.53785 -0.401196 0
M  V30 34 H 4.9932 -1.93932 -0.648891 0
M  V30 35 H 3.1482 -2.31946 -3.1029 0
M  V30 36 H 3.5622 -4.49629 -2.70063 0
M  V30 37 H 5.0362 -3.61863 -4.16844 0
M  V30 38 H 5.5132 -1.93765 -3.94147 0
M  V30 39 H 6.1192 -3.18086 -2.82314 0
M  V30 40 N 4.4343 0.785586 -1.36625 0
M  V30 41 C 5.3813 1.89838 -1.31264 0
M  V30 42 C 6.3513 1.65115 -0.180633 0
M  V30 43 O 7.5363 1.87222 -0.36777 0
M  V30 44 C 4.6763 3.26706 -1.11163 0
M  V30 45 C 3.7893 3.63476 -2.33472 0
M  V30 46 C 2.9243 4.89481 -2.06353 0
M  V30 47 C 1.9633 5.18941 -3.24602 0
M  V30 48 N 1.1003 6.36131 -2.97123 0
M  V30 49 H 5.9403 1.93756 -2.26413 0
M  V30 50 H 3.4773 0.947454 -1.12524 0
M  V30 51 H 5.4353 4.05639 -0.975337 0
M  V30 52 H 4.0653 3.222 -0.196674 0
M  V30 53 H 3.1173 2.79636 -2.57891 0
M  V30 54 H 4.4293 3.81193 -3.21704 0
M  V30 55 H 3.5833 5.76288 -1.89675 0
M  V30 56 H 2.3223 4.73841 -1.15437 0
M  V30 57 H 1.3273 4.30615 -3.41834 0
M  V30 58 H 2.5523 5.36498 -4.16349 0
M  V30 59 H 0.4983 6.21875 -2.08823 0
M  V30 60 H 0.4153 6.54198 -3.78894 0
M  V30 61 H 1.6833 7.2591 -2.84033 0
M  V30 62 N 5.9124 1.20967 1.01018 0
M  V30 63 C 6.8444 0.922059 2.09835 0
M  V30 64 C 7.8574 -0.0927106 1.62536 0
M  V30 65 O 9.0464 0.139127 1.77957 0
M  V30 66 C 6.1464 0.362004 3.36961 0
M  V30 67 C 5.3194 1.42986 4.13369 0
M  V30 68 C 4.3784 0.879976 5.1879 0
M  V30 69 O 3.4044 1.56219 5.47343 0
M  V30 70 N 4.6064 -0.307396 5.79686 0
M  V30 71 H 7.3714 1.8588 2.35093 0
M  V30 72 H 4.9324 1.11422 1.1746 0
M  V30 73 H 6.9244 -0.0201474 4.04695 0
M  V30 74 H 5.4944 -0.479437 3.08902 0
M  V30 75 H 4.7144 1.98608 3.40512 0
M  V30 76 H 6.0024 2.14885 4.61196 0
M  V30 77 H 5.4004 -0.878796 5.58832 0
M  V30 78 H 3.9574 -0.631115 6.48737 0
M  V30 79 N 7.3905 -1.2043 1.01659 0
M  V30 80 C 8.8065 -1.41852 0.731442 0
M  V30 81 C 9.0065 -1.89358 -0.688898 0
M  V30 82 O 8.0625 -2.06247 -1.45666 0
M  V30 83 C 9.3755 -2.44019 1.75714 0
M  V30 84 C 10.9235 -2.57785 1.77527 0
M  V30 85 C 11.3985 -3.63194 2.79023 0
M  V30 86 N 12.8895 -3.70678 2.77763 0
M  V30 87 C 13.6245 -4.51897 3.52954 0
M  V30 88 N 13.1205 -5.36921 4.37821 0
M  V30 89 N 14.9135 -4.4643 3.41551 0
M  V30 90 H 7.0645 -0.879093 1.93354 0
M  V30 91 H 9.3275 -0.448425 0.835236 0
M  V30 92 H 9.0335 -2.1611 2.77469 0
M  V30 93 H 8.9075 -3.43007 1.56927 0
M  V30 94 H 11.2945 -2.85023 0.764569 0
M  V30 95 H 11.3755 -1.58992 2.00387 0
M  V30 96 H 11.0195 -3.36699 3.80258 0
M  V30 97 H 10.9495 -4.61609 2.53425 0
M  V30 98 H 13.4405 -3.09944 2.16201 0
M  V30 99 H 13.7535 -5.95981 4.91962 0
M  V30 100 H 12.0985 -5.36424 4.41899 0
M  V30 101 H 15.2895 -3.79042 2.74672 0
M  V30 102 H 15.4625 -5.09491 4.00404 0
M  V30 103 N 8.8686 -0.792821 -1.36206 0
M  V30 104 C 9.8316 -0.199459 -2.2833 0
M  V30 105 C 10.8316 0.605189 -1.48977 0
M  V30 106 O 12.0216 0.425685 -1.68919 0
M  V30 107 C 9.1536 0.723523 -3.33134 0
M  V30 108 H 10.3466 -1.01181 -2.82316 0
M  V30 109 H 7.8996 -0.562485 -1.45828 0
M  V30 110 H 8.6346 1.56008 -2.84309 0
M  V30 111 H 8.4196 0.148436 -3.91819 0
M  V30 112 H 9.9096 1.13344 -4.01924 0
M  V30 113 N 10.3467 1.47872 -0.545128 0
M  V30 114 C 11.6237 1.9554 0.0485222 0
M  V30 115 C 12.0037 1.4876 1.49779 0
M  V30 116 O 11.3517 0.720925 2.16829 0
M  V30 117 C 11.5617 3.48898 -0.084417 0
M  V30 118 C 12.9097 4.24547 0.0671239 0
M  V30 119 O 13.9337 3.56198 -0.0113649 0
M  V30 120 O 12.7927 5.45999 0.233882 0
M  V30 121 H 9.8867 0.823957 0.0708773 0
M  V30 122 H 12.4327 1.58327 -0.610798 0
M  V30 123 H 11.2047 3.75714 -1.09337 0
M  V30 124 H 10.8277 3.92845 0.613066 0
M  V30 125 N 11.8248 0.280983 1.55075 0
M  V30 126 C 13.0738 -0.334784 1.98902 0
M  V30 127 C 13.3868 -1.56534 1.17288 0
M  V30 128 O 14.5928 -2.25443 1.51287 0
M  V30 129 C 13.0488 -0.646994 3.54037 0
M  V30 130 C 12.6568 0.564085 4.44435 0
M  V30 131 C 14.4008 -1.22506 4.06439 0
M  V30 132 C 12.3078 0.226137 5.90967 0
M  V30 133 H 11.2378 -0.128866 0.742906 0
M  V30 134 H 13.8888 0.386556 1.79382 0
M  V30 135 H 12.2708 -1.42739 3.6938 0
M  V30 136 H 13.4448 1.34082 4.40861 0
M  V30 137 H 11.7598 1.0594 4.02698 0
M  V30 138 H 14.3568 -1.49182 5.13468 0
M  V30 139 H 14.6998 -2.16085 3.55827 0
M  V30 140 H 15.2328 -0.50682 3.94558 0
M  V30 141 H 11.9718 1.12996 6.45687 0
M  V30 142 H 11.4918 -0.513717 5.97596 0
M  V30 143 H 13.1708 -0.179539 6.46751 0
M  V30 144 N 13.3029 -1.57598 0.00835791 0
M  V30 145 C 14.5489 -1.91211 -0.675732 0
M  V30 146 C 14.8819 -0.883139 -1.72958 0
M  V30 147 O 14.1569 0.097016 -1.94258 0
M  V30 148 C 14.4399 -3.35379 -1.31123 0
M  V30 149 C 14.2929 -4.48999 -0.268356 0
M  V30 150 C 15.6119 -3.7912 -2.23508 0
M  V30 151 H 12.7309 -0.695374 -0.244179 0
M  V30 152 H 15.3729 -1.89901 0.0613655 0
M  V30 153 H 13.5229 -3.36626 -1.93946 0
M  V30 154 H 15.1949 -4.59887 0.360844 0
M  V30 155 H 13.4379 -4.31873 0.408482 0
M  V30 156 H 14.1089 -5.46851 -0.752218 0
M  V30 157 H 16.5849 -3.79477 -1.70693 0
M  V30 158 H 15.4609 -4.80729 -2.64936 0
M  V30 159 H 15.7219 -3.13455 -3.11766 0
M  V30 160 N 14.781 0.264519 -1.55364 0
M  V30 161 C 15.714 1.35297 -1.83766 0
M  V30 162 C 16.692 1.47171 -0.691336 0
M  V30 163 O 17.876 1.63663 -0.935238 0
M  V30 164 C 15.003 2.72847 -2.00679 0
M  V30 165 C 14.049 2.78214 -3.23263 0
M  V30 166 S 14.882 2.36601 -4.80396 0
M  V30 167 C 16.038 3.7611 -5.00292 0
M  V30 168 H 16.271 1.11003 -2.758 0
M  V30 169 H 13.804 0.464596 -1.47244 0
M  V30 170 H 15.762 3.52057 -2.11108 0
M  V30 171 H 14.423 2.94388 -1.09518 0
M  V30 172 H 13.616 3.7919 -3.3201 0
M  V30 173 H 13.218 2.07034 -3.11469 0
M  V30 174 H 15.51 4.71457 -4.86554 0
M  V30 175 H 16.453 3.7231 -6.02321 0
M  V30 176 H 16.861 3.67806 -4.28228 0
M  V30 177 N 16.2591 1.48442 0.529413 0
M  V30 178 C 17.4841 1.60406 1.31471 0
M  V30 179 C 17.9091 0.264738 1.86228 0
M  V30 180 O 17.2671 -0.763668 1.64432 0
M  V30 181 C 17.3151 2.65419 2.44101 0
M  V30 182 O 16.4191 2.22618 3.47153 0
M  V30 183 H 15.7601 0.537863 0.389357 0
M  V30 184 H 18.2901 1.94432 0.636965 0
M  V30 185 H 18.3001 2.86709 2.90279 0
M  V30 186 H 16.9751 3.62652 2.03608 0
M  V30 187 H 15.5521 2.11543 3.0709 0
M  V30 188 N 17.7372 -0.778329 1.37039 0
M  V30 189 C 18.6472 -1.92253 1.34446 0
M  V30 190 C 19.6632 -1.72267 0.244991 0
M  V30 191 O 20.8392 -1.95615 0.479258 0
M  V30 192 C 17.9042 -3.27282 1.144 0
M  V30 193 C 16.9652 -3.59969 2.33925 0
M  V30 194 C 16.1982 -4.88555 2.14825 0
M  V30 195 O 16.4212 -5.59113 1.12912 0
M  V30 196 O 15.3552 -5.20153 3.02861 0
M  V30 197 H 19.1812 -1.97392 2.30803 0
M  V30 198 H 16.7662 -0.920154 1.17701 0
M  V30 199 H 18.6482 -4.08062 1.05182 0
M  V30 200 H 17.3232 -3.23011 0.211124 0
M  V30 201 H 16.2302 -2.7945 2.48714 0
M  V30 202 H 17.5632 -3.68976 3.25757 0
M  V30 203 N 19.2153 -1.21501 -1.00376 0
M  V30 204 C 20.1783 -0.976927 -2.07337 0
M  V30 205 C 21.1783 0.0525322 -1.60714 0
M  V30 206 O 22.3683 -0.184869 -1.73216 0
M  V30 207 C 19.5003 -0.473423 -3.37597 0
M  V30 208 H 20.6933 -1.92587 -2.29892 0
M  V30 209 H 18.2463 -1.03217 -1.17371 0
M  V30 210 H 18.9813 0.480379 -3.20722 0
M  V30 211 H 18.7663 -1.216 -3.72768 0
M  V30 212 H 20.2563 -0.32675 -4.1632 0
M  V30 213 N 20.6934 1.19889 -1.02296 0
M  V30 214 C 21.6034 2.26571 -0.608508 0
M  V30 215 C 22.6194 1.70299 0.356964 0
M  V30 216 O 23.7954 2.00235 0.216326 0
M  V30 217 C 20.8604 3.46677 0.0402814 0
M  V30 218 C 19.9214 4.18153 -0.97194 0
M  V30 219 C 19.1544 5.32525 -0.354016 0
M  V30 220 O 19.3774 5.64112 0.844604 0
M  V30 221 O 18.3114 5.92242 -1.07391 0
M  V30 222 H 22.1374 2.64251 -1.49684 0
M  V30 223 H 19.7224 1.26629 -0.792809 0
M  V30 224 H 21.6044 4.19475 0.402324 0
M  V30 225 H 20.2794 3.10858 0.902707 0
M  V30 226 H 19.1864 3.47499 -1.38546 0
M  V30 227 H 20.5194 4.57927 -1.80454 0
M  V30 228 N 22.1715 0.800033 1.35784 0
M  V30 229 C 23.4205 0.37387 1.98205 0
M  V30 230 C 23.7335 -1.06302 1.64193 0
M  V30 231 O 24.9395 -1.59198 2.19928 0
M  V30 232 C 23.3955 0.617532 3.54562 0
M  V30 233 C 23.0035 2.06654 3.9749 0
M  V30 234 C 24.7475 0.256401 4.23725 0
M  V30 235 C 22.6545 2.2563 5.46667 0
M  V30 236 H 21.5845 0.136055 0.741623 0
M  V30 237 H 24.2355 0.983166 1.54939 0
M  V30 238 H 22.6175 -0.0616248 3.95952 0
M  V30 239 H 23.7915 2.78296 3.67271 0
M  V30 240 H 22.1065 2.38691 3.41197 0
M  V30 241 H 24.7035 0.376318 5.33374 0
M  V30 242 H 25.0465 -0.796692 4.08606 0
M  V30 243 H 25.5795 0.889214 3.87734 0
M  V30 244 H 22.3185 3.2936 5.66747 0
M  V30 245 H 21.8385 1.58504 5.78478 0
M  V30 246 H 23.5175 2.06861 6.1304 0
M  V30 247 N 23.6496 -1.47581 0.552962 0
M  V30 248 C 24.6126 -2.28439 -0.186605 0
M  V30 249 C 25.6126 -1.36706 -0.84665 0
M  V30 250 O 26.8026 -1.59378 -0.703164 0
M  V30 251 C 23.9346 -3.16264 -1.2724 0
M  V30 252 H 25.1276 -2.95294 0.523609 0
M  V30 253 H 22.6806 -1.532 0.309745 0
M  V30 254 H 23.4156 -2.54091 -2.01514 0
M  V30 255 H 23.2006 -3.83769 -0.803968 0
M  V30 256 H 24.6906 -3.77198 -1.79196 0
M  V30 257 N 25.1277 -0.289203 -1.54924 0
M  V30 258 C 26.4047 0.376032 -1.91951 0
M  V30 259 C 26.7847 1.72622 -1.21511 0
M  V30 260 O 26.1327 2.25853 -0.346767 0
M  V30 261 C 26.3427 0.502378 -3.45365 0
M  V30 262 C 27.6907 0.778741 -4.17398 0
M  V30 263 O 28.7147 0.586647 -3.51336 0
M  V30 264 O 27.5737 1.14698 -5.34328 0
M  V30 265 H 24.6677 0.208167 -0.800372 0
M  V30 266 H 27.2137 -0.336394 -1.66332 0
M  V30 267 H 25.9857 -0.447255 -3.88736 0
M  V30 268 H 25.6087 1.26373 -3.76982 0
M  V30 269 N 26.6058 1.57591 -0.0167156 0
M  V30 270 C 27.8528 1.91283 0.664597 0
M  V30 271 C 28.1808 0.891949 1.72842 0
M  V30 272 O 27.4358 -0.100931 1.9544 0
M  V30 273 C 27.7348 3.3172 1.33029 0
M  V30 274 C 27.4008 4.4914 0.398047 0
M  V30 275 C 26.0628 4.80992 0.141421 0
M  V30 276 C 28.4148 5.20634 -0.242825 0
M  V30 277 C 25.7428 5.81703 -0.764092 0
M  V30 278 C 28.0948 6.22311 -1.13632 0
M  V30 279 C 26.7588 6.52611 -1.40196 0
M  V30 280 H 26.0288 0.699956 0.243193 0
M  V30 281 H 28.6758 1.9135 -0.0758267 0
M  V30 282 H 26.9808 3.27856 2.14517 0
M  V30 283 H 28.6778 3.55055 1.86379 0
M  V30 284 H 25.2678 4.24262 0.608238 0
M  V30 285 H 29.4518 4.96267 -0.0576019 0
M  V30 286 H 24.7078 6.03532 -0.977732 0
M  V30 287 H 28.8818 6.76834 -1.63917 0
M  V30 288 H 26.5088 7.30467 -2.10529 0
M  V30 289 N 28.0839 -0.256276 1.55502 0
M  V30 290 C 29.3299 -0.987079 1.77157 0
M  V30 291 C 29.6629 -1.85327 0.580315 0
M  V30 292 O 28.9379 -1.89874 -0.421686 0
M  V30 293 C 29.2209 -1.85553 3.08613 0
M  V30 294 C 29.0739 -1.01816 4.38125 0
M  V30 295 C 30.3929 -2.8397 3.36228 0
M  V30 296 H 27.5119 -0.357428 0.644526 0
M  V30 297 H 30.1539 -0.258239 1.88237 0
M  V30 298 H 28.3039 -2.47695 2.99298 0
M  V30 299 H 29.9759 -0.416159 4.59419 0
M  V30 300 H 28.2189 -0.322178 4.32602 0
M  V30 301 H 28.8899 -1.65939 5.26468 0
M  V30 302 H 31.3659 -2.31964 3.45445 0
M  V30 303 H 30.2419 -3.41864 4.29442 0
M  V30 304 H 30.5029 -3.59955 2.56681 0
M  V30 305 N 29.562 -1.4872 -0.521534 0
M  V30 306 C 30.51 -1.64328 -1.64618 0
M  V30 307 C 31.504 -0.50953 -1.61555 0
M  V30 308 O 32.71 -0.688525 -1.66311 0
M  V30 309 H 29.085 -0.517805 -0.545328 0
M  V30 310 H 31.056 -2.58767 -1.48601 0
M  V30 311 C 29.805 -1.70805 -3.02855 0
M  V30 312 H 29.128 -2.5741 -3.05909 0
M  V30 313 H 30.568 -1.85766 -3.81139 0
M  V30 314 C 29.027 -0.448479 -3.33902 0
M  V30 315 O 29.557 0.434928 -3.99339 0
M  V30 316 N 27.763 -0.317616 -2.88859 0
M  V30 317 H 27.31 -1.03748 -2.35784 0
M  V30 318 H 27.268 0.524113 -3.10001 0
M  V30 319 N 31.0401 0.771051 -1.3745 0
M  V30 320 C 32.2651 1.56529 -1.36065 0
M  V30 321 C 32.6901 1.88029 0.0515859 0
M  V30 322 O 32.0481 1.49282 1.02882 0
M  V30 323 C 32.0961 2.85187 -2.20683 0
M  V30 324 O 31.2001 3.79593 -1.61193 0
M  V30 325 H 30.5411 0.47411 -0.464883 0
M  V30 326 H 33.0711 0.954269 -1.80983 0
M  V30 327 H 33.0811 3.34283 -2.33921 0
M  V30 328 H 31.7561 2.61588 -3.23334 0
M  V30 329 H 30.3331 3.38239 -1.56999 0
M  V30 330 N 32.5182 1.22032 0.997298 0
M  V30 331 C 33.7432 1.06921 1.77715 0
M  V30 332 C 34.1682 -0.376226 1.84299 0
M  V30 333 O 33.5262 -1.27165 1.29223 0
M  V30 334 C 33.5742 1.67996 3.19076 0
M  V30 335 O 32.6782 0.930653 4.01762 0
M  V30 336 H 32.0192 0.375814 0.547412 0
M  V30 337 H 34.5492 1.61737 1.25309 0
M  V30 338 H 34.5592 1.72538 3.69723 0
M  V30 339 H 33.2342 2.73182 3.13599 0
M  V30 340 H 31.8112 0.960917 3.60307 0
M  V30 341 N 33.9963 -1.19345 1.0293 0
M  V30 342 C 35.4123 -1.41069 0.746446 0
M  V30 343 C 35.6123 -1.90078 -0.668776 0
M  V30 344 O 34.6683 -2.0778 -1.4347 0
M  V30 345 C 35.9813 -2.42141 1.78292 0
M  V30 346 C 37.5293 -2.55887 1.80252 0
M  V30 347 C 38.0043 -3.60214 2.8286 0
M  V30 348 N 39.4953 -3.67711 2.81679 0
M  V30 349 C 40.2303 -4.48128 3.57727 0
M  V30 350 N 39.7263 -5.32248 4.43491 0
M  V30 351 N 41.5193 -4.42782 3.46267 0
M  V30 352 H 33.6703 -0.858536 1.94275 0
M  V30 353 H 35.9333 -0.439541 0.839945 0
M  V30 354 H 35.6393 -2.13155 2.79746 0
M  V30 355 H 35.5133 -3.41323 1.60557 0
M  V30 356 H 37.9003 -2.84196 0.794757 0
M  V30 357 H 37.9813 -1.56858 2.02062 0
M  V30 358 H 37.6253 -3.32647 3.83807 0
M  V30 359 H 37.5553 -4.58895 2.58307 0
M  V30 360 H 40.0463 -3.07634 2.19476 0
M  V30 361 H 40.3593 -5.90729 4.98256 0
M  V30 362 H 38.7043 -5.31707 4.47564 0
M  V30 363 H 41.8953 -3.76107 2.78677 0
M  V30 364 H 42.0683 -5.05215 4.05785 0
M  V30 365 N 35.4744 -0.807222 -1.35358 0
M  V30 366 C 36.7024 -0.400377 -2.02989 0
M  V30 367 C 37.1174 0.988859 -1.60832 0
M  V30 368 O 36.4744 1.63729 -0.806175 0
M  V30 369 C 36.5254 -0.474867 -3.58368 0
M  V30 370 O 36.2464 -1.80933 -3.98992 0
M  V30 371 C 37.7474 -0.0609112 -4.43258 0
M  V30 372 H 34.9674 -0.162587 -0.651004 0
M  V30 373 H 37.5114 -1.09102 -1.72965 0
M  V30 374 H 35.6664 0.167534 -3.87038 0
M  V30 375 H 36.0804 -1.77256 -4.9364 0
M  V30 376 H 37.5544 -0.164145 -5.51756 0
M  V30 377 H 38.0314 0.993831 -4.27808 0
M  V30 378 H 38.6374 -0.676492 -4.19885 0
M  V30 379 N 36.9525 1.47285 -0.560781 0
M  V30 380 C 38.2005 2.02064 -0.0379868 0
M  V30 381 C 38.5215 1.43711 1.31803 0
M  V30 382 O 37.7915 0.61362 1.86042 0
M  V30 383 H 36.3715 0.746918 -0.0110531 0
M  V30 384 H 39.0335 1.80648 -0.731598 0
M  V30 385 H 38.1295 3.12064 0.0474463 0
M  V30 386 N 38.4306 0.297415 1.54768 0
M  V30 387 C 39.6586 -0.315623 2.04478 0
M  V30 388 C 40.0736 -1.47792 1.17486 0
M  V30 389 O 39.4306 -1.81404 0.19971 0
M  V30 390 C 39.4816 -0.7753 3.53088 0
M  V30 391 O 39.2026 0.340732 4.36773 0
M  V30 392 C 40.7036 -1.45386 4.18781 0
M  V30 393 H 37.9236 -0.0690887 0.667434 0
M  V30 394 H 40.4676 0.436003 1.99798 0
M  V30 395 H 38.6226 -1.47696 3.58141 0
M  V30 396 H 39.0366 -0.0165035 5.24497 0
M  V30 397 H 40.5106 -1.72669 5.24299 0
M  V30 398 H 40.9876 -2.39275 3.68299 0
M  V30 399 H 41.5936 -0.795475 4.17795 0
M  V30 400 N 39.9087 -1.5758 0.0250728 0
M  V30 401 C 40.8387 -2.13007 -0.956575 0
M  V30 402 C 41.8197 -1.0452 -1.342 0
M  V30 403 O 43.0047 -1.32332 -1.42133 0
M  V30 404 C 40.1347 -2.65386 -2.24026 0
M  V30 405 C 39.0887 -3.78623 -1.99571 0
M  V30 406 C 38.4147 -4.17414 -3.3417 0
M  V30 407 C 39.7147 -5.04867 -1.33814 0
M  V30 408 H 41.4087 -2.9528 -0.494991 0
M  V30 409 H 38.9547 -1.42042 -0.236651 0
M  V30 410 H 40.9077 -3.02794 -2.93076 0
M  V30 411 H 39.6317 -1.80268 -2.72343 0
M  V30 412 H 38.2907 -3.41646 -1.32941 0
M  V30 413 H 37.9387 -3.29284 -3.80238 0
M  V30 414 H 37.6387 -4.93719 -3.18615 0
M  V30 415 H 39.1627 -4.57402 -4.04495 0
M  V30 416 H 40.5767 -5.39888 -1.92857 0
M  V30 417 H 38.9737 -5.86144 -1.28669 0
M  V30 418 H 40.0437 -4.83904 -0.310561 0
M  V30 419 N 41.3868 0.248026 -1.55636 0
M  V30 420 C 42.3498 1.29044 -1.89421 0
M  V30 421 C 43.3498 1.41134 -0.770581 0
M  V30 422 O 44.5398 1.39854 -1.03858 0
M  V30 423 C 41.6718 2.66831 -2.12165 0
M  V30 424 H 42.8648 1.00305 -2.82629 0
M  V30 425 H 40.4178 0.487265 -1.48511 0
M  V30 426 H 41.1528 3.00711 -1.21422 0
M  V30 427 H 40.9378 2.59438 -2.93997 0
M  V30 428 H 42.4278 3.42103 -2.3949 0
M  V30 429 N 42.8649 1.48995 0.513639 0
M  V30 430 C 44.0929 1.61531 1.29288 0
M  V30 431 C 44.5079 0.281801 1.86685 0
M  V30 432 O 43.8649 -0.731111 1.67215 0
M  V30 433 C 43.9159 2.67449 2.43215 0
M  V30 434 O 43.6369 3.95626 1.88179 0
M  V30 435 C 45.1379 2.90575 3.34785 0
M  V30 436 H 42.3579 0.544165 0.392588 0
M  V30 437 H 44.9019 1.9494 0.617956 0
M  V30 438 H 43.0569 2.36853 3.0656 0
M  V30 439 H 43.4709 4.53868 2.62876 0
M  V30 440 H 44.9449 3.68449 4.11035 0
M  V30 441 H 45.4219 2.00011 3.91015 0
M  V30 442 H 46.0279 3.22538 2.77218 0
M  V30 443 N 44.343 -0.763751 1.37857 0
M  V30 444 C 45.592 -1.51789 1.32827 0
M  V30 445 C 45.905 -1.95426 -0.0823719 0
M  V30 446 O 47.111 -2.70298 -0.255172 0
M  V30 447 C 45.567 -2.74133 2.33193 0
M  V30 448 C 45.175 -2.37562 3.79827 0
M  V30 449 C 46.919 -3.52054 2.37188 0
M  V30 450 C 44.826 -3.56456 4.71904 0
M  V30 451 H 43.756 -0.569896 0.493695 0
M  V30 452 H 46.407 -0.835822 1.63359 0
M  V30 453 H 44.789 -3.4427 1.9569 0
M  V30 454 H 45.963 -1.75157 4.26212 0
M  V30 455 H 44.278 -1.72798 3.78853 0
M  V30 456 H 46.875 -4.40437 3.03182 0
M  V30 457 H 47.218 -3.92486 1.38782 0
M  V30 458 H 47.751 -2.88921 2.7344 0
M  V30 459 H 44.49 -3.21099 5.71468 0
M  V30 460 H 44.01 -4.17938 4.30218 0
M  V30 461 H 45.689 -4.23168 4.89426 0
M  V30 462 N 45.8211 -1.22559 -0.990812 0
M  V30 463 C 47.0691 -1.04933 -1.72724 0
M  V30 464 C 47.3901 0.416158 -1.90508 0
M  V30 465 O 46.6601 1.29918 -1.46622 0
M  V30 466 H 45.2401 -0.385296 -0.639965 0
M  V30 467 H 47.9021 -1.54105 -1.19322 0
M  V30 468 H 46.9981 -1.52886 -2.72089 0
M  V30 469 N 47.2992 1.18797 -1.03562 0
M  V30 470 C 48.7102 1.70322 -0.764676 0
M  V30 471 C 49.0612 1.82708 0.714996 0
M  V30 472 O 48.1862 1.50299 1.55689 0
M  V30 473 C 48.7812 3.09356 -1.38145 0
M  V30 474 C 47.3402 3.58114 -1.15895 0
M  V30 475 C 46.4872 2.34798 -1.4753 0
M  V30 476 H 49.4382 1.03543 -1.20268 0
M  V30 477 H 49.4592 3.72378 -0.781977 0
M  V30 478 H 48.9712 3.00309 -2.45837 0
M  V30 479 H 47.0722 3.72464 -0.100544 0
M  V30 480 H 47.1852 4.4184 -1.8524 0
M  V30 481 H 45.5492 2.38464 -0.894829 0
M  V30 482 H 46.3322 2.28375 -2.56319 0
M  V30 483 N 48.7773 0.814389 1.34928 0
M  V30 484 C 50.0543 0.321363 1.92942 0
M  V30 485 C 50.4343 -1.19014 1.74353 0
M  V30 486 O 49.7823 -1.99328 1.11716 0
M  V30 487 C 49.9923 0.741323 3.41036 0
M  V30 488 C 51.3403 0.735266 4.18185 0
M  V30 489 O 52.3643 0.68336 3.49584 0
M  V30 490 O 51.2233 0.800703 5.40602 0
M  V30 491 H 48.3173 0.0858893 0.822528 0
M  V30 492 H 50.8633 0.898609 1.43955 0
M  V30 493 H 49.6353 1.78276 3.4833 0
M  V30 494 H 49.2583 0.139307 3.97356 0
M  V30 495 N 50.2554 -1.46986 0.568584 0
M  V30 496 C 51.5034 -2.02041 0.0487022 0
M  V30 497 C 51.8244 -1.44408 -1.31039 0
M  V30 498 O 51.0944 -0.623477 -1.85714 0
M  V30 499 H 49.6744 -0.746849 0.015014 0
M  V30 500 H 52.3364 -1.80257 0.741168 0
M  V30 501 H 51.4324 -3.12085 -0.0308961 0
M  V30 502 N 51.7335 -0.305618 -1.54608 0
M  V30 503 C 52.6655 0.602161 -2.21149 0
M  V30 504 C 53.6785 1.09394 -1.20569 0
M  V30 505 O 54.8675 1.0106 -1.47136 0
M  V30 506 C 51.9675 1.83692 -2.84799 0
M  V30 507 C 51.1405 1.48686 -4.11353 0
M  V30 508 C 50.1995 2.57725 -4.58764 0
M  V30 509 O 49.2255 2.22623 -5.23858 0
M  V30 510 N 50.4275 3.88346 -4.31471 0
M  V30 511 H 53.1925 0.0324966 -2.99682 0
M  V30 512 H 50.7535 -0.128021 -1.61393 0
M  V30 513 H 52.7455 2.55994 -3.13448 0
M  V30 514 H 51.3155 2.31486 -2.10078 0
M  V30 515 H 50.5355 0.596269 -3.89664 0
M  V30 516 H 51.8235 1.22842 -4.93748 0
M  V30 517 H 51.2215 4.19671 -3.79331 0
M  V30 518 H 49.7785 4.56932 -4.64818 0
M  V30 519 N 53.2116 1.57565 -0.0334293 0
M  V30 520 C 54.6226 1.79746 0.504798 0
M  V30 521 C 54.9736 0.944091 1.71992 0
M  V30 522 O 54.0986 0.155694 2.15839 0
M  V30 523 C 54.6936 3.25997 0.922567 0
M  V30 524 C 53.2526 3.49159 1.40588 0
M  V30 525 C 52.3996 2.74785 0.372633 0
M  V30 526 H 55.3506 1.56565 -0.259436 0
M  V30 527 H 55.3716 3.35945 1.78666 0
M  V30 528 H 54.8836 3.88081 0.0379825 0
M  V30 529 H 52.9846 2.92332 2.31025 0
M  V30 530 H 53.0976 4.57873 1.41028 0
M  V30 531 H 51.4616 2.40391 0.841672 0
M  V30 532 H 52.2446 3.39587 -0.503559 0
M  V30 533 N 54.6897 -0.239769 1.55765 0
M  V30 534 C 55.6397 -1.30002 1.87306 0
M  V30 535 C 56.6237 -1.43156 0.73452 0
M  V30 536 O 57.8157 -1.46277 0.99659 0
M  V30 537 C 54.9447 -2.65409 2.17745 0
M  V30 538 C 54.0307 -2.56231 3.37945 0
M  V30 539 N 54.4217 -2.16689 4.57033 0
M  V30 540 C 52.7197 -2.87229 3.41197 0
M  V30 541 C 53.4207 -2.18318 5.39177 0
M  V30 542 N 52.3967 -2.58098 4.78421 0
M  V30 543 H 56.1987 -0.984912 2.76906 0
M  V30 544 H 53.7127 -0.448381 1.56087 0
M  V30 545 H 55.7097 -3.41934 2.38509 0
M  V30 546 H 54.3697 -2.97781 1.29448 0
M  V30 547 H 55.3807 -1.88116 4.82528 0
M  V30 548 H 52.0577 -3.24094 2.63191 0
M  V30 549 H 53.4477 -1.90025 6.44469 0
M  V30 550 N 56.1678 -1.49265 -0.50573 0
M  V30 551 C 57.0978 -1.68495 -1.61653 0
M  V30 552 C 58.0788 -0.53366 -1.61512 0
M  V30 553 O 59.2638 -0.76897 -1.78327 0
M  V30 554 C 56.3938 -1.74709 -3.00157 0
M  V30 555 C 55.3478 -2.89581 -3.15162 0
M  V30 556 C 54.6738 -2.80903 -4.5497 0
M  V30 557 C 55.9738 -4.30578 -2.95634 0
M  V30 558 H 57.6678 -2.61493 -1.45814 0
M  V30 559 H 55.2138 -1.25838 -0.70005 0
M  V30 560 H 57.1668 -1.86748 -3.77761 0
M  V30 561 H 55.8908 -0.783067 -3.17074 0
M  V30 562 H 54.5498 -2.77136 -2.39982 0
M  V30 563 H 54.1978 -1.82419 -4.68756 0
M  V30 564 H 53.8978 -3.57999 -4.65951 0
M  V30 565 H 55.4218 -2.94944 -5.34641 0
M  V30 566 H 56.8358 -4.4373 -3.63011 0
M  V30 567 H 55.2328 -5.0886 -3.18091 0
M  V30 568 H 56.3028 -4.45352 -1.91806 0
M  V30 569 N 57.6459 0.756429 -1.3826 0
M  V30 570 C 58.8739 1.54565 -1.3754 0
M  V30 571 C 59.2889 1.88767 0.0355331 0
M  V30 572 O 58.6459 1.52572 1.0014 0
M  V30 573 C 58.6969 2.84654 -2.22833 0
M  V30 574 O 58.4179 2.51912 -3.5843 0
M  V30 575 C 59.9189 3.78807 -2.30261 0
M  V30 576 H 57.1389 0.478353 -0.470553 0
M  V30 577 H 59.6829 0.936381 -1.81803 0
M  V30 578 H 57.8379 3.41965 -1.8204 0
M  V30 579 H 58.2519 3.35325 -4.03308 0
M  V30 580 H 59.7259 4.67045 -2.94233 0
M  V30 581 H 60.2029 4.19038 -1.31545 0
M  V30 582 H 60.8089 3.2742 -2.71433 0
M  V30 583 N 59.124 1.23083 0.984299 0
M  V30 584 C 60.087 1.00979 2.05757 0
M  V30 585 C 61.087 -0.0269573 1.60777 0
M  V30 586 O 62.277 0.212403 1.729 0
M  V30 587 C 59.409 0.527072 3.36801 0
M  V30 588 H 60.602 1.9622 2.26799 0
M  V30 589 H 58.155 1.05072 1.15714 0
M  V30 590 H 58.89 -0.429294 3.21446 0
M  V30 591 H 58.675 1.27515 3.70786 0
M  V30 592 H 60.165 0.392942 4.15747 0
M  V30 593 N 60.6021 -1.18246 1.0419 0
M  V30 594 C 61.5351 -2.20746 0.578474 0
M  V30 595 C 62.5131 -1.57912 -0.387624 0
M  V30 596 O 63.6971 -1.86071 -0.301634 0
M  V30 597 C 60.8241 -3.38346 -0.154762 0
M  V30 598 C 59.8701 -4.19587 0.764782 0
M  V30 599 S 60.7031 -4.86014 2.24835 0
M  V30 600 C 61.8591 -6.07012 1.526 0
M  V30 601 H 62.0921 -2.59715 1.44691 0
M  V30 602 H 59.6251 -1.287 0.85297 0
M  V30 603 H 61.5831 -4.065 -0.571641 0
M  V30 604 H 60.2441 -2.97786 -0.999105 0
M  V30 605 H 59.4371 -5.03611 0.197976 0
M  V30 606 H 59.0391 -3.56818 1.12057 0
M  V30 607 H 61.3311 -6.72523 0.819733 0
M  V30 608 H 62.2741 -6.68202 2.34333 0
M  V30 609 H 62.6821 -5.55249 1.01779 0
M  V30 610 N 62.0802 -0.821533 -1.34494 0
M  V30 611 C 63.3262 -0.418729 -1.99043 0
M  V30 612 C 63.6812 1.00672 -1.6396 0
M  V30 613 O 62.9742 1.69132 -0.900271 0
M  V30 614 C 63.1682 -0.556512 -3.53041 0
M  V30 615 C 62.9972 -1.9938 -4.03085 0
M  V30 616 C 61.7672 -2.62539 -4.31742 0
M  V30 617 C 63.9652 -2.96035 -4.20556 0
M  V30 618 N 61.9472 -3.97523 -4.67813 0
M  V30 619 C 63.3182 -4.15924 -4.59791 0
M  V30 620 C 65.3732 -2.9267 -4.02801 0
M  V30 621 C 64.0762 -5.32899 -4.83126 0
M  V30 622 C 66.1022 -4.08861 -4.27302 0
M  V30 623 C 65.4642 -5.275 -4.66822 0
M  V30 624 H 61.5632 -0.201299 -0.755647 0
M  V30 625 H 64.1472 -1.06594 -1.62929 0
M  V30 626 H 62.3182 0.0607924 -3.88352 0
M  V30 627 H 64.0502 -0.126842 -4.04501 0
M  V30 628 H 60.8052 -2.13789 -4.22601 0
M  V30 629 H 61.2292 -4.67061 -4.90085 0
M  V30 630 H 65.8712 -2.02088 -3.71376 0
M  V30 631 H 63.5892 -6.24041 -5.13418 0
M  V30 632 H 67.1752 -4.07654 -4.15101 0
M  V30 633 H 66.0552 -6.15913 -4.85408 0
M  V30 634 N 63.5583 1.46682 -0.576371 0
M  V30 635 C 64.7883 2.06498 -0.0648694 0
M  V30 636 C 65.1963 1.42665 1.24271 0
M  V30 637 O 64.5393 0.523886 1.76071 0
M  V30 638 C 64.6013 3.5904 0.181816 0
M  V30 639 C 64.2653 4.45028 -1.0392 0
M  V30 640 C 65.2623 4.81959 -1.94966 0
M  V30 641 C 62.9473 4.86259 -1.25927 0
M  V30 642 C 64.9413 5.58942 -3.06371 0
M  V30 643 C 62.6283 5.63002 -2.37638 0
M  V30 644 C 63.6263 5.99257 -3.2769 0
M  V30 645 O 63.3143 6.7445 -4.37461 0
M  V30 646 H 63.0463 0.674028 -0.0515987 0
M  V30 647 H 65.6003 1.89393 -0.794951 0
M  V30 648 H 63.8303 3.74429 0.966436 0
M  V30 649 H 65.5193 4.00806 0.641047 0
M  V30 650 H 66.2853 4.50689 -1.79177 0
M  V30 651 H 62.1643 4.57494 -0.567448 0
M  V30 652 H 65.7083 5.87158 -3.76684 0
M  V30 653 H 61.6053 5.93686 -2.53392 0
M  V30 654 H 62.3733 6.92867 -4.35749 0
M  V30 655 N 65.0364 0.313813 1.54444 0
M  V30 656 C 65.9994 -0.54379 2.22656 0
M  V30 657 C 66.9994 -1.05124 1.21678 0
M  V30 658 O 68.1894 -0.945225 1.46325 0
M  V30 659 C 65.3214 -1.75427 2.92298 0
M  V30 660 H 66.5144 0.0523599 2.99854 0
M  V30 661 H 64.0674 0.0647834 1.56166 0
M  V30 662 H 64.8024 -2.38991 2.19211 0
M  V30 663 H 64.5874 -1.39791 3.66334 0
M  V30 664 H 66.0774 -2.36325 3.44297 0
M  V30 665 N 66.5145 -1.57545 0.0417849 0
M  V30 666 C 67.7605 -1.92601 -0.635021 0
M  V30 667 C 68.0935 -0.919627 -1.71045 0
M  V30 668 O 67.3685 0.0557892 -1.9442 0
M  V30 669 C 67.6515 -3.38085 -1.23979 0
M  V30 670 C 67.5045 -4.49467 -0.173057 0
M  V30 671 C 68.8235 -3.83776 -2.15416 0
M  V30 672 H 65.9425 -0.700397 -0.229374 0
M  V30 673 H 68.5845 -1.89728 0.101633 0
M  V30 674 H 66.7345 -3.40664 -1.86762 0
M  V30 675 H 68.4065 -4.59018 0.458312 0
M  V30 676 H 66.6495 -4.30909 0.499996 0
M  V30 677 H 67.3205 -5.48323 -0.636054 0
M  V30 678 H 69.7965 -3.83013 -1.62605 0
M  V30 679 H 68.6725 -4.8624 -2.54679 0
M  V30 680 H 68.9335 -3.19998 -3.05047 0
M  V30 681 N 67.9926 0.231505 -1.5589 0
M  V30 682 C 69.2416 0.955346 -1.7764 0
M  V30 683 C 69.5546 1.85893 -0.608546 0
M  V30 684 O 70.7606 2.62067 -0.70943 0
M  V30 685 C 69.2166 1.74886 -3.14552 0
M  V30 686 C 68.8246 0.891915 -4.39032 0
M  V30 687 C 70.5686 2.46452 -3.45633 0
M  V30 688 C 68.4756 1.68221 -5.66971 0
M  V30 689 H 67.4056 0.360446 -0.662265 0
M  V30 690 H 70.0566 0.209516 -1.823 0
M  V30 691 H 68.4386 2.53723 -3.04041 0
M  V30 692 H 69.6126 0.144793 -4.60572 0
M  V30 693 H 67.9276 0.288863 -4.15397 0
M  V30 694 H 70.5246 3.06061 -4.38441 0
M  V30 695 H 70.8676 3.18841 -2.67668 0
M  V30 696 H 71.4006 1.74613 -3.57428 0
M  V30 697 H 68.1396 1.00178 -6.478 0
M  V30 698 H 67.6596 2.4042 -5.49507 0
M  V30 699 H 69.3386 2.24544 -6.06786 0
M  V30 700 N 69.4707 1.49531 0.497807 0
M  V30 701 C 70.7477 1.49682 1.25915 0
M  V30 702 C 71.1277 0.226339 2.09883 0
M  V30 703 O 70.4757 -0.791189 2.14365 0
M  V30 704 C 70.6857 2.77755 2.11313 0
M  V30 705 C 72.0337 3.27371 2.70395 0
M  V30 706 O 73.0577 2.78894 2.21578 0
M  V30 707 O 71.9167 4.11808 3.59272 0
M  V30 708 H 69.0107 0.599228 0.56996 0
M  V30 709 H 71.5567 1.61798 0.511816 0
M  V30 710 H 70.3287 3.61713 1.49264 0
M  V30 711 H 69.9517 2.68515 2.93233 0
M  V30 712 N 70.9488 -0.749086 1.3866 0
M  V30 713 C 72.1968 -1.50535 1.34847 0
M  V30 714 C 72.5178 -1.94909 -0.0595016 0
M  V30 715 O 71.7878 -1.67973 -1.00806 0
M  V30 716 H 70.3678 -0.558395 0.49619 0
M  V30 717 H 73.0298 -0.890165 1.73384 0
M  V30 718 H 72.1258 -2.39413 2.00219 0
M  V30 719 N 72.4269 -1.23603 -0.977757 0
M  V30 720 C 73.3369 -1.03632 -2.1047 0
M  V30 721 C 74.3529 0.0199435 -1.73989 0
M  V30 722 O 75.5289 -0.176076 -2.00629 0
M  V30 723 C 72.5939 -0.63276 -3.40877 0
M  V30 724 C 71.6549 -1.76437 -3.91367 0
M  V30 725 C 70.8879 -1.37997 -5.15551 0
M  V30 726 O 71.1109 -0.265357 -5.69782 0
M  V30 727 O 70.0449 -2.20201 -5.60174 0
M  V30 728 H 73.8709 -1.98086 -2.30208 0
M  V30 729 H 71.4559 -1.02332 -1.08851 0
M  V30 730 H 73.3379 -0.418761 -4.19314 0
M  V30 731 H 72.0129 0.282754 -3.22463 0
M  V30 732 H 70.9199 -2.03304 -3.14036 0
M  V30 733 H 72.2529 -2.6583 -4.14241 0
M  V30 734 N 73.905 1.17692 -1.04816 0
M  V30 735 C 75.154 1.87192 -0.751132 0
M  V30 736 C 75.467 1.8169 0.724441 0
M  V30 737 O 76.673 2.46625 1.13527 0
M  V30 738 C 75.129 3.35857 -1.29338 0
M  V30 739 C 74.737 3.4987 -2.79812 0
M  V30 740 C 76.481 4.10709 -1.07322 0
M  V30 741 C 74.388 4.92536 -3.27356 0
M  V30 742 H 73.318 0.701162 -0.277288 0
M  V30 743 H 75.969 1.32932 -1.26496 0
M  V30 744 H 74.351 3.89631 -0.707376 0
M  V30 745 H 75.525 3.06332 -3.44235 0
M  V30 746 H 73.84 2.88433 -3.00325 0
M  V30 747 H 76.437 5.15952 -1.4035 0
M  V30 748 H 76.78 4.16299 -0.0108001 0
M  V30 749 H 77.313 3.6313 -1.62423 0
M  V30 750 H 74.052 4.92119 -4.33012 0
M  V30 751 H 73.572 5.3676 -2.67673 0
M  V30 752 H 75.251 5.61288 -3.21815 0
M  V30 753 N 75.3831 0.828654 1.34056 0
M  V30 754 C 76.6291 0.429279 1.98818 0
M  V30 755 C 76.9841 -0.998011 1.64492 0
M  V30 756 O 76.2771 -1.68652 0.909228 0
M  V30 757 C 76.4711 0.575226 3.52741 0
M  V30 758 C 76.3001 2.01515 4.02022 0
M  V30 759 C 75.0701 2.64825 4.30344 0
M  V30 760 C 77.2681 2.98261 4.18981 0
M  V30 761 N 75.2501 3.99998 4.65698 0
M  V30 762 C 76.6211 4.18356 4.57578 0
M  V30 763 C 78.6761 2.94802 4.01243 0
M  V30 764 C 77.3791 5.35454 4.80293 0
M  V30 765 C 79.4051 4.11121 4.25128 0
M  V30 766 C 78.7671 5.29969 4.64018 0
M  V30 767 H 74.8661 0.205304 0.754569 0
M  V30 768 H 77.4501 1.07457 1.62361 0
M  V30 769 H 75.6211 -0.0401962 3.88379 0
M  V30 770 H 77.3531 0.148292 4.04428 0
M  V30 771 H 74.1081 2.16027 4.21461 0
M  V30 772 H 74.5321 4.69653 4.87601 0
M  V30 773 H 79.1741 2.04054 3.70299 0
M  V30 774 H 76.8921 6.26755 5.10102 0
M  V30 775 H 80.4781 4.0985 4.12934 0
M  V30 776 H 79.3581 6.18479 4.82134 0
M  V30 777 N 76.8612 -1.46375 0.584142 0
M  V30 778 C 77.7912 -2.33103 -0.136037 0
M  V30 779 C 78.7722 -1.45431 -0.882255 0
M  V30 780 O 79.9572 -1.74246 -0.857434 0
M  V30 781 C 77.0872 -3.27731 -1.14933 0
M  V30 782 C 76.0412 -4.24855 -0.517862 0
M  V30 783 C 75.3672 -5.09001 -1.63773 0
M  V30 784 C 76.6672 -5.19439 0.545886 0
M  V30 785 H 78.3612 -2.93568 0.588086 0
M  V30 786 H 75.9072 -1.41166 0.284259 0
M  V30 787 H 77.8602 -3.87261 -1.66153 0
M  V30 788 H 76.5842 -2.65377 -1.90375 0
M  V30 789 H 75.2432 -3.6659 -0.0267361 0
M  V30 790 H 74.8912 -4.43031 -2.38185 0
M  V30 791 H 74.5912 -5.74777 -1.22085 0
M  V30 792 H 76.1152 -5.71396 -2.15266 0
M  V30 793 H 77.5292 -5.73177 0.118704 0
M  V30 794 H 75.9262 -5.93566 0.88317 0
M  V30 795 H 76.9962 -4.63285 1.43162 0
M  V30 796 N 78.3393 -0.321999 -1.54275 0
M  V30 797 C 79.2493 0.553631 -2.27974 0
M  V30 798 C 80.2653 1.13054 -1.32268 0
M  V30 799 O 81.4413 1.15084 -1.6528 0
M  V30 800 C 78.5063 1.69927 -3.02201 0
M  V30 801 C 77.5673 1.15433 -4.1349 0
M  V30 802 C 76.8003 2.24537 -4.84168 0
M  V30 803 O 77.0233 3.44852 -4.5435 0
M  V30 804 O 75.9573 1.90044 -5.7111 0
M  V30 805 H 79.7833 -0.0448345 -3.03667 0
M  V30 806 H 77.3683 -0.0877418 -1.49142 0
M  V30 807 H 79.2503 2.3663 -3.48689 0
M  V30 808 H 77.9253 2.28395 -2.29385 0
M  V30 809 H 76.8323 0.452436 -3.71354 0
M  V30 810 H 78.1653 0.614805 -4.88345 0
M  V30 811 N 79.8174 1.5752 -0.0501392 0
M  V30 812 C 81.0454 1.96963 0.633492 0
M  V30 813 C 81.4604 0.927631 1.6444 0
M  V30 814 O 80.8174 -0.0882665 1.82286 0
M  V30 815 C 80.8684 3.36487 1.32132 0
M  V30 816 O 80.5894 4.36693 0.350894 0
M  V30 817 C 82.0904 3.90682 2.09481 0
M  V30 818 H 79.3104 0.648244 0.173266 0
M  V30 819 H 81.8544 2.0417 -0.116134 0
M  V30 820 H 80.0094 3.30434 2.02218 0
M  V30 821 H 80.4234 5.17702 0.841735 0
M  V30 822 H 81.8974 4.90591 2.5303 0
M  V30 823 H 82.3744 3.26053 2.94255 0
M  V30 824 H 82.9804 4.00069 1.44307 0
M  V30 825 N 81.2955 -0.223234 1.56011 0
M  V30 826 C 82.2425 -1.27664 1.92277 0
M  V30 827 C 83.2125 -1.46659 0.779763 0
M  V30 828 O 84.3975 -1.60256 1.03551 0
M  V30 829 C 81.5375 -2.62234 2.24338 0
M  V30 830 C 80.6505 -2.51051 3.51564 0
M  V30 831 C 79.7855 -3.78133 3.7308 0
M  V30 832 C 78.8245 -3.61665 4.93827 0
M  V30 833 N 77.9615 -4.80693 5.11741 0
M  V30 834 H 82.8015 -0.960358 2.82101 0
M  V30 835 H 80.3385 -0.462901 1.39627 0
M  V30 836 H 82.2965 -3.40596 2.40936 0
M  V30 837 H 80.9265 -2.91961 1.3769 0
M  V30 838 H 79.9785 -1.64132 3.43169 0
M  V30 839 H 81.2905 -2.34803 4.40079 0
M  V30 840 H 80.4445 -4.64938 3.89766 0
M  V30 841 H 79.1835 -3.97304 2.82844 0
M  V30 842 H 78.1885 -2.73244 4.77093 0
M  V30 843 H 79.4135 -3.43966 5.85546 0
M  V30 844 H 77.3595 -5.00181 4.24446 0
M  V30 845 H 77.2765 -4.67165 5.94384 0
M  V30 846 H 78.5445 -5.6893 5.3286 0
M  V30 847 N 82.7736 -1.49793 -0.48987 0
M  V30 848 C 83.7366 -1.66752 -1.57246 0
M  V30 849 C 84.7366 -0.538867 -1.51502 0
M  V30 850 O 85.9266 -0.805545 -1.54456 0
M  V30 851 C 83.0586 -1.67528 -2.96896 0
M  V30 852 H 84.2516 -2.63321 -1.43534 0
M  V30 853 H 81.8046 -1.38992 -0.714914 0
M  V30 854 H 82.5396 -0.725837 -3.16073 0
M  V30 855 H 82.3246 -2.49504 -3.02473 0
M  V30 856 H 83.8146 -1.82667 -3.7553 0
M  V30 857 N 84.2517 0.741722 -1.39055 0
M  V30 858 C 85.1987 1.85566 -1.37237 0
M  V30 859 C 86.1687 1.64457 -0.233072 0
M  V30 860 O 87.3537 1.85957 -0.427147 0
M  V30 861 C 84.4937 3.23004 -1.215 0
M  V30 862 C 83.6067 3.55864 -2.44918 0
M  V30 863 C 82.7417 4.82669 -2.21821 0
M  V30 864 C 81.7807 5.08351 -3.40948 0
M  V30 865 N 80.9177 6.26356 -3.17211 0
M  V30 866 H 85.7577 1.86455 -2.32462 0
M  V30 867 H 83.2947 0.911176 -1.15482 0
M  V30 868 H 85.2527 4.02331 -1.10389 0
M  V30 869 H 83.8827 3.21411 -0.29908 0
M  V30 870 H 82.9347 2.7129 -2.66657 0
M  V30 871 H 84.2467 3.70765 -3.33668 0
M  V30 872 H 83.4007 5.69962 -2.07914 0
M  V30 873 H 82.1397 4.69929 -1.30454 0
M  V30 874 H 81.1447 4.19522 -3.55361 0
M  V30 875 H 82.3697 5.22981 -4.33207 0
M  V30 876 H 80.3157 6.14917 -2.28502 0
M  V30 877 H 80.2327 6.41813 -3.99515 0
M  V30 878 H 81.5007 7.16506 -3.06984 0
M  V30 879 N 85.7298 1.2412 0.971189 0
M  V30 880 C 86.9548 1.10667 1.75407 0
M  V30 881 C 87.3798 -0.337048 1.85056 0
M  V30 882 O 86.7378 -1.24396 1.31892 0
M  V30 883 C 86.7858 1.74726 3.15441 0
M  V30 884 O 85.8898 1.01566 3.99697 0
M  V30 885 H 85.2308 0.387341 0.539317 0
M  V30 886 H 87.7608 1.64358 1.2185 0
M  V30 887 H 87.7708 1.80341 3.6598 0
M  V30 888 H 86.4458 2.79773 3.07734 0
M  V30 889 H 85.0228 1.03713 3.58187 0
M  V30 890 N 87.2079 -1.17134 1.05439 0
M  V30 891 C 88.1399 -2.2078 0.615539 0
M  V30 892 C 89.1529 -1.59584 -0.322001 0
M  V30 893 O 90.3419 -1.78133 -0.114344 0
M  V30 894 C 87.4419 -3.38691 -0.118938 0
M  V30 895 C 86.6149 -4.29454 0.829924 0
M  V30 896 C 85.6739 -5.26024 0.136258 0
M  V30 897 O 84.6999 -5.63952 0.77115 0
M  V30 898 N 85.9019 -5.69487 -1.1254 0
M  V30 899 H 88.6669 -2.59052 1.50705 0
M  V30 900 H 86.2279 -1.32058 0.936603 0
M  V30 901 H 88.2199 -4.00329 -0.593179 0
M  V30 902 H 86.7899 -2.98996 -0.91215 0
M  V30 903 H 86.0099 -3.65211 1.48373 0
M  V30 904 H 87.2979 -4.86984 1.47392 0
M  V30 905 H 86.6959 -5.4075 -1.6615 0
M  V30 906 H 85.2529 -6.33257 -1.54366 0
M  V30 907 N 88.686 -0.835752 -1.33615 0
M  V30 908 C 89.633 -0.26473 -2.29277 0
M  V30 909 C 90.603 0.617712 -1.54187 0
M  V30 910 O 91.788 0.556641 -1.825 0
M  V30 911 C 88.928 0.556777 -3.40579 0
M  V30 912 C 88.041 -0.349339 -4.30585 0
M  V30 913 C 87.176 0.482969 -5.29 0
M  V30 914 C 86.215 -0.421732 -6.10645 0
M  V30 915 N 85.352 0.372262 -7.01112 0
M  V30 916 H 90.192 -1.08582 -2.77514 0
M  V30 917 H 87.729 -0.546927 -1.36554 0
M  V30 918 H 89.687 1.04852 -4.03809 0
M  V30 919 H 88.317 1.34286 -2.93542 0
M  V30 920 H 87.369 -0.959372 -3.68104 0
M  V30 921 H 88.681 -1.04445 -4.87742 0
M  V30 922 H 87.835 1.03866 -5.97743 0
M  V30 923 H 86.574 1.21153 -4.72412 0
M  V30 924 H 85.579 -0.989464 -5.40823 0
M  V30 925 H 86.804 -1.14861 -6.69316 0
M  V30 926 H 84.75 1.08426 -6.46977 0
M  V30 927 H 84.667 -0.264198 -7.55538 0
M  V30 928 H 85.935 0.910293 -7.74167 0
M  V30 929 N 90.1641 1.46063 -0.591896 0
M  V30 930 C 91.1271 2.28854 0.125973 0
M  V30 931 C 92.1271 1.38903 0.810107 0
M  V30 932 O 93.3171 1.61186 0.66066 0
M  V30 933 C 90.4491 3.19526 1.1881 0
M  V30 934 H 91.6421 2.93802 -0.601717 0
M  V30 935 H 89.1951 1.52325 -0.350254 0
M  V30 936 H 89.9301 2.59345 1.94707 0
M  V30 937 H 89.7151 3.85766 0.701936 0
M  V30 938 H 91.2051 3.81817 1.69132 0
M  V30 939 N 91.6422 0.330177 1.54103 0
M  V30 940 C 92.8882 -0.270806 2.00984 0
M  V30 941 C 93.2212 -1.51265 1.21789 0
M  V30 942 O 92.4962 -1.92142 0.301927 0
M  V30 943 C 92.7792 -0.598339 3.55094 0
M  V30 944 C 92.6322 0.654674 4.4501 0
M  V30 945 C 93.9512 -1.41334 4.16789 0
M  V30 946 H 91.0702 -0.0969531 0.730595 0
M  V30 947 H 93.7122 0.448066 1.84641 0
M  V30 948 H 91.8622 -1.21078 3.69151 0
M  V30 949 H 93.5342 1.29285 4.42813 0
M  V30 950 H 91.7772 1.28224 4.14416 0
M  V30 951 H 92.4482 0.380944 5.50684 0
M  V30 952 H 94.9242 -0.895597 4.06347 0
M  V30 953 H 93.8002 -1.61127 5.24718 0
M  V30 954 H 94.0612 -2.41146 3.70541 0
M  V30 955 N 93.1203 -1.57491 0.0584922 0
M  V30 956 C 94.0683 -2.13148 -0.931168 0
M  V30 957 C 95.0623 -1.06507 -1.31729 0
M  V30 958 O 96.2683 -1.24906 -1.29609 0
M  V30 959 H 92.6433 -0.68137 -0.31818 0
M  V30 960 H 94.6143 -2.95187 -0.436707 0
M  V30 961 C 93.3633 -2.69732 -2.19408 0
M  V30 962 H 92.6863 -3.51454 -1.90578 0
M  V30 963 H 94.1263 -3.12287 -2.86798 0
M  V30 964 C 92.5853 -1.63855 -2.94369 0
M  V30 965 O 93.1153 -1.05565 -3.87581 0
M  V30 966 N 91.3213 -1.35202 -2.57233 0
M  V30 967 H 90.8683 -1.82791 -1.81508 0
M  V30 968 H 90.8263 -0.645922 -3.07693 0
M  V30 969 N 94.5984 0.214957 -1.56127 0
M  V30 970 C 95.5284 1.2695 -1.95974 0
M  V30 971 C 96.5094 1.48539 -0.828868 0
M  V30 972 O 97.6944 1.60611 -1.09168 0
M  V30 973 C 94.8244 2.61794 -2.28214 0
M  V30 974 C 93.7784 2.54851 -3.43853 0
M  V30 975 C 93.1044 3.93785 -3.61715 0
M  V30 976 C 94.4044 2.09065 -4.78632 0
M  V30 977 H 96.0984 0.93846 -2.84312 0
M  V30 978 H 93.6444 0.449996 -1.36788 0
M  V30 979 H 95.5974 3.35731 -2.54682 0
M  V30 980 H 94.3214 2.96599 -1.36736 0
M  V30 981 H 92.9804 1.8337 -3.17444 0
M  V30 982 H 92.6284 4.25908 -2.67602 0
M  V30 983 H 92.3284 3.90019 -4.39498 0
M  V30 984 H 93.8524 4.69374 -3.90539 0
M  V30 985 H 95.2664 2.7275 -5.04262 0
M  V30 986 H 93.6634 2.16346 -5.59745 0
M  V30 987 H 94.7334 1.04315 -4.73547 0
M  V30 988 N 96.0765 1.50051 0.48192 0
M  V30 989 C 97.4925 1.37237 0.814756 0
M  V30 990 C 97.6925 0.420109 1.97072 0
M  V30 991 O 96.7485 -0.141246 2.52105 0
M  V30 992 C 98.0615 2.78375 1.13701 0
M  V30 993 C 99.6095 2.87213 1.2441 0
M  V30 994 C 100.084 4.29161 1.59954 0
M  V30 995 N 101.575 4.32061 1.66967 0
M  V30 996 C 102.31 5.38879 1.95952 0
M  V30 997 N 101.806 6.55918 2.23031 0
M  V30 998 N 103.599 5.26312 1.97363 0
M  V30 999 H 95.7505 2.10546 -0.28005 0
M  V30 1000 H 98.0135 0.945921 -0.0627454 0
M  V30 1001 H 97.7195 3.49845 0.360787 0
M  V30 1002 H 97.5935 3.14941 2.07586 0
M  V30 1003 H 99.9805 2.15969 2.01101 0
M  V30 1004 H 100.061 2.54204 0.285299 0
M  V30 1005 H 99.7055 5.00938 0.838067 0
M  V30 1006 H 99.6355 4.59648 2.56966 0
M  V30 1007 H 102.126 3.47661 1.48123 0
M  V30 1008 H 102.439 7.33139 2.44391 0
M  V30 1009 H 100.784 6.59112 2.20447 0
M  V30 1010 H 103.975 4.33876 1.75697 0
M  V30 1011 H 104.148 6.09649 2.19618 0
M  V30 1012 N 97.5546 -0.734337 1.39446 0
M  V30 1013 C 98.9706 -1.03997 1.21065 0
M  V30 1014 C 99.1706 -2.01369 0.0727019 0
M  V30 1015 O 98.2266 -2.45856 -0.575426 0
M  V30 1016 C 99.5396 -1.60163 2.54496 0
M  V30 1017 C 101.088 -1.7224 2.61347 0
M  V30 1018 C 101.563 -2.31814 3.95002 0
M  V30 1019 N 103.054 -2.39223 3.96644 0
M  V30 1020 C 103.789 -2.86258 4.96834 0
M  V30 1021 N 103.285 -3.33184 6.07421 0
M  V30 1022 N 105.078 -2.85473 4.84213 0
M  V30 1023 H 97.2286 -0.0885624 2.12215 0
M  V30 1024 H 99.4916 -0.10191 0.942506 0
M  V30 1025 H 99.1976 -0.960811 3.38321 0
M  V30 1026 H 99.0716 -2.5896 2.74262 0
M  V30 1027 H 101.459 -2.35443 1.77906 0
M  V30 1028 H 101.54 -0.720939 2.4543 0
M  V30 1029 H 101.184 -1.69238 4.78875 0
M  V30 1030 H 101.114 -3.32638 4.08239 0
M  V30 1031 H 103.605 -2.06057 3.16779 0
M  V30 1032 H 103.918 -3.67586 6.7978 0
M  V30 1033 H 102.263 -3.31191 6.11013 0
M  V30 1034 H 105.454 -2.48136 3.96921 0
M  V30 1035 H 105.627 -3.21814 5.62441 0
M  V30 1036 N 99.0327 -1.24633 -0.964593 0
M  V30 1037 C 100.31 -0.995809 -1.68354 0
M  V30 1038 C 100.69 0.480964 -2.05548 0
M  V30 1039 O 100.038 1.45599 -1.76105 0
M  V30 1040 C 100.248 -1.92177 -2.91323 0
M  V30 1041 C 101.596 -2.19446 -3.63495 0
M  V30 1042 O 102.62 -1.89855 -3.01386 0
M  V30 1043 O 101.479 -2.69714 -4.75307 0
M  V30 1044 H 98.5727 -0.376854 -0.736146 0
M  V30 1045 H 101.119 -1.35745 -1.0184 0
M  V30 1046 H 99.8907 -2.91938 -2.60553 0
M  V30 1047 H 99.5137 -1.56349 -3.65569 0
M  V30 1048 N 100.511 1.16574 -1.06058 0
M  V30 1049 C 101.922 1.68662 -0.800632 0
M  V30 1050 C 102.273 1.84184 0.67608 0
M  V30 1051 O 101.398 1.53568 1.52466 0
M  V30 1052 C 101.993 3.06356 -1.44676 0
M  V30 1053 C 100.552 3.55575 -1.23465 0
M  V30 1054 C 99.6988 2.31616 -1.52477 0
M  V30 1055 H 102.65 1.00969 -1.22438 0
M  V30 1056 H 102.671 3.70636 -0.860788 0
M  V30 1057 H 102.183 2.95027 -2.52152 0
M  V30 1058 H 100.284 3.72167 -0.179527 0
M  V30 1059 H 100.397 4.37812 -1.94571 0
M  V30 1060 H 98.7608 2.36512 -0.945209 0
M  V30 1061 H 99.5438 2.22887 -2.61106 0
M  V30 1062 N 101.989 0.842826 1.3317 0
M  V30 1063 C 103.405 0.531128 1.50503 0
M  V30 1064 C 103.605 -0.940734 1.78192 0
M  V30 1065 O 102.661 -1.72436 1.84451 0
M  V30 1066 C 103.974 1.40789 2.65705 0
M  V30 1067 C 105.522 1.40708 2.79589 0
M  V30 1068 C 105.997 2.26878 3.97857 0
M  V30 1069 N 107.488 2.24609 4.05099 0
M  V30 1070 C 108.223 2.88019 4.95815 0
M  V30 1071 N 107.719 3.60496 5.9162 0
M  V30 1072 N 109.512 2.77469 4.88843 0
M  V30 1073 H 101.663 1.79557 1.1346 0
M  V30 1074 H 103.926 0.766267 0.558156 0
M  V30 1075 H 103.632 2.454 2.51936 0
M  V30 1076 H 103.506 1.08677 3.61205 0
M  V30 1077 H 105.893 0.368668 2.92788 0
M  V30 1078 H 105.974 1.76829 1.84838 0
M  V30 1079 H 105.618 3.3078 3.85418 0
M  V30 1080 H 105.548 1.88096 4.91861 0
M  V30 1081 H 108.039 1.71906 3.36536 0
M  V30 1082 H 108.352 4.06076 6.57512 0
M  V30 1083 H 106.697 3.64604 5.91683 0
M  V30 1084 H 109.888 2.20406 4.12963 0
M  V30 1085 H 110.061 3.2717 5.59342 0
M  V30 1086 N 103.467 -1.45747 0.599634 0
M  V30 1087 C 104.713 -2.02592 0.0918643 0
M  V30 1088 C 105.046 -1.46806 -1.27128 0
M  V30 1089 O 104.321 -0.639658 -1.83681 0
M  V30 1090 C 104.604 -3.60073 0.0443398 0
M  V30 1091 C 104.457 -4.26208 1.43759 0
M  V30 1092 C 105.776 -4.35309 -0.647608 0
M  V30 1093 H 102.895 -0.736175 0.034857 0
M  V30 1094 H 105.537 -1.73694 0.770081 0
M  V30 1095 H 103.687 -3.84823 -0.533224 0
M  V30 1096 H 105.359 -4.12668 2.06162 0
M  V30 1097 H 103.602 -3.84916 2.00056 0
M  V30 1098 H 104.273 -5.35069 1.35665 0
M  V30 1099 H 106.749 -4.15805 -0.156776 0
M  V30 1100 H 105.625 -5.45038 -0.649942 0
M  V30 1101 H 105.886 -4.07598 -1.71219 0
M  V30 1102 N 104.945 -0.338344 -1.53925 0
M  V30 1103 C 106.17 0.263987 -2.05713 0
M  V30 1104 C 106.595 1.43847 -1.21201 0
M  V30 1105 O 105.953 1.79904 -0.224535 0
M  V30 1106 C 106.001 0.662 -3.54471 0
M  V30 1107 O 105.105 1.76265 -3.72833 0
M  V30 1108 H 104.446 0.0448722 -0.662482 0
M  V30 1109 H 106.976 -0.491048 -1.9862 0
M  V30 1110 H 106.986 0.940594 -3.9701 0
M  V30 1111 H 105.661 -0.196937 -4.15433 0
M  V30 1112 H 104.238 1.48173 -3.42198 0
M  V30 1113 N 106.423 1.57458 -0.0668435 0
M  V30 1114 C 107.67 1.93301 0.603406 0
M  V30 1115 C 107.998 0.946486 1.69917 0
M  V30 1116 O 107.253 -0.0387021 1.95662 0
M  V30 1117 C 107.552 3.35784 1.22409 0
M  V30 1118 C 107.218 4.50179 0.254955 0
M  V30 1119 C 105.88 4.81199 -0.0116746 0
M  V30 1120 C 108.232 5.19598 -0.408338 0
M  V30 1121 C 105.56 5.78978 -0.94877 0
M  V30 1122 C 107.912 6.18381 -1.33372 0
M  V30 1123 C 106.576 6.47821 -1.60887 0
M  V30 1124 H 105.846 0.707338 0.220802 0
M  V30 1125 H 108.493 1.91012 -0.136665 0
M  V30 1126 H 106.798 3.34515 2.03978 0
M  V30 1127 H 108.495 3.60804 1.74989 0
M  V30 1128 H 105.085 4.25983 0.472954 0
M  V30 1129 H 109.269 4.95832 -0.215456 0
M  V30 1130 H 104.525 6.00115 -1.16925 0
M  V30 1131 H 108.699 6.71277 -1.85367 0
M  V30 1132 H 106.326 7.23399 -2.33661 0
M  V30 1133 N 107.901 -0.206675 1.56239 0
M  V30 1134 C 108.831 -1.25909 1.96645 0
M  V30 1135 C 109.812 -1.48097 0.836734 0
M  V30 1136 O 110.997 -1.6003 1.10019 0
M  V30 1137 C 108.127 -2.6058 2.29599 0
M  V30 1138 C 107.081 -2.53024 3.452 0
M  V30 1139 C 106.407 -3.91861 3.63798 0
M  V30 1140 C 107.707 -2.06524 4.79734 0
M  V30 1141 H 109.401 -0.923369 2.84806 0
M  V30 1142 H 106.947 -0.442735 1.37025 0
M  V30 1143 H 108.9 -3.34375 2.56459 0
M  V30 1144 H 107.624 -2.95869 1.38307 0
M  V30 1145 H 106.283 -1.81684 3.18412 0
M  V30 1146 H 105.931 -4.24483 2.69857 0
M  V30 1147 H 105.631 -3.87683 4.4156 0
M  V30 1148 H 107.155 -4.67296 3.93022 0
M  V30 1149 H 108.569 -2.70072 5.05702 0
M  V30 1150 H 106.966 -2.13374 5.60885 0
M  V30 1151 H 108.036 -1.01802 4.74093 0
M  V30 1152 N 109.379 -1.50304 -0.473955 0
M  V30 1153 C 110.309 -1.71886 -1.58042 0
M  V30 1154 C 111.29 -0.567799 -1.60344 0
M  V30 1155 O 112.475 -0.806623 -1.76656 0
M  V30 1156 C 109.605 -1.81036 -2.96384 0
M  V30 1157 C 108.559 -2.962 -3.08949 0
M  V30 1158 C 107.885 -2.9049 -4.48909 0
M  V30 1159 C 109.185 -4.36752 -2.86434 0
M  V30 1160 H 110.879 -2.64527 -1.40234 0
M  V30 1161 H 108.425 -1.27295 -0.673201 0
M  V30 1162 H 110.378 -1.94719 -3.73714 0
M  V30 1163 H 109.102 -0.850147 -3.15341 0
M  V30 1164 H 107.761 -2.82164 -2.3405 0
M  V30 1165 H 107.409 -1.92321 -4.64781 0
M  V30 1166 H 107.109 -3.67802 -4.58253 0
M  V30 1167 H 108.633 -3.06218 -5.28264 0
M  V30 1168 H 110.047 -4.5133 -3.53517 0
M  V30 1169 H 108.444 -5.15493 -3.07225 0
M  V30 1170 H 109.514 -4.49321 -1.82316 0
M  V30 1171 N 110.857 0.726932 -1.39834 0
M  V30 1172 C 111.767 1.87131 -1.41489 0
M  V30 1173 C 112.783 1.71239 -0.308757 0
M  V30 1174 O 113.959 1.93701 -0.551529 0
M  V30 1175 C 111.024 3.22811 -1.26468 0
M  V30 1176 C 110.085 3.51039 -2.47124 0
M  V30 1177 C 109.318 4.80245 -2.3281 0
M  V30 1178 O 109.541 5.54537 -1.33585 0
M  V30 1179 O 108.475 5.08554 -3.21957 0
M  V30 1180 H 112.301 1.8869 -2.3797 0
M  V30 1181 H 109.886 0.875837 -1.21035 0
M  V30 1182 H 111.768 4.03877 -1.20255 0
M  V30 1183 H 110.443 3.22005 -0.330862 0
M  V30 1184 H 109.35 2.70027 -2.58914 0
M  V30 1185 H 110.683 3.56632 -3.39227 0
M  V30 1186 N 112.336 1.25143 0.95797 0
M  V30 1187 C 113.613 1.00472 1.67823 0
M  V30 1188 C 113.993 -0.470056 2.058 0
M  V30 1189 O 113.341 -1.44663 1.76875 0
M  V30 1190 C 113.551 1.9372 2.90299 0
M  V30 1191 C 114.899 2.21371 3.62326 0
M  V30 1192 O 115.923 1.91451 3.00375 0
M  V30 1193 O 114.782 2.72231 4.7387 0
M  V30 1194 H 111.876 0.380752 0.734137 0
M  V30 1195 H 114.422 1.36283 1.01119 0
M  V30 1196 H 113.194 2.93316 2.59001 0
M  V30 1197 H 112.817 1.58286 3.64735 0
M  V30 1198 N 113.814 -1.1601 1.06675 0
M  V30 1199 C 115.062 -1.86264 0.784229 0
M  V30 1200 C 115.383 -1.82328 -0.691488 0
M  V30 1201 O 114.653 -1.25947 -1.50047 0
M  V30 1202 H 113.233 -0.689621 0.28711 0
M  V30 1203 H 115.895 -1.40664 1.34906 0
M  V30 1204 H 114.991 -2.91595 1.11259 0
M  V30 1205 N 115.292 -0.849877 -1.32721 0
M  V30 1206 C 116.569 -0.372405 -1.92022 0
M  V30 1207 C 116.949 1.1435 -1.77447 0
M  V30 1208 O 116.297 1.96296 -1.16962 0
M  V30 1209 C 116.507 -0.831482 -3.3895 0
M  V30 1210 C 117.855 -0.845882 -4.16089 0
M  V30 1211 O 118.879 -0.775806 -3.47649 0
M  V30 1212 O 117.738 -0.943753 -5.38289 0
M  V30 1213 H 114.832 -0.107667 -0.819961 0
M  V30 1214 H 117.378 -0.93646 -1.41522 0
M  V30 1215 H 116.15 -1.87448 -3.4348 0
M  V30 1216 H 115.773 -0.24461 -3.96847 0
M  V30 1217 N 116.77 1.45427 -0.607355 0
M  V30 1218 C 117.998 2.06614 -0.108814 0
M  V30 1219 C 118.413 1.45204 1.2067 0
M  V30 1220 O 117.77 0.566132 1.73497 0
M  V30 1221 C 117.821 3.61481 0.0375347 0
M  V30 1222 O 117.542 4.20598 -1.22593 0
M  V30 1223 C 119.043 4.39652 0.567561 0
M  V30 1224 H 116.263 0.66747 -0.0687351 0
M  V30 1225 H 118.807 1.86675 -0.835022 0
M  V30 1226 H 116.962 3.80762 0.714068 0
M  V30 1227 H 117.376 5.1377 -1.05547 0
M  V30 1228 H 118.85 5.48518 0.61905 0
M  V30 1229 H 119.327 4.09417 1.58978 0
M  V30 1230 H 119.933 4.25234 -0.0749202 0
M  V30 1231 N 118.248 0.346503 1.53744 0
M  V30 1232 C 119.478 -0.250047 2.05081 0
M  V30 1233 C 119.886 -1.44529 1.22098 0
M  V30 1234 O 119.229 -1.81992 0.249917 0
M  V30 1235 C 119.291 -0.725934 3.52094 0
M  V30 1236 C 118.955 0.350053 4.55657 0
M  V30 1237 C 119.952 1.19372 5.0601 0
M  V30 1238 C 117.637 0.504827 4.99757 0
M  V30 1239 C 119.631 2.17768 5.99046 0
M  V30 1240 C 117.318 1.49218 5.92602 0
M  V30 1241 C 118.316 2.32706 6.42135 0
M  V30 1242 O 118.004 3.2976 7.33153 0
M  V30 1243 H 117.736 -0.0515469 0.674032 0
M  V30 1244 H 120.29 0.497559 1.99282 0
M  V30 1245 H 118.52 -1.52483 3.55367 0
M  V30 1246 H 120.209 -1.24336 3.86388 0
M  V30 1247 H 120.975 1.08525 4.72702 0
M  V30 1248 H 116.854 -0.135178 4.60802 0
M  V30 1249 H 120.398 2.82971 6.37631 0
M  V30 1250 H 116.295 1.6012 6.25325 0
M  V30 1251 H 117.063 3.25265 7.51096 0
M  V30 1252 N 119.726 -1.57421 0.075193 0
M  V30 1253 C 121.003 -1.85029 -0.634329 0
M  V30 1254 C 121.383 -0.968305 -1.87582 0
M  V30 1255 O 120.731 -0.0354749 -2.28472 0
M  V30 1256 C 120.941 -3.35286 -0.968742 0
M  V30 1257 C 122.289 -4.02875 -1.34077 0
M  V30 1258 O 123.313 -3.40051 -1.06037 0
M  V30 1259 O 122.172 -5.13691 -1.86506 0
M  V30 1260 H 119.266 -0.7645 -0.315387 0
M  V30 1261 H 121.812 -1.69366 0.106382 0
M  V30 1262 H 120.584 -3.91203 -0.0871376 0
M  V30 1263 H 120.207 -3.56223 -1.7661 0
M  V30 1264 N 121.204 0.198386 -1.56346 0
M  V30 1265 C 122.432 0.935572 -1.84539 0
M  V30 1266 C 122.847 1.76989 -0.657281 0
M  V30 1267 O 122.204 1.78626 0.374043 0
M  V30 1268 C 122.255 1.8344 -3.11499 0
M  V30 1269 O 121.976 1.03377 -4.25728 0
M  V30 1270 C 123.477 2.68355 -3.52846 0
M  V30 1271 H 120.697 0.273126 -0.612897 0
M  V30 1272 H 123.241 0.20663 -2.03453 0
M  V30 1273 H 121.396 2.51701 -2.94492 0
M  V30 1274 H 121.81 1.64599 -4.98003 0
M  V30 1275 H 123.284 3.27085 -4.44657 0
M  V30 1276 H 123.761 3.41901 -2.75681 0
M  V30 1277 H 124.367 2.05471 -3.72373 0
M  V30 1278 N 122.682 1.50554 0.465978 0
M  V30 1279 C 123.612 1.72722 1.57128 0
M  V30 1280 C 124.593 0.576294 1.6004 0
M  V30 1281 O 125.778 0.81598 1.76225 0
M  V30 1282 C 122.908 1.82605 2.95419 0
M  V30 1283 C 121.862 2.97835 3.07373 0
M  V30 1284 C 121.188 2.92867 4.47363 0
M  V30 1285 C 122.488 4.38265 2.84114 0
M  V30 1286 H 124.182 2.65267 1.38829 0
M  V30 1287 H 121.728 1.2765 0.666441 0
M  V30 1288 H 123.681 1.96698 3.72677 0
M  V30 1289 H 122.405 0.866858 3.14886 0
M  V30 1290 H 121.064 2.83401 2.3255 0
M  V30 1291 H 120.712 1.94783 4.63755 0
M  V30 1292 H 120.412 3.70227 4.56296 0
M  V30 1293 H 121.936 3.09015 5.26633 0
M  V30 1294 H 123.35 4.53198 3.51118 0
M  V30 1295 H 121.747 5.17115 3.04487 0
M  V30 1296 H 122.817 4.50281 1.7993 0
M  V30 1297 N 124.16 -0.719506 1.40217 0
M  V30 1298 C 125.576 -1.02707 1.22161 0
M  V30 1299 C 125.776 -2.0128 0.0940557 0
M  V30 1300 O 124.832 -2.46452 -0.549318 0
M  V30 1301 C 126.145 -1.57454 2.56181 0
M  V30 1302 C 127.693 -1.69458 2.63159 0
M  V30 1303 C 128.168 -2.27611 3.97438 0
M  V30 1304 N 129.659 -2.35002 3.99159 0
M  V30 1305 C 130.394 -2.80972 4.99842 0
M  V30 1306 N 129.89 -3.26723 6.10921 0
M  V30 1307 N 131.683 -2.80321 4.87213 0
M  V30 1308 H 123.834 -0.0660492 2.12297 0
M  V30 1309 H 126.097 -0.0919077 0.943534 0
M  V30 1310 H 125.803 -0.924873 3.39321 0
M  V30 1311 H 125.677 -2.56036 2.76993 0
M  V30 1312 H 128.064 -2.33543 1.80393 0
M  V30 1313 H 128.145 -0.694867 2.46181 0
M  V30 1314 H 127.789 -1.6415 4.80643 0
M  V30 1315 H 127.719 -3.2829 4.11744 0
M  V30 1316 H 130.21 -2.02685 3.18947 0
M  V30 1317 H 130.523 -3.60355 6.8364 0
M  V30 1318 H 128.868 -3.24692 6.14492 0
M  V30 1319 H 132.059 -2.43912 3.9953 0
M  V30 1320 H 132.232 -3.15831 5.65822 0
M  V30 1321 N 125.638 -1.25649 -0.95132 0
M  V30 1322 C 126.886 -1.10375 -1.69298 0
M  V30 1323 C 127.207 0.355339 -1.91735 0
M  V30 1324 O 126.477 1.25188 -1.50681 0
M  V30 1325 H 125.057 -0.405461 -0.627384 0
M  V30 1326 H 127.719 -1.57823 -1.14358 0
M  V30 1327 H 126.815 -1.61465 -2.67087 0
M  V30 1328 N 127.117 1.15442 -1.07289 0
M  V30 1329 C 128.363 1.86489 -0.796846 0
M  V30 1330 C 128.696 1.82078 0.675371 0
M  V30 1331 O 127.971 1.24346 1.4956 0
M  V30 1332 C 128.254 3.35626 -1.30489 0
M  V30 1333 C 128.107 3.48673 -2.84161 0
M  V30 1334 C 129.426 4.30357 -0.920907 0
M  V30 1335 H 126.545 0.677144 -0.290939 0
M  V30 1336 H 129.187 1.35633 -1.33056 0
M  V30 1337 H 127.337 3.79068 -0.850883 0
M  V30 1338 H 129.009 3.14099 -3.37846 0
M  V30 1339 H 127.252 2.90253 -3.22391 0
M  V30 1340 H 127.923 4.53453 -3.14777 0
M  V30 1341 H 130.399 3.94871 -1.3121 0
M  V30 1342 H 129.275 5.33193 -1.30372 0
M  V30 1343 H 129.536 4.4176 0.173226 0
M  V30 1344 N 128.595 0.856903 1.32268 0
M  V30 1345 C 129.82 0.474569 2.01897 0
M  V30 1346 C 130.245 -0.921766 1.63967 0
M  V30 1347 O 129.603 -1.60589 0.84148 0
M  V30 1348 C 129.651 0.623799 3.55164 0
M  V30 1349 O 128.755 -0.342459 4.10976 0
M  V30 1350 H 128.096 0.190422 0.63611 0
M  V30 1351 H 130.626 1.15672 1.68764 0
M  V30 1352 H 130.636 0.512169 4.04773 0
M  V30 1353 H 129.311 1.64202 3.82113 0
M  V30 1354 H 127.888 -0.18688 3.72431 0
M  V30 1355 N 130.073 -1.45103 0.615059 0
M  V30 1356 C 131.32 -2.02183 0.113179 0
M  V30 1357 C 131.648 -1.48249 -1.25906 0
M  V30 1358 O 130.903 -0.650265 -1.84581 0
M  V30 1359 C 131.202 -3.57386 0.0318797 0
M  V30 1360 C 130.868 -4.30505 1.34077 0
M  V30 1361 C 129.53 -4.50197 1.69929 0
M  V30 1362 C 131.882 -4.72238 2.20546 0
M  V30 1363 C 129.21 -5.08881 2.91988 0
M  V30 1364 C 131.562 -5.32272 3.41861 0
M  V30 1365 C 130.226 -5.50187 3.77956 0
M  V30 1366 H 129.496 -0.739842 0.0414151 0
M  V30 1367 H 132.143 -1.74073 0.798168 0
M  V30 1368 H 130.448 -3.84817 -0.736409 0
M  V30 1369 H 132.145 -3.99264 -0.372712 0
M  V30 1370 H 128.735 -4.15496 1.05173 0
M  V30 1371 H 132.919 -4.56751 1.94146 0
M  V30 1372 H 128.175 -5.20939 3.2005 0
M  V30 1373 H 132.349 -5.63563 4.09109 0
M  V30 1374 H 129.976 -5.95427 4.72622 0
M  V30 1375 N 131.551 -0.354651 -1.53558 0
M  V30 1376 C 132.461 0.50515 -2.29097 0
M  V30 1377 C 133.477 1.10223 -1.34636 0
M  V30 1378 O 134.653 1.11553 -1.67684 0
M  V30 1379 C 131.718 1.63479 -3.05738 0
M  V30 1380 C 130.779 1.06636 -4.15845 0
M  V30 1381 C 130.012 2.14217 -4.88822 0
M  V30 1382 O 130.235 3.35137 -4.61562 0
M  V30 1383 O 129.169 1.77887 -5.75013 0
M  V30 1384 H 132.995 -0.109237 -3.03503 0
M  V30 1385 H 130.58 -0.119357 -1.48922 0
M  V30 1386 H 132.462 2.2918 -3.5363 0
M  V30 1387 H 131.137 2.23478 -2.34178 0
M  V30 1388 H 130.044 0.373565 -3.7223 0
M  V30 1389 H 131.377 0.511081 -4.89539 0
M  V30 1390 N 133.029 1.57378 -0.0835403 0
M  V30 1391 C 134.277 1.93547 0.581718 0
M  V30 1392 C 134.598 0.96524 1.69435 0
M  V30 1393 O 133.868 0.0153369 1.95894 0
M  V30 1394 H 132.448 0.714521 0.217874 0
M  V30 1395 H 135.11 1.94366 -0.144158 0
M  V30 1396 H 134.206 2.95665 0.999423 0
M  V30 1397 N 134.507 -0.190092 1.56449 0
M  V30 1398 C 135.753 -0.911052 1.81184 0
M  V30 1399 C 136.086 -1.82699 0.658396 0
M  V30 1400 O 135.361 -1.91491 -0.340775 0
M  V30 1401 C 135.644 -1.72297 3.16205 0
M  V30 1402 C 135.497 -0.831419 4.42049 0
M  V30 1403 C 136.816 -2.69454 3.47969 0
M  V30 1404 H 133.935 -0.32977 0.659106 0
M  V30 1405 H 136.577 -0.178169 1.89163 0
M  V30 1406 H 134.727 -2.34778 3.09534 0
M  V30 1407 H 136.399 -0.220929 4.60771 0
M  V30 1408 H 134.642 -0.138406 4.33579 0
M  V30 1409 H 135.313 -1.43461 5.33032 0
M  V30 1410 H 137.789 -2.17104 3.54972 0
M  V30 1411 H 136.665 -3.23342 4.43555 0
M  V30 1412 H 136.926 -3.48744 2.71717 0
M  V30 1413 N 135.985 -1.50799 -0.457987 0
M  V30 1414 C 136.948 -1.7005 -1.53674 0
M  V30 1415 C 137.948 -0.570881 -1.50325 0
M  V30 1416 O 139.138 -0.838126 -1.52712 0
M  V30 1417 C 136.27 -1.73788 -2.93276 0
M  V30 1418 H 137.463 -2.66306 -1.37917 0
M  V30 1419 H 135.016 -1.40477 -0.685271 0
M  V30 1420 H 135.751 -0.792717 -3.14462 0
M  V30 1421 H 135.536 -2.55864 -2.97113 0
M  V30 1422 H 137.026 -1.90591 -3.71571 0
M  V30 1423 N 137.463 0.71206 -1.40597 0
M  V30 1424 C 138.373 1.8562 -1.43466 0
M  V30 1425 C 139.389 1.70902 -0.326902 0
M  V30 1426 O 140.565 1.93105 -0.572043 0
M  V30 1427 C 137.63 3.21451 -1.29884 0
M  V30 1428 C 136.691 3.48398 -2.50833 0
M  V30 1429 C 135.924 4.77749 -2.3789 0
M  V30 1430 O 136.147 5.53089 -1.39459 0
M  V30 1431 O 135.081 5.05111 -3.27333 0
M  V30 1432 H 138.907 1.86155 -2.39958 0
M  V30 1433 H 136.492 0.86295 -1.21957 0
M  V30 1434 H 138.374 4.02579 -1.24531 0
M  V30 1435 H 137.049 3.21636 -0.364997 0
M  V30 1436 H 135.956 2.67265 -2.61763 0
M  V30 1437 H 137.289 3.53014 -3.4299 0
M  V30 1438 N 138.941 1.26152 0.944643 0
M  V30 1439 C 140.19 1.10883 1.68487 0
M  V30 1440 C 140.503 -0.348153 1.92477 0
M  V30 1441 O 141.709 -0.621459 2.64292 0
M  V30 1442 C 140.165 1.93624 3.03377 0
M  V30 1443 C 139.773 3.43875 2.87148 0
M  V30 1444 C 141.517 1.86954 3.81115 0
M  V30 1445 C 139.424 4.18875 4.1749 0
M  V30 1446 H 138.354 0.41135 0.631907 0
M  V30 1447 H 141.005 1.50433 1.05082 0
M  V30 1448 H 139.387 1.46904 3.67743 0
M  V30 1449 H 140.561 3.98338 2.31653 0
M  V30 1450 H 138.876 3.51744 2.22856 0
M  V30 1451 H 141.473 2.40275 4.77673 0
M  V30 1452 H 141.816 0.839518 4.07747 0
M  V30 1453 H 142.349 2.31477 3.23517 0
M  V30 1454 H 139.088 5.22332 3.96043 0
M  V30 1455 H 138.608 3.69193 4.72712 0
M  V30 1456 H 140.287 4.27134 4.85968 0
M  V30 1457 N 140.419 -1.14872 1.07899 0
M  V30 1458 C 141.665 -1.86064 0.806725 0
M  V30 1459 C 141.998 -1.82434 -0.665706 0
M  V30 1460 O 141.273 -1.25138 -1.48899 0
M  V30 1461 C 141.556 -3.34929 1.32267 0
M  V30 1462 C 141.409 -3.47161 2.86006 0
M  V30 1463 C 142.728 -4.29863 0.943717 0
M  V30 1464 H 139.847 -0.675591 0.294526 0
M  V30 1465 H 142.489 -1.34925 1.33773 0
M  V30 1466 H 140.639 -3.78611 0.870974 0
M  V30 1467 H 142.311 -3.12302 3.39507 0
M  V30 1468 H 140.554 -2.88539 3.23925 0
M  V30 1469 H 141.225 -4.51777 3.17177 0
M  V30 1470 H 143.701 -3.9417 1.33302 0
M  V30 1471 H 142.577 -5.32494 1.33198 0
M  V30 1472 H 142.838 -4.41846 -0.149796 0
M  V30 1473 N 141.898 -0.863906 -1.31812 0
M  V30 1474 C 142.808 -0.318461 -2.32428 0
M  V30 1475 C 143.824 0.568496 -1.64451 0
M  V30 1476 O 145 0.46666 -1.95919 0
M  V30 1477 C 142.065 0.476355 -3.43412 0
M  V30 1478 C 141.126 -0.43784 -4.27061 0
M  V30 1479 C 140.359 0.319138 -5.32745 0
M  V30 1480 O 140.582 1.54799 -5.48993 0
M  V30 1481 O 139.516 -0.319861 -6.01049 0
M  V30 1482 H 143.342 -1.15229 -2.80991 0
M  V30 1483 H 140.927 -0.627103 -1.35602 0
M  V30 1484 H 142.809 0.927156 -4.11074 0
M  V30 1485 H 141.484 1.28683 -2.97022 0
M  V30 1486 H 140.391 -0.937013 -3.62175 0
M  V30 1487 H 141.724 -1.21375 -4.77 0
M  V30 1488 N 143.376 1.44774 -0.622745 0
M  V30 1489 C 144.286 2.34433 0.0886031 0
M  V30 1490 C 145.302 1.52131 0.844529 0
M  V30 1491 O 146.478 1.84886 0.798691 0
M  V30 1492 C 143.543 3.29986 1.0635 0
M  V30 1493 C 142.604 4.28195 0.307873 0
M  V30 1494 C 141.837 5.19183 1.23633 0
M  V30 1495 O 142.06 5.13918 2.47476 0
M  V30 1496 O 140.994 5.97515 0.725189 0
M  V30 1497 H 144.82 2.96693 -0.648599 0
M  V30 1498 H 142.405 1.44408 -0.382957 0
M  V30 1499 H 144.287 3.88825 1.6246 0
M  V30 1500 H 142.962 2.70269 1.78146 0
M  V30 1501 H 141.869 3.72927 -0.296064 0
M  V30 1502 H 143.202 4.90808 -0.3699 0
M  V30 1503 N 144.854 0.36279 1.53368 0
M  V30 1504 C 146.265 -0.117022 1.86333 0
M  V30 1505 C 146.616 -1.48397 1.28347 0
M  V30 1506 O 145.741 -2.07787 0.604428 0
M  V30 1507 C 146.336 -0.21912 3.38091 0
M  V30 1508 C 144.895 -0.643184 3.70864 0
M  V30 1509 C 144.042 0.211318 2.76494 0
M  V30 1510 H 146.993 0.581687 1.47655 0
M  V30 1511 H 147.014 -1.04319 3.6592 0
M  V30 1512 H 146.526 0.775902 3.80265 0
M  V30 1513 H 144.627 -1.64654 3.34245 0
M  V30 1514 H 144.74 -0.41973 4.77258 0
M  V30 1515 H 143.104 -0.319367 2.5269 0
M  V30 1516 H 143.887 1.20383 3.21501 0
M  V30 1517 N 146.332 -1.57332 0.0918853 0
M  V30 1518 C 147.242 -2.17368 -0.882505 0
M  V30 1519 C 148.258 -1.14226 -1.31257 0
M  V30 1520 O 149.434 -1.46582 -1.38115 0
M  V30 1521 C 146.499 -2.73962 -2.12476 0
M  V30 1522 C 145.56 -3.92048 -1.7492 0
M  V30 1523 C 144.793 -4.45933 -2.93223 0
M  V30 1524 O 145.016 -3.98764 -4.07852 0
M  V30 1525 O 143.95 -5.36999 -2.71875 0
M  V30 1526 H 147.776 -3.01031 -0.40172 0
M  V30 1527 H 145.361 -1.48813 -0.132291 0
M  V30 1528 H 147.243 -3.10147 -2.85283 0
M  V30 1529 H 145.918 -1.93347 -2.59613 0
M  V30 1530 H 144.825 -3.6068 -0.993025 0
M  V30 1531 H 146.158 -4.74017 -1.32548 0
M  V30 1532 N 147.81 0.181792 -1.56548 0
M  V30 1533 C 148.773 1.20894 -1.94724 0
M  V30 1534 C 149.773 1.37738 -0.829747 0
M  V30 1535 O 150.963 1.35323 -1.09697 0
M  V30 1536 C 148.095 2.57593 -2.23291 0
M  V30 1537 H 149.288 0.882275 -2.86629 0
M  V30 1538 H 146.841 0.423838 -1.50444 0
M  V30 1539 H 147.576 2.95291 -1.34067 0
M  V30 1540 H 147.361 2.46735 -3.04736 0
M  V30 1541 H 148.851 3.31637 -2.53785 0
M  V30 1542 N 149.288 1.51039 0.449983 0
M  V30 1543 C 150.218 1.74379 1.55288 0
M  V30 1544 C 151.199 0.593236 1.5942 0
M  V30 1545 O 152.384 0.834625 1.7535 0
M  V30 1546 C 149.514 1.85728 2.93466 0
M  V30 1547 C 148.468 3.01078 3.04197 0
M  V30 1548 C 147.794 2.97595 4.44231 0
M  V30 1549 C 149.094 4.41254 2.7945 0
M  V30 1550 H 150.788 2.66725 1.36008 0
M  V30 1551 H 148.334 1.2835 0.652864 0
M  V30 1552 H 150.287 2.0064 3.70569 0
M  V30 1553 H 149.011 0.900207 3.13949 0
M  V30 1554 H 147.67 2.85851 2.29531 0
M  V30 1555 H 147.318 1.99691 4.61663 0
M  V30 1556 H 147.018 3.75046 4.52343 0
M  V30 1557 H 148.542 3.14583 5.23326 0
M  V30 1558 H 149.956 4.56897 3.46292 0
M  V30 1559 H 148.353 5.20315 2.98985 0
M  V30 1560 H 149.423 4.52164 1.75144 0
M  V30 1561 N 150.766 -0.704594 1.40972 0
M  V30 1562 C 151.716 -1.81051 1.38581 0
M  V30 1563 C 152.7 -1.58759 0.261585 0
M  V30 1564 O 153.892 -1.69745 0.501556 0
M  V30 1565 C 151.021 -3.19279 1.26157 0
M  V30 1566 C 150.107 -3.47296 2.43405 0
M  V30 1567 N 150.498 -3.46064 3.68881 0
M  V30 1568 C 148.796 -3.77804 2.37023 0
M  V30 1569 C 149.497 -3.72733 4.46592 0
M  V30 1570 N 148.473 -3.9203 3.76581 0
M  V30 1571 H 152.275 -1.78448 2.33525 0
M  V30 1572 H 149.789 -0.904198 1.349 0
M  V30 1573 H 151.786 -3.98488 1.22526 0
M  V30 1574 H 150.446 -3.231 0.321902 0
M  V30 1575 H 151.457 -3.26656 4.01891 0
M  V30 1576 H 148.134 -3.8905 1.51481 0
M  V30 1577 H 149.524 -3.77993 5.55492 0
M  V30 1578 N 152.244 -1.26651 -0.937939 0
M  V30 1579 C 153.66 -1.03834 -1.21205 0
M  V30 1580 C 153.86 0.234502 -2.00131 0
M  V30 1581 O 152.916 0.942767 -2.3424 0
M  V30 1582 C 154.229 -2.27167 -1.97017 0
M  V30 1583 C 155.777 -2.32101 -2.09996 0
M  V30 1584 C 156.252 -3.55136 -2.8921 0
M  V30 1585 N 157.743 -3.55632 -2.96783 0
M  V30 1586 C 158.478 -4.475 -3.58512 0
M  V30 1587 N 157.974 -5.4966 -4.21717 0
M  V30 1588 N 159.767 -4.35145 -3.55816 0
M  V30 1589 H 151.918 -2.08398 -0.410391 0
M  V30 1590 H 154.181 -0.916031 -0.244114 0
M  V30 1591 H 153.887 -3.19765 -1.46434 0
M  V30 1592 H 153.761 -2.31672 -2.97671 0
M  V30 1593 H 156.148 -1.40015 -2.59769 0
M  V30 1594 H 156.229 -2.31605 -1.08594 0
M  V30 1595 H 155.873 -4.47553 -2.40123 0
M  V30 1596 H 155.803 -3.5288 -3.90875 0
M  V30 1597 H 158.294 -2.81743 -2.51852 0
M  V30 1598 H 158.607 -6.15943 -4.66727 0
M  V30 1599 H 156.952 -5.53514 -4.20294 0
M  V30 1600 H 160.143 -3.5455 -3.05634 0
M  V30 1601 H 160.316 -5.06934 -4.03636 0
M  V30 1602 N 153.722 1.14298 -1.08507 0
M  V30 1603 C 154.968 1.85633 -0.816581 0
M  V30 1604 C 155.301 1.82784 0.656021 0
M  V30 1605 O 154.576 1.25926 1.48233 0
M  V30 1606 C 154.859 3.34223 -1.34041 0
M  V30 1607 C 154.712 3.45639 -2.87843 0
M  V30 1608 C 156.031 4.29356 -0.9665 0
M  V30 1609 H 153.15 0.67402 -0.298104 0
M  V30 1610 H 155.792 1.34214 -1.34487 0
M  V30 1611 H 153.942 3.78144 -0.89104 0
M  V30 1612 H 155.614 3.10498 -3.41158 0
M  V30 1613 H 153.857 2.86817 -3.25451 0
M  V30 1614 H 154.528 4.50089 -3.19569 0
M  V30 1615 H 157.004 3.93457 -1.35391 0
M  V30 1616 H 155.88 5.3178 -1.3602 0
M  V30 1617 H 156.141 4.41919 0.126362 0
M  V30 1618 N 155.201 0.870884 1.31352 0
M  V30 1619 C 156.449 0.48132 1.96285 0
M  V30 1620 C 156.77 -0.969813 1.69173 0
M  V30 1621 O 156.04 -1.67998 1.00764 0
M  V30 1622 H 154.62 0.175002 0.726212 0
M  V30 1623 H 157.282 1.11087 1.60143 0
M  V30 1624 H 156.378 0.639825 3.05471 0
M  V30 1625 N 156.679 -1.44442 0.630414 0
M  V30 1626 C 157.925 -2.02351 0.134816 0
M  V30 1627 C 158.258 -1.4947 -1.23986 0
M  V30 1628 O 157.533 -0.678475 -1.82283 0
M  V30 1629 C 157.816 -3.59898 0.120707 0
M  V30 1630 C 157.669 -4.23063 1.52767 0
M  V30 1631 C 158.988 -4.36585 -0.555127 0
M  V30 1632 H 156.107 -0.73527 0.0504646 0
M  V30 1633 H 158.749 -1.72022 0.806751 0
M  V30 1634 H 156.899 -3.85868 -0.451477 0
M  V30 1635 H 158.571 -4.08202 2.14869 0
M  V30 1636 H 156.814 -3.80586 2.08175 0
M  V30 1637 H 157.485 -5.32071 1.46984 0
M  V30 1638 H 159.961 -4.16044 -0.0685429 0
M  V30 1639 H 158.837 -5.46294 -0.534185 0
M  V30 1640 H 159.098 -4.11138 -1.62535 0
M  V30 1641 N 158.157 -0.370918 -1.53173 0
M  V30 1642 C 159.382 0.220293 -2.06227 0
M  V30 1643 C 159.807 1.41243 -1.24225 0
M  V30 1644 O 159.165 1.79387 -0.262645 0
M  V30 1645 C 159.213 0.586663 -3.55796 0
M  V30 1646 O 158.317 1.68317 -3.76488 0
M  V30 1647 H 157.658 0.0308099 -0.663285 0
M  V30 1648 H 160.188 -0.533068 -1.97534 0
M  V30 1649 H 160.198 0.85617 -3.98916 0
M  V30 1650 H 158.873 -0.285013 -4.14922 0
M  V30 1651 H 157.45 1.40881 -3.45264 0
M  V30 1652 N 159.635 1.57281 -0.100228 0
M  V30 1653 C 160.881 1.94826 0.563101 0
M  V30 1654 C 161.214 0.982475 1.67514 0
M  V30 1655 O 160.489 0.0164069 1.94493 0
M  V30 1656 C 160.772 3.42453 1.11346 0
M  V30 1657 C 160.625 4.498 0.00612081 0
M  V30 1658 C 161.944 3.91506 2.01024 0
M  V30 1659 H 159.063 0.708428 0.203221 0
M  V30 1660 H 161.705 1.8922 -0.171979 0
M  V30 1661 H 159.855 3.47361 1.7399 0
M  V30 1662 H 161.527 4.57 -0.628357 0
M  V30 1663 H 159.77 4.28756 -0.659581 0
M  V30 1664 H 160.441 5.50306 0.432109 0
M  V30 1665 H 162.917 3.88784 1.48278 0
M  V30 1666 H 161.793 4.95358 2.36457 0
M  V30 1667 H 162.054 3.31099 2.92961 0
M  V30 1668 N 161.113 -0.173488 1.56642 0
M  V30 1669 C 162.359 -0.887108 1.83035 0
M  V30 1670 C 162.714 -1.79965 0.680461 0
M  V30 1671 O 162.007 -1.88854 -0.323225 0
M  V30 1672 C 162.201 -1.72069 3.13252 0
M  V30 1673 C 162.03 -0.89035 4.40798 0
M  V30 1674 C 160.8 -0.566282 5.02117 0
M  V30 1675 C 162.998 -0.232921 5.13772 0
M  V30 1676 N 160.98 0.280427 6.13259 0
M  V30 1677 C 162.351 0.475046 6.18177 0
M  V30 1678 C 164.406 -0.150863 4.97671 0
M  V30 1679 C 163.109 1.25729 7.08227 0
M  V30 1680 C 165.135 0.618039 5.88162 0
M  V30 1681 C 164.497 1.31438 6.92029 0
M  V30 1682 H 160.596 -0.303303 0.720785 0
M  V30 1683 H 163.18 -0.154244 1.94088 0
M  V30 1684 H 161.351 -2.42499 3.03395 0
M  V30 1685 H 163.083 -2.37545 3.2765 0
M  V30 1686 H 159.838 -0.895852 4.6505 0
M  V30 1687 H 160.262 0.694027 6.73433 0
M  V30 1688 H 164.904 -0.674868 4.17379 0
M  V30 1689 H 162.622 1.79265 7.87966 0
M  V30 1690 H 166.208 0.683173 5.77775 0
M  V30 1691 H 165.088 1.89981 7.6084 0
M  V30 1692 N 162.591 -1.51276 -0.441967 0
M  V30 1693 C 163.501 -1.75092 -1.56141 0
M  V30 1694 C 164.517 -0.634963 -1.62001 0
M  V30 1695 O 165.693 -0.916686 -1.79329 0
M  V30 1696 C 162.758 -1.86666 -2.92158 0
M  V30 1697 C 161.819 -3.10506 -2.96453 0
M  V30 1698 C 161.052 -3.21519 -4.25982 0
M  V30 1699 O 161.275 -2.38586 -5.18105 0
M  V30 1700 O 160.209 -4.14465 -4.36466 0
M  V30 1701 H 164.035 -2.70044 -1.38961 0
M  V30 1702 H 161.62 -1.35722 -0.624499 0
M  V30 1703 H 163.502 -1.96292 -3.72891 0
M  V30 1704 H 162.177 -0.949014 -3.09476 0
M  V30 1705 H 161.084 -3.06363 -2.14692 0
M  V30 1706 H 162.417 -4.01945 -2.84079 0
M  V30 1707 N 164.069 0.697108 -1.41344 0
M  V30 1708 C 165.485 1.00751 -1.2378 0
M  V30 1709 C 165.685 2.01105 -0.126066 0
M  V30 1710 O 164.741 2.47295 0.51004 0
M  V30 1711 C 166.054 1.53359 -2.58653 0
M  V30 1712 C 167.602 1.6525 -2.65822 0
M  V30 1713 C 168.077 2.2126 -4.01009 0
M  V30 1714 N 169.568 2.28622 -4.02847 0
M  V30 1715 C 170.303 2.72984 -5.04249 0
M  V30 1716 N 169.799 3.16962 -6.16041 0
M  V30 1717 N 171.592 2.72534 -4.91611 0
M  V30 1718 H 163.743 0.0322662 -2.12375 0
M  V30 1719 H 166.006 0.0768853 -0.944877 0
M  V30 1720 H 165.712 0.870773 -3.4075 0
M  V30 1721 H 165.586 2.51597 -2.81032 0
M  V30 1722 H 167.973 2.30644 -1.84086 0
M  V30 1723 H 168.054 0.655614 -2.47256 0
M  V30 1724 H 167.698 1.56482 -4.83193 0
M  V30 1725 H 167.628 3.21698 -4.16915 0
M  V30 1726 H 170.119 1.97585 -3.22131 0
M  V30 1727 H 170.432 3.49434 -6.89287 0
M  V30 1728 H 168.777 3.14875 -6.1958 0
M  V30 1729 H 171.968 2.37525 -4.0336 0
M  V30 1730 H 172.141 3.06789 -5.70775 0
M  V30 1731 N 165.547 1.27147 0.931209 0
M  V30 1732 C 166.777 1.15914 1.71019 0
M  V30 1733 C 167.185 -0.287112 1.87009 0
M  V30 1734 O 166.528 -1.20761 1.38429 0
M  V30 1735 C 166.59 1.76647 3.13107 0
M  V30 1736 C 166.254 3.25807 3.20467 0
M  V30 1737 C 167.251 4.22489 3.02983 0
M  V30 1738 C 164.936 3.66452 3.43538 0
M  V30 1739 C 166.93 5.57794 3.08454 0
M  V30 1740 C 164.617 5.01888 3.48643 0
M  V30 1741 C 165.615 5.97369 3.31119 0
M  V30 1742 O 165.303 7.30337 3.35952 0
M  V30 1743 H 165.035 0.404062 0.54195 0
M  V30 1744 H 167.589 1.68457 1.17521 0
M  V30 1745 H 165.819 1.18578 3.68071 0
M  V30 1746 H 167.508 1.60179 3.72958 0
M  V30 1747 H 168.274 3.92425 2.85004 0
M  V30 1748 H 164.153 2.92611 3.5623 0
M  V30 1749 H 167.697 6.32298 2.94694 0
M  V30 1750 H 163.594 5.31609 3.66145 0
M  V30 1751 H 164.362 7.38739 3.5243 0
M  V30 1752 N 167.025 -1.13721 1.09112 0
M  V30 1753 C 168.253 -1.88773 0.846899 0
M  V30 1754 C 168.668 -1.7896 -0.601572 0
M  V30 1755 O 168.025 -1.15394 -1.41388 0
M  V30 1756 C 168.076 -3.3849 1.26913 0
M  V30 1757 O 167.797 -3.48043 2.66079 0
M  V30 1758 C 169.298 -4.30518 1.05682 0
M  V30 1759 H 166.518 -0.59772 0.304914 0
M  V30 1760 H 169.062 -1.43977 1.45227 0
M  V30 1761 H 167.217 -3.80881 0.707723 0
M  V30 1762 H 167.631 -4.4109 2.83795 0
M  V30 1763 H 169.105 -5.3391 1.40156 0
M  V30 1764 H 169.582 -4.392 -0.00563416 0
M  V30 1765 H 170.188 -3.93893 1.60402 0
M  V30 1766 N 168.503 -0.877838 -1.30888 0
M  V30 1767 C 169.751 -0.491723 -1.96027 0
M  V30 1768 C 170.072 0.960827 -1.69685 0
M  V30 1769 O 169.342 1.67462 -1.01654 0
M  V30 1770 H 167.922 -0.17885 -0.725273 0
M  V30 1771 H 170.584 -1.11935 -1.59551 0
M  V30 1772 H 169.68 -0.656016 -3.05128 0
M  V30 1773 N 169.982 1.44106 -0.638065 0
M  V30 1774 C 171.393 1.85316 -0.226894 0
M  V30 1775 C 171.744 1.53399 1.22324 0
M  V30 1776 O 170.869 0.975463 1.93167 0
M  V30 1777 C 171.464 3.3637 -0.405013 0
M  V30 1778 C 170.023 3.76369 -0.0482902 0
M  V30 1779 C 169.17 2.67921 -0.715108 0
M  V30 1780 H 172.121 1.34474 -0.842764 0
M  V30 1781 H 172.142 3.7885 0.354 0
M  V30 1782 H 171.654 3.59569 -1.46053 0
M  V30 1783 H 169.755 3.58784 1.00522 0
M  V30 1784 H 169.868 4.76856 -0.463187 0
M  V30 1785 H 168.232 2.54259 -0.149753 0
M  V30 1786 H 169.015 2.93951 -1.77335 0
M  V30 1787 N 171.46 0.379036 1.52974 0
M  V30 1788 C 172.69 -0.20649 2.05566 0
M  V30 1789 C 173.098 -1.41906 1.25137 0
M  V30 1790 O 172.441 -1.81421 0.288464 0
M  V30 1791 C 172.503 -0.651086 3.53555 0
M  V30 1792 C 172.167 0.446626 4.54812 0
M  V30 1793 C 173.164 1.30079 5.03364 0
M  V30 1794 C 170.849 0.610719 4.98573 0
M  V30 1795 C 172.843 2.30426 5.94292 0
M  V30 1796 C 170.53 1.61754 5.89304 0
M  V30 1797 C 171.528 2.46274 6.37054 0
M  V30 1798 O 171.216 3.45237 7.25994 0
M  V30 1799 H 170.948 -0.0372381 0.674974 0
M  V30 1800 H 173.502 0.539718 1.98182 0
M  V30 1801 H 171.732 -1.44911 3.58522 0
M  V30 1802 H 173.421 -1.16112 3.88938 0
M  V30 1803 H 174.187 1.18527 4.70294 0
M  V30 1804 H 170.066 -0.0374044 4.60985 0
M  V30 1805 H 173.61 2.96432 6.31485 0
M  V30 1806 H 169.507 1.73348 6.21788 0
M  V30 1807 H 170.275 3.41124 7.44027 0
M  V30 1808 N 172.938 -1.57226 0.108567 0
M  V30 1809 C 174.166 -1.99179 -0.559954 0
M  V30 1810 C 174.581 -0.988022 -1.60884 0
M  V30 1811 O 173.938 0.0205512 -1.82488 0
M  V30 1812 C 173.989 -3.41159 -1.19552 0
M  V30 1813 O 173.71 -4.37694 -0.188577 0
M  V30 1814 C 175.211 -3.98188 -1.94837 0
M  V30 1815 H 172.431 -0.654228 -0.149088 0
M  V30 1816 H 174.975 -2.03598 0.19183 0
M  V30 1817 H 173.13 -3.37711 -1.89815 0
M  V30 1818 H 173.544 -5.20469 -0.649014 0
M  V30 1819 H 175.018 -4.99644 -2.34648 0
M  V30 1820 H 175.495 -3.3675 -2.81951 0
M  V30 1821 H 176.101 -4.0515 -1.2936 0
M  V30 1822 N 174.416 0.165178 -1.56732 0
M  V30 1823 C 175.693 0.908443 -1.73224 0
M  V30 1824 C 176.073 2.0013 -0.67165 0
M  V30 1825 O 175.421 2.26353 0.31253 0
M  V30 1826 C 175.631 1.46756 -3.16644 0
M  V30 1827 C 176.979 1.93809 -3.77787 0
M  V30 1828 O 178.003 1.56537 -3.1996 0
M  V30 1829 O 176.862 2.62486 -4.79336 0
M  V30 1830 H 173.956 0.428025 -0.707618 0
M  V30 1831 H 176.502 0.152526 -1.69013 0
M  V30 1832 H 175.274 0.68129 -3.85323 0
M  V30 1833 H 174.897 2.28749 -3.25207 0
M  V30 1834 N 175.894 1.51508 0.433938 0
M  V30 1835 C 176.804 1.75917 1.5521 0
M  V30 1836 C 177.82 0.643545 1.61662 0
M  V30 1837 O 178.996 0.926183 1.7884 0
M  V30 1838 C 176.061 1.88213 2.91164 0
M  V30 1839 C 175.122 3.12074 2.94802 0
M  V30 1840 C 174.355 3.23774 4.24271 0
M  V30 1841 O 174.578 2.4133 5.16833 0
M  V30 1842 O 173.512 4.16774 4.34262 0
M  V30 1843 H 177.338 2.70777 1.37527 0
M  V30 1844 H 174.923 1.36051 0.617293 0
M  V30 1845 H 176.805 1.98267 3.71845 0
M  V30 1846 H 175.48 0.965413 3.08968 0
M  V30 1847 H 174.387 3.07497 2.13065 0
M  V30 1848 H 175.72 4.03446 2.81943 0
M  V30 1849 N 177.372 -0.689602 1.41712 0
M  V30 1850 C 178.612 -1.46184 1.42862 0
M  V30 1851 C 178.976 -1.91962 0.0382204 0
M  V30 1852 O 180.177 -2.68694 -0.0755019 0
M  V30 1853 C 178.448 -2.6371 2.4123 0
M  V30 1854 S 180.007 -3.52768 2.6096 0
M  V30 1855 H 176.825 -0.49947 0.506015 0
M  V30 1856 H 179.427 -0.804107 1.78198 0
M  V30 1857 H 178.131 -2.28293 3.41044 0
M  V30 1858 H 177.662 -3.3437 2.07269 0
M  V30 1859 H 179.677 -4.59146 1.88148 0
M  V30 1860 N 178.85 -1.27639 -0.924453 0
M  V30 1861 C 179.797 -1.10644 -2.0255 0
M  V30 1862 C 180.767 -0.00658438 -1.66099 0
M  V30 1863 O 181.952 -0.16952 -1.90045 0
M  V30 1864 C 179.092 -0.76309 -3.36557 0
M  V30 1865 C 178.205 -1.94091 -3.85944 0
M  V30 1866 C 177.34 -1.53914 -5.08413 0
M  V30 1867 C 176.379 -2.68425 -5.50104 0
M  V30 1868 N 175.516 -2.28815 -6.63768 0
M  V30 1869 H 180.356 -2.04858 -2.16419 0
M  V30 1870 H 177.893 -1.01974 -1.06017 0
M  V30 1871 H 179.851 -0.544822 -4.13627 0
M  V30 1872 H 178.481 0.142102 -3.22487 0
M  V30 1873 H 177.533 -2.27162 -3.05125 0
M  V30 1874 H 178.845 -2.7998 -4.12811 0
M  V30 1875 H 177.999 -1.28231 -5.92994 0
M  V30 1876 H 176.738 -0.651391 -4.8333 0
M  V30 1877 H 175.743 -2.94819 -4.64071 0
M  V30 1878 H 176.968 -3.57826 -5.7718 0
M  V30 1879 H 174.914 -1.42495 -6.40337 0
M  V30 1880 H 174.831 -3.08242 -6.90306 0
M  V30 1881 H 176.099 -2.06387 -7.51681 0
M  V30 1882 N 180.328 1.1314 -1.09713 0
M  V30 1883 C 181.739 1.66029 -0.853885 0
M  V30 1884 C 182.09 1.86241 0.617142 0
M  V30 1885 O 181.215 1.5834 1.47503 0
M  V30 1886 C 181.81 3.01599 -1.5435 0
M  V30 1887 C 180.369 3.51467 -1.34714 0
M  V30 1888 C 179.516 2.26648 -1.59769 0
M  V30 1889 H 182.467 0.970226 -1.25588 0
M  V30 1890 H 182.488 3.67709 -0.978267 0
M  V30 1891 H 182 2.86856 -2.6141 0
M  V30 1892 H 180.101 3.71408 -0.297838 0
M  V30 1893 H 180.214 4.314 -2.08401 0
M  V30 1894 H 178.578 2.33385 -1.01998 0
M  V30 1895 H 179.361 2.14467 -2.68065 0
M  V30 1896 N 181.806 0.884767 1.30421 0
M  V30 1897 C 182.739 0.295999 2.26272 0
M  V30 1898 C 183.717 -0.58332 1.51777 0
M  V30 1899 O 184.901 -0.53346 1.80794 0
M  V30 1900 C 182.028 -0.57944 3.33707 0
M  V30 1901 C 181.074 0.230525 4.25877 0
M  V30 1902 S 181.907 1.61867 5.1045 0
M  V30 1903 C 183.063 0.749756 6.21393 0
M  V30 1904 H 183.296 1.10848 2.75862 0
M  V30 1905 H 180.829 0.684178 1.38414 0
M  V30 1906 H 182.787 -1.07879 3.96071 0
M  V30 1907 H 181.448 -1.36601 2.82841 0
M  V30 1908 H 180.641 -0.437542 5.02097 0
M  V30 1909 H 180.243 0.662493 3.68086 0
M  V30 1910 H 182.535 -0.0333547 6.77492 0
M  V30 1911 H 183.478 1.48356 6.92384 0
M  V30 1912 H 183.886 0.310751 5.63644 0
M  V30 1913 N 183.284 -1.43765 0.645699 0
M  V30 1914 C 184.53 -2.02197 0.156271 0
M  V30 1915 C 184.863 -1.50776 -1.22393 0
M  V30 1916 O 184.138 -0.697771 -1.81553 0
M  V30 1917 C 184.421 -3.59749 0.158872 0
M  V30 1918 C 184.274 -4.21419 1.57245 0
M  V30 1919 C 185.593 -4.37149 -0.50879 0
M  V30 1920 H 182.712 -0.734694 0.0582602 0
M  V30 1921 H 185.354 -1.71157 0.824951 0
M  V30 1922 H 183.504 -3.86325 -0.410525 0
M  V30 1923 H 185.176 -4.059 2.19186 0
M  V30 1924 H 183.419 -3.78356 2.122 0
M  V30 1925 H 184.09 -5.30482 1.52619 0
M  V30 1926 H 186.566 -4.16093 -0.024412 0
M  V30 1927 H 185.442 -5.4683 -0.476213 0
M  V30 1928 H 185.703 -4.12839 -1.58165 0
M  V30 1929 N 184.763 -0.387143 -1.52771 0
M  V30 1930 C 186.04 0.253197 -1.93954 0
M  V30 1931 C 186.42 1.64545 -1.32243 0
M  V30 1932 O 185.768 2.23191 -0.489699 0
M  V30 1933 C 185.978 0.281722 -3.47861 0
M  V30 1934 C 187.326 0.511715 -4.21505 0
M  V30 1935 O 188.35 0.362023 -3.54356 0
M  V30 1936 O 187.209 0.804847 -5.40541 0
M  V30 1937 H 184.303 0.156845 -0.811991 0
M  V30 1938 H 186.849 -0.441494 -1.63856 0
M  V30 1939 H 185.621 -0.693571 -3.85104 0
M  V30 1940 H 185.244 1.02142 -3.84256 0
M  V30 1941 N 186.241 1.57166 -0.116904 0
M  V30 1942 C 187.173 2.12271 0.864507 0
M  V30 1943 C 188.186 1.06494 1.23138 0
M  V30 1944 O 189.375 1.33873 1.18069 0
M  V30 1945 C 186.475 2.60564 2.16702 0
M  V30 1946 C 185.648 3.90416 1.97216 0
M  V30 1947 C 184.707 4.24329 3.11178 0
M  V30 1948 O 183.733 4.93182 2.84184 0
M  V30 1949 N 184.935 3.8148 4.37554 0
M  V30 1950 H 187.7 2.97102 0.393726 0
M  V30 1951 H 185.261 1.61759 0.0675805 0
M  V30 1952 H 187.253 2.80282 2.91932 0
M  V30 1953 H 185.823 1.80623 2.55135 0
M  V30 1954 H 185.043 3.79627 1.06192 0
M  V30 1955 H 186.331 4.75327 1.81499 0
M  V30 1956 H 185.729 3.25943 4.62361 0
M  V30 1957 H 184.286 4.06311 5.09661 0
M  V30 1958 N 187.719 -0.156864 1.56817 0
M  V30 1959 C 188.652 -1.22316 1.9265 0
M  V30 1960 C 189.63 -1.42059 0.791076 0
M  V30 1961 O 190.814 -1.56831 1.04576 0
M  V30 1962 C 187.941 -2.58375 2.18998 0
M  V30 1963 C 186.987 -2.55284 3.41661 0
M  V30 1964 S 187.82 -2.02946 4.95553 0
M  V30 1965 C 188.976 -3.40753 5.25013 0
M  V30 1966 H 189.209 -0.917403 2.82791 0
M  V30 1967 H 186.742 -0.362059 1.50095 0
M  V30 1968 H 188.7 -3.36677 2.34859 0
M  V30 1969 H 187.361 -2.86145 1.29538 0
M  V30 1970 H 186.554 -3.55418 3.57343 0
M  V30 1971 H 186.156 -1.85086 3.24991 0
M  V30 1972 H 188.448 -4.36819 5.17876 0
M  V30 1973 H 189.391 -3.29933 6.26538 0
M  V30 1974 H 189.799 -3.37433 4.52548 0
M  V30 1975 N 189.197 -1.51736 -0.425897 0
M  V30 1976 C 190.13 -1.68574 -1.53812 0
M  V30 1977 C 191.108 -0.53328 -1.53606 0
M  V30 1978 O 192.292 -0.758555 -1.72564 0
M  V30 1979 C 189.419 -1.70977 -2.92377 0
M  V30 1980 C 188.465 -2.92324 -3.10563 0
M  V30 1981 S 189.298 -4.52952 -2.85648 0
M  V30 1982 C 190.454 -4.58117 -4.26474 0
M  V30 1983 H 190.687 -2.62647 -1.39298 0
M  V30 1984 H 188.22 -1.41564 -0.616361 0
M  V30 1985 H 190.178 -1.73047 -3.72243 0
M  V30 1986 H 188.839 -0.78061 -3.04245 0
M  V30 1987 H 188.032 -2.90439 -4.11899 0
M  V30 1988 H 187.634 -2.88055 -2.38538 0
M  V30 1989 H 189.926 -4.34462 -5.19855 0
M  V30 1990 H 190.869 -5.59983 -4.33388 0
M  V30 1991 H 191.277 -3.8732 -4.10662 0
M  V30 1992 N 190.675 0.682077 -1.42076 0
M  V30 1993 C 191.623 1.81707 -1.45208 0
M  V30 1994 C 192.617 1.66183 -0.328591 0
M  V30 1995 O 193.823 1.7288 -0.501264 0
M  V30 1996 H 190.198 0.599014 -0.454628 0
M  V30 1997 H 192.169 1.76183 -2.40836 0
M  V30 1998 C 190.918 3.19816 -1.36428 0
M  V30 1999 H 190.241 3.32385 -2.22171 0
M  V30 2000 H 191.681 3.99272 -1.42681 0
M  V30 2001 C 190.14 3.36809 -0.078191 0
M  V30 2002 O 190.67 3.92124 0.87188 0
M  V30 2003 N 188.876 2.906 0.00229266 0
M  V30 2004 H 188.423 2.45772 -0.771616 0
M  V30 2005 H 188.381 3.02347 0.862179 0
M  V30 2006 N 192.153 1.28127 0.917671 0
M  V30 2007 C 193.1 1.11717 2.0196 0
M  V30 2008 C 194.07 0.0153929 1.66093 0
M  V30 2009 O 195.255 0.179596 1.89953 0
M  V30 2010 C 192.395 0.780927 3.36148 0
M  V30 2011 C 191.508 1.96135 3.84909 0
M  V30 2012 C 190.643 1.56609 5.0759 0
M  V30 2013 C 189.682 2.71339 5.48673 0
M  V30 2014 N 188.819 2.32332 6.62545 0
M  V30 2015 H 193.659 2.06003 2.15329 0
M  V30 2016 H 191.196 1.02535 1.05475 0
M  V30 2017 H 193.154 0.56675 4.13333 0
M  V30 2018 H 191.784 -0.124998 3.22558 0
M  V30 2019 H 190.836 2.28777 3.03916 0
M  V30 2020 H 192.148 2.82165 4.1132 0
M  V30 2021 H 191.302 1.31374 5.92305 0
M  V30 2022 H 190.041 0.677014 4.82978 0
M  V30 2023 H 189.046 2.97276 4.62501 0
M  V30 2024 H 190.271 3.60882 5.75274 0
M  V30 2025 H 188.217 1.45889 6.39572 0
M  V30 2026 H 188.134 3.11899 6.88662 0
M  V30 2027 H 189.402 2.10371 7.50576 0
M  V30 2028 N 193.631 -1.12557 1.10312 0
M  V30 2029 C 195.047 -1.36036 0.834649 0
M  V30 2030 C 195.247 -1.93946 -0.546539 0
M  V30 2031 O 194.303 -2.16484 -1.29966 0
M  V30 2032 C 195.616 -2.30312 1.9333 0
M  V30 2033 C 197.164 -2.43906 1.9616 0
M  V30 2034 C 197.639 -3.41496 3.05195 0
M  V30 2035 N 199.13 -3.49053 3.04494 0
M  V30 2036 C 199.865 -4.24471 3.85502 0
M  V30 2037 N 199.361 -5.02966 4.76442 0
M  V30 2038 N 201.154 -4.19864 3.73725 0
M  V30 2039 H 193.305 -0.733246 1.99342 0
M  V30 2040 H 195.568 -0.385234 0.866198 0
M  V30 2041 H 195.274 -1.94933 2.92735 0
M  V30 2042 H 195.148 -3.30421 1.81939 0
M  V30 2043 H 197.535 -2.78567 0.973886 0
M  V30 2044 H 197.616 -1.4369 2.11629 0
M  V30 2045 H 197.26 -3.07565 4.04186 0
M  V30 2046 H 197.19 -4.41539 2.86968 0
M  V30 2047 H 199.681 -2.93053 2.38596 0
M  V30 2048 H 199.994 -5.57846 5.34815 0
M  V30 2049 H 198.339 -5.02167 4.80472 0
M  V30 2050 H 201.53 -3.57623 3.02032 0
M  V30 2051 H 201.703 -4.78386 4.37093 0
M  V30 2052 N 195.109 -0.891671 -1.2995 0
M  V30 2053 C 196.355 -0.514261 -1.96171 0
M  V30 2054 C 196.688 0.935506 -1.70182 0
M  V30 2055 O 195.963 1.66204 -1.01028 0
M  V30 2056 C 196.246 -0.797719 -3.51153 0
M  V30 2057 C 196.099 -2.2986 -3.86632 0
M  V30 2058 C 197.418 -0.278749 -4.39216 0
M  V30 2059 H 194.537 -0.188314 -0.712535 0
M  V30 2060 H 197.179 -1.11689 -1.53706 0
M  V30 2061 H 195.329 -0.284826 -3.87455 0
M  V30 2062 H 197.001 -2.88042 -3.60319 0
M  V30 2063 H 195.244 -2.76257 -3.34462 0
M  V30 2064 H 195.915 -2.44753 -4.94773 0
M  V30 2065 H 198.391 -0.717825 -4.09862 0
M  V30 2066 H 197.267 -0.506353 -5.46559 0
M  V30 2067 H 197.528 0.820266 -4.34424 0
M  V30 2068 N 196.587 1.43421 -0.653314 0
M  V30 2069 C 197.835 2.01414 -0.166415 0
M  V30 2070 C 198.156 1.51803 1.22397 0
M  V30 2071 O 197.426 0.730693 1.81763 0
M  V30 2072 H 196.006 0.744703 -0.0585319 0
M  V30 2073 H 198.668 1.75629 -0.845003 0
M  V30 2074 H 197.764 3.11734 -0.151111 0
M  V30 2075 N 198.065 0.39524 1.52563 0
M  V30 2076 C 199.311 -0.185318 2.01952 0
M  V30 2077 C 199.644 -1.45964 1.28095 0
M  V30 2078 O 198.919 -1.90689 0.38315 0
M  V30 2079 C 199.202 -0.447193 3.57312 0
M  V30 2080 C 199.055 0.842828 4.41833 0
M  V30 2081 C 200.374 -1.23529 4.22408 0
M  V30 2082 H 197.493 -0.0658788 0.73405 0
M  V30 2083 H 200.135 0.525975 1.82575 0
M  V30 2084 H 198.285 -1.05312 3.73954 0
M  V30 2085 H 199.957 1.4795 4.36931 0
M  V30 2086 H 198.2 1.45686 4.08605 0
M  V30 2087 H 198.871 0.614165 5.48573 0
M  V30 2088 H 201.347 -0.722445 4.0978 0
M  V30 2089 H 200.223 -1.38727 5.3108 0
M  V30 2090 H 200.484 -2.25213 3.80436 0
M  V30 2091 N 199.544 -1.57102 0.125237 0
M  V30 2092 C 200.96 -1.57915 -0.231322 0
M  V30 2093 C 201.16 -1.13833 -1.66266 0
M  V30 2094 O 200.216 -0.828581 -2.38518 0
M  V30 2095 C 201.529 -3.00699 0.00766489 0
M  V30 2096 C 203.077 -3.12947 -0.0577483 0
M  V30 2097 C 203.552 -4.57742 0.153626 0
M  V30 2098 N 205.043 -4.63092 0.0998073 0
M  V30 2099 C 205.778 -5.72905 0.238174 0
M  V30 2100 N 205.274 -6.91445 0.433057 0
M  V30 2101 N 207.067 -5.6182 0.177308 0
M  V30 2102 H 199.218 -1.84055 1.06007 0
M  V30 2103 H 201.481 -0.850905 0.417929 0
M  V30 2104 H 201.187 -3.3726 0.997431 0
M  V30 2105 H 201.061 -3.70236 -0.721452 0
M  V30 2106 H 203.448 -2.7624 -1.03804 0
M  V30 2107 H 203.529 -2.4594 0.70335 0
M  V30 2108 H 203.173 -4.95149 1.13092 0
M  V30 2109 H 203.103 -5.22848 -0.627534 0
M  V30 2110 H 205.594 -3.77871 -0.047051 0
M  V30 2111 H 205.907 -7.70985 0.529332 0
M  V30 2112 H 204.252 -6.93415 0.469109 0
M  V30 2113 H 207.443 -4.68093 0.0259748 0
M  V30 2114 H 207.616 -6.47357 0.288582 0
M  V30 2115 N 201.022 0.148545 -1.56898 0
M  V30 2116 C 202.271 0.85984 -1.82454 0
M  V30 2117 C 202.584 1.82406 -0.706229 0
M  V30 2118 O 203.79 2.57938 -0.847349 0
M  V30 2119 C 202.246 1.57967 -3.2338 0
M  V30 2120 C 201.854 0.65794 -4.43142 0
M  V30 2121 C 203.598 2.27784 -3.58211 0
M  V30 2122 C 201.505 1.3793 -5.75091 0
M  V30 2123 H 200.435 0.324834 -0.68044 0
M  V30 2124 H 203.086 0.112588 -1.83154 0
M  V30 2125 H 201.468 2.37249 -3.17063 0
M  V30 2126 H 202.642 -0.0995497 -4.60692 0
M  V30 2127 H 200.957 0.0682643 -4.16344 0
M  V30 2128 H 203.554 2.8239 -4.54048 0
M  V30 2129 H 203.897 3.04204 -2.84193 0
M  V30 2130 H 204.43 1.55421 -3.66182 0
M  V30 2131 H 201.169 0.656982 -6.52199 0
M  V30 2132 H 200.689 2.10954 -5.61479 0
M  V30 2133 H 202.368 1.92063 -6.17835 0
M  V30 2134 N 202.5 1.5196 0.417844 0
M  V30 2135 C 203.746 1.65836 1.16732 0
M  V30 2136 C 204.079 0.382881 1.90388 0
M  V30 2137 O 203.354 -0.618368 1.84408 0
M  V30 2138 C 203.637 2.87466 2.16876 0
M  V30 2139 C 203.49 4.25041 1.47174 0
M  V30 2140 C 204.809 3.04613 3.17646 0
M  V30 2141 H 201.928 0.603515 0.423011 0
M  V30 2142 H 204.57 1.84494 0.454105 0
M  V30 2143 H 202.72 2.71689 2.777 0
M  V30 2144 H 204.392 4.52527 0.895376 0
M  V30 2145 H 202.635 4.26843 0.773806 0
M  V30 2146 H 203.306 5.06176 2.20204 0
M  V30 2147 H 205.782 3.1923 2.66892 0
M  V30 2148 H 204.658 3.91247 3.8499 0
M  V30 2149 H 204.919 2.17541 3.84874 0
M  V30 2150 N 203.978 -0.674533 1.42435 0
M  V30 2151 C 204.941 -1.76986 1.45632 0
M  V30 2152 C 205.941 -1.5708 0.343871 0
M  V30 2153 O 207.131 -1.63367 0.604709 0
M  V30 2154 C 204.263 -3.15623 1.28822 0
M  V30 2155 H 205.456 -1.75539 2.43158 0
M  V30 2156 H 203.009 -0.884189 1.28887 0
M  V30 2157 H 203.744 -3.22696 0.322193 0
M  V30 2158 H 203.529 -3.31475 2.09444 0
M  V30 2159 H 205.019 -3.95537 1.33942 0
M  V30 2160 N 205.456 -1.28612 -0.910864 0
M  V30 2161 C 206.872 -1.06381 -1.18976 0
M  V30 2162 C 207.072 0.191998 -2.00583 0
M  V30 2163 O 206.128 0.892869 -2.36187 0
M  V30 2164 C 207.441 -2.31295 -1.92154 0
M  V30 2165 C 208.989 -2.36503 -2.05025 0
M  V30 2166 C 209.464 -3.61191 -2.81612 0
M  V30 2167 N 210.955 -3.61847 -2.89172 0
M  V30 2168 C 211.69 -4.55004 -3.4894 0
M  V30 2169 N 211.186 -5.58482 -4.09963 0
M  V30 2170 N 212.979 -4.42594 -3.46506 0
M  V30 2171 H 205.13 -2.09221 -0.366094 0
M  V30 2172 H 207.393 -0.921003 -0.224629 0
M  V30 2173 H 207.099 -3.228 -1.39618 0
M  V30 2174 H 206.973 -2.37934 -2.9269 0
M  V30 2175 H 209.36 -1.45494 -2.5674 0
M  V30 2176 H 209.441 -2.33857 -1.03657 0
M  V30 2177 H 209.085 -4.52545 -2.30576 0
M  V30 2178 H 209.015 -3.61092 -3.83302 0
M  V30 2179 H 211.506 -2.87022 -2.45819 0
M  V30 2180 H 211.819 -6.25704 -4.53557 0
M  V30 2181 H 210.164 -5.62305 -4.08459 0
M  V30 2182 H 213.355 -3.60953 -2.98045 0
M  V30 2183 H 213.528 -5.15381 -3.92793 0
M  V30 2184 N 206.934 1.1197 -1.10907 0
M  V30 2185 C 208.35 1.35591 -0.841852 0
M  V30 2186 C 208.55 1.94233 0.536246 0
M  V30 2187 O 207.606 2.1717 1.28816 0
M  V30 2188 C 208.919 2.29284 -1.94549 0
M  V30 2189 C 210.467 2.42862 -1.97451 0
M  V30 2190 C 210.942 3.39873 -3.07002 0
M  V30 2191 N 212.433 3.47433 -3.06341 0
M  V30 2192 C 213.168 4.22421 -3.87748 0
M  V30 2193 N 212.664 5.00432 -4.79103 0
M  V30 2194 N 214.457 4.17876 -3.75946 0
M  V30 2195 H 206.608 0.722664 -1.99728 0
M  V30 2196 H 208.871 0.380635 -0.868229 0
M  V30 2197 H 208.577 1.93378 -2.93765 0
M  V30 2198 H 208.451 3.29452 -1.83688 0
M  V30 2199 H 210.838 2.78046 -0.988645 0
M  V30 2200 H 210.919 1.42566 -2.12388 0
M  V30 2201 H 210.563 3.05417 -4.05811 0
M  V30 2202 H 210.493 4.40011 -2.89306 0
M  V30 2203 H 212.984 2.91784 -2.40147 0
M  V30 2204 H 213.297 5.55002 -5.37766 0
M  V30 2205 H 211.642 4.99612 -4.83128 0
M  V30 2206 H 214.833 3.56016 -3.03924 0
M  V30 2207 H 215.006 4.76061 -4.39624 0
M  V30 2208 N 208.412 0.89855 1.29475 0
M  V30 2209 C 209.64 0.539261 1.99749 0
M  V30 2210 C 210.055 -0.875716 1.67262 0
M  V30 2211 O 209.412 -1.57786 0.917049 0
M  V30 2212 C 209.463 0.72061 3.54245 0
M  V30 2213 O 209.184 2.07989 3.8558 0
M  V30 2214 C 210.685 0.366118 4.41786 0
M  V30 2215 H 207.905 0.207047 0.638258 0
M  V30 2216 H 210.449 1.20758 1.65039 0
M  V30 2217 H 208.604 0.0994862 3.87272 0
M  V30 2218 H 209.018 2.10841 4.80257 0
M  V30 2219 H 210.492 0.543848 5.49314 0
M  V30 2220 H 210.969 -0.696763 4.33638 0
M  V30 2221 H 211.575 0.964135 4.14228 0
M  V30 2222 N 209.89 -1.43072 0.660911 0
M  V30 2223 C 211.306 -1.56169 0.329173 0
M  V30 2224 C 211.506 -1.64317 -1.16629 0
M  V30 2225 O 210.562 -1.60245 -1.95135 0
M  V30 2226 C 211.875 -2.81873 1.04729 0
M  V30 2227 C 213.423 -2.95627 1.02828 0
M  V30 2228 C 213.898 -4.24174 1.72744 0
M  V30 2229 N 215.389 -4.31055 1.69545 0
M  V30 2230 C 216.124 -5.29304 2.20511 0
M  V30 2231 N 215.62 -6.33786 2.79799 0
M  V30 2232 N 217.413 -5.21008 2.10966 0
M  V30 2233 H 209.564 -1.36027 1.63127 0
M  V30 2234 H 211.827 -0.653823 0.686454 0
M  V30 2235 H 211.533 -2.81942 2.10242 0
M  V30 2236 H 211.407 -3.72338 0.603702 0
M  V30 2237 H 213.794 -2.95094 -0.0184742 0
M  V30 2238 H 213.875 -2.06431 1.51063 0
M  V30 2239 H 213.519 -4.25467 2.7738 0
M  V30 2240 H 213.449 -5.1228 1.2197 0
M  V30 2241 H 215.94 -3.56174 1.26288 0
M  V30 2242 H 216.253 -7.05086 3.16344 0
M  V30 2243 H 214.598 -6.34387 2.83863 0
M  V30 2244 H 217.789 -4.38301 1.64347 0
M  V30 2245 H 217.962 -5.97416 2.50993 0
M  V30 2246 N 211.368 -0.403325 -1.52352 0
M  V30 2247 C 212.593 0.176499 -2.06648 0
M  V30 2248 C 213.018 1.38577 -1.27193 0
M  V30 2249 O 212.376 1.7879 -0.300637 0
M  V30 2250 C 212.424 0.511061 -3.5696 0
M  V30 2251 O 211.528 1.60294 -3.79973 0
M  V30 2252 H 210.869 0.0167337 -0.663789 0
M  V30 2253 H 213.399 -0.574848 -1.96359 0
M  V30 2254 H 213.409 0.771362 -4.00642 0
M  V30 2255 H 212.084 -0.37296 -4.14224 0
M  V30 2256 H 210.661 1.33526 -3.48174 0
M  V30 2257 N 212.846 1.57033 -0.133567 0
M  V30 2258 C 214.092 1.96764 0.515326 0
M  V30 2259 C 214.447 1.01653 1.63353 0
M  V30 2260 O 213.74 0.0491374 1.91537 0
M  V30 2261 C 213.934 3.40674 1.08057 0
M  V30 2262 C 213.763 4.49696 0.0186522 0
M  V30 2263 C 212.533 5.03567 -0.418174 0
M  V30 2264 C 214.731 5.08536 -0.767809 0
M  V30 2265 N 212.713 5.9618 -1.46434 0
M  V30 2266 C 214.084 5.97231 -1.6648 0
M  V30 2267 C 216.139 4.9115 -0.817087 0
M  V30 2268 C 214.842 6.70401 -2.60681 0
M  V30 2269 C 216.868 5.65012 -1.74687 0
M  V30 2270 C 216.23 6.53403 -2.63141 0
M  V30 2271 H 212.329 0.765919 0.157771 0
M  V30 2272 H 214.913 1.93395 -0.22506 0
M  V30 2273 H 213.084 3.44662 1.79061 0
M  V30 2274 H 214.816 3.67495 1.69497 0
M  V30 2275 H 211.571 4.73594 -0.0229803 0
M  V30 2276 H 211.995 6.47191 -1.98678 0
M  V30 2277 H 216.637 4.22543 -0.147326 0
M  V30 2278 H 214.355 7.38245 -3.28664 0
M  V30 2279 H 217.941 5.53559 -1.79063 0
M  V30 2280 H 216.821 7.09556 -3.33917 0
M  V30 2281 N 214.325 -0.140222 1.56975 0
M  V30 2282 C 215.602 -0.880769 1.74648 0
M  V30 2283 C 215.982 -1.99036 0.703404 0
M  V30 2284 O 215.33 -2.26821 -0.27648 0
M  V30 2285 C 215.54 -1.417 3.18939 0
M  V30 2286 C 216.888 -1.87774 3.80823 0
M  V30 2287 O 217.912 -1.51427 3.2241 0
M  V30 2288 O 216.771 -2.54827 4.83452 0
M  V30 2289 H 213.865 -0.416713 0.714338 0
M  V30 2290 H 216.411 -0.125618 1.69234 0
M  V30 2291 H 215.183 -0.619902 3.86359 0
M  V30 2292 H 214.806 -2.23546 3.28805 0
M  V30 2293 N 215.803 -1.52179 -0.40978 0
M  V30 2294 C 216.753 -1.71857 -1.49831 0
M  V30 2295 C 217.737 -0.572469 -1.50372 0
M  V30 2296 O 218.929 -0.829509 -1.56359 0
M  V30 2297 C 216.058 -1.87206 -2.87765 0
M  V30 2298 C 215.144 -3.07685 -2.91875 0
M  V30 2299 N 215.535 -4.30403 -2.65683 0
M  V30 2300 C 213.833 -3.07505 -3.23043 0
M  V30 2301 C 214.534 -5.11868 -2.76344 0
M  V30 2302 N 213.51 -4.47101 -3.09195 0
M  V30 2303 H 217.312 -2.64381 -1.28375 0
M  V30 2304 H 214.826 -1.50203 -0.617479 0
M  V30 2305 H 216.823 -1.99419 -3.66111 0
M  V30 2306 H 215.483 -0.958814 -3.10221 0
M  V30 2307 H 216.494 -4.58887 -2.4009 0
M  V30 2308 H 213.171 -2.25915 -3.51096 0
M  V30 2309 H 214.561 -6.19634 -2.59814 0
M  V30 2310 N 217.281 0.66697 -1.42791 0
M  V30 2311 C 218.697 0.981027 -1.25889 0
M  V30 2312 C 218.897 2.00793 -0.168695 0
M  V30 2313 O 217.953 2.48321 0.45747 0
M  V30 2314 C 219.266 1.47838 -2.61848 0
M  V30 2315 C 220.814 1.59575 -2.69267 0
M  V30 2316 C 221.289 2.12704 -4.05612 0
M  V30 2317 N 222.78 2.20026 -4.07606 0
M  V30 2318 C 223.515 2.62227 -5.09926 0
M  V30 2319 N 223.011 3.03824 -6.22626 0
M  V30 2320 N 224.804 2.62045 -4.97281 0
M  V30 2321 H 216.955 -0.0127891 -2.12396 0
M  V30 2322 H 219.218 0.0568258 -0.946295 0
M  V30 2323 H 218.924 0.798299 -3.4252 0
M  V30 2324 H 218.798 2.45579 -2.86305 0
M  V30 2325 H 221.185 2.26687 -1.88936 0
M  V30 2326 H 221.266 0.60302 -2.48591 0
M  V30 2327 H 220.91 1.46198 -4.86404 0
M  V30 2328 H 220.84 3.12782 -4.23645 0
M  V30 2329 H 223.331 1.90708 -3.2625 0
M  V30 2330 H 223.644 3.34734 -6.96544 0
M  V30 2331 H 221.989 3.01662 -6.26119 0
M  V30 2332 H 225.18 2.28916 -4.08308 0
M  V30 2333 H 225.353 2.94613 -5.77154 0
M  V30 2334 N 218.759 1.29093 0.90403 0
M  V30 2335 C 219.706 1.13853 2.00764 0
M  V30 2336 C 220.676 0.0330084 1.66067 0
M  V30 2337 O 221.861 0.199733 1.89752 0
M  V30 2338 C 219.001 0.816537 3.35301 0
M  V30 2339 C 218.114 2.00206 3.82807 0
M  V30 2340 C 217.249 1.61983 5.059 0
M  V30 2341 C 216.288 2.77143 5.45764 0
M  V30 2342 N 215.425 2.39346 6.60044 0
M  V30 2343 H 220.265 2.08276 2.13132 0
M  V30 2344 H 217.802 1.03648 1.04381 0
M  V30 2345 H 219.76 0.610557 4.12708 0
M  V30 2346 H 218.39 -0.090779 3.22672 0
M  V30 2347 H 217.442 2.31988 3.01473 0
M  V30 2348 H 218.754 2.86512 4.08304 0
M  V30 2349 H 217.908 1.37649 5.90879 0
M  V30 2350 H 216.647 0.728202 4.82233 0
M  V30 2351 H 215.652 3.02165 4.59322 0
M  V30 2352 H 216.877 3.66964 5.71414 0
M  V30 2353 H 214.823 1.52665 6.37989 0
M  V30 2354 H 214.74 3.19185 6.85315 0
M  V30 2355 H 216.008 2.1832 7.48303 0
M  V30 2356 N 220.237 -1.11381 1.11499 0
M  V30 2357 C 221.167 -2.19509 0.796125 0
M  V30 2358 C 222.148 -1.68458 -0.235796 0
M  V30 2359 O 223.333 -1.93947 -0.0991344 0
M  V30 2360 C 220.463 -3.46475 0.239205 0
M  V30 2361 C 219.417 -4.10744 1.20307 0
M  V30 2362 C 218.743 -5.32293 0.50683 0
M  V30 2363 C 220.043 -4.55597 2.55399 0
M  V30 2364 H 221.737 -2.46439 1.70024 0
M  V30 2365 H 219.283 -1.18446 0.818935 0
M  V30 2366 H 221.236 -4.214 0.00392006 0
M  V30 2367 H 219.96 -3.19006 -0.700206 0
M  V30 2368 H 218.619 -3.37813 1.42399 0
M  V30 2369 H 218.267 -5.01095 -0.437408 0
M  V30 2370 H 217.967 -5.76243 1.1497 0
M  V30 2371 H 219.491 -6.09956 0.280351 0
M  V30 2372 H 220.905 -5.21841 2.37391 0
M  V30 2373 H 219.302 -5.10363 3.15673 0
M  V30 2374 H 220.372 -3.69013 3.14575 0
M  V30 2375 N 221.715 -0.905404 -1.28997 0
M  V30 2376 C 222.963 -0.533192 -1.9494 0
M  V30 2377 C 223.284 0.924618 -1.71685 0
M  V30 2378 O 222.554 1.65268 -1.05183 0
M  V30 2379 H 221.134 -0.194194 -0.721317 0
M  V30 2380 H 223.796 -1.15294 -1.57141 0
M  V30 2381 H 222.892 -0.72059 -3.03667 0
M  V30 2382 N 223.193 1.4272 -0.668489 0
M  V30 2383 C 224.123 2.335 -0.000100175 0
M  V30 2384 C 225.104 1.50328 0.795964 0
M  V30 2385 O 226.289 1.78949 0.754385 0
M  V30 2386 C 223.419 3.33874 0.956302 0
M  V30 2387 C 222.373 4.27152 0.269278 0
M  V30 2388 C 221.699 5.17684 1.33818 0
M  V30 2389 C 222.999 5.15373 -0.847805 0
M  V30 2390 H 224.693 2.89639 -0.758244 0
M  V30 2391 H 222.239 1.39269 -0.366079 0
M  V30 2392 H 224.192 3.9629 1.43292 0
M  V30 2393 H 222.916 2.76025 1.74579 0
M  V30 2394 H 221.575 3.66123 -0.187042 0
M  V30 2395 H 221.223 4.56165 2.1195 0
M  V30 2396 H 220.923 5.80918 0.883659 0
M  V30 2397 H 222.447 5.82974 1.81586 0
M  V30 2398 H 223.861 5.7151 -0.452681 0
M  V30 2399 H 222.258 5.87407 -1.22773 0
M  V30 2400 H 223.328 4.5415 -1.69929 0
M  V30 2401 N 224.671 0.411399 1.52136 0
M  V30 2402 C 226.082 -0.0576826 1.86611 0
M  V30 2403 C 226.433 -1.44238 1.33003 0
M  V30 2404 O 225.558 -2.05759 0.670228 0
M  V30 2405 C 226.153 -0.111448 3.38617 0
M  V30 2406 C 224.712 -0.52487 3.72723 0
M  V30 2407 C 223.859 0.299176 2.75681 0
M  V30 2408 H 226.81 0.628368 1.4573 0
M  V30 2409 H 226.831 -0.926252 3.69054 0
M  V30 2410 H 226.343 0.896488 3.77604 0
M  V30 2411 H 224.444 -1.53936 3.39315 0
M  V30 2412 H 224.557 -0.267681 4.78352 0
M  V30 2413 H 222.921 -0.238814 2.53578 0
M  V30 2414 H 223.704 1.3055 3.17508 0
M  V30 2415 N 226.149 -1.5696 0.141893 0
M  V30 2416 C 227.099 -2.13074 -0.811383 0
M  V30 2417 C 228.083 -1.05726 -1.21288 0
M  V30 2418 O 229.275 -1.31914 -1.18015 0
M  V30 2419 C 226.404 -2.75186 -2.0525 0
M  V30 2420 C 225.49 -3.8965 -1.67432 0
M  V30 2421 N 225.881 -4.95733 -1.0041 0
M  V30 2422 C 224.179 -4.00262 -1.96739 0
M  V30 2423 C 224.88 -5.75858 -0.822345 0
M  V30 2424 N 223.856 -5.26452 -1.3546 0
M  V30 2425 H 227.658 -2.92465 -0.290031 0
M  V30 2426 H 225.172 -1.6229 -0.0598218 0
M  V30 2427 H 227.169 -3.13745 -2.74535 0
M  V30 2428 H 225.829 -1.97266 -2.57907 0
M  V30 2429 H 226.84 -5.13607 -0.665441 0
M  V30 2430 H 223.517 -3.33412 -2.51282 0
M  V30 2431 H 224.907 -6.71254 -0.294496 0
M  V30 2432 N 227.627 0.131896 -1.57047 0
M  V30 2433 C 228.56 1.19236 -1.94571 0
M  V30 2434 C 229.538 1.40782 -0.813576 0
M  V30 2435 O 230.722 1.55148 -1.07058 0
M  V30 2436 C 227.849 2.54858 -2.23081 0
M  V30 2437 C 226.895 2.49817 -3.45679 0
M  V30 2438 S 227.728 1.95036 -4.98719 0
M  V30 2439 C 228.884 3.32357 -5.30367 0
M  V30 2440 H 229.117 0.872297 -2.84215 0
M  V30 2441 H 226.65 0.338134 -1.50652 0
M  V30 2442 H 228.608 3.32898 -2.40185 0
M  V30 2443 H 227.269 2.84047 -1.34074 0
M  V30 2444 H 226.462 3.49688 -3.62952 0
M  V30 2445 H 226.064 1.79892 -3.27895 0
M  V30 2446 H 228.356 4.28525 -5.2476 0
M  V30 2447 H 229.299 3.19923 -6.31708 0
M  V30 2448 H 229.707 3.3019 -4.57859 0
M  V30 2449 N 229.106 1.52395 0.401703 0
M  V30 2450 C 230.331 1.70972 1.17403 0
M  V30 2451 C 230.756 0.421615 1.83314 0
M  V30 2452 O 230.114 -0.621564 1.70312 0
M  V30 2453 C 230.162 2.85151 2.20728 0
M  V30 2454 O 229.266 2.51238 3.27037 0
M  V30 2455 H 228.607 0.568927 0.342372 0
M  V30 2456 H 231.137 1.99131 0.469891 0
M  V30 2457 H 231.147 3.10279 2.64936 0
M  V30 2458 H 229.822 3.78603 1.7214 0
M  V30 2459 H 228.399 2.36808 2.88057 0
M  V30 2460 N 230.584 -0.659388 1.43143 0
M  V30 2461 C 231.83 -1.42145 1.44647 0
M  V30 2462 C 232.163 -1.9408 0.0681907 0
M  V30 2463 O 231.438 -1.71899 -0.910007 0
M  V30 2464 C 231.721 -2.60735 2.48373 0
M  V30 2465 C 231.574 -2.14332 3.95451 0
M  V30 2466 C 232.893 -3.62951 2.48906 0
M  V30 2467 H 230.012 -0.51552 0.526696 0
M  V30 2468 H 232.654 -0.748069 1.74654 0
M  V30 2469 H 230.804 -3.18184 2.22916 0
M  V30 2470 H 232.476 -1.61932 4.31944 0
M  V30 2471 H 230.719 -1.4576 4.08578 0
M  V30 2472 H 231.39 -2.99583 4.63631 0
M  V30 2473 H 233.866 -3.1525 2.71582 0
M  V30 2474 H 232.742 -4.43487 3.23435 0
M  V30 2475 H 233.003 -4.15126 1.52061 0
M  V30 2476 N 232.062 -1.29571 -0.897171 0
M  V30 2477 C 233.31 -1.17456 -1.64464 0
M  V30 2478 C 233.631 0.273698 -1.9307 0
M  V30 2479 O 232.901 1.18684 -1.55855 0
M  V30 2480 H 231.481 -0.431706 -0.609622 0
M  V30 2481 H 234.143 -1.62531 -1.07562 0
M  V30 2482 H 233.239 -1.72648 -2.59998 0
M  V30 2483 N 233.54 1.10788 -1.12088 0
M  V30 2484 C 234.788 1.8231 -0.872205 0
M  V30 2485 C 235.109 1.85419 0.603709 0
M  V30 2486 O 234.379 1.32963 1.43867 0
M  V30 2487 H 232.959 0.675137 -0.319686 0
M  V30 2488 H 235.621 1.34068 -1.41463 0
M  V30 2489 H 234.717 2.85955 -1.25045 0
M  V30 2490 N 235.018 0.912232 1.28515 0
M  V30 2491 C 236.243 0.559774 1.99703 0
M  V30 2492 C 236.668 -0.851393 1.67729 0
M  V30 2493 O 236.026 -1.56875 0.908834 0
M  V30 2494 C 236.074 0.773874 3.52198 0
M  V30 2495 O 235.178 -0.167842 4.12058 0
M  V30 2496 H 234.519 0.21723 0.627461 0
M  V30 2497 H 237.049 1.22725 1.63706 0
M  V30 2498 H 237.059 0.683386 4.02236 0
M  V30 2499 H 235.734 1.80261 3.74805 0
M  V30 2500 H 234.311 -0.0287509 3.72889 0
M  V30 2501 N 236.496 -1.42363 0.676048 0
M  V30 2502 C 237.724 -2.05859 0.207268 0
M  V30 2503 C 238.139 -1.50796 -1.13605 0
M  V30 2504 O 237.496 -0.648265 -1.70598 0
M  V30 2505 C 237.547 -3.61248 0.134975 0
M  V30 2506 O 237.268 -4.1427 1.42521 0
M  V30 2507 C 238.769 -4.41859 -0.357151 0
M  V30 2508 H 235.989 -0.663431 0.100503 0
M  V30 2509 H 238.533 -1.82479 0.923136 0
M  V30 2510 H 236.688 -3.83735 -0.531588 0
M  V30 2511 H 237.102 -5.0815 1.29939 0
M  V30 2512 H 238.576 -5.50847 -0.356641 0
M  V30 2513 H 239.053 -4.16536 -1.39264 0
M  V30 2514 H 239.659 -4.24392 0.27772 0
M  V30 2515 N 237.974 -0.419461 -1.51915 0
M  V30 2516 C 238.937 0.389116 -2.25873 0
M  V30 2517 C 239.937 0.964924 -1.28631 0
M  V30 2518 O 241.127 0.842179 -1.52489 0
M  V30 2519 C 238.259 1.54874 -3.03689 0
M  V30 2520 H 239.452 -0.258799 -2.98781 0
M  V30 2521 H 237.005 -0.172209 -1.55348 0
M  V30 2522 H 237.74 2.23323 -2.35154 0
M  V30 2523 H 237.525 1.14223 -3.75094 0
M  V30 2524 H 239.015 2.12046 -3.59759 0
M  V30 2525 N 239.452 1.56882 -0.150215 0
M  V30 2526 C 240.863 1.82995 0.370076 0
M  V30 2527 C 241.214 1.06907 1.64515 0
M  V30 2528 O 240.339 0.315369 2.1409 0
M  V30 2529 C 240.934 3.31942 0.678208 0
M  V30 2530 C 239.493 3.58625 1.14301 0
M  V30 2531 C 238.64 2.76792 0.167778 0
M  V30 2532 H 241.591 1.54209 -0.374858 0
M  V30 2533 H 241.612 3.48272 1.53254 0
M  V30 2534 H 241.124 3.87294 -0.249991 0
M  V30 2535 H 239.225 3.08664 2.08704 0
M  V30 2536 H 239.338 4.67073 1.06676 0
M  V30 2537 H 237.702 2.45972 0.661037 0
M  V30 2538 H 238.485 3.34916 -0.754069 0
M  V30 2539 O 240.969 0.011717 1.61496 0
M  V30 2540 H 241.66 -0.603327 1.84064 0
M  V30 END ATOM
M  V30 BEGIN BOND
M  V30 END BOND
M  V30 END CTAB
M  END
$$$$
