drugbank_target|O60494 Cubilin (DB00200)
 OpenBabel12092119433D

  0  0  0     0  0            999 V3000
M  V30 BEGIN CTAB
M  V30 COUNTS 54378 55161 0 0 0
M  V30 BEGIN ATOM
M  V30 1 H -0.908 1.98254 -0.117106 0
M  V30 2 N 0 1.576 0 0
M  V30 3 C 0.933 2.03868 1.02534 0
M  V30 4 C 1.911 0.928543 1.3348 0
M  V30 5 O 3.095 1.19667 1.45644 0
M  V30 6 C 0.222 2.43627 2.35294 0
M  V30 7 C -0.732 3.65373 2.2001 0
M  V30 8 S 0.101 5.13292 1.52614 0
M  V30 9 C 1.257 5.56322 2.86805 0
M  V30 10 H 1.49 2.90518 0.631377 0
M  V30 11 H -0.977 1.52953 0.210867 0
M  V30 12 H 0.981 2.67203 3.11629 0
M  V30 13 H -0.358 1.57376 2.7183 0
M  V30 14 H -1.165 3.90944 3.18086 0
M  V30 15 H -1.563 3.418 1.51819 0
M  V30 16 H 0.729 5.58782 3.83104 0
M  V30 17 H 1.672 6.56266 2.65933 0
M  V30 18 H 2.08 4.83886 2.90714 0
M  V30 19 N 1.4781 -0.272755 1.55222 0
M  V30 20 C 2.4111 -1.3627 1.83046 0
M  V30 21 C 3.3891 -1.47536 0.683521 0
M  V30 22 O 4.5731 -1.64157 0.926545 0
M  V30 23 C 1.7001 -2.73908 1.99229 0
M  V30 24 C 0.7461 -2.79925 3.21783 0
M  V30 25 S 1.5791 -2.39146 4.79134 0
M  V30 26 C 2.7351 -3.78758 4.9829 0
M  V30 27 H 2.9681 -1.12464 2.75207 0
M  V30 28 H 0.5011 -0.472398 1.46996 0
M  V30 29 H 2.4591 -3.53171 2.09238 0
M  V30 30 H 1.1201 -2.94965 1.07956 0
M  V30 31 H 0.3131 -3.80946 3.29994 0
M  V30 32 H -0.0849 -2.08683 3.10367 0
M  V30 33 H 2.2071 -4.7403 4.84047 0
M  V30 34 H 3.1501 -3.75499 6.00338 0
M  V30 35 H 3.5581 -3.70072 4.26271 0
M  V30 36 N 2.9562 -1.48159 -0.537278 0
M  V30 37 C 3.9042 -1.62573 -1.66352 0
M  V30 38 C 4.8982 -0.492366 -1.62087 0
M  V30 39 O 6.1042 -0.670847 -1.67032 0
M  V30 40 H 2.4792 -0.511992 -0.550789 0
M  V30 41 H 4.4502 -2.57176 -1.51337 0
M  V30 42 C 3.1992 -1.67583 -3.04649 0
M  V30 43 H 2.5222 -2.54151 -3.08622 0
M  V30 44 H 3.9622 -1.81713 -3.83088 0
M  V30 45 C 2.4212 -0.413039 -3.34358 0
M  V30 46 O 2.9512 0.477259 -3.98855 0
M  V30 47 N 1.1572 -0.286961 -2.8918 0
M  V30 48 H 0.7042 -1.01241 -2.36871 0
M  V30 49 H 0.6622 0.556963 -3.09427 0
M  V30 50 N 4.4343 0.785586 -1.36625 0
M  V30 51 C 5.3673 1.90509 -1.25625 0
M  V30 52 C 6.3453 1.62 -0.139607 0
M  V30 53 O 7.5293 1.8591 -0.31141 0
M  V30 54 C 4.6563 3.25419 -0.939158 0
M  V30 55 C 3.7023 3.72856 -2.07077 0
M  V30 56 S 4.5353 3.88162 -3.68904 0
M  V30 57 C 5.6913 5.25942 -3.39317 0
M  V30 58 H 5.9243 1.99549 -2.20381 0
M  V30 59 H 3.4573 0.945226 -1.22085 0
M  V30 60 H 5.4153 4.03346 -0.763029 0
M  V30 61 H 4.0763 3.14099 -0.00931402 0
M  V30 62 H 3.2693 4.70624 -1.80357 0
M  V30 63 H 2.8713 3.01989 -2.20632 0
M  V30 64 H 5.1633 6.10651 -2.93447 0
M  V30 65 H 6.1063 5.57668 -4.36363 0
M  V30 66 H 6.5143 4.93224 -2.74573 0
M  V30 67 N 5.9124 1.20967 1.01018 0
M  V30 68 C 7.1374 1.0503 1.78839 0
M  V30 69 C 7.5624 -0.395752 1.8389 0
M  V30 70 O 6.9204 -1.28529 1.27867 0
M  V30 71 C 6.9684 1.64602 3.2084 0
M  V30 72 O 6.0724 0.887988 4.02726 0
M  V30 73 H 5.4134 0.369987 0.551367 0
M  V30 74 H 7.9434 1.60399 1.27018 0
M  V30 75 H 7.9534 1.68607 3.71532 0
M  V30 76 H 6.6284 2.69841 3.16479 0
M  V30 77 H 5.2054 0.922648 3.61305 0
M  V30 78 N 7.3905 -1.2043 1.01659 0
M  V30 79 C 8.3205 -2.25466 0.607226 0
M  V30 80 C 9.3015 -1.65853 -0.377716 0
M  V30 81 O 10.4865 -1.92409 -0.263149 0
M  V30 82 C 7.6165 -3.47256 -0.0552949 0
M  V30 83 C 6.5705 -4.19462 0.850632 0
M  V30 84 C 5.8965 -5.34673 0.0538859 0
M  V30 85 C 7.1965 -4.75603 2.15868 0
M  V30 86 H 8.8905 -2.59962 1.48526 0
M  V30 87 H 6.4365 -1.2496 0.715605 0
M  V30 88 H 8.3895 -4.19917 -0.353233 0
M  V30 89 H 7.1135 -3.11924 -0.968045 0
M  V30 90 H 5.7725 -3.48667 1.13257 0
M  V30 91 H 5.4205 -4.95585 -0.860514 0
M  V30 92 H 5.1205 -5.83913 0.657192 0
M  V30 93 H 6.6445 -6.10138 -0.237598 0
M  V30 94 H 8.0585 -5.40083 1.92311 0
M  V30 95 H 6.4555 -5.3528 2.71284 0
M  V30 96 H 7.5255 -3.94346 2.82169 0
M  V30 97 N 8.8686 -0.792821 -1.36206 0
M  V30 98 C 10.2796 -0.429513 -1.81692 0
M  V30 99 C 10.6306 1.04695 -1.65932 0
M  V30 100 O 9.7556 1.81256 -1.18218 0
M  V30 101 C 10.3506 -0.772831 -3.29868 0
M  V30 102 C 8.9096 -0.462307 -3.7355 0
M  V30 103 C 8.0566 -1.00569 -2.5842 0
M  V30 104 H 11.0076 -0.985672 -1.24379 0
M  V30 105 H 11.0286 -0.0651928 -3.80444 0
M  V30 106 H 10.5406 -1.84747 -3.41307 0
M  V30 107 H 8.6416 0.604158 -3.67669 0
M  V30 108 H 8.7546 -0.985299 -4.68859 0
M  V30 109 H 7.1186 -0.428734 -2.51066 0
M  V30 110 H 7.9016 -2.08616 -2.72643 0
M  V30 111 N 10.3467 1.47872 -0.545128 0
M  V30 112 C 11.5937 2.02493 -0.0165858 0
M  V30 113 C 11.9217 1.42073 1.32836 0
M  V30 114 O 11.1767 0.561459 1.87473 0
M  V30 115 C 11.4757 3.57131 0.13867 0
M  V30 116 C 11.1417 4.36411 -1.13384 0
M  V30 117 C 9.8037 4.57792 -1.48256 0
M  V30 118 C 12.1557 4.82223 -1.97764 0
M  V30 119 C 9.4837 5.22233 -2.67376 0
M  V30 120 C 11.8357 5.47977 -3.16076 0
M  V30 121 C 10.4997 5.67593 -3.51275 0
M  V30 122 H 9.7697 0.740975 -0.00606918 0
M  V30 123 H 12.4167 1.77683 -0.714207 0
M  V30 124 H 10.7217 3.80865 0.919172 0
M  V30 125 H 12.4187 3.97031 0.562782 0
M  V30 126 H 9.0087 4.2004 -0.852297 0
M  V30 127 H 13.1927 4.65493 -1.72132 0
M  V30 128 H 8.4487 5.35616 -2.94831 0
M  V30 129 H 12.6227 5.8244 -3.81755 0
M  V30 130 H 10.2497 6.17298 -4.43675 0
M  V30 131 N 11.8248 0.280983 1.55075 0
M  V30 132 C 12.7548 -0.597469 2.25727 0
M  V30 133 C 13.7358 -1.15417 1.24952 0
M  V30 134 O 14.9208 -1.18722 1.53684 0
M  V30 135 C 12.0508 -1.7789 2.98283 0
M  V30 136 C 11.0048 -1.35347 4.06036 0
M  V30 137 C 10.3308 -2.61846 4.66198 0
M  V30 138 C 11.6308 -0.499354 5.19907 0
M  V30 139 H 13.3248 -0.00824265 2.99399 0
M  V30 140 H 10.8708 -0.0025244 1.44 0
M  V30 141 H 12.8238 -2.39937 3.46422 0
M  V30 142 H 11.5478 -2.39405 2.22155 0
M  V30 143 H 10.2068 -0.756156 3.58717 0
M  V30 144 H 9.8548 -3.21632 3.86732 0
M  V30 145 H 9.5548 -2.3409 5.38958 0
M  V30 146 H 11.0788 -3.24732 5.1709 0
M  V30 147 H 12.4928 -1.02498 5.64063 0
M  V30 148 H 10.8898 -0.316424 5.99265 0
M  V30 149 H 11.9598 0.480459 4.82514 0
M  V30 150 N 13.3029 -1.57598 0.00835791 0
M  V30 151 C 14.5489 -1.92046 -0.670055 0
M  V30 152 C 14.9039 -0.88351 -1.70915 0
M  V30 153 O 14.1969 0.103223 -1.91322 0
M  V30 154 C 14.3909 -3.3101 -1.34787 0
M  V30 155 C 14.2199 -4.48126 -0.375945 0
M  V30 156 C 12.9899 -5.05297 0.0166914 0
M  V30 157 C 15.1879 -5.1303 0.361272 0
M  V30 158 N 13.1699 -6.05931 0.985952 0
M  V30 159 C 14.5409 -6.08571 1.18495 0
M  V30 160 C 16.5959 -4.9609 0.42421 0
M  V30 161 C 15.2989 -6.88996 2.06584 0
M  V30 162 C 17.3249 -5.77107 1.29236 0
M  V30 163 C 16.6869 -6.72248 2.10386 0
M  V30 164 H 12.7859 -0.75096 -0.218136 0
M  V30 165 H 15.3699 -1.94572 0.0706669 0
M  V30 166 H 13.5409 -3.29342 -2.05884 0
M  V30 167 H 15.2729 -3.52864 -1.98164 0
M  V30 168 H 12.0279 -4.72279 -0.353435 0
M  V30 169 H 12.4519 -6.60932 1.4662 0
M  V30 170 H 17.0939 -4.22378 -0.188915 0
M  V30 171 H 14.8119 -7.62028 2.6896 0
M  V30 172 H 18.3979 -5.66038 1.34508 0
M  V30 173 H 17.2779 -7.33846 2.76476 0
M  V30 174 N 14.781 0.264519 -1.55364 0
M  V30 175 C 16.006 1.01726 -1.80739 0
M  V30 176 C 16.431 1.78836 -0.583044 0
M  V30 177 O 15.789 1.75167 0.467566 0
M  V30 178 C 15.837 1.94482 -3.03659 0
M  V30 179 O 14.941 3.03386 -2.7934 0
M  V30 180 H 14.282 0.290395 -0.597132 0
M  V30 181 H 16.812 0.290854 -2.02522 0
M  V30 182 H 16.822 2.36278 -3.32621 0
M  V30 183 H 15.497 1.37772 -3.92418 0
M  V30 184 H 14.074 2.65844 -2.61498 0
M  V30 185 N 16.2591 1.48442 0.529413 0
M  V30 186 C 17.1891 1.65902 1.64313 0
M  V30 187 C 18.1701 0.507897 1.6234 0
M  V30 188 O 19.3551 0.740503 1.79528 0
M  V30 189 C 16.4851 1.69911 3.02898 0
M  V30 190 C 15.4391 2.8453 3.19729 0
M  V30 191 C 14.7651 2.73629 4.59381 0
M  V30 192 C 16.0651 4.25821 3.02447 0
M  V30 193 H 17.7591 2.5914 1.49955 0
M  V30 194 H 15.3051 1.24709 0.719982 0
M  V30 195 H 17.2581 1.80715 3.80684 0
M  V30 196 H 15.9821 0.732524 3.18279 0
M  V30 197 H 14.6411 2.73283 2.44361 0
M  V30 198 H 14.2891 1.74938 4.71599 0
M  V30 199 H 13.9891 3.50541 4.71588 0
M  V30 200 H 15.5131 2.86401 5.39265 0
M  V30 201 H 16.9271 4.37898 3.70024 0
M  V30 202 H 15.3241 5.03735 3.26146 0
M  V30 203 H 16.3941 4.42244 1.98867 0
M  V30 204 N 17.7372 -0.778329 1.37039 0
M  V30 205 C 18.6672 -1.90546 1.34962 0
M  V30 206 C 19.6482 -1.68681 0.219274 0
M  V30 207 O 20.8332 -1.89634 0.418624 0
M  V30 208 C 17.9632 -3.27734 1.14925 0
M  V30 209 C 16.9172 -3.64147 2.24902 0
M  V30 210 C 16.2432 -4.99806 1.89996 0
M  V30 211 C 17.5432 -3.71579 3.67051 0
M  V30 212 H 19.2372 -1.92541 2.29277 0
M  V30 213 H 16.7832 -0.924948 1.10366 0
M  V30 214 H 18.7362 -4.06215 1.12104 0
M  V30 215 H 17.4602 -3.26154 0.170631 0
M  V30 216 H 16.1192 -2.8797 2.26868 0
M  V30 217 H 15.7672 -4.94759 0.906796 0
M  V30 218 H 15.4672 -5.25139 2.63634 0
M  V30 219 H 16.9912 -5.80694 1.88749 0
M  V30 220 H 18.4052 -4.40227 3.67251 0
M  V30 221 H 16.8022 -4.08405 4.39688 0
M  V30 222 H 17.8722 -2.72404 4.01154 0
M  V30 223 N 19.2153 -1.21501 -1.00376 0
M  V30 224 C 20.4433 -1.059 -1.77744 0
M  V30 225 C 20.8583 0.391125 -1.84704 0
M  V30 226 O 20.2153 1.27133 -1.30933 0
M  V30 227 C 20.2663 -1.65111 -3.21591 0
M  V30 228 O 19.9873 -3.0445 -3.15027 0
M  V30 229 C 21.4883 -1.54637 -4.15454 0
M  V30 230 H 18.7083 -0.371825 -0.558558 0
M  V30 231 H 21.2523 -1.60865 -1.26264 0
M  V30 232 H 19.4073 -1.14235 -3.70175 0
M  V30 233 H 19.8213 -3.3278 -4.0541 0
M  V30 234 H 21.2953 -2.00808 -5.14179 0
M  V30 235 H 21.7723 -0.501022 -4.36333 0
M  V30 236 H 22.3783 -2.04767 -3.72761 0
M  V30 237 N 20.6934 1.19889 -1.02296 0
M  V30 238 C 21.6234 2.25141 -0.619174 0
M  V30 239 C 22.6044 1.66051 0.368915 0
M  V30 240 O 23.7894 1.92546 0.252941 0
M  V30 241 C 20.9194 3.4728 0.0368783 0
M  V30 242 C 19.8734 4.19005 -0.872865 0
M  V30 243 C 19.1994 5.34637 -0.0822402 0
M  V30 244 C 20.4994 4.74452 -2.18387 0
M  V30 245 H 22.1934 2.59171 -1.49903 0
M  V30 246 H 19.7394 1.24579 -0.722222 0
M  V30 247 H 21.6924 4.20098 0.330958 0
M  V30 248 H 20.4164 3.12433 0.95149 0
M  V30 249 H 19.0754 3.48061 -1.15105 0
M  V30 250 H 18.7234 4.96034 0.83422 0
M  V30 251 H 18.4234 5.83557 -0.688149 0
M  V30 252 H 19.9474 6.10255 0.205238 0
M  V30 253 H 21.3614 5.39055 -1.95172 0
M  V30 254 H 19.7584 5.33834 -2.74119 0
M  V30 255 H 20.8284 3.92844 -2.84257 0
M  V30 256 N 22.1715 0.800033 1.35784 0
M  V30 257 C 23.1015 0.220184 2.3246 0
M  V30 258 C 24.0825 -0.65073 1.57161 0
M  V30 259 O 25.2675 -0.582359 1.85263 0
M  V30 260 C 22.3975 -0.637353 3.41402 0
M  V30 261 C 21.3515 0.134531 4.27789 0
M  V30 262 C 20.6775 -0.844285 5.27992 0
M  V30 263 C 21.9775 1.32979 5.05088 0
M  V30 264 H 23.6715 1.02787 2.81203 0
M  V30 265 H 21.2175 0.495717 1.35199 0
M  V30 266 H 23.1705 -1.05302 4.08031 0
M  V30 267 H 21.8945 -1.47785 2.91251 0
M  V30 268 H 20.5535 0.531296 3.6273 0
M  V30 269 H 20.2015 -1.68011 4.74111 0
M  V30 270 H 19.9015 -0.332184 5.8666 0
M  V30 271 H 21.4255 -1.2583 5.97494 0
M  V30 272 H 22.8395 0.98934 5.64699 0
M  V30 273 H 21.2365 1.77593 5.7322 0
M  V30 274 H 22.3065 2.11978 4.36111 0
M  V30 275 N 23.6496 -1.47581 0.552962 0
M  V30 276 C 24.8986 -2.01684 0.0251995 0
M  V30 277 C 25.2116 -1.43317 -1.33115 0
M  V30 278 O 26.4176 -1.89057 -1.94858 0
M  V30 279 C 24.8736 -3.599 -0.00542052 0
M  V30 280 C 24.4816 -4.27257 1.34742 0
M  V30 281 C 26.2256 -4.21768 -0.4808 0
M  V30 282 C 24.1326 -5.77467 1.27614 0
M  V30 283 H 23.0626 -0.753979 0.00565033 0
M  V30 284 H 25.7136 -1.69616 0.70018 0
M  V30 285 H 24.0956 -3.88911 -0.745961 0
M  V30 286 H 25.2696 -4.09893 2.10534 0
M  V30 287 H 23.5846 -3.77358 1.76039 0
M  V30 288 H 26.1816 -5.31838 -0.55246 0
M  V30 289 H 26.5246 -3.88651 -1.49184 0
M  V30 290 H 27.0576 -3.97273 0.204752 0
M  V30 291 H 23.7966 -6.15196 2.26304 0
M  V30 292 H 23.3166 -5.9718 0.55996 0
M  V30 293 H 24.9956 -6.3959 0.976421 0
M  V30 294 N 25.1277 -0.289203 -1.54924 0
M  V30 295 C 26.3747 0.323519 -1.99899 0
M  V30 296 C 26.7027 1.54797 -1.17762 0
M  V30 297 O 25.9577 1.94237 -0.238835 0
M  V30 298 C 26.2567 0.736119 -3.49737 0
M  V30 299 C 25.9227 -0.385276 -4.49251 0
M  V30 300 C 24.5847 -0.693156 -4.76181 0
M  V30 301 C 26.9367 -1.14021 -5.08575 0
M  V30 302 C 24.2647 -1.7593 -5.59701 0
M  V30 303 C 26.6167 -2.19619 -5.93254 0
M  V30 304 C 25.2807 -2.51026 -6.185 0
M  V30 305 H 24.5507 0.118384 -0.731482 0
M  V30 306 H 27.1977 -0.405847 -1.8715 0
M  V30 307 H 25.5027 1.54539 -3.60035 0
M  V30 308 H 27.1997 1.22118 -3.81953 0
M  V30 309 H 23.7897 -0.135202 -4.28387 0
M  V30 310 H 27.9737 -0.915611 -4.87781 0
M  V30 311 H 23.2297 -2.0075 -5.77503 0
M  V30 312 H 27.4037 -2.78581 -6.38252 0
M  V30 313 H 25.0307 -3.33772 -6.83008 0
M  V30 314 N 26.6058 1.57591 -0.0167156 0
M  V30 315 C 27.5688 2.08393 0.954204 0
M  V30 316 C 28.5688 0.996531 1.26198 0
M  V30 317 O 29.7588 1.25858 1.20438 0
M  V30 318 C 26.8908 2.5394 2.27436 0
M  V30 319 H 28.0838 2.95455 0.514451 0
M  V30 320 H 25.6368 1.54582 0.231089 0
M  V30 321 H 26.3718 1.70171 2.76066 0
M  V30 322 H 26.1568 3.33371 2.06412 0
M  V30 323 H 27.6468 2.93512 2.97053 0
M  V30 324 N 28.0839 -0.256276 1.55502 0
M  V30 325 C 28.9939 -1.33882 1.92647 0
M  V30 326 C 30.0099 -1.53159 0.825727 0
M  V30 327 O 31.1859 -1.66963 1.12629 0
M  V30 328 C 28.2509 -2.6751 2.20543 0
M  V30 329 C 27.3119 -2.56836 3.43997 0
M  V30 330 C 26.5449 -3.84092 3.70553 0
M  V30 331 O 26.7679 -4.85545 2.99336 0
M  V30 332 O 25.7019 -3.83288 4.64084 0
M  V30 333 H 29.5279 -1.05374 2.84833 0
M  V30 334 H 27.1129 -0.456237 1.42263 0
M  V30 335 H 28.9949 -3.46492 2.39835 0
M  V30 336 H 27.6699 -2.9577 1.31536 0
M  V30 337 H 26.5769 -1.76172 3.30021 0
M  V30 338 H 27.9099 -2.33523 4.33275 0
M  V30 339 N 29.562 -1.4872 -0.521534 0
M  V30 340 C 30.808 -1.574 -1.27879 0
M  V30 341 C 31.141 -0.250817 -1.92573 0
M  V30 342 O 30.416 0.743934 -1.79711 0
M  V30 343 C 30.699 -2.71843 -2.36164 0
M  V30 344 C 30.552 -4.13893 -1.76105 0
M  V30 345 C 31.871 -2.82008 -3.37875 0
M  V30 346 H 28.99 -0.572941 -0.463581 0
M  V30 347 H 31.632 -1.80927 -0.580119 0
M  V30 348 H 29.782 -2.51914 -2.95756 0
M  V30 349 H 31.454 -4.45284 -1.20499 0
M  V30 350 H 29.697 -4.20498 -1.06601 0
M  V30 351 H 30.368 -4.89804 -2.5455 0
M  V30 352 H 32.844 -3.00086 -2.88249 0
M  V30 353 H 31.72 -3.63796 -4.11028 0
M  V30 354 H 31.981 -1.90511 -3.98946 0
M  V30 355 N 31.0401 0.771051 -1.3745 0
M  V30 356 C 31.9881 1.90574 -1.33358 0
M  V30 357 C 32.9821 1.67936 -0.22224 0
M  V30 358 O 34.1881 1.75717 -0.390304 0
M  V30 359 H 30.5631 0.626714 -0.415612 0
M  V30 360 H 32.5341 1.91142 -2.29144 0
M  V30 361 C 31.2831 3.27845 -1.15813 0
M  V30 362 H 30.6061 3.45842 -2.00583 0
M  V30 363 H 32.0461 4.07538 -1.17 0
M  V30 364 C 30.5051 3.36625 0.136165 0
M  V30 365 O 31.0351 3.85785 1.11949 0
M  V30 366 N 29.2411 2.89997 0.187099 0
M  V30 367 H 28.7881 2.50182 -0.613753 0
M  V30 368 H 28.7461 2.96252 1.05272 0
M  V30 369 N 32.5182 1.22032 0.997298 0
M  V30 370 C 33.7662 1.04016 1.73278 0
M  V30 371 C 34.0872 -0.426255 1.90284 0
M  V30 372 O 33.3572 -1.30694 1.45931 0
M  V30 373 H 31.9372 0.381897 0.642 0
M  V30 374 H 34.5992 1.5347 1.20137 0
M  V30 375 H 33.6952 1.51441 2.72896 0
M  V30 376 N 33.9963 -1.19345 1.0293 0
M  V30 377 C 34.9063 -2.26245 0.620515 0
M  V30 378 C 35.9223 -1.70486 -0.347928 0
M  V30 379 O 37.0983 -2.00347 -0.205704 0
M  V30 380 C 34.1633 -3.46693 -0.0218957 0
M  V30 381 C 33.2243 -4.17632 0.994102 0
M  V30 382 C 32.4573 -5.32329 0.382253 0
M  V30 383 O 32.6803 -5.64552 -0.814676 0
M  V30 384 O 31.6143 -5.91664 1.10531 0
M  V30 385 H 35.4403 -2.63453 1.51083 0
M  V30 386 H 33.0253 -1.26207 0.799513 0
M  V30 387 H 34.9073 -4.19683 -0.380072 0
M  V30 388 H 33.5823 -3.11333 -0.886209 0
M  V30 389 H 32.4893 -3.4676 1.40387 0
M  V30 390 H 33.8223 -4.56964 1.8288 0
M  V30 391 N 35.4744 -0.807222 -1.35358 0
M  V30 392 C 36.4374 -0.223665 -2.28106 0
M  V30 393 C 37.4374 0.589354 -1.4961 0
M  V30 394 O 38.6274 0.407745 -1.69361 0
M  V30 395 C 35.7594 0.688149 -3.33882 0
M  V30 396 H 36.9524 -1.04169 -2.81227 0
M  V30 397 H 34.5054 -0.577921 -1.45223 0
M  V30 398 H 35.2404 1.52984 -2.85948 0
M  V30 399 H 35.0254 0.10687 -3.91954 0
M  V30 400 H 36.5154 1.09075 -4.03104 0
M  V30 401 N 36.9525 1.47285 -0.560781 0
M  V30 402 C 38.2005 2.02064 -0.0379868 0
M  V30 403 C 38.5215 1.43711 1.31803 0
M  V30 404 O 37.7915 0.61362 1.86042 0
M  V30 405 H 36.3715 0.746918 -0.0110531 0
M  V30 406 H 39.0335 1.80648 -0.731598 0
M  V30 407 H 38.1295 3.12064 0.0474463 0
M  V30 408 N 38.4306 0.297415 1.54768 0
M  V30 409 C 39.3406 -0.58983 2.27064 0
M  V30 410 C 40.3566 -1.15144 1.30453 0
M  V30 411 O 41.5326 -1.17699 1.63428 0
M  V30 412 C 38.5976 -1.74714 2.9946 0
M  V30 413 C 37.6586 -1.21997 4.11601 0
M  V30 414 C 36.8916 -2.32212 4.80535 0
M  V30 415 O 37.1146 -3.52036 4.48806 0
M  V30 416 O 36.0486 -1.99106 5.68014 0
M  V30 417 H 39.8746 -0.00348199 3.037 0
M  V30 418 H 37.4596 0.0640035 1.49263 0
M  V30 419 H 39.3416 -2.42147 3.44881 0
M  V30 420 H 38.0166 -2.32016 2.25722 0
M  V30 421 H 36.9236 -0.511458 3.70587 0
M  V30 422 H 38.2566 -0.692419 4.87305 0
M  V30 423 N 39.9087 -1.5758 0.0250728 0
M  V30 424 C 40.8387 -2.13007 -0.956575 0
M  V30 425 C 41.8197 -1.0452 -1.342 0
M  V30 426 O 43.0047 -1.32332 -1.42133 0
M  V30 427 C 40.1347 -2.65386 -2.24026 0
M  V30 428 C 39.0887 -3.78623 -1.99571 0
M  V30 429 C 38.4147 -4.17414 -3.3417 0
M  V30 430 C 39.7147 -5.04867 -1.33814 0
M  V30 431 H 41.4087 -2.9528 -0.494991 0
M  V30 432 H 38.9547 -1.42042 -0.236651 0
M  V30 433 H 40.9077 -3.02794 -2.93076 0
M  V30 434 H 39.6317 -1.80268 -2.72343 0
M  V30 435 H 38.2907 -3.41646 -1.32941 0
M  V30 436 H 37.9387 -3.29284 -3.80238 0
M  V30 437 H 37.6387 -4.93719 -3.18615 0
M  V30 438 H 39.1627 -4.57402 -4.04495 0
M  V30 439 H 40.5767 -5.39888 -1.92857 0
M  V30 440 H 38.9737 -5.86144 -1.28669 0
M  V30 441 H 40.0437 -4.83904 -0.310561 0
M  V30 442 N 41.3868 0.248026 -1.55636 0
M  V30 443 C 42.2968 1.32859 -1.93354 0
M  V30 444 C 43.3128 1.52719 -0.833838 0
M  V30 445 O 44.4888 1.66363 -1.13513 0
M  V30 446 C 41.5538 2.66337 -2.21958 0
M  V30 447 C 40.6148 2.55008 -3.45354 0
M  V30 448 C 39.8478 3.82121 -3.72584 0
M  V30 449 O 40.0708 4.83951 -3.01907 0
M  V30 450 O 39.0048 3.80822 -4.6611 0
M  V30 451 H 42.8308 1.03862 -2.85388 0
M  V30 452 H 40.4158 0.448686 -1.42503 0
M  V30 453 H 42.2978 3.45216 -2.4167 0
M  V30 454 H 40.9728 2.95068 -1.33103 0
M  V30 455 H 39.8798 1.7442 -3.30951 0
M  V30 456 H 41.2128 2.31222 -4.34508 0
M  V30 457 N 42.8649 1.48995 0.513639 0
M  V30 458 C 43.7949 1.67636 1.62544 0
M  V30 459 C 44.7759 0.525087 1.61793 0
M  V30 460 O 45.9609 0.759502 1.78732 0
M  V30 461 C 43.0909 1.73114 3.01079 0
M  V30 462 C 42.0449 2.87905 3.16693 0
M  V30 463 C 41.3709 2.78486 4.56453 0
M  V30 464 C 42.6709 4.29005 2.97913 0
M  V30 465 H 44.3649 2.60716 1.47198 0
M  V30 466 H 41.9109 1.25465 0.706714 0
M  V30 467 H 43.8639 1.84742 3.78746 0
M  V30 468 H 42.5879 0.766241 3.17484 0
M  V30 469 H 41.2469 2.75859 2.41448 0
M  V30 470 H 40.8949 1.7993 4.69717 0
M  V30 471 H 40.5949 3.55523 4.67843 0
M  V30 472 H 42.1189 2.92104 5.36197 0
M  V30 473 H 43.5329 4.41798 3.65359 0
M  V30 474 H 41.9299 5.07166 3.20785 0
M  V30 475 H 42.9999 4.44329 1.94165 0
M  V30 476 N 44.343 -0.763751 1.37857 0
M  V30 477 C 45.275 -1.88664 1.30148 0
M  V30 478 C 46.288 -1.61365 0.215685 0
M  V30 479 O 47.477 -1.72134 0.472459 0
M  V30 480 C 44.577 -3.24075 0.991396 0
M  V30 481 C 43.75 -3.78958 2.18426 0
M  V30 482 C 42.809 -4.92862 1.8432 0
M  V30 483 O 41.835 -5.08027 2.56704 0
M  V30 484 N 43.037 -5.75071 0.792081 0
M  V30 485 H 45.802 -1.95791 2.26905 0
M  V30 486 H 43.363 -0.943226 1.31586 0
M  V30 487 H 45.355 -3.97804 0.743935 0
M  V30 488 H 43.925 -3.12399 0.112122 0
M  V30 489 H 43.145 -2.96913 2.59299 0
M  V30 490 H 44.433 -4.12357 2.98058 0
M  V30 491 H 43.831 -5.65375 0.191595 0
M  V30 492 H 42.388 -6.48991 0.60449 0
M  V30 493 N 45.8211 -1.22559 -0.990812 0
M  V30 494 C 47.2371 -0.985996 -1.255 0
M  V30 495 C 47.4371 0.319173 -1.98956 0
M  V30 496 O 46.4931 1.04127 -2.3003 0
M  V30 497 C 47.8061 -2.18607 -2.06474 0
M  V30 498 C 49.3541 -2.22985 -2.19651 0
M  V30 499 C 49.8291 -3.4255 -3.04012 0
M  V30 500 N 51.3201 -3.42725 -3.11599 0
M  V30 501 C 52.0551 -4.31892 -3.7717 0
M  V30 502 N 51.5511 -5.31279 -4.44651 0
M  V30 503 N 53.3441 -4.19662 -3.73952 0
M  V30 504 H 45.4951 -2.06469 -0.49841 0
M  V30 505 H 47.7581 -0.904853 -0.282747 0
M  V30 506 H 47.4641 -3.13267 -1.59865 0
M  V30 507 H 47.3381 -2.18838 -3.07229 0
M  V30 508 H 49.7251 -1.28871 -2.65474 0
M  V30 509 H 49.8061 -2.26791 -1.18319 0
M  V30 510 H 49.4501 -4.36965 -2.58889 0
M  V30 511 H 49.3801 -3.35984 -4.0549 0
M  V30 512 H 51.8711 -2.70807 -2.63575 0
M  V30 513 H 52.1841 -5.95593 -4.92431 0
M  V30 514 H 50.5291 -5.3519 -4.43392 0
M  V30 515 H 53.7201 -3.41268 -3.20396 0
M  V30 516 H 53.8931 -4.89358 -4.24774 0
M  V30 517 N 47.2992 1.18797 -1.03562 0
M  V30 518 C 48.2312 2.21731 -0.580337 0
M  V30 519 C 49.2442 1.59051 0.347349 0
M  V30 520 O 50.4332 1.77929 0.142669 0
M  V30 521 C 47.5332 3.38459 0.172805 0
M  V30 522 C 46.7062 4.3072 -0.761496 0
M  V30 523 C 45.7652 5.26174 -0.0525547 0
M  V30 524 O 44.7912 5.65108 -0.681333 0
M  V30 525 N 45.9932 5.67624 1.21586 0
M  V30 526 H 48.7582 2.61417 -1.46565 0
M  V30 527 H 46.3192 1.33531 -0.915476 0
M  V30 528 H 48.3112 3.99335 0.656793 0
M  V30 529 H 46.8812 2.97507 0.959602 0
M  V30 530 H 46.1012 3.67525 -1.42544 0
M  V30 531 H 47.3892 4.89267 -1.39626 0
M  V30 532 H 46.7872 5.38038 1.74732 0
M  V30 533 H 45.3442 6.30721 1.64421 0
M  V30 534 N 48.7773 0.814389 1.34928 0
M  V30 535 C 49.7243 0.22822 2.29669 0
M  V30 536 C 50.6943 -0.642164 1.53184 0
M  V30 537 O 51.8793 -0.585605 1.81591 0
M  V30 538 C 49.0193 -0.61089 3.3965 0
M  V30 539 C 48.1323 0.280792 4.31086 0
M  V30 540 C 47.2673 -0.567067 5.28165 0
M  V30 541 C 46.3063 0.324531 6.11239 0
M  V30 542 N 45.4433 -0.483756 7.00431 0
M  V30 543 H 50.2833 1.04153 2.79206 0
M  V30 544 H 47.8203 0.525133 1.37407 0
M  V30 545 H 49.7783 -1.11263 4.0209 0
M  V30 546 H 48.4083 -1.38939 2.91369 0
M  V30 547 H 47.4603 0.900688 3.69583 0
M  V30 548 H 48.7723 0.966723 4.89342 0
M  V30 549 H 47.9263 -1.13363 5.96015 0
M  V30 550 H 46.6653 -1.28654 4.70425 0
M  V30 551 H 45.6703 0.903298 5.42329 0
M  V30 552 H 46.8953 1.04198 6.71059 0
M  V30 553 H 44.8413 -1.18706 6.45171 0
M  V30 554 H 44.7583 0.143965 7.55863 0
M  V30 555 H 46.0263 -1.03334 7.7262 0
M  V30 556 N 50.2554 -1.46986 0.568584 0
M  V30 557 C 51.6714 -1.57946 0.229189 0
M  V30 558 C 51.8714 -1.56567 -1.26843 0
M  V30 559 O 50.9274 -1.47511 -2.04931 0
M  V30 560 C 52.2404 -2.87963 0.865909 0
M  V30 561 C 53.7884 -3.01568 0.838188 0
M  V30 562 C 54.2634 -4.34301 1.45419 0
M  V30 563 N 55.7544 -4.40965 1.41788 0
M  V30 564 C 56.4894 -5.42256 1.86403 0
M  V30 565 N 55.9854 -6.50297 2.38926 0
M  V30 566 N 57.7784 -5.3337 1.77405 0
M  V30 567 H 49.9294 -1.46126 1.54146 0
M  V30 568 H 52.1924 -0.696156 0.643484 0
M  V30 569 H 51.8984 -2.94742 1.91886 0
M  V30 570 H 51.7724 -3.75423 0.365687 0
M  V30 571 H 54.1594 -2.94379 -0.206106 0
M  V30 572 H 54.2404 -2.1562 1.37629 0
M  V30 573 H 53.8844 -4.42247 2.49761 0
M  V30 574 H 53.8144 -5.19 0.891435 0
M  V30 575 H 56.3054 -3.63484 1.03381 0
M  V30 576 H 56.6184 -7.23777 2.70863 0
M  V30 577 H 54.9634 -6.51155 2.42944 0
M  V30 578 H 58.1544 -4.47865 1.3614 0
M  V30 579 H 58.3274 -6.12169 2.12492 0
M  V30 580 N 51.7335 -0.305618 -1.54608 0
M  V30 581 C 52.9585 0.307562 -2.05107 0
M  V30 582 C 53.3835 1.46385 -1.18123 0
M  V30 583 O 52.7415 1.8034 -0.186324 0
M  V30 584 C 52.7895 0.73704 -3.52987 0
M  V30 585 O 51.8935 1.84134 -3.6901 0
M  V30 586 H 51.2345 0.0589143 -0.661381 0
M  V30 587 H 53.7645 -0.448807 -1.99617 0
M  V30 588 H 53.7745 1.02459 -3.94925 0
M  V30 589 H 52.4495 -0.108773 -4.15758 0
M  V30 590 H 51.0265 1.55398 -3.38978 0
M  V30 591 N 53.2116 1.57565 -0.0334293 0
M  V30 592 C 54.4606 1.91155 0.643639 0
M  V30 593 C 54.7736 0.91192 1.73042 0
M  V30 594 O 55.9796 1.13923 2.46442 0
M  V30 595 C 54.4356 3.39443 1.1961 0
M  V30 596 C 54.0436 4.47774 0.142381 0
M  V30 597 C 55.7876 3.82094 1.84944 0
M  V30 598 C 53.6946 5.87162 0.706727 0
M  V30 599 H 52.6246 0.713368 0.244176 0
M  V30 600 H 55.2756 1.8323 -0.0994323 0
M  V30 601 H 53.6576 3.42313 1.99092 0
M  V30 602 H 54.8316 4.56469 -0.630296 0
M  V30 603 H 53.1466 4.14352 -0.412446 0
M  V30 604 H 55.7436 4.83591 2.2813 0
M  V30 605 H 56.0866 3.17386 2.69392 0
M  V30 606 H 56.6196 3.81665 1.12145 0
M  V30 607 H 53.3586 6.55424 -0.0997178 0
M  V30 608 H 52.8786 5.82064 1.44779 0
M  V30 609 H 54.5576 6.35866 1.19514 0
M  V30 610 N 54.6897 -0.239769 1.55765 0
M  V30 611 C 55.6377 -1.31668 1.91745 0
M  V30 612 C 56.6317 -1.49462 0.797338 0
M  V30 613 O 57.8377 -1.50852 0.982021 0
M  V30 614 H 54.2127 -0.441048 0.609082 0
M  V30 615 H 56.1837 -0.985923 2.81642 0
M  V30 616 C 54.9327 -2.66368 2.2348 0
M  V30 617 H 54.2557 -2.53478 3.09175 0
M  V30 618 H 55.6957 -3.40578 2.52553 0
M  V30 619 C 54.1547 -3.20002 1.05359 0
M  V30 620 O 54.6847 -4.00538 0.305261 0
M  V30 621 N 52.8907 -2.78126 0.842292 0
M  V30 622 H 52.4377 -2.12742 1.45253 0
M  V30 623 H 52.3957 -3.14354 0.053652 0
M  V30 624 N 56.1678 -1.49265 -0.50573 0
M  V30 625 C 57.0978 -1.68495 -1.61653 0
M  V30 626 C 58.0788 -0.53366 -1.61512 0
M  V30 627 O 59.2638 -0.76897 -1.78327 0
M  V30 628 C 56.3938 -1.74709 -3.00157 0
M  V30 629 C 55.3478 -2.89581 -3.15162 0
M  V30 630 C 54.6738 -2.80903 -4.5497 0
M  V30 631 C 55.9738 -4.30578 -2.95634 0
M  V30 632 H 57.6678 -2.61493 -1.45814 0
M  V30 633 H 55.2138 -1.25838 -0.70005 0
M  V30 634 H 57.1668 -1.86748 -3.77761 0
M  V30 635 H 55.8908 -0.783067 -3.17074 0
M  V30 636 H 54.5498 -2.77136 -2.39982 0
M  V30 637 H 54.1978 -1.82419 -4.68756 0
M  V30 638 H 53.8978 -3.57999 -4.65951 0
M  V30 639 H 55.4218 -2.94944 -5.34641 0
M  V30 640 H 56.8358 -4.4373 -3.63011 0
M  V30 641 H 55.2328 -5.0886 -3.18091 0
M  V30 642 H 56.3028 -4.45352 -1.91806 0
M  V30 643 N 57.6459 0.756429 -1.3826 0
M  V30 644 C 58.5779 1.87971 -1.31147 0
M  V30 645 C 59.5909 1.61248 -0.224239 0
M  V30 646 O 60.7799 1.71881 -0.481581 0
M  V30 647 C 57.8799 3.23545 -1.00857 0
M  V30 648 C 57.0529 3.77794 -2.20432 0
M  V30 649 C 56.1119 4.91877 -1.86931 0
M  V30 650 O 55.1379 5.06659 -2.59395 0
M  V30 651 N 56.3399 5.74643 -0.822568 0
M  V30 652 H 59.1049 1.94585 -2.2794 0
M  V30 653 H 56.6659 0.936234 -1.32084 0
M  V30 654 H 58.6579 3.97403 -0.765021 0
M  V30 655 H 57.2279 3.12335 -0.128687 0
M  V30 656 H 56.4479 2.95534 -2.6087 0
M  V30 657 H 57.7359 4.10771 -3.00241 0
M  V30 658 H 57.1339 5.65266 -0.221575 0
M  V30 659 H 55.6909 6.48661 -0.638899 0
M  V30 660 N 59.124 1.23083 0.984299 0
M  V30 661 C 60.056 0.96636 2.07832 0
M  V30 662 C 61.069 -0.0582135 1.62696 0
M  V30 663 O 62.258 0.176843 1.77622 0
M  V30 664 C 59.358 0.433397 3.36117 0
M  V30 665 C 58.531 1.51722 4.10243 0
M  V30 666 C 57.59 0.989821 5.16807 0
M  V30 667 O 56.616 1.67794 5.43906 0
M  V30 668 N 57.818 -0.184367 5.80207 0
M  V30 669 H 60.583 1.90824 2.31098 0
M  V30 670 H 58.144 1.13888 1.1507 0
M  V30 671 H 60.136 0.065699 4.04647 0
M  V30 672 H 58.706 -0.413806 3.09849 0
M  V30 673 H 57.926 2.05786 3.36223 0
M  V30 674 H 59.214 2.24619 4.56534 0
M  V30 675 H 58.612 -0.760062 5.60571 0
M  V30 676 H 57.169 -0.493366 6.4993 0
M  V30 677 N 60.6021 -1.18246 1.0419 0
M  V30 678 C 62.0131 -1.69914 0.773698 0
M  V30 679 C 62.3641 -1.83085 -0.705297 0
M  V30 680 O 61.4891 -1.51123 -1.5489 0
M  V30 681 C 62.0841 -3.08619 1.39784 0
M  V30 682 C 60.6431 -3.57494 1.17792 0
M  V30 683 C 59.7901 -2.34013 1.48773 0
M  V30 684 H 62.7411 -1.02904 1.20816 0
M  V30 685 H 62.7621 -3.71958 0.801714 0
M  V30 686 H 62.2741 -2.99001 2.47426 0
M  V30 687 H 60.3751 -3.72406 0.120295 0
M  V30 688 H 60.4881 -4.40852 1.87581 0
M  V30 689 H 58.8521 -2.37986 0.907463 0
M  V30 690 H 59.6351 -2.27013 2.57527 0
M  V30 691 N 62.0802 -0.821533 -1.34494 0
M  V30 692 C 63.4962 -0.507117 -1.51329 0
M  V30 693 C 63.6962 0.968964 -1.76673 0
M  V30 694 O 62.7522 1.75348 -1.81685 0
M  V30 695 C 64.0652 -1.36544 -2.67911 0
M  V30 696 C 65.6132 -1.36242 -2.81793 0
M  V30 697 C 66.0882 -2.2052 -4.01416 0
M  V30 698 N 67.5792 -2.18136 -4.08621 0
M  V30 699 C 68.3142 -2.80095 -5.00334 0
M  V30 700 N 67.8102 -3.51039 -5.9728 0
M  V30 701 N 69.6032 -2.69656 -4.93196 0
M  V30 702 H 61.7542 -1.77729 -1.16302 0
M  V30 703 H 64.0172 -0.757291 -0.570276 0
M  V30 704 H 63.7232 -2.41361 -2.55808 0
M  V30 705 H 63.5972 -1.02917 -3.62888 0
M  V30 706 H 65.9842 -0.322041 -2.93338 0
M  V30 707 H 66.0652 -1.73866 -1.87628 0
M  V30 708 H 65.7092 -3.24607 -3.90631 0
M  V30 709 H 65.6392 -1.80247 -4.94791 0
M  V30 710 H 68.1302 -1.6653 -3.39229 0
M  V30 711 H 68.4432 -3.95565 -6.63889 0
M  V30 712 H 66.7882 -3.55145 -5.97409 0
M  V30 713 H 69.9792 -2.13808 -4.16418 0
M  V30 714 H 70.1522 -3.1823 -5.64476 0
M  V30 715 N 63.5583 1.46682 -0.576371 0
M  V30 716 C 64.4913 2.27243 0.208731 0
M  V30 717 C 65.4693 1.35238 0.902746 0
M  V30 718 O 66.6533 1.64641 0.917904 0
M  V30 719 C 63.7803 3.12802 1.29896 0
M  V30 720 C 62.8263 4.20524 0.711457 0
M  V30 721 S 63.6593 5.33548 -0.456781 0
M  V30 722 C 64.8153 6.22673 0.634798 0
M  V30 723 H 65.0483 2.93484 -0.474838 0
M  V30 724 H 62.5813 1.50069 -0.363118 0
M  V30 725 H 64.5393 3.62661 1.92321 0
M  V30 726 H 63.2003 2.45887 1.95444 0
M  V30 727 H 62.3933 4.80191 1.53076 0
M  V30 728 H 61.9953 3.73645 0.162999 0
M  V30 729 H 64.2873 6.60181 1.52209 0
M  V30 730 H 65.2303 7.0806 0.0750311 0
M  V30 731 H 65.6383 5.56684 0.936092 0
M  V30 732 N 65.0364 0.313813 1.54444 0
M  V30 733 C 65.9994 -0.54379 2.22656 0
M  V30 734 C 66.9994 -1.05124 1.21678 0
M  V30 735 O 68.1894 -0.945225 1.46325 0
M  V30 736 C 65.3214 -1.75427 2.92298 0
M  V30 737 H 66.5144 0.0523599 2.99854 0
M  V30 738 H 64.0674 0.0647834 1.56166 0
M  V30 739 H 64.8024 -2.38991 2.19211 0
M  V30 740 H 64.5874 -1.39791 3.66334 0
M  V30 741 H 66.0774 -2.36325 3.44297 0
M  V30 742 N 66.5145 -1.57545 0.0417849 0
M  V30 743 C 67.7425 -1.96624 -0.643928 0
M  V30 744 C 68.1575 -0.918897 -1.64929 0
M  V30 745 O 67.5145 0.0979323 -1.82237 0
M  V30 746 C 67.5655 -3.35781 -1.33914 0
M  V30 747 O 67.2865 -4.365 -0.374048 0
M  V30 748 C 68.7875 -3.89566 -2.1155 0
M  V30 749 H 66.0075 -0.647316 -0.176702 0
M  V30 750 H 68.5515 -2.04229 0.105304 0
M  V30 751 H 66.7065 -3.29357 -2.03968 0
M  V30 752 H 67.1205 -5.17248 -0.869179 0
M  V30 753 H 68.5945 -4.89242 -2.55628 0
M  V30 754 H 69.0715 -3.24488 -2.9598 0
M  V30 755 H 69.6775 -3.99298 -1.46427 0
M  V30 756 N 67.9926 0.231505 -1.5589 0
M  V30 757 C 68.9026 1.308 -1.94752 0
M  V30 758 C 69.9186 1.51826 -0.849989 0
M  V30 759 O 71.0946 1.6515 -1.15271 0
M  V30 760 C 68.1596 2.63968 -2.24771 0
M  V30 761 C 67.2206 2.51331 -3.48039 0
M  V30 762 C 66.4536 3.78148 -3.76616 0
M  V30 763 O 66.6766 4.80722 -3.07022 0
M  V30 764 O 65.6106 3.75857 -4.70123 0
M  V30 765 H 69.4366 1.0083 -2.86474 0
M  V30 766 H 67.0216 0.433547 -1.42971 0
M  V30 767 H 68.9036 3.42633 -2.45318 0
M  V30 768 H 67.5786 2.9364 -1.36225 0
M  V30 769 H 66.4856 1.709 -3.32782 0
M  V30 770 H 67.8186 2.26601 -4.36936 0
M  V30 771 N 69.4707 1.49531 0.497807 0
M  V30 772 C 70.8867 1.36365 0.829266 0
M  V30 773 C 71.0867 0.399184 1.97506 0
M  V30 774 O 70.1427 -0.167977 2.51941 0
M  V30 775 C 71.4557 2.77153 1.16647 0
M  V30 776 C 73.0037 2.85877 1.27449 0
M  V30 777 C 73.4787 4.2744 1.64497 0
M  V30 778 N 74.9697 4.30265 1.7154 0
M  V30 779 C 75.7047 5.3677 2.01656 0
M  V30 780 N 75.2007 6.53516 2.29976 0
M  V30 781 N 76.9937 5.24189 2.02934 0
M  V30 782 H 69.1447 2.10831 -0.257703 0
M  V30 783 H 71.4077 0.946534 -0.0527091 0
M  V30 784 H 71.1137 3.49442 0.397872 0
M  V30 785 H 70.9877 3.12722 2.10915 0
M  V30 786 H 73.3747 2.13824 2.0338 0
M  V30 787 H 73.4557 2.53887 0.312244 0
M  V30 788 H 73.0997 5.00021 0.891151 0
M  V30 789 H 73.0297 4.56896 2.61827 0
M  V30 790 H 75.5207 3.4607 1.51802 0
M  V30 791 H 75.8337 7.30506 2.52153 0
M  V30 792 H 74.1787 6.56737 2.27425 0
M  V30 793 H 77.3697 4.31988 1.80289 0
M  V30 794 H 77.5427 6.07286 2.26071 0
M  V30 795 N 70.9488 -0.749086 1.3866 0
M  V30 796 C 72.1968 -1.50535 1.34847 0
M  V30 797 C 72.5178 -1.94909 -0.0595016 0
M  V30 798 O 71.7878 -1.67973 -1.00806 0
M  V30 799 H 70.3678 -0.558395 0.49619 0
M  V30 800 H 73.0298 -0.890165 1.73384 0
M  V30 801 H 72.1258 -2.39413 2.00219 0
M  V30 802 N 72.4269 -1.23603 -0.977757 0
M  V30 803 C 73.3749 -1.01704 -2.09187 0
M  V30 804 C 74.3689 0.0448214 -1.69341 0
M  V30 805 O 75.5749 -0.108902 -1.7967 0
M  V30 806 H 71.9499 -0.311803 -0.684312 0
M  V30 807 H 73.9209 -1.96207 -2.24823 0
M  V30 808 C 72.6699 -0.627746 -3.41986 0
M  V30 809 H 71.9929 -1.43656 -3.73099 0
M  V30 810 H 73.4329 -0.514053 -4.20872 0
M  V30 811 C 71.8919 0.664238 -3.30287 0
M  V30 812 O 72.4219 1.71268 -3.6336 0
M  V30 813 N 70.6279 0.641156 -2.83439 0
M  V30 814 H 70.1749 -0.212376 -2.56723 0
M  V30 815 H 70.1329 1.50583 -2.75993 0
M  V30 816 N 73.905 1.17692 -1.04816 0
M  V30 817 C 74.835 2.23777 -0.666791 0
M  V30 818 C 75.816 1.66796 0.33361 0
M  V30 819 O 77.001 1.93039 0.212042 0
M  V30 820 C 74.131 3.47281 -0.0367933 0
M  V30 821 C 73.085 4.17059 -0.961546 0
M  V30 822 C 72.411 5.34342 -0.195626 0
M  V30 823 C 73.711 4.69713 -2.28402 0
M  V30 824 H 75.405 2.55933 -1.55367 0
M  V30 825 H 72.951 1.23019 -0.748484 0
M  V30 826 H 74.904 4.20706 0.241775 0
M  V30 827 H 73.628 3.14381 0.885004 0
M  V30 828 H 72.287 3.45541 -1.22462 0
M  V30 829 H 71.935 4.97692 0.728816 0
M  V30 830 H 71.635 5.81966 -0.811775 0
M  V30 831 H 73.159 6.10553 0.0757473 0
M  V30 832 H 74.573 5.34794 -2.06563 0
M  V30 833 H 72.97 5.279 -2.8538 0
M  V30 834 H 74.04 3.86726 -2.92525 0
M  V30 835 N 75.3831 0.828654 1.34056 0
M  V30 836 C 76.6291 0.42008 1.98402 0
M  V30 837 C 76.9621 -1.01564 1.65525 0
M  V30 838 O 76.2371 -1.70834 0.929831 0
M  V30 839 C 76.5201 0.62927 3.54559 0
M  V30 840 C 76.3731 2.11152 3.97159 0
M  V30 841 C 77.6921 0.0688756 4.40046 0
M  V30 842 H 74.8111 0.154104 0.720709 0
M  V30 843 H 77.4531 1.04228 1.5886 0
M  V30 844 H 75.6031 0.0996418 3.88372 0
M  V30 845 H 77.2751 2.70522 3.73651 0
M  V30 846 H 75.5181 2.59985 3.47261 0
M  V30 847 H 76.1891 2.20868 5.05887 0
M  V30 848 H 78.6651 0.521458 4.1282 0
M  V30 849 H 77.5411 0.245006 5.48353 0
M  V30 850 H 77.8021 -1.0266 4.30015 0
M  V30 851 N 76.8612 -1.46375 0.584142 0
M  V30 852 C 78.1082 -2.02378 0.0702675 0
M  V30 853 C 78.4362 -1.45545 -1.29023 0
M  V30 854 O 77.6912 -0.610967 -1.85918 0
M  V30 855 C 77.9902 -3.57373 -0.0439342 0
M  V30 856 C 77.6562 -4.33252 1.24915 0
M  V30 857 C 76.3182 -4.53701 1.60341 0
M  V30 858 C 78.6702 -4.7681 2.1048 0
M  V30 859 C 75.9982 -5.1496 2.81128 0
M  V30 860 C 78.3502 -5.39404 3.30494 0
M  V30 861 C 77.0142 -5.5808 3.66201 0
M  V30 862 H 76.2842 -0.740554 0.0257127 0
M  V30 863 H 78.9312 -1.75727 0.761065 0
M  V30 864 H 77.2362 -3.83169 -0.817869 0
M  V30 865 H 78.9332 -3.98384 -0.457318 0
M  V30 866 H 75.5232 -4.17633 0.963364 0
M  V30 867 H 79.7072 -4.60766 1.84414 0
M  V30 868 H 74.9632 -5.27611 3.08928 0
M  V30 869 H 79.1372 -5.72114 3.97063 0
M  V30 870 H 76.7642 -6.05318 4.59885 0
M  V30 871 N 78.3393 -0.321999 -1.54275 0
M  V30 872 C 79.2693 0.537411 -2.27231 0
M  V30 873 C 80.2503 1.12064 -1.27968 0
M  V30 874 O 81.4353 1.14606 -1.56777 0
M  V30 875 C 78.5653 1.69919 -3.02894 0
M  V30 876 C 77.5193 1.24534 -4.09482 0
M  V30 877 C 76.8453 2.49394 -4.72977 0
M  V30 878 C 78.1453 0.361335 -5.21049 0
M  V30 879 H 79.8393 -0.0711406 -2.99315 0
M  V30 880 H 77.3853 -0.0356555 -1.43956 0
M  V30 881 H 79.3383 2.30668 -3.52662 0
M  V30 882 H 78.0623 2.33431 -2.28424 0
M  V30 883 H 76.7213 0.660782 -3.60596 0
M  V30 884 H 76.3693 3.11265 -3.95124 0
M  V30 885 H 76.0693 2.19718 -5.44975 0
M  V30 886 H 77.5933 3.10908 -5.25517 0
M  V30 887 H 79.0073 0.875072 -5.66582 0
M  V30 888 H 77.4043 0.157428 -5.99893 0
M  V30 889 H 78.4743 -0.60822 -4.8107 0
M  V30 890 N 79.8174 1.5752 -0.0501392 0
M  V30 891 C 81.0454 1.96963 0.633492 0
M  V30 892 C 81.4604 0.927631 1.6444 0
M  V30 893 O 80.8174 -0.0882665 1.82286 0
M  V30 894 C 80.8684 3.36487 1.32132 0
M  V30 895 O 80.5894 4.36693 0.350894 0
M  V30 896 C 82.0904 3.90682 2.09481 0
M  V30 897 H 79.3104 0.648244 0.173266 0
M  V30 898 H 81.8544 2.0417 -0.116134 0
M  V30 899 H 80.0094 3.30434 2.02218 0
M  V30 900 H 80.4234 5.17702 0.841735 0
M  V30 901 H 81.8974 4.90591 2.5303 0
M  V30 902 H 82.3744 3.26053 2.94255 0
M  V30 903 H 82.9804 4.00069 1.44307 0
M  V30 904 N 81.2955 -0.223234 1.56011 0
M  V30 905 C 82.5435 -0.946003 1.78592 0
M  V30 906 C 82.8645 -1.84936 0.618349 0
M  V30 907 O 82.1345 -1.92473 -0.364833 0
M  V30 908 H 80.7145 -0.352298 0.658707 0
M  V30 909 H 83.3765 -0.235494 1.93472 0
M  V30 910 H 82.4725 -1.55381 2.70672 0
M  V30 911 N 82.7736 -1.49793 -0.48987 0
M  V30 912 C 83.9986 -1.63836 -1.27172 0
M  V30 913 C 84.4236 -0.31402 -1.8546 0
M  V30 914 O 83.7816 0.719803 -1.66399 0
M  V30 915 C 83.8296 -2.71797 -2.36978 0
M  V30 916 O 82.9336 -2.31744 -3.41128 0
M  V30 917 H 82.2746 -0.547997 -0.37496 0
M  V30 918 H 84.8046 -1.96053 -0.585191 0
M  V30 919 H 84.8146 -2.94305 -2.82575 0
M  V30 920 H 83.4896 -3.67923 -1.93921 0
M  V30 921 H 82.0666 -2.1961 -3.01373 0
M  V30 922 N 84.2517 0.741722 -1.39055 0
M  V30 923 C 85.2147 1.83733 -1.37021 0
M  V30 924 C 86.2147 1.58542 -0.268534 0
M  V30 925 O 87.4047 1.66067 -0.526076 0
M  V30 926 C 84.5367 3.2141 -1.13617 0
M  V30 927 H 85.7297 1.86941 -2.34506 0
M  V30 928 H 83.2827 0.944676 -1.24521 0
M  V30 929 H 84.0177 3.23865 -0.167863 0
M  V30 930 H 83.8027 3.4109 -1.93391 0
M  V30 931 H 85.2927 4.01477 -1.14918 0
M  V30 932 N 85.7298 1.2412 0.971189 0
M  V30 933 C 86.6618 0.988349 2.06795 0
M  V30 934 C 87.6748 -0.0409541 1.62748 0
M  V30 935 O 88.8638 0.195673 1.77424 0
M  V30 936 C 85.9638 0.469023 3.35639 0
M  V30 937 C 85.1368 1.56065 4.08611 0
M  V30 938 C 84.1958 1.04458 5.15728 0
M  V30 939 O 83.2218 1.73553 5.42096 0
M  V30 940 N 84.4238 -0.122817 5.8037 0
M  V30 941 H 87.1888 1.93265 2.29061 0
M  V30 942 H 84.7498 1.15102 1.13856 0
M  V30 943 H 86.7418 0.108613 4.04554 0
M  V30 944 H 85.3118 -0.380919 3.1027 0
M  V30 945 H 84.5318 2.09341 3.34021 0
M  V30 946 H 85.8198 2.29449 4.54126 0
M  V30 947 H 85.2178 -0.700563 5.61345 0
M  V30 948 H 83.7748 -0.424404 6.50417 0
M  V30 949 N 87.2079 -1.17134 1.05439 0
M  V30 950 C 88.1559 -2.23289 0.651511 0
M  V30 951 C 89.1499 -1.66186 -0.328411 0
M  V30 952 O 90.3559 -1.78949 -0.194206 0
M  V30 953 H 86.7309 -0.726938 0.192523 0
M  V30 954 H 88.7019 -2.54565 1.55689 0
M  V30 955 C 87.4509 -3.47671 0.0448436 0
M  V30 956 H 86.7739 -3.91918 0.78996 0
M  V30 957 H 88.2139 -4.2353 -0.19964 0
M  V30 958 C 86.6729 -3.14453 -1.20918 0
M  V30 959 O 87.2029 -3.29459 -2.29825 0
M  V30 960 N 85.4089 -2.68657 -1.10779 0
M  V30 961 H 84.9559 -2.56646 -0.221526 0
M  V30 962 H 84.9139 -2.46804 -1.9477 0
M  V30 963 N 88.686 -0.835752 -1.33615 0
M  V30 964 C 89.935 -0.426289 -1.97144 0
M  V30 965 C 90.248 1.01912 -1.66953 0
M  V30 966 O 91.454 1.53311 -2.24072 0
M  V30 967 C 89.91 -0.711321 -3.52801 0
M  V30 968 C 89.518 -2.1712 -3.91871 0
M  V30 969 C 91.262 -0.368654 -4.22896 0
M  V30 970 C 89.169 -2.40044 -5.40493 0
M  V30 971 H 88.099 -0.15567 -0.737755 0
M  V30 972 H 90.75 -1.0239 -1.52278 0
M  V30 973 H 89.132 -0.0433766 -3.95976 0
M  V30 974 H 90.306 -2.87936 -3.59763 0
M  V30 975 H 88.621 -2.47654 -3.34749 0
M  V30 976 H 91.218 -0.517601 -5.32189 0
M  V30 977 H 91.561 0.688078 -4.10574 0
M  V30 978 H 92.094 -0.991702 -3.8524 0
M  V30 979 H 88.833 -3.44271 -5.57815 0
M  V30 980 H 88.353 -1.73785 -5.74072 0
M  V30 981 H 90.032 -2.23042 -6.0734 0
M  V30 982 N 90.1641 1.46063 -0.591896 0
M  V30 983 C 91.0741 2.34192 0.13831 0
M  V30 984 C 92.0901 1.50305 0.876608 0
M  V30 985 O 93.2661 1.8315 0.837728 0
M  V30 986 C 90.3311 3.27656 1.13326 0
M  V30 987 C 89.3921 4.27445 0.39863 0
M  V30 988 C 88.6251 5.16443 1.34618 0
M  V30 989 O 88.8481 5.08553 2.58321 0
M  V30 990 O 87.7821 5.95843 0.851768 0
M  V30 991 H 91.6081 2.98002 -0.58552 0
M  V30 992 H 89.1931 1.45188 -0.352239 0
M  V30 993 H 91.0751 3.85291 1.70671 0
M  V30 994 H 89.7501 2.6643 1.83839 0
M  V30 995 H 88.6571 3.73471 -0.216895 0
M  V30 996 H 89.9901 4.91482 -0.265709 0
M  V30 997 N 91.6422 0.330177 1.54103 0
M  V30 998 C 92.8892 -0.270405 2.00686 0
M  V30 999 C 93.2172 -1.51621 1.21825 0
M  V30 1000 O 92.4722 -1.93536 0.29025 0
M  V30 1001 C 92.7712 -0.643134 3.51566 0
M  V30 1002 C 92.4372 0.504251 4.48072 0
M  V30 1003 C 91.0992 0.819163 4.74176 0
M  V30 1004 C 93.4512 1.27465 5.05373 0
M  V30 1005 C 90.7792 1.90708 5.5484 0
M  V30 1006 C 93.1312 2.35271 5.87223 0
M  V30 1007 C 91.7952 2.67336 6.11627 0
M  V30 1008 H 91.0652 -0.0989482 0.734364 0
M  V30 1009 H 93.7122 0.455324 1.86008 0
M  V30 1010 H 92.0172 -1.44938 3.64006 0
M  V30 1011 H 93.7142 -1.11949 3.85056 0
M  V30 1012 H 90.3042 0.248733 4.27878 0
M  V30 1013 H 94.4882 1.04462 4.85182 0
M  V30 1014 H 89.7442 2.15991 5.71977 0
M  V30 1015 H 93.9182 2.95405 6.30641 0
M  V30 1016 H 91.5452 3.51763 6.73919 0
M  V30 1017 N 93.1203 -1.57491 0.0584922 0
M  V30 1018 C 94.5363 -1.56792 -0.298091 0
M  V30 1019 C 94.7363 -1.06679 -1.70944 0
M  V30 1020 O 93.7923 -0.726672 -2.41818 0
M  V30 1021 C 95.1053 -3.00461 -0.119879 0
M  V30 1022 C 96.6533 -3.1242 -0.190428 0
M  V30 1023 C 97.1283 -4.57982 -0.0406567 0
M  V30 1024 N 98.6193 -4.63099 -0.0966958 0
M  V30 1025 C 99.3543 -5.734 -0.00502943 0
M  V30 1026 N 98.8503 -6.9266 0.139402 0
M  V30 1027 N 100.643 -5.62067 -0.0611391 0
M  V30 1028 H 92.7943 -1.88386 0.98105 0
M  V30 1029 H 95.0573 -0.867865 0.381463 0
M  V30 1030 H 94.7633 -3.41187 0.85349 0
M  V30 1031 H 94.6373 -3.66843 -0.877833 0
M  V30 1032 H 97.0243 -2.71589 -1.15427 0
M  V30 1033 H 97.1053 -2.48702 0.598405 0
M  V30 1034 H 96.7493 -4.995 0.919897 0
M  V30 1035 H 96.6793 -5.19715 -0.848727 0
M  V30 1036 H 99.1703 -3.77331 -0.207277 0
M  V30 1037 H 99.4833 -7.72536 0.201855 0
M  V30 1038 H 97.8283 -6.94781 0.174586 0
M  V30 1039 H 101.019 -4.67782 -0.172583 0
M  V30 1040 H 101.192 -6.47999 0.0137562 0
M  V30 1041 N 94.5984 0.214957 -1.56127 0
M  V30 1042 C 95.8264 0.955092 -1.83536 0
M  V30 1043 C 96.2414 1.77677 -0.638472 0
M  V30 1044 O 95.5984 1.78219 0.392968 0
M  V30 1045 C 95.6494 1.86734 -3.09536 0
M  V30 1046 O 95.3704 1.07887 -4.24608 0
M  V30 1047 C 96.8714 2.72082 -3.4998 0
M  V30 1048 H 94.0914 0.279611 -0.609966 0
M  V30 1049 H 96.6354 0.228197 -2.03223 0
M  V30 1050 H 94.7904 2.5481 -2.91806 0
M  V30 1051 H 95.2044 1.69872 -4.9623 0
M  V30 1052 H 96.6784 3.31782 -4.41163 0
M  V30 1053 H 97.1554 3.44806 -2.7204 0
M  V30 1054 H 97.7614 2.09409 -3.70173 0
M  V30 1055 N 96.0765 1.50051 0.48192 0
M  V30 1056 C 97.3245 1.60181 1.23234 0
M  V30 1057 C 97.6455 0.299176 1.92691 0
M  V30 1058 O 96.9155 -0.682708 1.83619 0
M  V30 1059 H 95.4955 0.590232 0.457859 0
M  V30 1060 H 98.1575 1.86775 0.556881 0
M  V30 1061 H 97.2535 2.40753 1.98607 0
M  V30 1062 N 97.5546 -0.734337 1.39446 0
M  V30 1063 C 98.7796 -1.52866 1.40167 0
M  V30 1064 C 99.2046 -1.881 -0.00171513 0
M  V30 1065 O 98.5626 -1.51957 -0.988879 0
M  V30 1066 C 98.6106 -2.79235 2.28167 0
M  V30 1067 O 97.7146 -3.75185 1.71201 0
M  V30 1068 H 97.0556 -0.461618 0.477289 0
M  V30 1069 H 99.5856 -0.905949 1.8345 0
M  V30 1070 H 99.5956 -3.27963 2.42702 0
M  V30 1071 H 98.2706 -2.52923 3.30156 0
M  V30 1072 H 96.8476 -3.33958 1.65912 0
M  V30 1073 N 99.0327 -1.24633 -0.964593 0
M  V30 1074 C 99.9627 -1.06611 -2.07741 0
M  V30 1075 C 100.944 0.0218666 -1.70086 0
M  V30 1076 O 102.129 -0.145793 -1.93652 0
M  V30 1077 C 99.2587 -0.673444 -3.40708 0
M  V30 1078 C 98.2127 -1.71054 -3.92332 0
M  V30 1079 C 97.5387 -1.17285 -5.21678 0
M  V30 1080 C 98.8387 -3.10718 -4.19824 0
M  V30 1081 H 100.533 -1.99693 -2.23076 0
M  V30 1082 H 98.0787 -0.96152 -1.07195 0
M  V30 1083 H 100.032 -0.534345 -4.17998 0
M  V30 1084 H 98.7557 0.293073 -3.25282 0
M  V30 1085 H 97.4147 -1.83791 -3.17201 0
M  V30 1086 H 97.0627 -0.196847 -5.02615 0
M  V30 1087 H 96.7627 -1.86592 -5.57187 0
M  V30 1088 H 98.2867 -1.04593 -6.01575 0
M  V30 1089 H 99.7007 -3.01192 -4.87808 0
M  V30 1090 H 98.0977 -3.77406 -4.66567 0
M  V30 1091 H 99.1677 -3.58524 -3.26479 0
M  V30 1092 N 100.511 1.16574 -1.06058 0
M  V30 1093 C 101.759 1.86677 -0.77434 0
M  V30 1094 C 102.08 1.81959 0.701147 0
M  V30 1095 O 101.35 1.2515 1.50713 0
M  V30 1096 H 99.9298 0.691134 -0.283449 0
M  V30 1097 H 102.592 1.41378 -1.34158 0
M  V30 1098 H 101.688 2.92181 -1.09711 0
M  V30 1099 N 101.989 0.842826 1.3317 0
M  V30 1100 C 102.936 0.276885 2.29133 0
M  V30 1101 C 103.906 -0.609527 1.54512 0
M  V30 1102 O 105.091 -0.546955 1.82792 0
M  V30 1103 C 102.231 -0.538707 3.40869 0
M  V30 1104 C 101.344 0.372169 4.30394 0
M  V30 1105 C 100.479 -0.454908 5.29249 0
M  V30 1106 C 99.5179 0.45411 6.10413 0
M  V30 1107 N 98.6549 -0.335075 7.013 0
M  V30 1108 H 103.495 1.10052 2.76934 0
M  V30 1109 H 101.032 0.554161 1.36262 0
M  V30 1110 H 102.99 -1.02709 4.0436 0
M  V30 1111 H 101.62 -1.32727 2.9425 0
M  V30 1112 H 100.672 0.97888 3.6759 0
M  V30 1113 H 101.984 1.0703 4.87182 0
M  V30 1114 H 101.138 -1.00695 5.98285 0
M  V30 1115 H 99.8769 -1.18646 4.73048 0
M  V30 1116 H 98.8819 1.01813 5.40291 0
M  V30 1117 H 100.107 1.18409 6.68697 0
M  V30 1118 H 98.0529 -1.04994 6.47543 0
M  V30 1119 H 97.9699 0.304262 7.55387 0
M  V30 1120 H 99.2379 -0.869224 7.74638 0
M  V30 1121 N 103.467 -1.45747 0.599634 0
M  V30 1122 C 104.716 -2.01502 0.0893511 0
M  V30 1123 C 105.029 -1.4748 -1.28488 0
M  V30 1124 O 106.235 -1.95161 -1.88745 0
M  V30 1125 C 104.691 -3.59735 0.109082 0
M  V30 1126 C 104.299 -4.22754 1.48267 0
M  V30 1127 C 106.043 -4.23085 -0.346374 0
M  V30 1128 C 103.95 -5.73115 1.45921 0
M  V30 1129 H 102.88 -0.753417 0.0296347 0
M  V30 1130 H 105.531 -1.67303 0.753788 0
M  V30 1131 H 103.913 -3.91087 -0.621854 0
M  V30 1132 H 105.087 -4.02987 2.23468 0
M  V30 1133 H 103.402 -3.71567 1.87955 0
M  V30 1134 H 105.999 -5.33327 -0.38298 0
M  V30 1135 H 106.342 -3.93201 -1.36743 0
M  V30 1136 H 106.875 -3.9642 0.331038 0
M  V30 1137 H 103.614 -6.07685 2.45762 0
M  V30 1138 H 103.134 -5.95097 0.749665 0
M  V30 1139 H 104.813 -6.3616 1.17941 0
M  V30 1140 N 104.945 -0.338344 -1.53925 0
M  V30 1141 C 105.892 0.520845 -2.24846 0
M  V30 1142 C 106.862 1.09976 -1.24477 0
M  V30 1143 O 108.047 1.13735 -1.53196 0
M  V30 1144 C 105.187 1.6685 -3.02084 0
M  V30 1145 C 104.3 1.11739 -4.17299 0
M  V30 1146 C 103.435 2.23193 -4.82036 0
M  V30 1147 C 102.474 1.65407 -5.89328 0
M  V30 1148 N 101.611 2.70582 -6.47866 0
M  V30 1149 H 106.451 -0.0904881 -2.97863 0
M  V30 1150 H 103.988 -0.0564282 -1.46992 0
M  V30 1151 H 105.946 2.34407 -3.45122 0
M  V30 1152 H 104.576 2.2509 -2.31375 0
M  V30 1153 H 103.628 0.332919 -3.7894 0
M  V30 1154 H 104.94 0.654677 -4.94485 0
M  V30 1155 H 104.094 2.98626 -5.28117 0
M  V30 1156 H 102.833 2.72807 -4.04262 0
M  V30 1157 H 101.838 0.884779 -5.42634 0
M  V30 1158 H 103.063 1.16652 -6.69006 0
M  V30 1159 H 101.009 3.1946 -5.72959 0
M  V30 1160 H 100.926 2.28917 -7.20509 0
M  V30 1161 H 102.194 3.45799 -6.98601 0
M  V30 1162 N 106.423 1.57458 -0.0668435 0
M  V30 1163 C 107.353 2.15468 0.899764 0
M  V30 1164 C 108.334 1.08042 1.31381 0
M  V30 1165 O 109.519 1.36054 1.38574 0
M  V30 1166 C 106.649 2.71232 2.16911 0
M  V30 1167 C 105.603 3.83781 1.89463 0
M  V30 1168 C 104.929 4.26127 3.22986 0
M  V30 1169 C 106.229 5.08238 1.20381 0
M  V30 1170 H 107.923 2.96488 0.416529 0
M  V30 1171 H 105.469 1.4262 0.198908 0
M  V30 1172 H 107.422 3.10458 2.84945 0
M  V30 1173 H 106.146 1.87426 2.67468 0
M  V30 1174 H 104.805 3.45051 1.23836 0
M  V30 1175 H 104.453 3.39249 3.71374 0
M  V30 1176 H 104.153 5.01993 3.05413 0
M  V30 1177 H 105.677 4.67966 3.92225 0
M  V30 1178 H 107.091 5.44811 1.78475 0
M  V30 1179 H 105.488 5.89349 1.13083 0
M  V30 1180 H 106.558 4.84558 0.182153 0
M  V30 1181 N 107.901 -0.206675 1.56239 0
M  V30 1182 C 108.849 -1.27571 1.94495 0
M  V30 1183 C 109.843 -1.47737 0.828862 0
M  V30 1184 O 111.049 -1.48735 1.0138 0
M  V30 1185 H 107.424 -0.428029 0.6183 0
M  V30 1186 H 109.395 -0.925961 2.8367 0
M  V30 1187 C 108.144 -2.61568 2.29079 0
M  V30 1188 H 107.467 -2.46863 3.14482 0
M  V30 1189 H 108.907 -3.35144 2.5972 0
M  V30 1190 C 107.366 -3.17695 1.12123 0
M  V30 1191 O 107.896 -3.99801 0.390153 0
M  V30 1192 N 106.102 -2.76276 0.901097 0
M  V30 1193 H 105.649 -2.09613 1.49733 0
M  V30 1194 H 105.607 -3.1417 0.120319 0
M  V30 1195 N 109.379 -1.50304 -0.473955 0
M  V30 1196 C 110.656 -1.51667 -1.23518 0
M  V30 1197 C 111.036 -0.259701 -2.09496 0
M  V30 1198 O 110.384 0.756986 -2.15597 0
M  V30 1199 C 110.594 -2.81082 -2.06868 0
M  V30 1200 C 111.942 -3.31631 -2.65153 0
M  V30 1201 O 112.966 -2.82384 -2.17113 0
M  V30 1202 O 111.825 -4.17471 -3.52675 0
M  V30 1203 H 108.919 -0.60822 -0.560355 0
M  V30 1204 H 111.465 -1.62592 -0.486011 0
M  V30 1205 H 110.237 -3.64041 -1.4349 0
M  V30 1206 H 109.86 -2.73146 -2.88924 0
M  V30 1207 N 110.857 0.726932 -1.39834 0
M  V30 1208 C 111.767 1.87131 -1.41489 0
M  V30 1209 C 112.783 1.71239 -0.308757 0
M  V30 1210 O 113.959 1.93701 -0.551529 0
M  V30 1211 C 111.024 3.22811 -1.26468 0
M  V30 1212 C 110.085 3.51039 -2.47124 0
M  V30 1213 C 109.318 4.80245 -2.3281 0
M  V30 1214 O 109.541 5.54537 -1.33585 0
M  V30 1215 O 108.475 5.08554 -3.21957 0
M  V30 1216 H 112.301 1.8869 -2.3797 0
M  V30 1217 H 109.886 0.875837 -1.21035 0
M  V30 1218 H 111.768 4.03877 -1.20255 0
M  V30 1219 H 110.443 3.22005 -0.330862 0
M  V30 1220 H 109.35 2.70027 -2.58914 0
M  V30 1221 H 110.683 3.56632 -3.39227 0
M  V30 1222 N 112.336 1.25143 0.95797 0
M  V30 1223 C 113.613 1.00472 1.67823 0
M  V30 1224 C 113.993 -0.470056 2.058 0
M  V30 1225 O 113.341 -1.44663 1.76875 0
M  V30 1226 C 113.551 1.9372 2.90299 0
M  V30 1227 C 114.899 2.21371 3.62326 0
M  V30 1228 O 115.923 1.91451 3.00375 0
M  V30 1229 O 114.782 2.72231 4.7387 0
M  V30 1230 H 111.876 0.380752 0.734137 0
M  V30 1231 H 114.422 1.36283 1.01119 0
M  V30 1232 H 113.194 2.93316 2.59001 0
M  V30 1233 H 112.817 1.58286 3.64735 0
M  V30 1234 N 113.814 -1.1601 1.06675 0
M  V30 1235 C 114.744 -2.22688 0.702307 0
M  V30 1236 C 115.725 -1.67306 -0.307032 0
M  V30 1237 O 116.91 -1.93352 -0.181305 0
M  V30 1238 C 114.04 -3.47178 0.092038 0
M  V30 1239 C 112.994 -4.15477 1.02777 0
M  V30 1240 C 112.32 -5.33963 0.28061 0
M  V30 1241 C 113.62 -4.66019 2.35846 0
M  V30 1242 H 115.314 -2.53429 1.59419 0
M  V30 1243 H 112.86 -1.21813 0.767961 0
M  V30 1244 H 114.813 -4.21037 -0.174814 0
M  V30 1245 H 113.537 -3.15749 -0.834877 0
M  V30 1246 H 112.196 -3.43549 1.27944 0
M  V30 1247 H 111.844 -4.98788 -0.649545 0
M  V30 1248 H 111.544 -5.806 0.904258 0
M  V30 1249 H 113.068 -6.10596 0.021396 0
M  V30 1250 H 114.482 -5.3144 2.15045 0
M  V30 1251 H 112.879 -5.23293 2.93743 0
M  V30 1252 H 113.949 -3.82023 2.98641 0
M  V30 1253 N 115.292 -0.849877 -1.32721 0
M  V30 1254 C 116.517 -0.463856 -2.02146 0
M  V30 1255 C 116.942 0.930449 -1.63476 0
M  V30 1256 O 116.3 1.61033 -0.832952 0
M  V30 1257 C 116.348 -0.604955 -3.55489 0
M  V30 1258 O 115.452 0.36425 -4.10788 0
M  V30 1259 H 114.793 -0.187046 -0.637111 0
M  V30 1260 H 117.323 -1.14775 -1.69375 0
M  V30 1261 H 117.333 -0.490696 -4.05038 0
M  V30 1262 H 116.008 -1.62174 -3.82978 0
M  V30 1263 H 114.585 0.206628 -3.72327 0
M  V30 1264 N 116.77 1.45427 -0.607355 0
M  V30 1265 C 117.68 2.34325 0.113463 0
M  V30 1266 C 118.696 1.51226 0.860617 0
M  V30 1267 O 119.872 1.84029 0.818255 0
M  V30 1268 C 116.937 3.28839 1.09844 0
M  V30 1269 C 115.998 4.27844 0.353271 0
M  V30 1270 C 115.231 5.17842 1.29133 0
M  V30 1271 O 115.454 5.11264 2.52913 0
M  V30 1272 O 114.388 5.96713 0.788523 0
M  V30 1273 H 118.214 2.97364 -0.617094 0
M  V30 1274 H 115.799 1.44807 -0.367619 0
M  V30 1275 H 117.681 3.8708 1.66575 0
M  V30 1276 H 116.356 2.68365 1.81003 0
M  V30 1277 H 115.263 3.7322 -0.256494 0
M  V30 1278 H 116.596 4.91173 -0.317822 0
M  V30 1279 N 118.248 0.346503 1.53744 0
M  V30 1280 C 119.488 -0.249413 2.02873 0
M  V30 1281 C 119.852 -1.47532 1.22876 0
M  V30 1282 O 121.053 -2.1456 1.61918 0
M  V30 1283 C 119.324 -0.552909 3.53097 0
M  V30 1284 S 120.883 -1.12521 4.24128 0
M  V30 1285 H 117.701 -0.074042 0.707134 0
M  V30 1286 H 120.303 0.48495 1.8939 0
M  V30 1287 H 119.007 0.347083 4.0893 0
M  V30 1288 H 118.538 -1.31686 3.70705 0
M  V30 1289 H 120.553 -2.41075 4.33702 0
M  V30 1290 N 119.726 -1.57421 0.075193 0
M  V30 1291 C 120.656 -2.15942 -0.888324 0
M  V30 1292 C 121.637 -1.08737 -1.30806 0
M  V30 1293 O 122.822 -1.36787 -1.37851 0
M  V30 1294 C 119.952 -2.72379 -2.1547 0
M  V30 1295 C 118.906 -3.8478 -1.87425 0
M  V30 1296 C 118.232 -4.27834 -3.20721 0
M  V30 1297 C 119.532 -5.08869 -1.17684 0
M  V30 1298 H 121.226 -2.96705 -0.400799 0
M  V30 1299 H 118.772 -1.42723 -0.191342 0
M  V30 1300 H 120.725 -3.11965 -2.83295 0
M  V30 1301 H 119.449 -1.88841 -2.6647 0
M  V30 1302 H 118.108 -3.45703 -1.22004 0
M  V30 1303 H 117.756 -3.41214 -3.6957 0
M  V30 1304 H 117.456 -5.03605 -3.02746 0
M  V30 1305 H 118.98 -4.70039 -3.89738 0
M  V30 1306 H 120.394 -5.4575 -1.75584 0
M  V30 1307 H 118.791 -5.8994 -1.09956 0
M  V30 1308 H 119.861 -4.84648 -0.156453 0
M  V30 1309 N 121.204 0.198386 -1.56346 0
M  V30 1310 C 122.154 1.2499 -1.90687 0
M  V30 1311 C 123.138 1.41158 -0.772217 0
M  V30 1312 O 124.33 1.43584 -1.03502 0
M  V30 1313 C 121.459 2.59542 -2.24706 0
M  V30 1314 C 120.545 2.47181 -3.44619 0
M  V30 1315 N 120.936 2.04495 -4.62618 0
M  V30 1316 C 119.234 2.78082 -3.48692 0
M  V30 1317 C 119.935 2.03945 -5.44776 0
M  V30 1318 N 118.911 2.45323 -4.85095 0
M  V30 1319 H 122.713 0.911149 -2.7942 0
M  V30 1320 H 120.227 0.40684 -1.57221 0
M  V30 1321 H 122.224 3.3549 -2.47491 0
M  V30 1322 H 120.884 2.94244 -1.37298 0
M  V30 1323 H 121.895 1.75256 -4.87345 0
M  V30 1324 H 118.572 3.17002 -2.71691 0
M  V30 1325 H 119.962 1.72872 -6.4928 0
M  V30 1326 N 122.682 1.50554 0.465978 0
M  V30 1327 C 123.614 1.65949 1.58093 0
M  V30 1328 C 124.627 0.540827 1.53554 0
M  V30 1329 O 125.816 0.814187 1.5885 0
M  V30 1330 C 122.916 1.63261 2.96983 0
M  V30 1331 C 122.089 2.91245 3.26336 0
M  V30 1332 C 121.148 2.8113 4.44806 0
M  V30 1333 O 120.174 3.55086 4.44862 0
M  V30 1334 N 121.376 1.95032 5.46756 0
M  V30 1335 H 124.141 2.62122 1.45301 0
M  V30 1336 H 121.702 1.48082 0.65448 0
M  V30 1337 H 123.694 1.54101 3.74212 0
M  V30 1338 H 122.264 0.748032 3.03518 0
M  V30 1339 H 121.484 3.14493 2.37672 0
M  V30 1340 H 122.772 3.76022 3.42761 0
M  V30 1341 H 122.17 1.3427 5.49534 0
M  V30 1342 H 120.727 1.91772 6.2295 0
M  V30 1343 N 124.16 -0.719506 1.40217 0
M  V30 1344 C 125.409 -1.47486 1.37589 0
M  V30 1345 C 125.722 -1.9559 -0.0201568 0
M  V30 1346 O 126.928 -2.70973 -0.169049 0
M  V30 1347 C 125.384 -2.66575 2.41796 0
M  V30 1348 C 124.992 -2.25358 3.87192 0
M  V30 1349 C 126.736 -3.4433 2.48269 0
M  V30 1350 C 124.643 -3.41262 4.83005 0
M  V30 1351 H 123.573 -0.553901 0.511576 0
M  V30 1352 H 126.224 -0.783427 1.65936 0
M  V30 1353 H 124.606 -3.3787 2.06543 0
M  V30 1354 H 125.78 -1.61509 4.31569 0
M  V30 1355 H 124.095 -1.60657 3.84159 0
M  V30 1356 H 126.692 -4.30569 3.17041 0
M  V30 1357 H 127.035 -3.87872 1.51198 0
M  V30 1358 H 127.568 -2.80076 2.82493 0
M  V30 1359 H 124.307 -3.02755 5.81394 0
M  V30 1360 H 123.827 -4.0404 4.43297 0
M  V30 1361 H 125.506 -4.07383 5.02641 0
M  V30 1362 N 125.638 -1.25649 -0.95132 0
M  V30 1363 C 126.57 -1.02112 -2.05197 0
M  V30 1364 C 127.583 0.0150571 -1.62793 0
M  V30 1365 O 128.772 -0.223874 -1.77091 0
M  V30 1366 C 125.872 -0.522361 -3.3485 0
M  V30 1367 C 125.045 -1.62546 -4.06076 0
M  V30 1368 C 124.104 -1.12649 -5.14001 0
M  V30 1369 O 123.13 -1.82156 -5.39266 0
M  V30 1370 N 124.332 0.03047 -5.80492 0
M  V30 1371 H 127.097 -1.96885 -2.25957 0
M  V30 1372 H 124.658 -1.16899 -1.1201 0
M  V30 1373 H 126.65 -0.172961 -4.0433 0
M  V30 1374 H 125.22 0.33151 -3.10837 0
M  V30 1375 H 124.44 -2.14628 -3.30649 0
M  V30 1376 H 125.728 -2.36644 -4.50419 0
M  V30 1377 H 125.126 0.611169 -5.62389 0
M  V30 1378 H 123.683 0.320875 -6.5101 0
M  V30 1379 N 127.117 1.15442 -1.07289 0
M  V30 1380 C 128.064 2.20161 -0.692653 0
M  V30 1381 C 129.034 1.63073 0.31564 0
M  V30 1382 O 130.219 1.89725 0.202235 0
M  V30 1383 C 127.359 3.44967 -0.0959509 0
M  V30 1384 C 126.472 4.16256 -1.15564 0
M  V30 1385 C 125.607 5.28609 -0.524011 0
M  V30 1386 C 124.646 5.91715 -1.56653 0
M  V30 1387 N 123.783 6.9554 -0.957531 0
M  V30 1388 H 128.623 2.52037 -1.59002 0
M  V30 1389 H 126.16 1.2378 -0.794798 0
M  V30 1390 H 128.118 4.16341 0.267628 0
M  V30 1391 H 126.748 3.1361 0.764772 0
M  V30 1392 H 125.8 3.43385 -1.6368 0
M  V30 1393 H 127.112 4.59268 -1.94613 0
M  V30 1394 H 126.266 6.06604 -0.108032 0
M  V30 1395 H 125.005 4.86787 0.29825 0
M  V30 1396 H 124.01 5.12433 -1.9923 0
M  V30 1397 H 125.235 6.35614 -2.39107 0
M  V30 1398 H 123.181 6.55814 -0.156162 0
M  V30 1399 H 123.098 7.36977 -1.68526 0
M  V30 1400 H 124.366 7.77435 -0.567032 0
M  V30 1401 N 128.595 0.856903 1.32268 0
M  V30 1402 C 129.543 0.291987 2.3076 0
M  V30 1403 C 130.537 -0.585857 1.58947 0
M  V30 1404 O 131.743 -0.47341 1.73663 0
M  V30 1405 H 128.118 0.075721 0.748178 0
M  V30 1406 H 130.089 1.13687 2.75895 0
M  V30 1407 C 128.838 -0.502869 3.44044 0
M  V30 1408 H 128.161 0.163328 3.99466 0
M  V30 1409 H 129.601 -0.863691 4.1511 0
M  V30 1410 C 128.06 -1.68898 2.91505 0
M  V30 1411 O 128.59 -2.78811 2.89184 0
M  V30 1412 N 126.796 -1.51679 2.47875 0
M  V30 1413 H 126.343 -0.622666 2.49961 0
M  V30 1414 H 126.301 -2.31184 2.13076 0
M  V30 1415 N 130.073 -1.45103 0.615059 0
M  V30 1416 C 131.02 -2.30586 -0.0993978 0
M  V30 1417 C 131.99 -1.42544 -0.852669 0
M  V30 1418 O 133.175 -1.71465 -0.836917 0
M  V30 1419 C 130.315 -3.27572 -1.08583 0
M  V30 1420 C 129.428 -4.30717 -0.332656 0
M  V30 1421 C 128.563 -5.14807 -1.30947 0
M  V30 1422 C 127.602 -6.09673 -0.544538 0
M  V30 1423 N 126.739 -6.86517 -1.47101 0
M  V30 1424 H 131.579 -2.91144 0.635542 0
M  V30 1425 H 129.116 -1.4346 0.325206 0
M  V30 1426 H 131.074 -3.82276 -1.67095 0
M  V30 1427 H 129.704 -2.68751 -1.78809 0
M  V30 1428 H 128.756 -3.78615 0.368107 0
M  V30 1429 H 130.068 -4.98102 0.263842 0
M  V30 1430 H 129.222 -5.73948 -1.96643 0
M  V30 1431 H 127.961 -4.47458 -1.9399 0
M  V30 1432 H 126.966 -5.49656 0.126003 0
M  V30 1433 H 128.191 -6.79052 0.080947 0
M  V30 1434 H 126.137 -6.21851 -2.08895 0
M  V30 1435 H 126.054 -7.50281 -0.928137 0
M  V30 1436 H 127.322 -7.50194 -2.11731 0
M  V30 1437 N 131.551 -0.354651 -1.53558 0
M  V30 1438 C 132.461 0.50515 -2.29097 0
M  V30 1439 C 133.477 1.10223 -1.34636 0
M  V30 1440 O 134.653 1.11553 -1.67684 0
M  V30 1441 C 131.718 1.63479 -3.05738 0
M  V30 1442 C 130.779 1.06636 -4.15845 0
M  V30 1443 C 130.012 2.14217 -4.88822 0
M  V30 1444 O 130.235 3.35137 -4.61562 0
M  V30 1445 O 129.169 1.77887 -5.75013 0
M  V30 1446 H 132.995 -0.109237 -3.03503 0
M  V30 1447 H 130.58 -0.119357 -1.48922 0
M  V30 1448 H 132.462 2.2918 -3.5363 0
M  V30 1449 H 131.137 2.23478 -2.34178 0
M  V30 1450 H 130.044 0.373565 -3.7223 0
M  V30 1451 H 131.377 0.511081 -4.89539 0
M  V30 1452 N 133.029 1.57378 -0.0835403 0
M  V30 1453 C 134.306 1.85363 0.624507 0
M  V30 1454 C 134.686 0.978239 1.87066 0
M  V30 1455 O 134.034 0.0475908 2.2845 0
M  V30 1456 C 134.244 3.35795 0.950947 0
M  V30 1457 C 135.592 4.03581 1.31939 0
M  V30 1458 O 136.616 3.40609 1.04232 0
M  V30 1459 O 135.475 5.14672 1.83779 0
M  V30 1460 H 132.569 0.766162 0.311329 0
M  V30 1461 H 135.115 1.69307 -0.115362 0
M  V30 1462 H 133.887 3.91244 0.0663899 0
M  V30 1463 H 133.51 3.57154 1.74719 0
M  V30 1464 N 134.507 -0.190092 1.56449 0
M  V30 1465 C 135.756 -0.907912 1.80111 0
M  V30 1466 C 136.069 -1.84214 0.657619 0
M  V30 1467 O 137.275 -2.60094 0.778663 0
M  V30 1468 C 135.731 -1.66485 3.19078 0
M  V30 1469 C 135.339 -0.7752 4.41242 0
M  V30 1470 C 137.083 -2.37201 3.52045 0
M  V30 1471 C 134.99 -1.53129 5.71231 0
M  V30 1472 H 133.92 -0.34276 0.671589 0
M  V30 1473 H 136.571 -0.161109 1.82791 0
M  V30 1474 H 134.953 -2.45572 3.10661 0
M  V30 1475 H 136.127 -0.0226298 4.60794 0
M  V30 1476 H 134.442 -0.178627 4.16017 0
M  V30 1477 H 137.039 -2.94329 4.46402 0
M  V30 1478 H 137.382 -3.11632 2.76028 0
M  V30 1479 H 137.915 -1.65075 3.61932 0
M  V30 1480 H 134.654 -0.82967 6.50228 0
M  V30 1481 H 134.174 -2.25767 5.55688 0
M  V30 1482 H 135.853 -2.08377 6.12526 0
M  V30 1483 N 135.985 -1.50799 -0.457987 0
M  V30 1484 C 137.234 -1.6168 -1.20593 0
M  V30 1485 C 137.547 -0.32888 -1.92815 0
M  V30 1486 O 138.753 -0.316773 -2.69646 0
M  V30 1487 C 137.209 -2.8545 -2.19195 0
M  V30 1488 C 136.817 -4.21168 -1.52715 0
M  V30 1489 C 138.561 -3.05681 -2.94549 0
M  V30 1490 C 136.468 -5.3611 -2.4968 0
M  V30 1491 H 135.398 -0.602134 -0.453818 0
M  V30 1492 H 138.049 -1.77245 -0.475031 0
M  V30 1493 H 136.431 -2.63472 -2.95632 0
M  V30 1494 H 137.605 -4.53449 -0.819775 0
M  V30 1495 H 135.92 -4.06648 -0.895922 0
M  V30 1496 H 138.517 -3.88727 -3.67145 0
M  V30 1497 H 138.86 -2.17929 -3.54701 0
M  V30 1498 H 139.393 -3.27901 -2.25223 0
M  V30 1499 H 136.132 -6.26057 -1.94249 0
M  V30 1500 H 135.652 -5.0823 -3.18532 0
M  V30 1501 H 137.331 -5.6722 -3.11241 0
M  V30 1502 N 137.463 0.71206 -1.40597 0
M  V30 1503 C 138.373 1.8562 -1.43466 0
M  V30 1504 C 139.389 1.70902 -0.326902 0
M  V30 1505 O 140.565 1.93105 -0.572043 0
M  V30 1506 C 137.63 3.21451 -1.29884 0
M  V30 1507 C 136.691 3.48398 -2.50833 0
M  V30 1508 C 135.924 4.77749 -2.3789 0
M  V30 1509 O 136.147 5.53089 -1.39459 0
M  V30 1510 O 135.081 5.05111 -3.27333 0
M  V30 1511 H 138.907 1.86155 -2.39958 0
M  V30 1512 H 136.492 0.86295 -1.21957 0
M  V30 1513 H 138.374 4.02579 -1.24531 0
M  V30 1514 H 137.049 3.21636 -0.364997 0
M  V30 1515 H 135.956 2.67265 -2.61763 0
M  V30 1516 H 137.289 3.53014 -3.4299 0
M  V30 1517 N 138.941 1.26152 0.944643 0
M  V30 1518 C 139.871 1.09902 2.06019 0
M  V30 1519 C 140.852 0.00519538 1.70099 0
M  V30 1520 O 142.037 0.176583 1.93396 0
M  V30 1521 C 139.167 0.727562 3.39594 0
M  V30 1522 C 138.121 1.77274 3.89561 0
M  V30 1523 C 137.447 1.25569 5.19747 0
M  V30 1524 C 138.747 3.17357 4.14827 0
M  V30 1525 H 140.441 2.03217 2.19871 0
M  V30 1526 H 137.987 0.978452 1.05652 0
M  V30 1527 H 139.94 0.600777 4.17095 0
M  V30 1528 H 138.664 -0.241287 3.25707 0
M  V30 1529 H 137.323 1.88814 3.14237 0
M  V30 1530 H 136.971 0.276783 5.02238 0
M  V30 1531 H 136.671 1.95433 5.54148 0
M  V30 1532 H 138.195 1.1415 5.99835 0
M  V30 1533 H 139.609 3.08914 4.82954 0
M  V30 1534 H 138.006 3.84781 4.60504 0
M  V30 1535 H 139.076 3.63673 3.20734 0
M  V30 1536 N 140.419 -1.14872 1.07899 0
M  V30 1537 C 141.366 -2.19791 0.704319 0
M  V30 1538 C 142.336 -1.63238 -0.306987 0
M  V30 1539 O 143.521 -1.8983 -0.192171 0
M  V30 1540 C 140.661 -3.44911 0.114244 0
M  V30 1541 C 139.774 -4.15637 1.1777 0
M  V30 1542 C 138.909 -5.28324 0.552037 0
M  V30 1543 C 137.948 -5.90875 1.59789 0
M  V30 1544 N 137.085 -6.95022 0.994404 0
M  V30 1545 H 141.925 -2.5119 1.60336 0
M  V30 1546 H 139.462 -1.23356 0.801352 0
M  V30 1547 H 141.42 -4.16477 -0.245544 0
M  V30 1548 H 140.05 -3.14011 -0.74813 0
M  V30 1549 H 139.102 -3.42512 1.65499 0
M  V30 1550 H 140.414 -4.5823 1.97046 0
M  V30 1551 H 139.568 -6.06538 0.1402 0
M  V30 1552 H 138.307 -4.86939 -0.272431 0
M  V30 1553 H 137.312 -5.11369 2.01945 0
M  V30 1554 H 138.537 -6.34337 2.42474 0
M  V30 1555 H 136.483 -6.55722 0.190939 0
M  V30 1556 H 136.4 -7.36073 1.72432 0
M  V30 1557 H 137.668 -7.77123 0.608253 0
M  V30 1558 N 141.898 -0.863906 -1.31812 0
M  V30 1559 C 143.146 -0.470904 -1.96537 0
M  V30 1560 C 143.467 0.978771 -1.68657 0
M  V30 1561 O 142.737 1.6853 -0.998717 0
M  V30 1562 H 141.317 -0.171148 -0.72713 0
M  V30 1563 H 143.979 -1.10236 -1.60729 0
M  V30 1564 H 143.075 -0.623616 -3.05806 0
M  V30 1565 N 143.376 1.44774 -0.622745 0
M  V30 1566 C 144.601 2.06999 -0.128968 0
M  V30 1567 C 145.026 1.4617 1.1839 0
M  V30 1568 O 144.384 0.560007 1.72434 0
M  V30 1569 C 144.432 3.60595 -0.0188351 0
M  V30 1570 O 143.536 3.99398 1.02739 0
M  V30 1571 H 142.877 0.659047 -0.0809544 0
M  V30 1572 H 145.407 1.85784 -0.85705 0
M  V30 1573 H 145.417 4.07627 0.174476 0
M  V30 1574 H 144.092 4.04252 -0.977384 0
M  V30 1575 H 142.669 3.64011 0.809326 0
M  V30 1576 N 144.854 0.36279 1.53368 0
M  V30 1577 C 145.817 -0.472679 2.24273 0
M  V30 1578 C 146.817 -1.012 1.24961 0
M  V30 1579 O 148.007 -0.898194 1.49259 0
M  V30 1580 C 145.139 -1.66039 2.97731 0
M  V30 1581 H 146.332 0.14773 2.99536 0
M  V30 1582 H 143.885 0.114434 1.55881 0
M  V30 1583 H 144.62 -2.31896 2.26704 0
M  V30 1584 H 144.405 -1.28066 3.70596 0
M  V30 1585 H 145.895 -2.25252 3.51641 0
M  V30 1586 N 146.332 -1.57332 0.0918853 0
M  V30 1587 C 147.581 -1.93412 -0.572249 0
M  V30 1588 C 147.894 -0.975515 -1.69538 0
M  V30 1589 O 149.1 -1.22991 -2.42045 0
M  V30 1590 C 147.556 -3.43648 -1.0693 0
M  V30 1591 C 147.164 -4.47994 0.0239049 0
M  V30 1592 C 148.908 -3.88695 -1.70635 0
M  V30 1593 C 146.815 -5.89381 -0.488319 0
M  V30 1594 H 145.745 -0.721939 -0.217532 0
M  V30 1595 H 148.396 -1.82735 0.167369 0
M  V30 1596 H 146.778 -3.49466 -1.8625 0
M  V30 1597 H 147.952 -4.53815 0.799277 0
M  V30 1598 H 146.267 -4.12536 0.565946 0
M  V30 1599 H 148.864 -4.91725 -2.10025 0
M  V30 1600 H 149.207 -3.27166 -2.57426 0
M  V30 1601 H 149.74 -3.85564 -0.979023 0
M  V30 1602 H 146.479 -6.54602 0.342906 0
M  V30 1603 H 145.999 -5.87037 -1.23077 0
M  V30 1604 H 147.678 -6.39863 -0.958317 0
M  V30 1605 N 147.81 0.181792 -1.56548 0
M  V30 1606 C 149.058 0.89832 -1.81038 0
M  V30 1607 C 149.379 1.83232 -0.667164 0
M  V30 1608 O 148.649 1.93372 0.313673 0
M  V30 1609 H 147.229 0.33471 -0.667816 0
M  V30 1610 H 149.891 0.184116 -1.94028 0
M  V30 1611 H 148.987 1.4815 -2.74696 0
M  V30 1612 N 149.288 1.51039 0.449983 0
M  V30 1613 C 150.218 1.74379 1.55288 0
M  V30 1614 C 151.199 0.593236 1.5942 0
M  V30 1615 O 152.384 0.834625 1.7535 0
M  V30 1616 C 149.514 1.85728 2.93466 0
M  V30 1617 C 148.468 3.01078 3.04197 0
M  V30 1618 C 147.794 2.97595 4.44231 0
M  V30 1619 C 149.094 4.41254 2.7945 0
M  V30 1620 H 150.788 2.66725 1.36008 0
M  V30 1621 H 148.334 1.2835 0.652864 0
M  V30 1622 H 150.287 2.0064 3.70569 0
M  V30 1623 H 149.011 0.900207 3.13949 0
M  V30 1624 H 147.67 2.85851 2.29531 0
M  V30 1625 H 147.318 1.99691 4.61663 0
M  V30 1626 H 147.018 3.75046 4.52343 0
M  V30 1627 H 148.542 3.14583 5.23326 0
M  V30 1628 H 149.956 4.56897 3.46292 0
M  V30 1629 H 148.353 5.20315 2.98985 0
M  V30 1630 H 149.423 4.52164 1.75144 0
M  V30 1631 N 150.766 -0.704594 1.40972 0
M  V30 1632 C 152.177 -1.28418 1.3552 0
M  V30 1633 C 152.528 -1.96171 0.0339434 0
M  V30 1634 O 151.653 -1.98231 -0.867944 0
M  V30 1635 C 152.248 -2.33528 2.45459 0
M  V30 1636 C 150.807 -2.87085 2.43433 0
M  V30 1637 C 149.954 -1.61007 2.2577 0
M  V30 1638 H 152.905 -0.499963 1.50619 0
M  V30 1639 H 152.926 -3.14619 2.13998 0
M  V30 1640 H 152.438 -1.84187 3.41609 0
M  V30 1641 H 150.539 -3.40626 1.51013 0
M  V30 1642 H 150.652 -3.3813 3.39419 0
M  V30 1643 H 149.016 -1.86482 1.73483 0
M  V30 1644 H 149.799 -1.13675 3.23933 0
M  V30 1645 N 152.244 -1.26651 -0.937939 0
M  V30 1646 C 153.176 -1.04283 -2.04102 0
M  V30 1647 C 154.189 -0.00221014 -1.628 0
M  V30 1648 O 155.378 -0.242645 -1.76843 0
M  V30 1649 C 152.478 -0.557846 -3.34277 0
M  V30 1650 C 151.651 -1.66843 -4.04329 0
M  V30 1651 C 150.71 -1.18095 -5.12777 0
M  V30 1652 O 149.736 -1.87865 -5.37304 0
M  V30 1653 N 150.938 -0.0311006 -5.80492 0
M  V30 1654 H 153.703 -1.9927 -2.23856 0
M  V30 1655 H 151.264 -1.1808 -1.10764 0
M  V30 1656 H 153.256 -0.215836 -4.04124 0
M  V30 1657 H 151.826 0.298523 -3.11171 0
M  V30 1658 H 151.046 -2.18123 -3.28353 0
M  V30 1659 H 152.334 -2.41408 -4.47883 0
M  V30 1660 H 151.732 0.551486 -5.63005 0
M  V30 1661 H 150.289 0.251809 -6.51313 0
M  V30 1662 N 153.722 1.14298 -1.08507 0
M  V30 1663 C 154.67 2.21483 -0.710483 0
M  V30 1664 C 155.664 1.66998 0.284234 0
M  V30 1665 O 156.87 1.79401 0.146692 0
M  V30 1666 H 153.245 0.721578 -0.211729 0
M  V30 1667 H 155.216 2.50348 -1.62384 0
M  V30 1668 C 153.965 3.4743 -0.137007 0
M  V30 1669 H 153.288 3.89686 -0.893592 0
M  V30 1670 H 154.728 4.2391 0.0872789 0
M  V30 1671 C 153.187 3.17548 1.12538 0
M  V30 1672 O 153.717 3.35437 2.21009 0
M  V30 1673 N 151.923 2.71499 1.03617 0
M  V30 1674 H 151.47 2.57143 0.153403 0
M  V30 1675 H 151.428 2.51881 1.88158 0
M  V30 1676 N 155.201 0.870884 1.31352 0
M  V30 1677 C 156.45 0.478408 1.95944 0
M  V30 1678 C 156.763 -0.974493 1.69597 0
M  V30 1679 O 157.969 -1.47316 2.28058 0
M  V30 1680 C 156.425 0.804609 3.50791 0
M  V30 1681 C 156.033 2.27433 3.85977 0
M  V30 1682 C 157.777 0.480648 4.2177 0
M  V30 1683 C 155.684 2.5429 5.33939 0
M  V30 1684 H 154.614 0.175175 0.733369 0
M  V30 1685 H 157.265 1.06391 1.4951 0
M  V30 1686 H 155.647 0.148347 3.95722 0
M  V30 1687 H 156.821 2.97373 3.52002 0
M  V30 1688 H 155.136 2.56442 3.28065 0
M  V30 1689 H 157.733 0.658519 5.30629 0
M  V30 1690 H 158.076 -0.578979 4.12254 0
M  V30 1691 H 158.609 1.09349 3.82476 0
M  V30 1692 H 155.348 3.58939 5.48491 0
M  V30 1693 H 154.868 1.88945 5.69263 0
M  V30 1694 H 156.547 2.39066 6.01212 0
M  V30 1695 N 156.679 -1.44442 0.630414 0
M  V30 1696 C 157.904 -2.06927 0.139944 0
M  V30 1697 C 158.329 -1.46795 -1.17613 0
M  V30 1698 O 157.687 -0.569144 -1.72135 0
M  V30 1699 C 157.735 -3.6058 0.0379581 0
M  V30 1700 O 156.839 -3.99937 -1.0062 0
M  V30 1701 H 156.18 -0.658608 0.0844483 0
M  V30 1702 H 158.71 -1.85327 0.866891 0
M  V30 1703 H 158.72 -4.07714 -0.152856 0
M  V30 1704 H 157.395 -4.03728 0.998809 0
M  V30 1705 H 155.972 -3.64436 -0.79001 0
M  V30 1706 N 158.157 -0.370918 -1.53173 0
M  V30 1707 C 159.382 0.220293 -2.06227 0
M  V30 1708 C 159.807 1.41243 -1.24225 0
M  V30 1709 O 159.165 1.79387 -0.262645 0
M  V30 1710 C 159.213 0.586663 -3.55796 0
M  V30 1711 O 158.317 1.68317 -3.76488 0
M  V30 1712 H 157.658 0.0308099 -0.663285 0
M  V30 1713 H 160.188 -0.533068 -1.97534 0
M  V30 1714 H 160.198 0.85617 -3.98916 0
M  V30 1715 H 158.873 -0.285013 -4.14922 0
M  V30 1716 H 157.45 1.40881 -3.45264 0
M  V30 1717 N 159.635 1.57281 -0.100228 0
M  V30 1718 C 160.567 2.11342 0.886972 0
M  V30 1719 C 161.58 1.05182 1.24261 0
M  V30 1720 O 162.769 1.32613 1.19483 0
M  V30 1721 C 159.869 2.5825 2.19454 0
M  V30 1722 C 159.042 3.88302 2.01346 0
M  V30 1723 C 158.101 4.21004 3.15661 0
M  V30 1724 O 157.127 4.9014 2.89398 0
M  V30 1725 N 158.329 3.76818 4.41575 0
M  V30 1726 H 161.094 2.96668 0.425216 0
M  V30 1727 H 158.655 1.61678 0.0847334 0
M  V30 1728 H 160.647 2.7717 2.94888 0
M  V30 1729 H 159.217 1.77907 2.57037 0
M  V30 1730 H 158.437 3.7848 1.10212 0
M  V30 1731 H 159.725 4.73375 1.8653 0
M  V30 1732 H 159.123 3.2102 4.65792 0
M  V30 1733 H 157.68 4.00882 5.13942 0
M  V30 1734 N 161.113 -0.173488 1.56642 0
M  V30 1735 C 162.362 -0.888758 1.81063 0
M  V30 1736 C 162.675 -1.83506 0.67712 0
M  V30 1737 O 163.881 -2.59254 0.806206 0
M  V30 1738 C 162.337 -1.63091 3.20826 0
M  V30 1739 C 161.945 -0.728357 4.4204 0
M  V30 1740 C 163.689 -2.33454 3.54541 0
M  V30 1741 C 161.596 -1.47062 5.72823 0
M  V30 1742 H 160.526 -0.335618 0.675186 0
M  V30 1743 H 163.177 -0.141712 1.82952 0
M  V30 1744 H 161.559 -2.42263 3.13248 0
M  V30 1745 H 162.733 0.0262449 4.60793 0
M  V30 1746 H 161.048 -0.134492 4.16183 0
M  V30 1747 H 163.645 -2.89578 4.49498 0
M  V30 1748 H 163.988 -3.08687 2.79317 0
M  V30 1749 H 164.521 -1.61227 3.63663 0
M  V30 1750 H 161.26 -0.760658 6.51072 0
M  V30 1751 H 160.78 -2.1986 5.58052 0
M  V30 1752 H 162.459 -2.01868 6.14702 0
M  V30 1753 N 162.591 -1.51276 -0.441967 0
M  V30 1754 C 163.821 -1.67273 -1.21257 0
M  V30 1755 C 164.229 -0.367624 -1.85594 0
M  V30 1756 O 163.572 0.663349 -1.71305 0
M  V30 1757 C 163.634 -2.72807 -2.34129 0
M  V30 1758 C 163.298 -4.1554 -1.90198 0
M  V30 1759 C 164.295 -5.00471 -1.40801 0
M  V30 1760 C 161.98 -4.61616 -1.9803 0
M  V30 1761 C 163.974 -6.29536 -0.998174 0
M  V30 1762 C 161.661 -5.90679 -1.56658 0
M  V30 1763 C 162.659 -6.74466 -1.07633 0
M  V30 1764 O 162.347 -8.01116 -0.668459 0
M  V30 1765 H 162.079 -0.564614 -0.371734 0
M  V30 1766 H 164.633 -1.9843 -0.530521 0
M  V30 1767 H 162.863 -2.36954 -3.05597 0
M  V30 1768 H 164.552 -2.77729 -2.96009 0
M  V30 1769 H 165.318 -4.66079 -1.34148 0
M  V30 1770 H 161.197 -3.96526 -2.35135 0
M  V30 1771 H 164.741 -6.94885 -0.61482 0
M  V30 1772 H 160.638 -6.24586 -1.62979 0
M  V30 1773 H 161.406 -8.14633 -0.794722 0
M  V30 1774 N 164.069 0.697108 -1.41344 0
M  V30 1775 C 165.001 1.8224 -1.39001 0
M  V30 1776 C 166.014 1.60152 -0.292428 0
M  V30 1777 O 167.203 1.69684 -0.554048 0
M  V30 1778 C 164.303 3.18976 -1.14489 0
M  V30 1779 C 163.476 3.68105 -2.36258 0
M  V30 1780 C 162.535 4.83506 -2.07625 0
M  V30 1781 O 161.561 4.95201 -2.8065 0
M  V30 1782 N 162.763 5.70637 -1.06555 0
M  V30 1783 H 165.528 1.84742 -2.35988 0
M  V30 1784 H 163.089 0.87937 -1.35936 0
M  V30 1785 H 165.081 3.93801 -0.932885 0
M  V30 1786 H 163.651 3.11508 -0.261043 0
M  V30 1787 H 162.871 2.84204 -2.7317 0
M  V30 1788 H 164.159 3.97667 -3.17393 0
M  V30 1789 H 163.557 5.63817 -0.461125 0
M  V30 1790 H 162.114 6.45368 -0.913444 0
M  V30 1791 N 165.547 1.27147 0.931209 0
M  V30 1792 C 166.477 1.12081 2.04842 0
M  V30 1793 C 167.458 0.0232364 1.70084 0
M  V30 1794 O 168.643 0.197085 1.93197 0
M  V30 1795 C 165.773 0.76354 3.38803 0
M  V30 1796 C 164.727 1.81396 3.87659 0
M  V30 1797 C 164.053 1.31075 5.18385 0
M  V30 1798 C 165.353 3.21739 4.11438 0
M  V30 1799 H 167.047 2.05537 2.17703 0
M  V30 1800 H 164.593 0.989603 1.04608 0
M  V30 1801 H 166.546 0.644982 4.16435 0
M  V30 1802 H 165.27 -0.206727 3.25945 0
M  V30 1803 H 163.929 1.92136 3.12217 0
M  V30 1804 H 163.577 0.330037 5.01916 0
M  V30 1805 H 163.277 2.013 5.52044 0
M  V30 1806 H 164.801 1.20506 5.98591 0
M  V30 1807 H 166.215 3.14019 4.79651 0
M  V30 1808 H 164.612 3.89644 4.56397 0
M  V30 1809 H 165.682 3.67054 3.16859 0
M  V30 1810 N 167.025 -1.13721 1.09112 0
M  V30 1811 C 167.973 -2.21103 0.722219 0
M  V30 1812 C 168.967 -1.67147 -0.275374 0
M  V30 1813 O 170.173 -1.79477 -0.137176 0
M  V30 1814 H 166.548 -0.720445 0.215553 0
M  V30 1815 H 168.519 -2.49483 1.63709 0
M  V30 1816 C 167.268 -3.47352 0.15543 0
M  V30 1817 H 166.591 -3.89206 0.914246 0
M  V30 1818 H 168.031 -4.2395 -0.0647967 0
M  V30 1819 C 166.49 -3.1814 -1.10852 0
M  V30 1820 O 167.02 -3.36604 -2.19227 0
M  V30 1821 N 165.226 -2.72045 -1.02176 0
M  V30 1822 H 164.773 -2.57221 -0.139764 0
M  V30 1823 H 164.731 -2.52875 -1.8682 0
M  V30 1824 N 168.503 -0.877838 -1.30888 0
M  V30 1825 C 169.728 -0.506629 -2.01117 0
M  V30 1826 C 170.153 0.895564 -1.65412 0
M  V30 1827 O 169.511 1.5923 -0.866922 0
M  V30 1828 C 169.559 -0.680223 -3.54126 0
M  V30 1829 O 168.663 0.277033 -4.11468 0
M  V30 1830 H 168.004 -0.200518 -0.633 0
M  V30 1831 H 170.534 -1.18342 -1.66902 0
M  V30 1832 H 170.544 -0.5765 -4.03907 0
M  V30 1833 H 169.219 -1.70261 -3.79452 0
M  V30 1834 H 167.796 0.127606 -3.72682 0
M  V30 1835 N 169.982 1.44106 -0.638065 0
M  V30 1836 C 170.929 2.30715 0.062701 0
M  V30 1837 C 171.899 1.43882 0.829883 0
M  V30 1838 O 173.084 1.72775 0.809532 0
M  V30 1839 C 170.224 3.29258 1.03358 0
M  V30 1840 C 169.337 4.31192 0.26409 0
M  V30 1841 C 168.472 5.16825 1.22741 0
M  V30 1842 C 167.511 6.10462 0.447475 0
M  V30 1843 N 166.648 6.8877 1.36161 0
M  V30 1844 H 171.488 2.90096 -0.681781 0
M  V30 1845 H 169.025 1.42925 -0.347988 0
M  V30 1846 H 170.983 3.84886 1.60992 0
M  V30 1847 H 169.613 2.71562 1.74511 0
M  V30 1848 H 168.665 3.77981 -0.428295 0
M  V30 1849 H 169.977 4.97619 -0.343052 0
M  V30 1850 H 169.131 5.77004 1.87487 0
M  V30 1851 H 167.87 4.50488 1.86847 0
M  V30 1852 H 166.875 5.49386 -0.213433 0
M  V30 1853 H 168.1 6.78837 -0.188968 0
M  V30 1854 H 166.046 6.25096 1.98975 0
M  V30 1855 H 165.963 7.51663 0.808656 0
M  V30 1856 H 167.231 7.53467 1.99769 0
M  V30 1857 N 171.46 0.379036 1.52974 0
M  V30 1858 C 172.39 -0.452706 2.29069 0
M  V30 1859 C 173.371 -1.07237 1.32039 0
M  V30 1860 O 174.556 -1.08708 1.60923 0
M  V30 1861 C 171.686 -1.5856 3.08992 0
M  V30 1862 C 170.64 -1.0925 4.13822 0
M  V30 1863 C 169.966 -2.31668 4.81907 0
M  V30 1864 C 171.266 -0.167702 5.22031 0
M  V30 1865 H 172.96 0.182181 2.98845 0
M  V30 1866 H 170.506 0.0890592 1.43724 0
M  V30 1867 H 172.459 -2.1742 3.6098 0
M  V30 1868 H 171.183 -2.24792 2.36931 0
M  V30 1869 H 169.842 -0.526494 3.628 0
M  V30 1870 H 169.49 -2.96386 4.06404 0
M  V30 1871 H 169.19 -1.9934 5.52754 0
M  V30 1872 H 170.714 -2.91189 5.36695 0
M  V30 1873 H 172.128 -0.664186 5.6944 0
M  V30 1874 H 170.525 0.0653265 6.00064 0
M  V30 1875 H 171.595 0.786347 4.78482 0
M  V30 1876 N 172.938 -1.57226 0.108567 0
M  V30 1877 C 174.184 -1.95121 -0.552761 0
M  V30 1878 C 174.517 -0.991345 -1.66991 0
M  V30 1879 O 173.792 -0.0267211 -1.94482 0
M  V30 1880 C 174.075 -3.43039 -1.09528 0
M  V30 1881 C 173.928 -4.49797 0.0177332 0
M  V30 1882 C 175.247 -3.92567 -1.98945 0
M  V30 1883 H 172.366 -0.709496 -0.199461 0
M  V30 1884 H 175.008 -1.89126 0.182011 0
M  V30 1885 H 173.158 -3.48279 -1.72146 0
M  V30 1886 H 174.83 -4.56661 0.652584 0
M  V30 1887 H 173.073 -4.284 0.682309 0
M  V30 1888 H 173.744 -5.50528 -0.402919 0
M  V30 1889 H 176.22 -3.89565 -1.46214 0
M  V30 1890 H 175.096 -4.96605 -2.33827 0
M  V30 1891 H 175.357 -3.32648 -2.91201 0
M  V30 1892 N 174.416 0.165178 -1.56732 0
M  V30 1893 C 175.693 0.908443 -1.73224 0
M  V30 1894 C 176.073 2.0013 -0.67165 0
M  V30 1895 O 175.421 2.26353 0.31253 0
M  V30 1896 C 175.631 1.46756 -3.16644 0
M  V30 1897 C 176.979 1.93809 -3.77787 0
M  V30 1898 O 178.003 1.56537 -3.1996 0
M  V30 1899 O 176.862 2.62486 -4.79336 0
M  V30 1900 H 173.956 0.428025 -0.707618 0
M  V30 1901 H 176.502 0.152526 -1.69013 0
M  V30 1902 H 175.274 0.68129 -3.85323 0
M  V30 1903 H 174.897 2.28749 -3.25207 0
M  V30 1904 N 175.894 1.51508 0.433938 0
M  V30 1905 C 176.824 1.76016 1.53429 0
M  V30 1906 C 177.805 0.610112 1.58782 0
M  V30 1907 O 178.99 0.853177 1.74455 0
M  V30 1908 C 176.12 1.88831 2.9148 0
M  V30 1909 C 175.074 3.04288 3.00987 0
M  V30 1910 C 174.4 3.0229 4.4105 0
M  V30 1911 C 175.7 4.44193 2.74754 0
M  V30 1912 H 177.394 2.68152 1.33171 0
M  V30 1913 H 174.94 1.29035 0.639214 0
M  V30 1914 H 176.893 2.04559 3.6842 0
M  V30 1915 H 175.617 0.933455 3.12976 0
M  V30 1916 H 174.276 2.8827 2.26486 0
M  V30 1917 H 173.924 2.04576 4.59519 0
M  V30 1918 H 173.624 3.79822 4.4834 0
M  V30 1919 H 175.148 3.20116 5.1996 0
M  V30 1920 H 176.562 4.60544 3.41426 0
M  V30 1921 H 174.959 5.23457 2.9345 0
M  V30 1922 H 176.029 4.53996 1.70339 0
M  V30 1923 N 177.372 -0.689602 1.41712 0
M  V30 1924 C 178.282 -1.83314 1.46401 0
M  V30 1925 C 179.298 -1.7036 0.35405 0
M  V30 1926 O 180.474 -1.92171 0.602692 0
M  V30 1927 C 177.539 -3.19344 1.34982 0
M  V30 1928 C 176.6 -3.44363 2.56344 0
M  V30 1929 C 175.833 -4.73904 2.45461 0
M  V30 1930 O 176.056 -5.508 1.48241 0
M  V30 1931 O 174.99 -4.99839 3.35328 0
M  V30 1932 H 178.816 -1.82314 2.42889 0
M  V30 1933 H 176.401 -0.843438 1.23315 0
M  V30 1934 H 178.283 -4.00547 1.3092 0
M  V30 1935 H 176.958 -3.21014 0.41612 0
M  V30 1936 H 175.865 -2.63067 2.65982 0
M  V30 1937 H 177.198 -3.47512 3.48563 0
M  V30 1938 N 178.85 -1.27639 -0.924453 0
M  V30 1939 C 180.266 -1.05113 -1.20097 0
M  V30 1940 C 180.466 0.213262 -2.00368 0
M  V30 1941 O 179.522 0.91787 -2.35226 0
M  V30 1942 C 180.835 -2.29244 -1.94596 0
M  V30 1943 C 182.383 -2.34315 -2.07522 0
M  V30 1944 C 182.858 -3.58183 -2.85427 0
M  V30 1945 N 184.349 -3.5876 -2.92994 0
M  V30 1946 C 185.084 -4.51277 -3.53746 0
M  V30 1947 N 184.58 -5.54102 -4.15863 0
M  V30 1948 N 186.373 -4.38894 -3.51181 0
M  V30 1949 H 178.524 -2.08821 -0.388264 0
M  V30 1950 H 180.787 -0.918568 -0.234385 0
M  V30 1951 H 180.493 -3.21301 -1.43034 0
M  V30 1952 H 180.367 -2.34816 -2.95197 0
M  V30 1953 H 182.754 -1.42762 -2.58269 0
M  V30 1954 H 182.835 -2.32744 -1.06131 0
M  V30 1955 H 182.479 -4.50074 -2.35363 0
M  V30 1956 H 182.409 -3.57006 -3.8711 0
M  V30 1957 H 184.9 -2.84398 -2.4885 0
M  V30 1958 H 185.213 -6.20859 -4.60168 0
M  V30 1959 H 183.558 -5.57941 -4.144 0
M  V30 1960 H 186.749 -3.57772 -3.01856 0
M  V30 1961 H 186.922 -5.11186 -3.98237 0
M  V30 1962 N 180.328 1.1314 -1.09713 0
M  V30 1963 C 181.275 2.18642 -0.739196 0
M  V30 1964 C 182.245 1.63706 0.280978 0
M  V30 1965 O 183.43 1.90111 0.161946 0
M  V30 1966 C 180.57 3.44685 -0.169102 0
M  V30 1967 C 179.683 4.13711 -1.24367 0
M  V30 1968 C 178.818 5.27379 -0.636019 0
M  V30 1969 C 177.857 5.88259 -1.69169 0
M  V30 1970 N 176.994 6.93352 -1.10485 0
M  V30 1971 H 181.834 2.48607 -1.64312 0
M  V30 1972 H 179.371 1.22066 -0.820875 0
M  V30 1973 H 181.329 4.16815 0.179256 0
M  V30 1974 H 179.959 3.15161 0.698079 0
M  V30 1975 H 179.011 3.39835 -1.70927 0
M  V30 1976 H 180.323 4.55037 -2.04311 0
M  V30 1977 H 179.477 6.06238 -0.236677 0
M  V30 1978 H 178.216 4.8731 0.194928 0
M  V30 1979 H 177.221 5.08092 -2.10055 0
M  V30 1980 H 178.446 6.30399 -2.52536 0
M  V30 1981 H 176.392 6.55335 -0.295234 0
M  V30 1982 H 176.309 7.33236 -1.84121 0
M  V30 1983 H 177.577 7.76057 -0.73181 0
M  V30 1984 N 181.806 0.884767 1.30421 0
M  V30 1985 C 183.053 0.503105 1.96151 0
M  V30 1986 C 183.381 -0.947676 1.69851 0
M  V30 1987 O 182.636 -1.68467 0.995861 0
M  V30 1988 C 182.935 0.724318 3.49983 0
M  V30 1989 C 182.601 2.15015 3.96332 0
M  V30 1990 C 181.263 2.54005 4.08699 0
M  V30 1991 C 183.615 3.07936 4.20505 0
M  V30 1992 C 180.943 3.85128 4.42599 0
M  V30 1993 C 183.295 4.3859 4.55874 0
M  V30 1994 C 181.959 4.77474 4.66449 0
M  V30 1995 H 181.229 0.184099 0.717766 0
M  V30 1996 H 183.876 1.12058 1.55291 0
M  V30 1997 H 182.181 0.0238086 3.91793 0
M  V30 1998 H 183.878 0.408617 3.98913 0
M  V30 1999 H 180.468 1.8375 3.87213 0
M  V30 2000 H 184.652 2.79033 4.10431 0
M  V30 2001 H 179.908 4.14996 4.48986 0
M  V30 2002 H 184.082 5.10629 4.7353 0
M  V30 2003 H 181.709 5.79115 4.92473 0
M  V30 2004 N 183.284 -1.43765 0.645699 0
M  V30 2005 C 184.216 -2.29027 -0.0890605 0
M  V30 2006 C 185.229 -1.42093 -0.794563 0
M  V30 2007 O 186.418 -1.66104 -0.653575 0
M  V30 2008 C 183.518 -3.18831 -1.14891 0
M  V30 2009 C 182.691 -4.34261 -0.523043 0
M  V30 2010 C 181.75 -5.04994 -1.47878 0
M  V30 2011 O 180.776 -5.6052 -0.990277 0
M  V30 2012 N 181.978 -5.07795 -2.81291 0
M  V30 2013 H 184.743 -2.92727 0.64272 0
M  V30 2014 H 182.304 -1.54373 0.487924 0
M  V30 2015 H 184.296 -3.63015 -1.78892 0
M  V30 2016 H 182.866 -2.56782 -1.78275 0
M  V30 2017 H 182.086 -3.93088 0.295896 0
M  V30 2018 H 183.374 -5.08728 -0.0858147 0
M  V30 2019 H 182.772 -4.64042 -3.23546 0
M  V30 2020 H 181.329 -5.55721 -3.40614 0
M  V30 2021 N 184.763 -0.387143 -1.52771 0
M  V30 2022 C 186.011 0.195349 -2.01154 0
M  V30 2023 C 186.332 1.475 -1.27549 0
M  V30 2024 O 185.602 1.91878 -0.394924 0
M  V30 2025 H 184.182 0.075178 -0.743207 0
M  V30 2026 H 186.844 -0.518337 -1.87881 0
M  V30 2027 H 185.94 0.407096 -3.09434 0
M  V30 2028 N 186.241 1.57166 -0.116904 0
M  V30 2029 C 187.171 2.18222 0.830759 0
M  V30 2030 C 188.152 1.12167 1.27877 0
M  V30 2031 O 189.337 1.40394 1.34176 0
M  V30 2032 C 186.467 2.77996 2.08172 0
M  V30 2033 C 185.421 3.89614 1.77157 0
M  V30 2034 C 184.747 4.36187 3.09265 0
M  V30 2035 C 186.047 5.1181 1.04151 0
M  V30 2036 H 187.741 2.97664 0.321992 0
M  V30 2037 H 185.287 1.4318 0.153434 0
M  V30 2038 H 187.24 3.19366 2.74924 0
M  V30 2039 H 185.964 1.9584 2.6137 0
M  V30 2040 H 184.623 3.48816 1.12796 0
M  V30 2041 H 184.271 3.50893 3.60393 0
M  V30 2042 H 183.971 5.11455 2.89288 0
M  V30 2043 H 185.495 4.80207 3.77139 0
M  V30 2044 H 186.909 5.50214 1.61052 0
M  V30 2045 H 185.306 5.92648 0.942762 0
M  V30 2046 H 186.376 4.84892 0.0279022 0
M  V30 2047 N 187.719 -0.156864 1.56817 0
M  V30 2048 C 188.651 -1.21883 1.94106 0
M  V30 2049 C 189.664 -1.3971 0.835754 0
M  V30 2050 O 190.853 -1.39457 1.11418 0
M  V30 2051 C 187.953 -2.58527 2.19127 0
M  V30 2052 C 187.126 -2.61809 3.50393 0
M  V30 2053 C 186.185 -3.7992 3.64071 0
M  V30 2054 O 185.211 -3.65249 4.36557 0
M  V30 2055 N 186.413 -4.96973 2.99997 0
M  V30 2056 H 189.178 -0.901974 2.85805 0
M  V30 2057 H 186.739 -0.346513 1.58148 0
M  V30 2058 H 188.731 -3.36034 2.25529 0
M  V30 2059 H 187.301 -2.82545 1.33742 0
M  V30 2060 H 186.521 -1.7029 3.5552 0
M  V30 2061 H 187.809 -2.61024 4.36742 0
M  V30 2062 H 187.207 -5.11794 2.41004 0
M  V30 2063 H 185.764 -5.7229 3.11974 0
M  V30 2064 N 189.197 -1.51736 -0.425897 0
M  V30 2065 C 190.129 -1.70083 -1.53638 0
M  V30 2066 C 191.142 -0.581349 -1.52066 0
M  V30 2067 O 192.331 -0.856017 -1.56635 0
M  V30 2068 C 189.431 -1.71078 -2.9255 0
M  V30 2069 C 188.604 -2.99795 -3.185 0
M  V30 2070 C 187.663 -2.92825 -4.37196 0
M  V30 2071 O 186.689 -3.66756 -4.35291 0
M  V30 2072 N 187.891 -2.0946 -5.41393 0
M  V30 2073 H 190.656 -2.65882 -1.383 0
M  V30 2074 H 188.217 -1.49765 -0.614988 0
M  V30 2075 H 190.209 -1.63969 -3.69995 0
M  V30 2076 H 188.779 -0.828242 -3.01428 0
M  V30 2077 H 187.999 -3.20684 -2.2925 0
M  V30 2078 H 189.287 -3.84977 -3.32671 0
M  V30 2079 H 188.685 -1.48792 -5.45781 0
M  V30 2080 H 187.242 -2.08221 -6.17647 0
M  V30 2081 N 190.675 0.682077 -1.42076 0
M  V30 2082 C 191.903 1.47057 -1.4554 0
M  V30 2083 C 192.318 1.8869 -0.0645779 0
M  V30 2084 O 191.675 1.57666 0.919115 0
M  V30 2085 C 191.726 2.72442 -2.37609 0
M  V30 2086 O 191.447 2.32559 -3.71279 0
M  V30 2087 C 192.948 3.66069 -2.50017 0
M  V30 2088 H 190.168 0.452737 -0.495248 0
M  V30 2089 H 192.712 0.838695 -1.8651 0
M  V30 2090 H 190.867 3.31835 -1.9991 0
M  V30 2091 H 191.281 3.13475 -4.20516 0
M  V30 2092 H 192.755 4.50792 -3.18576 0
M  V30 2093 H 193.232 4.11476 -1.53572 0
M  V30 2094 H 193.838 3.12572 -2.88407 0
M  V30 2095 N 192.153 1.28127 0.917671 0
M  V30 2096 C 193.399 1.15223 1.66888 0
M  V30 2097 C 193.732 -0.299293 1.9188 0
M  V30 2098 O 193.007 -1.21805 1.51637 0
M  V30 2099 C 193.29 1.94706 3.02922 0
M  V30 2100 C 193.143 3.47898 2.85109 0
M  V30 2101 C 194.462 1.75939 4.03402 0
M  V30 2102 H 191.581 0.419946 0.605652 0
M  V30 2103 H 194.223 1.57398 1.06423 0
M  V30 2104 H 192.373 1.58864 3.54534 0
M  V30 2105 H 194.045 3.93624 2.40537 0
M  V30 2106 H 192.288 3.7373 2.20246 0
M  V30 2107 H 192.959 3.98765 3.81694 0
M  V30 2108 H 195.435 2.07209 3.60837 0
M  V30 2109 H 194.311 2.33931 4.96556 0
M  V30 2110 H 194.572 0.709877 4.36364 0
M  V30 2111 N 193.631 -1.12557 1.10312 0
M  V30 2112 C 194.908 -1.80363 0.756878 0
M  V30 2113 C 195.288 -1.97067 -0.756824 0
M  V30 2114 O 194.636 -1.54601 -1.68259 0
M  V30 2115 C 194.846 -3.14812 1.50647 0
M  V30 2116 C 196.194 -3.90029 1.67817 0
M  V30 2117 O 197.218 -3.24464 1.46974 0
M  V30 2118 O 196.077 -5.07652 2.02365 0
M  V30 2119 H 193.171 -0.780667 0.272926 0
M  V30 2120 H 195.717 -1.19404 1.20586 0
M  V30 2121 H 194.489 -2.97936 2.53672 0
M  V30 2122 H 194.112 -3.83478 1.05026 0
M  V30 2123 N 195.109 -0.891671 -1.2995 0
M  V30 2124 C 196.056 -0.361736 -2.27948 0
M  V30 2125 C 197.026 0.551761 -1.56668 0
M  V30 2126 O 198.211 0.478736 -1.84696 0
M  V30 2127 C 195.351 0.411825 -3.42634 0
M  V30 2128 C 194.464 -0.531651 -4.28716 0
M  V30 2129 C 193.599 0.258167 -5.30572 0
M  V30 2130 C 192.638 -0.680349 -6.08307 0
M  V30 2131 N 191.775 0.0745613 -7.0206 0
M  V30 2132 H 196.615 -1.20254 -2.72659 0
M  V30 2133 H 194.152 -0.604352 -1.34112 0
M  V30 2134 H 196.11 0.876304 -4.07893 0
M  V30 2135 H 194.74 1.21715 -2.98974 0
M  V30 2136 H 193.792 -1.11463 -3.63703 0
M  V30 2137 H 195.104 -1.25038 -4.82874 0
M  V30 2138 H 194.258 0.784204 -6.0161 0
M  V30 2139 H 192.997 1.01008 -4.77126 0
M  V30 2140 H 192.002 -1.21796 -5.3614 0
M  V30 2141 H 193.227 -1.43145 -6.63842 0
M  V30 2142 H 191.173 0.808883 -6.50994 0
M  V30 2143 H 191.09 -0.584409 -7.53738 0
M  V30 2144 H 192.358 0.581123 -7.77331 0
M  V30 2145 N 196.587 1.43421 -0.653314 0
M  V30 2146 C 197.534 2.30768 0.0382271 0
M  V30 2147 C 198.504 1.44755 0.814576 0
M  V30 2148 O 199.689 1.73624 0.791162 0
M  V30 2149 C 196.829 3.30336 0.998599 0
M  V30 2150 C 195.942 4.31448 0.218342 0
M  V30 2151 C 195.077 5.18098 1.17252 0
M  V30 2152 C 194.116 6.10902 0.382702 0
M  V30 2153 N 193.253 6.90176 1.28848 0
M  V30 2154 H 198.093 2.89357 -0.712511 0
M  V30 2155 H 195.63 1.42548 -0.363128 0
M  V30 2156 H 197.588 3.86572 1.56901 0
M  V30 2157 H 196.218 2.73397 1.71621 0
M  V30 2158 H 195.27 3.77506 -0.46836 0
M  V30 2159 H 196.582 4.97227 -0.395812 0
M  V30 2160 H 195.736 5.7896 1.81356 0
M  V30 2161 H 194.475 4.52444 1.82058 0
M  V30 2162 H 193.48 5.49128 -0.27169 0
M  V30 2163 H 194.705 6.78598 -0.260957 0
M  V30 2164 H 192.651 6.27171 1.92334 0
M  V30 2165 H 192.568 7.52478 0.728887 0
M  V30 2166 H 193.836 7.55543 1.91766 0
M  V30 2167 N 198.065 0.39524 1.52563 0
M  V30 2168 C 199.311 -0.185318 2.01952 0
M  V30 2169 C 199.644 -1.45964 1.28095 0
M  V30 2170 O 198.919 -1.90689 0.38315 0
M  V30 2171 C 199.202 -0.447193 3.57312 0
M  V30 2172 C 199.055 0.842828 4.41833 0
M  V30 2173 C 200.374 -1.23529 4.22408 0
M  V30 2174 H 197.493 -0.0658788 0.73405 0
M  V30 2175 H 200.135 0.525975 1.82575 0
M  V30 2176 H 198.285 -1.05312 3.73954 0
M  V30 2177 H 199.957 1.4795 4.36931 0
M  V30 2178 H 198.2 1.45686 4.08605 0
M  V30 2179 H 198.871 0.614165 5.48573 0
M  V30 2180 H 201.347 -0.722445 4.0978 0
M  V30 2181 H 200.223 -1.38727 5.3108 0
M  V30 2182 H 200.484 -2.25213 3.80436 0
M  V30 2183 N 199.544 -1.57102 0.125237 0
M  V30 2184 C 200.784 -1.97294 -0.534259 0
M  V30 2185 C 201.148 -1.0074 -1.63449 0
M  V30 2186 O 202.349 -1.29893 -2.35332 0
M  V30 2187 C 200.62 -3.41705 -1.04748 0
M  V30 2188 S 202.179 -4.03913 -1.71463 0
M  V30 2189 H 198.997 -0.689517 -0.173458 0
M  V30 2190 H 201.599 -1.94349 0.211797 0
M  V30 2191 H 200.303 -4.09723 -0.235649 0
M  V30 2192 H 199.834 -3.48315 -1.82867 0
M  V30 2193 H 201.849 -3.95182 -3.00077 0
M  V30 2194 N 201.022 0.148545 -1.56898 0
M  V30 2195 C 202.247 0.880385 -1.87787 0
M  V30 2196 C 202.672 1.74018 -0.714093 0
M  V30 2197 O 202.03 1.78153 0.336343 0
M  V30 2198 C 202.078 1.71422 -3.17249 0
M  V30 2199 O 201.182 2.8183 -3.01074 0
M  V30 2200 H 200.523 0.245301 -0.617028 0
M  V30 2201 H 203.053 0.139826 -2.04122 0
M  V30 2202 H 203.063 2.10954 -3.49231 0
M  V30 2203 H 201.738 1.08284 -4.01556 0
M  V30 2204 H 200.315 2.45715 -2.80497 0
M  V30 2205 N 202.5 1.5196 0.417844 0
M  V30 2206 C 203.725 1.69717 1.1921 0
M  V30 2207 C 204.15 0.402148 1.83751 0
M  V30 2208 O 203.508 -0.639593 1.69643 0
M  V30 2209 C 203.556 2.82794 2.2374 0
M  V30 2210 O 202.66 2.47756 3.29683 0
M  V30 2211 H 202.001 0.565263 0.348387 0
M  V30 2212 H 204.531 1.98621 0.490985 0
M  V30 2213 H 204.541 3.07452 2.68212 0
M  V30 2214 H 203.216 3.76756 1.76146 0
M  V30 2215 H 201.793 2.33739 2.90552 0
M  V30 2216 N 203.978 -0.674533 1.42435 0
M  V30 2217 C 204.926 -1.80934 1.46169 0
M  V30 2218 C 205.92 -1.66006 0.3374 0
M  V30 2219 O 207.126 -1.72611 0.510425 0
M  V30 2220 H 203.501 -0.596594 0.457798 0
M  V30 2221 H 205.472 -1.74903 2.41767 0
M  V30 2222 C 204.221 -3.19088 1.38123 0
M  V30 2223 H 203.544 -3.31203 2.23931 0
M  V30 2224 H 204.984 -3.9851 1.44797 0
M  V30 2225 C 203.443 -3.36763 0.0960517 0
M  V30 2226 O 203.973 -3.92581 -0.851073 0
M  V30 2227 N 202.179 -2.90597 0.0131186 0
M  V30 2228 H 201.726 -2.45359 0.784639 0
M  V30 2229 H 201.684 -3.028 -0.846133 0
M  V30 2230 N 205.456 -1.28612 -0.910864 0
M  V30 2231 C 206.867 -1.14406 -1.47541 0
M  V30 2232 C 207.218 0.264901 -1.94403 0
M  V30 2233 O 206.343 1.15942 -1.82719 0
M  V30 2234 C 206.938 -2.07073 -2.68153 0
M  V30 2235 C 205.497 -1.96923 -3.20778 0
M  V30 2236 C 204.644 -1.98646 -1.93481 0
M  V30 2237 H 207.595 -1.41259 -0.723291 0
M  V30 2238 H 207.616 -1.63642 -3.43514 0
M  V30 2239 H 207.128 -3.09611 -2.34015 0
M  V30 2240 H 205.229 -0.97433 -3.59635 0
M  V30 2241 H 205.342 -2.84026 -3.85832 0
M  V30 2242 H 203.706 -1.43093 -2.10705 0
M  V30 2243 H 204.489 -3.02868 -1.61634 0
M  V30 2244 N 206.934 1.1197 -1.10907 0
M  V30 2245 C 208.174 1.85224 -0.864378 0
M  V30 2246 C 208.538 1.82411 0.599178 0
M  V30 2247 O 209.739 2.51057 0.960416 0
M  V30 2248 C 208.01 3.2868 -1.40371 0
M  V30 2249 S 209.569 4.1925 -1.29518 0
M  V30 2250 H 206.387 0.63878 -0.312219 0
M  V30 2251 H 208.989 1.3485 -1.41548 0
M  V30 2252 H 207.693 3.28289 -2.46281 0
M  V30 2253 H 207.224 3.84121 -0.849402 0
M  V30 2254 H 209.239 4.95539 -0.256059 0
M  V30 2255 N 208.412 0.89855 1.29475 0
M  V30 2256 C 209.344 0.332726 2.26772 0
M  V30 2257 C 210.357 -0.520323 1.54261 0
M  V30 2258 O 211.546 -0.337668 1.75277 0
M  V30 2259 C 208.646 -0.544334 3.345 0
M  V30 2260 C 207.819 0.282728 4.36485 0
M  V30 2261 C 206.878 -0.526982 5.23555 0
M  V30 2262 O 205.904 0.0551165 5.69173 0
M  V30 2263 N 207.106 -1.83331 5.5079 0
M  V30 2264 H 209.871 1.16897 2.75962 0
M  V30 2265 H 207.432 0.762919 1.42798 0
M  V30 2266 H 209.424 -1.09239 3.89678 0
M  V30 2267 H 207.994 -1.28127 2.85136 0
M  V30 2268 H 207.214 1.01221 3.80983 0
M  V30 2269 H 208.502 0.84918 5.01664 0
M  V30 2270 H 207.9 -2.32898 5.15534 0
M  V30 2271 H 206.457 -2.32852 6.08788 0
M  V30 2272 N 209.89 -1.43072 0.660911 0
M  V30 2273 C 210.838 -2.32569 -0.0378199 0
M  V30 2274 C 211.832 -1.49046 -0.805092 0
M  V30 2275 O 213.038 -1.65206 -0.714624 0
M  V30 2276 H 209.413 -0.75136 -0.031019 0
M  V30 2277 H 211.384 -2.89216 0.734609 0
M  V30 2278 C 210.133 -3.33453 -0.985124 0
M  V30 2279 H 209.456 -3.97752 -0.404147 0
M  V30 2280 H 210.896 -3.98691 -1.44297 0
M  V30 2281 C 209.355 -2.64642 -2.08486 0
M  V30 2282 O 209.885 -2.46776 -3.16961 0
M  V30 2283 N 208.091 -2.23891 -1.8526 0
M  V30 2284 H 207.638 -2.38621 -0.970449 0
M  V30 2285 H 207.596 -1.78181 -2.59034 0
M  V30 2286 N 211.368 -0.403325 -1.52352 0
M  V30 2287 C 212.616 0.174003 -2.0135 0
M  V30 2288 C 212.937 1.46139 -1.29106 0
M  V30 2289 O 212.207 1.91448 -0.415253 0
M  V30 2290 H 210.787 0.0672911 -0.743963 0
M  V30 2291 H 213.449 -0.538235 -1.87321 0
M  V30 2292 H 212.545 0.374254 -3.09848 0
M  V30 2293 N 212.846 1.57033 -0.133567 0
M  V30 2294 C 214.094 1.953 0.519848 0
M  V30 2295 C 214.415 1.01866 1.66278 0
M  V30 2296 O 213.685 0.0776513 1.95746 0
M  V30 2297 H 212.265 0.721091 0.195032 0
M  V30 2298 H 214.927 1.93809 -0.205921 0
M  V30 2299 H 214.023 2.98695 0.904854 0
M  V30 2300 N 214.325 -0.140222 1.56975 0
M  V30 2301 C 215.553 -0.866437 1.87884 0
M  V30 2302 C 215.968 -1.74428 0.722517 0
M  V30 2303 O 215.325 -1.79891 -0.30749 0
M  V30 2304 C 215.376 -1.71753 3.18093 0
M  V30 2305 O 215.097 -0.875056 4.29272 0
M  V30 2306 C 216.598 -2.55074 3.62563 0
M  V30 2307 H 213.818 -0.25019 0.622612 0
M  V30 2308 H 216.362 -0.130977 2.0408 0
M  V30 2309 H 214.517 -2.40598 3.03631 0
M  V30 2310 H 214.931 -1.46002 5.03769 0
M  V30 2311 H 216.405 -3.10356 4.5649 0
M  V30 2312 H 216.882 -3.31434 2.88181 0
M  V30 2313 H 217.488 -1.91509 3.79743 0
M  V30 2314 N 215.803 -1.52179 -0.40978 0
M  V30 2315 C 217.043 -1.67882 -1.16597 0
M  V30 2316 C 217.407 -0.399795 -1.87791 0
M  V30 2317 O 218.608 -0.43292 -2.65291 0
M  V30 2318 C 216.879 -2.86662 -2.13448 0
M  V30 2319 S 218.438 -3.22843 -2.97183 0
M  V30 2320 H 215.256 -0.59118 -0.395002 0
M  V30 2321 H 217.858 -1.9017 -0.453373 0
M  V30 2322 H 216.562 -3.77998 -1.59831 0
M  V30 2323 H 216.093 -2.66645 -2.89247 0
M  V30 2324 H 218.108 -2.71415 -4.15389 0
M  V30 2325 N 217.281 0.66697 -1.42791 0
M  V30 2326 C 218.211 1.79218 -1.49677 0
M  V30 2327 C 219.192 1.66405 -0.352623 0
M  V30 2328 O 220.377 1.85708 -0.567993 0
M  V30 2329 C 217.507 3.17565 -1.40605 0
M  V30 2330 C 216.461 3.45124 -2.53127 0
M  V30 2331 C 215.787 4.83127 -2.29112 0
M  V30 2332 C 217.087 3.41236 -3.95418 0
M  V30 2333 H 218.781 1.73713 -2.43853 0
M  V30 2334 H 216.327 0.83432 -1.17367 0
M  V30 2335 H 218.28 3.96022 -1.44029 0
M  V30 2336 H 217.004 3.23767 -0.429271 0
M  V30 2337 H 215.663 2.69031 -2.49034 0
M  V30 2338 H 215.311 4.85988 -1.29709 0
M  V30 2339 H 215.011 5.02528 -3.04531 0
M  V30 2340 H 216.535 5.63859 -2.34297 0
M  V30 2341 H 217.949 4.09651 -4.01073 0
M  V30 2342 H 216.346 3.72173 -4.70752 0
M  V30 2343 H 217.416 2.39665 -4.21532 0
M  V30 2344 N 218.759 1.29093 0.90403 0
M  V30 2345 C 219.707 1.13727 2.02901 0
M  V30 2346 C 220.701 0.0539853 1.69314 0
M  V30 2347 O 221.907 0.213469 1.7873 0
M  V30 2348 H 218.282 0.35117 0.664969 0
M  V30 2349 H 220.253 2.08982 2.13001 0
M  V30 2350 C 219.002 0.826066 3.37745 0
M  V30 2351 H 218.325 1.65164 3.64089 0
M  V30 2352 H 219.765 0.758559 4.17159 0
M  V30 2353 C 218.224 -0.470541 3.33598 0
M  V30 2354 O 218.754 -1.49792 3.72727 0
M  V30 2355 N 216.96 -0.474812 2.86695 0
M  V30 2356 H 216.507 0.361692 2.55048 0
M  V30 2357 H 216.465 -1.34236 2.84303 0
M  V30 2358 N 220.237 -1.11381 1.11499 0
M  V30 2359 C 221.167 -2.19509 0.796125 0
M  V30 2360 C 222.148 -1.68458 -0.235796 0
M  V30 2361 O 223.333 -1.93947 -0.0991344 0
M  V30 2362 C 220.463 -3.46475 0.239205 0
M  V30 2363 C 219.417 -4.10744 1.20307 0
M  V30 2364 C 218.743 -5.32293 0.50683 0
M  V30 2365 C 220.043 -4.55597 2.55399 0
M  V30 2366 H 221.737 -2.46439 1.70024 0
M  V30 2367 H 219.283 -1.18446 0.818935 0
M  V30 2368 H 221.236 -4.214 0.00392006 0
M  V30 2369 H 219.96 -3.19006 -0.700206 0
M  V30 2370 H 218.619 -3.37813 1.42399 0
M  V30 2371 H 218.267 -5.01095 -0.437408 0
M  V30 2372 H 217.967 -5.76243 1.1497 0
M  V30 2373 H 219.491 -6.09956 0.280351 0
M  V30 2374 H 220.905 -5.21841 2.37391 0
M  V30 2375 H 219.302 -5.10363 3.15673 0
M  V30 2376 H 220.372 -3.69013 3.14575 0
M  V30 2377 N 221.715 -0.905404 -1.28997 0
M  V30 2378 C 222.665 -0.358713 -2.25161 0
M  V30 2379 C 223.649 0.524449 -1.52113 0
M  V30 2380 O 224.841 0.365534 -1.73184 0
M  V30 2381 C 221.97 0.407609 -3.40872 0
M  V30 2382 C 221.056 -0.490797 -4.21251 0
M  V30 2383 N 221.447 -1.60061 -4.79806 0
M  V30 2384 C 219.745 -0.289636 -4.45059 0
M  V30 2385 C 220.446 -2.15757 -5.40207 0
M  V30 2386 N 219.422 -1.44988 -5.23908 0
M  V30 2387 H 223.224 -1.20642 -2.67998 0
M  V30 2388 H 220.738 -0.757103 -1.43672 0
M  V30 2389 H 222.735 0.816046 -4.08835 0
M  V30 2390 H 221.395 1.25251 -2.9957 0
M  V30 2391 H 222.406 -1.98329 -4.7842 0
M  V30 2392 H 219.083 0.51643 -4.14294 0
M  V30 2393 H 220.473 -3.09069 -5.96595 0
M  V30 2394 N 223.193 1.4272 -0.668489 0
M  V30 2395 C 224.47 1.95248 -0.117373 0
M  V30 2396 C 224.85 1.60919 1.36632 0
M  V30 2397 O 224.198 0.902095 2.09939 0
M  V30 2398 C 224.408 3.46927 -0.379806 0
M  V30 2399 C 225.756 4.23588 -0.292923 0
M  V30 2400 O 226.78 3.5482 -0.313204 0
M  V30 2401 O 225.639 5.46017 -0.229697 0
M  V30 2402 H 222.733 0.827 0.00079152 0
M  V30 2403 H 225.279 1.52581 -0.742783 0
M  V30 2404 H 224.051 3.65096 -1.40786 0
M  V30 2405 H 223.674 3.96627 0.277923 0
M  V30 2406 N 224.671 0.411399 1.52136 0
M  V30 2407 C 225.896 -0.165538 2.06738 0
M  V30 2408 C 226.321 -1.379 1.27926 0
M  V30 2409 O 225.679 -1.78628 0.310114 0
M  V30 2410 C 225.727 -0.492124 3.57226 0
M  V30 2411 O 224.831 -1.58276 3.80818 0
M  V30 2412 H 224.172 -0.0132132 0.663869 0
M  V30 2413 H 226.702 0.585253 1.96051 0
M  V30 2414 H 226.712 -0.750104 4.01045 0
M  V30 2415 H 225.387 0.394922 4.14021 0
M  V30 2416 H 223.964 -1.31677 3.48877 0
M  V30 2417 N 226.149 -1.5696 0.141893 0
M  V30 2418 C 227.396 -1.9596 -0.510492 0
M  V30 2419 C 227.724 -1.02648 -1.65208 0
M  V30 2420 O 226.979 -0.0546947 -1.95624 0
M  V30 2421 C 227.278 -3.41242 -1.06249 0
M  V30 2422 C 226.944 -4.50882 -0.0398791 0
M  V30 2423 C 225.606 -4.80595 0.241247 0
M  V30 2424 C 227.958 -5.17058 0.65578 0
M  V30 2425 C 225.286 -5.73792 1.22393 0
M  V30 2426 C 227.638 -6.11313 1.62724 0
M  V30 2427 C 226.302 -6.39407 1.91612 0
M  V30 2428 H 225.572 -0.717068 -0.186802 0
M  V30 2429 H 228.219 -1.90142 0.227643 0
M  V30 2430 H 226.524 -3.43866 -1.87785 0
M  V30 2431 H 228.221 -3.68742 -1.57576 0
M  V30 2432 H 224.811 -4.27754 -0.269174 0
M  V30 2433 H 228.995 -4.94239 0.451779 0
M  V30 2434 H 224.251 -5.93853 1.45424 0
M  V30 2435 H 228.425 -6.61668 2.17183 0
M  V30 2436 H 226.052 -7.11427 2.6791 0
M  V30 2437 N 227.627 0.131896 -1.57047 0
M  V30 2438 C 228.874 0.841932 -1.84168 0
M  V30 2439 C 229.202 1.8048 -0.725066 0
M  V30 2440 O 228.457 1.93618 0.284692 0
M  V30 2441 C 228.756 1.63703 -3.17704 0
M  V30 2442 C 228.422 0.81961 -4.43388 0
M  V30 2443 C 227.084 0.594148 -4.77518 0
M  V30 2444 C 229.436 0.248977 -5.20605 0
M  V30 2445 C 226.764 -0.212409 -5.86315 0
M  V30 2446 C 229.116 -0.544701 -6.30251 0
M  V30 2447 C 227.78 -0.780599 -6.6292 0
M  V30 2448 H 227.05 0.308085 -0.673917 0
M  V30 2449 H 229.697 0.104867 -1.91213 0
M  V30 2450 H 228.002 2.44464 -3.06177 0
M  V30 2451 H 229.699 2.19015 -3.35907 0
M  V30 2452 H 226.289 1.00542 -4.16641 0
M  V30 2453 H 230.473 0.410408 -4.946 0
M  V30 2454 H 225.729 -0.404524 -6.1006 0
M  V30 2455 H 229.903 -0.993922 -6.89271 0
M  V30 2456 H 227.53 -1.40742 -7.47058 0
M  V30 2457 N 229.106 1.52395 0.401703 0
M  V30 2458 C 230.346 1.68498 1.15705 0
M  V30 2459 C 230.71 0.409748 1.87577 0
M  V30 2460 O 231.911 0.446983 2.65058 0
M  V30 2461 C 230.182 2.87789 2.11924 0
M  V30 2462 S 231.741 3.24415 2.95466 0
M  V30 2463 H 228.559 0.593267 0.391862 0
M  V30 2464 H 231.161 1.90408 0.443282 0
M  V30 2465 H 229.865 3.7884 1.57824 0
M  V30 2466 H 229.396 2.68175 2.87829 0
M  V30 2467 H 231.411 2.73614 4.13944 0
M  V30 2468 N 230.584 -0.659388 1.43143 0
M  V30 2469 C 231.833 -1.41518 1.43721 0
M  V30 2470 C 232.146 -1.95499 0.0628176 0
M  V30 2471 O 233.352 -2.71446 -0.0539683 0
M  V30 2472 C 231.808 -2.5608 2.52885 0
M  V30 2473 C 231.416 -2.08733 3.96402 0
M  V30 2474 C 233.16 -3.3349 2.62649 0
M  V30 2475 C 231.067 -3.20469 4.97045 0
M  V30 2476 H 229.997 -0.531705 0.534608 0
M  V30 2477 H 232.648 -0.712343 1.69109 0
M  V30 2478 H 231.03 -3.28805 2.20688 0
M  V30 2479 H 232.204 -1.43059 4.3803 0
M  V30 2480 H 230.519 -1.44219 3.90627 0
M  V30 2481 H 233.116 -4.16734 3.35017 0
M  V30 2482 H 233.459 -3.8111 1.67513 0
M  V30 2483 H 233.992 -2.67842 2.94118 0
M  V30 2484 H 230.731 -2.77824 5.93712 0
M  V30 2485 H 230.251 -3.84874 4.60034 0
M  V30 2486 H 231.93 -3.85698 5.19467 0
M  V30 2487 N 232.062 -1.29571 -0.897171 0
M  V30 2488 C 233.302 -1.18959 -1.66217 0
M  V30 2489 C 233.666 0.254271 -1.90309 0
M  V30 2490 O 234.867 0.483407 -2.64417 0
M  V30 2491 C 233.138 -1.98302 -2.9734 0
M  V30 2492 S 234.697 -2.04253 -3.88364 0
M  V30 2493 H 231.515 -0.424137 -0.570639 0
M  V30 2494 H 234.117 -1.6389 -1.06585 0
M  V30 2495 H 232.821 -3.02342 -2.77521 0
M  V30 2496 H 232.352 -1.53986 -3.62011 0
M  V30 2497 H 234.367 -1.16105 -4.82425 0
M  V30 2498 N 233.54 1.10788 -1.12088 0
M  V30 2499 C 234.951 1.64181 -0.88891 0
M  V30 2500 C 235.302 1.87508 0.577498 0
M  V30 2501 O 234.427 1.61434 1.44112 0
M  V30 2502 C 235.022 2.98257 -1.60712 0
M  V30 2503 C 233.581 3.4853 -1.42139 0
M  V30 2504 C 232.728 2.23208 -1.6454 0
M  V30 2505 H 235.679 0.943368 -1.27618 0
M  V30 2506 H 235.7 3.65552 -1.05604 0
M  V30 2507 H 235.212 2.81246 -2.67436 0
M  V30 2508 H 233.313 3.70692 -0.376552 0
M  V30 2509 H 233.426 4.26882 -2.17505 0
M  V30 2510 H 231.79 2.31169 -1.06925 0
M  V30 2511 H 232.573 2.08733 -2.72554 0
M  V30 2512 N 235.018 0.912232 1.28515 0
M  V30 2513 C 236.429 0.591352 1.77087 0
M  V30 2514 C 236.78 -0.8933 1.74684 0
M  V30 2515 O 235.905 -1.69876 1.34056 0
M  V30 2516 C 236.5 1.06668 3.2157 0
M  V30 2517 C 235.059 0.79675 3.67871 0
M  V30 2518 C 234.206 1.23427 2.48316 0
M  V30 2519 H 237.157 1.09365 1.15 0
M  V30 2520 H 237.178 0.407455 3.78312 0
M  V30 2521 H 236.69 2.14726 3.23287 0
M  V30 2522 H 234.791 -0.270679 3.71616 0
M  V30 2523 H 234.904 1.40343 4.58084 0
M  V30 2524 H 233.268 0.653036 2.46186 0
M  V30 2525 H 234.051 2.32316 2.52753 0
M  V30 2526 N 236.496 -1.42363 0.676048 0
M  V30 2527 C 237.428 -2.29164 -0.0404605 0
M  V30 2528 C 238.441 -1.43747 -0.764245 0
M  V30 2529 O 239.63 -1.67453 -0.618195 0
M  V30 2530 C 236.73 -3.21196 -1.08103 0
M  V30 2531 C 235.903 -4.35273 -0.430812 0
M  V30 2532 C 234.962 -5.08017 -1.37133 0
M  V30 2533 O 233.988 -5.62494 -0.87116 0
M  V30 2534 N 235.19 -5.13647 -2.70456 0
M  V30 2535 H 237.955 -2.91298 0.704667 0
M  V30 2536 H 235.516 -1.53303 0.520559 0
M  V30 2537 H 237.508 -3.66728 -1.71152 0
M  V30 2538 H 236.078 -2.60505 -1.72788 0
M  V30 2539 H 235.298 -3.92372 0.379209 0
M  V30 2540 H 236.586 -5.08795 0.0221132 0
M  V30 2541 H 235.984 -4.708 -3.1363 0
M  V30 2542 H 234.541 -5.62821 -3.28749 0
M  V30 2543 N 237.974 -0.419461 -1.51915 0
M  V30 2544 C 239.22 0.145505 -2.02879 0
M  V30 2545 C 239.575 1.41926 -1.29903 0
M  V30 2546 O 238.868 1.87383 -0.399782 0
M  V30 2547 C 239.062 0.437067 -3.54717 0
M  V30 2548 C 238.891 -0.806877 -4.42402 0
M  V30 2549 C 237.661 -1.33514 -4.87342 0
M  V30 2550 C 239.859 -1.68796 -4.85811 0
M  V30 2551 N 237.841 -2.53349 -5.59185 0
M  V30 2552 C 239.212 -2.73247 -5.56539 0
M  V30 2553 C 241.267 -1.70449 -4.67816 0
M  V30 2554 C 239.97 -3.79276 -6.11181 0
M  V30 2555 C 241.996 -2.75403 -5.23361 0
M  V30 2556 C 241.358 -3.78575 -5.9402 0
M  V30 2557 H 237.457 0.0145424 -0.781865 0
M  V30 2558 H 240.041 -0.576126 -1.85981 0
M  V30 2559 H 238.212 1.12774 -3.71667 0
M  V30 2560 H 239.944 0.99182 -3.92358 0
M  V30 2561 H 236.699 -0.891657 -4.65131 0
M  V30 2562 H 237.123 -3.14066 -5.99743 0
M  V30 2563 H 241.765 -0.920209 -4.12664 0
M  V30 2564 H 239.483 -4.58554 -6.65397 0
M  V30 2565 H 243.069 -2.77603 -5.113 0
M  V30 2566 H 241.949 -4.58453 -6.36231 0
M  V30 2567 N 239.452 1.56882 -0.150215 0
M  V30 2568 C 240.399 2.16922 0.788244 0
M  V30 2569 C 241.369 1.10303 1.24187 0
M  V30 2570 O 242.554 1.38359 1.31383 0
M  V30 2571 C 239.694 2.79754 2.02068 0
M  V30 2572 C 238.807 4.00775 1.61257 0
M  V30 2573 C 237.942 4.51595 2.79705 0
M  V30 2574 C 236.981 5.65074 2.35282 0
M  V30 2575 N 236.118 6.10499 3.4675 0
M  V30 2576 H 240.958 2.96779 0.269444 0
M  V30 2577 H 238.495 1.46599 0.12128 0
M  V30 2578 H 240.453 3.14329 2.74323 0
M  V30 2579 H 239.083 2.02536 2.51354 0
M  V30 2580 H 238.135 3.72158 0.787553 0
M  V30 2581 H 239.447 4.82978 1.24633 0
M  V30 2582 H 238.601 4.88242 3.60145 0
M  V30 2583 H 237.34 3.68406 3.19576 0
M  V30 2584 H 236.345 5.28 1.53283 0
M  V30 2585 H 237.57 6.50052 1.96493 0
M  V30 2586 H 235.516 5.30243 3.86236 0
M  V30 2587 H 235.433 6.87637 3.14152 0
M  V30 2588 H 236.701 6.51791 4.27537 0
M  V30 2589 N 240.93 -0.123565 1.57115 0
M  V30 2590 C 242.178 -0.83051 1.84247 0
M  V30 2591 C 242.499 -1.80629 0.73471 0
M  V30 2592 O 241.769 -1.94403 -0.241688 0
M  V30 2593 H 240.349 -0.309694 0.679778 0
M  V30 2594 H 243.011 -0.111976 1.94578 0
M  V30 2595 H 242.107 -1.37852 2.80006 0
M  V30 2596 N 242.408 -1.52605 -0.393616 0
M  V30 2597 C 243.819 -1.59417 -0.971761 0
M  V30 2598 C 244.17 -0.444173 -1.91106 0
M  V30 2599 O 243.295 0.433382 -2.12016 0
M  V30 2600 C 243.89 -2.88936 -1.76921 0
M  V30 2601 C 242.449 -2.98175 -2.29714 0
M  V30 2602 C 241.596 -2.54491 -1.10135 0
M  V30 2603 H 244.547 -1.57751 -0.173317 0
M  V30 2604 H 244.568 -2.75163 -2.62804 0
M  V30 2605 H 244.08 -3.72616 -1.08532 0
M  V30 2606 H 242.181 -2.19024 -3.01429 0
M  V30 2607 H 242.294 -4.02726 -2.59517 0
M  V30 2608 H 240.658 -2.08702 -1.45999 0
M  V30 2609 H 241.441 -3.4056 -0.432874 0
M  V30 2610 N 243.887 0.651787 -1.4349 0
M  V30 2611 C 244.817 1.77621 -1.51569 0
M  V30 2612 C 245.798 1.66022 -0.370253 0
M  V30 2613 O 246.983 1.85095 -0.587658 0
M  V30 2614 C 244.113 3.16056 -1.43966 0
M  V30 2615 C 243.067 3.4242 -2.56774 0
M  V30 2616 C 242.393 4.8067 -2.34223 0
M  V30 2617 C 243.693 3.37023 -3.99015 0
M  V30 2618 H 245.387 1.71117 -2.45681 0
M  V30 2619 H 242.933 0.821825 -1.18246 0
M  V30 2620 H 244.886 3.94472 -1.48221 0
M  V30 2621 H 243.61 3.23293 -0.463586 0
M  V30 2622 H 242.269 2.66375 -2.51873 0
M  V30 2623 H 241.917 4.84585 -1.34856 0
M  V30 2624 H 241.617 4.9927 -3.09844 0
M  V30 2625 H 243.141 5.61342 -2.40265 0
M  V30 2626 H 244.555 4.05374 -4.05395 0
M  V30 2627 H 242.952 3.67159 -4.74673 0
M  V30 2628 H 244.022 2.3518 -4.2405 0
M  V30 2629 N 245.365 1.30045 0.890287 0
M  V30 2630 C 246.605 1.19839 1.65584 0
M  V30 2631 C 246.969 -0.244175 1.90441 0
M  V30 2632 O 248.17 -0.469378 2.6467 0
M  V30 2633 C 246.441 1.99876 2.96284 0
M  V30 2634 S 248 2.06309 3.87275 0
M  V30 2635 H 244.818 0.427157 0.568382 0
M  V30 2636 H 247.42 1.64453 1.05715 0
M  V30 2637 H 246.124 3.03809 2.75913 0
M  V30 2638 H 245.655 1.55903 3.61189 0
M  V30 2639 H 247.67 1.18661 4.81803 0
M  V30 2640 N 246.843 -1.10192 1.12674 0
M  V30 2641 C 248.068 -1.86523 0.906853 0
M  V30 2642 C 248.493 -1.80221 -0.538711 0
M  V30 2643 O 247.851 -1.17396 -1.38158 0
M  V30 2644 C 247.899 -3.32758 1.3894 0
M  V30 2645 O 247.003 -4.08449 0.5695 0
M  V30 2646 H 246.344 -0.578678 0.325619 0
M  V30 2647 H 248.874 -1.39203 1.49946 0
M  V30 2648 H 248.884 -3.83608 1.38958 0
M  V30 2649 H 247.559 -3.36661 2.44197 0
M  V30 2650 H 246.136 -3.67427 0.636528 0
M  V30 2651 N 248.321 -0.919034 -1.28029 0
M  V30 2652 C 249.284 -0.416182 -2.2539 0
M  V30 2653 C 250.284 0.460438 -1.54067 0
M  V30 2654 O 251.474 0.262744 -1.72207 0
M  V30 2655 C 248.606 0.402707 -3.38513 0
M  V30 2656 H 249.799 -1.27629 -2.71387 0
M  V30 2657 H 247.352 -0.698919 -1.39803 0
M  V30 2658 H 248.087 1.282 -2.97885 0
M  V30 2659 H 247.872 -0.225698 -3.9145 0
M  V30 2660 H 249.362 0.745191 -4.10897 0
M  V30 2661 N 249.799 1.42003 -0.683588 0
M  V30 2662 C 251.076 1.95112 -0.138075 0
M  V30 2663 C 251.456 1.62359 1.34918 0
M  V30 2664 O 250.804 0.924311 2.08971 0
M  V30 2665 C 251.014 3.46505 -0.416581 0
M  V30 2666 C 252.362 4.23254 -0.337834 0
M  V30 2667 O 253.386 3.54468 -0.35082 0
M  V30 2668 O 252.245 5.45743 -0.287596 0
M  V30 2669 H 249.339 0.826961 -0.00797996 0
M  V30 2670 H 251.885 1.51784 -0.758924 0
M  V30 2671 H 250.657 3.63582 -1.4465 0
M  V30 2672 H 250.28 3.969 0.235839 0
M  V30 2673 N 251.277 0.427512 1.51691 0
M  V30 2674 C 252.523 -0.142439 2.02299 0
M  V30 2675 C 252.856 -1.43214 1.31162 0
M  V30 2676 O 252.131 -1.89833 0.423511 0
M  V30 2677 C 252.414 -0.371301 3.58181 0
M  V30 2678 C 252.267 0.936358 4.39946 0
M  V30 2679 C 253.586 -1.14542 4.24933 0
M  V30 2680 H 250.705 -0.0502937 0.735282 0
M  V30 2681 H 253.347 0.564584 1.81418 0
M  V30 2682 H 251.497 -0.973559 3.76104 0
M  V30 2683 H 253.169 1.57184 4.33694 0
M  V30 2684 H 251.412 1.5432 4.05423 0
M  V30 2685 H 252.083 0.730388 5.47147 0
M  V30 2686 H 254.559 -0.635362 4.11221 0
M  V30 2687 H 253.435 -1.27431 5.33903 0
M  V30 2688 H 253.696 -2.17093 3.85127 0
M  V30 2689 N 252.755 -1.56801 0.158532 0
M  V30 2690 C 253.703 -2.18638 -0.793729 0
M  V30 2691 C 254.697 -1.14669 -1.24689 0
M  V30 2692 O 255.903 -1.32895 -1.21403 0
M  V30 2693 H 252.278 -0.700226 -0.274204 0
M  V30 2694 H 254.249 -2.97367 -0.248095 0
M  V30 2695 C 252.998 -2.83139 -2.0181 0
M  V30 2696 H 252.321 -3.62863 -1.67841 0
M  V30 2697 H 253.761 -3.29894 -2.66357 0
M  V30 2698 C 252.22 -1.82244 -2.83353 0
M  V30 2699 O 252.75 -1.3 -3.80083 0
M  V30 2700 N 250.956 -1.51288 -2.48114 0
M  V30 2701 H 250.503 -1.93964 -1.69516 0
M  V30 2702 H 250.461 -0.840296 -3.02963 0
M  V30 2703 N 254.233 0.115231 -1.57178 0
M  V30 2704 C 255.143 1.15994 -2.03918 0
M  V30 2705 C 256.159 1.45103 -0.960268 0
M  V30 2706 O 257.335 1.56144 -1.27204 0
M  V30 2707 C 254.4 2.46568 -2.43732 0
M  V30 2708 C 253.461 2.24822 -3.65723 0
M  V30 2709 C 252.694 3.4917 -4.03629 0
M  V30 2710 O 252.917 4.56623 -3.41835 0
M  V30 2711 O 251.851 3.39949 -4.96708 0
M  V30 2712 H 255.677 0.793019 -2.93164 0
M  V30 2713 H 253.262 0.3263 -1.45793 0
M  V30 2714 H 255.144 3.23492 -2.70057 0
M  V30 2715 H 253.819 2.82726 -1.57631 0
M  V30 2716 H 252.726 1.45744 -3.44542 0
M  V30 2717 H 254.059 1.93566 -4.52541 0
M  V30 2718 N 255.711 1.52812 0.385517 0
M  V30 2719 C 256.951 1.69716 1.13911 0
M  V30 2720 C 257.315 0.42962 1.87132 0
M  V30 2721 O 258.516 0.475071 2.64569 0
M  V30 2722 C 256.787 2.90021 2.0886 0
M  V30 2723 S 258.346 3.27531 2.92009 0
M  V30 2724 H 255.164 0.59739 0.385547 0
M  V30 2725 H 257.766 1.90868 0.423061 0
M  V30 2726 H 256.47 3.80493 1.53797 0
M  V30 2727 H 256.001 2.71213 2.84969 0
M  V30 2728 H 258.016 2.77989 4.11019 0
M  V30 2729 N 257.189 -0.644168 1.43834 0
M  V30 2730 C 258.099 -1.78563 1.52159 0
M  V30 2731 C 259.115 -1.69147 0.408069 0
M  V30 2732 O 260.291 -1.90156 0.663524 0
M  V30 2733 C 257.356 -3.14888 1.45073 0
M  V30 2734 C 256.417 -3.36034 2.6717 0
M  V30 2735 C 255.65 -4.65855 2.60413 0
M  V30 2736 O 255.873 -5.45805 1.65689 0
M  V30 2737 O 254.807 -4.88918 3.5106 0
M  V30 2738 H 258.633 -1.74494 2.48567 0
M  V30 2739 H 256.218 -0.80378 1.25935 0
M  V30 2740 H 258.1 -3.96179 1.43597 0
M  V30 2741 H 256.775 -3.19528 0.518037 0
M  V30 2742 H 255.682 -2.54472 2.74217 0
M  V30 2743 H 257.015 -3.36247 3.59442 0
M  V30 2744 N 258.668 -1.30515 -0.883378 0
M  V30 2745 C 259.917 -1.18795 -1.63005 0
M  V30 2746 C 260.23 0.255923 -1.93919 0
M  V30 2747 O 261.436 0.494654 -2.66956 0
M  V30 2748 C 259.892 -2.07878 -2.93794 0
M  V30 2749 C 259.5 -3.57184 -2.70414 0
M  V30 2750 C 261.244 -2.04924 -3.71761 0
M  V30 2751 C 259.151 -4.38317 -3.97029 0
M  V30 2752 H 258.081 -0.441031 -0.611562 0
M  V30 2753 H 260.732 -1.55275 -0.977854 0
M  V30 2754 H 259.114 -1.64283 -3.60315 0
M  V30 2755 H 260.288 -4.08937 -2.12384 0
M  V30 2756 H 258.603 -3.61976 -2.0582 0
M  V30 2757 H 261.2 -2.62792 -4.65665 0
M  V30 2758 H 261.543 -1.0331 -4.03277 0
M  V30 2759 H 262.076 -2.46649 -3.12104 0
M  V30 2760 H 258.815 -5.40632 -3.70671 0
M  V30 2761 H 258.335 -3.91326 -4.54559 0
M  V30 2762 H 260.014 -4.49834 -4.65036 0
M  V30 2763 N 260.146 1.09593 -1.13257 0
M  V30 2764 C 261.376 1.85231 -0.915049 0
M  V30 2765 C 261.784 1.81345 0.539498 0
M  V30 2766 O 261.127 1.20664 1.38513 0
M  V30 2767 C 261.189 3.34275 -1.3229 0
M  V30 2768 C 260.853 3.6191 -2.79052 0
M  V30 2769 C 261.85 3.57777 -3.77216 0
M  V30 2770 C 259.535 3.90309 -3.16171 0
M  V30 2771 C 261.529 3.81652 -5.1051 0
M  V30 2772 C 259.216 4.13839 -4.49644 0
M  V30 2773 C 260.214 4.09502 -5.46623 0
M  V30 2774 O 259.902 4.32426 -6.77689 0
M  V30 2775 H 259.634 0.591997 -0.326367 0
M  V30 2776 H 262.188 1.394 -1.50854 0
M  V30 2777 H 260.418 3.80805 -0.672667 0
M  V30 2778 H 262.107 3.9132 -1.07812 0
M  V30 2779 H 262.873 3.35865 -3.49885 0
M  V30 2780 H 258.752 3.92811 -2.41289 0
M  V30 2781 H 262.296 3.78182 -5.86195 0
M  V30 2782 H 258.193 4.35232 -4.767 0
M  V30 2783 H 258.961 4.49896 -6.83766 0
M  V30 2784 N 261.624 0.925811 1.2754 0
M  V30 2785 C 262.849 0.580924 1.99098 0
M  V30 2786 C 263.274 -0.833555 1.68622 0
M  V30 2787 O 262.632 -1.55903 0.925422 0
M  V30 2788 C 262.68 0.811186 3.51358 0
M  V30 2789 O 261.784 -0.124129 4.12213 0
M  V30 2790 H 261.125 0.223873 0.625122 0
M  V30 2791 H 263.655 1.24455 1.62395 0
M  V30 2792 H 263.665 0.72601 4.01489 0
M  V30 2793 H 262.34 1.84227 3.72872 0
M  V30 2794 H 260.917 0.0108006 3.72898 0
M  V30 2795 N 263.102 -1.41638 0.69111 0
M  V30 2796 C 264.35 -2.00902 0.219758 0
M  V30 2797 C 264.671 -1.54994 -1.18329 0
M  V30 2798 O 263.941 -0.778628 -1.79762 0
M  V30 2799 H 262.521 -0.74289 0.0782558 0
M  V30 2800 H 265.183 -1.73327 0.891271 0
M  V30 2801 H 264.279 -3.11224 0.233708 0
M  V30 2802 N 264.58 -0.43555 -1.51462 0
M  V30 2803 C 265.808 0.130242 -2.0649 0
M  V30 2804 C 266.223 1.36614 -1.30315 0
M  V30 2805 O 265.58 1.78869 -0.362223 0
M  V30 2806 C 265.631 0.454253 -3.58635 0
M  V30 2807 O 265.352 -0.73259 -4.31931 0
M  V30 2808 C 266.853 1.07091 -4.3017 0
M  V30 2809 H 264.073 0.00871669 -0.670943 0
M  V30 2810 H 266.617 -0.614117 -1.95061 0
M  V30 2811 H 264.772 1.14851 -3.69984 0
M  V30 2812 H 265.186 -0.455787 -5.22516 0
M  V30 2813 H 266.66 1.24764 -5.37716 0
M  V30 2814 H 267.137 2.05144 -3.88346 0
M  V30 2815 H 267.743 0.416089 -4.2326 0
M  V30 2816 N 266.058 1.56714 -0.166846 0
M  V30 2817 C 267.469 1.83378 0.350646 0
M  V30 2818 C 267.82 1.08646 1.63372 0
M  V30 2819 O 266.945 0.338058 2.13743 0
M  V30 2820 C 267.54 3.32643 0.642963 0
M  V30 2821 C 266.099 3.59818 1.10491 0
M  V30 2822 C 265.246 2.76954 0.138411 0
M  V30 2823 H 268.197 1.53803 -0.391193 0
M  V30 2824 H 268.218 3.49878 1.49551 0
M  V30 2825 H 267.73 3.87007 -0.291055 0
M  V30 2826 H 265.831 3.1086 2.05418 0
M  V30 2827 H 265.944 4.68178 1.01716 0
M  V30 2828 H 264.308 2.4666 0.634911 0
M  V30 2829 H 265.091 3.34097 -0.789549 0
M  V30 2830 N 267.536 -0.106894 1.57237 0
M  V30 2831 C 268.466 -1.13148 2.04254 0
M  V30 2832 C 269.447 -1.42476 0.929224 0
M  V30 2833 O 270.632 -1.52709 1.19973 0
M  V30 2834 C 267.762 -2.4545 2.45706 0
M  V30 2835 C 266.716 -2.30558 3.60592 0
M  V30 2836 C 266.042 -3.67931 3.87983 0
M  V30 2837 C 267.342 -1.75597 4.91897 0
M  V30 2838 H 269.036 -0.740374 2.90101 0
M  V30 2839 H 266.582 -0.354696 1.39563 0
M  V30 2840 H 268.535 -3.17389 2.77205 0
M  V30 2841 H 267.259 -2.86475 1.56843 0
M  V30 2842 H 265.918 -1.61067 3.29322 0
M  V30 2843 H 265.566 -4.06462 2.96306 0
M  V30 2844 H 265.266 -3.58817 4.65322 0
M  V30 2845 H 266.79 -4.41356 4.21945 0
M  V30 2846 H 268.204 -2.37364 5.21854 0
M  V30 2847 H 266.601 -1.77272 5.73319 0
M  V30 2848 H 267.671 -0.714451 4.79608 0
M  V30 2849 N 269.014 -1.53014 -0.377408 0
M  V30 2850 C 270.239 -1.72818 -1.14668 0
M  V30 2851 C 270.664 -0.450725 -1.8262 0
M  V30 2852 O 270.022 0.59439 -1.7128 0
M  V30 2853 C 270.07 -2.88627 -2.16164 0
M  V30 2854 O 269.174 -2.56409 -3.22998 0
M  V30 2855 H 268.515 -0.574301 -0.333278 0
M  V30 2856 H 271.045 -1.99853 -0.438152 0
M  V30 2857 H 271.055 -3.14455 -2.59966 0
M  V30 2858 H 269.73 -3.81294 -1.66095 0
M  V30 2859 H 268.307 -2.4136 -2.84253 0
M  V30 2860 N 270.492 0.636531 -1.44174 0
M  V30 2861 C 271.732 1.40781 -1.48189 0
M  V30 2862 C 272.096 1.91688 -0.10944 0
M  V30 2863 O 273.297 2.68789 -0.0242741 0
M  V30 2864 C 271.568 2.54575 -2.50851 0
M  V30 2865 S 273.127 3.4284 -2.73873 0
M  V30 2866 H 269.945 0.480345 -0.524204 0
M  V30 2867 H 272.547 0.737416 -1.81059 0
M  V30 2868 H 271.251 2.15478 -3.49281 0
M  V30 2869 H 270.782 3.26447 -2.19536 0
M  V30 2870 H 272.797 4.51846 -2.05059 0
M  V30 2871 N 271.97 1.30982 0.876444 0
M  V30 2872 C 272.902 1.13902 1.98894 0
M  V30 2873 C 273.915 0.0798815 1.62604 0
M  V30 2874 O 275.104 0.326743 1.75484 0
M  V30 2875 C 272.204 0.716699 3.31235 0
M  V30 2876 C 271.377 1.85945 3.95908 0
M  V30 2877 C 270.436 1.42426 5.06558 0
M  V30 2878 O 269.462 2.13287 5.27729 0
M  V30 2879 N 270.664 0.308025 5.79682 0
M  V30 2880 H 273.429 2.09724 2.14094 0
M  V30 2881 H 270.99 1.2323 1.05004 0
M  V30 2882 H 272.982 0.408403 4.02634 0
M  V30 2883 H 271.552 -0.149719 3.12241 0
M  V30 2884 H 270.772 2.33541 3.17573 0
M  V30 2885 H 272.06 2.62503 4.35855 0
M  V30 2886 H 271.458 -0.282241 5.64995 0
M  V30 2887 H 270.015 0.0592282 6.51773 0
M  V30 2888 N 273.449 -1.08991 1.13837 0
M  V30 2889 C 274.397 -2.17841 0.815347 0
M  V30 2890 C 275.391 -1.68164 -0.204233 0
M  V30 2891 O 276.597 -1.79897 -0.0609304 0
M  V30 2892 H 272.972 -0.710654 0.245915 0
M  V30 2893 H 274.943 -2.42315 1.74143 0
M  V30 2894 C 273.692 -3.46381 0.302614 0
M  V30 2895 H 273.015 -3.84979 1.0785 0
M  V30 2896 H 274.455 -4.23844 0.115074 0
M  V30 2897 C 272.914 -3.22556 -0.972591 0
M  V30 2898 O 273.444 -3.45599 -2.04754 0
M  V30 2899 N 271.65 -2.76134 -0.905455 0
M  V30 2900 H 271.197 -2.57582 -0.0305421 0
M  V30 2901 H 271.155 -2.60571 -1.75926 0
M  V30 2902 N 274.927 -0.932562 -1.27047 0
M  V30 2903 C 276.175 -0.574422 -1.93765 0
M  V30 2904 C 276.496 0.887993 -1.73608 0
M  V30 2905 O 275.766 1.62999 -1.08665 0
M  V30 2906 H 274.346 -0.209451 -0.717035 0
M  V30 2907 H 277.008 -1.18601 -1.5466 0
M  V30 2908 H 276.104 -0.784841 -3.02071 0
M  V30 2909 N 276.405 1.4127 -0.698611 0
M  V30 2910 C 277.653 2.00782 -0.230409 0
M  V30 2911 C 277.974 1.5562 1.17505 0
M  V30 2912 O 277.244 0.78815 1.79346 0
M  V30 2913 H 275.824 0.742464 -0.0821944 0
M  V30 2914 H 278.486 1.72852 -0.90045 0
M  V30 2915 H 277.582 3.11095 -0.25021 0
M  V30 2916 N 277.883 0.443576 1.51229 0
M  V30 2917 C 279.111 -0.11929 2.06556 0
M  V30 2918 C 279.526 -1.35921 1.31038 0
M  V30 2919 O 278.883 -1.78675 0.371704 0
M  V30 2920 C 278.934 -0.435228 3.5887 0
M  V30 2921 O 278.655 0.755486 4.31537 0
M  V30 2922 C 280.156 -1.04808 4.30732 0
M  V30 2923 H 277.376 -0.0051584 0.67098 0
M  V30 2924 H 279.92 0.624453 1.94733 0
M  V30 2925 H 278.075 -1.12887 3.70588 0
M  V30 2926 H 278.489 0.483491 5.22267 0
M  V30 2927 H 279.963 -1.2191 5.3837 0
M  V30 2928 H 280.44 -2.03081 3.89429 0
M  V30 2929 H 281.046 -0.393637 4.23474 0
M  V30 2930 N 279.361 -1.56624 0.175154 0
M  V30 2931 C 280.601 -1.98894 -0.471221 0
M  V30 2932 C 280.965 -1.05889 -1.60161 0
M  V30 2933 O 282.166 -1.37315 -2.3108 0
M  V30 2934 C 280.437 -3.44865 -0.938241 0
M  V30 2935 S 281.996 -4.09164 -1.58526 0
M  V30 2936 H 278.814 -0.694686 -0.151434 0
M  V30 2937 H 281.416 -1.93577 0.27352 0
M  V30 2938 H 280.12 -4.10265 -0.10518 0
M  V30 2939 H 279.651 -3.53956 -1.71693 0
M  V30 2940 H 281.666 -4.04528 -2.87352 0
M  V30 2941 N 280.839 0.0985539 -1.57292 0
M  V30 2942 C 282.085 0.803867 -1.86188 0
M  V30 2943 C 282.418 1.78549 -0.763794 0
M  V30 2944 O 281.693 1.93153 0.22855 0
M  V30 2945 C 281.976 1.53568 -3.25713 0
M  V30 2946 C 281.829 0.572277 -4.46145 0
M  V30 2947 C 283.148 2.48708 -3.63087 0
M  V30 2948 H 280.267 0.290781 -0.677211 0
M  V30 2949 H 282.909 0.0675783 -1.8988 0
M  V30 2950 H 281.059 2.16332 -3.22696 0
M  V30 2951 H 282.731 -0.0480894 -4.61275 0
M  V30 2952 H 280.974 -0.114618 -4.33649 0
M  V30 2953 H 281.645 1.12139 -5.40489 0
M  V30 2954 H 284.121 1.96039 -3.67026 0
M  V30 2955 H 282.997 2.96932 -4.61652 0
M  V30 2956 H 283.258 3.32309 -2.91588 0
M  V30 2957 N 282.317 1.53212 0.369288 0
M  V30 2958 C 283.265 1.80054 1.47253 0
M  V30 2959 C 284.259 0.669456 1.55611 0
M  V30 2960 O 285.465 0.852328 1.58541 0
M  V30 2961 H 281.84 0.570034 0.490475 0
M  V30 2962 H 283.811 2.72403 1.21817 0
M  V30 2963 C 282.56 2.00403 2.84137 0
M  V30 2964 H 281.883 2.86876 2.78464 0
M  V30 2965 H 283.323 2.23164 3.60519 0
M  V30 2966 C 281.782 0.782081 3.27697 0
M  V30 2967 O 282.312 -0.0310205 4.01688 0
M  V30 2968 N 280.518 0.606573 2.84199 0
M  V30 2969 H 280.065 1.26939 2.24152 0
M  V30 2970 H 280.023 -0.20962 3.137 0
M  V30 2971 N 283.795 -0.628877 1.44509 0
M  V30 2972 C 285.023 -1.41554 1.50897 0
M  V30 2973 C 285.438 -1.8832 0.134564 0
M  V30 2974 O 284.795 -1.60969 -0.859965 0
M  V30 2975 C 284.846 -2.63435 2.47556 0
M  V30 2976 O 284.567 -2.18619 3.79654 0
M  V30 2977 C 286.068 -3.56537 2.63431 0
M  V30 2978 H 283.288 -0.434044 0.511709 0
M  V30 2979 H 285.832 -0.768895 1.89495 0
M  V30 2980 H 283.987 -3.24187 2.12089 0
M  V30 2981 H 284.401 -2.97652 4.31861 0
M  V30 2982 H 285.875 -4.38657 3.35088 0
M  V30 2983 H 286.352 -4.05493 1.68738 0
M  V30 2984 H 286.958 -3.01653 2.9981 0
M  V30 2985 N 285.273 -1.31445 -0.869486 0
M  V30 2986 C 286.206 -1.13465 -1.97992 0
M  V30 2987 C 287.184 -0.0380291 -1.62556 0
M  V30 2988 O 288.368 -0.194544 -1.87493 0
M  V30 2989 C 285.495 -0.733822 -3.30655 0
M  V30 2990 C 284.541 -1.83356 -3.85075 0
M  V30 2991 S 285.374 -3.43909 -4.10472 0
M  V30 2992 C 286.53 -3.05763 -5.46132 0
M  V30 2993 H 286.763 -2.07471 -2.1294 0
M  V30 2994 H 284.296 -1.15936 -1.01972 0
M  V30 2995 H 286.254 -0.509306 -4.07328 0
M  V30 2996 H 284.915 0.187123 -3.13542 0
M  V30 2997 H 284.108 -1.50574 -4.80982 0
M  V30 2998 H 283.71 -2.01315 -3.15195 0
M  V30 2999 H 286.002 -2.54686 -6.27807 0
M  V30 3000 H 286.945 -4.00635 -5.83864 0
M  V30 3001 H 287.353 -2.43192 -5.09429 0
M  V30 3002 N 286.751 1.08385 -1.14413 0
M  V30 3003 C 287.999 1.80419 -0.910679 0
M  V30 3004 C 288.32 1.86658 0.564243 0
M  V30 3005 O 287.59 1.35985 1.41014 0
M  V30 3006 H 286.17 0.668204 -0.333934 0
M  V30 3007 H 288.832 1.31037 -1.44275 0
M  V30 3008 H 287.928 2.83238 -1.31082 0
M  V30 3009 N 288.23 0.939286 1.26551 0
M  V30 3010 C 289.455 0.602008 1.98471 0
M  V30 3011 C 289.88 -0.815624 1.69497 0
M  V30 3012 O 289.238 -1.54912 0.941905 0
M  V30 3013 C 289.286 0.848407 3.50477 0
M  V30 3014 O 288.39 -0.0804009 4.12322 0
M  V30 3015 H 287.731 0.23049 0.622712 0
M  V30 3016 H 290.261 1.2617 1.61066 0
M  V30 3017 H 290.271 0.768553 4.00696 0
M  V30 3018 H 288.946 1.88171 3.70897 0
M  V30 3019 H 287.523 0.0503508 3.72866 0
M  V30 3020 N 289.708 -1.40897 0.706093 0
M  V30 3021 C 290.938 -2.05075 0.250523 0
M  V30 3022 C 291.346 -1.53275 -1.10921 0
M  V30 3023 O 290.689 -0.680281 -1.7064 0
M  V30 3024 C 290.751 -3.59219 0.142178 0
M  V30 3025 C 290.415 -4.33864 1.43566 0
M  V30 3026 C 291.412 -4.62448 2.37566 0
M  V30 3027 C 289.097 -4.72946 1.69195 0
M  V30 3028 C 291.091 -5.29088 3.5545 0
M  V30 3029 C 288.778 -5.3932 2.87362 0
M  V30 3030 C 289.776 -5.6732 3.80312 0
M  V30 3031 O 289.464 -6.32325 4.96408 0
M  V30 3032 H 289.196 -0.666645 0.112074 0
M  V30 3033 H 291.75 -1.81467 0.962239 0
M  V30 3034 H 289.98 -3.81609 -0.6254 0
M  V30 3035 H 291.669 -4.0495 -0.277584 0
M  V30 3036 H 292.435 -4.32727 2.19027 0
M  V30 3037 H 288.314 -4.50527 0.977042 0
M  V30 3038 H 291.858 -5.50859 4.28018 0
M  V30 3039 H 287.755 -5.68461 3.05814 0
M  V30 3040 H 288.523 -6.50821 4.9636 0
M  V30 3041 N 291.186 -0.45159 -1.50991 0
M  V30 3042 C 292.411 0.110667 -2.07105 0
M  V30 3043 C 292.836 1.3446 -1.31538 0
M  V30 3044 O 292.194 1.77743 -0.357365 0
M  V30 3045 C 292.242 0.397238 -3.58405 0
M  V30 3046 O 291.346 1.48124 -3.84881 0
M  V30 3047 H 290.687 -0.00439271 -0.663985 0
M  V30 3048 H 293.217 -0.637026 -1.9443 0
M  V30 3049 H 293.227 0.64351 -4.02893 0
M  V30 3050 H 291.902 -0.504553 -4.12828 0
M  V30 3051 H 290.479 1.22381 -3.52246 0
M  V30 3052 N 292.664 1.56529 -0.183458 0
M  V30 3053 C 293.904 1.99141 0.460667 0
M  V30 3054 C 294.268 1.06736 1.59597 0
M  V30 3055 O 295.469 1.38538 2.30349 0
M  V30 3056 C 293.74 3.45358 0.919939 0
M  V30 3057 S 295.299 4.09999 1.56354 0
M  V30 3058 H 292.117 0.695479 0.147748 0
M  V30 3059 H 294.719 1.93429 -0.283782 0
M  V30 3060 H 293.423 4.10315 0.0834208 0
M  V30 3061 H 292.954 3.54862 1.69814 0
M  V30 3062 H 294.969 4.06046 2.85203 0
M  V30 3063 N 294.142 -0.090211 1.57342 0
M  V30 3064 C 295.092 -1.11557 1.98844 0
M  V30 3065 C 296.076 -1.35503 0.867624 0
M  V30 3066 O 297.268 -1.36113 1.13148 0
M  V30 3067 C 294.397 -2.43446 2.42051 0
M  V30 3068 C 293.483 -2.22853 3.60828 0
M  V30 3069 N 293.874 -1.72141 4.75606 0
M  V30 3070 C 292.172 -2.53401 3.67021 0
M  V30 3071 C 292.873 -1.65932 5.57531 0
M  V30 3072 N 291.849 -2.11323 5.00843 0
M  V30 3073 H 295.651 -0.716499 2.85032 0
M  V30 3074 H 293.165 -0.297567 1.59651 0
M  V30 3075 H 295.162 -3.17644 2.70014 0
M  V30 3076 H 293.822 -2.84087 1.57241 0
M  V30 3077 H 294.833 -1.41268 4.98261 0
M  V30 3078 H 291.51 -2.97532 2.92884 0
M  V30 3079 H 292.9 -1.27733 6.59647 0
M  V30 3080 N 295.62 -1.53406 -0.361157 0
M  V30 3081 C 296.86 -1.71507 -1.11197 0
M  V30 3082 C 297.224 -0.459337 -1.86425 0
M  V30 3083 O 298.425 -0.517102 -2.63779 0
M  V30 3084 C 296.696 -2.93307 -2.0422 0
M  V30 3085 S 298.255 -3.32135 -2.86761 0
M  V30 3086 H 295.073 -0.603448 -0.375995 0
M  V30 3087 H 297.675 -1.91516 -0.392642 0
M  V30 3088 H 296.379 -3.82891 -1.47724 0
M  V30 3089 H 295.91 -2.75712 -2.80618 0
M  V30 3090 H 297.925 -2.84493 -4.06544 0
M  V30 3091 N 297.098 0.621204 -1.44841 0
M  V30 3092 C 298.509 1.20298 -1.42777 0
M  V30 3093 C 298.86 1.95639 -0.148259 0
M  V30 3094 O 297.985 2.02955 0.750892 0
M  V30 3095 C 298.58 2.1882 -2.58657 0
M  V30 3096 C 297.139 2.72403 -2.59756 0
M  V30 3097 C 296.286 1.4757 -2.34773 0
M  V30 3098 H 299.237 0.411297 -1.53278 0
M  V30 3099 H 299.258 3.01607 -2.31977 0
M  V30 3100 H 298.77 1.63957 -3.51766 0
M  V30 3101 H 296.871 3.31242 -1.70615 0
M  V30 3102 H 296.984 3.17765 -3.58556 0
M  V30 3103 H 295.348 1.76051 -1.8406 0
M  V30 3104 H 296.131 0.945954 -3.3001 0
M  V30 3105 N 298.576 1.31904 0.862503 0
M  V30 3106 C 299.987 1.19803 1.43193 0
M  V30 3107 C 300.338 -0.192567 1.95253 0
M  V30 3108 O 299.463 -1.09081 1.86896 0
M  V30 3109 C 300.058 2.16883 2.60283 0
M  V30 3110 C 298.617 2.08692 3.13248 0
M  V30 3111 C 297.764 2.05691 1.85975 0
M  V30 3112 H 300.715 1.43846 0.670365 0
M  V30 3113 H 300.736 1.76278 3.37204 0
M  V30 3114 H 300.248 3.18083 2.22363 0
M  V30 3115 H 298.349 1.10713 3.55771 0
M  V30 3116 H 298.462 2.9815 3.75025 0
M  V30 3117 H 296.826 1.50814 2.05249 0
M  V30 3118 H 297.609 3.08659 1.50282 0
M  V30 3119 N 300.054 -1.07777 1.14986 0
M  V30 3120 C 300.964 -2.18404 0.856546 0
M  V30 3121 C 301.98 -1.73211 -0.165485 0
M  V30 3122 O 303.156 -2.01399 0.00755219 0
M  V30 3123 C 300.221 -3.44977 0.34526 0
M  V30 3124 C 299.282 -4.0476 1.43065 0
M  V30 3125 C 298.515 -5.25291 0.943663 0
M  V30 3126 O 298.738 -5.70004 -0.212426 0
M  V30 3127 O 297.672 -5.76638 1.72547 0
M  V30 3128 H 301.498 -2.45978 1.78125 0
M  V30 3129 H 299.083 -1.17033 0.928631 0
M  V30 3130 H 300.965 -4.21348 0.0663671 0
M  V30 3131 H 299.64 -3.18965 -0.551631 0
M  V30 3132 H 298.547 -3.29949 1.76309 0
M  V30 3133 H 299.88 -4.35035 2.30229 0
M  V30 3134 N 301.532 -0.945985 -1.26051 0
M  V30 3135 C 302.76 -0.613025 -1.9761 0
M  V30 3136 C 303.175 0.813035 -1.70397 0
M  V30 3137 O 302.532 1.54274 -0.974979 0
M  V30 3138 C 302.583 -0.85159 -3.51326 0
M  V30 3139 O 302.304 -2.22157 -3.77595 0
M  V30 3140 C 303.805 -0.529831 -4.40122 0
M  V30 3141 H 301.025 -0.230593 -0.630133 0
M  V30 3142 H 303.569 -1.268 -1.60443 0
M  V30 3143 H 301.724 -0.243151 -3.86636 0
M  V30 3144 H 302.138 -2.2852 -4.721 0
M  V30 3145 H 303.612 -0.747348 -5.46917 0
M  V30 3146 H 304.089 0.535341 -4.35925 0
M  V30 3147 H 304.695 -1.11721 -4.10364 0
M  V30 3148 N 303.011 1.40521 -0.713556 0
M  V30 3149 C 304.241 2.0494 -0.261395 0
M  V30 3150 C 304.649 1.53861 1.10107 0
M  V30 3151 O 303.992 0.689321 1.70276 0
M  V30 3152 C 304.054 3.59138 -0.161227 0
M  V30 3153 C 303.718 4.33096 -1.45865 0
M  V30 3154 C 304.715 4.61182 -2.40016 0
M  V30 3155 C 302.4 4.72043 -1.71701 0
M  V30 3156 C 304.394 5.27196 -3.58251 0
M  V30 3157 C 302.081 5.37789 -2.90218 0
M  V30 3158 C 303.079 5.65295 -3.83315 0
M  V30 3159 O 302.767 6.29683 -4.99754 0
M  V30 3160 H 302.499 0.666041 -0.115608 0
M  V30 3161 H 305.053 1.80954 -0.971849 0
M  V30 3162 H 303.283 3.81936 0.605153 0
M  V30 3163 H 304.972 4.05091 0.256105 0
M  V30 3164 H 305.738 4.31559 -2.21318 0
M  V30 3165 H 301.617 4.50003 -1.00092 0
M  V30 3166 H 305.161 5.48582 -4.30934 0
M  V30 3167 H 301.058 5.66831 -3.08825 0
M  V30 3168 H 301.826 6.4818 -4.99805 0
M  V30 3169 N 304.489 0.459591 1.5075 0
M  V30 3170 C 305.737 -0.0991532 2.01857 0
M  V30 3171 C 306.058 -1.41247 1.34441 0
M  V30 3172 O 305.328 -1.89775 0.486022 0
M  V30 3173 H 303.908 -0.039633 0.745948 0
M  V30 3174 H 306.57 0.607387 1.85194 0
M  V30 3175 H 305.666 -0.258998 3.11023 0
M  V30 3176 N 305.967 -1.56429 0.191757 0
M  V30 3177 C 307.378 -1.83912 -0.321428 0
M  V30 3178 C 307.729 -1.11231 -1.61623 0
M  V30 3179 O 306.854 -0.37202 -2.13178 0
M  V30 3180 C 307.449 -3.33624 -0.589961 0
M  V30 3181 C 306.008 -3.6153 -1.04753 0
M  V30 3182 C 305.155 -2.7714 -0.0943327 0
M  V30 3183 H 308.106 -1.53161 0.415612 0
M  V30 3184 H 308.127 -3.52213 -1.43966 0
M  V30 3185 H 307.639 -3.86495 0.352588 0
M  V30 3186 H 305.74 -3.14089 -2.00447 0
M  V30 3187 H 305.853 -4.69737 -0.942549 0
M  V30 3188 H 304.217 -2.47638 -0.595589 0
M  V30 3189 H 305 -3.32799 0.842601 0
M  V30 3190 N 307.445 0.0818655 -1.57387 0
M  V30 3191 C 308.377 1.12484 -1.997 0
M  V30 3192 C 309.39 1.35564 -0.90146 0
M  V30 3193 O 310.579 1.33982 -1.17945 0
M  V30 3194 C 307.679 2.47778 -2.31213 0
M  V30 3195 C 306.852 2.44793 -3.62485 0
M  V30 3196 C 305.911 3.62117 -3.81782 0
M  V30 3197 O 304.937 3.44005 -4.53486 0
M  V30 3198 N 306.139 4.82094 -3.23367 0
M  V30 3199 H 308.904 0.764585 -2.89783 0
M  V30 3200 H 306.465 0.270664 -1.59621 0
M  V30 3201 H 308.457 3.24891 -2.41304 0
M  V30 3202 H 307.027 2.75843 -1.4707 0
M  V30 3203 H 306.247 1.53134 -3.6324 0
M  V30 3204 H 307.535 2.39889 -4.48699 0
M  V30 3205 H 306.933 4.99713 -2.65148 0
M  V30 3206 H 305.49 5.56753 -3.38923 0
M  V30 3207 N 308.923 1.53595 0.353017 0
M  V30 3208 C 310.163 1.72094 1.10286 0
M  V30 3209 C 310.527 0.469217 1.86178 0
M  V30 3210 O 311.728 0.531083 2.63501 0
M  V30 3211 C 309.999 2.94386 2.02661 0
M  V30 3212 S 311.558 3.33651 2.84996 0
M  V30 3213 H 308.376 0.605433 0.372789 0
M  V30 3214 H 310.978 1.91722 0.38248 0
M  V30 3215 H 309.682 3.83669 1.45691 0
M  V30 3216 H 309.213 2.77197 2.79152 0
M  V30 3217 H 311.228 2.86645 4.0503 0
M  V30 3218 N 310.401 -0.613514 1.45168 0
M  V30 3219 C 311.364 -1.7065 1.53007 0
M  V30 3220 C 312.364 -1.5548 0.410184 0
M  V30 3221 O 313.554 -1.60656 0.673455 0
M  V30 3222 C 310.686 -3.09875 1.42093 0
M  V30 3223 H 311.879 -1.65068 2.50385 0
M  V30 3224 H 309.432 -0.828728 1.32521 0
M  V30 3225 H 310.167 -3.21039 0.458769 0
M  V30 3226 H 309.952 -3.22293 2.23315 0
M  V30 3227 H 311.442 -3.895 1.50598 0
M  V30 3228 N 311.879 -1.3236 -0.855495 0
M  V30 3229 C 313.104 -1.2601 -1.64731 0
M  V30 3230 C 313.529 0.169068 -1.87339 0
M  V30 3231 O 312.887 1.12016 -1.42556 0
M  V30 3232 C 312.935 -2.02417 -2.98429 0
M  V30 3233 O 312.039 -1.3714 -3.8893 0
M  V30 3234 H 311.38 -0.434325 -0.502253 0
M  V30 3235 H 313.91 -1.74661 -1.06558 0
M  V30 3236 H 313.92 -2.12559 -3.48257 0
M  V30 3237 H 312.595 -3.06343 -2.81295 0
M  V30 3238 H 311.172 -1.3554 -3.47395 0
M  V30 3239 N 313.357 1.07166 -1.15556 0
M  V30 3240 C 314.304 2.14417 -0.854055 0
M  V30 3241 C 315.274 1.64965 0.193806 0
M  V30 3242 O 316.459 1.90703 0.0609443 0
M  V30 3243 C 313.599 3.43304 -0.351574 0
M  V30 3244 C 312.712 4.06537 -1.46123 0
M  V30 3245 C 311.847 5.23266 -0.914677 0
M  V30 3246 C 310.886 5.78464 -2.00114 0
M  V30 3247 N 310.023 6.86521 -1.47083 0
M  V30 3248 H 314.863 2.39548 -1.77259 0
M  V30 3249 H 312.4 1.17543 -0.884425 0
M  V30 3250 H 314.358 4.17179 -0.0419409 0
M  V30 3251 H 312.988 3.18419 0.530037 0
M  V30 3252 H 312.04 3.30297 -1.88701 0
M  V30 3253 H 313.352 4.43567 -2.28144 0
M  V30 3254 H 312.506 6.04131 -0.557698 0
M  V30 3255 H 311.245 4.87658 -0.0636583 0
M  V30 3256 H 310.25 4.96243 -2.36692 0
M  V30 3257 H 311.475 6.16126 -2.85597 0
M  V30 3258 H 309.421 6.52849 -0.642198 0
M  V30 3259 H 309.338 7.22446 -2.22729 0
M  V30 3260 H 310.606 7.71087 -1.14215 0
M  V30 3261 N 314.835 0.952656 1.25548 0
M  V30 3262 C 316.065 0.622592 1.96996 0
M  V30 3263 C 316.473 -0.809112 1.71026 0
M  V30 3264 O 315.816 -1.55258 0.981861 0
M  V30 3265 C 315.878 0.798946 3.5051 0
M  V30 3266 C 315.542 2.20744 4.00151 0
M  V30 3267 C 316.539 3.18394 4.11001 0
M  V30 3268 C 314.224 2.5311 4.33867 0
M  V30 3269 C 316.218 4.46504 4.54877 0
M  V30 3270 C 313.905 3.8145 4.7743 0
M  V30 3271 C 314.903 4.77959 4.87897 0
M  V30 3272 O 314.591 6.04012 5.30494 0
M  V30 3273 H 314.323 0.232503 0.634758 0
M  V30 3274 H 316.877 1.2789 1.60728 0
M  V30 3275 H 315.107 0.0854903 3.86605 0
M  V30 3276 H 316.796 0.47023 4.03167 0
M  V30 3277 H 317.562 2.94715 3.85186 0
M  V30 3278 H 313.441 1.78719 4.24948 0
M  V30 3279 H 316.985 5.21835 4.62962 0
M  V30 3280 H 312.882 4.04936 5.0269 0
M  V30 3281 H 313.65 6.0736 5.48685 0
M  V30 3282 N 316.313 -1.40141 0.720998 0
M  V30 3283 C 317.59 -1.94677 0.189757 0
M  V30 3284 C 317.97 -1.65879 -1.30566 0
M  V30 3285 O 317.318 -0.979391 -2.06447 0
M  V30 3286 C 317.528 -3.45279 0.508304 0
M  V30 3287 C 318.876 -4.22209 0.449934 0
M  V30 3288 O 319.9 -3.53413 0.444677 0
M  V30 3289 O 318.759 -5.44788 0.432189 0
M  V30 3290 H 315.853 -0.826459 0.0299026 0
M  V30 3291 H 318.399 -1.49719 0.7989 0
M  V30 3292 H 317.171 -3.59619 1.54239 0
M  V30 3293 H 316.794 -3.97386 -0.130525 0
M  V30 3294 N 317.792 -0.46758 -1.50504 0
M  V30 3295 C 319.069 0.15003 -1.95024 0
M  V30 3296 C 319.449 1.57304 -1.40779 0
M  V30 3297 O 318.797 2.20281 -0.607319 0
M  V30 3298 C 319.007 0.0969324 -3.48865 0
M  V30 3299 C 320.355 0.287565 -4.23625 0
M  V30 3300 O 321.379 0.173678 -3.55776 0
M  V30 3301 O 320.238 0.517186 -5.44047 0
M  V30 3302 H 317.332 0.113582 -0.819163 0
M  V30 3303 H 319.878 -0.52773 -1.61286 0
M  V30 3304 H 318.65 -0.896732 -3.80886 0
M  V30 3305 H 318.273 0.816303 -3.8913 0
M  V30 3306 N 319.27 1.56325 -0.20005 0
M  V30 3307 C 320.51 1.99619 0.439519 0
M  V30 3308 C 320.874 1.08423 1.58456 0
M  V30 3309 O 322.075 1.40973 2.28867 0
M  V30 3310 C 320.346 3.46314 0.883258 0
M  V30 3311 S 321.905 4.11634 1.51997 0
M  V30 3312 H 318.723 0.697007 0.140363 0
M  V30 3313 H 321.325 1.93118 -0.304282 0
M  V30 3314 H 320.029 4.10381 0.0398967 0
M  V30 3315 H 319.56 3.56643 1.6604 0
M  V30 3316 H 321.575 4.09049 2.8088 0
M  V30 3317 N 320.748 -0.0735177 1.57428 0
M  V30 3318 C 321.658 -1.10547 2.06922 0
M  V30 3319 C 322.674 -1.42506 0.998402 0
M  V30 3320 O 323.85 -1.52717 1.31299 0
M  V30 3321 C 320.915 -2.40019 2.50184 0
M  V30 3322 C 319.976 -2.15046 3.71556 0
M  V30 3323 C 319.209 -3.38345 4.12745 0
M  V30 3324 O 319.432 -4.47399 3.53822 0
M  V30 3325 O 318.366 -3.2666 5.05546 0
M  V30 3326 H 322.192 -0.715013 2.95163 0
M  V30 3327 H 319.777 -0.287531 1.46607 0
M  V30 3328 H 321.659 -3.16218 2.78539 0
M  V30 3329 H 320.334 -2.78447 1.65072 0
M  V30 3330 H 319.241 -1.36558 3.48285 0
M  V30 3331 H 320.574 -1.81499 4.57514 0
M  V30 3332 N 322.226 -1.5378 -0.344866 0
M  V30 3333 C 323.474 -1.70625 -1.08311 0
M  V30 3334 C 323.795 -0.471447 -1.89215 0
M  V30 3335 O 323.065 0.514616 -1.8902 0
M  V30 3336 H 321.645 -0.629058 -0.402859 0
M  V30 3337 H 324.307 -1.9103 -0.386459 0
M  V30 3338 H 323.403 -2.57656 -1.76124 0
M  V30 3339 N 323.704 0.605807 -1.45491 0
M  V30 3340 C 324.952 1.36207 -1.49305 0
M  V30 3341 C 325.273 1.94519 -0.136863 0
M  V30 3342 O 324.543 1.77261 0.833983 0
M  V30 3343 H 323.123 0.50565 -0.549843 0
M  V30 3344 H 325.785 0.711239 -1.81459 0
M  V30 3345 H 324.881 2.18058 -2.23287 0
M  V30 3346 N 325.182 1.32811 0.848464 0
M  V30 3347 C 326.407 1.26882 1.6406 0
M  V30 3348 C 326.832 -0.15913 1.87426 0
M  V30 3349 O 326.19 -1.11258 1.43148 0
M  V30 3350 C 326.238 2.03997 2.97351 0
M  V30 3351 O 325.342 1.39201 3.88197 0
M  V30 3352 H 324.683 0.436982 0.499943 0
M  V30 3353 H 327.213 1.75224 1.0563 0
M  V30 3354 H 327.223 2.14403 3.47124 0
M  V30 3355 H 325.898 3.0783 2.79666 0
M  V30 3356 H 324.475 1.37381 3.46671 0
M  V30 3357 N 326.66 -1.06551 1.16123 0
M  V30 3358 C 327.906 -1.79567 0.94252 0
M  V30 3359 C 328.239 -1.86869 -0.528547 0
M  V30 3360 O 327.514 -1.35838 -1.39206 0
M  V30 3361 C 327.797 -3.24195 1.56747 0
M  V30 3362 C 327.65 -3.24989 3.10969 0
M  V30 3363 C 328.969 -4.21678 1.25998 0
M  V30 3364 H 326.088 -0.651883 0.343828 0
M  V30 3365 H 328.73 -1.2463 1.43413 0
M  V30 3366 H 326.88 -3.71107 1.14942 0
M  V30 3367 H 328.552 -2.86258 3.61737 0
M  V30 3368 H 326.795 -2.63716 3.44436 0
M  V30 3369 H 327.466 -4.27005 3.49815 0
M  V30 3370 H 329.942 -3.83196 1.62174 0
M  V30 3371 H 328.818 -5.21146 1.7233 0
M  V30 3372 H 329.079 -4.4174 0.178367 0
M  V30 3373 N 328.138 -0.959301 -1.25041 0
M  V30 3374 C 329.101 -0.487677 -2.23952 0
M  V30 3375 C 330.101 0.41119 -1.55454 0
M  V30 3376 O 331.291 0.207825 -1.72956 0
M  V30 3377 C 328.423 0.294807 -3.39623 0
M  V30 3378 H 329.616 -1.36198 -2.67189 0
M  V30 3379 H 327.169 -0.743042 -1.37508 0
M  V30 3380 H 327.904 1.18658 -3.01813 0
M  V30 3381 H 327.689 -0.35012 -3.90534 0
M  V30 3382 H 329.179 0.614089 -4.1306 0
M  V30 3383 N 329.616 1.39756 -0.72842 0
M  V30 3384 C 331.032 1.5442 -0.403308 0
M  V30 3385 C 331.232 1.69694 1.08656 0
M  V30 3386 O 330.288 1.69373 1.87267 0
M  V30 3387 C 331.601 2.76555 -1.18058 0
M  V30 3388 C 333.149 2.90384 -1.16815 0
M  V30 3389 C 333.624 4.15449 -1.92785 0
M  V30 3390 N 335.115 4.22475 -1.89918 0
M  V30 3391 C 335.85 5.1818 -2.45514 0
M  V30 3392 N 335.346 6.19714 -3.09719 0
M  V30 3393 N 337.139 5.1035 -2.35584 0
M  V30 3394 H 329.29 1.28089 -1.69431 0
M  V30 3395 H 331.553 0.620327 -0.716867 0
M  V30 3396 H 331.259 2.7159 -2.23455 0
M  V30 3397 H 331.133 3.69033 -0.780662 0
M  V30 3398 H 333.52 2.94846 -0.12234 0
M  V30 3399 H 333.601 1.98988 -1.6074 0
M  V30 3400 H 333.245 4.11749 -2.97364 0
M  V30 3401 H 333.175 5.05877 -1.46272 0
M  V30 3402 H 335.666 3.49743 -1.43138 0
M  V30 3403 H 335.979 6.8919 -3.49625 0
M  V30 3404 H 334.324 6.20121 -3.13807 0
M  V30 3405 H 337.515 4.2996 -1.85072 0
M  V30 3406 H 337.688 5.84761 -2.79211 0
M  V30 3407 N 331.094 0.475555 1.50254 0
M  V30 3408 C 332.334 -0.0765802 2.04256 0
M  V30 3409 C 332.698 -1.36587 1.34937 0
M  V30 3410 O 333.899 -2.00066 1.79519 0
M  V30 3411 C 332.17 -0.251668 3.56513 0
M  V30 3412 S 333.729 -0.761716 4.32138 0
M  V30 3413 H 330.547 -0.0138456 0.710865 0
M  V30 3414 H 333.149 0.643714 1.84598 0
M  V30 3415 H 331.853 0.692404 4.04517 0
M  V30 3416 H 331.384 -0.997946 3.80532 0
M  V30 3417 H 333.399 -2.03451 4.52573 0
M  V30 3418 N 332.573 -1.56217 0.208337 0
M  V30 3419 C 333.819 -1.98242 -0.427552 0
M  V30 3420 C 334.152 -1.09554 -1.60348 0
M  V30 3421 O 333.427 -0.15035 -1.93918 0
M  V30 3422 C 333.71 -3.4931 -0.874907 0
M  V30 3423 C 333.563 -4.48773 0.303751 0
M  V30 3424 C 334.882 -4.04424 -1.73577 0
M  V30 3425 H 332.001 -0.720744 -0.153936 0
M  V30 3426 H 334.643 -1.87586 0.30192 0
M  V30 3427 H 332.793 -3.58522 -1.49648 0
M  V30 3428 H 334.465 -4.51586 0.941682 0
M  V30 3429 H 332.708 -4.23194 0.953375 0
M  V30 3430 H 333.379 -5.51976 -0.0519883 0
M  V30 3431 H 335.855 -3.98075 -1.21143 0
M  V30 3432 H 334.731 -5.1047 -2.01771 0
M  V30 3433 H 334.992 -3.50494 -2.69456 0
M  V30 3434 N 334.051 0.0651679 -1.57465 0
M  V30 3435 C 335.001 1.0838 -2.00594 0
M  V30 3436 C 335.985 1.34106 -0.889071 0
M  V30 3437 O 337.177 1.34295 -1.15299 0
M  V30 3438 C 334.306 2.39565 -2.45894 0
M  V30 3439 C 333.392 2.17085 -3.64328 0
M  V30 3440 N 333.783 1.64553 -4.78285 0
M  V30 3441 C 332.081 2.4753 -3.71006 0
M  V30 3442 C 332.782 1.57042 -5.60101 0
M  V30 3443 N 331.758 2.03328 -5.04141 0
M  V30 3444 H 335.56 0.671062 -2.86136 0
M  V30 3445 H 333.074 0.27213 -1.60104 0
M  V30 3446 H 335.071 3.13308 -2.75034 0
M  V30 3447 H 333.731 2.81549 -1.61741 0
M  V30 3448 H 334.742 1.33323 -5.00445 0
M  V30 3449 H 331.419 2.92835 -2.9758 0
M  V30 3450 H 332.809 1.17223 -6.61595 0
M  V30 3451 N 335.529 1.53961 0.336706 0
M  V30 3452 C 336.777 1.71197 1.07405 0
M  V30 3453 C 337.098 0.481475 1.88962 0
M  V30 3454 O 336.368 -0.504585 1.8929 0
M  V30 3455 H 334.948 0.631185 0.399517 0
M  V30 3456 H 337.61 1.91232 0.376323 0
M  V30 3457 H 336.706 2.58587 1.74755 0
M  V30 3458 N 337.007 -0.598083 1.45811 0
M  V30 3459 C 338.256 -1.35295 1.49594 0
M  V30 3460 C 338.569 -1.95057 0.145679 0
M  V30 3461 O 339.775 -2.71431 0.0612099 0
M  V30 3462 C 338.231 -2.45124 2.63519 0
M  V30 3463 C 337.839 -1.91732 4.04899 0
M  V30 3464 C 339.583 -3.2205 2.76558 0
M  V30 3465 C 337.49 -2.991 5.1019 0
M  V30 3466 H 336.42 -0.508552 0.556679 0
M  V30 3467 H 339.071 -0.639977 1.71978 0
M  V30 3468 H 337.453 -3.19149 2.34435 0
M  V30 3469 H 338.627 -1.24352 4.43704 0
M  V30 3470 H 336.942 -1.27522 3.96393 0
M  V30 3471 H 339.539 -4.0215 3.52391 0
M  V30 3472 H 339.882 -3.73663 1.83526 0
M  V30 3473 H 340.415 -2.55127 3.05213 0
M  V30 3474 H 337.154 -2.52393 6.04961 0
M  V30 3475 H 336.674 -3.65017 4.75944 0
M  V30 3476 H 338.353 -3.63318 5.35359 0
M  V30 3477 N 338.485 -1.33259 -0.841409 0
M  V30 3478 C 339.725 -1.25902 -1.61022 0
M  V30 3479 C 340.089 0.173325 -1.91216 0
M  V30 3480 O 341.29 0.370824 -2.6623 0
M  V30 3481 C 339.561 -2.10735 -2.88662 0
M  V30 3482 S 341.12 -2.20541 -3.79351 0
M  V30 3483 H 337.938 -0.447958 -0.552137 0
M  V30 3484 H 340.54 -1.68263 -0.995382 0
M  V30 3485 H 339.244 -3.1384 -2.64448 0
M  V30 3486 H 338.775 -1.69201 -3.55154 0
M  V30 3487 H 340.79 -1.36462 -4.77067 0
M  V30 3488 N 339.963 1.05934 -1.16686 0
M  V30 3489 C 340.873 2.17014 -0.891183 0
M  V30 3490 C 341.889 1.73453 0.137907 0
M  V30 3491 O 343.065 2.01361 -0.039592 0
M  V30 3492 C 340.13 3.44384 -0.400099 0
M  V30 3493 C 339.191 4.02433 -1.49486 0
M  V30 3494 C 338.424 5.23723 -1.02711 0
M  V30 3495 O 338.647 5.7027 0.121716 0
M  V30 3496 O 337.581 5.7382 -1.81699 0
M  V30 3497 H 341.407 2.43113 -1.82015 0
M  V30 3498 H 338.992 1.15541 -0.947132 0
M  V30 3499 H 340.874 4.21189 -0.133392 0
M  V30 3500 H 339.549 3.19802 0.500817 0
M  V30 3501 H 338.456 3.27102 -1.81535 0
M  V30 3502 H 339.789 4.31317 -2.37121 0
M  V30 3503 N 341.441 0.965919 1.2453 0
M  V30 3504 C 342.718 0.543777 1.87889 0
M  V30 3505 C 343.098 -0.97909 1.87021 0
M  V30 3506 O 342.446 -1.84969 1.3416 0
M  V30 3507 C 342.656 1.13327 3.30088 0
M  V30 3508 C 344.004 1.21707 4.06783 0
M  V30 3509 O 345.028 1.08566 3.39252 0
M  V30 3510 O 343.887 1.42456 5.27606 0
M  V30 3511 H 340.981 0.181054 0.806938 0
M  V30 3512 H 343.527 1.06007 1.32516 0
M  V30 3513 H 342.299 2.17612 3.25209 0
M  V30 3514 H 341.922 0.600911 3.93033 0
M  V30 3515 N 342.919 -1.39368 0.735821 0
M  V30 3516 C 343.849 -2.33234 0.111506 0
M  V30 3517 C 344.83 -1.53954 -0.723334 0
M  V30 3518 O 346.015 -1.82344 -0.668147 0
M  V30 3519 C 343.145 -3.38057 -0.795917 0
M  V30 3520 C 342.099 -4.2795 -0.065172 0
M  V30 3521 C 341.425 -5.23479 -1.08967 0
M  V30 3522 C 342.725 -5.10741 1.09273 0
M  V30 3523 H 344.419 -2.85692 0.895571 0
M  V30 3524 H 341.965 -1.37364 0.432109 0
M  V30 3525 H 343.918 -4.02675 -1.24221 0
M  V30 3526 H 342.642 -2.8404 -1.61211 0
M  V30 3527 H 341.301 -3.64813 0.361511 0
M  V30 3528 H 340.949 -4.65758 -1.89944 0
M  V30 3529 H 340.649 -5.84472 -0.605489 0
M  V30 3530 H 342.173 -5.90974 -1.53565 0
M  V30 3531 H 343.587 -5.68699 0.724841 0
M  V30 3532 H 341.984 -5.8088 1.50659 0
M  V30 3533 H 343.054 -4.45525 1.91404 0
M  V30 3534 N 344.397 -0.483516 -1.5 0
M  V30 3535 C 345.33 0.350427 -2.25493 0
M  V30 3536 C 346.308 0.985549 -1.29328 0
M  V30 3537 O 347.492 1.01906 -1.58579 0
M  V30 3538 C 344.619 1.49202 -3.04066 0
M  V30 3539 C 343.665 0.973036 -4.15252 0
M  V30 3540 S 344.498 -0.122237 -5.3536 0
M  V30 3541 C 345.654 1.02294 -6.17484 0
M  V30 3542 H 345.887 -0.290381 -2.95878 0
M  V30 3543 H 343.42 -0.268562 -1.52046 0
M  V30 3544 H 345.378 2.14623 -3.49925 0
M  V30 3545 H 344.039 2.10438 -2.33183 0
M  V30 3546 H 343.232 1.82804 -4.69679 0
M  V30 3547 H 342.834 0.396335 -3.71894 0
M  V30 3548 H 345.126 1.93195 -6.49371 0
M  V30 3549 H 346.069 0.517664 -7.06205 0
M  V30 3550 H 346.477 1.28238 -5.49741 0
M  V30 3551 N 345.875 1.56104 -0.216619 0
M  V30 3552 C 347.291 1.58995 0.13886 0
M  V30 3553 C 347.491 1.23333 1.59346 0
M  V30 3554 O 346.547 0.966234 2.33281 0
M  V30 3555 C 347.86 3.00143 -0.182968 0
M  V30 3556 C 349.408 3.12751 -0.124807 0
M  V30 3557 C 349.883 4.56068 -0.420241 0
M  V30 3558 N 351.374 4.61723 -0.369634 0
M  V30 3559 C 352.109 5.70542 -0.571789 0
M  V30 3560 N 351.605 6.87744 -0.835453 0
M  V30 3561 N 353.398 5.59831 -0.504563 0
M  V30 3562 H 345.549 1.77562 -1.16557 0
M  V30 3563 H 347.812 0.825091 -0.466828 0
M  V30 3564 H 347.518 3.30871 -1.19237 0
M  V30 3565 H 347.392 3.73813 0.504367 0
M  V30 3566 H 349.779 2.81822 0.875223 0
M  V30 3567 H 349.86 2.41421 -0.845544 0
M  V30 3568 H 349.504 4.87713 -1.41769 0
M  V30 3569 H 349.434 5.25617 0.321631 0
M  V30 3570 H 351.925 3.77502 -0.173338 0
M  V30 3571 H 352.238 7.66587 -0.977938 0
M  V30 3572 H 350.583 6.895 -0.872592 0
M  V30 3573 H 353.774 4.67145 -0.298842 0
M  V30 3574 H 353.947 6.44573 -0.665519 0
M  V30 3575 N 347.353 -0.0568162 1.57498 0
M  V30 3576 C 348.263 -1.08346 2.08083 0
M  V30 3577 C 349.279 -1.41439 1.01346 0
M  V30 3578 O 350.455 -1.51316 1.32912 0
M  V30 3579 C 347.52 -2.37352 2.52715 0
M  V30 3580 C 346.581 -2.11093 3.73816 0
M  V30 3581 C 345.814 -3.33949 4.1631 0
M  V30 3582 O 346.037 -4.43622 3.58547 0
M  V30 3583 O 344.971 -3.21279 5.08983 0
M  V30 3584 H 348.797 -0.683667 2.95905 0
M  V30 3585 H 346.382 -0.271965 1.46904 0
M  V30 3586 H 348.264 -3.13246 2.81877 0
M  V30 3587 H 346.939 -2.76681 1.68016 0
M  V30 3588 H 345.846 -1.32856 3.49714 0
M  V30 3589 H 347.179 -1.76637 4.59413 0
M  V30 3590 N 348.832 -1.54138 -0.328536 0
M  V30 3591 C 349.764 -1.79509 -1.4251 0
M  V30 3592 C 350.777 -0.67688 -1.48061 0
M  V30 3593 O 351.966 -0.953898 -1.50874 0
M  V30 3594 C 349.066 -1.89337 -2.81078 0
M  V30 3595 C 348.239 -3.19443 -2.98789 0
M  V30 3596 C 347.298 -3.20036 -4.17688 0
M  V30 3597 O 346.324 -3.93697 -4.11086 0
M  V30 3598 N 347.526 -2.43467 -5.26976 0
M  V30 3599 H 350.291 -2.74139 -1.21111 0
M  V30 3600 H 347.852 -1.53373 -0.518499 0
M  V30 3601 H 349.844 -1.87167 -3.58818 0
M  V30 3602 H 348.414 -1.01826 -2.95551 0
M  V30 3603 H 347.634 -3.34614 -2.08391 0
M  V30 3604 H 348.922 -4.05354 -3.07515 0
M  V30 3605 H 348.32 -1.83201 -5.35214 0
M  V30 3606 H 346.877 -2.4708 -6.03154 0
M  V30 3607 N 350.31 0.590341 -1.46126 0
M  V30 3608 C 351.273 1.68194 -1.55703 0
M  V30 3609 C 352.273 1.54808 -0.434868 0
M  V30 3610 O 353.463 1.59564 -0.698928 0
M  V30 3611 C 350.595 3.07575 -1.47005 0
M  V30 3612 H 351.788 1.61064 -2.52979 0
M  V30 3613 H 349.341 0.807541 -1.33823 0
M  V30 3614 H 350.076 3.20268 -0.509785 0
M  V30 3615 H 349.861 3.187 -2.28414 0
M  V30 3616 H 351.351 3.87055 -1.56776 0
M  V30 3617 N 351.788 1.33704 0.83433 0
M  V30 3618 C 353.036 1.25169 1.58673 0
M  V30 3619 C 353.357 -0.18127 1.94156 0
M  V30 3620 O 352.627 -1.11113 1.6134 0
M  V30 3621 H 351.207 0.4603 0.58833 0
M  V30 3622 H 353.869 1.67478 0.996847 0
M  V30 3623 H 352.965 1.84856 2.51465 0
M  V30 3624 N 353.266 -1.05314 1.17247 0
M  V30 3625 C 354.176 -2.16538 0.90268 0
M  V30 3626 C 355.192 -1.73523 -0.128707 0
M  V30 3627 O 356.368 -2.01337 0.0502701 0
M  V30 3628 C 353.433 -3.44167 0.418356 0
M  V30 3629 C 352.494 -4.01635 1.51618 0
M  V30 3630 C 351.727 -5.23171 1.05487 0
M  V30 3631 O 351.95 -5.70327 -0.0914715 0
M  V30 3632 O 350.884 -5.72848 1.8474 0
M  V30 3633 H 354.71 -2.42145 1.83302 0
M  V30 3634 H 352.295 -1.15037 0.953246 0
M  V30 3635 H 354.177 -4.21112 0.155726 0
M  V30 3636 H 352.852 -3.20063 -0.48385 0
M  V30 3637 H 351.759 -3.26135 1.83268 0
M  V30 3638 H 353.092 -4.30053 2.39405 0
M  V30 3639 N 354.744 -0.972509 -1.24016 0
M  V30 3640 C 356.155 -0.67517 -1.74064 0
M  V30 3641 C 356.506 0.808939 -1.78747 0
M  V30 3642 O 355.631 1.63286 -1.42009 0
M  V30 3643 C 356.226 -1.21889 -3.16115 0
M  V30 3644 C 354.785 -0.971358 -3.6365 0
M  V30 3645 C 353.932 -1.35134 -2.42145 0
M  V30 3646 H 356.883 -1.14727 -1.09651 0
M  V30 3647 H 356.904 -0.587489 -3.75937 0
M  V30 3648 H 356.416 -2.29906 -3.12674 0
M  V30 3649 H 354.517 0.0930686 -3.72484 0
M  V30 3650 H 354.63 -1.62039 -4.50866 0
M  V30 3651 H 352.994 -0.769751 -2.4279 0
M  V30 3652 H 353.777 -2.4411 -2.41381 0
M  V30 3653 N 356.222 1.38976 -0.743202 0
M  V30 3654 C 357.169 2.30544 -0.10861 0
M  V30 3655 C 358.139 1.49642 0.720869 0
M  V30 3656 O 359.324 1.78304 0.679142 0
M  V30 3657 C 356.464 3.36018 0.786496 0
M  V30 3658 C 355.577 4.31963 -0.0564849 0
M  V30 3659 C 354.712 5.24506 0.840657 0
M  V30 3660 C 353.751 6.121 -0.00658363 0
M  V30 3661 N 352.888 6.96973 0.846943 0
M  V30 3662 H 357.728 2.8424 -0.895088 0
M  V30 3663 H 355.265 1.3995 -0.453048 0
M  V30 3664 H 357.223 3.95768 1.31999 0
M  V30 3665 H 355.853 2.83758 1.53887 0
M  V30 3666 H 354.905 3.73763 -0.707492 0
M  V30 3667 H 356.217 4.93703 -0.711229 0
M  V30 3668 H 355.371 5.89322 1.4417 0
M  V30 3669 H 354.11 4.63107 1.52916 0
M  V30 3670 H 353.115 5.46289 -0.620366 0
M  V30 3671 H 354.34 6.75565 -0.691992 0
M  V30 3672 H 352.286 6.38133 1.52059 0
M  V30 3673 H 352.203 7.5559 0.248864 0
M  V30 3674 H 353.471 7.6621 1.43328 0
M  V30 3675 N 357.7 0.491464 1.49741 0
M  V30 3676 C 358.93 -0.0534375 2.06531 0
M  V30 3677 C 359.338 -1.32233 1.35318 0
M  V30 3678 O 358.681 -1.78781 0.422243 0
M  V30 3679 C 358.743 -0.387034 3.57411 0
M  V30 3680 C 358.407 0.782764 4.50246 0
M  V30 3681 C 359.404 1.67059 4.92329 0
M  V30 3682 C 357.089 0.978866 4.9267 0
M  V30 3683 C 359.083 2.73874 5.75562 0
M  V30 3684 C 356.77 2.05022 5.75682 0
M  V30 3685 C 357.768 2.92851 6.17031 0
M  V30 3686 O 357.456 3.98138 6.98385 0
M  V30 3687 H 357.188 0.0129324 0.675876 0
M  V30 3688 H 359.742 0.685238 1.93633 0
M  V30 3689 H 357.972 -1.17918 3.68283 0
M  V30 3690 H 359.661 -0.869419 3.96479 0
M  V30 3691 H 360.427 1.53086 4.60206 0
M  V30 3692 H 356.306 0.304646 4.59992 0
M  V30 3693 H 359.85 3.42458 6.07757 0
M  V30 3694 H 355.747 2.18993 6.07217 0
M  V30 3695 H 356.515 3.95374 7.16674 0
M  V30 3696 N 359.178 -1.55987 0.224894 0
M  V30 3697 C 360.403 -2.03232 -0.41369 0
M  V30 3698 C 360.828 -1.10359 -1.52323 0
M  V30 3699 O 360.186 -0.092395 -1.81064 0
M  V30 3700 C 360.234 -3.48682 -0.919405 0
M  V30 3701 O 359.338 -3.58947 -2.03054 0
M  V30 3702 H 358.679 -0.657428 -0.0931903 0
M  V30 3703 H 361.209 -2.01679 0.34451 0
M  V30 3704 H 361.219 -3.8907 -1.22835 0
M  V30 3705 H 359.894 -4.15761 -0.107339 0
M  V30 3706 H 358.471 -3.30448 -1.72796 0
M  V30 3707 N 360.656 0.0484629 -1.57525 0
M  V30 3708 C 361.896 0.748196 -1.90214 0
M  V30 3709 C 362.26 1.73545 -0.821347 0
M  V30 3710 O 363.461 2.48201 -1.03198 0
M  V30 3711 C 361.732 1.41727 -3.28098 0
M  V30 3712 S 363.291 2.14884 -3.82584 0
M  V30 3713 H 360.109 0.248307 -0.666232 0
M  V30 3714 H 362.711 0.00343188 -1.955 0
M  V30 3715 H 361.415 0.685244 -4.04639 0
M  V30 3716 H 360.946 2.20099 -3.26068 0
M  V30 3717 H 362.961 3.41755 -3.59747 0
M  V30 3718 N 362.134 1.5431 0.320358 0
M  V30 3719 C 363.38 1.72924 1.05949 0
M  V30 3720 C 363.713 0.503185 1.87568 0
M  V30 3721 O 362.988 -0.499839 1.87968 0
M  V30 3722 C 363.271 3.00676 1.98156 0
M  V30 3723 C 363.124 4.3354 1.19845 0
M  V30 3724 C 364.443 3.24198 2.9763 0
M  V30 3725 H 361.562 0.629195 0.383774 0
M  V30 3726 H 364.204 1.87008 0.335854 0
M  V30 3727 H 362.354 2.888 2.59859 0
M  V30 3728 H 364.026 4.57305 0.605773 0
M  V30 3729 H 362.269 4.309 0.500784 0
M  V30 3730 H 362.94 5.19156 1.87567 0
M  V30 3731 H 365.416 3.35557 2.4605 0
M  V30 3732 H 364.292 4.14938 3.59329 0
M  V30 3733 H 364.553 2.41577 3.7026 0
M  V30 3734 N 363.613 -0.582584 1.46437 0
M  V30 3735 C 364.853 -1.35184 1.53312 0
M  V30 3736 C 365.217 -1.9115 0.180508 0
M  V30 3737 O 366.418 -2.68514 0.124017 0
M  V30 3738 C 364.689 -2.45089 2.60127 0
M  V30 3739 S 366.248 -3.32439 2.86408 0
M  V30 3740 H 363.066 -0.460559 0.54167 0
M  V30 3741 H 365.668 -0.669709 1.83671 0
M  V30 3742 H 364.372 -2.02366 3.57038 0
M  V30 3743 H 363.903 -3.18074 2.315 0
M  V30 3744 H 365.918 -4.43924 2.21688 0
M  V30 3745 N 365.091 -1.34144 -0.827227 0
M  V30 3746 C 366.368 -1.16844 -1.56865 0
M  V30 3747 C 366.748 0.260654 -2.09485 0
M  V30 3748 O 366.096 1.26138 -1.9053 0
M  V30 3749 C 366.306 -2.21939 -2.6934 0
M  V30 3750 C 367.654 -2.56695 -3.3822 0
M  V30 3751 O 368.678 -2.20695 -2.79593 0
M  V30 3752 O 367.537 -3.18518 -4.44082 0
M  V30 3753 H 364.631 -0.452669 -0.692112 0
M  V30 3754 H 367.177 -1.45763 -0.868973 0
M  V30 3755 H 365.949 -3.17882 -2.28182 0
M  V30 3756 H 365.572 -1.94172 -3.46962 0
M  V30 3757 N 366.569 1.04691 -1.17803 0
M  V30 3758 C 367.532 2.10724 -0.901545 0
M  V30 3759 C 368.532 1.6042 0.110437 0
M  V30 3760 O 369.722 1.7377 -0.122303 0
M  V30 3761 C 366.854 3.39084 -0.351409 0
M  V30 3762 H 368.047 2.36686 -1.84174 0
M  V30 3763 H 365.6 1.21015 -0.98919 0
M  V30 3764 H 366.335 3.18782 0.59569 0
M  V30 3765 H 366.12 3.76909 -1.08083 0
M  V30 3766 H 367.61 4.17227 -0.176451 0
M  V30 3767 N 368.047 0.979072 1.23499 0
M  V30 3768 C 369.295 0.645941 1.91499 0
M  V30 3769 C 369.616 -0.822948 1.76784 0
M  V30 3770 O 368.886 -1.58854 1.14639 0
M  V30 3771 H 367.466 0.235919 0.708767 0
M  V30 3772 H 370.128 1.2426 1.50152 0
M  V30 3773 H 369.224 0.896411 2.9895 0
M  V30 3774 N 369.525 -1.3858 0.750561 0
M  V30 3775 C 370.771 -2.0095 0.31477 0
M  V30 3776 C 371.126 -1.58509 -1.09053 0
M  V30 3777 O 370.419 -0.8112 -1.7358 0
M  V30 3778 C 370.613 -3.55455 0.372373 0
M  V30 3779 C 370.442 -4.12898 1.78173 0
M  V30 3780 C 369.212 -4.44797 2.39757 0
M  V30 3781 C 371.41 -4.35366 2.7379 0
M  V30 3782 N 369.392 -4.87831 3.72685 0
M  V30 3783 C 370.763 -4.80775 3.91478 0
M  V30 3784 C 372.818 -4.1746 2.71351 0
M  V30 3785 C 371.521 -5.10155 5.07084 0
M  V30 3786 C 373.547 -4.47963 3.86113 0
M  V30 3787 C 372.909 -4.93593 5.02539 0
M  V30 3788 H 369.008 -0.765083 0.161776 0
M  V30 3789 H 371.592 -1.68246 0.979867 0
M  V30 3790 H 369.763 -3.87512 -0.26244 0
M  V30 3791 H 371.495 -4.04614 -0.0834479 0
M  V30 3792 H 368.25 -4.33135 1.91548 0
M  V30 3793 H 368.674 -5.13685 4.40972 0
M  V30 3794 H 373.316 -3.81372 1.82524 0
M  V30 3795 H 371.034 -5.45141 5.96529 0
M  V30 3796 H 374.62 -4.35717 3.85542 0
M  V30 3797 H 373.5 -5.16746 5.89867 0
M  V30 3798 N 371.003 -0.499398 -1.49478 0
M  V30 3799 C 371.936 0.326491 -2.25852 0
M  V30 3800 C 372.914 0.971776 -1.30366 0
M  V30 3801 O 374.098 1.00219 -1.59651 0
M  V30 3802 C 371.225 1.45969 -3.05632 0
M  V30 3803 C 370.271 0.928938 -4.16261 0
M  V30 3804 S 371.104 -0.179012 -5.35201 0
M  V30 3805 C 372.26 0.957389 -6.18534 0
M  V30 3806 H 372.493 -0.321746 -2.95554 0
M  V30 3807 H 370.026 -0.284674 -1.51753 0
M  V30 3808 H 371.984 2.109 -3.52181 0
M  V30 3809 H 370.645 2.07953 -2.35402 0
M  V30 3810 H 369.838 1.77813 -4.71592 0
M  V30 3811 H 369.44 0.356869 -3.72293 0
M  V30 3812 H 371.732 1.86296 -6.51383 0
M  V30 3813 H 372.675 0.442733 -7.06715 0
M  V30 3814 H 373.083 1.224 -5.5107 0
M  V30 3815 N 372.481 1.55866 -0.233164 0
M  V30 3816 C 373.728 1.98603 0.395374 0
M  V30 3817 C 374.056 1.12105 1.58942 0
M  V30 3818 O 373.311 0.168656 1.94972 0
M  V30 3819 C 373.61 3.46856 0.861724 0
M  V30 3820 C 373.276 4.50348 -0.223066 0
M  V30 3821 C 371.938 4.78371 -0.521038 0
M  V30 3822 C 374.29 5.12355 -0.956124 0
M  V30 3823 C 371.618 5.6568 -1.55638 0
M  V30 3824 C 373.97 6.00786 -1.98089 0
M  V30 3825 C 372.634 6.27148 -2.28565 0
M  V30 3826 H 371.904 0.726739 0.144677 0
M  V30 3827 H 374.551 1.88491 -0.338114 0
M  V30 3828 H 372.856 3.5423 1.67418 0
M  V30 3829 H 374.553 3.77302 1.35809 0
M  V30 3830 H 371.143 4.28596 0.0193234 0
M  V30 3831 H 375.327 4.90765 -0.739166 0
M  V30 3832 H 370.583 5.84365 -1.798 0
M  V30 3833 H 374.757 6.4788 -2.55391 0
M  V30 3834 H 372.384 6.94597 -3.08932 0
M  V30 3835 N 373.959 -0.0401083 1.57549 0
M  V30 3836 C 375.184 -0.748931 1.93406 0
M  V30 3837 C 375.609 -1.68686 0.832274 0
M  V30 3838 O 374.967 -1.80047 -0.212818 0
M  V30 3839 C 375.015 -1.4916 3.28304 0
M  V30 3840 O 374.119 -2.6042 3.19774 0
M  V30 3841 H 373.46 -0.202212 0.63246 0
M  V30 3842 H 375.99 0.00112086 2.046 0
M  V30 3843 H 376 -1.86395 3.62934 0
M  V30 3844 H 374.675 -0.80364 4.08062 0
M  V30 3845 H 373.252 -2.25808 2.96758 0
M  V30 3846 N 375.437 -1.54477 -0.31217 0
M  V30 3847 C 376.848 -1.64344 -0.885891 0
M  V30 3848 C 377.199 -0.54485 -1.88483 0
M  V30 3849 O 376.324 0.320387 -2.14015 0
M  V30 3850 C 376.919 -2.97908 -1.61357 0
M  V30 3851 C 375.478 -3.09933 -2.13585 0
M  V30 3852 C 374.625 -2.59971 -0.964897 0
M  V30 3853 H 377.576 -1.58448 -0.0894528 0
M  V30 3854 H 377.597 -2.88706 -2.47848 0
M  V30 3855 H 377.109 -3.77845 -0.886277 0
M  V30 3856 H 375.21 -2.34694 -2.89395 0
M  V30 3857 H 375.323 -4.15916 -2.37804 0
M  V30 3858 H 373.687 -2.16147 -1.34731 0
M  V30 3859 H 374.47 -3.42376 -0.251742 0
M  V30 3860 N 376.915 0.57481 -1.46744 0
M  V30 3861 C 377.863 1.70435 -1.58286 0
M  V30 3862 C 378.857 1.63287 -0.450956 0
M  V30 3863 O 380.063 1.68685 -0.628121 0
M  V30 3864 H 376.438 0.56364 -0.497809 0
M  V30 3865 H 378.409 1.57833 -2.53242 0
M  V30 3866 C 377.158 3.08815 -1.59776 0
M  V30 3867 H 376.481 3.1499 -2.46214 0
M  V30 3868 H 377.921 3.87588 -1.71905 0
M  V30 3869 C 376.38 3.35301 -0.327812 0
M  V30 3870 O 376.91 3.97511 0.57861 0
M  V30 3871 N 375.116 2.89816 -0.213274 0
M  V30 3872 H 374.663 2.39371 -0.951798 0
M  V30 3873 H 374.621 3.0791 0.63553 0
M  V30 3874 N 378.394 1.34581 0.820102 0
M  V30 3875 C 379.619 1.30333 1.61332 0
M  V30 3876 C 380.044 -0.119339 1.87721 0
M  V30 3877 O 379.402 -1.08197 1.45475 0
M  V30 3878 C 379.45 2.10258 2.92957 0
M  V30 3879 O 378.554 1.47404 3.85157 0
M  V30 3880 H 377.895 0.447488 0.490561 0
M  V30 3881 H 380.425 1.77425 1.01889 0
M  V30 3882 H 380.435 2.21718 3.42498 0
M  V30 3883 H 379.11 3.13693 2.73074 0
M  V30 3884 H 377.687 1.44703 3.43679 0
M  V30 3885 N 379.872 -1.04064 1.18357 0
M  V30 3886 C 381.283 -1.58719 0.98312 0
M  V30 3887 C 381.634 -1.90556 -0.467193 0
M  V30 3888 O 380.759 -1.69561 -1.34454 0
M  V30 3889 C 381.354 -2.88379 1.77828 0
M  V30 3890 C 379.913 -3.3965 1.62218 0
M  V30 3891 C 379.06 -2.13235 1.77274 0
M  V30 3892 H 382.011 -0.867359 1.32901 0
M  V30 3893 H 382.032 -3.58773 1.26737 0
M  V30 3894 H 381.544 -2.65176 2.83379 0
M  V30 3895 H 379.645 -3.67866 0.592036 0
M  V30 3896 H 379.758 -4.13475 2.42023 0
M  V30 3897 H 378.122 -2.24542 1.20221 0
M  V30 3898 H 378.905 -1.92487 2.8426 0
M  V30 3899 N 381.35 -0.985608 -1.22978 0
M  V30 3900 C 382.313 -0.535071 -2.22867 0
M  V30 3901 C 383.313 0.378123 -1.56291 0
M  V30 3902 O 384.503 0.171092 -1.73358 0
M  V30 3903 C 381.635 0.222702 -3.40172 0
M  V30 3904 H 382.828 -1.41835 -2.6424 0
M  V30 3905 H 380.381 -0.772042 -1.35901 0
M  V30 3906 H 381.116 1.12229 -3.04262 0
M  V30 3907 H 380.901 -0.43288 -3.89703 0
M  V30 3908 H 382.391 0.526335 -4.1427 0
M  V30 3909 N 382.828 1.3818 -0.7579 0
M  V30 3910 C 384.068 2.01864 -0.320968 0
M  V30 3911 C 384.432 1.58863 1.07827 0
M  V30 3912 O 385.633 2.14908 1.61456 0
M  V30 3913 C 383.904 3.54626 -0.44446 0
M  V30 3914 S 385.463 4.38706 -0.0907467 0
M  V30 3915 H 382.281 0.700056 -0.124268 0
M  V30 3916 H 384.883 1.68611 -0.989468 0
M  V30 3917 H 383.587 3.83411 -1.4637 0
M  V30 3918 H 383.118 3.92661 0.241073 0
M  V30 3919 H 385.133 4.83435 1.11826 0
M  V30 3920 N 384.306 0.507319 1.49211 0
M  V30 3921 C 385.534 -0.0315749 2.06876 0
M  V30 3922 C 385.949 -1.30241 1.36685 0
M  V30 3923 O 385.306 -1.76937 0.447152 0
M  V30 3924 C 385.357 -0.282627 3.60393 0
M  V30 3925 O 385.078 0.937835 4.27944 0
M  V30 3926 C 386.579 -0.864453 4.3479 0
M  V30 3927 H 383.799 0.0233048 0.670595 0
M  V30 3928 H 386.343 0.706484 1.91909 0
M  V30 3929 H 384.498 -0.97068 3.75042 0
M  V30 3930 H 384.912 0.704567 5.19746 0
M  V30 3931 H 386.386 -0.989664 5.43056 0
M  V30 3932 H 386.863 -1.86382 3.97692 0
M  V30 3933 H 387.469 -0.213672 4.24763 0
M  V30 3934 N 385.784 -1.5574 0.241426 0
M  V30 3935 C 386.714 -2.24133 -0.654722 0
M  V30 3936 C 387.695 -1.21974 -1.1856 0
M  V30 3937 O 388.88 -1.50612 -1.22595 0
M  V30 3938 C 386.01 -2.93659 -1.85423 0
M  V30 3939 C 384.964 -4.0246 -1.45636 0
M  V30 3940 C 384.29 -4.59383 -2.73626 0
M  V30 3941 C 385.59 -5.18468 -0.631506 0
M  V30 3942 H 387.284 -2.99281 -0.0844353 0
M  V30 3943 H 384.83 -1.43947 -0.0391707 0
M  V30 3944 H 386.783 -3.40203 -2.48676 0
M  V30 3945 H 385.507 -2.15991 -2.44981 0
M  V30 3946 H 384.166 -3.56676 -0.847202 0
M  V30 3947 H 383.814 -3.78422 -3.3137 0
M  V30 3948 H 383.514 -5.32826 -2.4773 0
M  V30 3949 H 385.038 -5.08658 -3.37786 0
M  V30 3950 H 386.452 -5.61272 -1.1682 0
M  V30 3951 H 384.849 -5.98266 -0.468831 0
M  V30 3952 H 385.919 -4.8358 0.357506 0
M  V30 3953 N 387.262 0.0317525 -1.57568 0
M  V30 3954 C 388.539 0.758366 -1.803 0
M  V30 3955 C 388.919 1.93718 -0.838845 0
M  V30 3956 O 388.267 2.28187 0.119571 0
M  V30 3957 C 388.477 1.19392 -3.27943 0
M  V30 3958 C 389.825 1.61094 -3.92854 0
M  V30 3959 O 390.849 1.28857 -3.32076 0
M  V30 3960 O 389.708 2.20918 -4.99858 0
M  V30 3961 H 386.802 0.366514 -0.741348 0
M  V30 3962 H 389.348 0.00873765 -1.69698 0
M  V30 3963 H 388.12 0.352275 -3.89711 0
M  V30 3964 H 387.743 2.00365 -3.43424 0
M  V30 3965 N 388.74 1.54641 0.303973 0
M  V30 3966 C 390.156 1.45788 0.649463 0
M  V30 3967 C 390.356 0.64666 1.90842 0
M  V30 3968 O 389.412 0.153183 2.52035 0
M  V30 3969 C 390.725 2.89718 0.805227 0
M  V30 3970 C 392.273 2.99742 0.901305 0
M  V30 3971 C 392.748 4.44863 1.08909 0
M  V30 3972 N 394.239 4.48559 1.15536 0
M  V30 3973 C 394.974 5.58026 1.3189 0
M  V30 3974 N 394.47 6.77422 1.45161 0
M  V30 3975 N 396.263 5.45708 1.34755 0
M  V30 3976 H 388.414 2.05854 -0.523237 0
M  V30 3977 H 390.677 0.932186 -0.172431 0
M  V30 3978 H 390.383 3.51666 -0.0489108 0
M  V30 3979 H 390.257 3.36964 1.69513 0
M  V30 3980 H 392.644 2.3791 1.74593 0
M  V30 3981 H 392.725 2.55797 -0.0125531 0
M  V30 3982 H 392.369 5.07288 0.249241 0
M  V30 3983 H 392.299 4.86436 2.01713 0
M  V30 3984 H 394.79 3.6254 1.06646 0
M  V30 3985 H 395.103 7.56604 1.57387 0
M  V30 3986 H 393.448 6.80292 1.42223 0
M  V30 3987 H 396.639 4.51378 1.23996 0
M  V30 3988 H 396.812 6.3107 1.47157 0
M  V30 3989 N 390.218 -0.567019 1.47046 0
M  V30 3990 C 391.495 -1.3276 1.43646 0
M  V30 3991 C 391.875 -2.1071 0.128186 0
M  V30 3992 O 391.223 -2.10441 -0.890326 0
M  V30 3993 C 391.433 -2.2404 2.67595 0
M  V30 3994 C 392.781 -2.85372 3.14401 0
M  V30 3995 O 393.805 -2.34346 2.68254 0
M  V30 3996 O 392.664 -3.78091 3.946 0
M  V30 3997 H 389.758 -0.597293 0.571988 0
M  V30 3998 H 392.304 -0.586735 1.59234 0
M  V30 3999 H 391.076 -1.65975 3.54356 0
M  V30 4000 H 390.699 -3.05439 2.54544 0
M  V30 4001 N 391.696 -1.35014 -0.812953 0
M  V30 4002 C 392.606 -1.2951 -1.95613 0
M  V30 4003 C 393.622 -0.20107 -1.72834 0
M  V30 4004 O 394.798 -0.42932 -1.96771 0
M  V30 4005 C 391.863 -1.06033 -3.30088 0
M  V30 4006 C 390.924 -2.24688 -3.65805 0
M  V30 4007 C 390.157 -2.02322 -4.93864 0
M  V30 4008 O 390.38 -0.986464 -5.61805 0
M  V30 4009 O 389.314 -2.89525 -5.27692 0
M  V30 4010 H 393.14 -2.25705 -2.03202 0
M  V30 4011 H 390.725 -1.15321 -0.949811 0
M  V30 4012 H 392.607 -0.94763 -4.10607 0
M  V30 4013 H 391.282 -0.128852 -3.23443 0
M  V30 4014 H 390.189 -2.41521 -2.85689 0
M  V30 4015 H 391.522 -3.16261 -3.77147 0
M  V30 4016 N 393.175 1.03435 -1.18907 0
M  V30 4017 C 394.415 1.78302 -0.999391 0
M  V30 4018 C 394.779 1.86353 0.462219 0
M  V30 4019 O 395.98 2.57489 0.771543 0
M  V30 4020 C 394.251 3.17362 -1.64365 0
M  V30 4021 S 395.81 4.08488 -1.6026 0
M  V30 4022 H 392.628 0.613861 -0.358742 0
M  V30 4023 H 395.23 1.23979 -1.51161 0
M  V30 4024 H 393.934 3.09116 -2.69955 0
M  V30 4025 H 393.465 3.76762 -1.13199 0
M  V30 4026 H 395.48 4.92274 -0.622932 0
M  V30 4027 N 394.653 0.992116 1.22453 0
M  V30 4028 C 395.878 0.685644 1.95739 0
M  V30 4029 C 396.303 -0.743 1.72804 0
M  V30 4030 O 395.661 -1.50778 1.00676 0
M  V30 4031 C 395.709 0.996293 3.46564 0
M  V30 4032 O 394.813 0.0945512 4.12292 0
M  V30 4033 H 394.154 0.256694 0.612376 0
M  V30 4034 H 396.684 1.32888 1.5557 0
M  V30 4035 H 396.694 0.93781 3.97076 0
M  V30 4036 H 395.369 2.03733 3.62582 0
M  V30 4037 H 393.946 0.208451 3.72317 0
M  V30 4038 N 396.131 -1.37776 0.765217 0
M  V30 4039 C 397.378 -1.99849 0.326588 0
M  V30 4040 C 397.706 -1.60746 -1.09504 0
M  V30 4041 O 396.961 -0.84202 -1.76659 0
M  V30 4042 C 397.26 -3.5504 0.410053 0
M  V30 4043 C 396.926 -4.13891 1.78899 0
M  V30 4044 C 395.588 -4.29678 2.16635 0
M  V30 4045 C 397.94 -4.46236 2.69301 0
M  V30 4046 C 395.268 -4.7511 3.44221 0
M  V30 4047 C 397.62 -4.93089 3.9629 0
M  V30 4048 C 396.284 -5.07082 4.34078 0
M  V30 4049 H 395.554 -0.7313 0.119507 0
M  V30 4050 H 398.201 -1.64645 0.977968 0
M  V30 4051 H 396.506 -3.90451 -0.324878 0
M  V30 4052 H 398.203 -4.00966 0.0520699 0
M  V30 4053 H 394.793 -4.02026 1.48569 0
M  V30 4054 H 398.977 -4.3363 2.41409 0
M  V30 4055 H 394.233 -4.84129 3.73402 0
M  V30 4056 H 398.407 -5.17084 4.66472 0
M  V30 4057 H 396.034 -5.42046 5.33001 0
M  V30 4058 N 397.609 -0.515225 -1.4894 0
M  V30 4059 C 398.541 0.292481 -2.27326 0
M  V30 4060 C 399.554 0.917838 -1.3446 0
M  V30 4061 O 400.743 0.798772 -1.5963 0
M  V30 4062 C 397.843 1.42803 -3.07344 0
M  V30 4063 C 397.016 0.907347 -4.27885 0
M  V30 4064 C 396.075 1.92222 -4.89834 0
M  V30 4065 O 395.101 1.48506 -5.49486 0
M  V30 4066 N 396.303 3.25355 -4.80754 0
M  V30 4067 H 399.068 -0.379721 -2.97285 0
M  V30 4068 H 396.629 -0.348638 -1.58102 0
M  V30 4069 H 398.621 2.10481 -3.45658 0
M  V30 4070 H 397.191 2.00414 -2.39902 0
M  V30 4071 H 396.411 0.0550218 -3.94162 0
M  V30 4072 H 397.699 0.538108 -5.05946 0
M  V30 4073 H 397.097 3.6355 -4.33414 0
M  V30 4074 H 395.654 3.88707 -5.23211 0
M  V30 4075 N 399.087 1.5561 -0.249682 0
M  V30 4076 C 400.498 1.84979 0.252949 0
M  V30 4077 C 400.849 1.17153 1.57384 0
M  V30 4078 O 399.974 0.450884 2.11651 0
M  V30 4079 C 400.569 3.35584 0.465732 0
M  V30 4080 C 399.128 3.65169 0.912624 0
M  V30 4081 C 398.275 2.77299 -0.00859085 0
M  V30 4082 H 401.226 1.51513 -0.47217 0
M  V30 4083 H 401.247 3.57313 1.30795 0
M  V30 4084 H 400.759 3.8492 -0.49579 0
M  V30 4085 H 398.86 3.21312 1.88652 0
M  V30 4086 H 398.973 4.72912 0.767559 0
M  V30 4087 H 397.337 2.49678 0.50327 0
M  V30 4088 H 398.12 3.29442 -0.965537 0
M  V30 4089 N 400.565 -0.0233959 1.57583 0
M  V30 4090 C 401.813 -0.711654 1.89156 0
M  V30 4091 C 402.134 -1.75591 0.848096 0
M  V30 4092 O 401.404 -1.95547 -0.117566 0
M  V30 4093 H 399.984 -0.265835 0.698098 0
M  V30 4094 H 402.646 0.0119948 1.94896 0
M  V30 4095 H 401.742 -1.19766 2.88206 0
M  V30 4096 N 402.043 -1.548 -0.295768 0
M  V30 4097 C 403.454 -1.65274 -0.868411 0
M  V30 4098 C 403.805 -0.56481 -1.87894 0
M  V30 4099 O 402.93 0.29767 -2.14343 0
M  V30 4100 C 403.525 -2.99603 -1.58188 0
M  V30 4101 C 402.084 -3.12181 -2.10286 0
M  V30 4102 C 401.231 -2.6098 -0.93727 0
M  V30 4103 H 404.182 -1.58534 -0.0726422 0
M  V30 4104 H 404.203 -2.91319 -2.44772 0
M  V30 4105 H 403.715 -3.78764 -0.846151 0
M  V30 4106 H 401.816 -2.3775 -2.8689 0
M  V30 4107 H 401.929 -4.18415 -2.33379 0
M  V30 4108 H 400.293 -2.17564 -1.32431 0
M  V30 4109 H 401.076 -3.42623 -0.215414 0
M  V30 4110 N 403.521 0.559213 -1.47345 0
M  V30 4111 C 404.761 1.32728 -1.55444 0
M  V30 4112 C 405.125 1.90838 -0.210895 0
M  V30 4113 O 406.326 2.68282 -0.166719 0
M  V30 4114 C 404.597 2.4092 -2.63993 0
M  V30 4115 S 406.156 3.2784 -2.91661 0
M  V30 4116 H 402.974 0.451883 -0.548929 0
M  V30 4117 H 405.576 0.640404 -1.84714 0
M  V30 4118 H 404.28 1.9666 -3.60212 0
M  V30 4119 H 403.811 3.14351 -2.36531 0
M  V30 4120 H 405.826 4.40341 -2.28722 0
M  V30 4121 N 404.999 1.35443 0.805782 0
M  V30 4122 C 406.224 1.32037 1.59941 0
M  V30 4123 C 406.649 -0.0994215 1.87837 0
M  V30 4124 O 406.007 -1.06648 1.46615 0
M  V30 4125 C 406.055 2.13354 2.90711 0
M  V30 4126 O 405.159 1.5148 3.83572 0
M  V30 4127 H 404.5 0.452666 0.485787 0
M  V30 4128 H 407.03 1.78496 1.00002 0
M  V30 4129 H 407.04 2.25338 3.40128 0
M  V30 4130 H 405.715 3.16572 2.69732 0
M  V30 4131 H 404.292 1.4834 3.42125 0
M  V30 4132 N 406.477 -1.02803 1.19454 0
M  V30 4133 C 407.705 -1.79841 1.02297 0
M  V30 4134 C 408.12 -1.83879 -0.428259 0
M  V30 4135 O 407.477 -1.28345 -1.29745 0
M  V30 4136 C 407.528 -3.24852 1.58598 0
M  V30 4137 O 407.249 -3.21097 2.98041 0
M  V30 4138 C 408.75 -4.18485 1.46236 0
M  V30 4139 H 405.97 -0.565936 0.360496 0
M  V30 4140 H 408.514 -1.2948 1.58288 0
M  V30 4141 H 406.669 -3.72401 1.06753 0
M  V30 4142 H 407.083 -4.12033 3.24545 0
M  V30 4143 H 408.557 -5.18121 1.90407 0
M  V30 4144 H 409.034 -4.37254 0.41301 0
M  V30 4145 H 409.64 -3.76811 1.97215 0
M  V30 4146 N 407.956 -0.998596 -1.21925 0
M  V30 4147 C 408.886 -0.573688 -2.26343 0
M  V30 4148 C 409.867 0.402296 -1.65274 0
M  V30 4149 O 411.052 0.291683 -1.91997 0
M  V30 4150 C 408.182 0.106839 -3.47136 0
M  V30 4151 C 407.136 -0.788269 -4.20678 0
M  V30 4152 C 406.462 0.0254927 -5.34694 0
M  V30 4153 C 407.762 -2.08784 -4.78755 0
M  V30 4154 H 409.456 -1.44651 -2.62138 0
M  V30 4155 H 407.002 -0.696975 -1.26009 0
M  V30 4156 H 408.955 0.415531 -4.19346 0
M  V30 4157 H 407.679 1.01424 -3.10452 0
M  V30 4158 H 406.338 -1.08069 -3.50309 0
M  V30 4159 H 405.986 0.933989 -4.94253 0
M  V30 4160 H 405.686 -0.570437 -5.84825 0
M  V30 4161 H 407.21 0.328147 -6.09718 0
M  V30 4162 H 408.624 -1.84272 -5.42878 0
M  V30 4163 H 407.021 -2.63307 -5.39249 0
M  V30 4164 H 408.091 -2.76284 -3.98491 0
M  V30 4165 N 409.434 1.37368 -0.772513 0
M  V30 4166 C 410.68 1.99969 -0.337681 0
M  V30 4167 C 411.013 1.61184 1.08321 0
M  V30 4168 O 410.288 0.858395 1.74533 0
M  V30 4169 C 410.571 3.56858 -0.482121 0
M  V30 4170 C 410.424 4.0555 -1.94549 0
M  V30 4171 C 411.743 4.39955 0.113143 0
M  V30 4172 H 408.862 0.726464 -0.124171 0
M  V30 4173 H 411.504 1.63034 -0.975699 0
M  V30 4174 H 409.654 3.88452 0.0610361 0
M  V30 4175 H 411.326 3.84518 -2.54841 0
M  V30 4176 H 409.569 3.57715 -2.45403 0
M  V30 4177 H 410.24 5.14587 -1.9976 0
M  V30 4178 H 412.716 4.14623 -0.35031 0
M  V30 4179 H 411.592 5.48897 -0.0180514 0
M  V30 4180 H 411.853 4.25403 1.20354 0
M  V30 4181 N 410.912 0.523116 1.48665 0
M  V30 4182 C 411.844 -0.280421 2.27478 0
M  V30 4183 C 412.857 -0.910694 1.34945 0
M  V30 4184 O 414.046 -0.790295 1.60052 0
M  V30 4185 C 411.146 -1.41171 3.08097 0
M  V30 4186 C 410.319 -0.884642 4.28361 0
M  V30 4187 C 409.378 -1.89622 4.90846 0
M  V30 4188 O 408.404 -1.4559 5.50265 0
M  V30 4189 N 409.606 -3.22801 4.82472 0
M  V30 4190 H 412.371 0.395481 2.97079 0
M  V30 4191 H 409.932 0.357018 1.57915 0
M  V30 4192 H 411.924 -2.08645 3.4677 0
M  V30 4193 H 410.494 -1.99139 2.40961 0
M  V30 4194 H 409.714 -0.0341177 3.94185 0
M  V30 4195 H 411.002 -0.511268 5.06225 0
M  V30 4196 H 410.4 -3.61246 4.35336 0
M  V30 4197 H 408.957 -3.85927 5.25265 0
M  V30 4198 N 412.39 -1.55475 0.257931 0
M  V30 4199 C 413.63 -2.01112 -0.365129 0
M  V30 4200 C 413.994 -1.1423 -1.54323 0
M  V30 4201 O 415.195 -1.49371 -2.23477 0
M  V30 4202 C 413.466 -3.49353 -0.754117 0
M  V30 4203 S 415.025 -4.16992 -1.36614 0
M  V30 4204 H 411.843 -0.701737 -0.114397 0
M  V30 4205 H 414.445 -1.91855 0.375747 0
M  V30 4206 H 413.149 -4.10246 0.112441 0
M  V30 4207 H 412.68 -3.6256 -1.52689 0
M  V30 4208 H 414.695 -4.19191 -2.65505 0
M  V30 4209 N 413.868 0.0150385 -1.57593 0
M  V30 4210 C 415.115 0.703001 -1.89906 0
M  V30 4211 C 415.443 1.74604 -0.856944 0
M  V30 4212 O 414.698 1.95197 0.140287 0
M  V30 4213 C 414.997 1.39686 -3.28972 0
M  V30 4214 C 414.663 0.488457 -4.48246 0
M  V30 4215 C 413.325 0.2383 -4.8061 0
M  V30 4216 C 415.677 -0.137881 -5.21018 0
M  V30 4217 C 413.005 -0.646738 -5.83125 0
M  V30 4218 C 415.357 -1.0107 -6.24474 0
M  V30 4219 C 414.021 -1.27019 -6.55303 0
M  V30 4220 H 413.291 0.257246 -0.694914 0
M  V30 4221 H 415.938 -0.037259 -1.91464 0
M  V30 4222 H 414.243 2.21079 -3.23468 0
M  V30 4223 H 415.94 1.93495 -3.51227 0
M  V30 4224 H 412.53 0.693593 -4.22951 0
M  V30 4225 H 416.714 0.0423953 -4.96282 0
M  V30 4226 H 411.97 -0.855937 -6.05379 0
M  V30 4227 H 416.144 -1.50247 -6.79999 0
M  V30 4228 H 413.771 -1.95769 -7.3456 0
M  V30 4229 N 415.346 1.54954 0.287554 0
M  V30 4230 C 416.294 1.87606 1.37502 0
M  V30 4231 C 417.288 0.751001 1.51843 0
M  V30 4232 O 418.494 0.935169 1.53801 0
M  V30 4233 H 414.869 0.595231 0.459569 0
M  V30 4234 H 416.84 2.78477 1.07206 0
M  V30 4235 C 415.589 2.15183 2.73115 0
M  V30 4236 H 414.912 3.01234 2.62866 0
M  V30 4237 H 416.352 2.4196 3.48183 0
M  V30 4238 C 414.811 0.954686 3.2309 0
M  V30 4239 O 415.341 0.181949 4.01288 0
M  V30 4240 N 413.547 0.756368 2.80584 0
M  V30 4241 H 413.094 1.38643 2.17108 0
M  V30 4242 H 413.052 -0.0430391 3.14371 0
M  V30 4243 N 416.824 -0.551391 1.4764 0
M  V30 4244 C 418.052 -1.33357 1.58189 0
M  V30 4245 C 418.467 -1.87342 0.234199 0
M  V30 4246 O 417.824 -1.65301 -0.77343 0
M  V30 4247 C 417.875 -2.49942 2.61173 0
M  V30 4248 O 417.596 -1.98187 3.90709 0
M  V30 4249 C 419.097 -3.42072 2.8196 0
M  V30 4250 H 416.317 -0.40631 0.533998 0
M  V30 4251 H 418.861 -0.667367 1.93304 0
M  V30 4252 H 417.016 -3.12489 2.28975 0
M  V30 4253 H 417.43 -2.74342 4.47031 0
M  V30 4254 H 418.904 -4.20278 3.57869 0
M  V30 4255 H 419.381 -3.95978 1.89995 0
M  V30 4256 H 419.987 -2.85336 3.15378 0
M  V30 4257 N 418.302 -1.35869 -0.798587 0
M  V30 4258 C 419.234 -1.25305 -1.91915 0
M  V30 4259 C 420.247 -0.174548 -1.61862 0
M  V30 4260 O 421.436 -0.428499 -1.73281 0
M  V30 4261 C 418.536 -0.9086 -3.26493 0
M  V30 4262 C 417.709 -2.08711 -3.84394 0
M  V30 4263 C 416.768 -1.71717 -4.97393 0
M  V30 4264 O 415.794 -2.43692 -5.14396 0
M  V30 4265 N 416.996 -0.645473 -5.769 0
M  V30 4266 H 419.761 -2.21849 -2.01502 0
M  V30 4267 H 417.322 -1.29143 -0.976408 0
M  V30 4268 H 419.314 -0.642455 -3.99568 0
M  V30 4269 H 417.884 -0.0325815 -3.12583 0
M  V30 4270 H 417.104 -2.51659 -3.03416 0
M  V30 4271 H 418.392 -2.87468 -4.19809 0
M  V30 4272 H 417.79 -0.047648 -5.6568 0
M  V30 4273 H 416.347 -0.43913 -6.50319 0
M  V30 4274 N 419.78 1.02168 -1.19998 0
M  V30 4275 C 421.028 1.75338 -1.00504 0
M  V30 4276 C 421.349 1.89387 0.464506 0
M  V30 4277 O 420.619 1.43268 1.33608 0
M  V30 4278 H 419.199 0.649564 -0.368885 0
M  V30 4279 H 421.861 1.23205 -1.51018 0
M  V30 4280 H 420.957 2.75892 -1.45912 0
M  V30 4281 N 421.258 1.00505 1.21394 0
M  V30 4282 C 422.483 0.706367 1.95001 0
M  V30 4283 C 422.908 -0.72463 1.73582 0
M  V30 4284 O 422.266 -1.49702 1.0227 0
M  V30 4285 C 422.314 1.03299 3.45487 0
M  V30 4286 O 421.418 0.138275 4.12168 0
M  V30 4287 H 420.759 0.263175 0.609619 0
M  V30 4288 H 423.289 1.34531 1.54151 0
M  V30 4289 H 423.299 0.979872 3.96059 0
M  V30 4290 H 421.974 2.07567 3.60401 0
M  V30 4291 H 420.551 0.247928 3.72075 0
M  V30 4292 N 422.737 -1.36956 0.779787 0
M  V30 4293 C 423.984 -1.99491 0.347766 0
M  V30 4294 C 424.312 -1.61898 -1.07793 0
M  V30 4295 O 423.567 -0.86071 -1.75756 0
M  V30 4296 C 423.866 -3.54585 0.447686 0
M  V30 4297 C 423.532 -4.1197 1.83279 0
M  V30 4298 C 422.194 -4.27356 2.2118 0
M  V30 4299 C 424.546 -4.43354 2.74019 0
M  V30 4300 C 421.874 -4.71432 3.4924 0
M  V30 4301 C 424.226 -4.88858 4.01497 0
M  V30 4302 C 422.89 -5.0245 4.39432 0
M  V30 4303 H 422.16 -0.729991 0.127257 0
M  V30 4304 H 424.807 -1.63599 0.995376 0
M  V30 4305 H 423.112 -3.90773 -0.283447 0
M  V30 4306 H 424.809 -4.00888 0.0945948 0
M  V30 4307 H 421.399 -4.00428 1.52825 0
M  V30 4308 H 425.583 -4.31045 2.45995 0
M  V30 4309 H 420.839 -4.80141 3.78516 0
M  V30 4310 H 425.013 -5.12108 4.71931 0
M  V30 4311 H 422.64 -5.36362 5.38721 0
M  V30 4312 N 424.215 -0.530993 -1.48385 0
M  V30 4313 C 425.445 -0.00133928 -2.066 0
M  V30 4314 C 425.853 1.28599 -1.38777 0
M  V30 4315 O 425.196 1.77599 -0.469495 0
M  V30 4316 C 425.258 0.292137 -3.58311 0
M  V30 4317 C 424.922 -0.901864 -4.48013 0
M  V30 4318 C 425.919 -1.80053 -4.87726 0
M  V30 4319 C 423.604 -1.10915 -4.89901 0
M  V30 4320 C 425.598 -2.89038 -5.68098 0
M  V30 4321 C 423.285 -2.20213 -5.70043 0
M  V30 4322 C 424.283 -3.09107 -6.0905 0
M  V30 4323 O 423.971 -4.16514 -6.87583 0
M  V30 4324 H 423.703 -0.0308475 -0.675296 0
M  V30 4325 H 426.257 -0.736335 -1.91748 0
M  V30 4326 H 424.487 1.08112 -3.7128 0
M  V30 4327 H 426.176 0.763994 -3.98645 0
M  V30 4328 H 426.942 -1.65234 -4.55986 0
M  V30 4329 H 422.821 -0.426498 -4.59023 0
M  V30 4330 H 426.365 -3.58451 -5.98464 0
M  V30 4331 H 422.262 -2.35016 -6.01197 0
M  V30 4332 H 423.03 -4.14237 -7.05939 0
M  V30 4333 N 425.693 1.55336 -0.266172 0
M  V30 4334 C 426.933 2.01303 0.354459 0
M  V30 4335 C 427.297 1.15046 1.53715 0
M  V30 4336 O 428.498 1.50554 2.22681 0
M  V30 4337 C 426.769 3.49748 0.735579 0
M  V30 4338 S 428.328 4.1771 1.34401 0
M  V30 4339 H 425.146 0.702333 0.110674 0
M  V30 4340 H 427.748 1.91653 -0.385916 0
M  V30 4341 H 426.452 4.10181 -0.134196 0
M  V30 4342 H 425.983 3.63364 1.50764 0
M  V30 4343 H 427.998 4.20594 2.63278 0
M  V30 4344 N 427.171 -0.0066808 1.57599 0
M  V30 4345 C 428.419 -0.691552 1.899 0
M  V30 4346 C 428.74 -1.74682 0.866672 0
M  V30 4347 O 428.01 -1.95661 -0.0968189 0
M  V30 4348 H 426.59 -0.258416 0.700878 0
M  V30 4349 H 429.252 0.0326655 1.94873 0
M  V30 4350 H 428.348 -1.16702 2.8946 0
M  V30 4351 N 428.649 -1.55105 -0.279332 0
M  V30 4352 C 429.612 -1.86783 -1.32834 0
M  V30 4353 C 430.612 -0.74199 -1.42657 0
M  V30 4354 O 431.802 -1.0102 -1.41918 0
M  V30 4355 C 428.934 -2.06746 -2.71052 0
M  V30 4356 H 430.127 -2.8055 -1.05979 0
M  V30 4357 H 427.68 -1.47499 -0.517087 0
M  V30 4358 H 428.415 -1.15339 -3.03097 0
M  V30 4359 H 428.2 -2.88711 -2.65309 0
M  V30 4360 H 429.69 -2.32549 -3.46858 0
M  V30 4361 N 430.127 0.543554 -1.4793 0
M  V30 4362 C 431.367 1.31072 -1.56843 0
M  V30 4363 C 431.731 1.90604 -0.231124 0
M  V30 4364 O 432.932 2.68091 -0.195165 0
M  V30 4365 C 431.203 2.38106 -2.66533 0
M  V30 4366 S 432.762 3.24729 -2.95122 0
M  V30 4367 H 429.58 0.446035 -0.553691 0
M  V30 4368 H 432.182 0.620777 -1.85382 0
M  V30 4369 H 430.886 1.92828 -3.62278 0
M  V30 4370 H 430.417 3.11824 -2.39852 0
M  V30 4371 H 432.432 4.37891 -2.3338 0
M  V30 4372 N 431.605 1.3629 0.791371 0
M  V30 4373 C 433.016 1.27225 1.36641 0
M  V30 4374 C 433.367 -0.0887968 1.95999 0
M  V30 4375 O 432.492 -0.990207 1.92416 0
M  V30 4376 C 433.087 2.30375 2.48421 0
M  V30 4377 C 431.646 2.25004 3.01746 0
M  V30 4378 C 430.793 2.15259 1.7481 0
M  V30 4379 H 433.744 1.47198 0.593173 0
M  V30 4380 H 433.765 1.93905 3.27385 0
M  V30 4381 H 433.277 3.29422 2.05189 0
M  V30 4382 H 431.378 1.29417 3.49403 0
M  V30 4383 H 431.491 3.1761 3.58693 0
M  V30 4384 H 429.855 1.61482 1.96966 0
M  V30 4385 H 430.638 3.16191 1.33709 0
M  V30 4386 N 433.083 -1.0153 1.20538 0
M  V30 4387 C 434.311 -1.78746 1.04199 0
M  V30 4388 C 434.726 -1.84323 -0.408733 0
M  V30 4389 O 434.083 -1.29714 -1.28377 0
M  V30 4390 C 434.134 -3.23152 1.62035 0
M  V30 4391 O 433.855 -3.17918 3.0143 0
M  V30 4392 C 435.356 -4.16911 1.50666 0
M  V30 4393 H 432.576 -0.56208 0.366479 0
M  V30 4394 H 435.12 -1.27794 1.59653 0
M  V30 4395 H 433.275 -3.71248 1.10697 0
M  V30 4396 H 433.689 -4.08567 3.28897 0
M  V30 4397 H 435.163 -5.16072 1.95892 0
M  V30 4398 H 435.64 -4.36791 0.459363 0
M  V30 4399 H 436.246 -3.74698 2.01201 0
M  V30 4400 N 434.561 -1.01147 -1.20859 0
M  V30 4401 C 435.809 -0.696486 -1.89719 0
M  V30 4402 C 436.13 0.775788 -1.78904 0
M  V30 4403 O 435.4 1.55759 -1.18811 0
M  V30 4404 H 433.98 -0.254628 -0.702263 0
M  V30 4405 H 436.642 -1.28197 -1.46804 0
M  V30 4406 H 435.738 -0.975357 -2.96468 0
M  V30 4407 N 436.039 1.36541 -0.78704 0
M  V30 4408 C 437.285 2.00044 -0.367938 0
M  V30 4409 C 437.64 1.61345 1.04812 0
M  V30 4410 O 436.933 0.856936 1.71368 0
M  V30 4411 C 437.127 3.54343 -0.466485 0
M  V30 4412 C 436.956 4.08029 -1.89058 0
M  V30 4413 C 435.726 4.38284 -2.51466 0
M  V30 4414 C 437.924 4.27954 -2.85236 0
M  V30 4415 N 435.906 4.77778 -3.85488 0
M  V30 4416 C 437.277 4.70227 -4.04088 0
M  V30 4417 C 439.332 4.10119 -2.82324 0
M  V30 4418 C 438.035 4.96532 -5.20432 0
M  V30 4419 C 440.061 4.37569 -3.97854 0
M  V30 4420 C 439.423 4.80095 -5.15449 0
M  V30 4421 H 435.522 0.760525 -0.182004 0
M  V30 4422 H 438.106 1.65589 -1.02413 0
M  V30 4423 H 436.277 3.88072 0.159606 0
M  V30 4424 H 438.009 4.04693 -0.0238577 0
M  V30 4425 H 434.764 4.27905 -2.02965 0
M  V30 4426 H 435.188 5.01813 -4.54437 0
M  V30 4427 H 439.83 3.76399 -1.92571 0
M  V30 4428 H 437.548 5.29134 -6.10773 0
M  V30 4429 H 441.134 4.25341 -3.96958 0
M  V30 4430 H 440.014 5.00925 -6.0336 0
M  V30 4431 N 437.518 0.538854 1.48102 0
M  V30 4432 C 438.45 -0.256278 2.27763 0
M  V30 4433 C 439.463 -0.89633 1.35904 0
M  V30 4434 O 440.652 -0.773275 1.60881 0
M  V30 4435 C 437.752 -1.37896 3.09577 0
M  V30 4436 C 436.925 -0.839159 4.29275 0
M  V30 4437 C 435.984 -1.84405 4.9283 0
M  V30 4438 O 435.01 -1.39746 5.51779 0
M  V30 4439 N 436.212 -3.17666 4.85869 0
M  V30 4440 H 438.977 0.426968 2.96643 0
M  V30 4441 H 436.538 0.373747 1.57527 0
M  V30 4442 H 438.53 -2.04955 3.48963 0
M  V30 4443 H 437.1 -1.96572 2.4306 0
M  V30 4444 H 436.32 0.00769287 3.94199 0
M  V30 4445 H 437.608 -0.457548 5.06739 0
M  V30 4446 H 437.006 -3.56609 4.39143 0
M  V30 4447 H 435.563 -3.80334 5.29329 0
M  V30 4448 N 438.996 -1.55193 0.274407 0
M  V30 4449 C 440.244 -1.99187 -0.341902 0
M  V30 4450 C 440.565 -1.16422 -1.56431 0
M  V30 4451 O 439.835 -0.253573 -1.94252 0
M  V30 4452 H 438.415 -0.735721 -0.129317 0
M  V30 4453 H 441.077 -1.91168 0.379578 0
M  V30 4454 H 440.173 -3.05629 -0.632253 0
M  V30 4455 N 440.474 -0.00167713 -1.576 0
M  V30 4456 C 441.422 1.0074 -2.09652 0
M  V30 4457 C 442.416 1.35483 -1.01689 0
M  V30 4458 O 443.622 1.34028 -1.20152 0
M  V30 4459 H 439.997 0.342537 -0.669457 0
M  V30 4460 H 441.968 0.542841 -2.93421 0
M  V30 4461 C 440.717 2.2899 -2.61647 0
M  V30 4462 H 440.04 2.03124 -3.44355 0
M  V30 4463 H 441.48 2.9787 -3.01744 0
M  V30 4464 C 439.939 3.00085 -1.53136 0
M  V30 4465 O 440.469 3.91135 -0.91524 0
M  V30 4466 N 438.675 2.6194 -1.25841 0
M  V30 4467 H 438.222 1.8798 -1.76129 0
M  V30 4468 H 438.18 3.09822 -0.534576 0
M  V30 4469 N 441.952 1.55251 0.271103 0
M  V30 4470 C 443.2 1.75599 1.00047 0
M  V30 4471 C 443.521 0.561188 1.8675 0
M  V30 4472 O 442.791 -0.423846 1.9126 0
M  V30 4473 H 441.371 0.647562 0.372387 0
M  V30 4474 H 444.033 1.92656 0.294876 0
M  V30 4475 H 443.129 2.65766 1.6363 0
M  V30 4476 N 443.43 -0.535701 1.48216 0
M  V30 4477 C 444.66 -1.3148 1.59363 0
M  V30 4478 C 445.068 -1.8753 0.250844 0
M  V30 4479 O 444.411 -1.66821 -0.769174 0
M  V30 4480 C 444.473 -2.50731 2.57632 0
M  V30 4481 C 444.137 -2.15811 4.02833 0
M  V30 4482 C 445.134 -1.71822 4.90686 0
M  V30 4483 C 442.819 -2.26509 4.48329 0
M  V30 4484 C 444.813 -1.3899 6.22062 0
M  V30 4485 C 442.5 -1.93289 5.79726 0
M  V30 4486 C 443.498 -1.49599 6.66415 0
M  V30 4487 O 443.186 -1.16812 7.95368 0
M  V30 4488 H 442.918 -0.406315 0.540263 0
M  V30 4489 H 445.472 -0.653569 1.94725 0
M  V30 4490 H 443.702 -3.19817 2.1738 0
M  V30 4491 H 445.391 -3.12797 2.58675 0
M  V30 4492 H 446.157 -1.63031 4.56778 0
M  V30 4493 H 442.036 -2.59471 3.81045 0
M  V30 4494 H 445.58 -1.04816 6.89681 0
M  V30 4495 H 441.477 -2.01718 6.13172 0
M  V30 4496 H 442.245 -1.30259 8.08069 0
M  V30 4497 N 444.908 -1.36708 -0.784132 0
M  V30 4498 C 446.157 -1.30559 -1.53744 0
M  V30 4499 C 446.47 0.111374 -1.95283 0
M  V30 4500 O 447.676 0.29527 -2.6989 0
M  V30 4501 C 446.132 -2.29098 -2.77565 0
M  V30 4502 C 445.74 -3.76258 -2.43174 0
M  V30 4503 C 447.484 -2.31936 -3.55536 0
M  V30 4504 C 445.391 -4.6656 -3.63422 0
M  V30 4505 H 444.321 -0.48518 -0.577162 0
M  V30 4506 H 446.972 -1.62101 -0.859981 0
M  V30 4507 H 445.354 -1.90557 -3.47137 0
M  V30 4508 H 446.528 -4.23565 -1.81465 0
M  V30 4509 H 444.843 -3.76246 -1.78403 0
M  V30 4510 H 447.44 -2.9661 -4.44889 0
M  V30 4511 H 447.783 -1.3294 -3.94503 0
M  V30 4512 H 448.316 -2.6912 -2.92949 0
M  V30 4513 H 445.055 -5.66638 -3.29547 0
M  V30 4514 H 444.575 -4.23966 -4.24279 0
M  V30 4515 H 446.254 -4.8309 -4.30387 0
M  V30 4516 N 446.386 1.0089 -1.21074 0
M  V30 4517 C 447.626 1.76142 -1.03699 0
M  V30 4518 C 447.99 1.87292 0.422587 0
M  V30 4519 O 449.191 2.59068 0.716752 0
M  V30 4520 C 447.462 3.13805 -1.7106 0
M  V30 4521 S 449.021 4.04996 -1.68889 0
M  V30 4522 H 445.839 0.606113 -0.371683 0
M  V30 4523 H 448.441 1.20744 -1.53756 0
M  V30 4524 H 447.145 3.0332 -2.76451 0
M  V30 4525 H 446.676 3.74276 -1.21166 0
M  V30 4526 H 448.691 4.90842 -0.727211 0
M  V30 4527 N 447.864 1.01787 1.20321 0
M  V30 4528 C 448.774 0.598898 2.26827 0
M  V30 4529 C 449.79 -0.36418 1.70146 0
M  V30 4530 O 450.966 -0.224812 2.00141 0
M  V30 4531 C 448.031 -0.0549769 3.46656 0
M  V30 4532 C 447.092 0.954205 4.18561 0
M  V30 4533 C 446.325 0.331439 5.3267 0
M  V30 4534 O 446.548 -0.86851 5.63749 0
M  V30 4535 O 445.482 1.0488 5.92692 0
M  V30 4536 H 449.308 1.48562 2.64883 0
M  V30 4537 H 446.893 0.787434 1.26964 0
M  V30 4538 H 448.775 -0.420102 4.19301 0
M  V30 4539 H 447.45 -0.915876 3.10473 0
M  V30 4540 H 446.357 1.37072 3.48083 0
M  V30 4541 H 447.69 1.78511 4.58688 0
M  V30 4542 N 449.342 -1.36122 0.79427 0
M  V30 4543 C 450.619 -1.93398 0.292685 0
M  V30 4544 C 450.999 -1.72567 -1.21589 0
M  V30 4545 O 450.347 -1.08745 -2.00965 0
M  V30 4546 C 450.557 -3.42099 0.690614 0
M  V30 4547 C 451.905 -4.19231 0.673105 0
M  V30 4548 O 452.929 -3.50559 0.631389 0
M  V30 4549 O 451.788 -5.41732 0.720362 0
M  V30 4550 H 448.882 -0.823712 0.0736693 0
M  V30 4551 H 451.428 -1.45273 0.87714 0
M  V30 4552 H 450.2 -3.50938 1.73085 0
M  V30 4553 H 449.823 -3.97519 0.0803036 0
M  V30 4554 N 450.82 -0.546701 -1.47814 0
M  V30 4555 C 452.069 -0.0166497 -2.01693 0
M  V30 4556 C 452.382 1.33721 -1.42752 0
M  V30 4557 O 453.588 1.95658 -1.8823 0
M  V30 4558 C 452.044 0.0206769 -3.59894 0
M  V30 4559 C 451.652 -1.3293 -4.27824 0
M  V30 4560 C 453.396 0.498674 -4.21561 0
M  V30 4561 C 451.303 -1.25165 -5.78003 0
M  V30 4562 H 450.233 -0.0024541 -0.753996 0
M  V30 4563 H 452.884 -0.692984 -1.69912 0
M  V30 4564 H 451.266 0.76244 -3.88591 0
M  V30 4565 H 452.44 -2.08795 -4.10781 0
M  V30 4566 H 450.755 -1.74438 -3.78101 0
M  V30 4567 H 453.352 0.575 -5.31599 0
M  V30 4568 H 453.695 1.5083 -3.88016 0
M  V30 4569 H 454.228 -0.18791 -3.97356 0
M  V30 4570 H 450.967 -2.23695 -6.1615 0
M  V30 4571 H 450.487 -0.53464 -5.97412 0
M  V30 4572 H 452.166 -0.949299 -6.39998 0
M  V30 4573 N 452.299 1.55045 -0.282633 0
M  V30 4574 C 453.247 2.24254 0.617478 0
M  V30 4575 C 454.241 1.24215 1.15183 0
M  V30 4576 O 455.447 1.42123 1.10459 0
M  V30 4577 H 451.822 0.719801 0.217693 0
M  V30 4578 H 453.793 2.98398 0.0110076 0
M  V30 4579 C 452.542 2.98281 1.78672 0
M  V30 4580 H 451.865 3.75053 1.38475 0
M  V30 4581 H 453.305 3.50017 2.393 0
M  V30 4582 C 451.764 2.04184 2.67975 0
M  V30 4583 O 452.294 1.59792 3.6855 0
M  V30 4584 N 450.5 1.70526 2.35307 0
M  V30 4585 H 450.047 2.06821 1.53567 0
M  V30 4586 H 450.005 1.07839 2.95327 0
M  V30 4587 N 453.777 0.010035 1.57597 0
M  V30 4588 C 454.687 -0.994226 2.12491 0
M  V30 4589 C 455.703 -1.37013 1.07254 0
M  V30 4590 O 456.879 -1.45542 1.3921 0
M  V30 4591 C 453.944 -2.2642 2.62555 0
M  V30 4592 C 453.005 -1.95049 3.82432 0
M  V30 4593 C 452.238 -3.15991 4.30099 0
M  V30 4594 O 452.461 -4.28015 3.7704 0
M  V30 4595 O 451.395 -2.99403 5.22151 0
M  V30 4596 H 455.221 -0.557549 2.98538 0
M  V30 4597 H 452.806 -0.209413 1.47925 0
M  V30 4598 H 454.688 -3.01009 2.9491 0
M  V30 4599 H 453.363 -2.69306 1.796 0
M  V30 4600 H 452.27 -1.17904 3.55034 0
M  V30 4601 H 453.603 -1.56992 4.66491 0
M  V30 4602 N 455.255 -1.55392 -0.262866 0
M  V30 4603 C 456.495 -1.78231 -1.00064 0
M  V30 4604 C 456.859 -0.576966 -1.83126 0
M  V30 4605 O 458.06 -0.683809 -2.59957 0
M  V30 4606 C 456.331 -3.05701 -1.85153 0
M  V30 4607 S 457.89 -3.49699 -2.65058 0
M  V30 4608 H 454.708 -0.626138 -0.336856 0
M  V30 4609 H 457.31 -1.93626 -0.27005 0
M  V30 4610 H 456.014 -3.91511 -1.23074 0
M  V30 4611 H 455.545 -2.93 -2.62515 0
M  V30 4612 H 457.56 -3.09772 -3.87629 0
M  V30 4613 N 456.733 0.527833 -1.48498 0
M  V30 4614 C 457.643 1.65907 -1.65867 0
M  V30 4615 C 458.659 1.6537 -0.541192 0
M  V30 4616 O 459.835 1.84282 -0.812534 0
M  V30 4617 C 456.9 3.02364 -1.69637 0
M  V30 4618 C 455.961 3.1374 -2.93028 0
M  V30 4619 C 455.194 4.43688 -2.96609 0
M  V30 4620 O 455.417 5.30913 -2.08538 0
M  V30 4621 O 454.351 4.59475 -3.88802 0
M  V30 4622 H 458.177 1.5419 -2.61647 0
M  V30 4623 H 455.762 0.701163 -1.31924 0
M  V30 4624 H 457.644 3.83515 -1.74625 0
M  V30 4625 H 456.319 3.14401 -0.770312 0
M  V30 4626 H 455.226 2.31877 -2.93571 0
M  V30 4627 H 456.559 3.06621 -3.85026 0
M  V30 4628 N 458.211 1.37122 0.776871 0
M  V30 4629 C 459.46 1.31373 1.53049 0
M  V30 4630 C 459.773 -0.101016 1.95339 0
M  V30 4631 O 460.979 -0.280953 2.70042 0
M  V30 4632 C 459.435 2.30567 2.76346 0
M  V30 4633 C 459.043 3.77543 2.41175 0
M  V30 4634 C 460.787 2.33818 3.54301 0
M  V30 4635 C 458.694 4.68481 3.60943 0
M  V30 4636 H 457.624 0.488234 0.574581 0
M  V30 4637 H 460.275 1.62554 0.851372 0
M  V30 4638 H 458.657 1.92396 3.46121 0
M  V30 4639 H 459.831 4.24521 1.79216 0
M  V30 4640 H 458.146 3.77187 1.76405 0
M  V30 4641 H 460.743 2.98965 4.4331 0
M  V30 4642 H 461.086 1.3503 3.93793 0
M  V30 4643 H 461.619 2.7067 2.91518 0
M  V30 4644 H 458.358 5.68378 3.26537 0
M  V30 4645 H 457.878 4.2621 4.22025 0
M  V30 4646 H 459.557 4.85366 4.27819 0
M  V30 4647 N 459.689 -1.00246 1.21608 0
M  V30 4648 C 460.637 -2.11193 0.97469 0
M  V30 4649 C 461.631 -1.69216 -0.0789303 0
M  V30 4650 O 462.837 -1.79853 0.0726806 0
M  V30 4651 H 459.212 -0.690455 0.297953 0
M  V30 4652 H 461.183 -2.2873 1.91638 0
M  V30 4653 C 459.932 -3.43182 0.558717 0
M  V30 4654 H 459.255 -3.75918 1.3611 0
M  V30 4655 H 460.695 -4.21823 0.429154 0
M  V30 4656 C 459.154 -3.28882 -0.730648 0
M  V30 4657 O 459.684 -3.59835 -1.78554 0
M  V30 4658 N 457.89 -2.8209 -0.698131 0
M  V30 4659 H 457.437 -2.57099 0.16061 0
M  V30 4660 H 457.395 -2.72903 -1.56113 0
M  V30 4661 N 461.167 -1.02423 -1.1978 0
M  V30 4662 C 462.115 -0.594474 -2.24875 0
M  V30 4663 C 463.109 0.370598 -1.65296 0
M  V30 4664 O 464.315 0.239684 -1.78397 0
M  V30 4665 H 460.69 -0.173961 -0.731602 0
M  V30 4666 H 462.661 -1.4916 -2.58445 0
M  V30 4667 C 461.41 0.0436512 -3.47673 0
M  V30 4668 H 460.733 -0.689963 -3.93801 0
M  V30 4669 H 462.173 0.307362 -4.22884 0
M  V30 4670 C 460.632 1.28881 -3.11274 0
M  V30 4671 O 461.162 2.38135 -3.23503 0
M  V30 4672 N 459.368 1.1758 -2.6575 0
M  V30 4673 H 458.915 0.286769 -2.55999 0
M  V30 4674 H 458.873 2.00988 -2.41767 0
M  V30 4675 N 462.645 1.35699 -0.801477 0
M  V30 4676 C 463.893 1.9852 -0.37871 0
M  V30 4677 C 464.214 1.63907 1.05638 0
M  V30 4678 O 463.484 0.919013 1.73006 0
M  V30 4679 H 462.064 0.734322 -0.137042 0
M  V30 4680 H 464.726 1.65697 -1.02619 0
M  V30 4681 H 463.822 3.08382 -0.480284 0
M  V30 4682 N 464.123 0.554532 1.47522 0
M  V30 4683 C 465.371 0.0294208 2.02079 0
M  V30 4684 C 465.692 -1.32411 1.43151 0
M  V30 4685 O 464.962 -1.863 0.605728 0
M  V30 4686 H 463.542 0.00788672 0.746958 0
M  V30 4687 H 466.204 0.723934 1.80956 0
M  V30 4688 H 465.3 -0.0606745 3.12041 0
M  V30 4689 N 465.601 -1.54893 0.290851 0
M  V30 4690 C 466.841 -2.01842 -0.322388 0
M  V30 4691 C 467.205 -1.17477 -1.51865 0
M  V30 4692 O 468.406 -1.54077 -2.20258 0
M  V30 4693 C 466.677 -3.50874 -0.679844 0
M  V30 4694 S 468.236 -4.19796 -1.27739 0
M  V30 4695 H 465.054 -0.704005 -0.0994866 0
M  V30 4696 H 467.656 -1.91015 0.416358 0
M  V30 4697 H 466.36 -4.09915 0.199435 0
M  V30 4698 H 465.891 -3.65717 -1.44964 0
M  V30 4699 H 467.906 -4.24729 -2.56554 0
M  V30 4700 N 467.08 -0.0183926 -1.57589 0
M  V30 4701 C 468.305 0.676634 -1.96052 0
M  V30 4702 C 468.73 1.6548 -0.894307 0
M  V30 4703 O 468.088 1.80712 0.145849 0
M  V30 4704 C 468.136 1.36872 -3.33614 0
M  V30 4705 O 467.24 2.48372 -3.29219 0
M  V30 4706 H 466.581 0.1786 -0.63953 0
M  V30 4707 H 469.111 -0.077056 -2.04455 0
M  V30 4708 H 469.121 1.72797 -3.69601 0
M  V30 4709 H 467.796 0.651636 -4.10763 0
M  V30 4710 H 466.373 2.14639 -3.04934 0
M  V30 4711 N 468.558 1.5553 0.254621 0
M  V30 4712 C 469.804 1.77262 0.985193 0
M  V30 4713 C 470.137 0.582286 1.85265 0
M  V30 4714 O 469.412 -0.419666 1.89919 0
M  V30 4715 C 469.695 3.0881 1.85225 0
M  V30 4716 C 469.548 4.38233 1.0135 0
M  V30 4717 C 470.867 3.3653 2.83612 0
M  V30 4718 H 467.986 0.644906 0.356742 0
M  V30 4719 H 470.628 1.88264 0.256236 0
M  V30 4720 H 468.778 2.99562 2.47376 0
M  V30 4721 H 470.45 4.59463 0.411269 0
M  V30 4722 H 468.693 4.32636 0.317574 0
M  V30 4723 H 469.364 5.26644 1.65379 0
M  V30 4724 H 471.84 3.45691 2.31596 0
M  V30 4725 H 470.716 4.29805 3.41407 0
M  V30 4726 H 470.977 2.57064 3.59681 0
M  V30 4727 N 470.036 -0.519951 1.48776 0
M  V30 4728 C 470.999 -1.60574 1.6355 0
M  V30 4729 C 471.999 -1.52557 0.508234 0
M  V30 4730 O 473.189 -1.56047 0.774262 0
M  V30 4731 C 470.321 -3.00211 1.61512 0
M  V30 4732 H 471.514 -1.4881 2.60376 0
M  V30 4733 H 469.067 -0.742772 1.37523 0
M  V30 4734 H 469.802 -3.17471 0.662009 0
M  V30 4735 H 469.587 -3.07439 2.43359 0
M  V30 4736 H 471.077 -3.79134 1.75064 0
M  V30 4737 N 471.514 -1.37532 -0.769588 0
M  V30 4738 C 472.925 -1.29382 -1.346 0
M  V30 4739 C 473.276 0.0576039 -1.96115 0
M  V30 4740 O 472.401 0.95947 -1.93967 0
M  V30 4741 C 472.996 -2.34298 -2.44724 0
M  V30 4742 C 471.555 -2.29776 -2.98128 0
M  V30 4743 C 470.702 -2.18013 -1.71364 0
M  V30 4744 H 473.653 -1.48123 -0.56968 0
M  V30 4745 H 473.674 -1.99089 -3.24259 0
M  V30 4746 H 473.186 -3.32645 -1.99922 0
M  V30 4747 H 471.287 -1.34959 -3.47299 0
M  V30 4748 H 471.4 -3.23276 -3.53595 0
M  V30 4749 H 469.764 -1.64595 -1.94372 0
M  V30 4750 H 470.547 -3.18278 -1.28662 0
M  V30 4751 N 472.992 0.995999 -1.22138 0
M  V30 4752 C 474.403 1.54961 -1.04135 0
M  V30 4753 C 474.754 1.92159 0.396147 0
M  V30 4754 O 473.879 1.74435 1.28069 0
M  V30 4755 C 474.474 2.81581 -1.88408 0
M  V30 4756 C 473.033 3.33396 -1.74712 0
M  V30 4757 C 472.18 2.06509 -1.85066 0
M  V30 4758 H 475.131 0.817436 -1.36028 0
M  V30 4759 H 475.152 3.53822 -1.39966 0
M  V30 4760 H 474.664 2.54476 -2.93025 0
M  V30 4761 H 472.765 3.65416 -0.728159 0
M  V30 4762 H 472.878 4.04208 -2.57202 0
M  V30 4763 H 471.242 2.19925 -1.28472 0
M  V30 4764 H 472.025 1.81804 -2.91208 0
M  V30 4765 N 474.47 1.03057 1.19235 0
M  V30 4766 C 475.716 0.729098 1.89241 0
M  V30 4767 C 476.049 -0.740573 1.79525 0
M  V30 4768 O 475.324 -1.53946 1.18874 0
M  V30 4769 C 475.607 1.18304 3.40112 0
M  V30 4770 C 475.46 2.71406 3.5869 0
M  V30 4771 C 476.779 0.765161 4.33397 0
M  V30 4772 H 473.898 0.266338 0.687192 0
M  V30 4773 H 476.54 1.28079 1.40341 0
M  V30 4774 H 474.69 0.713672 3.81889 0
M  V30 4775 H 476.362 3.26303 3.26074 0
M  V30 4776 H 474.605 3.11717 3.01687 0
M  V30 4777 H 475.276 2.98225 4.64506 0
M  V30 4778 H 477.752 1.16889 3.99345 0
M  V30 4779 H 476.628 1.11065 5.37546 0
M  V30 4780 H 476.889 -0.332372 4.40849 0
M  V30 4781 N 475.948 -1.35272 0.808662 0
M  V30 4782 C 476.858 -2.33546 0.222079 0
M  V30 4783 C 477.874 -1.6196 -0.636011 0
M  V30 4784 O 479.05 -1.93822 -0.547274 0
M  V30 4785 C 476.115 -3.41148 -0.61795 0
M  V30 4786 C 475.176 -4.28507 0.260875 0
M  V30 4787 C 474.409 -5.3097 -0.539156 0
M  V30 4788 O 474.632 -5.42123 -1.77367 0
M  V30 4789 O 473.566 -6.01858 0.0710526 0
M  V30 4790 H 477.392 -2.85515 1.03512 0
M  V30 4791 H 474.977 -1.38079 0.570495 0
M  V30 4792 H 476.859 -4.06889 -1.09634 0
M  V30 4793 H 475.534 -2.91447 -1.40855 0
M  V30 4794 H 474.441 -3.6574 0.786451 0
M  V30 4795 H 475.774 -4.81611 1.01547 0
M  V30 4796 N 477.426 -0.562348 -1.47226 0
M  V30 4797 C 478.666 -0.0426374 -2.04356 0
M  V30 4798 C 479.03 1.28487 -1.42671 0
M  V30 4799 O 480.231 1.89259 -1.90878 0
M  V30 4800 C 478.502 0.0433826 -3.57374 0
M  V30 4801 S 480.061 0.508472 -4.35844 0
M  V30 4802 H 476.879 -0.0276234 -0.710463 0
M  V30 4803 H 479.481 -0.750245 -1.80531 0
M  V30 4804 H 478.185 -0.927072 -3.99792 0
M  V30 4805 H 477.716 0.774387 -3.85703 0
M  V30 4806 H 479.731 1.76719 -4.63665 0
M  V30 4807 N 478.904 1.54736 -0.299062 0
M  V30 4808 C 480.15 2.00397 0.311244 0
M  V30 4809 C 480.483 1.18716 1.53688 0
M  V30 4810 O 479.758 0.263154 1.92712 0
M  V30 4811 C 480.041 3.53817 0.669761 0
M  V30 4812 C 479.894 4.46239 -0.564882 0
M  V30 4813 C 481.213 4.13856 1.49702 0
M  V30 4814 H 478.332 0.728493 0.111653 0
M  V30 4815 H 480.974 1.85506 -0.410774 0
M  V30 4816 H 479.124 3.66637 1.28491 0
M  V30 4817 H 480.796 4.45328 -1.20337 0
M  V30 4818 H 479.039 4.16916 -1.19849 0
M  V30 4819 H 479.71 5.5134 -0.269918 0
M  V30 4820 H 482.186 4.04461 0.977284 0
M  V30 4821 H 481.062 5.21365 1.71666 0
M  V30 4822 H 481.323 3.65608 2.48563 0
M  V30 4823 N 480.382 0.0267497 1.57577 0
M  V30 4824 C 481.33 -0.973923 2.11229 0
M  V30 4825 C 482.324 -1.33849 1.03831 0
M  V30 4826 O 483.53 -1.321 1.22269 0
M  V30 4827 H 479.905 -0.331844 0.674821 0
M  V30 4828 H 481.876 -0.496092 2.94247 0
M  V30 4829 C 480.625 -2.24798 2.65257 0
M  V30 4830 H 479.948 -1.9762 3.47543 0
M  V30 4831 H 481.388 -2.93031 3.06445 0
M  V30 4832 C 479.847 -2.97611 1.57891 0
M  V30 4833 O 480.377 -3.89629 0.97735 0
M  V30 4834 N 478.583 -2.59905 1.29992 0
M  V30 4835 H 478.13 -1.85154 1.79097 0
M  V30 4836 H 478.088 -3.08932 0.583798 0
M  V30 4837 N 481.861 -1.55662 -0.24637 0
M  V30 4838 C 483.089 -1.81575 -0.991876 0
M  V30 4839 C 483.504 -0.602545 -1.78927 0
M  V30 4840 O 482.861 0.428795 -1.77391 0
M  V30 4841 C 482.912 -3.05711 -1.92933 0
M  V30 4842 O 482.633 -4.22348 -1.1642 0
M  V30 4843 C 484.134 -3.44428 -2.79078 0
M  V30 4844 H 481.354 -0.604209 -0.291844 0
M  V30 4845 H 483.898 -2.02722 -0.269095 0
M  V30 4846 H 482.053 -2.86612 -2.60638 0
M  V30 4847 H 482.467 -4.92706 -1.79835 0
M  V30 4848 H 483.941 -4.34388 -3.40603 0
M  V30 4849 H 484.418 -2.65037 -3.50217 0
M  V30 4850 H 485.024 -3.65879 -2.16824 0
M  V30 4851 N 483.339 0.512053 -1.4905 0
M  V30 4852 C 484.75 1.09376 -1.51307 0
M  V30 4853 C 485.101 1.94 -0.292971 0
M  V30 4854 O 484.226 2.07965 0.598277 0
M  V30 4855 C 484.821 1.99031 -2.74176 0
M  V30 4856 C 483.38 2.52385 -2.79247 0
M  V30 4857 C 482.527 1.29749 -2.45073 0
M  V30 4858 H 485.478 0.296467 -1.55906 0
M  V30 4859 H 485.499 2.83569 -2.53711 0
M  V30 4860 H 485.011 1.37412 -3.62959 0
M  V30 4861 H 483.112 3.17673 -1.94716 0
M  V30 4862 H 483.225 2.90293 -3.81139 0
M  V30 4863 H 481.589 1.61912 -1.96612 0
M  V30 4864 H 482.372 0.698555 -3.36118 0
M  V30 4865 N 484.817 1.37938 0.762283 0
M  V30 4866 C 486.065 1.33404 1.51815 0
M  V30 4867 C 486.386 -0.0780975 1.94844 0
M  V30 4868 O 485.656 -1.02405 1.67003 0
M  V30 4869 H 484.236 0.490839 0.563104 0
M  V30 4870 H 486.898 1.72527 0.906669 0
M  V30 4871 H 485.994 1.97926 2.41313 0
M  V30 4872 N 486.295 -0.989507 1.22664 0
M  V30 4873 C 487.52 -1.77031 1.08051 0
M  V30 4874 C 487.945 -1.84535 -0.364483 0
M  V30 4875 O 487.303 -1.3003 -1.2634 0
M  V30 4876 C 487.351 -3.18 1.70024 0
M  V30 4877 O 486.455 -4.01161 0.956216 0
M  V30 4878 H 485.796 -0.545008 0.379292 0
M  V30 4879 H 488.326 -1.24277 1.62531 0
M  V30 4880 H 488.336 -3.68616 1.74888 0
M  V30 4881 H 487.011 -3.11853 2.75174 0
M  V30 4882 H 485.588 -3.59687 0.98384 0
M  V30 4883 N 487.773 -1.03688 -1.18687 0
M  V30 4884 C 488.998 -0.757819 -1.93059 0
M  V30 4885 C 489.423 0.678353 -1.75442 0
M  V30 4886 O 488.781 1.46938 -1.06203 0
M  V30 4887 C 488.829 -1.12423 -3.42627 0
M  V30 4888 O 487.933 -0.247505 -4.11657 0
M  V30 4889 H 487.274 -0.279245 -0.602427 0
M  V30 4890 H 489.804 -1.3857 -1.5053 0
M  V30 4891 H 489.814 -1.08454 -3.93322 0
M  V30 4892 H 488.489 -2.17049 -3.54771 0
M  V30 4893 H 487.066 -0.34649 -3.71287 0
M  V30 4894 N 489.251 1.34841 -0.815825 0
M  V30 4895 C 490.201 2.27075 -0.205169 0
M  V30 4896 C 491.185 1.48205 0.626414 0
M  V30 4897 O 492.377 1.70306 0.482157 0
M  V30 4898 C 489.506 3.37322 0.637871 0
M  V30 4899 C 488.592 4.23609 -0.203948 0
M  V30 4900 N 488.983 4.89558 -1.27149 0
M  V30 4901 C 487.281 4.45998 0.0128971 0
M  V30 4902 C 487.982 5.53597 -1.7862 0
M  V30 4903 N 486.958 5.32535 -1.0912 0
M  V30 4904 H 490.76 2.75563 -1.02187 0
M  V30 4905 H 488.274 1.48477 -0.657912 0
M  V30 4906 H 490.271 4.02359 1.09146 0
M  V30 4907 H 488.931 2.90385 1.45281 0
M  V30 4908 H 489.942 4.9077 -1.65423 0
M  V30 4909 H 486.619 4.09837 0.79624 0
M  V30 4910 H 488.009 6.16184 -2.67892 0
M  V30 4911 N 490.729 0.570148 1.46925 0
M  V30 4912 C 491.969 0.0534743 2.0433 0
M  V30 4913 C 492.333 -1.27729 1.4335 0
M  V30 4914 O 493.534 -1.88244 1.91879 0
M  V30 4915 C 491.805 -0.0244296 3.57392 0
M  V30 4916 S 493.364 -0.485351 4.36108 0
M  V30 4917 H 490.182 0.0313908 0.710307 0
M  V30 4918 H 492.784 0.759808 1.80131 0
M  V30 4919 H 491.488 0.948261 3.99295 0
M  V30 4920 H 491.019 -0.753922 3.86108 0
M  V30 4921 H 493.034 -1.74258 4.64595 0
M  V30 4922 N 492.207 -1.54576 0.307264 0
M  V30 4923 C 493.139 -2.21212 -0.599807 0
M  V30 4924 C 494.152 -1.20685 -1.09266 0
M  V30 4925 O 495.341 -1.47244 -1.00903 0
M  V30 4926 C 492.441 -2.84994 -1.83389 0
M  V30 4927 C 491.614 -4.11511 -1.48248 0
M  V30 4928 C 490.673 -4.59038 -2.57237 0
M  V30 4929 O 489.699 -5.24095 -2.22065 0
M  V30 4930 N 490.901 -4.31884 -3.87887 0
M  V30 4931 H 493.666 -2.99686 -0.0293075 0
M  V30 4932 H 491.227 -1.61379 0.129738 0
M  V30 4933 H 493.219 -3.1372 -2.5566 0
M  V30 4934 H 491.789 -2.10324 -2.31263 0
M  V30 4935 H 491.009 -3.89728 -0.592122 0
M  V30 4936 H 492.297 -4.93879 -1.22316 0
M  V30 4937 H 491.695 -3.79778 -4.19268 0
M  V30 4938 H 490.252 -4.65304 -4.56438 0
M  V30 4939 N 493.685 -0.035106 -1.57561 0
M  V30 4940 C 494.648 0.929819 -2.09492 0
M  V30 4941 C 495.648 1.25026 -1.01119 0
M  V30 4942 O 496.838 1.18961 -1.27255 0
M  V30 4943 C 493.97 2.24457 -2.56577 0
M  V30 4944 H 495.163 0.479935 -2.96035 0
M  V30 4945 H 492.716 0.213033 -1.54841 0
M  V30 4946 H 493.451 2.74061 -1.73382 0
M  V30 4947 H 493.236 2.02508 -3.35757 0
M  V30 4948 H 494.726 2.93607 -2.96959 0
M  V30 4949 N 495.163 1.55791 0.238111 0
M  V30 4950 C 496.403 1.79801 0.972163 0
M  V30 4951 C 496.767 0.606027 1.82185 0
M  V30 4952 O 497.968 0.725079 2.58836 0
M  V30 4953 C 496.239 3.08608 1.80266 0
M  V30 4954 S 497.798 3.53872 2.59461 0
M  V30 4955 H 494.616 0.631418 0.326852 0
M  V30 4956 H 497.218 1.94031 0.239212 0
M  V30 4957 H 495.922 3.93419 1.1683 0
M  V30 4958 H 495.453 2.9714 2.57821 0
M  V30 4959 H 497.468 3.15899 3.82651 0
M  V30 4960 N 496.642 -0.504142 1.49319 0
M  V30 4961 C 498.053 -1.08572 1.51885 0
M  V30 4962 C 498.404 -1.93842 0.303255 0
M  V30 4963 O 497.529 -2.0828 -0.58724 0
M  V30 4964 C 498.124 -1.97574 2.75227 0
M  V30 4965 C 496.683 -2.509 2.80581 0
M  V30 4966 C 495.83 -1.28447 2.45757 0
M  V30 4967 H 498.781 -0.288194 1.56061 0
M  V30 4968 H 498.802 -2.82219 2.55211 0
M  V30 4969 H 498.314 -1.35486 3.63683 0
M  V30 4970 H 496.415 -3.16636 1.96398 0
M  V30 4971 H 496.528 -2.88268 3.82673 0
M  V30 4972 H 494.892 -1.60868 1.97468 0
M  V30 4973 H 495.675 -0.68072 3.36483 0
M  V30 4974 N 498.12 -1.38341 -0.754957 0
M  V30 4975 C 499.531 -1.30803 -1.3322 0
M  V30 4976 C 499.882 0.0368 -1.96165 0
M  V30 4977 O 499.007 0.938844 -1.94974 0
M  V30 4978 C 499.602 -2.3688 -2.42225 0
M  V30 4979 C 498.161 -2.32925 -2.95674 0
M  V30 4980 C 497.308 -2.19819 -1.69042 0
M  V30 4981 H 500.259 -1.48719 -0.553937 0
M  V30 4982 H 500.28 -2.02517 -3.22129 0
M  V30 4983 H 499.792 -3.34747 -1.96383 0
M  V30 4984 H 497.893 -1.38635 -3.45848 0
M  V30 4985 H 498.006 -3.27008 -3.50146 0
M  V30 4986 H 496.37 -1.66648 -1.92615 0
M  V30 4987 H 497.153 -3.19625 -1.25279 0
M  V30 4988 N 499.598 0.982988 -1.23187 0
M  V30 4989 C 500.846 1.72052 -1.06031 0
M  V30 4990 C 501.167 1.90769 0.404019 0
M  V30 4991 O 500.437 1.47446 1.28982 0
M  V30 4992 H 499.017 0.637499 -0.389363 0
M  V30 4993 H 501.679 1.18338 -1.54862 0
M  V30 4994 H 500.775 2.7111 -1.54615 0
M  V30 4995 N 501.076 1.04316 1.18135 0
M  V30 4996 C 502.306 0.767003 1.91835 0
M  V30 4997 C 502.714 -0.68002 1.76557 0
M  V30 4998 O 502.057 -1.47548 1.09432 0
M  V30 4999 C 502.119 1.05674 3.43618 0
M  V30 5000 C 501.783 2.49818 3.82675 0
M  V30 5001 C 502.78 3.48003 3.86251 0
M  V30 5002 C 500.465 2.84596 4.13897 0
M  V30 5003 C 502.459 4.79016 4.20503 0
M  V30 5004 C 500.146 4.15813 4.4782 0
M  V30 5005 C 501.144 5.12834 4.51099 0
M  V30 5006 O 500.832 6.41699 4.84229 0
M  V30 5007 H 500.564 0.278948 0.615763 0
M  V30 5008 H 503.118 1.3946 1.50798 0
M  V30 5009 H 501.348 0.372029 3.84906 0
M  V30 5010 H 503.037 0.767994 3.98568 0
M  V30 5011 H 503.803 3.22475 3.62264 0
M  V30 5012 H 499.682 2.09748 4.1052 0
M  V30 5013 H 503.226 5.54739 4.22978 0
M  V30 5014 H 499.123 4.41109 4.71268 0
M  V30 5015 H 499.891 6.46387 5.02121 0
M  V30 5016 N 502.554 -1.34406 0.822964 0
M  V30 5017 C 503.486 -2.28305 0.202375 0
M  V30 5018 C 504.499 -1.5103 -0.60777 0
M  V30 5019 O 505.688 -1.73057 -0.437444 0
M  V30 5020 C 502.788 -3.30836 -0.734911 0
M  V30 5021 C 501.961 -4.37388 0.0324177 0
M  V30 5022 C 501.02 -5.1968 -0.825803 0
M  V30 5023 O 500.046 -5.68556 -0.270771 0
M  V30 5024 N 501.248 -5.39393 -2.14558 0
M  V30 5025 H 504.013 -2.82201 1.00909 0
M  V30 5026 H 501.574 -1.4693 0.67993 0
M  V30 5027 H 503.566 -3.82786 -1.31365 0
M  V30 5028 H 502.136 -2.77334 -1.44238 0
M  V30 5029 H 501.356 -3.86152 0.792469 0
M  V30 5030 H 502.644 -5.05702 0.560633 0
M  V30 5031 H 502.042 -5.01357 -2.62025 0
M  V30 5032 H 500.599 -5.94461 -2.67318 0
M  V30 5033 N 504.032 -0.577932 -1.46621 0
M  V30 5034 C 505.28 -0.061566 -2.02006 0
M  V30 5035 C 505.601 1.30117 -1.4524 0
M  V30 5036 O 504.871 1.85313 -0.63529 0
M  V30 5037 H 503.451 -0.0197692 -0.746738 0
M  V30 5038 H 506.113 -0.752631 -1.79782 0
M  V30 5039 H 505.209 0.0110238 -3.12098 0
M  V30 5040 N 505.51 1.54411 -0.315457 0
M  V30 5041 C 506.787 1.92562 0.343398 0
M  V30 5042 C 507.167 1.24423 1.70535 0
M  V30 5043 O 506.515 0.385051 2.25232 0
M  V30 5044 C 506.725 3.46168 0.443687 0
M  V30 5045 C 508.073 4.18659 0.707783 0
M  V30 5046 O 509.097 3.52281 0.52693 0
M  V30 5047 O 507.956 5.36198 1.05612 0
M  V30 5048 H 505.05 0.80379 0.194552 0
M  V30 5049 H 507.596 1.65738 -0.364577 0
M  V30 5050 H 506.368 3.8792 -0.513172 0
M  V30 5051 H 505.991 3.79073 1.19956 0
M  V30 5052 N 506.988 0.0434614 1.5754 0
M  V30 5053 C 508.236 -0.630786 1.92004 0
M  V30 5054 C 508.557 -1.71836 0.921807 0
M  V30 5055 O 507.827 -1.9587 -0.034522 0
M  V30 5056 H 506.407 -0.235988 0.708745 0
M  V30 5057 H 509.069 0.0946462 1.9467 0
M  V30 5058 H 508.165 -1.07434 2.93026 0
M  V30 5059 N 508.466 -1.55915 -0.229846 0
M  V30 5060 C 509.882 -1.48721 -0.579166 0
M  V30 5061 C 510.082 -0.736976 -1.87539 0
M  V30 5062 O 509.138 -0.273258 -2.51017 0
M  V30 5063 C 510.451 -2.9323 -0.666082 0
M  V30 5064 C 511.999 -3.03701 -0.757267 0
M  V30 5065 C 512.474 -4.49552 -0.8756 0
M  V30 5066 N 513.965 -4.53561 -0.940035 0
M  V30 5067 C 514.7 -5.63683 -1.05116 0
M  V30 5068 N 514.196 -6.83576 -1.12675 0
M  V30 5069 N 515.989 -5.51516 -1.08565 0
M  V30 5070 H 508.14 -2.03123 0.620857 0
M  V30 5071 H 510.403 -0.922898 0.21671 0
M  V30 5072 H 510.109 -3.51032 0.21664 0
M  V30 5073 H 509.983 -3.44668 -1.53243 0
M  V30 5074 H 512.37 -2.45969 -1.63043 0
M  V30 5075 H 512.451 -2.55446 0.134583 0
M  V30 5076 H 512.095 -5.079 -0.00692351 0
M  V30 5077 H 512.025 -4.95506 -1.78274 0
M  V30 5078 H 514.516 -3.67215 -0.892269 0
M  V30 5079 H 514.829 -7.63251 -1.21109 0
M  V30 5080 H 513.174 -6.86303 -1.09603 0
M  V30 5081 H 516.365 -4.5678 -1.02319 0
M  V30 5082 H 516.538 -6.37372 -1.1688 0
M  V30 5083 N 509.944 0.496216 -1.49584 0
M  V30 5084 C 511.19 1.25189 -1.59548 0
M  V30 5085 C 511.523 1.9212 -0.283466 0
M  V30 5086 O 510.798 1.80947 0.713324 0
M  V30 5087 C 511.081 2.31516 -2.75812 0
M  V30 5088 C 510.934 1.69054 -4.16822 0
M  V30 5089 C 512.253 3.3304 -2.87702 0
M  V30 5090 H 509.372 0.45379 -0.580727 0
M  V30 5091 H 512.014 0.549327 -1.81886 0
M  V30 5092 H 510.164 2.91438 -2.56897 0
M  V30 5093 H 511.836 1.12923 -4.47265 0
M  V30 5094 H 510.079 0.994485 -4.22247 0
M  V30 5095 H 510.75 2.462 -4.94054 0
M  V30 5096 H 513.226 2.83114 -3.04936 0
M  V30 5097 H 512.102 4.04794 -3.7072 0
M  V30 5098 H 512.363 3.95655 -1.97255 0
M  V30 5099 N 511.423 1.38739 0.74761 0
M  V30 5100 C 512.663 1.36695 1.51966 0
M  V30 5101 C 513.027 -0.0411889 1.91956 0
M  V30 5102 O 514.228 -0.186543 2.68152 0
M  V30 5103 C 512.499 2.30119 2.73459 0
M  V30 5104 S 514.058 2.4615 3.63257 0
M  V30 5105 H 510.876 0.484929 0.519966 0
M  V30 5106 H 513.478 1.7472 0.877104 0
M  V30 5107 H 512.182 3.31312 2.422 0
M  V30 5108 H 511.713 1.93265 3.42655 0
M  V30 5109 H 513.728 1.69001 4.66533 0
M  V30 5110 N 512.901 -0.976442 1.23707 0
M  V30 5111 C 514.129 -1.75341 1.09833 0
M  V30 5112 C 514.544 -1.8553 -0.349885 0
M  V30 5113 O 513.901 -1.33732 -1.24185 0
M  V30 5114 C 513.952 -3.17833 1.72233 0
M  V30 5115 O 513.673 -3.08167 3.11391 0
M  V30 5116 C 515.174 -4.11906 1.63853 0
M  V30 5117 H 512.394 -0.550137 0.384175 0
M  V30 5118 H 514.938 -1.2265 1.63638 0
M  V30 5119 H 513.093 -3.67538 1.22452 0
M  V30 5120 H 513.507 -3.97897 3.41729 0
M  V30 5121 H 514.981 -5.09579 2.12211 0
M  V30 5122 H 515.458 -4.35109 0.598092 0
M  V30 5123 H 516.064 -3.68107 2.13019 0
M  V30 5124 N 514.379 -1.04941 -1.1758 0
M  V30 5125 C 515.309 -0.669172 -2.23706 0
M  V30 5126 C 516.29 0.331835 -1.66832 0
M  V30 5127 O 517.475 0.209988 -1.93061 0
M  V30 5128 C 514.605 -0.0404889 -3.47276 0
M  V30 5129 C 513.559 -0.965983 -4.16957 0
M  V30 5130 C 512.885 -0.201312 -5.34321 0
M  V30 5131 C 514.185 -2.28902 -4.69469 0
M  V30 5132 H 515.879 -1.55639 -2.55767 0
M  V30 5133 H 513.425 -0.749793 -1.22939 0
M  V30 5134 H 515.378 0.237298 -4.20731 0
M  V30 5135 H 514.102 0.881658 -3.14475 0
M  V30 5136 H 512.761 -1.22829 -3.45411 0
M  V30 5137 H 512.409 0.723519 -4.97769 0
M  V30 5138 H 512.109 -0.817968 -5.81879 0
M  V30 5139 H 513.633 0.0692499 -6.10561 0
M  V30 5140 H 515.047 -2.07132 -5.34574 0
M  V30 5141 H 513.444 -2.85942 -5.27596 0
M  V30 5142 H 514.514 -2.92937 -3.86414 0
M  V30 5143 N 515.857 1.33968 -0.830081 0
M  V30 5144 C 517.085 2.0228 -0.434773 0
M  V30 5145 C 517.5 1.62487 0.961419 0
M  V30 5146 O 516.857 0.833849 1.62337 0
M  V30 5147 C 516.908 3.5751 -0.535625 0
M  V30 5148 O 516.629 3.95864 -1.87679 0
M  V30 5149 C 518.13 4.43091 -0.136137 0
M  V30 5150 H 515.35 0.648151 -0.173613 0
M  V30 5151 H 517.894 1.71089 -1.12022 0
M  V30 5152 H 516.049 3.87266 0.101817 0
M  V30 5153 H 516.463 4.9056 -1.85609 0
M  V30 5154 H 517.937 5.51398 -0.257772 0
M  V30 5155 H 518.414 4.29433 0.921076 0
M  V30 5156 H 519.02 4.18677 -0.747662 0
M  V30 5157 N 517.335 0.585699 1.46312 0
M  V30 5158 C 518.612 0.00542031 1.95599 0
M  V30 5159 C 518.992 -1.45619 1.52834 0
M  V30 5160 O 518.34 -2.14759 0.780446 0
M  V30 5161 C 518.55 0.180601 3.48532 0
M  V30 5162 C 519.898 0.049979 4.24571 0
M  V30 5163 O 520.922 0.109589 3.56031 0
M  V30 5164 O 519.781 -0.0832226 5.46437 0
M  V30 5165 H 516.875 -0.0481281 0.825598 0
M  V30 5166 H 519.421 0.654227 1.56582 0
M  V30 5167 H 518.193 1.19657 3.72556 0
M  V30 5168 H 517.816 -0.504498 3.94386 0
M  V30 5169 N 518.813 -1.54241 0.323641 0
M  V30 5170 C 520.062 -1.9975 -0.279806 0
M  V30 5171 C 520.375 -1.2156 -1.5324 0
M  V30 5172 O 521.581 -1.57447 -2.21185 0
M  V30 5173 C 520.037 -3.55686 -0.549115 0
M  V30 5174 C 519.645 -4.4271 0.686432 0
M  V30 5175 C 521.389 -4.09663 -1.11251 0
M  V30 5176 C 519.296 -5.90119 0.389022 0
M  V30 5177 H 518.226 -0.746177 -0.10833 0
M  V30 5178 H 520.877 -1.78248 0.435877 0
M  V30 5179 H 519.259 -3.73176 -1.32499 0
M  V30 5180 H 520.433 -4.36996 1.46188 0
M  V30 5181 H 518.748 -3.99623 1.17005 0
M  V30 5182 H 521.345 -5.17386 -1.34965 0
M  V30 5183 H 521.688 -3.61651 -2.06191 0
M  V30 5184 H 522.221 -3.95806 -0.39782 0
M  V30 5185 H 518.96 -6.42326 1.30759 0
M  V30 5186 H 518.48 -5.98785 -0.348722 0
M  V30 5187 H 520.159 -6.47 -0.0011164 0
M  V30 5188 N 520.291 -0.0518155 -1.57515 0
M  V30 5189 C 521.531 0.625712 -1.94587 0
M  V30 5190 C 521.895 1.6797 -0.930053 0
M  V30 5191 O 523.096 2.41135 -1.18774 0
M  V30 5192 C 521.367 1.20574 -3.36447 0
M  V30 5193 S 522.926 1.90118 -3.95475 0
M  V30 5194 H 519.744 0.205434 -0.680675 0
M  V30 5195 H 522.346 -0.120906 -1.95126 0
M  V30 5196 H 521.05 0.426521 -4.08178 0
M  V30 5197 H 520.581 1.98916 -3.39405 0
M  V30 5198 H 522.596 3.18184 -3.80753 0
M  V30 5199 N 521.769 1.56035 0.221574 0
M  V30 5200 C 522.994 1.83476 0.967026 0
M  V30 5201 C 523.419 0.632139 1.7716 0
M  V30 5202 O 522.777 -0.419082 1.7639 0
M  V30 5203 C 522.825 3.08907 1.86034 0
M  V30 5204 O 521.929 2.876 2.95567 0
M  V30 5205 H 521.27 0.604913 0.273817 0
M  V30 5206 H 523.8 2.03247 0.234893 0
M  V30 5207 H 523.81 3.3901 2.27016 0
M  V30 5208 H 522.485 3.96068 1.26898 0
M  V30 5209 H 521.062 2.6873 2.58532 0
M  V30 5210 N 523.247 -0.488276 1.49845 0
M  V30 5211 C 524.493 -1.24341 1.6021 0
M  V30 5212 C 524.826 -1.91967 0.293651 0
M  V30 5213 O 524.101 -1.81323 -0.703718 0
M  V30 5214 C 524.384 -2.3005 2.77036 0
M  V30 5215 C 524.237 -1.66842 4.17713 0
M  V30 5216 C 525.556 -3.31509 2.89464 0
M  V30 5217 H 522.675 -0.450704 0.583125 0
M  V30 5218 H 525.317 -0.539673 1.82174 0
M  V30 5219 H 523.467 -2.90071 2.58439 0
M  V30 5220 H 525.139 -1.1055 4.47858 0
M  V30 5221 H 523.382 -0.972079 4.22768 0
M  V30 5222 H 524.053 -2.43576 4.95353 0
M  V30 5223 H 526.529 -2.81493 3.06433 0
M  V30 5224 H 525.405 -4.02822 3.72861 0
M  V30 5225 H 525.666 -3.94603 1.99351 0
M  V30 5226 N 524.725 -1.39134 -0.740242 0
M  V30 5227 C 525.95 -1.39518 -1.53459 0
M  V30 5228 C 526.375 0.00968883 -1.88098 0
M  V30 5229 O 525.733 0.995312 -1.51536 0
M  V30 5230 C 525.781 -2.26981 -2.802 0
M  V30 5231 O 524.885 -1.69609 -3.75908 0
M  V30 5232 H 524.226 -0.475328 -0.463637 0
M  V30 5233 H 526.756 -1.83064 -0.913717 0
M  V30 5234 H 526.766 -2.41309 -3.28989 0
M  V30 5235 H 525.441 -3.29081 -2.5432 0
M  V30 5236 H 524.018 -1.64495 -3.34658 0
M  V30 5237 N 526.204 0.969867 -1.24223 0
M  V30 5238 C 527.152 2.08535 -1.03034 0
M  V30 5239 C 528.146 1.69366 0.0340379 0
M  V30 5240 O 529.352 1.79597 -0.12034 0
M  V30 5241 H 525.727 0.682313 -0.316154 0
M  V30 5242 H 527.698 2.23569 -1.97635 0
M  V30 5243 C 526.447 3.4158 -0.649509 0
M  V30 5244 H 525.77 3.72177 -1.46028 0
M  V30 5245 H 527.21 4.20536 -0.540841 0
M  V30 5246 C 525.669 3.30703 0.643194 0
M  V30 5247 O 526.199 3.64443 1.68951 0
M  V30 5248 N 524.405 2.83841 0.623095 0
M  V30 5249 H 523.952 2.56583 -0.228719 0
M  V30 5250 H 523.91 2.76946 1.48823 0
M  V30 5251 N 527.682 1.05563 1.17022 0
M  V30 5252 C 528.93 0.76642 1.87004 0
M  V30 5253 C 529.251 -0.708854 1.8166 0
M  V30 5254 O 528.521 -1.51242 1.2451 0
M  V30 5255 H 527.101 0.280516 0.692329 0
M  V30 5256 H 529.763 1.33557 1.41945 0
M  V30 5257 H 528.859 1.08472 2.92644 0
M  V30 5258 N 529.16 -1.33526 0.837174 0
M  V30 5259 C 530.408 -1.97446 0.431211 0
M  V30 5260 C 530.729 -1.6665 -1.01255 0
M  V30 5261 O 529.999 -0.964559 -1.70508 0
M  V30 5262 H 528.579 -0.73043 0.156463 0
M  V30 5263 H 531.241 -1.62918 1.06976 0
M  V30 5264 H 530.337 -3.07001 0.561877 0
M  V30 5265 N 530.638 -0.59345 -1.46 0
M  V30 5266 C 531.878 -0.0859747 -2.04219 0
M  V30 5267 C 532.242 1.25432 -1.45364 0
M  V30 5268 O 533.443 1.85168 -1.9485 0
M  V30 5269 C 531.714 -0.0324314 -3.57385 0
M  V30 5270 S 533.273 0.415908 -4.36824 0
M  V30 5271 H 530.091 -0.0426872 -0.709717 0
M  V30 5272 H 532.693 -0.788369 -1.78899 0
M  V30 5273 H 531.397 -1.01166 -3.97735 0
M  V30 5274 H 530.928 0.6924 -3.87259 0
M  V30 5275 H 532.943 1.66844 -4.67309 0
M  V30 5276 N 532.116 1.54067 -0.331816 0
M  V30 5277 C 533.066 2.21363 0.546101 0
M  V30 5278 C 534.05 1.19698 1.07523 0
M  V30 5279 O 535.242 1.45293 1.01088 0
M  V30 5280 C 532.371 2.98115 1.70242 0
M  V30 5281 C 531.457 4.07127 1.18779 0
M  V30 5282 N 531.848 5.04267 0.393465 0
M  V30 5283 C 530.146 4.21226 1.46576 0
M  V30 5284 C 530.847 5.81585 0.115572 0
M  V30 5285 N 529.823 5.39022 0.703987 0
M  V30 5286 H 533.625 2.93821 -0.0679751 0
M  V30 5287 H 531.139 1.61812 -0.138085 0
M  V30 5288 H 533.136 3.44818 2.34321 0
M  V30 5289 H 531.796 2.27181 2.31989 0
M  V30 5290 H 532.807 5.17888 0.0355757 0
M  V30 5291 H 529.484 3.61509 2.08848 0
M  V30 5292 H 530.874 6.6985 -0.524426 0
M  V30 5293 N 533.594 0.0601682 1.57485 0
M  V30 5294 C 535.005 -0.474217 1.80577 0
M  V30 5295 C 535.356 -1.70365 0.973147 0
M  V30 5296 O 534.481 -2.15544 0.192306 0
M  V30 5297 C 535.076 -0.867102 3.27516 0
M  V30 5298 C 533.635 -1.34642 3.51495 0
M  V30 5299 C 532.782 -0.32594 2.75378 0
M  V30 5300 H 535.733 0.285973 1.56102 0
M  V30 5301 H 535.754 -1.72938 3.38929 0
M  V30 5302 H 535.266 0.0278927 3.8809 0
M  V30 5303 H 533.367 -2.2603 2.96212 0
M  V30 5304 H 533.48 -1.33237 4.60201 0
M  V30 5305 H 531.844 -0.800749 2.41785 0
M  V30 5306 H 532.627 0.561125 3.38683 0
M  V30 5307 N 535.072 -1.5615 -0.213296 0
M  V30 5308 C 536.349 -1.70349 -0.961281 0
M  V30 5309 C 536.729 -0.609791 -2.02101 0
M  V30 5310 O 536.077 0.381987 -2.25285 0
M  V30 5311 C 536.287 -3.11982 -1.56424 0
M  V30 5312 C 537.635 -3.71649 -2.05334 0
M  V30 5313 O 538.659 -3.14995 -1.66302 0
M  V30 5314 O 537.518 -4.71038 -2.77102 0
M  V30 5315 H 534.612 -0.694121 -0.449582 0
M  V30 5316 H 537.158 -1.68464 -0.204426 0
M  V30 5317 H 535.93 -3.83046 -0.799457 0
M  V30 5318 H 535.553 -3.18019 -2.38641 0
M  V30 5319 N 536.55 0.480323 -1.50102 0
M  V30 5320 C 537.513 1.56181 -1.6775 0
M  V30 5321 C 538.513 1.51156 -0.548503 0
M  V30 5322 O 539.703 1.5394 -0.815363 0
M  V30 5323 C 536.835 2.95823 -1.69415 0
M  V30 5324 H 538.028 1.41855 -2.6423 0
M  V30 5325 H 535.581 0.70605 -1.39444 0
M  V30 5326 H 536.316 3.15604 -0.745948 0
M  V30 5327 H 536.101 3.00878 -2.51425 0
M  V30 5328 H 537.591 3.74359 -1.85054 0
M  V30 5329 N 538.028 1.39524 0.732853 0
M  V30 5330 C 539.253 1.40329 1.52717 0
M  V30 5331 C 539.678 0.000286574 1.881 0
M  V30 5332 O 539.036 -0.987262 1.52062 0
M  V30 5333 C 539.084 2.28464 2.78992 0
M  V30 5334 O 538.188 1.716 3.75003 0
M  V30 5335 H 537.529 0.47778 0.461109 0
M  V30 5336 H 540.059 1.83546 0.903996 0
M  V30 5337 H 540.069 2.43051 3.27705 0
M  V30 5338 H 538.744 3.30425 2.52572 0
M  V30 5339 H 537.321 1.66267 3.33781 0
M  V30 5340 N 539.506 -0.963266 1.24736 0
M  V30 5341 C 540.746 -1.72172 1.10165 0
M  V30 5342 C 541.11 -1.88731 -0.352784 0
M  V30 5343 O 542.311 -2.61549 -0.620107 0
M  V30 5344 C 540.582 -3.0724 1.82589 0
M  V30 5345 S 542.141 -3.98449 1.83803 0
M  V30 5346 H 538.959 -0.591901 0.393922 0
M  V30 5347 H 541.561 -1.14955 1.58132 0
M  V30 5348 H 540.265 -2.92851 2.87518 0
M  V30 5349 H 539.796 -3.69521 1.34973 0
M  V30 5350 H 541.811 -4.87805 0.908883 0
M  V30 5351 N 540.985 -1.06182 -1.16461 0
M  V30 5352 C 542.21 -0.798599 -1.91408 0
M  V30 5353 C 542.635 0.640987 -1.76842 0
M  V30 5354 O 541.993 1.44652 -1.09296 0
M  V30 5355 C 542.041 -1.19665 -3.40165 0
M  V30 5356 O 541.145 -0.334768 -4.11039 0
M  V30 5357 H 540.486 -0.291961 -0.596368 0
M  V30 5358 H 543.016 -1.41732 -1.47557 0
M  V30 5359 H 543.026 -1.16772 -3.90933 0
M  V30 5360 H 541.701 -2.24526 -3.50087 0
M  V30 5361 H 540.278 -0.425168 -3.70468 0
M  V30 5362 N 542.463 1.3308 -0.844243 0
M  V30 5363 C 543.688 2.02341 -0.455282 0
M  V30 5364 C 544.113 1.6308 0.93737 0
M  V30 5365 O 543.471 0.826118 1.61385 0
M  V30 5366 C 543.519 3.55743 -0.58988 0
M  V30 5367 O 542.623 4.1063 0.38166 0
M  V30 5368 H 541.964 0.637898 -0.184343 0
M  V30 5369 H 544.494 1.6986 -1.14056 0
M  V30 5370 H 544.504 4.05243 -0.473522 0
M  V30 5371 H 543.179 3.83662 -1.60549 0
M  V30 5372 H 541.756 3.72236 0.22241 0
M  V30 5373 N 543.941 0.601185 1.45683 0
M  V30 5374 C 545.169 0.100054 2.06658 0
M  V30 5375 C 545.584 -1.21285 1.44691 0
M  V30 5376 O 544.941 -1.73735 0.558772 0
M  V30 5377 C 544.992 -0.0528579 3.61461 0
M  V30 5378 O 544.713 1.20809 4.21114 0
M  V30 5379 C 546.214 -0.586193 4.39407 0
M  V30 5380 H 543.434 0.065905 0.667756 0
M  V30 5381 H 545.978 0.827101 1.87028 0
M  V30 5382 H 544.133 -0.730203 3.80456 0
M  V30 5383 H 544.547 1.03368 5.14213 0
M  V30 5384 H 546.021 -0.642297 5.4825 0
M  V30 5385 H 546.498 -1.60713 4.0874 0
M  V30 5386 H 547.104 0.0568935 4.25262 0
M  V30 5387 N 545.419 -1.53889 0.339982 0
M  V30 5388 C 546.349 -2.27843 -0.510856 0
M  V30 5389 C 547.33 -1.29267 -1.10563 0
M  V30 5390 O 548.515 -1.58104 -1.12768 0
M  V30 5391 C 545.645 -3.04857 -1.66372 0
M  V30 5392 C 544.599 -4.10907 -1.19746 0
M  V30 5393 C 543.925 -4.75855 -2.43857 0
M  V30 5394 C 545.225 -5.21435 -0.300501 0
M  V30 5395 H 546.919 -2.99212 0.106067 0
M  V30 5396 H 544.465 -1.43904 0.0524533 0
M  V30 5397 H 546.418 -3.5533 -2.26537 0
M  V30 5398 H 545.142 -2.31133 -2.30749 0
M  V30 5399 H 543.801 -3.61342 -0.618654 0
M  V30 5400 H 543.449 -3.9873 -3.06633 0
M  V30 5401 H 543.149 -5.47502 -2.13343 0
M  V30 5402 H 544.673 -5.2911 -3.04754 0
M  V30 5403 H 546.087 -5.67565 -0.80889 0
M  V30 5404 H 544.484 -6.00036 -0.0874076 0
M  V30 5405 H 545.554 -4.80328 0.664321 0
M  V30 5406 N 546.897 -0.0685191 -1.57451 0
M  V30 5407 C 548.145 0.60016 -1.92983 0
M  V30 5408 C 548.466 1.70348 -0.949028 0
M  V30 5409 O 547.736 1.959 0.00335647 0
M  V30 5410 H 546.316 0.224682 -0.712409 0
M  V30 5411 H 548.978 -0.125605 -1.94495 0
M  V30 5412 H 548.074 1.02759 -2.94698 0
M  V30 5413 N 548.375 1.56261 0.205012 0
M  V30 5414 C 549.6 1.84491 0.947512 0
M  V30 5415 C 550.025 0.650894 1.76479 0
M  V30 5416 O 549.383 -0.40035 1.76824 0
M  V30 5417 C 549.431 3.10863 1.82747 0
M  V30 5418 O 548.535 2.90719 2.925 0
M  V30 5419 H 547.876 0.607783 0.267386 0
M  V30 5420 H 550.406 2.03485 0.213323 0
M  V30 5421 H 550.416 3.41399 2.23407 0
M  V30 5422 H 549.091 3.97392 1.2269 0
M  V30 5423 H 547.668 2.71457 2.55667 0
M  V30 5424 N 549.853 -0.472356 1.50355 0
M  V30 5425 C 550.783 -1.57859 1.72055 0
M  V30 5426 C 551.764 -1.60283 0.569505 0
M  V30 5427 O 552.949 -1.7657 0.808503 0
M  V30 5428 C 550.079 -2.96191 1.81351 0
M  V30 5429 C 549.033 -3.08633 2.96529 0
M  V30 5430 C 548.359 -4.486 2.90968 0
M  V30 5431 C 549.659 -2.85969 4.37057 0
M  V30 5432 H 551.353 -1.39953 2.64676 0
M  V30 5433 H 548.899 -0.671846 1.27367 0
M  V30 5434 H 550.852 -3.73507 1.95117 0
M  V30 5435 H 549.576 -3.15251 0.853502 0
M  V30 5436 H 548.235 -2.33749 2.82413 0
M  V30 5437 H 547.883 -4.64577 1.92815 0
M  V30 5438 H 547.583 -4.57861 3.68289 0
M  V30 5439 H 549.107 -5.27938 3.0678 0
M  V30 5440 H 550.521 -3.53036 4.51706 0
M  V30 5441 H 548.918 -3.06677 5.15819 0
M  V30 5442 H 549.988 -1.81838 4.49514 0
M  V30 5443 N 551.331 -1.39911 -0.725443 0
M  V30 5444 C 552.742 -1.33599 -1.30415 0
M  V30 5445 C 553.093 -0.00481792 -1.96199 0
M  V30 5446 O 552.218 0.897275 -1.96921 0
M  V30 5447 C 552.813 -2.41965 -2.37146 0
M  V30 5448 C 551.372 -2.39144 -2.90667 0
M  V30 5449 C 550.519 -2.23355 -1.64341 0
M  V30 5450 H 553.47 -1.4986 -0.522267 0
M  V30 5451 H 553.491 -2.09304 -3.17761 0
M  V30 5452 H 553.003 -3.38837 -1.89238 0
M  V30 5453 H 551.104 -1.4594 -3.4283 0
M  V30 5454 H 551.217 -3.34362 -3.43131 0
M  V30 5455 H 549.581 -1.70696 -1.89037 0
M  V30 5456 H 550.364 -3.2221 -1.18471 0
M  V30 5457 N 552.809 0.956637 -1.25245 0
M  V30 5458 C 553.739 2.07058 -1.07931 0
M  V30 5459 C 554.72 1.70096 0.0110361 0
M  V30 5460 O 555.905 1.93555 -0.158121 0
M  V30 5461 C 553.035 3.40272 -0.695124 0
M  V30 5462 C 551.989 3.91235 -1.73549 0
M  V30 5463 C 551.315 5.20921 -1.20604 0
M  V30 5464 C 552.615 4.17837 -3.13385 0
M  V30 5465 H 554.309 2.218 -2.01109 0
M  V30 5466 H 551.855 1.06581 -0.968326 0
M  V30 5467 H 553.808 4.1765 -0.560949 0
M  V30 5468 H 552.532 3.25462 0.272355 0
M  V30 5469 H 551.191 3.16025 -1.85807 0
M  V30 5470 H 550.839 5.02479 -0.228846 0
M  V30 5471 H 550.539 5.55987 -1.90136 0
M  V30 5472 H 552.063 6.00897 -1.08421 0
M  V30 5473 H 553.477 4.8588 -3.04292 0
M  V30 5474 H 551.874 4.64154 -3.80369 0
M  V30 5475 H 552.944 3.2419 -3.60595 0
M  V30 5476 N 554.287 1.06798 1.15896 0
M  V30 5477 C 555.527 0.797041 1.8822 0
M  V30 5478 C 555.891 -0.664549 1.80133 0
M  V30 5479 O 557.092 -1.0503 2.47431 0
M  V30 5480 C 555.363 1.28431 3.33527 0
M  V30 5481 S 556.922 1.14319 4.23647 0
M  V30 5482 H 553.74 0.288988 0.649621 0
M  V30 5483 H 556.342 1.36594 1.39865 0
M  V30 5484 H 555.046 2.34286 3.36954 0
M  V30 5485 H 554.577 0.710371 3.86933 0
M  V30 5486 H 556.592 0.0772467 4.9614 0
M  V30 5487 N 555.766 -1.3263 0.851289 0
M  V30 5488 C 556.994 -2.01563 0.466899 0
M  V30 5489 C 557.409 -1.63996 -0.935447 0
M  V30 5490 O 556.766 -0.85957 -1.6099 0
M  V30 5491 C 556.817 -3.56613 0.592433 0
M  V30 5492 O 556.538 -3.92828 1.93954 0
M  V30 5493 C 558.039 -4.42818 0.206612 0
M  V30 5494 H 555.259 -0.645307 0.183902 0
M  V30 5495 H 557.803 -1.69285 1.1473 0
M  V30 5496 H 555.958 -3.87379 -0.0401936 0
M  V30 5497 H 556.372 -4.87545 1.9339 0
M  V30 5498 H 557.846 -5.50918 0.345462 0
M  V30 5499 H 558.323 -4.30844 -0.85264 0
M  V30 5500 H 558.929 -4.17434 0.814176 0
M  V30 5501 N 557.244 -0.608902 -1.45362 0
M  V30 5502 C 558.484 -0.10763 -2.04116 0
M  V30 5503 C 558.848 1.23883 -1.46686 0
M  V30 5504 O 560.049 1.83091 -1.96803 0
M  V30 5505 C 558.32 -0.0703351 -3.57331 0
M  V30 5506 S 559.879 0.369554 -4.37241 0
M  V30 5507 H 556.697 -0.0502123 -0.709225 0
M  V30 5508 H 559.299 -0.8073 -1.78053 0
M  V30 5509 H 558.003 -1.05379 -3.9664 0
M  V30 5510 H 557.534 0.651287 -3.87971 0
M  V30 5511 H 559.549 1.61878 -4.69052 0
M  V30 5512 N 558.722 1.53707 -0.348139 0
M  V30 5513 C 559.652 2.28111 0.498766 0
M  V30 5514 C 560.633 1.29851 1.09876 0
M  V30 5515 O 561.818 1.587 1.11928 0
M  V30 5516 C 558.948 3.05735 1.64753 0
M  V30 5517 C 557.902 4.11537 1.17565 0
M  V30 5518 C 557.228 4.77142 2.4133 0
M  V30 5519 C 558.528 5.21587 0.272844 0
M  V30 5520 H 560.222 2.99152 -0.121934 0
M  V30 5521 H 557.768 1.43875 -0.0600842 0
M  V30 5522 H 559.721 3.56526 2.24649 0
M  V30 5523 H 558.445 2.32354 2.2952 0
M  V30 5524 H 557.104 3.61665 0.599483 0
M  V30 5525 H 556.752 4.0035 3.04514 0
M  V30 5526 H 556.452 5.48626 2.10436 0
M  V30 5527 H 557.976 5.30719 3.01943 0
M  V30 5528 H 559.39 5.67986 0.778779 0
M  V30 5529 H 557.787 6.00074 0.0555849 0
M  V30 5530 H 558.857 4.79969 -0.689785 0
M  V30 5531 N 560.2 0.0768682 1.57412 0
M  V30 5532 C 561.611 -0.455037 1.8107 0
M  V30 5533 C 561.962 -1.69323 0.991162 0
M  V30 5534 O 561.087 -2.15328 0.215156 0
M  V30 5535 C 561.682 -0.832316 3.28417 0
M  V30 5536 C 560.241 -1.30906 3.52903 0
M  V30 5537 C 559.388 -0.296714 2.75708 0
M  V30 5538 H 562.339 0.302514 1.5579 0
M  V30 5539 H 562.36 -1.69333 3.40744 0
M  V30 5540 H 561.872 0.0690532 3.88039 0
M  V30 5541 H 559.973 -2.22875 2.98592 0
M  V30 5542 H 560.086 -1.28348 4.61588 0
M  V30 5543 H 558.45 -0.775059 2.42621 0
M  V30 5544 H 559.233 0.597015 3.38069 0
M  V30 5545 N 561.678 -1.56367 -0.196722 0
M  V30 5546 C 562.926 -1.80172 -0.915554 0
M  V30 5547 C 563.247 -0.649649 -1.8386 0
M  V30 5548 O 562.517 0.332111 -1.93064 0
M  V30 5549 H 561.097 -0.664592 -0.341067 0
M  V30 5550 H 563.759 -1.93844 -0.202622 0
M  V30 5551 H 562.855 -2.7327 -1.50764 0
M  V30 5552 N 563.156 0.464375 -1.50603 0
M  V30 5553 C 564.386 1.23727 -1.65454 0
M  V30 5554 C 564.794 1.86119 -0.340032 0
M  V30 5555 O 564.137 1.70301 0.688706 0
M  V30 5556 C 564.199 2.38153 -2.69301 0
M  V30 5557 C 563.863 1.96345 -4.12671 0
M  V30 5558 C 564.86 1.48215 -4.98326 0
M  V30 5559 C 562.545 2.04861 -4.58625 0
M  V30 5560 C 564.539 1.09152 -6.27985 0
M  V30 5561 C 562.226 1.65409 -5.88288 0
M  V30 5562 C 563.224 1.17634 -6.72794 0
M  V30 5563 O 562.912 0.787312 -8.00035 0
M  V30 5564 H 562.644 0.380075 -0.559034 0
M  V30 5565 H 565.198 0.559919 -1.97621 0
M  V30 5566 H 563.428 3.09081 -2.32392 0
M  V30 5567 H 565.117 3.00099 -2.73304 0
M  V30 5568 H 565.883 1.41052 -4.64036 0
M  V30 5569 H 561.762 2.40996 -3.92991 0
M  V30 5570 H 565.306 0.717909 -6.93896 0
M  V30 5571 H 561.203 1.72233 -6.22098 0
M  V30 5572 H 561.971 0.915567 -8.13363 0
M  V30 5573 N 564.634 1.40294 0.718013 0
M  V30 5574 C 565.862 1.4175 1.50714 0
M  V30 5575 C 566.277 0.0165366 1.88793 0
M  V30 5576 O 565.634 -0.958942 1.55276 0
M  V30 5577 C 565.685 2.30598 2.784 0
M  V30 5578 O 565.406 3.6524 2.41932 0
M  V30 5579 C 566.907 2.4062 3.72313 0
M  V30 5580 H 564.127 0.483565 0.465194 0
M  V30 5581 H 566.671 1.84316 0.885889 0
M  V30 5582 H 564.826 1.91401 3.36815 0
M  V30 5583 H 565.24 4.12402 3.24076 0
M  V30 5584 H 566.714 3.07001 4.58753 0
M  V30 5585 H 567.191 1.4305 4.15251 0
M  V30 5586 H 567.797 2.80359 3.19811 0
M  V30 5587 N 566.112 -0.949982 1.2575 0
M  V30 5588 C 567.36 -1.6918 1.10555 0
M  V30 5589 C 567.681 -1.91773 -0.353298 0
M  V30 5590 O 566.951 -1.50814 -1.25027 0
M  V30 5591 H 565.531 -0.626952 0.406129 0
M  V30 5592 H 568.193 -1.1419 1.57945 0
M  V30 5593 H 567.289 -2.66915 1.61749 0
M  V30 5594 N 567.59 -1.07411 -1.15328 0
M  V30 5595 C 568.538 -0.689316 -2.22151 0
M  V30 5596 C 569.532 0.300156 -1.6672 0
M  V30 5597 O 570.738 0.163804 -1.79253 0
M  V30 5598 H 567.113 -0.204834 -0.723566 0
M  V30 5599 H 569.084 -1.59988 -2.51886 0
M  V30 5600 C 567.833 -0.103848 -3.47545 0
M  V30 5601 H 567.156 -0.856367 -3.90521 0
M  V30 5602 H 568.596 0.127725 -4.23808 0
M  V30 5603 C 567.055 1.15563 -3.1646 0
M  V30 5604 O 567.585 2.242 -3.33312 0
M  V30 5605 N 565.791 1.06203 -2.70498 0
M  V30 5606 H 565.338 0.177933 -2.56985 0
M  V30 5607 H 565.296 1.90553 -2.50074 0
M  V30 5608 N 569.068 1.32177 -0.85831 0
M  V30 5609 C 570.316 1.96735 -0.462568 0
M  V30 5610 C 570.637 1.6824 0.985911 0
M  V30 5611 O 569.907 0.991564 1.68952 0
M  V30 5612 H 568.487 0.727849 -0.168064 0
M  V30 5613 H 571.149 1.61195 -1.09554 0
M  V30 5614 H 570.245 3.06068 -0.610647 0
M  V30 5615 N 570.547 0.616602 1.45037 0
M  V30 5616 C 571.777 0.121791 2.06241 0
M  V30 5617 C 572.185 -1.20289 1.46038 0
M  V30 5618 O 571.528 -1.7456 0.572242 0
M  V30 5619 C 571.59 -0.0827345 3.59405 0
M  V30 5620 C 571.254 1.16153 4.41993 0
M  V30 5621 C 572.251 2.08183 4.76399 0
M  V30 5622 C 569.936 1.39288 4.82601 0
M  V30 5623 C 571.93 3.21668 5.5028 0
M  V30 5624 C 569.617 2.53073 5.56235 0
M  V30 5625 C 570.615 3.44091 5.89992 0
M  V30 5626 O 570.303 4.55894 6.6213 0
M  V30 5627 H 570.035 0.0701667 0.672349 0
M  V30 5628 H 572.589 0.846877 1.87129 0
M  V30 5629 H 570.819 -0.862812 3.76952 0
M  V30 5630 H 572.508 -0.530273 4.02421 0
M  V30 5631 H 573.274 1.91538 4.45576 0
M  V30 5632 H 569.153 0.693396 4.55755 0
M  V30 5633 H 572.697 3.92733 5.76547 0
M  V30 5634 H 568.594 2.69667 5.86472 0
M  V30 5635 H 569.362 4.5469 6.80587 0
M  V30 5636 N 572.025 -1.5352 0.356285 0
M  V30 5637 C 573.273 -2.00719 -0.235837 0
M  V30 5638 C 573.594 -1.24551 -1.5004 0
M  V30 5639 O 572.864 -0.356185 -1.92635 0
M  V30 5640 H 571.444 -0.741542 -0.0901366 0
M  V30 5641 H 574.106 -1.88887 0.480378 0
M  V30 5642 H 573.202 -3.08551 -0.469357 0
M  V30 5643 N 573.503 -0.0852151 -1.57369 0
M  V30 5644 C 574.914 0.445428 -1.81309 0
M  V30 5645 C 575.265 1.68795 -1.00013 0
M  V30 5646 O 574.39 2.15211 -0.226573 0
M  V30 5647 C 574.985 0.814887 -3.28854 0
M  V30 5648 C 573.544 1.29032 -3.53592 0
M  V30 5649 C 572.691 0.282089 -2.75861 0
M  V30 5650 H 575.642 -0.310771 -1.55627 0
M  V30 5651 H 575.663 1.67524 -3.41637 0
M  V30 5652 H 575.175 -0.0896309 -3.87996 0
M  V30 5653 H 573.276 2.21289 -2.9977 0
M  V30 5654 H 573.389 1.25898 -4.62262 0
M  V30 5655 H 571.753 0.762182 -2.43029 0
M  V30 5656 H 572.536 -0.614936 -3.37748 0
M  V30 5657 N 574.981 1.5647 0.188427 0
M  V30 5658 C 575.929 1.95971 1.25293 0
M  V30 5659 C 576.923 0.846047 1.4676 0
M  V30 5660 O 578.129 1.03109 1.47542 0
M  V30 5661 H 574.504 0.623253 0.420784 0
M  V30 5662 H 576.475 2.84731 0.892792 0
M  V30 5663 C 575.224 2.32116 2.58877 0
M  V30 5664 H 574.547 3.17341 2.43176 0
M  V30 5665 H 575.987 2.63613 3.3209 0
M  V30 5666 C 574.446 1.15823 3.16365 0
M  V30 5667 O 574.976 0.436785 3.99318 0
M  V30 5668 N 573.182 0.933278 2.75206 0
M  V30 5669 H 572.729 1.52169 2.07852 0
M  V30 5670 H 572.687 0.156976 3.14008 0
M  V30 5671 N 576.459 -0.456382 1.50847 0
M  V30 5672 C 577.707 -1.20497 1.62249 0
M  V30 5673 C 578.028 -1.92156 0.331839 0
M  V30 5674 O 577.298 -1.84751 -0.651443 0
M  V30 5675 H 575.878 -0.447775 0.597918 0
M  V30 5676 H 578.54 -0.525099 1.87693 0
M  V30 5677 H 577.636 -1.94492 2.44089 0
M  V30 5678 N 577.937 -1.40673 -0.710563 0
M  V30 5679 C 579.177 -1.40677 -1.48288 0
M  V30 5680 C 579.541 -0.0097193 -1.91998 0
M  V30 5681 O 580.742 0.115381 -2.68552 0
M  V30 5682 C 579.013 -2.37289 -2.67262 0
M  V30 5683 S 580.572 -2.55694 -3.56603 0
M  V30 5684 H 577.39 -0.498545 -0.506926 0
M  V30 5685 H 579.992 -1.76984 -0.830472 0
M  V30 5686 H 578.696 -3.37617 -2.3333 0
M  V30 5687 H 578.227 -2.02282 -3.3741 0
M  V30 5688 H 580.242 -1.81311 -4.61888 0
M  V30 5689 N 579.415 0.9433 -1.26252 0
M  V30 5690 C 580.661 1.69175 -1.11837 0
M  V30 5691 C 580.994 1.91238 0.337891 0
M  V30 5692 O 580.269 1.49152 1.24836 0
M  V30 5693 C 580.552 3.06783 -1.88563 0
M  V30 5694 C 580.405 2.9206 -3.42083 0
M  V30 5695 C 581.724 4.06865 -1.67776 0
M  V30 5696 H 578.843 0.61399 -0.407658 0
M  V30 5697 H 581.485 1.09572 -1.55222 0
M  V30 5698 H 579.635 3.57663 -1.51689 0
M  V30 5699 H 581.307 2.48419 -3.88698 0
M  V30 5700 H 579.55 2.27731 -3.69217 0
M  V30 5701 H 580.221 3.89651 -3.90994 0
M  V30 5702 H 582.697 3.64939 -1.99897 0
M  V30 5703 H 581.573 5.01168 -2.23879 0
M  V30 5704 H 581.834 4.37705 -0.621816 0
M  V30 5705 N 580.893 1.08022 1.14757 0
M  V30 5706 C 581.825 0.664566 2.19354 0
M  V30 5707 C 582.838 -0.286374 1.60261 0
M  V30 5708 O 584.027 -0.0746362 1.78344 0
M  V30 5709 C 581.127 -0.0434634 3.38872 0
M  V30 5710 C 580.3 0.925381 4.27499 0
M  V30 5711 C 579.359 0.253398 5.2559 0
M  V30 5712 O 578.385 0.896581 5.62094 0
M  V30 5713 N 579.587 -0.998263 5.71852 0
M  V30 5714 H 582.352 1.56438 2.55631 0
M  V30 5715 H 579.913 0.965788 1.29939 0
M  V30 5716 H 581.905 -0.503857 4.01551 0
M  V30 5717 H 580.475 -0.845321 3.00954 0
M  V30 5718 H 579.695 1.56472 3.61815 0
M  V30 5719 H 580.983 1.58203 4.8358 0
M  V30 5720 H 580.381 -1.54063 5.44317 0
M  V30 5721 H 578.938 -1.40222 6.36538 0
M  V30 5722 N 582.371 -1.3172 0.865308 0
M  V30 5723 C 583.301 -2.31109 0.333302 0
M  V30 5724 C 584.282 -1.60148 -0.573301 0
M  V30 5725 O 585.467 -1.87882 -0.491305 0
M  V30 5726 C 582.597 -3.44104 -0.470078 0
M  V30 5727 C 581.551 -4.26623 0.343021 0
M  V30 5728 C 580.877 -5.31482 -0.585756 0
M  V30 5729 C 582.177 -4.98001 1.57456 0
M  V30 5730 H 583.871 -2.75855 1.1638 0
M  V30 5731 H 581.417 -1.3262 0.561069 0
M  V30 5732 H 583.37 -4.12682 -0.852752 0
M  V30 5733 H 582.094 -2.98112 -1.33404 0
M  V30 5734 H 580.753 -3.59707 0.707583 0
M  V30 5735 H 580.401 -4.81741 -1.44686 0
M  V30 5736 H 580.101 -5.87582 -0.0456494 0
M  V30 5737 H 581.625 -6.0292 -0.965375 0
M  V30 5738 H 583.039 -5.59201 1.26359 0
M  V30 5739 H 581.436 -5.63876 2.05339 0
M  V30 5740 H 582.506 -4.25253 2.32997 0
M  V30 5741 N 583.85 -0.624285 -1.44708 0
M  V30 5742 C 585.075 -0.131171 -2.06985 0
M  V30 5743 C 585.5 1.18234 -1.46295 0
M  V30 5744 O 584.858 1.72375 -0.561842 0
M  V30 5745 C 584.906 -0.0226724 -3.60593 0
M  V30 5746 O 584.01 1.02314 -3.99507 0
M  V30 5747 H 583.351 -0.0816556 -0.65896 0
M  V30 5748 H 585.88 -0.859027 -1.85693 0
M  V30 5749 H 585.891 0.170138 -4.07645 0
M  V30 5750 H 584.566 -0.981685 -4.04148 0
M  V30 5751 H 583.143 0.805452 -3.64097 0
M  V30 5752 N 585.328 1.53329 -0.364422 0
M  V30 5753 C 586.276 2.27212 0.497737 0
M  V30 5754 C 587.27 1.30146 1.08437 0
M  V30 5755 O 588.476 1.47778 1.0277 0
M  V30 5756 H 584.851 0.730329 0.179232 0
M  V30 5757 H 586.822 2.98037 -0.147182 0
M  V30 5758 C 585.571 3.07333 1.6261 0
M  V30 5759 H 584.894 3.81866 1.184 0
M  V30 5760 H 586.334 3.62209 2.20409 0
M  V30 5761 C 584.793 2.18102 2.56775 0
M  V30 5762 O 585.323 1.79104 3.59562 0
M  V30 5763 N 583.529 1.82759 2.25937 0
M  V30 5764 H 583.076 2.14671 1.42387 0
M  V30 5765 H 583.034 1.23342 2.89196 0
M  V30 5766 N 586.806 0.0935595 1.57322 0
M  V30 5767 C 588.055 -0.570191 1.93473 0
M  V30 5768 C 588.368 -1.69434 0.977318 0
M  V30 5769 O 589.574 -2.41914 1.23248 0
M  V30 5770 C 588.03 -1.06564 3.43762 0
M  V30 5771 C 587.638 0.0286723 4.47991 0
M  V30 5772 C 589.382 -1.70221 3.88877 0
M  V30 5773 C 587.289 -0.482046 5.89432 0
M  V30 5774 H 586.219 -0.216764 0.72217 0
M  V30 5775 H 588.87 0.169313 1.82717 0
M  V30 5776 H 587.252 -1.85878 3.49664 0
M  V30 5777 H 588.426 0.804106 4.5373 0
M  V30 5778 H 586.741 0.570336 4.12476 0
M  V30 5779 H 589.338 -2.09502 4.91948 0
M  V30 5780 H 589.681 -2.57078 3.27439 0
M  V30 5781 H 590.214 -0.974919 3.85668 0
M  V30 5782 H 586.953 0.349871 6.54566 0
M  V30 5783 H 586.473 -1.22452 5.87167 0
M  V30 5784 H 588.152 -0.951508 6.39965 0
M  V30 5785 N 588.284 -1.56567 -0.180126 0
M  V30 5786 C 589.524 -1.83285 -0.904761 0
M  V30 5787 C 589.888 -0.673226 -1.7981 0
M  V30 5788 O 591.089 -0.820645 -2.55967 0
M  V30 5789 C 589.36 -3.15086 -1.68688 0
M  V30 5790 S 590.919 -3.63258 -2.46149 0
M  V30 5791 H 587.737 -0.643114 -0.303193 0
M  V30 5792 H 590.339 -1.94785 -0.167034 0
M  V30 5793 H 589.043 -3.97484 -1.02148 0
M  V30 5794 H 588.574 -3.06504 -2.46615 0
M  V30 5795 H 590.589 -3.29884 -3.70663 0
M  V30 5796 N 589.762 0.448376 -1.51087 0
M  V30 5797 C 590.692 1.55102 -1.74544 0
M  V30 5798 C 591.673 1.59357 -0.594932 0
M  V30 5799 O 592.858 1.75261 -0.836491 0
M  V30 5800 C 589.988 2.93268 -1.86041 0
M  V30 5801 C 588.942 3.03877 -3.01402 0
M  V30 5802 C 588.268 4.43914 -2.98068 0
M  V30 5803 C 589.568 2.7898 -4.41551 0
M  V30 5804 H 591.262 1.35724 -2.66869 0
M  V30 5805 H 588.808 0.651498 -1.28419 0
M  V30 5806 H 590.761 3.70356 -2.01034 0
M  V30 5807 H 589.485 3.13853 -0.903548 0
M  V30 5808 H 588.144 2.29227 -2.86096 0
M  V30 5809 H 587.792 4.6145 -2.00182 0
M  V30 5810 H 587.492 4.51944 -3.75527 0
M  V30 5811 H 589.016 5.22991 -3.1514 0
M  V30 5812 H 590.43 3.45805 -4.57265 0
M  V30 5813 H 588.827 2.98431 -5.20633 0
M  V30 5814 H 589.897 1.74663 -4.5235 0
M  V30 5815 N 591.24 1.41047 0.703093 0
M  V30 5816 C 592.465 1.43537 1.49706 0
M  V30 5817 C 592.89 0.0401853 1.88057 0
M  V30 5818 O 592.248 -0.954785 1.54122 0
M  V30 5819 C 592.296 2.3433 2.74084 0
M  V30 5820 O 591.4 1.79515 3.71279 0
M  V30 5821 H 590.741 0.487454 0.450871 0
M  V30 5822 H 593.271 1.85422 0.86486 0
M  V30 5823 H 593.281 2.49947 3.22476 0
M  V30 5824 H 591.956 3.35708 2.45506 0
M  V30 5825 H 590.533 1.7331 3.30179 0
M  V30 5826 N 592.718 -0.936591 1.26751 0
M  V30 5827 C 593.668 -2.0219 1.05371 0
M  V30 5828 C 594.652 -1.60893 -0.0154112 0
M  V30 5829 O 595.844 -1.75843 0.202085 0
M  V30 5830 C 592.973 -3.36222 0.693541 0
M  V30 5831 C 592.059 -3.8399 1.80035 0
M  V30 5832 N 592.45 -4.0436 3.03852 0
M  V30 5833 C 590.748 -4.12945 1.685 0
M  V30 5834 C 591.449 -4.44 3.75818 0
M  V30 5835 N 590.425 -4.50966 3.03531 0
M  V30 5836 H 594.227 -2.15958 1.99347 0
M  V30 5837 H 591.741 -1.12277 1.17335 0
M  V30 5838 H 593.738 -4.13625 0.521513 0
M  V30 5839 H 592.398 -3.23821 -0.238693 0
M  V30 5840 H 593.409 -3.9092 3.39709 0
M  V30 5841 H 590.086 -4.09308 0.822986 0
M  V30 5842 H 591.476 -4.67914 4.82189 0
M  V30 5843 N 594.196 -1.08629 -1.14182 0
M  V30 5844 C 595.607 -0.838003 -1.66836 0
M  V30 5845 C 595.958 0.634885 -1.85644 0
M  V30 5846 O 595.083 1.49008 -1.56926 0
M  V30 5847 C 595.678 -1.51465 -3.03058 0
M  V30 5848 C 594.237 -1.31355 -3.52736 0
M  V30 5849 C 593.384 -1.57599 -2.28162 0
M  V30 5850 H 596.335 -1.24656 -0.982165 0
M  V30 5851 H 596.356 -0.943134 -3.68626 0
M  V30 5852 H 595.868 -2.58661 -2.89337 0
M  V30 5853 H 593.969 -0.262384 -3.71675 0
M  V30 5854 H 594.082 -2.04275 -4.33369 0
M  V30 5855 H 592.446 -0.997659 -2.34348 0
M  V30 5856 H 593.229 -2.66006 -2.17015 0
M  V30 5857 N 595.674 1.31259 -0.872281 0
M  V30 5858 C 596.914 1.98418 -0.490894 0
M  V30 5859 C 597.278 1.67429 0.939755 0
M  V30 5860 O 598.479 2.27818 1.42661 0
M  V30 5861 C 596.75 3.49583 -0.743408 0
M  V30 5862 S 598.309 4.36359 -0.462226 0
M  V30 5863 H 595.127 0.687005 -0.183151 0
M  V30 5864 H 597.729 1.59619 -1.12881 0
M  V30 5865 H 596.433 3.69627 -1.78338 0
M  V30 5866 H 595.964 3.93291 -0.0925758 0
M  V30 5867 H 597.979 4.91173 0.704525 0
M  V30 5868 N 597.152 0.631951 1.44375 0
M  V30 5869 C 598.082 -0.0593243 2.33425 0
M  V30 5870 C 599.063 -0.833964 1.48253 0
M  V30 5871 O 600.248 -0.799682 1.76971 0
M  V30 5872 C 597.378 -1.04096 3.31333 0
M  V30 5873 C 596.332 -0.377899 4.26328 0
M  V30 5874 C 595.658 -1.4695 5.14111 0
M  V30 5875 C 596.958 0.716371 5.17364 0
M  V30 5876 H 598.652 0.684287 2.91475 0
M  V30 5877 H 596.198 0.330518 1.40156 0
M  V30 5878 H 598.151 -1.53331 3.92514 0
M  V30 5879 H 596.875 -1.81547 2.71493 0
M  V30 5880 H 595.534 0.0938054 3.6648 0
M  V30 5881 H 595.182 -2.2349 4.50623 0
M  V30 5882 H 594.882 -1.03121 5.78481 0
M  V30 5883 H 596.406 -1.96363 5.78164 0
M  V30 5884 H 597.82 0.307089 5.72477 0
M  V30 5885 H 596.217 1.07784 5.90341 0
M  V30 5886 H 597.287 1.58316 4.58327 0
M  V30 5887 N 598.631 -1.53133 0.372548 0
M  V30 5888 C 599.579 -2.27473 -0.485681 0
M  V30 5889 C 600.573 -1.30719 -1.07745 0
M  V30 5890 O 601.779 -1.48321 -1.01985 0
M  V30 5891 H 598.154 -0.731269 -0.175356 0
M  V30 5892 H 600.125 -2.97955 0.162986 0
M  V30 5893 C 598.874 -3.08191 -1.60978 0
M  V30 5894 H 598.197 -3.82488 -1.16373 0
M  V30 5895 H 599.637 -3.63373 -2.18485 0
M  V30 5896 C 598.096 -2.19461 -2.55614 0
M  V30 5897 O 598.626 -1.81008 -3.58607 0
M  V30 5898 N 596.832 -1.83955 -2.24965 0
M  V30 5899 H 596.379 -2.15423 -1.41247 0
M  V30 5900 H 596.337 -1.24874 -2.88538 0
M  V30 5901 N 600.109 -0.101901 -1.5727 0
M  V30 5902 C 601.357 0.559091 -1.94213 0
M  V30 5903 C 601.678 1.68297 -0.984948 0
M  V30 5904 O 600.948 1.95863 -0.0381975 0
M  V30 5905 H 599.528 0.20952 -0.717015 0
M  V30 5906 H 602.19 -0.166831 -1.94185 0
M  V30 5907 H 601.286 0.96485 -2.96811 0
M  V30 5908 N 601.587 1.56661 0.17182 0
M  V30 5909 C 602.519 1.92934 1.2373 0
M  V30 5910 C 603.532 0.822385 1.40502 0
M  V30 5911 O 604.721 1.10083 1.40514 0
M  V30 5912 C 601.821 2.16651 2.60607 0
M  V30 5913 C 600.994 3.47878 2.6514 0
M  V30 5914 C 600.053 3.60429 3.83377 0
M  V30 5915 O 599.079 4.33051 3.69398 0
M  V30 5916 N 600.281 2.95241 4.99813 0
M  V30 5917 H 603.046 2.84931 0.929205 0
M  V30 5918 H 600.607 1.5781 0.361588 0
M  V30 5919 H 602.599 2.22312 3.38171 0
M  V30 5920 H 601.169 1.3104 2.83809 0
M  V30 5921 H 600.389 3.53879 1.73675 0
M  V30 5922 H 601.677 4.34232 2.6518 0
M  V30 5923 H 601.075 2.3611 5.14071 0
M  V30 5924 H 599.632 3.06499 5.75241 0
M  V30 5925 N 603.065 -0.440357 1.51323 0
M  V30 5926 C 604.305 -1.19956 1.65499 0
M  V30 5927 C 604.669 -1.88559 0.361878 0
M  V30 5928 O 605.87 -2.66109 0.379383 0
M  V30 5929 C 604.141 -2.1918 2.82303 0
M  V30 5930 S 605.7 -3.03627 3.1679 0
M  V30 5931 H 602.518 -0.406833 0.583102 0
M  V30 5932 H 605.12 -0.491596 1.89218 0
M  V30 5933 H 603.824 -1.67414 3.74701 0
M  V30 5934 H 603.355 -2.94561 2.60763 0
M  V30 5935 H 605.37 -4.20773 2.62991 0
M  V30 5936 N 604.543 -1.41418 -0.695603 0
M  V30 5937 C 605.792 -1.40073 -1.4513 0
M  V30 5938 C 606.105 -0.0130439 -1.95596 0
M  V30 5939 O 607.311 0.123032 -2.71221 0
M  V30 5940 C 605.767 -2.46286 -2.62433 0
M  V30 5941 C 605.375 -3.90962 -2.18753 0
M  V30 5942 C 607.119 -2.54077 -3.40066 0
M  V30 5943 C 605.026 -4.88728 -3.33015 0
M  V30 5944 H 603.956 -0.520903 -0.545138 0
M  V30 5945 H 606.607 -1.67242 -0.75515 0
M  V30 5946 H 604.989 -2.12248 -3.34315 0
M  V30 5947 H 606.163 -4.34248 -1.54161 0
M  V30 5948 H 604.478 -3.86831 -1.54114 0
M  V30 5949 H 607.075 -3.24303 -4.25125 0
M  V30 5950 H 607.418 -1.5776 -3.8525 0
M  V30 5951 H 607.951 -2.87206 -2.75241 0
M  V30 5952 H 604.69 -5.86449 -2.92844 0
M  V30 5953 H 604.21 -4.50091 -3.96457 0
M  V30 5954 H 605.889 -5.09483 -3.98793 0
M  V30 5955 N 606.021 0.929856 -1.27246 0
M  V30 5956 C 607.298 1.65544 -1.04186 0
M  V30 5957 C 607.678 2.06796 0.424097 0
M  V30 5958 O 607.026 1.80053 1.40688 0
M  V30 5959 C 607.236 2.85912 -2.00138 0
M  V30 5960 C 608.584 3.57305 -2.29387 0
M  V30 5961 O 609.608 2.96036 -1.98094 0
M  V30 5962 O 608.467 4.67688 -2.82719 0
M  V30 5963 H 605.561 0.725473 -0.397011 0
M  V30 5964 H 608.107 0.980583 -1.38501 0
M  V30 5965 H 606.879 2.52403 -2.99013 0
M  V30 5966 H 606.502 3.61118 -1.66371 0
M  V30 5967 N 607.499 1.09233 1.13605 0
M  V30 5968 C 608.727 0.848908 1.88683 0
M  V30 5969 C 609.142 -0.599667 1.79024 0
M  V30 5970 O 608.499 -1.41265 1.15544 0
M  V30 5971 C 608.55 1.27273 3.38355 0
M  V30 5972 O 608.271 2.66449 3.47759 0
M  V30 5973 C 609.772 1.0614 4.30406 0
M  V30 5974 H 606.992 0.305549 0.597395 0
M  V30 5975 H 609.536 1.4538 1.43823 0
M  V30 5976 H 607.691 0.711776 3.80805 0
M  V30 5977 H 608.105 2.84264 4.40788 0
M  V30 5978 H 609.579 1.40725 5.33761 0
M  V30 5979 H 610.056 -0.000960332 4.392 0
M  V30 5980 H 610.662 1.60821 3.93722 0
M  V30 5981 N 608.977 -1.30795 0.87923 0
M  V30 5982 C 610.223 -1.96653 0.495519 0
M  V30 5983 C 610.556 -1.69282 -0.951703 0
M  V30 5984 O 609.831 -0.994374 -1.6716 0
M  V30 5985 C 610.114 -3.51898 0.764174 0
M  V30 5986 C 609.967 -3.88808 2.2616 0
M  V30 5987 C 611.286 -4.39462 0.236825 0
M  V30 5988 H 608.405 -0.7143 0.181507 0
M  V30 5989 H 611.047 -1.54765 1.10217 0
M  V30 5990 H 609.197 -3.87709 0.247841 0
M  V30 5991 H 610.869 -3.63051 2.8459 0
M  V30 5992 H 609.112 -3.37082 2.73053 0
M  V30 5993 H 609.783 -4.97086 2.4002 0
M  V30 5994 H 612.259 -4.10528 0.678683 0
M  V30 5995 H 611.135 -5.47018 0.454176 0
M  V30 5996 H 611.396 -4.33621 -0.861683 0
M  V30 5997 N 610.455 -0.639598 -1.44038 0
M  V30 5998 C 611.68 -0.153117 -2.06834 0
M  V30 5999 C 612.105 1.16676 -1.47541 0
M  V30 6000 O 611.463 1.71769 -0.580093 0
M  V30 6001 C 611.511 -0.0609169 -3.60549 0
M  V30 6002 O 610.615 0.98071 -4.00569 0
M  V30 6003 H 609.956 -0.0886402 -0.658057 0
M  V30 6004 H 612.486 -0.878674 -1.84771 0
M  V30 6005 H 612.496 0.126892 -4.07803 0
M  V30 6006 H 611.171 -1.0245 -4.03084 0
M  V30 6007 H 609.748 0.766789 -3.64931 0
M  V30 6008 N 611.933 1.52934 -0.380664 0
M  V30 6009 C 613.181 2.01069 0.203874 0
M  V30 6010 C 613.502 1.26922 1.4804 0
M  V30 6011 O 612.772 0.386787 1.92044 0
M  V30 6012 H 611.352 0.742882 0.0783279 0
M  V30 6013 H 614.014 1.88099 -0.510368 0
M  V30 6014 H 613.11 3.09258 0.42021 0
M  V30 6015 N 613.412 0.11024 1.57214 0
M  V30 6016 C 614.642 -0.557025 1.98949 0
M  V30 6017 C 615.05 -1.61317 0.988606 0
M  V30 6018 O 614.393 -1.83679 -0.0279159 0
M  V30 6019 C 614.455 -1.24956 3.37085 0
M  V30 6020 C 614.119 -0.342398 4.55716 0
M  V30 6021 C 615.116 0.415511 5.18237 0
M  V30 6022 C 612.801 -0.256029 5.01647 0
M  V30 6023 C 614.795 1.24761 6.25071 0
M  V30 6024 C 612.482 0.579713 6.08344 0
M  V30 6025 C 613.48 1.33017 6.69922 0
M  V30 6026 O 613.168 2.15205 7.74559 0
M  V30 6027 H 612.9 -0.152792 0.658506 0
M  V30 6028 H 615.454 0.19076 2.04512 0
M  V30 6029 H 613.684 -2.04424 3.2825 0
M  V30 6030 H 615.373 -1.81286 3.63167 0
M  V30 6031 H 616.139 0.358605 4.83672 0
M  V30 6032 H 612.018 -0.829831 4.5347 0
M  V30 6033 H 615.562 1.83386 6.73064 0
M  V30 6034 H 611.459 0.638044 6.42339 0
M  V30 6035 H 612.227 2.08052 7.91617 0
M  V30 6036 N 614.89 -1.56749 -0.16351 0
M  V30 6037 C 616.137 -1.82434 -0.878866 0
M  V30 6038 C 616.465 -0.688557 -1.81904 0
M  V30 6039 O 615.72 0.323644 -1.93005 0
M  V30 6040 C 616.019 -3.14342 -1.70071 0
M  V30 6041 C 615.685 -4.41647 -0.908775 0
M  V30 6042 C 614.347 -4.76224 -0.690236 0
M  V30 6043 C 616.699 -5.19998 -0.353815 0
M  V30 6044 C 614.027 -5.86624 0.0942374 0
M  V30 6045 C 616.379 -6.3122 0.41761 0
M  V30 6046 C 615.043 -6.64358 0.646879 0
M  V30 6047 H 614.313 -0.667574 -0.3216 0
M  V30 6048 H 616.96 -1.90963 -0.14337 0
M  V30 6049 H 615.265 -3.0119 -2.50583 0
M  V30 6050 H 616.962 -3.31426 -2.25738 0
M  V30 6051 H 613.552 -4.1453 -1.08916 0
M  V30 6052 H 617.736 -4.93673 -0.509975 0
M  V30 6053 H 612.992 -6.10751 0.281529 0
M  V30 6054 H 617.166 -6.91133 0.854849 0
M  V30 6055 H 614.793 -7.49742 1.25662 0
M  V30 6056 N 616.368 0.432326 -1.51554 0
M  V30 6057 C 617.608 1.19076 -1.66133 0
M  V30 6058 C 617.972 1.88364 -0.371873 0
M  V30 6059 O 619.173 2.65904 -0.39349 0
M  V30 6060 C 617.444 2.1768 -2.83461 0
M  V30 6061 S 619.003 3.01943 -3.18396 0
M  V30 6062 H 615.821 0.403735 -0.585251 0
M  V30 6063 H 618.423 0.481554 -1.89476 0
M  V30 6064 H 617.127 1.65424 -3.75583 0
M  V30 6065 H 616.658 2.93174 -2.62322 0
M  V30 6066 H 618.673 4.19373 -2.65219 0
M  V30 6067 N 617.846 1.41785 0.688094 0
M  V30 6068 C 618.793 1.44221 1.80191 0
M  V30 6069 C 619.763 0.295688 1.63447 0
M  V30 6070 O 620.948 0.49783 1.84191 0
M  V30 6071 C 618.088 1.33743 3.1813 0
M  V30 6072 C 617.201 2.58325 3.46254 0
M  V30 6073 C 616.336 2.40086 4.73848 0
M  V30 6074 C 615.375 3.60107 4.94964 0
M  V30 6075 N 614.512 3.40892 6.13789 0
M  V30 6076 H 619.352 2.39411 1.77444 0
M  V30 6077 H 616.889 1.18876 0.866423 0
M  V30 6078 H 618.847 1.25669 3.97823 0
M  V30 6079 H 617.477 0.42157 3.20035 0
M  V30 6080 H 616.529 2.7682 2.60912 0
M  V30 6081 H 617.841 3.4758 3.57756 0
M  V30 6082 H 616.995 2.29522 5.61609 0
M  V30 6083 H 615.734 1.483 4.64606 0
M  V30 6084 H 614.739 3.71118 4.05649 0
M  V30 6085 H 615.964 4.52857 5.06061 0
M  V30 6086 H 613.91 2.51812 6.05745 0
M  V30 6087 H 613.827 4.23727 6.26092 0
M  V30 6088 H 615.095 3.34114 7.04264 0
M  V30 6089 N 619.324 -0.923095 1.27737 0
M  V30 6090 C 620.564 -1.6858 1.15586 0
M  V30 6091 C 620.928 -1.89758 -0.292562 0
M  V30 6092 O 622.129 -2.6339 -0.536583 0
M  V30 6093 C 620.4 -3.01275 1.92271 0
M  V30 6094 S 621.959 -3.924 1.96387 0
M  V30 6095 H 618.777 -0.579069 0.412554 0
M  V30 6096 H 621.379 -1.09866 1.61709 0
M  V30 6097 H 620.083 -2.83556 2.96689 0
M  V30 6098 H 619.614 -3.6504 1.46661 0
M  V30 6099 H 621.629 -4.84667 1.06361 0
M  V30 6100 N 620.802 -1.09834 -1.13024 0
M  V30 6101 C 622.079 -0.749225 -1.80682 0
M  V30 6102 C 622.459 0.765171 -1.96744 0
M  V30 6103 O 621.807 1.68912 -1.53886 0
M  V30 6104 C 622.017 -1.49311 -3.15448 0
M  V30 6105 C 623.365 -1.66162 -3.90737 0
M  V30 6106 O 624.389 -1.45597 -3.25085 0
M  V30 6107 O 623.248 -2.00211 -5.08505 0
M  V30 6108 H 620.342 -0.269614 -0.781817 0
M  V30 6109 H 622.888 -1.20078 -1.19914 0
M  V30 6110 H 621.66 -2.52407 -2.99009 0
M  V30 6111 H 621.283 -1.034 -3.8392 0
M  V30 6112 N 622.28 1.30327 -0.886154 0
M  V30 6113 C 623.505 2.0079 -0.519425 0
M  V30 6114 C 623.93 1.65979 0.885013 0
M  V30 6115 O 623.288 0.877043 1.58675 0
M  V30 6116 C 623.336 3.53686 -0.702758 0
M  V30 6117 O 622.44 4.11637 0.250828 0
M  V30 6118 H 621.781 0.63171 -0.204544 0
M  V30 6119 H 624.311 1.66145 -1.19402 0
M  V30 6120 H 624.321 4.03531 -0.602207 0
M  V30 6121 H 622.996 3.78361 -1.72673 0
M  V30 6122 H 621.573 3.72755 0.103873 0
M  V30 6123 N 623.758 0.647228 1.43697 0
M  V30 6124 C 625.006 0.157876 2.01482 0
M  V30 6125 C 625.327 -1.23039 1.51282 0
M  V30 6126 O 624.597 -1.82071 0.722982 0
M  V30 6127 H 623.177 0.0553745 0.744945 0
M  V30 6128 H 625.839 0.83755 1.75986 0
M  V30 6129 H 624.935 0.137895 3.11795 0
M  V30 6130 N 625.236 -1.5273 0.388769 0
M  V30 6131 C 626.482 -2.02545 -0.186351 0
M  V30 6132 C 626.837 -1.27017 -1.44514 0
M  V30 6133 O 626.13 -0.361948 -1.8815 0
M  V30 6134 C 626.324 -3.53765 -0.508445 0
M  V30 6135 C 626.153 -4.43938 0.71758 0
M  V30 6136 C 624.923 -4.89933 1.23668 0
M  V30 6137 C 627.121 -4.89113 1.58974 0
M  V30 6138 N 625.103 -5.64176 2.42031 0
M  V30 6139 C 626.474 -5.61931 2.61979 0
M  V30 6140 C 628.529 -4.71155 1.60989 0
M  V30 6141 C 627.232 -6.18698 3.66886 0
M  V30 6142 C 629.258 -5.28804 2.64803 0
M  V30 6143 C 628.62 -6.01527 3.6653 0
M  V30 6144 H 624.719 -0.781413 -0.0302921 0
M  V30 6145 H 627.303 -1.87104 0.538539 0
M  V30 6146 H 625.474 -3.6932 -1.20239 0
M  V30 6147 H 627.206 -3.9028 -1.07067 0
M  V30 6148 H 623.961 -4.66833 0.797763 0
M  V30 6149 H 624.385 -6.05949 3.01919 0
M  V30 6150 H 629.027 -4.14435 0.836881 0
M  V30 6151 H 626.745 -6.74501 4.45055 0
M  V30 6152 H 630.331 -5.1679 2.67245 0
M  V30 6153 H 629.211 -6.45339 4.45542 0
M  V30 6154 N 626.714 -0.118576 -1.57153 0
M  V30 6155 C 627.942 0.54726 -1.99531 0
M  V30 6156 C 628.357 1.60251 -0.998246 0
M  V30 6157 O 627.714 1.82498 0.00893106 0
M  V30 6158 C 627.765 1.17378 -3.41913 0
M  V30 6159 O 627.486 0.160703 -4.37805 0
M  V30 6160 C 628.987 1.92297 -3.9942 0
M  V30 6161 H 626.207 0.144919 -0.655164 0
M  V30 6162 H 628.751 -0.20479 -2.03472 0
M  V30 6163 H 626.906 1.87661 -3.38913 0
M  V30 6164 H 627.32 0.61586 -5.20872 0
M  V30 6165 H 628.794 2.31462 -5.01128 0
M  V30 6166 H 629.271 2.79801 -3.38538 0
M  V30 6167 H 629.877 1.26777 -4.05965 0
M  V30 6168 N 628.193 1.56834 0.155195 0
M  V30 6169 C 629.441 1.82536 0.867462 0
M  V30 6170 C 629.762 0.698168 1.82073 0
M  V30 6171 O 629.032 -0.280807 1.93877 0
M  V30 6172 H 627.612 0.673401 0.323327 0
M  V30 6173 H 630.274 1.94313 0.151156 0
M  V30 6174 H 629.37 2.77171 1.43466 0
M  V30 6175 N 629.671 -0.424282 1.51781 0
M  V30 6176 C 630.917 -1.17434 1.6534 0
M  V30 6177 C 631.25 -1.90549 0.374806 0
M  V30 6178 O 630.525 -1.84145 -0.626179 0
M  V30 6179 C 630.808 -2.18093 2.86544 0
M  V30 6180 C 630.661 -1.48975 4.24413 0
M  V30 6181 C 631.98 -3.18934 3.03264 0
M  V30 6182 H 629.099 -0.425566 0.601716 0
M  V30 6183 H 631.741 -0.461921 1.84299 0
M  V30 6184 H 629.891 -2.78849 2.7051 0
M  V30 6185 H 631.563 -0.914551 4.52143 0
M  V30 6186 H 629.806 -0.791893 4.26511 0
M  V30 6187 H 630.477 -2.22347 5.05238 0
M  V30 6188 H 632.953 -2.68243 3.18096 0
M  V30 6189 H 631.829 -3.86645 3.89611 0
M  V30 6190 H 632.09 -3.85793 2.15908 0
M  V30 6191 N 631.149 -1.42148 -0.680565 0
M  V30 6192 C 632.097 -1.45401 -1.81552 0
M  V30 6193 C 633.091 -0.33036 -1.66147 0
M  V30 6194 O 634.297 -0.503103 -1.72826 0
M  V30 6195 H 630.672 -0.455265 -0.59853 0
M  V30 6196 H 632.643 -2.41024 -1.75926 0
M  V30 6197 C 631.392 -1.36769 -3.19671 0
M  V30 6198 H 630.715 -2.22525 -3.32149 0
M  V30 6199 H 632.155 -1.43106 -3.9912 0
M  V30 6200 C 630.614 -0.0817752 -3.36801 0
M  V30 6201 O 631.144 0.867707 -3.92216 0
M  V30 6202 N 629.35 -0.000799811 -2.906 0
M  V30 6203 H 628.897 -0.774231 -2.4569 0
M  V30 6204 H 628.855 0.858961 -3.02439 0
M  V30 6205 N 632.627 0.916307 -1.28225 0
M  V30 6206 C 633.867 1.67964 -1.16479 0
M  V30 6207 C 634.231 1.8991 0.282494 0
M  V30 6208 O 635.432 2.63671 0.522607 0
M  V30 6209 C 633.703 3.00251 -1.93866 0
M  V30 6210 S 635.262 3.91353 -1.98465 0
M  V30 6211 H 632.08 0.576873 -0.415619 0
M  V30 6212 H 634.682 1.09006 -1.62289 0
M  V30 6213 H 633.386 2.81978 -2.98189 0
M  V30 6214 H 632.917 3.64257 -1.48595 0
M  V30 6215 H 634.932 4.84096 -1.0893 0
M  V30 6216 N 634.105 1.10431 1.1244 0
M  V30 6217 C 635.333 0.868872 1.87772 0
M  V30 6218 C 635.748 -0.580645 1.7965 0
M  V30 6219 O 635.105 -1.40031 1.17036 0
M  V30 6220 C 635.156 1.30855 3.36986 0
M  V30 6221 O 634.877 2.70123 3.44914 0
M  V30 6222 C 636.378 1.107 4.29256 0
M  V30 6223 H 633.598 0.311868 0.59412 0
M  V30 6224 H 636.142 1.46897 1.42273 0
M  V30 6225 H 634.297 0.752126 3.80029 0
M  V30 6226 H 634.711 2.88923 4.37748 0
M  V30 6227 H 636.185 1.46378 5.32238 0
M  V30 6228 H 636.662 0.0456228 4.39176 0
M  V30 6229 H 637.268 1.64988 3.91994 0
M  V30 6230 N 635.583 -1.29855 0.893053 0
M  V30 6231 C 636.493 -2.31661 0.370157 0
M  V30 6232 C 637.509 -1.65677 -0.531723 0
M  V30 6233 O 638.685 -1.9691 -0.422902 0
M  V30 6234 C 635.75 -3.44388 -0.399741 0
M  V30 6235 C 634.811 -4.2598 0.532861 0
M  V30 6236 C 634.044 -5.33324 -0.200388 0
M  V30 6237 O 634.267 -5.52305 -1.42531 0
M  V30 6238 O 633.201 -6.00188 0.453668 0
M  V30 6239 H 637.027 -2.78354 1.2146 0
M  V30 6240 H 634.612 -1.34171 0.657153 0
M  V30 6241 H 636.494 -4.13037 -0.835358 0
M  V30 6242 H 635.169 -2.99815 -1.22035 0
M  V30 6243 H 634.076 -3.59998 1.01746 0
M  V30 6244 H 635.409 -4.74178 1.3197 0
M  V30 6245 N 637.061 -0.65484 -1.43351 0
M  V30 6246 C 638.009 0.0476784 -2.32551 0
M  V30 6247 C 639.003 0.811403 -1.48703 0
M  V30 6248 O 640.209 0.721621 -1.64902 0
M  V30 6249 H 636.584 0.0342038 -0.751222 0
M  V30 6250 H 638.555 -0.722342 -2.89525 0
M  V30 6251 C 637.304 0.999251 -3.33032 0
M  V30 6252 H 636.627 0.421005 -3.97577 0
M  V30 6253 H 638.067 1.45986 -3.98076 0
M  V30 6254 C 636.526 2.09606 -2.63756 0
M  V30 6255 O 637.056 3.18004 -2.4543 0
M  V30 6256 N 635.262 1.86207 -2.23103 0
M  V30 6257 H 634.809 0.980555 -2.38208 0
M  V30 6258 H 634.767 2.59787 -1.77081 0
M  V30 6259 N 638.539 1.52521 -0.396863 0
M  V30 6260 C 639.788 2.00857 0.184184 0
M  V30 6261 C 640.101 1.28733 1.47265 0
M  V30 6262 O 641.307 1.67821 2.13421 0
M  V30 6263 C 639.763 3.57901 0.378787 0
M  V30 6264 C 639.371 4.38931 -0.896873 0
M  V30 6265 C 641.115 4.14504 0.915789 0
M  V30 6266 C 639.022 5.87591 -0.670133 0
M  V30 6267 H 637.952 0.750496 0.0726055 0
M  V30 6268 H 640.603 1.75965 -0.520425 0
M  V30 6269 H 638.985 3.79072 1.14543 0
M  V30 6270 H 640.159 4.29524 -1.66872 0
M  V30 6271 H 638.474 3.93586 -1.35938 0
M  V30 6272 H 641.071 5.23236 1.10126 0
M  V30 6273 H 641.414 3.71076 1.88701 0
M  V30 6274 H 641.947 3.97253 0.208523 0
M  V30 6275 H 638.686 6.35355 -1.61257 0
M  V30 6276 H 638.206 5.99767 0.0626368 0
M  V30 6277 H 639.885 6.46268 -0.307577 0
M  V30 6278 N 640.017 0.126909 1.57088 0
M  V30 6279 C 640.965 -0.837618 2.16995 0
M  V30 6280 C 641.959 -1.26974 1.12133 0
M  V30 6281 O 643.165 -1.24056 1.30423 0
M  V30 6282 H 639.54 -0.288256 0.694559 0
M  V30 6283 H 641.511 -0.307957 2.96807 0
M  V30 6284 C 640.26 -2.07474 2.79016 0
M  V30 6285 H 639.583 -1.75117 3.59408 0
M  V30 6286 H 641.023 -2.72949 3.24461 0
M  V30 6287 C 639.482 -2.86967 1.76498 0
M  V30 6288 O 640.012 -3.82625 1.22316 0
M  V30 6289 N 638.218 -2.51111 1.46258 0
M  V30 6290 H 637.765 -1.73389 1.90509 0
M  V30 6291 H 637.723 -3.04594 0.779085 0
M  V30 6292 N 641.495 -1.56914 -0.146875 0
M  V30 6293 C 642.405 -2.0154 -1.20079 0
M  V30 6294 C 643.421 -0.930838 -1.47008 0
M  V30 6295 O 644.597 -1.24032 -1.58676 0
M  V30 6296 C 641.662 -2.38715 -2.51428 0
M  V30 6297 C 640.723 -3.6112 -2.32145 0
M  V30 6298 C 639.956 -3.96512 -3.57231 0
M  V30 6299 O 640.179 -3.32566 -4.63418 0
M  V30 6300 O 639.113 -4.89758 -3.49887 0
M  V30 6301 H 642.939 -2.91506 -0.851924 0
M  V30 6302 H 640.524 -1.45106 -0.355607 0
M  V30 6303 H 642.406 -2.63485 -3.28867 0
M  V30 6304 H 641.081 -1.51903 -2.85845 0
M  V30 6305 H 639.988 -3.41536 -1.52656 0
M  V30 6306 H 641.321 -4.48549 -2.02644 0
M  V30 6307 N 642.974 0.416227 -1.52004 0
M  V30 6308 C 644.214 1.17307 -1.67387 0
M  V30 6309 C 644.578 1.87959 -0.39183 0
M  V30 6310 O 645.779 2.65472 -0.421671 0
M  V30 6311 C 644.05 2.14661 -2.85754 0
M  V30 6312 S 645.609 2.98549 -3.21581 0
M  V30 6313 H 642.427 0.397505 -0.5895 0
M  V30 6314 H 645.029 0.461431 -1.89976 0
M  V30 6315 H 643.733 1.61431 -3.77317 0
M  V30 6316 H 643.264 2.90375 -2.65417 0
M  V30 6317 H 645.279 4.16536 -2.69652 0
M  V30 6318 N 644.452 1.42507 0.673017 0
M  V30 6319 C 645.382 1.48916 1.79851 0
M  V30 6320 C 646.363 0.345566 1.66553 0
M  V30 6321 O 647.548 0.560116 1.85947 0
M  V30 6322 C 644.678 1.39258 3.18158 0
M  V30 6323 C 643.632 2.51662 3.46194 0
M  V30 6324 C 642.958 2.27062 4.84094 0
M  V30 6325 C 644.258 3.93968 3.42909 0
M  V30 6326 H 645.952 2.43114 1.74745 0
M  V30 6327 H 643.498 1.17013 0.839288 0
M  V30 6328 H 645.451 1.42349 3.96629 0
M  V30 6329 H 644.175 0.415542 3.23946 0
M  V30 6330 H 642.834 2.47891 2.70084 0
M  V30 6331 H 642.482 1.27648 4.86534 0
M  V30 6332 H 642.182 3.02398 5.03815 0
M  V30 6333 H 643.706 2.31905 5.64847 0
M  V30 6334 H 645.12 3.99332 4.11347 0
M  V30 6335 H 643.517 4.6917 3.74165 0
M  V30 6336 H 644.587 4.20512 2.41449 0
M  V30 6337 N 645.93 -0.909495 1.28709 0
M  V30 6338 C 647.155 -1.69801 1.1909 0
M  V30 6339 C 647.58 -1.86479 -0.246388 0
M  V30 6340 O 646.938 -1.37802 -1.17815 0
M  V30 6341 C 646.986 -3.06543 1.89904 0
M  V30 6342 O 646.09 -3.94268 1.2094 0
M  V30 6343 H 645.431 -0.519783 0.413185 0
M  V30 6344 H 647.961 -1.13689 1.70106 0
M  V30 6345 H 647.971 -3.56748 1.97977 0
M  V30 6346 H 646.646 -2.93722 2.94449 0
M  V30 6347 H 645.223 -3.52702 1.2106 0
M  V30 6348 N 647.408 -1.11026 -1.11852 0
M  V30 6349 C 648.356 -0.759643 -2.19846 0
M  V30 6350 C 649.35 0.246964 -1.6759 0
M  V30 6351 O 650.556 0.106693 -1.79684 0
M  V30 6352 H 646.931 -0.22775 -0.716683 0
M  V30 6353 H 648.902 -1.6792 -2.46669 0
M  V30 6354 C 647.651 -0.214364 -3.47039 0
M  V30 6355 H 646.974 -0.980175 -3.87599 0
M  V30 6356 H 648.414 -0.00717047 -4.23999 0
M  V30 6357 C 646.873 1.05436 -3.19976 0
M  V30 6358 O 647.403 2.13483 -3.40276 0
M  V30 6359 N 645.609 0.975436 -2.7374 0
M  V30 6360 H 645.156 0.0960853 -2.57421 0
M  V30 6361 H 645.114 1.82501 -2.5601 0
M  V30 6362 N 648.886 1.2938 -0.899927 0
M  V30 6363 C 650.297 1.77644 -0.574427 0
M  V30 6364 C 650.648 1.73824 0.909928 0
M  V30 6365 O 649.773 1.32429 1.71147 0
M  V30 6366 C 650.368 3.22573 -1.03595 0
M  V30 6367 C 648.927 3.68614 -0.76161 0
M  V30 6368 C 648.074 2.49483 -1.21052 0
M  V30 6369 H 651.025 1.16038 -1.08263 0
M  V30 6370 H 651.046 3.78684 -0.371337 0
M  V30 6371 H 650.558 3.25321 -2.11631 0
M  V30 6372 H 648.659 3.7134 0.306127 0
M  V30 6373 H 648.772 4.59402 -1.35965 0
M  V30 6374 H 647.136 2.46798 -0.629515 0
M  V30 6375 H 647.919 2.54959 -2.29893 0
M  V30 6376 N 650.364 0.662433 1.43002 0
M  V30 6377 C 651.604 0.183312 2.03576 0
M  V30 6378 C 651.968 -1.18354 1.51183 0
M  V30 6379 O 653.169 -1.7566 2.03462 0
M  V30 6380 C 651.44 0.202908 3.56824 0
M  V30 6381 S 652.999 -0.20702 4.38311 0
M  V30 6382 H 649.817 0.0765001 0.706872 0
M  V30 6383 H 652.419 0.872827 1.74934 0
M  V30 6384 H 651.123 1.20028 3.92456 0
M  V30 6385 H 650.654 -0.506845 3.90121 0
M  V30 6386 H 652.669 -1.44358 4.74737 0
M  V30 6387 N 651.842 -1.52309 0.404946 0
M  V30 6388 C 652.772 -2.29805 -0.41376 0
M  V30 6389 C 653.753 -1.3384 -1.0498 0
M  V30 6390 O 654.938 -1.62745 -1.05961 0
M  V30 6391 C 652.068 -3.11639 -1.53292 0
M  V30 6392 C 651.022 -4.15616 -1.02211 0
M  V30 6393 C 650.348 -4.8577 -2.23455 0
M  V30 6394 C 651.648 -5.2224 -0.0790725 0
M  V30 6395 H 653.342 -2.98493 0.232878 0
M  V30 6396 H 650.888 -1.43552 0.113441 0
M  V30 6397 H 652.841 -3.64618 -2.11262 0
M  V30 6398 H 651.565 -2.40712 -2.20738 0
M  V30 6399 H 650.224 -3.63641 -0.46484 0
M  V30 6400 H 649.872 -4.11376 -2.89445 0
M  V30 6401 H 649.572 -5.56058 -1.89929 0
M  V30 6402 H 651.096 -5.4156 -2.82038 0
M  V30 6403 H 652.51 -5.70485 -0.567438 0
M  V30 6404 H 650.907 -5.99867 0.167167 0
M  V30 6405 H 651.977 -4.77078 0.867447 0
M  V30 6406 N 653.32 -0.135238 -1.57019 0
M  V30 6407 C 654.268 0.826099 -2.17436 0
M  V30 6408 C 655.262 1.26378 -1.12805 0
M  V30 6409 O 656.468 1.23363 -1.31079 0
M  V30 6410 H 652.843 0.284568 -0.696078 0
M  V30 6411 H 654.814 0.292212 -2.96966 0
M  V30 6412 C 653.563 2.05991 -2.80112 0
M  V30 6413 H 652.886 1.73209 -3.60331 0
M  V30 6414 H 654.326 2.71225 -3.25903 0
M  V30 6415 C 652.785 2.86027 -1.78017 0
M  V30 6416 O 653.315 3.81971 -1.24344 0
M  V30 6417 N 651.521 2.50332 -1.47588 0
M  V30 6418 H 651.068 1.72377 -1.91426 0
M  V30 6419 H 651.026 3.04177 -0.795228 0
M  V30 6420 N 654.798 1.5699 0.138552 0
M  V30 6421 C 656.046 1.83446 0.848053 0
M  V30 6422 C 656.367 0.71744 1.81322 0
M  V30 6423 O 655.637 -0.260228 1.94164 0
M  V30 6424 H 654.217 0.676792 0.316166 0
M  V30 6425 H 656.879 1.94462 0.130538 0
M  V30 6426 H 655.975 2.78677 1.40518 0
M  V30 6427 N 656.276 -0.40816 1.52223 0
M  V30 6428 C 657.524 -1.15274 1.66001 0
M  V30 6429 C 657.845 -1.91003 0.392803 0
M  V30 6430 O 657.115 -1.8673 -0.592336 0
M  V30 6431 H 655.695 -0.428526 0.611861 0
M  V30 6432 H 658.357 -0.46512 1.89269 0
M  V30 6433 H 657.453 -1.86628 2.50153 0
M  V30 6434 N 657.755 -1.42862 -0.66545 0
M  V30 6435 C 658.983 -1.47246 -1.45349 0
M  V30 6436 C 659.398 -0.0865944 -1.88601 0
M  V30 6437 O 658.755 0.900652 -1.58728 0
M  V30 6438 C 658.806 -2.40772 -2.6965 0
M  V30 6439 O 658.527 -3.73968 -2.2821 0
M  V30 6440 C 660.028 -2.54272 -3.63126 0
M  V30 6441 H 657.248 -0.500497 -0.446927 0
M  V30 6442 H 659.792 -1.87477 -0.816871 0
M  V30 6443 H 657.947 -2.0377 -3.29479 0
M  V30 6444 H 658.361 -4.24146 -3.08546 0
M  V30 6445 H 659.835 -3.23815 -4.47043 0
M  V30 6446 H 660.312 -1.58364 -4.09656 0
M  V30 6447 H 660.918 -2.92036 -3.09185 0
M  V30 6448 N 659.233 0.902656 -1.29189 0
M  V30 6449 C 660.473 1.6672 -1.18254 0
M  V30 6450 C 660.837 1.90199 0.262336 0
M  V30 6451 O 662.038 2.6421 0.494612 0
M  V30 6452 C 660.309 2.98178 -1.9704 0
M  V30 6453 S 661.868 3.89226 -2.02605 0
M  V30 6454 H 658.686 0.572432 -0.421714 0
M  V30 6455 H 661.288 1.07279 -1.63436 0
M  V30 6456 H 659.992 2.788 -3.01163 0
M  V30 6457 H 659.523 3.62661 -1.5245 0
M  V30 6458 H 661.538 4.82913 -1.14059 0
M  V30 6459 N 660.711 1.11618 1.11262 0
M  V30 6460 C 661.957 0.867463 1.83311 0
M  V30 6461 C 662.29 -0.605366 1.84524 0
M  V30 6462 O 661.565 -1.44704 1.29965 0
M  V30 6463 C 661.848 1.43207 3.30399 0
M  V30 6464 C 661.701 2.97265 3.3757 0
M  V30 6465 C 663.02 1.08454 4.26528 0
M  V30 6466 H 660.139 0.316578 0.665543 0
M  V30 6467 H 662.781 1.38137 1.30454 0
M  V30 6468 H 660.931 0.994982 3.75543 0
M  V30 6469 H 662.603 3.49591 3.00971 0
M  V30 6470 H 660.846 3.33237 2.77733 0
M  V30 6471 H 661.517 3.31859 4.41105 0
M  V30 6472 H 663.993 1.4619 3.89574 0
M  V30 6473 H 662.869 1.50633 5.27826 0
M  V30 6474 H 663.13 -0.00444568 4.421 0
M  V30 6475 N 662.189 -1.289 0.906776 0
M  V30 6476 C 663.466 -1.90221 0.455537 0
M  V30 6477 C 663.846 -1.82251 -1.06527 0
M  V30 6478 O 663.194 -1.25385 -1.91026 0
M  V30 6479 C 663.404 -3.35015 0.97806 0
M  V30 6480 C 664.752 -4.12018 1.02598 0
M  V30 6481 O 665.776 -3.43947 0.926218 0
M  V30 6482 O 664.635 -5.33677 1.17689 0
M  V30 6483 H 661.729 -0.814505 0.143214 0
M  V30 6484 H 664.275 -1.37317 0.997104 0
M  V30 6485 H 663.047 -3.35006 2.02204 0
M  V30 6486 H 662.67 -3.95408 0.416914 0
M  V30 6487 N 663.667 -0.670007 -1.42649 0
M  V30 6488 C 664.915 -0.18991 -2.01206 0
M  V30 6489 C 665.236 1.20617 -1.53221 0
M  V30 6490 O 664.506 1.80898 -0.751856 0
M  V30 6491 H 663.086 -0.0672189 -0.743969 0
M  V30 6492 H 665.748 -0.865442 -1.74631 0
M  V30 6493 H 664.844 -0.187481 -3.11536 0
M  V30 6494 N 665.145 1.52092 -0.413018 0
M  V30 6495 C 666.391 2.02154 0.161737 0
M  V30 6496 C 666.724 1.29789 1.44459 0
M  V30 6497 O 665.999 0.405378 1.90229 0
M  V30 6498 C 666.282 3.5781 0.405463 0
M  V30 6499 C 666.135 4.40819 -0.894335 0
M  V30 6500 C 667.454 4.23821 1.18591 0
M  V30 6501 H 664.573 0.734769 0.0573077 0
M  V30 6502 H 667.215 1.81948 -0.547247 0
M  V30 6503 H 665.365 3.75158 1.0094 0
M  V30 6504 H 667.037 4.35175 -1.53039 0
M  V30 6505 H 665.28 4.06877 -1.50444 0
M  V30 6506 H 665.951 5.47819 -0.678144 0
M  V30 6507 H 668.427 4.10596 0.674573 0
M  V30 6508 H 667.303 5.32663 1.3252 0
M  V30 6509 H 667.564 3.83038 2.20758 0
M  V30 6510 N 666.623 0.143563 1.56945 0
M  V30 6511 C 667.9 -0.553285 1.87612 0
M  V30 6512 C 668.28 -1.83195 1.04894 0
M  V30 6513 O 667.628 -2.28102 0.134773 0
M  V30 6514 C 667.838 -0.822055 3.3918 0
M  V30 6515 C 669.186 -1.16435 4.08324 0
M  V30 6516 O 670.21 -0.911522 3.4434 0
M  V30 6517 O 669.069 -1.63996 5.21313 0
M  V30 6518 H 666.163 -0.281851 0.777489 0
M  V30 6519 H 668.709 0.179916 1.68744 0
M  V30 6520 H 667.481 0.0830265 3.91212 0
M  V30 6521 H 667.104 -1.60956 3.63564 0
M  V30 6522 N 668.101 -1.57061 -0.130224 0
M  V30 6523 C 669.326 -1.88802 -0.858409 0
M  V30 6524 C 669.751 -0.734353 -1.73173 0
M  V30 6525 O 669.109 0.315529 -1.78533 0
M  V30 6526 C 669.157 -3.19228 -1.67708 0
M  V30 6527 O 668.261 -3.04343 -2.78297 0
M  V30 6528 H 667.602 -0.619849 -0.238083 0
M  V30 6529 H 670.132 -2.04271 -0.115995 0
M  V30 6530 H 670.142 -3.51669 -2.06864 0
M  V30 6531 H 668.817 -4.02793 -1.0359 0
M  V30 6532 H 667.394 -2.83346 -2.42425 0
M  V30 6533 N 669.579 0.400081 -1.52437 0
M  V30 6534 C 670.826 1.14619 -1.6694 0
M  V30 6535 C 671.154 1.90262 -0.403797 0
M  V30 6536 O 670.409 1.85835 0.61351 0
M  V30 6537 C 670.708 2.15914 -2.84808 0
M  V30 6538 C 670.374 1.57011 -4.2268 0
M  V30 6539 C 669.036 1.40672 -4.60179 0
M  V30 6540 C 671.388 1.14081 -5.08562 0
M  V30 6541 C 668.716 0.799335 -5.81229 0
M  V30 6542 C 671.068 0.547573 -6.30226 0
M  V30 6543 C 669.732 0.371389 -6.66466 0
M  V30 6544 H 669.002 0.419419 -0.610875 0
M  V30 6545 H 671.649 0.432227 -1.86558 0
M  V30 6546 H 669.954 2.93488 -2.59561 0
M  V30 6547 H 671.651 2.73533 -2.93225 0
M  V30 6548 H 668.241 1.70713 -3.93135 0
M  V30 6549 H 672.425 1.2551 -4.80168 0
M  V30 6550 H 667.681 0.65093 -6.07925 0
M  V30 6551 H 671.855 0.206575 -6.96094 0
M  V30 6552 H 669.482 -0.10135 -7.60132 0
M  V30 6553 N 671.057 1.43213 0.657864 0
M  V30 6554 C 672.282 1.48227 1.45064 0
M  V30 6555 C 672.707 0.0999939 1.87834 0
M  V30 6556 O 672.065 -0.905269 1.57081 0
M  V30 6557 C 672.113 2.42931 2.6649 0
M  V30 6558 O 671.217 1.91237 3.6538 0
M  V30 6559 H 670.558 0.501551 0.435135 0
M  V30 6560 H 673.088 1.8808 0.805431 0
M  V30 6561 H 673.098 2.6008 3.1436 0
M  V30 6562 H 671.773 3.43348 2.34701 0
M  V30 6563 H 670.35 1.83726 3.24498 0
M  V30 6564 N 672.536 -0.895792 1.29666 0
M  V30 6565 C 673.776 -1.6609 1.19136 0
M  V30 6566 C 674.14 -1.90336 -0.252245 0
M  V30 6567 O 675.341 -2.64469 -0.480593 0
M  V30 6568 C 673.612 -2.97129 1.98618 0
M  V30 6569 S 675.171 -3.88146 2.04666 0
M  V30 6570 H 671.989 -0.570188 0.424744 0
M  V30 6571 H 674.591 -1.06411 1.64003 0
M  V30 6572 H 673.295 -2.77199 3.02637 0
M  V30 6573 H 672.826 -3.61847 1.54371 0
M  V30 6574 H 674.841 -4.82301 1.16618 0
M  V30 6575 N 674.014 -1.12206 -1.10668 0
M  V30 6576 C 674.924 -0.800686 -2.20513 0
M  V30 6577 C 675.94 0.209512 -1.72734 0
M  V30 6578 O 677.116 0.043705 -2.01353 0
M  V30 6579 C 674.181 -0.257353 -3.45744 0
M  V30 6580 C 673.242 -1.32718 -4.0827 0
M  V30 6581 C 672.475 -0.809674 -5.27522 0
M  V30 6582 O 672.698 0.35742 -5.69279 0
M  V30 6583 O 671.632 -1.57816 -5.80842 0
M  V30 6584 H 675.458 -1.71807 -2.50432 0
M  V30 6585 H 673.043 -0.898546 -1.19359 0
M  V30 6586 H 674.925 0.0408849 -4.2138 0
M  V30 6587 H 673.6 0.632627 -3.17458 0
M  V30 6588 H 672.507 -1.67855 -3.34329 0
M  V30 6589 H 673.84 -2.19083 -4.40753 0
M  V30 6590 N 675.492 1.28418 -0.913599 0
M  V30 6591 C 676.732 1.96756 -0.553771 0
M  V30 6592 C 677.096 1.70334 0.886013 0
M  V30 6593 O 678.297 2.32242 1.35341 0
M  V30 6594 C 676.568 3.47041 -0.854249 0
M  V30 6595 S 678.127 4.34667 -0.600816 0
M  V30 6596 H 674.945 0.680831 -0.204915 0
M  V30 6597 H 677.547 1.55947 -1.17902 0
M  V30 6598 H 676.251 3.63766 -1.90007 0
M  V30 6599 H 675.782 3.92797 -0.217651 0
M  V30 6600 H 677.797 4.93166 0.547906 0
M  V30 6601 N 676.97 0.677563 1.42291 0
M  V30 6602 C 678.198 0.209459 2.05837 0
M  V30 6603 C 678.613 -1.13444 1.50917 0
M  V30 6604 O 677.97 -1.70529 0.65008 0
M  V30 6605 C 678.021 0.138819 3.61233 0
M  V30 6606 O 677.742 1.42962 4.14118 0
M  V30 6607 C 679.243 -0.352449 4.41897 0
M  V30 6608 H 676.463 0.101209 0.663323 0
M  V30 6609 H 679.007 0.925077 1.8238 0
M  V30 6610 H 677.162 -0.527505 3.83792 0
M  V30 6611 H 677.576 1.3048 5.08011 0
M  V30 6612 H 679.05 -0.350778 5.50884 0
M  V30 6613 H 679.527 -1.3882 4.16684 0
M  V30 6614 H 680.133 0.282236 4.24362 0
M  V30 6615 N 678.448 -1.51871 0.421078 0
M  V30 6616 C 679.864 -1.59435 0.0725398 0
M  V30 6617 C 680.064 -1.43315 -1.41644 0
M  V30 6618 O 679.12 -1.26614 -2.18461 0
M  V30 6619 C 680.433 -2.9509 0.578132 0
M  V30 6620 C 681.981 -3.08356 0.537149 0
M  V30 6621 C 682.456 -4.4651 1.01945 0
M  V30 6622 N 683.947 -4.52784 0.976758 0
M  V30 6623 C 684.682 -5.57976 1.32099 0
M  V30 6624 N 684.178 -6.70664 1.73727 0
M  V30 6625 N 685.971 -5.48248 1.2402 0
M  V30 6626 H 678.122 -1.60595 1.39007 0
M  V30 6627 H 680.385 -0.756138 0.571803 0
M  V30 6628 H 680.091 -3.12205 1.61929 0
M  V30 6629 H 679.965 -3.772 -0.00578374 0
M  V30 6630 H 682.352 -2.90919 -0.494991 0
M  V30 6631 H 682.433 -2.28125 1.15727 0
M  V30 6632 H 682.077 -4.64692 2.04997 0
M  V30 6633 H 682.007 -5.25256 0.376023 0
M  V30 6634 H 684.498 -3.71898 0.670851 0
M  V30 6635 H 684.811 -7.46932 1.98274 0
M  V30 6636 H 683.156 -6.71914 1.77641 0
M  V30 6637 H 686.347 -4.59095 0.913756 0
M  V30 6638 H 686.52 -6.30119 1.51176 0
M  V30 6639 N 679.926 -0.151884 -1.56866 0
M  V30 6640 C 680.856 0.781943 -2.20018 0
M  V30 6641 C 681.837 1.25347 -1.14987 0
M  V30 6642 O 683.022 1.31015 -1.43348 0
M  V30 6643 C 680.152 2.01928 -2.82564 0
M  V30 6644 C 679.106 1.68434 -3.93464 0
M  V30 6645 C 678.432 2.99472 -4.42968 0
M  V30 6646 C 679.732 0.927244 -5.14003 0
M  V30 6647 H 681.426 0.255607 -2.98307 0
M  V30 6648 H 678.972 0.121502 -1.43486 0
M  V30 6649 H 680.925 2.67741 -3.25411 0
M  V30 6650 H 679.649 2.56943 -2.01614 0
M  V30 6651 H 678.308 1.04998 -3.51242 0
M  V30 6652 H 677.956 3.52488 -3.58834 0
M  V30 6653 H 677.656 2.77823 -5.17772 0
M  V30 6654 H 679.18 3.66348 -4.88489 0
M  V30 6655 H 680.594 1.48756 -5.53665 0
M  V30 6656 H 678.991 0.810513 -5.94601 0
M  V30 6657 H 680.061 -0.0801163 -4.84834 0
M  V30 6658 N 681.404 1.57128 0.121893 0
M  V30 6659 C 682.65 1.85853 0.826451 0
M  V30 6660 C 683.005 0.739262 1.77631 0
M  V30 6661 O 682.298 -0.260959 1.89815 0
M  V30 6662 C 682.492 3.1874 1.61677 0
M  V30 6663 C 682.321 4.43487 0.744944 0
M  V30 6664 C 681.091 5.03707 0.400891 0
M  V30 6665 C 683.289 5.1426 0.0638779 0
M  V30 6666 N 681.271 6.12006 -0.481902 0
M  V30 6667 C 682.642 6.16281 -0.678033 0
M  V30 6668 C 684.697 4.97898 -0.0128424 0
M  V30 6669 C 683.4 7.0371 -1.48946 0
M  V30 6670 C 685.426 5.85812 -0.81108 0
M  V30 6671 C 684.788 6.87333 -1.54119 0
M  V30 6672 H 680.887 0.730367 0.279442 0
M  V30 6673 H 683.471 1.9449 0.0903486 0
M  V30 6674 H 681.642 3.11204 2.32393 0
M  V30 6675 H 683.374 3.35283 2.26644 0
M  V30 6676 H 680.129 4.67744 0.742469 0
M  V30 6677 H 680.553 6.70787 -0.915063 0
M  V30 6678 H 685.195 4.19372 0.537278 0
M  V30 6679 H 682.913 7.81646 -2.05074 0
M  V30 6680 H 686.499 5.75217 -0.872764 0
M  V30 6681 H 685.379 7.54182 -2.14893 0
M  V30 6682 N 682.882 -0.391992 1.52647 0
M  V30 6683 C 684.11 -1.1586 1.71418 0
M  V30 6684 C 684.525 -1.8381 0.431216 0
M  V30 6685 O 683.882 -1.7256 -0.594085 0
M  V30 6686 C 683.933 -2.20888 2.86165 0
M  V30 6687 O 683.654 -1.5571 4.09495 0
M  V30 6688 C 685.155 -3.103 3.1659 0
M  V30 6689 H 682.375 -0.347494 0.574011 0
M  V30 6690 H 684.919 -0.458972 1.99283 0
M  V30 6691 H 683.074 -2.86492 2.6077 0
M  V30 6692 H 683.488 -2.25474 4.73563 0
M  V30 6693 H 684.962 -3.8003 4.00351 0
M  V30 6694 H 685.439 -3.73639 2.30848 0
M  V30 6695 H 686.045 -2.50345 3.43813 0
M  V30 6696 N 684.36 -1.4356 -0.65026 0
M  V30 6697 C 685.608 -1.45046 -1.40734 0
M  V30 6698 C 685.929 -0.0769822 -1.94848 0
M  V30 6699 O 685.199 0.888098 -1.74613 0
M  V30 6700 H 683.779 -0.534034 -0.522318 0
M  V30 6701 H 686.441 -1.79186 -0.766703 0
M  V30 6702 H 685.537 -2.16476 -2.24822 0
M  V30 6703 N 685.838 0.888903 -1.30139 0
M  V30 6704 C 686.801 1.97576 -1.16174 0
M  V30 6705 C 687.801 1.60525 -0.094086 0
M  V30 6706 O 688.991 1.70812 -0.341889 0
M  V30 6707 C 686.123 3.3188 -0.778983 0
M  V30 6708 H 687.316 2.11393 -2.12728 0
M  V30 6709 H 684.869 1.0748 -1.1348 0
M  V30 6710 H 685.604 3.23765 0.186225 0
M  V30 6711 H 685.389 3.60141 -1.55051 0
M  V30 6712 H 686.879 4.11612 -0.704631 0
M  V30 6713 N 687.317 1.12792 1.10072 0
M  V30 6714 C 688.247 0.821688 2.18565 0
M  V30 6715 C 689.228 -0.21612 1.68721 0
M  V30 6716 O 690.413 -0.0764932 1.94049 0
M  V30 6717 C 687.543 0.279624 3.46172 0
M  V30 6718 C 686.497 1.25092 4.09312 0
M  V30 6719 C 685.823 0.568916 5.31665 0
M  V30 6720 C 687.123 2.60699 4.52585 0
M  V30 6721 H 688.817 1.72888 2.44438 0
M  V30 6722 H 686.363 0.832702 1.17482 0
M  V30 6723 H 688.316 0.053099 4.21367 0
M  V30 6724 H 687.04 -0.662929 3.19801 0
M  V30 6725 H 685.699 1.46332 3.36129 0
M  V30 6726 H 685.347 -0.378898 5.01571 0
M  V30 6727 H 685.047 1.21687 5.74862 0
M  V30 6728 H 686.571 0.351517 6.09587 0
M  V30 6729 H 687.985 2.43465 5.19035 0
M  V30 6730 H 686.382 3.21608 5.06644 0
M  V30 6731 H 687.452 3.1886 3.65317 0
M  V30 6732 N 688.795 -1.27931 0.920396 0
M  V30 6733 C 690.035 -1.96459 0.564198 0
M  V30 6734 C 690.399 -1.70802 -0.876967 0
M  V30 6735 O 691.6 -2.32956 -1.34107 0
M  V30 6736 C 689.871 -3.46583 0.872641 0
M  V30 6737 S 691.43 -4.34343 0.623859 0
M  V30 6738 H 688.248 -0.679735 0.208523 0
M  V30 6739 H 690.85 -1.55319 1.18727 0
M  V30 6740 H 689.554 -3.62753 1.91933 0
M  V30 6741 H 689.085 -3.92677 0.238479 0
M  V30 6742 H 691.1 -4.93449 -0.521744 0
M  V30 6743 N 690.273 -0.685099 -1.4193 0
M  V30 6744 C 691.205 0.0258679 -2.29185 0
M  V30 6745 C 692.218 0.755076 -1.44231 0
M  V30 6746 O 693.407 0.60752 -1.67844 0
M  V30 6747 C 690.507 1.06055 -3.21878 0
M  V30 6748 C 689.68 0.403088 -4.35539 0
M  V30 6749 C 688.739 1.33895 -5.0888 0
M  V30 6750 O 687.765 0.835326 -5.63037 0
M  V30 6751 N 688.967 2.6718 -5.15359 0
M  V30 6752 H 691.732 -0.723201 -2.90843 0
M  V30 6753 H 689.293 -0.53031 -1.52968 0
M  V30 6754 H 691.285 1.68813 -3.6781 0
M  V30 6755 H 689.855 1.71126 -2.616 0
M  V30 6756 H 689.075 -0.404185 -3.92122 0
M  V30 6757 H 690.363 -0.0545098 -5.08771 0
M  V30 6758 H 689.761 3.10626 -4.72788 0
M  V30 6759 H 688.318 3.25159 -5.64903 0
M  V30 6760 N 691.751 1.51645 -0.429126 0
M  V30 6761 C 692.997 2.02314 0.140286 0
M  V30 6762 C 693.33 1.31314 1.43074 0
M  V30 6763 O 692.605 0.425531 1.89788 0
M  V30 6764 C 692.888 3.5822 0.36749 0
M  V30 6765 C 692.741 4.39846 -0.941039 0
M  V30 6766 C 694.06 4.25055 1.14089 0
M  V30 6767 H 691.179 0.735335 0.0495112 0
M  V30 6768 H 693.821 1.81358 -0.566514 0
M  V30 6769 H 691.971 3.76207 0.969556 0
M  V30 6770 H 693.643 4.33527 -1.57646 0
M  V30 6771 H 691.886 4.05259 -1.54751 0
M  V30 6772 H 692.557 5.47069 -0.73621 0
M  V30 6773 H 695.033 4.11288 0.630986 0
M  V30 6774 H 693.909 5.34038 1.26863 0
M  V30 6775 H 694.17 3.85358 2.16683 0
M  V30 6776 N 693.229 0.160201 1.56784 0
M  V30 6777 C 694.64 -0.358417 1.83227 0
M  V30 6778 C 694.991 -1.63831 1.07952 0
M  V30 6779 O 694.116 -2.13885 0.328995 0
M  V30 6780 C 694.711 -0.657058 3.32368 0
M  V30 6781 C 693.27 -1.12015 3.59346 0
M  V30 6782 C 692.417 -0.15015 2.76893 0
M  V30 6783 H 695.368 0.384669 1.53967 0
M  V30 6784 H 695.389 -1.51033 3.49241 0
M  V30 6785 H 694.901 0.274647 3.87127 0
M  V30 6786 H 693.002 -2.06734 3.09987 0
M  V30 6787 H 693.115 -1.037 4.67743 0
M  V30 6788 H 691.479 -0.645361 2.46388 0
M  V30 6789 H 692.262 0.775379 3.34429 0
M  V30 6790 N 694.707 -1.5719 -0.113559 0
M  V30 6791 C 695.639 -1.97393 -1.16484 0
M  V30 6792 C 696.652 -0.873964 -1.37352 0
M  V30 6793 O 697.841 -1.15222 -1.36331 0
M  V30 6794 C 694.941 -2.26174 -2.52386 0
M  V30 6795 C 694.114 -3.57479 -2.52046 0
M  V30 6796 C 693.173 -3.74409 -3.69735 0
M  V30 6797 O 692.199 -4.46463 -3.53071 0
M  V30 6798 N 693.401 -3.13588 -4.88511 0
M  V30 6799 H 696.166 -2.88184 -0.822814 0
M  V30 6800 H 693.727 -1.59044 -0.302769 0
M  V30 6801 H 695.719 -2.3471 -3.29687 0
M  V30 6802 H 694.289 -1.41483 -2.7875 0
M  V30 6803 H 693.509 -3.60081 -1.60421 0
M  V30 6804 H 694.797 -4.43775 -2.48881 0
M  V30 6805 H 694.195 -2.55026 -5.04953 0
M  V30 6806 H 692.752 -3.27637 -5.63469 0
M  V30 6807 N 696.185 0.383891 -1.52853 0
M  V30 6808 C 697.117 1.48889 -1.74255 0
M  V30 6809 C 698.13 1.50405 -0.623063 0
M  V30 6810 O 699.319 1.54215 -0.898887 0
M  V30 6811 C 696.419 2.87721 -1.79081 0
M  V30 6812 C 695.592 3.10111 -3.08464 0
M  V30 6813 C 694.651 4.28954 -3.0477 0
M  V30 6814 O 693.677 4.25012 -3.78621 0
M  V30 6815 N 694.879 5.35411 -2.24311 0
M  V30 6816 H 697.644 1.30915 -2.69595 0
M  V30 6817 H 695.205 0.573454 -1.51404 0
M  V30 6818 H 697.197 3.65333 -1.7411 0
M  V30 6819 H 695.767 2.99029 -0.911052 0
M  V30 6820 H 694.987 2.20319 -3.26884 0
M  V30 6821 H 696.275 3.21928 -3.94005 0
M  V30 6822 H 695.673 5.41471 -1.63787 0
M  V30 6823 H 694.23 6.1167 -2.25175 0
M  V30 6824 N 697.663 1.43903 0.642637 0
M  V30 6825 C 698.909 1.46296 1.40447 0
M  V30 6826 C 699.242 0.0908361 1.93987 0
M  V30 6827 O 698.517 -0.889884 1.72949 0
M  V30 6828 C 698.8 2.51399 2.57819 0
M  V30 6829 C 698.653 3.97926 2.09702 0
M  V30 6830 C 699.972 2.53125 3.60022 0
M  V30 6831 H 697.091 0.532676 0.509338 0
M  V30 6832 H 699.733 1.75515 0.727635 0
M  V30 6833 H 697.883 2.26614 3.1556 0
M  V30 6834 H 699.555 4.33804 1.5688 0
M  V30 6835 H 697.798 4.10252 1.40982 0
M  V30 6836 H 698.469 4.67096 2.94152 0
M  V30 6837 H 700.945 2.75242 3.12059 0
M  V30 6838 H 699.821 3.28589 4.39682 0
M  V30 6839 H 700.082 1.56895 4.13324 0
M  V30 6840 N 699.141 -0.881989 1.30609 0
M  V30 6841 C 700.381 -1.64817 1.20891 0
M  V30 6842 C 700.745 -1.90593 -0.232043 0
M  V30 6843 O 701.946 -2.64964 -0.452516 0
M  V30 6844 C 700.217 -2.95006 2.01758 0
M  V30 6845 S 701.776 -3.85953 2.08771 0
M  V30 6846 H 698.594 -0.565651 0.430767 0
M  V30 6847 H 701.196 -1.04665 1.65122 0
M  V30 6848 H 699.9 -2.73973 3.0556 0
M  V30 6849 H 699.431 -3.60189 1.582 0
M  V30 6850 H 701.446 -4.81037 1.21727 0
M  V30 6851 N 700.619 -1.13374 -1.09472 0
M  V30 6852 C 701.867 -0.893422 -1.8128 0
M  V30 6853 C 702.188 0.582029 -1.86111 0
M  V30 6854 O 701.458 1.42305 -1.34633 0
M  V30 6855 H 700.038 -0.327543 -0.67136 0
M  V30 6856 H 702.7 -1.43018 -1.32408 0
M  V30 6857 H 701.796 -1.28374 -2.84476 0
M  V30 6858 N 702.098 1.27442 -0.927168 0
M  V30 6859 C 703.008 2.30599 -0.431448 0
M  V30 6860 C 704.024 1.67028 0.48761 0
M  V30 6861 O 705.2 1.97962 0.370546 0
M  V30 6862 C 702.265 3.45327 0.308292 0
M  V30 6863 C 701.326 4.24418 -0.645615 0
M  V30 6864 C 700.559 5.33667 0.0589164 0
M  V30 6865 O 700.782 5.5589 1.27838 0
M  V30 6866 O 699.716 5.98774 -0.612638 0
M  V30 6867 H 703.542 2.75036 -1.28797 0
M  V30 6868 H 701.127 1.32382 -0.692495 0
M  V30 6869 H 703.009 4.15107 0.725555 0
M  V30 6870 H 701.684 3.02945 1.14043 0
M  V30 6871 H 700.591 3.57174 -1.11255 0
M  V30 6872 H 701.924 4.70512 -1.44496 0
M  V30 6873 N 703.576 0.692616 1.41565 0
M  V30 6874 C 704.801 0.229776 2.06123 0
M  V30 6875 C 705.226 -1.11119 1.5177 0
M  V30 6876 O 704.584 -1.69498 0.643444 0
M  V30 6877 C 704.632 0.19469 3.60074 0
M  V30 6878 O 703.736 -0.831366 4.03933 0
M  V30 6879 H 703.077 0.113002 0.654314 0
M  V30 6880 H 705.607 0.946645 1.81383 0
M  V30 6881 H 705.617 0.0245487 4.07993 0
M  V30 6882 H 704.292 1.17339 3.99004 0
M  V30 6883 H 702.869 -0.630819 3.67526 0
M  V30 6884 N 705.054 -1.51416 0.437162 0
M  V30 6885 C 705.984 -2.30631 -0.364922 0
M  V30 6886 C 706.965 -1.36037 -1.02118 0
M  V30 6887 O 708.15 -1.64956 -1.02485 0
M  V30 6888 C 705.28 -3.1482 -1.46648 0
M  V30 6889 C 704.234 -4.17691 -0.933717 0
M  V30 6890 C 703.56 -4.904 -2.13101 0
M  V30 6891 C 704.86 -5.2229 0.0317201 0
M  V30 6892 H 706.554 -2.97932 0.29614 0
M  V30 6893 H 704.1 -1.4328 0.143865 0
M  V30 6894 H 706.053 -3.69017 -2.03481 0
M  V30 6895 H 704.777 -2.4534 -2.15583 0
M  V30 6896 H 703.436 -3.64545 -0.387602 0
M  V30 6897 H 703.084 -4.17423 -2.80654 0
M  V30 6898 H 702.784 -5.59962 -1.78092 0
M  V30 6899 H 704.308 -5.4742 -2.70487 0
M  V30 6900 H 705.722 -5.7156 -0.446302 0
M  V30 6901 H 704.119 -5.99378 0.29437 0
M  V30 6902 H 705.189 -4.75131 0.968447 0
M  V30 6903 N 706.532 -0.168513 -1.56696 0
M  V30 6904 C 707.757 0.486688 -2.01609 0
M  V30 6905 C 708.182 1.56203 -1.04796 0
M  V30 6906 O 707.54 1.8128 -0.0270596 0
M  V30 6907 C 707.588 1.04451 -3.45141 0
M  V30 6908 O 706.692 2.15862 -3.51393 0
M  V30 6909 H 706.033 0.116831 -0.653641 0
M  V30 6910 H 708.563 -0.271579 -2.0279 0
M  V30 6911 H 708.573 1.36782 -3.84389 0
M  V30 6912 H 707.248 0.257155 -4.15104 0
M  V30 6913 H 705.825 1.84597 -3.24004 0
M  V30 6914 N 708.01 1.57248 0.105221 0
M  V30 6915 C 709.258 1.85204 0.808951 0
M  V30 6916 C 709.579 0.75574 1.7976 0
M  V30 6917 O 708.849 -0.218984 1.94672 0
M  V30 6918 H 707.429 0.683346 0.301739 0
M  V30 6919 H 710.091 1.94695 0.0892605 0
M  V30 6920 H 709.187 2.81595 1.34575 0
M  V30 6921 N 709.488 -0.375779 1.53054 0
M  V30 6922 C 710.737 -1.11674 1.67964 0
M  V30 6923 C 711.05 -1.90755 0.432655 0
M  V30 6924 O 712.256 -2.67538 0.462109 0
M  V30 6925 C 710.712 -2.0344 2.96884 0
M  V30 6926 C 710.32 -1.29719 4.28809 0
M  V30 6927 C 712.064 -2.7759 3.2116 0
M  V30 6928 C 709.971 -2.20327 5.48826 0
M  V30 6929 H 708.901 -0.420597 0.625791 0
M  V30 6930 H 711.552 -0.378499 1.79554 0
M  V30 6931 H 709.934 -2.80953 2.79072 0
M  V30 6932 H 711.108 -0.573394 4.57219 0
M  V30 6933 H 709.423 -0.674735 4.10897 0
M  V30 6934 H 712.02 -3.4559 4.0801 0
M  V30 6935 H 712.363 -3.42399 2.36789 0
M  V30 6936 H 712.896 -2.07164 3.396 0
M  V30 6937 H 709.635 -1.60113 6.35645 0
M  V30 6938 H 709.155 -2.90585 5.2471 0
M  V30 6939 H 710.834 -2.80116 5.83219 0
M  V30 6940 N 710.966 -1.44241 -0.634997 0
M  V30 6941 C 711.914 -1.51103 -1.76835 0
M  V30 6942 C 712.908 -0.383051 -1.65012 0
M  V30 6943 O 714.114 -0.557832 -1.71138 0
M  V30 6944 H 710.489 -0.474076 -0.583743 0
M  V30 6945 H 712.46 -2.46499 -1.68169 0
M  V30 6946 C 711.209 -1.4687 -3.15158 0
M  V30 6947 H 710.532 -2.32979 -3.24901 0
M  V30 6948 H 711.972 -1.55731 -3.94365 0
M  V30 6949 C 710.431 -0.188884 -3.3637 0
M  V30 6950 O 710.961 0.742487 -3.94778 0
M  V30 6951 N 709.167 -0.0932516 -2.9045 0
M  V30 6952 H 708.714 -0.852004 -2.43102 0
M  V30 6953 H 708.672 0.762308 -3.05018 0
M  V30 6954 N 712.444 0.87505 -1.31075 0
M  V30 6955 C 713.692 1.62447 -1.20231 0
M  V30 6956 C 714.013 1.93506 0.240888 0
M  V30 6957 O 713.283 1.57847 1.16022 0
M  V30 6958 H 711.863 0.602207 -0.441991 0
M  V30 6959 H 714.525 1.04788 -1.64334 0
M  V30 6960 H 713.621 2.57031 -1.77036 0
M  V30 6961 N 713.922 1.13953 1.08869 0
M  V30 6962 C 715.147 0.928559 1.85452 0
M  V30 6963 C 715.572 -0.517642 1.80837 0
M  V30 6964 O 714.93 -1.36779 1.19001 0
M  V30 6965 C 714.978 1.42814 3.31114 0
M  V30 6966 O 714.082 0.617129 4.07756 0
M  V30 6967 H 713.423 0.33235 0.574839 0
M  V30 6968 H 715.953 1.5156 1.37443 0
M  V30 6969 H 715.963 1.43425 3.8196 0
M  V30 6970 H 714.638 2.48109 3.33788 0
M  V30 6971 H 713.215 0.679365 3.66659 0
M  V30 6972 N 715.4 -1.26948 0.933913 0
M  V30 6973 C 716.647 -1.94087 0.577625 0
M  V30 6974 C 716.975 -1.73345 -0.88214 0
M  V30 6975 O 716.23 -1.05945 -1.64542 0
M  V30 6976 C 716.529 -3.46963 0.857406 0
M  V30 6977 C 716.195 -3.87834 2.2999 0
M  V30 6978 C 714.857 -3.98704 2.69423 0
M  V30 6979 C 717.209 -4.08442 3.23766 0
M  V30 6980 C 714.537 -4.27573 4.01744 0
M  V30 6981 C 716.889 -4.38798 4.55675 0
M  V30 6982 C 715.553 -4.47881 4.94934 0
M  V30 6983 H 714.823 -0.710215 0.211368 0
M  V30 6984 H 717.47 -1.50899 1.17905 0
M  V30 6985 H 715.775 -3.91416 0.173369 0
M  V30 6986 H 717.472 -3.97062 0.560615 0
M  V30 6987 H 714.062 -3.79916 1.98399 0
M  V30 6988 H 718.246 -3.99479 2.94499 0
M  V30 6989 H 713.502 -4.32815 4.31834 0
M  V30 6990 H 717.676 -4.5369 5.28335 0
M  V30 6991 H 715.303 -4.70005 5.97495 0
M  V30 6992 N 716.879 -0.700114 -1.41195 0
M  V30 6993 C 718.104 -0.240704 -2.05998 0
M  V30 6994 C 718.529 1.10313 -1.52357 0
M  V30 6995 O 717.887 1.69154 -0.652424 0
M  V30 6996 C 717.935 -0.213783 -3.59966 0
M  V30 6997 O 717.039 0.809933 -4.04368 0
M  V30 6998 H 716.38 -0.116471 -0.653705 0
M  V30 6999 H 718.91 -0.956251 -1.80878 0
M  V30 7000 H 718.92 -0.0461852 -4.07974 0
M  V30 7001 H 717.595 -1.19454 -3.98376 0
M  V30 7002 H 716.172 0.611319 -3.67855 0
M  V30 7003 N 718.357 1.51182 -0.445186 0
M  V30 7004 C 719.587 2.06269 0.116922 0
M  V30 7005 C 719.995 1.31188 1.36332 0
M  V30 7006 O 719.338 0.367067 1.79995 0
M  V30 7007 C 719.4 3.56051 0.496757 0
M  V30 7008 C 719.064 4.52441 -0.64394 0
M  V30 7009 C 720.061 4.97233 -1.5184 0
M  V30 7010 C 717.746 4.95447 -0.826905 0
M  V30 7011 C 719.74 5.83712 -2.56046 0
M  V30 7012 C 717.427 5.81714 -1.87222 0
M  V30 7013 C 718.425 6.25745 -2.73738 0
M  V30 7014 O 718.113 7.10298 -3.76474 0
M  V30 7015 H 717.845 0.675954 0.00785733 0
M  V30 7016 H 720.399 1.95648 -0.625371 0
M  V30 7017 H 718.629 3.64483 1.29187 0
M  V30 7018 H 720.318 3.93618 0.990928 0
M  V30 7019 H 721.084 4.64696 -1.38862 0
M  V30 7020 H 716.963 4.60712 -0.163052 0
M  V30 7021 H 720.507 6.18 -3.23607 0
M  V30 7022 H 716.404 6.13664 -2.00218 0
M  V30 7023 H 717.172 7.28493 -3.73149 0
M  V30 7024 N 719.835 0.176821 1.56605 0
M  V30 7025 C 721.251 -0.179278 1.5859 0
M  V30 7026 C 721.451 -1.62433 1.19238 0
M  V30 7027 O 720.507 -2.35665 0.906552 0
M  V30 7028 C 721.82 0.106524 3.00511 0
M  V30 7029 C 723.368 0.0451731 3.12967 0
M  V30 7030 C 723.843 0.304038 4.5699 0
M  V30 7031 N 725.334 0.252008 4.62514 0
M  V30 7032 C 726.069 0.426404 5.71812 0
M  V30 7033 N 725.565 0.660155 6.89648 0
M  V30 7034 N 727.358 0.361926 5.60934 0
M  V30 7035 H 719.509 1.12001 1.8047 0
M  V30 7036 H 721.772 0.445679 0.836704 0
M  V30 7037 H 721.478 1.10778 3.33798 0
M  V30 7038 H 721.352 -0.599337 3.72408 0
M  V30 7039 H 723.739 -0.946662 2.79504 0
M  V30 7040 H 723.82 0.78383 2.43495 0
M  V30 7041 H 723.464 1.29311 4.91163 0
M  V30 7042 H 723.394 -0.455294 5.24628 0
M  V30 7043 H 725.885 0.0772102 3.77821 0
M  V30 7044 H 726.198 0.782529 7.68828 0
M  V30 7045 H 724.543 0.696835 6.91498 0
M  V30 7046 H 727.734 0.17986 4.67754 0
M  V30 7047 H 727.907 0.501263 6.46058 0
M  V30 7048 N 721.313 -1.57302 -0.09688 0
M  V30 7049 C 722.538 -1.9058 -0.818169 0
M  V30 7050 C 722.963 -0.770921 -1.71576 0
M  V30 7051 O 722.321 0.277588 -1.79162 0
M  V30 7052 C 722.369 -3.22714 -1.60898 0
M  V30 7053 O 721.473 -3.10178 -2.71779 0
M  V30 7054 H 720.814 -0.624759 -0.224882 0
M  V30 7055 H 723.344 -2.04471 -0.07264 0
M  V30 7056 H 723.354 -3.55978 -1.99358 0
M  V30 7057 H 722.029 -4.04899 -0.950227 0
M  V30 7058 H 720.606 -2.88424 -2.3636 0
M  V30 7059 N 722.791 0.367657 -1.53252 0
M  V30 7060 C 724.202 0.944563 -1.61043 0
M  V30 7061 C 724.553 1.90325 -0.476546 0
M  V30 7062 O 723.678 2.12721 0.397333 0
M  V30 7063 C 724.273 1.71992 -2.91898 0
M  V30 7064 C 722.832 2.2462 -3.02031 0
M  V30 7065 C 721.979 1.05799 -2.56324 0
M  V30 7066 H 724.93 0.146516 -1.58022 0
M  V30 7067 H 724.951 2.58095 -2.79584 0
M  V30 7068 H 724.463 1.02192 -3.74404 0
M  V30 7069 H 722.564 2.97668 -2.24108 0
M  V30 7070 H 722.677 2.52644 -4.07073 0
M  V30 7071 H 721.041 1.42435 -2.1115 0
M  V30 7072 H 721.824 0.375008 -3.41246 0
M  V30 7073 N 724.269 1.44576 0.627338 0
M  V30 7074 C 725.546 1.38033 1.38586 0
M  V30 7075 C 725.926 0.0409468 2.1106 0
M  V30 7076 O 725.274 -0.976582 2.0658 0
M  V30 7077 C 725.484 2.58102 2.34913 0
M  V30 7078 C 726.832 3.02332 2.98129 0
M  V30 7079 O 727.856 2.58334 2.45238 0
M  V30 7080 O 726.715 3.78628 3.94085 0
M  V30 7081 H 723.809 0.546801 0.620434 0
M  V30 7082 H 726.355 1.56672 0.652077 0
M  V30 7083 H 725.127 3.4719 1.80485 0
M  V30 7084 H 724.75 2.41696 3.15703 0
M  V30 7085 N 725.747 -0.868086 1.31537 0
M  V30 7086 C 726.993 -1.62367 1.2151 0
M  V30 7087 C 727.326 -1.92883 -0.225819 0
M  V30 7088 O 726.601 -1.56176 -1.15927 0
M  V30 7089 C 726.884 -2.95268 2.06129 0
M  V30 7090 C 726.737 -2.71619 3.58529 0
M  V30 7091 C 728.056 -3.96391 1.91212 0
M  V30 7092 H 725.175 -0.589178 0.442762 0
M  V30 7093 H 727.817 -1.00336 1.61347 0
M  V30 7094 H 725.967 -3.4821 1.72284 0
M  V30 7095 H 727.639 -2.25334 4.0252 0
M  V30 7096 H 725.882 -2.05817 3.81866 0
M  V30 7097 H 726.553 -3.66192 4.13047 0
M  V30 7098 H 729.029 -3.52663 2.20834 0
M  V30 7099 H 727.905 -4.87263 2.52718 0
M  V30 7100 H 728.166 -4.33335 0.875953 0
M  V30 7101 N 727.225 -1.14528 -1.08264 0
M  V30 7102 C 728.473 -0.912599 -1.80322 0
M  V30 7103 C 728.794 0.562256 -1.86718 0
M  V30 7104 O 728.064 1.40869 -1.36135 0
M  V30 7105 H 726.644 -0.334645 -0.667849 0
M  V30 7106 H 729.306 -1.44415 -1.30883 0
M  V30 7107 H 728.402 -1.31384 -2.83098 0
M  V30 7108 N 728.703 1.26451 -0.940633 0
M  V30 7109 C 729.933 1.97581 -0.603766 0
M  V30 7110 C 730.341 1.70246 0.825395 0
M  V30 7111 O 729.684 0.967001 1.56188 0
M  V30 7112 C 729.746 3.51256 -0.765463 0
M  V30 7113 C 729.41 4.0224 -2.16915 0
M  V30 7114 C 730.407 4.1402 -3.14457 0
M  V30 7115 C 728.092 4.36263 -2.48958 0
M  V30 7116 C 730.086 4.59117 -4.42143 0
M  V30 7117 C 727.773 4.81048 -3.76877 0
M  V30 7118 C 728.771 4.92436 -4.73282 0
M  V30 7119 O 728.459 5.36234 -5.98923 0
M  V30 7120 H 728.191 0.636948 -0.226436 0
M  V30 7121 H 730.745 1.61941 -1.2635 0
M  V30 7122 H 728.975 3.86669 -0.0485956 0
M  V30 7123 H 730.664 4.03597 -0.431738 0
M  V30 7124 H 731.43 3.87981 -2.91026 0
M  V30 7125 H 727.309 4.26634 -1.74656 0
M  V30 7126 H 730.853 4.6792 -5.17394 0
M  V30 7127 H 726.75 5.06531 -4.00121 0
M  V30 7128 H 727.518 5.54456 -6.02097 0
M  V30 7129 N 730.181 0.707592 1.40822 0
M  V30 7130 C 731.427 0.244031 2.01326 0
M  V30 7131 C 731.76 -1.15722 1.55955 0
M  V30 7132 O 731.035 -1.78347 0.776044 0
M  V30 7133 C 731.318 0.315128 3.58718 0
M  V30 7134 C 731.171 1.75419 4.14184 0
M  V30 7135 C 732.49 -0.318251 4.38948 0
M  V30 7136 H 729.609 0.0901471 0.731466 0
M  V30 7137 H 732.251 0.898584 1.67408 0
M  V30 7138 H 730.401 -0.242176 3.87744 0
M  V30 7139 H 732.073 2.36626 3.95987 0
M  V30 7140 H 730.316 2.28449 3.68773 0
M  V30 7141 H 730.987 1.75538 5.23345 0
M  V30 7142 H 733.463 0.156514 4.15806 0
M  V30 7143 H 732.339 -0.238019 5.48384 0
M  V30 7144 H 732.6 -1.40067 4.19325 0
M  V30 7145 N 731.66 -1.50943 0.453197 0
M  V30 7146 C 732.61 -2.25003 -0.368467 0
M  V30 7147 C 733.594 -1.27864 -0.976714 0
M  V30 7148 O 734.786 -1.52867 -0.892228 0
M  V30 7149 C 731.915 -3.10701 -1.46014 0
M  V30 7150 C 731.001 -4.15278 -0.860506 0
M  V30 7151 N 731.392 -5.05799 0.00849611 0
M  V30 7152 C 729.69 -4.31542 -1.1264 0
M  V30 7153 C 730.391 -5.80664 0.346951 0
M  V30 7154 N 729.367 -5.42912 -0.273426 0
M  V30 7155 H 733.169 -2.92352 0.301246 0
M  V30 7156 H 730.683 -1.60203 0.266233 0
M  V30 7157 H 732.68 -3.62348 -2.06179 0
M  V30 7158 H 731.34 -2.44898 -2.13202 0
M  V30 7159 H 732.351 -5.16533 0.376077 0
M  V30 7160 H 729.028 -3.76962 -1.7946 0
M  V30 7161 H 730.418 -6.63565 1.05507 0
M  V30 7162 N 733.138 -0.185124 -1.56509 0
M  V30 7163 C 734.415 0.503348 -1.89013 0
M  V30 7164 C 734.795 1.80349 -1.09715 0
M  V30 7165 O 734.143 2.27665 -0.195203 0
M  V30 7166 C 734.353 0.731839 -3.41241 0
M  V30 7167 C 735.701 1.05568 -4.11267 0
M  V30 7168 O 736.725 0.819906 -3.46635 0
M  V30 7169 O 735.584 1.50116 -5.25478 0
M  V30 7170 H 732.678 0.261139 -0.784688 0
M  V30 7171 H 735.224 -0.224592 -1.68207 0
M  V30 7172 H 733.996 -0.18672 -3.90854 0
M  V30 7173 H 733.619 1.5126 -3.67704 0
M  V30 7174 N 734.616 1.57351 0.0885366 0
M  V30 7175 C 735.862 1.86696 0.791996 0
M  V30 7176 C 736.195 0.775148 1.78059 0
M  V30 7177 O 735.47 -0.216247 1.93294 0
M  V30 7178 C 735.753 3.26684 1.51491 0
M  V30 7179 C 735.606 4.465 0.543858 0
M  V30 7180 C 736.925 3.64664 2.46391 0
M  V30 7181 H 734.044 0.679049 0.286463 0
M  V30 7182 H 736.686 1.89919 0.0554866 0
M  V30 7183 H 734.836 3.24067 2.14273 0
M  V30 7184 H 736.508 4.61235 -0.0774597 0
M  V30 7185 H 734.751 4.33567 -0.142228 0
M  V30 7186 H 735.422 5.41192 1.08696 0
M  V30 7187 H 737.898 3.68267 1.93698 0
M  V30 7188 H 736.774 4.63534 2.93986 0
M  V30 7189 H 737.035 2.93698 3.30445 0
M  V30 7190 N 736.094 -0.359525 1.53444 0
M  V30 7191 C 737.042 -1.46104 1.80987 0
M  V30 7192 C 738.036 -1.55181 0.679351 0
M  V30 7193 O 739.242 -1.57995 0.862405 0
M  V30 7194 H 735.617 -0.486835 0.573145 0
M  V30 7195 H 737.588 -1.2008 2.73173 0
M  V30 7196 C 736.337 -2.82855 2.02208 0
M  V30 7197 H 735.66 -2.76631 2.88644 0
M  V30 7198 H 737.1 -3.59091 2.25455 0
M  V30 7199 C 735.559 -3.27192 0.802931 0
M  V30 7200 O 736.089 -4.017 -0.00544286 0
M  V30 7201 N 734.295 -2.83807 0.624657 0
M  V30 7202 H 733.842 -2.23339 1.28364 0
M  V30 7203 H 733.8 -3.13828 -0.189641 0
M  V30 7204 N 737.572 -1.44907 -0.619662 0
M  V30 7205 C 738.812 -1.49822 -1.39042 0
M  V30 7206 C 739.176 -0.131803 -1.91547 0
M  V30 7207 O 740.377 -0.0556413 -2.68742 0
M  V30 7208 C 738.648 -2.53805 -2.5163 0
M  V30 7209 S 740.207 -2.77855 -3.3962 0
M  V30 7210 H 737.025 -0.529774 -0.474195 0
M  V30 7211 H 739.627 -1.81907 -0.716236 0
M  V30 7212 H 738.331 -3.51772 -2.11387 0
M  V30 7213 H 737.862 -2.23331 -3.23863 0
M  V30 7214 H 739.877 -2.10319 -4.49422 0
M  V30 7215 N 739.05 0.861098 -1.31996 0
M  V30 7216 C 740.297 1.61481 -1.22188 0
M  V30 7217 C 740.625 1.93276 0.217853 0
M  V30 7218 O 739.88 1.56942 1.16909 0
M  V30 7219 C 740.179 2.94822 -2.02027 0
M  V30 7220 C 739.845 2.82483 -3.51446 0
M  V30 7221 C 738.507 2.78825 -3.92186 0
M  V30 7222 C 740.859 2.68878 -4.46491 0
M  V30 7223 C 738.187 2.59433 -5.26224 0
M  V30 7224 C 740.539 2.51022 -5.80664 0
M  V30 7225 C 739.203 2.45753 -6.20614 0
M  V30 7226 H 738.473 0.590902 -0.447119 0
M  V30 7227 H 741.12 0.999376 -1.63355 0
M  V30 7228 H 739.425 3.6045 -1.53569 0
M  V30 7229 H 741.122 3.52149 -1.91812 0
M  V30 7230 H 737.712 2.86152 -3.19085 0
M  V30 7231 H 741.896 2.70754 -4.1594 0
M  V30 7232 H 737.152 2.53784 -5.5624 0
M  V30 7233 H 741.326 2.39473 -6.53931 0
M  V30 7234 H 738.953 2.30485 -7.24417 0
M  V30 7235 N 740.528 1.15101 1.07655 0
M  V30 7236 C 741.774 0.935313 1.8062 0
M  V30 7237 C 742.129 -0.532052 1.84897 0
M  V30 7238 O 741.422 -1.3893 1.31943 0
M  V30 7239 C 741.616 1.47954 3.25337 0
M  V30 7240 C 741.445 2.99829 3.35161 0
M  V30 7241 C 740.215 3.68348 3.45902 0
M  V30 7242 C 742.413 3.97638 3.26173 0
M  V30 7243 N 740.395 5.08062 3.44596 0
M  V30 7244 C 741.766 5.23651 3.31949 0
M  V30 7245 C 743.821 3.89651 3.09962 0
M  V30 7246 C 742.524 6.42609 3.23182 0
M  V30 7247 C 744.55 5.08164 3.02528 0
M  V30 7248 C 743.912 6.3305 3.08913 0
M  V30 7249 H 740.011 0.395876 0.674393 0
M  V30 7250 H 742.595 1.4625 1.28526 0
M  V30 7251 H 740.766 0.979022 3.75859 0
M  V30 7252 H 742.498 1.20298 3.86407 0
M  V30 7253 H 739.253 3.18928 3.50117 0
M  V30 7254 H 739.677 5.81023 3.47479 0
M  V30 7255 H 744.319 2.93966 3.03881 0
M  V30 7256 H 742.037 7.38531 3.28022 0
M  V30 7257 H 745.623 5.03742 2.91093 0
M  V30 7258 H 744.503 7.23214 3.03201 0
M  V30 7259 N 742.006 -1.2595 0.947325 0
M  V30 7260 C 743.252 -1.9375 0.599064 0
M  V30 7261 C 743.585 -1.74088 -0.860632 0
M  V30 7262 O 742.86 -1.08158 -1.61654 0
M  V30 7263 C 743.143 -3.47353 0.949634 0
M  V30 7264 C 742.996 -3.76273 2.46452 0
M  V30 7265 C 744.315 -4.37589 0.469442 0
M  V30 7266 H 741.434 -0.703674 0.219115 0
M  V30 7267 H 744.076 -1.48705 1.18266 0
M  V30 7268 H 742.226 -3.8585 0.453008 0
M  V30 7269 H 743.898 -3.47455 3.03435 0
M  V30 7270 H 742.141 -3.22135 2.90537 0
M  V30 7271 H 742.812 -4.83664 2.66032 0
M  V30 7272 H 745.288 -4.06353 0.89534 0
M  V30 7273 H 744.164 -5.43841 0.7435 0
M  V30 7274 H 744.425 -4.37579 -0.630618 0
M  V30 7275 N 743.484 -0.715051 -1.40445 0
M  V30 7276 C 744.733 -0.251322 -2.00128 0
M  V30 7277 C 745.046 1.16194 -1.57347 0
M  V30 7278 O 746.252 1.72416 -2.09726 0
M  V30 7279 C 744.708 -0.398407 -3.57688 0
M  V30 7280 C 744.316 -1.81828 -4.09442 0
M  V30 7281 C 746.06 0.00455625 -4.245 0
M  V30 7282 C 743.967 -1.91598 -5.59503 0
M  V30 7283 H 742.897 -0.0902081 -0.748584 0
M  V30 7284 H 745.548 -0.886062 -1.6069 0
M  V30 7285 H 743.93 0.304908 -3.94824 0
M  V30 7286 H 745.104 -2.55193 -3.83684 0
M  V30 7287 H 743.419 -2.17266 -3.55225 0
M  V30 7288 H 746.016 -0.0477303 -5.34679 0
M  V30 7289 H 746.359 1.04636 -4.02935 0
M  V30 7290 H 746.892 -0.649184 -3.92467 0
M  V30 7291 H 743.631 -2.93898 -5.85922 0
M  V30 7292 H 743.151 -1.22644 -5.87127 0
M  V30 7293 H 744.83 -1.68785 -6.24596 0
M  V30 7294 N 744.962 1.50701 -0.461195 0
M  V30 7295 C 745.909 2.2831 0.338094 0
M  V30 7296 C 746.879 1.32928 0.995957 0
M  V30 7297 O 748.064 1.61857 1.0103 0
M  V30 7298 C 745.204 3.14539 1.41983 0
M  V30 7299 C 744.317 4.24942 0.77773 0
M  V30 7300 C 743.452 4.98443 1.83652 0
M  V30 7301 C 742.491 6.00733 1.17413 0
M  V30 7302 N 741.628 6.6755 2.17533 0
M  V30 7303 H 746.468 2.96167 -0.330051 0
M  V30 7304 H 744.005 1.4606 -0.174611 0
M  V30 7305 H 745.963 3.62877 2.05855 0
M  V30 7306 H 744.593 2.48749 2.05727 0
M  V30 7307 H 743.645 3.80391 0.0266924 0
M  V30 7308 H 744.957 4.98151 0.254362 0
M  V30 7309 H 744.111 5.50449 2.55129 0
M  V30 7310 H 742.85 4.24917 2.39367 0
M  V30 7311 H 741.855 5.47997 0.444944 0
M  V30 7312 H 743.08 6.76227 0.624006 0
M  V30 7313 H 741.026 5.96823 2.72284 0
M  V30 7314 H 740.943 7.36603 1.70154 0
M  V30 7315 H 742.211 7.24178 2.88421 0
M  V30 7316 N 746.441 0.193421 1.56409 0
M  V30 7317 C 747.669 -0.451438 2.01915 0
M  V30 7318 C 748.084 -1.55306 1.07357 0
M  V30 7319 O 747.441 -1.82333 0.0781512 0
M  V30 7320 C 747.492 -1.00931 3.47124 0
M  V30 7321 O 747.213 0.0483623 4.38073 0
M  V30 7322 C 748.714 -1.73021 4.0814 0
M  V30 7323 H 745.934 -0.113495 0.661332 0
M  V30 7324 H 748.478 0.301636 2.02263 0
M  V30 7325 H 746.633 -1.71277 3.47481 0
M  V30 7326 H 747.047 -0.366644 5.23217 0
M  V30 7327 H 748.521 -2.07289 5.11601 0
M  V30 7328 H 748.998 -2.6333 3.51502 0
M  V30 7329 H 749.604 -1.07264 4.11551 0
M  V30 7330 N 747.919 -1.57396 -0.0801906 0
M  V30 7331 C 748.829 -2.06451 -1.11423 0
M  V30 7332 C 749.845 -0.992352 -1.42928 0
M  V30 7333 O 751.021 -1.30651 -1.53272 0
M  V30 7334 C 748.086 -2.49164 -2.41077 0
M  V30 7335 C 747.147 -3.70641 -2.16619 0
M  V30 7336 C 746.38 -4.11307 -3.40092 0
M  V30 7337 O 746.603 -3.51922 -4.48895 0
M  V30 7338 O 745.537 -5.04157 -3.288 0
M  V30 7339 H 749.363 -2.94857 -0.727519 0
M  V30 7340 H 746.948 -1.46484 -0.293743 0
M  V30 7341 H 748.83 -2.77196 -3.17396 0
M  V30 7342 H 747.505 -1.6389 -2.79145 0
M  V30 7343 H 746.412 -3.47703 -1.38033 0
M  V30 7344 H 747.745 -4.5674 -1.83437 0
M  V30 7345 N 749.397 0.351382 -1.53633 0
M  V30 7346 C 750.33 1.45407 -1.75875 0
M  V30 7347 C 751.308 1.50822 -0.607566 0
M  V30 7348 O 752.492 1.68658 -0.841818 0
M  V30 7349 C 749.619 2.8369 -1.85034 0
M  V30 7350 C 748.665 2.95935 -3.07123 0
M  V30 7351 S 749.498 2.63215 -4.66345 0
M  V30 7352 C 750.654 4.03622 -4.78373 0
M  V30 7353 H 750.887 1.26322 -2.69128 0
M  V30 7354 H 748.42 0.546581 -1.44402 0
M  V30 7355 H 750.378 3.6336 -1.90996 0
M  V30 7356 H 749.039 3.00076 -0.928074 0
M  V30 7357 H 748.232 3.97243 -3.10183 0
M  V30 7358 H 747.834 2.24205 -2.99346 0
M  V30 7359 H 750.126 4.98046 -4.593 0
M  V30 7360 H 751.069 4.05559 -5.80454 0
M  V30 7361 H 751.477 3.91282 -4.06889 0
M  V30 7362 N 750.875 1.45233 0.611969 0
M  V30 7363 C 752.123 1.48727 1.36838 0
M  V30 7364 C 752.444 0.128616 1.94575 0
M  V30 7365 O 751.714 -0.84149 1.76906 0
M  V30 7366 H 750.294 0.547695 0.507976 0
M  V30 7367 H 752.956 1.81156 0.718925 0
M  V30 7368 H 752.052 2.2236 2.19003 0
M  V30 7369 N 752.353 -0.854086 1.3245 0
M  V30 7370 C 753.3 -1.96271 1.21434 0
M  V30 7371 C 754.27 -1.6582 0.0963851 0
M  V30 7372 O 755.455 -1.88851 0.27203 0
M  V30 7373 C 752.595 -3.31939 0.943952 0
M  V30 7374 C 751.708 -3.74885 2.14675 0
M  V30 7375 C 750.843 -4.99347 1.81179 0
M  V30 7376 C 749.882 -5.34785 2.97777 0
M  V30 7377 N 749.019 -6.50425 2.6437 0
M  V30 7378 H 753.859 -2.05025 2.16261 0
M  V30 7379 H 751.396 -1.00348 1.07558 0
M  V30 7380 H 753.354 -4.10076 0.767675 0
M  V30 7381 H 751.984 -3.22784 0.0324763 0
M  V30 7382 H 751.036 -2.92396 2.43328 0
M  V30 7383 H 752.348 -3.97068 3.01891 0
M  V30 7384 H 751.502 -5.85193 1.60107 0
M  V30 7385 H 750.241 -4.79101 0.911777 0
M  V30 7386 H 749.246 -4.47451 3.1948 0
M  V30 7387 H 750.471 -5.56988 3.88511 0
M  V30 7388 H 748.417 -6.31695 1.7691 0
M  V30 7389 H 748.334 -6.7263 3.45116 0
M  V30 7390 H 749.602 -7.39422 2.46729 0
M  V30 7391 N 753.831 -1.1567 -1.07043 0
M  V30 7392 C 755.077 -0.9349 -1.79965 0
M  V30 7393 C 755.41 0.536464 -1.86643 0
M  V30 7394 O 754.685 1.39781 -1.35247 0
M  V30 7395 C 754.968 -1.55371 -3.24857 0
M  V30 7396 C 754.821 -3.09589 -3.26305 0
M  V30 7397 C 756.14 -1.24209 -4.22209 0
M  V30 7398 H 753.259 -0.341061 -0.653335 0
M  V30 7399 H 755.901 -1.42883 -1.25237 0
M  V30 7400 H 754.051 -1.13368 -3.71591 0
M  V30 7401 H 755.723 -3.60521 -2.87789 0
M  V30 7402 H 753.966 -3.43315 -2.65174 0
M  V30 7403 H 754.637 -3.48002 -4.28484 0
M  V30 7404 H 757.113 -1.60548 -3.8388 0
M  V30 7405 H 755.989 -1.70119 -5.21872 0
M  V30 7406 H 756.25 -0.15964 -4.41812 0
M  V30 7407 N 755.309 1.25446 -0.953992 0
M  V30 7408 C 756.239 2.28264 -0.491717 0
M  V30 7409 C 757.22 1.63717 0.461617 0
M  V30 7410 O 758.405 1.90821 0.36071 0
M  V30 7411 C 755.535 3.46525 0.231915 0
M  V30 7412 C 754.489 4.23247 -0.636098 0
M  V30 7413 C 753.815 5.34254 0.218238 0
M  V30 7414 C 755.115 4.85971 -1.91389 0
M  V30 7415 H 756.809 2.67183 -1.35106 0
M  V30 7416 H 754.355 1.2844 -0.651095 0
M  V30 7417 H 756.308 4.17576 0.566439 0
M  V30 7418 H 755.032 3.06594 1.12551 0
M  V30 7419 H 753.691 3.53978 -0.953696 0
M  V30 7420 H 753.339 4.90564 1.11156 0
M  V30 7421 H 753.039 5.86501 -0.359232 0
M  V30 7422 H 754.563 6.08138 0.547743 0
M  V30 7423 H 755.977 5.49168 -1.64581 0
M  V30 7424 H 754.374 5.48391 -2.43696 0
M  V30 7425 H 755.444 4.08192 -2.61738 0
M  V30 7426 N 756.787 0.722489 1.40064 0
M  V30 7427 C 758.203 0.396758 1.5459 0
M  V30 7428 C 758.403 -1.09375 1.69232 0
M  V30 7429 O 757.459 -1.87984 1.68578 0
M  V30 7430 C 758.772 1.16885 2.77053 0
M  V30 7431 C 760.32 1.15583 2.90877 0
M  V30 7432 C 760.795 1.91023 4.16262 0
M  V30 7433 N 762.286 1.88126 4.23276 0
M  V30 7434 C 763.021 2.43315 5.19216 0
M  V30 7435 N 762.517 3.07089 6.21022 0
M  V30 7436 N 764.31 2.33418 5.11344 0
M  V30 7437 H 756.461 1.68887 1.28806 0
M  V30 7438 H 758.724 0.714231 0.62336 0
M  V30 7439 H 758.43 2.22301 2.72534 0
M  V30 7440 H 758.304 0.765011 3.69361 0
M  V30 7441 H 760.691 0.10984 2.94896 0
M  V30 7442 H 760.772 1.59895 1.99668 0
M  V30 7443 H 760.416 2.95616 4.13006 0
M  V30 7444 H 760.346 1.44126 5.06493 0
M  V30 7445 H 762.837 1.41654 3.50346 0
M  V30 7446 H 763.15 3.467 6.90666 0
M  V30 7447 H 761.495 3.11175 6.21446 0
M  V30 7448 H 764.686 1.83248 4.30741 0
M  V30 7449 H 764.859 2.7673 5.85939 0
M  V30 7450 N 758.265 -1.50454 0.469181 0
M  V30 7451 C 759.514 -2.01507 -0.0881425 0
M  V30 7452 C 759.827 -1.35613 -1.40956 0
M  V30 7453 O 761.033 -1.77812 -2.05171 0
M  V30 7454 C 759.489 -3.59301 -0.207596 0
M  V30 7455 C 759.097 -4.34152 1.10527 0
M  V30 7456 C 760.841 -4.18401 -0.716981 0
M  V30 7457 C 758.748 -5.83725 0.949717 0
M  V30 7458 H 757.678 -0.753106 -0.0367156 0
M  V30 7459 H 760.329 -1.73282 0.603788 0
M  V30 7460 H 758.711 -3.84106 -0.963265 0
M  V30 7461 H 759.885 -4.21073 1.87175 0
M  V30 7462 H 758.2 -3.86652 1.54562 0
M  V30 7463 H 760.797 -5.27895 -0.850363 0
M  V30 7464 H 761.14 -3.79657 -1.70782 0
M  V30 7465 H 761.673 -3.97796 -0.0187511 0
M  V30 7466 H 758.412 -6.26938 1.91387 0
M  V30 7467 H 757.932 -5.99383 0.223591 0
M  V30 7468 H 759.611 -6.44065 0.61557 0
M  V30 7469 N 759.743 -0.201713 -1.56304 0
M  V30 7470 C 760.971 0.440723 -2.02152 0
M  V30 7471 C 761.386 1.54735 -1.08179 0
M  V30 7472 O 760.743 1.82289 -0.0878196 0
M  V30 7473 C 760.794 0.990884 -3.47655 0
M  V30 7474 O 760.515 -0.0715937 -4.38041 0
M  V30 7475 C 762.016 1.70854 -4.09052 0
M  V30 7476 H 759.236 0.109987 -0.661924 0
M  V30 7477 H 761.78 -0.312358 -2.021 0
M  V30 7478 H 759.935 1.69432 -3.48384 0
M  V30 7479 H 760.349 0.338892 -5.23404 0
M  V30 7480 H 761.823 2.04572 -5.12693 0
M  V30 7481 H 762.3 2.61462 -3.52894 0
M  V30 7482 H 762.906 1.0508 -4.12114 0
M  V30 7483 N 761.222 1.57436 0.0718424 0
M  V30 7484 C 762.469 1.87248 0.771007 0
M  V30 7485 C 762.797 0.793441 1.7758 0
M  V30 7486 O 762.052 -0.210565 1.94564 0
M  V30 7487 C 762.351 3.23723 1.51455 0
M  V30 7488 C 762.017 4.46194 0.649736 0
M  V30 7489 C 760.679 4.79438 0.411409 0
M  V30 7490 C 763.031 5.21176 0.05004 0
M  V30 7491 C 760.359 5.85077 -0.436096 0
M  V30 7492 C 762.711 6.27712 -0.784919 0
M  V30 7493 C 761.375 6.59457 -1.03312 0
M  V30 7494 H 760.645 0.685188 0.282132 0
M  V30 7495 H 763.292 1.91474 0.0317896 0
M  V30 7496 H 761.597 3.15287 2.32597 0
M  V30 7497 H 763.294 3.44023 2.06031 0
M  V30 7498 H 759.884 4.20175 0.84562 0
M  V30 7499 H 764.068 4.95806 0.221282 0
M  V30 7500 H 759.324 6.08071 -0.637136 0
M  V30 7501 H 763.498 6.84974 -1.25635 0
M  V30 7502 H 761.125 7.4114 -1.6916 0
M  V30 7503 N 762.7 -0.34323 1.53817 0
M  V30 7504 C 763.928 -1.10348 1.75017 0
M  V30 7505 C 764.343 -1.82345 0.489475 0
M  V30 7506 O 763.7 -1.74362 -0.538886 0
M  V30 7507 C 763.751 -2.11672 2.93048 0
M  V30 7508 O 763.472 -1.42603 4.14241 0
M  V30 7509 C 764.973 -3.0007 3.26301 0
M  V30 7510 H 762.193 -0.329056 0.584776 0
M  V30 7511 H 764.737 -0.395339 2.00642 0
M  V30 7512 H 762.892 -2.78051 2.69753 0
M  V30 7513 H 763.306 -2.10294 4.80496 0
M  V30 7514 H 764.78 -3.67101 4.12239 0
M  V30 7515 H 765.257 -3.66105 2.42618 0
M  V30 7516 H 765.863 -2.3928 3.51604 0
M  V30 7517 N 764.178 -1.45556 -0.604258 0
M  V30 7518 C 765.425 -1.49746 -1.36317 0
M  V30 7519 C 765.753 -0.140516 -1.93992 0
M  V30 7520 O 765.008 0.861244 -1.7573 0
M  V30 7521 C 765.307 -2.52697 -2.52743 0
M  V30 7522 C 764.973 -3.97315 -2.13195 0
M  V30 7523 C 763.635 -4.36692 -2.02123 0
M  V30 7524 C 765.987 -4.88249 -1.8238 0
M  V30 7525 C 763.315 -5.64895 -1.58463 0
M  V30 7526 C 765.667 -6.16867 -1.40205 0
M  V30 7527 C 764.331 -6.55172 -1.27694 0
M  V30 7528 H 763.601 -0.54796 -0.49882 0
M  V30 7529 H 766.248 -1.7892 -0.682643 0
M  V30 7530 H 764.553 -2.17105 -3.26148 0
M  V30 7531 H 766.25 -2.53176 -3.10971 0
M  V30 7532 H 762.84 -3.66176 -2.22739 0
M  V30 7533 H 767.024 -4.58561 -1.89829 0
M  V30 7534 H 762.28 -5.93365 -1.47402 0
M  V30 7535 H 766.454 -6.86771 -1.15408 0
M  V30 7536 H 764.081 -7.54411 -0.936375 0
M  V30 7537 N 765.656 0.84705 -1.32902 0
M  V30 7538 C 766.903 1.60176 -1.23894 0
M  V30 7539 C 767.231 1.93496 0.197341 0
M  V30 7540 O 766.486 1.58173 1.15238 0
M  V30 7541 C 766.785 2.92663 -2.05142 0
M  V30 7542 C 766.451 2.7874 -3.54422 0
M  V30 7543 C 765.113 2.7465 -3.95121 0
M  V30 7544 C 767.465 2.64128 -4.49317 0
M  V30 7545 C 764.793 2.53837 -5.28946 0
M  V30 7546 C 767.145 2.44849 -5.83294 0
M  V30 7547 C 765.809 2.39156 -6.23186 0
M  V30 7548 H 765.079 0.586127 -0.453361 0
M  V30 7549 H 767.726 0.981994 -1.64405 0
M  V30 7550 H 766.031 3.588 -1.57383 0
M  V30 7551 H 767.728 3.50095 -1.95537 0
M  V30 7552 H 764.318 2.82751 -3.22102 0
M  V30 7553 H 768.502 2.66327 -4.18788 0
M  V30 7554 H 763.758 2.4787 -5.58901 0
M  V30 7555 H 767.932 2.32524 -6.56434 0
M  V30 7556 H 765.559 2.22789 -7.26821 0
M  V30 7557 N 767.134 1.16236 1.06428 0
M  V30 7558 C 768.55 0.906983 1.31324 0
M  V30 7559 C 768.75 -0.440872 1.96618 0
M  V30 7560 O 767.806 -1.1807 2.23194 0
M  V30 7561 C 769.119 2.05501 2.19522 0
M  V30 7562 C 770.667 2.09061 2.32943 0
M  V30 7563 C 771.142 3.23214 3.24495 0
M  V30 7564 N 772.633 3.22922 3.32078 0
M  V30 7565 C 773.368 4.07889 4.03006 0
M  V30 7566 N 772.864 5.02941 4.76469 0
M  V30 7567 N 774.657 3.95881 3.99043 0
M  V30 7568 H 766.808 2.03015 0.624388 0
M  V30 7569 H 769.071 0.88576 0.337835 0
M  V30 7570 H 768.777 3.02847 1.78819 0
M  V30 7571 H 768.651 1.99538 3.201 0
M  V30 7572 H 771.038 1.12308 2.72893 0
M  V30 7573 H 771.119 2.19089 1.32037 0
M  V30 7574 H 770.763 4.20225 2.85261 0
M  V30 7575 H 770.693 3.10423 4.25377 0
M  V30 7576 H 773.184 2.54093 2.79724 0
M  V30 7577 H 773.497 5.64196 5.28112 0
M  V30 7578 H 771.842 5.06922 4.75453 0
M  V30 7579 H 775.033 3.20927 3.40769 0
M  V30 7580 H 775.206 4.62321 4.54052 0
M  V30 7581 N 768.612 -1.24939 0.960631 0
M  V30 7582 C 769.542 -2.28 0.503815 0
M  V30 7583 C 770.523 -1.63959 -0.452928 0
M  V30 7584 O 771.708 -1.91009 -0.350585 0
M  V30 7585 C 768.838 -3.46643 -0.213535 0
M  V30 7586 C 767.792 -4.22903 0.658535 0
M  V30 7587 C 767.118 -5.34363 -0.189902 0
M  V30 7588 C 768.418 -4.84949 1.93963 0
M  V30 7589 H 770.112 -2.66462 1.36521 0
M  V30 7590 H 767.658 -1.28093 0.657897 0
M  V30 7591 H 769.611 -4.1787 -0.544286 0
M  V30 7592 H 768.335 -3.07187 -1.10923 0
M  V30 7593 H 766.994 -3.53467 0.972455 0
M  V30 7594 H 766.642 -4.91147 -1.08553 0
M  V30 7595 H 766.342 -5.86302 0.390331 0
M  V30 7596 H 767.866 -6.0842 -0.515484 0
M  V30 7597 H 769.28 -5.48288 1.67491 0
M  V30 7598 H 767.677 -5.47091 2.46601 0
M  V30 7599 H 768.747 -4.06799 2.639 0
M  V30 7600 N 770.09 -0.729906 -1.39679 0
M  V30 7601 C 771 -0.0880322 -2.34435 0
M  V30 7602 C 772.016 0.727674 -1.58053 0
M  V30 7603 O 773.192 0.657321 -1.90371 0
M  V30 7604 C 770.257 0.812211 -3.37052 0
M  V30 7605 C 769.318 -0.0151681 -4.29297 0
M  V30 7606 C 768.551 0.842202 -5.27013 0
M  V30 7607 O 768.774 2.08108 -5.31081 0
M  V30 7608 O 767.708 0.27357 -6.01278 0
M  V30 7609 H 771.534 -0.869989 -2.90972 0
M  V30 7610 H 769.119 -0.490522 -1.41118 0
M  V30 7611 H 771.001 1.32745 -3.99946 0
M  V30 7612 H 769.676 1.57307 -2.82907 0
M  V30 7613 H 768.583 -0.575811 -3.69642 0
M  V30 7614 H 769.916 -0.738129 -4.86634 0
M  V30 7615 N 771.568 1.50203 -0.477153 0
M  V30 7616 C 772.793 2.07263 0.0754986 0
M  V30 7617 C 773.218 1.33801 1.32208 0
M  V30 7618 O 772.576 0.387482 1.77111 0
M  V30 7619 C 772.624 3.59028 0.336348 0
M  V30 7620 O 771.728 3.87339 1.4157 0
M  V30 7621 H 771.069 0.663815 -0.015662 0
M  V30 7622 H 773.599 1.93321 -0.669936 0
M  V30 7623 H 773.609 4.03927 0.575034 0
M  V30 7624 H 772.284 4.11912 -0.574551 0
M  V30 7625 H 770.861 3.54272 1.16385 0
M  V30 7626 N 773.046 0.209999 1.56195 0
M  V30 7627 C 773.979 -0.744546 2.15712 0
M  V30 7628 C 774.957 -1.19917 1.09812 0
M  V30 7629 O 776.141 -1.284 1.38006 0
M  V30 7630 C 773.268 -2.00733 2.72807 0
M  V30 7631 C 772.314 -1.69363 3.91431 0
M  V30 7632 S 773.147 -0.828579 5.29051 0
M  V30 7633 C 774.303 -2.10118 5.89577 0
M  V30 7634 H 774.536 -0.238636 2.96341 0
M  V30 7635 H 772.069 -0.00517877 1.54399 0
M  V30 7636 H 774.027 -2.73246 3.06344 0
M  V30 7637 H 772.688 -2.48436 1.92193 0
M  V30 7638 H 771.881 -2.63157 4.29842 0
M  V30 7639 H 771.483 -1.04921 3.58981 0
M  V30 7640 H 773.775 -3.05231 6.04847 0
M  V30 7641 H 774.718 -1.76116 6.85849 0
M  V30 7642 H 775.126 -2.23644 5.18308 0
M  V30 7643 N 774.524 -1.57472 -0.0634922 0
M  V30 7644 C 775.801 -1.78736 -0.794538 0
M  V30 7645 C 776.181 -0.799645 -1.95369 0
M  V30 7646 O 775.529 0.165521 -2.279 0
M  V30 7647 C 775.739 -3.25471 -1.25975 0
M  V30 7648 C 777.087 -3.89528 -1.68976 0
M  V30 7649 O 778.111 -3.29412 -1.35521 0
M  V30 7650 O 776.97 -4.95305 -2.30944 0
M  V30 7651 H 774.064 -0.733813 -0.381376 0
M  V30 7652 H 776.61 -1.69646 -0.0429258 0
M  V30 7653 H 775.382 -3.88922 -0.430721 0
M  V30 7654 H 775.005 -3.39317 -2.07243 0
M  V30 7655 N 776.003 0.335068 -1.53997 0
M  V30 7656 C 776.951 1.43206 -1.83289 0
M  V30 7657 C 777.945 1.54081 -0.703953 0
M  V30 7658 O 779.151 1.56603 -0.887432 0
M  V30 7659 H 775.526 0.477655 -0.580818 0
M  V30 7660 H 777.497 1.15719 -2.75049 0
M  V30 7661 C 776.246 2.79602 -2.06683 0
M  V30 7662 H 775.569 2.72004 -2.93008 0
M  V30 7663 H 777.009 3.55459 -2.31139 0
M  V30 7664 C 775.468 3.25873 -0.854883 0
M  V30 7665 O 775.998 4.01657 -0.0584648 0
M  V30 7666 N 774.204 2.82777 -0.669729 0
M  V30 7667 H 773.751 2.21269 -1.31901 0
M  V30 7668 H 773.709 3.1409 0.13969 0
M  V30 7669 N 777.481 1.45874 0.596531 0
M  V30 7670 C 778.721 1.52015 1.36641 0
M  V30 7671 C 779.085 0.16226 1.91313 0
M  V30 7672 O 780.286 0.0983889 2.6862 0
M  V30 7673 C 778.557 2.57776 2.4756 0
M  V30 7674 S 780.116 2.83223 3.35157 0
M  V30 7675 H 776.934 0.537251 0.465706 0
M  V30 7676 H 779.536 1.83024 0.687205 0
M  V30 7677 H 778.24 3.55091 2.05764 0
M  V30 7678 H 777.771 2.28455 3.20269 0
M  V30 7679 H 779.786 2.17442 4.4602 0
M  V30 7680 N 778.959 -0.83999 1.33349 0
M  V30 7681 C 780.37 -1.41139 1.22216 0
M  V30 7682 C 780.721 -1.95551 -0.159398 0
M  V30 7683 O 779.846 -1.88721 -1.05893 0
M  V30 7684 C 780.441 -2.56564 2.21269 0
M  V30 7685 C 779 -3.09661 2.13979 0
M  V30 7686 C 778.147 -1.82457 2.08818 0
M  V30 7687 H 781.098 -0.645853 1.44964 0
M  V30 7688 H 781.119 -3.34163 1.81976 0
M  V30 7689 H 780.631 -2.16932 3.21811 0
M  V30 7690 H 778.732 -3.53841 1.16736 0
M  V30 7691 H 778.845 -3.6991 3.04472 0
M  V30 7692 H 777.209 -2.0266 1.54276 0
M  V30 7693 H 777.992 -1.45022 3.11165 0
M  V30 7694 N 780.437 -1.16799 -1.0581 0
M  V30 7695 C 781.387 -0.847231 -2.11674 0
M  V30 7696 C 782.371 0.175476 -1.5994 0
M  V30 7697 O 783.563 -0.0260602 -1.76981 0
M  V30 7698 C 780.692 -0.355446 -3.41455 0
M  V30 7699 C 779.778 -1.40922 -4.00002 0
M  V30 7700 N 780.169 -2.62096 -4.32596 0
M  V30 7701 C 778.467 -1.26562 -4.27666 0
M  V30 7702 C 779.168 -3.29759 -4.79201 0
M  V30 7703 N 778.144 -2.57138 -4.78938 0
M  V30 7704 H 781.946 -1.76862 -2.34727 0
M  V30 7705 H 779.46 -1.05577 -1.23399 0
M  V30 7706 H 781.457 -0.107231 -4.16762 0
M  V30 7707 H 780.117 0.559817 -3.19838 0
M  V30 7708 H 781.128 -2.99113 -4.22791 0
M  V30 7709 H 777.805 -0.411503 -4.15467 0
M  V30 7710 H 779.195 -4.33222 -5.13584 0
M  V30 7711 N 781.915 1.24427 -0.967243 0
M  V30 7712 C 782.825 2.29109 -0.504592 0
M  V30 7713 C 783.841 1.68495 0.434224 0
M  V30 7714 O 785.017 1.99041 0.307379 0
M  V30 7715 C 782.082 3.46133 0.198273 0
M  V30 7716 C 781.143 4.22149 -0.780313 0
M  V30 7717 C 780.376 5.33585 -0.110896 0
M  V30 7718 O 780.599 5.59676 1.10088 0
M  V30 7719 O 779.533 5.96522 -0.802823 0
M  V30 7720 H 783.359 2.708 -1.37482 0
M  V30 7721 H 780.944 1.30111 -0.73426 0
M  V30 7722 H 782.826 4.17205 0.593124 0
M  V30 7723 H 781.501 3.0642 1.04347 0
M  V30 7724 H 780.408 3.53454 -1.22561 0
M  V30 7725 H 781.741 4.65677 -1.59392 0
M  V30 7726 N 783.393 0.737304 1.3929 0
M  V30 7727 C 784.64 0.286257 2.00467 0
M  V30 7728 C 784.968 -1.1272 1.58507 0
M  V30 7729 O 784.223 -1.7832 0.806257 0
M  V30 7730 C 784.522 0.338438 3.55794 0
M  V30 7731 C 784.188 1.70524 4.17411 0
M  V30 7732 C 782.85 2.07934 4.33955 0
M  V30 7733 C 785.202 2.60256 4.51571 0
M  V30 7734 C 782.53 3.34578 4.81948 0
M  V30 7735 C 784.882 3.86275 5.00974 0
M  V30 7736 C 783.546 4.23774 5.15725 0
M  V30 7737 H 782.816 0.104749 0.733559 0
M  V30 7738 H 785.463 0.944598 1.66582 0
M  V30 7739 H 783.768 -0.403478 3.89717 0
M  V30 7740 H 785.465 -0.0287255 4.0099 0
M  V30 7741 H 782.055 1.40439 4.04938 0
M  V30 7742 H 786.239 2.32624 4.38406 0
M  V30 7743 H 781.495 3.63572 4.91554 0
M  V30 7744 H 785.669 4.5596 5.26378 0
M  V30 7745 H 783.296 5.21972 5.52674 0
M  V30 7746 N 784.871 -1.49948 0.485112 0
M  V30 7747 C 785.801 -2.31675 -0.291364 0
M  V30 7748 C 786.782 -1.39216 -0.977383 0
M  V30 7749 O 787.967 -1.68133 -0.971855 0
M  V30 7750 C 785.097 -3.19326 -1.36558 0
M  V30 7751 C 784.051 -4.2045 -0.800359 0
M  V30 7752 C 783.377 -4.96931 -1.97391 0
M  V30 7753 C 784.677 -5.21925 0.197867 0
M  V30 7754 H 786.371 -2.96839 0.390775 0
M  V30 7755 H 783.917 -1.42749 0.189375 0
M  V30 7756 H 785.87 -3.75304 -1.91638 0
M  V30 7757 H 784.594 -2.52074 -2.07668 0
M  V30 7758 H 783.253 -3.65594 -0.271428 0
M  V30 7759 H 782.901 -4.26141 -2.67232 0
M  V30 7760 H 782.601 -5.65344 -1.60187 0
M  V30 7761 H 784.125 -5.55749 -2.52935 0
M  V30 7762 H 785.539 -5.72691 -0.264239 0
M  V30 7763 H 783.936 -5.98138 0.484908 0
M  V30 7764 H 785.006 -4.71809 1.11912 0
M  V30 7765 N 786.349 -0.21828 -1.56081 0
M  V30 7766 C 787.281 0.725447 -2.17416 0
M  V30 7767 C 788.294 1.15995 -1.14233 0
M  V30 7768 O 789.483 1.09166 -1.41227 0
M  V30 7769 C 786.583 1.99401 -2.7403 0
M  V30 7770 C 785.756 1.7156 -4.02351 0
M  V30 7771 C 784.815 2.8309 -4.43561 0
M  V30 7772 O 783.841 2.51701 -5.10525 0
M  V30 7773 N 785.043 4.11972 -4.08973 0
M  V30 7774 H 787.808 0.200801 -2.99027 0
M  V30 7775 H 785.369 -0.0371514 -1.61857 0
M  V30 7776 H 787.361 2.73198 -2.98571 0
M  V30 7777 H 785.931 2.42923 -1.96742 0
M  V30 7778 H 785.151 0.814233 -3.85699 0
M  V30 7779 H 786.439 1.50385 -4.86068 0
M  V30 7780 H 785.837 4.40319 -3.55156 0
M  V30 7781 H 784.394 4.82323 -4.38415 0
M  V30 7782 N 787.827 1.57504 0.0551401 0
M  V30 7783 C 789.073 1.88334 0.752216 0
M  V30 7784 C 789.406 0.812742 1.76375 0
M  V30 7785 O 788.681 -0.175198 1.93709 0
M  V30 7786 C 788.964 3.29824 1.44528 0
M  V30 7787 C 788.817 4.47553 0.449026 0
M  V30 7788 C 790.136 3.69808 2.38601 0
M  V30 7789 H 787.255 0.684973 0.271995 0
M  V30 7790 H 789.897 1.89994 0.0151895 0
M  V30 7791 H 788.047 3.28539 2.07351 0
M  V30 7792 H 789.719 4.60967 -0.175277 0
M  V30 7793 H 787.962 4.33168 -0.234162 0
M  V30 7794 H 788.633 5.43376 0.971917 0
M  V30 7795 H 791.109 3.72293 1.85842 0
M  V30 7796 H 789.985 4.69665 2.84088 0
M  V30 7797 H 790.246 3.00641 3.24141 0
M  V30 7798 N 789.305 -0.326896 1.54172 0
M  V30 7799 C 790.535 -1.08328 1.75922 0
M  V30 7800 C 790.943 -1.82302 0.50622 0
M  V30 7801 O 790.286 -1.7581 -0.532581 0
M  V30 7802 C 790.348 -2.1294 2.8965 0
M  V30 7803 C 790.012 -1.58394 4.28673 0
M  V30 7804 C 791.009 -1.02747 5.09646 0
M  V30 7805 C 788.694 -1.62737 4.75207 0
M  V30 7806 C 790.688 -0.52169 6.35261 0
M  V30 7807 C 788.375 -1.11772 6.00791 0
M  V30 7808 C 789.373 -0.565819 6.80652 0
M  V30 7809 O 789.061 -0.0638146 8.03875 0
M  V30 7810 H 788.793 -0.3282 0.590983 0
M  V30 7811 H 791.347 -0.37972 2.0186 0
M  V30 7812 H 789.577 -2.86903 2.59275 0
M  V30 7813 H 791.266 -2.74274 2.99213 0
M  V30 7814 H 792.032 -0.987007 4.74851 0
M  V30 7815 H 787.911 -2.04635 4.13093 0
M  V30 7816 H 791.455 -0.0902544 6.97542 0
M  V30 7817 H 787.352 -1.15524 6.35078 0
M  V30 7818 H 788.12 -0.17955 8.18303 0
M  V30 7819 N 790.784 -1.46188 -0.588786 0
M  V30 7820 C 792.061 -1.41659 -1.34878 0
M  V30 7821 C 792.441 -0.0968913 -2.10878 0
M  V30 7822 O 791.789 0.921468 -2.09096 0
M  V30 7823 C 791.999 -2.6424 -2.27988 0
M  V30 7824 C 793.347 -3.1013 -2.90008 0
M  V30 7825 O 794.371 -2.64745 -2.38303 0
M  V30 7826 O 793.23 -3.88944 -3.83908 0
M  V30 7827 H 790.324 -0.563058 -0.605718 0
M  V30 7828 H 792.87 -1.58346 -0.610309 0
M  V30 7829 H 791.642 -3.51853 -1.71217 0
M  V30 7830 H 791.265 -2.49982 -3.09184 0
M  V30 7831 N 792.262 0.832906 -1.33792 0
M  V30 7832 C 793.51 1.58539 -1.25338 0
M  V30 7833 C 793.831 1.94175 0.179204 0
M  V30 7834 O 793.101 1.61458 1.10941 0
M  V30 7835 H 791.681 0.58784 -0.460926 0
M  V30 7836 H 794.343 0.995064 -1.67584 0
M  V30 7837 H 793.439 2.51268 -1.85123 0
M  V30 7838 N 793.74 1.17359 1.05189 0
M  V30 7839 C 795.017 0.871914 1.75091 0
M  V30 7840 C 795.397 -0.627821 2.01548 0
M  V30 7841 O 794.745 -1.5791 1.65156 0
M  V30 7842 C 794.955 1.70687 3.04413 0
M  V30 7843 C 796.303 1.92684 3.78362 0
M  V30 7844 O 797.327 1.67645 3.14282 0
M  V30 7845 O 796.186 2.34765 4.93505 0
M  V30 7846 H 793.28 0.322831 0.761386 0
M  V30 7847 H 795.826 1.28054 1.11357 0
M  V30 7848 H 794.598 2.72405 2.80911 0
M  V30 7849 H 794.221 1.29602 3.75884 0
M  V30 7850 N 795.218 -1.23913 0.973828 0
M  V30 7851 C 796.443 -1.96735 0.656511 0
M  V30 7852 C 796.868 -1.71682 -0.768571 0
M  V30 7853 O 796.226 -0.984267 -1.52256 0
M  V30 7854 C 796.274 -3.48004 0.944735 0
M  V30 7855 O 795.378 -4.12387 0.0333357 0
M  V30 7856 H 794.719 -0.616119 0.247575 0
M  V30 7857 H 797.249 -1.57525 1.30564 0
M  V30 7858 H 797.259 -3.98424 0.87876 0
M  V30 7859 H 795.934 -3.65567 1.98328 0
M  V30 7860 H 794.511 -3.72585 0.153157 0
M  V30 7861 N 796.696 -0.74468 -1.38897 0
M  V30 7862 C 797.921 -0.306119 -2.05128 0
M  V30 7863 C 798.346 1.0541 -1.55789 0
M  V30 7864 O 797.704 1.66993 -0.705909 0
M  V30 7865 C 797.752 -0.328195 -3.59103 0
M  V30 7866 O 796.856 0.680876 -4.06741 0
M  V30 7867 H 796.197 -0.137209 -0.649669 0
M  V30 7868 H 798.727 -1.01331 -1.77745 0
M  V30 7869 H 798.737 -0.175956 -4.0762 0
M  V30 7870 H 797.412 -1.32067 -3.94374 0
M  V30 7871 H 795.989 0.49398 -3.69614 0
M  V30 7872 N 798.174 1.49689 -0.493057 0
M  V30 7873 C 799.399 2.07331 0.0535114 0
M  V30 7874 C 799.824 1.35196 1.30781 0
M  V30 7875 O 799.182 0.406246 1.7669 0
M  V30 7876 C 799.23 3.59364 0.29825 0
M  V30 7877 O 798.334 3.88819 1.37454 0
M  V30 7878 H 797.675 0.663612 -0.0227018 0
M  V30 7879 H 800.205 1.926 -0.690402 0
M  V30 7880 H 800.215 4.04515 0.532159 0
M  V30 7881 H 798.89 4.1128 -0.618207 0
M  V30 7882 H 797.467 3.55487 1.12621 0
M  V30 7883 N 799.652 0.226554 1.55963 0
M  V30 7884 C 800.615 -0.668015 2.19249 0
M  V30 7885 C 801.615 -1.11794 1.1558 0
M  V30 7886 O 802.805 -1.02593 1.40784 0
M  V30 7887 C 799.937 -1.91571 2.81981 0
M  V30 7888 H 801.13 -0.116175 2.99675 0
M  V30 7889 H 798.683 -0.0230497 1.56283 0
M  V30 7890 H 799.418 -2.50929 2.05439 0
M  V30 7891 H 799.203 -1.6015 3.57903 0
M  V30 7892 H 800.693 -2.55294 3.30477 0
M  V30 7893 N 801.13 -1.57531 -0.0467866 0
M  V30 7894 C 802.377 -1.88451 -0.74112 0
M  V30 7895 C 802.705 -0.821592 -1.76296 0
M  V30 7896 O 801.96 0.179585 -1.94874 0
M  V30 7897 C 802.259 -3.26091 -1.46285 0
M  V30 7898 C 801.925 -4.47171 -0.578669 0
M  V30 7899 C 800.587 -4.80032 -0.335083 0
M  V30 7900 C 802.939 -5.2119 0.0328809 0
M  V30 7901 C 800.267 -5.84309 0.529121 0
M  V30 7902 C 802.619 -6.26383 0.884684 0
M  V30 7903 C 801.283 -6.57729 1.1379 0
M  V30 7904 H 800.553 -0.68959 -0.271195 0
M  V30 7905 H 803.2 -1.915 -0.00132378 0
M  V30 7906 H 801.505 -3.18948 -2.27551 0
M  V30 7907 H 803.202 -3.47258 -2.00532 0
M  V30 7908 H 799.792 -4.21467 -0.778666 0
M  V30 7909 H 803.976 -4.96096 -0.142375 0
M  V30 7910 H 799.232 -6.06981 0.733794 0
M  V30 7911 H 803.406 -6.82888 1.36516 0
M  V30 7912 H 801.033 -7.38355 1.80929 0
M  V30 7913 N 802.608 0.318715 -1.54344 0
M  V30 7914 C 803.54 1.41364 -1.80413 0
M  V30 7915 C 804.553 1.47627 -0.686294 0
M  V30 7916 O 805.742 1.50264 -0.963486 0
M  V30 7917 C 802.842 2.79867 -1.91123 0
M  V30 7918 C 802.015 2.96749 -3.21339 0
M  V30 7919 C 801.074 4.15642 -3.22689 0
M  V30 7920 O 800.1 4.08571 -3.96306 0
M  V30 7921 N 801.302 5.25416 -2.46817 0
M  V30 7922 H 804.067 1.19363 -2.74905 0
M  V30 7923 H 801.628 0.508722 -1.537 0
M  V30 7924 H 803.62 3.57619 -1.89448 0
M  V30 7925 H 802.19 2.94896 -1.03706 0
M  V30 7926 H 801.41 2.06257 -3.35934 0
M  V30 7927 H 802.698 3.04927 -4.07304 0
M  V30 7928 H 802.096 5.34037 -1.86605 0
M  V30 7929 H 800.653 6.01569 -2.50915 0
M  V30 7930 N 804.086 1.46499 0.581025 0
M  V30 7931 C 805.016 1.60052 1.70017 0
M  V30 7932 C 805.997 0.450788 1.64018 0
M  V30 7933 O 807.182 0.677237 1.82009 0
M  V30 7934 C 804.312 1.5921 3.08658 0
M  V30 7935 C 803.266 2.73169 3.29488 0
M  V30 7936 C 802.592 2.57389 4.68674 0
M  V30 7937 C 803.892 4.14978 3.1716 0
M  V30 7938 H 805.586 2.53735 1.5893 0
M  V30 7939 H 803.132 1.22113 0.763173 0
M  V30 7940 H 805.085 1.67285 3.86773 0
M  V30 7941 H 803.809 0.620718 3.20647 0
M  V30 7942 H 802.468 2.64566 2.53773 0
M  V30 7943 H 802.116 1.58331 4.77431 0
M  V30 7944 H 801.816 3.33826 4.83564 0
M  V30 7945 H 803.34 2.67358 5.48956 0
M  V30 7946 H 804.754 4.24684 3.85119 0
M  V30 7947 H 803.151 4.92016 3.4357 0
M  V30 7948 H 804.221 4.35016 2.14218 0
M  V30 7949 N 805.565 -0.825799 1.34232 0
M  V30 7950 C 806.813 -1.57873 1.26177 0
M  V30 7951 C 807.134 -1.94267 -0.168904 0
M  V30 7952 O 806.404 -1.62045 -1.10084 0
M  V30 7953 H 804.984 -0.585388 0.464037 0
M  V30 7954 H 807.646 -0.986163 1.6811 0
M  V30 7955 H 806.742 -2.50283 1.86453 0
M  V30 7956 N 807.043 -1.17915 -1.04565 0
M  V30 7957 C 808.459 -0.927761 -1.29864 0
M  V30 7958 C 808.659 0.409536 -1.97294 0
M  V30 7959 O 807.715 1.14505 -2.25044 0
M  V30 7960 C 809.028 -2.08967 -2.16225 0
M  V30 7961 C 810.576 -2.12741 -2.29587 0
M  V30 7962 C 811.051 -3.28335 -3.19312 0
M  V30 7963 N 812.542 -3.28164 -3.26898 0
M  V30 7964 C 813.277 -4.14249 -3.96466 0
M  V30 7965 N 812.773 -5.10457 -4.68407 0
M  V30 7966 N 814.566 -4.02179 -3.92694 0
M  V30 7967 H 806.717 -2.03983 -0.592011 0
M  V30 7968 H 808.98 -0.891023 -0.323701 0
M  V30 7969 H 808.686 -3.05654 -1.73979 0
M  V30 7970 H 808.56 -2.04606 -3.16885 0
M  V30 7971 H 810.947 -1.16636 -2.71072 0
M  V30 7972 H 811.028 -2.21162 -1.28535 0
M  V30 7973 H 810.672 -4.2471 -2.78539 0
M  V30 7974 H 810.602 -3.17151 -4.20384 0
M  V30 7975 H 813.093 -2.58511 -2.75646 0
M  V30 7976 H 813.406 -5.72526 -5.1907 0
M  V30 7977 H 811.751 -5.14422 -4.67328 0
M  V30 7978 H 814.942 -3.26308 -3.3562 0
M  V30 7979 H 815.115 -4.69486 -4.4664 0
M  V30 7980 N 808.521 1.23394 -0.980386 0
M  V30 7981 C 809.768 1.91809 -0.649261 0
M  V30 7982 C 810.096 1.765 0.817197 0
M  V30 7983 O 809.351 1.11979 1.60497 0
M  V30 7984 C 809.65 3.43542 -0.985588 0
M  V30 7985 C 809.316 3.79031 -2.44225 0
M  V30 7986 C 807.978 3.88429 -2.84035 0
M  V30 7987 C 810.33 3.96145 -3.38702 0
M  V30 7988 C 807.658 4.12368 -4.17336 0
M  V30 7989 C 810.01 4.21583 -4.71646 0
M  V30 7990 C 808.674 4.29203 -5.11215 0
M  V30 7991 H 807.944 0.70188 -0.237581 0
M  V30 7992 H 810.591 1.4642 -1.23424 0
M  V30 7993 H 808.896 3.90503 -0.318521 0
M  V30 7994 H 810.593 3.94708 -0.707596 0
M  V30 7995 H 807.183 3.7229 -2.12362 0
M  V30 7996 H 811.367 3.88274 -3.09123 0
M  V30 7997 H 806.623 4.1649 -4.47601 0
M  V30 7998 H 810.797 4.33769 -5.4481 0
M  V30 7999 H 808.424 4.47505 -6.14527 0
M  V30 8000 N 809.999 0.752036 1.385 0
M  V30 8001 C 811.239 0.312408 2.01998 0
M  V30 8002 C 811.603 -1.085 1.58404 0
M  V30 8003 O 812.804 -1.62365 2.14222 0
M  V30 8004 C 811.075 0.429423 3.54811 0
M  V30 8005 S 812.634 0.0721487 4.38741 0
M  V30 8006 H 809.452 0.1213 0.700576 0
M  V30 8007 H 812.054 0.982312 1.69029 0
M  V30 8008 H 810.758 1.44743 3.84028 0
M  V30 8009 H 810.289 -0.257716 3.92555 0
M  V30 8010 H 812.304 -1.13875 4.82957 0
M  V30 8011 N 811.477 -1.49425 0.500989 0
M  V30 8012 C 812.725 -2.02053 -0.0434495 0
M  V30 8013 C 813.046 -1.38285 -1.37486 0
M  V30 8014 O 812.316 -0.538171 -1.88363 0
M  V30 8015 H 810.896 -0.746757 -0.0190469 0
M  V30 8016 H 813.558 -1.83449 0.658227 0
M  V30 8017 H 812.654 -3.11619 -0.173129 0
M  V30 8018 N 812.955 -0.234822 -1.55841 0
M  V30 8019 C 814.18 0.400741 -2.03492 0
M  V30 8020 C 814.605 1.51618 -1.11327 0
M  V30 8021 O 813.963 1.81002 -0.103922 0
M  V30 8022 C 814.011 0.897184 -3.49261 0
M  V30 8023 O 813.115 2.00764 -3.60233 0
M  V30 8024 H 812.456 0.0890023 -0.658008 0
M  V30 8025 H 814.986 -0.357345 -2.01455 0
M  V30 8026 H 814.996 1.20356 -3.89844 0
M  V30 8027 H 813.671 0.0808639 -4.15821 0
M  V30 8028 H 812.248 1.70689 -3.31541 0
M  V30 8029 N 814.433 1.57553 0.0384317 0
M  V30 8030 C 815.658 1.93485 0.746872 0
M  V30 8031 C 816.083 0.834069 1.68597 0
M  V30 8032 O 815.441 -0.210902 1.80069 0
M  V30 8033 C 815.489 3.28463 1.4881 0
M  V30 8034 O 814.593 3.20051 2.60079 0
M  V30 8035 H 813.934 0.632675 0.201539 0
M  V30 8036 H 816.464 2.046 -0.00329815 0
M  V30 8037 H 816.474 3.63132 1.86009 0
M  V30 8038 H 815.149 4.08147 0.799297 0
M  V30 8039 H 813.726 2.96998 2.25492 0
M  V30 8040 N 815.911 -0.310526 1.54511 0
M  V30 8041 C 816.841 -1.38757 1.878 0
M  V30 8042 C 817.822 -1.53353 0.735991 0
M  V30 8043 O 819.007 -1.67018 0.990887 0
M  V30 8044 C 816.137 -2.75327 2.11689 0
M  V30 8045 C 815.091 -2.75506 3.27537 0
M  V30 8046 C 814.417 -4.15275 3.36824 0
M  V30 8047 C 815.717 -2.38093 4.64875 0
M  V30 8048 H 817.411 -1.11146 2.78005 0
M  V30 8049 H 814.957 -0.533232 1.33763 0
M  V30 8050 H 816.91 -3.50752 2.33562 0
M  V30 8051 H 815.634 -3.04443 1.18245 0
M  V30 8052 H 814.293 -2.02538 3.05572 0
M  V30 8053 H 813.941 -4.41553 2.40915 0
M  V30 8054 H 813.641 -4.16299 4.14692 0
M  V30 8055 H 815.165 -4.92493 3.60947 0
M  V30 8056 H 816.579 -3.03232 4.86542 0
M  V30 8057 H 814.976 -2.50345 5.45387 0
M  V30 8058 H 816.046 -1.33227 4.66239 0
M  V30 8059 N 817.389 -1.46805 -0.573248 0
M  V30 8060 C 818.8 -1.46655 -1.15539 0
M  V30 8061 C 819.151 -0.2125 -1.95046 0
M  V30 8062 O 818.276 0.683759 -2.05314 0
M  V30 8063 C 818.871 -2.65711 -2.10198 0
M  V30 8064 C 817.43 -2.68572 -2.63716 0
M  V30 8065 C 816.577 -2.39498 -1.39772 0
M  V30 8066 H 819.528 -1.54547 -0.36068 0
M  V30 8067 H 819.549 -2.41768 -2.93817 0
M  V30 8068 H 819.061 -3.56967 -1.52303 0
M  V30 8069 H 817.162 -1.81414 -3.25453 0
M  V30 8070 H 817.275 -3.68809 -3.05805 0
M  V30 8071 H 815.639 -1.89749 -1.69904 0
M  V30 8072 H 816.422 -3.32942 -0.836943 0
M  V30 8073 N 818.867 0.818669 -1.34668 0
M  V30 8074 C 819.817 1.91882 -1.23147 0
M  V30 8075 C 820.801 1.60378 -0.129509 0
M  V30 8076 O 821.993 1.73309 -0.359581 0
M  V30 8077 C 819.122 3.28612 -0.993436 0
M  V30 8078 C 818.208 3.66221 -2.13876 0
M  V30 8079 N 818.599 3.75361 -3.39024 0
M  V30 8080 C 816.897 3.96098 -2.04994 0
M  V30 8081 C 817.598 4.0836 -4.14266 0
M  V30 8082 N 816.574 4.21806 -3.429 0
M  V30 8083 H 820.376 1.97133 -2.17981 0
M  V30 8084 H 817.89 1.01257 -1.26967 0
M  V30 8085 H 819.887 4.0725 -0.891797 0
M  V30 8086 H 818.547 3.24655 -0.053824 0
M  V30 8087 H 819.558 3.58747 -3.73525 0
M  V30 8088 H 816.235 4.00236 -1.18816 0
M  V30 8089 H 817.625 4.226 -5.22359 0
M  V30 8090 N 820.346 1.18468 1.03938 0
M  V30 8091 C 821.256 0.927889 2.1547 0
M  V30 8092 C 822.272 -0.108447 1.73662 0
M  V30 8093 O 823.448 0.0737636 2.01265 0
M  V30 8094 C 820.513 0.458494 3.43655 0
M  V30 8095 C 819.574 1.56295 3.99838 0
M  V30 8096 C 818.807 1.11586 5.21904 0
M  V30 8097 O 819.03 -0.0249057 5.70395 0
M  V30 8098 O 817.964 1.91412 5.70653 0
M  V30 8099 H 821.79 1.86116 2.39989 0
M  V30 8100 H 819.375 0.966607 1.13917 0
M  V30 8101 H 821.257 0.204861 4.20902 0
M  V30 8102 H 819.932 -0.446464 3.20606 0
M  V30 8103 H 818.839 1.87061 3.23974 0
M  V30 8104 H 820.172 2.44408 4.2723 0
M  V30 8105 N 821.824 -1.22873 0.986916 0
M  V30 8106 C 822.754 -2.2688 0.552064 0
M  V30 8107 C 823.735 -1.64883 -0.418048 0
M  V30 8108 O 824.92 -1.9171 -0.30999 0
M  V30 8109 C 822.05 -3.47018 -0.139959 0
M  V30 8110 C 821.004 -4.21411 0.748091 0
M  V30 8111 C 820.33 -5.34645 -0.0765132 0
M  V30 8112 C 821.63 -4.80726 2.04206 0
M  V30 8113 H 823.324 -2.63507 1.42143 0
M  V30 8114 H 820.87 -1.26668 0.68492 0
M  V30 8115 H 822.823 -4.18931 -0.455527 0
M  V30 8116 H 821.547 -3.0947 -1.04382 0
M  V30 8117 H 820.206 -3.51325 1.04721 0
M  V30 8118 H 819.854 -4.93339 -0.981109 0
M  V30 8119 H 819.554 -5.85342 0.514606 0
M  V30 8120 H 821.078 -6.09377 -0.386313 0
M  V30 8121 H 822.492 -5.44612 1.79083 0
M  V30 8122 H 820.889 -5.41737 2.5815 0
M  V30 8123 H 821.959 -4.01109 2.72469 0
M  V30 8124 N 823.302 -0.75937 -1.38099 0
M  V30 8125 C 824.232 -0.151077 -2.33011 0
M  V30 8126 C 825.213 0.697099 -1.5516 0
M  V30 8127 O 826.398 0.637101 -1.83452 0
M  V30 8128 C 823.528 0.738423 -3.39359 0
M  V30 8129 C 822.482 -0.0074741 -4.27999 0
M  V30 8130 C 821.808 1.00066 -5.25253 0
M  V30 8131 C 823.108 -1.17926 -5.08813 0
M  V30 8132 H 824.802 -0.943933 -2.84131 0
M  V30 8133 H 822.348 -0.455362 -1.36611 0
M  V30 8134 H 824.301 1.17369 -4.04725 0
M  V30 8135 H 823.025 1.56366 -2.86735 0
M  V30 8136 H 821.684 -0.423379 -3.64147 0
M  V30 8137 H 821.332 1.82012 -4.68914 0
M  V30 8138 H 821.032 0.506199 -5.85416 0
M  V30 8139 H 822.556 1.43512 -5.93495 0
M  V30 8140 H 823.97 -0.821262 -5.67387 0
M  V30 8141 H 822.367 -1.60497 -5.78239 0
M  V30 8142 H 823.437 -1.98938 -4.42212 0
M  V30 8143 N 824.78 1.49157 -0.508906 0
M  V30 8144 C 826.005 2.07376 0.0315182 0
M  V30 8145 C 826.43 1.36575 1.2934 0
M  V30 8146 O 825.788 0.424963 1.76249 0
M  V30 8147 C 825.836 3.59661 0.260118 0
M  V30 8148 O 824.94 3.90255 1.33322 0
M  V30 8149 H 824.281 0.663334 -0.029739 0
M  V30 8150 H 826.811 1.91857 -0.710791 0
M  V30 8151 H 826.821 4.05056 0.489225 0
M  V30 8152 H 825.496 4.10601 -0.661794 0
M  V30 8153 H 824.073 3.56661 1.08844 0
M  V30 8154 N 826.258 0.243083 1.55714 0
M  V30 8155 C 827.483 -0.389944 2.03701 0
M  V30 8156 C 827.908 -1.51025 1.12129 0
M  V30 8157 O 827.266 -1.80944 0.11352 0
M  V30 8158 C 827.314 -0.878649 3.49731 0
M  V30 8159 O 826.418 -1.98851 3.61292 0
M  V30 8160 H 825.759 -0.0855115 0.658471 0
M  V30 8161 H 828.289 0.368023 2.01263 0
M  V30 8162 H 828.299 -1.18287 3.90477 0
M  V30 8163 H 826.974 -0.0588107 4.15858 0
M  V30 8164 H 825.551 -1.68928 3.32442 0
M  V30 8165 N 827.736 -1.57571 -0.0300757 0
M  V30 8166 C 829.013 -1.80381 -0.756447 0
M  V30 8167 C 829.393 -0.840906 -1.93628 0
M  V30 8168 O 828.741 0.117143 -2.282 0
M  V30 8169 C 828.951 -3.2807 -1.19043 0
M  V30 8170 C 830.299 -3.93025 -1.60676 0
M  V30 8171 O 831.323 -3.32213 -1.28503 0
M  V30 8172 O 830.182 -5.00092 -2.20386 0
M  V30 8173 H 827.276 -0.741737 -0.365725 0
M  V30 8174 H 829.822 -1.69699 -0.00693177 0
M  V30 8175 H 828.594 -3.89748 -0.348128 0
M  V30 8176 H 828.217 -3.43637 -1.99999 0
M  V30 8177 N 829.214 0.302327 -1.54673 0
M  V30 8178 C 830.162 1.39286 -1.86285 0
M  V30 8179 C 831.156 1.52553 -0.736478 0
M  V30 8180 O 832.362 1.54686 -0.92045 0
M  V30 8181 H 828.737 0.465228 -0.590819 0
M  V30 8182 H 830.708 1.09859 -2.77441 0
M  V30 8183 C 829.457 2.75155 -2.12567 0
M  V30 8184 H 828.78 2.65728 -2.98712 0
M  V30 8185 H 830.22 3.50476 -2.38627 0
M  V30 8186 C 828.679 3.23987 -0.923813 0
M  V30 8187 O 829.209 4.01443 -0.143649 0
M  V30 8188 N 827.415 2.81293 -0.72956 0
M  V30 8189 H 826.962 2.18421 -1.36565 0
M  V30 8190 H 826.92 3.14315 0.0730351 0
M  V30 8191 N 830.692 1.47107 0.565454 0
M  V30 8192 C 831.655 1.58535 1.65527 0
M  V30 8193 C 832.655 0.461081 1.54048 0
M  V30 8194 O 833.845 0.725911 1.58355 0
M  V30 8195 C 830.977 1.52204 3.05036 0
M  V30 8196 H 832.17 2.55676 1.56747 0
M  V30 8197 H 829.723 1.35174 0.78471 0
M  V30 8198 H 830.458 0.564071 3.19357 0
M  V30 8199 H 830.243 2.3379 3.14777 0
M  V30 8200 H 831.733 1.63322 3.84338 0
M  V30 8201 N 832.17 -0.811516 1.35101 0
M  V30 8202 C 833.1 -1.9378 1.30275 0
M  V30 8203 C 834.081 -1.69165 0.178075 0
M  V30 8204 O 835.266 -1.90599 0.372256 0
M  V30 8205 C 832.396 -3.30439 1.06899 0
M  V30 8206 C 831.35 -3.69523 2.15955 0
M  V30 8207 C 830.676 -5.0429 1.77751 0
M  V30 8208 C 831.976 -3.80419 3.57881 0
M  V30 8209 H 833.67 -1.98075 2.24514 0
M  V30 8210 H 831.216 -0.951586 1.08078 0
M  V30 8211 H 833.169 -4.08828 1.02164 0
M  V30 8212 H 831.893 -3.26473 0.0910462 0
M  V30 8213 H 830.552 -2.93416 2.19778 0
M  V30 8214 H 830.2 -4.96823 0.785876 0
M  V30 8215 H 829.9 -5.31411 2.5075 0
M  V30 8216 H 831.424 -5.85125 1.74533 0
M  V30 8217 H 832.838 -4.49051 3.56407 0
M  V30 8218 H 831.235 -4.19005 4.29598 0
M  V30 8219 H 832.305 -2.82105 3.94391 0
M  V30 8220 N 833.648 -1.19017 -1.03309 0
M  V30 8221 C 834.878 -1.01387 -1.80012 0
M  V30 8222 C 835.286 0.440655 -1.83997 0
M  V30 8223 O 834.629 1.31786 -1.27977 0
M  V30 8224 C 834.691 -1.50171 -3.26633 0
M  V30 8225 C 834.355 -2.98213 -3.46292 0
M  V30 8226 C 835.352 -3.96009 -3.36857 0
M  V30 8227 C 833.037 -3.36812 -3.72643 0
M  V30 8228 C 835.031 -5.30399 -3.5349 0
M  V30 8229 C 832.718 -4.71363 -3.88922 0
M  V30 8230 C 833.716 -5.67966 -3.79347 0
M  V30 8231 O 833.404 -7.00079 -3.95151 0
M  V30 8232 H 833.136 -0.357899 -0.573484 0
M  V30 8233 H 835.69 -1.58171 -1.31039 0
M  V30 8234 H 833.92 -0.877586 -3.7661 0
M  V30 8235 H 835.609 -1.28814 -3.84918 0
M  V30 8236 H 836.375 -3.67534 -3.16455 0
M  V30 8237 H 832.254 -2.62175 -3.7919 0
M  V30 8238 H 835.798 -6.05786 -3.45933 0
M  V30 8239 H 831.695 -4.99536 -4.0882 0
M  V30 8240 H 832.463 -7.07092 -4.12266 0
M  V30 8241 N 835.127 1.22348 -0.993418 0
M  V30 8242 C 836.374 1.9111 -0.669568 0
M  V30 8243 C 836.702 1.77357 0.79843 0
M  V30 8244 O 835.957 1.13675 1.593 0
M  V30 8245 C 836.256 3.42477 -1.02197 0
M  V30 8246 C 835.922 3.7642 -2.48232 0
M  V30 8247 C 834.584 3.85395 -2.88139 0
M  V30 8248 C 836.936 3.9253 -3.42884 0
M  V30 8249 C 834.264 4.07918 -4.21687 0
M  V30 8250 C 836.616 4.16557 -4.76091 0
M  V30 8251 C 835.28 4.23757 -5.15739 0
M  V30 8252 H 834.55 0.699321 -0.245012 0
M  V30 8253 H 837.197 1.45102 -1.2497 0
M  V30 8254 H 835.502 3.90143 -0.359921 0
M  V30 8255 H 837.199 3.93935 -0.74942 0
M  V30 8256 H 833.789 3.70017 -2.16299 0
M  V30 8257 H 837.973 3.84974 -3.13224 0
M  V30 8258 H 833.229 4.11719 -4.51993 0
M  V30 8259 H 837.403 4.27966 -5.4938 0
M  V30 8260 H 835.03 4.40962 -6.19239 0
M  V30 8261 N 836.605 0.766683 1.37694 0
M  V30 8262 C 837.555 0.123173 2.27667 0
M  V30 8263 C 838.539 -0.679436 1.45851 0
M  V30 8264 O 839.731 -0.54324 1.68457 0
M  V30 8265 C 836.86 -0.759064 3.34803 0
M  V30 8266 C 835.946 0.0511009 4.24069 0
M  V30 8267 N 836.337 1.09418 4.93823 0
M  V30 8268 C 834.635 -0.173675 4.45662 0
M  V30 8269 C 835.336 1.58546 5.59677 0
M  V30 8270 N 834.312 0.898503 5.36123 0
M  V30 8271 H 838.114 0.921859 2.79068 0
M  V30 8272 H 835.628 0.603957 1.50752 0
M  V30 8273 H 837.625 -1.23581 3.98163 0
M  V30 8274 H 836.285 -1.55655 2.84959 0
M  V30 8275 H 837.296 1.47623 4.96415 0
M  V30 8276 H 833.973 -0.943473 4.067 0
M  V30 8277 H 835.363 2.45504 6.25442 0
M  V30 8278 N 838.083 -1.48885 0.516809 0
M  V30 8279 C 839.013 -2.32241 -0.242157 0
M  V30 8280 C 839.994 -1.41258 -0.947633 0
M  V30 8281 O 841.179 -1.70156 -0.935973 0
M  V30 8282 C 838.309 -3.22151 -1.29754 0
M  V30 8283 C 837.263 -4.22053 -0.710995 0
M  V30 8284 C 836.589 -5.01007 -1.86806 0
M  V30 8285 C 837.889 -5.21388 0.30853 0
M  V30 8286 H 839.583 -2.95943 0.453651 0
M  V30 8287 H 837.129 -1.42316 0.219612 0
M  V30 8288 H 839.082 -3.79284 -1.83634 0
M  V30 8289 H 837.806 -2.56423 -2.02274 0
M  V30 8290 H 836.465 -3.66087 -0.193819 0
M  V30 8291 H 836.113 -4.31713 -2.58133 0
M  V30 8292 H 835.813 -5.68615 -1.48159 0
M  V30 8293 H 837.337 -5.60989 -2.4109 0
M  V30 8294 H 838.751 -5.73122 -0.142703 0
M  V30 8295 H 837.148 -5.96975 0.611673 0
M  V30 8296 H 838.218 -4.69329 1.21894 0
M  V30 8297 N 839.561 -0.251338 -1.55583 0
M  V30 8298 C 840.791 0.375642 -2.03156 0
M  V30 8299 C 841.199 1.51761 -1.12983 0
M  V30 8300 O 840.542 1.83184 -0.13757 0
M  V30 8301 C 840.604 0.941001 -3.46966 0
M  V30 8302 C 840.268 -0.0692886 -4.56947 0
M  V30 8303 C 841.265 -0.88041 -5.12391 0
M  V30 8304 C 838.95 -0.196661 -5.01915 0
M  V30 8305 C 840.944 -1.80532 -6.11299 0
M  V30 8306 C 838.631 -1.12507 -6.00654 0
M  V30 8307 C 839.629 -1.92792 -6.55225 0
M  V30 8308 O 839.317 -2.84067 -7.52038 0
M  V30 8309 H 839.049 0.0928836 -0.669588 0
M  V30 8310 H 841.603 -0.374115 -2.01964 0
M  V30 8311 H 839.833 1.7404 -3.45322 0
M  V30 8312 H 841.522 1.47853 -3.78014 0
M  V30 8313 H 842.288 -0.792615 -4.78479 0
M  V30 8314 H 838.167 0.418187 -4.59099 0
M  V30 8315 H 841.711 -2.43239 -6.5382 0
M  V30 8316 H 837.608 -1.21377 -6.33986 0
M  V30 8317 H 838.376 -2.78479 -7.6967 0
M  V30 8318 N 841.039 1.57585 0.0217189 0
M  V30 8319 C 842.264 1.94267 0.726309 0
M  V30 8320 C 842.689 0.851904 1.67703 0
M  V30 8321 O 842.047 -0.191792 1.80283 0
M  V30 8322 C 842.095 3.30023 1.45318 0
M  V30 8323 O 841.199 3.22791 2.5667 0
M  V30 8324 H 840.54 0.634777 0.194818 0
M  V30 8325 H 843.07 2.04585 -0.0249985 0
M  V30 8326 H 843.08 3.65084 1.82147 0
M  V30 8327 H 841.755 4.08972 0.755962 0
M  V30 8328 H 840.332 2.99373 2.2233 0
M  V30 8329 N 842.517 -0.29412 1.54831 0
M  V30 8330 C 843.427 -1.3854 1.89325 0
M  V30 8331 C 844.443 -1.55127 0.788133 0
M  V30 8332 O 845.619 -1.6966 1.08524 0
M  V30 8333 C 842.684 -2.72809 2.13954 0
M  V30 8334 C 841.745 -2.65148 3.37631 0
M  V30 8335 C 840.978 -3.93014 3.61076 0
M  V30 8336 O 841.201 -4.927 2.87406 0
M  V30 8337 O 840.135 -3.94491 4.54599 0
M  V30 8338 H 843.961 -1.12289 2.82179 0
M  V30 8339 H 841.546 -0.490793 1.41108 0
M  V30 8340 H 843.428 -3.52238 2.31315 0
M  V30 8341 H 842.103 -2.9889 1.24285 0
M  V30 8342 H 841.01 -1.84168 3.25627 0
M  V30 8343 H 842.343 -2.4402 4.27452 0
M  V30 8344 N 843.995 -1.47404 -0.557645 0
M  V30 8345 C 844.945 -1.56267 -1.66026 0
M  V30 8346 C 845.929 -0.42161 -1.55278 0
M  V30 8347 O 847.121 -0.671505 -1.63768 0
M  V30 8348 C 844.25 -1.57958 -3.04802 0
M  V30 8349 C 843.336 -2.77447 -3.20755 0
M  V30 8350 N 843.727 -4.02148 -3.06775 0
M  V30 8351 C 842.025 -2.74199 -3.51754 0
M  V30 8352 C 842.726 -4.82168 -3.25406 0
M  V30 8353 N 841.702 -4.14481 -3.5172 0
M  V30 8354 H 845.504 -2.50454 -1.53785 0
M  V30 8355 H 843.018 -1.43392 -0.762388 0
M  V30 8356 H 845.015 -1.62397 -3.8397 0
M  V30 8357 H 843.675 -0.648667 -3.18155 0
M  V30 8358 H 844.686 -4.33014 -2.84111 0
M  V30 8359 H 841.363 -1.90243 -3.71637 0
M  V30 8360 H 842.753 -5.91037 -3.19569 0
M  V30 8361 N 845.473 0.80434 -1.35529 0
M  V30 8362 C 846.403 1.93086 -1.31301 0
M  V30 8363 C 847.384 1.69068 -0.187044 0
M  V30 8364 O 848.569 1.90399 -0.382359 0
M  V30 8365 C 845.699 3.29867 -1.0865 0
M  V30 8366 C 844.653 3.68373 -2.17911 0
M  V30 8367 C 843.979 5.0334 -1.80423 0
M  V30 8368 C 845.279 3.78516 -3.59893 0
M  V30 8369 H 846.973 1.96882 -2.25561 0
M  V30 8370 H 844.519 0.945841 -1.08581 0
M  V30 8371 H 846.472 4.08281 -1.04331 0
M  V30 8372 H 845.196 3.2642 -0.108359 0
M  V30 8373 H 843.855 2.92247 -2.21331 0
M  V30 8374 H 843.503 4.96399 -0.812213 0
M  V30 8375 H 843.203 5.30074 -2.53565 0
M  V30 8376 H 844.727 5.84191 -1.77633 0
M  V30 8377 H 846.141 4.47155 -3.58783 0
M  V30 8378 H 844.538 4.16721 -4.31814 0
M  V30 8379 H 845.608 2.8001 -3.95882 0
M  V30 8380 N 846.951 1.19563 1.02676 0
M  V30 8381 C 848.367 0.948304 1.28372 0
M  V30 8382 C 848.567 -0.378096 1.97921 0
M  V30 8383 O 847.623 -1.1091 2.26838 0
M  V30 8384 C 848.936 2.12381 2.12873 0
M  V30 8385 C 850.484 2.16366 2.26174 0
M  V30 8386 C 850.959 3.33374 3.14048 0
M  V30 8387 N 852.45 3.33323 3.21636 0
M  V30 8388 C 853.185 4.20504 3.89825 0
M  V30 8389 N 852.681 5.17845 4.60227 0
M  V30 8390 N 854.474 4.08375 3.86246 0
M  V30 8391 H 846.625 2.04899 0.559485 0
M  V30 8392 H 848.888 0.89606 0.309484 0
M  V30 8393 H 848.594 3.08383 1.69094 0
M  V30 8394 H 848.468 2.09621 3.1359 0
M  V30 8395 H 850.855 1.20933 2.69182 0
M  V30 8396 H 850.936 2.23179 1.25 0
M  V30 8397 H 850.58 4.29087 2.71747 0
M  V30 8398 H 850.51 3.23798 4.15286 0
M  V30 8399 H 853.001 2.62863 2.71498 0
M  V30 8400 H 853.314 5.80712 5.09896 0
M  V30 8401 H 851.659 5.21791 4.59085 0
M  V30 8402 H 854.85 3.31606 3.30386 0
M  V30 8403 H 855.023 4.76532 4.39114 0
M  V30 8404 N 848.429 -1.21819 0.999893 0
M  V30 8405 C 849.377 -2.26027 0.549047 0
M  V30 8406 C 850.371 -1.64516 -0.403826 0
M  V30 8407 O 851.577 -1.77878 -0.275578 0
M  V30 8408 H 847.952 -0.734958 0.159185 0
M  V30 8409 H 849.923 -2.61398 1.43923 0
M  V30 8410 C 848.672 -3.47514 -0.11369 0
M  V30 8411 H 847.995 -3.95112 0.610482 0
M  V30 8412 H 849.435 -4.22179 -0.3925 0
M  V30 8413 C 847.894 -3.08614 -1.35126 0
M  V30 8414 O 848.424 -3.1864 -2.44605 0
M  V30 8415 N 846.63 -2.63327 -1.22911 0
M  V30 8416 H 846.177 -2.55369 -0.338288 0
M  V30 8417 H 846.135 -2.37668 -2.05818 0
M  V30 8418 N 849.908 -0.773975 -1.37286 0
M  V30 8419 C 851.156 -0.338636 -1.99243 0
M  V30 8420 C 851.477 1.08919 -1.61746 0
M  V30 8421 O 850.747 1.74822 -0.88397 0
M  V30 8422 H 849.327 -0.12222 -0.736934 0
M  V30 8423 H 851.989 -0.992595 -1.67731 0
M  V30 8424 H 851.085 -0.418055 -3.09287 0
M  V30 8425 N 851.386 1.48609 -0.524698 0
M  V30 8426 C 852.802 1.58557 -0.182199 0
M  V30 8427 C 853.002 1.52732 1.31435 0
M  V30 8428 O 852.058 1.41362 2.0922 0
M  V30 8429 C 853.371 2.90406 -0.78004 0
M  V30 8430 C 854.919 3.03924 -0.748293 0
M  V30 8431 C 855.394 4.38427 -1.32462 0
M  V30 8432 N 856.885 4.4498 -1.28635 0
M  V30 8433 C 857.62 5.47551 -1.70223 0
M  V30 8434 N 857.116 6.57103 -2.19515 0
M  V30 8435 N 858.909 5.38402 -1.61493 0
M  V30 8436 H 851.06 1.50638 -1.4974 0
M  V30 8437 H 853.323 0.714952 -0.622533 0
M  V30 8438 H 853.029 3.00308 -1.83052 0
M  V30 8439 H 852.903 3.76343 -0.254075 0
M  V30 8440 H 855.29 2.93638 0.293407 0
M  V30 8441 H 855.371 2.19611 -1.31167 0
M  V30 8442 H 855.015 4.49466 -2.36522 0
M  V30 8443 H 854.945 5.21418 -0.736967 0
M  V30 8444 H 857.436 3.66393 -0.92545 0
M  V30 8445 H 857.749 7.31499 -2.49257 0
M  V30 8446 H 856.094 6.58081 -2.23506 0
M  V30 8447 H 859.285 4.5171 -1.22785 0
M  V30 8448 H 859.458 6.18208 -1.94225 0
M  V30 8449 N 852.864 0.259585 1.55447 0
M  V30 8450 C 854.112 -0.360893 1.98852 0
M  V30 8451 C 854.433 -1.57535 1.14924 0
M  V30 8452 O 853.703 -1.94485 0.235025 0
M  V30 8453 H 852.283 -0.136332 0.734454 0
M  V30 8454 H 854.945 0.361319 1.91522 0
M  V30 8455 H 854.041 -0.661388 3.05012 0
M  V30 8456 N 854.342 -1.57594 -0.0133615 0
M  V30 8457 C 855.589 -1.8998 -0.70098 0
M  V30 8458 C 855.917 -0.858802 -1.74513 0
M  V30 8459 O 855.172 0.138209 -1.95211 0
M  V30 8460 C 855.471 -3.29121 -1.39336 0
M  V30 8461 C 855.137 -4.48298 -0.483687 0
M  V30 8462 C 853.799 -4.80635 -0.233186 0
M  V30 8463 C 856.151 -5.21003 0.143426 0
M  V30 8464 C 853.479 -5.83055 0.652943 0
M  V30 8465 C 855.831 -6.24366 1.01735 0
M  V30 8466 C 854.495 -6.55168 1.27716 0
M  V30 8467 H 853.765 -0.695187 -0.256507 0
M  V30 8468 H 856.412 -1.9146 0.0392965 0
M  V30 8469 H 854.717 -3.23703 -2.20735 0
M  V30 8470 H 856.414 -3.51433 -1.93121 0
M  V30 8471 H 853.004 -4.23024 -0.689092 0
M  V30 8472 H 857.188 -4.96286 -0.0371139 0
M  V30 8473 H 852.444 -6.05288 0.862379 0
M  V30 8474 H 856.618 -6.79839 1.5097 0
M  V30 8475 H 854.245 -7.34351 1.9655 0
M  V30 8476 N 855.82 0.285905 -1.54985 0
M  V30 8477 C 857.048 1.03776 -1.78992 0
M  V30 8478 C 857.463 1.80402 -0.556814 0
M  V30 8479 O 856.82 1.76242 0.473801 0
M  V30 8480 C 856.871 2.0065 -3.00702 0
M  V30 8481 O 856.592 1.27131 -4.19249 0
M  V30 8482 C 858.093 2.87753 -3.37214 0
M  V30 8483 H 855.313 0.307126 -0.596586 0
M  V30 8484 H 857.857 0.3206 -2.01971 0
M  V30 8485 H 856.012 2.67847 -2.79887 0
M  V30 8486 H 856.426 1.92316 -4.8797 0
M  V30 8487 H 857.9 3.51548 -4.2558 0
M  V30 8488 H 858.377 3.56848 -2.56039 0
M  V30 8489 H 858.983 2.26065 -3.60242 0
M  V30 8490 N 857.298 1.47698 0.54982 0
M  V30 8491 C 858.544 1.54931 1.30859 0
M  V30 8492 C 858.877 0.214021 1.93017 0
M  V30 8493 O 858.152 -0.778093 1.78258 0
M  V30 8494 C 858.435 2.67286 2.41309 0
M  V30 8495 C 858.288 4.10457 1.83971 0
M  V30 8496 C 859.607 2.75509 3.43195 0
M  V30 8497 H 856.726 0.56399 0.474431 0
M  V30 8498 H 859.368 1.79787 0.614541 0
M  V30 8499 H 857.518 2.46224 3.0051 0
M  V30 8500 H 859.19 4.42903 1.28974 0
M  V30 8501 H 857.433 4.18387 1.14606 0
M  V30 8502 H 858.104 4.84857 2.63851 0
M  V30 8503 H 860.58 2.94531 2.93923 0
M  V30 8504 H 859.456 3.55886 4.17895 0
M  V30 8505 H 859.717 1.82863 4.02509 0
M  V30 8506 N 858.776 -0.797141 1.35954 0
M  V30 8507 C 860.192 -1.09408 1.16198 0
M  V30 8508 C 860.392 -2.01491 -0.0191682 0
M  V30 8509 O 859.448 -2.42977 -0.686902 0
M  V30 8510 C 860.761 -1.71597 2.46931 0
M  V30 8511 C 862.309 -1.83974 2.53224 0
M  V30 8512 C 862.784 -2.49579 3.84024 0
M  V30 8513 N 864.275 -2.57055 3.85327 0
M  V30 8514 C 865.01 -3.08608 4.83268 0
M  V30 8515 N 864.506 -3.60527 5.91601 0
M  V30 8516 N 866.299 -3.07249 4.70696 0
M  V30 8517 H 858.45 -0.185209 2.11591 0
M  V30 8518 H 860.713 -0.144768 0.936881 0
M  V30 8519 H 860.419 -1.11404 3.3359 0
M  V30 8520 H 860.293 -2.71193 2.62172 0
M  V30 8521 H 862.68 -2.43308 1.66988 0
M  V30 8522 H 862.761 -0.83207 2.41889 0
M  V30 8523 H 862.405 -1.90892 4.70662 0
M  V30 8524 H 862.335 -3.50902 3.92651 0
M  V30 8525 H 864.826 -2.20283 3.07057 0
M  V30 8526 H 865.139 -3.98192 6.62317 0
M  V30 8527 H 863.484 -3.587 5.95281 0
M  V30 8528 H 866.675 -2.65972 3.85197 0
M  V30 8529 H 866.848 -3.47119 5.47186 0
M  V30 8530 N 860.254 -1.20106 -1.0204 0
M  V30 8531 C 861.5 -1.02042 -1.75951 0
M  V30 8532 C 861.855 0.443229 -1.87225 0
M  V30 8533 O 861.148 1.32477 -1.38421 0
M  V30 8534 C 861.342 -1.63308 -3.17908 0
M  V30 8535 C 861.171 -3.15478 -3.20474 0
M  V30 8536 C 859.941 -3.84432 -3.27933 0
M  V30 8537 C 862.139 -4.12747 -3.06829 0
M  V30 8538 N 860.121 -5.23925 -3.19963 0
M  V30 8539 C 861.492 -5.38892 -3.06586 0
M  V30 8540 C 863.547 -4.03996 -2.91018 0
M  V30 8541 C 862.25 -6.57296 -2.92154 0
M  V30 8542 C 864.276 -5.22019 -2.77938 0
M  V30 8543 C 863.638 -6.47067 -2.78358 0
M  V30 8544 H 859.737 -0.427602 -0.654737 0
M  V30 8545 H 862.321 -1.52216 -1.21402 0
M  V30 8546 H 860.492 -1.15723 -3.7076 0
M  V30 8547 H 862.224 -1.38597 -3.80227 0
M  V30 8548 H 858.979 -3.35269 -3.34502 0
M  V30 8549 H 859.403 -5.9694 -3.19362 0
M  V30 8550 H 864.045 -3.0813 -2.8951 0
M  V30 8551 H 861.763 -7.5334 -2.92412 0
M  V30 8552 H 865.349 -5.17057 -2.66728 0
M  V30 8553 H 864.229 -7.36857 -2.6835 0
M  V30 8554 N 861.732 1.21287 -1.00634 0
M  V30 8555 C 862.642 2.27388 -0.577226 0
M  V30 8556 C 863.658 1.69791 0.380399 0
M  V30 8557 O 864.834 1.99918 0.2439 0
M  V30 8558 C 861.899 3.46588 0.0880532 0
M  V30 8559 C 860.96 4.19453 -0.914222 0
M  V30 8560 C 860.193 5.32962 -0.280596 0
M  V30 8561 O 860.416 5.62895 0.922265 0
M  V30 8562 O 859.35 5.93666 -0.992196 0
M  V30 8563 H 863.176 2.66289 -1.46028 0
M  V30 8564 H 860.761 1.2771 -0.775283 0
M  V30 8565 H 862.643 4.18881 0.460094 0
M  V30 8566 H 861.318 3.09585 0.945461 0
M  V30 8567 H 860.225 3.49376 -1.33744 0
M  V30 8568 H 861.558 4.6037 -1.74126 0
M  V30 8569 N 863.21 0.781244 1.36873 0
M  V30 8570 C 864.438 0.361566 2.03716 0
M  V30 8571 C 864.853 -1.01937 1.58916 0
M  V30 8572 O 864.21 -1.65237 0.774783 0
M  V30 8573 C 864.261 0.406391 3.59208 0
M  V30 8574 O 863.982 1.73286 4.02372 0
M  V30 8575 C 865.483 -0.0236894 4.43294 0
M  V30 8576 H 862.703 0.150133 0.653988 0
M  V30 8577 H 865.247 1.05781 1.75016 0
M  V30 8578 H 863.402 -0.241364 3.86647 0
M  V30 8579 H 863.816 1.67804 4.96933 0
M  V30 8580 H 865.29 0.0588205 5.51969 0
M  V30 8581 H 865.767 -1.07529 4.25833 0
M  V30 8582 H 866.373 0.59624 4.211 0
M  V30 8583 N 864.689 -1.48329 0.532571 0
M  V30 8584 C 865.621 -2.27652 -0.265931 0
M  V30 8585 C 866.634 -1.35522 -0.902083 0
M  V30 8586 O 867.823 -1.60552 -0.780088 0
M  V30 8587 C 864.923 -3.0899 -1.39207 0
M  V30 8588 C 864.096 -4.28915 -0.857349 0
M  V30 8589 C 863.155 -4.92044 -1.86493 0
M  V30 8590 O 862.181 -5.51181 -1.42084 0
M  V30 8591 N 863.383 -4.84518 -3.19723 0
M  V30 8592 H 866.148 -2.96821 0.414389 0
M  V30 8593 H 863.709 -1.57684 0.367066 0
M  V30 8594 H 865.701 -3.48091 -2.06433 0
M  V30 8595 H 864.271 -2.42224 -1.97601 0
M  V30 8596 H 863.491 -3.94199 -0.00901765 0
M  V30 8597 H 864.779 -5.0654 -0.479025 0
M  V30 8598 H 864.177 -4.37628 -3.58467 0
M  V30 8599 H 862.734 -5.27712 -3.82575 0
M  V30 8600 N 866.167 -0.267825 -1.55308 0
M  V30 8601 C 867.099 0.65591 -2.19614 0
M  V30 8602 C 868.112 1.12302 -1.17865 0
M  V30 8603 O 869.301 1.04618 -1.44628 0
M  V30 8604 C 866.401 1.90582 -2.80235 0
M  V30 8605 C 865.574 1.58673 -4.07605 0
M  V30 8606 C 864.633 2.68836 -4.52343 0
M  V30 8607 O 863.659 2.35331 -5.18274 0
M  V30 8608 N 864.861 3.98752 -4.21873 0
M  V30 8609 H 867.626 0.105566 -2.99514 0
M  V30 8610 H 865.187 -0.0886263 -1.61657 0
M  V30 8611 H 867.179 2.63561 -3.07112 0
M  V30 8612 H 865.749 2.3654 -2.04371 0
M  V30 8613 H 864.969 0.691113 -3.88094 0
M  V30 8614 H 866.257 1.34845 -4.90606 0
M  V30 8615 H 865.655 4.28797 -3.68985 0
M  V30 8616 H 864.212 4.68131 -4.53537 0
M  V30 8617 N 867.645 1.57599 0.00500368 0
M  V30 8618 C 869.056 1.78462 0.54848 0
M  V30 8619 C 869.407 0.901869 1.74243 0
M  V30 8620 O 868.532 0.103014 2.16155 0
M  V30 8621 C 869.127 3.2365 1.00179 0
M  V30 8622 C 867.686 3.45627 1.49061 0
M  V30 8623 C 866.833 2.73794 0.439531 0
M  V30 8624 H 869.784 1.57151 -0.22118 0
M  V30 8625 H 869.805 3.31488 1.86805 0
M  V30 8626 H 869.317 3.87873 0.132607 0
M  V30 8627 H 867.418 2.86612 2.38085 0
M  V30 8628 H 867.531 4.54298 1.52152 0
M  V30 8629 H 865.895 2.38267 0.900043 0
M  V30 8630 H 866.678 3.40714 -0.420599 0
M  V30 8631 N 869.123 -0.277682 1.55134 0
M  V30 8632 C 870.033 -1.36524 1.90783 0
M  V30 8633 C 871.049 -1.54283 0.804542 0
M  V30 8634 O 872.225 -1.68499 1.10318 0
M  V30 8635 C 869.29 -2.70524 2.16835 0
M  V30 8636 C 868.351 -2.61552 3.40424 0
M  V30 8637 C 867.584 -3.89162 3.65224 0
M  V30 8638 O 867.807 -4.89624 2.92616 0
M  V30 8639 O 866.741 -3.89647 4.58758 0
M  V30 8640 H 870.567 -1.0929 2.83354 0
M  V30 8641 H 868.152 -0.475799 1.41621 0
M  V30 8642 H 870.034 -3.49765 2.35038 0
M  V30 8643 H 868.709 -2.97555 1.27448 0
M  V30 8644 H 867.616 -1.80704 3.27562 0
M  V30 8645 H 868.949 -2.39472 4.30016 0
M  V30 8646 N 870.601 -1.47988 -0.541979 0
M  V30 8647 C 871.841 -1.56982 -1.30905 0
M  V30 8648 C 872.205 -0.233153 -1.90579 0
M  V30 8649 O 873.406 -0.198018 -2.6807 0
M  V30 8650 C 871.677 -2.66787 -2.37823 0
M  V30 8651 S 873.236 -2.95467 -3.24414 0
M  V30 8652 H 870.054 -0.554165 -0.445446 0
M  V30 8653 H 872.656 -1.85448 -0.618803 0
M  V30 8654 H 871.36 -3.62483 -1.92443 0
M  V30 8655 H 870.891 -2.40184 -3.11569 0
M  V30 8656 H 872.906 -2.33846 -4.37642 0
M  V30 8657 N 872.079 0.78992 -1.36375 0
M  V30 8658 C 873.327 1.54472 -1.30319 0
M  V30 8659 C 873.648 1.94647 0.117338 0
M  V30 8660 O 872.918 1.64906 1.05748 0
M  V30 8661 H 871.498 0.572879 -0.479394 0
M  V30 8662 H 874.16 0.941245 -1.70665 0
M  V30 8663 H 873.256 2.45252 -1.93024 0
M  V30 8664 N 873.557 1.20646 1.01402 0
M  V30 8665 C 874.805 1.01618 1.74695 0
M  V30 8666 C 875.126 -0.452438 1.89679 0
M  V30 8667 O 874.396 -1.32693 1.44116 0
M  V30 8668 H 872.976 0.373013 0.647202 0
M  V30 8669 H 875.638 1.518 1.22241 0
M  V30 8670 H 874.734 1.47666 2.74957 0
M  V30 8671 N 875.035 -1.20752 1.01276 0
M  V30 8672 C 876.284 -1.8934 0.695229 0
M  V30 8673 C 876.597 -1.79459 -0.77806 0
M  V30 8674 O 877.803 -2.43146 -1.20799 0
M  V30 8675 C 876.259 -3.39548 1.1931 0
M  V30 8676 C 875.867 -3.58023 2.69302 0
M  V30 8677 C 877.611 -4.13714 0.950823 0
M  V30 8678 C 875.518 -5.02037 3.1259 0
M  V30 8679 H 874.448 -0.709084 0.25635 0
M  V30 8680 H 877.099 -1.36629 1.22494 0
M  V30 8681 H 875.481 -3.91559 0.591395 0
M  V30 8682 H 876.655 -3.16416 3.34989 0
M  V30 8683 H 874.97 -2.97222 2.9163 0
M  V30 8684 H 877.567 -5.19891 1.24971 0
M  V30 8685 H 877.91 -4.16147 -0.112791 0
M  V30 8686 H 878.443 -3.67792 1.51571 0
M  V30 8687 H 875.182 -5.04757 4.18211 0
M  V30 8688 H 874.702 -5.44469 2.51621 0
M  V30 8689 H 876.381 -5.70594 3.0501 0
M  V30 8690 N 876.513 -0.788492 -1.36457 0
M  V30 8691 C 877.443 -0.200468 -2.32638 0
M  V30 8692 C 878.424 0.664031 -1.56603 0
M  V30 8693 O 879.609 0.598045 -1.84762 0
M  V30 8694 C 876.739 0.666274 -3.40849 0
M  V30 8695 C 875.693 -0.0982574 -4.27887 0
M  V30 8696 C 875.019 0.889018 -5.27258 0
M  V30 8697 C 876.319 -1.28692 -5.06197 0
M  V30 8698 H 878.013 -1.00399 -2.82065 0
M  V30 8699 H 875.559 -0.484237 -1.35614 0
M  V30 8700 H 877.512 1.08757 -4.07124 0
M  V30 8701 H 876.236 1.50249 -2.89987 0
M  V30 8702 H 874.895 -0.500525 -3.63167 0
M  V30 8703 H 874.543 1.72024 -4.7267 0
M  V30 8704 H 874.243 0.381909 -5.86358 0
M  V30 8705 H 875.767 1.30891 -5.96406 0
M  V30 8706 H 877.181 -0.941429 -5.65517 0
M  V30 8707 H 875.578 -1.72726 -5.74705 0
M  V30 8708 H 876.648 -2.08273 -4.37893 0
M  V30 8709 N 877.991 1.48044 -0.54043 0
M  V30 8710 C 879.219 2.06895 -0.0145153 0
M  V30 8711 C 879.634 1.39552 1.27164 0
M  V30 8712 O 878.991 0.486454 1.75897 0
M  V30 8713 C 879.042 3.60934 0.202278 0
M  V30 8714 O 878.763 4.25749 -1.03293 0
M  V30 8715 C 880.264 4.36607 0.767387 0
M  V30 8716 H 877.484 0.66991 -0.0382368 0
M  V30 8717 H 880.028 1.90288 -0.749057 0
M  V30 8718 H 878.183 3.77111 0.886897 0
M  V30 8719 H 878.597 5.18048 -0.820167 0
M  V30 8720 H 880.071 5.45126 0.86845 0
M  V30 8721 H 880.548 4.01745 1.77477 0
M  V30 8722 H 881.154 4.25133 0.119002 0
M  V30 8723 N 879.47 0.276058 1.55163 0
M  V30 8724 C 880.718 -0.339782 1.99223 0
M  V30 8725 C 881.039 -1.56307 1.16589 0
M  V30 8726 O 880.309 -1.94225 0.25564 0
M  V30 8727 H 878.889 -0.128534 0.735859 0
M  V30 8728 H 881.551 0.381612 1.91128 0
M  V30 8729 H 880.647 -0.629 3.05696 0
M  V30 8730 N 880.948 -1.576 0.00335426 0
M  V30 8731 C 882.359 -1.7875 -0.539008 0
M  V30 8732 C 882.71 -0.911097 -1.73763 0
M  V30 8733 O 881.835 -0.114476 -2.16097 0
M  V30 8734 C 882.43 -3.24177 -0.984611 0
M  V30 8735 C 880.989 -3.46412 -1.47226 0
M  V30 8736 C 880.136 -2.74024 -0.425004 0
M  V30 8737 H 883.087 -1.57032 0.229511 0
M  V30 8738 H 883.108 -3.32474 -1.85044 0
M  V30 8739 H 882.62 -3.87938 -0.112035 0
M  V30 8740 H 880.721 -2.8787 -2.36562 0
M  V30 8741 H 880.834 -4.55098 -1.49741 0
M  V30 8742 H 879.198 -2.38741 -0.887394 0
M  V30 8743 H 879.981 -3.40486 0.438662 0
M  V30 8744 N 882.426 0.269451 -1.5528 0
M  V30 8745 C 883.656 1.01724 -1.79821 0
M  V30 8746 C 884.064 1.80298 -0.573532 0
M  V30 8747 O 883.407 1.77666 0.466963 0
M  V30 8748 C 883.469 2.02043 -2.97353 0
M  V30 8749 C 883.133 1.42375 -4.34256 0
M  V30 8750 C 884.13 0.837611 -5.13108 0
M  V30 8751 C 881.815 1.44988 -4.8092 0
M  V30 8752 C 883.809 0.285557 -6.3676 0
M  V30 8753 C 881.496 0.893969 -6.04526 0
M  V30 8754 C 882.494 0.312809 -6.82283 0
M  V30 8755 O 882.182 -0.234582 -8.03558 0
M  V30 8756 H 881.914 0.30604 -0.602757 0
M  V30 8757 H 884.468 0.30454 -2.0313 0
M  V30 8758 H 882.698 2.77082 -2.69745 0
M  V30 8759 H 884.387 2.6298 -3.09187 0
M  V30 8760 H 885.153 0.81009 -4.78187 0
M  V30 8761 H 881.032 1.89162 -4.20403 0
M  V30 8762 H 884.576 -0.168696 -6.97396 0
M  V30 8763 H 880.473 0.918742 -6.38928 0
M  V30 8764 H 881.241 -0.124282 -8.18406 0
M  V30 8765 N 883.904 1.48273 0.534124 0
M  V30 8766 C 885.152 1.55771 1.28762 0
M  V30 8767 C 885.473 0.231575 1.9362 0
M  V30 8768 O 884.743 -0.746533 1.81118 0
M  V30 8769 H 883.323 0.573851 0.47823 0
M  V30 8770 H 885.985 1.84712 0.621888 0
M  V30 8771 H 885.081 2.33657 2.06908 0
M  V30 8772 N 885.382 -0.782676 1.36792 0
M  V30 8773 C 886.607 -1.57676 1.34733 0
M  V30 8774 C 887.032 -1.87979 -0.0675253 0
M  V30 8775 O 886.39 -1.48404 -1.04144 0
M  V30 8776 C 886.438 -2.87047 2.18257 0
M  V30 8777 O 885.542 -3.80946 1.57969 0
M  V30 8778 H 884.883 -0.478034 0.460846 0
M  V30 8779 H 887.413 -0.969578 1.80168 0
M  V30 8780 H 887.423 -3.36254 2.31079 0
M  V30 8781 H 886.098 -2.64319 3.21104 0
M  V30 8782 H 884.675 -3.39558 1.54126 0
M  V30 8783 N 886.86 -1.21182 -1.00761 0
M  V30 8784 C 888.109 -1.02166 -1.73911 0
M  V30 8785 C 888.422 0.445638 -1.90456 0
M  V30 8786 O 889.628 0.755132 -2.60787 0
M  V30 8787 C 888.084 -1.77936 -3.12837 0
M  V30 8788 C 887.692 -3.28819 -3.04273 0
M  V30 8789 C 889.436 -1.67319 -3.90134 0
M  V30 8790 C 887.343 -3.97089 -4.38262 0
M  V30 8791 H 886.273 -0.378665 -0.652019 0
M  V30 8792 H 888.924 -1.44891 -1.12601 0
M  V30 8793 H 887.306 -1.28003 -3.74742 0
M  V30 8794 H 888.48 -3.86035 -2.51622 0
M  V30 8795 H 886.795 -3.39949 -2.40465 0
M  V30 8796 H 889.392 -2.15659 -4.8928 0
M  V30 8797 H 889.735 -0.630959 -4.11491 0
M  V30 8798 H 890.268 -2.14716 -3.34876 0
M  V30 8799 H 887.007 -5.01503 -4.22107 0
M  V30 8800 H 886.527 -3.44662 -4.90885 0
M  V30 8801 H 888.206 -4.01854 -5.07072 0
M  V30 8802 N 888.338 1.20213 -1.01915 0
M  V30 8803 C 889.285 2.2309 -0.591571 0
M  V30 8804 C 890.255 1.61465 0.389649 0
M  V30 8805 O 891.44 1.88606 0.288511 0
M  V30 8806 C 888.58 3.45045 0.0614028 0
M  V30 8807 C 887.693 4.21091 -0.964688 0
M  V30 8808 C 886.828 5.30448 -0.282499 0
M  V30 8809 C 885.867 5.98241 -1.29517 0
M  V30 8810 N 885.004 6.99182 -0.639472 0
M  V30 8811 H 889.844 2.59023 -1.47347 0
M  V30 8812 H 887.381 1.27274 -0.737547 0
M  V30 8813 H 889.339 4.14688 0.45714 0
M  V30 8814 H 887.969 3.09797 0.906937 0
M  V30 8815 H 887.021 3.50489 -1.47857 0
M  V30 8816 H 888.333 4.67662 -1.73475 0
M  V30 8817 H 887.487 6.06466 0.168603 0
M  V30 8818 H 886.226 4.84922 0.519843 0
M  V30 8819 H 885.231 5.20982 -1.75663 0
M  V30 8820 H 886.456 6.45853 -2.09884 0
M  V30 8821 H 884.402 6.55844 0.142955 0
M  V30 8822 H 884.319 7.43893 -1.34756 0
M  V30 8823 H 885.587 7.79212 -0.212047 0
M  V30 8824 N 889.816 0.795718 1.36037 0
M  V30 8825 C 891.041 0.38204 2.03851 0
M  V30 8826 C 891.466 -0.995553 1.59594 0
M  V30 8827 O 890.824 -1.64258 0.767401 0
M  V30 8828 C 890.872 0.461248 3.57638 0
M  V30 8829 O 889.976 -0.529448 4.08987 0
M  V30 8830 H 889.317 0.161227 0.644129 0
M  V30 8831 H 891.847 1.07858 1.73861 0
M  V30 8832 H 891.857 0.32712 4.06687 0
M  V30 8833 H 890.532 1.46613 3.89201 0
M  V30 8834 H 889.109 -0.35646 3.71192 0
M  V30 8835 N 891.294 -1.47756 0.548274 0
M  V30 8836 C 892.705 -1.8636 0.112547 0
M  V30 8837 C 893.056 -1.45589 -1.31523 0
M  V30 8838 O 892.181 -0.854874 -1.98799 0
M  V30 8839 C 892.776 -3.38224 0.197473 0
M  V30 8840 C 891.335 -3.75954 -0.183163 0
M  V30 8841 C 890.482 -2.7181 0.549059 0
M  V30 8842 H 893.433 -1.394 0.758506 0
M  V30 8843 H 893.454 -3.75957 -0.586217 0
M  V30 8844 H 892.966 -3.67868 1.23673 0
M  V30 8845 H 891.067 -3.51926 -1.22387 0
M  V30 8846 H 891.18 -4.78801 0.169178 0
M  V30 8847 H 889.544 -2.54699 -0.00682862 0
M  V30 8848 H 890.327 -3.04296 1.5893 0
M  V30 8849 N 892.772 -0.284283 -1.55015 0
M  V30 8850 C 894.02 0.329212 -1.99401 0
M  V30 8851 C 894.341 1.55687 -1.17416 0
M  V30 8852 O 893.611 1.94087 -0.265937 0
M  V30 8853 H 892.191 0.12463 -0.73653 0
M  V30 8854 H 894.853 -0.391743 -1.90922 0
M  V30 8855 H 893.949 0.61278 -3.06025 0
M  V30 8856 N 894.251 1.57596 -0.0117121 0
M  V30 8857 C 895.481 1.95077 0.680346 0
M  V30 8858 C 895.889 0.885793 1.67184 0
M  V30 8859 O 895.232 -0.142723 1.83145 0
M  V30 8860 C 895.294 3.28611 1.45791 0
M  V30 8861 C 894.958 4.52682 0.626706 0
M  V30 8862 C 895.955 5.19821 -0.0906223 0
M  V30 8863 C 893.64 4.99064 0.569229 0
M  V30 8864 C 895.634 6.31649 -0.854289 0
M  V30 8865 C 893.321 6.10779 -0.198155 0
M  V30 8866 C 894.319 6.76929 -0.908636 0
M  V30 8867 O 894.007 7.86501 -1.66348 0
M  V30 8868 H 893.739 0.647663 0.193672 0
M  V30 8869 H 896.293 2.05305 -0.0624969 0
M  V30 8870 H 894.523 3.14824 2.2455 0
M  V30 8871 H 896.212 3.51119 2.03642 0
M  V30 8872 H 896.978 4.84968 -0.0554421 0
M  V30 8873 H 892.857 4.47393 1.11178 0
M  V30 8874 H 896.401 6.83215 -1.40937 0
M  V30 8875 H 892.298 6.45072 -0.235114 0
M  V30 8876 H 893.066 8.03078 -1.58141 0
M  V30 8877 N 895.729 -0.261212 1.5542 0
M  V30 8878 C 897.14 -0.83138 1.67167 0
M  V30 8879 C 897.491 -1.8659 0.606525 0
M  V30 8880 O 896.616 -2.14953 -0.24985 0
M  V30 8881 C 897.211 -1.51475 3.03052 0
M  V30 8882 C 895.77 -2.0328 3.16787 0
M  V30 8883 C 894.917 -0.878903 2.63003 0
M  V30 8884 H 897.868 -0.0373102 1.58656 0
M  V30 8885 H 897.889 -2.38222 2.96699 0
M  V30 8886 H 897.401 -0.76157 3.80554 0
M  V30 8887 H 895.502 -2.81523 2.44082 0
M  V30 8888 H 895.615 -2.24001 4.2351 0
M  V30 8889 H 893.979 -1.27551 2.2046 0
M  V30 8890 H 894.762 -0.13904 3.43018 0
M  V30 8891 N 897.207 -1.48554 -0.526253 0
M  V30 8892 C 898.455 -1.56452 -1.27935 0
M  V30 8893 C 898.776 -0.24184 -1.93495 0
M  V30 8894 O 898.046 0.736917 -1.81511 0
M  V30 8895 H 896.626 -0.576379 -0.47518 0
M  V30 8896 H 899.288 -1.85039 -0.612083 0
M  V30 8897 H 898.384 -2.34751 -2.05666 0
M  V30 8898 N 898.685 0.775411 -1.37205 0
M  V30 8899 C 899.633 1.90996 -1.32752 0
M  V30 8900 C 900.627 1.68006 -0.216907 0
M  V30 8901 O 901.833 1.7584 -0.384723 0
M  V30 8902 H 898.208 0.62803 -0.413621 0
M  V30 8903 H 900.179 1.91869 -2.28536 0
M  V30 8904 C 898.928 3.28211 -1.14772 0
M  V30 8905 H 898.251 3.46477 -1.99484 0
M  V30 8906 H 899.691 4.07907 -1.15706 0
M  V30 8907 C 898.15 3.3658 0.146852 0
M  V30 8908 O 898.68 3.85428 1.13173 0
M  V30 8909 N 896.886 2.89936 0.196305 0
M  V30 8910 H 896.433 2.50375 -0.605807 0
M  V30 8911 H 896.391 2.95916 1.06212 0
M  V30 8912 N 900.163 1.21714 1.00117 0
M  V30 8913 C 901.393 1.06124 1.77261 0
M  V30 8914 C 901.801 -0.391717 1.85101 0
M  V30 8915 O 901.144 -1.28347 1.31426 0
M  V30 8916 C 901.206 1.58778 3.22536 0
M  V30 8917 C 900.87 3.07289 3.38264 0
M  V30 8918 C 901.867 4.04801 3.26239 0
M  V30 8919 C 899.552 3.46574 3.63582 0
M  V30 8920 C 901.546 5.39585 3.39303 0
M  V30 8921 C 899.233 4.81509 3.76288 0
M  V30 8922 C 900.231 5.77824 3.64155 0
M  V30 8923 O 899.919 7.1031 3.7645 0
M  V30 8924 H 899.651 0.372979 0.563793 0
M  V30 8925 H 902.205 1.61589 1.26799 0
M  V30 8926 H 900.435 0.977129 3.74151 0
M  V30 8927 H 902.124 1.38974 3.81367 0
M  V30 8928 H 902.89 3.75795 3.066 0
M  V30 8929 H 898.769 2.72137 3.72106 0
M  V30 8930 H 902.313 6.14744 3.2975 0
M  V30 8931 H 898.21 5.102 3.95432 0
M  V30 8932 H 898.978 7.17774 3.93374 0
M  V30 8933 N 901.641 -1.19671 1.02551 0
M  V30 8934 C 903.052 -1.70964 0.750208 0
M  V30 8935 C 903.403 -1.82095 -0.730461 0
M  V30 8936 O 902.528 -1.48974 -1.56958 0
M  V30 8937 C 903.123 -3.10516 1.35518 0
M  V30 8938 C 901.682 -3.59083 1.12854 0
M  V30 8939 C 900.829 -2.36041 1.45534 0
M  V30 8940 H 903.78 -1.04559 1.19386 0
M  V30 8941 H 903.801 -3.73028 0.750378 0
M  V30 8942 H 903.313 -3.02383 2.43282 0
M  V30 8943 H 901.414 -3.72536 0.0689627 0
M  V30 8944 H 901.527 -4.43395 1.81488 0
M  V30 8945 H 899.891 -2.39214 0.87458 0
M  V30 8946 H 900.674 -2.3054 2.54374 0
M  V30 8947 N 903.119 -0.802921 -1.35613 0
M  V30 8948 C 904.53 -0.443004 -1.81368 0
M  V30 8949 C 904.881 1.03459 -1.66706 0
M  V30 8950 O 904.006 1.80372 -1.19561 0
M  V30 8951 C 904.601 -0.797324 -3.29284 0
M  V30 8952 C 903.16 -0.490055 -3.73196 0
M  V30 8953 C 902.307 -1.02487 -2.57666 0
M  V30 8954 H 905.258 -0.994888 -1.23643 0
M  V30 8955 H 905.279 -0.0934638 -3.80385 0
M  V30 8956 H 904.791 -1.87278 -3.39924 0
M  V30 8957 H 902.892 0.576818 -3.68108 0
M  V30 8958 H 903.005 -1.02012 -4.68114 0
M  V30 8959 H 901.369 -0.44738 -2.5074 0
M  V30 8960 H 902.152 -2.10636 -2.71085 0
M  V30 8961 N 904.597 1.47463 -0.556102 0
M  V30 8962 C 905.845 2.02075 -0.0315712 0
M  V30 8963 C 906.166 1.43292 1.32259 0
M  V30 8964 O 905.436 0.60771 1.86236 0
M  V30 8965 H 904.016 0.74695 -0.0086816 0
M  V30 8966 H 906.678 1.80879 -0.725859 0
M  V30 8967 H 905.774 3.12047 0.0573538 0
M  V30 8968 N 906.075 0.2925 1.54862 0
M  V30 8969 C 907.491 -0.0611461 1.59483 0
M  V30 8970 C 907.691 -1.53141 1.30958 0
M  V30 8971 O 906.747 -2.28291 1.07887 0
M  V30 8972 C 908.06 0.329143 2.98893 0
M  V30 8973 C 909.608 0.2772 3.1177 0
M  V30 8974 C 910.083 0.642185 4.53475 0
M  V30 8975 N 911.574 0.594396 4.5937 0
M  V30 8976 C 912.309 0.849385 5.67074 0
M  V30 8977 N 911.805 1.1699 6.82851 0
M  V30 8978 N 913.598 0.777016 5.56704 0
M  V30 8979 H 905.749 1.25079 1.71665 0
M  V30 8980 H 908.012 0.506516 0.80134 0
M  V30 8981 H 907.718 1.35233 3.24661 0
M  V30 8982 H 907.592 -0.321442 3.75828 0
M  V30 8983 H 909.979 -0.736725 2.85756 0
M  V30 8984 H 910.06 0.962289 2.3701 0
M  V30 8985 H 909.704 1.65388 4.80218 0
M  V30 8986 H 909.634 -0.0648831 5.2656 0
M  V30 8987 H 912.125 0.357256 3.76208 0
M  V30 8988 H 912.438 1.35067 7.60905 0
M  V30 8989 H 910.783 1.20785 6.84424 0
M  V30 8990 H 913.974 0.526333 4.65132 0
M  V30 8991 H 914.147 0.979113 6.4056 0
M  V30 8992 N 907.553 -1.57587 0.0200696 0
M  V30 8993 C 908.83 -1.82696 -0.698677 0
M  V30 8994 C 909.21 -0.902082 -1.90855 0
M  V30 8995 O 908.558 0.0444834 -2.28457 0
M  V30 8996 C 908.768 -3.31691 -1.08546 0
M  V30 8997 C 910.116 -3.97938 -1.4809 0
M  V30 8998 O 911.14 -3.36133 -1.17869 0
M  V30 8999 O 909.999 -5.06851 -2.04364 0
M  V30 9000 H 907.093 -0.752997 -0.341942 0
M  V30 9001 H 909.639 -1.69635 0.04706 0
M  V30 9002 H 908.411 -3.90659 -0.223956 0
M  V30 9003 H 908.034 -3.49825 -1.88965 0
M  V30 9004 N 909.032 0.252966 -1.55557 0
M  V30 9005 C 910.272 0.989276 -1.78865 0
M  V30 9006 C 910.636 1.82755 -0.588615 0
M  V30 9007 O 911.837 2.59516 -0.700347 0
M  V30 9008 C 910.108 1.83203 -3.06874 0
M  V30 9009 S 911.667 2.62826 -3.5138 0
M  V30 9010 H 908.485 0.332863 -0.62827 0
M  V30 9011 H 911.087 0.257716 -1.93794 0
M  V30 9012 H 909.791 1.20579 -3.92287 0
M  V30 9013 H 909.322 2.60644 -2.94666 0
M  V30 9014 H 911.337 3.85648 -3.12234 0
M  V30 9015 N 910.51 1.48831 0.518367 0
M  V30 9016 C 911.756 1.57672 1.27543 0
M  V30 9017 C 912.089 0.254915 1.9252 0
M  V30 9018 O 911.364 -0.740107 1.79868 0
M  V30 9019 C 911.647 2.72345 2.35585 0
M  V30 9020 C 911.5 4.14267 1.75224 0
M  V30 9021 C 912.819 2.82726 3.37274 0
M  V30 9022 H 909.938 0.573926 0.462361 0
M  V30 9023 H 912.58 1.8105 0.576267 0
M  V30 9024 H 910.73 2.52543 2.95219 0
M  V30 9025 H 912.402 4.45539 1.19551 0
M  V30 9026 H 910.645 4.20724 1.05706 0
M  V30 9027 H 911.316 4.90345 2.53507 0
M  V30 9028 H 913.792 3.00699 2.8761 0
M  V30 9029 H 912.668 3.6467 4.10252 0
M  V30 9030 H 912.929 1.9136 3.9854 0
M  V30 9031 N 911.988 -0.768124 1.37614 0
M  V30 9032 C 913.234 -1.52823 1.34226 0
M  V30 9033 C 913.589 -1.92266 -0.0717482 0
M  V30 9034 O 912.882 -1.61484 -1.03119 0
M  V30 9035 C 913.076 -2.80204 2.21856 0
M  V30 9036 C 912.905 -2.53213 3.71636 0
M  V30 9037 C 911.675 -2.47159 4.40727 0
M  V30 9038 C 913.873 -2.20965 4.64413 0
M  V30 9039 N 911.855 -2.12289 5.76026 0
M  V30 9040 C 913.226 -1.96264 5.88116 0
M  V30 9041 C 915.281 -2.07151 4.52761 0
M  V30 9042 C 913.984 -1.59145 7.01474 0
M  V30 9043 C 916.01 -1.71432 5.66008 0
M  V30 9044 C 915.372 -1.47594 6.88764 0
M  V30 9045 H 911.471 -0.559388 0.546451 0
M  V30 9046 H 914.055 -0.895795 1.72869 0
M  V30 9047 H 912.226 -3.4128 1.85424 0
M  V30 9048 H 913.958 -3.46133 2.097 0
M  V30 9049 H 910.713 -2.63137 3.93772 0
M  V30 9050 H 911.137 -1.97541 6.47539 0
M  V30 9051 H 915.779 -2.24262 3.58422 0
M  V30 9052 H 913.497 -1.40773 7.95744 0
M  V30 9053 H 917.083 -1.61397 5.58965 0
M  V30 9054 H 915.963 -1.20365 7.74908 0
M  V30 9055 N 913.466 -1.22244 -0.994698 0
M  V30 9056 C 914.715 -1.04005 -1.72817 0
M  V30 9057 C 915.028 0.425413 -1.90918 0
M  V30 9058 O 916.234 0.727429 -2.61574 0
M  V30 9059 C 914.69 -1.81244 -3.10932 0
M  V30 9060 C 914.298 -3.32028 -3.00768 0
M  V30 9061 C 916.042 -1.71448 -3.88337 0
M  V30 9062 C 913.949 -4.01716 -4.34026 0
M  V30 9063 H 912.879 -0.385559 -0.647966 0
M  V30 9064 H 915.53 -1.46077 -1.11058 0
M  V30 9065 H 913.912 -1.3197 -3.73363 0
M  V30 9066 H 915.086 -3.88682 -2.47513 0
M  V30 9067 H 913.401 -3.4248 -2.36846 0
M  V30 9068 H 915.998 -2.20836 -4.86965 0
M  V30 9069 H 916.341 -0.674568 -4.10798 0
M  V30 9070 H 916.874 -2.18256 -3.3258 0
M  V30 9071 H 913.613 -5.05952 -4.16765 0
M  V30 9072 H 913.133 -3.49849 -4.87202 0
M  V30 9073 H 914.812 -4.0721 -5.02782 0
M  V30 9074 N 914.944 1.19125 -1.03184 0
M  V30 9075 C 916.19 1.89163 -0.731111 0
M  V30 9076 C 916.523 1.79604 0.738662 0
M  V30 9077 O 915.798 1.19037 1.53819 0
M  V30 9078 C 916.081 3.39986 -1.18666 0
M  V30 9079 C 915.934 3.58401 -2.71788 0
M  V30 9080 C 917.253 4.33316 -0.769772 0
M  V30 9081 H 914.372 0.686908 -0.267069 0
M  V30 9082 H 917.014 1.40205 -1.28229 0
M  V30 9083 H 915.164 3.81813 -0.717736 0
M  V30 9084 H 916.836 3.25727 -3.26649 0
M  V30 9085 H 915.079 3.01355 -3.12038 0
M  V30 9086 H 915.75 4.64189 -2.98719 0
M  V30 9087 H 918.226 3.9922 -1.17314 0
M  V30 9088 H 917.102 5.37427 -1.11637 0
M  V30 9089 H 917.363 4.40884 0.327681 0
M  V30 9090 N 916.422 0.810101 1.35185 0
M  V30 9091 C 917.668 0.392698 1.98962 0
M  V30 9092 C 918.001 -1.03835 1.64109 0
M  V30 9093 O 917.276 -1.721 0.9062 0
M  V30 9094 C 917.559 0.580349 3.55393 0
M  V30 9095 C 917.412 2.05658 4.00031 0
M  V30 9096 C 918.731 0.00822618 4.40099 0
M  V30 9097 H 915.85 0.144157 0.722764 0
M  V30 9098 H 918.492 1.02029 1.60281 0
M  V30 9099 H 916.642 0.0461106 3.88473 0
M  V30 9100 H 918.314 2.65348 3.77344 0
M  V30 9101 H 916.557 2.55174 3.50811 0
M  V30 9102 H 917.228 2.13875 5.08883 0
M  V30 9103 H 919.704 0.464517 4.13499 0
M  V30 9104 H 918.58 0.169414 5.48638 0
M  V30 9105 H 918.841 -1.08576 4.2856 0
M  V30 9106 N 917.9 -1.47166 0.563914 0
M  V30 9107 C 919.128 -2.06846 0.0474287 0
M  V30 9108 C 919.543 -1.41557 -1.24928 0
M  V30 9109 O 918.9 -0.514376 -1.75101 0
M  V30 9110 C 918.951 -3.6121 -0.144831 0
M  V30 9111 O 918.672 -4.24052 1.10053 0
M  V30 9112 C 920.173 -4.37773 -0.69783 0
M  V30 9113 H 917.393 -0.669217 0.0488896 0
M  V30 9114 H 919.937 -1.89072 0.779235 0
M  V30 9115 H 918.092 -3.78474 -0.82679 0
M  V30 9116 H 918.506 -5.16677 0.902481 0
M  V30 9117 H 919.98 -5.46438 -0.781616 0
M  V30 9118 H 920.457 -4.04517 -1.71063 0
M  V30 9119 H 921.063 -4.25269 -0.0513516 0
M  V30 9120 N 919.378 -0.300708 -1.54705 0
M  V30 9121 C 920.603 0.314073 -2.05008 0
M  V30 9122 C 921.028 1.46759 -1.17657 0
M  V30 9123 O 920.386 1.80398 -0.180598 0
M  V30 9124 C 920.434 0.748243 -3.52752 0
M  V30 9125 O 919.538 1.85305 -3.68424 0
M  V30 9126 H 918.879 0.0610139 -0.661191 0
M  V30 9127 H 921.409 -0.442467 -1.99758 0
M  V30 9128 H 921.419 1.03713 -3.94598 0
M  V30 9129 H 920.094 -0.095573 -4.1579 0
M  V30 9130 H 918.671 1.56473 -3.38483 0
M  V30 9131 N 920.856 1.57574 -0.0284266 0
M  V30 9132 C 922.267 1.79585 0.510502 0
M  V30 9133 C 922.618 0.938625 1.72291 0
M  V30 9134 O 921.743 0.14884 2.15888 0
M  V30 9135 C 922.338 3.25703 0.932912 0
M  V30 9136 C 920.897 3.48711 1.41696 0
M  V30 9137 C 920.044 2.74665 0.381356 0
M  V30 9138 H 922.995 1.56647 -0.254464 0
M  V30 9139 H 923.016 3.35376 1.79731 0
M  V30 9140 H 922.528 3.88067 0.0503036 0
M  V30 9141 H 920.629 2.91597 2.31952 0
M  V30 9142 H 920.742 4.57423 1.42481 0
M  V30 9143 H 919.106 2.40123 0.8493 0
M  V30 9144 H 919.889 3.39745 -0.492775 0
M  V30 9145 N 922.334 -0.244713 1.55689 0
M  V30 9146 C 923.611 -0.995407 1.68378 0
M  V30 9147 C 923.991 -2.03288 0.568949 0
M  V30 9148 O 923.339 -2.24469 -0.427299 0
M  V30 9149 C 923.549 -1.62678 3.08767 0
M  V30 9150 C 924.897 -2.1278 3.67437 0
M  V30 9151 O 925.921 -1.72614 3.11581 0
M  V30 9152 O 924.78 -2.86536 4.65359 0
M  V30 9153 H 921.874 -0.463476 0.684923 0
M  V30 9154 H 924.42 -0.238326 1.68018 0
M  V30 9155 H 923.192 -0.876469 3.81358 0
M  V30 9156 H 922.815 -2.45 3.13146 0
M  V30 9157 N 923.813 -1.49104 -0.510467 0
M  V30 9158 C 924.743 -1.67981 -1.62187 0
M  V30 9159 C 925.724 -0.528529 -1.6168 0
M  V30 9160 O 926.909 -0.763305 -1.7857 0
M  V30 9161 C 924.039 -1.73755 -3.0071 0
M  V30 9162 C 922.993 -2.88579 -3.1608 0
M  V30 9163 C 922.319 -2.79457 -4.5586 0
M  V30 9164 C 923.619 -4.29638 -2.97 0
M  V30 9165 H 925.313 -2.61029 -1.46643 0
M  V30 9166 H 922.859 -1.25615 -0.704042 0
M  V30 9167 H 924.812 -1.85548 -3.78352 0
M  V30 9168 H 923.536 -0.772996 -3.17321 0
M  V30 9169 H 922.195 -2.76372 -2.40861 0
M  V30 9170 H 921.843 -1.80929 -4.69333 0
M  V30 9171 H 921.543 -3.56518 -4.67086 0
M  V30 9172 H 923.067 -2.93245 -5.35574 0
M  V30 9173 H 924.481 -4.42575 -3.64418 0
M  V30 9174 H 922.878 -5.07847 -3.19704 0
M  V30 9175 H 923.948 -4.44741 -1.93219 0
M  V30 9176 N 925.291 0.760815 -1.38019 0
M  V30 9177 C 926.221 1.88811 -1.37377 0
M  V30 9178 C 927.202 1.68388 -0.240737 0
M  V30 9179 O 928.387 1.89086 -0.442739 0
M  V30 9180 C 925.517 3.26244 -1.1909 0
M  V30 9181 C 924.471 3.61254 -2.29521 0
M  V30 9182 C 923.797 4.97346 -1.96345 0
M  V30 9183 C 925.097 3.66874 -3.71753 0
M  V30 9184 H 926.791 1.89606 -2.31711 0
M  V30 9185 H 924.337 0.910818 -1.11535 0
M  V30 9186 H 926.29 4.04755 -1.17267 0
M  V30 9187 H 925.014 3.2591 -0.212152 0
M  V30 9188 H 923.673 2.85057 -2.30517 0
M  V30 9189 H 923.321 4.93564 -0.969728 0
M  V30 9190 H 923.021 5.21739 -2.703 0
M  V30 9191 H 924.545 5.78244 -1.96129 0
M  V30 9192 H 925.959 4.35514 -3.72828 0
M  V30 9193 H 924.356 4.02772 -4.44853 0
M  V30 9194 H 925.426 2.67273 -4.0459 0
M  V30 9195 N 926.769 1.22769 0.988202 0
M  V30 9196 C 928.015 1.05665 1.73097 0
M  V30 9197 C 928.348 -0.406615 1.89895 0
M  V30 9198 O 927.623 -1.30132 1.44554 0
M  V30 9199 C 927.906 1.77381 3.13382 0
M  V30 9200 C 927.759 3.31332 3.04203 0
M  V30 9201 C 929.078 1.52999 4.12649 0
M  V30 9202 H 926.197 0.385258 0.628288 0
M  V30 9203 H 928.839 1.51171 1.15097 0
M  V30 9204 H 926.989 1.38696 3.62899 0
M  V30 9205 H 928.661 3.79489 2.6227 0
M  V30 9206 H 926.904 3.60767 2.40894 0
M  V30 9207 H 927.575 3.76692 4.03493 0
M  V30 9208 H 930.051 1.86611 3.71908 0
M  V30 9209 H 928.927 2.05666 5.08913 0
M  V30 9210 H 929.188 0.463615 4.39662 0
M  V30 9211 N 928.247 -1.18576 1.03814 0
M  V30 9212 C 929.475 -1.92437 0.759966 0
M  V30 9213 C 929.89 -1.76031 -0.682526 0
M  V30 9214 O 929.247 -1.08829 -1.46501 0
M  V30 9215 C 929.298 -3.43923 1.11351 0
M  V30 9216 O 929.019 -3.5981 2.49937 0
M  V30 9217 C 930.52 -4.34888 0.859472 0
M  V30 9218 H 927.74 -0.610998 0.277349 0
M  V30 9219 H 930.284 -1.50448 1.38512 0
M  V30 9220 H 928.439 -3.83711 0.533362 0
M  V30 9221 H 928.853 -4.53569 2.63393 0
M  V30 9222 H 930.327 -5.39744 1.15672 0
M  V30 9223 H 930.804 -4.38717 -0.205839 0
M  V30 9224 H 931.41 -4.00795 1.42279 0
M  V30 9225 N 929.725 -0.817259 -1.34754 0
M  V30 9226 C 930.972 -0.402648 -1.98457 0
M  V30 9227 C 931.3 1.03287 -1.64809 0
M  V30 9228 O 930.555 1.73316 -0.908851 0
M  V30 9229 C 930.854 -0.5453 -3.53216 0
M  V30 9230 C 930.52 -1.9457 -4.06759 0
M  V30 9231 C 929.182 -2.32881 -4.21094 0
M  V30 9232 C 931.534 -2.86141 -4.35629 0
M  V30 9233 C 928.862 -3.62108 -4.61622 0
M  V30 9234 C 931.214 -4.14826 -4.776 0
M  V30 9235 C 929.878 -4.53121 -4.9014 0
M  V30 9236 H 929.148 -0.147339 -0.726204 0
M  V30 9237 H 931.795 -1.04011 -1.60791 0
M  V30 9238 H 930.1 0.175576 -3.91406 0
M  V30 9239 H 931.797 -0.205112 -4.00475 0
M  V30 9240 H 928.387 -1.6381 -3.96061 0
M  V30 9241 H 932.571 -2.57788 -4.24098 0
M  V30 9242 H 927.827 -3.91613 -4.69521 0
M  V30 9243 H 932.001 -4.85874 -4.98899 0
M  V30 9244 H 929.628 -5.53307 -5.21302 0
M  V30 9245 N 931.203 1.46865 -0.571711 0
M  V30 9246 C 932.431 2.06818 -0.0583975 0
M  V30 9247 C 932.846 1.42218 1.24175 0
M  V30 9248 O 932.203 0.523655 1.74826 0
M  V30 9249 C 932.254 3.61281 0.125673 0
M  V30 9250 O 931.975 4.23462 -1.123 0
M  V30 9251 C 933.476 4.38137 0.674604 0
M  V30 9252 H 930.696 0.668948 -0.052438 0
M  V30 9253 H 933.24 1.88656 -0.789251 0
M  V30 9254 H 931.395 3.78908 0.806707 0
M  V30 9255 H 931.809 5.16192 -0.929869 0
M  V30 9256 H 933.283 5.46845 0.752626 0
M  V30 9257 H 933.76 4.05419 1.68915 0
M  V30 9258 H 934.366 4.2529 0.0287979 0
M  V30 9259 N 932.681 0.308908 1.54543 0
M  V30 9260 C 933.928 -0.298036 2.00295 0
M  V30 9261 C 934.256 -1.53285 1.19724 0
M  V30 9262 O 933.511 -1.93917 0.263551 0
M  V30 9263 C 933.81 -0.691522 3.50646 0
M  V30 9264 C 933.476 0.442454 4.48724 0
M  V30 9265 C 932.138 0.753739 4.7526 0
M  V30 9266 C 934.49 1.20488 5.07082 0
M  V30 9267 C 931.818 1.83044 5.57415 0
M  V30 9268 C 934.17 2.27156 5.90409 0
M  V30 9269 C 932.834 2.58882 6.15253 0
M  V30 9270 H 932.104 -0.109059 0.73293 0
M  V30 9271 H 934.751 0.429647 1.86618 0
M  V30 9272 H 933.056 -1.49941 3.61974 0
M  V30 9273 H 934.753 -1.17244 3.83477 0
M  V30 9274 H 931.343 0.189744 4.2818 0
M  V30 9275 H 935.527 0.977653 4.86575 0
M  V30 9276 H 930.783 2.08088 5.749 0
M  V30 9277 H 934.957 2.86687 6.34652 0
M  V30 9278 H 932.584 3.42443 6.78702 0
M  V30 9279 N 934.159 -1.57557 0.0367827 0
M  V30 9280 C 935.407 -1.91735 -0.63892 0
M  V30 9281 C 935.728 -0.914515 -1.72226 0
M  V30 9282 O 934.998 0.0428248 -1.95853 0
M  V30 9283 H 933.578 -0.707738 -0.23899 0
M  V30 9284 H 936.24 -1.94708 0.0863931 0
M  V30 9285 H 935.336 -2.92568 -1.08676 0
M  V30 9286 N 935.637 0.236453 -1.55816 0
M  V30 9287 C 936.865 0.980295 -1.82203 0
M  V30 9288 C 937.28 1.7854 -0.613926 0
M  V30 9289 O 936.637 1.77661 0.417491 0
M  V30 9290 C 936.688 1.90982 -3.06933 0
M  V30 9291 O 936.409 1.13728 -4.23081 0
M  V30 9292 C 937.91 2.76879 -3.46198 0
M  V30 9293 H 935.13 0.28799 -0.606055 0
M  V30 9294 H 937.674 0.256182 -2.02889 0
M  V30 9295 H 935.829 2.58808 -2.88266 0
M  V30 9296 H 936.243 1.76694 -4.93842 0
M  V30 9297 H 937.717 3.37831 -4.36548 0
M  V30 9298 H 938.194 3.48522 -2.67262 0
M  V30 9299 H 938.8 2.1449 -3.67252 0
M  V30 9300 N 937.115 1.49373 0.502552 0
M  V30 9301 C 938.045 1.68839 1.61294 0
M  V30 9302 C 939.026 0.537096 1.61398 0
M  V30 9303 O 940.211 0.772764 1.78163 0
M  V30 9304 C 937.341 1.75347 2.99784 0
M  V30 9305 C 936.295 2.90251 3.14545 0
M  V30 9306 C 935.621 2.8187 4.54371 0
M  V30 9307 C 936.921 4.31207 2.94717 0
M  V30 9308 H 938.615 2.61803 1.45257 0
M  V30 9309 H 936.161 1.25987 0.697371 0
M  V30 9310 H 938.114 1.87552 3.77362 0
M  V30 9311 H 936.838 0.789814 3.16906 0
M  V30 9312 H 935.497 2.77646 2.39392 0
M  V30 9313 H 935.145 1.83416 4.68367 0
M  V30 9314 H 934.845 3.5899 4.65188 0
M  V30 9315 H 936.369 2.96081 5.34012 0
M  V30 9316 H 937.783 4.44501 3.62065 0
M  V30 9317 H 936.18 5.09536 3.17007 0
M  V30 9318 H 937.25 4.45759 1.90857 0
M  V30 9319 N 938.594 -0.753485 1.38421 0
M  V30 9320 C 939.819 -1.54783 1.38047 0
M  V30 9321 C 940.244 -1.8808 -0.0276371 0
M  V30 9322 O 939.602 -1.5058 -1.00973 0
M  V30 9323 C 939.65 -2.82353 2.24297 0
M  V30 9324 O 938.754 -3.77509 1.66014 0
M  V30 9325 H 938.095 -0.468151 0.470883 0
M  V30 9326 H 940.625 -0.931144 1.82184 0
M  V30 9327 H 940.635 -3.31277 2.38159 0
M  V30 9328 H 939.31 -2.57449 3.26639 0
M  V30 9329 H 937.887 -3.36212 1.61294 0
M  V30 9330 N 940.072 -1.23292 -0.981677 0
M  V30 9331 C 941.002 -1.03738 -2.09191 0
M  V30 9332 C 941.983 0.0453041 -1.7004 0
M  V30 9333 O 943.168 -0.119092 -1.93834 0
M  V30 9334 C 940.298 -0.626426 -3.41604 0
M  V30 9335 C 939.252 -1.65631 -3.94652 0
M  V30 9336 C 938.578 -1.10084 -5.23245 0
M  V30 9337 C 939.878 -3.04903 -4.24066 0
M  V30 9338 H 941.572 -1.966 -2.25807 0
M  V30 9339 H 939.118 -0.946656 -1.0851 0
M  V30 9340 H 941.071 -0.476689 -4.18695 0
M  V30 9341 H 939.795 0.337873 -3.24848 0
M  V30 9342 H 938.454 -1.79402 -3.19704 0
M  V30 9343 H 938.102 -0.127562 -5.02838 0
M  V30 9344 H 937.802 -1.78896 -5.59705 0
M  V30 9345 H 939.326 -0.962928 -6.02959 0
M  V30 9346 H 940.74 -2.94441 -4.91912 0
M  V30 9347 H 939.137 -3.70941 -4.71724 0
M  V30 9348 H 940.207 -3.53991 -3.31389 0
M  V30 9349 N 941.55 1.18024 -1.04442 0
M  V30 9350 C 942.46 2.25436 -0.649276 0
M  V30 9351 C 943.476 1.70915 0.326189 0
M  V30 9352 O 944.652 2.00592 0.180174 0
M  V30 9353 C 941.717 3.46693 -0.0222558 0
M  V30 9354 C 940.778 4.16332 -1.0472 0
M  V30 9355 C 940.011 5.31799 -0.450011 0
M  V30 9356 O 940.234 5.65544 0.742717 0
M  V30 9357 O 939.168 5.90209 -1.18056 0
M  V30 9358 H 942.994 2.61508 -1.54426 0
M  V30 9359 H 940.579 1.25178 -0.81552 0
M  V30 9360 H 942.461 4.20132 0.326597 0
M  V30 9361 H 941.136 3.12436 0.84649 0
M  V30 9362 H 940.043 3.44944 -1.44792 0
M  V30 9363 H 941.376 4.54598 -1.88684 0
M  V30 9364 N 943.028 0.824394 1.34319 0
M  V30 9365 C 943.978 0.219624 2.2694 0
M  V30 9366 C 944.962 -0.616964 1.48601 0
M  V30 9367 O 946.154 -0.471303 1.7061 0
M  V30 9368 C 943.283 -0.616379 3.37721 0
M  V30 9369 C 942.369 0.230917 4.23471 0
M  V30 9370 N 942.76 1.30264 4.88738 0
M  V30 9371 C 941.058 0.0155016 4.45997 0
M  V30 9372 C 941.759 1.82141 5.52449 0
M  V30 9373 N 940.735 1.12508 5.3183 0
M  V30 9374 H 944.537 1.03939 2.74907 0
M  V30 9375 H 942.051 0.667353 1.48055 0
M  V30 9376 H 944.048 -1.06582 4.03046 0
M  V30 9377 H 942.708 -1.43429 2.91304 0
M  V30 9378 H 943.719 1.68545 4.89707 0
M  V30 9379 H 940.396 -0.770128 4.10336 0
M  V30 9380 H 941.786 2.7181 6.14466 0
M  V30 9381 N 944.506 -1.46559 0.579492 0
M  V30 9382 C 945.456 -2.27316 -0.17645 0
M  V30 9383 C 946.44 -1.35681 -0.864835 0
M  V30 9384 O 947.632 -1.59879 -0.759462 0
M  V30 9385 C 944.761 -3.21957 -1.19157 0
M  V30 9386 C 943.847 -4.21077 -0.505459 0
M  V30 9387 N 944.238 -5.03908 0.437133 0
M  V30 9388 C 942.536 -4.39535 -0.75661 0
M  V30 9389 C 943.237 -5.75635 0.837819 0
M  V30 9390 N 942.213 -5.43276 0.187679 0
M  V30 9391 H 946.015 -2.88747 0.547932 0
M  V30 9392 H 943.529 -1.5737 0.401048 0
M  V30 9393 H 945.526 -3.78518 -1.74728 0
M  V30 9394 H 944.186 -2.62085 -1.9168 0
M  V30 9395 H 945.197 -5.11487 0.812488 0
M  V30 9396 H 941.874 -3.90815 -1.46867 0
M  V30 9397 H 943.264 -6.52235 1.61364 0
M  V30 9398 N 945.984 -0.3171 -1.54377 0
M  V30 9399 C 947.261 0.341348 -1.92598 0
M  V30 9400 C 947.641 1.70402 -1.24605 0
M  V30 9401 O 946.989 2.25191 -0.387448 0
M  V30 9402 C 947.199 0.440003 -3.46215 0
M  V30 9403 C 948.547 0.703327 -4.18734 0
M  V30 9404 O 949.571 0.523181 -3.52337 0
M  V30 9405 O 948.43 1.05042 -5.3631 0
M  V30 9406 H 945.524 0.193696 -0.803997 0
M  V30 9407 H 948.07 -0.366341 -1.65699 0
M  V30 9408 H 946.842 -0.517299 -3.87866 0
M  V30 9409 H 946.465 1.19553 -3.792 0
M  V30 9410 N 947.462 1.57535 -0.0451378 0
M  V30 9411 C 948.739 1.83785 0.669523 0
M  V30 9412 C 949.119 0.932331 1.89396 0
M  V30 9413 O 948.467 -0.00813229 2.28499 0
M  V30 9414 C 948.677 3.33376 1.03255 0
M  V30 9415 C 950.025 4.00243 1.41741 0
M  V30 9416 O 951.049 3.37965 1.12507 0
M  V30 9417 O 949.908 5.10038 1.96275 0
M  V30 9418 H 947.002 0.758342 0.329919 0
M  V30 9419 H 949.548 1.69538 -0.0740415 0
M  V30 9420 H 948.32 3.90965 0.161777 0
M  V30 9421 H 947.943 3.52787 1.83376 0
M  V30 9422 N 948.94 -0.228186 1.55939 0
M  V30 9423 C 950.18 -0.960695 1.80416 0
M  V30 9424 C 950.544 -1.81795 0.617615 0
M  V30 9425 O 951.745 -2.58369 0.741545 0
M  V30 9426 C 950.016 -1.78298 3.09749 0
M  V30 9427 S 951.575 -2.57203 3.55517 0
M  V30 9428 H 948.393 -0.322825 0.633486 0
M  V30 9429 H 950.995 -0.226852 1.94179 0
M  V30 9430 H 949.699 -1.14323 3.94155 0
M  V30 9431 H 949.23 -2.55924 2.98775 0
M  V30 9432 H 951.245 -3.80632 3.1833 0
M  V30 9433 N 950.418 -1.49637 -0.494624 0
M  V30 9434 C 951.366 -1.6727 -1.61627 0
M  V30 9435 C 952.36 -0.538587 -1.6061 0
M  V30 9436 O 953.566 -0.718411 -1.65042 0
M  V30 9437 H 949.941 -0.527557 -0.535899 0
M  V30 9438 H 951.912 -2.61405 -1.43909 0
M  V30 9439 C 950.661 -1.7624 -2.99725 0
M  V30 9440 H 949.984 -2.62886 -3.01216 0
M  V30 9441 H 951.424 -1.92611 -3.77726 0
M  V30 9442 C 949.883 -0.508632 -3.33038 0
M  V30 9443 O 950.413 0.362828 -4.00058 0
M  V30 9444 N 948.619 -0.369667 -2.88239 0
M  V30 9445 H 948.166 -1.07984 -2.33875 0
M  V30 9446 H 948.124 0.468112 -3.10896 0
M  V30 9447 N 951.896 0.746133 -1.38819 0
M  V30 9448 C 952.843 1.86001 -1.36647 0
M  V30 9449 C 953.813 1.6453 -0.227849 0
M  V30 9450 O 954.998 1.86092 -0.421241 0
M  V30 9451 C 952.138 3.23388 -1.20474 0
M  V30 9452 C 951.251 3.5664 -2.43786 0
M  V30 9453 C 950.386 4.8337 -2.20287 0
M  V30 9454 C 949.425 5.09431 -3.39332 0
M  V30 9455 N 948.562 6.2736 -3.1522 0
M  V30 9456 H 953.402 1.87192 -2.31869 0
M  V30 9457 H 950.939 0.914838 -1.15192 0
M  V30 9458 H 952.897 4.02679 -1.09112 0
M  V30 9459 H 951.527 3.21505 -0.288874 0
M  V30 9460 H 950.579 2.72135 -2.65794 0
M  V30 9461 H 951.891 3.71823 -3.3249 0
M  V30 9462 H 951.045 5.70619 -2.06103 0
M  V30 9463 H 949.784 4.70341 -1.28961 0
M  V30 9464 H 948.789 4.20648 -3.54027 0
M  V30 9465 H 950.014 5.24354 -4.31544 0
M  V30 9466 H 947.96 6.15639 -2.26549 0
M  V30 9467 H 947.877 6.43078 -3.97476 0
M  V30 9468 H 949.145 7.17477 -3.04707 0
M  V30 9469 N 953.375 1.23811 0.975125 0
M  V30 9470 C 954.652 0.9815 1.69192 0
M  V30 9471 C 955.032 -0.498373 2.05133 0
M  V30 9472 O 954.38 -1.47087 1.74864 0
M  V30 9473 C 954.59 1.89701 2.92941 0
M  V30 9474 C 955.938 2.16357 3.65342 0
M  V30 9475 O 956.962 1.87293 3.02985 0
M  V30 9476 O 955.821 2.65675 4.77576 0
M  V30 9477 H 952.915 0.370599 0.739314 0
M  V30 9478 H 955.461 1.34876 1.02988 0
M  V30 9479 H 954.233 2.89719 2.63018 0
M  V30 9480 H 953.856 1.53244 3.66881 0
M  V30 9481 N 954.853 -1.17469 1.05066 0
M  V30 9482 C 956.083 -1.91343 0.779202 0
M  V30 9483 C 956.491 -1.76986 -0.668764 0
M  V30 9484 O 955.834 -1.1037 -1.46848 0
M  V30 9485 C 955.896 -3.42938 1.0786 0
M  V30 9486 C 955.56 -3.81076 2.52249 0
M  V30 9487 C 956.557 -3.84027 3.50456 0
M  V30 9488 C 954.242 -4.12076 2.87225 0
M  V30 9489 C 956.236 -4.17445 4.81683 0
M  V30 9490 C 953.923 -4.45163 4.18656 0
M  V30 9491 C 954.921 -4.47825 5.15696 0
M  V30 9492 O 954.609 -4.80133 6.44769 0
M  V30 9493 H 954.341 -0.613974 0.282863 0
M  V30 9494 H 956.895 -1.49907 1.40417 0
M  V30 9495 H 955.125 -3.84662 0.39653 0
M  V30 9496 H 956.814 -3.98071 0.793357 0
M  V30 9497 H 957.58 -3.60203 3.24775 0
M  V30 9498 H 953.459 -4.09176 2.12358 0
M  V30 9499 H 957.003 -4.19437 5.57421 0
M  V30 9500 H 952.9 -4.68449 4.44101 0
M  V30 9501 H 953.668 -4.97995 6.49571 0
M  V30 9502 N 956.331 -0.831506 -1.3388 0
M  V30 9503 C 957.261 -0.274378 -2.31882 0
M  V30 9504 C 958.242 0.613872 -1.58637 0
M  V30 9505 O 959.427 0.538961 -1.86571 0
M  V30 9506 C 956.557 0.557498 -3.42796 0
M  V30 9507 C 955.511 -0.234337 -4.27358 0
M  V30 9508 C 954.837 0.720825 -5.29819 0
M  V30 9509 C 956.137 -1.44732 -5.01847 0
M  V30 9510 H 957.831 -1.09322 -2.78728 0
M  V30 9511 H 955.377 -0.527136 -1.34005 0
M  V30 9512 H 957.33 0.957501 -4.10378 0
M  V30 9513 H 956.054 1.40947 -2.94621 0
M  V30 9514 H 954.713 -0.61581 -3.61391 0
M  V30 9515 H 954.361 1.569 -4.77903 0
M  V30 9516 H 954.061 0.195171 -5.87276 0
M  V30 9517 H 955.585 1.1185 -6.00268 0
M  V30 9518 H 956.999 -1.12087 -5.62236 0
M  V30 9519 H 955.396 -1.90923 -5.68919 0
M  V30 9520 H 956.466 -2.22099 -4.31045 0
M  V30 9521 N 957.809 1.4625 -0.587256 0
M  V30 9522 C 958.719 2.34147 0.145744 0
M  V30 9523 C 959.735 1.50026 0.881376 0
M  V30 9524 O 960.911 1.82884 0.843539 0
M  V30 9525 C 957.976 3.27294 1.14366 0
M  V30 9526 C 957.037 4.27317 0.412199 0
M  V30 9527 C 956.27 5.16013 1.36257 0
M  V30 9528 O 956.493 5.0773 2.59934 0
M  V30 9529 O 955.427 5.95569 0.870681 0
M  V30 9530 H 959.253 2.98187 -0.576055 0
M  V30 9531 H 956.838 1.45299 -0.347628 0
M  V30 9532 H 958.72 3.84747 1.71894 0
M  V30 9533 H 957.395 2.65845 1.84684 0
M  V30 9534 H 956.302 3.73538 -0.205036 0
M  V30 9535 H 957.635 4.91564 -0.250104 0
M  V30 9536 N 959.287 0.325282 1.54207 0
M  V30 9537 C 960.536 -0.27768 1.99779 0
M  V30 9538 C 960.849 -1.5311 1.21723 0
M  V30 9539 O 962.055 -2.21017 1.57682 0
M  V30 9540 C 960.511 -0.545329 3.55745 0
M  V30 9541 C 960.119 0.691143 4.42637 0
M  V30 9542 C 961.863 -1.10815 4.09781 0
M  V30 9543 C 959.77 0.395302 5.90077 0
M  V30 9544 H 958.7 -0.107536 0.746292 0
M  V30 9545 H 961.351 0.437773 1.78202 0
M  V30 9546 H 959.733 -1.32101 3.73317 0
M  V30 9547 H 960.907 1.46653 4.3684 0
M  V30 9548 H 959.222 1.1743 3.99499 0
M  V30 9549 H 961.819 -1.34414 5.1753 0
M  V30 9550 H 962.162 -2.05806 3.6187 0
M  V30 9551 H 962.695 -0.393608 3.95848 0
M  V30 9552 H 959.434 1.31443 6.42186 0
M  V30 9553 H 958.954 -0.34235 5.98822 0
M  V30 9554 H 960.633 0.00576877 6.47 0
M  V30 9555 N 960.765 -1.57509 0.0534917 0
M  V30 9556 C 962.181 -1.56696 -0.303067 0
M  V30 9557 C 962.381 -1.06135 -1.71282 0
M  V30 9558 O 961.437 -0.71899 -2.42047 0
M  V30 9559 C 962.75 -3.00421 -0.129418 0
M  V30 9560 C 964.298 -3.12358 -0.200346 0
M  V30 9561 C 964.773 -4.57967 -0.0551971 0
M  V30 9562 N 966.264 -4.63066 -0.111398 0
M  V30 9563 C 966.999 -5.73395 -0.0232344 0
M  V30 9564 N 966.495 -6.92701 0.11741 0
M  V30 9565 N 968.288 -5.62045 -0.078984 0
M  V30 9566 H 960.439 -1.88696 0.975064 0
M  V30 9567 H 962.702 -0.869072 0.378706 0
M  V30 9568 H 962.408 -3.41456 0.842653 0
M  V30 9569 H 962.282 -3.66563 -0.889476 0
M  V30 9570 H 964.669 -2.71221 -1.16289 0
M  V30 9571 H 964.75 -2.48891 0.590506 0
M  V30 9572 H 964.394 -4.9979 0.904034 0
M  V30 9573 H 964.324 -5.19443 -0.865223 0
M  V30 9574 H 966.815 -3.77263 -0.219256 0
M  V30 9575 H 967.128 -7.72597 0.177326 0
M  V30 9576 H 965.473 -6.94833 0.152526 0
M  V30 9577 H 968.664 -4.67725 -0.187434 0
M  V30 9578 H 968.837 -6.48 -0.00681731 0
M  V30 9579 N 962.243 0.219913 -1.56058 0
M  V30 9580 C 963.52 0.968493 -1.6994 0
M  V30 9581 C 963.9 2.02358 -0.601219 0
M  V30 9582 O 963.248 2.25121 0.391534 0
M  V30 9583 C 963.458 1.57745 -3.11316 0
M  V30 9584 C 964.806 2.06908 -3.70775 0
M  V30 9585 O 965.83 1.67636 -3.14288 0
M  V30 9586 O 964.689 2.79096 -4.69859 0
M  V30 9587 H 961.783 0.452521 -0.692209 0
M  V30 9588 H 964.329 0.211566 -1.68376 0
M  V30 9589 H 963.101 0.815687 -3.82704 0
M  V30 9590 H 962.724 2.39987 -3.17005 0
M  V30 9591 N 963.721 1.49897 0.486681 0
M  V30 9592 C 964.969 1.59789 1.23742 0
M  V30 9593 C 965.29 0.293056 1.92785 0
M  V30 9594 O 964.56 -0.688534 1.83401 0
M  V30 9595 H 963.14 0.588775 0.459731 0
M  V30 9596 H 965.802 1.86597 0.562808 0
M  V30 9597 H 964.898 2.40121 1.9937 0
M  V30 9598 N 965.199 -0.738761 1.39212 0
M  V30 9599 C 966.61 -1.31684 1.32348 0
M  V30 9600 C 966.961 -1.96195 -0.0139041 0
M  V30 9601 O 966.086 -1.96056 -0.916025 0
M  V30 9602 C 966.681 -2.39444 2.39691 0
M  V30 9603 C 965.24 -2.92935 2.36359 0
M  V30 9604 C 964.387 -1.66465 2.21776 0
M  V30 9605 H 967.338 -0.536543 1.49355 0
M  V30 9606 H 967.359 -3.19744 2.06262 0
M  V30 9607 H 966.871 -1.92463 3.37016 0
M  V30 9608 H 964.972 -3.44207 1.42662 0
M  V30 9609 H 965.085 -3.46306 3.31073 0
M  V30 9610 H 963.449 -1.90657 1.68884 0
M  V30 9611 H 964.232 -1.21541 3.21065 0
M  V30 9612 N 966.677 -1.24326 -0.968545 0
M  V30 9613 C 967.607 -1.05951 -2.08079 0
M  V30 9614 C 968.588 0.0272666 -1.70078 0
M  V30 9615 O 969.773 -0.139644 -1.93697 0
M  V30 9616 C 966.903 -0.662623 -3.4092 0
M  V30 9617 C 965.857 -1.69807 -3.92873 0
M  V30 9618 C 965.183 -1.15628 -5.22048 0
M  V30 9619 C 966.483 -3.09383 -4.20808 0
M  V30 9620 H 968.177 -1.98984 -2.23709 0
M  V30 9621 H 965.723 -0.958112 -1.075 0
M  V30 9622 H 967.676 -0.521071 -4.18166 0
M  V30 9623 H 966.4 0.303399 -3.25188 0
M  V30 9624 H 965.059 -1.82783 -3.17783 0
M  V30 9625 H 964.707 -0.180888 -5.02675 0
M  V30 9626 H 964.407 -1.84822 -5.57776 0
M  V30 9627 H 965.931 -1.02683 -6.01904 0
M  V30 9628 H 967.345 -2.99642 -4.88761 0
M  V30 9629 H 965.742 -3.75923 -4.67763 0
M  V30 9630 H 966.812 -3.57486 -3.27616 0
M  V30 9631 N 968.156 1.1691 -1.05688 0
M  V30 9632 C 969.386 1.90927 -0.789339 0
M  V30 9633 C 969.794 1.77339 0.659369 0
M  V30 9634 O 969.137 1.11147 1.4626 0
M  V30 9635 C 969.199 3.42361 -1.09677 0
M  V30 9636 C 968.863 3.79733 -2.54267 0
M  V30 9637 C 969.86 3.82163 -3.52487 0
M  V30 9638 C 967.545 4.10547 -2.89406 0
M  V30 9639 C 969.539 4.14884 -4.8389 0
M  V30 9640 C 967.226 4.42936 -4.21011 0
M  V30 9641 C 968.224 4.45084 -5.18063 0
M  V30 9642 O 967.912 4.76707 -6.47307 0
M  V30 9643 H 967.644 0.612466 -0.286115 0
M  V30 9644 H 970.198 1.4916 -1.4121 0
M  V30 9645 H 968.428 3.84446 -0.416924 0
M  V30 9646 H 970.117 3.97645 -0.814456 0
M  V30 9647 H 970.883 3.58476 -3.26681 0
M  V30 9648 H 966.762 4.08044 -2.14525 0
M  V30 9649 H 970.306 4.16475 -5.59638 0
M  V30 9650 H 966.203 4.66088 -4.46579 0
M  V30 9651 H 966.971 4.94544 -6.52203 0
M  V30 9652 N 969.634 0.838594 1.33437 0
M  V30 9653 C 970.566 0.229006 2.28053 0
M  V30 9654 C 971.579 -0.590103 1.51729 0
M  V30 9655 O 972.768 -0.417218 1.73556 0
M  V30 9656 C 969.868 -0.696251 3.31671 0
M  V30 9657 C 969.041 0.0834606 4.3732 0
M  V30 9658 C 968.1 -0.765097 5.20608 0
M  V30 9659 O 967.126 -0.2044 5.68833 0
M  V30 9660 N 968.328 -2.08249 5.4186 0
M  V30 9661 H 971.093 1.04196 2.81004 0
M  V30 9662 H 968.654 0.697031 1.46127 0
M  V30 9663 H 970.646 -1.26889 3.84293 0
M  V30 9664 H 969.216 -1.40992 2.78998 0
M  V30 9665 H 968.436 0.837481 3.85201 0
M  V30 9666 H 969.724 0.619613 5.05013 0
M  V30 9667 H 969.122 -2.56156 5.04381 0
M  V30 9668 H 967.679 -2.60362 5.97541 0
M  V30 9669 N 971.112 -1.45937 0.595003 0
M  V30 9670 C 972.389 -1.95592 0.0178748 0
M  V30 9671 C 972.769 -1.53758 -1.44643 0
M  V30 9672 O 972.117 -0.794104 -2.14257 0
M  V30 9673 C 972.327 -3.4841 0.202789 0
M  V30 9674 C 973.675 -4.2453 0.0770121 0
M  V30 9675 O 974.699 -3.55954 0.132257 0
M  V30 9676 O 973.558 -5.46479 -0.0484271 0
M  V30 9677 H 970.652 -0.825888 -0.0428702 0
M  V30 9678 H 973.198 -1.56162 0.664184 0
M  V30 9679 H 971.97 -3.71787 1.22027 0
M  V30 9680 H 971.593 -3.947 -0.479376 0
M  V30 9681 N 972.59 -0.333456 -1.54032 0
M  V30 9682 C 974.001 0.15256 -1.86076 0
M  V30 9683 C 974.352 1.50819 -1.25492 0
M  V30 9684 O 973.477 2.08903 -0.564665 0
M  V30 9685 C 974.072 0.283599 -3.37611 0
M  V30 9686 C 972.631 0.713841 -3.69569 0
M  V30 9687 C 971.778 -0.158515 -2.76847 0
M  V30 9688 H 974.729 -0.553404 -1.48738 0
M  V30 9689 H 974.75 1.11284 -3.63863 0
M  V30 9690 H 974.262 -0.703193 -3.81676 0
M  V30 9691 H 972.363 1.71002 -3.31042 0
M  V30 9692 H 972.476 0.510731 -4.7637 0
M  V30 9693 H 970.84 0.367531 -2.52034 0
M  V30 9694 H 971.623 -1.14226 -3.2374 0
M  V30 9695 N 974.068 1.57479 -0.061844 0
M  V30 9696 C 974.998 2.15181 0.9066 0
M  V30 9697 C 975.979 1.07624 1.31724 0
M  V30 9698 O 977.164 1.35614 1.39006 0
M  V30 9699 C 974.294 2.70542 2.17771 0
M  V30 9700 C 973.248 3.83178 1.9068 0
M  V30 9701 C 972.574 4.25099 3.24337 0
M  V30 9702 C 973.874 5.07853 1.21994 0
M  V30 9703 H 975.568 2.96355 0.42594 0
M  V30 9704 H 973.114 1.42556 0.203435 0
M  V30 9705 H 975.067 3.09552 2.85929 0
M  V30 9706 H 973.791 1.86575 2.68062 0
M  V30 9707 H 972.45 3.44656 1.24931 0
M  V30 9708 H 972.098 3.38069 3.72449 0
M  V30 9709 H 971.798 5.01021 3.07005 0
M  V30 9710 H 973.322 4.66718 3.93709 0
M  V30 9711 H 974.736 5.44242 1.80204 0
M  V30 9712 H 973.133 5.88987 1.14954 0
M  V30 9713 H 974.203 4.84497 0.197536 0
M  V30 9714 N 975.546 -0.211634 1.56173 0
M  V30 9715 C 976.476 -1.26533 1.96244 0
M  V30 9716 C 977.457 -1.48362 0.832028 0
M  V30 9717 O 978.642 -1.60378 1.0951 0
M  V30 9718 C 975.772 -2.61307 2.2877 0
M  V30 9719 C 974.726 -2.54119 3.44395 0
M  V30 9720 C 974.052 -3.93014 3.62552 0
M  V30 9721 C 975.352 -2.08046 4.79076 0
M  V30 9722 H 977.046 -0.932407 2.84511 0
M  V30 9723 H 974.592 -0.447084 1.36884 0
M  V30 9724 H 976.545 -3.35188 2.55396 0
M  V30 9725 H 975.269 -2.96307 1.37367 0
M  V30 9726 H 973.928 -1.82694 3.17834 0
M  V30 9727 H 973.576 -4.25338 2.68508 0
M  V30 9728 H 973.276 -3.89083 4.40327 0
M  V30 9729 H 974.8 -4.68542 3.91537 0
M  V30 9730 H 976.214 -2.71676 5.04842 0
M  V30 9731 H 974.611 -2.15154 5.60204 0
M  V30 9732 H 975.681 -1.03306 4.73768 0
M  V30 9733 N 977.024 -1.50153 -0.478725 0
M  V30 9734 C 978.272 -1.60443 -1.22892 0
M  V30 9735 C 978.593 -0.303276 -1.92627 0
M  V30 9736 O 977.863 0.678798 -1.83764 0
M  V30 9737 H 976.443 -0.591205 -0.456602 0
M  V30 9738 H 979.105 -1.86893 -0.552905 0
M  V30 9739 H 978.201 -2.41175 -1.98094 0
M  V30 9740 N 978.502 0.731368 -1.39602 0
M  V30 9741 C 979.449 1.84541 -1.38612 0
M  V30 9742 C 980.419 1.64279 -0.245287 0
M  V30 9743 O 981.604 1.85635 -0.440954 0
M  V30 9744 C 978.744 3.22092 -1.23897 0
M  V30 9745 C 977.857 3.54034 -2.47555 0
M  V30 9746 C 976.992 4.81007 -2.25402 0
M  V30 9747 C 976.031 5.05804 -3.44716 0
M  V30 9748 N 975.168 6.23981 -3.21857 0
M  V30 9749 H 980.008 1.84722 -2.33841 0
M  V30 9750 H 977.545 0.902569 -1.16156 0
M  V30 9751 H 979.503 4.01499 -1.13376 0
M  V30 9752 H 978.133 3.2118 -0.322958 0
M  V30 9753 H 977.185 2.69301 -2.68665 0
M  V30 9754 H 978.497 3.68275 -3.36415 0
M  V30 9755 H 977.651 5.68401 -2.12143 0
M  V30 9756 H 976.39 4.68946 -1.33943 0
M  V30 9757 H 975.395 4.1687 -3.58468 0
M  V30 9758 H 976.62 5.19747 -4.37081 0
M  V30 9759 H 974.566 6.13202 -2.33065 0
M  V30 9760 H 974.483 6.38826 -4.04274 0
M  V30 9761 H 975.751 7.14205 -3.123 0
M  V30 9762 N 979.98 1.24838 0.961938 0
M  V30 9763 C 981.227 1.09151 1.70564 0
M  V30 9764 C 981.555 -0.368719 1.90973 0
M  V30 9765 O 980.81 -1.28854 1.47293 0
M  V30 9766 C 981.109 1.78289 3.09754 0
M  V30 9767 C 980.775 3.28216 3.09169 0
M  V30 9768 C 979.437 3.69118 3.08716 0
M  V30 9769 C 981.789 4.24035 3.03058 0
M  V30 9770 C 979.117 5.04263 2.99892 0
M  V30 9771 C 981.469 5.59195 2.95776 0
M  V30 9772 C 980.133 5.99436 2.93655 0
M  V30 9773 H 979.403 0.399414 0.624139 0
M  V30 9774 H 982.05 1.55016 1.12438 0
M  V30 9775 H 980.355 1.24835 3.7138 0
M  V30 9776 H 982.052 1.63612 3.66104 0
M  V30 9777 H 978.642 2.95667 3.10289 0
M  V30 9778 H 982.826 3.93431 3.02532 0
M  V30 9779 H 978.082 5.3463 2.96615 0
M  V30 9780 H 982.256 6.33142 2.90007 0
M  V30 9781 H 979.883 7.04116 2.86573 0
M  V30 9782 N 981.458 -1.16348 1.06306 0
M  V30 9783 C 982.698 -1.88556 0.789055 0
M  V30 9784 C 983.062 -1.79849 -0.672179 0
M  V30 9785 O 984.263 -2.46984 -1.06078 0
M  V30 9786 C 982.534 -3.34069 1.27016 0
M  V30 9787 S 984.093 -4.24128 1.12522 0
M  V30 9788 H 980.911 -0.65084 0.286232 0
M  V30 9789 H 983.513 -1.40443 1.36 0
M  V30 9790 H 982.217 -3.37944 2.32856 0
M  V30 9791 H 981.748 -3.87231 0.693963 0
M  V30 9792 H 983.763 -4.96168 0.0562142 0
M  V30 9793 N 982.937 -0.845659 -1.3299 0
M  V30 9794 C 984.165 -0.45835 -2.01759 0
M  V30 9795 C 984.58 0.94239 -1.63598 0
M  V30 9796 O 983.937 1.61353 -0.852738 0
M  V30 9797 C 983.988 -0.577311 -3.5686 0
M  V30 9798 O 983.709 -1.92287 -3.93646 0
M  V30 9799 C 985.21 -0.187839 -4.42902 0
M  V30 9800 H 982.43 -0.181165 -0.646081 0
M  V30 9801 H 984.974 -1.14011 -1.6977 0
M  V30 9802 H 983.129 0.0566146 -3.87359 0
M  V30 9803 H 983.543 -1.91322 -4.88361 0
M  V30 9804 H 985.017 -0.322105 -5.51059 0
M  V30 9805 H 985.494 0.870896 -4.30479 0
M  V30 9806 H 986.1 -0.796473 -4.17776 0
M  V30 9807 N 984.415 1.45619 -0.602734 0
M  V30 9808 C 985.643 2.06647 -0.102253 0
M  V30 9809 C 986.058 1.4482 1.21131 0
M  V30 9810 O 985.415 0.560621 1.73676 0
M  V30 9811 C 985.466 3.61467 0.0490113 0
M  V30 9812 O 985.187 4.20985 -1.21257 0
M  V30 9813 C 986.688 4.39469 0.581517 0
M  V30 9814 H 983.908 0.667685 -0.0666155 0
M  V30 9815 H 986.452 1.86939 -0.829091 0
M  V30 9816 H 984.607 3.80534 0.726153 0
M  V30 9817 H 985.021 5.14103 -1.03915 0
M  V30 9818 H 986.495 5.48318 0.636462 0
M  V30 9819 H 986.972 4.0891 1.60277 0
M  V30 9820 H 987.578 4.25256 -0.061419 0
M  V30 9821 N 985.893 0.34162 1.53853 0
M  V30 9822 C 987.14 -0.255484 2.00882 0
M  V30 9823 C 987.468 -1.50711 1.22949 0
M  V30 9824 O 986.723 -1.93315 0.304625 0
M  V30 9825 C 987.022 -0.616989 3.52034 0
M  V30 9826 C 986.688 0.537536 4.47684 0
M  V30 9827 C 985.35 0.854379 4.73554 0
M  V30 9828 C 987.702 1.31217 5.04412 0
M  V30 9829 C 985.03 1.94826 5.53407 0
M  V30 9830 C 987.382 2.39628 5.85458 0
M  V30 9831 C 986.046 2.71874 6.09623 0
M  V30 9832 H 985.316 -0.0934881 0.735079 0
M  V30 9833 H 987.963 0.469135 1.85665 0
M  V30 9834 H 986.268 -1.42229 3.65073 0
M  V30 9835 H 987.965 -1.09084 3.85878 0
M  V30 9836 H 984.555 0.280524 4.27681 0
M  V30 9837 H 988.739 1.08064 4.84392 0
M  V30 9838 H 983.995 2.20235 5.70356 0
M  V30 9839 H 988.169 3.00084 6.28429 0
M  V30 9840 H 985.796 3.56762 6.71286 0
M  V30 9841 N 987.371 -1.57444 0.0701946 0
M  V30 9842 C 988.596 -1.98171 -0.61181 0
M  V30 9843 C 989.021 -0.94823 -1.62451 0
M  V30 9844 O 988.379 0.0863553 -1.81094 0
M  V30 9845 C 988.427 -3.37934 -1.2583 0
M  V30 9846 O 987.531 -3.37207 -2.37414 0
M  V30 9847 H 986.872 -0.645056 -0.157477 0
M  V30 9848 H 989.402 -2.04091 0.144235 0
M  V30 9849 H 989.412 -3.75083 -1.60552 0
M  V30 9850 H 988.087 -4.12684 -0.516234 0
M  V30 9851 H 986.664 -3.11826 -2.04497 0
M  V30 9852 N 988.849 0.203349 -1.56283 0
M  V30 9853 C 990.095 0.926381 -1.80405 0
M  V30 9854 C 990.428 1.8325 -0.642883 0
M  V30 9855 O 989.703 1.91196 0.356998 0
M  V30 9856 C 989.986 1.74972 -3.14733 0
M  V30 9857 C 989.839 0.868866 -4.41328 0
M  V30 9858 C 991.158 2.72394 -3.45672 0
M  V30 9859 H 988.277 0.335346 -0.656286 0
M  V30 9860 H 990.919 0.1942 -1.89005 0
M  V30 9861 H 989.069 2.37394 -3.07533 0
M  V30 9862 H 990.741 0.259986 -4.60567 0
M  V30 9863 H 988.984 0.175161 -4.33446 0
M  V30 9864 H 989.655 1.47975 -5.31796 0
M  V30 9865 H 992.131 2.20105 -3.53119 0
M  V30 9866 H 991.007 3.27091 -4.40798 0
M  V30 9867 H 991.268 3.51035 -2.6875 0
M  V30 9868 N 990.327 1.50405 0.470755 0
M  V30 9869 C 991.738 1.54266 1.05162 0
M  V30 9870 C 992.089 0.346359 1.93119 0
M  V30 9871 O 991.214 -0.540699 2.09536 0
M  V30 9872 C 991.809 2.7956 1.91394 0
M  V30 9873 C 990.368 2.86101 2.44588 0
M  V30 9874 C 989.515 2.48557 1.22941 0
M  V30 9875 H 992.466 1.56665 0.253359 0
M  V30 9876 H 992.487 2.61434 2.76464 0
M  V30 9877 H 991.999 3.66611 1.27351 0
M  V30 9878 H 990.1 2.03403 3.12183 0
M  V30 9879 H 990.213 3.88999 2.79672 0
M  V30 9880 H 988.577 2.01003 1.56429 0
M  V30 9881 H 989.36 3.37916 0.605598 0
M  V30 9882 N 991.805 -0.723954 1.39988 0
M  V30 9883 C 993.216 -1.30273 1.33738 0
M  V30 9884 C 993.567 -1.96199 0.00690581 0
M  V30 9885 O 992.692 -1.97016 -0.895179 0
M  V30 9886 C 993.287 -2.36889 2.42217 0
M  V30 9887 C 991.846 -2.90412 2.39453 0
M  V30 9888 C 990.993 -1.64103 2.2353 0
M  V30 9889 H 993.944 -0.520672 1.49916 0
M  V30 9890 H 993.965 -3.17538 2.09642 0
M  V30 9891 H 993.477 -1.88878 3.39038 0
M  V30 9892 H 991.578 -3.42674 1.46304 0
M  V30 9893 H 991.691 -3.42775 3.34727 0
M  V30 9894 H 990.055 -1.88855 1.70897 0
M  V30 9895 H 990.838 -1.18128 3.22336 0
M  V30 9896 N 993.283 -1.25346 -0.955304 0
M  V30 9897 C 994.213 -1.08152 -2.06943 0
M  V30 9898 C 995.194 0.00922598 -1.70097 0
M  V30 9899 O 996.379 -0.160181 -1.93538 0
M  V30 9900 C 993.509 -0.698745 -3.40198 0
M  V30 9901 C 992.463 -1.73965 -3.9105 0
M  V30 9902 C 991.789 -1.21158 -5.20792 0
M  V30 9903 C 993.089 -3.13829 -4.17503 0
M  V30 9904 H 994.783 -2.01345 -2.21586 0
M  V30 9905 H 992.329 -0.969459 -1.06478 0
M  V30 9906 H 994.282 -0.565394 -4.1759 0
M  V30 9907 H 993.006 0.268892 -3.25491 0
M  V30 9908 H 991.665 -1.86143 -3.15827 0
M  V30 9909 H 991.313 -0.234193 -5.02455 0
M  V30 9910 H 991.013 -1.90728 -5.55785 0
M  V30 9911 H 992.537 -1.09061 -6.00781 0
M  V30 9912 H 993.951 -3.04809 -4.85556 0
M  V30 9913 H 992.348 -3.80863 -4.63749 0
M  V30 9914 H 993.418 -3.6094 -3.23806 0
M  V30 9915 N 994.761 1.15782 -1.06922 0
M  V30 9916 C 995.693 2.19978 -0.643604 0
M  V30 9917 C 996.706 1.59981 0.301653 0
M  V30 9918 O 997.895 1.78265 0.0916508 0
M  V30 9919 C 994.995 3.38815 0.0757973 0
M  V30 9920 C 994.168 4.28363 -0.884545 0
M  V30 9921 C 993.227 5.25807 -0.203233 0
M  V30 9922 O 992.253 5.62924 -0.842904 0
M  V30 9923 N 993.455 5.70874 1.05279 0
M  V30 9924 H 996.22 2.57112 -1.53992 0
M  V30 9925 H 993.781 1.30855 -0.953344 0
M  V30 9926 H 995.773 4.01052 0.542151 0
M  V30 9927 H 994.343 3.00133 0.874 0
M  V30 9928 H 993.563 3.63292 -1.53012 0
M  V30 9929 H 994.851 4.85067 -1.53581 0
M  V30 9930 H 994.249 5.42822 1.5925 0
M  V30 9931 H 992.806 6.35171 1.46289 0
M  V30 9932 N 996.239 0.8527 1.3254 0
M  V30 9933 C 997.467 0.469044 2.01513 0
M  V30 9934 C 997.882 -0.933701 1.64096 0
M  V30 9935 O 997.239 -1.60898 0.861283 0
M  V30 9936 C 997.29 0.596228 3.56549 0
M  V30 9937 O 997.011 1.94371 3.92621 0
M  V30 9938 C 998.512 0.211324 4.42796 0
M  V30 9939 H 995.732 0.184589 0.645111 0
M  V30 9940 H 998.276 1.1491 1.69163 0
M  V30 9941 H 996.431 -0.0360712 3.87383 0
M  V30 9942 H 996.845 1.93909 4.87339 0
M  V30 9943 H 998.319 0.351324 5.50881 0
M  V30 9944 H 998.796 -0.848055 4.30935 0
M  V30 9945 H 999.402 0.818617 4.17347 0
M  V30 9946 N 997.718 -1.45297 0.610449 0
M  V30 9947 C 998.946 -2.0659 0.113211 0
M  V30 9948 C 999.361 -1.4546 -1.20361 0
M  V30 9949 O 998.718 -0.569823 -1.73376 0
M  V30 9950 C 998.769 -3.61488 -0.0298411 0
M  V30 9951 O 998.49 -4.20336 1.23488 0
M  V30 9952 C 999.991 -4.39772 -0.558202 0
M  V30 9953 H 997.211 -0.667322 0.0701555 0
M  V30 9954 H 999.755 -1.86497 0.838993 0
M  V30 9955 H 997.91 -3.80913 -0.705963 0
M  V30 9956 H 998.324 -5.13545 1.0664 0
M  V30 9957 H 999.798 -5.48648 -0.607375 0
M  V30 9958 H 1000.27 -4.09755 -1.58107 0
M  V30 9959 H 1000.88 -4.25217 0.0839704 0
M  V30 9960 N 999.196 -0.349774 -1.5367 0
M  V30 9961 C 1000.44 0.244343 -2.00617 0
M  V30 9962 C 1000.76 1.50567 -1.23914 0
M  V30 9963 O 1000.03 1.92784 -0.348016 0
M  V30 9964 H 998.615 0.0932792 -0.741153 0
M  V30 9965 H 1001.28 -0.472367 -1.89089 0
M  V30 9966 H 1000.37 0.482433 -3.08349 0
M  V30 9967 N 1000.67 1.57404 -0.0785433 0
M  V30 9968 C 1002.08 1.81118 0.45311 0
M  V30 9969 C 1002.44 0.992963 1.69218 0
M  V30 9970 O 1001.56 0.217448 2.15305 0
M  V30 9971 C 1002.16 3.28506 0.82882 0
M  V30 9972 C 1000.71 3.53042 1.3053 0
M  V30 9973 C 999.862 2.75739 0.29378 0
M  V30 9974 H 1002.81 1.55758 -0.304171 0
M  V30 9975 H 1002.83 3.40924 1.68971 0
M  V30 9976 H 1002.35 3.88031 -0.0731826 0
M  V30 9977 H 1000.45 2.98829 2.22558 0
M  V30 9978 H 1000.56 4.61724 1.27857 0
M  V30 9979 H 998.924 2.42703 0.772477 0
M  V30 9980 H 999.707 3.38005 -0.600613 0
M  V30 9981 N 1002.15 -0.195058 1.56388 0
M  V30 9982 C 1003.4 -0.915444 1.80626 0
M  V30 9983 C 1003.73 -1.83255 0.651768 0
M  V30 9984 O 1002.98 -1.92314 -0.362464 0
M  V30 9985 C 1003.28 -1.7637 3.10851 0
M  V30 9986 C 1002.95 -0.997572 4.39726 0
M  V30 9987 C 1001.61 -0.786043 4.74737 0
M  V30 9988 C 1003.96 -0.45851 5.19179 0
M  V30 9989 C 1001.29 -0.023972 5.86695 0
M  V30 9990 C 1003.64 0.29035 6.31933 0
M  V30 9991 C 1002.3 0.512895 6.65527 0
M  V30 9992 H 1001.57 -0.334985 0.660959 0
M  V30 9993 H 1004.22 -0.181815 1.90635 0
M  V30 9994 H 1002.53 -2.566 2.9608 0
M  V30 9995 H 1004.22 -2.3237 3.26811 0
M  V30 9996 H 1000.81 -1.17245 4.12252 0
M  V30 9997 H 1005 -0.609334 4.92545 0
M  V30 9998 H 1000.25 0.158421 6.11195 0
M  V30 9999 H 1004.43 0.715429 6.92715 0
M  V30 10000 H 1002.05 1.10531 7.52122 0
M  V30 10001 N 1003.63 -1.50653 -0.462772 0
M  V30 10002 C 1004.59 -1.69561 -1.54213 0
M  V30 10003 C 1005.59 -0.566106 -1.50505 0
M  V30 10004 O 1006.78 -0.833273 -1.52978 0
M  V30 10005 C 1003.91 -1.72856 -2.93826 0
M  V30 10006 H 1005.11 -2.65867 -1.38761 0
M  V30 10007 H 1002.66 -1.40259 -0.689728 0
M  V30 10008 H 1003.4 -0.78273 -3.14712 0
M  V30 10009 H 1003.18 -2.54919 -2.97924 0
M  V30 10010 H 1004.67 -1.89411 -3.72174 0
M  V30 10011 N 1005.11 0.71652 -1.4037 0
M  V30 10012 C 1006.52 1.02447 -1.22379 0
M  V30 10013 C 1006.72 2.0126 -0.0983394 0
M  V30 10014 O 1005.78 2.46569 0.544071 0
M  V30 10015 C 1007.09 1.56909 -2.56515 0
M  V30 10016 C 1008.64 1.68898 -2.6352 0
M  V30 10017 C 1009.12 2.26765 -3.97922 0
M  V30 10018 N 1010.61 2.34152 -3.99658 0
M  V30 10019 C 1011.34 2.79907 -5.00439 0
M  V30 10020 N 1010.84 3.25422 -6.11615 0
M  V30 10021 N 1012.63 2.79283 -4.87809 0
M  V30 10022 H 1004.78 0.0615306 -2.12311 0
M  V30 10023 H 1007.05 0.0898994 -0.943728 0
M  V30 10024 H 1006.75 0.917649 -3.39517 0
M  V30 10025 H 1006.63 2.55446 -2.77538 0
M  V30 10026 H 1009.01 2.33159 -1.8089 0
M  V30 10027 H 1009.09 0.689626 -2.46329 0
M  V30 10028 H 1008.74 1.63126 -4.80991 0
M  V30 10029 H 1008.67 3.27413 -4.12442 0
M  V30 10030 H 1011.16 2.02006 -3.19378 0
M  V30 10031 H 1011.47 3.58899 -6.84406 0
M  V30 10032 H 1009.82 3.23383 -6.15181 0
M  V30 10033 H 1013.01 2.43061 -4.00049 0
M  V30 10034 H 1013.18 3.14626 -5.66493 0
M  V30 10035 N 1006.59 1.25851 0.948643 0
M  V30 10036 C 1007.84 1.10347 1.68838 0
M  V30 10037 C 1008.15 -0.354262 1.92365 0
M  V30 10038 O 1009.35 -0.629847 2.64093 0
M  V30 10039 C 1007.81 1.92659 3.03991 0
M  V30 10040 C 1007.42 3.42962 2.88238 0
M  V30 10041 C 1009.16 1.85743 3.81707 0
M  V30 10042 C 1007.07 4.17547 4.18818 0
M  V30 10043 H 1006 0.409342 0.63321 0
M  V30 10044 H 1008.65 1.50098 1.05559 0
M  V30 10045 H 1007.03 1.45736 3.68208 0
M  V30 10046 H 1008.21 3.97601 2.32917 0
M  V30 10047 H 1006.52 3.51035 2.23972 0
M  V30 10048 H 1009.12 2.38758 4.78434 0
M  V30 10049 H 1009.46 0.826568 4.08012 0
M  V30 10050 H 1009.99 2.30449 3.2425 0
M  V30 10051 H 1006.73 5.21072 3.97699 0
M  V30 10052 H 1006.25 3.6769 4.73882 0
M  V30 10053 H 1007.93 4.25589 4.87322 0
M  V30 10054 N 1008.06 -1.15214 1.07534 0
M  V30 10055 C 1009.01 -2.18022 0.667108 0
M  V30 10056 C 1010 -1.57911 -0.308714 0
M  V30 10057 O 1011.19 -1.76578 -0.122147 0
M  V30 10058 C 1008.32 -3.43232 0.0684348 0
M  V30 10059 C 1007.41 -4.10393 1.06951 0
M  V30 10060 N 1007.8 -4.53013 2.24973 0
M  V30 10061 C 1006.09 -4.36758 0.903262 0
M  V30 10062 C 1006.8 -5.05118 2.88498 0
M  V30 10063 N 1005.77 -4.98777 2.16153 0
M  V30 10064 H 1009.57 -2.48706 1.56597 0
M  V30 10065 H 1007.09 -1.31801 0.948796 0
M  V30 10066 H 1009.08 -4.16197 -0.241934 0
M  V30 10067 H 1007.74 -3.14031 -0.825525 0
M  V30 10068 H 1008.76 -4.4634 2.6268 0
M  V30 10069 H 1005.43 -4.17453 0.0623543 0
M  V30 10070 H 1006.82 -5.48039 3.8872 0
M  V30 10071 N 1009.54 -0.859717 -1.32086 0
M  V30 10072 C 1010.79 -0.465581 -1.97075 0
M  V30 10073 C 1011.12 0.979917 -1.68012 0
M  V30 10074 O 1010.37 1.70337 -0.96353 0
M  V30 10075 C 1010.67 -0.657397 -3.51302 0
M  V30 10076 C 1010.34 -2.07413 -4.00363 0
M  V30 10077 C 1009 -2.4616 -4.13472 0
M  V30 10078 C 1011.35 -2.99855 -4.26305 0
M  V30 10079 C 1008.68 -3.76611 -4.49868 0
M  V30 10080 C 1011.03 -4.2981 -4.64161 0
M  V30 10081 C 1009.7 -4.68485 -4.75476 0
M  V30 10082 H 1008.97 -0.170368 -0.721149 0
M  V30 10083 H 1011.61 -1.09074 -1.57401 0
M  V30 10084 H 1009.92 0.0509638 -3.91767 0
M  V30 10085 H 1011.61 -0.332416 -3.9962 0
M  V30 10086 H 1008.2 -1.76327 -3.90649 0
M  V30 10087 H 1012.39 -2.7115 -4.15682 0
M  V30 10088 H 1007.64 -4.06352 -4.56824 0
M  V30 10089 H 1011.82 -5.015 -4.83188 0
M  V30 10090 H 1009.45 -5.69612 -5.03435 0
M  V30 10091 N 1011.02 1.44971 -0.618145 0
M  V30 10092 C 1011.97 2.27704 0.116119 0
M  V30 10093 C 1012.95 1.37927 0.828558 0
M  V30 10094 O 1014.15 1.61836 0.716806 0
M  V30 10095 C 1011.28 3.25004 1.10578 0
M  V30 10096 C 1010.36 4.22269 0.39364 0
M  V30 10097 N 1010.75 5.02571 -0.570581 0
M  V30 10098 C 1009.05 4.41387 0.639809 0
M  V30 10099 C 1009.75 5.73211 -0.990144 0
M  V30 10100 N 1008.73 5.42587 -0.331653 0
M  V30 10101 H 1012.53 2.87193 -0.624295 0
M  V30 10102 H 1010.04 1.56252 -0.442631 0
M  V30 10103 H 1012.04 3.83017 1.64631 0
M  V30 10104 H 1010.7 2.67075 1.84664 0
M  V30 10105 H 1011.71 5.09153 -0.947814 0
M  V30 10106 H 1008.39 3.94572 1.36453 0
M  V30 10107 H 1009.78 6.47728 -1.78601 0
M  V30 10108 N 1012.5 0.357919 1.53482 0
M  V30 10109 C 1013.72 -0.237769 2.06033 0
M  V30 10110 C 1014.15 -1.42292 1.23023 0
M  V30 10111 O 1013.51 -1.79604 0.247427 0
M  V30 10112 C 1013.55 -0.616806 3.55286 0
M  V30 10113 O 1012.66 -1.71503 3.75047 0
M  V30 10114 H 1012 -0.0364322 0.663 0
M  V30 10115 H 1014.53 0.516301 1.97979 0
M  V30 10116 H 1014.54 -0.88996 3.98175 0
M  V30 10117 H 1013.21 0.249825 4.15149 0
M  V30 10118 H 1011.79 -1.43803 3.44057 0
M  V30 10119 N 1013.98 -1.5736 0.0868897 0
M  V30 10120 C 1015.25 -1.85495 -0.620561 0
M  V30 10121 C 1015.63 -0.982218 -1.86857 0
M  V30 10122 O 1014.98 -0.0524529 -2.2844 0
M  V30 10123 C 1015.19 -3.35996 -0.943798 0
M  V30 10124 C 1016.54 -4.03861 -1.31079 0
M  V30 10125 O 1017.56 -3.4083 -1.03507 0
M  V30 10126 O 1016.42 -5.15062 -1.82683 0
M  V30 10127 H 1013.52 -0.766822 -0.309697 0
M  V30 10128 H 1016.06 -1.69282 0.118966 0
M  V30 10129 H 1014.83 -3.91257 -0.0580628 0
M  V30 10130 H 1014.46 -3.57525 -1.73958 0
M  V30 10131 N 1015.45 0.186762 -1.56489 0
M  V30 10132 C 1016.68 0.925916 -1.85584 0
M  V30 10133 C 1017.1 1.75708 -0.671446 0
M  V30 10134 O 1016.46 1.7728 0.379687 0
M  V30 10135 C 1016.51 1.79107 -3.12975 0
M  V30 10136 O 1015.61 2.89088 -2.94112 0
M  V30 10137 H 1014.96 0.260275 -0.610863 0
M  V30 10138 H 1017.49 0.189561 -2.0372 0
M  V30 10139 H 1017.5 2.19408 -3.43983 0
M  V30 10140 H 1016.17 1.18044 -3.98796 0
M  V30 10141 H 1014.75 2.52482 -2.74422 0
M  V30 10142 N 1016.93 1.50896 0.454776 0
M  V30 10143 C 1017.86 1.6712 1.56855 0
M  V30 10144 C 1018.88 0.552223 1.53148 0
M  V30 10145 O 1020.07 0.825969 1.5824 0
M  V30 10146 C 1017.17 1.65464 2.95762 0
M  V30 10147 C 1016.34 2.93662 3.24163 0
M  V30 10148 C 1015.4 2.84428 4.42704 0
M  V30 10149 O 1014.42 3.58382 4.42211 0
M  V30 10150 N 1015.63 1.9909 5.45292 0
M  V30 10151 H 1018.39 2.63194 1.43349 0
M  V30 10152 H 1015.95 1.48564 0.643457 0
M  V30 10153 H 1017.94 1.56878 3.73057 0
M  V30 10154 H 1016.51 0.770568 3.02954 0
M  V30 10155 H 1015.73 3.16251 2.35328 0
M  V30 10156 H 1017.02 3.78558 3.39957 0
M  V30 10157 H 1016.42 1.3835 5.48521 0
M  V30 10158 H 1014.98 1.96396 6.21508 0
M  V30 10159 N 1018.41 -0.709066 1.40748 0
M  V30 10160 C 1019.66 -1.4646 1.38681 0
M  V30 10161 C 1019.97 -1.95599 -0.0056209 0
M  V30 10162 O 1021.18 -2.71091 -0.148907 0
M  V30 10163 C 1019.63 -2.64771 2.43771 0
M  V30 10164 C 1019.24 -2.22474 3.88856 0
M  V30 10165 C 1020.99 -3.42475 2.50821 0
M  V30 10166 C 1018.89 -3.37663 4.85528 0
M  V30 10167 H 1017.82 -0.550084 0.515678 0
M  V30 10168 H 1020.47 -0.771074 1.66513 0
M  V30 10169 H 1018.86 -3.36325 2.09048 0
M  V30 10170 H 1020.03 -1.58297 4.32757 0
M  V30 10171 H 1018.35 -1.57798 3.85342 0
M  V30 10172 H 1020.94 -4.28201 3.20232 0
M  V30 10173 H 1021.29 -3.86738 1.54076 0
M  V30 10174 H 1021.82 -2.77969 2.84567 0
M  V30 10175 H 1018.56 -2.98426 5.83628 0
M  V30 10176 H 1018.08 -4.00734 4.46287 0
M  V30 10177 H 1019.76 -4.03636 5.05655 0
M  V30 10178 N 1019.89 -1.26353 -0.941956 0
M  V30 10179 C 1021.11 -1.14731 -1.72776 0
M  V30 10180 C 1021.54 0.293766 -1.85792 0
M  V30 10181 O 1020.9 1.21284 -1.34759 0
M  V30 10182 C 1020.95 -1.82041 -3.11277 0
M  V30 10183 O 1020.05 -1.10867 -3.97218 0
M  V30 10184 H 1019.39 -0.399823 -0.53013 0
M  V30 10185 H 1021.92 -1.67157 -1.17981 0
M  V30 10186 H 1021.93 -1.88834 -3.61671 0
M  V30 10187 H 1020.61 -2.86879 -3.0112 0
M  V30 10188 H 1019.18 -1.12044 -3.55669 0
M  V30 10189 N 1021.37 1.14642 -1.08144 0
M  V30 10190 C 1022.64 1.81774 -0.72232 0
M  V30 10191 C 1023.02 1.95587 0.794294 0
M  V30 10192 O 1022.37 1.51361 1.71178 0
M  V30 10193 C 1022.58 3.1763 -1.44611 0
M  V30 10194 C 1023.93 3.93161 -1.60343 0
M  V30 10195 O 1024.95 3.2721 -1.40755 0
M  V30 10196 O 1023.81 5.11422 -1.9264 0
M  V30 10197 H 1020.91 0.785733 -0.257978 0
M  V30 10198 H 1023.45 1.21683 -1.18285 0
M  V30 10199 H 1022.23 3.02723 -2.4794 0
M  V30 10200 H 1021.85 3.85412 -0.976892 0
M  V30 10201 N 1022.85 0.866709 1.31628 0
M  V30 10202 C 1023.78 0.277328 2.27516 0
M  V30 10203 C 1024.79 -0.557786 1.52946 0
M  V30 10204 O 1025.98 -0.38031 1.74402 0
M  V30 10205 C 1023.08 -0.625742 3.33073 0
M  V30 10206 C 1022.25 0.176204 4.37045 0
M  V30 10207 C 1021.31 -0.654497 5.22114 0
M  V30 10208 O 1020.34 -0.0836961 5.69138 0
M  V30 10209 N 1021.54 -1.96708 5.46156 0
M  V30 10210 H 1024.3 1.10133 2.78731 0
M  V30 10211 H 1021.87 0.72787 1.44616 0
M  V30 10212 H 1023.86 -1.18709 3.86898 0
M  V30 10213 H 1022.43 -1.35042 2.81926 0
M  V30 10214 H 1021.65 0.918999 3.83338 0
M  V30 10215 H 1022.94 0.726594 5.03585 0
M  V30 10216 H 1022.33 -2.454 5.09701 0
M  V30 10217 H 1020.89 -2.47629 6.02929 0
M  V30 10218 N 1024.32 -1.44642 0.625825 0
M  V30 10219 C 1025.57 -2.01695 0.127948 0
M  V30 10220 C 1025.89 -1.49439 -1.25271 0
M  V30 10221 O 1025.16 -0.695873 -1.83124 0
M  V30 10222 H 1023.74 -0.745685 0.0443096 0
M  V30 10223 H 1026.4 -1.7721 0.811332 0
M  V30 10224 H 1025.5 -3.11966 0.0915933 0
M  V30 10225 N 1025.8 -0.366053 -1.5329 0
M  V30 10226 C 1027.05 0.223493 -2.01263 0
M  V30 10227 C 1027.38 1.48736 -1.25331 0
M  V30 10228 O 1026.63 1.92805 -0.335341 0
M  V30 10229 C 1026.93 0.560906 -3.52971 0
M  V30 10230 C 1026.6 -0.60869 -4.46773 0
M  V30 10231 C 1025.26 -0.929609 -4.72135 0
M  V30 10232 C 1027.61 -1.39225 -5.02261 0
M  V30 10233 C 1024.94 -2.03606 -5.50238 0
M  V30 10234 C 1027.29 -2.48912 -5.81572 0
M  V30 10235 C 1025.95 -2.81538 -6.05221 0
M  V30 10236 H 1025.22 0.0817818 -0.736473 0
M  V30 10237 H 1027.87 -0.498613 -1.84895 0
M  V30 10238 H 1026.18 1.36403 -3.67289 0
M  V30 10239 H 1027.87 1.02931 -3.87564 0
M  V30 10240 H 1024.46 -0.348529 -4.27181 0
M  V30 10241 H 1028.65 -1.15757 -4.82612 0
M  V30 10242 H 1023.9 -2.29281 -5.6678 0
M  V30 10243 H 1028.08 -3.10044 -6.23575 0
M  V30 10244 H 1025.7 -3.67396 -6.65525 0
M  V30 10245 N 1027.28 1.57312 -0.0952337 0
M  V30 10246 C 1028.23 2.10571 0.87428 0
M  V30 10247 C 1029.21 1.02079 1.24374 0
M  V30 10248 O 1030.41 1.28353 1.2188 0
M  V30 10249 C 1027.53 2.68972 2.13329 0
M  V30 10250 C 1026.62 3.84508 1.78926 0
M  V30 10251 N 1027.01 4.92534 1.15082 0
M  V30 10252 C 1025.31 3.94245 2.08535 0
M  V30 10253 C 1026.01 5.73163 0.992937 0
M  V30 10254 N 1024.99 5.22198 1.51029 0
M  V30 10255 H 1028.79 2.91476 0.376727 0
M  V30 10256 H 1026.3 1.62041 0.107974 0
M  V30 10257 H 1028.3 3.05457 2.83728 0
M  V30 10258 H 1026.96 1.89523 2.6365 0
M  V30 10259 H 1027.97 5.11405 0.817621 0
M  V30 10260 H 1024.65 3.25805 2.61069 0
M  V30 10261 H 1026.04 6.70084 0.493641 0
M  V30 10262 N 1028.76 -0.17846 1.56586 0
M  V30 10263 C 1030.01 -0.894502 1.8078 0
M  V30 10264 C 1030.32 -1.8372 0.67129 0
M  V30 10265 O 1031.53 -2.59509 0.797971 0
M  V30 10266 C 1029.98 -1.64109 3.20306 0
M  V30 10267 C 1029.59 -0.742387 4.41806 0
M  V30 10268 C 1031.33 -2.34578 3.53798 0
M  V30 10269 C 1029.24 -1.4888 5.72354 0
M  V30 10270 H 1028.17 -0.33776 0.674117 0
M  V30 10271 H 1030.82 -0.14752 1.82906 0
M  V30 10272 H 1029.2 -2.43257 3.12477 0
M  V30 10273 H 1030.38 0.011615 4.60799 0
M  V30 10274 H 1028.69 -0.147705 4.16138 0
M  V30 10275 H 1031.29 -2.91004 4.48577 0
M  V30 10276 H 1031.63 -3.09572 2.78336 0
M  V30 10277 H 1032.17 -1.62381 3.63149 0
M  V30 10278 H 1028.9 -0.781325 6.50827 0
M  V30 10279 H 1028.42 -2.21631 5.57351 0
M  V30 10280 H 1030.1 -2.03819 6.14058 0
M  V30 10281 N 1030.24 -1.51135 -0.446768 0
M  V30 10282 C 1031.46 -1.67129 -1.21965 0
M  V30 10283 C 1031.88 -0.36467 -1.85245 0
M  V30 10284 O 1031.24 0.655908 -1.70306 0
M  V30 10285 C 1031.29 -2.78016 -2.31061 0
M  V30 10286 O 1031.01 -4.03615 -1.70371 0
M  V30 10287 C 1032.51 -3.05197 -3.21511 0
M  V30 10288 H 1029.73 -0.561111 -0.367961 0
M  V30 10289 H 1032.27 -1.97499 -0.530517 0
M  V30 10290 H 1030.43 -2.50272 -2.95707 0
M  V30 10291 H 1030.84 -4.65126 -2.424 0
M  V30 10292 H 1032.32 -3.8639 -3.94216 0
M  V30 10293 H 1032.79 -2.17228 -3.81718 0
M  V30 10294 H 1033.4 -3.34565 -2.62577 0
M  V30 10295 N 1031.71 0.701592 -1.41122 0
M  V30 10296 C 1032.94 1.48833 -1.43291 0
M  V30 10297 C 1033.35 1.89168 -0.0348668 0
M  V30 10298 O 1032.69 1.56937 0.9548 0
M  V30 10299 C 1032.76 2.78533 -2.27287 0
M  V30 10300 C 1032.42 2.60438 -3.75528 0
M  V30 10301 C 1033.42 2.26778 -4.67833 0
M  V30 10302 C 1031.1 2.76266 -4.19503 0
M  V30 10303 C 1033.1 2.09176 -6.021 0
M  V30 10304 C 1030.78 2.58281 -5.53836 0
M  V30 10305 C 1031.78 2.24786 -6.4495 0
M  V30 10306 O 1031.47 2.06952 -7.76805 0
M  V30 10307 H 1031.2 0.465401 -0.490284 0
M  V30 10308 H 1033.76 0.871843 -1.85979 0
M  V30 10309 H 1031.99 3.42566 -1.79403 0
M  V30 10310 H 1033.67 3.40312 -2.21229 0
M  V30 10311 H 1034.44 2.1417 -4.35151 0
M  V30 10312 H 1030.32 3.01322 -3.48893 0
M  V30 10313 H 1033.86 1.82955 -6.73181 0
M  V30 10314 H 1029.76 2.70478 -5.86099 0
M  V30 10315 H 1030.53 2.21762 -7.87886 0
M  V30 10316 N 1033.19 1.2685 0.935242 0
M  V30 10317 C 1034.12 1.1143 2.05196 0
M  V30 10318 C 1035.1 0.0178362 1.70091 0
M  V30 10319 O 1036.29 0.190951 1.93259 0
M  V30 10320 C 1033.42 0.752779 3.39044 0
M  V30 10321 C 1032.37 1.80164 3.88233 0
M  V30 10322 C 1031.7 1.29428 5.18799 0
M  V30 10323 C 1033 3.20431 4.12457 0
M  V30 10324 H 1034.69 2.04845 2.18355 0
M  V30 10325 H 1032.24 0.986276 1.04922 0
M  V30 10326 H 1034.19 0.631757 4.16637 0
M  V30 10327 H 1032.91 -0.217075 3.25878 0
M  V30 10328 H 1031.57 1.91144 3.12825 0
M  V30 10329 H 1031.22 0.3141 5.02018 0
M  V30 10330 H 1030.92 1.99546 5.5268 0
M  V30 10331 H 1032.45 1.18605 5.9897 0
M  V30 10332 H 1033.86 3.12495 4.80645 0
M  V30 10333 H 1032.26 3.88193 4.57631 0
M  V30 10334 H 1033.33 3.66046 3.18023 0
M  V30 10335 N 1034.67 -1.14067 1.0875 0
M  V30 10336 C 1035.9 -1.89041 0.840902 0
M  V30 10337 C 1036.31 -1.78768 -0.60725 0
M  V30 10338 O 1035.67 -1.14945 -1.41753 0
M  V30 10339 C 1035.72 -3.38891 1.25838 0
M  V30 10340 O 1035.44 -3.48886 2.64972 0
M  V30 10341 C 1036.94 -4.30852 1.04315 0
M  V30 10342 H 1034.16 -0.598685 0.303014 0
M  V30 10343 H 1036.71 -1.44438 1.44769 0
M  V30 10344 H 1034.86 -3.81103 0.695627 0
M  V30 10345 H 1035.28 -4.41989 2.82393 0
M  V30 10346 H 1036.75 -5.34353 1.38461 0
M  V30 10347 H 1037.23 -4.39196 -0.0195784 0
M  V30 10348 H 1037.83 -3.944 1.59151 0
M  V30 10349 N 1036.15 -0.873678 -1.31166 0
M  V30 10350 C 1037.37 -0.500242 -2.01277 0
M  V30 10351 C 1037.8 0.900811 -1.65127 0
M  V30 10352 O 1037.16 1.59504 -0.861862 0
M  V30 10353 C 1037.2 -0.668976 -3.5434 0
M  V30 10354 O 1036.31 0.290096 -4.11378 0
M  V30 10355 H 1035.65 -0.198507 -0.633633 0
M  V30 10356 H 1038.18 -1.17811 -1.67277 0
M  V30 10357 H 1038.19 -0.563673 -4.04088 0
M  V30 10358 H 1036.86 -1.69055 -3.79991 0
M  V30 10359 H 1035.44 0.139437 -3.72639 0
M  V30 10360 N 1037.63 1.44308 -0.633487 0
M  V30 10361 C 1039.04 1.85387 -0.221009 0
M  V30 10362 C 1039.39 1.5301 1.22811 0
M  V30 10363 O 1038.51 0.969325 1.93476 0
M  V30 10364 C 1039.11 3.36497 -0.394331 0
M  V30 10365 C 1037.67 3.76382 -0.0363405 0
M  V30 10366 C 1036.81 2.68146 -0.706598 0
M  V30 10367 H 1039.77 1.34741 -0.83849 0
M  V30 10368 H 1039.79 3.78735 0.366026 0
M  V30 10369 H 1039.3 3.60031 -1.44911 0
M  V30 10370 H 1037.4 3.58463 1.01661 0
M  V30 10371 H 1037.51 4.77 -0.448045 0
M  V30 10372 H 1035.88 2.54306 -0.14168 0
M  V30 10373 H 1036.66 2.94512 -1.76401 0
M  V30 10374 N 1039.1 0.374177 1.53094 0
M  V30 10375 C 1040.33 -0.215903 2.06273 0
M  V30 10376 C 1040.75 -1.40979 1.24526 0
M  V30 10377 O 1040.11 -1.79331 0.266462 0
M  V30 10378 C 1040.16 -0.579089 3.5592 0
M  V30 10379 O 1039.26 -1.67516 3.76845 0
M  V30 10380 H 1038.61 -0.0293981 0.663349 0
M  V30 10381 H 1041.14 0.537271 1.9742 0
M  V30 10382 H 1041.15 -0.847678 3.99097 0
M  V30 10383 H 1039.82 0.293843 4.14861 0
M  V30 10384 H 1038.4 -1.40146 3.45563 0
M  V30 10385 N 1040.58 -1.57259 0.103575 0
M  V30 10386 C 1041.86 -1.86143 -0.600852 0
M  V30 10387 C 1042.24 -1.00198 -1.85805 0
M  V30 10388 O 1041.59 -0.0766791 -2.28371 0
M  V30 10389 C 1041.8 -3.36978 -0.908108 0
M  V30 10390 C 1043.15 -4.05228 -1.26788 0
M  V30 10391 O 1044.17 -3.41908 -0.998859 0
M  V30 10392 O 1043.03 -5.16971 -1.7721 0
M  V30 10393 H 1040.12 -0.770064 -0.301547 0
M  V30 10394 H 1042.67 -1.69147 0.136914 0
M  V30 10395 H 1041.44 -3.91296 -0.0165615 0
M  V30 10396 H 1041.06 -3.5935 -1.70156 0
M  V30 10397 N 1042.06 0.170153 -1.56679 0
M  V30 10398 C 1042.99 1.21285 -1.9953 0
M  V30 10399 C 1043.97 1.46104 -0.871071 0
M  V30 10400 O 1045.16 1.57419 -1.13724 0
M  V30 10401 C 1042.29 2.5515 -2.35618 0
M  V30 10402 C 1041.24 2.44898 -3.51011 0
M  V30 10403 C 1040.57 3.83263 -3.72845 0
M  V30 10404 C 1041.87 1.95271 -4.84424 0
M  V30 10405 H 1043.56 0.856646 -2.86883 0
M  V30 10406 H 1041.11 0.410634 -1.38021 0
M  V30 10407 H 1043.06 3.28299 -2.64193 0
M  V30 10408 H 1041.78 2.92561 -1.45175 0
M  V30 10409 H 1040.44 1.74203 -3.22566 0
M  V30 10410 H 1040.09 4.18069 -2.79691 0
M  V30 10411 H 1039.79 3.77272 -4.50488 0
M  V30 10412 H 1041.31 4.57996 -4.03822 0
M  V30 10413 H 1042.73 2.58195 -5.11867 0
M  V30 10414 H 1041.13 2.00225 -5.65712 0
M  V30 10415 H 1042.2 0.90709 -4.7634 0
M  V30 10416 N 1043.54 1.5137 0.438746 0
M  V30 10417 C 1044.95 1.39514 0.775116 0
M  V30 10418 C 1045.15 0.47638 1.95788 0
M  V30 10419 O 1044.21 -0.0689832 2.52406 0
M  V30 10420 C 1045.52 2.81517 1.05681 0
M  V30 10421 C 1047.07 2.90658 1.16133 0
M  V30 10422 C 1047.55 4.33566 1.47597 0
M  V30 10423 N 1049.04 4.36665 1.54524 0
M  V30 10424 C 1049.77 5.4427 1.80438 0
M  V30 10425 N 1049.27 6.62037 2.04154 0
M  V30 10426 N 1051.06 5.31749 1.82208 0
M  V30 10427 H 1043.21 2.09657 -0.340237 0
M  V30 10428 H 1045.48 0.943736 -0.0898115 0
M  V30 10429 H 1045.18 3.50734 0.260441 0
M  V30 10430 H 1045.06 3.20757 1.98481 0
M  V30 10431 H 1047.44 2.2164 1.94833 0
M  V30 10432 H 1047.52 2.54917 0.212376 0
M  V30 10433 H 1047.17 5.03133 0.694251 0
M  V30 10434 H 1047.1 4.66819 2.43696 0
M  V30 10435 H 1049.59 3.51761 1.38105 0
M  V30 10436 H 1049.9 7.39838 2.23293 0
M  V30 10437 H 1048.25 6.65155 2.01479 0
M  V30 10438 H 1051.44 4.3873 1.63198 0
M  V30 10439 H 1051.61 6.15689 2.02067 0
M  V30 10440 N 1045.02 -0.694098 1.41492 0
M  V30 10441 C 1046.26 -1.46637 1.42398 0
M  V30 10442 C 1046.62 -1.91973 0.0321256 0
M  V30 10443 O 1047.82 -2.68669 -0.0840324 0
M  V30 10444 C 1046.09 -2.64474 2.40392 0
M  V30 10445 S 1047.65 -3.53595 2.59838 0
M  V30 10446 H 1044.47 -0.501074 0.504427 0
M  V30 10447 H 1047.07 -0.809761 1.77941 0
M  V30 10448 H 1045.78 -2.29374 3.40317 0
M  V30 10449 H 1045.31 -3.35026 2.06206 0
M  V30 10450 H 1047.32 -4.59741 1.86689 0
M  V30 10451 N 1046.49 -1.27344 -0.928501 0
M  V30 10452 C 1047.74 -1.13411 -1.67279 0
M  V30 10453 C 1048.06 0.320698 -1.92345 0
M  V30 10454 O 1047.33 1.2245 -1.52915 0
M  V30 10455 H 1045.91 -0.416712 -0.619968 0
M  V30 10456 H 1048.58 -1.5986 -1.11493 0
M  V30 10457 H 1047.67 -1.66256 -2.64131 0
M  V30 10458 N 1047.97 1.13488 -1.09353 0
M  V30 10459 C 1049.22 1.84383 -0.827488 0
M  V30 10460 C 1049.54 1.83892 0.648745 0
M  V30 10461 O 1048.81 1.29415 1.47066 0
M  V30 10462 H 1047.39 0.682732 -0.303127 0
M  V30 10463 H 1050.05 1.37477 -1.38152 0
M  V30 10464 H 1049.15 2.88919 -1.18035 0
M  V30 10465 N 1049.45 0.880621 1.30701 0
M  V30 10466 C 1050.4 0.333562 2.30196 0
M  V30 10467 C 1051.39 -0.557092 1.59978 0
M  V30 10468 O 1052.6 -0.442009 1.74489 0
M  V30 10469 H 1048.97 0.0892036 0.746691 0
M  V30 10470 H 1050.95 1.18644 2.73799 0
M  V30 10471 C 1049.69 -0.440731 3.44895 0
M  V30 10472 H 1049.02 0.235353 3.99107 0
M  V30 10473 H 1050.46 -0.788676 4.166 0
M  V30 10474 C 1048.92 -1.63613 2.94504 0
M  V30 10475 O 1049.45 -2.73549 2.94166 0
M  V30 10476 N 1047.65 -1.47183 2.5057 0
M  V30 10477 H 1047.2 -0.577479 2.51044 0
M  V30 10478 H 1047.16 -2.27303 2.17211 0
M  V30 10479 N 1050.93 -1.4397 0.641131 0
M  V30 10480 C 1052.16 -2.06004 0.156779 0
M  V30 10481 C 1052.57 -1.48059 -1.17793 0
M  V30 10482 O 1051.91 -0.601788 -1.73563 0
M  V30 10483 C 1051.97 -3.59493 -0.0217203 0
M  V30 10484 C 1051.64 -4.39957 1.23639 0
M  V30 10485 C 1052.63 -4.72797 2.16239 0
M  V30 10486 C 1050.32 -4.80168 1.4746 0
M  V30 10487 C 1052.31 -5.44741 3.30962 0
M  V30 10488 C 1050 -5.51859 2.62478 0
M  V30 10489 C 1051 -5.84067 3.54055 0
M  V30 10490 O 1050.69 -6.54296 4.67067 0
M  V30 10491 H 1050.42 -0.671061 0.0815685 0
M  V30 10492 H 1052.97 -1.85664 0.878517 0
M  V30 10493 H 1051.2 -3.78362 -0.798707 0
M  V30 10494 H 1052.89 -4.03263 -0.461893 0
M  V30 10495 H 1053.66 -4.42261 1.99073 0
M  V30 10496 H 1049.54 -4.54513 0.770652 0
M  V30 10497 H 1053.08 -5.69798 4.02462 0
M  V30 10498 H 1048.98 -5.81811 2.79583 0
M  V30 10499 H 1049.74 -6.72772 4.66177 0
M  V30 10500 N 1052.41 -0.382291 -1.52893 0
M  V30 10501 C 1053.64 0.202408 -2.05908 0
M  V30 10502 C 1054.05 1.4109 -1.25456 0
M  V30 10503 O 1053.41 1.80027 -0.29942 0
M  V30 10504 C 1053.46 0.579452 -3.56826 0
M  V30 10505 O 1053.18 -0.58102 -4.3423 0
M  V30 10506 C 1054.68 1.22076 -4.2616 0
M  V30 10507 H 1051.9 0.0321859 -0.670228 0
M  V30 10508 H 1054.44 -0.545494 -1.9709 0
M  V30 10509 H 1052.6 1.27726 -3.65739 0
M  V30 10510 H 1053.01 -0.272693 -5.23791 0
M  V30 10511 H 1054.49 1.435 -5.33021 0
M  V30 10512 H 1054.96 2.18605 -3.80931 0
M  V30 10513 H 1055.57 0.563922 -4.21545 0
M  V30 10514 N 1053.89 1.57202 -0.111913 0
M  V30 10515 C 1055.16 1.86459 0.590972 0
M  V30 10516 C 1055.54 1.01182 1.85271 0
M  V30 10517 O 1054.89 0.0887891 2.28327 0
M  V30 10518 C 1055.1 3.37455 0.890225 0
M  V30 10519 C 1056.45 4.05895 1.24638 0
M  V30 10520 O 1057.47 3.42433 0.980713 0
M  V30 10521 O 1056.33 5.17903 1.74466 0
M  V30 10522 H 1053.43 0.771652 0.297459 0
M  V30 10523 H 1055.97 1.69072 -0.145882 0
M  V30 10524 H 1054.74 3.913 -0.00419012 0
M  V30 10525 H 1054.37 3.60248 1.68248 0
M  V30 10526 N 1055.36 -0.161842 1.56767 0
M  V30 10527 C 1056.77 -0.723385 1.72116 0
M  V30 10528 C 1057.13 -1.82355 0.723961 0
M  V30 10529 O 1056.25 -2.16107 -0.112643 0
M  V30 10530 C 1056.85 -1.31895 3.12072 0
M  V30 10531 C 1055.4 -1.82722 3.29074 0
M  V30 10532 C 1054.55 -0.709863 2.6806 0
M  V30 10533 H 1057.5 0.0636647 1.58572 0
M  V30 10534 H 1057.52 -2.18871 3.11249 0
M  V30 10535 H 1057.04 -0.51801 3.84627 0
M  V30 10536 H 1055.14 -2.6543 2.61491 0
M  V30 10537 H 1055.25 -1.96614 4.36898 0
M  V30 10538 H 1053.61 -1.13273 2.28126 0
M  V30 10539 H 1054.4 0.0793884 3.43208 0
M  V30 10540 N 1056.84 -1.516 -0.430713 0
M  V30 10541 C 1057.75 -1.76247 -1.54836 0
M  V30 10542 C 1058.77 -0.646985 -1.61524 0
M  V30 10543 O 1059.94 -0.929987 -1.78643 0
M  V30 10544 C 1057.01 -1.88833 -2.90763 0
M  V30 10545 C 1056.07 -3.12701 -2.94137 0
M  V30 10546 C 1055.3 -3.24676 -4.23581 0
M  V30 10547 O 1055.53 -2.42429 -5.16318 0
M  V30 10548 O 1054.46 -4.17697 -4.33374 0
M  V30 10549 H 1058.29 -2.71069 -1.3695 0
M  V30 10550 H 1055.87 -1.36182 -0.614396 0
M  V30 10551 H 1057.75 -1.99057 -3.71422 0
M  V30 10552 H 1056.43 -0.971987 -3.08762 0
M  V30 10553 H 1055.33 -3.0795 -2.1241 0
M  V30 10554 H 1056.67 -4.04045 -2.81084 0
M  V30 10555 N 1058.32 0.686584 -1.41858 0
M  V30 10556 C 1059.57 1.44379 -1.41418 0
M  V30 10557 C 1059.89 1.94981 -0.0273696 0
M  V30 10558 O 1059.16 1.72296 0.932248 0
M  V30 10559 H 1057.74 0.53574 -0.520568 0
M  V30 10560 H 1060.4 0.812056 -1.77177 0
M  V30 10561 H 1059.5 2.30258 -2.10684 0
M  V30 10562 N 1059.8 1.27835 0.921735 0
M  V30 10563 C 1060.71 1.12904 2.05645 0
M  V30 10564 C 1061.72 0.0575704 1.73905 0
M  V30 10565 O 1062.9 0.265261 1.99645 0
M  V30 10566 C 1059.96 0.783957 3.3772 0
M  V30 10567 C 1059.03 1.93694 3.8312 0
M  V30 10568 C 1058.26 1.60823 5.08893 0
M  V30 10569 O 1058.48 0.518873 5.68035 0
M  V30 10570 O 1057.42 2.44932 5.49811 0
M  V30 10571 H 1061.24 2.08143 2.21157 0
M  V30 10572 H 1058.83 1.07078 1.04185 0
M  V30 10573 H 1060.71 0.605107 4.17033 0
M  V30 10574 H 1059.38 -0.138849 3.23402 0
M  V30 10575 H 1058.29 2.17089 3.04669 0
M  V30 10576 H 1059.62 2.84016 4.0199 0
M  V30 10577 N 1061.28 -1.12907 1.09954 0
M  V30 10578 C 1062.21 -2.20585 0.765799 0
M  V30 10579 C 1063.19 -1.68117 -0.258989 0
M  V30 10580 O 1064.37 -1.93792 -0.125853 0
M  V30 10581 C 1061.5 -3.46772 0.191435 0
M  V30 10582 C 1060.46 -4.12363 1.14635 0
M  V30 10583 C 1059.78 -5.3294 0.433426 0
M  V30 10584 C 1061.08 -4.59073 2.49096 0
M  V30 10585 H 1062.78 -2.48759 1.66612 0
M  V30 10586 H 1060.32 -1.19563 0.802534 0
M  V30 10587 H 1062.27 -4.21365 -0.0541535 0
M  V30 10588 H 1061 -3.18011 -0.744101 0
M  V30 10589 H 1059.66 -3.39744 1.37731 0
M  V30 10590 H 1059.31 -5.00444 -0.506422 0
M  V30 10591 H 1059.01 -5.77772 1.07018 0
M  V30 10592 H 1060.53 -6.10284 0.196267 0
M  V30 10593 H 1061.94 -5.25063 2.30177 0
M  V30 10594 H 1060.34 -5.14665 3.0861 0
M  V30 10595 H 1061.41 -3.73313 3.0946 0
M  V30 10596 N 1062.75 -0.88754 -1.30232 0
M  V30 10597 C 1064 -0.507279 -1.96043 0
M  V30 10598 C 1064.33 0.944059 -1.70052 0
M  V30 10599 O 1063.58 1.68255 -0.999444 0
M  V30 10600 C 1063.88 -0.731765 -3.49828 0
M  V30 10601 C 1063.55 -2.15858 -3.95874 0
M  V30 10602 C 1062.21 -2.54875 -4.08157 0
M  V30 10603 C 1064.56 -3.0883 -4.19849 0
M  V30 10604 C 1061.89 -3.86069 -4.41778 0
M  V30 10605 C 1064.24 -4.39559 -4.5494 0
M  V30 10606 C 1062.91 -4.78465 -4.65432 0
M  V30 10607 H 1062.18 -0.185627 -0.717373 0
M  V30 10608 H 1064.82 -1.12388 -1.55052 0
M  V30 10609 H 1063.13 -0.0321473 -3.91787 0
M  V30 10610 H 1064.83 -0.417107 -3.98825 0
M  V30 10611 H 1061.42 -1.84574 -3.86821 0
M  V30 10612 H 1065.6 -2.79906 -4.09837 0
M  V30 10613 H 1060.86 -4.1595 -4.48102 0
M  V30 10614 H 1065.03 -5.11636 -4.72442 0
M  V30 10615 H 1062.66 -5.80162 -4.91239 0
M  V30 10616 N 1064.23 1.43628 -0.648757 0
M  V30 10617 C 1065.16 2.33478 0.0320785 0
M  V30 10618 C 1066.14 1.49217 0.816605 0
M  V30 10619 O 1067.33 1.77892 0.778974 0
M  V30 10620 C 1064.46 3.32525 1.00222 0
M  V30 10621 C 1063.41 4.2674 0.328119 0
M  V30 10622 C 1062.74 5.15791 1.4094 0
M  V30 10623 C 1064.04 5.16493 -0.776701 0
M  V30 10624 H 1065.73 2.90657 -0.718257 0
M  V30 10625 H 1063.28 1.3976 -0.346852 0
M  V30 10626 H 1065.23 3.94277 1.4874 0
M  V30 10627 H 1063.96 2.73593 1.78366 0
M  V30 10628 H 1062.61 3.66346 -0.136569 0
M  V30 10629 H 1062.26 4.53201 2.18216 0
M  V30 10630 H 1061.96 5.79645 0.963631 0
M  V30 10631 H 1063.49 5.80416 1.89603 0
M  V30 10632 H 1064.9 5.7208 -0.373878 0
M  V30 10633 H 1063.3 5.89043 -1.14667 0
M  V30 10634 H 1064.37 4.56448 -1.63654 0
M  V30 10635 N 1065.71 0.390394 1.52688 0
M  V30 10636 C 1067.12 -0.083394 1.86514 0
M  V30 10637 C 1067.47 -1.46057 1.31003 0
M  V30 10638 O 1066.6 -2.06663 0.641809 0
M  V30 10639 C 1067.19 -0.158102 3.38431 0
M  V30 10640 C 1065.75 -0.576186 3.71964 0
M  V30 10641 C 1064.9 0.261156 2.76068 0
M  V30 10642 H 1067.85 0.608226 1.46582 0
M  V30 10643 H 1067.87 -0.977023 3.67742 0
M  V30 10644 H 1067.38 0.844365 3.78803 0
M  V30 10645 H 1065.48 -1.58598 3.37161 0
M  V30 10646 H 1065.6 -0.333577 4.77937 0
M  V30 10647 H 1063.96 -0.273737 2.53225 0
M  V30 10648 H 1064.74 1.26162 3.19277 0
M  V30 10649 N 1067.19 -1.57141 0.120249 0
M  V30 10650 C 1068.1 -2.18925 -0.843155 0
M  V30 10651 C 1069.11 -1.16575 -1.29175 0
M  V30 10652 O 1070.29 -1.4905 -1.35448 0
M  V30 10653 C 1067.36 -2.7775 -2.075 0
M  V30 10654 C 1066.42 -3.95139 -1.6782 0
M  V30 10655 C 1065.65 -4.51149 -2.85132 0
M  V30 10656 O 1065.87 -4.06056 -4.00593 0
M  V30 10657 O 1064.81 -5.41815 -2.62145 0
M  V30 10658 H 1068.63 -3.01707 -0.347357 0
M  V30 10659 H 1066.22 -1.49028 -0.105427 0
M  V30 10660 H 1068.1 -3.15243 -2.79643 0
M  V30 10661 H 1066.77 -1.97998 -2.56083 0
M  V30 10662 H 1065.68 -3.62412 -0.927807 0
M  V30 10663 H 1067.01 -4.7633 -1.23977 0
M  V30 10664 N 1068.67 0.153526 -1.5685 0
M  V30 10665 C 1069.6 1.19162 -2.00805 0
M  V30 10666 C 1070.58 1.45172 -0.886518 0
M  V30 10667 O 1071.76 1.56203 -1.15387 0
M  V30 10668 C 1068.89 2.52637 -2.38311 0
M  V30 10669 C 1067.85 2.41161 -3.53589 0
M  V30 10670 C 1067.17 3.79287 -3.76889 0
M  V30 10671 C 1068.47 1.90122 -4.86468 0
M  V30 10672 H 1070.17 0.82617 -2.87776 0
M  V30 10673 H 1067.71 0.395972 -1.38449 0
M  V30 10674 H 1069.67 3.25478 -2.6766 0
M  V30 10675 H 1068.39 2.91005 -1.4827 0
M  V30 10676 H 1067.05 1.70772 -3.24395 0
M  V30 10677 H 1066.7 4.15079 -2.84109 0
M  V30 10678 H 1066.4 3.72472 -4.54465 0
M  V30 10679 H 1067.92 4.53687 -4.08657 0
M  V30 10680 H 1069.33 2.52752 -5.14577 0
M  V30 10681 H 1067.73 1.94214 -5.67804 0
M  V30 10682 H 1068.8 0.856517 -4.77275 0
M  V30 10683 N 1070.14 1.51827 0.422667 0
M  V30 10684 C 1071.37 1.69337 1.19748 0
M  V30 10685 C 1071.79 0.396312 1.83878 0
M  V30 10686 O 1071.15 -0.644976 1.6944 0
M  V30 10687 C 1071.2 2.82082 2.24637 0
M  V30 10688 O 1070.3 2.46708 3.30468 0
M  V30 10689 H 1069.65 0.564154 0.35018 0
M  V30 10690 H 1072.18 1.98465 0.497289 0
M  V30 10691 H 1072.19 3.06599 2.69186 0
M  V30 10692 H 1070.86 3.76195 1.77341 0
M  V30 10693 H 1069.44 2.32815 2.91293 0
M  V30 10694 N 1071.62 -0.679052 1.4222 0
M  V30 10695 C 1072.87 -1.43627 1.42182 0
M  V30 10696 C 1073.19 -1.94964 0.0377095 0
M  V30 10697 O 1072.46 -1.72788 -0.923098 0
M  V30 10698 H 1071.04 -0.532972 0.523402 0
M  V30 10699 H 1073.7 -0.802649 1.77605 0
M  V30 10700 H 1072.8 -2.29137 2.11902 0
M  V30 10701 N 1073.1 -1.28322 -0.914942 0
M  V30 10702 C 1074.51 -1.13937 -1.47903 0
M  V30 10703 C 1074.86 0.271072 -1.94318 0
M  V30 10704 O 1073.99 1.16522 -1.8235 0
M  V30 10705 C 1074.58 -2.06221 -2.68809 0
M  V30 10706 C 1073.14 -1.95903 -3.21402 0
M  V30 10707 C 1072.29 -1.98031 -1.94111 0
M  V30 10708 H 1075.24 -1.41029 -0.727772 0
M  V30 10709 H 1075.26 -1.6255 -3.44031 0
M  V30 10710 H 1074.77 -3.08866 -2.34997 0
M  V30 10711 H 1072.87 -0.962907 -3.59943 0
M  V30 10712 H 1072.99 -2.82799 -3.86732 0
M  V30 10713 H 1071.35 -1.42423 -2.11158 0
M  V30 10714 H 1072.13 -3.02354 -1.62595 0
M  V30 10715 N 1074.58 1.12322 -1.10551 0
M  V30 10716 C 1075.83 1.83858 -0.848674 0
M  V30 10717 C 1076.15 1.84159 0.62575 0
M  V30 10718 O 1075.41 1.28341 1.4774 0
M  V30 10719 C 1075.71 3.31177 -1.34375 0
M  V30 10720 C 1075.37 3.51046 -2.8298 0
M  V30 10721 C 1074.04 3.56177 -3.23561 0
M  V30 10722 C 1076.39 3.58061 -3.78737 0
M  V30 10723 C 1073.72 3.65868 -4.58647 0
M  V30 10724 C 1076.07 3.69283 -5.13627 0
M  V30 10725 C 1074.73 3.7267 -5.53781 0
M  V30 10726 H 1074 0.672784 -0.310552 0
M  V30 10727 H 1076.65 1.3253 -1.38232 0
M  V30 10728 H 1074.95 3.84937 -0.730144 0
M  V30 10729 H 1076.65 3.84998 -1.12148 0
M  V30 10730 H 1073.24 3.47716 -2.50582 0
M  V30 10731 H 1077.42 3.53366 -3.48491 0
M  V30 10732 H 1072.68 3.66763 -4.89178 0
M  V30 10733 H 1076.85 3.73654 -5.8767 0
M  V30 10734 H 1074.48 3.79932 -6.58449 0
M  V30 10735 N 1076.06 0.894434 1.2976 0
M  V30 10736 C 1077.28 0.532916 1.99919 0
M  V30 10737 C 1077.7 -0.881022 1.66983 0
M  V30 10738 O 1077.06 -1.58076 0.912035 0
M  V30 10739 C 1077.11 0.70936 3.54472 0
M  V30 10740 O 1076.83 2.06764 3.86239 0
M  V30 10741 C 1078.33 0.352089 4.419 0
M  V30 10742 H 1075.55 0.205019 0.638912 0
M  V30 10743 H 1078.09 1.20233 1.65421 0
M  V30 10744 H 1076.25 0.0871901 3.87302 0
M  V30 10745 H 1076.66 2.09315 4.80924 0
M  V30 10746 H 1078.14 0.526405 5.49484 0
M  V30 10747 H 1078.61 -0.710527 4.33415 0
M  V30 10748 H 1079.22 0.950979 4.14532 0
M  V30 10749 N 1077.53 -1.43282 0.656365 0
M  V30 10750 C 1078.48 -2.27932 -0.0557069 0
M  V30 10751 C 1079.47 -1.40075 -0.791698 0
M  V30 10752 O 1080.66 -1.6368 -0.673646 0
M  V30 10753 C 1077.79 -3.27821 -1.01923 0
M  V30 10754 C 1076.88 -4.23164 -0.281545 0
M  V30 10755 N 1077.27 -5.00882 0.703629 0
M  V30 10756 C 1075.56 -4.42928 -0.522558 0
M  V30 10757 C 1076.27 -5.70384 1.14177 0
M  V30 10758 N 1075.24 -5.41517 0.475394 0
M  V30 10759 H 1079.04 -2.85437 0.70022 0
M  V30 10760 H 1076.56 -1.55023 0.483902 0
M  V30 10761 H 1078.55 -3.87248 -1.54418 0
M  V30 10762 H 1077.21 -2.71878 -1.77518 0
M  V30 10763 H 1078.23 -5.06461 1.08247 0
M  V30 10764 H 1074.9 -3.98051 -1.25944 0
M  V30 10765 H 1076.29 -6.42765 1.95711 0
M  V30 10766 N 1079.01 -0.398486 -1.52479 0
M  V30 10767 C 1080.24 0.180557 -2.06111 0
M  V30 10768 C 1080.66 1.39751 -1.26945 0
M  V30 10769 O 1080.01 1.79699 -0.318497 0
M  V30 10770 C 1080.06 0.541573 -3.5742 0
M  V30 10771 O 1079.79 -0.627043 -4.33589 0
M  V30 10772 C 1081.29 1.17549 -4.27431 0
M  V30 10773 H 1078.51 0.0250754 -0.670531 0
M  V30 10774 H 1081.05 -0.566368 -1.96501 0
M  V30 10775 H 1079.21 1.23839 -3.67073 0
M  V30 10776 H 1079.62 -0.328233 -5.23472 0
M  V30 10777 H 1081.09 1.37839 -5.34513 0
M  V30 10778 H 1081.57 2.14553 -3.83228 0
M  V30 10779 H 1082.18 0.51918 -4.22119 0
M  V30 10780 N 1080.49 1.57075 -0.12858 0
M  V30 10781 C 1081.91 1.57964 0.227961 0
M  V30 10782 C 1082.11 1.14186 1.66023 0
M  V30 10783 O 1081.16 0.833655 2.38341 0
M  V30 10784 C 1082.48 3.00697 -0.0140648 0
M  V30 10785 C 1084.02 3.12958 0.0510876 0
M  V30 10786 C 1084.5 4.57709 -0.163368 0
M  V30 10787 N 1085.99 4.6307 -0.109663 0
M  V30 10788 C 1086.73 5.72853 -0.250366 0
M  V30 10789 N 1086.22 6.91351 -0.447772 0
M  V30 10790 N 1088.01 5.61781 -0.189265 0
M  V30 10791 H 1080.17 1.83829 -1.06398 0
M  V30 10792 H 1082.43 0.850014 -0.419739 0
M  V30 10793 H 1082.13 3.37047 -1.00461 0
M  V30 10794 H 1082.01 3.70389 0.713571 0
M  V30 10795 H 1084.4 2.7646 1.03216 0
M  V30 10796 H 1084.48 2.4579 -0.708583 0
M  V30 10797 H 1084.12 4.94907 -1.14146 0
M  V30 10798 H 1084.05 5.2298 0.616405 0
M  V30 10799 H 1086.54 3.7788 0.0390086 0
M  V30 10800 H 1086.85 7.70871 -0.54574 0
M  V30 10801 H 1085.2 6.93314 -0.483866 0
M  V30 10802 H 1088.39 4.68086 -0.0359374 0
M  V30 10803 H 1088.56 6.47294 -0.302359 0
M  V30 10804 N 1081.97 -0.145205 1.5693 0
M  V30 10805 C 1082.9 -1.20438 1.95006 0
M  V30 10806 C 1083.91 -1.39085 0.846114 0
M  V30 10807 O 1085.1 -1.38625 1.12452 0
M  V30 10808 C 1082.2 -2.56892 2.21043 0
M  V30 10809 C 1081.38 -2.59197 3.52329 0
M  V30 10810 C 1080.44 -3.77204 3.66884 0
M  V30 10811 O 1079.46 -3.61995 4.39259 0
M  V30 10812 N 1080.66 -4.9473 3.03682 0
M  V30 10813 H 1083.43 -0.880709 2.86467 0
M  V30 10814 H 1080.99 -0.334751 1.58401 0
M  V30 10815 H 1082.98 -3.34349 2.2802 0
M  V30 10816 H 1081.55 -2.81544 1.35838 0
M  V30 10817 H 1080.77 -1.67644 3.56776 0
M  V30 10818 H 1082.06 -2.57771 4.3867 0
M  V30 10819 H 1081.46 -5.09989 2.44801 0
M  V30 10820 H 1080.01 -5.69956 3.16218 0
M  V30 10821 N 1083.45 -1.52049 -0.414609 0
M  V30 10822 C 1084.69 -1.67511 -1.17129 0
M  V30 10823 C 1085.05 -0.39383 -1.87917 0
M  V30 10824 O 1086.25 -0.424496 -2.65427 0
M  V30 10825 C 1084.52 -2.85982 -2.14357 0
M  V30 10826 S 1086.08 -3.21898 -2.98206 0
M  V30 10827 H 1082.9 -0.589923 -0.396877 0
M  V30 10828 H 1085.5 -1.90025 -0.459409 0
M  V30 10829 H 1084.21 -3.77488 -1.6103 0
M  V30 10830 H 1083.74 -2.65725 -2.90092 0
M  V30 10831 H 1085.75 -2.70095 -4.16249 0
M  V30 10832 N 1084.93 0.6715 -1.42579 0
M  V30 10833 C 1086.17 1.43366 -1.43436 0
M  V30 10834 C 1086.5 1.94131 -0.0517339 0
M  V30 10835 O 1085.78 1.71121 0.924548 0
M  V30 10836 C 1086.06 2.62832 -2.46154 0
M  V30 10837 C 1085.92 2.17677 -3.9362 0
M  V30 10838 C 1087.23 3.65049 -2.4582 0
M  V30 10839 H 1084.35 0.519967 -0.522306 0
M  V30 10840 H 1087 0.762849 -1.74013 0
M  V30 10841 H 1085.15 3.20062 -2.2021 0
M  V30 10842 H 1086.82 1.65588 -4.30556 0
M  V30 10843 H 1085.06 1.49219 -4.07328 0
M  V30 10844 H 1085.73 3.03503 -4.61075 0
M  V30 10845 H 1088.21 3.17541 -2.68899 0
M  V30 10846 H 1087.08 4.46213 -3.19664 0
M  V30 10847 H 1087.34 4.16401 -1.48536 0
M  V30 10848 N 1086.4 1.28806 0.908124 0
M  V30 10849 C 1087.63 1.1898 1.689 0
M  V30 10850 C 1088.04 -0.253334 1.87496 0
M  V30 10851 O 1087.38 -1.18245 1.40584 0
M  V30 10852 C 1087.45 1.82266 3.0987 0
M  V30 10853 C 1087.11 3.31534 3.14538 0
M  V30 10854 C 1088.11 4.27886 2.95313 0
M  V30 10855 C 1085.79 3.72589 3.36872 0
M  V30 10856 C 1087.79 5.63267 2.98343 0
M  V30 10857 C 1085.47 5.08095 3.39534 0
M  V30 10858 C 1086.47 6.03244 3.2029 0
M  V30 10859 O 1086.16 7.36277 3.22724 0
M  V30 10860 H 1085.89 0.413772 0.534574 0
M  V30 10861 H 1088.45 1.7055 1.14464 0
M  V30 10862 H 1086.68 1.25197 3.65872 0
M  V30 10863 H 1088.36 1.6688 3.70008 0
M  V30 10864 H 1089.13 3.97502 2.77879 0
M  V30 10865 H 1085.01 2.98989 3.50894 0
M  V30 10866 H 1088.55 6.37511 2.83241 0
M  V30 10867 H 1084.45 5.38126 3.56497 0
M  V30 10868 H 1085.22 7.44976 3.39048 0
M  V30 10869 N 1087.88 -1.11734 1.11145 0
M  V30 10870 C 1088.81 -2.16847 0.710809 0
M  V30 10871 C 1089.79 -1.59966 -0.291494 0
M  V30 10872 O 1090.98 -1.87554 -0.188645 0
M  V30 10873 C 1088.1 -3.38663 0.0499744 0
M  V30 10874 C 1087.15 -4.14199 1.01693 0
M  V30 10875 S 1087.98 -4.7154 2.53793 0
M  V30 10876 C 1089.14 -5.96682 1.89001 0
M  V30 10877 H 1089.37 -2.50497 1.60121 0
M  V30 10878 H 1086.9 -1.23311 0.929182 0
M  V30 10879 H 1088.86 -4.09212 -0.324959 0
M  V30 10880 H 1087.52 -3.03279 -0.817335 0
M  V30 10881 H 1086.72 -5.01494 0.501933 0
M  V30 10882 H 1086.32 -3.49395 1.33414 0
M  V30 10883 H 1088.61 -6.6634 1.22462 0
M  V30 10884 H 1089.55 -6.52821 2.74282 0
M  V30 10885 H 1089.96 -5.48084 1.35145 0
M  V30 10886 N 1089.36 -0.901303 -1.29284 0
M  V30 10887 C 1090.29 -0.32479 -2.25877 0
M  V30 10888 C 1091.27 0.563944 -1.52507 0
M  V30 10889 O 1092.45 0.510393 -1.81459 0
M  V30 10890 C 1089.58 0.536897 -3.34418 0
M  V30 10891 C 1088.63 -0.28474 -4.25548 0
M  V30 10892 S 1089.46 -1.68355 -5.08347 0
M  V30 10893 C 1090.62 -0.828826 -6.20388 0
M  V30 10894 H 1090.85 -1.14352 -2.74428 0
M  V30 10895 H 1088.38 -0.701749 -1.37531 0
M  V30 10896 H 1090.34 1.02827 -3.97413 0
M  V30 10897 H 1089 1.32988 -2.84558 0
M  V30 10898 H 1088.19 0.373566 -5.02614 0
M  V30 10899 H 1087.8 -0.709313 -3.67212 0
M  V30 10900 H 1090.09 -0.0529234 -6.77479 0
M  V30 10901 H 1091.03 -1.57161 -6.90439 0
M  V30 10902 H 1091.44 -0.382503 -5.63203 0
M  V30 10903 N 1090.84 1.42931 -0.663954 0
M  V30 10904 C 1091.78 2.3079 0.0210764 0
M  V30 10905 C 1092.75 1.45356 0.803796 0
M  V30 10906 O 1093.94 1.74207 0.778237 0
M  V30 10907 C 1091.08 3.31069 0.974023 0
M  V30 10908 C 1090.19 4.31598 0.186273 0
M  V30 10909 C 1089.33 5.18955 1.13399 0
M  V30 10910 C 1088.37 6.1117 0.337292 0
M  V30 10911 N 1087.5 6.91114 1.23715 0
M  V30 10912 H 1092.34 2.88819 -0.733995 0
M  V30 10913 H 1089.88 1.42274 -0.373711 0
M  V30 10914 H 1091.84 3.87727 1.54024 0
M  V30 10915 H 1090.47 2.74665 1.69585 0
M  V30 10916 H 1089.52 3.77147 -0.496402 0
M  V30 10917 H 1090.83 4.96919 -0.432753 0
M  V30 10918 H 1089.99 5.80292 1.77049 0
M  V30 10919 H 1088.73 4.53785 1.78691 0
M  V30 10920 H 1087.73 5.48911 -0.312492 0
M  V30 10921 H 1088.96 6.78386 -0.31138 0
M  V30 10922 H 1086.9 6.28583 1.87668 0
M  V30 10923 H 1086.82 7.52999 0.672946 0
M  V30 10924 H 1088.09 7.56948 1.86146 0
M  V30 10925 N 1092.32 0.406567 1.52266 0
M  V30 10926 C 1093.25 -0.45552 2.24628 0
M  V30 10927 C 1094.26 -1.01234 1.27497 0
M  V30 10928 O 1095.45 -0.911718 1.5346 0
M  V30 10929 C 1092.55 -1.64578 2.96256 0
M  V30 10930 C 1091.72 -1.2133 4.20235 0
M  V30 10931 C 1090.78 -2.27018 4.7471 0
M  V30 10932 O 1089.81 -1.87714 5.37357 0
M  V30 10933 N 1091.01 -3.5915 4.56061 0
M  V30 10934 H 1093.77 0.164525 2.99248 0
M  V30 10935 H 1091.34 0.233812 1.60203 0
M  V30 10936 H 1093.33 -2.3484 3.29594 0
M  V30 10937 H 1091.9 -2.1718 2.24837 0
M  V30 10938 H 1091.12 -0.338892 3.92741 0
M  V30 10939 H 1092.41 -0.901268 5.00754 0
M  V30 10940 H 1091.8 -3.93834 4.06092 0
M  V30 10941 H 1090.36 -4.25397 4.93843 0
M  V30 10942 N 1093.79 -1.57004 0.136909 0
M  V30 10943 C 1095.21 -1.82675 -0.385577 0
M  V30 10944 C 1095.56 -1.05508 -1.65416 0
M  V30 10945 O 1094.68 -0.297207 -2.14349 0
M  V30 10946 C 1095.28 -3.31356 -0.706326 0
M  V30 10947 C 1093.84 -3.57644 -1.17337 0
M  V30 10948 C 1092.98 -2.7664 -0.191239 0
M  V30 10949 H 1095.93 -1.54522 0.36177 0
M  V30 10950 H 1095.95 -3.4696 -1.56201 0
M  V30 10951 H 1095.47 -3.87492 0.217147 0
M  V30 10952 H 1093.57 -3.06883 -2.11313 0
M  V30 10953 H 1093.68 -4.66152 -1.10632 0
M  V30 10954 H 1092.04 -2.45403 -0.681867 0
M  V30 10955 H 1092.83 -3.35543 0.725647 0
M  V30 10956 N 1095.27 0.136881 -1.57004 0
M  V30 10957 C 1096.2 1.19402 -1.95642 0
M  V30 10958 C 1097.22 1.38635 -0.853478 0
M  V30 10959 O 1098.41 1.38027 -1.13185 0
M  V30 10960 C 1095.51 2.55716 -2.22402 0
M  V30 10961 C 1094.68 2.57325 -3.53698 0
M  V30 10962 C 1093.74 3.75253 -3.68879 0
M  V30 10963 O 1092.76 3.5966 -4.41173 0
M  V30 10964 N 1093.97 4.93112 -3.06302 0
M  V30 10965 H 1096.73 0.865504 -2.8693 0
M  V30 10966 H 1094.29 0.326346 -1.58577 0
M  V30 10967 H 1096.28 3.33135 -2.29789 0
M  V30 10968 H 1094.85 2.80819 -1.37329 0
M  V30 10969 H 1094.07 1.65749 -3.5766 0
M  V30 10970 H 1095.36 2.55441 -4.40031 0
M  V30 10971 H 1094.76 5.08684 -2.47502 0
M  V30 10972 H 1093.32 5.68271 -3.19236 0
M  V30 10973 N 1096.75 1.52266 0.40654 0
M  V30 10974 C 1098 1.66123 1.15097 0
M  V30 10975 C 1098.32 0.394836 1.90961 0
M  V30 10976 O 1097.59 -0.590349 1.86793 0
M  V30 10977 H 1096.17 0.612317 0.427875 0
M  V30 10978 H 1098.83 1.89318 0.463106 0
M  V30 10979 H 1097.93 2.50351 1.86361 0
M  V30 10980 N 1098.23 -0.663929 1.42933 0
M  V30 10981 C 1099.14 -1.80643 1.49683 0
M  V30 10982 C 1100.15 -1.69694 0.38472 0
M  V30 10983 O 1101.33 -1.91052 0.637256 0
M  V30 10984 C 1098.4 -3.16858 1.4072 0
M  V30 10985 C 1097.46 -3.39684 2.62514 0
M  V30 10986 C 1096.69 -4.69399 2.53969 0
M  V30 10987 O 1096.91 -5.48037 1.58152 0
M  V30 10988 O 1095.85 -4.93709 3.44289 0
M  V30 10989 H 1099.67 -1.77903 2.46138 0
M  V30 10990 H 1097.26 -0.821059 1.24816 0
M  V30 10991 H 1099.14 -3.9812 1.38124 0
M  V30 10992 H 1097.81 -3.20211 0.473954 0
M  V30 10993 H 1096.72 -2.58227 2.70684 0
M  V30 10994 H 1098.05 -3.41169 3.54774 0
M  V30 10995 N 1099.71 -1.29285 -0.901281 0
M  V30 10996 C 1100.64 -1.10086 -2.01032 0
M  V30 10997 C 1101.65 -0.0488364 -1.62727 0
M  V30 10998 O 1102.84 -0.293194 -1.76076 0
M  V30 10999 C 1099.94 -0.653357 -3.32542 0
M  V30 11000 C 1099.11 -1.78355 -3.99385 0
M  V30 11001 C 1098.17 -1.32733 -5.09184 0
M  V30 11002 O 1097.2 -2.03177 -5.31703 0
M  V30 11003 N 1098.4 -0.197345 -5.80164 0
M  V30 11004 H 1101.17 -2.056 -2.18057 0
M  V30 11005 H 1098.73 -1.21204 -1.07337 0
M  V30 11006 H 1100.72 -0.331491 -4.0334 0
M  V30 11007 H 1099.29 0.209278 -3.11899 0
M  V30 11008 H 1098.51 -2.27438 -3.21972 0
M  V30 11009 H 1099.8 -2.54137 -4.40785 0
M  V30 11010 H 1099.19 0.390011 -5.64354 0
M  V30 11011 H 1097.75 0.0651642 -6.51767 0
M  V30 11012 N 1101.18 1.11143 -1.11736 0
M  V30 11013 C 1102.43 1.82311 -0.862875 0
M  V30 11014 C 1102.75 1.85735 0.613326 0
M  V30 11015 O 1103.95 2.53034 0.984168 0
M  V30 11016 C 1102.41 3.27427 -1.49396 0
M  V30 11017 C 1102.02 3.32323 -3.00443 0
M  V30 11018 C 1103.76 4.03474 -1.31944 0
M  V30 11019 C 1101.67 4.71855 -3.56521 0
M  V30 11020 H 1100.6 0.683124 -0.31915 0
M  V30 11021 H 1103.25 1.25045 -1.34298 0
M  V30 11022 H 1101.63 3.84644 -0.941528 0
M  V30 11023 H 1102.8 2.84971 -3.62117 0
M  V30 11024 H 1101.12 2.69758 -3.17206 0
M  V30 11025 H 1103.72 5.06528 -1.71271 0
M  V30 11026 H 1104.06 4.15473 -0.262339 0
M  V30 11027 H 1104.59 3.52652 -1.84069 0
M  V30 11028 H 1101.33 4.65054 -4.61958 0
M  V30 11029 H 1100.85 5.19604 -2.99619 0
M  V30 11030 H 1102.53 5.40816 -3.55144 0
M  V30 11031 N 1102.66 0.908147 1.28804 0
M  V30 11032 C 1103.59 0.34957 2.26519 0
M  V30 11033 C 1104.61 -0.508845 1.54643 0
M  V30 11034 O 1105.8 -0.324633 1.75523 0
M  V30 11035 C 1102.9 -0.519461 3.34895 0
M  V30 11036 C 1102.07 0.315157 4.36263 0
M  V30 11037 C 1101.13 -0.488059 5.23932 0
M  V30 11038 O 1100.15 0.0974133 5.69117 0
M  V30 11039 N 1101.36 -1.79233 5.52137 0
M  V30 11040 H 1104.12 1.18945 2.75086 0
M  V30 11041 H 1101.68 0.77351 1.42227 0
M  V30 11042 H 1103.67 -1.0634 3.90479 0
M  V30 11043 H 1102.24 -1.26004 2.8608 0
M  V30 11044 H 1101.46 1.04049 3.8022 0
M  V30 11045 H 1102.75 0.886438 5.01019 0
M  V30 11046 H 1102.15 -2.2906 5.1725 0
M  V30 11047 H 1100.71 -2.28322 6.10502 0
M  V30 11048 N 1104.14 -1.42577 0.671525 0
M  V30 11049 C 1105.39 -2.00806 0.189663 0
M  V30 11050 C 1105.7 -1.537 -1.20978 0
M  V30 11051 O 1106.91 -2.04325 -1.78784 0
M  V30 11052 C 1105.36 -3.58744 0.288227 0
M  V30 11053 C 1104.97 -4.14839 1.69152 0
M  V30 11054 C 1106.72 -4.24285 -0.13509 0
M  V30 11055 C 1104.62 -5.65131 1.74302 0
M  V30 11056 H 1103.55 -0.751004 0.067146 0
M  V30 11057 H 1106.2 -1.63338 0.83623 0
M  V30 11058 H 1104.59 -3.937 -0.426175 0
M  V30 11059 H 1105.76 -3.91349 2.43274 0
M  V30 11060 H 1104.08 -3.61738 2.0624 0
M  V30 11061 H 1106.67 -5.34573 -0.116709 0
M  V30 11062 H 1107.02 -3.99527 -1.16977 0
M  V30 11063 H 1107.55 -3.94278 0.528191 0
M  V30 11064 H 1104.29 -5.94682 2.75742 0
M  V30 11065 H 1103.81 -5.90621 1.04531 0
M  V30 11066 H 1105.49 -6.29491 1.49498 0
M  V30 11067 N 1105.62 -0.414636 -1.52048 0
M  V30 11068 C 1106.57 0.422766 -2.28726 0
M  V30 11069 C 1107.56 1.04099 -1.3364 0
M  V30 11070 O 1108.77 0.978559 -1.51077 0
M  V30 11071 H 1105.14 0.155123 -0.735827 0
M  V30 11072 H 1107.11 -0.245091 -2.97392 0
M  V30 11073 C 1105.86 1.52418 -3.12513 0
M  V30 11074 H 1105.18 1.05781 -3.85552 0
M  V30 11075 H 1106.62 2.08382 -3.6926 0
M  V30 11076 C 1105.08 2.49465 -2.26426 0
M  V30 11077 O 1105.61 3.53479 -1.90829 0
M  V30 11078 N 1103.82 2.19806 -1.90088 0
M  V30 11079 H 1103.37 1.35253 -2.19236 0
M  V30 11080 H 1103.32 2.84984 -1.32783 0
M  V30 11081 N 1107.1 1.56929 -0.145233 0
M  V30 11082 C 1108.34 1.96068 0.50632 0
M  V30 11083 C 1108.67 1.02999 1.64989 0
M  V30 11084 O 1107.93 0.0588581 1.95611 0
M  V30 11085 C 1108.23 3.41467 1.05522 0
M  V30 11086 C 1107.89 4.5089 0.0302827 0
M  V30 11087 C 1106.55 4.80542 -0.251475 0
M  V30 11088 C 1108.91 5.16917 -0.666783 0
M  V30 11089 C 1106.23 5.7353 -1.23614 0
M  V30 11090 C 1108.59 6.10965 -1.64025 0
M  V30 11091 C 1107.25 6.38998 -1.92973 0
M  V30 11092 H 1106.52 0.717464 0.185276 0
M  V30 11093 H 1109.17 1.90093 -0.23169 0
M  V30 11094 H 1107.47 3.44265 1.87053 0
M  V30 11095 H 1109.17 3.69077 1.5679 0
M  V30 11096 H 1105.76 4.2781 0.260069 0
M  V30 11097 H 1109.94 4.94142 -0.462297 0
M  V30 11098 H 1105.2 5.93543 -1.46687 0
M  V30 11099 H 1109.37 6.61204 -2.18591 0
M  V30 11100 H 1107 7.10855 -2.69423 0
M  V30 11101 N 1108.58 -0.128553 1.57075 0
M  V30 11102 C 1109.8 -0.85245 1.88523 0
M  V30 11103 C 1110.22 -1.73886 0.735459 0
M  V30 11104 O 1109.58 -1.80114 -0.294113 0
M  V30 11105 C 1109.63 -1.69384 3.19361 0
M  V30 11106 O 1109.35 -0.84313 4.2991 0
M  V30 11107 C 1110.85 -2.52373 3.64449 0
M  V30 11108 H 1108.07 -0.245556 0.624454 0
M  V30 11109 H 1110.61 -0.115807 2.04172 0
M  V30 11110 H 1108.77 -2.38335 3.0541 0
M  V30 11111 H 1109.18 -1.42255 5.0484 0
M  V30 11112 H 1110.66 -3.06955 4.58784 0
M  V30 11113 H 1111.13 -3.29283 2.90636 0
M  V30 11114 H 1111.74 -1.88681 3.81155 0
M  V30 11115 N 1110.05 -1.5248 -0.398459 0
M  V30 11116 C 1111 -1.72965 -1.4855 0
M  V30 11117 C 1111.99 -0.583628 -1.49942 0
M  V30 11118 O 1113.18 -0.841106 -1.55738 0
M  V30 11119 C 1110.31 -1.89339 -2.86366 0
M  V30 11120 C 1109.39 -3.09845 -2.8958 0
M  V30 11121 N 1109.79 -4.32365 -2.62477 0
M  V30 11122 C 1108.08 -3.09897 -3.20749 0
M  V30 11123 C 1108.78 -5.13908 -2.72532 0
M  V30 11124 N 1107.76 -4.49387 -3.05864 0
M  V30 11125 H 1111.56 -2.65327 -1.26406 0
M  V30 11126 H 1109.08 -1.50658 -0.606299 0
M  V30 11127 H 1111.07 -2.02134 -3.64619 0
M  V30 11128 H 1109.73 -0.981841 -3.095 0
M  V30 11129 H 1110.74 -4.60659 -2.36673 0
M  V30 11130 H 1107.42 -2.28518 -3.49408 0
M  V30 11131 H 1108.81 -6.21548 -2.55202 0
M  V30 11132 N 1111.53 0.65634 -1.43283 0
M  V30 11133 C 1112.78 1.41837 -1.44949 0
M  V30 11134 C 1113.11 1.94065 -0.0723212 0
M  V30 11135 O 1112.39 1.72092 0.906346 0
M  V30 11136 C 1112.67 2.60206 -2.48927 0
M  V30 11137 C 1112.52 2.1349 -3.95907 0
M  V30 11138 C 1113.84 3.62421 -2.49678 0
M  V30 11139 H 1110.96 0.514398 -0.527792 0
M  V30 11140 H 1113.6 0.74435 -1.74813 0
M  V30 11141 H 1111.75 3.17708 -2.23592 0
M  V30 11142 H 1113.42 1.61012 -4.32288 0
M  V30 11143 H 1111.67 1.4489 -4.08888 0
M  V30 11144 H 1112.34 2.98596 -4.64268 0
M  V30 11145 H 1114.81 3.14671 -2.72252 0
M  V30 11146 H 1113.69 4.42798 -3.24378 0
M  V30 11147 H 1113.95 4.14802 -1.52944 0
M  V30 11148 N 1113.01 1.29761 0.894412 0
M  V30 11149 C 1113.92 1.1724 2.03204 0
M  V30 11150 C 1114.94 0.0944452 1.73743 0
M  V30 11151 O 1116.11 0.307549 1.99038 0
M  V30 11152 C 1113.18 0.855416 3.35981 0
M  V30 11153 C 1112.24 2.01777 3.78926 0
M  V30 11154 C 1111.47 1.71581 5.05367 0
M  V30 11155 O 1111.69 0.639245 5.66807 0
M  V30 11156 O 1110.63 2.56539 5.44492 0
M  V30 11157 H 1114.45 2.12787 2.16692 0
M  V30 11158 H 1112.04 1.09264 1.0189 0
M  V30 11159 H 1113.92 0.693429 4.15656 0
M  V30 11160 H 1112.6 -0.0702195 3.23624 0
M  V30 11161 H 1111.5 2.23502 2.99996 0
M  V30 11162 H 1112.84 2.92479 3.95875 0
M  V30 11163 N 1114.49 -1.10549 1.12324 0
M  V30 11164 C 1115.42 -2.18911 0.812416 0
M  V30 11165 C 1116.4 -1.68628 -0.22327 0
M  V30 11166 O 1117.58 -1.94015 -0.0847184 0
M  V30 11167 C 1114.71 -3.46288 0.264947 0
M  V30 11168 C 1113.67 -4.09838 1.23356 0
M  V30 11169 C 1112.99 -5.31901 0.546374 0
M  V30 11170 C 1114.29 -4.53686 2.58778 0
M  V30 11171 H 1115.99 -2.45169 1.71851 0
M  V30 11172 H 1113.53 -1.17834 0.827715 0
M  V30 11173 H 1115.49 -4.21385 0.0352364 0
M  V30 11174 H 1114.21 -3.19517 -0.676479 0
M  V30 11175 H 1112.87 -3.36746 1.44906 0
M  V30 11176 H 1112.52 -5.01406 -0.400157 0
M  V30 11177 H 1112.22 -5.75372 1.19249 0
M  V30 11178 H 1113.74 -6.09731 0.325673 0
M  V30 11179 H 1115.16 -5.20063 2.41263 0
M  V30 11180 H 1113.55 -5.08003 3.19457 0
M  V30 11181 H 1114.62 -3.66665 3.17309 0
M  V30 11182 N 1115.97 -0.914965 -1.28321 0
M  V30 11183 C 1116.9 -0.361578 -2.2633 0
M  V30 11184 C 1117.91 0.500637 -1.54911 0
M  V30 11185 O 1119.1 0.31532 -1.75693 0
M  V30 11186 C 1116.2 0.501693 -3.35166 0
M  V30 11187 C 1115.37 -0.338289 -4.3609 0
M  V30 11188 C 1114.43 0.460267 -5.24183 0
M  V30 11189 O 1113.46 -0.127594 -5.69057 0
M  V30 11190 N 1114.66 1.76302 -5.5308 0
M  V30 11191 H 1117.42 -1.20402 -2.74451 0
M  V30 11192 H 1114.99 -0.781042 -1.41814 0
M  V30 11193 H 1116.98 1.04268 -3.91037 0
M  V30 11194 H 1115.55 1.24485 -2.86744 0
M  V30 11195 H 1114.77 -1.06064 -3.79663 0
M  V30 11196 H 1116.06 -0.912996 -5.00542 0
M  V30 11197 H 1115.45 2.26314 -5.18458 0
M  V30 11198 H 1114.01 2.25081 -6.11704 0
M  V30 11199 N 1117.44 1.42219 -0.679077 0
M  V30 11200 C 1118.68 2.03349 -0.207058 0
M  V30 11201 C 1119.05 1.52554 1.16581 0
M  V30 11202 O 1120.25 2.05499 1.73274 0
M  V30 11203 C 1118.52 3.56562 -0.244537 0
M  V30 11204 S 1120.08 4.38523 0.155853 0
M  V30 11205 H 1116.9 0.705932 -0.0847444 0
M  V30 11206 H 1119.5 1.73904 -0.893183 0
M  V30 11207 H 1118.2 3.91028 -1.246 0
M  V30 11208 H 1117.73 3.90686 0.461282 0
M  V30 11209 H 1119.75 4.76389 1.38808 0
M  V30 11210 N 1118.92 0.422693 1.51826 0
M  V30 11211 C 1119.85 -0.43167 2.25098 0
M  V30 11212 C 1120.87 -0.998758 1.28564 0
M  V30 11213 O 1122.06 -0.89539 1.54418 0
M  V30 11214 C 1119.16 -1.61426 2.97985 0
M  V30 11215 C 1118.33 -1.16866 4.21499 0
M  V30 11216 C 1117.39 -2.2197 4.77091 0
M  V30 11217 O 1116.41 -1.82004 5.39317 0
M  V30 11218 N 1117.62 -3.54293 4.59844 0
M  V30 11219 H 1120.38 0.196255 2.99057 0
M  V30 11220 H 1117.94 0.25079 1.59946 0
M  V30 11221 H 1119.93 -2.31331 3.32066 0
M  V30 11222 H 1118.5 -2.14783 2.27128 0
M  V30 11223 H 1117.72 -0.297217 3.93078 0
M  V30 11224 H 1119.01 -0.848106 5.01682 0
M  V30 11225 H 1118.41 -3.89505 4.10247 0
M  V30 11226 H 1116.97 -4.20135 4.98327 0
M  V30 11227 N 1120.4 -1.5685 0.153553 0
M  V30 11228 C 1121.62 -2.01135 -0.505904 0
M  V30 11229 C 1122.05 -1.03301 -1.57196 0
M  V30 11230 O 1121.41 -0.00976022 -1.81297 0
M  V30 11231 C 1121.46 -3.44129 -1.0774 0
M  V30 11232 O 1120.56 -3.49318 -2.19205 0
M  V30 11233 H 1119.9 -0.652496 -0.123062 0
M  V30 11234 H 1122.43 -2.03039 0.252216 0
M  V30 11235 H 1122.44 -3.83066 -1.40444 0
M  V30 11236 H 1121.12 -4.1484 -0.296754 0
M  V30 11237 H 1119.69 -3.22227 -1.8768 0
M  V30 11238 N 1121.88 0.120221 -1.57141 0
M  V30 11239 C 1123.15 0.858458 -1.75755 0
M  V30 11240 C 1123.53 1.98124 -0.728693 0
M  V30 11241 O 1122.88 2.27155 0.247573 0
M  V30 11242 C 1123.09 1.37627 -3.20718 0
M  V30 11243 C 1124.44 1.82909 -3.83183 0
M  V30 11244 O 1125.46 1.47309 -3.24312 0
M  V30 11245 O 1124.32 2.4865 -4.86657 0
M  V30 11246 H 1121.42 0.407583 -0.719587 0
M  V30 11247 H 1123.96 0.104057 -1.69381 0
M  V30 11248 H 1122.74 0.570651 -3.87117 0
M  V30 11249 H 1122.36 2.19341 -3.31625 0
M  V30 11250 N 1123.36 1.52689 0.390367 0
M  V30 11251 C 1124.58 1.71839 1.16129 0
M  V30 11252 C 1125.01 0.435226 1.82996 0
M  V30 11253 O 1124.36 -0.60889 1.70769 0
M  V30 11254 C 1124.41 2.86784 2.18603 0
M  V30 11255 O 1123.52 2.53662 3.25161 0
M  V30 11256 H 1122.86 0.571455 0.338135 0
M  V30 11257 H 1125.39 1.99475 0.45508 0
M  V30 11258 H 1125.4 3.12239 2.62622 0
M  V30 11259 H 1124.07 3.79872 1.69322 0
M  V30 11260 H 1122.65 2.38942 2.86289 0
M  V30 11261 N 1124.83 -0.648732 1.43629 0
M  V30 11262 C 1126.06 -1.44117 1.49148 0
M  V30 11263 C 1126.48 -1.87767 0.111952 0
M  V30 11264 O 1125.84 -1.57655 -0.895249 0
M  V30 11265 C 1125.89 -2.64938 2.44623 0
M  V30 11266 O 1124.99 -3.64155 1.93559 0
M  V30 11267 H 1124.34 -0.431933 0.504312 0
M  V30 11268 H 1126.87 -0.793439 1.88589 0
M  V30 11269 H 1126.88 -3.12698 2.62076 0
M  V30 11270 H 1125.55 -2.3251 3.44836 0
M  V30 11271 H 1124.13 -3.23322 1.85789 0
M  V30 11272 N 1126.31 -1.30234 -0.887518 0
M  V30 11273 C 1127.24 -1.12212 -1.99853 0
M  V30 11274 C 1128.26 -0.0660929 -1.62666 0
M  V30 11275 O 1129.45 -0.311853 -1.75755 0
M  V30 11276 C 1126.55 -0.688591 -3.31831 0
M  V30 11277 C 1125.72 -1.82581 -3.97471 0
M  V30 11278 C 1124.78 -1.38126 -5.07748 0
M  V30 11279 O 1123.8 -2.08805 -5.29518 0
M  V30 11280 N 1125.01 -0.258868 -5.79923 0
M  V30 11281 H 1127.77 -2.07901 -2.15864 0
M  V30 11282 H 1125.33 -1.22336 -1.06045 0
M  V30 11283 H 1127.32 -0.374252 -4.02966 0
M  V30 11284 H 1125.89 0.176185 -3.12103 0
M  V30 11285 H 1125.11 -2.3084 -3.19541 0
M  V30 11286 H 1126.4 -2.58798 -4.38065 0
M  V30 11287 H 1125.8 0.330131 -5.64736 0
M  V30 11288 H 1124.36 -0.00396813 -6.518 0
M  V30 11289 N 1127.79 1.09952 -1.12909 0
M  V30 11290 C 1128.74 2.18525 -0.796849 0
M  V30 11291 C 1129.73 1.67985 0.218483 0
M  V30 11292 O 1130.94 1.79839 0.07618 0
M  V30 11293 H 1127.31 0.712714 -0.239882 0
M  V30 11294 H 1129.28 2.43783 -1.72083 0
M  V30 11295 C 1128.03 3.46625 -0.273237 0
M  V30 11296 H 1127.36 3.85879 -1.04582 0
M  V30 11297 H 1128.8 4.23926 -0.0791355 0
M  V30 11298 C 1127.26 3.2172 0.999903 0
M  V30 11299 O 1127.79 3.43851 2.07676 0
M  V30 11300 N 1125.99 2.75356 0.928833 0
M  V30 11301 H 1125.54 2.57547 0.052379 0
M  V30 11302 H 1125.5 2.5907 1.78129 0
M  V30 11303 N 1129.27 0.921757 1.27833 0
M  V30 11304 C 1130.5 0.574368 1.98455 0
M  V30 11305 C 1130.91 -0.850577 1.69002 0
M  V30 11306 O 1130.25 -1.57607 0.943708 0
M  V30 11307 C 1130.31 0.713235 3.52354 0
M  V30 11308 C 1129.98 2.1092 4.05415 0
M  V30 11309 C 1130.97 3.08276 4.18643 0
M  V30 11310 C 1128.66 2.42454 4.3991 0
M  V30 11311 C 1130.65 4.35279 4.6563 0
M  V30 11312 C 1128.34 3.69694 4.8659 0
M  V30 11313 C 1129.34 4.6592 4.99407 0
M  V30 11314 O 1129.02 5.90896 5.45066 0
M  V30 11315 H 1128.76 0.216955 0.640239 0
M  V30 11316 H 1131.31 1.23932 1.63798 0
M  V30 11317 H 1129.54 -0.00881115 3.86699 0
M  V30 11318 H 1131.23 0.371776 4.04194 0
M  V30 11319 H 1132 2.85234 3.92258 0
M  V30 11320 H 1127.87 1.68303 4.2918 0
M  V30 11321 H 1131.42 5.10391 4.75549 0
M  V30 11322 H 1127.32 3.92557 5.12415 0
M  V30 11323 H 1128.08 5.938 5.63333 0
M  V30 11324 N 1130.75 -1.41857 0.686609 0
M  V30 11325 C 1132 -2.00594 0.21095 0
M  V30 11326 C 1132.31 -1.54974 -1.19341 0
M  V30 11327 O 1133.51 -2.0621 -1.76607 0
M  V30 11328 C 1131.97 -3.58418 0.326261 0
M  V30 11329 C 1131.58 -4.13022 1.73542 0
M  V30 11330 C 1133.32 -4.24404 -0.0900816 0
M  V30 11331 C 1131.23 -5.6325 1.80287 0
M  V30 11332 H 1130.16 -0.75025 0.0751077 0
M  V30 11333 H 1132.81 -1.62442 0.853508 0
M  V30 11334 H 1131.19 -3.9413 -0.384394 0
M  V30 11335 H 1132.37 -3.88747 2.47411 0
M  V30 11336 H 1130.68 -3.5953 2.10065 0
M  V30 11337 H 1133.28 -5.34666 -0.060004 0
M  V30 11338 H 1133.62 -4.00745 -1.12733 0
M  V30 11339 H 1134.15 -3.93695 0.569979 0
M  V30 11340 H 1130.89 -5.91724 2.82034 0
M  V30 11341 H 1130.41 -5.89479 1.1079 0
M  V30 11342 H 1132.09 -6.2787 1.56167 0
M  V30 11343 N 1132.22 -0.430739 -1.51599 0
M  V30 11344 C 1133.13 0.390347 -2.3133 0
M  V30 11345 C 1134.15 1.03376 -1.39962 0
M  V30 11346 O 1135.33 1.03057 -1.73035 0
M  V30 11347 C 1132.39 1.48039 -3.13505 0
M  V30 11348 C 1131.45 0.857792 -4.20643 0
M  V30 11349 C 1130.69 1.89589 -4.9889 0
M  V30 11350 O 1130.91 3.11717 -4.77691 0
M  V30 11351 O 1129.84 1.49009 -5.83164 0
M  V30 11352 H 1133.67 -0.260358 -3.02582 0
M  V30 11353 H 1131.25 -0.193428 -1.48143 0
M  V30 11354 H 1133.14 2.11272 -3.64612 0
M  V30 11355 H 1131.81 2.1153 -2.45024 0
M  V30 11356 H 1130.72 0.187592 -3.73629 0
M  V30 11357 H 1132.05 0.266474 -4.91478 0
M  V30 11358 N 1133.7 1.56767 -0.161869 0
M  V30 11359 C 1134.95 1.96885 0.486215 0
M  V30 11360 C 1135.28 1.04745 1.6353 0
M  V30 11361 O 1134.56 0.0927156 1.94279 0
M  V30 11362 C 1134.84 3.46559 0.97822 0
M  V30 11363 C 1134.69 4.49477 -0.17039 0
M  V30 11364 C 1136.01 3.99093 1.85506 0
M  V30 11365 H 1133.13 0.715857 0.175265 0
M  V30 11366 H 1135.77 1.88399 -0.246098 0
M  V30 11367 H 1133.92 3.53921 1.60225 0
M  V30 11368 H 1135.59 4.54183 -0.807205 0
M  V30 11369 H 1133.84 4.25838 -0.827322 0
M  V30 11370 H 1134.51 5.51578 0.21583 0
M  V30 11371 H 1136.98 3.94303 1.32908 0
M  V30 11372 H 1135.86 5.04255 2.16837 0
M  V30 11373 H 1136.12 3.4234 2.79742 0
M  V30 11374 N 1135.18 -0.111886 1.57202 0
M  V30 11375 C 1136.6 -0.465629 1.52657 0
M  V30 11376 C 1136.8 -1.81463 0.875989 0
M  V30 11377 O 1135.85 -2.4825 0.461345 0
M  V30 11378 C 1137.17 -0.443571 2.9741 0
M  V30 11379 C 1138.71 -0.52662 3.08538 0
M  V30 11380 C 1139.19 -0.53488 4.54866 0
M  V30 11381 N 1140.68 -0.596117 4.59348 0
M  V30 11382 C 1141.41 -0.624073 5.69994 0
M  V30 11383 N 1140.91 -0.609245 6.90116 0
M  V30 11384 N 1142.7 -0.667619 5.58121 0
M  V30 11385 H 1134.85 0.771925 1.97876 0
M  V30 11386 H 1137.12 0.285534 0.903977 0
M  V30 11387 H 1136.82 0.480138 3.48407 0
M  V30 11388 H 1136.7 -1.26876 3.55221 0
M  V30 11389 H 1139.08 -1.44075 2.57539 0
M  V30 11390 H 1139.17 0.326396 2.53709 0
M  V30 11391 H 1138.81 0.375233 5.06512 0
M  V30 11392 H 1138.74 -1.40488 5.07514 0
M  V30 11393 H 1141.23 -0.613452 3.72888 0
M  V30 11394 H 1141.54 -0.633396 7.702 0
M  V30 11395 H 1139.89 -0.576557 6.92604 0
M  V30 11396 H 1143.08 -0.676616 4.63184 0
M  V30 11397 H 1143.25 -0.685938 6.44359 0
M  V30 11398 N 1136.66 -1.52894 -0.382264 0
M  V30 11399 C 1137.94 -1.58853 -1.14127 0
M  V30 11400 C 1138.32 -0.38582 -2.07544 0
M  V30 11401 O 1137.66 0.625323 -2.19777 0
M  V30 11402 C 1137.87 -2.93068 -1.89504 0
M  V30 11403 C 1139.22 -3.47048 -2.44629 0
M  V30 11404 O 1140.25 -2.94987 -1.99652 0
M  V30 11405 O 1139.1 -4.3802 -3.26804 0
M  V30 11406 H 1136.2 -0.640969 -0.522578 0
M  V30 11407 H 1138.74 -1.65231 -0.386873 0
M  V30 11408 H 1137.52 -3.72047 -1.2123 0
M  V30 11409 H 1137.14 -2.90106 -2.7189 0
M  V30 11410 N 1138.14 0.641106 -1.43971 0
M  V30 11411 C 1139.39 1.39807 -1.4594 0
M  V30 11412 C 1139.71 1.94795 -0.0893874 0
M  V30 11413 O 1138.98 1.75175 0.876962 0
M  V30 11414 H 1137.56 0.518908 -0.537349 0
M  V30 11415 H 1140.22 0.755278 -1.79671 0
M  V30 11416 H 1139.31 2.23439 -2.17903 0
M  V30 11417 N 1139.62 1.30703 0.880598 0
M  V30 11418 C 1140.53 1.19389 2.01949 0
M  V30 11419 C 1141.54 0.112868 1.73634 0
M  V30 11420 O 1142.72 0.328643 1.98701 0
M  V30 11421 C 1139.78 0.891004 3.35055 0
M  V30 11422 C 1138.84 2.05784 3.76764 0
M  V30 11423 C 1138.08 1.76931 5.03519 0
M  V30 11424 O 1138.3 0.699326 5.66097 0
M  V30 11425 O 1137.23 2.623 5.4174 0
M  V30 11426 H 1141.06 2.15073 2.14423 0
M  V30 11427 H 1138.64 1.10339 1.00726 0
M  V30 11428 H 1140.53 0.737476 4.14897 0
M  V30 11429 H 1139.2 -0.0358909 3.2368 0
M  V30 11430 H 1138.11 2.26672 2.97608 0
M  V30 11431 H 1139.44 2.96661 3.9275 0
M  V30 11432 N 1141.09 -1.09351 1.1349 0
M  V30 11433 C 1142.32 -1.85304 0.920324 0
M  V30 11434 C 1142.74 -1.81182 -0.530883 0
M  V30 11435 O 1142.09 -1.20853 -1.36751 0
M  V30 11436 C 1142.14 -3.33249 1.40098 0
M  V30 11437 O 1141.87 -3.37333 2.79531 0
M  V30 11438 C 1143.37 -4.2604 1.22495 0
M  V30 11439 H 1140.59 -0.585294 0.328134 0
M  V30 11440 H 1143.13 -1.38168 1.50765 0
M  V30 11441 H 1141.29 -3.7781 0.85664 0
M  V30 11442 H 1141.7 -4.29614 3.00885 0
M  V30 11443 H 1143.17 -5.27999 1.61 0
M  V30 11444 H 1143.65 -4.38883 0.166717 0
M  V30 11445 H 1144.26 -3.87295 1.75735 0
M  V30 11446 N 1142.57 -0.928524 -1.27343 0
M  V30 11447 C 1143.5 -0.445627 -2.29208 0
M  V30 11448 C 1144.48 0.494508 -1.62753 0
M  V30 11449 O 1145.67 0.399082 -1.90055 0
M  V30 11450 C 1142.8 0.301684 -3.45987 0
M  V30 11451 C 1141.75 -0.550695 -4.24442 0
M  V30 11452 C 1141.08 0.325833 -5.33706 0
M  V30 11453 C 1142.38 -1.81559 -4.89728 0
M  V30 11454 H 1144.07 -1.29696 -2.69851 0
M  V30 11455 H 1141.62 -0.625085 -1.29725 0
M  V30 11456 H 1143.57 0.650455 -4.1635 0
M  V30 11457 H 1142.29 1.18705 -3.04264 0
M  V30 11458 H 1140.95 -0.882185 -3.55827 0
M  V30 11459 H 1140.6 1.21018 -4.88225 0
M  V30 11460 H 1140.3 -0.240994 -5.87106 0
M  V30 11461 H 1141.83 0.670156 -6.06911 0
M  V30 11462 H 1143.24 -1.53483 -5.52373 0
M  V30 11463 H 1141.64 -2.32598 -5.53189 0
M  V30 11464 H 1142.71 -2.53461 -4.13383 0
M  V30 11465 N 1144.05 1.41491 -0.694123 0
M  V30 11466 C 1144.98 2.33462 -0.0422169 0
M  V30 11467 C 1145.96 1.51739 0.76872 0
M  V30 11468 O 1147.15 1.8028 0.721985 0
M  V30 11469 C 1144.28 3.35545 0.895925 0
M  V30 11470 C 1143.23 4.27568 0.192188 0
M  V30 11471 C 1142.56 5.20014 1.24459 0
M  V30 11472 C 1143.86 5.1376 -0.940626 0
M  V30 11473 H 1145.55 2.88225 -0.810363 0
M  V30 11474 H 1143.1 1.38586 -0.39114 0
M  V30 11475 H 1145.05 3.9881 1.36121 0
M  V30 11476 H 1143.77 2.79129 1.69572 0
M  V30 11477 H 1142.43 3.65726 -0.25305 0
M  V30 11478 H 1142.08 4.59913 2.03687 0
M  V30 11479 H 1141.78 5.82417 0.778734 0
M  V30 11480 H 1143.3 5.86155 1.71041 0
M  V30 11481 H 1144.72 5.70601 -0.555692 0
M  V30 11482 H 1143.11 5.85097 -1.33349 0
M  V30 11483 H 1144.18 4.51011 -1.78093 0
M  V30 11484 N 1145.53 0.438773 1.51369 0
M  V30 11485 C 1146.78 -0.126962 2.01701 0
M  V30 11486 C 1147.1 -1.43086 1.32481 0
M  V30 11487 O 1146.37 -1.90427 0.459823 0
M  V30 11488 H 1144.95 -0.0499092 0.745331 0
M  V30 11489 H 1147.61 0.581808 1.86013 0
M  V30 11490 H 1146.7 -0.301836 3.10637 0
M  V30 11491 N 1147.01 -1.56678 0.170181 0
M  V30 11492 C 1147.95 -2.17909 -0.760556 0
M  V30 11493 C 1148.92 -1.11875 -1.22773 0
M  V30 11494 O 1150.11 -1.40021 -1.2961 0
M  V30 11495 C 1147.25 -2.82305 -1.9849 0
M  V30 11496 C 1146.36 -4.02796 -1.5614 0
M  V30 11497 C 1145.5 -4.55121 -2.73932 0
M  V30 11498 C 1144.53 -5.68025 -2.28067 0
M  V30 11499 N 1143.67 -6.14865 -3.38947 0
M  V30 11500 H 1148.51 -2.97098 -0.231629 0
M  V30 11501 H 1146.05 -1.46742 -0.102602 0
M  V30 11502 H 1148.01 -3.17797 -2.70298 0
M  V30 11503 H 1146.64 -2.05721 -2.48755 0
M  V30 11504 H 1145.69 -3.73131 -0.740097 0
M  V30 11505 H 1147 -4.84526 -1.18472 0
M  V30 11506 H 1146.15 -4.92789 -3.53898 0
M  V30 11507 H 1144.89 -3.72445 -3.14858 0
M  V30 11508 H 1143.9 -5.2991 -1.46546 0
M  V30 11509 H 1145.12 -6.52501 -1.88199 0
M  V30 11510 H 1143.07 -5.35119 -3.79452 0
M  V30 11511 H 1142.99 -6.91582 -3.05369 0
M  V30 11512 H 1144.25 -6.57183 -4.19203 0
M  V30 11513 N 1148.48 0.103547 -1.57259 0
M  V30 11514 C 1149.73 0.809774 -1.85931 0
M  V30 11515 C 1150.06 1.78791 -0.758122 0
M  V30 11516 O 1149.34 1.93079 0.234682 0
M  V30 11517 C 1149.62 1.54601 -3.25224 0
M  V30 11518 C 1149.47 0.586439 -4.45961 0
M  V30 11519 C 1150.79 2.4986 -3.62296 0
M  V30 11520 H 1147.91 0.29293 -0.676285 0
M  V30 11521 H 1150.55 0.0736065 -1.89857 0
M  V30 11522 H 1148.7 2.17355 -3.22008 0
M  V30 11523 H 1150.38 -0.0334441 -4.61288 0
M  V30 11524 H 1148.62 -0.10085 -4.33683 0
M  V30 11525 H 1149.29 1.13855 -5.40131 0
M  V30 11526 H 1151.77 1.97203 -3.66402 0
M  V30 11527 H 1150.64 2.98396 -4.60707 0
M  V30 11528 H 1150.9 3.33233 -2.90531 0
M  V30 11529 N 1149.96 1.53094 0.37415 0
M  V30 11530 C 1151.2 1.70558 1.12647 0
M  V30 11531 C 1151.57 0.443515 1.86807 0
M  V30 11532 O 1152.77 0.49472 2.64208 0
M  V30 11533 C 1151.04 2.91565 2.06699 0
M  V30 11534 S 1152.6 3.29692 2.89567 0
M  V30 11535 H 1149.41 0.600238 0.381097 0
M  V30 11536 H 1152.02 1.91177 0.408865 0
M  V30 11537 H 1150.72 3.81625 1.50965 0
M  V30 11538 H 1150.25 2.73323 2.82945 0
M  V30 11539 H 1152.27 2.81036 4.08942 0
M  V30 11540 N 1151.44 -0.633461 1.44309 0
M  V30 11541 C 1152.69 -1.39031 1.46679 0
M  V30 11542 C 1153.01 -1.94745 0.0997165 0
M  V30 11543 O 1152.28 -1.75637 -0.867659 0
M  V30 11544 H 1150.86 -0.516051 0.540093 0
M  V30 11545 H 1153.52 -0.745739 1.80069 0
M  V30 11546 H 1152.62 -2.2228 2.19085 0
M  V30 11547 N 1152.92 -1.31168 -0.873655 0
M  V30 11548 C 1153.87 -1.18432 -2.00191 0
M  V30 11549 C 1154.86 -0.0934873 -1.69142 0
M  V30 11550 O 1156.07 -0.255126 -1.78183 0
M  V30 11551 H 1152.44 -0.366594 -0.656592 0
M  V30 11552 H 1154.41 -2.13896 -2.08065 0
M  V30 11553 C 1153.16 -0.904668 -3.35725 0
M  V30 11554 H 1152.48 -1.73617 -3.60135 0
M  V30 11555 H 1153.92 -0.855715 -4.15275 0
M  V30 11556 C 1152.38 0.392554 -3.34605 0
M  V30 11557 O 1152.91 1.41052 -3.76121 0
M  V30 11558 N 1151.12 0.40777 -2.87725 0
M  V30 11559 H 1150.67 -0.42112 -2.54134 0
M  V30 11560 H 1150.62 1.27564 -2.87358 0
M  V30 11561 N 1154.4 1.08748 -1.14068 0
M  V30 11562 C 1155.64 1.80707 -0.904947 0
M  V30 11563 C 1155.97 1.86478 0.570167 0
M  V30 11564 O 1155.24 1.35536 1.41445 0
M  V30 11565 H 1153.82 0.669261 -0.331811 0
M  V30 11566 H 1156.48 1.31494 -1.43859 0
M  V30 11567 H 1155.57 2.83653 -1.30182 0
M  V30 11568 N 1155.87 0.935264 1.26849 0
M  V30 11569 C 1157.1 0.596249 1.98122 0
M  V30 11570 C 1157.52 -0.827452 1.69702 0
M  V30 11571 O 1156.87 -1.55095 0.961864 0
M  V30 11572 C 1156.93 0.821773 3.52036 0
M  V30 11573 O 1156.65 2.18947 3.79465 0
M  V30 11574 C 1158.15 0.492498 4.40556 0
M  V30 11575 H 1155.37 0.225242 0.632066 0
M  V30 11576 H 1157.91 1.25435 1.61512 0
M  V30 11577 H 1156.07 0.210363 3.86828 0
M  V30 11578 H 1156.48 2.24509 4.74021 0
M  V30 11579 H 1157.95 0.700953 5.47531 0
M  V30 11580 H 1158.43 -0.57228 4.35456 0
M  V30 11581 H 1159.04 1.08238 4.11296 0
M  V30 11582 N 1157.35 -1.41121 0.701616 0
M  V30 11583 C 1158.6 -2.00359 0.232214 0
M  V30 11584 C 1158.91 -1.56231 -1.17691 0
M  V30 11585 O 1160.12 -2.08071 -1.74409 0
M  V30 11586 C 1158.58 -3.58052 0.364257 0
M  V30 11587 C 1158.18 -4.11158 1.77913 0
M  V30 11588 C 1159.93 -4.24476 -0.0450628 0
M  V30 11589 C 1157.84 -5.61306 1.8625 0
M  V30 11590 H 1156.77 -0.749411 0.0830609 0
M  V30 11591 H 1159.42 -1.61528 0.870689 0
M  V30 11592 H 1157.8 -3.94515 -0.342569 0
M  V30 11593 H 1158.97 -3.86101 2.5152 0
M  V30 11594 H 1157.29 -3.57282 2.13866 0
M  V30 11595 H 1159.88 -5.347 -0.00329209 0
M  V30 11596 H 1160.23 -4.01919 -1.08477 0
M  V30 11597 H 1160.76 -3.93069 0.611704 0
M  V30 11598 H 1157.5 -5.88699 2.88294 0
M  V30 11599 H 1157.02 -5.88271 1.17036 0
M  V30 11600 H 1158.7 -6.26179 1.62817 0
M  V30 11601 N 1158.83 -0.446794 -1.51134 0
M  V30 11602 C 1160.06 0.117242 -2.07068 0
M  V30 11603 C 1160.48 1.34877 -1.3111 0
M  V30 11604 O 1159.84 1.77856 -0.35172 0
M  V30 11605 C 1159.89 0.408616 -3.58277 0
M  V30 11606 O 1158.99 1.49345 -3.84408 0
M  V30 11607 H 1158.33 -0.00228458 -0.663996 0
M  V30 11608 H 1160.86 -0.63085 -1.94632 0
M  V30 11609 H 1160.87 0.656298 -4.02687 0
M  V30 11610 H 1159.55 -0.491444 -4.12986 0
M  V30 11611 H 1158.12 1.23499 -3.51856 0
M  V30 11612 N 1160.31 1.56586 -0.178487 0
M  V30 11613 C 1161.26 2.1491 0.761432 0
M  V30 11614 C 1162.24 1.08528 1.18788 0
M  V30 11615 O 1163.43 1.34633 1.14904 0
M  V30 11616 C 1160.56 2.79902 1.98771 0
M  V30 11617 C 1159.65 3.93452 1.58293 0
M  V30 11618 N 1160.04 4.97942 0.888124 0
M  V30 11619 C 1158.34 4.04745 1.87343 0
M  V30 11620 C 1159.04 5.7762 0.68772 0
M  V30 11621 N 1158.02 5.2947 1.23136 0
M  V30 11622 H 1161.82 2.93063 0.221693 0
M  V30 11623 H 1159.33 1.62385 0.0219283 0
M  V30 11624 H 1161.33 3.20067 2.67138 0
M  V30 11625 H 1159.99 2.03232 2.53233 0
M  V30 11626 H 1161 5.1502 0.545387 0
M  V30 11627 H 1157.68 3.39186 2.43432 0
M  V30 11628 H 1159.07 6.71759 0.13775 0
M  V30 11629 N 1161.79 -0.095206 1.57312 0
M  V30 11630 C 1163.04 -0.797417 1.85268 0
M  V30 11631 C 1163.35 -1.79903 0.767733 0
M  V30 11632 O 1164.55 -2.54914 0.934409 0
M  V30 11633 C 1163.01 -1.469 3.28555 0
M  V30 11634 C 1162.62 -0.507152 4.4512 0
M  V30 11635 C 1164.36 -2.15494 3.65735 0
M  V30 11636 C 1162.27 -1.18331 5.79441 0
M  V30 11637 H 1161.2 -0.301552 0.691074 0
M  V30 11638 H 1163.85 -0.0503584 1.83431 0
M  V30 11639 H 1162.23 -2.26351 3.24933 0
M  V30 11640 H 1163.41 0.255858 4.60089 0
M  V30 11641 H 1161.72 0.0730882 4.16336 0
M  V30 11642 H 1164.32 -2.66816 4.63371 0
M  V30 11643 H 1164.66 -2.94383 2.94354 0
M  V30 11644 H 1165.19 -1.42903 3.71246 0
M  V30 11645 H 1161.93 -0.435238 6.54053 0
M  V30 11646 H 1161.45 -1.91775 5.68315 0
M  V30 11647 H 1163.13 -1.70983 6.23998 0
M  V30 11648 N 1163.26 -1.53291 -0.366026 0
M  V30 11649 C 1164.21 -1.79697 -1.44836 0
M  V30 11650 C 1165.18 -0.641321 -1.5322 0
M  V30 11651 O 1166.37 -0.883453 -1.69115 0
M  V30 11652 C 1163.51 -1.99223 -2.81788 0
M  V30 11653 C 1162.62 -3.26938 -2.82375 0
M  V30 11654 C 1161.75 -3.36654 -4.10898 0
M  V30 11655 C 1160.79 -4.58404 -4.05626 0
M  V30 11656 N 1159.93 -4.65275 -5.25798 0
M  V30 11657 H 1164.77 -2.72053 -1.21619 0
M  V30 11658 H 1162.31 -1.34768 -0.589577 0
M  V30 11659 H 1164.27 -2.0853 -3.61346 0
M  V30 11660 H 1162.9 -1.10204 -3.03406 0
M  V30 11661 H 1161.95 -3.26587 -1.95052 0
M  V30 11662 H 1163.26 -4.16573 -2.74351 0
M  V30 11663 H 1162.41 -3.4527 -4.98872 0
M  V30 11664 H 1161.15 -2.45035 -4.21674 0
M  V30 11665 H 1160.16 -4.49888 -3.16039 0
M  V30 11666 H 1161.38 -5.51364 -3.96453 0
M  V30 11667 H 1159.33 -3.76557 -5.3716 0
M  V30 11668 H 1159.25 -5.48814 -5.19942 0
M  V30 11669 H 1160.51 -4.78175 -6.15605 0
M  V30 11670 N 1164.74 0.6258 -1.44643 0
M  V30 11671 C 1165.97 1.41726 -1.51422 0
M  V30 11672 C 1166.39 1.87565 -0.14181 0
M  V30 11673 O 1165.75 1.59059 0.870054 0
M  V30 11674 C 1165.8 2.61012 -2.48807 0
M  V30 11675 O 1164.9 3.61029 -1.99328 0
M  V30 11676 H 1164.24 0.423855 -0.511119 0
M  V30 11677 H 1166.77 0.763336 -1.89827 0
M  V30 11678 H 1166.78 3.08489 -2.67018 0
M  V30 11679 H 1165.46 2.26995 -3.48491 0
M  V30 11680 H 1164.04 3.20325 -1.90909 0
M  V30 11681 N 1166.22 1.31629 0.866686 0
M  V30 11682 C 1167.47 1.20861 1.61479 0
M  V30 11683 C 1167.78 -0.231208 1.94229 0
M  V30 11684 O 1168.99 -0.460618 2.67564 0
M  V30 11685 C 1167.44 2.11602 2.91123 0
M  V30 11686 C 1167.05 3.60598 2.65844 0
M  V30 11687 C 1168.8 2.09642 3.69121 0
M  V30 11688 C 1166.7 4.43337 3.91415 0
M  V30 11689 H 1165.63 0.448783 0.605896 0
M  V30 11690 H 1168.28 1.56507 0.958001 0
M  V30 11691 H 1166.67 1.68858 3.58194 0
M  V30 11692 H 1167.84 4.11609 2.07159 0
M  V30 11693 H 1166.16 3.64568 2.01194 0
M  V30 11694 H 1168.75 2.68701 4.62281 0
M  V30 11695 H 1169.1 1.08438 4.01929 0
M  V30 11696 H 1169.63 2.50603 3.08938 0
M  V30 11697 H 1166.37 5.45309 3.63756 0
M  V30 11698 H 1165.89 3.97083 4.49539 0
M  V30 11699 H 1167.57 4.5572 4.5927 0
M  V30 11700 N 1167.7 -1.08142 1.14644 0
M  V30 11701 C 1168.93 -1.84318 0.939926 0
M  V30 11702 C 1169.34 -1.81735 -0.511636 0
M  V30 11703 O 1168.7 -1.22297 -1.35461 0
M  V30 11704 C 1168.75 -3.31744 1.43625 0
M  V30 11705 O 1168.47 -3.3435 2.83094 0
M  V30 11706 C 1169.97 -4.24717 1.27007 0
M  V30 11707 H 1167.19 -0.581781 0.334323 0
M  V30 11708 H 1169.74 -1.36561 1.52221 0
M  V30 11709 H 1167.89 -3.7688 0.896664 0
M  V30 11710 H 1168.31 -4.26399 3.05425 0
M  V30 11711 H 1169.78 -5.26262 1.66591 0
M  V30 11712 H 1170.26 -4.38682 0.213257 0
M  V30 11713 H 1170.86 -3.85409 1.79833 0
M  V30 11714 N 1169.18 -0.941978 -1.26351 0
M  V30 11715 C 1170.13 -0.443011 -2.28342 0
M  V30 11716 C 1171.12 0.48013 -1.62453 0
M  V30 11717 O 1172.33 0.358255 -1.76399 0
M  V30 11718 H 1168.7 -0.124728 -0.741584 0
M  V30 11719 H 1170.67 -1.31573 -2.67827 0
M  V30 11720 C 1169.42 0.275675 -3.46605 0
M  V30 11721 H 1168.74 -0.425504 -3.97529 0
M  V30 11722 H 1170.18 0.589012 -4.19889 0
M  V30 11723 C 1168.64 1.49376 -3.01974 0
M  V30 11724 O 1169.17 2.59203 -3.06883 0
M  V30 11725 N 1167.38 1.35061 -2.57307 0
M  V30 11726 H 1166.93 0.457045 -2.53513 0
M  V30 11727 H 1166.88 2.16681 -2.27809 0
M  V30 11728 N 1170.66 1.40747 -0.709091 0
M  V30 11729 C 1171.88 2.05841 -0.253816 0
M  V30 11730 C 1172.31 1.53056 1.09341 0
M  V30 11731 O 1171.66 0.663181 1.68735 0
M  V30 11732 C 1171.71 3.59822 -0.236699 0
M  V30 11733 O 1170.82 4.04876 0.784168 0
M  V30 11734 H 1170.16 0.65295 -0.120631 0
M  V30 11735 H 1172.69 1.80266 -0.967749 0
M  V30 11736 H 1172.7 4.07936 -0.0721616 0
M  V30 11737 H 1171.37 3.97608 -1.21988 0
M  V30 11738 H 1169.95 3.68237 0.587884 0
M  V30 11739 N 1172.13 0.454803 1.50895 0
M  V30 11740 C 1173.38 -0.105927 2.02523 0
M  V30 11741 C 1173.71 -1.40825 1.33724 0
M  V30 11742 O 1172.99 -1.89038 0.457683 0
M  V30 11743 C 1173.27 -0.306635 3.58792 0
M  V30 11744 C 1173.12 1.01556 4.38185 0
M  V30 11745 C 1174.44 -1.06858 4.2693 0
M  V30 11746 H 1171.56 -0.0370232 0.736069 0
M  V30 11747 H 1174.2 0.597215 1.8037 0
M  V30 11748 H 1172.35 -0.905563 3.77799 0
M  V30 11749 H 1174.03 1.64981 4.30789 0
M  V30 11750 H 1172.27 1.61608 4.02574 0
M  V30 11751 H 1172.94 0.828959 5.4574 0
M  V30 11752 H 1175.42 -0.561086 4.123 0
M  V30 11753 H 1174.29 -1.1778 5.36115 0
M  V30 11754 H 1174.55 -2.10111 3.8898 0
M  V30 11755 N 1173.61 -1.56489 0.186789 0
M  V30 11756 C 1174.86 -1.98399 -0.448244 0
M  V30 11757 C 1175.21 -1.07139 -1.59809 0
M  V30 11758 O 1174.51 -0.114119 -1.9126 0
M  V30 11759 C 1174.7 -3.44145 -0.964315 0
M  V30 11760 C 1174.53 -4.495 0.133992 0
M  V30 11761 C 1173.3 -5.01857 0.588851 0
M  V30 11762 C 1175.5 -5.05637 0.939971 0
M  V30 11763 N 1173.48 -5.90866 1.66585 0
M  V30 11764 C 1174.85 -5.91236 1.86655 0
M  V30 11765 C 1176.9 -4.88093 0.983319 0
M  V30 11766 C 1175.61 -6.61167 2.83286 0
M  V30 11767 C 1177.63 -5.58757 1.93764 0
M  V30 11768 C 1177 -6.44096 2.85167 0
M  V30 11769 H 1173.09 -0.770833 -0.131684 0
M  V30 11770 H 1175.68 -1.9252 0.290571 0
M  V30 11771 H 1173.85 -3.50541 -1.6726 0
M  V30 11772 H 1175.58 -3.73036 -1.56926 0
M  V30 11773 H 1172.34 -4.73244 0.183712 0
M  V30 11774 H 1172.76 -6.40075 2.2053 0
M  V30 11775 H 1177.4 -4.218 0.290658 0
M  V30 11776 H 1175.12 -7.26664 3.53532 0
M  V30 11777 H 1178.71 -5.47163 1.97748 0
M  V30 11778 H 1177.59 -6.97813 3.57808 0
M  V30 11779 N 1175.09 0.086862 -1.5736 0
M  V30 11780 C 1176.34 0.787581 -1.85688 0
M  V30 11781 C 1176.65 1.79494 -0.777263 0
M  V30 11782 O 1177.86 2.54415 -0.947914 0
M  V30 11783 C 1176.31 1.45155 -3.2933 0
M  V30 11784 C 1175.92 0.483539 -4.45383 0
M  V30 11785 C 1177.67 2.13552 -3.66873 0
M  V30 11786 C 1175.57 1.15257 -5.8006 0
M  V30 11787 H 1174.5 0.297882 -0.692663 0
M  V30 11788 H 1177.15 0.0406299 -1.83455 0
M  V30 11789 H 1175.54 2.24625 -3.26128 0
M  V30 11790 H 1176.71 -0.280254 -4.59947 0
M  V30 11791 H 1175.02 -0.0951664 -4.16291 0
M  V30 11792 H 1177.62 2.64355 -4.6478 0
M  V30 11793 H 1177.96 2.92818 -2.95911 0
M  V30 11794 H 1178.5 1.40932 -3.71999 0
M  V30 11795 H 1175.24 0.400546 -6.54275 0
M  V30 11796 H 1174.76 1.88759 -5.69324 0
M  V30 11797 H 1176.44 1.67671 -6.24896 0
M  V30 11798 N 1176.57 1.53483 0.357892 0
M  V30 11799 C 1177.98 1.43426 0.700073 0
M  V30 11800 C 1178.18 0.579493 1.92987 0
M  V30 11801 O 1177.24 0.0649086 2.52417 0
M  V30 11802 C 1178.55 2.86723 0.906099 0
M  V30 11803 C 1180.1 2.96405 1.00563 0
M  V30 11804 C 1180.58 4.4078 1.24407 0
M  V30 11805 N 1182.07 4.44243 1.3116 0
M  V30 11806 C 1182.8 5.53069 1.51333 0
M  V30 11807 N 1182.3 6.71928 1.68774 0
M  V30 11808 N 1184.09 5.40659 1.53765 0
M  V30 11809 H 1176.24 2.07559 -0.450894 0
M  V30 11810 H 1178.5 0.937649 -0.139711 0
M  V30 11811 H 1178.21 3.51622 0.0741579 0
M  V30 11812 H 1178.08 3.30827 1.81199 0
M  V30 11813 H 1180.47 2.31656 1.8281 0
M  V30 11814 H 1180.55 2.55684 0.0769512 0
M  V30 11815 H 1180.2 5.06105 0.426575 0
M  V30 11816 H 1180.13 4.7908 2.18608 0
M  V30 11817 H 1182.62 3.58587 1.19265 0
M  V30 11818 H 1182.93 7.50634 1.83762 0
M  V30 11819 H 1181.28 6.749 1.65937 0
M  V30 11820 H 1184.47 4.46764 1.39713 0
M  V30 11821 H 1184.64 6.25535 1.69146 0
M  V30 11822 N 1178.05 -0.61812 1.44973 0
M  V30 11823 C 1179.29 -1.3774 1.48439 0
M  V30 11824 C 1179.62 -1.94117 0.121999 0
M  V30 11825 O 1178.88 -1.749 -0.877974 0
M  V30 11826 C 1179.17 -2.55143 2.50274 0
M  V30 11827 C 1178.84 -2.16976 3.95262 0
M  V30 11828 C 1177.5 -2.06281 4.34743 0
M  V30 11829 C 1179.85 -1.8703 4.86486 0
M  V30 11830 C 1177.18 -1.63846 5.63357 0
M  V30 11831 C 1179.53 -1.46085 6.15501 0
M  V30 11832 C 1178.2 -1.3394 6.53924 0
M  V30 11833 H 1177.47 -0.504026 0.543175 0
M  V30 11834 H 1180.12 -0.699685 1.7826 0
M  V30 11835 H 1178.42 -3.28205 2.13983 0
M  V30 11836 H 1180.12 -3.13373 2.50197 0
M  V30 11837 H 1176.71 -2.26223 3.64034 0
M  V30 11838 H 1180.89 -1.94196 4.56729 0
M  V30 11839 H 1176.15 -1.53058 5.91932 0
M  V30 11840 H 1180.32 -1.21956 6.85638 0
M  V30 11841 H 1177.95 -1.00832 7.53483 0
M  V30 11842 N 1179.52 -1.32087 -0.859693 0
M  V30 11843 C 1180.47 -1.20601 -1.96784 0
M  V30 11844 C 1181.44 -0.089355 -1.65859 0
M  V30 11845 O 1182.63 -0.264022 -1.88964 0
M  V30 11846 C 1179.77 -0.929872 -3.32336 0
M  V30 11847 C 1178.88 -2.13084 -3.75791 0
M  V30 11848 C 1178.01 -1.79061 -5.00111 0
M  V30 11849 C 1177.05 -2.95507 -5.36043 0
M  V30 11850 N 1176.19 -2.61611 -6.5154 0
M  V30 11851 H 1181.03 -2.1539 -2.0594 0
M  V30 11852 H 1178.57 -1.07131 -1.00803 0
M  V30 11853 H 1180.52 -0.750285 -4.10398 0
M  V30 11854 H 1179.15 -0.0187929 -3.22795 0
M  V30 11855 H 1178.21 -2.42086 -2.93425 0
M  V30 11856 H 1179.52 -3.00205 -3.98344 0
M  V30 11857 H 1178.67 -1.57625 -5.85866 0
M  V30 11858 H 1177.41 -0.891459 -4.79483 0
M  V30 11859 H 1176.42 -3.17581 -4.48801 0
M  V30 11860 H 1177.64 -3.86147 -5.5863 0
M  V30 11861 H 1175.59 -1.74231 -6.32439 0
M  V30 11862 H 1175.5 -3.42262 -6.74087 0
M  V30 11863 H 1176.77 -2.43592 -7.40461 0
M  V30 11864 N 1181 1.07532 -1.15215 0
M  V30 11865 C 1182.25 1.79474 -0.920439 0
M  V30 11866 C 1182.56 1.87593 0.553926 0
M  V30 11867 O 1183.77 2.56037 0.903169 0
M  V30 11868 C 1182.23 3.22509 -1.59738 0
M  V30 11869 C 1181.83 3.22596 -3.10863 0
M  V30 11870 C 1183.58 3.99072 -1.44714 0
M  V30 11871 C 1181.48 4.60273 -3.71352 0
M  V30 11872 H 1180.41 0.672625 -0.340722 0
M  V30 11873 H 1183.07 1.2071 -1.38208 0
M  V30 11874 H 1181.45 3.81454 -1.06342 0
M  V30 11875 H 1182.62 2.73306 -3.70999 0
M  V30 11876 H 1180.94 2.5953 -3.25627 0
M  V30 11877 H 1183.53 5.00823 -1.87299 0
M  V30 11878 H 1183.88 4.14428 -0.394386 0
M  V30 11879 H 1184.41 3.46617 -1.95195 0
M  V30 11880 H 1181.15 4.50122 -4.76519 0
M  V30 11881 H 1180.67 5.09809 -3.15998 0
M  V30 11882 H 1182.35 5.29243 -3.7217 0
M  V30 11883 N 1182.48 0.948665 1.2585 0
M  V30 11884 C 1183.76 0.517832 1.88621 0
M  V30 11885 C 1184.14 -1.00477 1.85654 0
M  V30 11886 O 1183.49 -1.868 1.31598 0
M  V30 11887 C 1183.7 1.08768 3.31618 0
M  V30 11888 C 1185.04 1.16089 4.08422 0
M  V30 11889 O 1186.07 1.0388 3.40716 0
M  V30 11890 O 1184.93 1.35172 5.29519 0
M  V30 11891 H 1182.02 0.169916 0.809356 0
M  V30 11892 H 1184.57 1.04171 1.33964 0
M  V30 11893 H 1183.34 2.13109 3.28177 0
M  V30 11894 H 1182.96 0.54669 3.93824 0
M  V30 11895 N 1183.96 -1.40369 0.716545 0
M  V30 11896 C 1184.92 -2.29083 0.0733105 0
M  V30 11897 C 1185.92 -1.45415 -0.686378 0
M  V30 11898 O 1187.11 -1.66316 -0.518139 0
M  V30 11899 C 1184.24 -3.28639 -0.906032 0
M  V30 11900 H 1185.44 -2.87464 0.85467 0
M  V30 11901 H 1182.99 -1.48706 0.481256 0
M  V30 11902 H 1183.72 -2.75279 -1.71441 0
M  V30 11903 H 1183.51 -3.90405 -0.364163 0
M  V30 11904 H 1185 -3.95066 -1.35324 0
M  V30 11905 N 1185.44 -0.462799 -1.50652 0
M  V30 11906 C 1186.66 0.0952726 -2.07181 0
M  V30 11907 C 1187.09 1.33479 -1.32533 0
M  V30 11908 O 1186.44 1.77473 -0.370564 0
M  V30 11909 C 1186.49 0.370592 -3.58691 0
M  V30 11910 O 1185.6 1.4526 -3.85971 0
M  V30 11911 H 1184.94 -0.00932702 -0.663934 0
M  V30 11912 H 1187.47 -0.651458 -1.93951 0
M  V30 11913 H 1187.48 0.613551 -4.0336 0
M  V30 11914 H 1186.15 -0.535219 -4.12442 0
M  V30 11915 H 1184.73 1.1976 -3.53146 0
M  V30 11916 N 1186.91 1.56388 -0.195085 0
M  V30 11917 C 1188.16 1.97872 0.444344 0
M  V30 11918 C 1188.49 1.0819 1.61271 0
M  V30 11919 O 1187.77 0.133904 1.94039 0
M  V30 11920 C 1188.05 3.48556 0.90449 0
M  V30 11921 C 1187.9 4.49015 -0.265693 0
M  V30 11922 C 1189.22 4.02938 1.76999 0
M  V30 11923 H 1186.34 0.719413 0.160041 0
M  V30 11924 H 1188.98 1.87835 -0.286005 0
M  V30 11925 H 1187.13 3.5724 1.52682 0
M  V30 11926 H 1188.81 4.52368 -0.903363 0
M  V30 11927 H 1187.05 4.23987 -0.917462 0
M  V30 11928 H 1187.72 5.51912 0.0987834 0
M  V30 11929 H 1190.2 3.97033 1.24514 0
M  V30 11930 H 1189.07 5.08741 2.06092 0
M  V30 11931 H 1189.33 3.48197 2.72418 0
M  V30 11932 N 1188.39 -0.0785156 1.57404 0
M  V30 11933 C 1189.3 -1.11203 2.0657 0
M  V30 11934 C 1190.32 -1.42822 0.993872 0
M  V30 11935 O 1191.49 -1.53133 1.30814 0
M  V30 11936 C 1188.56 -2.40812 2.4942 0
M  V30 11937 C 1187.62 -2.16225 3.70871 0
M  V30 11938 C 1186.85 -3.39654 4.11668 0
M  V30 11939 O 1187.08 -4.48521 3.524 0
M  V30 11940 O 1186.01 -3.28263 5.04507 0
M  V30 11941 H 1189.84 -0.724381 2.94935 0
M  V30 11942 H 1187.42 -0.292184 1.46515 0
M  V30 11943 H 1189.3 -3.17101 2.77534 0
M  V30 11944 H 1187.98 -2.7897 1.64187 0
M  V30 11945 H 1186.89 -1.37663 3.4785 0
M  V30 11946 H 1188.22 -1.82951 4.56935 0
M  V30 11947 N 1189.87 -1.5367 -0.349747 0
M  V30 11948 C 1190.82 -1.81223 -1.42922 0
M  V30 11949 C 1191.79 -0.657536 -1.52531 0
M  V30 11950 O 1192.97 -0.90134 -1.68168 0
M  V30 11951 C 1190.11 -2.022 -2.79659 0
M  V30 11952 C 1189.23 -3.29915 -2.78891 0
M  V30 11953 C 1188.36 -3.40993 -4.07305 0
M  V30 11954 C 1187.4 -4.6268 -4.00741 0
M  V30 11955 N 1186.54 -4.70826 -5.20833 0
M  V30 11956 H 1191.38 -2.73328 -1.18727 0
M  V30 11957 H 1188.91 -1.35386 -0.57525 0
M  V30 11958 H 1190.87 -2.12351 -3.59114 0
M  V30 11959 H 1189.5 -1.13416 -3.0222 0
M  V30 11960 H 1188.55 -3.28637 -1.91577 0
M  V30 11961 H 1189.87 -4.19459 -2.69917 0
M  V30 11962 H 1189.02 -3.50542 -4.95182 0
M  V30 11963 H 1187.76 -2.49493 -4.19052 0
M  V30 11964 H 1186.76 -4.53215 -3.11249 0
M  V30 11965 H 1187.99 -5.55538 -3.90582 0
M  V30 11966 H 1185.93 -3.82233 -5.33136 0
M  V30 11967 H 1185.85 -5.54297 -5.14092 0
M  V30 11968 H 1187.12 -4.84677 -6.10499 0
M  V30 11969 N 1191.35 0.610423 -1.45298 0
M  V30 11970 C 1192.31 1.70324 -1.5337 0
M  V30 11971 C 1193.31 1.55393 -0.413492 0
M  V30 11972 O 1194.5 1.60512 -0.676872 0
M  V30 11973 C 1191.63 3.09572 -1.42752 0
M  V30 11974 H 1192.83 1.64535 -2.50736 0
M  V30 11975 H 1190.38 0.825906 -1.32697 0
M  V30 11976 H 1191.11 3.2094 -0.465601 0
M  V30 11977 H 1190.9 3.21817 -2.24 0
M  V30 11978 H 1192.39 3.89178 -1.51427 0
M  V30 11979 N 1192.83 1.32541 0.852676 0
M  V30 11980 C 1194.05 1.2636 1.64462 0
M  V30 11981 C 1194.48 -0.16508 1.87374 0
M  V30 11982 O 1193.83 -1.11712 1.42794 0
M  V30 11983 C 1193.88 2.03052 2.97997 0
M  V30 11984 O 1192.99 1.37967 3.88637 0
M  V30 11985 H 1192.33 0.435393 0.501327 0
M  V30 11986 H 1194.86 1.74888 1.06186 0
M  V30 11987 H 1194.87 2.133 3.47803 0
M  V30 11988 H 1193.54 3.06941 2.80642 0
M  V30 11989 H 1192.12 1.36279 3.47106 0
M  V30 11990 N 1194.3 -1.0692 1.15784 0
M  V30 11991 C 1195.55 -1.796 0.935429 0
M  V30 11992 C 1195.88 -1.86935 -0.537173 0
M  V30 11993 O 1195.13 -1.35244 -1.41448 0
M  V30 11994 C 1195.43 -3.24389 1.50022 0
M  V30 11995 C 1195.1 -3.37145 2.99406 0
M  V30 11996 C 1193.76 -3.40334 3.40186 0
M  V30 11997 C 1196.11 -3.39584 3.95389 0
M  V30 11998 C 1193.44 -3.43569 4.75581 0
M  V30 11999 C 1195.79 -3.44356 5.30661 0
M  V30 12000 C 1194.46 -3.45824 5.70931 0
M  V30 12001 H 1193.73 -0.657201 0.342298 0
M  V30 12002 H 1196.37 -1.25784 1.44397 0
M  V30 12003 H 1194.68 -3.81015 0.91297 0
M  V30 12004 H 1196.38 -3.79209 1.30389 0
M  V30 12005 H 1192.97 -3.35365 2.66887 0
M  V30 12006 H 1197.15 -3.36337 3.64954 0
M  V30 12007 H 1192.41 -3.43006 5.06119 0
M  V30 12008 H 1196.58 -3.4519 6.04828 0
M  V30 12009 H 1194.21 -3.48084 6.75826 0
M  V30 12010 N 1195.78 -0.955326 -1.25345 0
M  V30 12011 C 1197.2 -0.659863 -1.4532 0
M  V30 12012 C 1197.4 0.78238 -1.85691 0
M  V30 12013 O 1196.45 1.5576 -1.98734 0
M  V30 12014 C 1197.77 -1.63339 -2.5247 0
M  V30 12015 C 1199.32 -1.64464 -2.66309 0
M  V30 12016 C 1199.79 -2.60583 -3.76644 0
M  V30 12017 N 1201.28 -2.58951 -3.84055 0
M  V30 12018 C 1202.02 -3.30002 -4.6892 0
M  V30 12019 N 1201.51 -4.10528 -5.58067 0
M  V30 12020 N 1203.31 -3.18886 -4.62891 0
M  V30 12021 H 1195.46 -1.88734 -0.97433 0
M  V30 12022 H 1197.72 -0.811858 -0.48948 0
M  V30 12023 H 1197.43 -2.66358 -2.29665 0
M  V30 12024 H 1197.3 -1.39644 -3.50399 0
M  V30 12025 H 1199.69 -0.621622 -2.88479 0
M  V30 12026 H 1199.77 -1.92218 -1.68778 0
M  V30 12027 H 1199.41 -3.63011 -3.55226 0
M  V30 12028 H 1199.34 -2.30113 -4.73662 0
M  V30 12029 H 1201.83 -2.00491 -3.20331 0
M  V30 12030 H 1202.15 -4.6166 -6.1975 0
M  V30 12031 H 1200.49 -4.14626 -5.57773 0
M  V30 12032 H 1203.68 -2.55447 -3.92255 0
M  V30 12033 H 1203.85 -3.74524 -5.28806 0
M  V30 12034 N 1197.26 1.39987 -0.723979 0
M  V30 12035 C 1198.22 2.29041 -0.0854583 0
M  V30 12036 C 1199.22 1.45777 0.678657 0
M  V30 12037 O 1200.41 1.66588 0.509311 0
M  V30 12038 C 1197.55 3.29115 0.88859 0
M  V30 12039 H 1198.74 2.87006 -0.869903 0
M  V30 12040 H 1196.29 1.48449 -0.489136 0
M  V30 12041 H 1197.03 2.76184 1.69979 0
M  V30 12042 H 1196.81 3.90593 0.343454 0
M  V30 12043 H 1198.3 3.95778 1.33227 0
M  V30 12044 N 1198.74 0.470782 1.50404 0
M  V30 12045 C 1199.99 -0.0844409 2.02624 0
M  V30 12046 C 1200.32 -1.39398 1.3521 0
M  V30 12047 O 1199.59 -1.88542 0.477707 0
M  V30 12048 C 1199.88 -0.268563 3.59097 0
M  V30 12049 C 1199.73 1.06198 4.37084 0
M  V30 12050 C 1201.05 -1.02324 4.28039 0
M  V30 12051 H 1198.17 -0.0292141 0.736421 0
M  V30 12052 H 1200.81 0.616312 1.79726 0
M  V30 12053 H 1198.96 -0.865441 3.78738 0
M  V30 12054 H 1200.63 1.69541 4.29015 0
M  V30 12055 H 1198.87 1.65868 4.00837 0
M  V30 12056 H 1199.55 0.886795 5.4483 0
M  V30 12057 H 1202.02 -0.517325 4.12872 0
M  V30 12058 H 1200.9 -1.12087 5.37334 0
M  V30 12059 H 1201.16 -2.05974 3.91187 0
M  V30 12060 N 1200.22 -1.56282 0.203376 0
M  V30 12061 C 1201.45 -2.01905 -0.437936 0
M  V30 12062 C 1201.86 -1.08263 -1.55164 0
M  V30 12063 O 1201.2 -0.0811746 -1.83521 0
M  V30 12064 C 1201.26 -3.43908 -1.04725 0
M  V30 12065 C 1200.92 -4.56944 -0.0712582 0
M  V30 12066 C 1201.92 -5.14856 0.72243 0
M  V30 12067 C 1199.61 -5.02282 0.0422267 0
M  V30 12068 C 1201.6 -6.16562 1.61649 0
M  V30 12069 C 1199.29 -6.0383 0.939835 0
M  V30 12070 C 1200.29 -6.60844 1.72552 0
M  V30 12071 O 1199.97 -7.60417 2.60808 0
M  V30 12072 H 1199.71 -0.666416 -0.11343 0
M  V30 12073 H 1202.26 -2.03019 0.311833 0
M  V30 12074 H 1200.49 -3.39806 -1.84577 0
M  V30 12075 H 1202.18 -3.73288 -1.59407 0
M  V30 12076 H 1202.94 -4.80691 0.645105 0
M  V30 12077 H 1198.82 -4.57596 -0.559165 0
M  V30 12078 H 1202.37 -6.6099 2.23019 0
M  V30 12079 H 1198.26 -6.37418 1.01824 0
M  V30 12080 H 1199.03 -7.77869 2.54679 0
M  V30 12081 N 1201.7 0.070167 -1.57444 0
M  V30 12082 C 1202.63 1.10996 -2.0053 0
M  V30 12083 C 1203.64 1.3489 -0.91151 0
M  V30 12084 O 1204.83 1.33102 -1.18938 0
M  V30 12085 C 1201.93 2.46053 -2.33048 0
M  V30 12086 C 1201.1 2.42092 -3.64294 0
M  V30 12087 C 1200.16 3.5927 -3.84463 0
M  V30 12088 O 1199.19 3.40625 -4.5603 0
M  V30 12089 N 1200.39 4.79677 -3.26941 0
M  V30 12090 H 1203.15 0.743029 -2.90343 0
M  V30 12091 H 1200.72 0.258794 -1.59818 0
M  V30 12092 H 1202.71 3.23089 -2.43712 0
M  V30 12093 H 1201.28 2.74742 -1.49116 0
M  V30 12094 H 1200.5 1.5043 -3.64368 0
M  V30 12095 H 1201.79 2.36548 -4.50469 0
M  V30 12096 H 1201.18 4.97729 -2.68855 0
M  V30 12097 H 1199.74 5.54219 -3.43051 0
M  V30 12098 N 1203.17 1.53854 0.341593 0
M  V30 12099 C 1204.42 1.71447 1.08322 0
M  V30 12100 C 1204.75 0.477289 1.88243 0
M  V30 12101 O 1204.03 -0.525695 1.87261 0
M  V30 12102 C 1204.31 2.97917 2.02281 0
M  V30 12103 C 1204.16 4.31847 1.25809 0
M  V30 12104 C 1205.48 3.20065 3.0207 0
M  V30 12105 H 1202.6 0.623847 0.392408 0
M  V30 12106 H 1205.24 1.86527 0.361594 0
M  V30 12107 H 1203.39 2.85191 2.63815 0
M  V30 12108 H 1205.07 4.56427 0.668737 0
M  V30 12109 H 1203.31 4.30169 0.560119 0
M  V30 12110 H 1203.98 5.16522 1.94704 0
M  V30 12111 H 1206.46 3.32135 2.50651 0
M  V30 12112 H 1205.33 4.09947 3.65013 0
M  V30 12113 H 1205.59 2.36452 3.73554 0
M  V30 12114 N 1204.65 -0.602709 1.4562 0
M  V30 12115 C 1205.61 -1.69508 1.54271 0
M  V30 12116 C 1206.61 -1.55171 0.421727 0
M  V30 12117 O 1207.8 -1.60151 0.685375 0
M  V30 12118 C 1204.94 -3.0881 1.44392 0
M  V30 12119 H 1206.13 -1.63203 2.51605 0
M  V30 12120 H 1203.68 -0.818857 1.33133 0
M  V30 12121 H 1204.42 -3.20689 0.482614 0
M  V30 12122 H 1204.2 -3.20625 2.25704 0
M  V30 12123 H 1205.69 -3.8837 1.53488 0
M  V30 12124 N 1206.13 -1.32992 -0.845635 0
M  V30 12125 C 1207.37 -1.2539 -1.61421 0
M  V30 12126 C 1207.73 0.179395 -1.9116 0
M  V30 12127 O 1208.93 0.379275 -2.66111 0
M  V30 12128 C 1207.21 -2.09817 -2.8933 0
M  V30 12129 S 1208.76 -2.19335 -3.80049 0
M  V30 12130 H 1205.58 -0.446202 -0.553556 0
M  V30 12131 H 1208.18 -1.67946 -1.00072 0
M  V30 12132 H 1206.89 -3.12999 -2.65443 0
M  V30 12133 H 1206.42 -1.68073 -3.5569 0
M  V30 12134 H 1208.43 -1.34946 -4.77498 0
M  V30 12135 N 1207.61 1.06304 -1.1635 0
M  V30 12136 C 1208.86 1.78747 -0.943074 0
M  V30 12137 C 1209.18 1.87646 0.530483 0
M  V30 12138 O 1208.45 1.38506 1.38538 0
M  V30 12139 H 1207.03 0.662072 -0.345932 0
M  V30 12140 H 1209.69 1.28413 -1.46615 0
M  V30 12141 H 1208.78 2.80828 -1.3617 0
M  V30 12142 N 1209.09 0.96196 1.24836 0
M  V30 12143 C 1210.36 0.537809 1.88061 0
M  V30 12144 C 1210.74 -0.985023 1.8671 0
M  V30 12145 O 1210.09 -1.85394 1.33572 0
M  V30 12146 C 1210.3 1.12279 3.30446 0
M  V30 12147 C 1211.65 1.20414 4.07168 0
M  V30 12148 O 1212.67 1.07488 3.39595 0
M  V30 12149 O 1211.53 1.4078 5.28056 0
M  V30 12150 H 1208.63 0.178491 0.807509 0
M  V30 12151 H 1211.17 1.05586 1.32852 0
M  V30 12152 H 1209.94 2.16578 3.25898 0
M  V30 12153 H 1209.57 0.58843 3.93222 0
M  V30 12154 N 1210.56 -1.39601 0.731392 0
M  V30 12155 C 1211.47 -2.34425 0.090527 0
M  V30 12156 C 1212.49 -1.58131 -0.725992 0
M  V30 12157 O 1213.67 -1.90441 -0.655294 0
M  V30 12158 C 1210.73 -3.37138 -0.808624 0
M  V30 12159 C 1209.79 -4.29295 0.0197365 0
M  V30 12160 C 1209.02 -5.27102 -0.836593 0
M  V30 12161 O 1209.25 -5.31302 -2.07543 0
M  V30 12162 O 1208.18 -6.01307 -0.267172 0
M  V30 12163 H 1212.01 -2.9088 0.873084 0
M  V30 12164 H 1209.59 -1.41066 0.492024 0
M  V30 12165 H 1211.47 -4.00087 -1.32319 0
M  V30 12166 H 1210.15 -2.83074 -1.57006 0
M  V30 12167 H 1209.06 -3.69581 0.579744 0
M  V30 12168 H 1210.39 -4.86555 0.743308 0
M  V30 12169 N 1212.04 -0.478751 -1.50152 0
M  V30 12170 C 1212.97 0.301182 -2.31549 0
M  V30 12171 C 1213.95 0.983276 -1.38801 0
M  V30 12172 O 1215.14 0.978973 -1.67719 0
M  V30 12173 C 1212.27 1.3791 -3.18745 0
M  V30 12174 C 1211.22 0.818175 -4.20107 0
M  V30 12175 C 1210.55 1.99496 -4.9609 0
M  V30 12176 C 1211.85 -0.17574 -5.22004 0
M  V30 12177 H 1213.54 -0.378188 -2.97002 0
M  V30 12178 H 1211.09 -0.183323 -1.42828 0
M  V30 12179 H 1213.04 1.93227 -3.74488 0
M  V30 12180 H 1211.77 2.08735 -2.51192 0
M  V30 12181 H 1210.42 0.286924 -3.65475 0
M  V30 12182 H 1210.07 2.69036 -4.25004 0
M  V30 12183 H 1209.77 1.62582 -5.6466 0
M  V30 12184 H 1211.3 2.55288 -5.54671 0
M  V30 12185 H 1212.71 0.288513 -5.72574 0
M  V30 12186 H 1211.11 -0.459549 -5.98338 0
M  V30 12187 H 1212.18 -1.09911 -4.72279 0
M  V30 12188 N 1213.52 1.56172 -0.211661 0
M  V30 12189 C 1214.75 2.02428 0.427843 0
M  V30 12190 C 1215.16 1.09162 1.54043 0
M  V30 12191 O 1214.52 0.0994249 1.82229 0
M  V30 12192 C 1214.57 3.48279 0.968728 0
M  V30 12193 O 1214.29 4.37987 -0.0994841 0
M  V30 12194 C 1215.79 4.10132 1.68246 0
M  V30 12195 H 1213.01 0.662611 0.10577 0
M  V30 12196 H 1215.56 2.01897 -0.32522 0
M  V30 12197 H 1213.71 3.49456 1.6721 0
M  V30 12198 H 1214.13 5.23609 0.305558 0
M  V30 12199 H 1215.6 5.13985 2.01304 0
M  V30 12200 H 1216.08 3.54552 2.5921 0
M  V30 12201 H 1216.68 4.12775 1.02453 0
M  V30 12202 N 1215 -0.0618163 1.57479 0
M  V30 12203 C 1216.25 -0.757569 1.87364 0
M  V30 12204 C 1216.57 -1.77607 0.805025 0
M  V30 12205 O 1215.84 -1.95202 -0.165216 0
M  V30 12206 H 1214.42 -0.28278 0.691408 0
M  V30 12207 H 1217.08 -0.0355354 1.94868 0
M  V30 12208 H 1216.18 -1.26758 2.85199 0
M  V30 12209 N 1216.48 -1.54033 -0.333429 0
M  V30 12210 C 1217.39 -1.85737 -1.43314 0
M  V30 12211 C 1218.4 -0.748398 -1.57083 0
M  V30 12212 O 1219.58 -1.04171 -1.72367 0
M  V30 12213 C 1216.64 -2.06942 -2.78165 0
M  V30 12214 C 1215.7 -3.30774 -2.73655 0
M  V30 12215 C 1214.94 -3.50957 -4.02075 0
M  V30 12216 O 1215.16 -2.74774 -4.99855 0
M  V30 12217 O 1214.09 -4.44412 -4.05933 0
M  V30 12218 H 1217.92 -2.7923 -1.19434 0
M  V30 12219 H 1215.51 -1.39814 -0.526546 0
M  V30 12220 H 1217.39 -2.22276 -3.58011 0
M  V30 12221 H 1216.06 -1.16638 -3.01956 0
M  V30 12222 H 1214.97 -3.20835 -1.92395 0
M  V30 12223 H 1216.3 -4.21103 -2.54819 0
M  V30 12224 N 1217.95 0.594978 -1.45938 0
M  V30 12225 C 1219.2 1.35093 -1.50314 0
M  V30 12226 C 1219.52 1.94412 -0.151315 0
M  V30 12227 O 1218.79 1.77876 0.820787 0
M  V30 12228 H 1217.37 0.501549 -0.553586 0
M  V30 12229 H 1220.04 0.697735 -1.81983 0
M  V30 12230 H 1219.13 2.16393 -2.24901 0
M  V30 12231 N 1219.43 1.33438 0.838571 0
M  V30 12232 C 1220.68 1.25097 1.5962 0
M  V30 12233 C 1221.01 -0.182798 1.93338 0
M  V30 12234 O 1220.29 -1.1242 1.5872 0
M  V30 12235 C 1220.57 2.12655 2.90603 0
M  V30 12236 C 1220.42 3.64491 2.63565 0
M  V30 12237 C 1221.74 1.99994 3.92033 0
M  V30 12238 H 1218.86 0.455776 0.579169 0
M  V30 12239 H 1221.5 1.63542 0.967169 0
M  V30 12240 H 1219.65 1.79998 3.44286 0
M  V30 12241 H 1221.32 4.0744 2.16312 0
M  V30 12242 H 1219.57 3.86356 1.9726 0
M  V30 12243 H 1220.24 4.21101 3.569 0
M  V30 12244 H 1222.71 2.28635 3.47657 0
M  V30 12245 H 1221.59 2.63509 4.81512 0
M  V30 12246 H 1221.85 0.972263 4.31277 0
M  V30 12247 N 1220.91 -1.05686 1.16912 0
M  V30 12248 C 1222.16 -1.77987 0.948875 0
M  V30 12249 C 1222.47 -1.8845 -0.524011 0
M  V30 12250 O 1223.68 -2.57442 -0.862322 0
M  V30 12251 C 1222.13 -3.19927 1.64848 0
M  V30 12252 C 1221.74 -3.1761 3.15956 0
M  V30 12253 C 1223.49 -3.96719 1.51044 0
M  V30 12254 C 1221.39 -4.54307 3.78628 0
M  V30 12255 H 1220.32 -0.667119 0.35138 0
M  V30 12256 H 1222.97 -1.18496 1.40111 0
M  V30 12257 H 1221.36 -3.79714 1.12397 0
M  V30 12258 H 1222.53 -2.67369 3.75301 0
M  V30 12259 H 1220.85 -2.54317 3.29715 0
M  V30 12260 H 1223.44 -4.97779 1.95243 0
M  V30 12261 H 1223.79 -4.13748 0.460268 0
M  V30 12262 H 1224.32 -3.43468 2.00685 0
M  V30 12263 H 1221.06 -4.42484 4.8362 0
M  V30 12264 H 1220.58 -5.04717 3.24069 0
M  V30 12265 H 1222.26 -5.23255 3.80543 0
M  V30 12266 N 1222.39 -0.968567 -1.24324 0
M  V30 12267 C 1223.8 -0.675239 -1.44612 0
M  V30 12268 C 1224 0.762641 -1.8651 0
M  V30 12269 O 1223.06 1.53644 -2.00374 0
M  V30 12270 C 1224.37 -1.66007 -2.50723 0
M  V30 12271 C 1225.92 -1.6728 -2.6455 0
M  V30 12272 C 1226.4 -2.64563 -3.73859 0
M  V30 12273 N 1227.89 -2.6301 -3.81287 0
M  V30 12274 C 1228.62 -3.34957 -4.65394 0
M  V30 12275 N 1228.12 -4.16424 -5.53681 0
M  V30 12276 N 1229.91 -3.23778 -4.59483 0
M  V30 12277 H 1222.06 -1.89757 -0.954257 0
M  V30 12278 H 1224.33 -0.817004 -0.480841 0
M  V30 12279 H 1224.03 -2.68779 -2.26827 0
M  V30 12280 H 1223.91 -1.43353 -3.48898 0
M  V30 12281 H 1226.29 -0.652184 -2.87803 0
M  V30 12282 H 1226.37 -1.93997 -1.6673 0
M  V30 12283 H 1226.02 -3.66759 -3.51355 0
M  V30 12284 H 1225.95 -2.35124 -4.71194 0
M  V30 12285 H 1228.44 -2.03877 -3.18186 0
M  V30 12286 H 1228.75 -4.68207 -6.14818 0
M  V30 12287 H 1227.1 -4.20518 -5.53344 0
M  V30 12288 H 1230.29 -2.59594 -3.89524 0
M  V30 12289 H 1230.46 -3.80112 -5.24804 0
M  V30 12290 N 1223.87 1.39211 -0.738786 0
M  V30 12291 C 1225.09 2.05256 -0.297421 0
M  V30 12292 C 1225.52 1.55341 1.06069 0
M  V30 12293 O 1224.87 0.698823 1.67291 0
M  V30 12294 C 1224.92 3.59239 -0.312969 0
M  V30 12295 O 1224.03 4.06448 0.698112 0
M  V30 12296 H 1223.37 0.650245 -0.134454 0
M  V30 12297 H 1225.9 1.78173 -1.00577 0
M  V30 12298 H 1225.91 4.07691 -0.158675 0
M  V30 12299 H 1224.58 3.94931 -1.30394 0
M  V30 12300 H 1223.16 3.69401 0.509643 0
M  V30 12301 N 1225.34 0.486708 1.49896 0
M  V30 12302 C 1226.76 0.0353906 1.86666 0
M  V30 12303 C 1227.11 -1.3743 1.40026 0
M  V30 12304 O 1226.23 -2.02163 0.77194 0
M  V30 12305 C 1226.83 0.0574475 3.38751 0
M  V30 12306 C 1225.39 -0.338464 3.74875 0
M  V30 12307 C 1224.53 0.436196 2.73848 0
M  V30 12308 H 1227.48 0.700215 1.42417 0
M  V30 12309 H 1227.5 -0.741175 3.73212 0
M  V30 12310 H 1227.02 1.08356 3.72667 0
M  V30 12311 H 1225.12 -1.36835 3.46565 0
M  V30 12312 H 1225.23 -0.0289519 4.79091 0
M  V30 12313 H 1223.59 -0.112141 2.54453 0
M  V30 12314 H 1224.38 1.46212 3.10608 0
M  V30 12315 N 1226.82 -1.56058 0.219941 0
M  V30 12316 C 1228.07 -1.9826 -0.412197 0
M  V30 12317 C 1228.4 -1.10754 -1.59887 0
M  V30 12318 O 1227.65 -0.15212 -1.95108 0
M  V30 12319 C 1227.95 -3.46113 -0.8911 0
M  V30 12320 C 1227.62 -4.50521 0.184877 0
M  V30 12321 C 1226.28 -4.78795 0.480462 0
M  V30 12322 C 1228.63 -5.13147 0.912652 0
M  V30 12323 C 1225.96 -5.66979 1.50837 0
M  V30 12324 C 1228.31 -6.02444 1.92988 0
M  V30 12325 C 1226.98 -6.29063 2.2324 0
M  V30 12326 H 1226.25 -0.725486 -0.150834 0
M  V30 12327 H 1228.89 -1.88771 0.322122 0
M  V30 12328 H 1227.2 -3.52797 -1.70415 0
M  V30 12329 H 1228.9 -3.76137 -1.39003 0
M  V30 12330 H 1225.49 -4.28564 -0.0556594 0
M  V30 12331 H 1229.67 -4.91374 0.697532 0
M  V30 12332 H 1224.93 -5.85868 1.74839 0
M  V30 12333 H 1229.1 -6.50022 2.49889 0
M  V30 12334 H 1226.73 -6.97191 3.03032 0
M  V30 12335 N 1228.3 0.053464 -1.57509 0
M  V30 12336 C 1229.55 0.749102 -1.88135 0
M  V30 12337 C 1229.88 1.76642 -0.814111 0
M  V30 12338 O 1229.13 1.94796 0.187845 0
M  V30 12339 C 1229.43 1.47666 -3.25468 0
M  V30 12340 C 1229.1 0.597619 -4.46922 0
M  V30 12341 C 1227.76 0.355429 -4.79886 0
M  V30 12342 C 1230.11 -0.0107869 -5.21199 0
M  V30 12343 C 1227.44 -0.504347 -5.84528 0
M  V30 12344 C 1229.79 -0.858123 -6.26753 0
M  V30 12345 C 1228.45 -1.11001 -6.58206 0
M  V30 12346 H 1227.72 0.274116 -0.688434 0
M  V30 12347 H 1230.37 0.00944162 -1.91498 0
M  V30 12348 H 1228.68 2.28901 -3.1798 0
M  V30 12349 H 1230.37 2.02002 -3.46404 0
M  V30 12350 H 1226.96 0.796526 -4.21134 0
M  V30 12351 H 1231.15 0.163404 -4.96031 0
M  V30 12352 H 1226.4 -0.708057 -6.07286 0
M  V30 12353 H 1230.58 -1.3362 -6.83461 0
M  V30 12354 H 1228.2 -1.77798 -7.39116 0
M  V30 12355 N 1229.78 1.54207 0.325255 0
M  V30 12356 C 1231.19 1.63587 0.899793 0
M  V30 12357 C 1231.54 0.528851 1.88938 0
M  V30 12358 O 1230.67 -0.33852 2.13736 0
M  V30 12359 C 1231.26 2.9653 1.63877 0
M  V30 12360 C 1229.82 3.08111 2.16205 0
M  V30 12361 C 1228.97 2.59144 0.986903 0
M  V30 12362 H 1231.92 1.58366 0.102883 0
M  V30 12363 H 1231.94 2.86595 2.50287 0
M  V30 12364 H 1231.45 3.7708 0.918279 0
M  V30 12365 H 1229.55 2.32232 2.91375 0
M  V30 12366 H 1229.67 4.13885 2.41322 0
M  V30 12367 H 1228.03 2.14997 1.36558 0
M  V30 12368 H 1228.81 3.4215 0.28076 0
M  V30 12369 N 1231.26 -0.58723 1.46251 0
M  V30 12370 C 1232.21 -1.71771 1.56836 0
M  V30 12371 C 1233.2 -1.63664 0.437096 0
M  V30 12372 O 1234.41 -1.69212 0.613797 0
M  V30 12373 H 1230.78 -0.567841 0.493012 0
M  V30 12374 H 1232.75 -1.59974 2.51895 0
M  V30 12375 C 1231.5 -3.10159 1.57152 0
M  V30 12376 H 1230.82 -3.17066 2.43535 0
M  V30 12377 H 1232.26 -3.89032 1.68613 0
M  V30 12378 C 1230.72 -3.35567 0.299374 0
M  V30 12379 O 1231.25 -3.97006 -0.612291 0
M  V30 12380 N 1229.46 -2.89987 0.188695 0
M  V30 12381 H 1229.01 -2.4017 0.93147 0
M  V30 12382 H 1228.96 -3.0736 -0.661612 0
M  V30 12383 N 1232.74 -1.33881 -0.831482 0
M  V30 12384 C 1233.98 -1.25942 -1.58955 0
M  V30 12385 C 1234.31 0.172542 -1.93432 0
M  V30 12386 O 1233.59 1.11577 -1.59314 0
M  V30 12387 C 1233.87 -2.14193 -2.89471 0
M  V30 12388 C 1233.73 -3.65883 -2.61628 0
M  V30 12389 C 1235.04 -2.02071 -3.90967 0
M  V30 12390 H 1232.16 -0.458841 -0.576744 0
M  V30 12391 H 1234.81 -1.64052 -0.958482 0
M  V30 12392 H 1232.96 -1.81821 -3.43327 0
M  V30 12393 H 1234.63 -4.08581 -2.14148 0
M  V30 12394 H 1232.87 -3.87397 -1.95208 0
M  V30 12395 H 1233.54 -4.22988 -3.54662 0
M  V30 12396 H 1236.02 -2.30476 -3.46439 0
M  V30 12397 H 1234.89 -2.66059 -4.80108 0
M  V30 12398 H 1235.15 -0.995121 -4.30755 0
M  V30 12399 N 1234.21 1.05064 -1.1747 0
M  V30 12400 C 1235.44 1.81497 -0.987031 0
M  V30 12401 C 1235.85 1.83323 0.467921 0
M  V30 12402 O 1235.19 1.26006 1.33672 0
M  V30 12403 C 1235.26 3.28826 -1.45306 0
M  V30 12404 C 1234.92 3.50681 -2.93039 0
M  V30 12405 C 1235.92 3.42699 -3.90965 0
M  V30 12406 C 1233.6 3.77602 -3.31243 0
M  V30 12407 C 1235.6 3.61325 -5.25093 0
M  V30 12408 C 1233.28 3.95876 -4.65538 0
M  V30 12409 C 1234.28 3.87737 -5.62271 0
M  V30 12410 O 1233.97 4.055 -6.94136 0
M  V30 12411 H 1233.7 0.578734 -0.349347 0
M  V30 12412 H 1236.26 1.33373 -1.56208 0
M  V30 12413 H 1234.49 3.77872 -0.821581 0
M  V30 12414 H 1236.17 3.86788 -1.23085 0
M  V30 12415 H 1236.94 3.21877 -3.62795 0
M  V30 12416 H 1232.82 3.8304 -2.56517 0
M  V30 12417 H 1236.36 3.54888 -6.00583 0
M  V30 12418 H 1232.26 4.16191 -4.93412 0
M  V30 12419 H 1233.03 4.22718 -7.00894 0
M  V30 12420 N 1235.69 0.975146 1.23809 0
M  V30 12421 C 1237.1 0.678873 1.7392 0
M  V30 12422 C 1237.45 -0.805133 1.78919 0
M  V30 12423 O 1236.58 -1.62984 1.42356 0
M  V30 12424 C 1237.17 1.22562 3.15854 0
M  V30 12425 C 1235.73 0.979096 3.63443 0
M  V30 12426 C 1234.88 1.35649 2.41857 0
M  V30 12427 H 1237.83 1.14961 1.09406 0
M  V30 12428 H 1237.85 0.595489 3.75811 0
M  V30 12429 H 1237.36 2.30571 3.12184 0
M  V30 12430 H 1235.46 -0.0851407 3.72503 0
M  V30 12431 H 1235.58 1.62998 4.5052 0
M  V30 12432 H 1233.94 0.774916 2.42626 0
M  V30 12433 H 1234.72 2.44624 2.40861 0
M  V30 12434 N 1237.17 -1.38817 0.746158 0
M  V30 12435 C 1238.42 -1.99885 0.298425 0
M  V30 12436 C 1238.74 -1.59518 -1.12156 0
M  V30 12437 O 1238.01 -0.848568 -1.76568 0
M  V30 12438 H 1236.59 -0.739247 0.107347 0
M  V30 12439 H 1239.25 -1.69696 0.9586 0
M  V30 12440 H 1238.35 -3.10067 0.355656 0
M  V30 12441 N 1238.65 -0.49465 -1.49636 0
M  V30 12442 C 1239.56 0.291881 -2.32777 0
M  V30 12443 C 1240.57 0.973468 -1.44221 0
M  V30 12444 O 1241.75 0.956252 -1.77251 0
M  V30 12445 C 1238.81 1.34609 -3.19502 0
M  V30 12446 C 1237.88 0.678611 -4.23903 0
M  V30 12447 C 1237.11 1.68259 -5.06483 0
M  V30 12448 O 1237.33 2.91176 -4.90482 0
M  V30 12449 O 1236.27 1.24141 -5.88959 0
M  V30 12450 H 1240.09 -0.388459 -3.01205 0
M  V30 12451 H 1237.68 -0.256086 -1.47189 0
M  V30 12452 H 1239.56 1.95617 -3.73245 0
M  V30 12453 H 1238.23 2.00947 -2.53775 0
M  V30 12454 H 1237.14 0.0289541 -3.74089 0
M  V30 12455 H 1238.47 0.0577817 -4.92166 0
M  V30 12456 N 1240.13 1.55939 -0.228214 0
M  V30 12457 C 1241.54 1.59094 0.12704 0
M  V30 12458 C 1241.74 1.24514 1.58425 0
M  V30 12459 O 1240.8 0.983544 2.32557 0
M  V30 12460 C 1242.11 2.99999 -0.205268 0
M  V30 12461 C 1243.66 3.1265 -0.148046 0
M  V30 12462 C 1244.13 4.55743 -0.454122 0
M  V30 12463 N 1245.62 4.61435 -0.403937 0
M  V30 12464 C 1246.36 5.70101 -0.614173 0
M  V30 12465 N 1245.86 6.87104 -0.88654 0
M  V30 12466 N 1247.65 5.5944 -0.546153 0
M  V30 12467 H 1239.8 1.7669 -1.17874 0
M  V30 12468 H 1242.06 0.821599 -0.472947 0
M  V30 12469 H 1241.77 3.29976 -1.21692 0
M  V30 12470 H 1241.64 3.74177 0.476573 0
M  V30 12471 H 1244.03 2.82465 0.854255 0
M  V30 12472 H 1244.11 2.40786 -0.863462 0
M  V30 12473 H 1243.75 4.86646 -1.45389 0
M  V30 12474 H 1243.68 5.25841 0.282561 0
M  V30 12475 H 1246.18 3.77363 -0.201388 0
M  V30 12476 H 1246.49 7.65839 -1.03488 0
M  V30 12477 H 1244.83 6.88833 -0.923808 0
M  V30 12478 H 1248.02 4.6691 -0.33355 0
M  V30 12479 H 1248.2 6.44061 -0.713402 0
M  V30 12480 N 1241.6 -0.0451101 1.57535 0
M  V30 12481 C 1242.83 -0.75132 1.92777 0
M  V30 12482 C 1243.25 -1.69743 0.826599 0
M  V30 12483 O 1242.6 -1.8142 -0.198224 0
M  V30 12484 C 1242.66 -1.52218 3.2789 0
M  V30 12485 O 1242.38 -0.614059 4.33775 0
M  V30 12486 C 1243.88 -2.32699 3.77314 0
M  V30 12487 H 1241.1 -0.21211 0.636593 0
M  V30 12488 H 1243.64 -0.0074174 2.04499 0
M  V30 12489 H 1241.8 -2.2181 3.17614 0
M  V30 12490 H 1242.21 -1.15294 5.11671 0
M  V30 12491 H 1243.68 -2.82205 4.7441 0
M  V30 12492 H 1244.16 -3.13414 3.07682 0
M  V30 12493 H 1244.77 -1.68212 3.90621 0
M  V30 12494 N 1243.08 -1.54377 -0.317073 0
M  V30 12495 C 1244.32 -1.74621 -1.06239 0
M  V30 12496 C 1244.69 -0.512542 -1.85032 0
M  V30 12497 O 1245.89 -0.592438 -2.6219 0
M  V30 12498 C 1244.16 -2.99036 -1.95735 0
M  V30 12499 S 1245.72 -3.40212 -2.77131 0
M  V30 12500 H 1242.54 -0.613969 -0.358557 0
M  V30 12501 H 1245.14 -1.92562 -0.33763 0
M  V30 12502 H 1243.84 -3.86965 -1.36697 0
M  V30 12503 H 1243.37 -2.83636 -2.72606 0
M  V30 12504 H 1245.39 -2.9602 -3.98229 0
M  V30 12505 N 1244.56 0.579466 -1.4656 0
M  V30 12506 C 1245.98 0.903163 -1.31587 0
M  V30 12507 C 1246.18 1.99406 -0.28972 0
M  V30 12508 O 1245.23 2.50632 0.30658 0
M  V30 12509 C 1246.55 1.31745 -2.70303 0
M  V30 12510 C 1248.09 1.43012 -2.78418 0
M  V30 12511 C 1248.57 1.87805 -4.17724 0
M  V30 12512 N 1250.06 1.94993 -4.20157 0
M  V30 12513 C 1250.79 2.30934 -5.2484 0
M  V30 12514 N 1250.29 2.65645 -6.39847 0
M  V30 12515 N 1252.08 2.31517 -5.12207 0
M  V30 12516 H 1244.23 -0.141111 -2.11931 0
M  V30 12517 H 1246.5 -0.000460304 -0.948 0
M  V30 12518 H 1246.2 0.589864 -3.46718 0
M  V30 12519 H 1246.08 2.2783 -3.00622 0
M  V30 12520 H 1248.46 2.14856 -2.02289 0
M  V30 12521 H 1248.55 0.451701 -2.5178 0
M  V30 12522 H 1248.19 1.16539 -4.94349 0
M  V30 12523 H 1248.12 2.86611 -4.41771 0
M  V30 12524 H 1250.61 1.70645 -3.37178 0
M  V30 12525 H 1250.92 2.92032 -7.15498 0
M  V30 12526 H 1249.27 2.63276 -6.43204 0
M  V30 12527 H 1252.46 2.03824 -4.21394 0
M  V30 12528 H 1252.63 2.59199 -5.93902 0
M  V30 12529 N 1246.04 1.3432 0.824371 0
M  V30 12530 C 1247.28 1.27792 1.58243 0
M  V30 12531 C 1247.64 -0.151189 1.91805 0
M  V30 12532 O 1246.93 -1.09708 1.57082 0
M  V30 12533 C 1247.13 2.1008 2.89139 0
M  V30 12534 C 1246.96 3.60848 2.68363 0
M  V30 12535 C 1245.73 4.3013 2.65172 0
M  V30 12536 C 1247.92 4.54878 2.39979 0
M  V30 12537 N 1245.91 5.66756 2.35927 0
M  V30 12538 C 1247.28 5.79497 2.20415 0
M  V30 12539 C 1249.33 4.43809 2.25695 0
M  V30 12540 C 1248.03 6.94293 1.88015 0
M  V30 12541 C 1250.06 5.58435 1.9469 0
M  V30 12542 C 1249.42 6.82071 1.75948 0
M  V30 12543 H 1245.52 0.522853 0.581505 0
M  V30 12544 H 1248.11 1.69017 0.96651 0
M  V30 12545 H 1246.28 1.71154 3.48656 0
M  V30 12546 H 1248.01 1.95208 3.54508 0
M  V30 12547 H 1244.76 3.82554 2.79194 0
M  V30 12548 H 1245.19 6.38817 2.24148 0
M  V30 12549 H 1249.83 3.48842 2.38891 0
M  V30 12550 H 1247.55 7.89242 1.73557 0
M  V30 12551 H 1251.13 5.51814 1.84372 0
M  V30 12552 H 1250.01 7.69268 1.52304 0
M  V30 12553 N 1247.52 -1.0444 1.18026 0
M  V30 12554 C 1248.74 -1.81234 0.998089 0
M  V30 12555 C 1249.16 -1.83271 -0.453559 0
M  V30 12556 O 1248.52 -1.26545 -1.31502 0
M  V30 12557 C 1248.57 -3.27007 1.54106 0
M  V30 12558 O 1248.29 -3.25174 2.93587 0
M  V30 12559 C 1249.79 -4.20461 1.40455 0
M  V30 12560 H 1247.01 -0.57085 0.352663 0
M  V30 12561 H 1249.55 -1.31649 1.56489 0
M  V30 12562 H 1247.71 -3.73837 1.01611 0
M  V30 12563 H 1248.12 -4.16466 3.18836 0
M  V30 12564 H 1249.6 -5.20695 1.83249 0
M  V30 12565 H 1250.07 -4.37781 0.352713 0
M  V30 12566 H 1250.68 -3.79493 1.92004 0
M  V30 12567 N 1248.99 -0.981699 -1.2329 0
M  V30 12568 C 1250.24 -0.646818 -1.91048 0
M  V30 12569 C 1250.56 0.823479 -1.77421 0
M  V30 12570 O 1251.76 1.26948 -2.39993 0
M  V30 12571 C 1250.22 -1.1063 -3.42475 0
M  V30 12572 C 1249.83 -2.60103 -3.6476 0
M  V30 12573 C 1251.57 -0.845227 -4.16 0
M  V30 12574 C 1249.48 -2.99712 -5.0983 0
M  V30 12575 H 1248.41 -0.238221 -0.715379 0
M  V30 12576 H 1251.06 -1.18977 -1.39702 0
M  V30 12577 H 1249.44 -0.491554 -3.92937 0
M  V30 12578 H 1250.61 -3.26828 -3.24839 0
M  V30 12579 H 1248.93 -2.83972 -3.04547 0
M  V30 12580 H 1251.53 -1.11699 -5.22903 0
M  V30 12581 H 1251.87 0.218661 -4.15725 0
M  V30 12582 H 1252.4 -1.42162 -3.7153 0
M  V30 12583 H 1249.14 -4.0523 -5.15237 0
M  V30 12584 H 1248.66 -2.37683 -5.50697 0
M  V30 12585 H 1250.34 -2.9039 -5.78172 0
M  V30 12586 N 1250.47 1.3842 -0.753509 0
M  V30 12587 C 1251.42 2.27774 -0.101443 0
M  V30 12588 C 1252.41 1.45196 0.693322 0
M  V30 12589 O 1253.6 1.67931 0.55929 0
M  V30 12590 C 1250.73 3.34064 0.790977 0
M  V30 12591 C 1249.81 4.24099 -0.010633 0
M  V30 12592 N 1250.2 4.94845 -1.047 0
M  V30 12593 C 1248.5 4.45476 0.216193 0
M  V30 12594 C 1249.2 5.61164 -1.53199 0
M  V30 12595 N 1248.18 5.36956 -0.847304 0
M  V30 12596 H 1251.98 2.79935 -0.895188 0
M  V30 12597 H 1249.5 1.51321 -0.589545 0
M  V30 12598 H 1251.49 3.96965 1.27375 0
M  V30 12599 H 1250.15 2.83461 1.58367 0
M  V30 12600 H 1251.16 4.97801 -1.42879 0
M  V30 12601 H 1247.84 4.05781 0.982238 0
M  V30 12602 H 1249.23 6.27756 -2.39525 0
M  V30 12603 N 1251.95 0.502579 1.49372 0
M  V30 12604 C 1252.88 -0.311743 2.2707 0
M  V30 12605 C 1253.9 -0.929204 1.33677 0
M  V30 12606 O 1255.08 -0.812277 1.58948 0
M  V30 12607 C 1252.18 -1.45404 3.06122 0
M  V30 12608 C 1251.36 -0.943591 4.27101 0
M  V30 12609 C 1250.42 -1.96368 4.88186 0
M  V30 12610 O 1249.44 -1.5316 5.48207 0
M  V30 12611 N 1250.64 -3.29419 4.77978 0
M  V30 12612 H 1253.41 0.354503 2.97596 0
M  V30 12613 H 1250.97 0.335222 1.58392 0
M  V30 12614 H 1252.96 -2.13404 3.43862 0
M  V30 12615 H 1251.53 -2.02441 2.38194 0
M  V30 12616 H 1250.75 -0.0884372 3.94101 0
M  V30 12617 H 1252.04 -0.580983 5.05472 0
M  V30 12618 H 1251.44 -3.67211 4.30317 0
M  V30 12619 H 1250 -3.93129 5.19897 0
M  V30 12620 N 1253.43 -1.55816 0.23648 0
M  V30 12621 C 1254.84 -1.84757 -0.268622 0
M  V30 12622 C 1255.19 -1.15815 -1.58371 0
M  V30 12623 O 1254.32 -0.432923 -2.12025 0
M  V30 12624 C 1254.91 -3.35177 -0.494167 0
M  V30 12625 C 1253.47 -3.64382 -0.943551 0
M  V30 12626 C 1252.62 -2.77296 -0.0149191 0
M  V30 12627 H 1255.57 -1.51908 0.459308 0
M  V30 12628 H 1255.59 -3.56192 -1.3382 0
M  V30 12629 H 1255.1 -3.85327 0.463138 0
M  V30 12630 H 1253.2 -3.19701 -1.91369 0
M  V30 12631 H 1253.31 -4.72244 -0.807626 0
M  V30 12632 H 1251.68 -2.49243 -0.524419 0
M  V30 12633 H 1252.46 -3.30249 0.937571 0
M  V30 12634 N 1254.91 0.036755 -1.57557 0
M  V30 12635 C 1255.84 1.06718 -2.0284 0
M  V30 12636 C 1256.85 1.32926 -0.939917 0
M  V30 12637 O 1258.04 1.30549 -1.21734 0
M  V30 12638 C 1255.14 2.41054 -2.38214 0
M  V30 12639 C 1254.31 2.3431 -3.69347 0
M  V30 12640 C 1253.37 3.51034 -3.91997 0
M  V30 12641 O 1252.4 3.30875 -4.63152 0
M  V30 12642 N 1253.6 4.72634 -3.37042 0
M  V30 12643 H 1256.37 0.681275 -2.91854 0
M  V30 12644 H 1253.93 0.224836 -1.60331 0
M  V30 12645 H 1255.92 3.17847 -2.5051 0
M  V30 12646 H 1254.49 2.71517 -1.5491 0
M  V30 12647 H 1253.71 1.42668 -3.67477 0
M  V30 12648 H 1255 2.2694 -4.55385 0
M  V30 12649 H 1254.39 4.91914 -2.79352 0
M  V30 12650 H 1252.95 5.46818 -3.5473 0
M  V30 12651 N 1256.39 1.54543 0.308881 0
M  V30 12652 C 1257.61 1.77753 1.06857 0
M  V30 12653 C 1258.04 0.531616 1.80431 0
M  V30 12654 O 1257.39 -0.517513 1.73757 0
M  V30 12655 C 1257.44 2.97968 2.03094 0
M  V30 12656 O 1256.55 2.70541 3.11257 0
M  V30 12657 H 1255.89 0.588576 0.307368 0
M  V30 12658 H 1258.42 2.01607 0.348703 0
M  V30 12659 H 1258.43 3.25722 2.45702 0
M  V30 12660 H 1257.1 3.88314 1.48948 0
M  V30 12661 H 1255.68 2.53781 2.7322 0
M  V30 12662 N 1257.86 -0.571685 1.46866 0
M  V30 12663 C 1258.8 -1.69475 1.54307 0
M  V30 12664 C 1259.81 -1.57006 0.430449 0
M  V30 12665 O 1261 -1.64229 0.69936 0
M  V30 12666 C 1258.1 -3.07824 1.41766 0
M  V30 12667 C 1257.27 -3.46189 2.67342 0
M  V30 12668 C 1256.33 -4.63642 2.48843 0
M  V30 12669 O 1255.36 -4.68949 3.22608 0
M  V30 12670 N 1256.56 -5.59223 1.55724 0
M  V30 12671 H 1259.32 -1.63543 2.51145 0
M  V30 12672 H 1256.88 -0.757957 1.43062 0
M  V30 12673 H 1258.88 -3.84208 1.27146 0
M  V30 12674 H 1257.45 -3.08063 0.530667 0
M  V30 12675 H 1256.67 -2.59399 2.96826 0
M  V30 12676 H 1257.95 -3.68591 3.50739 0
M  V30 12677 H 1257.35 -5.5768 0.949175 0
M  V30 12678 H 1255.91 -6.34993 1.47063 0
M  V30 12679 N 1259.34 -1.34755 -0.817236 0
M  V30 12680 C 1260.59 -1.2762 -1.5761 0
M  V30 12681 C 1260.92 0.152017 -1.93604 0
M  V30 12682 O 1260.2 1.09881 -1.60488 0
M  V30 12683 C 1260.48 -2.17251 -2.87183 0
M  V30 12684 C 1260.33 -3.68638 -2.57733 0
M  V30 12685 C 1261.65 -2.06206 -3.88802 0
M  V30 12686 H 1258.77 -0.464933 -0.571845 0
M  V30 12687 H 1261.41 -1.6506 -0.941028 0
M  V30 12688 H 1259.56 -1.85452 -3.41379 0
M  V30 12689 H 1261.23 -4.10829 -2.09802 0
M  V30 12690 H 1259.48 -3.89445 -1.91089 0
M  V30 12691 H 1260.15 -4.26726 -3.50156 0
M  V30 12692 H 1262.62 -2.34137 -3.43975 0
M  V30 12693 H 1261.5 -2.71136 -4.77259 0
M  V30 12694 H 1261.76 -1.04075 -4.29675 0
M  V30 12695 N 1260.82 1.03812 -1.18578 0
M  V30 12696 C 1262.07 1.76455 -0.977071 0
M  V30 12697 C 1262.38 1.8926 0.493964 0
M  V30 12698 O 1263.59 2.58781 0.821256 0
M  V30 12699 C 1262.04 3.17264 -1.69917 0
M  V30 12700 C 1261.65 3.12543 -3.20969 0
M  V30 12701 C 1263.4 3.94266 -1.57337 0
M  V30 12702 C 1261.3 4.48226 -3.85807 0
M  V30 12703 H 1260.23 0.661445 -0.361949 0
M  V30 12704 H 1262.88 1.16252 -1.41978 0
M  V30 12705 H 1261.27 3.77878 -1.18424 0
M  V30 12706 H 1262.44 2.61364 -3.79507 0
M  V30 12707 H 1260.75 2.49039 -3.33719 0
M  V30 12708 H 1263.35 4.9461 -2.03137 0
M  V30 12709 H 1263.69 4.12963 -0.526033 0
M  V30 12710 H 1264.23 3.40232 -2.06124 0
M  V30 12711 H 1260.97 4.34734 -4.90599 0
M  V30 12712 H 1260.49 4.99497 -3.32058 0
M  V30 12713 H 1262.17 5.17135 -3.88819 0
M  V30 12714 N 1262.3 0.988223 1.22768 0
M  V30 12715 C 1263.23 0.554478 2.26821 0
M  V30 12716 C 1264.21 -0.416293 1.64927 0
M  V30 12717 O 1265.39 -0.30795 1.91743 0
M  V30 12718 C 1262.52 -0.136266 3.47033 0
M  V30 12719 C 1261.48 0.752575 4.21332 0
M  V30 12720 C 1260.8 -0.0708236 5.34653 0
M  V30 12721 C 1262.1 2.04717 4.80508 0
M  V30 12722 H 1263.8 1.42423 2.63355 0
M  V30 12723 H 1261.34 0.686267 1.26595 0
M  V30 12724 H 1263.3 -0.451068 4.18979 0
M  V30 12725 H 1262.02 -1.04053 3.09581 0
M  V30 12726 H 1260.68 1.05095 3.51213 0
M  V30 12727 H 1260.33 -0.975859 4.93443 0
M  V30 12728 H 1260.03 0.520835 5.85287 0
M  V30 12729 H 1261.55 -0.379828 6.09417 0
M  V30 12730 H 1262.97 1.79663 5.44421 0
M  V30 12731 H 1261.36 2.58726 5.41462 0
M  V30 12732 H 1262.43 2.72896 4.00819 0
M  V30 12733 N 1263.78 -1.38018 0.760839 0
M  V30 12734 C 1264.71 -2.32995 0.153557 0
M  V30 12735 C 1265.69 -1.55234 -0.695448 0
M  V30 12736 O 1266.87 -1.8352 -0.635148 0
M  V30 12737 C 1264 -3.39437 -0.734811 0
M  V30 12738 C 1262.96 -4.27998 0.0120287 0
M  V30 12739 C 1262.28 -5.25359 -0.995067 0
M  V30 12740 C 1263.58 -5.08687 1.18468 0
M  V30 12741 H 1265.28 -2.8403 0.946956 0
M  V30 12742 H 1262.82 -1.36562 0.456816 0
M  V30 12743 H 1264.77 -4.0485 -1.16938 0
M  V30 12744 H 1263.5 -2.86901 -1.56061 0
M  V30 12745 H 1262.16 -3.64102 0.427254 0
M  V30 12746 H 1261.81 -4.69108 -1.81512 0
M  V30 12747 H 1261.51 -5.85469 -0.499969 0
M  V30 12748 H 1263.03 -5.93648 -1.4288 0
M  V30 12749 H 1264.44 -5.67299 0.8273 0
M  V30 12750 H 1262.84 -5.78068 1.61112 0
M  V30 12751 H 1263.91 -4.42 1.99409 0
M  V30 12752 N 1265.25 -0.510493 -1.49103 0
M  V30 12753 C 1266.2 0.276449 -2.30951 0
M  V30 12754 C 1267.2 0.953893 -1.3999 0
M  V30 12755 O 1268.4 0.880499 -1.56994 0
M  V30 12756 H 1264.78 0.108013 -0.744202 0
M  V30 12757 H 1266.75 -0.433725 -2.95231 0
M  V30 12758 C 1265.5 1.32234 -3.21573 0
M  V30 12759 H 1264.82 0.810468 -3.91499 0
M  V30 12760 H 1266.26 1.84476 -3.81765 0
M  V30 12761 C 1264.72 2.3456 -2.41833 0
M  V30 12762 O 1265.25 3.40627 -2.12922 0
M  V30 12763 N 1263.45 2.07272 -2.03682 0
M  V30 12764 H 1263 1.21036 -2.27394 0
M  V30 12765 H 1262.96 2.75963 -1.50638 0
M  V30 12766 N 1266.73 1.55688 -0.24474 0
M  V30 12767 C 1267.98 1.98891 0.380603 0
M  V30 12768 C 1268.31 1.13283 1.58105 0
M  V30 12769 O 1267.56 0.183141 1.94841 0
M  V30 12770 C 1267.86 3.47487 0.835923 0
M  V30 12771 C 1267.53 4.5017 -0.256528 0
M  V30 12772 C 1266.19 4.7797 -0.556573 0
M  V30 12773 C 1268.54 5.1163 -0.994174 0
M  V30 12774 C 1265.87 5.64508 -1.59838 0
M  V30 12775 C 1268.22 5.99297 -2.02548 0
M  V30 12776 C 1266.88 6.25432 -2.3322 0
M  V30 12777 H 1266.15 0.727794 0.139273 0
M  V30 12778 H 1268.8 1.88235 -0.352113 0
M  V30 12779 H 1267.11 3.55464 1.64781 0
M  V30 12780 H 1268.8 3.78301 1.33001 0
M  V30 12781 H 1265.39 4.28598 -0.0125284 0
M  V30 12782 H 1269.58 4.90202 -0.775617 0
M  V30 12783 H 1264.83 5.83012 -1.84138 0
M  V30 12784 H 1269.01 6.45964 -2.60198 0
M  V30 12785 H 1266.63 6.92282 -3.14085 0
M  V30 12786 N 1268.21 -0.0283989 1.57574 0
M  V30 12787 C 1269.44 -0.730831 1.93563 0
M  V30 12788 C 1269.85 -1.68857 0.844556 0
M  V30 12789 O 1269.21 -1.8162 -0.178971 0
M  V30 12790 C 1269.26 -1.48731 3.29486 0
M  V30 12791 O 1268.98 -0.568017 4.34402 0
M  V30 12792 C 1270.48 -2.28684 3.79761 0
M  V30 12793 H 1267.7 -0.205346 0.638807 0
M  V30 12794 H 1270.25 0.0142728 2.04495 0
M  V30 12795 H 1268.4 -2.18429 3.19949 0
M  V30 12796 H 1268.82 -1.09861 5.12865 0
M  V30 12797 H 1270.29 -2.77157 4.77376 0
M  V30 12798 H 1270.77 -3.10133 3.10989 0
M  V30 12799 H 1271.37 -1.64059 3.92383 0
M  V30 12800 N 1269.69 -1.54705 -0.300681 0
M  V30 12801 C 1270.93 -1.74259 -1.03738 0
M  V30 12802 C 1271.27 -0.52703 -1.86912 0
M  V30 12803 O 1270.54 0.475862 -1.88589 0
M  V30 12804 C 1270.82 -3.03175 -1.94311 0
M  V30 12805 C 1270.68 -4.35031 -1.14315 0
M  V30 12806 C 1272 -3.27962 -2.93478 0
M  V30 12807 H 1269.12 -0.634031 -0.37573 0
M  V30 12808 H 1271.76 -1.87421 -0.312012 0
M  V30 12809 H 1269.91 -2.92086 -2.5616 0
M  V30 12810 H 1271.58 -4.5804 -0.547489 0
M  V30 12811 H 1269.82 -4.31503 -0.44587 0
M  V30 12812 H 1270.49 -5.21502 -1.80941 0
M  V30 12813 H 1272.97 -3.38663 -2.41757 0
M  V30 12814 H 1271.85 -4.19481 -3.54016 0
M  V30 12815 H 1272.11 -2.46273 -3.67154 0
M  V30 12816 N 1271.17 0.563888 -1.47167 0
M  V30 12817 C 1272.41 1.32136 -1.53448 0
M  V30 12818 C 1272.74 1.9353 -0.19396 0
M  V30 12819 O 1272 1.78038 0.812456 0
M  V30 12820 C 1272.3 2.45678 -2.59571 0
M  V30 12821 C 1271.96 2.02157 -4.03043 0
M  V30 12822 C 1270.62 1.90003 -4.421 0
M  V30 12823 C 1272.98 1.68846 -4.93093 0
M  V30 12824 C 1270.3 1.42825 -5.6905 0
M  V30 12825 C 1272.66 1.2314 -6.20499 0
M  V30 12826 C 1271.32 1.09578 -6.58444 0
M  V30 12827 H 1270.59 0.483519 -0.561507 0
M  V30 12828 H 1273.24 0.633042 -1.80734 0
M  V30 12829 H 1271.54 3.20037 -2.26017 0
M  V30 12830 H 1273.24 3.03871 -2.61655 0
M  V30 12831 H 1269.83 2.12557 -3.7218 0
M  V30 12832 H 1274.01 1.77111 -4.63622 0
M  V30 12833 H 1269.27 1.30983 -5.97205 0
M  V30 12834 H 1273.44 0.964247 -6.89692 0
M  V30 12835 H 1271.07 0.727975 -7.56706 0
M  V30 12836 N 1272.64 1.35187 0.810078 0
M  V30 12837 C 1273.55 1.29926 1.95337 0
M  V30 12838 C 1274.57 0.204748 1.72791 0
M  V30 12839 O 1275.75 0.433507 1.96679 0
M  V30 12840 C 1272.81 1.06736 3.29861 0
M  V30 12841 C 1271.87 2.25466 3.65326 0
M  V30 12842 C 1271.11 2.03373 4.93432 0
M  V30 12843 O 1271.33 0.998419 5.61594 0
M  V30 12844 O 1270.26 2.90648 5.27075 0
M  V30 12845 H 1274.09 2.26137 2.02721 0
M  V30 12846 H 1271.67 1.15523 0.947354 0
M  V30 12847 H 1273.56 0.956367 4.10404 0
M  V30 12848 H 1272.23 0.135735 3.23415 0
M  V30 12849 H 1271.14 2.42129 2.85175 0
M  V30 12850 H 1272.47 3.17063 3.76473 0
M  V30 12851 N 1274.12 -1.03182 1.19127 0
M  V30 12852 C 1275.37 -1.75934 0.986415 0
M  V30 12853 C 1275.68 -1.89519 -0.48392 0
M  V30 12854 O 1276.89 -2.59213 -0.80752 0
M  V30 12855 C 1275.35 -3.16358 1.71597 0
M  V30 12856 C 1274.95 -3.10836 3.22622 0
M  V30 12857 C 1276.7 -3.93426 1.59425 0
M  V30 12858 C 1274.61 -4.46174 3.88179 0
M  V30 12859 H 1273.54 -0.659516 0.365451 0
M  V30 12860 H 1276.19 -1.15497 1.42593 0
M  V30 12861 H 1274.57 -3.77245 1.20426 0
M  V30 12862 H 1275.74 -2.59348 3.80887 0
M  V30 12863 H 1274.06 -2.47266 3.35035 0
M  V30 12864 H 1276.65 -4.93526 2.05757 0
M  V30 12865 H 1277 -4.12678 0.547926 0
M  V30 12866 H 1277.53 -3.39134 2.07925 0
M  V30 12867 H 1274.27 -4.32126 4.92897 0
M  V30 12868 H 1273.79 -4.97729 3.34702 0
M  V30 12869 H 1275.47 -5.15066 3.91556 0
M  V30 12870 N 1275.6 -0.99472 -1.22242 0
M  V30 12871 C 1276.85 -0.670275 -1.90661 0
M  V30 12872 C 1277.17 0.800369 -1.77818 0
M  V30 12873 O 1276.44 1.57381 -1.16653 0
M  V30 12874 H 1275.02 -0.244925 -0.705706 0
M  V30 12875 H 1277.68 -1.26162 -1.48557 0
M  V30 12876 H 1276.78 -0.934408 -2.97784 0
M  V30 12877 N 1277.08 1.37613 -0.768148 0
M  V30 12878 C 1278.3 2.04579 -0.340892 0
M  V30 12879 C 1278.73 1.57556 1.02751 0
M  V30 12880 O 1278.09 0.734151 1.65771 0
M  V30 12881 C 1278.13 3.58495 -0.389099 0
M  V30 12882 O 1277.24 4.07838 0.611741 0
M  V30 12883 H 1276.58 0.647246 -0.148216 0
M  V30 12884 H 1279.11 1.75999 -1.04333 0
M  V30 12885 H 1279.12 4.07263 -0.245116 0
M  V30 12886 H 1277.79 3.92076 -1.38742 0
M  V30 12887 H 1276.37 3.70399 0.431173 0
M  V30 12888 N 1278.56 0.518393 1.4883 0
M  V30 12889 C 1279.78 -0.0183131 2.07392 0
M  V30 12890 C 1280.21 -1.28468 1.37396 0
M  V30 12891 O 1279.56 -1.75975 0.436177 0
M  V30 12892 C 1279.61 -0.237211 3.59819 0
M  V30 12893 O 1278.72 -1.30835 3.91096 0
M  V30 12894 H 1278.06 0.0339621 0.663131 0
M  V30 12895 H 1280.59 0.722993 1.914 0
M  V30 12896 H 1280.6 -0.463424 4.0536 0
M  V30 12897 H 1279.27 0.687925 4.10171 0
M  V30 12898 H 1277.85 -1.06571 3.57347 0
M  V30 12899 N 1280.03 -1.55556 0.252993 0
M  V30 12900 C 1281 -2.20351 -0.630705 0
M  V30 12901 C 1282 -1.17461 -1.09816 0
M  V30 12902 O 1283.19 -1.42505 -1.00189 0
M  V30 12903 C 1280.32 -2.85192 -1.86757 0
M  V30 12904 H 1281.51 -2.99829 -0.0652939 0
M  V30 12905 H 1279.07 -1.563 0.00347982 0
M  V30 12906 H 1279.8 -2.09669 -2.47406 0
M  V30 12907 H 1279.59 -3.60569 -1.54053 0
M  V30 12908 H 1281.08 -3.34762 -2.49648 0
M  V30 12909 N 1281.51 0.0200419 -1.57587 0
M  V30 12910 C 1282.46 1.0259 -2.03615 0
M  V30 12911 C 1283.45 1.31504 -0.927116 0
M  V30 12912 O 1284.64 1.30938 -1.19098 0
M  V30 12913 C 1281.77 2.32424 -2.52654 0
M  V30 12914 C 1280.85 2.06561 -3.70396 0
M  V30 12915 N 1281.24 1.50787 -4.82801 0
M  V30 12916 C 1279.54 2.36802 -3.77943 0
M  V30 12917 C 1280.24 1.40935 -5.64369 0
M  V30 12918 N 1279.22 1.88806 -5.09758 0
M  V30 12919 H 1283.02 0.588835 -2.87941 0
M  V30 12920 H 1280.54 0.226163 -1.60817 0
M  V30 12921 H 1282.53 3.05303 -2.83894 0
M  V30 12922 H 1281.19 2.76801 -1.69738 0
M  V30 12923 H 1282.2 1.18935 -5.04058 0
M  V30 12924 H 1278.88 2.84192 -3.05845 0
M  V30 12925 H 1280.27 0.982261 -6.64681 0
M  V30 12926 N 1282.99 1.54862 0.292472 0
M  V30 12927 C 1284.23 1.76289 1.03448 0
M  V30 12928 C 1284.59 0.541914 1.84194 0
M  V30 12929 O 1285.8 0.634075 2.61214 0
M  V30 12930 C 1284.07 3.02112 1.90953 0
M  V30 12931 S 1285.63 3.44577 2.71683 0
M  V30 12932 H 1282.44 0.619596 0.348744 0
M  V30 12933 H 1285.05 1.93075 0.306952 0
M  V30 12934 H 1283.75 3.89091 1.30523 0
M  V30 12935 H 1283.28 2.87937 2.68059 0
M  V30 12936 H 1285.3 3.02318 3.93469 0
M  V30 12937 N 1284.47 -0.556076 1.47464 0
M  V30 12938 C 1285.38 -1.69043 1.62671 0
M  V30 12939 C 1286.39 -1.66372 0.509535 0
M  V30 12940 O 1287.57 -1.85799 0.777218 0
M  V30 12941 C 1284.64 -3.05546 1.63836 0
M  V30 12942 C 1283.7 -3.19275 2.86988 0
M  V30 12943 C 1282.93 -4.49267 2.88088 0
M  V30 12944 O 1283.15 -5.34796 1.98368 0
M  V30 12945 O 1282.09 -4.66811 3.79962 0
M  V30 12946 H 1285.91 -1.59155 2.58657 0
M  V30 12947 H 1283.5 -0.726211 1.30562 0
M  V30 12948 H 1285.38 -3.86778 1.67275 0
M  V30 12949 H 1284.05 -3.15814 0.710173 0
M  V30 12950 H 1282.96 -2.37437 2.89093 0
M  V30 12951 H 1284.29 -3.13912 3.79104 0
M  V30 12952 N 1285.95 -1.35615 -0.802897 0
M  V30 12953 C 1287.18 -1.32217 -1.59142 0
M  V30 12954 C 1287.59 0.0995496 -1.88537 0
M  V30 12955 O 1286.95 1.05258 -1.49087 0
M  V30 12956 C 1287 -2.13048 -2.92049 0
M  V30 12957 O 1286.72 -3.49677 -2.63927 0
M  V30 12958 C 1288.22 -2.17278 -3.864 0
M  V30 12959 H 1285.44 -0.454054 -0.49404 0
M  V30 12960 H 1287.98 -1.78521 -0.997516 0
M  V30 12961 H 1286.14 -1.70334 -3.47944 0
M  V30 12962 H 1286.55 -3.917 -3.48814 0
M  V30 12963 H 1288.03 -2.7822 -4.76758 0
M  V30 12964 H 1288.5 -1.17253 -4.23259 0
M  V30 12965 H 1289.11 -2.6017 -3.3644 0
M  V30 12966 N 1287.43 1.02549 -1.19673 0
M  V30 12967 C 1288.7 1.73106 -0.9107 0
M  V30 12968 C 1289.08 2.02897 0.582769 0
M  V30 12969 O 1288.43 1.68633 1.54192 0
M  V30 12970 C 1288.64 3.00535 -1.77425 0
M  V30 12971 C 1289.99 3.73976 -2.01065 0
M  V30 12972 O 1291.01 3.1047 -1.74605 0
M  V30 12973 O 1289.87 4.88153 -2.457 0
M  V30 12974 H 1286.97 0.754006 -0.339711 0
M  V30 12975 H 1289.51 1.08477 -1.30502 0
M  V30 12976 H 1288.28 2.74773 -2.78595 0
M  V30 12977 H 1287.91 3.72904 -1.37943 0
M  V30 12978 N 1288.9 1.00119 1.21713 0
M  V30 12979 C 1290.13 0.699416 1.94401 0
M  V30 12980 C 1290.54 -0.741376 1.7407 0
M  V30 12981 O 1289.88 -1.51286 1.04203 0
M  V30 12982 C 1289.95 0.935875 3.47105 0
M  V30 12983 C 1289.61 2.36276 3.91181 0
M  V30 12984 C 1290.61 3.34276 3.9819 0
M  V30 12985 C 1288.29 2.6994 4.23601 0
M  V30 12986 C 1290.29 4.6401 4.37005 0
M  V30 12987 C 1287.97 3.99891 4.62094 0
M  V30 12988 C 1288.97 4.96737 4.68766 0
M  V30 12989 O 1288.66 6.24364 5.06384 0
M  V30 12990 H 1288.39 0.257233 0.625146 0
M  V30 12991 H 1290.95 1.34098 1.55585 0
M  V30 12992 H 1289.18 0.237133 3.85972 0
M  V30 12993 H 1290.86 0.628075 4.01011 0
M  V30 12994 H 1291.63 3.09603 3.73324 0
M  V30 12995 H 1287.51 1.95257 4.17607 0
M  V30 12996 H 1291.05 5.39601 4.42128 0
M  V30 12997 H 1286.95 4.2435 4.86412 0
M  V30 12998 H 1287.72 6.28424 5.24429 0
M  V30 12999 N 1290.38 -1.37203 0.775435 0
M  V30 13000 C 1291.63 -1.99897 0.341936 0
M  V30 13001 C 1291.96 -1.61414 -1.07978 0
M  V30 13002 O 1291.24 -0.862108 -1.7435 0
M  V30 13003 C 1291.52 -3.56755 0.489715 0
M  V30 13004 C 1291.37 -4.05135 1.95411 0
M  V30 13005 C 1292.69 -4.39978 -0.103779 0
M  V30 13006 H 1289.81 -0.726199 0.125717 0
M  V30 13007 H 1292.45 -1.62826 0.979167 0
M  V30 13008 H 1290.6 -3.88464 -0.0527684 0
M  V30 13009 H 1292.27 -3.83975 2.55658 0
M  V30 13010 H 1290.52 -3.57192 2.46164 0
M  V30 13011 H 1291.19 -5.14161 2.00855 0
M  V30 13012 H 1293.66 -4.14547 0.359134 0
M  V30 13013 H 1292.54 -5.48892 0.0297337 0
M  V30 13014 H 1292.8 -4.25658 -1.19448 0
M  V30 13015 N 1291.86 -0.526279 -1.48553 0
M  V30 13016 C 1292.77 0.24244 -2.33344 0
M  V30 13017 C 1293.79 0.942658 -1.46253 0
M  V30 13018 O 1294.96 0.91844 -1.79239 0
M  V30 13019 C 1292.03 1.27801 -3.22285 0
M  V30 13020 C 1291.09 0.588543 -4.25247 0
M  V30 13021 C 1290.32 1.57478 -5.09938 0
M  V30 13022 O 1290.54 2.80707 -4.96548 0
M  V30 13023 O 1289.48 1.11621 -5.9146 0
M  V30 13024 H 1293.3 -0.452262 -3.00314 0
M  V30 13025 H 1290.89 -0.287249 -1.46613 0
M  V30 13026 H 1292.77 1.87656 -3.7731 0
M  V30 13027 H 1291.45 1.95519 -2.57981 0
M  V30 13028 H 1290.35 -0.0504022 -3.74066 0
M  V30 13029 H 1291.69 -0.046627 -4.92178 0
M  V30 13030 N 1293.34 1.5542 -0.261239 0
M  V30 13031 C 1294.59 1.9846 0.360052 0
M  V30 13032 C 1294.9 1.15288 1.58013 0
M  V30 13033 O 1296.11 1.48408 2.27348 0
M  V30 13034 C 1294.56 3.53185 0.691964 0
M  V30 13035 C 1294.17 4.45116 -0.507521 0
M  V30 13036 C 1295.91 4.04848 1.27665 0
M  V30 13037 C 1293.82 5.91207 -0.150966 0
M  V30 13038 H 1292.75 0.741207 0.138303 0
M  V30 13039 H 1295.4 1.79859 -0.363712 0
M  V30 13040 H 1293.78 3.67535 1.47425 0
M  V30 13041 H 1294.96 4.42531 -1.28465 0
M  V30 13042 H 1293.27 4.04013 -1.0081 0
M  V30 13043 H 1295.87 5.11529 1.55699 0
M  V30 13044 H 1296.21 3.5305 2.20593 0
M  V30 13045 H 1296.75 3.93882 0.556955 0
M  V30 13046 H 1293.48 6.47072 -1.04776 0
M  V30 13047 H 1293 5.96894 0.589671 0
M  V30 13048 H 1294.68 6.4647 0.261772 0
M  V30 13049 N 1294.82 -0.0116844 1.57596 0
M  V30 13050 C 1296.06 -0.697577 1.89679 0
M  V30 13051 C 1296.38 -1.74956 0.861122 0
M  V30 13052 O 1295.65 -1.95629 -0.103031 0
M  V30 13053 H 1294.23 -0.26064 0.700054 0
M  V30 13054 H 1296.9 0.0264782 1.94882 0
M  V30 13055 H 1295.99 -1.17621 2.89088 0
M  V30 13056 N 1296.29 -1.55015 -0.284256 0
M  V30 13057 C 1297.52 -1.79431 -1.04016 0
M  V30 13058 C 1297.94 -0.560254 -1.79563 0
M  V30 13059 O 1297.3 0.489804 -1.74558 0
M  V30 13060 C 1297.35 -3.01162 -1.98328 0
M  V30 13061 O 1296.45 -2.75459 -3.06914 0
M  V30 13062 H 1295.79 -0.593391 -0.297965 0
M  V30 13063 H 1298.32 -2.02136 -0.316585 0
M  V30 13064 H 1298.33 -3.29589 -2.40489 0
M  V30 13065 H 1297.01 -3.90634 -1.42751 0
M  V30 13066 H 1295.59 -2.58096 -2.69148 0
M  V30 13067 N 1297.77 0.548248 -1.47757 0
M  V30 13068 C 1299 1.335 -1.58722 0
M  V30 13069 C 1299.42 1.86549 -0.241034 0
M  V30 13070 O 1298.78 1.63447 0.784517 0
M  V30 13071 C 1298.83 2.47457 -2.62293 0
M  V30 13072 O 1297.93 3.49956 -2.18185 0
M  V30 13073 H 1297.27 0.396166 -0.532868 0
M  V30 13074 H 1299.8 0.66164 -1.93607 0
M  V30 13075 H 1299.81 2.93901 -2.82995 0
M  V30 13076 H 1298.49 2.08203 -3.60034 0
M  V30 13077 H 1297.06 3.09755 -2.0762 0
M  V30 13078 N 1299.25 1.36039 0.795694 0
M  V30 13079 C 1300.47 1.33222 1.58955 0
M  V30 13080 C 1300.9 -0.0854596 1.87906 0
M  V30 13081 O 1300.26 -1.05555 1.47403 0
M  V30 13082 C 1300.31 2.15508 2.89117 0
M  V30 13083 O 1299.41 1.54327 3.82436 0
M  V30 13084 H 1298.75 0.456264 0.48241 0
M  V30 13085 H 1301.28 1.79234 0.986726 0
M  V30 13086 H 1301.29 2.2786 3.38444 0
M  V30 13087 H 1299.97 3.18568 2.67371 0
M  V30 13088 H 1298.54 1.50879 3.41013 0
M  V30 13089 N 1300.73 -1.01913 1.20215 0
M  V30 13090 C 1301.98 -1.74878 1.00502 0
M  V30 13091 C 1302.29 -1.90022 -0.463792 0
M  V30 13092 O 1303.5 -2.60055 -0.779982 0
M  V30 13093 C 1301.95 -3.1452 1.74943 0
M  V30 13094 C 1301.56 -3.07397 3.259 0
M  V30 13095 C 1303.3 -3.91713 1.63589 0
M  V30 13096 C 1301.21 -4.42032 3.92889 0
M  V30 13097 H 1300.14 -0.655603 0.372426 0
M  V30 13098 H 1302.79 -1.13978 1.4381 0
M  V30 13099 H 1301.17 -3.75946 1.24421 0
M  V30 13100 H 1302.35 -2.55294 3.83617 0
M  V30 13101 H 1300.66 -2.43698 3.37639 0
M  V30 13102 H 1303.26 -4.91316 2.1098 0
M  V30 13103 H 1303.6 -4.12074 0.591665 0
M  V30 13104 H 1304.14 -3.3691 2.11511 0
M  V30 13105 H 1300.88 -4.26874 4.97453 0
M  V30 13106 H 1300.4 -4.94151 3.39962 0
M  V30 13107 H 1302.07 -5.10884 3.96997 0
M  V30 13108 N 1302.21 -1.00763 -1.2118 0
M  V30 13109 C 1303.14 -0.590493 -2.2591 0
M  V30 13110 C 1304.12 0.390002 -1.65569 0
M  V30 13111 O 1305.3 0.277406 -1.92208 0
M  V30 13112 C 1302.43 0.0810388 -3.47205 0
M  V30 13113 C 1301.39 -0.81951 -4.20081 0
M  V30 13114 C 1300.71 -0.014244 -5.34698 0
M  V30 13115 C 1302.01 -2.12336 -4.7719 0
M  V30 13116 H 1303.71 -1.46595 -2.61056 0
M  V30 13117 H 1301.25 -0.706321 -1.25487 0
M  V30 13118 H 1303.21 0.384355 -4.19644 0
M  V30 13119 H 1301.93 0.991145 -3.11197 0
M  V30 13120 H 1300.59 -1.10669 -3.49497 0
M  V30 13121 H 1300.24 0.897233 -4.94933 0
M  V30 13122 H 1299.94 -0.613883 -5.84384 0
M  V30 13123 H 1301.46 0.282827 -6.09945 0
M  V30 13124 H 1302.87 -1.88301 -5.41494 0
M  V30 13125 H 1301.27 -2.67308 -5.37277 0
M  V30 13126 H 1302.34 -2.79238 -3.96427 0
M  V30 13127 N 1303.68 1.3679 -0.7827 0
M  V30 13128 C 1304.93 1.99023 -0.351316 0
M  V30 13129 C 1305.25 1.62436 1.07887 0
M  V30 13130 O 1304.52 0.895084 1.74256 0
M  V30 13131 H 1303.1 0.736141 -0.126909 0
M  V30 13132 H 1305.77 1.67095 -1.00325 0
M  V30 13133 H 1304.86 3.09015 -0.43774 0
M  V30 13134 N 1305.16 0.53415 1.48272 0
M  V30 13135 C 1306.39 0.00368464 2.074 0
M  V30 13136 C 1306.81 -1.27003 1.38751 0
M  V30 13137 O 1306.17 -1.75502 0.454817 0
M  V30 13138 C 1306.22 -0.199034 3.6005 0
M  V30 13139 O 1305.32 -1.26679 3.92462 0
M  V30 13140 H 1304.66 0.0409936 0.662733 0
M  V30 13141 H 1307.19 0.743253 1.90622 0
M  V30 13142 H 1307.2 -0.420404 4.05828 0
M  V30 13143 H 1305.88 0.731391 4.09418 0
M  V30 13144 H 1304.46 -1.02775 3.58457 0
M  V30 13145 N 1306.64 -1.55279 0.269478 0
M  V30 13146 C 1308.05 -1.85286 -0.229372 0
M  V30 13147 C 1308.4 -1.19148 -1.55879 0
M  V30 13148 O 1307.53 -0.4778 -2.11059 0
M  V30 13149 C 1308.12 -3.3615 -0.42296 0
M  V30 13150 C 1306.68 -3.66301 -0.866047 0
M  V30 13151 C 1305.83 -2.77265 0.0439028 0
M  V30 13152 H 1308.78 -1.509 0.491427 0
M  V30 13153 H 1308.8 -3.5895 -1.26234 0
M  V30 13154 H 1308.31 -3.84258 0.544768 0
M  V30 13155 H 1306.41 -3.23688 -1.84545 0
M  V30 13156 H 1306.53 -4.73851 -0.707274 0
M  V30 13157 H 1304.89 -2.50299 -0.471433 0
M  V30 13158 H 1305.67 -3.28186 1.00741 0
M  V30 13159 N 1308.12 0.00332656 -1.576 0
M  V30 13160 C 1309.03 1.01221 -2.1164 0
M  V30 13161 C 1310.04 1.37918 -1.06088 0
M  V30 13162 O 1311.22 1.46717 -1.37971 0
M  V30 13163 C 1308.29 2.28638 -2.60626 0
M  V30 13164 C 1307.35 1.98284 -3.80765 0
M  V30 13165 C 1306.58 3.19626 -4.27405 0
M  V30 13166 O 1306.8 4.31196 -3.73398 0
M  V30 13167 O 1305.74 3.03819 -5.19594 0
M  V30 13168 H 1309.56 0.582839 -2.98055 0
M  V30 13169 H 1307.15 0.221947 -1.47742 0
M  V30 13170 H 1309.03 3.03498 -2.92347 0
M  V30 13171 H 1307.7 2.70819 -1.7731 0
M  V30 13172 H 1306.61 1.2091 -3.54022 0
M  V30 13173 H 1307.94 1.60942 -4.65144 0
M  V30 13174 N 1309.6 1.55164 0.276031 0
M  V30 13175 C 1310.54 1.88623 1.36104 0
M  V30 13176 C 1311.54 0.762265 1.51281 0
M  V30 13177 O 1312.74 0.946573 1.53101 0
M  V30 13178 H 1309.12 0.59863 0.455133 0
M  V30 13179 H 1311.09 2.79266 1.05134 0
M  V30 13180 C 1309.84 2.17207 2.71508 0
M  V30 13181 H 1309.16 3.03179 2.6062 0
M  V30 13182 H 1310.6 2.44541 3.46375 0
M  V30 13183 C 1309.06 0.978671 3.22372 0
M  V30 13184 O 1309.59 0.211766 4.01141 0
M  V30 13185 N 1307.8 0.777199 2.80014 0
M  V30 13186 H 1307.34 1.40252 2.16072 0
M  V30 13187 H 1307.3 -0.0196754 3.14394 0
M  V30 13188 N 1311.07 -0.540404 1.48045 0
M  V30 13189 C 1312.02 -1.64598 1.61791 0
M  V30 13190 C 1312.99 -1.59595 0.460301 0
M  V30 13191 O 1314.18 -1.78176 0.682482 0
M  V30 13192 C 1311.32 -3.02887 1.65389 0
M  V30 13193 C 1310.43 -3.18202 2.92184 0
M  V30 13194 C 1309.56 -4.46989 2.87009 0
M  V30 13195 C 1308.6 -4.55795 4.08555 0
M  V30 13196 N 1307.74 -5.75958 4.01518 0
M  V30 13197 H 1312.58 -1.52188 2.56208 0
M  V30 13198 H 1310.12 -0.741097 1.27068 0
M  V30 13199 H 1312.08 -3.82988 1.65457 0
M  V30 13200 H 1310.71 -3.14092 0.744703 0
M  V30 13201 H 1309.76 -2.31422 3.01907 0
M  V30 13202 H 1311.07 -3.20571 3.82146 0
M  V30 13203 H 1310.22 -5.35369 2.85421 0
M  V30 13204 H 1308.96 -4.47125 1.94759 0
M  V30 13205 H 1307.97 -3.65824 4.1043 0
M  V30 13206 H 1309.19 -4.57406 5.01953 0
M  V30 13207 H 1307.14 -5.77011 3.12081 0
M  V30 13208 H 1307.06 -5.79777 4.85175 0
M  V30 13209 H 1308.32 -6.66653 4.03972 0
M  V30 13210 N 1312.55 -1.36459 -0.788468 0
M  V30 13211 C 1313.5 -1.30863 -1.90115 0
M  V30 13212 C 1314.47 -0.177148 -1.65153 0
M  V30 13213 O 1315.65 -0.363817 -1.87299 0
M  V30 13214 C 1312.79 -1.10473 -3.2694 0
M  V30 13215 C 1311.91 -2.32704 -3.63968 0
M  V30 13216 C 1311.04 -2.05319 -4.89916 0
M  V30 13217 C 1310.08 -3.23506 -5.19625 0
M  V30 13218 N 1309.22 -2.9578 -6.36756 0
M  V30 13219 H 1314.06 -2.26003 -1.94233 0
M  V30 13220 H 1311.6 -1.12324 -0.949827 0
M  V30 13221 H 1313.55 -0.966773 -4.05844 0
M  V30 13222 H 1312.18 -0.189873 -3.22241 0
M  V30 13223 H 1311.24 -2.573 -2.8018 0
M  V30 13224 H 1312.55 -3.20899 -3.81871 0
M  V30 13225 H 1311.7 -1.88459 -5.76687 0
M  V30 13226 H 1310.44 -1.14437 -4.74084 0
M  V30 13227 H 1309.45 -3.40924 -4.31336 0
M  V30 13228 H 1310.67 -4.15216 -5.37376 0
M  V30 13229 H 1308.62 -2.0751 -6.22315 0
M  V30 13230 H 1308.53 -3.77513 -6.54996 0
M  V30 13231 H 1309.8 -2.825 -7.26508 0
M  V30 13232 N 1314.03 1.01274 -1.20754 0
M  V30 13233 C 1315.26 1.78265 -1.04427 0
M  V30 13234 C 1315.67 1.84718 0.409361 0
M  V30 13235 O 1315.01 1.30195 1.29595 0
M  V30 13236 C 1315.07 3.24037 -1.55693 0
M  V30 13237 C 1314.74 3.41181 -3.04047 0
M  V30 13238 C 1315.73 3.30087 -4.0167 0
M  V30 13239 C 1313.42 3.66872 -3.43089 0
M  V30 13240 C 1315.41 3.44436 -5.36323 0
M  V30 13241 C 1313.1 3.80865 -4.77896 0
M  V30 13242 C 1314.1 3.69652 -5.74322 0
M  V30 13243 O 1313.79 3.83211 -7.06686 0
M  V30 13244 H 1313.52 0.567327 -0.367582 0
M  V30 13245 H 1316.07 1.28336 -1.60372 0
M  V30 13246 H 1314.3 3.75067 -0.941382 0
M  V30 13247 H 1315.99 3.82676 -1.35328 0
M  V30 13248 H 1316.76 3.10172 -3.72852 0
M  V30 13249 H 1312.64 3.74685 -2.68574 0
M  V30 13250 H 1316.18 3.35601 -6.1157 0
M  V30 13251 H 1312.08 4.00282 -5.06403 0
M  V30 13252 H 1312.85 4.00205 -7.13987 0
M  V30 13253 N 1315.51 1.01404 1.20644 0
M  V30 13254 C 1316.75 0.710412 1.91657 0
M  V30 13255 C 1317.11 -0.745972 1.76916 0
M  V30 13256 O 1318.31 -1.162 2.42386 0
M  V30 13257 C 1316.59 1.13093 3.39035 0
M  V30 13258 S 1318.14 0.948885 4.28418 0
M  V30 13259 H 1314.96 0.259074 0.662119 0
M  V30 13260 H 1317.56 1.30077 1.45946 0
M  V30 13261 H 1316.27 2.18682 3.47284 0
M  V30 13262 H 1315.8 0.533248 3.89769 0
M  V30 13263 H 1317.81 -0.149 4.95976 0
M  V30 13264 N 1316.99 -1.36373 0.789944 0
M  V30 13265 C 1318.24 -1.98834 0.361866 0
M  V30 13266 C 1318.56 -1.63006 -1.07024 0
M  V30 13267 O 1317.83 -0.904312 -1.73779 0
M  V30 13268 H 1316.41 -0.735457 0.130812 0
M  V30 13269 H 1319.07 -1.66561 1.0121 0
M  V30 13270 H 1318.16 -3.08778 0.454122 0
M  V30 13271 N 1318.47 -0.542005 -1.47987 0
M  V30 13272 C 1319.69 -0.016717 -2.06893 0
M  V30 13273 C 1320.11 1.27015 -1.39687 0
M  V30 13274 O 1319.47 1.75845 -0.488326 0
M  V30 13275 C 1319.52 0.198437 -3.60955 0
M  V30 13276 O 1319.24 -1.03746 -4.25639 0
M  V30 13277 C 1320.74 0.762741 -4.36689 0
M  V30 13278 H 1317.96 -0.0389497 -0.669869 0
M  V30 13279 H 1320.5 -0.751082 -1.90208 0
M  V30 13280 H 1318.66 0.882884 -3.77205 0
M  V30 13281 H 1319.07 -0.82568 -5.1796 0
M  V30 13282 H 1320.55 0.862649 -5.45218 0
M  V30 13283 H 1321.02 1.77049 -4.01933 0
M  V30 13284 H 1321.63 0.114478 -4.25146 0
M  V30 13285 N 1319.94 1.55134 -0.277709 0
M  V30 13286 C 1321.22 1.91667 0.390253 0
M  V30 13287 C 1321.6 1.20228 1.73518 0
M  V30 13288 O 1320.95 0.330013 2.26104 0
M  V30 13289 C 1321.16 3.44983 0.52797 0
M  V30 13290 C 1322.51 4.16809 0.809665 0
M  V30 13291 O 1323.53 3.50891 0.612679 0
M  V30 13292 O 1322.39 5.33463 1.18656 0
M  V30 13293 H 1319.48 0.798807 0.214095 0
M  V30 13294 H 1322.03 1.66577 -0.324053 0
M  V30 13295 H 1320.8 3.89056 -0.418422 0
M  V30 13296 H 1320.42 3.76035 1.29164 0
M  V30 13297 N 1321.42 0.00503138 1.57599 0
M  V30 13298 C 1322.67 -0.677979 1.89964 0
M  V30 13299 C 1322.98 -1.74657 0.88059 0
M  V30 13300 O 1324.19 -2.48455 1.09463 0
M  V30 13301 C 1322.65 -1.25708 3.37232 0
M  V30 13302 C 1322.25 -0.223045 4.47444 0
M  V30 13303 C 1324 -1.91799 3.787 0
M  V30 13304 C 1321.9 -0.812416 5.85793 0
M  V30 13305 H 1320.83 -0.256991 0.708852 0
M  V30 13306 H 1323.49 0.0663988 1.8338 0
M  V30 13307 H 1321.87 -2.05228 3.3867 0
M  V30 13308 H 1323.04 0.54794 4.57531 0
M  V30 13309 H 1321.36 0.337714 4.15028 0
M  V30 13310 H 1323.95 -2.36808 4.79402 0
M  V30 13311 H 1324.3 -2.75067 3.1248 0
M  V30 13312 H 1324.83 -1.19004 3.79583 0
M  V30 13313 H 1321.57 -0.0184031 6.55497 0
M  V30 13314 H 1321.09 -1.55244 5.79361 0
M  V30 13315 H 1322.77 -1.30952 6.33609 0
M  V30 13316 N 1322.9 -1.55308 -0.267798 0
M  V30 13317 C 1324.31 -1.66814 -0.838459 0
M  V30 13318 C 1324.66 -0.598609 -1.86845 0
M  V30 13319 O 1323.79 0.25896 -2.14845 0
M  V30 13320 C 1324.38 -3.02408 -1.52758 0
M  V30 13321 C 1322.94 -3.15923 -2.04621 0
M  V30 13322 C 1322.09 -2.62628 -0.890044 0
M  V30 13323 H 1325.04 -1.58639 -0.0440354 0
M  V30 13324 H 1325.06 -2.95687 -2.39478 0
M  V30 13325 H 1324.57 -3.80228 -0.777695 0
M  V30 13326 H 1322.67 -2.42886 -2.82555 0
M  V30 13327 H 1322.79 -4.22556 -2.25794 0
M  V30 13328 H 1321.15 -2.19918 -1.28485 0
M  V30 13329 H 1321.93 -3.42956 -0.153579 0
M  V30 13330 N 1324.38 0.532545 -1.4833 0
M  V30 13331 C 1325.6 1.31809 -1.60129 0
M  V30 13332 C 1326.03 1.86283 -0.260807 0
M  V30 13333 O 1325.39 1.6427 0.767137 0
M  V30 13334 C 1325.43 2.44661 -2.64903 0
M  V30 13335 O 1324.54 3.47622 -2.21885 0
M  V30 13336 H 1323.88 0.390492 -0.53704 0
M  V30 13337 H 1326.41 0.641068 -1.94297 0
M  V30 13338 H 1326.42 2.90883 -2.86096 0
M  V30 13339 H 1325.09 2.04373 -3.62222 0
M  V30 13340 H 1323.67 3.07536 -2.10894 0
M  V30 13341 N 1325.86 1.36875 0.78122 0
M  V30 13342 C 1327.1 1.31559 1.53943 0
M  V30 13343 C 1327.43 -0.10273 1.94229 0
M  V30 13344 O 1326.69 -1.07386 1.63605 0
M  V30 13345 C 1326.98 2.19173 2.82309 0
M  V30 13346 C 1326.65 3.67595 2.61121 0
M  V30 13347 C 1325.31 4.08047 2.55051 0
M  V30 13348 C 1327.66 4.61665 2.41898 0
M  V30 13349 C 1324.99 5.40697 2.27736 0
M  V30 13350 C 1327.34 5.94542 2.16108 0
M  V30 13351 C 1326.01 6.34109 2.08476 0
M  V30 13352 H 1325.28 0.48141 0.563317 0
M  V30 13353 H 1327.93 1.68999 0.900638 0
M  V30 13354 H 1326.23 1.74696 3.50697 0
M  V30 13355 H 1327.93 2.12379 3.40141 0
M  V30 13356 H 1324.52 3.35509 2.66705 0
M  V30 13357 H 1328.7 4.3128 2.45584 0
M  V30 13358 H 1323.96 5.70325 2.20315 0
M  V30 13359 H 1328.13 6.66994 2.0023 0
M  V30 13360 H 1325.76 7.36823 1.87073 0
M  V30 13361 N 1327.33 -1.00632 1.21289 0
M  V30 13362 C 1328.58 -1.73802 1.02351 0
M  V30 13363 C 1328.9 -1.90503 -0.443611 0
M  V30 13364 O 1330.1 -2.60868 -0.752356 0
M  V30 13365 C 1328.56 -3.12647 1.78269 0
M  V30 13366 C 1328.17 -3.03923 3.29142 0
M  V30 13367 C 1329.91 -3.89956 1.67735 0
M  V30 13368 C 1327.82 -4.3784 3.97556 0
M  V30 13369 H 1326.75 -0.651616 0.379358 0
M  V30 13370 H 1329.4 -1.12446 1.45011 0
M  V30 13371 H 1327.78 -3.74605 1.28401 0
M  V30 13372 H 1328.95 -2.51211 3.86303 0
M  V30 13373 H 1327.27 -2.40103 3.40205 0
M  V30 13374 H 1329.87 -4.89051 2.1618 0
M  V30 13375 H 1330.21 -4.11423 0.635338 0
M  V30 13376 H 1330.74 -3.34647 2.15072 0
M  V30 13377 H 1327.48 -4.21573 5.01952 0
M  V30 13378 H 1327 -4.90518 3.45184 0
M  V30 13379 H 1328.68 -5.06644 4.02393 0
M  V30 13380 N 1328.81 -1.02043 -1.20104 0
M  V30 13381 C 1330.04 -0.731315 -1.93544 0
M  V30 13382 C 1330.45 0.708582 -1.74999 0
M  V30 13383 O 1329.81 1.481 -1.06642 0
M  V30 13384 C 1329.86 -1.06233 -3.45538 0
M  V30 13385 O 1329.58 -2.44568 -3.63481 0
M  V30 13386 C 1331.08 -0.794818 -4.36116 0
M  V30 13387 H 1328.3 -0.268248 -0.615048 0
M  V30 13388 H 1330.85 -1.36264 -1.52488 0
M  V30 13389 H 1329 -0.476341 -3.8446 0
M  V30 13390 H 1329.42 -2.5663 -4.57429 0
M  V30 13391 H 1330.89 -1.07647 -5.41402 0
M  V30 13392 H 1331.37 0.270944 -4.38363 0
M  V30 13393 H 1331.97 -1.36314 -4.02863 0
M  V30 13394 N 1330.29 1.35952 -0.797165 0
M  V30 13395 C 1331.52 2.0381 -0.38421 0
M  V30 13396 C 1331.94 1.597 0.993854 0
M  V30 13397 O 1331.3 0.769148 1.64176 0
M  V30 13398 C 1331.35 3.57589 -0.465054 0
M  V30 13399 O 1330.45 4.09043 0.525095 0
M  V30 13400 H 1329.79 0.643957 -0.161912 0
M  V30 13401 H 1332.32 1.73746 -1.08043 0
M  V30 13402 H 1332.33 4.06651 -0.331448 0
M  V30 13403 H 1331.01 3.89045 -1.47027 0
M  V30 13404 H 1329.58 3.7123 0.352509 0
M  V30 13405 N 1331.77 0.549846 1.47697 0
M  V30 13406 C 1333.01 0.0230845 2.02787 0
M  V30 13407 C 1333.35 -1.32035 1.42409 0
M  V30 13408 O 1332.62 -1.85745 0.576978 0
M  V30 13409 C 1332.91 -0.0778363 3.60016 0
M  V30 13410 C 1332.76 1.29217 4.3084 0
M  V30 13411 C 1334.08 -0.794909 4.32862 0
M  V30 13412 H 1331.2 0.00986307 0.736934 0
M  V30 13413 H 1333.84 0.710714 1.76207 0
M  V30 13414 H 1331.99 -0.663464 3.82793 0
M  V30 13415 H 1333.66 1.92044 4.19424 0
M  V30 13416 H 1331.9 1.86883 3.91481 0
M  V30 13417 H 1332.57 1.17435 5.39364 0
M  V30 13418 H 1335.05 -0.297743 4.15033 0
M  V30 13419 H 1333.93 -0.834466 5.4252 0
M  V30 13420 H 1334.19 -1.84948 4.01555 0
M  V30 13421 N 1333.25 -1.54984 0.285932 0
M  V30 13422 C 1334.48 -2.03943 -0.330295 0
M  V30 13423 C 1334.88 -1.16336 -1.49207 0
M  V30 13424 O 1334.23 -0.178341 -1.82832 0
M  V30 13425 C 1334.29 -3.48976 -0.863479 0
M  V30 13426 C 1333.95 -4.5668 0.171058 0
M  V30 13427 C 1334.95 -5.10303 0.994329 0
M  V30 13428 C 1332.64 -5.01352 0.308416 0
M  V30 13429 C 1334.63 -6.07126 1.94104 0
M  V30 13430 C 1332.32 -5.97999 1.25859 0
M  V30 13431 C 1333.31 -6.50768 2.0734 0
M  V30 13432 O 1333 -7.45524 3.00749 0
M  V30 13433 H 1332.73 -0.671491 -0.0779452 0
M  V30 13434 H 1335.29 -2.01081 0.419011 0
M  V30 13435 H 1333.52 -3.49113 -1.66305 0
M  V30 13436 H 1335.21 -3.81213 -1.39396 0
M  V30 13437 H 1335.97 -4.76595 0.899002 0
M  V30 13438 H 1331.85 -4.59917 -0.315817 0
M  V30 13439 H 1335.4 -6.48239 2.57743 0
M  V30 13440 H 1331.29 -6.31125 1.35469 0
M  V30 13441 H 1332.06 -7.63276 2.95554 0
M  V30 13442 N 1334.72 -0.0133892 -1.57594 0
M  V30 13443 C 1335.67 0.991796 -2.10395 0
M  V30 13444 C 1336.67 1.34724 -1.02693 0
M  V30 13445 O 1337.87 1.33131 -1.21145 0
M  V30 13446 H 1334.25 0.337553 -0.671984 0
M  V30 13447 H 1336.22 0.52102 -2.93816 0
M  V30 13448 C 1334.97 2.27039 -2.63341 0
M  V30 13449 H 1334.29 2.00559 -3.45855 0
M  V30 13450 H 1335.73 2.95619 -3.0395 0
M  V30 13451 C 1334.19 2.98939 -1.55362 0
M  V30 13452 O 1334.72 3.90444 -0.944282 0
M  V30 13453 N 1332.93 2.60997 -1.27784 0
M  V30 13454 H 1332.47 1.86666 -1.77521 0
M  V30 13455 H 1332.43 3.09416 -0.557585 0
M  V30 13456 N 1336.2 1.55448 0.259558 0
M  V30 13457 C 1337.45 1.76686 0.98935 0
M  V30 13458 C 1337.78 0.575434 1.85793 0
M  V30 13459 O 1337.03 -0.441676 1.90651 0
M  V30 13460 C 1337.33 3.03292 1.89073 0
M  V30 13461 C 1337 4.35225 1.17855 0
M  V30 13462 C 1335.66 4.7108 0.981675 0
M  V30 13463 C 1338.01 5.16839 0.6728 0
M  V30 13464 C 1335.34 5.86094 0.266551 0
M  V30 13465 C 1337.69 6.32593 -0.0287965 0
M  V30 13466 C 1336.36 6.67078 -0.23726 0
M  V30 13467 H 1335.63 0.646542 0.362029 0
M  V30 13468 H 1338.27 1.8972 0.260488 0
M  V30 13469 H 1336.58 2.85217 2.68624 0
M  V30 13470 H 1338.27 3.16923 2.45685 0
M  V30 13471 H 1334.86 4.07051 1.34192 0
M  V30 13472 H 1339.05 4.89604 0.812481 0
M  V30 13473 H 1334.3 6.11327 0.0944447 0
M  V30 13474 H 1338.48 6.95081 -0.428378 0
M  V30 13475 H 1336.11 7.56049 -0.793358 0
M  V30 13476 N 1337.68 -0.524672 1.4861 0
M  V30 13477 C 1338.61 -1.63782 1.66426 0
M  V30 13478 C 1339.59 -1.62177 0.513077 0
M  V30 13479 O 1340.78 -1.7929 0.74623 0
M  V30 13480 C 1337.91 -3.02354 1.70877 0
M  V30 13481 C 1336.86 -3.18819 2.85549 0
M  V30 13482 C 1336.19 -4.58506 2.75094 0
M  V30 13483 C 1337.49 -3.01086 4.26784 0
M  V30 13484 H 1339.18 -1.49127 2.59618 0
M  V30 13485 H 1336.73 -0.715997 1.24938 0
M  V30 13486 H 1338.68 -3.80105 1.81929 0
M  V30 13487 H 1337.4 -3.18044 0.742682 0
M  V30 13488 H 1336.06 -2.43487 2.74061 0
M  V30 13489 H 1335.71 -4.71038 1.76443 0
M  V30 13490 H 1335.41 -4.70466 3.52044 0
M  V30 13491 H 1336.93 -5.38348 2.88121 0
M  V30 13492 H 1338.35 -3.68624 4.39077 0
M  V30 13493 H 1336.75 -3.24536 5.04774 0
M  V30 13494 H 1337.82 -1.97454 4.42877 0
M  V30 13495 N 1339.16 -1.37287 -0.77395 0
M  V30 13496 C 1340.39 -1.35366 -1.56075 0
M  V30 13497 C 1340.8 0.0634437 -1.89094 0
M  V30 13498 O 1340.14 1.03503 -1.51766 0
M  V30 13499 C 1340.2 -2.12512 -2.89964 0
M  V30 13500 C 1339.87 -3.61492 -2.79593 0
M  V30 13501 C 1340.86 -4.55421 -2.50774 0
M  V30 13502 C 1338.55 -4.04585 -2.97684 0
M  V30 13503 C 1340.54 -5.90421 -2.4017 0
M  V30 13504 C 1338.23 -5.39672 -2.86701 0
M  V30 13505 C 1339.23 -6.32403 -2.57984 0
M  V30 13506 O 1338.91 -7.65006 -2.47024 0
M  V30 13507 H 1338.65 -0.465447 -0.49024 0
M  V30 13508 H 1341.2 -1.81199 -0.967273 0
M  V30 13509 H 1339.43 -1.61366 -3.51423 0
M  V30 13510 H 1341.12 -2.03253 -3.51345 0
M  V30 13511 H 1341.89 -4.23438 -2.36485 0
M  V30 13512 H 1337.76 -3.32769 -3.19038 0
M  V30 13513 H 1341.31 -6.62769 -2.17676 0
M  V30 13514 H 1337.21 -5.71258 -3.00558 0
M  V30 13515 H 1337.97 -7.75302 -2.6239 0
M  V30 13516 N 1340.64 0.999871 -1.21821 0
M  V30 13517 C 1341.88 1.74098 -1.04009 0
M  V30 13518 C 1342.22 1.89499 0.424716 0
M  V30 13519 O 1341.49 1.43306 1.31505 0
M  V30 13520 C 1341.77 3.1506 -1.74382 0
M  V30 13521 C 1341.63 3.0735 -3.28414 0
M  V30 13522 C 1342.95 4.1409 -1.49055 0
M  V30 13523 H 1340.06 0.631935 -0.379245 0
M  V30 13524 H 1342.71 1.16534 -1.50066 0
M  V30 13525 H 1340.86 3.64206 -1.35227 0
M  V30 13526 H 1342.53 2.65879 -3.76969 0
M  V30 13527 H 1340.77 2.44325 -3.58452 0
M  V30 13528 H 1341.44 4.07069 -3.72825 0
M  V30 13529 H 1343.92 3.73672 -1.83054 0
M  V30 13530 H 1342.79 5.10853 -2.008 0
M  V30 13531 H 1343.06 4.40085 -0.421641 0
M  V30 13532 N 1342.11 1.02678 1.19562 0
M  V30 13533 C 1343.34 0.741569 1.93154 0
M  V30 13534 C 1343.76 -0.699292 1.75372 0
M  V30 13535 O 1343.11 -1.47533 1.07426 0
M  V30 13536 C 1343.17 1.08064 3.4497 0
M  V30 13537 O 1342.89 2.46492 3.62179 0
M  V30 13538 C 1344.39 0.817935 4.35689 0
M  V30 13539 H 1341.61 0.271506 0.613617 0
M  V30 13540 H 1344.15 1.3707 1.51763 0
M  V30 13541 H 1342.31 0.496723 3.84202 0
M  V30 13542 H 1342.72 2.59053 4.56061 0
M  V30 13543 H 1344.19 1.10517 5.40823 0
M  V30 13544 H 1344.67 -0.247693 4.38501 0
M  V30 13545 H 1345.28 1.38449 4.02134 0
M  V30 13546 N 1343.59 -1.35528 0.804364 0
M  V30 13547 C 1344.84 -1.98832 0.383692 0
M  V30 13548 C 1345.17 -1.63816 -1.04855 0
M  V30 13549 O 1344.42 -0.892272 -1.74175 0
M  V30 13550 C 1344.72 -3.5372 0.511571 0
M  V30 13551 C 1344.39 -4.08597 1.9068 0
M  V30 13552 C 1343.05 -4.23297 2.28852 0
M  V30 13553 C 1345.4 -4.3834 2.81971 0
M  V30 13554 C 1342.73 -4.65056 3.57687 0
M  V30 13555 C 1345.08 -4.81537 4.1025 0
M  V30 13556 C 1343.75 -4.94442 4.48423 0
M  V30 13557 H 1343.02 -0.727577 0.140403 0
M  V30 13558 H 1345.66 -1.61777 1.02472 0
M  V30 13559 H 1343.97 -3.91221 -0.212916 0
M  V30 13560 H 1345.66 -4.00653 0.166888 0
M  V30 13561 H 1342.25 -3.97606 1.60023 0
M  V30 13562 H 1346.44 -4.26538 2.5373 0
M  V30 13563 H 1341.69 -4.73236 3.87115 0
M  V30 13564 H 1345.87 -5.03512 4.81091 0
M  V30 13565 H 1343.5 -5.26558 5.48307 0
M  V30 13566 N 1345.07 -0.557671 -1.47404 0
M  V30 13567 C 1346.32 -0.0338384 -2.02772 0
M  V30 13568 C 1346.65 1.31278 -1.43107 0
M  V30 13569 O 1345.93 1.85436 -0.58682 0
M  V30 13570 C 1346.21 0.0587427 -3.60052 0
M  V30 13571 C 1346.06 -1.315 -4.30148 0
M  V30 13572 C 1347.38 0.771942 -4.33277 0
M  V30 13573 H 1344.5 -0.0137711 -0.736871 0
M  V30 13574 H 1347.14 -0.720049 -1.75827 0
M  V30 13575 H 1345.29 0.643154 -3.83139 0
M  V30 13576 H 1346.96 -1.94265 -4.184 0
M  V30 13577 H 1345.21 -1.88956 -3.90484 0
M  V30 13578 H 1345.88 -1.20294 -5.38733 0
M  V30 13579 H 1348.35 0.275729 -4.15185 0
M  V30 13580 H 1347.23 0.805683 -5.42955 0
M  V30 13581 H 1347.49 1.82816 -4.0253 0
M  V30 13582 N 1346.55 1.54831 -0.294147 0
M  V30 13583 C 1347.5 2.23263 0.58499 0
M  V30 13584 C 1348.47 1.21278 1.13494 0
M  V30 13585 O 1349.65 1.49878 1.18073 0
M  V30 13586 C 1346.79 2.97185 1.75429 0
M  V30 13587 C 1345.9 4.1393 1.23638 0
M  V30 13588 C 1345.04 4.7545 2.36899 0
M  V30 13589 C 1344.08 5.84352 1.82207 0
M  V30 13590 N 1343.22 6.39855 2.89015 0
M  V30 13591 H 1348.06 2.98 -0.00519329 0
M  V30 13592 H 1345.59 1.47093 -0.0143313 0
M  V30 13593 H 1347.55 3.38271 2.4419 0
M  V30 13594 H 1346.18 2.24837 2.3162 0
M  V30 13595 H 1345.23 3.77832 0.441247 0
M  V30 13596 H 1346.54 4.92409 0.795946 0
M  V30 13597 H 1345.7 5.19353 3.1362 0
M  V30 13598 H 1344.44 3.96288 2.84266 0
M  V30 13599 H 1343.44 5.39879 1.03974 0
M  V30 13600 H 1344.67 6.65393 1.35753 0
M  V30 13601 H 1342.61 5.6358 3.35729 0
M  V30 13602 H 1342.53 7.13661 2.49447 0
M  V30 13603 H 1343.8 6.88417 3.65654 0
M  V30 13604 N 1348.03 0.0217466 1.57585 0
M  V30 13605 C 1349.25 -0.67246 1.96196 0
M  V30 13606 C 1349.68 -1.6529 0.897827 0
M  V30 13607 O 1349.04 -1.80743 -0.142002 0
M  V30 13608 C 1349.08 -1.36162 3.33905 0
M  V30 13609 O 1348.19 -2.47671 3.29747 0
M  V30 13610 H 1347.53 -0.177238 0.639908 0
M  V30 13611 H 1350.06 0.0814073 2.04438 0
M  V30 13612 H 1350.07 -1.7201 3.69968 0
M  V30 13613 H 1348.74 -0.642893 4.10901 0
M  V30 13614 H 1347.32 -2.13989 3.0539 0
M  V30 13615 N 1349.51 -1.55583 -0.251311 0
M  V30 13616 C 1350.73 -1.81597 -1.00186 0
M  V30 13617 C 1351.16 -0.598216 -1.78334 0
M  V30 13618 O 1350.51 0.452667 -1.75558 0
M  V30 13619 C 1350.56 -3.05301 -1.91895 0
M  V30 13620 O 1349.67 -2.81907 -3.01002 0
M  V30 13621 H 1349.01 -0.599578 -0.285311 0
M  V30 13622 H 1351.54 -2.02762 -0.273638 0
M  V30 13623 H 1351.55 -3.34616 -2.33444 0
M  V30 13624 H 1350.22 -3.93574 -1.34433 0
M  V30 13625 H 1348.8 -2.63747 -2.63613 0
M  V30 13626 N 1350.98 0.516783 -1.48886 0
M  V30 13627 C 1352.21 1.30103 -1.61518 0
M  V30 13628 C 1352.63 1.85996 -0.28055 0
M  V30 13629 O 1351.99 1.65075 0.749671 0
M  V30 13630 C 1352.04 2.41837 -2.67483 0
M  V30 13631 O 1351.14 3.45249 -2.25559 0
M  V30 13632 H 1350.48 0.384774 -0.541152 0
M  V30 13633 H 1353.01 0.620424 -1.94966 0
M  V30 13634 H 1353.02 2.87832 -2.89165 0
M  V30 13635 H 1351.7 2.00519 -3.64369 0
M  V30 13636 H 1350.28 3.05281 -2.14144 0
M  V30 13637 N 1352.46 1.37696 0.766659 0
M  V30 13638 C 1353.69 1.3639 1.55581 0
M  V30 13639 C 1354.1 -0.0495272 1.88735 0
M  V30 13640 O 1353.46 -1.01268 1.51826 0
M  V30 13641 C 1353.51 2.20717 2.86298 0
M  V30 13642 O 1353.23 3.56552 2.54563 0
M  V30 13643 C 1354.73 2.27446 3.80504 0
M  V30 13644 H 1351.95 0.466993 0.481828 0
M  V30 13645 H 1354.5 1.81103 0.949834 0
M  V30 13646 H 1352.65 1.79499 3.43306 0
M  V30 13647 H 1353.07 4.00811 3.38306 0
M  V30 13648 H 1354.54 2.90762 4.69214 0
M  V30 13649 H 1355.02 1.28434 4.20002 0
M  V30 13650 H 1355.62 2.68998 3.29424 0
M  V30 13651 N 1353.94 -0.993397 1.22349 0
M  V30 13652 C 1354.85 -2.11771 1.00947 0
M  V30 13653 C 1355.87 -1.73949 -0.0420679 0
M  V30 13654 O 1357.04 -2.00837 0.150548 0
M  V30 13655 C 1354.11 -3.41654 0.589359 0
M  V30 13656 C 1353.17 -3.93579 1.71446 0
M  V30 13657 C 1352.4 -5.17264 1.3143 0
M  V30 13658 O 1352.62 -5.70074 0.192876 0
M  V30 13659 O 1351.56 -5.62929 2.13059 0
M  V30 13660 H 1355.38 -2.32708 1.95142 0
M  V30 13661 H 1352.97 -1.10144 1.00939 0
M  V30 13662 H 1354.85 -4.19813 0.365403 0
M  V30 13663 H 1353.53 -3.22077 -0.323738 0
M  V30 13664 H 1352.43 -3.16596 1.99294 0
M  V30 13665 H 1353.77 -4.17588 2.6054 0
M  V30 13666 N 1355.42 -1.03311 -1.19015 0
M  V30 13667 C 1356.37 -0.611169 -2.24427 0
M  V30 13668 C 1357.36 0.358303 -1.65567 0
M  V30 13669 O 1358.57 0.22642 -1.7857 0
M  V30 13670 H 1354.94 -0.179393 -0.730289 0
M  V30 13671 H 1356.91 -1.51077 -2.57329 0
M  V30 13672 C 1355.66 0.0178126 -3.47695 0
M  V30 13673 H 1354.98 -0.71921 -3.93278 0
M  V30 13674 H 1356.42 0.275926 -4.23101 0
M  V30 13675 C 1354.88 1.26564 -3.12223 0
M  V30 13676 O 1355.41 2.35725 -3.25264 0
M  V30 13677 N 1353.62 1.15602 -2.66617 0
M  V30 13678 H 1353.17 0.267736 -2.56205 0
M  V30 13679 H 1353.12 1.99186 -2.43254 0
M  V30 13680 N 1356.9 1.35099 -0.81154 0
M  V30 13681 C 1357.85 2.27139 -0.197958 0
M  V30 13682 C 1358.83 1.48006 0.631116 0
M  V30 13683 O 1360.02 1.70152 0.487562 0
M  V30 13684 C 1357.15 3.37118 0.648577 0
M  V30 13685 C 1356.24 4.23672 -0.190498 0
M  V30 13686 N 1356.63 4.89959 -1.25594 0
M  V30 13687 C 1354.93 4.45992 0.0270572 0
M  V30 13688 C 1355.63 5.54161 -1.76862 0
M  V30 13689 N 1354.6 5.32879 -1.07428 0
M  V30 13690 H 1358.4 2.75886 -1.01311 0
M  V30 13691 H 1355.92 1.48685 -0.653195 0
M  V30 13692 H 1357.92 4.0201 1.10423 0
M  V30 13693 H 1356.58 2.89922 1.46202 0
M  V30 13694 H 1357.59 4.91293 -1.63864 0
M  V30 13695 H 1354.26 4.09582 0.809248 0
M  V30 13696 H 1355.65 6.17032 -2.65935 0
M  V30 13697 N 1358.37 0.56548 1.47106 0
M  V30 13698 C 1359.62 0.0444375 2.02051 0
M  V30 13699 C 1359.94 -1.31344 1.44131 0
M  V30 13700 O 1359.21 -1.85845 0.619556 0
M  V30 13701 H 1357.79 0.0134375 0.746879 0
M  V30 13702 H 1360.45 0.737362 1.80413 0
M  V30 13703 H 1359.55 -0.0374834 3.12077 0
M  V30 13704 N 1359.85 -1.54672 0.302354 0
M  V30 13705 C 1361.1 -2.00167 -0.306524 0
M  V30 13706 C 1361.43 -1.19073 -1.53791 0
M  V30 13707 O 1360.68 -0.255328 -1.94027 0
M  V30 13708 C 1360.98 -3.5035 -0.70638 0
M  V30 13709 C 1360.65 -4.48907 0.423429 0
M  V30 13710 C 1359.31 -4.75575 0.733586 0
M  V30 13711 C 1361.66 -5.07588 1.18338 0
M  V30 13712 C 1358.99 -5.58186 1.80679 0
M  V30 13713 C 1361.34 -5.91367 2.24651 0
M  V30 13714 C 1360.01 -6.16345 2.56272 0
M  V30 13715 H 1359.28 -0.732462 -0.112165 0
M  V30 13716 H 1361.92 -1.86798 0.421732 0
M  V30 13717 H 1360.23 -3.61335 -1.51474 0
M  V30 13718 H 1361.92 -3.82977 -1.18869 0
M  V30 13719 H 1358.51 -4.28256 0.171591 0
M  V30 13720 H 1362.7 -4.86985 0.957018 0
M  V30 13721 H 1357.95 -5.75776 2.05649 0
M  V30 13722 H 1362.13 -6.35862 2.83994 0
M  V30 13723 H 1359.76 -6.80148 3.39563 0
M  V30 13724 N 1361.33 -0.0301034 -1.57571 0
M  V30 13725 C 1362.26 0.986212 -2.05789 0
M  V30 13726 C 1363.24 1.31682 -0.95387 0
M  V30 13727 O 1364.43 1.43332 -1.22427 0
M  V30 13728 C 1361.55 2.30598 -2.48077 0
M  V30 13729 C 1360.6 2.12991 -3.69509 0
M  V30 13730 S 1361.43 1.42782 -5.16114 0
M  V30 13731 C 1362.59 2.76126 -5.61699 0
M  V30 13732 H 1362.82 0.575769 -2.91671 0
M  V30 13733 H 1360.35 0.181613 -1.53328 0
M  V30 13734 H 1362.31 3.06469 -2.73107 0
M  V30 13735 H 1360.97 2.68775 -1.62539 0
M  V30 13736 H 1360.17 3.1056 -3.96949 0
M  V30 13737 H 1359.77 1.45263 -3.44637 0
M  V30 13738 H 1362.06 3.72361 -5.65998 0
M  V30 13739 H 1363 2.53349 -6.61226 0
M  V30 13740 H 1363.41 2.81418 -4.89351 0
M  V30 13741 N 1362.81 1.55714 0.243056 0
M  V30 13742 C 1363.77 1.89832 1.28438 0
M  V30 13743 C 1364.77 0.775083 1.40887 0
M  V30 13744 O 1365.96 1.04304 1.39521 0
M  V30 13745 C 1363.09 2.13016 2.66153 0
M  V30 13746 H 1364.29 2.82947 0.994022 0
M  V30 13747 H 1361.84 1.48665 0.482521 0
M  V30 13748 H 1362.57 1.22381 3.00322 0
M  V30 13749 H 1362.36 2.94824 2.58498 0
M  V30 13750 H 1363.85 2.40581 3.41336 0
M  V30 13751 N 1364.29 -0.50888 1.49158 0
M  V30 13752 C 1365.23 -1.61129 1.65246 0
M  V30 13753 C 1366.2 -1.58582 0.49405 0
M  V30 13754 O 1367.39 -1.76689 0.720122 0
M  V30 13755 C 1364.53 -2.99311 1.71776 0
M  V30 13756 C 1363.64 -3.11933 2.98868 0
M  V30 13757 C 1362.78 -4.408 2.96426 0
M  V30 13758 C 1361.82 -4.47027 4.18131 0
M  V30 13759 N 1360.95 -5.67311 4.13645 0
M  V30 13760 H 1365.79 -1.4672 2.59379 0
M  V30 13761 H 1363.33 -0.713978 1.28611 0
M  V30 13762 H 1365.29 -3.79392 1.73543 0
M  V30 13763 H 1363.92 -3.12442 0.811159 0
M  V30 13764 H 1362.97 -2.24966 3.06748 0
M  V30 13765 H 1364.28 -3.12393 3.8886 0
M  V30 13766 H 1363.44 -5.29194 2.96712 0
M  V30 13767 H 1362.17 -4.42893 2.04199 0
M  V30 13768 H 1361.18 -3.57036 4.18097 0
M  V30 13769 H 1362.4 -4.46656 5.11542 0
M  V30 13770 H 1360.35 -5.70261 3.2425 0
M  V30 13771 H 1360.27 -5.69355 4.97364 0
M  V30 13772 H 1361.54 -6.57934 4.18022 0
M  V30 13773 N 1365.76 -1.381 -0.759346 0
M  V30 13774 C 1367.01 -1.33992 -1.5183 0
M  V30 13775 C 1367.34 0.0718172 -1.94367 0
M  V30 13776 O 1366.59 1.0477 -1.65293 0
M  V30 13777 C 1366.89 -2.23636 -2.78786 0
M  V30 13778 C 1366.56 -3.71703 -2.5524 0
M  V30 13779 C 1365.22 -4.12053 -2.48528 0
M  V30 13780 C 1367.57 -4.65455 -2.34523 0
M  V30 13781 C 1364.9 -5.44252 -2.19105 0
M  V30 13782 C 1367.25 -5.97905 -2.06622 0
M  V30 13783 C 1365.92 -6.37345 -1.98362 0
M  V30 13784 H 1365.19 -0.490311 -0.555587 0
M  V30 13785 H 1367.83 -1.70411 -0.873637 0
M  V30 13786 H 1366.14 -1.80253 -3.47874 0
M  V30 13787 H 1367.84 -2.17764 -3.36719 0
M  V30 13788 H 1364.43 -3.3971 -2.61333 0
M  V30 13789 H 1368.61 -4.35132 -2.38691 0
M  V30 13790 H 1363.87 -5.73758 -2.11214 0
M  V30 13791 H 1368.04 -6.70095 -1.89594 0
M  V30 13792 H 1365.67 -7.39706 -1.75328 0
M  V30 13793 N 1367.24 0.986894 -1.22875 0
M  V30 13794 C 1368.47 1.768 -1.08427 0
M  V30 13795 C 1368.89 1.84612 0.360555 0
M  V30 13796 O 1368.25 1.30299 1.26063 0
M  V30 13797 C 1368.3 3.17638 -1.70701 0
M  V30 13798 O 1367.4 4.00957 -0.964752 0
M  V30 13799 H 1366.74 0.544199 -0.380451 0
M  V30 13800 H 1369.27 1.23931 -1.62795 0
M  V30 13801 H 1369.28 3.68243 -1.75672 0
M  V30 13802 H 1367.96 3.11267 -2.75837 0
M  V30 13803 H 1366.54 3.59477 -0.991493 0
M  V30 13804 N 1368.72 1.0394 1.18466 0
M  V30 13805 C 1369.68 0.633804 2.20262 0
M  V30 13806 C 1370.68 -0.308136 1.5782 0
M  V30 13807 O 1371.87 -0.0937087 1.73948 0
M  V30 13808 C 1369.01 -0.0709693 3.40826 0
M  V30 13809 H 1370.2 1.53463 2.57661 0
M  V30 13810 H 1367.75 0.831806 1.32328 0
M  V30 13811 H 1368.49 -0.985659 3.08958 0
M  V30 13812 H 1368.27 0.606023 3.87388 0
M  V30 13813 H 1369.76 -0.341298 4.16203 0
M  V30 13814 N 1370.2 -1.34667 0.818693 0
M  V30 13815 C 1371.11 -2.33375 0.239429 0
M  V30 13816 C 1372.12 -1.62428 -0.623957 0
M  V30 13817 O 1373.3 -1.94223 -0.532854 0
M  V30 13818 C 1370.37 -3.41598 -0.59258 0
M  V30 13819 C 1369.43 -4.28301 0.292712 0
M  V30 13820 C 1368.66 -5.31356 -0.499682 0
M  V30 13821 O 1368.88 -5.43426 -1.73334 0
M  V30 13822 O 1367.82 -6.01789 0.115778 0
M  V30 13823 H 1371.64 -2.84738 1.05631 0
M  V30 13824 H 1369.23 -1.37651 0.58074 0
M  V30 13825 H 1371.11 -4.07692 -1.06607 0
M  V30 13826 H 1369.78 -2.92486 -1.38685 0
M  V30 13827 H 1368.69 -3.65145 0.81361 0
M  V30 13828 H 1370.02 -4.80843 1.05123 0
M  V30 13829 N 1371.68 -0.573274 -1.46804 0
M  V30 13830 C 1372.95 0.011163 -1.95597 0
M  V30 13831 C 1373.33 1.4691 -1.51594 0
M  V30 13832 O 1372.68 2.15413 -0.76221 0
M  V30 13833 C 1372.89 -0.151045 -3.48673 0
M  V30 13834 C 1374.24 -0.0139817 -4.24598 0
M  V30 13835 O 1375.26 -0.0794008 -3.56111 0
M  V30 13836 O 1374.12 0.129547 -5.46346 0
M  V30 13837 H 1371.22 0.0551258 -0.825161 0
M  V30 13838 H 1373.76 -0.640928 -1.57131 0
M  V30 13839 H 1372.53 -1.16494 -3.73557 0
M  V30 13840 H 1372.16 0.537917 -3.93944 0
M  V30 13841 N 1373.15 1.5451 -0.310553 0
M  V30 13842 C 1374.08 2.26827 0.554243 0
M  V30 13843 C 1375.07 1.27133 1.13009 0
M  V30 13844 O 1376.25 1.55923 1.15765 0
M  V30 13845 C 1373.38 3.01626 1.7216 0
M  V30 13846 C 1372.33 4.08547 1.27566 0
M  V30 13847 C 1371.66 4.71115 2.52893 0
M  V30 13848 C 1372.96 5.20766 0.399955 0
M  V30 13849 H 1374.65 2.9936 -0.0489475 0
M  V30 13850 H 1372.2 1.43978 -0.0249817 0
M  V30 13851 H 1374.15 3.50942 2.33276 0
M  V30 13852 H 1372.88 2.26688 2.35118 0
M  V30 13853 H 1371.54 3.60096 0.687499 0
M  V30 13854 H 1371.18 3.92805 3.14186 0
M  V30 13855 H 1370.88 5.43331 2.23752 0
M  V30 13856 H 1372.41 5.23198 3.14796 0
M  V30 13857 H 1373.82 5.65918 0.917054 0
M  V30 13858 H 1372.22 5.9976 0.2019 0
M  V30 13859 H 1373.29 4.81508 -0.572537 0
M  V30 13860 N 1374.63 0.0384594 1.57553 0
M  V30 13861 C 1375.6 -0.925358 2.0969 0
M  V30 13862 C 1376.6 -1.24811 1.01385 0
M  V30 13863 O 1377.79 -1.1869 1.27508 0
M  V30 13864 C 1374.92 -2.2391 2.57055 0
M  V30 13865 H 1376.11 -0.473633 2.96136 0
M  V30 13866 H 1373.66 -0.209736 1.54886 0
M  V30 13867 H 1374.4 -2.73691 1.73964 0
M  V30 13868 H 1374.18 -2.01793 3.36188 0
M  V30 13869 H 1375.67 -2.92974 2.97583 0
M  V30 13870 N 1376.11 -1.55841 -0.234795 0
M  V30 13871 C 1377.35 -1.80007 -0.968334 0
M  V30 13872 C 1377.72 -0.609903 -1.82055 0
M  V30 13873 O 1378.92 -0.730586 -2.58681 0
M  V30 13874 C 1377.19 -3.08991 -1.79609 0
M  V30 13875 S 1378.75 -3.54423 -2.58707 0
M  V30 13876 H 1375.56 -0.632112 -0.325508 0
M  V30 13877 H 1378.17 -1.94081 -0.235082 0
M  V30 13878 H 1376.87 -3.93667 -1.15993 0
M  V30 13879 H 1376.4 -2.97688 -2.57188 0
M  V30 13880 H 1378.42 -3.16713 -3.81978 0
M  V30 13881 N 1377.59 0.500963 -1.49426 0
M  V30 13882 C 1378.84 1.25261 -1.58601 0
M  V30 13883 C 1379.16 1.93056 -0.274647 0
M  V30 13884 O 1378.43 1.82736 0.706003 0
M  V30 13885 H 1377.01 0.465328 -0.584362 0
M  V30 13886 H 1379.67 0.580588 -1.86052 0
M  V30 13887 H 1378.77 2.01652 -2.38208 0
M  V30 13888 N 1379.07 1.38501 0.752011 0
M  V30 13889 C 1379.98 1.38094 1.8965 0
M  V30 13890 C 1380.99 0.277851 1.71767 0
M  V30 13891 O 1382.17 0.516536 1.94663 0
M  V30 13892 C 1379.23 1.2063 3.25037 0
M  V30 13893 C 1378.3 2.40758 3.55435 0
M  V30 13894 C 1377.53 2.24118 4.84362 0
M  V30 13895 O 1377.75 1.23571 5.56854 0
M  V30 13896 O 1376.69 3.12741 5.14273 0
M  V30 13897 H 1380.51 2.34532 1.92947 0
M  V30 13898 H 1378.1 1.19437 0.897504 0
M  V30 13899 H 1379.98 1.12957 4.05979 0
M  V30 13900 H 1378.65 0.272785 3.22549 0
M  V30 13901 H 1377.56 2.54006 2.74648 0
M  V30 13902 H 1378.89 3.32745 3.62686 0
M  V30 13903 N 1380.55 -0.980364 1.23396 0
M  V30 13904 C 1381.79 -1.71592 1.06015 0
M  V30 13905 C 1382.11 -1.91401 -0.403103 0
M  V30 13906 O 1383.31 -2.62405 -0.696853 0
M  V30 13907 C 1381.77 -3.08795 1.84861 0
M  V30 13908 C 1381.38 -2.96873 3.35515 0
M  V30 13909 C 1383.12 -3.8631 1.75968 0
M  V30 13910 C 1381.03 -4.29308 4.06753 0
M  V30 13911 H 1379.96 -0.643423 0.393095 0
M  V30 13912 H 1382.61 -1.09345 1.47363 0
M  V30 13913 H 1380.99 -3.71797 1.36318 0
M  V30 13914 H 1382.17 -2.4296 3.91544 0
M  V30 13915 H 1380.48 -2.32833 3.45221 0
M  V30 13916 H 1383.08 -4.84355 2.26504 0
M  V30 13917 H 1383.42 -4.09983 0.722464 0
M  V30 13918 H 1383.95 -3.3001 2.22122 0
M  V30 13919 H 1380.69 -4.10831 5.10782 0
M  V30 13920 H 1380.21 -4.83086 3.55511 0
M  V30 13921 H 1381.89 -4.97995 4.1305 0
M  V30 13922 N 1382.02 -1.04567 -1.17913 0
M  V30 13923 C 1382.95 -0.662066 -2.23917 0
M  V30 13924 C 1383.93 0.33713 -1.66726 0
M  V30 13925 O 1385.12 0.216116 -1.92994 0
M  V30 13926 C 1382.25 -0.029463 -3.47288 0
M  V30 13927 C 1381.2 -0.95274 -4.17261 0
M  V30 13928 C 1380.53 -0.184347 -5.34382 0
M  V30 13929 C 1381.83 -2.2741 -4.70194 0
M  V30 13930 H 1383.52 -1.54826 -2.5626 0
M  V30 13931 H 1381.07 -0.745886 -1.23177 0
M  V30 13932 H 1383.02 0.250654 -4.20654 0
M  V30 13933 H 1381.75 0.891638 -3.14193 0
M  V30 13934 H 1380.41 -1.21732 -3.45799 0
M  V30 13935 H 1380.05 0.73932 -4.97537 0
M  V30 13936 H 1379.75 -0.79949 -5.82136 0
M  V30 13937 H 1381.28 0.0886344 -6.10536 0
M  V30 13938 H 1382.69 -2.05433 -5.35229 0
M  V30 13939 H 1381.09 -2.84265 -5.28501 0
M  V30 13940 H 1382.16 -2.91708 -3.87342 0
M  V30 13941 N 1383.5 1.34231 -0.825823 0
M  V30 13942 C 1384.73 2.02417 -0.428348 0
M  V30 13943 C 1385.14 1.62181 0.966573 0
M  V30 13944 O 1384.5 0.828691 1.62601 0
M  V30 13945 C 1384.55 3.57678 -0.524271 0
M  V30 13946 O 1384.27 3.96458 -1.86422 0
M  V30 13947 C 1385.77 4.43132 -0.122069 0
M  V30 13948 H 1382.99 0.648699 -0.171554 0
M  V30 13949 H 1385.54 1.71443 -1.11478 0
M  V30 13950 H 1383.69 3.87232 0.114112 0
M  V30 13951 H 1384.11 4.91147 -1.84051 0
M  V30 13952 H 1385.58 5.51477 -0.240264 0
M  V30 13953 H 1386.06 4.29139 0.934705 0
M  V30 13954 H 1386.66 4.18912 -0.734366 0
M  V30 13955 N 1384.98 0.581051 1.46498 0
M  V30 13956 C 1385.89 -0.155669 2.34083 0
M  V30 13957 C 1386.91 -0.887728 1.49651 0
M  V30 13958 O 1388.08 -0.851284 1.82524 0
M  V30 13959 C 1385.15 -1.15752 3.26806 0
M  V30 13960 C 1384.21 -0.43031 4.27138 0
M  V30 13961 C 1383.44 -1.38443 5.15431 0
M  V30 13962 O 1383.66 -2.62084 5.06624 0
M  V30 13963 O 1382.6 -0.89592 5.95195 0
M  V30 13964 H 1386.42 0.56341 2.98428 0
M  V30 13965 H 1384.01 0.341466 1.45445 0
M  V30 13966 H 1385.89 -1.73523 3.84015 0
M  V30 13967 H 1384.57 -1.85809 2.65059 0
M  V30 13968 H 1383.47 0.1892 3.73621 0
M  V30 13969 H 1384.81 0.229263 4.91666 0
M  V30 13970 N 1386.46 -1.54343 0.318742 0
M  V30 13971 C 1387.68 -2.05361 -0.290126 0
M  V30 13972 C 1388.11 -1.19362 -1.45376 0
M  V30 13973 O 1387.47 -0.201639 -1.80175 0
M  V30 13974 C 1387.51 -3.53601 -0.707025 0
M  V30 13975 O 1386.62 -3.70561 -1.80992 0
M  V30 13976 H 1385.96 -0.661858 -0.0532933 0
M  V30 13977 H 1388.49 -1.99228 0.46575 0
M  V30 13978 H 1388.5 -3.95782 -0.991005 0
M  V30 13979 H 1387.17 -4.1565 0.144091 0
M  V30 13980 H 1385.75 -3.40286 -1.52513 0
M  V30 13981 N 1387.94 -0.0468143 -1.5753 0
M  V30 13982 C 1389.16 0.637648 -1.96829 0
M  V30 13983 C 1389.58 1.64635 -0.924158 0
M  V30 13984 O 1388.94 1.82267 0.0921139 0
M  V30 13985 C 1388.99 1.32842 -3.36207 0
M  V30 13986 O 1388.71 0.360111 -4.36617 0
M  V30 13987 C 1390.21 2.10305 -3.90239 0
M  V30 13988 H 1387.43 0.174634 -0.647876 0
M  V30 13989 H 1389.97 -0.111824 -2.04194 0
M  V30 13990 H 1388.13 2.02915 -3.30006 0
M  V30 13991 H 1388.54 0.852661 -5.17523 0
M  V30 13992 H 1390.02 2.54065 -4.90056 0
M  V30 13993 H 1390.49 2.94942 -3.25432 0
M  V30 13994 H 1391.1 1.45152 -3.99764 0
M  V30 13995 N 1389.41 1.55964 0.226527 0
M  V30 13996 C 1390.66 1.78392 0.94977 0
M  V30 13997 C 1390.98 0.614444 1.85066 0
M  V30 13998 O 1390.25 -0.368894 1.92395 0
M  V30 13999 H 1388.83 0.657962 0.353688 0
M  V30 14000 H 1391.5 1.93422 0.239577 0
M  V30 14001 H 1390.59 2.70343 1.55952 0
M  V30 14002 N 1390.89 -0.493031 1.4969 0
M  V30 14003 C 1392.12 -1.27046 1.633 0
M  V30 14004 C 1392.54 -1.86278 0.307534 0
M  V30 14005 O 1391.89 -1.68208 -0.707968 0
M  V30 14006 C 1391.94 -2.39501 2.70779 0
M  V30 14007 O 1391.66 -1.82702 3.98185 0
M  V30 14008 C 1393.17 -3.30744 2.95166 0
M  V30 14009 H 1390.39 -0.385042 0.54953 0
M  V30 14010 H 1392.93 -0.590998 1.95774 0
M  V30 14011 H 1391.08 -3.03263 2.41061 0
M  V30 14012 H 1391.5 -2.56588 4.57452 0
M  V30 14013 H 1392.97 -4.05912 3.74085 0
M  V30 14014 H 1393.45 -3.88217 2.05387 0
M  V30 14015 H 1394.06 -2.72741 3.26332 0
M  V30 14016 N 1392.37 -1.38898 -0.744656 0
M  V30 14017 C 1393.62 -1.34909 -1.49941 0
M  V30 14018 C 1393.93 0.0553979 -1.95522 0
M  V30 14019 O 1395.14 0.21785 -2.70625 0
M  V30 14020 C 1393.59 -2.36954 -2.70889 0
M  V30 14021 C 1393.2 -3.83069 -2.32298 0
M  V30 14022 C 1394.95 -2.42024 -3.48747 0
M  V30 14023 C 1392.85 -4.76777 -3.4991 0
M  V30 14024 H 1391.78 -0.501512 -0.563029 0
M  V30 14025 H 1394.43 -1.64497 -0.813201 0
M  V30 14026 H 1392.82 -2.00421 -3.41537 0
M  V30 14027 H 1393.99 -4.28588 -1.69259 0
M  V30 14028 H 1392.31 -3.81202 -1.67554 0
M  V30 14029 H 1394.9 -3.0923 -4.36212 0
M  V30 14030 H 1395.25 -1.44184 -3.90534 0
M  V30 14031 H 1395.78 -2.774 -2.85121 0
M  V30 14032 H 1392.52 -5.75844 -3.13183 0
M  V30 14033 H 1392.04 -4.35944 -4.11962 0
M  V30 14034 H 1393.72 -4.95219 -4.16374 0
M  V30 14035 N 1393.85 0.973806 -1.23914 0
M  V30 14036 C 1394.78 2.07003 -0.983982 0
M  V30 14037 C 1395.79 1.62739 0.0443893 0
M  V30 14038 O 1396.98 1.77465 -0.191927 0
M  V30 14039 C 1394.08 3.35737 -0.461937 0
M  V30 14040 C 1393.26 4.08939 -1.55202 0
M  V30 14041 C 1392.31 5.15947 -1.03369 0
M  V30 14042 O 1391.34 5.42461 -1.72409 0
M  V30 14043 N 1392.54 5.80343 0.135067 0
M  V30 14044 H 1395.31 2.29468 -1.92781 0
M  V30 14045 H 1392.87 1.14098 -1.14861 0
M  V30 14046 H 1394.86 4.04576 -0.100074 0
M  V30 14047 H 1393.43 3.10189 0.387467 0
M  V30 14048 H 1392.65 3.34462 -2.08635 0
M  V30 14049 H 1393.94 4.5461 -2.2849 0
M  V30 14050 H 1393.34 5.61196 0.71241 0
M  V30 14051 H 1391.89 6.50326 0.438132 0
M  V30 14052 N 1395.33 1.05191 1.17357 0
M  V30 14053 C 1396.55 0.782343 1.92079 0
M  V30 14054 C 1396.98 -0.655957 1.76292 0
M  V30 14055 O 1396.33 -1.45573 1.08065 0
M  V30 14056 C 1396.38 1.16777 3.41168 0
M  V30 14057 O 1395.49 0.299908 4.11308 0
M  V30 14058 H 1394.83 0.286894 0.598822 0
M  V30 14059 H 1397.36 1.40476 1.48754 0
M  V30 14060 H 1397.37 1.13454 3.91909 0
M  V30 14061 H 1396.04 2.2155 3.51978 0
M  V30 14062 H 1394.62 0.393744 3.70815 0
M  V30 14063 N 1396.8 -1.33791 0.83293 0
M  V30 14064 C 1398.22 -1.80336 0.483294 0
M  V30 14065 C 1398.57 -1.68969 -0.997195 0
M  V30 14066 O 1397.69 -1.23549 -1.77664 0
M  V30 14067 C 1398.29 -3.27427 0.870475 0
M  V30 14068 C 1396.85 -3.72012 0.573064 0
M  V30 14069 C 1395.99 -2.55319 1.08201 0
M  V30 14070 H 1398.94 -1.21396 1.02218 0
M  V30 14071 H 1398.96 -3.80083 0.178173 0
M  V30 14072 H 1398.48 -3.35668 1.94804 0
M  V30 14073 H 1396.58 -3.69302 -0.494678 0
M  V30 14074 H 1396.69 -4.65725 1.12414 0
M  V30 14075 H 1395.05 -2.49681 0.503123 0
M  V30 14076 H 1395.84 -2.66326 2.16623 0
M  V30 14077 N 1398.28 -0.588812 -1.46187 0
M  V30 14078 C 1399.53 -0.0765765 -2.01955 0
M  V30 14079 C 1399.85 1.29034 -1.46203 0
M  V30 14080 O 1399.12 1.84836 -0.649044 0
M  V30 14081 H 1397.7 -0.025318 -0.746571 0
M  V30 14082 H 1400.36 -0.765971 -1.79217 0
M  V30 14083 H 1399.46 -0.0121702 -3.12098 0
M  V30 14084 N 1399.76 1.54172 -0.326923 0
M  V30 14085 C 1400.71 2.21189 0.553126 0
M  V30 14086 C 1401.69 1.19356 1.07903 0
M  V30 14087 O 1402.89 1.44972 1.01549 0
M  V30 14088 C 1400.02 2.97573 1.71188 0
M  V30 14089 C 1399.1 4.06748 1.20071 0
M  V30 14090 N 1399.49 5.0414 0.409473 0
M  V30 14091 C 1397.79 4.20759 1.47913 0
M  V30 14092 C 1398.49 5.81546 0.134036 0
M  V30 14093 N 1397.47 5.38796 0.721097 0
M  V30 14094 H 1401.27 2.93841 -0.0586462 0
M  V30 14095 H 1398.78 1.61855 -0.132947 0
M  V30 14096 H 1400.78 3.44072 2.35415 0
M  V30 14097 H 1399.44 2.26443 2.32709 0
M  V30 14098 H 1400.45 5.17874 0.0520181 0
M  V30 14099 H 1397.13 3.60844 2.09995 0
M  V30 14100 H 1398.52 6.70013 -0.503156 0
M  V30 14101 N 1401.24 0.0551678 1.57503 0
M  V30 14102 C 1402.65 -0.479948 1.80426 0
M  V30 14103 C 1403 -1.70673 0.967733 0
M  V30 14104 O 1402.13 -2.15604 0.185462 0
M  V30 14105 C 1402.72 -0.877496 3.27239 0
M  V30 14106 C 1401.28 -1.35757 3.51066 0
M  V30 14107 C 1400.43 -0.334681 2.75273 0
M  V30 14108 H 1403.38 0.281016 1.56192 0
M  V30 14109 H 1403.4 -1.74013 3.38378 0
M  V30 14110 H 1402.91 0.015571 3.88097 0
M  V30 14111 H 1401.01 -2.26969 2.95492 0
M  V30 14112 H 1401.12 -1.34697 4.59776 0
M  V30 14113 H 1399.49 -0.808421 2.4153 0
M  V30 14114 H 1400.27 0.550369 3.3886 0
M  V30 14115 N 1402.72 -1.56081 -0.218252 0
M  V30 14116 C 1403.66 -1.93544 -1.2901 0
M  V30 14117 C 1404.66 -0.817886 -1.48348 0
M  V30 14118 O 1405.86 -1.00274 -1.49483 0
M  V30 14119 H 1402.24 -0.61511 -0.432601 0
M  V30 14120 H 1404.21 -2.82975 -0.946966 0
M  V30 14121 C 1402.96 -2.27134 -2.63259 0
M  V30 14122 H 1402.28 -3.12643 -2.49188 0
M  V30 14123 H 1403.72 -2.57228 -3.3706 0
M  V30 14124 C 1402.18 -1.09764 -3.18518 0
M  V30 14125 O 1402.71 -0.360501 -4.00079 0
M  V30 14126 N 1400.92 -0.880589 -2.76937 0
M  V30 14127 H 1400.46 -1.48175 -2.10718 0
M  V30 14128 H 1400.42 -0.0970234 -3.1425 0
M  V30 14129 N 1404.2 0.485086 -1.49949 0
M  V30 14130 C 1405.44 1.23999 -1.60474 0
M  V30 14131 C 1405.77 1.91904 -0.297736 0
M  V30 14132 O 1405.05 1.81472 0.699857 0
M  V30 14133 C 1405.33 2.2946 -2.77525 0
M  V30 14134 C 1405.19 1.65952 -4.18067 0
M  V30 14135 C 1406.5 3.30893 -2.90169 0
M  V30 14136 H 1403.62 0.449462 -0.584083 0
M  V30 14137 H 1406.27 0.535795 -1.82289 0
M  V30 14138 H 1404.42 2.89521 -2.59056 0
M  V30 14139 H 1406.09 1.09596 -4.48092 0
M  V30 14140 H 1404.33 0.963079 -4.22974 0
M  V30 14141 H 1405 2.42521 -4.9587 0
M  V30 14142 H 1407.48 2.8084 -3.07031 0
M  V30 14143 H 1406.35 4.02027 -3.73718 0
M  V30 14144 H 1406.61 3.94178 -2.0019 0
M  V30 14145 N 1405.67 1.39291 0.737279 0
M  V30 14146 C 1406.9 1.39457 1.52431 0
M  V30 14147 C 1407.31 -0.0132866 1.89195 0
M  V30 14148 O 1406.65 -0.99443 1.54456 0
M  V30 14149 C 1406.72 2.20125 2.84227 0
M  V30 14150 C 1406.38 3.68778 2.6991 0
M  V30 14151 C 1407.38 4.6191 2.38611 0
M  V30 14152 C 1405.06 4.12336 2.86853 0
M  V30 14153 C 1407.06 5.96581 2.24432 0
M  V30 14154 C 1404.74 5.47083 2.72292 0
M  V30 14155 C 1405.74 6.3902 2.41127 0
M  V30 14156 O 1405.43 7.71287 2.26654 0
M  V30 14157 H 1405.16 0.478281 0.477727 0
M  V30 14158 H 1407.72 1.837 0.918891 0
M  V30 14159 H 1405.95 1.70627 3.47021 0
M  V30 14160 H 1407.63 2.12497 3.45832 0
M  V30 14161 H 1408.4 4.29559 2.25175 0
M  V30 14162 H 1404.28 3.41111 3.10103 0
M  V30 14163 H 1407.82 6.68307 2.00028 0
M  V30 14164 H 1403.72 5.79026 2.85306 0
M  V30 14165 H 1404.49 7.81987 2.41742 0
M  V30 14166 N 1407.15 -0.967221 1.24429 0
M  V30 14167 C 1408.56 -1.52488 1.07723 0
M  V30 14168 C 1408.91 -1.93031 -0.351191 0
M  V30 14169 O 1408.04 -1.77376 -1.23963 0
M  V30 14170 C 1408.63 -2.77107 1.94929 0
M  V30 14171 C 1407.19 -3.29227 1.82446 0
M  V30 14172 C 1406.34 -2.02133 1.89835 0
M  V30 14173 H 1409.29 -0.785465 1.37899 0
M  V30 14174 H 1409.31 -3.50459 1.48186 0
M  V30 14175 H 1408.82 -2.47567 2.98885 0
M  V30 14176 H 1406.92 -3.63617 0.813246 0
M  V30 14177 H 1407.04 -3.98095 2.66566 0
M  V30 14178 H 1405.4 -2.16867 1.3357 0
M  V30 14179 H 1406.18 -1.74958 2.95372 0
M  V30 14180 N 1408.63 -1.05812 -1.16797 0
M  V30 14181 C 1409.58 -0.634669 -2.18988 0
M  V30 14182 C 1410.56 0.332122 -1.57435 0
M  V30 14183 O 1411.76 0.148346 -1.76377 0
M  V30 14184 C 1408.88 -0.0174742 -3.43296 0
M  V30 14185 C 1407.97 -1.00847 -4.11935 0
M  V30 14186 N 1408.36 -2.18223 -4.56303 0
M  V30 14187 C 1406.66 -0.838325 -4.3805 0
M  V30 14188 C 1407.36 -2.80967 -5.09345 0
M  V30 14189 N 1406.34 -2.08725 -5.01931 0
M  V30 14190 H 1410.14 -1.52888 -2.51003 0
M  V30 14191 H 1407.65 -0.929125 -1.33195 0
M  V30 14192 H 1409.65 0.303692 -4.15792 0
M  V30 14193 H 1408.31 0.872052 -3.1277 0
M  V30 14194 H 1409.32 -2.56025 -4.5019 0
M  V30 14195 H 1406 -0.000376066 -4.175 0
M  V30 14196 H 1407.39 -3.80541 -5.53749 0
M  V30 14197 N 1410.11 1.33347 -0.840014 0
M  V30 14198 C 1411.36 1.97354 -0.435412 0
M  V30 14199 C 1411.68 1.66866 1.009 0
M  V30 14200 O 1410.95 0.968186 1.70303 0
M  V30 14201 H 1409.53 0.730096 -0.158017 0
M  V30 14202 H 1412.19 1.6269 -1.07322 0
M  V30 14203 H 1411.28 3.0688 -0.56841 0
M  V30 14204 N 1411.59 0.596556 1.45873 0
M  V30 14205 C 1412.83 0.0850976 2.0152 0
M  V30 14206 C 1413.15 -1.28799 1.47208 0
M  V30 14207 O 1414.35 -1.89156 1.94762 0
M  V30 14208 C 1412.81 0.101488 3.59757 0
M  V30 14209 C 1412.42 1.47374 4.23066 0
M  V30 14210 C 1414.16 -0.355303 4.2301 0
M  V30 14211 C 1412.07 1.44711 5.73422 0
M  V30 14212 H 1411 0.0280444 0.753478 0
M  V30 14213 H 1413.65 0.750255 1.67462 0
M  V30 14214 H 1412.03 -0.630108 3.90955 0
M  V30 14215 H 1413.21 2.22617 4.03458 0
M  V30 14216 H 1411.52 1.87171 3.71962 0
M  V30 14217 H 1414.12 -0.394236 5.33245 0
M  V30 14218 H 1414.46 -1.37573 3.92911 0
M  V30 14219 H 1414.99 0.32267 3.96489 0
M  V30 14220 H 1411.73 2.44479 6.08203 0
M  V30 14221 H 1411.25 0.737102 5.95254 0
M  V30 14222 H 1412.93 1.16598 6.36407 0
M  V30 14223 N 1413.06 -1.53996 0.335095 0
M  V30 14224 C 1414.01 -2.26221 -0.541007 0
M  V30 14225 C 1415.01 -1.28053 -1.109 0
M  V30 14226 O 1416.21 -1.4579 -1.05571 0
M  V30 14227 H 1412.59 -0.726775 -0.193136 0
M  V30 14228 H 1414.56 -2.98263 0.0902792 0
M  V30 14229 C 1413.31 -3.04173 -1.68445 0
M  V30 14230 H 1412.63 -3.79537 -1.25665 0
M  V30 14231 H 1414.07 -3.57937 -2.27282 0
M  V30 14232 C 1412.53 -2.13162 -2.6089 0
M  V30 14233 O 1413.06 -1.7221 -3.62914 0
M  V30 14234 N 1411.26 -1.78414 -2.29384 0
M  V30 14235 H 1410.81 -2.11914 -1.46458 0
M  V30 14236 H 1410.77 -1.178 -2.91497 0
M  V30 14237 N 1414.54 -0.0635198 -1.57472 0
M  V30 14238 C 1415.78 0.611234 -1.95047 0
M  V30 14239 C 1416.15 1.67274 -0.94251 0
M  V30 14240 O 1417.35 2.40246 -1.20563 0
M  V30 14241 C 1415.62 1.18071 -3.37334 0
M  V30 14242 S 1417.18 1.87174 -3.96877 0
M  V30 14243 H 1413.99 0.20037 -0.682182 0
M  V30 14244 H 1416.6 -0.135403 -1.95031 0
M  V30 14245 H 1415.3 0.396176 -4.08483 0
M  V30 14246 H 1414.83 1.96388 -3.40874 0
M  V30 14247 H 1416.85 3.15346 -3.83107 0
M  V30 14248 N 1416.02 1.56195 0.209972 0
M  V30 14249 C 1417.25 1.8384 0.949228 0
M  V30 14250 C 1417.66 0.644141 1.77472 0
M  V30 14251 O 1417.02 -0.387276 1.78344 0
M  V30 14252 C 1417.07 3.10131 1.85745 0
M  V30 14253 O 1416.79 4.2495 1.06531 0
M  V30 14254 C 1418.29 3.50847 2.70963 0
M  V30 14255 H 1415.51 0.610856 0.277662 0
M  V30 14256 H 1418.06 2.03295 0.221708 0
M  V30 14257 H 1416.21 2.92618 2.53877 0
M  V30 14258 H 1416.63 4.96769 1.68287 0
M  V30 14259 H 1418.1 4.4222 3.30372 0
M  V30 14260 H 1418.58 2.73139 3.43936 0
M  V30 14261 H 1419.18 3.7084 2.08226 0
M  V30 14262 N 1417.5 -0.477127 1.50204 0
M  V30 14263 C 1418.74 -1.22864 1.62099 0
M  V30 14264 C 1419.1 -1.89811 0.314549 0
M  V30 14265 O 1418.39 -1.78856 -0.687092 0
M  V30 14266 C 1418.59 -2.30126 2.73453 0
M  V30 14267 C 1418.41 -1.73701 4.14799 0
M  V30 14268 C 1417.18 -1.5394 4.8128 0
M  V30 14269 C 1419.38 -1.23535 4.99243 0
M  V30 14270 N 1417.36 -0.926941 6.06862 0
M  V30 14271 C 1418.74 -0.745736 6.15499 0
M  V30 14272 C 1420.79 -1.12333 4.85063 0
M  V30 14273 C 1419.49 -0.155155 7.19133 0
M  V30 14274 C 1421.52 -0.546689 5.88868 0
M  V30 14275 C 1420.88 -0.0674239 7.04368 0
M  V30 14276 H 1416.98 -0.438688 0.647361 0
M  V30 14277 H 1419.56 -0.531647 1.87301 0
M  V30 14278 H 1417.74 -2.97259 2.49984 0
M  V30 14279 H 1419.47 -2.97154 2.74739 0
M  V30 14280 H 1416.22 -1.78993 4.38473 0
M  V30 14281 H 1416.65 -0.639298 6.73975 0
M  V30 14282 H 1421.29 -1.4798 3.96058 0
M  V30 14283 H 1419.01 0.21354 8.07818 0
M  V30 14284 H 1422.59 -0.462461 5.79959 0
M  V30 14285 H 1421.47 0.371791 7.83318 0
M  V30 14286 N 1418.98 -1.3968 -0.729882 0
M  V30 14287 C 1419.93 -1.35296 -1.83518 0
M  V30 14288 C 1420.91 -0.232935 -1.59205 0
M  V30 14289 O 1422.1 -0.470887 -1.70621 0
M  V30 14290 C 1419.23 -1.20383 -3.21501 0
M  V30 14291 C 1418.32 -2.37108 -3.51626 0
M  V30 14292 N 1418.71 -3.62585 -3.52655 0
M  V30 14293 C 1417.01 -2.30177 -3.82014 0
M  V30 14294 C 1417.71 -4.39803 -3.8072 0
M  V30 14295 N 1416.68 -3.69456 -3.98752 0
M  V30 14296 H 1420.49 -2.30271 -1.82627 0
M  V30 14297 H 1418 -1.33249 -0.92836 0
M  V30 14298 H 1420 -1.15325 -4.00632 0
M  V30 14299 H 1418.66 -0.263628 -3.23628 0
M  V30 14300 H 1419.67 -3.9594 -3.33845 0
M  V30 14301 H 1416.34 -1.44446 -3.91716 0
M  V30 14302 H 1417.73 -5.4859 -3.87941 0
M  V30 14303 N 1420.45 0.960609 -1.2494 0
M  V30 14304 C 1421.7 1.69884 -1.08731 0
M  V30 14305 C 1422.02 1.92018 0.372602 0
M  V30 14306 O 1423.22 2.6348 0.655018 0
M  V30 14307 C 1421.68 3.05815 -1.8975 0
M  V30 14308 C 1421.29 2.91498 -3.40196 0
M  V30 14309 C 1423.03 3.83462 -1.82092 0
M  V30 14310 C 1420.94 4.22783 -4.13532 0
M  V30 14311 H 1419.87 0.637087 -0.403281 0
M  V30 14312 H 1422.52 1.06987 -1.49084 0
M  V30 14313 H 1420.9 3.69582 -1.42216 0
M  V30 14314 H 1422.07 2.367 -3.9536 0
M  V30 14315 H 1420.39 2.27312 -3.48882 0
M  V30 14316 H 1422.99 4.8069 -2.34181 0
M  V30 14317 H 1423.33 4.08782 -0.787597 0
M  V30 14318 H 1423.86 3.26435 -2.27344 0
M  V30 14319 H 1420.6 4.02653 -5.17253 0
M  V30 14320 H 1420.12 4.77369 -3.63152 0
M  V30 14321 H 1421.8 4.91361 -4.2092 0
M  V30 14322 N 1421.93 1.0643 1.16234 0
M  V30 14323 C 1422.86 0.697605 2.22836 0
M  V30 14324 C 1423.84 -0.310563 1.67241 0
M  V30 14325 O 1425.03 -0.185385 1.93313 0
M  V30 14326 C 1422.16 0.0847097 3.47197 0
M  V30 14327 C 1421.11 1.019 4.15693 0
M  V30 14328 C 1420.44 0.269339 5.34021 0
M  V30 14329 C 1421.74 2.34861 4.66516 0
M  V30 14330 H 1423.43 1.58883 2.53765 0
M  V30 14331 H 1420.98 0.765388 1.21975 0
M  V30 14332 H 1422.93 -0.1837 4.20999 0
M  V30 14333 H 1421.66 -0.84154 3.15572 0
M  V30 14334 H 1420.31 1.27218 3.43818 0
M  V30 14335 H 1419.96 -0.660072 4.9865 0
M  V30 14336 H 1419.66 0.892001 5.8079 0
M  V30 14337 H 1421.19 0.00850775 6.10599 0
M  V30 14338 H 1422.6 2.13922 5.31893 0
M  V30 14339 H 1421 2.92637 5.23912 0
M  V30 14340 H 1422.07 2.97834 3.82653 0
M  V30 14341 N 1423.41 -1.329 0.847073 0
M  V30 14342 C 1424.66 -1.97803 0.447417 0
M  V30 14343 C 1424.99 -1.6691 -0.9927 0
M  V30 14344 O 1424.26 -0.953315 -1.69535 0
M  V30 14345 C 1424.55 -3.53657 0.678135 0
M  V30 14346 C 1424.4 -3.94207 2.16612 0
M  V30 14347 C 1425.72 -4.39909 0.129589 0
M  V30 14348 H 1422.84 -0.718514 0.164034 0
M  V30 14349 H 1425.48 -1.57407 1.0641 0
M  V30 14350 H 1423.63 -3.88198 0.153222 0
M  V30 14351 H 1425.3 -3.69883 2.75653 0
M  V30 14352 H 1423.55 -3.43641 2.64752 0
M  V30 14353 H 1424.22 -5.02791 2.27827 0
M  V30 14354 H 1426.69 -4.12061 0.578371 0
M  V30 14355 H 1425.57 -5.47963 0.320648 0
M  V30 14356 H 1425.83 -4.31391 -0.967167 0
M  V30 14357 N 1424.89 -0.604284 -1.45555 0
M  V30 14358 C 1425.82 0.154579 -2.28678 0
M  V30 14359 C 1426.83 0.83491 -1.39761 0
M  V30 14360 O 1428.02 0.700852 -1.64166 0
M  V30 14361 C 1425.12 1.2397 -3.15412 0
M  V30 14362 C 1424.3 0.647128 -4.32586 0
M  V30 14363 C 1423.35 1.62272 -5.00554 0
M  V30 14364 O 1422.38 1.15031 -5.57455 0
M  V30 14365 N 1423.58 2.9571 -4.99536 0
M  V30 14366 H 1426.35 -0.558668 -2.94447 0
M  V30 14367 H 1423.91 -0.443538 -1.55706 0
M  V30 14368 H 1425.9 1.89209 -3.57746 0
M  V30 14369 H 1424.47 1.85552 -2.51574 0
M  V30 14370 H 1423.69 -0.183261 -3.93774 0
M  V30 14371 H 1424.98 0.231394 -5.08274 0
M  V30 14372 H 1424.38 3.36695 -4.54591 0
M  V30 14373 H 1422.93 3.56381 -5.45744 0
M  V30 14374 N 1426.37 1.53816 -0.343257 0
M  V30 14375 C 1427.78 1.86169 0.140709 0
M  V30 14376 C 1428.13 1.26449 1.50017 0
M  V30 14377 O 1427.25 0.577955 2.08539 0
M  V30 14378 C 1427.85 3.37785 0.262097 0
M  V30 14379 C 1426.41 3.70016 0.690294 0
M  V30 14380 C 1425.55 2.7674 -0.17614 0
M  V30 14381 H 1428.51 1.48383 -0.562863 0
M  V30 14382 H 1428.53 3.64564 1.08964 0
M  V30 14383 H 1428.04 3.81221 -0.727481 0
M  V30 14384 H 1426.14 3.32124 1.68891 0
M  V30 14385 H 1426.25 4.76686 0.480388 0
M  V30 14386 H 1424.62 2.52263 0.351476 0
M  V30 14387 H 1425.4 3.23006 -1.16285 0
M  V30 14388 N 1427.84 0.0718701 1.57436 0
M  V30 14389 C 1428.79 -0.913026 2.13931 0
M  V30 14390 C 1429.79 -1.3082 1.07622 0
M  V30 14391 O 1430.99 -1.28544 1.26002 0
M  V30 14392 H 1427.37 -0.31238 0.684049 0
M  V30 14393 H 1429.34 -0.411613 2.95547 0
M  V30 14394 C 1428.09 -2.17109 2.71586 0
M  V30 14395 H 1427.41 -1.87585 3.53061 0
M  V30 14396 H 1428.85 -2.84134 3.14712 0
M  V30 14397 C 1427.31 -2.92967 1.6635 0
M  V30 14398 O 1427.84 -3.8667 1.08854 0
M  V30 14399 N 1426.05 -2.56075 1.37383 0
M  V30 14400 H 1425.59 -1.79949 1.84326 0
M  V30 14401 H 1425.55 -3.07134 0.672039 0
M  V30 14402 N 1429.32 -1.56304 -0.201686 0
M  V30 14403 C 1430.27 -1.90422 -1.25393 0
M  V30 14404 C 1431.26 -0.769236 -1.41321 0
M  V30 14405 O 1432.45 -1.03199 -1.43802 0
M  V30 14406 C 1429.58 -2.24157 -2.60016 0
M  V30 14407 C 1428.66 -3.44097 -2.47908 0
M  V30 14408 N 1429.05 -4.62185 -2.05471 0
M  V30 14409 C 1427.35 -3.48105 -2.78817 0
M  V30 14410 C 1428.05 -5.44345 -2.05095 0
M  V30 14411 N 1427.03 -4.84576 -2.46346 0
M  V30 14412 H 1430.83 -2.79227 -0.917045 0
M  V30 14413 H 1428.35 -1.57135 -0.410157 0
M  V30 14414 H 1430.34 -2.46782 -3.36012 0
M  V30 14415 H 1429 -1.36676 -2.94533 0
M  V30 14416 H 1430.01 -4.86974 -1.76285 0
M  V30 14417 H 1426.69 -2.71022 -3.17574 0
M  V30 14418 H 1428.08 -6.48914 -1.74242 0
M  V30 14419 N 1430.8 0.469154 -1.50455 0
M  V30 14420 C 1431.73 1.57493 -1.7239 0
M  V30 14421 C 1432.71 1.60161 -0.572915 0
M  V30 14422 O 1433.9 1.76397 -0.812259 0
M  V30 14423 C 1431.03 2.95804 -1.81981 0
M  V30 14424 C 1429.98 3.08001 -2.97185 0
M  V30 14425 C 1429.31 4.4798 -2.91922 0
M  V30 14426 C 1430.61 2.85039 -4.37665 0
M  V30 14427 H 1432.3 1.39389 -2.64974 0
M  V30 14428 H 1429.85 0.669133 -1.27509 0
M  V30 14429 H 1431.8 3.73091 -1.95911 0
M  V30 14430 H 1430.52 3.15068 -0.86021 0
M  V30 14431 H 1429.18 2.33148 -2.82909 0
M  V30 14432 H 1428.83 4.64165 -1.93803 0
M  V30 14433 H 1428.53 4.57076 -3.69263 0
M  V30 14434 H 1430.05 5.27284 -3.07903 0
M  V30 14435 H 1431.47 3.52074 -4.52456 0
M  V30 14436 H 1429.87 3.05578 -5.16471 0
M  V30 14437 H 1430.94 1.8088 -4.499 0
M  V30 14438 N 1432.28 1.40065 0.722464 0
M  V30 14439 C 1433.53 1.37277 1.47776 0
M  V30 14440 C 1433.84 -0.0242852 1.95585 0
M  V30 14441 O 1435.05 -0.174769 2.70937 0
M  V30 14442 C 1433.5 2.41233 2.67085 0
M  V30 14443 C 1433.11 3.86716 2.26174 0
M  V30 14444 C 1434.85 2.47541 3.44853 0
M  V30 14445 C 1432.76 4.82284 3.42281 0
M  V30 14446 H 1431.69 0.510405 0.55498 0
M  V30 14447 H 1434.34 1.6577 0.786928 0
M  V30 14448 H 1432.72 2.0583 3.38305 0
M  V30 14449 H 1433.9 4.31227 1.6242 0
M  V30 14450 H 1432.21 3.83819 1.61468 0
M  V30 14451 H 1434.81 3.16131 4.31237 0
M  V30 14452 H 1435.15 1.50379 3.8819 0
M  V30 14453 H 1435.69 2.81901 2.80672 0
M  V30 14454 H 1432.43 5.80754 3.03982 0
M  V30 14455 H 1431.95 4.42443 4.04975 0
M  V30 14456 H 1433.62 5.0178 4.08443 0
M  V30 14457 N 1433.76 -0.95397 1.25448 0
M  V30 14458 C 1434.71 -2.03623 1.02575 0
M  V30 14459 C 1435.69 -1.60856 -0.0375824 0
M  V30 14460 O 1436.88 -1.76104 0.177833 0
M  V30 14461 C 1434.01 -3.37145 0.64714 0
M  V30 14462 C 1433.1 -3.86434 1.74726 0
M  V30 14463 N 1433.49 -4.08509 2.98251 0
M  V30 14464 C 1431.79 -4.15228 1.62793 0
M  V30 14465 C 1432.49 -4.49137 3.69663 0
M  V30 14466 N 1431.46 -4.55106 2.97287 0
M  V30 14467 H 1435.27 -2.18685 1.96352 0
M  V30 14468 H 1432.78 -1.13884 1.15777 0
M  V30 14469 H 1434.78 -4.14305 0.464462 0
M  V30 14470 H 1433.44 -3.23462 -0.283296 0
M  V30 14471 H 1434.45 -3.95564 3.3429 0
M  V30 14472 H 1431.13 -4.10403 0.766501 0
M  V30 14473 H 1432.52 -4.74515 4.75695 0
M  V30 14474 N 1435.24 -1.07045 -1.15668 0
M  V30 14475 C 1436.17 -0.709413 -2.22463 0
M  V30 14476 C 1437.15 0.30169 -1.67403 0
M  V30 14477 O 1438.33 0.175131 -1.93409 0
M  V30 14478 C 1435.46 -0.103121 -3.47147 0
M  V30 14479 C 1434.42 -1.04103 -4.15146 0
M  V30 14480 C 1433.74 -0.297656 -5.33871 0
M  V30 14481 C 1435.04 -2.37332 -4.65264 0
M  V30 14482 H 1436.74 -1.60227 -2.52918 0
M  V30 14483 H 1434.28 -0.771846 -1.21567 0
M  V30 14484 H 1436.23 0.161371 -4.21091 0
M  V30 14485 H 1434.96 0.824792 -3.16014 0
M  V30 14486 H 1433.62 -1.2904 -3.43139 0
M  V30 14487 H 1433.27 0.633618 -4.98993 0
M  V30 14488 H 1432.97 -0.922789 -5.80309 0
M  V30 14489 H 1434.49 -0.0408892 -6.10586 0
M  V30 14490 H 1435.9 -2.1674 -5.30751 0
M  V30 14491 H 1434.3 -2.95412 -5.22352 0
M  V30 14492 H 1435.37 -2.99859 -3.81068 0
M  V30 14493 N 1436.71 1.32449 -0.85411 0
M  V30 14494 C 1437.65 2.26901 -0.243148 0
M  V30 14495 C 1438.62 1.50375 0.618558 0
M  V30 14496 O 1439.81 1.79501 0.575479 0
M  V30 14497 C 1436.94 3.32265 0.657108 0
M  V30 14498 C 1435.98 4.26298 -0.131141 0
M  V30 14499 S 1436.81 5.14086 -1.49919 0
M  V30 14500 C 1437.97 6.22973 -0.604632 0
M  V30 14501 H 1438.2 2.78373 -1.04384 0
M  V30 14502 H 1435.74 1.39972 -0.651712 0
M  V30 14503 H 1437.69 3.93447 1.17087 0
M  V30 14504 H 1436.36 2.79578 1.4316 0
M  V30 14505 H 1435.55 5.0094 0.55452 0
M  V30 14506 H 1435.15 3.69531 -0.576469 0
M  V30 14507 H 1437.44 6.7723 0.191348 0
M  V30 14508 H 1438.39 6.95656 -1.32168 0
M  V30 14509 H 1438.79 5.64215 -0.179215 0
M  V30 14510 N 1438.19 0.611994 1.45232 0
M  V30 14511 C 1439.44 0.108911 2.02207 0
M  V30 14512 C 1439.77 -1.26219 1.47983 0
M  V30 14513 O 1439.02 -1.84718 0.646368 0
M  V30 14514 C 1439.32 0.0243361 3.57392 0
M  V30 14515 C 1438.99 1.33168 4.30787 0
M  V30 14516 C 1437.65 1.68978 4.50555 0
M  V30 14517 C 1440 2.19549 4.72703 0
M  V30 14518 C 1437.33 2.90913 5.09496 0
M  V30 14519 C 1439.68 3.40737 5.32993 0
M  V30 14520 C 1438.34 3.76794 5.50983 0
M  V30 14521 H 1437.61 0.0398534 0.739927 0
M  V30 14522 H 1440.26 0.794492 1.74241 0
M  V30 14523 H 1438.57 -0.74453 3.84661 0
M  V30 14524 H 1440.26 -0.381139 3.99185 0
M  V30 14525 H 1436.85 1.04296 4.15717 0
M  V30 14526 H 1441.04 1.93181 4.57159 0
M  V30 14527 H 1436.29 3.1895 5.21614 0
M  V30 14528 H 1440.47 4.07919 5.64425 0
M  V30 14529 H 1438.09 4.71364 5.96423 0
M  V30 14530 N 1439.67 -1.53632 0.351409 0
M  V30 14531 C 1440.58 -2.2899 -0.509985 0
M  V30 14532 C 1441.6 -1.34403 -1.10507 0
M  V30 14533 O 1442.77 -1.67448 -1.11906 0
M  V30 14534 C 1439.84 -3.05392 -1.64124 0
M  V30 14535 C 1438.9 -4.15619 -1.07514 0
M  V30 14536 C 1438.13 -4.88369 -2.15248 0
M  V30 14537 O 1438.35 -4.60854 -3.3611 0
M  V30 14538 O 1437.29 -5.74636 -1.79101 0
M  V30 14539 H 1441.11 -3.03526 0.10283 0
M  V30 14540 H 1438.7 -1.48947 0.116214 0
M  V30 14541 H 1440.58 -3.53146 -2.29926 0
M  V30 14542 H 1439.26 -2.33705 -2.23972 0
M  V30 14543 H 1438.16 -3.7215 -0.381421 0
M  V30 14544 H 1439.5 -4.8943 -0.521413 0
M  V30 14545 N 1441.15 -0.0802183 -1.57396 0
M  V30 14546 C 1442.38 0.595754 -1.98137 0
M  V30 14547 C 1442.79 1.62638 -0.958871 0
M  V30 14548 O 1442.15 1.82422 0.0534316 0
M  V30 14549 C 1442.2 1.2568 -3.38949 0
M  V30 14550 O 1441.92 0.267417 -4.37283 0
M  V30 14551 C 1443.42 2.0198 -3.94612 0
M  V30 14552 H 1440.64 0.160853 -0.651435 0
M  V30 14553 H 1443.18 -0.155111 -2.03911 0
M  V30 14554 H 1441.34 1.9587 -3.34236 0
M  V30 14555 H 1441.75 0.742695 -5.19215 0
M  V30 14556 H 1443.23 2.43613 -4.95335 0
M  V30 14557 H 1443.7 2.87973 -3.31614 0
M  V30 14558 H 1444.31 1.36639 -4.02753 0
M  V30 14559 N 1442.63 1.56409 0.193394 0
M  V30 14560 C 1443.87 1.80724 0.913521 0
M  V30 14561 C 1444.2 0.653718 1.83185 0
M  V30 14562 O 1443.46 -0.360417 1.92353 0
M  V30 14563 C 1443.75 3.11039 1.76039 0
M  V30 14564 C 1443.42 4.39832 0.992892 0
M  V30 14565 C 1442.08 4.7482 0.780991 0
M  V30 14566 C 1444.43 5.19228 0.452985 0
M  V30 14567 C 1441.76 5.86697 0.0177286 0
M  V30 14568 C 1444.11 6.31902 -0.297075 0
M  V30 14569 C 1442.78 6.65472 -0.519977 0
M  V30 14570 H 1442.05 0.661315 0.334281 0
M  V30 14571 H 1444.7 1.90654 0.179786 0
M  V30 14572 H 1443 2.96353 2.56285 0
M  V30 14573 H 1444.7 3.27058 2.32022 0
M  V30 14574 H 1441.29 4.12376 1.16806 0
M  V30 14575 H 1445.47 4.9261 0.604092 0
M  V30 14576 H 1440.73 6.11178 -0.164925 0
M  V30 14577 H 1444.9 6.92639 -0.7228 0
M  V30 14578 H 1442.53 7.52004 -1.11331 0
M  V30 14579 N 1444.1 -0.461169 1.50702 0
M  V30 14580 C 1445.05 -1.55575 1.66675 0
M  V30 14581 C 1446.04 -1.52227 0.521128 0
M  V30 14582 O 1447.23 -1.59083 0.775989 0
M  V30 14583 C 1444.36 -2.93951 1.77336 0
M  V30 14584 C 1443.44 -3.02145 2.97606 0
M  V30 14585 N 1443.84 -2.80131 4.21142 0
M  V30 14586 C 1442.13 -3.33289 2.96369 0
M  V30 14587 C 1442.83 -2.93549 5.02199 0
M  V30 14588 N 1441.81 -3.24184 4.36355 0
M  V30 14589 H 1445.61 -1.3727 2.59874 0
M  V30 14590 H 1443.13 -0.668078 1.48022 0
M  V30 14591 H 1445.12 -3.72666 1.86884 0
M  V30 14592 H 1443.78 -3.13295 0.853023 0
M  V30 14593 H 1444.79 -2.55519 4.50478 0
M  V30 14594 H 1441.47 -3.58558 2.13875 0
M  V30 14595 H 1442.86 -2.80685 6.10463 0
M  V30 14596 N 1445.58 -1.40446 -0.715026 0
M  V30 14597 C 1446.51 -1.43511 -1.84193 0
M  V30 14598 C 1447.49 -0.295969 -1.67505 0
M  V30 14599 O 1448.68 -0.504667 -1.87528 0
M  V30 14600 C 1445.81 -1.29751 -3.22152 0
M  V30 14601 C 1444.76 -2.41274 -3.53512 0
M  V30 14602 C 1444.09 -2.12591 -4.90621 0
M  V30 14603 C 1445.39 -3.83614 -3.54454 0
M  V30 14604 H 1447.08 -2.37819 -1.81885 0
M  V30 14605 H 1444.63 -1.14469 -0.873655 0
M  V30 14606 H 1446.58 -1.30511 -4.0068 0
M  V30 14607 H 1445.3 -0.319189 -3.25037 0
M  V30 14608 H 1443.96 -2.39764 -2.77324 0
M  V30 14609 H 1443.61 -1.13148 -4.90109 0
M  V30 14610 H 1443.31 -2.87308 -5.1257 0
M  V30 14611 H 1444.84 -2.15034 -5.71483 0
M  V30 14612 H 1446.25 -3.86945 -4.23021 0
M  V30 14613 H 1444.65 -4.57855 -3.87929 0
M  V30 14614 H 1445.72 -4.13159 -2.53827 0
M  V30 14615 N 1447.06 0.947303 -1.25952 0
M  V30 14616 C 1447.97 2.07878 -1.08738 0
M  V30 14617 C 1448.99 1.73985 -0.0225212 0
M  V30 14618 O 1450.16 2.00139 -0.224984 0
M  V30 14619 C 1447.23 3.39231 -0.715756 0
M  V30 14620 C 1446.29 3.86945 -1.85935 0
M  V30 14621 C 1445.52 5.1203 -1.50537 0
M  V30 14622 O 1445.74 5.68965 -0.404323 0
M  V30 14623 O 1444.68 5.54634 -2.33805 0
M  V30 14624 H 1448.5 2.25305 -2.03645 0
M  V30 14625 H 1446.09 1.06321 -1.04958 0
M  V30 14626 H 1447.97 4.18167 -0.520962 0
M  V30 14627 H 1446.65 3.23057 0.203978 0
M  V30 14628 H 1445.55 3.08981 -2.10906 0
M  V30 14629 H 1446.89 4.0763 -2.75859 0
M  V30 14630 N 1448.54 1.07657 1.15099 0
M  V30 14631 C 1449.79 0.801609 1.85958 0
M  V30 14632 C 1450.11 -0.672415 1.82507 0
M  V30 14633 O 1449.37 -1.50958 1.2454 0
M  V30 14634 C 1449.67 1.25903 3.3449 0
M  V30 14635 C 1449.33 2.73954 3.58134 0
M  V30 14636 C 1448 3.14392 3.64296 0
M  V30 14637 C 1450.35 3.69502 3.67584 0
M  V30 14638 C 1447.68 4.49187 3.77422 0
M  V30 14639 C 1450.03 5.04063 3.82235 0
M  V30 14640 C 1448.69 5.44117 3.86643 0
M  V30 14641 H 1447.96 0.293329 0.68047 0
M  V30 14642 H 1450.61 1.34814 1.36005 0
M  V30 14643 H 1448.91 0.631943 3.8667 0
M  V30 14644 H 1450.61 1.02314 3.87728 0
M  V30 14645 H 1447.2 2.41652 3.53981 0
M  V30 14646 H 1451.38 3.39385 3.62121 0
M  V30 14647 H 1446.64 4.79685 3.79094 0
M  V30 14648 H 1450.81 5.7797 3.88489 0
M  V30 14649 H 1448.44 6.48567 3.96567 0
M  V30 14650 N 1450.02 -1.31994 0.861122 0
M  V30 14651 C 1450.97 -2.26248 0.282123 0
M  V30 14652 C 1451.95 -1.50246 -0.57575 0
M  V30 14653 O 1453.14 -1.71845 -0.424075 0
M  V30 14654 C 1450.27 -3.39293 -0.523011 0
M  V30 14655 C 1449.36 -4.22673 0.34761 0
M  V30 14656 N 1449.75 -4.8496 1.43692 0
M  V30 14657 C 1448.05 -4.45785 0.138488 0
M  V30 14658 C 1448.75 -5.47215 1.97307 0
M  V30 14659 N 1447.72 -5.28525 1.27132 0
M  V30 14660 H 1451.53 -2.71936 1.11481 0
M  V30 14661 H 1449.04 -1.46158 0.707928 0
M  V30 14662 H 1451.04 -4.05832 -0.954269 0
M  V30 14663 H 1449.7 -2.95149 -1.35341 0
M  V30 14664 H 1450.71 -4.84873 1.81985 0
M  V30 14665 H 1447.38 -4.12303 -0.656677 0
M  V30 14666 H 1448.77 -6.06737 2.88652 0
M  V30 14667 N 1451.49 -0.619688 -1.44906 0
M  V30 14668 C 1452.72 -0.12618 -2.06214 0
M  V30 14669 C 1453.13 1.19978 -1.46294 0
M  V30 14670 O 1452.48 1.74437 -0.575956 0
M  V30 14671 C 1452.54 0.075085 -3.59422 0
M  V30 14672 C 1452.2 -1.17094 -4.41744 0
M  V30 14673 C 1453.2 -2.09196 -4.75955 0
M  V30 14674 C 1450.88 -1.40315 -4.82304 0
M  V30 14675 C 1452.88 -3.22839 -5.49594 0
M  V30 14676 C 1450.56 -2.54257 -5.55695 0
M  V30 14677 C 1451.56 -3.45346 -5.89258 0
M  V30 14678 O 1451.25 -4.57302 -6.61158 0
M  V30 14679 H 1450.98 -0.0715975 -0.672198 0
M  V30 14680 H 1453.54 -0.850858 -1.86948 0
M  V30 14681 H 1451.77 0.854787 -3.77134 0
M  V30 14682 H 1453.46 0.521707 -4.02533 0
M  V30 14683 H 1454.22 -1.92486 -4.45168 0
M  V30 14684 H 1450.1 -0.703094 -4.55607 0
M  V30 14685 H 1453.64 -3.93959 -5.7571 0
M  V30 14686 H 1449.54 -2.70915 -5.85897 0
M  V30 14687 H 1450.31 -4.56138 -6.79618 0
M  V30 14688 N 1452.97 1.53444 -0.359552 0
M  V30 14689 C 1453.92 2.27053 0.504949 0
M  V30 14690 C 1454.91 1.29801 1.08849 0
M  V30 14691 O 1456.12 1.47451 1.03239 0
M  V30 14692 H 1452.5 0.729756 0.181549 0
M  V30 14693 H 1454.47 2.98082 -0.137719 0
M  V30 14694 C 1453.22 3.06815 1.63585 0
M  V30 14695 H 1452.54 3.81488 1.19611 0
M  V30 14696 H 1453.98 3.61508 2.21558 0
M  V30 14697 C 1452.44 2.17286 2.57466 0
M  V30 14698 O 1452.97 1.77961 3.60129 0
M  V30 14699 N 1451.17 1.82041 2.26516 0
M  V30 14700 H 1450.72 2.14218 1.43068 0
M  V30 14701 H 1450.68 1.22423 2.89586 0
M  V30 14702 N 1454.45 0.0885642 1.57351 0
M  V30 14703 C 1455.69 -0.580127 1.95995 0
M  V30 14704 C 1456.05 -1.65754 0.969003 0
M  V30 14705 O 1457.26 -2.38297 1.2437 0
M  V30 14706 C 1455.53 -1.12689 3.3917 0
M  V30 14707 S 1457.09 -1.80836 3.99805 0
M  V30 14708 H 1453.9 -0.189492 0.685284 0
M  V30 14709 H 1456.51 0.166414 1.9479 0
M  V30 14710 H 1455.21 -0.331139 4.09062 0
M  V30 14711 H 1454.74 -1.90941 3.43955 0
M  V30 14712 H 1456.76 -3.09211 3.88076 0
M  V30 14713 N 1455.93 -1.56509 -0.185096 0
M  V30 14714 C 1457.16 -1.85327 -0.91986 0
M  V30 14715 C 1457.57 -0.672294 -1.76425 0
M  V30 14716 O 1456.93 0.358854 -1.78937 0
M  V30 14717 C 1456.98 -3.13047 -1.80787 0
M  V30 14718 O 1456.7 -4.26591 -0.997569 0
M  V30 14719 C 1458.2 -3.55114 -2.65347 0
M  V30 14720 H 1455.42 -0.615196 -0.267909 0
M  V30 14721 H 1457.97 -2.03622 -0.189338 0
M  V30 14722 H 1456.12 -2.96619 -2.4919 0
M  V30 14723 H 1456.53 -4.99384 -1.60362 0
M  V30 14724 H 1458.01 -4.47419 -3.23295 0
M  V30 14725 H 1458.49 -2.78576 -3.39547 0
M  V30 14726 H 1459.09 -3.74105 -2.023 0
M  V30 14727 N 1457.41 0.45317 -1.50944 0
M  V30 14728 C 1458.35 1.56953 -1.71664 0
M  V30 14729 C 1459.35 1.59064 -0.582673 0
M  V30 14730 O 1460.55 1.62998 -0.763651 0
M  V30 14731 H 1456.93 0.521147 -0.542135 0
M  V30 14732 H 1458.9 1.36645 -2.65275 0
M  V30 14733 C 1457.65 2.9475 -1.84438 0
M  V30 14734 H 1456.97 2.93852 -2.71093 0
M  V30 14735 H 1458.41 3.72271 -2.02954 0
M  V30 14736 C 1456.87 3.31509 -0.600281 0
M  V30 14737 O 1457.4 4.00906 0.252366 0
M  V30 14738 N 1455.61 2.8711 -0.449014 0
M  V30 14739 H 1455.15 2.30808 -1.14392 0
M  V30 14740 H 1455.11 3.12068 0.382199 0
M  V30 14741 N 1458.88 1.40823 0.707568 0
M  V30 14742 C 1460.16 1.3003 1.46122 0
M  V30 14743 C 1460.54 -0.0776873 2.10957 0
M  V30 14744 O 1459.89 -1.09109 2.00767 0
M  V30 14745 C 1460.1 2.44498 2.49042 0
M  V30 14746 C 1461.45 2.85106 3.14642 0
M  V30 14747 O 1462.47 2.44149 2.59364 0
M  V30 14748 O 1461.33 3.55892 4.14733 0
M  V30 14749 H 1458.42 0.511082 0.650172 0
M  V30 14750 H 1460.97 1.52761 0.739062 0
M  V30 14751 H 1459.74 3.36502 1.99705 0
M  V30 14752 H 1459.37 2.23579 3.28783 0
M  V30 14753 N 1460.36 -0.94061 1.26453 0
M  V30 14754 C 1461.59 -1.71874 1.14643 0
M  V30 14755 C 1462 -1.86791 -0.300969 0
M  V30 14756 O 1461.34 -1.37529 -1.21784 0
M  V30 14757 C 1461.41 -3.14408 1.74321 0
M  V30 14758 C 1461.07 -3.22873 3.23422 0
M  V30 14759 C 1462.07 -3.06107 4.20231 0
M  V30 14760 C 1459.75 -3.46245 3.63895 0
M  V30 14761 C 1461.75 -3.12581 5.55492 0
M  V30 14762 C 1459.43 -3.52354 4.99289 0
M  V30 14763 C 1460.43 -3.35539 5.94897 0
M  V30 14764 O 1460.12 -3.41357 7.27826 0
M  V30 14765 H 1459.85 -0.544931 0.400033 0
M  V30 14766 H 1462.4 -1.18767 1.67581 0
M  V30 14767 H 1460.63 -3.6894 1.15846 0
M  V30 14768 H 1462.32 -3.74135 1.57409 0
M  V30 14769 H 1463.09 -2.87906 3.90302 0
M  V30 14770 H 1458.97 -3.58389 2.89962 0
M  V30 14771 H 1462.51 -2.99374 6.30096 0
M  V30 14772 H 1458.41 -3.70077 5.2888 0
M  V30 14773 H 1459.18 -3.57897 7.36106 0
M  V30 14774 N 1461.84 -1.08266 -1.14527 0
M  V30 14775 C 1462.77 -0.732968 -2.21698 0
M  V30 14776 C 1463.75 0.283917 -1.67714 0
M  V30 14777 O 1464.94 0.154607 -1.93584 0
M  V30 14778 C 1462.07 -0.139935 -3.47018 0
M  V30 14779 C 1461.02 -1.08501 -4.14019 0
M  V30 14780 C 1460.35 -0.354263 -5.33525 0
M  V30 14781 C 1461.65 -2.42254 -4.62721 0
M  V30 14782 H 1463.34 -1.629 -2.51205 0
M  V30 14783 H 1460.89 -0.784696 -1.20742 0
M  V30 14784 H 1462.84 0.1167 -4.21238 0
M  V30 14785 H 1461.56 0.791228 -3.16871 0
M  V30 14786 H 1460.22 -1.32672 -3.41751 0
M  V30 14787 H 1459.87 0.580658 -4.99637 0
M  V30 14788 H 1459.57 -0.984287 -5.79297 0
M  V30 14789 H 1461.09 -0.105648 -6.10509 0
M  V30 14790 H 1462.51 -2.22357 -5.28422 0
M  V30 14791 H 1460.91 -3.00935 -5.1919 0
M  V30 14792 H 1461.98 -3.03884 -3.77866 0
M  V30 14793 N 1463.32 1.31536 -0.86811 0
M  V30 14794 C 1464.23 2.32326 -0.32588 0
M  V30 14795 C 1465.25 1.64632 0.563243 0
M  V30 14796 O 1466.42 1.96067 0.460403 0
M  V30 14797 C 1463.49 3.43562 0.46539 0
M  V30 14798 C 1462.55 4.26919 -0.451472 0
M  V30 14799 C 1461.78 5.32844 0.302129 0
M  V30 14800 O 1462 5.49485 1.53045 0
M  V30 14801 O 1460.94 6.00944 -0.339048 0
M  V30 14802 H 1464.76 2.80622 -1.16126 0
M  V30 14803 H 1462.35 1.35401 -0.631428 0
M  V30 14804 H 1464.23 4.11368 0.914028 0
M  V30 14805 H 1462.91 2.97432 1.27734 0
M  V30 14806 H 1461.81 3.61874 -0.948571 0
M  V30 14807 H 1463.15 4.7661 -1.22897 0
M  V30 14808 N 1464.8 0.627364 1.44575 0
M  V30 14809 C 1466.04 0.130545 2.02379 0
M  V30 14810 C 1466.38 -1.24301 1.49208 0
M  V30 14811 O 1465.65 -1.82425 0.674626 0
M  V30 14812 C 1465.93 0.11311 3.59922 0
M  V30 14813 C 1465.79 1.51874 4.23385 0
M  V30 14814 C 1467.11 -0.564341 4.36467 0
M  V30 14815 H 1464.23 0.0489125 0.735375 0
M  V30 14816 H 1466.87 0.803118 1.72192 0
M  V30 14817 H 1465.02 -0.459621 3.85772 0
M  V30 14818 H 1466.69 2.14007 4.08655 0
M  V30 14819 H 1464.93 2.07371 3.81024 0
M  V30 14820 H 1465.6 1.4586 5.3238 0
M  V30 14821 H 1468.08 -0.0773244 4.16028 0
M  V30 14822 H 1466.96 -0.545715 5.46181 0
M  V30 14823 H 1467.22 -1.63403 4.10794 0
M  V30 14824 N 1466.28 -1.53251 0.367684 0
M  V30 14825 C 1467.51 -2.05407 -0.221725 0
M  V30 14826 C 1467.91 -1.24081 -1.4283 0
M  V30 14827 O 1467.26 -0.275005 -1.8163 0
M  V30 14828 C 1467.32 -3.53063 -0.677281 0
M  V30 14829 C 1466.98 -4.55131 0.412894 0
M  V30 14830 C 1467.98 -5.04315 1.26343 0
M  V30 14831 C 1465.66 -4.99013 0.573739 0
M  V30 14832 C 1467.66 -5.95984 2.26014 0
M  V30 14833 C 1465.35 -5.90487 1.57381 0
M  V30 14834 C 1466.34 -6.38863 2.41544 0
M  V30 14835 O 1466.03 -7.28533 3.39845 0
M  V30 14836 H 1465.76 -0.674679 -0.0422413 0
M  V30 14837 H 1468.32 -1.98577 0.52501 0
M  V30 14838 H 1466.55 -3.57437 -1.47565 0
M  V30 14839 H 1468.24 -3.88066 -1.18993 0
M  V30 14840 H 1469 -4.7116 1.15037 0
M  V30 14841 H 1464.88 -4.60944 -0.0715806 0
M  V30 14842 H 1468.43 -6.33666 2.91742 0
M  V30 14843 H 1464.32 -6.23056 1.68734 0
M  V30 14844 H 1465.09 -7.46536 3.35598 0
M  V30 14845 N 1467.75 -0.0969077 -1.57302 0
M  V30 14846 C 1469.03 0.608737 -1.85886 0
M  V30 14847 C 1469.41 1.86228 -0.994096 0
M  V30 14848 O 1468.76 2.28402 -0.0669975 0
M  V30 14849 C 1468.97 0.922385 -3.3659 0
M  V30 14850 C 1470.32 1.28505 -4.04687 0
M  V30 14851 O 1471.34 1.01334 -3.41482 0
M  V30 14852 O 1470.2 1.794 -5.16215 0
M  V30 14853 H 1467.29 0.304808 -0.768779 0
M  V30 14854 H 1469.84 -0.129742 -1.69203 0
M  V30 14855 H 1468.61 0.0331488 -3.91286 0
M  V30 14856 H 1468.23 1.71678 -3.58626 0
M  V30 14857 N 1469.23 1.56605 0.176793 0
M  V30 14858 C 1470.46 1.85812 0.910019 0
M  V30 14859 C 1470.87 0.68164 1.76066 0
M  V30 14860 O 1470.23 -0.34936 1.79125 0
M  V30 14861 C 1470.28 3.14001 1.79125 0
M  V30 14862 O 1470 4.27114 0.974931 0
M  V30 14863 C 1471.5 3.56516 2.6346 0
M  V30 14864 H 1468.72 0.616608 0.264643 0
M  V30 14865 H 1471.27 2.03719 0.178537 0
M  V30 14866 H 1469.42 2.97937 2.47613 0
M  V30 14867 H 1469.84 5.00227 1.57711 0
M  V30 14868 H 1471.31 4.49128 3.20918 0
M  V30 14869 H 1471.79 2.80373 3.38065 0
M  V30 14870 H 1472.39 3.75173 2.00313 0
M  V30 14871 N 1470.71 -0.445159 1.51182 0
M  V30 14872 C 1471.99 -1.20598 1.53998 0
M  V30 14873 C 1472.37 -2.08962 0.29967 0
M  V30 14874 O 1471.71 -2.17003 -0.715666 0
M  V30 14875 C 1471.92 -2.01461 2.84982 0
M  V30 14876 C 1473.27 -2.5877 3.36635 0
M  V30 14877 O 1474.3 -2.11679 2.86479 0
M  V30 14878 O 1473.16 -3.44637 4.24132 0
M  V30 14879 H 1470.25 -0.548635 0.618812 0
M  V30 14880 H 1472.8 -0.454865 1.6349 0
M  V30 14881 H 1471.57 -1.36511 3.66716 0
M  V30 14882 H 1471.19 -2.83654 2.78615 0
M  V30 14883 N 1472.19 -1.41197 -0.700089 0
M  V30 14884 C 1473.41 -1.43856 -1.494 0
M  V30 14885 C 1473.84 -0.0441877 -1.88048 0
M  V30 14886 O 1473.2 0.951503 -1.54325 0
M  V30 14887 C 1473.24 -2.34913 -2.73584 0
M  V30 14888 O 1472.35 -1.80305 -3.70896 0
M  V30 14889 H 1471.69 -0.488412 -0.449833 0
M  V30 14890 H 1474.22 -1.85606 -0.860911 0
M  V30 14891 H 1474.23 -2.50633 -3.21943 0
M  V30 14892 H 1472.9 -3.36229 -2.44791 0
M  V30 14893 H 1471.48 -1.74012 -3.29809 0
M  V30 14894 N 1473.67 0.933891 -1.2695 0
M  V30 14895 C 1474.58 2.06713 -1.10936 0
M  V30 14896 C 1475.59 1.73952 -0.0409734 0
M  V30 14897 O 1476.77 1.9989 -0.246199 0
M  V30 14898 C 1473.83 3.38453 -0.751696 0
M  V30 14899 C 1472.89 3.84951 -1.90029 0
M  V30 14900 C 1472.13 5.10404 -1.55959 0
M  V30 14901 O 1472.35 5.68504 -0.464646 0
M  V30 14902 O 1471.28 5.52123 -2.39675 0
M  V30 14903 H 1475.11 2.23133 -2.06023 0
M  V30 14904 H 1472.69 1.05202 -1.06079 0
M  V30 14905 H 1474.58 4.17591 -0.565285 0
M  V30 14906 H 1473.25 3.23255 0.169703 0
M  V30 14907 H 1472.16 3.06727 -2.14172 0
M  V30 14908 H 1473.49 4.04681 -2.80167 0
M  V30 14909 N 1475.14 1.08871 1.13951 0
M  V30 14910 C 1476.37 0.842913 1.88951 0
M  V30 14911 C 1476.79 -0.605348 1.78832 0
M  V30 14912 O 1476.14 -1.41631 1.15095 0
M  V30 14913 C 1476.19 1.26198 3.38757 0
M  V30 14914 O 1475.92 2.65344 3.48603 0
M  V30 14915 C 1477.42 1.04773 4.30741 0
M  V30 14916 H 1474.64 0.303651 0.598362 0
M  V30 14917 H 1477.18 1.44922 1.44284 0
M  V30 14918 H 1475.34 0.699682 3.81029 0
M  V30 14919 H 1475.75 2.82863 4.41688 0
M  V30 14920 H 1477.22 1.39029 5.34205 0
M  V30 14921 H 1477.7 -0.0149046 4.39197 0
M  V30 14922 H 1478.31 1.5957 3.9423 0
M  V30 14923 N 1476.62 -1.31073 0.875073 0
M  V30 14924 C 1477.85 -2.01223 0.502383 0
M  V30 14925 C 1478.27 -1.65223 -0.899053 0
M  V30 14926 O 1477.63 -0.863559 -1.59412 0
M  V30 14927 C 1477.68 -3.54269 0.672747 0
M  V30 14928 O 1476.78 -4.11409 -0.285718 0
M  V30 14929 H 1476.12 -0.633422 0.199181 0
M  V30 14930 H 1478.65 -1.67152 1.17989 0
M  V30 14931 H 1478.66 -4.04027 0.567973 0
M  V30 14932 H 1477.34 -3.79811 1.69459 0
M  V30 14933 H 1475.91 -3.72654 -0.135472 0
M  V30 14934 N 1478.1 -0.635022 -1.4424 0
M  V30 14935 C 1479.03 0.0543561 -2.33437 0
M  V30 14936 C 1480.01 0.830807 -1.48431 0
M  V30 14937 O 1481.2 0.795913 -1.77141 0
M  V30 14938 C 1478.33 1.03391 -3.31553 0
M  V30 14939 C 1477.28 0.368824 -4.26408 0
M  V30 14940 C 1476.61 1.45855 -5.14422 0
M  V30 14941 C 1477.91 -0.727381 -5.1721 0
M  V30 14942 H 1479.6 -0.690489 -2.91329 0
M  V30 14943 H 1477.15 -0.3335 -1.40085 0
M  V30 14944 H 1479.1 1.52495 -3.9284 0
M  V30 14945 H 1477.82 1.80969 -2.71878 0
M  V30 14946 H 1476.48 -0.101605 -3.66459 0
M  V30 14947 H 1476.13 2.22531 -4.51098 0
M  V30 14948 H 1475.83 1.0189 -5.78699 0
M  V30 14949 H 1477.35 1.95132 -5.78581 0
M  V30 14950 H 1478.77 -0.319272 -5.7241 0
M  V30 14951 H 1477.17 -1.09041 -5.9011 0
M  V30 14952 H 1478.24 -1.59292 -4.57989 0
M  V30 14953 N 1479.58 1.53054 -0.375806 0
M  V30 14954 C 1480.83 2.01003 0.210257 0
M  V30 14955 C 1481.15 1.26451 1.48442 0
M  V30 14956 O 1480.42 0.380687 1.92166 0
M  V30 14957 H 1479 0.74263 0.0806861 0
M  V30 14958 H 1481.66 1.8826 -0.504393 0
M  V30 14959 H 1480.76 3.09123 0.430027 0
M  V30 14960 N 1481.06 0.105248 1.57248 0
M  V30 14961 C 1482.47 -0.251385 1.57608 0
M  V30 14962 C 1482.67 -1.677 1.11709 0
M  V30 14963 O 1481.73 -2.39552 0.798182 0
M  V30 14964 C 1483.04 -0.0305755 3.00684 0
M  V30 14965 C 1484.59 -0.0975409 3.12848 0
M  V30 14966 C 1485.06 0.0954024 4.57901 0
M  V30 14967 N 1486.56 0.040908 4.63182 0
M  V30 14968 C 1487.29 0.165298 5.73162 0
M  V30 14969 N 1486.79 0.345091 6.9194 0
M  V30 14970 N 1488.58 0.105847 5.62 0
M  V30 14971 H 1480.73 1.03658 1.85388 0
M  V30 14972 H 1482.99 0.407074 0.856151 0
M  V30 14973 H 1482.7 0.954461 3.38501 0
M  V30 14974 H 1482.57 -0.768477 3.69289 0
M  V30 14975 H 1484.96 -1.07309 2.74898 0
M  V30 14976 H 1485.04 0.672017 2.46815 0
M  V30 14977 H 1484.69 1.06786 4.96547 0
M  V30 14978 H 1484.62 -0.693974 5.22007 0
M  V30 14979 H 1487.11 -0.0951009 3.7778 0
M  V30 14980 H 1487.42 0.431243 7.71596 0
M  V30 14981 H 1485.76 0.38089 6.93955 0
M  V30 14982 H 1488.96 -0.0335544 4.68088 0
M  V30 14983 H 1489.13 0.206235 6.47672 0
M  V30 14984 N 1482.53 -1.56697 -0.168486 0
M  V30 14985 C 1483.76 -1.86022 -0.898847 0
M  V30 14986 C 1484.17 -0.688909 -1.76212 0
M  V30 14987 O 1483.52 0.35111 -1.80313 0
M  V30 14988 C 1483.58 -3.09795 -1.82394 0
M  V30 14989 C 1483.24 -4.42553 -1.13999 0
M  V30 14990 C 1484.24 -5.1745 -0.504092 0
M  V30 14991 C 1481.92 -4.89288 -1.1359 0
M  V30 14992 C 1483.92 -6.37274 0.126758 0
M  V30 14993 C 1481.6 -6.09041 -0.501222 0
M  V30 14994 C 1482.6 -6.82878 0.128998 0
M  V30 14995 O 1482.29 -8.00359 0.753658 0
M  V30 14996 H 1482.02 -0.621283 -0.266426 0
M  V30 14997 H 1484.58 -2.04674 -0.172562 0
M  V30 14998 H 1482.81 -2.87096 -2.59061 0
M  V30 14999 H 1484.5 -3.25544 -2.42438 0
M  V30 15000 H 1485.26 -4.82424 -0.499207 0
M  V30 15001 H 1481.14 -4.31754 -1.61584 0
M  V30 15002 H 1484.68 -6.94846 0.619267 0
M  V30 15003 H 1480.58 -6.43532 -0.5037 0
M  V30 15004 H 1481.35 -8.1589 0.653188 0
M  V30 15005 N 1484.01 0.437135 -1.51416 0
M  V30 15006 C 1485.25 1.19603 -1.65754 0
M  V30 15007 C 1485.62 1.88481 -0.365891 0
M  V30 15008 O 1486.82 2.66028 -0.385046 0
M  V30 15009 C 1485.09 2.18579 -2.82769 0
M  V30 15010 S 1486.65 3.02952 -3.17436 0
M  V30 15011 H 1483.47 0.405591 -0.583966 0
M  V30 15012 H 1486.07 0.487568 -1.89323 0
M  V30 15013 H 1484.77 1.66616 -3.75056 0
M  V30 15014 H 1484.3 2.94005 -2.6139 0
M  V30 15015 H 1486.32 4.20213 -2.63886 0
M  V30 15016 N 1485.49 1.41566 0.692592 0
M  V30 15017 C 1486.74 1.40805 1.44978 0
M  V30 15018 C 1487.06 0.0191039 1.94991 0
M  V30 15019 O 1486.33 -0.939544 1.71899 0
M  V30 15020 H 1484.91 0.518293 0.537942 0
M  V30 15021 H 1487.57 1.76831 0.81956 0
M  V30 15022 H 1486.67 2.09706 2.31149 0
M  V30 15023 N 1486.97 -0.927146 1.27443 0
M  V30 15024 C 1487.92 -2.02783 1.10216 0
M  V30 15025 C 1488.89 -1.661 0.00307842 0
M  V30 15026 O 1490.07 -1.90081 0.165508 0
M  V30 15027 C 1487.21 -3.36718 0.755984 0
M  V30 15028 C 1486.32 -3.86353 1.93276 0
M  V30 15029 C 1485.46 -5.08737 1.52841 0
M  V30 15030 C 1484.5 -5.50669 2.67263 0
M  V30 15031 N 1483.63 -6.6425 2.27413 0
M  V30 15032 H 1488.47 -2.16851 2.04401 0
M  V30 15033 H 1486.01 -1.06232 1.0175 0
M  V30 15034 H 1487.97 -4.13741 0.53609 0
M  V30 15035 H 1486.6 -3.22456 -0.148909 0
M  V30 15036 H 1485.65 -3.05604 2.26518 0
M  V30 15037 H 1486.96 -4.13401 2.79108 0
M  V30 15038 H 1486.12 -5.93263 1.26979 0
M  V30 15039 H 1484.86 -4.83467 0.641187 0
M  V30 15040 H 1483.86 -4.64692 2.93839 0
M  V30 15041 H 1485.09 -5.77934 3.56607 0
M  V30 15042 H 1483.03 -6.40636 1.41143 0
M  V30 15043 H 1482.95 -6.90955 3.06784 0
M  V30 15044 H 1484.22 -7.52115 2.048 0
M  V30 15045 N 1488.45 -1.09474 -1.13372 0
M  V30 15046 C 1489.67 -0.853093 -1.89043 0
M  V30 15047 C 1490.1 0.590075 -1.78605 0
M  V30 15048 O 1489.45 1.41462 -1.13394 0
M  V30 15049 C 1489.5 -1.29359 -3.36599 0
M  V30 15050 O 1488.61 -0.452355 -4.09912 0
M  V30 15051 H 1487.95 -0.308922 -0.587761 0
M  V30 15052 H 1490.48 -1.459 -1.43437 0
M  V30 15053 H 1490.49 -1.27921 -3.87428 0
M  V30 15054 H 1489.16 -2.3446 -3.43513 0
M  V30 15055 H 1487.74 -0.531098 -3.69099 0
M  V30 15056 N 1489.92 1.30607 -0.882012 0
M  V30 15057 C 1491.17 1.95531 -0.495038 0
M  V30 15058 C 1491.49 1.70418 0.96005 0
M  V30 15059 O 1492.69 2.29301 1.45373 0
M  V30 15060 C 1491.15 3.50094 -0.834382 0
M  V30 15061 C 1490.76 3.84031 -2.30704 0
M  V30 15062 C 1492.5 4.21347 -0.516463 0
M  V30 15063 C 1490.41 5.31759 -2.58817 0
M  V30 15064 H 1489.34 0.731854 -0.181399 0
M  V30 15065 H 1491.99 1.486 -1.07658 0
M  V30 15066 H 1490.37 3.95582 -0.181961 0
M  V30 15067 H 1491.54 3.49463 -3.00353 0
M  V30 15068 H 1489.86 3.25874 -2.5922 0
M  V30 15069 H 1492.46 5.30051 -0.703576 0
M  V30 15070 H 1492.8 4.12731 0.543935 0
M  V30 15071 H 1493.33 3.81533 -1.12595 0
M  V30 15072 H 1490.07 5.45422 -3.63586 0
M  V30 15073 H 1489.59 5.67637 -1.93774 0
M  V30 15074 H 1491.27 5.9916 -2.44165 0
M  V30 15075 N 1491.4 0.642663 1.43901 0
M  V30 15076 C 1492.81 0.232809 1.85243 0
M  V30 15077 C 1493.16 -1.21834 1.53789 0
M  V30 15078 O 1492.29 -1.92855 0.981625 0
M  V30 15079 C 1492.88 0.415749 3.36239 0
M  V30 15080 C 1491.44 0.0603055 3.76352 0
M  V30 15081 C 1490.59 0.723658 2.67691 0
M  V30 15082 H 1493.54 0.847052 1.34204 0
M  V30 15083 H 1493.56 -0.341903 3.78961 0
M  V30 15084 H 1493.07 1.472 3.59101 0
M  V30 15085 H 1491.18 -0.993761 3.59103 0
M  V30 15086 H 1491.29 0.478408 4.76705 0
M  V30 15087 H 1489.65 0.15787 2.5421 0
M  V30 15088 H 1490.44 1.78273 2.93383 0
M  V30 15089 N 1492.88 -1.52852 0.383918 0
M  V30 15090 C 1494.29 -1.86477 -0.0912997 0
M  V30 15091 C 1494.64 -1.30382 -1.46611 0
M  V30 15092 O 1493.77 -0.633042 -2.06934 0
M  V30 15093 C 1494.36 -3.38361 -0.172447 0
M  V30 15094 C 1492.92 -3.71716 -0.591948 0
M  V30 15095 C 1492.07 -2.76176 0.24945 0
M  V30 15096 H 1495.02 -1.46839 0.602006 0
M  V30 15097 H 1495.04 -3.67325 -0.992603 0
M  V30 15098 H 1494.55 -3.79158 0.8283 0
M  V30 15099 H 1492.65 -3.36486 -1.60026 0
M  V30 15100 H 1492.77 -4.77792 -0.353835 0
M  V30 15101 H 1491.13 -2.53106 -0.284469 0
M  V30 15102 H 1491.91 -3.19809 1.24808 0
M  V30 15103 N 1494.36 -0.113586 -1.5719 0
M  V30 15104 C 1495.58 0.556928 -1.99783 0
M  V30 15105 C 1496.01 1.59774 -0.992669 0
M  V30 15106 O 1495.37 1.81263 0.0363821 0
M  V30 15107 C 1495.42 1.16463 -3.41275 0
M  V30 15108 O 1494.52 2.28024 -3.43626 0
M  V30 15109 H 1493.86 0.139628 -0.649153 0
M  V30 15110 H 1496.39 -0.200462 -2.03616 0
M  V30 15111 H 1496.4 1.50147 -3.79368 0
M  V30 15112 H 1495.08 0.402232 -4.1395 0
M  V30 15113 H 1493.65 1.9582 -3.17347 0
M  V30 15114 N 1495.84 1.56784 0.160173 0
M  V30 15115 C 1496.77 2.00298 1.20012 0
M  V30 15116 C 1497.75 0.880356 1.45546 0
M  V30 15117 O 1498.93 1.14724 1.56691 0
M  V30 15118 C 1496.06 2.37238 2.53645 0
M  V30 15119 C 1495.02 3.52563 2.42658 0
M  V30 15120 C 1494.34 3.75278 3.80881 0
M  V30 15121 C 1495.64 4.85657 1.92183 0
M  V30 15122 H 1497.34 2.87423 0.838362 0
M  V30 15123 H 1494.88 1.3828 0.401838 0
M  V30 15124 H 1496.84 2.66278 3.2661 0
M  V30 15125 H 1495.56 1.47035 2.9163 0
M  V30 15126 H 1494.22 3.23669 1.72146 0
M  V30 15127 H 1493.87 2.82347 4.1628 0
M  V30 15128 H 1493.57 4.52882 3.74396 0
M  V30 15129 H 1495.09 4.0673 4.55415 0
M  V30 15130 H 1496.51 5.13501 2.54931 0
M  V30 15131 H 1494.9 5.66975 1.96619 0
M  V30 15132 H 1495.97 4.76908 0.876742 0
M  V30 15133 N 1497.32 -0.429099 1.51646 0
M  V30 15134 C 1498.54 -1.20006 1.68541 0
M  V30 15135 C 1498.96 -1.84806 0.386264 0
M  V30 15136 O 1498.32 -1.7106 -0.635988 0
M  V30 15137 C 1498.37 -2.27801 2.80694 0
M  V30 15138 O 1498.09 -1.65649 4.05576 0
M  V30 15139 C 1499.59 -3.17927 3.08929 0
M  V30 15140 H 1496.81 -0.361388 0.565367 0
M  V30 15141 H 1499.35 -0.507432 1.98104 0
M  V30 15142 H 1497.51 -2.92766 2.53706 0
M  V30 15143 H 1497.92 -2.36955 4.67924 0
M  V30 15144 H 1499.4 -3.8968 3.90965 0
M  V30 15145 H 1499.87 -3.79157 2.21668 0
M  V30 15146 H 1500.48 -2.58654 3.37606 0
M  V30 15147 N 1498.79 -1.41931 -0.685074 0
M  V30 15148 C 1500.02 -1.45432 -1.47866 0
M  V30 15149 C 1500.44 -0.0641302 -1.87991 0
M  V30 15150 O 1499.8 0.935081 -1.55325 0
M  V30 15151 C 1499.85 -2.37801 -2.71077 0
M  V30 15152 O 1498.95 -1.84229 -3.68963 0
M  V30 15153 H 1498.29 -0.493156 -0.444627 0
M  V30 15154 H 1500.82 -1.86508 -0.841177 0
M  V30 15155 H 1500.83 -2.54033 -3.19266 0
M  V30 15156 H 1499.51 -3.38807 -2.41211 0
M  V30 15157 H 1498.09 -1.775 -3.27945 0
M  V30 15158 N 1500.27 0.920374 -1.27933 0
M  V30 15159 C 1501.5 1.70804 -1.17647 0
M  V30 15160 C 1501.92 1.86264 0.262189 0
M  V30 15161 O 1501.28 1.36798 1.18979 0
M  V30 15162 C 1501.33 3.08142 -1.87298 0
M  V30 15163 O 1500.43 3.95279 -1.17593 0
M  V30 15164 H 1499.77 0.523267 -0.408763 0
M  V30 15165 H 1502.3 1.15127 -1.69136 0
M  V30 15166 H 1502.31 3.58414 -1.94945 0
M  V30 15167 H 1500.99 2.96208 -2.91948 0
M  V30 15168 H 1499.56 3.53716 -1.18065 0
M  V30 15169 N 1501.75 1.10074 1.1279 0
M  V30 15170 C 1503 0.839212 1.83852 0
M  V30 15171 C 1503.32 -0.637023 1.84301 0
M  V30 15172 O 1502.59 -1.46239 1.30349 0
M  V30 15173 H 1501.17 0.307468 0.680788 0
M  V30 15174 H 1503.83 1.39025 1.36595 0
M  V30 15175 H 1502.93 1.19872 2.88162 0
M  V30 15176 N 1503.23 -1.30138 0.888926 0
M  V30 15177 C 1504.18 -2.29979 0.348212 0
M  V30 15178 C 1505.17 -1.60329 -0.546894 0
M  V30 15179 O 1506.38 -1.74767 -0.43089 0
M  V30 15180 H 1502.75 -0.746107 0.0939563 0
M  V30 15181 H 1504.72 -2.73038 1.20385 0
M  V30 15182 C 1503.47 -3.45169 -0.418762 0
M  V30 15183 H 1502.79 -3.98949 0.260761 0
M  V30 15184 H 1504.23 -4.17094 -0.762133 0
M  V30 15185 C 1502.69 -2.95539 -1.61734 0
M  V30 15186 O 1503.22 -2.95902 -2.7167 0
M  V30 15187 N 1501.43 -2.51502 -1.45585 0
M  V30 15188 H 1500.98 -2.51406 -0.561483 0
M  V30 15189 H 1500.93 -2.18654 -2.25916 0
M  V30 15190 N 1504.71 -0.650285 -1.43559 0
M  V30 15191 C 1505.93 -0.168483 -2.06715 0
M  V30 15192 C 1506.36 1.15576 -1.48404 0
M  V30 15193 O 1505.71 1.71333 -0.592842 0
M  V30 15194 C 1505.76 -0.0877095 -3.60493 0
M  V30 15195 O 1504.87 0.950915 -4.01287 0
M  V30 15196 H 1504.21 -0.0935281 -0.65738 0
M  V30 15197 H 1506.74 -0.892381 -1.84113 0
M  V30 15198 H 1506.75 0.0965825 -4.07886 0
M  V30 15199 H 1505.42 -1.05442 -4.02312 0
M  V30 15200 H 1504 0.739648 -3.65491 0
M  V30 15201 N 1506.18 1.52647 -0.392018 0
M  V30 15202 C 1507.11 2.29446 0.433228 0
M  V30 15203 C 1508.09 1.32945 1.06111 0
M  V30 15204 O 1509.28 1.61841 1.07337 0
M  V30 15205 C 1506.41 3.10328 1.55929 0
M  V30 15206 C 1505.36 4.14735 1.05731 0
M  V30 15207 C 1504.69 4.83858 2.27565 0
M  V30 15208 C 1505.99 5.22154 0.123346 0
M  V30 15209 H 1507.68 2.9868 -0.207563 0
M  V30 15210 H 1505.23 1.43643 -0.101266 0
M  V30 15211 H 1507.18 3.62814 2.14346 0
M  V30 15212 H 1505.91 2.38832 2.22771 0
M  V30 15213 H 1504.57 3.63234 0.495653 0
M  V30 15214 H 1504.21 4.08907 2.92923 0
M  V30 15215 H 1503.91 5.54428 1.94637 0
M  V30 15216 H 1505.44 5.39149 2.86619 0
M  V30 15217 H 1506.85 5.69983 0.615784 0
M  V30 15218 H 1505.25 5.99987 -0.116304 0
M  V30 15219 H 1506.32 4.77796 -0.826969 0
M  V30 15220 N 1507.66 0.121921 1.57128 0
M  V30 15221 C 1508.6 -0.864553 2.11189 0
M  V30 15222 C 1509.57 -1.25896 1.02902 0
M  V30 15223 O 1510.76 -1.3595 1.30575 0
M  V30 15224 C 1507.88 -2.15742 2.611 0
M  V30 15225 C 1506.93 -1.91085 3.81299 0
M  V30 15226 S 1507.76 -1.12448 5.23561 0
M  V30 15227 C 1508.92 -2.42908 5.76842 0
M  V30 15228 H 1509.15 -0.404737 2.94532 0
M  V30 15229 H 1506.69 -0.091909 1.54126 0
M  V30 15230 H 1508.64 -2.90024 2.9051 0
M  V30 15231 H 1507.3 -2.58841 1.77933 0
M  V30 15232 H 1506.5 -2.86889 4.1438 0
M  V30 15233 H 1506.1 -1.24922 3.5252 0
M  V30 15234 H 1508.39 -3.38728 5.86745 0
M  V30 15235 H 1509.33 -2.14367 6.74872 0
M  V30 15236 H 1509.74 -2.52409 5.04926 0
M  V30 15237 N 1509.14 -1.56867 -0.151857 0
M  V30 15238 C 1510.07 -2.00932 -1.18949 0
M  V30 15239 C 1511.05 -0.888062 -1.45077 0
M  V30 15240 O 1512.24 -1.15553 -1.56081 0
M  V30 15241 C 1509.37 -2.3858 -2.52383 0
M  V30 15242 C 1508.32 -3.53845 -2.40785 0
M  V30 15243 C 1507.65 -3.77292 -3.78886 0
M  V30 15244 C 1508.95 -4.8667 -1.89605 0
M  V30 15245 H 1510.64 -2.87863 -0.823107 0
M  V30 15246 H 1508.19 -1.38491 -0.394499 0
M  V30 15247 H 1510.14 -2.68006 -3.25193 0
M  V30 15248 H 1508.86 -1.48579 -2.90847 0
M  V30 15249 H 1507.52 -3.24577 -1.70427 0
M  V30 15250 H 1507.17 -2.84551 -4.14777 0
M  V30 15251 H 1506.87 -4.54861 -3.71989 0
M  V30 15252 H 1508.39 -4.09139 -4.53252 0
M  V30 15253 H 1509.81 -5.14846 -2.52204 0
M  V30 15254 H 1508.21 -5.6801 -1.93609 0
M  V30 15255 H 1509.28 -4.77366 -0.851438 0
M  V30 15256 N 1510.62 0.421051 -1.51871 0
M  V30 15257 C 1511.86 1.17082 -1.65589 0
M  V30 15258 C 1512.2 1.90469 -0.378861 0
M  V30 15259 O 1511.47 1.84277 0.622259 0
M  V30 15260 C 1511.76 2.17483 -2.87007 0
M  V30 15261 C 1511.61 1.48071 -4.24729 0
M  V30 15262 C 1512.93 3.18288 -3.03942 0
M  V30 15263 H 1510.05 0.424284 -0.602621 0
M  V30 15264 H 1512.69 0.457998 -1.84397 0
M  V30 15265 H 1510.84 2.78273 -2.71102 0
M  V30 15266 H 1512.51 0.904926 -4.52337 0
M  V30 15267 H 1510.75 0.782814 -4.26678 0
M  V30 15268 H 1511.42 2.21272 -5.0571 0
M  V30 15269 H 1513.9 2.67565 -3.18666 0
M  V30 15270 H 1512.78 3.85815 -3.90433 0
M  V30 15271 H 1513.04 3.85333 -2.16728 0
M  V30 15272 N 1512.1 1.42293 0.677538 0
M  V30 15273 C 1513.34 1.42616 1.4376 0
M  V30 15274 C 1513.67 0.0416268 1.94455 0
M  V30 15275 O 1512.93 -0.949544 1.7112 0
M  V30 15276 C 1513.23 2.3951 2.65273 0
M  V30 15277 C 1512.89 3.85952 2.33135 0
M  V30 15278 C 1511.55 4.25842 2.24081 0
M  V30 15279 C 1513.91 4.78337 2.06987 0
M  V30 15280 C 1511.23 5.561 1.87001 0
M  V30 15281 C 1513.59 6.08934 1.71411 0
M  V30 15282 C 1512.25 6.47826 1.60865 0
M  V30 15283 H 1511.52 0.521869 0.526055 0
M  V30 15284 H 1514.17 1.75214 0.772797 0
M  V30 15285 H 1512.47 2.00229 3.36773 0
M  V30 15286 H 1514.17 2.37025 3.2345 0
M  V30 15287 H 1510.76 3.54369 2.41083 0
M  V30 15288 H 1514.94 4.48308 2.12916 0
M  V30 15289 H 1510.2 5.85097 1.77403 0
M  V30 15290 H 1514.37 6.80009 1.50203 0
M  V30 15291 H 1512 7.48669 1.31902 0
M  V30 15292 N 1513.57 -0.913576 1.28419 0
M  V30 15293 C 1514.82 -1.66519 1.15755 0
M  V30 15294 C 1515.15 -1.91974 -0.293166 0
M  V30 15295 O 1514.43 -1.52025 -1.21321 0
M  V30 15296 C 1514.71 -3.02299 1.95672 0
M  V30 15297 C 1514.56 -2.83996 3.48807 0
M  V30 15298 C 1515.88 -4.02838 1.77226 0
M  V30 15299 H 1513 -0.604309 0.421877 0
M  V30 15300 H 1515.64 -1.05919 1.57737 0
M  V30 15301 H 1513.79 -3.54025 1.59995 0
M  V30 15302 H 1515.47 -2.39279 3.9439 0
M  V30 15303 H 1513.71 -2.19052 3.74431 0
M  V30 15304 H 1514.38 -3.80419 3.99982 0
M  V30 15305 H 1516.86 -3.60174 2.0836 0
M  V30 15306 H 1515.73 -4.95806 2.35515 0
M  V30 15307 H 1515.99 -4.36135 0.723804 0
M  V30 15308 N 1515.05 -1.1067 -1.12204 0
M  V30 15309 C 1516.28 -0.872867 -1.87586 0
M  V30 15310 C 1516.7 0.57682 -1.79773 0
M  V30 15311 O 1516.05 1.39782 -1.17334 0
M  V30 15312 C 1516.1 -1.31572 -3.36706 0
M  V30 15313 O 1515.82 -2.70856 -3.44338 0
M  V30 15314 C 1517.33 -1.11613 -4.29019 0
M  V30 15315 H 1514.55 -0.313132 -0.593455 0
M  V30 15316 H 1517.09 -1.47199 -1.4196 0
M  V30 15317 H 1515.24 -0.760212 -3.79868 0
M  V30 15318 H 1515.66 -2.89854 -4.37132 0
M  V30 15319 H 1517.13 -1.4751 -5.31925 0
M  V30 15320 H 1517.61 -0.0549698 -4.39166 0
M  V30 15321 H 1518.22 -1.65822 -3.91642 0
M  V30 15322 N 1516.53 1.29665 -0.895815 0
M  V30 15323 C 1517.81 1.90601 -0.439394 0
M  V30 15324 C 1518.19 1.81341 1.08068 0
M  V30 15325 O 1517.54 1.23761 1.92082 0
M  V30 15326 C 1517.75 3.35832 -0.949622 0
M  V30 15327 C 1519.09 4.12873 -0.991015 0
M  V30 15328 O 1520.12 3.4472 -0.897025 0
M  V30 15329 O 1518.98 5.34656 -1.1316 0
M  V30 15330 H 1516.07 0.81569 -0.136304 0
M  V30 15331 H 1518.62 1.38157 -0.985426 0
M  V30 15332 H 1517.39 3.36708 -1.99357 0
M  V30 15333 H 1517.01 3.95747 -0.383376 0
M  V30 15334 N 1518.01 0.657889 1.43212 0
M  V30 15335 C 1519.23 0.179444 2.06622 0
M  V30 15336 C 1519.66 -1.14787 1.49015 0
M  V30 15337 O 1519.02 -1.71016 0.60192 0
M  V30 15338 C 1519.06 0.106826 3.60442 0
M  V30 15339 O 1518.17 -0.92962 4.01786 0
M  V30 15340 H 1517.51 0.0970131 0.656875 0
M  V30 15341 H 1520.04 0.902132 1.83638 0
M  V30 15342 H 1520.05 -0.07495 4.07931 0
M  V30 15343 H 1518.72 1.07574 4.01747 0
M  V30 15344 H 1517.3 -0.720255 3.65878 0
M  V30 15345 N 1519.49 -1.52437 0.400108 0
M  V30 15346 C 1520.76 -1.94162 -0.23671 0
M  V30 15347 C 1521.14 -1.33636 -1.63416 0
M  V30 15348 O 1520.49 -0.508643 -2.22767 0
M  V30 15349 C 1520.7 -3.48088 -0.252159 0
M  V30 15350 C 1522.05 -4.21925 -0.475887 0
M  V30 15351 O 1523.07 -3.5465 -0.331905 0
M  V30 15352 O 1521.93 -5.41205 -0.758895 0
M  V30 15353 H 1519.03 -0.813294 -0.14994 0
M  V30 15354 H 1521.57 -1.63475 0.455399 0
M  V30 15355 H 1520.34 -3.84501 0.726263 0
M  V30 15356 H 1519.97 -3.8511 -0.988742 0
M  V30 15357 N 1520.96 -0.130252 -1.57061 0
M  V30 15358 C 1521.89 0.812189 -2.18919 0
M  V30 15359 C 1522.88 1.2692 -1.13249 0
M  V30 15360 O 1524.06 1.32978 -1.41529 0
M  V30 15361 C 1521.19 2.05803 -2.79754 0
M  V30 15362 C 1520.14 1.73841 -3.91105 0
M  V30 15363 C 1519.47 3.05549 -4.38799 0
M  V30 15364 C 1520.77 0.997991 -5.12677 0
M  V30 15365 H 1522.46 0.296692 -2.97926 0
M  V30 15366 H 1520.01 0.141265 -1.43305 0
M  V30 15367 H 1521.96 2.72201 -3.21691 0
M  V30 15368 H 1520.69 2.59697 -1.98053 0
M  V30 15369 H 1519.35 1.09828 -3.49762 0
M  V30 15370 H 1518.99 3.57399 -3.53942 0
M  V30 15371 H 1518.69 2.84932 -5.13894 0
M  V30 15372 H 1520.22 3.73045 -4.83394 0
M  V30 15373 H 1521.63 1.56372 -5.51562 0
M  V30 15374 H 1520.03 0.892378 -5.93428 0
M  V30 15375 H 1521.1 -0.0132936 -4.84898 0
M  V30 15376 N 1522.44 1.56945 0.143535 0
M  V30 15377 C 1523.41 1.97616 1.16106 0
M  V30 15378 C 1524.41 0.863113 1.35672 0
M  V30 15379 O 1525.6 1.12966 1.32606 0
M  V30 15380 C 1522.73 2.29511 2.52067 0
M  V30 15381 H 1523.92 2.88696 0.812066 0
M  V30 15382 H 1521.47 1.51433 0.386999 0
M  V30 15383 H 1522.21 1.41233 2.91931 0
M  V30 15384 H 1521.99 3.10667 2.39225 0
M  V30 15385 H 1523.48 2.61802 3.25345 0
M  V30 15386 N 1523.92 -0.412991 1.52093 0
M  V30 15387 C 1525.15 -1.1804 1.69558 0
M  V30 15388 C 1525.56 -1.84858 0.403007 0
M  V30 15389 O 1524.9 -1.72541 -0.630506 0
M  V30 15390 C 1524.96 -2.28876 2.7723 0
M  V30 15391 C 1524.63 -1.82226 4.19098 0
M  V30 15392 C 1525.63 -1.31216 5.03069 0
M  V30 15393 C 1523.31 -1.89177 4.65314 0
M  V30 15394 C 1525.3 -0.877743 6.31328 0
M  V30 15395 C 1522.99 -1.45347 5.93563 0
M  V30 15396 C 1523.99 -0.947302 6.76399 0
M  V30 15397 O 1523.68 -0.515315 8.02247 0
M  V30 15398 H 1523.41 -0.360882 0.571612 0
M  V30 15399 H 1525.96 -0.492521 1.99408 0
M  V30 15400 H 1524.19 -3.01015 2.42748 0
M  V30 15401 H 1525.88 -2.9065 2.83333 0
M  V30 15402 H 1526.65 -1.25221 4.68556 0
M  V30 15403 H 1522.53 -2.27518 4.00945 0
M  V30 15404 H 1526.07 -0.481977 6.95933 0
M  V30 15405 H 1521.97 -1.51019 6.27585 0
M  V30 15406 H 1522.74 -0.638973 8.16002 0
M  V30 15407 N 1525.4 -1.4265 -0.669982 0
M  V30 15408 C 1526.31 -1.48916 -1.81276 0
M  V30 15409 C 1527.33 -0.377523 -1.69855 0
M  V30 15410 O 1528.5 -0.629151 -1.91321 0
M  V30 15411 C 1525.57 -1.39376 -3.17451 0
M  V30 15412 C 1524.63 -2.61072 -3.40793 0
M  V30 15413 C 1523.86 -2.51976 -4.70472 0
M  V30 15414 O 1524.08 -1.55827 -5.48702 0
M  V30 15415 O 1523.02 -3.42193 -4.95164 0
M  V30 15416 H 1526.84 -2.45382 -1.78945 0
M  V30 15417 H 1524.43 -1.24467 -0.826342 0
M  V30 15418 H 1526.31 -1.36435 -3.98702 0
M  V30 15419 H 1524.99 -0.460376 -3.20409 0
M  V30 15420 H 1523.89 -2.69587 -2.59372 0
M  V30 15421 H 1525.23 -3.53325 -3.42669 0
M  V30 15422 N 1526.88 0.906753 -1.28902 0
M  V30 15423 C 1528.13 1.6533 -1.16234 0
M  V30 15424 C 1528.45 1.92861 0.288004 0
M  V30 15425 O 1527.72 1.54971 1.19837 0
M  V30 15426 H 1526.3 0.612806 -0.427174 0
M  V30 15427 H 1528.96 1.08764 -1.6173 0
M  V30 15428 H 1528.05 2.61271 -1.70715 0
M  V30 15429 N 1528.36 1.11264 1.11616 0
M  V30 15430 C 1529.6 0.860364 1.83314 0
M  V30 15431 C 1529.93 -0.614011 1.84554 0
M  V30 15432 O 1529.19 -1.4692 1.29279 0
M  V30 15433 C 1529.48 1.36481 3.30315 0
M  V30 15434 C 1529.15 2.85209 3.49237 0
M  V30 15435 C 1527.81 3.25822 3.54109 0
M  V30 15436 C 1530.16 3.81009 3.55642 0
M  V30 15437 C 1527.49 4.60968 3.62941 0
M  V30 15438 C 1529.84 5.15968 3.66005 0
M  V30 15439 C 1528.51 5.56142 3.69137 0
M  V30 15440 H 1527.78 0.314829 0.670793 0
M  V30 15441 H 1530.43 1.39073 1.31647 0
M  V30 15442 H 1528.73 0.754639 3.84464 0
M  V30 15443 H 1530.43 1.14597 3.84276 0
M  V30 15444 H 1527.02 2.52791 3.46114 0
M  V30 15445 H 1531.2 3.50734 3.5114 0
M  V30 15446 H 1526.46 4.91503 3.63641 0
M  V30 15447 H 1530.63 5.90037 3.69904 0
M  V30 15448 H 1528.26 6.60855 3.75732 0
M  V30 15449 N 1529.83 -1.29188 0.902679 0
M  V30 15450 C 1530.76 -2.3006 0.399357 0
M  V30 15451 C 1531.74 -1.61724 -0.527199 0
M  V30 15452 O 1532.93 -1.89213 -0.437293 0
M  V30 15453 C 1530.06 -3.45309 -0.371331 0
M  V30 15454 C 1529.01 -4.25466 0.465068 0
M  V30 15455 C 1528.34 -5.32941 -0.433295 0
M  V30 15456 C 1529.64 -4.93287 1.71655 0
M  V30 15457 H 1531.33 -2.72409 1.24233 0
M  V30 15458 H 1528.88 -1.30958 0.598822 0
M  V30 15459 H 1530.83 -4.14955 -0.734207 0
M  V30 15460 H 1529.56 -3.01811 -1.24811 0
M  V30 15461 H 1528.22 -3.57532 0.810315 0
M  V30 15462 H 1527.86 -4.85688 -1.3083 0
M  V30 15463 H 1527.56 -5.87472 0.122657 0
M  V30 15464 H 1529.09 -6.05438 -0.792298 0
M  V30 15465 H 1530.5 -5.55353 1.42323 0
M  V30 15466 H 1528.9 -5.57763 2.21405 0
M  V30 15467 H 1529.97 -4.18406 2.45081 0
M  V30 15468 N 1531.31 -0.665475 -1.42861 0
M  V30 15469 C 1532.56 -0.181149 -2.00885 0
M  V30 15470 C 1532.87 1.21629 -1.53186 0
M  V30 15471 O 1534.08 1.79648 -2.03565 0
M  V30 15472 C 1532.54 -0.273017 -3.58863 0
M  V30 15473 C 1532.14 -1.67392 -4.15553 0
M  V30 15474 C 1533.89 0.153075 -4.24224 0
M  V30 15475 C 1531.79 -1.71905 -5.65864 0
M  V30 15476 H 1530.72 -0.0639619 -0.751282 0
M  V30 15477 H 1533.38 -0.829299 -1.63691 0
M  V30 15478 H 1531.76 0.44286 -3.93516 0
M  V30 15479 H 1532.93 -2.41613 -3.92377 0
M  V30 15480 H 1531.25 -2.04704 -3.62609 0
M  V30 15481 H 1533.84 0.139369 -5.34518 0
M  V30 15482 H 1534.19 1.1867 -3.99028 0
M  V30 15483 H 1534.72 -0.511472 -3.94498 0
M  V30 15484 H 1531.46 -2.73218 -5.95846 0
M  V30 15485 H 1530.98 -1.02027 -5.91059 0
M  V30 15486 H 1532.66 -1.46829 -6.30119 0
M  V30 15487 N 1532.79 1.52222 -0.408187 0
M  V30 15488 C 1533.74 2.28544 0.432458 0
M  V30 15489 C 1534.73 1.33198 1.04665 0
M  V30 15490 O 1535.94 1.50661 0.984954 0
M  V30 15491 H 1532.31 0.735162 0.158241 0
M  V30 15492 H 1534.28 2.97493 -0.232482 0
M  V30 15493 C 1533.03 3.11864 1.53741 0
M  V30 15494 H 1532.36 3.851 1.07414 0
M  V30 15495 H 1533.8 3.68374 2.09945 0
M  V30 15496 C 1532.25 2.25367 2.50423 0
M  V30 15497 O 1532.78 1.89329 3.54285 0
M  V30 15498 N 1530.99 1.89155 2.2061 0
M  V30 15499 H 1530.54 2.18661 1.36181 0
M  V30 15500 H 1530.5 1.31574 2.85544 0
M  V30 15501 N 1534.27 0.138579 1.5699 0
M  V30 15502 C 1535.5 -0.521049 1.99922 0
M  V30 15503 C 1535.91 -1.59508 1.01754 0
M  V30 15504 O 1535.25 -1.83699 0.00521913 0
M  V30 15505 C 1535.31 -1.18856 3.39284 0
M  V30 15506 C 1534.97 -0.260145 4.56259 0
M  V30 15507 C 1535.97 0.508919 5.17403 0
M  V30 15508 C 1533.66 -0.165504 5.02027 0
M  V30 15509 C 1535.65 1.36016 6.22719 0
M  V30 15510 C 1533.34 0.689346 6.07199 0
M  V30 15511 C 1534.34 1.45079 6.67414 0
M  V30 15512 O 1534.02 2.29141 7.70551 0
M  V30 15513 H 1533.76 -0.140889 0.661155 0
M  V30 15514 H 1536.31 0.227618 2.04135 0
M  V30 15515 H 1534.54 -1.9847 3.31883 0
M  V30 15516 H 1536.23 -1.74706 3.66377 0
M  V30 15517 H 1536.99 0.445787 4.82947 0
M  V30 15518 H 1532.87 -0.747903 4.54893 0
M  V30 15519 H 1536.42 1.95496 6.69647 0
M  V30 15520 H 1532.31 0.7538 6.41084 0
M  V30 15521 H 1533.08 2.22296 7.87735 0
M  V30 15522 N 1535.75 -1.57019 -0.13521 0
M  V30 15523 C 1536.66 -2.02427 -1.18578 0
M  V30 15524 C 1537.67 -0.941738 -1.46312 0
M  V30 15525 O 1538.85 -1.25208 -1.57749 0
M  V30 15526 C 1535.91 -2.40577 -2.49647 0
M  V30 15527 C 1534.97 -3.62835 -2.29455 0
M  V30 15528 C 1534.21 -3.99156 -3.54274 0
M  V30 15529 O 1534.43 -3.36001 -4.60933 0
M  V30 15530 O 1533.36 -4.92345 -3.46238 0
M  V30 15531 H 1537.19 -2.92131 -0.830237 0
M  V30 15532 H 1534.77 -1.45366 -0.344814 0
M  V30 15533 H 1536.66 -2.65922 -3.269 0
M  V30 15534 H 1535.33 -1.54023 -2.84708 0
M  V30 15535 H 1534.24 -3.42661 -1.50114 0
M  V30 15536 H 1535.57 -4.50043 -1.99305 0
M  V30 15537 N 1537.22 0.404919 -1.52309 0
M  V30 15538 C 1538.19 1.47627 -1.75325 0
M  V30 15539 C 1539.19 1.48234 -0.623153 0
M  V30 15540 O 1540.38 1.49685 -0.891069 0
M  V30 15541 C 1537.51 2.87013 -1.83947 0
M  V30 15542 H 1538.7 1.2851 -2.70971 0
M  V30 15543 H 1536.26 0.635677 -1.42789 0
M  V30 15544 H 1536.99 3.11495 -0.902309 0
M  V30 15545 H 1536.78 2.87974 -2.66108 0
M  V30 15546 H 1538.27 3.64671 -2.03481 0
M  V30 15547 N 1538.7 1.43003 0.662408 0
M  V30 15548 C 1539.95 1.43422 1.41821 0
M  V30 15549 C 1540.26 0.0586909 1.95512 0
M  V30 15550 O 1541.47 -0.0596978 2.71434 0
M  V30 15551 C 1539.93 2.52344 2.56613 0
M  V30 15552 C 1539.53 3.95961 2.09569 0
M  V30 15553 C 1541.28 2.61945 3.34044 0
M  V30 15554 C 1539.19 4.96367 3.21518 0
M  V30 15555 H 1538.12 0.533485 0.532832 0
M  V30 15556 H 1540.77 1.68958 0.715911 0
M  V30 15557 H 1539.15 2.19993 3.2927 0
M  V30 15558 H 1540.32 4.37728 1.43984 0
M  V30 15559 H 1538.64 3.90322 1.45044 0
M  V30 15560 H 1541.23 3.34137 4.17441 0
M  V30 15561 H 1541.58 1.66708 3.81463 0
M  V30 15562 H 1542.11 2.93552 2.68463 0
M  V30 15563 H 1538.85 5.93124 2.79077 0
M  V30 15564 H 1538.37 4.59221 3.85845 0
M  V30 15565 H 1540.05 5.18652 3.86793 0
M  V30 15566 N 1540.18 -0.899904 1.29381 0
M  V30 15567 C 1541.41 -1.68911 1.20349 0
M  V30 15568 C 1541.83 -1.86657 -0.232523 0
M  V30 15569 O 1541.19 -1.38674 -1.16787 0
M  V30 15570 C 1541.24 -3.05124 1.92177 0
M  V30 15571 O 1540.34 -3.93358 1.23867 0
M  V30 15572 H 1539.68 -0.516698 0.417036 0
M  V30 15573 H 1542.21 -1.12422 1.70946 0
M  V30 15574 H 1542.22 -3.55267 2.00623 0
M  V30 15575 H 1540.9 -2.91525 2.96624 0
M  V30 15576 H 1539.47 -3.51793 1.23677 0
M  V30 15577 N 1541.66 -1.11854 -1.11024 0
M  V30 15578 C 1542.62 -0.784033 -2.15373 0
M  V30 15579 C 1543.62 0.198686 -1.59568 0
M  V30 15580 O 1544.81 -0.0263428 -1.7418 0
M  V30 15581 C 1541.94 -0.163987 -3.40505 0
M  V30 15582 H 1543.14 -1.70849 -2.46477 0
M  V30 15583 H 1540.69 -0.920988 -1.26283 0
M  V30 15584 H 1541.42 0.770483 -3.15014 0
M  V30 15585 H 1541.21 -0.871447 -3.82293 0
M  V30 15586 H 1542.7 0.0537739 -4.17565 0
M  V30 15587 N 1543.14 1.28707 -0.909517 0
M  V30 15588 C 1544.1 2.25692 -0.39946 0
M  V30 15589 C 1545.1 1.53721 0.471848 0
M  V30 15590 O 1546.29 1.72008 0.275504 0
M  V30 15591 C 1543.42 3.38205 0.427793 0
M  V30 15592 H 1544.61 2.72326 -1.25613 0
M  V30 15593 H 1542.17 1.40317 -0.688535 0
M  V30 15594 H 1542.9 2.96926 1.30404 0
M  V30 15595 H 1542.69 3.91606 -0.19667 0
M  V30 15596 H 1544.18 4.10334 0.775634 0
M  V30 15597 N 1544.61 0.673042 1.42506 0
M  V30 15598 C 1545.84 0.202922 2.05902 0
M  V30 15599 C 1546.26 -1.13923 1.50556 0
M  V30 15600 O 1545.61 -1.70735 0.644662 0
M  V30 15601 C 1545.67 0.12735 3.61276 0
M  V30 15602 O 1545.39 1.41646 4.1457 0
M  V30 15603 C 1546.89 -0.366477 4.41783 0
M  V30 15604 H 1544.11 0.0991021 0.663641 0
M  V30 15605 H 1546.65 0.919282 1.82673 0
M  V30 15606 H 1544.81 -0.539687 3.83622 0
M  V30 15607 H 1545.22 1.28866 5.08423 0
M  V30 15608 H 1546.69 -0.368267 5.5077 0
M  V30 15609 H 1547.17 -1.40142 4.16241 0
M  V30 15610 H 1547.78 0.268761 4.2445 0
M  V30 15611 N 1546.09 -1.52004 0.416254 0
M  V30 15612 C 1547.06 -2.2579 -0.393882 0
M  V30 15613 C 1548.06 -1.28427 -0.967637 0
M  V30 15614 O 1549.25 -1.52311 -0.845396 0
M  V30 15615 C 1546.38 -3.03361 -1.55515 0
M  V30 15616 H 1547.57 -2.98835 0.252492 0
M  V30 15617 H 1545.12 -1.55384 0.168929 0
M  V30 15618 H 1545.86 -2.34682 -2.23818 0
M  V30 15619 H 1545.64 -3.74852 -1.15015 0
M  V30 15620 H 1547.13 -3.5931 -2.12805 0
M  V30 15621 N 1547.57 -0.146903 -1.56914 0
M  V30 15622 C 1548.81 0.506985 -1.98013 0
M  V30 15623 C 1549.17 1.62043 -1.02985 0
M  V30 15624 O 1550.38 2.33517 -1.33128 0
M  V30 15625 C 1548.65 1.00023 -3.43118 0
M  V30 15626 S 1550.21 1.65873 -4.06241 0
M  V30 15627 H 1547.02 0.163927 -0.691845 0
M  V30 15628 H 1549.63 -0.238594 -1.94039 0
M  V30 15629 H 1548.33 0.179091 -4.10009 0
M  V30 15630 H 1547.86 1.78043 -3.50805 0
M  V30 15631 H 1549.88 2.94595 -3.99285 0
M  V30 15632 N 1549.05 1.57088 0.126881 0
M  V30 15633 C 1549.98 2.02799 1.15737 0
M  V30 15634 C 1550.96 0.911031 1.43646 0
M  V30 15635 O 1552.14 1.18021 1.54223 0
M  V30 15636 C 1549.27 2.42565 2.48555 0
M  V30 15637 C 1548.23 3.57631 2.35125 0
M  V30 15638 C 1547.55 3.83272 3.72836 0
M  V30 15639 C 1548.85 4.89625 1.81838 0
M  V30 15640 H 1550.55 2.89136 0.777207 0
M  V30 15641 H 1548.09 1.39101 0.372416 0
M  V30 15642 H 1550.05 2.73146 3.20888 0
M  V30 15643 H 1548.77 1.53188 2.88446 0
M  V30 15644 H 1547.43 3.27247 1.65242 0
M  V30 15645 H 1547.08 2.91114 4.10197 0
M  V30 15646 H 1546.78 4.60721 3.64705 0
M  V30 15647 H 1548.3 4.16298 4.46686 0
M  V30 15648 H 1549.72 5.18793 2.43981 0
M  V30 15649 H 1548.11 5.71018 1.84548 0
M  V30 15650 H 1549.18 4.7866 0.775385 0
M  V30 15651 N 1550.53 -0.396836 1.52522 0
M  V30 15652 C 1551.46 -1.50361 1.72986 0
M  V30 15653 C 1552.47 -1.50928 0.610289 0
M  V30 15654 O 1553.66 -1.54972 0.88578 0
M  V30 15655 C 1550.76 -2.89229 1.76635 0
M  V30 15656 C 1549.93 -3.12715 3.05824 0
M  V30 15657 C 1548.99 -4.31523 3.01122 0
M  V30 15658 O 1548.02 -4.28207 3.75004 0
M  V30 15659 N 1549.22 -5.37294 2.19763 0
M  V30 15660 H 1551.99 -1.33196 2.68475 0
M  V30 15661 H 1549.55 -0.586269 1.50912 0
M  V30 15662 H 1551.54 -3.66796 1.71006 0
M  V30 15663 H 1550.11 -2.99791 0.885667 0
M  V30 15664 H 1549.33 -2.23083 3.25004 0
M  V30 15665 H 1550.62 -3.25257 3.91261 0
M  V30 15666 H 1550.01 -5.4284 1.5919 0
M  V30 15667 H 1548.57 -6.13557 2.19981 0
M  V30 15668 N 1552.01 -1.43353 -0.654814 0
M  V30 15669 C 1553.28 -1.35363 -1.41195 0
M  V30 15670 C 1553.66 -0.000661523 -2.111 0
M  V30 15671 O 1553.01 1.01583 -2.04678 0
M  V30 15672 C 1553.22 -2.53572 -2.39796 0
M  V30 15673 C 1554.57 -2.96587 -3.03844 0
M  V30 15674 O 1555.59 -2.53607 -2.50124 0
M  V30 15675 O 1554.45 -3.71039 -4.01239 0
M  V30 15676 H 1551.55 -0.534861 -0.630756 0
M  V30 15677 H 1554.09 -1.55399 -0.681857 0
M  V30 15678 H 1552.86 -3.43682 -1.87078 0
M  V30 15679 H 1552.49 -2.35628 -3.20258 0
M  V30 15680 N 1553.48 0.89303 -1.29857 0
M  V30 15681 C 1554.71 1.675 -1.20943 0
M  V30 15682 C 1555.12 1.87779 0.231435 0
M  V30 15683 O 1554.46 1.41955 1.16596 0
M  V30 15684 C 1554.53 3.07722 -1.8587 0
M  V30 15685 C 1554.19 3.10647 -3.35182 0
M  V30 15686 C 1555.19 2.903 -4.31303 0
M  V30 15687 C 1552.87 3.32501 -3.76495 0
M  V30 15688 C 1554.87 2.91749 -5.66711 0
M  V30 15689 C 1552.55 3.33581 -5.12022 0
M  V30 15690 C 1553.55 3.13228 -6.06941 0
M  V30 15691 O 1553.24 3.14109 -7.39994 0
M  V30 15692 H 1552.97 0.529708 -0.419982 0
M  V30 15693 H 1555.53 1.12466 -1.71874 0
M  V30 15694 H 1553.76 3.64386 -1.29459 0
M  V30 15695 H 1555.44 3.68035 -1.71187 0
M  V30 15696 H 1556.21 2.73221 -4.00718 0
M  V30 15697 H 1552.09 3.47381 -3.03064 0
M  V30 15698 H 1555.63 2.75782 -6.40773 0
M  V30 15699 H 1551.53 3.50193 -5.4225 0
M  V30 15700 H 1552.3 3.3033 -7.48882 0
M  V30 15701 N 1554.96 1.12442 1.10429 0
M  V30 15702 C 1556.19 0.902599 1.86174 0
M  V30 15703 C 1556.6 -0.548147 1.80668 0
M  V30 15704 O 1555.96 -1.37898 1.19543 0
M  V30 15705 C 1556.01 1.36912 3.34571 0
M  V30 15706 O 1555.73 2.763 3.39985 0
M  V30 15707 C 1557.23 1.18424 4.27189 0
M  V30 15708 H 1554.45 0.322534 0.588399 0
M  V30 15709 H 1557 1.49439 1.396 0
M  V30 15710 H 1555.15 0.82055 3.7861 0
M  V30 15711 H 1555.57 2.96772 4.32466 0
M  V30 15712 H 1557.04 1.55954 5.29511 0
M  V30 15713 H 1557.52 0.12483 4.39023 0
M  V30 15714 H 1558.12 1.72032 3.88954 0
M  V30 15715 N 1556.44 -1.28223 0.91633 0
M  V30 15716 C 1557.72 -1.89878 0.469661 0
M  V30 15717 C 1558.1 -1.83037 -1.05169 0
M  V30 15718 O 1557.44 -1.26801 -1.90088 0
M  V30 15719 C 1557.65 -3.34279 1.00293 0
M  V30 15720 C 1559 -4.11244 1.05657 0
M  V30 15721 O 1560.03 -3.43249 0.951753 0
M  V30 15722 O 1558.89 -5.32788 1.21652 0
M  V30 15723 H 1555.98 -0.813418 0.149263 0
M  V30 15724 H 1558.53 -1.36572 1.00728 0
M  V30 15725 H 1557.3 -3.33494 2.04688 0
M  V30 15726 H 1556.92 -3.95087 0.446287 0
M  V30 15727 N 1557.92 -0.68059 -1.42147 0
M  V30 15728 C 1559.19 -0.133957 -1.95141 0
M  V30 15729 C 1559.57 1.3526 -1.62074 0
M  V30 15730 O 1558.92 2.09165 -0.919898 0
M  V30 15731 C 1559.13 -0.409266 -3.46592 0
M  V30 15732 C 1560.48 -0.328899 -4.23324 0
M  V30 15733 O 1561.5 -0.343337 -3.54541 0
M  V30 15734 O 1560.36 -0.276076 -5.45802 0
M  V30 15735 H 1557.46 -0.00623443 -0.826977 0
M  V30 15736 H 1560 -0.755719 -1.51944 0
M  V30 15737 H 1558.78 -1.43883 -3.63887 0
M  V30 15738 H 1558.4 0.244216 -3.96849 0
M  V30 15739 N 1559.4 1.51781 -0.424309 0
M  V30 15740 C 1560.33 2.30313 0.384462 0
M  V30 15741 C 1561.31 1.35166 1.03268 0
M  V30 15742 O 1562.49 1.64081 1.0388 0
M  V30 15743 C 1559.62 3.13566 1.49311 0
M  V30 15744 C 1558.58 4.16884 0.969096 0
M  V30 15745 C 1557.9 4.88576 2.17251 0
M  V30 15746 C 1559.2 5.22298 0.0125613 0
M  V30 15747 H 1560.9 2.98172 -0.270871 0
M  V30 15748 H 1558.44 1.43396 -0.131712 0
M  V30 15749 H 1560.39 3.67279 2.06602 0
M  V30 15750 H 1559.12 2.43504 2.17655 0
M  V30 15751 H 1557.78 3.64203 0.418494 0
M  V30 15752 H 1557.43 4.15029 2.84183 0
M  V30 15753 H 1557.13 5.58432 1.82833 0
M  V30 15754 H 1558.65 5.45107 2.75119 0
M  V30 15755 H 1560.06 5.71161 0.494744 0
M  V30 15756 H 1558.46 5.99606 -0.243544 0
M  V30 15757 H 1559.53 4.75935 -0.92813 0
M  V30 15758 N 1560.87 0.155222 1.56834 0
M  V30 15759 C 1562.12 -0.49285 1.95998 0
M  V30 15760 C 1562.44 -1.64857 1.0415 0
M  V30 15761 O 1561.71 -1.9562 0.104654 0
M  V30 15762 H 1560.29 -0.185063 0.723713 0
M  V30 15763 H 1562.95 0.232644 1.93507 0
M  V30 15764 H 1562.05 -0.863552 2.99915 0
M  V30 15765 N 1562.35 -1.57153 -0.118549 0
M  V30 15766 C 1563.58 -1.89062 -0.840429 0
M  V30 15767 C 1563.99 -0.746516 -1.73414 0
M  V30 15768 O 1563.35 0.282638 -1.80298 0
M  V30 15769 C 1563.4 -3.20433 -1.67347 0
M  V30 15770 O 1563.12 -4.30439 -0.815739 0
M  V30 15771 C 1564.62 -3.66048 -2.50047 0
M  V30 15772 H 1561.84 -0.626005 -0.241575 0
M  V30 15773 H 1564.39 -2.04241 -0.102804 0
M  V30 15774 H 1562.54 -3.06922 -2.36385 0
M  V30 15775 H 1562.96 -5.05736 -1.39037 0
M  V30 15776 H 1564.43 -4.60729 -3.04028 0
M  V30 15777 H 1564.91 -2.92727 -3.27426 0
M  V30 15778 H 1565.51 -3.82349 -1.86251 0
M  V30 15779 N 1563.83 0.388742 -1.5273 0
M  V30 15780 C 1565.08 1.13375 -1.67787 0
M  V30 15781 C 1565.4 1.89957 -0.417925 0
M  V30 15782 O 1564.66 1.86286 0.599682 0
M  V30 15783 C 1564.96 2.13792 -2.86405 0
M  V30 15784 C 1564.62 1.53865 -4.23835 0
M  V30 15785 C 1563.29 1.37248 -4.61212 0
M  V30 15786 C 1565.64 1.10298 -5.09395 0
M  V30 15787 C 1562.97 0.756119 -5.81807 0
M  V30 15788 C 1565.32 0.500723 -6.30615 0
M  V30 15789 C 1563.98 0.321851 -6.66724 0
M  V30 15790 H 1563.25 0.414868 -0.613975 0
M  V30 15791 H 1565.9 0.418351 -1.86874 0
M  V30 15792 H 1564.2 2.91551 -2.61735 0
M  V30 15793 H 1565.9 2.71346 -2.95249 0
M  V30 15794 H 1562.49 1.67787 -3.94393 0
M  V30 15795 H 1566.68 1.21938 -4.81087 0
M  V30 15796 H 1561.93 0.605734 -6.08392 0
M  V30 15797 H 1566.11 0.154839 -6.96228 0
M  V30 15798 H 1563.73 -0.157836 -7.60036 0
M  V30 15799 N 1565.31 1.43698 0.647203 0
M  V30 15800 C 1566.54 1.49085 1.43462 0
M  V30 15801 C 1566.95 0.110605 1.88476 0
M  V30 15802 O 1566.31 -0.880365 1.59862 0
M  V30 15803 C 1566.36 2.44186 2.66562 0
M  V30 15804 O 1566.08 3.76844 2.23429 0
M  V30 15805 C 1567.58 2.58876 3.59858 0
M  V30 15806 H 1564.8 0.506148 0.440517 0
M  V30 15807 H 1567.34 1.88502 0.792931 0
M  V30 15808 H 1565.5 2.07949 3.26858 0
M  V30 15809 H 1565.91 4.2804 3.0312 0
M  V30 15810 H 1567.39 3.29482 4.42883 0
M  V30 15811 H 1567.86 1.63567 4.07606 0
M  V30 15812 H 1568.47 2.95949 3.05441 0
M  V30 15813 N 1566.79 -0.886131 1.30328 0
M  V30 15814 C 1568.01 -1.67625 1.22134 0
M  V30 15815 C 1568.44 -1.86893 -0.212712 0
M  V30 15816 O 1567.79 -1.39905 -1.1531 0
M  V30 15817 C 1567.84 -3.03068 1.95402 0
M  V30 15818 O 1566.95 -3.92022 1.28032 0
M  V30 15819 H 1566.29 -0.512246 0.422493 0
M  V30 15820 H 1568.82 -1.10602 1.72129 0
M  V30 15821 H 1568.83 -3.53119 2.04379 0
M  V30 15822 H 1567.5 -2.88363 2.99699 0
M  V30 15823 H 1566.08 -3.50461 1.27402 0
M  V30 15824 N 1568.26 -1.13026 -1.09832 0
M  V30 15825 C 1569.68 -0.902826 -1.6342 0
M  V30 15826 C 1570.03 0.561547 -1.87992 0
M  V30 15827 O 1569.15 1.42735 -1.62652 0
M  V30 15828 C 1569.75 -1.6324 -2.96881 0
M  V30 15829 C 1568.31 -1.45095 -3.4731 0
M  V30 15830 C 1567.45 -1.66431 -2.21802 0
M  V30 15831 H 1570.4 -1.28414 -0.932492 0
M  V30 15832 H 1570.42 -1.08706 -3.64641 0
M  V30 15833 H 1569.94 -2.69816 -2.78964 0
M  V30 15834 H 1568.04 -0.408031 -3.70359 0
M  V30 15835 H 1568.15 -2.21123 -4.25019 0
M  V30 15836 H 1566.51 -1.08885 -2.30252 0
M  V30 15837 H 1567.3 -2.74317 -2.0641 0
M  V30 15838 N 1569.74 1.27735 -0.923117 0
M  V30 15839 C 1570.69 2.28975 -0.409065 0
M  V30 15840 C 1571.68 1.61723 0.504194 0
M  V30 15841 O 1572.89 1.75848 0.384402 0
M  V30 15842 H 1569.27 0.743354 -0.113705 0
M  V30 15843 H 1571.24 2.69751 -1.27582 0
M  V30 15844 C 1569.99 3.46158 0.327099 0
M  V30 15845 H 1569.31 3.98117 -0.366444 0
M  V30 15846 H 1570.75 4.18968 0.65128 0
M  V30 15847 C 1569.21 2.99724 1.53842 0
M  V30 15848 O 1569.74 3.03001 2.6373 0
M  V30 15849 N 1567.94 2.55274 1.38865 0
M  V30 15850 H 1567.49 2.52807 0.494629 0
M  V30 15851 H 1567.45 2.24567 2.20039 0
M  V30 15852 N 1571.22 0.688118 1.41784 0
M  V30 15853 C 1572.47 0.215944 2.01345 0
M  V30 15854 C 1572.8 -1.18197 1.54466 0
M  V30 15855 O 1572.05 -1.81032 0.743374 0
M  V30 15856 C 1572.35 0.213747 3.5676 0
M  V30 15857 C 1572.02 1.55816 4.23122 0
M  V30 15858 C 1570.68 1.92623 4.40964 0
M  V30 15859 C 1573.03 2.44297 4.604 0
M  V30 15860 C 1570.36 3.17511 4.93359 0
M  V30 15861 C 1572.71 3.68511 5.14182 0
M  V30 15862 C 1571.37 4.0547 5.30236 0
M  V30 15863 H 1570.64 0.0790193 0.736775 0
M  V30 15864 H 1573.29 0.885737 1.69785 0
M  V30 15865 H 1571.6 -0.539583 3.88067 0
M  V30 15866 H 1573.29 -0.169004 4.00644 0
M  V30 15867 H 1569.88 1.26186 4.09604 0
M  V30 15868 H 1574.07 2.17143 4.46277 0
M  V30 15869 H 1569.32 3.46151 5.03973 0
M  V30 15870 H 1573.5 4.37264 5.42008 0
M  V30 15871 H 1571.12 5.02316 5.70598 0
M  V30 15872 N 1572.7 -1.51554 0.432352 0
M  V30 15873 C 1574.11 -1.86673 -0.0319274 0
M  V30 15874 C 1574.46 -1.34981 -1.42389 0
M  V30 15875 O 1573.59 -0.698556 -2.04815 0
M  V30 15876 C 1574.18 -3.38738 -0.0647127 0
M  V30 15877 C 1572.74 -3.73411 -0.47339 0
M  V30 15878 C 1571.89 -2.75242 0.337187 0
M  V30 15879 H 1574.84 -1.44849 0.648417 0
M  V30 15880 H 1574.86 -3.70297 -0.875239 0
M  V30 15881 H 1574.37 -3.76331 0.948507 0
M  V30 15882 H 1572.47 -3.41406 -1.4924 0
M  V30 15883 H 1572.58 -4.78675 -0.20165 0
M  V30 15884 H 1570.95 -2.53883 -0.203801 0
M  V30 15885 H 1571.73 -3.15677 1.34919 0
M  V30 15886 N 1574.18 -0.163538 -1.56749 0
M  V30 15887 C 1575.12 0.786745 -2.18891 0
M  V30 15888 C 1576.12 1.24323 -1.15066 0
M  V30 15889 O 1577.32 1.20979 -1.33282 0
M  V30 15890 H 1573.7 0.271967 -0.701098 0
M  V30 15891 H 1575.67 0.2386 -2.97445 0
M  V30 15892 C 1574.42 2.00905 -2.83782 0
M  V30 15893 H 1573.74 1.66681 -3.63397 0
M  V30 15894 H 1575.18 2.65302 -3.30743 0
M  V30 15895 C 1573.64 2.8277 -1.83148 0
M  V30 15896 O 1574.17 3.79666 -1.31213 0
M  V30 15897 N 1572.38 2.47629 -1.52079 0
M  V30 15898 H 1571.92 1.68896 -1.94504 0
M  V30 15899 H 1571.88 3.02693 -0.849963 0
M  V30 15900 N 1575.65 1.57214 0.110213 0
M  V30 15901 C 1576.6 2.01971 1.1537 0
M  V30 15902 C 1577.6 0.918137 1.42361 0
M  V30 15903 O 1578.8 1.10334 1.4222 0
M  V30 15904 H 1575.18 0.64345 0.3892 0
M  V30 15905 H 1577.15 2.88827 0.749781 0
M  V30 15906 C 1575.9 2.4473 2.46987 0
M  V30 15907 H 1575.22 3.29066 2.27059 0
M  V30 15908 H 1576.66 2.79836 3.1854 0
M  V30 15909 C 1575.12 1.31445 3.10199 0
M  V30 15910 O 1575.65 0.635251 3.96645 0
M  V30 15911 N 1573.86 1.06927 2.70213 0
M  V30 15912 H 1573.4 1.62339 2.0001 0
M  V30 15913 H 1573.36 0.313273 3.12835 0
M  V30 15914 N 1577.13 -0.380637 1.52934 0
M  V30 15915 C 1578.36 -1.14417 1.72024 0
M  V30 15916 C 1578.77 -1.83962 0.442128 0
M  V30 15917 O 1578.11 -1.73839 -0.593766 0
M  V30 15918 C 1578.18 -2.22944 2.82022 0
M  V30 15919 C 1577.84 -1.73295 4.22869 0
M  V30 15920 C 1578.84 -1.20515 5.05739 0
M  V30 15921 C 1576.52 -1.79264 4.69222 0
M  V30 15922 C 1578.52 -0.743632 6.33047 0
M  V30 15923 C 1576.2 -1.32724 5.96513 0
M  V30 15924 C 1577.2 -0.803615 6.78256 0
M  V30 15925 O 1576.89 -0.34503 8.03159 0
M  V30 15926 H 1576.62 -0.348676 0.579138 0
M  V30 15927 H 1579.17 -0.450113 2.00407 0
M  V30 15928 H 1577.4 -2.95798 2.49079 0
M  V30 15929 H 1579.09 -2.84575 2.89434 0
M  V30 15930 H 1579.86 -1.15254 4.71107 0
M  V30 15931 H 1575.74 -2.18962 4.0568 0
M  V30 15932 H 1579.28 -0.334251 6.96799 0
M  V30 15933 H 1575.18 -1.37673 6.30648 0
M  V30 15934 H 1575.95 -0.465743 8.17174 0
M  V30 15935 N 1578.61 -1.44039 -0.639573 0
M  V30 15936 C 1580.02 -1.41236 -1.22104 0
M  V30 15937 C 1580.37 -0.123367 -1.95812 0
M  V30 15938 O 1579.5 0.776641 -2.01983 0
M  V30 15939 C 1580.09 -2.55853 -2.22092 0
M  V30 15940 C 1578.65 -2.56271 -2.75685 0
M  V30 15941 C 1577.8 -2.32877 -1.50544 0
M  V30 15942 H 1580.75 -1.52742 -0.430756 0
M  V30 15943 H 1580.77 -2.28123 -3.04533 0
M  V30 15944 H 1580.28 -3.49653 -1.68417 0
M  V30 15945 H 1578.38 -1.66389 -3.33385 0
M  V30 15946 H 1578.5 -3.54486 -3.22299 0
M  V30 15947 H 1576.86 -1.81807 -1.78377 0
M  V30 15948 H 1577.64 -3.2878 -0.987845 0
M  V30 15949 N 1580.09 0.879207 -1.30796 0
M  V30 15950 C 1581.04 2.00692 -1.17582 0
M  V30 15951 C 1582.03 1.6918 -0.0863163 0
M  V30 15952 O 1583.24 1.78289 -0.24757 0
M  V30 15953 H 1579.61 0.65814 -0.363808 0
M  V30 15954 H 1581.58 2.0897 -2.13012 0
M  V30 15955 C 1580.33 3.36105 -0.890429 0
M  V30 15956 H 1579.65 3.60868 -1.72088 0
M  V30 15957 H 1581.09 4.15634 -0.838103 0
M  V30 15958 C 1579.55 3.34436 0.406734 0
M  V30 15959 O 1580.08 3.7552 1.42645 0
M  V30 15960 N 1578.29 2.87549 0.419963 0
M  V30 15961 H 1577.84 2.54311 -0.410343 0
M  V30 15962 H 1577.79 2.86815 1.28781 0
M  V30 15963 N 1581.57 1.13606 1.09231 0
M  V30 15964 C 1582.52 0.810747 2.18013 0
M  V30 15965 C 1583.51 -0.207782 1.68121 0
M  V30 15966 O 1584.72 -0.0647274 1.79884 0
M  V30 15967 H 1581.09 0.244415 0.711172 0
M  V30 15968 H 1583.06 1.73632 2.42682 0
M  V30 15969 C 1581.81 0.295302 3.46444 0
M  V30 15970 H 1581.13 1.07037 3.85205 0
M  V30 15971 H 1582.57 0.106127 4.23867 0
M  V30 15972 C 1581.03 -0.979398 3.2235 0
M  V30 15973 O 1581.56 -2.05483 3.45166 0
M  V30 15974 N 1579.77 -0.911282 2.75942 0
M  V30 15975 H 1579.32 -0.035979 2.57575 0
M  V30 15976 H 1579.27 -1.76476 2.60199 0
M  V30 15977 N 1583.05 -1.27244 0.929878 0
M  V30 15978 C 1584.29 -1.94902 0.5818 0
M  V30 15979 C 1584.65 -1.71719 -0.867768 0
M  V30 15980 O 1583.94 -1.03697 -1.61113 0
M  V30 15981 C 1584.13 -3.47233 0.846386 0
M  V30 15982 C 1583.96 -3.85228 2.32012 0
M  V30 15983 C 1582.73 -4.08567 2.97323 0
M  V30 15984 C 1584.93 -3.94651 3.2978 0
M  V30 15985 N 1582.91 -4.33358 4.34826 0
M  V30 15986 C 1584.28 -4.23843 4.52501 0
M  V30 15987 C 1586.34 -3.77235 3.24959 0
M  V30 15988 C 1585.04 -4.37431 5.71005 0
M  V30 15989 C 1587.07 -3.92049 4.42777 0
M  V30 15990 C 1586.43 -4.21629 5.64277 0
M  V30 15991 H 1582.53 -0.736425 0.263063 0
M  V30 15992 H 1585.11 -1.53562 1.19695 0
M  V30 15993 H 1583.28 -3.87526 0.260378 0
M  V30 15994 H 1585.02 -4.02069 0.460717 0
M  V30 15995 H 1581.77 -4.03486 2.47984 0
M  V30 15996 H 1582.19 -4.49807 5.05967 0
M  V30 15997 H 1586.84 -3.53404 2.32089 0
M  V30 15998 H 1584.55 -4.60087 6.64339 0
M  V30 15999 H 1588.14 -3.7999 4.40567 0
M  V30 16000 H 1587.02 -4.32843 6.53924 0
M  V30 16001 N 1584.52 -0.695628 -1.41417 0
M  V30 16002 C 1585.43 -0.0308378 -2.3458 0
M  V30 16003 C 1586.45 0.766 -1.56232 0
M  V30 16004 O 1587.63 0.703548 -1.88712 0
M  V30 16005 C 1584.69 0.894162 -3.34971 0
M  V30 16006 C 1583.75 0.0895231 -4.29207 0
M  V30 16007 C 1582.98 0.970467 -5.24802 0
M  V30 16008 O 1583.21 2.20997 -5.25848 0
M  V30 16009 O 1582.14 0.420114 -6.00432 0
M  V30 16010 H 1585.97 -0.798775 -2.93007 0
M  V30 16011 H 1583.55 -0.455964 -1.42272 0
M  V30 16012 H 1585.43 1.42458 -3.9659 0
M  V30 16013 H 1584.11 1.64159 -2.78987 0
M  V30 16014 H 1583.02 -0.4855 -3.70936 0
M  V30 16015 H 1584.35 -0.619241 -4.88289 0
M  V30 16016 N 1586 1.51322 -0.440383 0
M  V30 16017 C 1587.24 2.04022 0.124196 0
M  V30 16018 C 1587.61 1.31715 1.39697 0
M  V30 16019 O 1588.81 1.74804 2.04198 0
M  V30 16020 C 1587.08 3.55829 0.334744 0
M  V30 16021 S 1588.64 4.30244 0.862291 0
M  V30 16022 H 1585.45 0.710349 0.0304204 0
M  V30 16023 H 1588.06 1.86049 -0.600487 0
M  V30 16024 H 1586.76 4.06022 -0.597876 0
M  V30 16025 H 1586.29 3.78101 1.08642 0
M  V30 16026 H 1588.31 4.47705 2.13951 0
M  V30 16027 N 1587.48 0.171848 1.5666 0
M  V30 16028 C 1588.73 -0.473061 1.96074 0
M  V30 16029 C 1589.04 -1.64353 1.06054 0
M  V30 16030 O 1590.25 -2.35471 1.35151 0
M  V30 16031 C 1588.7 -0.892995 3.48645 0
M  V30 16032 C 1588.31 0.251902 4.47291 0
M  V30 16033 C 1590.06 -1.50629 3.96877 0
M  V30 16034 C 1587.96 -0.187691 5.91102 0
M  V30 16035 H 1586.89 -0.180503 0.732075 0
M  V30 16036 H 1589.54 0.260164 1.81646 0
M  V30 16037 H 1587.93 -1.68221 3.58494 0
M  V30 16038 H 1589.1 1.02923 4.49159 0
M  V30 16039 H 1587.41 0.775193 4.09121 0
M  V30 16040 H 1590.01 -1.84724 5.01778 0
M  V30 16041 H 1590.35 -2.4044 3.39844 0
M  V30 16042 H 1590.89 -0.781502 3.90048 0
M  V30 16043 H 1587.63 0.675653 6.52009 0
M  V30 16044 H 1587.15 -0.93037 5.9254 0
M  V30 16045 H 1588.83 -0.631385 6.43912 0
M  V30 16046 N 1588.96 -1.5727 -0.101874 0
M  V30 16047 C 1590.19 -1.89667 -0.81914 0
M  V30 16048 C 1590.6 -0.763027 -1.73132 0
M  V30 16049 O 1589.94 0.274317 -1.8164 0
M  V30 16050 C 1590 -3.17252 -1.6909 0
M  V30 16051 C 1589.66 -4.4699 -0.951257 0
M  V30 16052 C 1590.66 -5.19123 -0.28417 0
M  V30 16053 C 1588.35 -4.93665 -0.927349 0
M  V30 16054 C 1590.34 -6.36163 0.396934 0
M  V30 16055 C 1588.03 -6.10619 -0.242456 0
M  V30 16056 C 1589.03 -6.81717 0.418514 0
M  V30 16057 O 1588.71 -7.96443 1.09244 0
M  V30 16058 H 1588.45 -0.632024 -0.239836 0
M  V30 16059 H 1591 -2.05222 -0.0855979 0
M  V30 16060 H 1589.23 -2.97825 -2.46651 0
M  V30 16061 H 1590.92 -3.35533 -2.28413 0
M  V30 16062 H 1591.68 -4.84107 -0.294146 0
M  V30 16063 H 1587.56 -4.38219 -1.43126 0
M  V30 16064 H 1591.11 -6.91594 0.913417 0
M  V30 16065 H 1587 -6.45089 -0.230303 0
M  V30 16066 H 1587.77 -8.12385 0.998647 0
M  V30 16067 N 1590.44 0.372521 -1.53134 0
M  V30 16068 C 1591.85 0.713727 -1.42752 0
M  V30 16069 C 1592.05 1.93532 -0.561051 0
M  V30 16070 O 1591.11 2.52467 -0.0408195 0
M  V30 16071 C 1592.42 0.933418 -2.85846 0
M  V30 16072 C 1593.97 1.03386 -2.95432 0
M  V30 16073 C 1594.44 1.28607 -4.39573 0
M  V30 16074 N 1595.93 1.35393 -4.42971 0
M  V30 16075 C 1596.67 1.56604 -5.516 0
M  V30 16076 N 1596.17 1.75178 -6.70287 0
M  V30 16077 N 1597.96 1.58917 -5.39168 0
M  V30 16078 H 1590.11 -0.431068 -2.0798 0
M  V30 16079 H 1592.37 -0.130757 -0.938939 0
M  V30 16080 H 1592.08 0.107707 -3.51535 0
M  V30 16081 H 1591.95 1.84348 -3.29083 0
M  V30 16082 H 1594.34 1.85012 -2.29901 0
M  V30 16083 H 1594.42 0.101346 -2.55599 0
M  V30 16084 H 1594.06 0.47485 -5.05675 0
M  V30 16085 H 1593.99 2.2317 -4.76973 0
M  V30 16086 H 1596.49 1.22681 -3.57432 0
M  V30 16087 H 1596.8 1.90916 -7.48846 0
M  V30 16088 H 1595.14 1.7237 -6.73286 0
M  V30 16089 H 1598.33 1.4397 -4.4541 0
M  V30 16090 H 1598.51 1.75108 -6.23892 0
M  V30 16091 N 1591.91 1.44376 0.631925 0
M  V30 16092 C 1593.16 1.46398 1.38747 0
M  V30 16093 C 1593.48 0.100149 1.95343 0
M  V30 16094 O 1594.68 -0.00210908 2.715 0
M  V30 16095 C 1593.14 2.57731 2.51203 0
M  V30 16096 C 1592.75 4.00317 2.01123 0
M  V30 16097 C 1594.49 2.68972 3.28412 0
M  V30 16098 C 1592.4 5.03075 3.10917 0
M  V30 16099 H 1591.33 0.544667 0.521396 0
M  V30 16100 H 1593.98 1.70439 0.679912 0
M  V30 16101 H 1592.36 2.26928 3.2453 0
M  V30 16102 H 1593.53 4.40683 1.34666 0
M  V30 16103 H 1591.85 3.93311 1.36732 0
M  V30 16104 H 1594.45 3.42916 4.10259 0
M  V30 16105 H 1594.79 1.74762 3.77841 0
M  V30 16106 H 1595.32 2.9918 2.62176 0
M  V30 16107 H 1592.06 5.98911 2.66433 0
M  V30 16108 H 1591.58 4.67302 3.76017 0
M  V30 16109 H 1593.26 5.2674 3.75705 0
M  V30 16110 N 1593.39 -0.872258 1.31261 0
M  V30 16111 C 1594.62 -1.65795 1.23772 0
M  V30 16112 C 1595.03 -1.87766 -0.197351 0
M  V30 16113 O 1594.39 -1.43418 -1.1286 0
M  V30 16114 C 1594.44 -3.02722 1.9759 0
M  V30 16115 O 1594.16 -2.81734 3.35496 0
M  V30 16116 C 1595.66 -3.97165 1.96913 0
M  V30 16117 H 1592.88 -0.516959 0.427778 0
M  V30 16118 H 1595.43 -1.0889 1.73099 0
M  V30 16119 H 1593.58 -3.56322 1.5203 0
M  V30 16120 H 1594 -3.6869 3.73052 0
M  V30 16121 H 1595.47 -4.90566 2.53079 0
M  V30 16122 H 1595.95 -4.28778 0.951089 0
M  V30 16123 H 1596.55 -3.495 2.42342 0
M  V30 16124 N 1594.87 -1.14184 -1.08627 0
M  V30 16125 C 1596.12 -0.91001 -1.81236 0
M  V30 16126 C 1596.45 0.562134 -1.85886 0
M  V30 16127 O 1595.72 1.41631 -1.33307 0
M  V30 16128 C 1596.01 -1.50879 -3.26967 0
M  V30 16129 C 1595.86 -3.05063 -3.3054 0
M  V30 16130 C 1597.18 -1.18379 -4.2388 0
M  V30 16131 H 1594.3 -0.332025 -0.657973 0
M  V30 16132 H 1596.94 -1.41144 -1.27194 0
M  V30 16133 H 1595.09 -1.08236 -3.73118 0
M  V30 16134 H 1596.76 -3.5652 -2.9273 0
M  V30 16135 H 1595 -3.39628 -2.6988 0
M  V30 16136 H 1595.68 -3.42064 -4.33239 0
M  V30 16137 H 1598.15 -1.55242 -3.86056 0
M  V30 16138 H 1597.03 -1.62911 -5.24167 0
M  V30 16139 H 1597.29 -0.0987385 -4.4199 0
M  V30 16140 N 1596.35 1.26749 -0.936613 0
M  V30 16141 C 1597.76 1.46284 -0.638218 0
M  V30 16142 C 1597.96 1.84509 0.80986 0
M  V30 16143 O 1597.02 1.96399 1.58693 0
M  V30 16144 C 1598.33 2.54867 -1.59573 0
M  V30 16145 C 1599.88 2.68721 -1.60493 0
M  V30 16146 C 1600.36 3.80471 -2.54963 0
M  V30 16147 N 1601.85 3.87857 -2.53221 0
M  V30 16148 C 1602.58 4.73767 -3.23005 0
M  V30 16149 N 1602.08 5.641 -4.02198 0
M  V30 16150 N 1603.87 4.67574 -3.11979 0
M  V30 16151 H 1596.02 1.00224 -1.87267 0
M  V30 16152 H 1598.29 0.501478 -0.804502 0
M  V30 16153 H 1597.99 2.33594 -2.62919 0
M  V30 16154 H 1597.87 3.52433 -1.34427 0
M  V30 16155 H 1600.25 2.8937 -0.578729 0
M  V30 16156 H 1600.33 1.71613 -1.89691 0
M  V30 16157 H 1599.98 3.60575 -3.57698 0
M  V30 16158 H 1599.91 4.77026 -2.23056 0
M  V30 16159 H 1602.4 3.23272 -1.95714 0
M  V30 16160 H 1602.71 6.26535 -4.52409 0
M  V30 16161 H 1601.06 5.63866 -4.063 0
M  V30 16162 H 1604.25 3.96004 -2.49596 0
M  V30 16163 H 1604.42 5.34308 -3.66633 0
M  V30 16164 N 1597.83 0.703118 1.41046 0
M  V30 16165 C 1599.05 0.246552 2.05426 0
M  V30 16166 C 1599.47 -1.10704 1.52938 0
M  V30 16167 O 1598.83 -1.69329 0.680733 0
M  V30 16168 C 1598.88 0.203953 3.60924 0
M  V30 16169 O 1598.6 1.50408 4.11472 0
M  V30 16170 C 1600.1 -0.272686 4.42461 0
M  V30 16171 H 1597.32 0.113157 0.66139 0
M  V30 16172 H 1599.86 0.957823 1.80682 0
M  V30 16173 H 1598.02 -0.458194 3.84681 0
M  V30 16174 H 1598.43 1.39622 5.05575 0
M  V30 16175 H 1599.91 -0.251357 5.51427 0
M  V30 16176 H 1600.38 -1.31282 4.1912 0
M  V30 16177 H 1600.99 0.358733 4.23784 0
M  V30 16178 N 1599.3 -1.51086 0.448402 0
M  V30 16179 C 1600.55 -2.01778 -0.114116 0
M  V30 16180 C 1600.87 -1.3339 -1.4224 0
M  V30 16181 O 1600.14 -0.471938 -1.9013 0
M  V30 16182 H 1598.72 -0.745634 -0.0451624 0
M  V30 16183 H 1601.39 -1.85639 0.59364 0
M  V30 16184 H 1600.48 -3.10823 -0.28205 0
M  V30 16185 N 1600.78 -0.180154 -1.56567 0
M  V30 16186 C 1601.71 0.77825 -2.15583 0
M  V30 16187 C 1602.73 1.18746 -1.1137 0
M  V30 16188 O 1603.92 1.12578 -1.38523 0
M  V30 16189 C 1601.02 2.06024 -2.69086 0
M  V30 16190 C 1600.19 1.8132 -3.98047 0
M  V30 16191 C 1599.25 2.93823 -4.36526 0
M  V30 16192 O 1598.27 2.64075 -5.04235 0
M  V30 16193 N 1599.48 4.21823 -3.98806 0
M  V30 16194 H 1602.24 0.273661 -2.98448 0
M  V30 16195 H 1599.8 0.00232952 -1.619 0
M  V30 16196 H 1601.79 2.80398 -2.9182 0
M  V30 16197 H 1600.36 2.47648 -1.9076 0
M  V30 16198 H 1599.58 0.908046 -3.83599 0
M  V30 16199 H 1600.87 1.62194 -4.82256 0
M  V30 16200 H 1600.27 4.48849 -3.44313 0
M  V30 16201 H 1598.83 4.92871 -4.26522 0
M  V30 16202 N 1602.26 1.57322 0.0935319 0
M  V30 16203 C 1603.19 2.05208 1.11409 0
M  V30 16204 C 1604.17 0.941295 1.41681 0
M  V30 16205 O 1605.36 1.21266 1.51684 0
M  V30 16206 C 1602.49 2.47782 2.43354 0
M  V30 16207 C 1601.44 3.62538 2.27486 0
M  V30 16208 C 1600.77 3.91095 3.64622 0
M  V30 16209 C 1602.07 4.93371 1.71412 0
M  V30 16210 H 1603.76 2.9072 0.715702 0
M  V30 16211 H 1601.31 1.3986 0.342827 0
M  V30 16212 H 1603.26 2.79891 3.15022 0
M  V30 16213 H 1601.98 1.59272 2.85132 0
M  V30 16214 H 1600.64 3.30679 1.58263 0
M  V30 16215 H 1600.29 2.99749 4.0393 0
M  V30 16216 H 1599.99 4.68353 3.5485 0
M  V30 16217 H 1601.51 4.25679 4.37755 0
M  V30 16218 H 1602.93 5.23851 2.32922 0
M  V30 16219 H 1601.33 5.74804 1.72395 0
M  V30 16220 H 1602.4 4.80197 0.67368 0
M  V30 16221 N 1603.74 -0.364395 1.53329 0
M  V30 16222 C 1604.99 -1.10423 1.68789 0
M  V30 16223 C 1605.3 -1.90428 0.446819 0
M  V30 16224 O 1606.51 -2.67188 0.481978 0
M  V30 16225 C 1604.96 -2.01228 2.98388 0
M  V30 16226 C 1604.57 -1.26529 4.29761 0
M  V30 16227 C 1606.31 -2.75196 3.23214 0
M  V30 16228 C 1604.22 -2.16243 5.50448 0
M  V30 16229 H 1603.15 -0.415935 0.628899 0
M  V30 16230 H 1605.8 -0.365145 1.7983 0
M  V30 16231 H 1604.18 -2.78872 2.81152 0
M  V30 16232 H 1605.36 -0.5394 4.57632 0
M  V30 16233 H 1603.67 -0.644181 4.11387 0
M  V30 16234 H 1606.27 -3.42548 4.10567 0
M  V30 16235 H 1606.61 -3.40629 2.39327 0
M  V30 16236 H 1607.15 -2.04635 3.4113 0
M  V30 16237 H 1603.89 -1.55385 6.36817 0
M  V30 16238 H 1603.41 -2.86678 5.26855 0
M  V30 16239 H 1605.08 -2.75774 5.85284 0
M  V30 16240 N 1605.22 -1.44709 -0.62426 0
M  V30 16241 C 1606.18 -1.51738 -1.7178 0
M  V30 16242 C 1607.18 -0.398646 -1.5578 0
M  V30 16243 O 1608.37 -0.661525 -1.61151 0
M  V30 16244 C 1605.5 -1.39792 -3.1092 0
M  V30 16245 H 1606.69 -2.49154 -1.6692 0
M  V30 16246 H 1604.25 -1.31903 -0.838531 0
M  V30 16247 H 1604.98 -0.434955 -3.2137 0
M  V30 16248 H 1604.77 -2.20919 -3.2394 0
M  V30 16249 H 1606.26 -1.47706 -3.90606 0
M  V30 16250 N 1606.69 0.865285 -1.31722 0
M  V30 16251 C 1607.94 1.62108 -1.21855 0
M  V30 16252 C 1608.27 1.9293 0.221714 0
M  V30 16253 O 1607.55 1.56423 1.15595 0
M  V30 16254 C 1607.83 2.94828 -2.06756 0
M  V30 16255 C 1607.68 2.70855 -3.59107 0
M  V30 16256 C 1609 3.95983 -1.92055 0
M  V30 16257 H 1606.12 0.588234 -0.444015 0
M  V30 16258 H 1608.76 0.999922 -1.6156 0
M  V30 16259 H 1606.91 3.47843 -1.73025 0
M  V30 16260 H 1608.59 2.24477 -4.02999 0
M  V30 16261 H 1606.83 2.05004 -3.82303 0
M  V30 16262 H 1607.5 3.65312 -4.13825 0
M  V30 16263 H 1609.98 3.52193 -2.21584 0
M  V30 16264 H 1608.85 4.86724 -2.53754 0
M  V30 16265 H 1609.11 4.33148 -0.885174 0
M  V30 16266 N 1608.17 1.14759 1.0802 0
M  V30 16267 C 1609.12 0.806682 2.13253 0
M  V30 16268 C 1610.11 -0.205966 1.59576 0
M  V30 16269 O 1611.3 -0.00771878 1.76998 0
M  V30 16270 C 1608.43 0.290219 3.42071 0
M  V30 16271 C 1607.51 1.33262 4.02619 0
M  V30 16272 N 1607.9 2.53793 4.37519 0
M  V30 16273 C 1606.2 1.18377 4.30003 0
M  V30 16274 C 1606.9 3.20554 4.85407 0
M  V30 16275 N 1605.88 2.47951 4.83757 0
M  V30 16276 H 1609.68 1.72351 2.3806 0
M  V30 16277 H 1607.2 1.03203 1.25391 0
M  V30 16278 H 1609.19 0.0276782 4.16891 0
M  V30 16279 H 1607.85 -0.620751 3.18711 0
M  V30 16280 H 1608.86 2.9099 4.28422 0
M  V30 16281 H 1605.54 0.332142 4.16177 0
M  V30 16282 H 1606.93 4.23342 5.21758 0
M  V30 16283 N 1609.65 -1.26251 0.943322 0
M  V30 16284 C 1610.9 -1.93652 0.592032 0
M  V30 16285 C 1611.23 -1.73996 -0.869234 0
M  V30 16286 O 1610.48 -1.07165 -1.6375 0
M  V30 16287 C 1610.78 -3.46316 0.883167 0
M  V30 16288 C 1610.45 -3.86115 2.32866 0
M  V30 16289 C 1609.11 -3.9669 2.72379 0
M  V30 16290 C 1611.46 -4.06025 3.26792 0
M  V30 16291 C 1608.79 -4.24575 4.04911 0
M  V30 16292 C 1611.14 -4.35399 4.58923 0
M  V30 16293 C 1609.8 -4.4419 4.98248 0
M  V30 16294 H 1609.07 -0.708624 0.21664 0
M  V30 16295 H 1611.72 -1.50019 1.19023 0
M  V30 16296 H 1610.03 -3.91277 0.202452 0
M  V30 16297 H 1611.72 -3.96634 0.590108 0
M  V30 16298 H 1608.31 -3.78431 2.01217 0
M  V30 16299 H 1612.5 -3.9728 2.9746 0
M  V30 16300 H 1607.75 -4.29594 4.35039 0
M  V30 16301 H 1611.93 -4.49751 5.31692 0
M  V30 16302 H 1609.55 -4.65551 6.00971 0
M  V30 16303 N 1611.13 -0.710588 -1.40671 0
M  V30 16304 C 1612.36 -0.257442 -2.05292 0
M  V30 16305 C 1612.77 1.09891 -1.53523 0
M  V30 16306 O 1612.13 1.68966 -0.689703 0
M  V30 16307 C 1612.18 -0.223091 -3.60811 0
M  V30 16308 O 1611.9 -1.52588 -4.10668 0
M  V30 16309 C 1613.4 0.249217 -4.42599 0
M  V30 16310 H 1610.62 -0.116663 -0.66078 0
M  V30 16311 H 1613.17 -0.967391 -1.80172 0
M  V30 16312 H 1611.32 0.437787 -3.84918 0
M  V30 16313 H 1611.74 -1.42301 -5.04827 0
M  V30 16314 H 1613.21 0.22211 -5.51553 0
M  V30 16315 H 1613.69 1.29057 -4.19811 0
M  V30 16316 H 1614.29 -0.381202 -4.23588 0
M  V30 16317 N 1612.61 1.50847 -0.456408 0
M  V30 16318 C 1613.56 2.29805 0.359529 0
M  V30 16319 C 1614.55 1.3646 1.00374 0
M  V30 16320 O 1615.76 1.53718 0.936524 0
M  V30 16321 H 1612.13 0.739825 0.134772 0
M  V30 16322 H 1614.1 2.96603 -0.327009 0
M  V30 16323 C 1612.85 3.16597 1.43741 0
M  V30 16324 H 1612.17 3.88323 0.95108 0
M  V30 16325 H 1613.61 3.74866 1.98119 0
M  V30 16326 C 1612.07 2.3322 2.43126 0
M  V30 16327 O 1612.6 2.00504 3.48082 0
M  V30 16328 N 1610.81 1.96078 2.1448 0
M  V30 16329 H 1610.36 2.22883 1.29155 0
M  V30 16330 H 1610.31 1.40592 2.81214 0
M  V30 16331 N 1614.09 0.188454 1.56469 0
M  V30 16332 C 1615.33 -0.452058 1.9739 0
M  V30 16333 C 1615.66 -1.62086 1.0751 0
M  V30 16334 O 1614.92 -1.95375 0.11278 0
M  V30 16335 C 1615.21 -0.960652 3.44247 0
M  V30 16336 C 1614.88 0.0940708 4.50802 0
M  V30 16337 C 1613.54 0.383899 4.79666 0
M  V30 16338 C 1615.89 0.80908 5.14882 0
M  V30 16339 C 1613.22 1.39383 5.69903 0
M  V30 16340 C 1615.57 1.80811 6.0621 0
M  V30 16341 C 1614.24 2.10521 6.33433 0
M  V30 16342 H 1613.51 -0.16542 0.7223 0
M  V30 16343 H 1616.16 0.284024 1.89382 0
M  V30 16344 H 1614.46 -1.77488 3.49292 0
M  V30 16345 H 1616.16 -1.46553 3.7326 0
M  V30 16346 H 1612.75 -0.141993 4.28365 0
M  V30 16347 H 1616.93 0.598391 4.92679 0
M  V30 16348 H 1612.19 1.63 5.89272 0
M  V30 16349 H 1616.36 2.36742 6.54925 0
M  V30 16350 H 1613.99 2.88924 7.03155 0
M  V30 16351 N 1615.56 -1.5737 -0.0851874 0
M  V30 16352 C 1616.79 -1.91183 -0.803983 0
M  V30 16353 C 1617.21 -0.78365 -1.70999 0
M  V30 16354 O 1616.57 0.264266 -1.79364 0
M  V30 16355 C 1616.62 -3.239 -1.58496 0
M  V30 16356 O 1615.72 -3.12189 -2.69466 0
M  V30 16357 H 1615.06 -0.626413 -0.220233 0
M  V30 16358 H 1617.59 -2.04519 -0.0574426 0
M  V30 16359 H 1617.6 -3.5745 -1.96707 0
M  V30 16360 H 1616.28 -4.05594 -0.920111 0
M  V30 16361 H 1614.86 -2.90173 -2.3421 0
M  V30 16362 N 1617.04 0.356258 -1.53521 0
M  V30 16363 C 1617.97 1.44271 -1.83598 0
M  V30 16364 C 1618.95 1.5547 -0.690141 0
M  V30 16365 O 1620.14 1.69886 -0.940868 0
M  V30 16366 C 1617.27 2.8149 -2.03422 0
M  V30 16367 C 1616.22 2.85108 -3.19213 0
M  V30 16368 C 1615.55 4.25091 -3.24348 0
M  V30 16369 C 1616.85 2.51788 -4.57602 0
M  V30 16370 H 1618.54 1.1935 -2.74583 0
M  V30 16371 H 1616.09 0.572707 -1.32121 0
M  V30 16372 H 1618.04 3.57531 -2.23046 0
M  V30 16373 H 1616.76 3.07819 -1.09155 0
M  V30 16374 H 1615.42 2.1152 -2.99424 0
M  V30 16375 H 1615.07 4.4851 -2.277 0
M  V30 16376 H 1614.77 4.28426 -4.0215 0
M  V30 16377 H 1616.3 5.02992 -3.46167 0
M  V30 16378 H 1617.71 3.17542 -4.77326 0
M  V30 16379 H 1616.11 2.66426 -5.37715 0
M  V30 16380 H 1617.18 1.4701 -4.62078 0
M  V30 16381 N 1618.52 1.45038 0.616577 0
M  V30 16382 C 1619.43 1.55542 1.75624 0
M  V30 16383 C 1620.45 0.440304 1.68337 0
M  V30 16384 O 1621.62 0.699725 1.88854 0
M  V30 16385 C 1618.69 1.51062 3.1206 0
M  V30 16386 C 1617.75 2.7354 3.30869 0
M  V30 16387 C 1616.98 2.69264 4.60796 0
M  V30 16388 O 1617.2 1.76085 5.42541 0
M  V30 16389 O 1616.14 3.60335 4.82123 0
M  V30 16390 H 1619.96 2.51854 1.69715 0
M  V30 16391 H 1617.55 1.27448 0.779578 0
M  V30 16392 H 1619.43 1.51138 3.93364 0
M  V30 16393 H 1618.11 0.578976 3.1848 0
M  V30 16394 H 1617.01 2.79027 2.49188 0
M  V30 16395 H 1618.35 3.65799 3.2932 0
M  V30 16396 N 1620 -0.858287 1.32179 0
M  V30 16397 C 1620.91 -1.99894 1.228 0
M  V30 16398 C 1621.92 -1.73417 0.142323 0
M  V30 16399 O 1623.1 -1.98114 0.362321 0
M  V30 16400 C 1620.16 -3.33495 0.947745 0
M  V30 16401 C 1619.23 -3.73217 2.12149 0
M  V30 16402 C 1618.46 -5.00443 1.85452 0
M  V30 16403 O 1618.68 -5.64828 0.79531 0
M  V30 16404 O 1617.62 -5.3721 2.71457 0
M  V30 16405 H 1621.44 -2.10742 2.18682 0
M  V30 16406 H 1619.03 -0.988385 1.12033 0
M  V30 16407 H 1620.91 -4.13585 0.807791 0
M  V30 16408 H 1619.58 -3.23694 0.019053 0
M  V30 16409 H 1618.49 -2.93718 2.3169 0
M  V30 16410 H 1619.82 -3.87659 3.03285 0
M  V30 16411 N 1621.48 -1.1533 -1.07409 0
M  V30 16412 C 1622.44 -0.852155 -2.1277 0
M  V30 16413 C 1623.44 0.14782 -1.60119 0
M  V30 16414 O 1624.63 -0.0817436 -1.74008 0
M  V30 16415 C 1621.76 -0.272233 -3.39811 0
M  V30 16416 H 1622.95 -1.78604 -2.40917 0
M  V30 16417 H 1620.51 -0.960698 -1.23289 0
M  V30 16418 H 1621.24 0.669873 -3.17306 0
M  V30 16419 H 1621.03 -0.992629 -3.79327 0
M  V30 16420 H 1622.52 -0.0790986 -4.17525 0
M  V30 16421 N 1622.95 1.25748 -0.950004 0
M  V30 16422 C 1624.2 1.92632 -0.597988 0
M  V30 16423 C 1624.52 1.75268 0.868365 0
M  V30 16424 O 1625.72 2.36684 1.33014 0
M  V30 16425 C 1624.18 3.45179 -1.01879 0
M  V30 16426 C 1623.79 3.71262 -2.50736 0
M  V30 16427 C 1625.53 4.18017 -0.739084 0
M  V30 16428 C 1623.44 5.17292 -2.8664 0
M  V30 16429 H 1622.37 0.72121 -0.219938 0
M  V30 16430 H 1625.02 1.42685 -1.15383 0
M  V30 16431 H 1623.4 3.94061 -0.391395 0
M  V30 16432 H 1624.57 3.33051 -3.18455 0
M  V30 16433 H 1622.89 3.11676 -2.76129 0
M  V30 16434 H 1625.49 5.25576 -0.983555 0
M  V30 16435 H 1625.83 4.15034 0.32439 0
M  V30 16436 H 1626.36 3.75028 -1.32661 0
M  V30 16437 H 1623.1 5.25383 -3.91987 0
M  V30 16438 H 1622.62 5.56567 -2.23591 0
M  V30 16439 H 1624.3 5.85375 -2.75582 0
M  V30 16440 N 1624.43 0.718038 1.40292 0
M  V30 16441 C 1625.68 0.258092 2.00445 0
M  V30 16442 C 1626 -1.15347 1.57226 0
M  V30 16443 O 1625.27 -1.78241 0.812822 0
M  V30 16444 H 1623.85 0.0924316 0.741259 0
M  V30 16445 H 1626.51 0.924216 1.71593 0
M  V30 16446 H 1625.61 0.293113 3.10721 0
M  V30 16447 N 1625.91 -1.50602 0.464402 0
M  V30 16448 C 1626.86 -2.29992 -0.347337 0
M  V30 16449 C 1627.85 -1.36991 -0.996489 0
M  V30 16450 O 1629.06 -1.54213 -0.928359 0
M  V30 16451 H 1625.43 -0.740529 -0.130847 0
M  V30 16452 H 1627.4 -2.96425 0.342734 0
M  V30 16453 C 1626.15 -3.17355 -1.4206 0
M  V30 16454 H 1625.48 -3.88822 -0.930473 0
M  V30 16455 H 1626.92 -3.75912 -1.96129 0
M  V30 16456 C 1625.38 -2.34506 -2.41886 0
M  V30 16457 O 1625.91 -2.02347 -3.47014 0
M  V30 16458 N 1624.11 -1.97212 -2.13438 0
M  V30 16459 H 1623.66 -2.23564 -1.27971 0
M  V30 16460 H 1623.62 -1.42081 -2.80464 0
M  V30 16461 N 1627.39 -0.19675 -1.56367 0
M  V30 16462 C 1628.62 0.446491 -2.01718 0
M  V30 16463 C 1629.03 1.55621 -1.07604 0
M  V30 16464 O 1628.37 1.83553 -0.0733943 0
M  V30 16465 C 1628.43 1.06182 -3.43461 0
M  V30 16466 C 1628.1 0.0906278 -4.5691 0
M  V30 16467 C 1629.09 -0.700599 -5.15158 0
M  V30 16468 C 1626.78 -0.0209341 -5.02296 0
M  V30 16469 C 1628.77 -1.59034 -6.17241 0
M  V30 16470 C 1626.46 -0.91423 -6.04223 0
M  V30 16471 C 1627.46 -1.6975 -6.61569 0
M  V30 16472 O 1627.14 -2.57582 -7.61516 0
M  V30 16473 H 1626.88 0.116254 -0.665929 0
M  V30 16474 H 1629.43 -0.303224 -2.03149 0
M  V30 16475 H 1627.66 1.86015 -3.39021 0
M  V30 16476 H 1629.35 1.60988 -3.72609 0
M  V30 16477 H 1630.12 -0.624723 -4.8096 0
M  V30 16478 H 1625.99 0.578557 -4.57355 0
M  V30 16479 H 1629.54 -2.20215 -6.6193 0
M  V30 16480 H 1625.44 -0.991215 -6.37844 0
M  V30 16481 H 1626.2 -2.5138 -7.78942 0
M  V30 16482 N 1628.87 1.57413 0.0768405 0
M  V30 16483 C 1630.1 1.90946 0.788862 0
M  V30 16484 C 1630.5 0.790474 1.71896 0
M  V30 16485 O 1629.85 -0.245385 1.82054 0
M  V30 16486 C 1629.91 3.19902 1.64022 0
M  V30 16487 C 1629.57 4.48447 0.880025 0
M  V30 16488 C 1630.57 5.19509 0.201546 0
M  V30 16489 C 1628.26 4.95078 0.848694 0
M  V30 16490 C 1630.25 6.35451 -0.498091 0
M  V30 16491 C 1627.94 6.10927 0.145281 0
M  V30 16492 C 1628.93 6.80964 -0.526916 0
M  V30 16493 O 1628.62 7.94604 -1.21901 0
M  V30 16494 H 1628.35 0.63576 0.22975 0
M  V30 16495 H 1630.91 2.05332 0.052938 0
M  V30 16496 H 1629.14 3.01712 2.41882 0
M  V30 16497 H 1630.83 3.39125 2.23046 0
M  V30 16498 H 1631.59 4.84514 0.217091 0
M  V30 16499 H 1627.47 4.40441 1.36136 0
M  V30 16500 H 1631.02 6.90053 -1.02333 0
M  V30 16501 H 1626.91 6.45374 0.127646 0
M  V30 16502 H 1627.68 8.10693 -1.12776 0
M  V30 16503 N 1630.34 -0.348112 1.53707 0
M  V30 16504 C 1631.57 -1.10903 1.74666 0
M  V30 16505 C 1631.99 -1.82499 0.483683 0
M  V30 16506 O 1631.34 -1.74191 -0.544419 0
M  V30 16507 C 1631.4 -2.12602 2.92374 0
M  V30 16508 O 1631.12 -1.43918 4.13787 0
M  V30 16509 C 1632.62 -3.01105 3.25347 0
M  V30 16510 H 1629.84 -0.330911 0.583728 0
M  V30 16511 H 1632.38 -0.401707 2.00516 0
M  V30 16512 H 1630.54 -2.78906 2.68869 0
M  V30 16513 H 1630.95 -2.11818 4.79826 0
M  V30 16514 H 1632.42 -3.68408 4.11071 0
M  V30 16515 H 1632.9 -3.66874 2.41455 0
M  V30 16516 H 1633.51 -2.40395 3.50842 0
M  V30 16517 N 1631.82 -1.45363 -0.608876 0
M  V30 16518 C 1633.1 -1.39787 -1.36817 0
M  V30 16519 C 1633.48 -0.067821 -2.10991 0
M  V30 16520 O 1632.83 0.950196 -2.07806 0
M  V30 16521 C 1633.04 -2.61073 -2.31608 0
M  V30 16522 C 1634.39 -3.06104 -2.94254 0
M  V30 16523 O 1635.41 -2.61436 -2.41929 0
M  V30 16524 O 1634.27 -3.83616 -3.89231 0
M  V30 16525 H 1631.36 -0.554657 -0.61342 0
M  V30 16526 H 1633.91 -1.57489 -0.632073 0
M  V30 16527 H 1632.68 -3.4946 -1.76049 0
M  V30 16528 H 1632.3 -2.45697 -3.126 0
M  V30 16529 N 1633.3 0.851265 -1.32632 0
M  V30 16530 C 1634.55 1.60569 -1.23385 0
M  V30 16531 C 1634.88 1.93433 0.203484 0
M  V30 16532 O 1634.13 1.57806 1.1574 0
M  V30 16533 C 1634.43 2.93312 -2.04212 0
M  V30 16534 C 1634.1 2.79864 -3.53535 0
M  V30 16535 C 1632.76 2.75903 -3.94247 0
M  V30 16536 C 1635.11 2.65553 -4.48476 0
M  V30 16537 C 1632.44 2.55515 -5.28137 0
M  V30 16538 C 1634.79 2.467 -5.82514 0
M  V30 16539 C 1633.45 2.41134 -6.22423 0
M  V30 16540 H 1632.72 0.587563 -0.451498 0
M  V30 16541 H 1635.37 0.987209 -1.64093 0
M  V30 16542 H 1633.68 3.59298 -1.56243 0
M  V30 16543 H 1635.37 3.50714 -1.94424 0
M  V30 16544 H 1631.96 2.83773 -3.21202 0
M  V30 16545 H 1636.15 2.67655 -4.17941 0
M  V30 16546 H 1631.4 2.49644 -5.58111 0
M  V30 16547 H 1635.58 2.34607 -6.55692 0
M  V30 16548 H 1633.2 2.25095 -7.2611 0
M  V30 16549 N 1634.78 1.15898 1.06796 0
M  V30 16550 C 1635.71 0.88395 2.16122 0
M  V30 16551 C 1636.69 -0.167708 1.69271 0
M  V30 16552 O 1637.87 -0.0208846 1.94189 0
M  V30 16553 C 1635 0.378656 3.4523 0
M  V30 16554 C 1633.96 1.36764 4.05561 0
M  V30 16555 C 1633.28 0.720956 5.29817 0
M  V30 16556 C 1634.58 2.73554 4.44933 0
M  V30 16557 H 1636.28 1.79818 2.39386 0
M  V30 16558 H 1633.82 0.866008 1.15049 0
M  V30 16559 H 1635.78 0.17376 4.21042 0
M  V30 16560 H 1634.5 -0.571063 3.21569 0
M  V30 16561 H 1633.16 1.55899 3.318 0
M  V30 16562 H 1632.81 -0.235089 5.0245 0
M  V30 16563 H 1632.51 1.38101 5.71141 0
M  V30 16564 H 1634.03 0.525963 6.0833 0
M  V30 16565 H 1635.45 2.58231 5.11849 0
M  V30 16566 H 1633.84 3.35986 4.97226 0
M  V30 16567 H 1634.91 3.29192 3.56034 0
M  V30 16568 N 1636.26 -1.25243 0.956659 0
M  V30 16569 C 1637.17 -2.29529 0.48515 0
M  V30 16570 C 1638.18 -1.68121 -0.448494 0
M  V30 16571 O 1639.36 -1.98773 -0.324243 0
M  V30 16572 C 1636.42 -3.45952 -0.227611 0
M  V30 16573 C 1635.48 -4.22795 0.744495 0
M  V30 16574 C 1634.72 -5.3366 0.0656539 0
M  V30 16575 O 1634.94 -5.58722 -1.14829 0
M  V30 16576 O 1633.87 -5.97181 0.75222 0
M  V30 16577 H 1637.7 -2.71955 1.35181 0
M  V30 16578 H 1635.29 -1.30729 0.723203 0
M  V30 16579 H 1637.17 -4.16687 -0.628474 0
M  V30 16580 H 1635.84 -3.05524 -1.06942 0
M  V30 16581 H 1634.75 -3.5448 1.1956 0
M  V30 16582 H 1636.08 -4.67012 1.55438 0
M  V30 16583 N 1637.73 -0.725468 -1.3991 0
M  V30 16584 C 1638.98 -0.266188 -1.99936 0
M  V30 16585 C 1639.3 1.15022 -1.58207 0
M  V30 16586 O 1640.5 1.70853 -2.11001 0
M  V30 16587 C 1638.96 -0.424978 -3.57382 0
M  V30 16588 C 1638.57 -1.84866 -4.08079 0
M  V30 16589 C 1640.31 -0.0269907 -4.24491 0
M  V30 16590 C 1638.22 -1.95751 -5.58064 0
M  V30 16591 H 1637.15 -0.0957688 -0.747893 0
M  V30 16592 H 1639.8 -0.89798 -1.60027 0
M  V30 16593 H 1638.18 0.275558 -3.9504 0
M  V30 16594 H 1639.35 -2.58037 -3.81776 0
M  V30 16595 H 1637.67 -2.199 -3.536 0
M  V30 16596 H 1640.27 -0.0874638 -5.34628 0
M  V30 16597 H 1640.61 1.01639 -4.03702 0
M  V30 16598 H 1641.14 -0.678332 -3.91974 0
M  V30 16599 H 1637.88 -2.98244 -5.83721 0
M  V30 16600 H 1637.4 -1.27004 -5.862 0
M  V30 16601 H 1639.08 -1.73422 -6.23325 0
M  V30 16602 N 1639.21 1.50354 -0.472382 0
M  V30 16603 C 1640.63 1.59097 -0.126613 0
M  V30 16604 C 1640.83 1.4804 1.36698 0
M  V30 16605 O 1639.88 1.33956 2.14038 0
M  V30 16606 C 1641.2 2.92958 -0.677957 0
M  V30 16607 C 1642.75 3.06356 -0.6415 0
M  V30 16608 C 1643.22 4.42793 -1.17041 0
M  V30 16609 N 1644.71 4.49208 -1.12988 0
M  V30 16610 C 1645.45 5.53171 -1.50961 0
M  V30 16611 N 1644.94 6.64381 -1.96391 0
M  V30 16612 N 1646.74 5.43722 -1.42556 0
M  V30 16613 H 1638.89 1.55785 -1.44378 0
M  V30 16614 H 1641.15 0.736295 -0.597138 0
M  V30 16615 H 1640.86 3.06529 -1.72433 0
M  V30 16616 H 1640.73 3.77002 -0.122247 0
M  V30 16617 H 1643.12 2.92431 0.395964 0
M  V30 16618 H 1643.2 2.24066 -1.23403 0
M  V30 16619 H 1642.84 4.57466 -2.20651 0
M  V30 16620 H 1642.77 5.23677 -0.554086 0
M  V30 16621 H 1645.26 3.69407 -0.796692 0
M  V30 16622 H 1645.58 7.39772 -2.23511 0
M  V30 16623 H 1643.92 6.65498 -2.00344 0
M  V30 16624 H 1647.11 4.55729 -1.06905 0
M  V30 16625 H 1647.28 6.24625 -1.72476 0
M  V30 16626 N 1640.69 0.205039 1.56261 0
M  V30 16627 C 1641.97 -0.479238 1.89638 0
M  V30 16628 C 1642.35 -1.78938 1.12002 0
M  V30 16629 O 1641.7 -2.27398 0.224179 0
M  V30 16630 C 1641.91 -0.688324 3.42145 0
M  V30 16631 C 1643.25 -1.00322 4.12578 0
M  V30 16632 O 1644.28 -0.775697 3.47651 0
M  V30 16633 O 1643.14 -1.43412 5.27347 0
M  V30 16634 H 1640.23 -0.251125 0.78795 0
M  V30 16635 H 1642.78 0.245994 1.67908 0
M  V30 16636 H 1641.55 0.236479 3.90585 0
M  V30 16637 H 1641.17 -1.46565 3.696 0
M  V30 16638 N 1642.17 -1.57451 -0.0684915 0
M  V30 16639 C 1643.42 -1.87041 -0.765505 0
M  V30 16640 C 1643.74 -0.797489 -1.77947 0
M  V30 16641 O 1643.01 0.17349 -1.9513 0
M  V30 16642 H 1641.59 -0.690203 -0.285708 0
M  V30 16643 H 1644.25 -1.94851 -0.0437957 0
M  V30 16644 H 1643.35 -2.8466 -1.27966 0
M  V30 16645 N 1643.65 0.339955 -1.5389 0
M  V30 16646 C 1644.9 1.07766 -1.7097 0
M  V30 16647 C 1645.22 1.89064 -0.477486 0
M  V30 16648 O 1644.49 1.89183 0.508579 0
M  V30 16649 H 1643.07 0.400849 -0.630341 0
M  V30 16650 H 1645.73 0.380359 -1.91153 0
M  V30 16651 H 1644.82 1.75301 -2.58217 0
M  V30 16652 N 1645.13 1.45684 0.601159 0
M  V30 16653 C 1646.36 1.53351 1.38445 0
M  V30 16654 C 1646.76 0.167103 1.88461 0
M  V30 16655 O 1646.11 -0.842684 1.63231 0
M  V30 16656 C 1646.17 2.46214 2.61952 0
M  V30 16657 C 1645.83 3.92826 2.33532 0
M  V30 16658 C 1646.83 4.8255 1.93498 0
M  V30 16659 C 1644.51 4.378 2.46245 0
M  V30 16660 C 1646.51 6.15257 1.66547 0
M  V30 16661 C 1644.2 5.70546 2.18908 0
M  V30 16662 C 1645.19 6.59094 1.79121 0
M  V30 16663 O 1644.88 7.89378 1.52108 0
M  V30 16664 H 1644.61 0.521638 0.429965 0
M  V30 16665 H 1647.17 1.91622 0.739617 0
M  V30 16666 H 1645.4 2.02926 3.29178 0
M  V30 16667 H 1647.09 2.44492 3.24004 0
M  V30 16668 H 1647.85 4.49066 1.83207 0
M  V30 16669 H 1643.73 3.69115 2.76179 0
M  V30 16670 H 1647.28 6.8433 1.35418 0
M  V30 16671 H 1643.17 6.03583 2.28818 0
M  V30 16672 H 1643.94 8.01468 1.66107 0
M  V30 16673 N 1646.6 -0.84422 1.33082 0
M  V30 16674 C 1647.51 -1.9858 1.24913 0
M  V30 16675 C 1648.53 -1.73256 0.160708 0
M  V30 16676 O 1649.71 -1.97719 0.383313 0
M  V30 16677 C 1646.77 -3.32471 0.983063 0
M  V30 16678 C 1645.83 -3.70946 2.16096 0
M  V30 16679 C 1645.06 -4.98448 1.90749 0
M  V30 16680 O 1645.29 -5.63953 0.855173 0
M  V30 16681 O 1644.22 -5.34301 2.7714 0
M  V30 16682 H 1648.05 -2.0841 2.20905 0
M  V30 16683 H 1645.63 -0.976447 1.13075 0
M  V30 16684 H 1647.51 -4.12705 0.851612 0
M  V30 16685 H 1646.19 -3.23656 0.053384 0
M  V30 16686 H 1645.1 -2.91244 2.34793 0
M  V30 16687 H 1646.43 -3.8442 3.07379 0
M  V30 16688 N 1648.08 -1.16463 -1.0618 0
M  V30 16689 C 1649.03 -0.87224 -2.13683 0
M  V30 16690 C 1650 0.179784 -1.65124 0
M  V30 16691 O 1651.18 0.0447406 -1.90748 0
M  V30 16692 C 1648.32 -0.380728 -3.42993 0
M  V30 16693 C 1647.44 -1.49571 -4.05281 0
M  V30 16694 C 1646.57 -0.959099 -5.2247 0
M  V30 16695 C 1645.61 -2.05021 -5.76743 0
M  V30 16696 N 1644.75 -1.5291 -6.85247 0
M  V30 16697 H 1649.59 -1.79288 -2.38033 0
M  V30 16698 H 1647.12 -0.894379 -1.16787 0
M  V30 16699 H 1649.08 -0.0773816 -4.17128 0
M  V30 16700 H 1647.71 0.502966 -3.18857 0
M  V30 16701 H 1646.76 -1.915 -3.28682 0
M  V30 16702 H 1648.08 -2.31904 -4.41613 0
M  V30 16703 H 1647.23 -0.609003 -6.03636 0
M  V30 16704 H 1645.97 -0.105086 -4.87587 0
M  V30 16705 H 1644.97 -2.40899 -4.94214 0
M  V30 16706 H 1646.2 -2.90821 -6.13678 0
M  V30 16707 H 1644.15 -0.697639 -6.5228 0
M  V30 16708 H 1644.06 -2.28859 -7.20527 0
M  V30 16709 H 1645.33 -1.20762 -7.70089 0
M  V30 16710 N 1649.56 1.24734 -0.963288 0
M  V30 16711 C 1650.78 1.97285 -0.639808 0
M  V30 16712 C 1651.21 1.71024 0.783099 0
M  V30 16713 O 1650.57 0.971324 1.53085 0
M  V30 16714 C 1650.62 3.48793 -0.915197 0
M  V30 16715 O 1649.72 4.124 0.00162805 0
M  V30 16716 H 1649.06 0.618196 -0.242343 0
M  V30 16717 H 1651.59 1.58627 -1.29224 0
M  V30 16718 H 1651.6 3.99155 -0.84495 0
M  V30 16719 H 1650.28 3.67235 -1.95221 0
M  V30 16720 H 1648.85 3.72702 -0.121563 0
M  V30 16721 N 1651.04 0.732878 1.39523 0
M  V30 16722 C 1652.45 0.350145 1.83387 0
M  V30 16723 C 1652.8 -1.11807 1.61225 0
M  V30 16724 O 1651.92 -1.86222 1.10229 0
M  V30 16725 C 1652.52 0.628743 3.32915 0
M  V30 16726 C 1651.08 0.299529 3.75206 0
M  V30 16727 C 1650.23 0.892434 2.62547 0
M  V30 16728 H 1653.18 0.930687 1.28545 0
M  V30 16729 H 1653.2 -0.100206 3.80368 0
M  V30 16730 H 1652.71 1.6974 3.49013 0
M  V30 16731 H 1650.81 -0.763373 3.64696 0
M  V30 16732 H 1650.92 0.780607 4.72698 0
M  V30 16733 H 1649.29 0.319218 2.52692 0
M  V30 16734 H 1650.07 1.9657 2.81452 0
M  V30 16735 N 1652.52 -1.50101 0.480349 0
M  V30 16736 C 1653.45 -2.31581 -0.298718 0
M  V30 16737 C 1654.43 -1.38905 -0.981798 0
M  V30 16738 O 1655.61 -1.67823 -0.977188 0
M  V30 16739 C 1652.74 -3.18891 -1.37571 0
M  V30 16740 C 1651.7 -4.20194 -0.813704 0
M  V30 16741 C 1651.02 -4.96302 -1.98968 0
M  V30 16742 C 1652.32 -5.21985 0.181295 0
M  V30 16743 H 1654.02 -2.96961 0.381349 0
M  V30 16744 H 1651.56 -1.42809 0.184842 0
M  V30 16745 H 1653.51 -3.74694 -1.92828 0
M  V30 16746 H 1652.24 -2.51414 -2.08467 0
M  V30 16747 H 1650.9 -3.65506 -0.283034 0
M  V30 16748 H 1650.55 -4.2529 -2.68584 0
M  V30 16749 H 1650.25 -5.64833 -1.61981 0
M  V30 16750 H 1651.77 -5.54943 -2.54698 0
M  V30 16751 H 1653.18 -5.72604 -0.28242 0
M  V30 16752 H 1651.58 -5.98289 0.465916 0
M  V30 16753 H 1652.65 -4.72162 1.10413 0
M  V30 16754 N 1653.99 -0.213323 -1.5615 0
M  V30 16755 C 1654.92 0.695003 -2.22917 0
M  V30 16756 C 1655.9 1.20738 -1.19818 0
M  V30 16757 O 1657.09 1.25289 -1.48379 0
M  V30 16758 C 1654.22 1.90685 -2.9027 0
M  V30 16759 C 1653.17 1.52865 -3.9977 0
M  V30 16760 C 1652.5 2.81859 -4.54378 0
M  V30 16761 C 1653.8 0.724829 -5.17246 0
M  V30 16762 H 1655.49 0.138351 -2.9908 0
M  V30 16763 H 1653.04 0.0651029 -1.43853 0
M  V30 16764 H 1654.99 2.54766 -3.35667 0
M  V30 16765 H 1653.72 2.48833 -2.11541 0
M  V30 16766 H 1652.38 0.911336 -3.55092 0
M  V30 16767 H 1652.02 3.38135 -3.72389 0
M  V30 16768 H 1651.72 2.57291 -5.28275 0
M  V30 16769 H 1653.25 3.46897 -5.02489 0
M  V30 16770 H 1654.66 1.26915 -5.59076 0
M  V30 16771 H 1653.06 0.57656 -5.97324 0
M  V30 16772 H 1654.13 -0.270309 -4.84146 0
M  V30 16773 N 1655.47 1.57485 0.0601405 0
M  V30 16774 C 1656.72 1.87445 0.755575 0
M  V30 16775 C 1657.04 0.806915 1.77522 0
M  V30 16776 O 1656.31 -0.163139 1.9522 0
M  V30 16777 H 1654.89 0.691708 0.282044 0
M  V30 16778 H 1657.55 1.94871 0.0334616 0
M  V30 16779 H 1656.65 2.85334 1.26455 0
M  V30 16780 N 1656.95 -0.331789 1.54068 0
M  V30 16781 C 1658.2 -1.06818 1.71093 0
M  V30 16782 C 1658.51 -1.89438 0.487111 0
M  V30 16783 O 1659.72 -2.66105 0.538544 0
M  V30 16784 C 1658.17 -1.94853 3.02589 0
M  V30 16785 C 1657.78 -1.17384 4.32348 0
M  V30 16786 C 1659.53 -2.68278 3.28979 0
M  V30 16787 C 1657.43 -2.04518 5.54911 0
M  V30 16788 H 1656.36 -0.402501 0.63758 0
M  V30 16789 H 1659.01 -0.326918 1.80564 0
M  V30 16790 H 1657.4 -2.72845 2.87004 0
M  V30 16791 H 1658.57 -0.442208 4.58673 0
M  V30 16792 H 1656.89 -0.556775 4.12661 0
M  V30 16793 H 1659.48 -3.33762 4.1774 0
M  V30 16794 H 1659.83 -3.35476 2.46498 0
M  V30 16795 H 1660.36 -1.97353 3.45394 0
M  V30 16796 H 1657.1 -1.41842 6.3997 0
M  V30 16797 H 1656.62 -2.75438 5.32817 0
M  V30 16798 H 1658.3 -2.63297 5.91002 0
M  V30 16799 N 1658.43 -1.46001 -0.593424 0
M  V30 16800 C 1659.68 -1.50755 -1.352 0
M  V30 16801 C 1660 -0.154929 -1.93882 0
M  V30 16802 O 1659.26 0.848161 -1.76365 0
M  V30 16803 C 1659.56 -2.54568 -2.50858 0
M  V30 16804 C 1659.22 -3.98888 -2.10236 0
M  V30 16805 C 1657.89 -4.38182 -1.98872 0
M  V30 16806 C 1660.24 -4.89591 -1.78746 0
M  V30 16807 C 1657.57 -5.66057 -1.5426 0
M  V30 16808 C 1659.92 -6.17892 -1.35617 0
M  V30 16809 C 1658.58 -6.56103 -1.22822 0
M  V30 16810 H 1657.85 -0.551652 -0.494734 0
M  V30 16811 H 1660.5 -1.79422 -0.669327 0
M  V30 16812 H 1658.8 -2.19523 -3.24526 0
M  V30 16813 H 1660.5 -2.5548 -3.09081 0
M  V30 16814 H 1657.09 -3.67822 -2.20012 0
M  V30 16815 H 1661.27 -4.59959 -1.86416 0
M  V30 16816 H 1656.53 -5.94444 -1.42988 0
M  V30 16817 H 1660.7 -6.87609 -1.10301 0
M  V30 16818 H 1658.33 -7.55086 -0.880285 0
M  V30 16819 N 1659.91 0.83715 -1.33527 0
M  V30 16820 C 1661.14 1.6222 -1.27938 0
M  V30 16821 C 1661.54 1.88592 0.151584 0
M  V30 16822 O 1660.89 1.46772 1.1047 0
M  V30 16823 C 1660.95 2.99561 -1.98754 0
M  V30 16824 C 1660.61 2.96152 -3.48056 0
M  V30 16825 C 1661.61 2.71745 -4.43227 0
M  V30 16826 C 1659.3 3.16233 -3.90259 0
M  V30 16827 C 1661.29 2.67451 -5.78575 0
M  V30 16828 C 1658.98 3.11564 -5.2571 0
M  V30 16829 C 1659.97 2.87204 -6.1968 0
M  V30 16830 O 1659.66 2.82441 -7.5265 0
M  V30 16831 H 1659.39 0.511419 -0.442071 0
M  V30 16832 H 1661.95 1.05075 -1.76489 0
M  V30 16833 H 1660.18 3.58568 -1.44797 0
M  V30 16834 H 1661.87 3.60444 -1.86642 0
M  V30 16835 H 1662.63 2.5598 -4.11946 0
M  V30 16836 H 1658.51 3.34214 -3.17525 0
M  V30 16837 H 1662.06 2.48356 -6.51893 0
M  V30 16838 H 1657.95 3.26879 -5.56615 0
M  V30 16839 H 1658.72 2.98271 -7.62218 0
M  V30 16840 N 1661.38 1.17024 1.05561 0
M  V30 16841 C 1662.63 0.954436 1.78143 0
M  V30 16842 C 1662.95 -0.518525 1.8798 0
M  V30 16843 O 1662.22 -1.37654 1.39385 0
M  V30 16844 H 1660.8 0.350141 0.659856 0
M  V30 16845 H 1663.47 1.4743 1.27477 0
M  V30 16846 H 1662.56 1.37955 2.79955 0
M  V30 16847 N 1662.86 -1.24221 0.969889 0
M  V30 16848 C 1664.09 -1.96943 0.650262 0
M  V30 16849 C 1664.51 -1.71437 -0.774018 0
M  V30 16850 O 1663.87 -0.979428 -1.52568 0
M  V30 16851 C 1663.92 -3.48303 0.933682 0
M  V30 16852 O 1663.02 -4.12395 0.0202425 0
M  V30 16853 H 1662.36 -0.616902 0.245618 0
M  V30 16854 H 1664.89 -1.57939 1.30063 0
M  V30 16855 H 1664.9 -3.98701 0.866106 0
M  V30 16856 H 1663.58 -3.66194 1.97166 0
M  V30 16857 H 1662.16 -3.72632 0.141327 0
M  V30 16858 N 1664.34 -0.740267 -1.39132 0
M  V30 16859 C 1665.29 -0.0929334 -2.32414 0
M  V30 16860 C 1666.28 0.720062 -1.53334 0
M  V30 16861 O 1667.49 0.620656 -1.68961 0
M  V30 16862 H 1663.86 -0.0112531 -0.751916 0
M  V30 16863 H 1665.83 -0.895975 -2.84631 0
M  V30 16864 C 1664.58 0.796182 -3.38462 0
M  V30 16865 H 1663.91 0.17999 -3.99395 0
M  V30 16866 H 1665.35 1.21664 -4.0617 0
M  V30 16867 C 1663.81 1.93285 -2.75939 0
M  V30 16868 O 1664.34 3.02593 -2.64198 0
M  V30 16869 N 1662.54 1.72386 -2.33948 0
M  V30 16870 H 1662.09 0.834821 -2.43698 0
M  V30 16871 H 1662.05 2.48612 -1.92456 0
M  V30 16872 N 1665.82 1.49844 -0.488302 0
M  V30 16873 C 1666.75 2.31737 0.286432 0
M  V30 16874 C 1667.73 1.39424 0.974418 0
M  V30 16875 O 1668.91 1.68339 0.968274 0
M  V30 16876 C 1666.04 3.19616 1.35878 0
M  V30 16877 C 1665 4.20619 0.791409 0
M  V30 16878 C 1664.32 4.9735 1.96333 0
M  V30 16879 C 1665.62 5.21882 -0.208975 0
M  V30 16880 H 1667.32 2.96755 -0.397092 0
M  V30 16881 H 1664.86 1.42709 -0.192413 0
M  V30 16882 H 1666.82 3.75711 1.90838 0
M  V30 16883 H 1665.54 2.52516 2.07131 0
M  V30 16884 H 1664.2 3.65651 0.263647 0
M  V30 16885 H 1663.85 4.26708 2.66325 0
M  V30 16886 H 1663.55 5.65684 1.58983 0
M  V30 16887 H 1665.07 5.56286 2.51751 0
M  V30 16888 H 1666.49 5.72746 0.252049 0
M  V30 16889 H 1664.88 5.98033 -0.497638 0
M  V30 16890 H 1665.95 4.7157 -1.12916 0
M  V30 16891 N 1667.3 0.221601 1.56034 0
M  V30 16892 C 1668.71 -0.28624 1.84493 0
M  V30 16893 C 1669.06 -1.59469 1.14298 0
M  V30 16894 O 1668.18 -2.12429 0.412672 0
M  V30 16895 C 1668.78 -0.526128 3.3469 0
M  V30 16896 C 1667.34 -0.978278 3.63465 0
M  V30 16897 C 1666.48 -0.0413786 2.77269 0
M  V30 16898 H 1669.44 0.444792 1.52339 0
M  V30 16899 H 1669.46 -1.37212 3.54899 0
M  V30 16900 H 1668.97 0.426348 3.85751 0
M  V30 16901 H 1667.07 -1.94411 3.1786 0
M  V30 16902 H 1667.18 -0.852651 4.71452 0
M  V30 16903 H 1665.55 -0.548179 2.48731 0
M  V30 16904 H 1666.33 0.906016 3.31129 0
M  V30 16905 N 1668.77 -1.57515 -0.0517878 0
M  V30 16906 C 1670.19 -1.76755 -0.601218 0
M  V30 16907 C 1670.54 -0.849744 -1.76844 0
M  V30 16908 O 1669.66 -0.0387987 -2.16365 0
M  V30 16909 C 1670.26 -3.20534 -1.09743 0
M  V30 16910 C 1668.82 -3.41049 -1.59256 0
M  V30 16911 C 1667.96 -2.72369 -0.520618 0
M  V30 16912 H 1670.91 -1.57739 0.174429 0
M  V30 16913 H 1670.93 -3.25796 -1.96563 0
M  V30 16914 H 1670.45 -3.87309 -0.247696 0
M  V30 16915 H 1668.55 -2.79417 -2.46489 0
M  V30 16916 H 1668.66 -4.49581 -1.65572 0
M  V30 16917 H 1667.02 -2.3549 -0.97038 0
M  V30 16918 H 1667.81 -3.41812 0.319266 0
M  V30 16919 N 1670.25 0.323614 -1.54242 0
M  V30 16920 C 1671.48 1.0811 -1.76408 0
M  V30 16921 C 1671.9 1.81707 -0.512656 0
M  V30 16922 O 1671.25 1.75035 0.516638 0
M  V30 16923 C 1671.3 2.07923 -2.9572 0
M  V30 16924 O 1671.03 1.37317 -4.16024 0
M  V30 16925 C 1672.53 2.95891 -3.30096 0
M  V30 16926 H 1669.75 0.321583 -0.588919 0
M  V30 16927 H 1672.29 0.369756 -2.01129 0
M  V30 16928 H 1670.45 2.74593 -2.73272 0
M  V30 16929 H 1670.86 2.04158 -4.83135 0
M  V30 16930 H 1672.33 3.61822 -4.1688 0
M  V30 16931 H 1672.81 3.62986 -2.47261 0
M  V30 16932 H 1673.42 2.34783 -3.54622 0
M  V30 16933 N 1671.73 1.46313 0.585673 0
M  V30 16934 C 1672.98 1.50738 1.34019 0
M  V30 16935 C 1673.29 0.162245 1.94926 0
M  V30 16936 O 1674.5 0.0842676 2.71369 0
M  V30 16937 C 1672.96 2.65592 2.42876 0
M  V30 16938 C 1672.56 4.06513 1.88285 0
M  V30 16939 C 1674.31 2.79284 3.19689 0
M  V30 16940 C 1672.21 5.12712 2.94754 0
M  V30 16941 H 1671.14 0.560979 0.503804 0
M  V30 16942 H 1673.8 1.72516 0.625344 0
M  V30 16943 H 1672.18 2.37138 3.17146 0
M  V30 16944 H 1673.35 4.44744 1.20578 0
M  V30 16945 H 1671.67 3.97462 1.2415 0
M  V30 16946 H 1674.26 3.55795 3.99142 0
M  V30 16947 H 1674.61 1.86694 3.7209 0
M  V30 16948 H 1675.14 3.0737 2.52525 0
M  V30 16949 H 1671.88 6.07084 2.47244 0
M  V30 16950 H 1671.4 4.79028 3.6096 0
M  V30 16951 H 1673.08 5.38426 3.58757 0
M  V30 16952 N 1673.21 -0.830057 1.33969 0
M  V30 16953 C 1674.46 -1.58084 1.25269 0
M  V30 16954 C 1674.77 -1.94792 -0.177557 0
M  V30 16955 O 1675.98 -2.68733 -0.386657 0
M  V30 16956 C 1674.43 -2.85177 2.1955 0
M  V30 16957 C 1674.04 -2.55798 3.67792 0
M  V30 16958 C 1675.79 -3.632 2.19741 0
M  V30 16959 C 1673.69 -3.79041 4.53963 0
M  V30 16960 H 1672.62 -0.593289 0.465321 0
M  V30 16961 H 1675.27 -0.914476 1.5909 0
M  V30 16962 H 1673.66 -3.53401 1.78672 0
M  V30 16963 H 1674.83 -1.9573 4.17165 0
M  V30 16964 H 1673.14 -1.91064 3.69978 0
M  V30 16965 H 1675.74 -4.54695 2.81347 0
M  V30 16966 H 1676.08 -3.98786 1.1948 0
M  V30 16967 H 1676.62 -3.0191 2.59028 0
M  V30 16968 H 1673.36 -3.4858 5.55133 0
M  V30 16969 H 1672.88 -4.38417 4.09329 0
M  V30 16970 H 1674.56 -4.46527 4.68212 0
M  V30 16971 N 1674.69 -1.17582 -1.04939 0
M  V30 16972 C 1675.91 -0.99097 -1.82194 0
M  V30 16973 C 1676.34 0.455965 -1.8249 0
M  V30 16974 O 1675.7 1.32661 -1.23575 0
M  V30 16975 C 1675.74 -1.53971 -3.26076 0
M  V30 16976 O 1674.85 -0.755172 -4.05427 0
M  V30 16977 H 1674.19 -0.351669 -0.563227 0
M  V30 16978 H 1676.72 -1.56138 -1.3222 0
M  V30 16979 H 1676.73 -1.56307 -3.76872 0
M  V30 16980 H 1675.4 -2.59295 -3.25175 0
M  V30 16981 H 1673.98 -0.803423 -3.64142 0
M  V30 16982 N 1676.17 1.23705 -0.976463 0
M  V30 16983 C 1677.12 2.22789 -0.484676 0
M  V30 16984 C 1678.1 1.5482 0.43814 0
M  V30 16985 O 1679.29 1.74965 0.267635 0
M  V30 16986 C 1676.42 3.42624 0.21541 0
M  V30 16987 C 1675.51 4.17827 -0.726745 0
M  V30 16988 N 1675.9 4.70053 -1.86771 0
M  V30 16989 C 1674.2 4.42728 -0.539282 0
M  V30 16990 C 1674.9 5.27229 -2.45773 0
M  V30 16991 N 1673.87 5.14932 -1.742 0
M  V30 16992 H 1677.67 2.60795 -1.35511 0
M  V30 16993 H 1675.19 1.39191 -0.836644 0
M  V30 16994 H 1677.19 4.12775 0.585009 0
M  V30 16995 H 1675.85 3.06135 1.08218 0
M  V30 16996 H 1676.86 4.66519 -2.24901 0
M  V30 16997 H 1673.53 4.16541 0.282799 0
M  V30 16998 H 1674.92 5.78284 -3.42106 0
M  V30 16999 N 1677.64 0.747635 1.38738 0
M  V30 17000 C 1678.87 0.310484 2.05063 0
M  V30 17001 C 1679.29 -1.05078 1.56013 0
M  V30 17002 O 1678.65 -1.66842 0.709461 0
M  V30 17003 C 1678.7 0.335837 3.59033 0
M  V30 17004 O 1677.8 -0.672218 4.06884 0
M  V30 17005 H 1677.14 0.138591 0.649375 0
M  V30 17006 H 1679.67 1.01709 1.77529 0
M  V30 17007 H 1679.68 0.184631 4.07582 0
M  V30 17008 H 1678.36 1.32906 3.94092 0
M  V30 17009 H 1676.94 -0.486112 3.69718 0
M  V30 17010 N 1679.12 -1.49583 0.496242 0
M  V30 17011 C 1680.07 -2.30677 -0.298474 0
M  V30 17012 C 1681.06 -1.39074 -0.967207 0
M  V30 17013 O 1682.27 -1.56147 -0.895439 0
M  V30 17014 H 1678.64 -0.743138 -0.11511 0
M  V30 17015 H 1680.62 -2.95632 0.405533 0
M  V30 17016 C 1679.36 -3.20297 -1.35297 0
M  V30 17017 H 1678.69 -3.90708 -0.847789 0
M  V30 17018 H 1680.13 -3.79987 -1.88111 0
M  V30 17019 C 1678.59 -2.39584 -2.36857 0
M  V30 17020 O 1679.12 -2.09662 -3.42644 0
M  V30 17021 N 1677.32 -2.01695 -2.09206 0
M  V30 17022 H 1676.87 -2.26229 -1.23201 0
M  V30 17023 H 1676.83 -1.47998 -2.77388 0
M  V30 17024 N 1680.6 -0.229873 -1.55915 0
M  V30 17025 C 1681.55 0.676809 -2.20653 0
M  V30 17026 C 1682.52 1.18412 -1.16481 0
M  V30 17027 O 1683.7 1.2417 -1.44867 0
M  V30 17028 C 1680.84 1.87567 -2.89677 0
M  V30 17029 C 1679.95 1.40648 -4.08463 0
M  V30 17030 C 1679.09 2.56356 -4.65247 0
M  V30 17031 C 1678.13 2.06215 -5.76318 0
M  V30 17032 N 1677.27 3.15226 -6.27357 0
M  V30 17033 H 1682.11 0.118035 -2.97766 0
M  V30 17034 H 1679.64 0.0465042 -1.47026 0
M  V30 17035 H 1681.6 2.57968 -3.27884 0
M  V30 17036 H 1680.23 2.40719 -2.15067 0
M  V30 17037 H 1679.28 0.597104 -3.75684 0
M  V30 17038 H 1680.59 0.998877 -4.88696 0
M  V30 17039 H 1679.75 3.34827 -5.05941 0
M  V30 17040 H 1678.49 3.0041 -3.84194 0
M  V30 17041 H 1677.49 1.26209 -5.35118 0
M  V30 17042 H 1678.72 1.63151 -6.59211 0
M  V30 17043 H 1676.66 3.58746 -5.49215 0
M  V30 17044 H 1676.58 2.78744 -7.02736 0
M  V30 17045 H 1677.85 3.93807 -6.72708 0
M  V30 17046 N 1682.08 1.5754 0.0434337 0
M  V30 17047 C 1683.01 2.08648 1.04824 0
M  V30 17048 C 1683.99 0.985894 1.38615 0
M  V30 17049 O 1685.17 1.2603 1.4775 0
M  V30 17050 C 1682.3 2.55399 2.35348 0
M  V30 17051 C 1681.26 3.69592 2.15837 0
M  V30 17052 C 1680.58 4.02497 3.51995 0
M  V30 17053 C 1681.88 4.98575 1.55629 0
M  V30 17054 H 1683.58 2.9285 0.622849 0
M  V30 17055 H 1681.12 1.40879 0.298158 0
M  V30 17056 H 1683.08 2.89771 3.05958 0
M  V30 17057 H 1681.8 1.68262 2.7992 0
M  V30 17058 H 1680.46 3.35546 1.47663 0
M  V30 17059 H 1680.11 3.12448 3.94189 0
M  V30 17060 H 1679.81 4.79406 3.39771 0
M  V30 17061 H 1681.33 4.39391 4.23991 0
M  V30 17062 H 1682.75 5.30996 2.16138 0
M  V30 17063 H 1681.14 5.79998 1.54021 0
M  V30 17064 H 1682.21 4.82098 0.520567 0
M  V30 17065 N 1683.56 -0.31543 1.54411 0
M  V30 17066 C 1684.8 -1.05012 1.74195 0
M  V30 17067 C 1685.16 -1.85415 0.513728 0
M  V30 17068 O 1684.45 -1.85125 -0.493881 0
M  V30 17069 C 1684.64 -1.99884 2.96279 0
M  V30 17070 C 1684.47 -1.28811 4.30857 0
M  V30 17071 C 1683.24 -1.02124 4.94873 0
M  V30 17072 C 1685.44 -0.699875 5.09516 0
M  V30 17073 N 1683.42 -0.279269 6.13264 0
M  V30 17074 C 1684.79 -0.0899378 6.19935 0
M  V30 17075 C 1686.85 -0.603494 4.94229 0
M  V30 17076 C 1685.55 0.607038 7.16734 0
M  V30 17077 C 1687.58 0.0797975 5.91346 0
M  V30 17078 C 1686.94 0.678645 7.01123 0
M  V30 17079 H 1683.04 -0.367689 0.690166 0
M  V30 17080 H 1685.62 -0.33037 1.91877 0
M  V30 17081 H 1683.79 -2.69123 2.80049 0
M  V30 17082 H 1685.53 -2.66398 3.04654 0
M  V30 17083 H 1682.28 -1.31568 4.54958 0
M  V30 17084 H 1682.7 0.0778086 6.76955 0
M  V30 17085 H 1687.35 -1.05219 4.09498 0
M  V30 17086 H 1685.06 1.06755 8.01017 0
M  V30 17087 H 1688.65 0.154121 5.81596 0
M  V30 17088 H 1687.53 1.19897 7.7498 0
M  V30 17089 N 1685.03 -1.46622 -0.577906 0
M  V30 17090 C 1685.96 -1.60413 -1.69676 0
M  V30 17091 C 1686.95 -0.454277 -1.63922 0
M  V30 17092 O 1688.13 -0.68111 -1.81864 0
M  V30 17093 C 1685.26 -1.59866 -3.08318 0
M  V30 17094 C 1684.21 -2.7387 -3.28906 0
M  V30 17095 C 1683.54 -2.58386 -4.68125 0
M  V30 17096 C 1684.84 -4.15652 -3.16276 0
M  V30 17097 H 1686.53 -2.54073 -1.5839 0
M  V30 17098 H 1684.08 -1.22275 -0.760572 0
M  V30 17099 H 1686.03 -1.68108 -3.86417 0
M  V30 17100 H 1684.76 -0.627541 -3.20514 0
M  V30 17101 H 1683.42 -2.65105 -2.53209 0
M  V30 17102 H 1683.06 -1.59347 -4.77093 0
M  V30 17103 H 1682.76 -3.34855 -4.82852 0
M  V30 17104 H 1684.29 -2.68525 -5.48385 0
M  V30 17105 H 1685.7 -4.25503 -3.84214 0
M  V30 17106 H 1684.1 -4.92746 -3.42523 0
M  V30 17107 H 1685.17 -4.35471 -2.13291 0
M  V30 17108 N 1686.51 0.822941 -1.34408 0
M  V30 17109 C 1687.46 1.93383 -1.25982 0
M  V30 17110 C 1688.43 1.6555 -0.13506 0
M  V30 17111 O 1689.61 1.88164 -0.316033 0
M  V30 17112 C 1686.75 3.29646 -1.02117 0
M  V30 17113 C 1685.87 3.69772 -2.23366 0
M  V30 17114 C 1685 4.94982 -1.92784 0
M  V30 17115 C 1684.04 5.2769 -3.10177 0
M  V30 17116 N 1683.18 6.44078 -2.79479 0
M  V30 17117 H 1688.02 1.99922 -2.20987 0
M  V30 17118 H 1685.56 0.978105 -1.0987 0
M  V30 17119 H 1687.51 4.08173 -0.863175 0
M  V30 17120 H 1686.14 3.2262 -0.107803 0
M  V30 17121 H 1685.2 2.86637 -2.50086 0
M  V30 17122 H 1686.51 3.89914 -3.11076 0
M  V30 17123 H 1685.66 5.81297 -1.73721 0
M  V30 17124 H 1684.4 4.76843 -1.02335 0
M  V30 17125 H 1683.41 4.39873 -3.29837 0
M  V30 17126 H 1684.63 5.47769 -4.01405 0
M  V30 17127 H 1682.58 6.27394 -1.91605 0
M  V30 17128 H 1682.49 6.64392 -3.60721 0
M  V30 17129 H 1683.76 7.33462 -2.63919 0
M  V30 17130 N 1687.99 1.18137 1.04314 0
M  V30 17131 C 1689.24 0.975203 1.77471 0
M  V30 17132 C 1689.57 -0.495399 1.88085 0
M  V30 17133 O 1688.82 -1.38401 1.38361 0
M  V30 17134 C 1689.12 1.57211 3.20966 0
M  V30 17135 C 1688.79 3.06842 3.30392 0
M  V30 17136 C 1687.45 3.47683 3.32671 0
M  V30 17137 C 1689.8 4.02855 3.30692 0
M  V30 17138 C 1687.13 4.83116 3.3289 0
M  V30 17139 C 1689.48 5.382 3.3245 0
M  V30 17140 C 1688.14 5.78492 3.33021 0
M  V30 17141 H 1687.41 0.356852 0.649413 0
M  V30 17142 H 1690.06 1.47163 1.22536 0
M  V30 17143 H 1688.37 0.997616 3.78886 0
M  V30 17144 H 1690.06 1.38804 3.76211 0
M  V30 17145 H 1686.65 2.74291 3.29336 0
M  V30 17146 H 1690.84 3.72355 3.28124 0
M  V30 17147 H 1686.09 5.13634 3.31647 0
M  V30 17148 H 1690.27 6.12367 3.31631 0
M  V30 17149 H 1687.89 6.83412 3.32944 0
M  V30 17150 N 1689.47 -1.23186 0.98301 0
M  V30 17151 C 1690.42 -2.24748 0.525082 0
M  V30 17152 C 1691.39 -1.60237 -0.437411 0
M  V30 17153 O 1692.57 -1.87666 -0.344376 0
M  V30 17154 C 1689.71 -3.44711 -0.163809 0
M  V30 17155 C 1688.82 -4.23769 0.839254 0
M  V30 17156 C 1687.96 -5.31053 0.1249 0
M  V30 17157 C 1687 -6.01822 1.117 0
M  V30 17158 N 1686.13 -7.00772 0.431625 0
M  V30 17159 H 1690.97 -2.63283 1.39593 0
M  V30 17160 H 1688.51 -1.29407 0.699438 0
M  V30 17161 H 1690.47 -4.13148 -0.580046 0
M  V30 17162 H 1689.1 -3.06969 -0.998507 0
M  V30 17163 H 1688.15 -3.54724 1.37386 0
M  V30 17164 H 1689.46 -4.72606 1.59515 0
M  V30 17165 H 1688.62 -6.05698 -0.348569 0
M  V30 17166 H 1687.36 -4.83165 -0.663573 0
M  V30 17167 H 1686.36 -5.25967 1.6012 0
M  V30 17168 H 1687.59 -6.51799 1.90618 0
M  V30 17169 H 1685.53 -6.55131 -0.337592 0
M  V30 17170 H 1685.45 -7.47566 1.12613 0
M  V30 17171 H 1686.72 -7.79498 -0.0193703 0
M  V30 17172 N 1690.95 -0.754982 -1.38339 0
M  V30 17173 C 1692.17 -0.321355 -2.04895 0
M  V30 17174 C 1692.6 1.04249 -1.56569 0
M  V30 17175 O 1691.95 1.66464 -0.718299 0
M  V30 17176 C 1692 -0.354873 -3.5885 0
M  V30 17177 O 1691.11 0.65063 -4.07235 0
M  V30 17178 H 1690.45 -0.142033 -0.648631 0
M  V30 17179 H 1692.98 -1.02649 -1.76987 0
M  V30 17180 H 1692.99 -0.206243 -4.07478 0
M  V30 17181 H 1691.66 -1.34994 -3.93382 0
M  V30 17182 H 1690.24 0.466498 -3.69971 0
M  V30 17183 N 1692.42 1.49318 -0.504168 0
M  V30 17184 C 1693.7 1.95332 0.102393 0
M  V30 17185 C 1694.08 1.44576 1.53821 0
M  V30 17186 O 1693.43 0.660894 2.18734 0
M  V30 17187 C 1693.64 3.48998 0.0117694 0
M  V30 17188 C 1694.99 4.24201 0.184101 0
M  V30 17189 O 1696.01 3.56094 0.0868056 0
M  V30 17190 O 1694.87 5.45147 0.384267 0
M  V30 17191 H 1691.96 0.821691 0.0935582 0
M  V30 17192 H 1694.51 1.5995 -0.566932 0
M  V30 17193 H 1693.28 3.78585 -0.989413 0
M  V30 17194 H 1692.91 3.91006 0.7211 0
M  V30 17195 N 1693.9 0.238138 1.5579 0
M  V30 17196 C 1694.83 -0.697701 2.18323 0
M  V30 17197 C 1695.85 -1.1453 1.15701 0
M  V30 17198 O 1697.04 -1.07359 1.42605 0
M  V30 17199 C 1694.14 -1.95895 2.76547 0
M  V30 17200 C 1693.31 -1.66422 4.04503 0
M  V30 17201 C 1692.37 -2.77419 4.4713 0
M  V30 17202 O 1691.39 -2.45179 5.13689 0
M  V30 17203 N 1692.6 -4.06731 4.14187 0
M  V30 17204 H 1695.36 -0.162705 2.99258 0
M  V30 17205 H 1692.92 0.0577602 1.61797 0
M  V30 17206 H 1694.91 -2.69374 3.02026 0
M  V30 17207 H 1693.48 -2.40398 1.99819 0
M  V30 17208 H 1692.7 -0.76505 3.86705 0
M  V30 17209 H 1693.99 -1.44183 4.87943 0
M  V30 17210 H 1693.39 -4.3576 3.60735 0
M  V30 17211 H 1691.95 -4.76701 4.44521 0
M  V30 17212 N 1695.38 -1.57561 -0.0350783 0
M  V30 17213 C 1696.63 -1.88177 -0.726105 0
M  V30 17214 C 1696.94 -0.835856 -1.76841 0
M  V30 17215 O 1698.15 -1.03105 -2.51161 0
M  V30 17216 C 1696.6 -3.33924 -1.34249 0
M  V30 17217 C 1696.21 -4.46732 -0.336845 0
M  V30 17218 C 1697.96 -3.73696 -2.01374 0
M  V30 17219 C 1695.86 -5.83536 -0.961234 0
M  V30 17220 H 1694.79 -0.702082 -0.274948 0
M  V30 17221 H 1697.44 -1.83489 0.0197081 0
M  V30 17222 H 1695.83 -3.33337 -2.13781 0
M  V30 17223 H 1697 -4.58777 0.431323 0
M  V30 17224 H 1695.32 -4.15753 0.231983 0
M  V30 17225 H 1697.91 -4.7322 -2.48931 0
M  V30 17226 H 1698.26 -3.05379 -2.8293 0
M  V30 17227 H 1698.79 -3.76431 -1.28626 0
M  V30 17228 H 1695.53 -6.55238 -0.185217 0
M  V30 17229 H 1695.05 -5.75223 -1.69938 0
M  V30 17230 H 1696.73 -6.30071 -1.47035 0
M  V30 17231 N 1696.86 0.307236 -1.54576 0
M  V30 17232 C 1698.14 1.06243 -1.64231 0
M  V30 17233 C 1698.52 2.05415 -0.486589 0
M  V30 17234 O 1697.86 2.22565 0.517384 0
M  V30 17235 C 1698.07 1.74985 -3.01962 0
M  V30 17236 C 1699.42 2.2741 -3.58566 0
M  V30 17237 O 1700.45 1.85027 -3.04374 0
M  V30 17238 O 1699.3 3.05051 -4.53438 0
M  V30 17239 H 1696.4 0.490693 -0.665695 0
M  V30 17240 H 1698.94 0.305822 -1.66922 0
M  V30 17241 H 1697.72 1.02939 -3.77517 0
M  V30 17242 H 1697.34 2.57417 -3.03022 0
M  V30 17243 N 1698.34 1.46926 0.570122 0
M  V30 17244 C 1699.56 1.5648 1.35358 0
M  V30 17245 C 1699.98 0.210356 1.87624 0
M  V30 17246 O 1699.34 -0.794388 1.64304 0
M  V30 17247 C 1699.39 2.57973 2.53243 0
M  V30 17248 O 1699.11 3.88157 2.03139 0
M  V30 17249 C 1700.61 2.77587 3.4563 0
M  V30 17250 H 1697.83 0.528787 0.413068 0
M  V30 17251 H 1700.37 1.9244 0.691895 0
M  V30 17252 H 1698.53 2.24982 3.15375 0
M  V30 17253 H 1698.94 4.43506 2.80004 0
M  V30 17254 H 1700.42 3.52495 4.24795 0
M  V30 17255 H 1700.89 1.84944 3.98362 0
M  V30 17256 H 1701.5 3.11724 2.89324 0
M  V30 17257 N 1699.82 -0.815801 1.34842 0
M  V30 17258 C 1701.23 -1.10999 1.1468 0
M  V30 17259 C 1701.43 -2.01445 -0.0469339 0
M  V30 17260 O 1700.49 -2.42007 -0.720322 0
M  V30 17261 C 1701.8 -1.74984 2.44543 0
M  V30 17262 C 1703.35 -1.87447 2.50665 0
M  V30 17263 C 1703.82 -2.54848 3.80548 0
M  V30 17264 N 1705.31 -2.62341 3.81748 0
M  V30 17265 C 1706.05 -3.15239 4.7897 0
M  V30 17266 N 1705.55 -3.68646 5.86577 0
M  V30 17267 N 1707.34 -3.13706 4.66417 0
M  V30 17268 H 1699.49 -0.214351 2.11316 0
M  V30 17269 H 1701.75 -0.157666 0.934797 0
M  V30 17270 H 1701.46 -1.1599 3.32023 0
M  V30 17271 H 1701.33 -2.7478 2.5841 0
M  V30 17272 H 1703.72 -2.45587 1.63619 0
M  V30 17273 H 1703.8 -0.865325 2.40719 0
M  V30 17274 H 1703.44 -1.9736 4.67987 0
M  V30 17275 H 1703.37 -3.5628 3.87778 0
M  V30 17276 H 1705.87 -2.24493 3.03992 0
M  V30 17277 H 1706.18 -4.07281 6.56766 0
M  V30 17278 H 1704.52 -3.6687 5.90281 0
M  V30 17279 H 1707.71 -2.71255 3.81495 0
M  V30 17280 H 1707.89 -3.54626 5.4235 0
M  V30 17281 N 1701.29 -1.18689 -1.03686 0
M  V30 17282 C 1702.52 -1.01024 -1.81132 0
M  V30 17283 C 1702.94 0.436584 -1.82963 0
M  V30 17284 O 1702.3 1.31343 -1.24975 0
M  V30 17285 C 1702.35 -1.5742 -3.24424 0
M  V30 17286 O 1701.45 -0.79813 -4.04603 0
M  V30 17287 H 1700.79 -0.357623 -0.559465 0
M  V30 17288 H 1703.32 -1.57532 -1.30556 0
M  V30 17289 H 1703.33 -1.60295 -3.75193 0
M  V30 17290 H 1702.01 -2.6273 -3.22406 0
M  V30 17291 H 1700.59 -0.842 -3.6327 0
M  V30 17292 N 1702.77 1.22662 -0.989529 0
M  V30 17293 C 1704.02 1.90944 -0.662187 0
M  V30 17294 C 1704.34 1.77477 0.807899 0
M  V30 17295 O 1703.61 1.15985 1.57874 0
M  V30 17296 H 1702.19 0.706738 -0.241932 0
M  V30 17297 H 1704.85 1.49091 -1.25531 0
M  V30 17298 H 1703.95 2.98177 -0.921777 0
M  V30 17299 N 1704.25 0.762308 1.37937 0
M  V30 17300 C 1705.5 0.322369 1.99918 0
M  V30 17301 C 1705.82 -1.09843 1.60514 0
M  V30 17302 O 1705.08 -1.76837 0.83829 0
M  V30 17303 C 1705.38 0.402558 3.55126 0
M  V30 17304 C 1705.04 1.78025 4.14268 0
M  V30 17305 C 1703.71 2.15727 4.30134 0
M  V30 17306 C 1706.06 2.68359 4.46803 0
M  V30 17307 C 1703.39 3.43217 4.75835 0
M  V30 17308 C 1705.74 3.95248 4.93925 0
M  V30 17309 C 1704.4 4.33007 5.07997 0
M  V30 17310 H 1703.67 0.117963 0.73155 0
M  V30 17311 H 1706.32 0.974491 1.64851 0
M  V30 17312 H 1704.62 -0.333119 3.90381 0
M  V30 17313 H 1706.32 0.0436064 4.00976 0
M  V30 17314 H 1702.91 1.4772 4.02339 0
M  V30 17315 H 1707.1 2.40493 4.34139 0
M  V30 17316 H 1702.35 3.72379 4.84916 0
M  V30 17317 H 1706.53 4.6538 5.18068 0
M  V30 17318 H 1704.15 5.31856 5.4317 0
M  V30 17319 N 1705.73 -1.49049 0.51208 0
M  V30 17320 C 1706.95 -2.07382 -0.0271044 0
M  V30 17321 C 1707.38 -1.3685 -1.29049 0
M  V30 17322 O 1706.74 -0.428713 -1.76158 0
M  V30 17323 C 1706.78 -3.59715 -0.252462 0
M  V30 17324 O 1705.89 -3.90538 -1.32491 0
M  V30 17325 H 1705.23 -0.663269 0.0311507 0
M  V30 17326 H 1707.76 -1.91705 0.714873 0
M  V30 17327 H 1707.77 -4.05159 -0.480603 0
M  V30 17328 H 1706.44 -4.10459 0.670531 0
M  V30 17329 H 1705.02 -3.56892 -1.08085 0
M  V30 17330 N 1707.21 -0.246397 -1.55662 0
M  V30 17331 C 1708.17 0.640041 -2.20082 0
M  V30 17332 C 1709.17 1.10313 -1.16994 0
M  V30 17333 O 1710.36 1.00792 -1.42079 0
M  V30 17334 C 1707.49 1.87964 -2.84398 0
M  V30 17335 H 1708.68 0.0780034 -2.99799 0
M  V30 17336 H 1706.24 0.00314588 -1.563 0
M  V30 17337 H 1706.97 2.48292 -2.08618 0
M  V30 17338 H 1706.76 1.5558 -3.59913 0
M  V30 17339 H 1708.25 2.51065 -3.33701 0
M  V30 17340 N 1708.68 1.57577 0.026722 0
M  V30 17341 C 1709.91 1.93359 0.727714 0
M  V30 17342 C 1710.32 0.844761 1.69294 0
M  V30 17343 O 1709.66 -0.187342 1.82742 0
M  V30 17344 C 1709.73 3.24958 1.53761 0
M  V30 17345 C 1709.39 4.5102 0.736909 0
M  V30 17346 C 1710.39 5.19887 0.036166 0
M  V30 17347 C 1708.07 4.97528 0.690759 0
M  V30 17348 C 1710.07 6.33545 -0.700003 0
M  V30 17349 C 1707.75 6.1108 -0.0491539 0
M  V30 17350 C 1708.75 6.78943 -0.743293 0
M  V30 17351 O 1708.44 7.90324 -1.47119 0
M  V30 17352 H 1708.17 0.642747 0.209408 0
M  V30 17353 H 1710.73 2.05396 -0.0124135 0
M  V30 17354 H 1708.96 3.09254 2.32161 0
M  V30 17355 H 1710.64 3.46049 2.12144 0
M  V30 17356 H 1711.41 4.84959 0.0628368 0
M  V30 17357 H 1707.29 4.44549 1.22055 0
M  V30 17358 H 1710.83 6.86448 -1.24235 0
M  V30 17359 H 1706.73 6.45453 -0.0777396 0
M  V30 17360 H 1707.5 8.06695 -1.38511 0
M  V30 17361 N 1710.16 -0.299034 1.54737 0
M  V30 17362 C 1711.41 -1.03159 1.75299 0
M  V30 17363 C 1711.76 -1.84859 0.533365 0
M  V30 17364 O 1711.06 -1.85639 -0.474219 0
M  V30 17365 C 1711.25 -1.9673 2.98382 0
M  V30 17366 C 1711.08 -1.24234 4.32199 0
M  V30 17367 C 1709.85 -0.96869 4.95928 0
M  V30 17368 C 1712.05 -0.645795 5.10229 0
M  V30 17369 N 1710.03 -0.214208 6.13526 0
M  V30 17370 C 1711.4 -0.0241804 6.19995 0
M  V30 17371 C 1713.45 -0.55104 4.94841 0
M  V30 17372 C 1712.16 0.683023 7.1605 0
M  V30 17373 C 1714.18 0.142513 5.91228 0
M  V30 17374 C 1713.55 0.752971 7.00364 0
M  V30 17375 H 1709.64 -0.360348 0.694027 0
M  V30 17376 H 1712.23 -0.31 1.92216 0
M  V30 17377 H 1710.4 -2.66138 2.82887 0
M  V30 17378 H 1712.13 -2.63152 3.07462 0
M  V30 17379 H 1708.89 -1.26735 4.56328 0
M  V30 17380 H 1709.31 0.149604 6.76835 0
M  V30 17381 H 1713.95 -1.0087 4.10591 0
M  V30 17382 H 1711.67 1.15245 7.9984 0
M  V30 17383 H 1715.26 0.215798 5.814 0
M  V30 17384 H 1714.14 1.2811 7.73665 0
M  V30 17385 N 1711.64 -1.47227 -0.562322 0
M  V30 17386 C 1712.92 -1.44069 -1.32301 0
M  V30 17387 C 1713.3 -0.134912 -2.10668 0
M  V30 17388 O 1712.64 0.883603 -2.10724 0
M  V30 17389 C 1712.85 -2.68309 -2.23184 0
M  V30 17390 C 1714.2 -3.1531 -2.84367 0
M  V30 17391 O 1715.23 -2.69001 -2.33489 0
M  V30 17392 O 1714.09 -3.95805 -3.7683 0
M  V30 17393 H 1711.18 -0.573892 -0.595464 0
M  V30 17394 H 1713.73 -1.59421 -0.581648 0
M  V30 17395 H 1712.5 -3.54884 -1.64842 0
M  V30 17396 H 1712.12 -2.55518 -3.04625 0
M  V30 17397 N 1713.12 0.808639 -1.35273 0
M  V30 17398 C 1714.37 1.56253 -1.28177 0
M  V30 17399 C 1714.69 1.94466 0.144151 0
M  V30 17400 O 1713.96 1.63433 1.08011 0
M  V30 17401 H 1712.54 0.579431 -0.471454 0
M  V30 17402 H 1715.2 0.964675 -1.69352 0
M  V30 17403 H 1714.29 2.47888 -1.89625 0
M  V30 17404 N 1714.6 1.19237 1.03055 0
M  V30 17405 C 1715.82 1.01983 1.80594 0
M  V30 17406 C 1716.25 -0.426875 1.83192 0
M  V30 17407 O 1715.6 -1.30678 1.2567 0
M  V30 17408 C 1715.65 1.59139 3.23585 0
M  V30 17409 O 1714.76 0.819576 4.04174 0
M  V30 17410 H 1714.1 0.360585 0.557561 0
M  V30 17411 H 1716.63 1.58222 1.29719 0
M  V30 17412 H 1716.64 1.62283 3.74337 0
M  V30 17413 H 1715.31 2.64436 3.21009 0
M  V30 17414 H 1713.89 0.861253 3.62818 0
M  V30 17415 N 1716.07 -1.22136 0.99602 0
M  V30 17416 C 1717.3 -1.95519 0.69189 0
M  V30 17417 C 1717.72 -1.7304 -0.73748 0
M  V30 17418 O 1717.08 -1.01157 -1.50456 0
M  V30 17419 C 1717.13 -3.46244 1.00735 0
M  V30 17420 O 1716.23 -4.12259 0.107713 0
M  V30 17421 H 1715.58 -0.611553 0.258648 0
M  V30 17422 H 1718.11 -1.55145 1.33384 0
M  V30 17423 H 1718.12 -3.96774 0.950482 0
M  V30 17424 H 1716.79 -3.6193 2.04889 0
M  V30 17425 H 1715.37 -3.72248 0.220336 0
M  V30 17426 N 1717.55 -0.769612 -1.37531 0
M  V30 17427 C 1718.78 -0.344282 -2.04015 0
M  V30 17428 C 1719.2 1.03281 -1.58046 0
M  V30 17429 O 1718.55 1.65888 -0.760746 0
M  V30 17430 C 1718.6 -0.375922 -3.5954 0
M  V30 17431 O 1718.32 -1.69869 -4.03827 0
M  V30 17432 C 1719.83 0.0612715 -4.43258 0
M  V30 17433 H 1717.05 -0.144584 -0.655238 0
M  V30 17434 H 1719.59 -1.04294 -1.75906 0
M  V30 17435 H 1717.74 0.274136 -3.86429 0
M  V30 17436 H 1718.16 -1.63584 -4.98338 0
M  V30 17437 H 1719.63 -0.012022 -5.51999 0
M  V30 17438 H 1720.11 1.11136 -4.24906 0
M  V30 17439 H 1720.72 -0.560517 -4.2159 0
M  V30 17440 N 1719.03 1.48775 -0.519977 0
M  V30 17441 C 1720.28 2.02092 0.0177154 0
M  V30 17442 C 1720.6 1.40024 1.35714 0
M  V30 17443 O 1719.87 0.562115 1.87662 0
M  V30 17444 H 1718.45 0.746939 0.00953578 0
M  V30 17445 H 1721.11 1.82595 -0.681535 0
M  V30 17446 H 1720.21 3.11815 0.133431 0
M  V30 17447 N 1720.51 0.254649 1.55529 0
M  V30 17448 C 1721.75 -0.369374 2.01035 0
M  V30 17449 C 1722.11 -1.54564 1.13904 0
M  V30 17450 O 1723.31 -2.23792 1.48899 0
M  V30 17451 C 1721.58 -0.761489 3.49194 0
M  V30 17452 S 1723.14 -1.37494 4.16702 0
M  V30 17453 H 1719.96 -0.115878 0.701494 0
M  V30 17454 H 1722.56 0.371696 1.91934 0
M  V30 17455 H 1721.27 0.103781 4.10269 0
M  V30 17456 H 1720.8 -1.53454 3.62237 0
M  V30 17457 H 1722.81 -2.66389 4.1863 0
M  V30 17458 N 1721.99 -1.57589 -0.0183649 0
M  V30 17459 C 1723.23 -1.89382 -0.705612 0
M  V30 17460 C 1723.56 -0.853698 -1.7532 0
M  V30 17461 O 1722.83 0.111322 -1.95583 0
M  V30 17462 H 1721.41 -0.698943 -0.263605 0
M  V30 17463 H 1724.07 -1.94891 0.0182168 0
M  V30 17464 H 1723.16 -2.88587 -1.18845 0
M  V30 17465 N 1723.46 0.290824 -1.54893 0
M  V30 17466 C 1724.71 1.02272 -1.74312 0
M  V30 17467 C 1725.03 1.87449 -0.537393 0
M  V30 17468 O 1724.3 1.90705 0.448135 0
M  V30 17469 H 1722.88 0.380592 -0.642774 0
M  V30 17470 H 1725.55 0.319353 -1.92266 0
M  V30 17471 H 1724.64 1.66997 -2.63663 0
M  V30 17472 N 1724.94 1.47523 0.554506 0
M  V30 17473 C 1725.89 1.60623 1.68235 0
M  V30 17474 C 1726.88 0.473445 1.6265 0
M  V30 17475 O 1728.09 0.651337 1.67802 0
M  V30 17476 H 1724.47 0.505539 0.556718 0
M  V30 17477 H 1726.44 2.55395 1.54323 0
M  V30 17478 C 1725.19 1.64022 3.06581 0
M  V30 17479 H 1724.51 2.50537 3.11562 0
M  V30 17480 H 1725.95 1.77237 3.85179 0
M  V30 17481 C 1724.41 0.374048 3.34817 0
M  V30 17482 O 1724.94 -0.523704 3.98272 0
M  V30 17483 N 1723.14 0.253244 2.89494 0
M  V30 17484 H 1722.69 0.984738 2.38035 0
M  V30 17485 H 1722.65 -0.592982 3.08757 0
M  V30 17486 N 1726.42 -0.801453 1.357 0
M  V30 17487 C 1727.35 -1.92807 1.31711 0
M  V30 17488 C 1728.33 -1.69028 0.190642 0
M  V30 17489 O 1729.52 -1.90317 0.38641 0
M  V30 17490 C 1726.65 -3.29635 1.09352 0
M  V30 17491 C 1725.6 -3.67908 2.18695 0
M  V30 17492 C 1724.93 -5.02955 1.81494 0
M  V30 17493 C 1726.23 -3.77749 3.60698 0
M  V30 17494 H 1727.92 -1.96401 2.2598 0
M  V30 17495 H 1725.47 -0.943528 1.08782 0
M  V30 17496 H 1727.42 -4.08058 1.052 0
M  V30 17497 H 1726.14 -3.26396 0.115306 0
M  V30 17498 H 1724.8 -2.91775 2.21952 0
M  V30 17499 H 1724.45 -4.96225 0.822776 0
M  V30 17500 H 1724.15 -5.29533 2.54692 0
M  V30 17501 H 1725.67 -5.83811 1.78876 0
M  V30 17502 H 1727.09 -4.4639 3.59734 0
M  V30 17503 H 1725.49 -4.15801 4.327 0
M  V30 17504 H 1726.56 -2.79167 3.96477 0
M  V30 17505 N 1727.9 -1.19782 -1.02421 0
M  V30 17506 C 1729.13 -1.02871 -1.79514 0
M  V30 17507 C 1729.54 0.422387 -1.84014 0
M  V30 17508 O 1728.9 1.29335 -1.28758 0
M  V30 17509 C 1728.95 -1.59634 -3.24344 0
M  V30 17510 O 1728.67 -2.99064 -3.20144 0
M  V30 17511 C 1730.17 -1.47571 -4.18016 0
M  V30 17512 H 1727.39 -0.362301 -0.564782 0
M  V30 17513 H 1729.94 -1.58701 -1.28974 0
M  V30 17514 H 1728.09 -1.07942 -3.72058 0
M  V30 17515 H 1728.5 -3.25859 -4.10994 0
M  V30 17516 H 1729.98 -1.92061 -5.1751 0
M  V30 17517 H 1730.46 -0.426967 -4.3712 0
M  V30 17518 H 1731.06 -1.98417 -3.76179 0
M  V30 17519 N 1729.38 1.21606 -1.00248 0
M  V30 17520 C 1730.61 1.94609 -0.702502 0
M  V30 17521 C 1731.02 1.73928 0.734483 0
M  V30 17522 O 1730.38 1.04432 1.49667 0
M  V30 17523 C 1730.43 3.47077 -1.01092 0
M  V30 17524 O 1730.15 3.67071 -2.39145 0
M  V30 17525 C 1731.65 4.37248 -0.729988 0
M  V30 17526 H 1728.87 0.618962 -0.259088 0
M  V30 17527 H 1731.41 1.54494 -1.33985 0
M  V30 17528 H 1729.57 3.85125 -0.419215 0
M  V30 17529 H 1729.98 4.61188 -2.49811 0
M  V30 17530 H 1731.46 5.4294 -0.99598 0
M  V30 17531 H 1731.93 4.37913 0.33599 0
M  V30 17532 H 1732.54 4.04842 -1.30318 0
M  V30 17533 N 1730.86 0.776895 1.37121 0
M  V30 17534 C 1732.08 0.353911 2.04358 0
M  V30 17535 C 1732.51 -1.01745 1.58207 0
M  V30 17536 O 1731.86 -1.653 0.744691 0
M  V30 17537 C 1731.91 0.411918 3.5824 0
M  V30 17538 O 1731.02 -0.58576 4.08219 0
M  V30 17539 H 1730.36 0.152335 0.64629 0
M  V30 17540 H 1732.89 1.05452 1.75331 0
M  V30 17541 H 1732.9 0.271043 4.07099 0
M  V30 17542 H 1731.57 1.41236 3.91185 0
M  V30 17543 H 1730.15 -0.40758 3.70666 0
M  V30 17544 N 1732.33 -1.48497 0.527859 0
M  V30 17545 C 1733.56 -2.07399 -0.00510725 0
M  V30 17546 C 1733.98 -1.38211 -1.2759 0
M  V30 17547 O 1733.34 -0.447373 -1.75694 0
M  V30 17548 C 1733.39 -3.59963 -0.214295 0
M  V30 17549 O 1732.49 -3.91921 -1.28342 0
M  V30 17550 H 1731.83 -0.662901 0.0381838 0
M  V30 17551 H 1734.36 -1.90936 0.735166 0
M  V30 17552 H 1734.37 -4.05646 -0.437604 0
M  V30 17553 H 1733.05 -4.09725 0.714028 0
M  V30 17554 H 1731.63 -3.58019 -1.04293 0
M  V30 17555 N 1733.81 -0.262893 -1.55392 0
M  V30 17556 C 1735.06 0.35666 -1.98928 0
M  V30 17557 C 1735.38 1.5729 -1.1526 0
M  V30 17558 O 1734.65 1.94435 -0.239164 0
M  V30 17559 H 1733.23 0.134768 -0.734742 0
M  V30 17560 H 1735.89 -0.365394 -1.91444 0
M  V30 17561 H 1734.99 0.654895 -3.05152 0
M  V30 17562 N 1735.29 1.57597 0.0100073 0
M  V30 17563 C 1736.52 1.94402 0.708192 0
M  V30 17564 C 1736.93 0.864205 1.6786 0
M  V30 17565 O 1736.29 -0.157763 1.81817 0
M  V30 17566 C 1736.34 3.312 1.44876 0
M  V30 17567 O 1736.06 4.35035 0.517281 0
M  V30 17568 C 1737.56 3.82404 2.24237 0
M  V30 17569 H 1734.78 0.64116 0.197877 0
M  V30 17570 H 1737.33 2.04464 -0.0381373 0
M  V30 17571 H 1735.48 3.22476 2.1468 0
M  V30 17572 H 1735.9 5.14113 1.03868 0
M  V30 17573 H 1737.37 4.80578 2.71567 0
M  V30 17574 H 1737.85 3.14587 3.06483 0
M  V30 17575 H 1738.45 3.94271 1.59469 0
M  V30 17576 N 1736.77 -0.282606 1.55045 0
M  V30 17577 C 1738.01 -1.01547 1.75198 0
M  V30 17578 C 1738.34 -1.86627 0.54779 0
M  V30 17579 O 1737.6 -1.89974 -0.46993 0
M  V30 17580 C 1737.9 -1.93554 3.00452 0
M  V30 17581 C 1737.56 -1.24303 4.33428 0
M  V30 17582 C 1736.22 -1.0515 4.69571 0
M  V30 17583 C 1738.58 -0.749451 5.15784 0
M  V30 17584 C 1735.9 -0.353528 5.85634 0
M  V30 17585 C 1738.26 -0.0651157 6.32566 0
M  V30 17586 C 1736.92 0.138206 6.67357 0
M  V30 17587 H 1736.19 -0.371587 0.641096 0
M  V30 17588 H 1738.84 -0.288623 1.89312 0
M  V30 17589 H 1737.14 -2.72828 2.81197 0
M  V30 17590 H 1738.84 -2.50363 3.1324 0
M  V30 17591 H 1735.43 -1.4022 4.05014 0
M  V30 17592 H 1739.61 -0.885074 4.88344 0
M  V30 17593 H 1734.87 -0.185186 6.11119 0
M  V30 17594 H 1739.04 0.325146 6.95641 0
M  V30 17595 H 1736.67 0.681034 7.57143 0
M  V30 17596 N 1738.25 -1.47815 -0.546675 0
M  V30 17597 C 1739.49 -1.54238 -1.29975 0
M  V30 17598 C 1739.81 -0.213869 -1.94427 0
M  V30 17599 O 1741.01 -0.156187 -2.7105 0
M  V30 17600 C 1739.47 -2.71938 -2.35749 0
M  V30 17601 C 1739.08 -4.11362 -1.77441 0
M  V30 17602 C 1740.82 -2.87661 -3.12172 0
M  V30 17603 C 1738.73 -5.20347 -2.81057 0
M  V30 17604 H 1737.66 -0.574139 -0.488754 0
M  V30 17605 H 1740.31 -1.74113 -0.579384 0
M  V30 17606 H 1738.69 -2.45463 -3.10747 0
M  V30 17607 H 1739.87 -4.47785 -1.08744 0
M  V30 17608 H 1738.18 -4.00614 -1.13568 0
M  V30 17609 H 1740.78 -3.66252 -3.89568 0
M  V30 17610 H 1741.12 -1.96494 -3.67009 0
M  V30 17611 H 1741.65 -3.13957 -2.44286 0
M  V30 17612 H 1738.39 -6.13426 -2.31061 0
M  V30 17613 H 1737.91 -4.8843 -3.48132 0
M  V30 17614 H 1739.59 -5.47748 -3.44355 0
M  V30 17615 N 1739.72 0.794246 -1.36123 0
M  V30 17616 C 1740.95 1.58813 -1.33391 0
M  V30 17617 C 1741.37 1.87915 0.0834599 0
M  V30 17618 O 1740.73 1.47516 1.05398 0
M  V30 17619 C 1740.78 2.88887 -2.15816 0
M  V30 17620 O 1739.88 3.82271 -1.54734 0
M  V30 17621 H 1739.22 0.481924 -0.456777 0
M  V30 17622 H 1741.75 0.984818 -1.79339 0
M  V30 17623 H 1741.76 3.38201 -2.2822 0
M  V30 17624 H 1740.44 2.67032 -3.18852 0
M  V30 17625 H 1739.02 3.40852 -1.51242 0
M  V30 17626 N 1741.2 1.20323 1.01785 0
M  V30 17627 C 1742.61 1.01326 1.56812 0
M  V30 17628 C 1742.96 -0.430709 1.91414 0
M  V30 17629 O 1742.09 -1.31191 1.72098 0
M  V30 17630 C 1742.68 1.83304 2.8493 0
M  V30 17631 C 1741.24 1.68676 3.3649 0
M  V30 17632 C 1740.39 1.81315 2.0981 0
M  V30 17633 H 1743.34 1.34533 0.841815 0
M  V30 17634 H 1743.36 1.33567 3.56286 0
M  V30 17635 H 1742.87 2.88392 2.59714 0
M  V30 17636 H 1740.97 0.662195 3.66668 0
M  V30 17637 H 1741.09 2.49877 4.08777 0
M  V30 17638 H 1739.45 1.24488 2.22204 0
M  V30 17639 H 1740.23 2.87885 1.87022 0
M  V30 17640 N 1742.68 -1.21073 1.00892 0
M  V30 17641 C 1743.63 -2.25613 0.565829 0
M  V30 17642 C 1744.62 -1.64812 -0.391588 0
M  V30 17643 O 1745.83 -1.78078 -0.262352 0
M  V30 17644 H 1742.2 -0.733755 0.164643 0
M  V30 17645 H 1744.17 -2.60321 1.45862 0
M  V30 17646 C 1742.92 -3.47589 -0.087861 0
M  V30 17647 H 1742.25 -3.94647 0.639828 0
M  V30 17648 H 1743.69 -4.22459 -0.361115 0
M  V30 17649 C 1742.14 -3.09609 -1.32829 0
M  V30 17650 O 1742.67 -3.20449 -2.4223 0
M  V30 17651 N 1740.88 -2.64234 -1.2095 0
M  V30 17652 H 1740.43 -2.55613 -0.319301 0
M  V30 17653 H 1740.39 -2.39191 -2.04046 0
M  V30 17654 N 1744.16 -0.784156 -1.36707 0
M  V30 17655 C 1745.39 -0.365371 -2.03344 0
M  V30 17656 C 1745.8 1.02133 -1.59266 0
M  V30 17657 O 1745.14 1.66547 -0.775098 0
M  V30 17658 C 1745.2 -0.343819 -3.57852 0
M  V30 17659 C 1744.87 -1.6772 -4.25111 0
M  V30 17660 C 1745.86 -2.63179 -4.48367 0
M  V30 17661 C 1743.55 -1.95505 -4.62691 0
M  V30 17662 C 1745.54 -3.84621 -5.08277 0
M  V30 17663 C 1743.23 -3.17215 -5.2232 0
M  V30 17664 C 1744.23 -4.11592 -5.45052 0
M  V30 17665 O 1743.91 -5.31157 -6.0343 0
M  V30 17666 H 1743.65 -0.14936 -0.659293 0
M  V30 17667 H 1746.2 -1.06269 -1.75772 0
M  V30 17668 H 1744.43 0.409964 -3.84521 0
M  V30 17669 H 1746.12 0.0495818 -4.0587 0
M  V30 17670 H 1746.89 -2.42998 -4.19735 0
M  V30 17671 H 1742.76 -1.22867 -4.44325 0
M  V30 17672 H 1746.31 -4.58298 -5.25936 0
M  V30 17673 H 1742.21 -3.37276 -5.50377 0
M  V30 17674 H 1742.97 -5.32149 -6.219 0
M  V30 17675 N 1745.64 1.48215 -0.535727 0
M  V30 17676 C 1747.05 1.86449 -0.0967433 0
M  V30 17677 C 1747.4 1.44469 1.32752 0
M  V30 17678 O 1746.52 0.837989 1.99516 0
M  V30 17679 C 1747.12 3.38379 -0.168791 0
M  V30 17680 C 1745.68 3.75785 0.21503 0
M  V30 17681 C 1744.82 2.72266 -0.525995 0
M  V30 17682 H 1747.78 1.40038 -0.74666 0
M  V30 17683 H 1747.8 3.75447 0.61807 0
M  V30 17684 H 1747.31 3.68903 -1.2055 0
M  V30 17685 H 1745.41 3.50876 1.25366 0
M  V30 17686 H 1745.52 4.78927 -0.128579 0
M  V30 17687 H 1743.89 2.54684 0.028422 0
M  V30 17688 H 1744.67 3.05632 -1.56345 0
M  V30 17689 N 1747.11 0.27113 1.5525 0
M  V30 17690 C 1748.05 -0.659325 2.18468 0
M  V30 17691 C 1749.03 -1.15515 1.14433 0
M  V30 17692 O 1750.21 -1.22885 1.42939 0
M  V30 17693 C 1747.34 -1.89873 2.80474 0
M  V30 17694 C 1746.38 -1.53872 3.97776 0
M  V30 17695 S 1747.22 -0.620335 5.31895 0
M  V30 17696 C 1748.37 -1.86821 5.97368 0
M  V30 17697 H 1748.6 -0.122165 2.97049 0
M  V30 17698 H 1746.14 0.0554132 1.54301 0
M  V30 17699 H 1748.1 -2.61014 3.16831 0
M  V30 17700 H 1746.76 -2.40703 2.01794 0
M  V30 17701 H 1745.95 -2.46087 4.39838 0
M  V30 17702 H 1745.55 -0.907534 3.62822 0
M  V30 17703 H 1747.84 -2.81261 6.16359 0
M  V30 17704 H 1748.79 -1.49066 6.92232 0
M  V30 17705 H 1749.19 -2.03133 5.26685 0
M  V30 17706 N 1748.59 -1.576 -0.00164943 0
M  V30 17707 C 1750 -1.78578 -0.544681 0
M  V30 17708 C 1750.35 -0.905575 -1.74051 0
M  V30 17709 O 1749.48 -0.107614 -2.16132 0
M  V30 17710 C 1750.07 -3.23863 -0.994898 0
M  V30 17711 C 1748.63 -3.45943 -1.48325 0
M  V30 17712 C 1747.78 -2.73887 -0.433702 0
M  V30 17713 H 1750.73 -1.57104 0.224524 0
M  V30 17714 H 1750.75 -3.31885 -1.86099 0
M  V30 17715 H 1750.26 -3.87901 -0.124352 0
M  V30 17716 H 1748.37 -2.87118 -2.37474 0
M  V30 17717 H 1748.48 -4.54621 -1.51185 0
M  V30 17718 H 1746.84 -2.38458 -0.894969 0
M  V30 17719 H 1747.63 -3.40623 0.42785 0
M  V30 17720 N 1750.07 0.274379 -1.55193 0
M  V30 17721 C 1751.3 1.02295 -1.79497 0
M  V30 17722 C 1751.71 1.80479 -0.567805 0
M  V30 17723 O 1751.05 1.77517 0.472601 0
M  V30 17724 C 1751.11 2.02986 -2.9671 0
M  V30 17725 C 1750.78 1.43753 -4.33802 0
M  V30 17726 C 1751.77 0.853898 -5.1284 0
M  V30 17727 C 1749.46 1.46514 -4.80457 0
M  V30 17728 C 1751.45 0.305773 -6.36666 0
M  V30 17729 C 1749.14 0.913158 -6.04239 0
M  V30 17730 C 1750.14 0.33447 -6.82181 0
M  V30 17731 O 1749.83 -0.209069 -8.03628 0
M  V30 17732 H 1749.56 0.307952 -0.601782 0
M  V30 17733 H 1752.11 0.310987 -2.03032 0
M  V30 17734 H 1750.34 2.77937 -2.68864 0
M  V30 17735 H 1752.03 2.6396 -3.0835 0
M  V30 17736 H 1752.8 0.825268 -4.77927 0
M  V30 17737 H 1748.68 1.90496 -4.198 0
M  V30 17738 H 1752.22 -0.146553 -6.97446 0
M  V30 17739 H 1748.12 0.939023 -6.38633 0
M  V30 17740 H 1748.89 -0.0982973 -8.18441 0
M  V30 17741 N 1751.55 1.48103 0.538828 0
M  V30 17742 C 1752.78 1.59085 1.31816 0
M  V30 17743 C 1753.19 0.246886 1.87582 0
M  V30 17744 O 1752.53 -0.772694 1.66659 0
M  V30 17745 C 1752.59 2.57102 2.51274 0
M  V30 17746 C 1752.26 4.02377 2.16661 0
M  V30 17747 C 1753.25 4.90323 1.72857 0
M  V30 17748 C 1750.94 4.4785 2.27455 0
M  V30 17749 C 1752.93 6.21767 1.40302 0
M  V30 17750 C 1750.62 5.79317 1.94512 0
M  V30 17751 C 1751.62 6.66098 1.51006 0
M  V30 17752 O 1751.3 7.9512 1.18491 0
M  V30 17753 H 1751.04 0.539404 0.407454 0
M  V30 17754 H 1753.59 1.94586 0.657678 0
M  V30 17755 H 1751.82 2.16705 3.20275 0
M  V30 17756 H 1753.51 2.58014 3.13342 0
M  V30 17757 H 1754.28 4.56432 1.63995 0
M  V30 17758 H 1750.15 3.80497 2.60275 0
M  V30 17759 H 1753.7 6.89458 1.06271 0
M  V30 17760 H 1749.6 6.12745 2.03012 0
M  V30 17761 H 1750.36 8.07792 1.31964 0
M  V30 17762 N 1753.03 -0.787016 1.36542 0
M  V30 17763 C 1753.98 -1.88956 1.27592 0
M  V30 17764 C 1754.96 -1.60032 0.166904 0
M  V30 17765 O 1756.15 -1.72423 0.399932 0
M  V30 17766 C 1753.28 -3.26204 1.06986 0
M  V30 17767 C 1752.37 -3.6113 2.22365 0
M  V30 17768 N 1752.76 -3.67346 3.47693 0
M  V30 17769 C 1751.06 -3.91205 2.14183 0
M  V30 17770 C 1751.76 -3.98581 4.23684 0
M  V30 17771 N 1750.73 -4.13688 3.52651 0
M  V30 17772 H 1754.54 -1.91992 2.22522 0
M  V30 17773 H 1752.05 -0.982664 1.29296 0
M  V30 17774 H 1754.05 -4.05058 0.986603 0
M  V30 17775 H 1752.71 -3.24441 0.129582 0
M  V30 17776 H 1753.72 -3.49931 3.81797 0
M  V30 17777 H 1750.39 -3.97354 1.28125 0
M  V30 17778 H 1751.78 -4.10294 5.32079 0
M  V30 17779 N 1754.5 -1.20861 -1.01145 0
M  V30 17780 C 1755.73 -1.04843 -1.78949 0
M  V30 17781 C 1756.15 0.397676 -1.83848 0
M  V30 17782 O 1755.51 1.28663 -1.27733 0
M  V30 17783 C 1755.56 -1.64267 -3.21012 0
M  V30 17784 O 1754.66 -0.883773 -4.02819 0
M  V30 17785 H 1754.01 -0.36941 -0.551754 0
M  V30 17786 H 1756.54 -1.60266 -1.27185 0
M  V30 17787 H 1756.55 -1.68218 -3.71708 0
M  V30 17788 H 1755.22 -2.69509 -3.16761 0
M  V30 17789 H 1753.8 -0.918866 -3.61402 0
M  V30 17790 N 1755.98 1.20536 -1.01532 0
M  V30 17791 C 1757.21 1.94393 -0.722908 0
M  V30 17792 C 1757.63 1.74191 0.709857 0
M  V30 17793 O 1756.99 1.03538 1.48827 0
M  V30 17794 C 1757.04 3.44597 -1.06231 0
M  V30 17795 O 1756.14 4.12036 -0.173286 0
M  V30 17796 H 1755.48 0.607361 -0.268345 0
M  V30 17797 H 1758.01 1.53003 -1.35835 0
M  V30 17798 H 1758.02 3.95212 -1.01348 0
M  V30 17799 H 1756.7 3.58624 -2.10621 0
M  V30 17800 H 1755.28 3.71851 -0.27953 0
M  V30 17801 N 1757.46 0.791395 1.36289 0
M  V30 17802 C 1758.37 0.192362 2.3381 0
M  V30 17803 C 1759.39 -0.656556 1.61138 0
M  V30 17804 O 1760.56 -0.571877 1.9311 0
M  V30 17805 C 1757.63 -0.661283 3.40335 0
M  V30 17806 C 1756.69 0.206361 4.28804 0
M  V30 17807 C 1755.92 -0.606636 5.30241 0
M  V30 17808 O 1756.14 -1.84247 5.39823 0
M  V30 17809 O 1755.08 -0.00549116 6.019 0
M  V30 17810 H 1758.9 0.998723 2.86809 0
M  V30 17811 H 1756.49 0.552889 1.38793 0
M  V30 17812 H 1758.37 -1.148 4.05461 0
M  V30 17813 H 1757.05 -1.4455 2.89632 0
M  V30 17814 H 1755.95 0.739877 3.66711 0
M  V30 17815 H 1757.29 0.954142 4.82863 0
M  V30 17816 N 1758.94 -1.47929 0.54358 0
M  V30 17817 C 1760.18 -2.04393 0.0166462 0
M  V30 17818 C 1760.54 -1.41025 -1.30291 0
M  V30 17819 O 1761.74 -1.88456 -1.91671 0
M  V30 17820 C 1760.02 -3.5729 -0.0888261 0
M  V30 17821 S 1761.57 -4.35162 -0.563857 0
M  V30 17822 H 1758.39 -0.710757 0.0185863 0
M  V30 17823 H 1760.99 -1.81471 0.727226 0
M  V30 17824 H 1759.7 -4.00938 0.876155 0
M  V30 17825 H 1759.23 -3.84687 -0.823374 0
M  V30 17826 H 1761.24 -4.6138 -1.82601 0
M  V30 17827 N 1760.42 -0.27936 -1.55104 0
M  V30 17828 C 1761.65 0.338937 -2.03801 0
M  V30 17829 C 1762.06 1.49699 -1.15702 0
M  V30 17830 O 1761.4 1.82906 -0.170589 0
M  V30 17831 C 1761.46 0.878265 -3.48607 0
M  V30 17832 C 1761.12 -0.151698 -4.56748 0
M  V30 17833 C 1762.12 -0.972688 -5.1072 0
M  V30 17834 C 1759.81 -0.287161 -5.01478 0
M  V30 17835 C 1761.8 -1.91529 -6.07944 0
M  V30 17836 C 1759.49 -1.23323 -5.98527 0
M  V30 17837 C 1760.49 -2.04579 -6.51641 0
M  V30 17838 O 1760.17 -2.97586 -7.46792 0
M  V30 17839 H 1759.91 0.080791 -0.671155 0
M  V30 17840 H 1762.46 -0.410483 -2.01257 0
M  V30 17841 H 1760.69 1.67783 -3.48405 0
M  V30 17842 H 1762.38 1.41011 -3.80619 0
M  V30 17843 H 1763.14 -0.878791 -4.76972 0
M  V30 17844 H 1759.02 0.33531 -4.59779 0
M  V30 17845 H 1762.57 -2.54993 -6.49326 0
M  V30 17846 H 1758.46 -1.32793 -6.31693 0
M  V30 17847 H 1759.23 -2.92316 -7.64522 0
M  V30 17848 N 1761.9 1.57599 -0.0067085 0
M  V30 17849 C 1763.14 1.91976 0.672064 0
M  V30 17850 C 1763.5 0.88172 1.71007 0
M  V30 17851 O 1762.79 -0.105225 1.91311 0
M  V30 17852 C 1762.98 3.30868 1.35133 0
M  V30 17853 C 1762.81 4.48086 0.380635 0
M  V30 17854 C 1761.58 5.05299 -0.011403 0
M  V30 17855 C 1763.78 5.13067 -0.355902 0
M  V30 17856 N 1761.76 6.06034 -0.97961 0
M  V30 17857 C 1763.13 6.08695 -1.17858 0
M  V30 17858 C 1765.19 4.96134 -0.419018 0
M  V30 17859 C 1763.89 6.89212 -2.05862 0
M  V30 17860 C 1765.92 5.77242 -1.28632 0
M  V30 17861 C 1765.28 6.72468 -2.09683 0
M  V30 17862 H 1761.38 0.750731 0.218922 0
M  V30 17863 H 1763.96 1.94579 -0.0686305 0
M  V30 17864 H 1762.13 3.29127 2.06228 0
M  V30 17865 H 1763.87 3.52656 1.98534 0
M  V30 17866 H 1760.62 4.72242 0.358377 0
M  V30 17867 H 1761.04 6.61085 -1.45928 0
M  V30 17868 H 1765.69 4.22358 0.193335 0
M  V30 17869 H 1763.4 7.62309 -2.68162 0
M  V30 17870 H 1766.99 5.66178 -1.33915 0
M  V30 17871 H 1765.87 7.34135 -2.75708 0
M  V30 17872 N 1763.37 -0.266145 1.55336 0
M  V30 17873 C 1764.62 -0.994172 1.77448 0
M  V30 17874 C 1764.97 -1.83686 0.572457 0
M  V30 17875 O 1764.27 -1.86603 -0.434735 0
M  V30 17876 C 1764.46 -1.90357 3.02488 0
M  V30 17877 C 1764.29 -1.15038 4.34737 0
M  V30 17878 C 1763.06 -0.863279 4.97871 0
M  V30 17879 C 1765.26 -0.537422 5.11484 0
M  V30 17880 N 1763.24 -0.0840218 6.13842 0
M  V30 17881 C 1764.61 0.107335 6.19907 0
M  V30 17882 C 1766.67 -0.445953 4.95899 0
M  V30 17883 C 1765.37 0.834754 7.1444 0
M  V30 17884 C 1767.4 0.267889 5.90793 0
M  V30 17885 C 1766.76 0.901359 6.98609 0
M  V30 17886 H 1762.86 -0.345546 0.701514 0
M  V30 17887 H 1765.44 -0.269159 1.92831 0
M  V30 17888 H 1763.61 -2.60078 2.88469 0
M  V30 17889 H 1765.34 -2.56571 3.12975 0
M  V30 17890 H 1762.1 -1.17027 4.58914 0
M  V30 17891 H 1762.52 0.293137 6.76365 0
M  V30 17892 H 1767.16 -0.921383 4.12638 0
M  V30 17893 H 1764.88 1.32185 7.97216 0
M  V30 17894 H 1768.47 0.339073 5.80811 0
M  V30 17895 H 1767.35 1.44492 7.70773 0
M  V30 17896 N 1764.85 -1.48386 -0.530967 0
M  V30 17897 C 1765.78 -1.6573 -1.64486 0
M  V30 17898 C 1766.76 -0.506198 -1.62393 0
M  V30 17899 O 1767.95 -0.738623 -1.79605 0
M  V30 17900 C 1765.08 -1.69594 -3.03076 0
M  V30 17901 C 1764.03 -2.84195 -3.20027 0
M  V30 17902 C 1763.36 -2.73148 -4.59668 0
M  V30 17903 C 1764.66 -4.25504 -3.02892 0
M  V30 17904 H 1766.35 -2.58983 -1.50227 0
M  V30 17905 H 1763.9 -1.24633 -0.721286 0
M  V30 17906 H 1765.85 -1.80316 -3.80873 0
M  V30 17907 H 1764.57 -0.729193 -3.18356 0
M  V30 17908 H 1763.23 -2.73027 -2.44647 0
M  V30 17909 H 1762.88 -1.74444 -4.71782 0
M  V30 17910 H 1762.58 -3.50047 -4.71954 0
M  V30 17911 H 1764.11 -2.85836 -5.39565 0
M  V30 17912 H 1765.52 -4.37511 -3.70482 0
M  V30 17913 H 1763.92 -5.03393 -3.26673 0
M  V30 17914 H 1764.99 -4.42036 -1.99329 0
M  V30 17915 N 1766.33 0.779763 -1.36958 0
M  V30 17916 C 1767.28 1.89278 -1.32071 0
M  V30 17917 C 1768.25 1.65037 -0.18766 0
M  V30 17918 O 1769.43 1.87064 -0.375736 0
M  V30 17919 C 1766.57 3.2623 -1.12552 0
M  V30 17920 C 1765.68 3.62479 -2.35017 0
M  V30 17921 C 1764.82 4.88599 -2.08434 0
M  V30 17922 C 1763.86 5.17555 -3.26808 0
M  V30 17923 N 1763 6.3486 -2.99828 0
M  V30 17924 H 1767.84 1.9279 -2.27235 0
M  V30 17925 H 1765.37 0.942656 -1.12927 0
M  V30 17926 H 1767.33 4.0522 -0.992595 0
M  V30 17927 H 1765.96 3.22114 -0.210387 0
M  V30 17928 H 1765.01 2.78536 -2.59079 0
M  V30 17929 H 1766.32 3.7982 -3.23324 0
M  V30 17930 H 1765.48 5.75476 -1.92127 0
M  V30 17931 H 1764.22 4.73346 -1.17453 0
M  V30 17932 H 1763.22 4.29156 -3.43664 0
M  V30 17933 H 1764.45 5.34721 -4.18629 0
M  V30 17934 H 1762.39 6.20981 -2.11468 0
M  V30 17935 H 1762.31 6.52579 -3.81676 0
M  V30 17936 H 1763.58 7.24695 -2.8712 0
M  V30 17937 N 1767.81 1.21396 1.00503 0
M  V30 17938 C 1769.03 1.05791 1.7839 0
M  V30 17939 C 1769.46 -0.387921 1.84056 0
M  V30 17940 O 1768.82 -1.27983 1.28413 0
M  V30 17941 C 1768.86 1.65967 3.20137 0
M  V30 17942 O 1767.97 0.905123 4.02345 0
M  V30 17943 H 1767.31 0.372331 0.549787 0
M  V30 17944 H 1769.84 1.60938 1.26334 0
M  V30 17945 H 1769.85 1.70186 3.70811 0
M  V30 17946 H 1768.52 2.71185 3.15327 0
M  V30 17947 H 1767.1 0.938019 3.60909 0
M  V30 17948 N 1769.29 -1.19996 1.0217 0
M  V30 17949 C 1770.51 -1.94007 0.733207 0
M  V30 17950 C 1770.94 -1.74565 -0.70061 0
M  V30 17951 O 1770.29 -1.04326 -1.48276 0
M  V30 17952 C 1770.34 -3.44029 1.08057 0
M  V30 17953 O 1769.45 -4.11938 0.195135 0
M  V30 17954 H 1768.79 -0.605929 0.271562 0
M  V30 17955 H 1771.32 -1.5228 1.36645 0
M  V30 17956 H 1771.33 -3.94669 1.03443 0
M  V30 17957 H 1770 -3.57502 2.1252 0
M  V30 17958 H 1768.58 -3.71697 0.299246 0
M  V30 17959 N 1770.76 -0.798611 -1.35867 0
M  V30 17960 C 1771.71 -0.176275 -2.27318 0
M  V30 17961 C 1772.7 0.64521 -1.47397 0
M  V30 17962 O 1773.89 0.503776 -1.69679 0
M  V30 17963 C 1771.02 0.680716 -3.36483 0
M  V30 17964 C 1770.1 -0.150062 -4.23834 0
M  V30 17965 N 1770.5 -1.20913 -4.91135 0
M  V30 17966 C 1768.79 0.0696135 -4.45946 0
M  V30 17967 C 1769.49 -1.71566 -5.55824 0
M  V30 17968 N 1768.47 -1.02339 -5.3388 0
M  V30 17969 H 1772.27 -0.986741 -2.7684 0
M  V30 17970 H 1769.79 -0.638977 -1.49301 0
M  V30 17971 H 1771.78 1.14254 -4.00938 0
M  V30 17972 H 1770.44 1.48962 -2.88514 0
M  V30 17973 H 1771.45 -1.59169 -4.92834 0
M  V30 17974 H 1768.13 0.848295 -4.08791 0
M  V30 17975 H 1769.52 -2.60035 -6.19541 0
M  V30 17976 N 1772.24 1.47639 -0.551417 0
M  V30 17977 C 1773.49 2.02084 -0.0251553 0
M  V30 17978 C 1773.81 1.42872 1.32713 0
M  V30 17979 O 1773.08 0.601794 1.86428 0
M  V30 17980 H 1771.66 0.746973 -0.00631005 0
M  V30 17981 H 1774.32 1.81109 -0.720113 0
M  V30 17982 H 1773.42 3.12028 0.0672608 0
M  V30 17983 N 1773.72 0.287581 1.54954 0
M  V30 17984 C 1774.95 -0.331442 2.04735 0
M  V30 17985 C 1775.37 -1.47752 1.16409 0
M  V30 17986 O 1774.73 -1.80545 0.165297 0
M  V30 17987 C 1774.78 -0.778123 3.52105 0
M  V30 17988 O 1773.88 -1.88422 3.66839 0
M  V30 17989 H 1773.22 -0.0666173 0.66065 0
M  V30 17990 H 1775.75 0.425516 2.00126 0
M  V30 17991 H 1775.76 -1.07054 3.93705 0
M  V30 17992 H 1774.44 0.0603184 4.15856 0
M  V30 17993 H 1773.01 -1.59338 3.37144 0
M  V30 17994 N 1775.2 -1.57593 0.0150662 0
M  V30 17995 C 1776.16 -2.08293 -0.956385 0
M  V30 17996 C 1777.16 -0.99521 -1.26302 0
M  V30 17997 O 1778.35 -1.25732 -1.2057 0
M  V30 17998 C 1775.48 -2.53702 -2.27701 0
M  V30 17999 H 1776.68 -2.95401 -0.517543 0
M  V30 18000 H 1774.23 -1.54558 -0.232706 0
M  V30 18001 H 1774.96 -1.69882 -2.76244 0
M  V30 18002 H 1774.75 -3.33155 -2.06761 0
M  V30 18003 H 1776.24 -2.93201 -2.9736 0
M  V30 18004 N 1776.68 0.257904 -1.55475 0
M  V30 18005 C 1777.92 0.98747 -1.76792 0
M  V30 18006 C 1778.25 1.85732 -0.577411 0
M  V30 18007 O 1777.51 1.90698 0.439647 0
M  V30 18008 C 1777.81 1.8875 -3.03494 0
M  V30 18009 C 1777.47 1.17391 -4.35351 0
M  V30 18010 C 1776.13 0.976662 -4.71184 0
M  V30 18011 C 1778.49 0.667299 -5.16911 0
M  V30 18012 C 1775.81 0.260314 -5.86122 0
M  V30 18013 C 1778.17 -0.0355283 -6.3259 0
M  V30 18014 C 1776.83 -0.244359 -6.67053 0
M  V30 18015 H 1776.1 0.361341 -0.646926 0
M  V30 18016 H 1778.75 0.258469 -1.89748 0
M  V30 18017 H 1777.05 2.6832 -2.85502 0
M  V30 18018 H 1778.75 2.45348 -3.17184 0
M  V30 18019 H 1775.34 1.33758 -4.07194 0
M  V30 18020 H 1779.52 0.807271 -4.89691 0
M  V30 18021 H 1774.78 0.0879391 -6.11337 0
M  V30 18022 H 1778.95 -0.435775 -6.95035 0
M  V30 18023 H 1776.58 -0.801403 -7.55964 0
M  V30 18024 N 1778.15 1.48666 0.52309 0
M  V30 18025 C 1779.06 1.66396 1.65377 0
M  V30 18026 C 1780.08 0.546469 1.65196 0
M  V30 18027 O 1781.26 0.818413 1.84022 0
M  V30 18028 C 1778.32 1.70602 3.01821 0
M  V30 18029 C 1777.38 2.94028 3.12803 0
M  V30 18030 C 1776.62 2.98024 4.42739 0
M  V30 18031 O 1776.84 2.10232 5.30244 0
M  V30 18032 O 1775.77 3.90266 4.58231 0
M  V30 18033 H 1779.6 2.62138 1.53354 0
M  V30 18034 H 1777.18 1.32148 0.696948 0
M  V30 18035 H 1779.07 1.75849 3.82956 0
M  V30 18036 H 1777.74 0.780346 3.14153 0
M  V30 18037 H 1776.65 2.9431 2.30938 0
M  V30 18038 H 1777.98 3.86003 3.0539 0
M  V30 18039 N 1779.63 -0.772489 1.37369 0
M  V30 18040 C 1780.56 -1.89969 1.35772 0
M  V30 18041 C 1781.54 -1.68586 0.226452 0
M  V30 18042 O 1782.73 -1.89454 0.426692 0
M  V30 18043 C 1779.86 -3.27242 1.16319 0
M  V30 18044 C 1778.81 -3.63187 2.2645 0
M  V30 18045 C 1778.14 -4.98992 1.92121 0
M  V30 18046 C 1779.44 -3.70013 3.6863 0
M  V30 18047 H 1781.13 -1.91564 2.30095 0
M  V30 18048 H 1778.68 -0.920241 1.10759 0
M  V30 18049 H 1780.63 -4.05734 1.13832 0
M  V30 18050 H 1779.36 -3.26078 0.184513 0
M  V30 18051 H 1778.01 -2.87001 2.28091 0
M  V30 18052 H 1777.66 -4.94368 0.927848 0
M  V30 18053 H 1777.36 -5.24012 2.65867 0
M  V30 18054 H 1778.89 -5.79886 1.91219 0
M  V30 18055 H 1780.3 -4.38659 3.69122 0
M  V30 18056 H 1778.7 -4.06529 4.41423 0
M  V30 18057 H 1779.77 -2.70694 4.02309 0
M  V30 18058 N 1781.11 -1.21927 -0.998575 0
M  V30 18059 C 1782.02 -1.00049 -2.12197 0
M  V30 18060 C 1783.04 0.0494414 -1.7393 0
M  V30 18061 O 1784.21 -0.142033 -2.00899 0
M  V30 18062 C 1781.28 -0.574871 -3.41901 0
M  V30 18063 C 1780.34 -1.69776 -3.94303 0
M  V30 18064 C 1779.57 -1.29236 -5.17816 0
M  V30 18065 O 1779.79 -0.168709 -5.7015 0
M  V30 18066 O 1778.73 -2.10671 -5.63827 0
M  V30 18067 H 1782.55 -1.94154 -2.33534 0
M  V30 18068 H 1780.14 -1.00472 -1.10571 0
M  V30 18069 H 1782.02 -0.347603 -4.19964 0
M  V30 18070 H 1780.7 0.337389 -3.21937 0
M  V30 18071 H 1779.6 -1.9795 -3.17438 0
M  V30 18072 H 1780.94 -2.58768 -4.18688 0
M  V30 18073 N 1782.59 1.19452 -1.02805 0
M  V30 18074 C 1783.84 1.89114 -0.724029 0
M  V30 18075 C 1784.16 1.79571 0.747307 0
M  V30 18076 O 1783.42 1.18191 1.55979 0
M  V30 18077 C 1783.72 3.3941 -1.11964 0
M  V30 18078 C 1783.38 3.69156 -2.58911 0
M  V30 18079 C 1782.05 3.76984 -2.99059 0
M  V30 18080 C 1784.4 3.82549 -3.53986 0
M  V30 18081 C 1781.73 3.95673 -4.33197 0
M  V30 18082 C 1784.08 4.02751 -4.87826 0
M  V30 18083 C 1782.74 4.08812 -5.27664 0
M  V30 18084 H 1782.01 0.692017 -0.264941 0
M  V30 18085 H 1784.66 1.41463 -1.29075 0
M  V30 18086 H 1782.96 3.88952 -0.471514 0
M  V30 18087 H 1784.66 3.91627 -0.861939 0
M  V30 18088 H 1781.25 3.6367 -2.26808 0
M  V30 18089 H 1785.43 3.75845 -3.24121 0
M  V30 18090 H 1780.69 3.98605 -4.63599 0
M  V30 18091 H 1784.86 4.12056 -5.61412 0
M  V30 18092 H 1782.49 4.23046 -6.31614 0
M  V30 18093 N 1784.07 0.805805 1.35442 0
M  V30 18094 C 1785.01 0.213632 2.29809 0
M  V30 18095 C 1785.98 -0.651878 1.52774 0
M  V30 18096 O 1787.17 -0.597124 1.81216 0
M  V30 18097 C 1784.31 -0.632444 3.39255 0
M  V30 18098 C 1783.42 0.253414 4.31256 0
M  V30 18099 C 1782.56 -0.600593 5.27794 0
M  V30 18100 C 1781.6 0.285712 6.11433 0
M  V30 18101 N 1780.73 -0.528222 7.0011 0
M  V30 18102 H 1785.57 1.02378 2.79862 0
M  V30 18103 H 1783.11 0.516397 1.37738 0
M  V30 18104 H 1785.07 -1.13814 4.01376 0
M  V30 18105 H 1783.7 -1.40786 2.90481 0
M  V30 18106 H 1782.75 0.877202 3.70148 0
M  V30 18107 H 1784.06 0.935631 4.89946 0
M  V30 18108 H 1783.22 -1.17145 5.95283 0
M  V30 18109 H 1781.95 -1.31638 4.69598 0
M  V30 18110 H 1780.96 0.868843 5.42891 0
M  V30 18111 H 1782.18 0.999349 6.71707 0
M  V30 18112 H 1780.13 -1.228 6.44404 0
M  V30 18113 H 1780.05 0.0959658 7.55939 0
M  V30 18114 H 1781.32 -1.08238 7.71949 0
M  V30 18115 N 1785.54 -1.47344 0.559239 0
M  V30 18116 C 1786.82 -1.95577 -0.0298268 0
M  V30 18117 C 1787.2 -1.50185 -1.4835 0
M  V30 18118 O 1786.55 -0.74162 -2.1613 0
M  V30 18119 C 1786.76 -3.48801 0.117767 0
M  V30 18120 C 1788.11 -4.24592 -0.026535 0
M  V30 18121 O 1789.13 -3.56171 0.0454163 0
M  V30 18122 O 1787.99 -5.46198 -0.181675 0
M  V30 18123 H 1785.08 -0.824597 -0.0629972 0
M  V30 18124 H 1787.63 -1.57736 0.625905 0
M  V30 18125 H 1786.4 -3.74652 1.12924 0
M  V30 18126 H 1786.03 -3.93413 -0.575483 0
M  V30 18127 N 1787.02 -0.295795 -1.54799 0
M  V30 18128 C 1788.27 0.315007 -2.00035 0
M  V30 18129 C 1788.6 1.54295 -1.1842 0
M  V30 18130 O 1787.85 1.94134 -0.247101 0
M  V30 18131 C 1788.15 0.721225 -3.50047 0
M  V30 18132 C 1787.82 -0.404395 -4.49083 0
M  V30 18133 C 1786.48 -0.713419 -4.75882 0
M  V30 18134 C 1788.83 -1.16185 -5.08085 0
M  V30 18135 C 1786.16 -1.78311 -5.58947 0
M  V30 18136 C 1788.51 -2.22142 -5.92314 0
M  V30 18137 C 1787.18 -2.53657 -6.17426 0
M  V30 18138 H 1786.45 0.115269 -0.73198 0
M  V30 18139 H 1789.09 -0.41381 -1.86976 0
M  V30 18140 H 1787.4 1.53005 -3.60689 0
M  V30 18141 H 1789.09 1.20491 -3.82469 0
M  V30 18142 H 1785.68 -0.153436 -4.28325 0
M  V30 18143 H 1789.87 -0.936365 -4.87387 0
M  V30 18144 H 1785.12 -2.03206 -5.76643 0
M  V30 18145 H 1789.3 -2.81296 -6.3706 0
M  V30 18146 H 1786.93 -3.36676 -6.81581 0
M  V30 18147 N 1788.5 1.57583 -0.0234236 0
M  V30 18148 C 1789.45 2.06367 0.969361 0
M  V30 18149 C 1790.44 0.963028 1.28898 0
M  V30 18150 O 1791.63 1.22663 1.27604 0
M  V30 18151 C 1788.76 2.58967 2.25368 0
M  V30 18152 C 1787.84 3.75952 1.96268 0
M  V30 18153 N 1788.23 4.86776 1.37415 0
M  V30 18154 C 1786.53 3.84329 2.2629 0
M  V30 18155 C 1787.23 5.68041 1.25318 0
M  V30 18156 N 1786.21 5.14771 1.74677 0
M  V30 18157 H 1790.01 2.89455 0.509205 0
M  V30 18158 H 1787.52 1.6138 0.181729 0
M  V30 18159 H 1789.52 2.92206 2.97358 0
M  V30 18160 H 1788.18 1.77307 2.72015 0
M  V30 18161 H 1789.19 5.07147 1.0499 0
M  V30 18162 H 1785.87 3.13566 2.7565 0
M  V30 18163 H 1787.26 6.67137 0.798588 0
M  V30 18164 N 1789.98 -0.249655 1.5561 0
M  V30 18165 C 1790.91 -1.31281 1.931 0
M  V30 18166 C 1791.89 -1.50347 0.795601 0
M  V30 18167 O 1793.08 -1.63001 1.05566 0
M  V30 18168 C 1790.21 -2.66808 2.2233 0
M  V30 18169 C 1789.16 -2.62441 3.38096 0
M  V30 18170 C 1788.49 -4.01738 3.52861 0
M  V30 18171 C 1789.79 -2.19667 4.7386 0
M  V30 18172 H 1791.48 -1.00151 2.82153 0
M  V30 18173 H 1789.03 -0.480331 1.35753 0
M  V30 18174 H 1790.98 -3.41316 2.47146 0
M  V30 18175 H 1789.7 -2.99569 1.30101 0
M  V30 18176 H 1788.36 -1.90391 3.13284 0
M  V30 18177 H 1788.01 -4.31759 2.58056 0
M  V30 18178 H 1787.71 -3.99705 4.30708 0
M  V30 18179 H 1789.23 -4.7795 3.79995 0
M  V30 18180 H 1790.65 -2.83906 4.98067 0
M  V30 18181 H 1789.04 -2.28751 5.54791 0
M  V30 18182 H 1790.11 -1.14829 4.71108 0
M  V30 18183 N 1791.46 -1.48941 -0.515198 0
M  V30 18184 C 1792.37 -1.67271 -1.64492 0
M  V30 18185 C 1793.38 -0.555222 -1.64904 0
M  V30 18186 O 1794.56 -0.828161 -1.83585 0
M  V30 18187 C 1791.62 -1.722 -3.00912 0
M  V30 18188 C 1790.69 -2.95683 -3.11239 0
M  V30 18189 C 1789.92 -3.00368 -4.41152 0
M  V30 18190 O 1790.14 -2.13041 -5.29122 0
M  V30 18191 O 1789.08 -3.92691 -4.56155 0
M  V30 18192 H 1792.9 -2.62947 -1.51962 0
M  V30 18193 H 1790.49 -1.32515 -0.68993 0
M  V30 18194 H 1792.37 -1.77877 -3.82018 0
M  V30 18195 H 1791.04 -0.796995 -3.13735 0
M  V30 18196 H 1789.95 -2.95531 -2.29374 0
M  V30 18197 H 1791.28 -3.87617 -3.03338 0
M  V30 18198 N 1792.94 0.765193 -1.37777 0
M  V30 18199 C 1793.89 1.86902 -1.30582 0
M  V30 18200 C 1794.87 1.59746 -0.192343 0
M  V30 18201 O 1796.06 1.71764 -0.427313 0
M  V30 18202 C 1793.19 3.2446 -1.12162 0
M  V30 18203 C 1792.28 3.57546 -2.28082 0
M  V30 18204 N 1792.67 3.61769 -3.53493 0
M  V30 18205 C 1790.97 3.87748 -2.2038 0
M  V30 18206 C 1791.67 3.9179 -4.29972 0
M  V30 18207 N 1790.64 4.08025 -3.59188 0
M  V30 18208 H 1794.44 1.88428 -2.25549 0
M  V30 18209 H 1791.96 0.96197 -1.30843 0
M  V30 18210 H 1793.96 4.03437 -1.05092 0
M  V30 18211 H 1792.62 3.24194 -0.181181 0
M  V30 18212 H 1793.63 3.43813 -3.87315 0
M  V30 18213 H 1790.3 3.95266 -1.3443 0
M  V30 18214 H 1791.69 4.01777 -5.3854 0
M  V30 18215 N 1794.41 1.22455 0.992094 0
M  V30 18216 C 1795.36 0.962645 2.06681 0
M  V30 18217 C 1796.35 -0.0870288 1.60664 0
M  V30 18218 O 1797.54 0.123596 1.76568 0
M  V30 18219 C 1794.67 0.54316 3.38976 0
M  V30 18220 C 1793.75 1.62761 3.91625 0
M  V30 18221 N 1794.15 2.85548 4.17488 0
M  V30 18222 C 1792.44 1.49948 4.20038 0
M  V30 18223 C 1793.14 3.55677 4.60292 0
M  V30 18224 N 1792.12 2.83152 4.64032 0
M  V30 18225 H 1795.92 1.89534 2.24619 0
M  V30 18226 H 1793.44 1.1222 1.1739 0
M  V30 18227 H 1795.43 0.336841 4.15537 0
M  V30 18228 H 1794.09 -0.382629 3.22438 0
M  V30 18229 H 1795.1 3.21968 4.05657 0
M  V30 18230 H 1791.78 0.639937 4.12566 0
M  V30 18231 H 1793.17 4.60878 4.88918 0
M  V30 18232 N 1795.89 -1.18905 1.03437 0
M  V30 18233 C 1797.3 -1.70402 0.762893 0
M  V30 18234 C 1797.65 -1.82633 -0.716908 0
M  V30 18235 O 1796.78 -1.50136 -1.55847 0
M  V30 18236 C 1797.37 -3.09501 1.37822 0
M  V30 18237 C 1795.93 -3.58235 1.1552 0
M  V30 18238 C 1795.08 -2.34953 1.47284 0
M  V30 18239 H 1798.03 -1.03669 1.2016 0
M  V30 18240 H 1798.05 -3.7246 0.778079 0
M  V30 18241 H 1797.56 -3.00566 2.45523 0
M  V30 18242 H 1795.66 -3.72475 0.096646 0
M  V30 18243 H 1795.78 -4.42034 1.84778 0
M  V30 18244 H 1794.14 -2.38557 0.892333 0
M  V30 18245 H 1794.92 -2.28643 2.5608 0
M  V30 18246 N 1797.37 -0.812977 -1.35013 0
M  V30 18247 C 1798.32 -0.216001 -2.31595 0
M  V30 18248 C 1799.31 0.637771 -1.56936 0
M  V30 18249 O 1800.52 0.530221 -1.72014 0
M  V30 18250 H 1796.89 -0.0510947 -0.750262 0
M  V30 18251 H 1798.86 -1.04559 -2.79482 0
M  V30 18252 C 1797.61 0.615651 -3.42206 0
M  V30 18253 H 1796.94 -0.0319737 -3.99787 0
M  V30 18254 H 1798.38 0.99963 -4.12048 0
M  V30 18255 C 1796.83 1.78386 -2.85797 0
M  V30 18256 O 1797.36 2.88163 -2.79866 0
M  V30 18257 N 1795.57 1.59742 -2.42757 0
M  V30 18258 H 1795.12 0.704468 -2.4778 0
M  V30 18259 H 1795.08 2.38061 -2.05364 0
M  V30 18260 N 1798.85 1.47045 -0.567045 0
M  V30 18261 C 1800.09 2.04341 -0.0491613 0
M  V30 18262 C 1800.45 1.4308 1.28031 0
M  V30 18263 O 1801.65 1.91481 1.88649 0
M  V30 18264 C 1799.92 3.57386 0.0319732 0
M  V30 18265 S 1801.48 4.36004 0.494555 0
M  V30 18266 H 1798.3 0.710371 -0.0298915 0
M  V30 18267 H 1800.9 1.80291 -0.756004 0
M  V30 18268 H 1799.61 3.99494 -0.93983 0
M  V30 18269 H 1799.14 3.85948 0.76207 0
M  V30 18270 H 1801.15 4.64226 1.75238 0
M  V30 18271 N 1800.33 0.304 1.5464 0
M  V30 18272 C 1801.55 -0.306916 2.04611 0
M  V30 18273 C 1801.97 -1.4729 1.18114 0
M  V30 18274 O 1801.33 -1.81317 0.20743 0
M  V30 18275 C 1801.38 -0.760263 3.53415 0
M  V30 18276 O 1801.1 0.359321 4.36624 0
M  V30 18277 C 1802.6 -1.43602 4.19396 0
M  V30 18278 H 1799.82 -0.066247 0.667722 0
M  V30 18279 H 1802.36 0.444504 1.99611 0
M  V30 18280 H 1800.52 -1.4617 3.58766 0
M  V30 18281 H 1800.93 0.00582275 5.245 0
M  V30 18282 H 1802.41 -1.70436 5.25029 0
M  V30 18283 H 1802.88 -2.37705 3.69314 0
M  V30 18284 H 1803.49 -0.777683 4.18129 0
M  V30 18285 N 1801.8 -1.57568 0.0317802 0
M  V30 18286 C 1802.73 -2.13412 -0.947499 0
M  V30 18287 C 1803.71 -1.05091 -1.33753 0
M  V30 18288 O 1804.9 -1.32936 -1.41568 0
M  V30 18289 C 1802.03 -2.66337 -2.22895 0
M  V30 18290 C 1800.98 -3.79469 -1.97958 0
M  V30 18291 C 1800.31 -4.18833 -3.3239 0
M  V30 18292 C 1801.61 -5.05432 -1.31664 0
M  V30 18293 H 1803.3 -2.95488 -0.482417 0
M  V30 18294 H 1800.85 -1.42142 -0.230603 0
M  V30 18295 H 1802.8 -3.04039 -2.91784 0
M  V30 18296 H 1801.53 -1.81426 -2.71574 0
M  V30 18297 H 1800.19 -3.42209 -1.31485 0
M  V30 18298 H 1799.83 -3.30899 -3.78833 0
M  V30 18299 H 1799.53 -4.95071 -3.16511 0
M  V30 18300 H 1801.06 -4.5912 -4.02544 0
M  V30 18301 H 1802.47 -5.40704 -1.90558 0
M  V30 18302 H 1800.87 -5.86686 -1.26173 0
M  V30 18303 H 1801.94 -4.84032 -0.28996 0
M  V30 18304 N 1803.28 0.241399 -1.5574 0
M  V30 18305 C 1804.56 0.991821 -1.68589 0
M  V30 18306 C 1804.94 2.03167 -0.573274 0
M  V30 18307 O 1804.29 2.2456 0.422521 0
M  V30 18308 C 1804.5 1.6202 -3.09112 0
M  V30 18309 C 1805.85 2.11998 -3.67889 0
M  V30 18310 O 1806.87 1.71951 -3.11948 0
M  V30 18311 O 1805.73 2.85545 -4.65968 0
M  V30 18312 H 1802.82 0.462017 -0.685907 0
M  V30 18313 H 1805.37 0.23475 -1.68068 0
M  V30 18314 H 1804.14 0.86835 -3.81543 0
M  V30 18315 H 1803.76 2.44333 -3.13667 0
M  V30 18316 N 1804.76 1.49212 0.507292 0
M  V30 18317 C 1805.99 1.61845 1.28412 0
M  V30 18318 C 1806.4 0.286619 1.87016 0
M  V30 18319 O 1805.74 -0.737169 1.6826 0
M  V30 18320 C 1805.8 2.62374 2.45764 0
M  V30 18321 C 1805.47 4.06882 2.08077 0
M  V30 18322 C 1806.46 4.93879 1.62418 0
M  V30 18323 C 1804.15 4.52574 2.17904 0
M  V30 18324 C 1806.14 6.24603 1.27082 0
M  V30 18325 C 1803.83 5.83313 1.8218 0
M  V30 18326 C 1804.83 6.69151 1.36843 0
M  V30 18327 O 1804.52 7.97454 1.01598 0
M  V30 18328 H 1804.25 0.547926 0.395921 0
M  V30 18329 H 1806.8 1.95937 0.616255 0
M  V30 18330 H 1805.03 2.23449 3.15606 0
M  V30 18331 H 1806.72 2.64603 3.07799 0
M  V30 18332 H 1807.49 4.59808 1.54277 0
M  V30 18333 H 1803.37 3.85932 2.52146 0
M  V30 18334 H 1806.91 6.91557 0.91623 0
M  V30 18335 H 1802.81 6.16913 1.89969 0
M  V30 18336 H 1803.58 8.10409 1.148 0
M  V30 18337 N 1806.24 -0.757876 1.38181 0
M  V30 18338 C 1807.17 -1.88519 1.37779 0
M  V30 18339 C 1808.15 -1.68336 0.24432 0
M  V30 18340 O 1809.33 -1.88991 0.446762 0
M  V30 18341 C 1806.46 -3.2599 1.19784 0
M  V30 18342 C 1805.42 -3.60764 2.30289 0
M  V30 18343 C 1804.74 -4.96927 1.97403 0
M  V30 18344 C 1806.04 -3.66082 3.72533 0
M  V30 18345 H 1807.74 -1.89112 2.32114 0
M  V30 18346 H 1805.28 -0.908442 1.11729 0
M  V30 18347 H 1807.24 -4.04504 1.18129 0
M  V30 18348 H 1805.96 -3.25864 0.219088 0
M  V30 18349 H 1804.62 -2.84566 2.31123 0
M  V30 18350 H 1804.27 -4.93356 0.98023 0
M  V30 18351 H 1803.97 -5.21162 2.7141 0
M  V30 18352 H 1805.49 -5.77825 1.97359 0
M  V30 18353 H 1806.91 -4.3472 3.73754 0
M  V30 18354 H 1805.3 -4.01824 4.4571 0
M  V30 18355 H 1806.37 -2.66412 4.05158 0
M  V30 18356 N 1807.72 -1.22979 -0.985586 0
M  V30 18357 C 1808.68 -1.00763 -2.05862 0
M  V30 18358 C 1809.68 0.02864 -1.60774 0
M  V30 18359 O 1810.87 -0.210593 -1.72922 0
M  V30 18360 C 1808 -0.523547 -3.36856 0
M  V30 18361 H 1809.19 -1.95982 -2.27004 0
M  V30 18362 H 1806.75 -1.0495 -1.15824 0
M  V30 18363 H 1807.48 0.432658 -3.21401 0
M  V30 18364 H 1807.27 -1.27127 -3.70919 0
M  V30 18365 H 1808.76 -0.388591 -4.15788 0
M  V30 18366 N 1809.19 1.18355 -1.04066 0
M  V30 18367 C 1810.44 1.88614 -0.745148 0
M  V30 18368 C 1810.77 1.80147 0.725294 0
M  V30 18369 O 1810.05 1.20177 1.5293 0
M  V30 18370 C 1810.33 3.39095 -1.2119 0
M  V30 18371 C 1810.18 3.56372 -2.74444 0
M  V30 18372 C 1811.5 4.32732 -0.801953 0
M  V30 18373 H 1808.62 0.684905 -0.272166 0
M  V30 18374 H 1811.26 1.39248 -1.29267 0
M  V30 18375 H 1809.41 3.81269 -0.746091 0
M  V30 18376 H 1811.09 3.2329 -3.29061 0
M  V30 18377 H 1809.33 2.99028 -3.14269 0
M  V30 18378 H 1810 4.61956 -3.0216 0
M  V30 18379 H 1812.48 3.98337 -1.20278 0
M  V30 18380 H 1811.35 5.36583 -1.15628 0
M  V30 18381 H 1811.61 4.41115 0.294907 0
M  V30 18382 N 1810.67 0.820125 1.3458 0
M  V30 18383 C 1811.9 0.419155 2.02303 0
M  V30 18384 C 1812.31 -0.978742 1.61918 0
M  V30 18385 O 1811.65 -1.64433 0.818983 0
M  V30 18386 C 1811.72 0.438576 3.56815 0
M  V30 18387 C 1811.38 1.78932 4.20514 0
M  V30 18388 C 1812.38 2.74974 4.41232 0
M  V30 18389 C 1810.06 2.07704 4.57345 0
M  V30 18390 C 1812.06 3.97961 4.97901 0
M  V30 18391 C 1809.74 3.30952 5.13726 0
M  V30 18392 C 1810.74 4.25898 5.33947 0
M  V30 18393 O 1810.43 5.46969 5.89135 0
M  V30 18394 H 1810.16 0.166787 0.655102 0
M  V30 18395 H 1812.71 1.10892 1.72893 0
M  V30 18396 H 1810.94 -0.307871 3.85472 0
M  V30 18397 H 1812.63 0.0580448 4.05858 0
M  V30 18398 H 1813.4 2.54041 4.13144 0
M  V30 18399 H 1809.28 1.34605 4.40911 0
M  V30 18400 H 1812.82 4.72081 5.136 0
M  V30 18401 H 1808.72 3.5175 5.41242 0
M  V30 18402 H 1809.49 5.48451 6.07572 0
M  V30 18403 N 1812.15 -1.46743 0.574835 0
M  V30 18404 C 1813.43 -1.95598 -0.00908149 0
M  V30 18405 C 1813.81 -1.5175 -1.46748 0
M  V30 18406 O 1813.16 -0.764502 -2.15331 0
M  V30 18407 C 1813.37 -3.48657 0.154756 0
M  V30 18408 C 1814.71 -4.24596 0.0185002 0
M  V30 18409 O 1815.74 -3.56103 0.0831904 0
M  V30 18410 O 1814.6 -5.4636 -0.123733 0
M  V30 18411 H 1811.69 -0.825219 -0.0542477 0
M  V30 18412 H 1814.24 -1.57063 0.6426 0
M  V30 18413 H 1813.01 -3.73433 1.16891 0
M  V30 18414 H 1812.63 -3.94001 -0.533724 0
M  V30 18415 N 1813.63 -0.312197 -1.54477 0
M  V30 18416 C 1814.88 0.293192 -1.99962 0
M  V30 18417 C 1815.2 1.53544 -1.20205 0
M  V30 18418 O 1814.47 1.93575 -0.300901 0
M  V30 18419 H 1813.05 0.111325 -0.738658 0
M  V30 18420 H 1815.71 -0.426116 -1.90185 0
M  V30 18421 H 1814.81 0.557482 -3.07081 0
M  V30 18422 N 1815.11 1.57549 -0.040136 0
M  V30 18423 C 1816.52 1.79959 0.497142 0
M  V30 18424 C 1816.87 0.951403 1.71589 0
M  V30 18425 O 1815.99 0.16488 2.15771 0
M  V30 18426 C 1816.59 3.26387 0.908682 0
M  V30 18427 C 1815.15 3.49754 1.39101 0
M  V30 18428 C 1814.29 2.74941 0.360933 0
M  V30 18429 H 1817.25 1.56453 -0.266099 0
M  V30 18430 H 1817.27 3.36702 1.77234 0
M  V30 18431 H 1816.78 3.88094 0.0214628 0
M  V30 18432 H 1814.88 2.93313 2.29778 0
M  V30 18433 H 1814.99 4.58469 1.39078 0
M  V30 18434 H 1813.36 2.40747 0.831432 0
M  V30 18435 H 1814.14 3.39369 -0.51801 0
M  V30 18436 N 1816.58 -0.233136 1.55866 0
M  V30 18437 C 1817.81 -0.980602 1.82754 0
M  V30 18438 C 1818.23 -1.77624 0.618988 0
M  V30 18439 O 1817.59 -1.76074 -0.432148 0
M  V30 18440 C 1817.64 -1.88319 3.07519 0
M  V30 18441 O 1816.74 -2.97692 2.85401 0
M  V30 18442 H 1816.09 -0.278295 0.602867 0
M  V30 18443 H 1818.62 -0.249956 2.03067 0
M  V30 18444 H 1818.63 -2.29523 3.37318 0
M  V30 18445 H 1817.3 -1.29831 3.95116 0
M  V30 18446 H 1815.88 -2.60517 2.66805 0
M  V30 18447 N 1818.06 -1.49479 -0.499372 0
M  V30 18448 C 1819.29 -1.63025 -1.28209 0
M  V30 18449 C 1819.71 -0.302238 -1.85656 0
M  V30 18450 O 1819.07 0.730355 -1.65938 0
M  V30 18451 C 1819.12 -2.70287 -2.38699 0
M  V30 18452 O 1818.22 -2.29573 -3.42593 0
M  V30 18453 H 1817.56 -0.545605 -0.378432 0
M  V30 18454 H 1820.09 -1.95677 -0.597628 0
M  V30 18455 H 1820.1 -2.92505 -2.84438 0
M  V30 18456 H 1818.78 -3.66684 -1.96253 0
M  V30 18457 H 1817.36 -2.17692 -3.02761 0
M  V30 18458 N 1819.54 0.750537 -1.38581 0
M  V30 18459 C 1820.49 1.88571 -1.36176 0
M  V30 18460 C 1821.48 1.67587 -0.247175 0
M  V30 18461 O 1822.69 1.75118 -0.416377 0
M  V30 18462 H 1819.06 0.620468 -0.424881 0
M  V30 18463 H 1821.04 1.87716 -2.3196 0
M  V30 18464 C 1819.78 3.26088 -1.20673 0
M  V30 18465 H 1819.11 3.42822 -2.05701 0
M  V30 18466 H 1820.55 4.05754 -1.23044 0
M  V30 18467 C 1819.01 3.3679 0.0861189 0
M  V30 18468 O 1819.54 3.87407 1.06203 0
M  V30 18469 N 1817.74 2.90243 0.143977 0
M  V30 18470 H 1817.29 2.49242 -0.650869 0
M  V30 18471 H 1817.25 2.97784 1.00857 0
M  V30 18472 N 1821.02 1.235 0.979051 0
M  V30 18473 C 1822.24 1.09551 1.76106 0
M  V30 18474 C 1822.67 -0.348792 1.84838 0
M  V30 18475 O 1822.03 -1.25231 1.31099 0
M  V30 18476 C 1822.08 1.7272 3.16544 0
M  V30 18477 O 1821.18 0.990263 4.00334 0
M  V30 18478 H 1820.52 0.383909 0.541766 0
M  V30 18479 H 1823.05 1.63581 1.22892 0
M  V30 18480 H 1823.06 1.78014 3.67117 0
M  V30 18481 H 1821.74 2.77813 3.09504 0
M  V30 18482 H 1820.31 1.01436 3.58839 0
M  V30 18483 N 1822.5 -1.17802 1.04693 0
M  V30 18484 C 1823.45 -2.19584 0.613744 0
M  V30 18485 C 1824.43 -1.57111 -0.34713 0
M  V30 18486 O 1825.62 -1.76228 -0.16517 0
M  V30 18487 C 1822.75 -3.43297 -0.0152847 0
M  V30 18488 C 1821.84 -4.12879 0.969114 0
M  V30 18489 N 1822.23 -4.58364 2.13859 0
M  V30 18490 C 1820.53 -4.3883 0.796487 0
M  V30 18491 C 1821.23 -5.12003 2.76094 0
M  V30 18492 N 1820.2 -5.039 2.03926 0
M  V30 18493 H 1824.01 -2.5245 1.50486 0
M  V30 18494 H 1821.52 -1.34076 0.916373 0
M  V30 18495 H 1823.52 -4.15484 -0.343354 0
M  V30 18496 H 1822.18 -3.11924 -0.901858 0
M  V30 18497 H 1823.19 -4.52613 2.51718 0
M  V30 18498 H 1819.87 -4.17481 -0.0394627 0
M  V30 18499 H 1821.26 -5.57355 3.7524 0
M  V30 18500 N 1823.98 -0.827251 -1.34143 0
M  V30 18501 C 1824.91 -0.267015 -2.31968 0
M  V30 18502 C 1825.89 0.618906 -1.58441 0
M  V30 18503 O 1827.07 0.544882 -1.86399 0
M  V30 18504 C 1824.2 0.568379 -3.42617 0
M  V30 18505 C 1823.16 -0.220767 -4.2743 0
M  V30 18506 C 1822.48 0.737643 -5.29587 0
M  V30 18507 C 1823.78 -1.43137 -5.02304 0
M  V30 18508 H 1825.48 -1.08436 -2.79073 0
M  V30 18509 H 1823.02 -0.522879 -1.34171 0
M  V30 18510 H 1824.97 0.970525 -4.10072 0
M  V30 18511 H 1823.7 1.41882 -2.94172 0
M  V30 18512 H 1822.36 -0.604333 -3.61585 0
M  V30 18513 H 1822.01 1.58416 -4.77403 0
M  V30 18514 H 1821.71 0.213815 -5.87211 0
M  V30 18515 H 1823.23 1.13755 -5.9991 0
M  V30 18516 H 1824.64 -1.10301 -5.62589 0
M  V30 18517 H 1823.04 -1.89115 -5.69522 0
M  V30 18518 H 1824.11 -2.2073 -4.31748 0
M  V30 18519 N 1825.45 1.46436 -0.582609 0
M  V30 18520 C 1826.38 2.33089 0.138477 0
M  V30 18521 C 1827.36 1.45339 0.883777 0
M  V30 18522 O 1828.55 1.74156 0.859257 0
M  V30 18523 C 1825.68 3.27611 1.15276 0
M  V30 18524 C 1824.63 4.24801 0.522308 0
M  V30 18525 C 1823.96 5.0883 1.64306 0
M  V30 18526 C 1825.26 5.19496 -0.540449 0
M  V30 18527 H 1826.95 2.93629 -0.585013 0
M  V30 18528 H 1824.5 1.41196 -0.282781 0
M  V30 18529 H 1826.45 3.87087 1.66558 0
M  V30 18530 H 1825.18 2.65177 1.90653 0
M  V30 18531 H 1823.84 3.66587 0.0305728 0
M  V30 18532 H 1823.48 4.42782 2.38649 0
M  V30 18533 H 1823.18 5.74649 1.22686 0
M  V30 18534 H 1824.71 5.7117 2.15864 0
M  V30 18535 H 1826.12 5.73189 -0.112706 0
M  V30 18536 H 1824.52 5.93658 -0.876957 0
M  V30 18537 H 1825.59 4.63434 -1.42677 0
M  V30 18538 N 1826.93 0.320385 1.54309 0
M  V30 18539 C 1828.16 -0.285197 2.04925 0
M  V30 18540 C 1828.57 -1.46029 1.1967 0
M  V30 18541 O 1827.93 -1.81087 0.22665 0
M  V30 18542 C 1827.98 -0.722736 3.54202 0
M  V30 18543 O 1827.7 0.40561 4.36218 0
M  V30 18544 C 1829.2 -1.39146 4.20896 0
M  V30 18545 H 1826.42 -0.0591612 0.668387 0
M  V30 18546 H 1828.97 0.46565 1.99128 0
M  V30 18547 H 1827.12 -1.42356 3.60296 0
M  V30 18548 H 1827.54 0.0614526 5.24464 0
M  V30 18549 H 1829.01 -1.64858 5.26807 0
M  V30 18550 H 1829.49 -2.33774 3.71815 0
M  V30 18551 H 1830.09 -0.733291 4.18931 0
M  V30 18552 N 1828.41 -1.57525 0.0484906 0
M  V30 18553 C 1829.34 -2.08313 -0.955941 0
M  V30 18554 C 1830.35 -1.01042 -1.2765 0
M  V30 18555 O 1831.54 -1.28615 -1.23776 0
M  V30 18556 C 1828.64 -2.509 -2.27821 0
M  V30 18557 C 1827.82 -3.81476 -2.13997 0
M  V30 18558 C 1826.88 -4.10404 -3.29325 0
M  V30 18559 O 1825.9 -4.80366 -3.05348 0
M  V30 18560 N 1827.1 -3.62104 -4.53719 0
M  V30 18561 H 1829.87 -2.95111 -0.522472 0
M  V30 18562 H 1827.43 -1.61312 -0.137816 0
M  V30 18563 H 1829.42 -2.6733 -3.03837 0
M  V30 18564 H 1827.99 -1.69365 -2.62744 0
M  V30 18565 H 1827.21 -3.74654 -1.22589 0
M  V30 18566 H 1828.5 -4.6699 -2.01985 0
M  V30 18567 H 1827.9 -3.05541 -4.7609 0
M  V30 18568 H 1826.45 -3.83778 -5.26838 0
M  V30 18569 N 1829.89 0.224867 -1.55988 0
M  V30 18570 C 1830.82 1.28192 -1.95164 0
M  V30 18571 C 1831.8 1.49062 -0.81942 0
M  V30 18572 O 1832.98 1.61301 -1.08146 0
M  V30 18573 C 1830.11 2.63237 -2.26547 0
M  V30 18574 C 1829.07 2.57029 -3.42228 0
M  V30 18575 C 1828.39 3.96073 -3.59207 0
M  V30 18576 C 1829.69 2.12101 -4.77295 0
M  V30 18577 H 1831.39 0.956495 -2.8371 0
M  V30 18578 H 1828.93 0.458673 -1.365 0
M  V30 18579 H 1830.89 3.37341 -2.52545 0
M  V30 18580 H 1829.61 2.97461 -1.3485 0
M  V30 18581 H 1828.27 1.85382 -3.16273 0
M  V30 18582 H 1827.92 4.27599 -2.64892 0
M  V30 18583 H 1827.62 3.92802 -4.37013 0
M  V30 18584 H 1829.14 4.71844 -3.8755 0
M  V30 18585 H 1830.56 2.75946 -5.0252 0
M  V30 18586 H 1828.95 2.19895 -5.5836 0
M  V30 18587 H 1830.02 1.07319 -4.72875 0
M  V30 18588 N 1831.37 1.49742 0.491438 0
M  V30 18589 C 1832.61 1.61335 1.25501 0
M  V30 18590 C 1832.97 0.297703 1.89678 0
M  V30 18591 O 1834.17 0.28889 2.67243 0
M  V30 18592 C 1832.44 2.74705 2.28631 0
M  V30 18593 S 1834 3.06308 3.14199 0
M  V30 18594 H 1830.82 0.568965 0.42638 0
M  V30 18595 H 1833.42 1.87442 0.555503 0
M  V30 18596 H 1832.12 3.68806 1.80029 0
M  V30 18597 H 1831.66 2.50621 3.03237 0
M  V30 18598 H 1833.67 2.48565 4.29453 0
M  V30 18599 N 1832.84 -0.743177 1.38977 0
M  V30 18600 C 1834.09 -1.49959 1.35486 0
M  V30 18601 C 1834.41 -1.94933 -0.0512044 0
M  V30 18602 O 1833.68 -1.684 -1.0009 0
M  V30 18603 H 1832.26 -0.556277 0.498562 0
M  V30 18604 H 1834.93 -0.882776 1.73762 0
M  V30 18605 H 1834.02 -2.38559 2.01237 0
M  V30 18606 N 1834.32 -1.24018 -0.972487 0
M  V30 18607 C 1835.6 -0.985099 -1.68983 0
M  V30 18608 C 1835.98 0.494006 -2.05238 0
M  V30 18609 O 1835.33 1.46715 -1.75177 0
M  V30 18610 C 1835.54 -1.90324 -2.92537 0
M  V30 18611 C 1836.89 -2.17134 -3.64881 0
M  V30 18612 O 1837.91 -1.87938 -3.02585 0
M  V30 18613 O 1836.77 -2.66691 -4.7701 0
M  V30 18614 H 1833.86 -0.372172 -0.738524 0
M  V30 18615 H 1836.41 -1.35095 -1.027 0
M  V30 18616 H 1835.18 -2.90278 -2.62401 0
M  V30 18617 H 1834.8 -1.54025 -3.66554 0
M  V30 18618 N 1835.8 1.17245 -1.05316 0
M  V30 18619 C 1836.71 2.24948 -0.666011 0
M  V30 18620 C 1837.73 1.71153 0.313478 0
M  V30 18621 O 1838.9 2.00721 0.165262 0
M  V30 18622 C 1835.97 3.46667 -0.0480198 0
M  V30 18623 C 1835.03 4.15542 -1.07812 0
M  V30 18624 C 1834.26 5.3145 -0.48952 0
M  V30 18625 O 1834.48 5.6608 0.700668 0
M  V30 18626 O 1833.42 5.89315 -1.22439 0
M  V30 18627 H 1837.24 2.60353 -1.56365 0
M  V30 18628 H 1834.83 1.24569 -0.8248 0
M  V30 18629 H 1836.71 4.20364 0.295366 0
M  V30 18630 H 1835.39 3.13056 0.823248 0
M  V30 18631 H 1834.29 3.43858 -1.47351 0
M  V30 18632 H 1835.63 4.53183 -1.92057 0
M  V30 18633 N 1837.28 0.834353 1.33702 0
M  V30 18634 C 1838.23 0.26233 2.29304 0
M  V30 18635 C 1839.2 -0.619326 1.54122 0
M  V30 18636 O 1840.38 -0.558551 1.82441 0
M  V30 18637 C 1837.52 -0.560341 3.4052 0
M  V30 18638 C 1836.63 0.344832 4.30622 0
M  V30 18639 C 1835.77 -0.488505 5.28949 0
M  V30 18640 C 1834.81 0.415341 6.10689 0
M  V30 18641 N 1833.94 -0.3796 7.01073 0
M  V30 18642 H 1838.78 1.08291 2.77628 0
M  V30 18643 H 1836.32 0.545497 1.36612 0
M  V30 18644 H 1838.28 -1.05274 4.03699 0
M  V30 18645 H 1836.91 -1.34593 2.93402 0
M  V30 18646 H 1835.96 0.955519 3.68204 0
M  V30 18647 H 1837.27 1.03935 4.87851 0
M  V30 18648 H 1836.43 -1.04492 5.97634 0
M  V30 18649 H 1835.17 -1.21648 4.72285 0
M  V30 18650 H 1834.17 0.983803 5.40926 0
M  V30 18651 H 1835.4 1.1416 6.69436 0
M  V30 18652 H 1833.34 -1.09103 6.46864 0
M  V30 18653 H 1833.26 0.25629 7.55565 0
M  V30 18654 H 1834.53 -0.918394 7.74071 0
M  V30 18655 N 1838.76 -1.46125 0.590367 0
M  V30 18656 C 1840.17 -1.85962 0.165876 0
M  V30 18657 C 1840.52 -1.49296 -1.27299 0
M  V30 18658 O 1839.64 -0.911461 -1.96269 0
M  V30 18659 C 1840.24 -3.3752 0.294262 0
M  V30 18660 C 1838.8 -3.76324 -0.0754118 0
M  V30 18661 C 1837.94 -2.70126 0.626682 0
M  V30 18662 H 1840.9 -1.3717 0.79812 0
M  V30 18663 H 1840.92 -3.77482 -0.4783 0
M  V30 18664 H 1840.43 -3.64175 1.34159 0
M  V30 18665 H 1838.53 -3.55287 -1.12258 0
M  V30 18666 H 1838.64 -4.7812 0.306241 0
M  V30 18667 H 1837.01 -2.54614 0.0661219 0
M  V30 18668 H 1837.79 -2.99619 1.6758 0
M  V30 18669 N 1840.23 -0.328564 -1.54137 0
M  V30 18670 C 1841.65 0.158467 -1.86026 0
M  V30 18671 C 1842 1.51216 -1.25012 0
M  V30 18672 O 1841.12 2.09081 -0.558029 0
M  V30 18673 C 1841.72 0.294317 -3.37519 0
M  V30 18674 C 1840.28 0.72557 -3.69341 0
M  V30 18675 C 1839.42 -0.149724 -2.76895 0
M  V30 18676 H 1842.37 -0.548678 -1.48913 0
M  V30 18677 H 1842.39 1.12438 -3.63508 0
M  V30 18678 H 1841.91 -0.691071 -3.81898 0
M  V30 18679 H 1840.01 1.72052 -3.30498 0
M  V30 18680 H 1840.12 0.525853 -4.76205 0
M  V30 18681 H 1838.48 0.375531 -2.51916 0
M  V30 18682 H 1839.27 -1.13197 -3.24101 0
M  V30 18683 N 1841.71 1.57497 -0.0568439 0
M  V30 18684 C 1842.64 2.14892 0.913427 0
M  V30 18685 C 1843.62 1.07205 1.32065 0
M  V30 18686 O 1844.81 1.35172 1.39435 0
M  V30 18687 C 1841.94 2.69849 2.18629 0
M  V30 18688 C 1840.89 3.8257 1.91896 0
M  V30 18689 C 1840.22 4.24068 3.25685 0
M  V30 18690 C 1841.52 5.07463 1.23606 0
M  V30 18691 H 1843.21 2.96218 0.435347 0
M  V30 18692 H 1840.76 1.4249 0.20796 0
M  V30 18693 H 1842.71 3.08643 2.86911 0
M  V30 18694 H 1841.44 1.85723 2.68653 0
M  V30 18695 H 1840.09 3.44258 1.26024 0
M  V30 18696 H 1839.74 3.36884 3.73521 0
M  V30 18697 H 1839.44 5.00043 3.08594 0
M  V30 18698 H 1840.97 4.65466 3.95189 0
M  V30 18699 H 1842.38 5.43667 1.81931 0
M  V30 18700 H 1840.78 5.88619 1.16823 0
M  V30 18701 H 1841.85 4.84432 0.212918 0
M  V30 18702 N 1843.19 -0.216591 1.56105 0
M  V30 18703 C 1844.44 -0.938321 1.78545 0
M  V30 18704 C 1844.75 -1.85302 0.62629 0
M  V30 18705 O 1845.96 -2.61377 0.734451 0
M  V30 18706 C 1844.41 -1.71871 3.16209 0
M  V30 18707 C 1844.02 -0.849904 4.39864 0
M  V30 18708 C 1845.77 -2.43136 3.47973 0
M  V30 18709 C 1843.67 -1.62793 5.68553 0
M  V30 18710 H 1842.6 -0.354098 0.66568 0
M  V30 18711 H 1845.25 -0.192079 1.82492 0
M  V30 18712 H 1843.64 -2.50804 3.06453 0
M  V30 18713 H 1844.81 -0.100757 4.6069 0
M  V30 18714 H 1843.13 -0.249139 4.15654 0
M  V30 18715 H 1845.72 -3.01856 4.41347 0
M  V30 18716 H 1846.07 -3.16267 2.70704 0
M  V30 18717 H 1846.6 -1.71189 3.59081 0
M  V30 18718 H 1843.34 -0.939801 6.48728 0
M  V30 18719 H 1842.86 -2.35156 5.5178 0
M  V30 18720 H 1844.54 -2.18733 6.08905 0
M  V30 18721 N 1844.67 -1.5 -0.48349 0
M  V30 18722 C 1846.08 -1.37151 -0.816192 0
M  V30 18723 C 1846.28 -0.418047 -1.97116 0
M  V30 18724 O 1845.34 0.143884 -2.5209 0
M  V30 18725 C 1846.65 -2.78256 -1.13992 0
M  V30 18726 C 1848.2 -2.87082 -1.2471 0
M  V30 18727 C 1848.68 -4.28993 -1.60403 0
M  V30 18728 N 1850.17 -4.31886 -1.67419 0
M  V30 18729 C 1850.9 -5.38673 -1.96516 0
M  V30 18730 N 1850.4 -6.55685 -2.23718 0
M  V30 18731 N 1852.19 -5.26105 -1.97914 0
M  V30 18732 H 1844.34 -2.10575 0.277847 0
M  V30 18733 H 1846.61 -0.945986 0.0617554 0
M  V30 18734 H 1846.31 -3.49807 -0.364448 0
M  V30 18735 H 1846.19 -3.14724 -2.07916 0
M  V30 18736 H 1848.57 -2.15758 -2.01327 0
M  V30 18737 H 1848.65 -2.54174 -0.287959 0
M  V30 18738 H 1848.3 -5.0085 -0.84331 0
M  V30 18739 H 1848.23 -4.59379 -2.57447 0
M  V30 18740 H 1850.72 -3.47506 -1.48487 0
M  V30 18741 H 1851.03 -7.32883 -2.45158 0
M  V30 18742 H 1849.38 -6.58881 -2.21136 0
M  V30 18743 H 1852.57 -4.33692 -1.76151 0
M  V30 18744 H 1852.74 -6.09419 -2.20256 0
M  V30 18745 N 1846.15 0.735796 -1.39369 0
M  V30 18746 C 1847.37 1.53013 -1.40007 0
M  V30 18747 C 1847.8 1.881 0.00368376 0
M  V30 18748 O 1847.15 1.51853 0.990469 0
M  V30 18749 C 1847.2 2.79474 -2.27874 0
M  V30 18750 O 1846.31 3.75364 -1.70808 0
M  V30 18751 H 1845.65 0.462117 -0.476806 0
M  V30 18752 H 1848.18 0.907868 -1.83355 0
M  V30 18753 H 1848.19 3.28217 -2.42358 0
M  V30 18754 H 1846.86 2.53268 -3.29891 0
M  V30 18755 H 1845.44 3.34131 -1.65562 0
M  V30 18756 N 1847.63 1.24532 0.965897 0
M  V30 18757 C 1848.85 1.11412 1.74934 0
M  V30 18758 C 1849.28 -0.329168 1.85197 0
M  V30 18759 O 1848.63 -1.23833 1.3242 0
M  V30 18760 C 1848.68 1.76068 3.14694 0
M  V30 18761 O 1847.79 1.03267 3.99261 0
M  V30 18762 H 1847.13 0.389633 0.537663 0
M  V30 18763 H 1849.66 1.64875 1.2115 0
M  V30 18764 H 1849.67 1.81897 3.65209 0
M  V30 18765 H 1848.34 2.8108 3.0654 0
M  V30 18766 H 1846.92 1.05236 3.57743 0
M  V30 18767 N 1849.1 -1.16685 1.05936 0
M  V30 18768 C 1850.35 -1.86758 0.772386 0
M  V30 18769 C 1850.67 -1.81885 -0.703051 0
M  V30 18770 O 1849.94 -1.24992 -1.50844 0
M  V30 18771 H 1848.52 -0.69143 0.282725 0
M  V30 18772 H 1851.18 -1.41518 1.3401 0
M  V30 18773 H 1850.28 -2.92296 1.09405 0
M  V30 18774 N 1850.58 -0.841432 -1.33258 0
M  V30 18775 C 1851.86 -0.360204 -1.92255 0
M  V30 18776 C 1852.24 1.15474 -1.76717 0
M  V30 18777 O 1851.59 1.97035 -1.15713 0
M  V30 18778 C 1851.8 -0.809942 -3.39472 0
M  V30 18779 C 1853.14 -0.819444 -4.16618 0
M  V30 18780 O 1854.17 -0.753715 -3.48134 0
M  V30 18781 O 1853.03 -0.909553 -5.38878 0
M  V30 18782 H 1850.12 -0.102458 -0.820629 0
M  V30 18783 H 1852.67 -0.927455 -1.42114 0
M  V30 18784 H 1851.44 -1.85263 -3.44664 0
M  V30 18785 H 1851.06 -0.219406 -3.96994 0
M  V30 18786 N 1852.06 1.4581 -0.598108 0
M  V30 18787 C 1853.28 2.07188 -0.0938515 0
M  V30 18788 C 1853.71 1.44141 1.20851 0
M  V30 18789 O 1853.07 0.530689 1.73359 0
M  V30 18790 C 1853.12 3.60575 0.0423086 0
M  V30 18791 O 1852.22 3.97598 1.09496 0
M  V30 18792 H 1851.56 0.660324 -0.0697682 0
M  V30 18793 H 1854.09 1.87211 -0.825426 0
M  V30 18794 H 1854.1 4.07272 0.243566 0
M  V30 18795 H 1852.78 4.05852 -0.9087 0
M  V30 18796 H 1851.35 3.62587 0.87093 0
M  V30 18797 N 1853.54 0.336733 1.53961 0
M  V30 18798 C 1854.47 -0.566072 2.21068 0
M  V30 18799 C 1855.45 -1.10558 1.1923 0
M  V30 18800 O 1856.63 -1.16712 1.48022 0
M  V30 18801 C 1853.76 -1.77806 2.88275 0
M  V30 18802 C 1852.81 -1.36863 4.03944 0
M  V30 18803 S 1853.64 -0.394182 5.34047 0
M  V30 18804 C 1854.79 -1.61316 6.04754 0
M  V30 18805 H 1855.03 0.00393395 2.973 0
M  V30 18806 H 1852.56 0.120807 1.53927 0
M  V30 18807 H 1854.52 -2.47342 3.27616 0
M  V30 18808 H 1853.18 -2.31928 2.11822 0
M  V30 18809 H 1852.37 -2.2721 4.49879 0
M  V30 18810 H 1851.97 -0.752832 3.66345 0
M  V30 18811 H 1854.27 -2.54866 6.27734 0
M  V30 18812 H 1855.21 -1.19572 6.97931 0
M  V30 18813 H 1855.62 -1.80612 5.34827 0
M  V30 18814 N 1855.02 -1.57465 0.0651956 0
M  V30 18815 C 1856.26 -1.93238 -0.605428 0
M  V30 18816 C 1856.59 -0.944707 -1.70016 0
M  V30 18817 O 1855.85 0.0407499 -1.95658 0
M  V30 18818 C 1856.14 -3.35656 -1.2276 0
M  V30 18819 C 1855.81 -4.50152 -0.259667 0
M  V30 18820 C 1854.47 -4.812 0.0066384 0
M  V30 18821 C 1856.82 -5.1964 0.4029 0
M  V30 18822 C 1854.15 -5.79077 0.942709 0
M  V30 18823 C 1856.5 -6.1852 1.32725 0
M  V30 18824 C 1855.17 -6.47989 1.60209 0
M  V30 18825 H 1854.44 -0.707107 -0.221542 0
M  V30 18826 H 1857.09 -1.91026 0.134666 0
M  V30 18827 H 1855.39 -3.34301 -2.04328 0
M  V30 18828 H 1857.09 -3.60621 -1.75367 0
M  V30 18829 H 1853.68 -4.25933 -0.477412 0
M  V30 18830 H 1857.86 -4.95854 0.210267 0
M  V30 18831 H 1853.12 -6.00238 1.16296 0
M  V30 18832 H 1857.29 -6.7147 1.84664 0
M  V30 18833 H 1854.92 -7.23643 2.32904 0
M  V30 18834 N 1856.49 0.20831 -1.56217 0
M  V30 18835 C 1857.74 0.928839 -1.7904 0
M  V30 18836 C 1858.06 1.84968 -0.636108 0
M  V30 18837 O 1859.26 2.60984 -0.748302 0
M  V30 18838 C 1857.72 1.70192 -3.17116 0
M  V30 18839 C 1857.33 0.826564 -4.40309 0
M  V30 18840 C 1859.07 2.41287 -3.49257 0
M  V30 18841 C 1856.98 1.59775 -5.69408 0
M  V30 18842 H 1855.91 0.350563 -0.667549 0
M  V30 18843 H 1858.56 0.182398 -1.82591 0
M  V30 18844 H 1856.94 2.49176 -3.07778 0
M  V30 18845 H 1858.11 0.076324 -4.60737 0
M  V30 18846 H 1856.43 0.227092 -4.1578 0
M  V30 18847 H 1859.03 2.99511 -4.42942 0
M  V30 18848 H 1859.37 3.14827 -2.72377 0
M  V30 18849 H 1859.9 1.69282 -3.59984 0
M  V30 18850 H 1856.64 0.905384 -6.49217 0
M  V30 18851 H 1856.16 2.32227 -5.5302 0
M  V30 18852 H 1857.84 2.155 -6.10056 0
M  V30 18853 N 1857.97 1.50255 0.475528 0
M  V30 18854 C 1858.92 1.68794 1.57408 0
M  V30 18855 C 1859.89 0.529252 1.57442 0
M  V30 18856 O 1861.07 0.759301 1.75041 0
M  V30 18857 C 1858.21 1.78401 2.9541 0
M  V30 18858 C 1857.33 3.05742 3.05198 0
M  V30 18859 C 1856.46 3.06172 4.34088 0
M  V30 18860 C 1855.5 4.27985 4.37602 0
M  V30 18861 N 1854.64 4.26179 5.57957 0
M  V30 18862 H 1859.48 2.62583 1.40905 0
M  V30 18863 H 1857.01 1.30169 0.685152 0
M  V30 18864 H 1858.97 1.81952 3.75432 0
M  V30 18865 H 1857.6 0.880556 3.10558 0
M  V30 18866 H 1856.65 3.11683 2.18077 0
M  V30 18867 H 1857.97 3.95722 3.03654 0
M  V30 18868 H 1857.12 3.08427 5.22454 0
M  V30 18869 H 1855.86 2.14014 4.38234 0
M  V30 18870 H 1854.86 4.25947 3.47634 0
M  V30 18871 H 1856.09 5.21364 4.35151 0
M  V30 18872 H 1854.04 3.36873 5.62897 0
M  V30 18873 H 1853.95 5.09923 5.58135 0
M  V30 18874 H 1855.22 4.32574 6.4846 0
M  V30 18875 N 1859.45 -0.728395 1.39758 0
M  V30 18876 C 1860.38 -1.85554 1.41747 0
M  V30 18877 C 1861.36 -1.6778 0.279972 0
M  V30 18878 O 1862.55 -1.88001 0.48675 0
M  V30 18879 C 1859.68 -3.23375 1.26671 0
M  V30 18880 C 1858.63 -3.55799 2.37889 0
M  V30 18881 C 1857.96 -4.92628 2.07899 0
M  V30 18882 C 1859.26 -3.58098 3.80215 0
M  V30 18883 H 1860.95 -1.84146 2.36073 0
M  V30 18884 H 1858.5 -0.884539 1.13631 0
M  V30 18885 H 1860.45 -4.01907 1.26682 0
M  V30 18886 H 1859.17 -3.25326 0.288159 0
M  V30 18887 H 1857.83 -2.796 2.37107 0
M  V30 18888 H 1857.48 -4.91166 1.08466 0
M  V30 18889 H 1857.18 -5.15288 2.82404 0
M  V30 18890 H 1858.7 -5.73509 2.09571 0
M  V30 18891 H 1860.12 -4.26694 3.82891 0
M  V30 18892 H 1858.51 -3.9228 4.54133 0
M  V30 18893 H 1859.58 -2.57758 4.10718 0
M  V30 18894 N 1860.93 -1.25042 -0.959279 0
M  V30 18895 C 1862.34 -1.01764 -1.22948 0
M  V30 18896 C 1862.54 0.268402 -1.99704 0
M  V30 18897 O 1861.6 0.982348 -2.32607 0
M  V30 18898 C 1862.91 -2.23794 -2.0084 0
M  V30 18899 C 1864.46 -2.28507 -2.13901 0
M  V30 18900 C 1864.94 -3.50181 -2.9519 0
M  V30 18901 N 1866.43 -3.50549 -3.0277 0
M  V30 18902 C 1867.16 -4.41357 -3.66049 0
M  V30 18903 N 1866.66 -5.42431 -4.30976 0
M  V30 18904 N 1868.45 -4.29049 -3.63143 0
M  V30 18905 H 1860.6 -2.07672 -0.445667 0
M  V30 18906 H 1862.86 -0.91176 -0.259611 0
M  V30 18907 H 1862.57 -3.17237 -1.51835 0
M  V30 18908 H 1862.44 -2.26592 -3.01556 0
M  V30 18909 H 1864.83 -1.3559 -2.62105 0
M  V30 18910 H 1864.91 -2.29731 -1.12505 0
M  V30 18911 H 1864.56 -4.43417 -2.47677 0
M  V30 18912 H 1864.49 -3.46202 -3.96802 0
M  V30 18913 H 1866.98 -2.77432 -2.56593 0
M  V30 18914 H 1867.29 -6.07941 -4.77104 0
M  V30 18915 H 1865.64 -5.46308 -4.29619 0
M  V30 18916 H 1868.83 -3.49317 -3.11601 0
M  V30 18917 H 1869 -5.00017 -4.12174 0
M  V30 18918 N 1862.41 1.16121 -1.06553 0
M  V30 18919 C 1863.63 1.90611 -0.804673 0
M  V30 18920 C 1864.05 1.77576 0.641255 0
M  V30 18921 O 1863.41 1.12218 1.43921 0
M  V30 18922 C 1863.46 3.41231 -1.19348 0
M  V30 18923 O 1863.18 3.53879 -2.58266 0
M  V30 18924 C 1864.68 4.32764 -0.960738 0
M  V30 18925 H 1861.9 0.604358 -0.291534 0
M  V30 18926 H 1864.44 1.47174 -1.41986 0
M  V30 18927 H 1862.6 3.82361 -0.622772 0
M  V30 18928 H 1863.01 4.47298 -2.73907 0
M  V30 18929 H 1864.49 5.36898 -1.28238 0
M  V30 18930 H 1864.96 4.39078 0.103389 0
M  V30 18931 H 1865.57 3.97365 -1.51595 0
M  V30 18932 N 1863.88 0.848487 1.3281 0
M  V30 18933 C 1865.16 0.370395 1.92061 0
M  V30 18934 C 1865.54 -1.14535 1.77327 0
M  V30 18935 O 1864.89 -1.96419 1.16756 0
M  V30 18936 C 1865.1 0.827934 3.39037 0
M  V30 18937 C 1866.45 0.841527 4.16177 0
M  V30 18938 O 1867.47 0.772167 3.4773 0
M  V30 18939 O 1866.33 0.938119 5.38388 0
M  V30 18940 H 1863.42 0.106809 0.820074 0
M  V30 18941 H 1865.97 0.934979 1.4162 0
M  V30 18942 H 1864.74 1.87089 3.43676 0
M  V30 18943 H 1864.37 0.240456 3.96872 0
M  V30 18944 N 1865.36 -1.4549 0.605832 0
M  V30 18945 C 1866.27 -2.34313 -0.115915 0
M  V30 18946 C 1867.29 -1.51136 -0.862199 0
M  V30 18947 O 1868.46 -1.83943 -0.820181 0
M  V30 18948 C 1865.53 -3.28724 -1.10188 0
M  V30 18949 C 1864.59 -4.27807 -0.357749 0
M  V30 18950 C 1863.82 -5.17707 -1.29675 0
M  V30 18951 O 1864.05 -5.10999 -2.53448 0
M  V30 18952 O 1862.98 -5.9663 -0.794767 0
M  V30 18953 H 1866.81 -2.97429 0.613981 0
M  V30 18954 H 1864.39 -1.44845 0.366103 0
M  V30 18955 H 1866.27 -3.86905 -1.6698 0
M  V30 18956 H 1864.95 -2.68175 -1.81284 0
M  V30 18957 H 1863.86 -3.73246 0.252588 0
M  V30 18958 H 1865.19 -4.91206 0.312682 0
M  V30 18959 N 1866.84 -0.344893 -1.5378 0
M  V30 18960 C 1868.09 0.250711 -2.00539 0
M  V30 18961 C 1868.41 1.5096 -1.23435 0
M  V30 18962 O 1867.68 1.92893 -0.341893 0
M  V30 18963 H 1866.26 0.0956318 -0.740853 0
M  V30 18964 H 1868.92 -0.466361 -1.89238 0
M  V30 18965 H 1868.02 0.49222 -3.08194 0
M  V30 18966 N 1868.32 1.57428 -0.0735454 0
M  V30 18967 C 1869.25 2.09808 0.922679 0
M  V30 18968 C 1870.26 1.0306 1.26026 0
M  V30 18969 O 1871.45 1.30568 1.21714 0
M  V30 18970 C 1868.55 2.54492 2.23801 0
M  V30 18971 C 1867.73 3.84832 2.07901 0
M  V30 18972 C 1866.78 4.15592 3.22754 0
M  V30 18973 O 1865.81 4.85163 2.97667 0
M  V30 18974 N 1867.01 3.69277 4.47901 0
M  V30 18975 H 1869.78 2.95905 0.475456 0
M  V30 18976 H 1867.34 1.61511 0.112135 0
M  V30 18977 H 1869.33 2.7213 2.99545 0
M  V30 18978 H 1867.9 1.73523 2.60016 0
M  V30 18979 H 1867.12 3.76557 1.16614 0
M  V30 18980 H 1868.41 4.70144 1.9453 0
M  V30 18981 H 1867.81 3.13076 4.71168 0
M  V30 18982 H 1866.36 3.92111 5.20665 0
M  V30 18983 N 1869.8 -0.200022 1.56326 0
M  V30 18984 C 1870.73 -1.27187 1.90673 0
M  V30 18985 C 1871.74 -1.41961 0.796933 0
M  V30 18986 O 1872.93 -1.42474 1.07533 0
M  V30 18987 C 1870.03 -2.64468 2.11919 0
M  V30 18988 C 1869.2 -2.71366 3.43044 0
M  V30 18989 C 1868.26 -3.89809 3.53462 0
M  V30 18990 O 1867.29 -3.77142 4.26325 0
M  V30 18991 N 1868.49 -5.05052 2.86187 0
M  V30 18992 H 1871.26 -0.980397 2.83211 0
M  V30 18993 H 1868.82 -0.389967 1.57133 0
M  V30 18994 H 1870.81 -3.42122 2.16182 0
M  V30 18995 H 1869.38 -2.86124 1.25904 0
M  V30 18996 H 1868.6 -1.80024 3.50692 0
M  V30 18997 H 1869.89 -2.72961 4.29383 0
M  V30 18998 H 1869.28 -5.18242 2.26808 0
M  V30 18999 H 1867.84 -5.8067 2.96083 0
M  V30 19000 N 1871.27 -1.50505 -0.467553 0
M  V30 19001 C 1872.52 -1.61352 -1.21697 0
M  V30 19002 C 1872.84 -0.317583 -1.92396 0
M  V30 19003 O 1872.11 0.665123 -1.84263 0
M  V30 19004 H 1870.69 -0.594582 -0.452196 0
M  V30 19005 H 1873.36 -1.87299 -0.539 0
M  V30 19006 H 1872.45 -2.4264 -1.96296 0
M  V30 19007 N 1872.75 0.720973 -1.40142 0
M  V30 19008 C 1874.17 1.02835 -1.22054 0
M  V30 19009 C 1874.37 2.0129 -0.091949 0
M  V30 19010 O 1873.42 2.46395 0.551897 0
M  V30 19011 C 1874.74 1.57722 -2.56016 0
M  V30 19012 C 1876.29 1.69734 -2.62982 0
M  V30 19013 C 1876.76 2.28027 -3.972 0
M  V30 19014 N 1878.25 2.3542 -3.98913 0
M  V30 19015 C 1878.99 2.81495 -4.99548 0
M  V30 19016 N 1878.48 3.27362 -6.10578 0
M  V30 19017 N 1880.28 2.80831 -4.86919 0
M  V30 19018 H 1872.43 0.068271 -2.1229 0
M  V30 19019 H 1874.69 0.0928952 -0.943438 0
M  V30 19020 H 1874.4 0.928424 -3.39224 0
M  V30 19021 H 1874.27 2.56326 -2.76725 0
M  V30 19022 H 1876.66 2.33732 -1.80148 0
M  V30 19023 H 1876.74 0.697443 -2.46108 0
M  V30 19024 H 1876.38 1.64653 -4.80471 0
M  V30 19025 H 1876.31 3.28721 -4.114 0
M  V30 19026 H 1878.8 2.03019 -3.18735 0
M  V30 19027 H 1879.12 3.61071 -6.83263 0
M  V30 19028 H 1877.46 3.25335 -6.14152 0
M  V30 19029 H 1880.65 2.4433 -3.99275 0
M  V30 19030 H 1880.82 3.16423 -5.65492 0
M  V30 19031 N 1874.23 1.25549 0.952634 0
M  V30 19032 C 1875.48 1.10198 1.69413 0
M  V30 19033 C 1875.8 -0.357345 1.91698 0
M  V30 19034 O 1875.07 -1.25345 1.5055 0
M  V30 19035 H 1873.65 0.404804 0.627808 0
M  V30 19036 H 1876.31 1.57703 1.14524 0
M  V30 19037 H 1875.41 1.61185 2.67256 0
M  V30 19038 N 1875.71 -1.15554 1.07168 0
M  V30 19039 C 1876.96 -1.86296 0.793718 0
M  V30 19040 C 1877.28 -1.8222 -0.680145 0
M  V30 19041 O 1876.54 -1.23899 -1.51485 0
M  V30 19042 C 1876.84 -3.3502 1.24484 0
M  V30 19043 C 1876.5 -3.59292 2.72434 0
M  V30 19044 C 1875.17 -3.65625 3.12844 0
M  V30 19045 C 1877.52 -3.69147 3.6794 0
M  V30 19046 C 1874.85 -3.79323 4.47584 0
M  V30 19047 C 1877.2 -3.84368 5.02438 0
M  V30 19048 C 1875.86 -3.88946 5.42473 0
M  V30 19049 H 1875.13 -0.681707 0.290442 0
M  V30 19050 H 1877.78 -1.36575 1.34236 0
M  V30 19051 H 1876.08 -3.86934 0.615546 0
M  V30 19052 H 1877.78 -3.88158 1.00669 0
M  V30 19053 H 1874.37 -3.55002 2.40149 0
M  V30 19054 H 1878.55 -3.63556 3.37847 0
M  V30 19055 H 1873.81 -3.81124 4.78074 0
M  V30 19056 H 1877.98 -3.90935 5.76318 0
M  V30 19057 H 1875.61 -3.99312 6.4688 0
M  V30 19058 N 1877.19 -0.855519 -1.32358 0
M  V30 19059 C 1878.13 -0.298777 -2.28858 0
M  V30 19060 C 1879.1 0.594728 -1.55088 0
M  V30 19061 O 1880.29 0.529455 -1.83307 0
M  V30 19062 C 1877.43 0.506096 -3.41369 0
M  V30 19063 C 1876.54 -0.413297 -4.30018 0
M  V30 19064 C 1875.68 0.404292 -5.29659 0
M  V30 19065 C 1874.72 -0.512444 -6.09951 0
M  V30 19066 N 1873.85 0.268017 -7.01588 0
M  V30 19067 H 1878.69 -1.12694 -2.7587 0
M  V30 19068 H 1876.23 -0.567162 -1.35726 0
M  V30 19069 H 1878.19 0.988384 -4.05323 0
M  V30 19070 H 1876.82 1.29908 -2.95506 0
M  V30 19071 H 1875.87 -1.01398 -3.66637 0
M  V30 19072 H 1877.18 -1.11683 -4.86136 0
M  V30 19073 H 1876.34 0.949707 -5.99221 0
M  V30 19074 H 1875.08 1.14118 -4.74161 0
M  V30 19075 H 1874.08 -1.06974 -5.39293 0
M  V30 19076 H 1875.31 -1.24796 -6.67535 0
M  V30 19077 H 1873.25 0.987986 -6.48517 0
M  V30 19078 H 1873.17 -0.376462 -7.55062 0
M  V30 19079 H 1874.44 0.79513 -7.75434 0
M  V30 19080 N 1878.67 1.45167 -0.61354 0
M  V30 19081 C 1879.63 2.29016 0.0919454 0
M  V30 19082 C 1880.63 1.40091 0.789373 0
M  V30 19083 O 1881.82 1.6215 0.636631 0
M  V30 19084 C 1878.95 3.21257 1.14048 0
M  V30 19085 H 1880.14 2.92875 -0.645317 0
M  V30 19086 H 1877.7 1.51788 -0.372855 0
M  V30 19087 H 1878.43 2.6221 1.90831 0
M  V30 19088 H 1878.22 3.86766 0.644523 0
M  V30 19089 H 1879.71 3.84288 1.63439 0
M  V30 19090 N 1880.14 0.353044 1.53595 0
M  V30 19091 C 1881.05 -0.507548 2.29044 0
M  V30 19092 C 1882.07 -1.10364 1.34521 0
M  V30 19093 O 1883.25 -1.11728 1.67567 0
M  V30 19094 C 1880.31 -1.63799 3.05566 0
M  V30 19095 C 1879.37 -1.07071 4.15733 0
M  V30 19096 C 1878.6 -2.14728 4.88597 0
M  V30 19097 O 1878.83 -3.35619 4.61211 0
M  V30 19098 O 1877.76 -1.78489 5.74826 0
M  V30 19099 H 1881.59 0.10606 3.03515 0
M  V30 19100 H 1879.17 0.117799 1.48935 0
M  V30 19101 H 1881.05 -2.2955 3.5339 0
M  V30 19102 H 1879.73 -2.23723 2.33944 0
M  V30 19103 H 1878.64 -0.37746 3.72191 0
M  V30 19104 H 1879.97 -0.516205 4.89486 0
M  V30 19105 N 1881.62 -1.57387 0.0818932 0
M  V30 19106 C 1882.85 -1.97913 -0.592784 0
M  V30 19107 C 1883.26 -0.959377 -1.63072 0
M  V30 19108 O 1882.6 0.0610095 -1.83599 0
M  V30 19109 C 1882.66 -3.34778 -1.3101 0
M  V30 19110 C 1882.33 -4.55025 -0.424461 0
M  V30 19111 C 1883.33 -5.18902 0.322059 0
M  V30 19112 C 1881.01 -5.01104 -0.346382 0
M  V30 19113 C 1883 -6.27217 1.13478 0
M  V30 19114 C 1880.69 -6.0929 0.469997 0
M  V30 19115 C 1881.69 -6.7221 1.20924 0
M  V30 19116 O 1881.38 -7.78311 2.01213 0
M  V30 19117 H 1881.11 -0.655646 -0.164633 0
M  V30 19118 H 1883.66 -2.04823 0.153877 0
M  V30 19119 H 1881.89 -3.24513 -2.10305 0
M  V30 19120 H 1883.58 -3.59841 -1.87801 0
M  V30 19121 H 1884.35 -4.8424 0.271391 0
M  V30 19122 H 1880.23 -4.51901 -0.91141 0
M  V30 19123 H 1883.77 -6.7626 1.71227 0
M  V30 19124 H 1879.67 -6.43384 0.522194 0
M  V30 19125 H 1880.44 -7.95237 1.93753 0
M  V30 19126 N 1883.1 0.191729 -1.56429 0
M  V30 19127 C 1884.52 0.542701 -1.5009 0
M  V30 19128 C 1884.72 1.85685 -0.782522 0
M  V30 19129 O 1883.77 2.50275 -0.334432 0
M  V30 19130 C 1885.08 0.594326 -2.94768 0
M  V30 19131 C 1886.63 0.682929 -3.05459 0
M  V30 19132 C 1887.11 0.765634 -4.51555 0
M  V30 19133 N 1888.6 0.829072 -4.5572 0
M  V30 19134 C 1889.33 0.91329 -5.6608 0
M  V30 19135 N 1888.83 0.959603 -6.86122 0
M  V30 19136 N 1890.62 0.950739 -5.54001 0
M  V30 19137 H 1882.77 -0.670241 -2.01548 0
M  V30 19138 H 1885.04 -0.239168 -0.917335 0
M  V30 19139 H 1884.74 -0.302238 -3.50399 0
M  V30 19140 H 1884.62 1.44787 -3.48305 0
M  V30 19141 H 1887 1.56992 -2.49875 0
M  V30 19142 H 1887.08 -0.19688 -2.55041 0
M  V30 19143 H 1886.73 -0.117022 -5.07765 0
M  V30 19144 H 1886.66 1.66129 -4.99709 0
M  V30 19145 H 1889.15 0.802391 -3.69283 0
M  V30 19146 H 1889.46 1.02447 -7.65979 0
M  V30 19147 H 1887.81 0.928223 -6.88774 0
M  V30 19148 H 1891 0.911418 -4.59141 0
M  V30 19149 H 1891.17 1.01291 -6.40034 0
M  V30 19150 N 1884.58 1.50751 0.459565 0
M  V30 19151 C 1885.51 1.66621 1.57385 0
M  V30 19152 C 1886.52 0.547358 1.53323 0
M  V30 19153 O 1887.71 0.820941 1.58502 0
M  V30 19154 C 1884.81 1.64524 2.96285 0
M  V30 19155 C 1883.98 2.92631 3.25093 0
M  V30 19156 C 1883.04 2.83021 4.43605 0
M  V30 19157 O 1882.07 3.56977 4.43347 0
M  V30 19158 N 1883.27 1.97358 5.45921 0
M  V30 19159 H 1886.04 2.62738 1.44184 0
M  V30 19160 H 1883.6 1.48359 0.64817 0
M  V30 19161 H 1885.59 1.55693 3.73553 0
M  V30 19162 H 1884.16 0.760945 3.03197 0
M  V30 19163 H 1883.38 3.15502 2.36331 0
M  V30 19164 H 1884.67 3.77477 3.41157 0
M  V30 19165 H 1884.07 1.36608 5.48958 0
M  V30 19166 H 1882.62 1.94422 6.22128 0
M  V30 19167 N 1886.06 -0.713531 1.40522 0
M  V30 19168 C 1887.28 -1.5026 1.4223 0
M  V30 19169 C 1887.7 -1.88787 0.0225637 0
M  V30 19170 O 1887.06 -1.55581 -0.95398 0
M  V30 19171 C 1887.11 -2.77663 2.31486 0
M  V30 19172 O 1886.83 -2.40765 3.66011 0
M  V30 19173 C 1888.33 -3.71543 2.41807 0
M  V30 19174 H 1885.55 -0.463648 0.485048 0
M  V30 19175 H 1888.09 -0.88 1.84598 0
M  V30 19176 H 1886.25 -3.36203 1.92475 0
M  V30 19177 H 1886.66 -3.22757 4.13434 0
M  V30 19178 H 1888.14 -4.57771 3.08464 0
M  V30 19179 H 1888.61 -4.14792 1.44375 0
M  V30 19180 H 1889.22 -3.18914 2.81379 0
M  V30 19181 N 1887.53 -1.26053 -0.945962 0
M  V30 19182 C 1888.77 -1.1253 -1.70635 0
M  V30 19183 C 1889.14 0.326708 -1.892 0
M  V30 19184 O 1890.34 0.583957 -2.6238 0
M  V30 19185 C 1888.61 -1.86811 -3.04691 0
M  V30 19186 S 1890.17 -1.89284 -3.95875 0
M  V30 19187 H 1886.99 -0.402052 -0.586409 0
M  V30 19188 H 1889.59 -1.59703 -1.12762 0
M  V30 19189 H 1888.29 -2.91531 -2.88856 0
M  V30 19190 H 1887.82 -1.40059 -3.67623 0
M  V30 19191 H 1889.84 -0.976107 -4.86504 0
M  V30 19192 N 1889.01 1.14984 -1.07779 0
M  V30 19193 C 1889.92 2.23484 -0.713576 0
M  V30 19194 C 1890.94 1.71779 0.277104 0
M  V30 19195 O 1892.11 2.01026 0.122649 0
M  V30 19196 C 1889.18 3.46487 -0.121542 0
M  V30 19197 C 1888.24 4.13162 -1.16602 0
M  V30 19198 C 1887.47 5.30292 -0.602138 0
M  V30 19199 O 1887.7 5.67439 0.580436 0
M  V30 19200 O 1886.63 5.86585 -1.34912 0
M  V30 19201 H 1890.46 2.56978 -1.61852 0
M  V30 19202 H 1888.04 1.22791 -0.851038 0
M  V30 19203 H 1889.92 4.20896 0.206134 0
M  V30 19204 H 1888.6 3.14732 0.756659 0
M  V30 19205 H 1887.5 3.40655 -1.54612 0
M  V30 19206 H 1888.84 4.49007 -2.01627 0
M  V30 19207 N 1890.49 0.862526 1.31902 0
M  V30 19208 C 1891.44 0.301807 2.30634 0
M  V30 19209 C 1892.43 -0.579086 1.59195 0
M  V30 19210 O 1893.64 -0.466014 1.73863 0
M  V30 19211 H 1890.01 0.078905 0.747849 0
M  V30 19212 H 1891.98 1.1486 2.75408 0
M  V30 19213 C 1890.73 -0.48822 3.44255 0
M  V30 19214 H 1890.06 0.18033 3.99393 0
M  V30 19215 H 1891.5 -0.846013 4.15474 0
M  V30 19216 C 1889.95 -1.67656 2.92221 0
M  V30 19217 O 1890.48 -2.77577 2.90369 0
M  V30 19218 N 1888.69 -1.50622 2.48518 0
M  V30 19219 H 1888.24 -0.612021 2.50224 0
M  V30 19220 H 1888.2 -2.30275 2.14058 0
M  V30 19221 N 1891.97 -1.4484 0.62123 0
M  V30 19222 C 1893.21 -2.02433 0.121965 0
M  V30 19223 C 1893.55 -1.48679 -1.24932 0
M  V30 19224 O 1892.82 -0.666887 -1.8271 0
M  V30 19225 C 1893.11 -3.59967 0.0978513 0
M  V30 19226 C 1892.96 -4.24025 1.50077 0
M  V30 19227 C 1894.28 -4.36224 -0.582838 0
M  V30 19228 H 1891.4 -0.735576 0.0457947 0
M  V30 19229 H 1894.04 -1.72531 0.795812 0
M  V30 19230 H 1892.19 -3.85573 -0.47597 0
M  V30 19231 H 1893.86 -4.09558 2.12272 0
M  V30 19232 H 1892.1 -3.819 2.05754 0
M  V30 19233 H 1892.77 -5.32994 1.43602 0
M  V30 19234 H 1895.25 -4.15992 -0.0949595 0
M  V30 19235 H 1894.13 -5.45944 -0.568863 0
M  V30 19236 H 1894.39 -4.10098 -1.65142 0
M  V30 19237 N 1893.45 -0.361184 -1.53405 0
M  V30 19238 C 1894.69 0.230222 -2.01489 0
M  V30 19239 C 1895.03 1.48779 -1.24814 0
M  V30 19240 O 1894.3 1.91494 -0.340612 0
M  V30 19241 C 1894.58 0.526613 -3.56229 0
M  V30 19242 C 1894.44 -0.744277 -4.436 0
M  V30 19243 C 1895.76 1.32901 -4.19554 0
M  V30 19244 H 1892.87 0.0822009 -0.732402 0
M  V30 19245 H 1895.52 -0.485208 -1.837 0
M  V30 19246 H 1893.67 1.13609 -3.71517 0
M  V30 19247 H 1895.34 -1.38188 -4.40116 0
M  V30 19248 H 1893.58 -1.36555 -4.11747 0
M  V30 19249 H 1894.25 -0.491913 -5.49804 0
M  V30 19250 H 1896.73 0.813474 -4.08071 0
M  V30 19251 H 1895.6 1.50513 -5.27861 0
M  V30 19252 H 1895.87 2.33625 -3.75329 0
M  V30 19253 N 1894.92 1.57341 -0.0902386 0
M  V30 19254 C 1896.17 1.93352 0.574273 0
M  V30 19255 C 1896.49 0.97374 1.6964 0
M  V30 19256 O 1897.69 1.22737 2.42173 0
M  V30 19257 C 1896.15 3.43536 1.07289 0
M  V30 19258 C 1895.76 4.47996 -0.0192163 0
M  V30 19259 C 1897.5 3.88516 1.71042 0
M  V30 19260 C 1895.41 5.89329 0.494487 0
M  V30 19261 H 1894.34 0.721711 0.218287 0
M  V30 19262 H 1896.99 1.82753 -0.165456 0
M  V30 19263 H 1895.37 3.49271 1.86616 0
M  V30 19264 H 1896.54 4.53899 -0.794527 0
M  V30 19265 H 1894.86 4.12595 -0.561628 0
M  V30 19266 H 1897.46 4.91505 2.1054 0
M  V30 19267 H 1897.8 3.26896 2.57769 0
M  V30 19268 H 1898.33 3.85462 0.983058 0
M  V30 19269 H 1895.07 6.54638 -0.336054 0
M  V30 19270 H 1894.59 5.86908 1.23691 0
M  V30 19271 H 1896.27 6.39763 0.965014 0
M  V30 19272 N 1896.4 -0.183431 1.56529 0
M  V30 19273 C 1897.65 -0.903332 1.8157 0
M  V30 19274 C 1897.98 -1.82417 0.666167 0
M  V30 19275 O 1897.26 -1.91635 -0.332621 0
M  V30 19276 C 1897.54 -1.70949 3.16936 0
M  V30 19277 C 1897.39 -0.812595 4.42399 0
M  V30 19278 C 1898.71 -2.6797 3.49113 0
M  V30 19279 H 1895.83 -0.326961 0.660504 0
M  V30 19280 H 1898.47 -0.170115 1.89237 0
M  V30 19281 H 1896.62 -2.33458 3.10531 0
M  V30 19282 H 1898.29 -0.201313 4.60861 0
M  V30 19283 H 1896.54 -0.119949 4.33634 0
M  V30 19284 H 1897.21 -1.4119 5.33638 0
M  V30 19285 H 1899.68 -2.15591 3.55893 0
M  V30 19286 H 1898.56 -3.21451 4.44927 0
M  V30 19287 H 1898.82 -3.47584 2.73199 0
M  V30 19288 N 1897.88 -1.50992 -0.451564 0
M  V30 19289 C 1898.83 -1.71831 -1.5677 0
M  V30 19290 C 1899.82 -0.584366 -1.59002 0
M  V30 19291 O 1901.03 -0.765385 -1.62917 0
M  V30 19292 H 1897.4 -0.542689 -0.52057 0
M  V30 19293 H 1899.37 -2.6542 -1.36363 0
M  V30 19294 C 1898.12 -1.84752 -2.94554 0
M  V30 19295 H 1897.45 -2.71405 -2.93563 0
M  V30 19296 H 1898.89 -2.0335 -3.72055 0
M  V30 19297 C 1897.35 -0.603808 -3.31445 0
M  V30 19298 O 1897.88 0.248099 -4.00933 0
M  V30 19299 N 1896.08 -0.452069 -2.87062 0
M  V30 19300 H 1895.63 -1.14638 -2.30686 0
M  V30 19301 H 1895.59 0.378877 -3.12109 0
M  V30 19302 N 1899.36 0.706069 -1.40899 0
M  V30 19303 C 1900.29 1.83119 -1.37841 0
M  V30 19304 C 1901.3 1.60335 -0.282253 0
M  V30 19305 O 1902.49 1.70032 -0.543263 0
M  V30 19306 C 1899.59 3.19696 -1.12461 0
M  V30 19307 C 1898.77 3.69598 -2.33915 0
M  V30 19308 C 1897.82 4.84815 -2.04551 0
M  V30 19309 O 1896.85 4.96973 -2.775 0
M  V30 19310 N 1898.05 5.71302 -1.0293 0
M  V30 19311 H 1900.82 1.86237 -2.34811 0
M  V30 19312 H 1898.38 0.887984 -1.35375 0
M  V30 19313 H 1900.37 3.94386 -0.90786 0
M  V30 19314 H 1898.94 3.11668 -0.241258 0
M  V30 19315 H 1898.16 2.85933 -2.7136 0
M  V30 19316 H 1899.45 3.99674 -3.14862 0
M  V30 19317 H 1898.85 5.64099 -0.425314 0
M  V30 19318 H 1897.4 6.45935 -0.872446 0
M  V30 19319 N 1900.84 1.26553 0.939264 0
M  V30 19320 C 1902.06 1.14993 1.72001 0
M  V30 19321 C 1902.48 -0.29462 1.86487 0
M  V30 19322 O 1901.84 -1.20158 1.37362 0
M  V30 19323 C 1901.89 1.81598 3.12577 0
M  V30 19324 O 1901.61 3.20408 2.98781 0
M  V30 19325 C 1903.11 1.76017 4.06858 0
M  V30 19326 H 1900.33 0.400347 0.538482 0
M  V30 19327 H 1902.87 1.67209 1.17735 0
M  V30 19328 H 1901.03 1.33316 3.63739 0
M  V30 19329 H 1901.44 3.53397 3.8757 0
M  V30 19330 H 1902.92 2.27255 5.0305 0
M  V30 19331 H 1903.39 0.727075 4.3314 0
M  V30 19332 H 1904 2.2386 3.61617 0
M  V30 19333 N 1902.31 -1.14411 1.08387 0
M  V30 19334 C 1903.54 -1.89032 0.833685 0
M  V30 19335 C 1903.95 -1.78829 -0.6178 0
M  V30 19336 O 1903.3 -1.1453 -1.43626 0
M  V30 19337 C 1903.36 -3.39708 1.17638 0
M  V30 19338 C 1903.02 -3.73695 2.6306 0
M  V30 19339 C 1904.02 -3.73832 3.61311 0
M  V30 19340 C 1901.7 -4.03681 2.9891 0
M  V30 19341 C 1903.7 -4.03478 4.93442 0
M  V30 19342 C 1901.38 -4.3299 4.31235 0
M  V30 19343 C 1902.38 -4.32871 5.2831 0
M  V30 19344 O 1902.07 -4.61469 6.58256 0
M  V30 19345 H 1901.8 -0.605621 0.300331 0
M  V30 19346 H 1904.36 -1.45824 1.44653 0
M  V30 19347 H 1902.59 -3.83368 0.506538 0
M  V30 19348 H 1904.28 -3.95636 0.907042 0
M  V30 19349 H 1905.04 -3.50753 3.34958 0
M  V30 19350 H 1900.92 -4.02926 2.2399 0
M  V30 19351 H 1904.46 -4.033 5.69205 0
M  V30 19352 H 1900.36 -4.55538 4.57335 0
M  V30 19353 H 1901.13 -4.79187 6.63568 0
M  V30 19354 N 1903.79 -0.869509 -1.31443 0
M  V30 19355 C 1905.04 -0.479265 -1.96335 0
M  V30 19356 C 1905.36 0.971583 -1.69072 0
M  V30 19357 O 1904.63 1.68104 -1.00588 0
M  V30 19358 H 1903.21 -0.174241 -0.726394 0
M  V30 19359 H 1905.87 -1.1092 -1.60259 0
M  V30 19360 H 1904.97 -0.636628 -3.05538 0
M  V30 19361 N 1905.27 1.44508 -0.628902 0
M  V30 19362 C 1906.52 2.01281 -0.129966 0
M  V30 19363 C 1906.83 1.50041 1.25488 0
M  V30 19364 O 1908.04 1.98927 1.84771 0
M  V30 19365 C 1906.49 3.59442 -0.1816 0
M  V30 19366 C 1906.1 4.19678 -1.56762 0
M  V30 19367 C 1907.85 4.23697 0.260988 0
M  V30 19368 C 1905.75 5.70056 -1.57449 0
M  V30 19369 H 1904.68 0.752667 -0.0448215 0
M  V30 19370 H 1907.33 1.65749 -0.787372 0
M  V30 19371 H 1905.72 3.92261 0.542864 0
M  V30 19372 H 1906.89 3.98399 -2.31549 0
M  V30 19373 H 1905.21 3.67701 -1.9541 0
M  V30 19374 H 1907.8 5.33991 0.275356 0
M  V30 19375 H 1908.15 3.95878 1.28787 0
M  V30 19376 H 1908.68 3.95672 -0.410909 0
M  V30 19377 H 1905.42 6.02606 -2.57966 0
M  V30 19378 H 1904.94 5.93464 -0.869514 0
M  V30 19379 H 1906.62 6.33652 -1.30745 0
M  V30 19380 N 1906.75 0.369315 1.53212 0
M  V30 19381 C 1907.68 -0.467242 2.28777 0
M  V30 19382 C 1908.66 -1.08073 1.31355 0
M  V30 19383 O 1909.85 -1.09728 1.60229 0
M  V30 19384 C 1906.98 -1.60519 3.07979 0
M  V30 19385 C 1905.93 -1.11876 4.1312 0
M  V30 19386 C 1905.26 -2.34723 4.80426 0
M  V30 19387 C 1906.56 -0.200846 5.21914 0
M  V30 19388 H 1908.25 0.163201 2.98955 0
M  V30 19389 H 1905.8 0.0799312 1.43778 0
M  V30 19390 H 1907.75 -2.19708 3.59592 0
M  V30 19391 H 1906.47 -2.26292 2.35499 0
M  V30 19392 H 1905.13 -0.549521 3.62458 0
M  V30 19393 H 1904.78 -2.98961 4.04514 0
M  V30 19394 H 1904.48 -2.02846 5.51477 0
M  V30 19395 H 1906 -2.94592 5.34835 0
M  V30 19396 H 1907.42 -0.700331 5.69006 0
M  V30 19397 H 1905.81 0.0272222 6.00094 0
M  V30 19398 H 1906.88 0.755948 4.78971 0
M  V30 19399 N 1908.23 -1.57291 0.0985816 0
M  V30 19400 C 1909.14 -2.17742 -0.873245 0
M  V30 19401 C 1910.15 -1.14784 -1.3077 0
M  V30 19402 O 1911.33 -1.47169 -1.37489 0
M  V30 19403 C 1908.39 -2.74864 -2.11308 0
M  V30 19404 C 1907.46 -3.92789 -1.73249 0
M  V30 19405 C 1906.69 -4.47177 -2.91322 0
M  V30 19406 O 1906.91 -4.00497 -4.06151 0
M  V30 19407 O 1905.85 -5.38151 -2.69587 0
M  V30 19408 H 1909.67 -3.012 -0.388902 0
M  V30 19409 H 1907.26 -1.48868 -0.125955 0
M  V30 19410 H 1909.14 -3.11359 -2.8396 0
M  V30 19411 H 1907.81 -1.9445 -2.58787 0
M  V30 19412 H 1906.72 -3.61099 -0.977663 0
M  V30 19413 H 1908.05 -4.74577 -1.3053 0
M  V30 19414 N 1909.71 0.175127 -1.56624 0
M  V30 19415 C 1910.93 0.912099 -1.86267 0
M  V30 19416 C 1911.36 1.75204 -0.684485 0
M  V30 19417 O 1910.71 1.77557 0.366501 0
M  V30 19418 C 1910.76 1.76776 -3.14297 0
M  V30 19419 O 1909.87 2.86894 -2.96253 0
M  V30 19420 H 1909.21 0.255728 -0.61278 0
M  V30 19421 H 1911.74 0.174416 -2.03855 0
M  V30 19422 H 1911.75 2.16845 -3.45604 0
M  V30 19423 H 1910.42 1.15077 -3.99663 0
M  V30 19424 H 1909 2.50435 -2.76291 0
M  V30 19425 N 1911.18 1.5123 0.44355 0
M  V30 19426 C 1912.43 1.62825 1.19041 0
M  V30 19427 C 1912.75 0.347298 1.92492 0
M  V30 19428 O 1913.95 0.342537 2.69331 0
M  V30 19429 C 1912.41 2.87532 2.16456 0
M  V30 19430 C 1912.02 4.22608 1.48682 0
M  V30 19431 C 1913.76 3.08483 2.91614 0
M  V30 19432 C 1911.67 5.38472 2.44544 0
M  V30 19433 H 1910.6 0.606444 0.448041 0
M  V30 19434 H 1913.25 1.77691 0.458065 0
M  V30 19435 H 1911.63 2.66287 2.931 0
M  V30 19436 H 1912.8 4.54212 0.776389 0
M  V30 19437 H 1911.12 4.07485 0.857007 0
M  V30 19438 H 1913.72 3.92219 3.63413 0
M  V30 19439 H 1914.06 2.2131 3.52601 0
M  V30 19440 H 1914.59 3.30039 2.22078 0
M  V30 19441 H 1911.33 6.27886 1.88255 0
M  V30 19442 H 1910.85 5.11252 3.13658 0
M  V30 19443 H 1912.53 5.70169 3.05804 0
M  V30 19444 N 1912.66 -0.698586 1.41271 0
M  V30 19445 C 1913.91 -1.45573 1.40189 0
M  V30 19446 C 1914.23 -1.94997 0.0108379 0
M  V30 19447 O 1913.5 -1.715 -0.946822 0
M  V30 19448 H 1912.08 -0.540134 0.516008 0
M  V30 19449 H 1914.74 -0.827048 1.76482 0
M  V30 19450 H 1913.84 -2.32036 2.08724 0
M  V30 19451 N 1914.14 -1.27049 -0.93254 0
M  V30 19452 C 1915.37 -1.15735 -1.7114 0
M  V30 19453 C 1915.78 0.289069 -1.86979 0
M  V30 19454 O 1915.12 1.20906 -1.38302 0
M  V30 19455 C 1915.18 -1.76319 -3.13292 0
M  V30 19456 C 1914.85 -3.25471 -3.20808 0
M  V30 19457 C 1915.84 -4.22172 -3.03425 0
M  V30 19458 C 1913.53 -3.66092 -3.43921 0
M  V30 19459 C 1915.52 -5.57471 -3.09038 0
M  V30 19460 C 1913.21 -5.01522 -3.49168 0
M  V30 19461 C 1914.21 -5.97022 -3.31744 0
M  V30 19462 O 1913.9 -7.29985 -3.36716 0
M  V30 19463 H 1913.63 -0.403495 -0.542372 0
M  V30 19464 H 1916.18 -1.68334 -1.17698 0
M  V30 19465 H 1914.41 -1.18192 -3.68195 0
M  V30 19466 H 1916.1 -1.59788 -3.73125 0
M  V30 19467 H 1916.87 -3.92127 -2.85415 0
M  V30 19468 H 1912.75 -2.92238 -3.56536 0
M  V30 19469 H 1916.29 -6.3199 -2.95356 0
M  V30 19470 H 1912.19 -5.31225 -3.66702 0
M  V30 19471 H 1912.95 -7.3837 -3.53203 0
M  V30 19472 N 1915.62 1.13835 -1.08993 0
M  V30 19473 C 1917.03 1.66568 -0.843325 0
M  V30 19474 C 1917.38 1.85846 0.628955 0
M  V30 19475 O 1916.5 1.57401 1.48506 0
M  V30 19476 C 1917.1 3.02573 -1.52431 0
M  V30 19477 C 1915.66 3.52315 -1.3248 0
M  V30 19478 C 1914.81 2.27658 -1.58326 0
M  V30 19479 H 1917.76 0.978181 -1.24969 0
M  V30 19480 H 1917.78 3.68323 -0.954898 0
M  V30 19481 H 1917.29 2.8851 -2.59584 0
M  V30 19482 H 1915.39 3.71589 -0.274248 0
M  V30 19483 H 1915.5 4.32715 -2.05657 0
M  V30 19484 H 1913.87 2.34028 -1.00514 0
M  V30 19485 H 1914.65 2.16165 -2.66698 0
M  V30 19486 N 1917.1 0.876467 1.3098 0
M  V30 19487 C 1918.04 0.326251 2.30301 0
M  V30 19488 C 1919.04 -0.562168 1.598 0
M  V30 19489 O 1920.24 -0.447547 1.74347 0
M  V30 19490 H 1916.62 0.0868325 0.74697 0
M  V30 19491 H 1918.59 1.17775 2.74175 0
M  V30 19492 C 1917.34 -0.451679 3.44754 0
M  V30 19493 H 1916.66 0.222681 3.99179 0
M  V30 19494 H 1918.1 -0.801899 4.16348 0
M  V30 19495 C 1916.56 -1.64547 2.93983 0
M  V30 19496 O 1917.09 -2.74482 2.93296 0
M  V30 19497 N 1915.3 -1.47978 2.50102 0
M  V30 19498 H 1914.84 -0.585447 2.50859 0
M  V30 19499 H 1914.8 -2.27992 2.16488 0
M  V30 19500 N 1918.57 -1.44173 0.636557 0
M  V30 19501 C 1919.98 -1.8534 0.224954 0
M  V30 19502 C 1920.34 -1.53271 -1.22485 0
M  V30 19503 O 1919.46 -0.973441 -1.93269 0
M  V30 19504 C 1920.06 -3.36413 0.401492 0
M  V30 19505 C 1918.61 -3.76374 0.0443511 0
M  V30 19506 C 1917.76 -2.67995 0.712303 0
M  V30 19507 H 1920.71 -1.34562 0.841356 0
M  V30 19508 H 1920.73 -3.78812 -0.357965 0
M  V30 19509 H 1920.25 -3.59722 1.45677 0
M  V30 19510 H 1918.35 -3.58679 -1.00897 0
M  V30 19511 H 1918.46 -4.76904 0.458196 0
M  V30 19512 H 1916.82 -2.54275 0.147092 0
M  V30 19513 H 1917.61 -2.94136 1.77028 0
M  V30 19514 N 1920.05 -0.377435 -1.53014 0
M  V30 19515 C 1921.28 0.208641 -2.05544 0
M  V30 19516 C 1921.69 1.42037 -1.24988 0
M  V30 19517 O 1921.03 1.81451 -0.286565 0
M  V30 19518 C 1921.09 0.654786 -3.53487 0
M  V30 19519 C 1920.76 -0.441865 -4.54859 0
M  V30 19520 C 1921.76 -1.29552 -5.035 0
M  V30 19521 C 1919.44 -0.605501 -4.98637 0
M  V30 19522 C 1921.43 -2.29804 -5.94533 0
M  V30 19523 C 1919.12 -1.61137 -5.89473 0
M  V30 19524 C 1920.12 -2.45607 -6.37312 0
M  V30 19525 O 1919.81 -3.44477 -7.26355 0
M  V30 19526 H 1919.54 0.0379445 -0.674934 0
M  V30 19527 H 1922.09 -0.537644 -1.98239 0
M  V30 19528 H 1920.32 1.45286 -3.5837 0
M  V30 19529 H 1922.01 1.16519 -3.88816 0
M  V30 19530 H 1922.78 -1.18035 -4.70418 0
M  V30 19531 H 1918.66 0.042229 -4.60981 0
M  V30 19532 H 1922.2 -2.95771 -6.31795 0
M  V30 19533 H 1918.1 -1.72697 -6.21969 0
M  V30 19534 H 1918.87 -3.40345 -7.44384 0
M  V30 19535 N 1921.53 1.57237 -0.106922 0
M  V30 19536 C 1922.76 1.99545 0.565392 0
M  V30 19537 C 1923.18 0.985887 1.60193 0
M  V30 19538 O 1922.54 -0.0440657 1.81246 0
M  V30 19539 C 1922.59 3.40779 1.17908 0
M  V30 19540 O 1921.69 3.42656 2.29479 0
M  V30 19541 H 1921.03 0.648556 0.142379 0
M  V30 19542 H 1923.56 2.03699 -0.191829 0
M  V30 19543 H 1923.57 3.78728 1.51754 0
M  V30 19544 H 1922.25 4.13776 0.419776 0
M  V30 19545 H 1920.82 3.16514 1.97164 0
M  V30 19546 N 1923.01 -0.166818 1.56715 0
M  V30 19547 C 1923.92 -1.22632 1.99996 0
M  V30 19548 C 1924.93 -1.4818 0.912068 0
M  V30 19549 O 1926.11 -1.6024 1.22005 0
M  V30 19550 C 1923.18 -2.54444 2.35498 0
M  V30 19551 C 1922.24 -2.36718 3.58138 0
M  V30 19552 C 1921.47 -3.62244 3.91937 0
M  V30 19553 O 1921.69 -4.67609 3.26646 0
M  V30 19554 O 1920.63 -3.56087 4.85269 0
M  V30 19555 H 1924.45 -0.888926 2.90399 0
M  V30 19556 H 1922.04 -0.374032 1.44642 0
M  V30 19557 H 1923.92 -3.32191 2.59281 0
M  V30 19558 H 1922.59 -2.87753 1.48256 0
M  V30 19559 H 1921.5 -1.56987 3.39567 0
M  V30 19560 H 1922.83 -2.08332 4.45936 0
M  V30 19561 N 1924.49 -1.51463 -0.435524 0
M  V30 19562 C 1925.43 -1.73484 -1.54939 0
M  V30 19563 C 1926.43 -0.601197 -1.58373 0
M  V30 19564 O 1927.63 -0.782622 -1.62096 0
M  V30 19565 H 1924.01 -0.54818 -0.514784 0
M  V30 19566 H 1925.98 -2.66851 -1.3354 0
M  V30 19567 C 1924.73 -1.87866 -2.92578 0
M  V30 19568 H 1924.05 -2.74503 -2.90668 0
M  V30 19569 H 1925.49 -2.07285 -3.69877 0
M  V30 19570 C 1923.95 -0.638928 -3.30786 0
M  V30 19571 O 1924.48 0.205561 -4.01174 0
M  V30 19572 N 1922.69 -0.48249 -2.86567 0
M  V30 19573 H 1922.23 -1.17078 -2.29457 0
M  V30 19574 H 1922.19 0.345753 -3.12493 0
M  V30 19575 N 1925.96 0.691085 -1.4164 0
M  V30 19576 C 1926.9 1.81646 -1.39776 0
M  V30 19577 C 1927.91 1.60026 -0.299243 0
M  V30 19578 O 1929.1 1.69446 -0.561266 0
M  V30 19579 C 1926.2 3.18486 -1.15845 0
M  V30 19580 C 1925.37 3.67096 -2.37822 0
M  V30 19581 C 1924.43 4.82618 -2.09681 0
M  V30 19582 O 1923.46 4.94002 -2.82756 0
M  V30 19583 N 1924.66 5.70178 -1.08983 0
M  V30 19584 H 1927.42 1.83736 -2.36773 0
M  V30 19585 H 1924.98 0.873576 -1.36309 0
M  V30 19586 H 1926.98 3.934 -0.949639 0
M  V30 19587 H 1925.55 3.11394 -0.274301 0
M  V30 19588 H 1924.77 2.83038 -2.74377 0
M  V30 19589 H 1926.05 3.96312 -3.19083 0
M  V30 19590 H 1925.45 5.63616 -0.48512 0
M  V30 19591 H 1924.01 6.44973 -0.940906 0
M  V30 19592 N 1927.44 1.27542 0.925789 0
M  V30 19593 C 1928.39 1.07085 2.01288 0
M  V30 19594 C 1929.38 -0.0017417 1.609 0
M  V30 19595 O 1930.57 0.217017 1.75665 0
M  V30 19596 C 1927.7 0.72208 3.3562 0
M  V30 19597 C 1926.78 1.83291 3.82446 0
M  V30 19598 N 1927.17 3.07277 4.01764 0
M  V30 19599 C 1925.47 1.72002 4.11499 0
M  V30 19600 C 1926.17 3.79576 4.40791 0
M  V30 19601 N 1925.15 3.07351 4.48371 0
M  V30 19602 H 1928.95 2.01175 2.14257 0
M  V30 19603 H 1926.47 1.18285 1.11277 0
M  V30 19604 H 1928.46 0.556635 4.13167 0
M  V30 19605 H 1927.12 -0.211174 3.24013 0
M  V30 19606 H 1928.13 3.43018 3.88019 0
M  V30 19607 H 1924.81 0.857729 4.08594 0
M  V30 19608 H 1926.2 4.86147 4.63801 0
M  V30 19609 N 1928.92 -1.13255 1.09595 0
M  V30 19610 C 1930.16 -1.86219 0.842735 0
M  V30 19611 C 1930.52 -1.81701 -0.620393 0
M  V30 19612 O 1931.73 -2.4992 -0.989606 0
M  V30 19613 C 1930 -3.30294 1.36532 0
M  V30 19614 S 1931.56 -4.20731 1.24624 0
M  V30 19615 H 1928.37 -0.642375 0.304755 0
M  V30 19616 H 1930.98 -1.3649 1.39967 0
M  V30 19617 H 1929.68 -3.31137 2.42439 0
M  V30 19618 H 1929.21 -3.85084 0.804584 0
M  V30 19619 H 1931.23 -4.95804 0.198297 0
M  V30 19620 N 1930.4 -0.883401 -1.30514 0
M  V30 19621 C 1931.35 -0.33846 -2.30124 0
M  V30 19622 C 1932.34 0.553686 -1.60096 0
M  V30 19623 O 1933.55 0.438295 -1.74582 0
M  V30 19624 H 1929.92 -0.0907927 -0.746499 0
M  V30 19625 H 1931.89 -1.19227 -2.73546 0
M  V30 19626 C 1930.64 0.43339 -3.44988 0
M  V30 19627 H 1929.96 -0.243847 -3.99056 0
M  V30 19628 H 1931.4 0.779808 -4.16767 0
M  V30 19629 C 1929.86 1.62986 -2.94851 0
M  V30 19630 O 1930.39 2.72922 -2.94748 0
M  V30 19631 N 1928.6 1.4665 -2.50883 0
M  V30 19632 H 1928.15 0.572135 -2.51166 0
M  V30 19633 H 1928.1 2.2684 -2.17694 0
M  V30 19634 N 1931.88 1.43833 -0.644194 0
M  V30 19635 C 1933.12 2.02748 -0.162722 0
M  V30 19636 C 1933.48 1.49857 1.20667 0
M  V30 19637 O 1932.77 0.678332 1.7919 0
M  V30 19638 C 1932.96 3.57249 -0.103941 0
M  V30 19639 C 1932.79 4.2513 -1.4661 0
M  V30 19640 C 1931.56 4.61572 -2.0562 0
M  V30 19641 C 1933.76 4.54728 -2.40265 0
M  V30 19642 N 1931.74 5.14482 -3.34934 0
M  V30 19643 C 1933.11 5.0886 -3.54205 0
M  V30 19644 C 1935.17 4.36689 -2.39181 0
M  V30 19645 C 1933.87 5.46853 -4.67273 0
M  V30 19646 C 1935.9 4.75738 -3.51322 0
M  V30 19647 C 1935.26 5.29996 -4.63987 0
M  V30 19648 H 1931.36 0.775085 -0.103767 0
M  V30 19649 H 1933.94 1.7514 -0.850534 0
M  V30 19650 H 1932.11 3.8444 0.553188 0
M  V30 19651 H 1933.85 4.0284 0.387567 0
M  V30 19652 H 1930.6 4.46317 -1.58425 0
M  V30 19653 H 1931.03 5.454 -4.01083 0
M  V30 19654 H 1935.67 3.94022 -1.53319 0
M  V30 19655 H 1933.39 5.88468 -5.53833 0
M  V30 19656 H 1936.97 4.63483 -3.51674 0
M  V30 19657 H 1935.85 5.59652 -5.49326 0
M  V30 19658 N 1933.35 0.385544 1.52811 0
M  V30 19659 C 1934.58 -0.198025 2.0595 0
M  V30 19660 C 1935 -1.40822 1.25756 0
M  V30 19661 O 1934.35 -1.79963 0.303251 0
M  V30 19662 C 1934.41 -0.571856 3.56948 0
M  V30 19663 O 1934.13 0.59026 4.34105 0
M  V30 19664 C 1935.63 -1.21169 4.26419 0
M  V30 19665 H 1932.85 -0.0307594 0.670295 0
M  V30 19666 H 1935.39 0.549688 1.96974 0
M  V30 19667 H 1933.55 -1.26947 3.6601 0
M  V30 19668 H 1933.96 0.28384 5.23731 0
M  V30 19669 H 1935.43 -1.42366 5.33325 0
M  V30 19670 H 1935.91 -2.17794 3.81395 0
M  V30 19671 H 1936.52 -0.554949 4.21664 0
M  V30 19672 N 1934.83 -1.57178 0.115259 0
M  V30 19673 C 1936.08 -1.94241 -0.54344 0
M  V30 19674 C 1936.39 -1.0006 -1.68069 0
M  V30 19675 O 1937.6 -1.26574 -2.4019 0
M  V30 19676 C 1936.06 -3.45199 -1.0181 0
M  V30 19677 C 1935.66 -4.47909 0.0904861 0
M  V30 19678 C 1937.41 -3.91188 -1.64839 0
M  V30 19679 C 1935.32 -5.90041 -0.400667 0
M  V30 19680 H 1934.25 -0.725092 -0.206778 0
M  V30 19681 H 1936.9 -1.82466 0.194509 0
M  V30 19682 H 1935.28 -3.52196 -1.81036 0
M  V30 19683 H 1936.45 -4.52577 0.866638 0
M  V30 19684 H 1934.77 -4.11649 0.627197 0
M  V30 19685 H 1937.36 -4.94792 -2.02694 0
M  V30 19686 H 1937.71 -3.30955 -2.52536 0
M  V30 19687 H 1938.24 -3.86977 -0.92161 0
M  V30 19688 H 1934.98 -6.54021 0.440159 0
M  V30 19689 H 1934.5 -5.88801 -1.14338 0
M  V30 19690 H 1936.18 -6.41217 -0.863111 0
M  V30 19691 N 1936.31 0.158505 -1.56801 0
M  V30 19692 C 1937.73 0.510743 -1.51207 0
M  V30 19693 C 1937.93 1.83983 -0.821733 0
M  V30 19694 O 1936.98 2.4951 -0.387444 0
M  V30 19695 C 1938.3 0.531668 -2.95962 0
M  V30 19696 C 1939.84 0.617983 -3.06839 0
M  V30 19697 C 1940.32 0.66968 -4.53078 0
M  V30 19698 N 1941.81 0.73222 -4.57376 0
M  V30 19699 C 1942.55 0.793011 -5.6789 0
M  V30 19700 N 1942.04 0.81385 -6.88003 0
M  V30 19701 N 1943.83 0.833013 -5.55893 0
M  V30 19702 H 1935.99 -0.712841 -2.00081 0
M  V30 19703 H 1938.25 -0.258572 -0.912055 0
M  V30 19704 H 1937.95 -0.376495 -3.49679 0
M  V30 19705 H 1937.83 1.37366 -3.51298 0
M  V30 19706 H 1940.22 1.51657 -2.53149 0
M  V30 19707 H 1940.3 -0.250933 -2.54566 0
M  V30 19708 H 1939.94 -0.2247 -5.07403 0
M  V30 19709 H 1939.87 1.55492 -5.0312 0
M  V30 19710 H 1942.36 0.72388 -3.70902 0
M  V30 19711 H 1942.67 0.861766 -7.6798 0
M  V30 19712 H 1941.02 0.781915 -6.90587 0
M  V30 19713 H 1944.21 0.813822 -4.60971 0
M  V30 19714 H 1944.38 0.876926 -6.42039 0
M  V30 19715 N 1937.79 1.51692 0.427485 0
M  V30 19716 C 1938.75 1.73114 1.50214 0
M  V30 19717 C 1939.75 0.601079 1.49143 0
M  V30 19718 O 1940.94 0.86875 1.50991 0
M  V30 19719 C 1938.07 1.79666 2.89712 0
M  V30 19720 H 1939.27 2.69033 1.32518 0
M  V30 19721 H 1936.82 1.4183 0.656804 0
M  V30 19722 H 1937.56 0.855968 3.128 0
M  V30 19723 H 1937.34 2.61803 2.91893 0
M  V30 19724 H 1938.83 1.98045 3.67652 0
M  V30 19725 N 1939.27 -0.683564 1.42004 0
M  V30 19726 C 1940.5 -1.4721 1.45386 0
M  V30 19727 C 1940.91 -1.88696 0.062603 0
M  V30 19728 O 1940.27 -1.5757 -0.920764 0
M  V30 19729 C 1940.32 -2.7269 2.37323 0
M  V30 19730 O 1940.04 -2.32947 3.71035 0
M  V30 19731 C 1941.54 -3.6633 2.49634 0
M  V30 19732 H 1938.76 -0.453255 0.494773 0
M  V30 19733 H 1941.3 -0.840646 1.86423 0
M  V30 19734 H 1939.46 -3.32044 1.99563 0
M  V30 19735 H 1939.87 -3.13915 4.20188 0
M  V30 19736 H 1941.35 -4.51125 3.18104 0
M  V30 19737 H 1941.82 -4.11636 1.53141 0
M  V30 19738 H 1942.43 -3.12874 2.8808 0
M  V30 19739 N 1940.75 -1.28031 -0.919012 0
M  V30 19740 C 1941.97 -1.17714 -1.7015 0
M  V30 19741 C 1942.39 0.264914 -1.86932 0
M  V30 19742 O 1941.75 1.17957 -1.39256 0
M  V30 19743 C 1941.8 -1.86548 -3.09648 0
M  V30 19744 O 1941.52 -3.25121 -2.93646 0
M  V30 19745 C 1943.02 -1.82467 -4.04006 0
M  V30 19746 H 1940.24 -0.408863 -0.532045 0
M  V30 19747 H 1942.78 -1.69061 -1.1506 0
M  V30 19748 H 1940.94 -1.39085 -3.61572 0
M  V30 19749 H 1941.35 -3.59518 -3.81899 0
M  V30 19750 H 1942.83 -2.35229 -4.99371 0
M  V30 19751 H 1943.3 -0.795892 -4.31928 0
M  V30 19752 H 1943.91 -2.29585 -3.5801 0
M  V30 19753 N 1942.22 1.12672 -1.10194 0
M  V30 19754 C 1943.47 1.83763 -0.841168 0
M  V30 19755 C 1943.79 1.84369 0.635061 0
M  V30 19756 O 1943.06 1.30504 1.46101 0
M  V30 19757 H 1941.64 0.680461 -0.308192 0
M  V30 19758 H 1944.3 1.36447 -1.3917 0
M  V30 19759 H 1943.4 2.88034 -1.20178 0
M  V30 19760 N 1943.7 0.89031 1.30043 0
M  V30 19761 C 1944.65 0.35066 2.29942 0
M  V30 19762 C 1945.64 -0.545188 1.60387 0
M  V30 19763 O 1946.85 -0.42903 1.74812 0
M  V30 19764 H 1943.22 0.0947502 0.746007 0
M  V30 19765 H 1945.2 1.20676 2.7291 0
M  V30 19766 C 1943.94 -0.415088 3.45213 0
M  V30 19767 H 1943.27 0.265007 3.98921 0
M  V30 19768 H 1944.71 -0.757694 4.17175 0
M  V30 19769 C 1943.17 -1.6142 2.95711 0
M  V30 19770 O 1943.7 -2.71355 2.96191 0
M  V30 19771 N 1941.9 -1.45317 2.51657 0
M  V30 19772 H 1941.45 -0.558807 2.51466 0
M  V30 19773 H 1941.41 -2.25683 2.18894 0
M  V30 19774 N 1945.18 -1.43489 0.651812 0
M  V30 19775 C 1946.41 -2.06181 0.172334 0
M  V30 19776 C 1946.82 -1.48848 -1.16145 0
M  V30 19777 O 1946.18 -0.619246 -1.71673 0
M  V30 19778 C 1946.23 -3.61425 0.0737039 0
M  V30 19779 O 1945.95 -4.16627 1.35476 0
M  V30 19780 C 1947.45 -4.4119 -0.432019 0
M  V30 19781 H 1944.67 -0.665039 0.0892394 0
M  V30 19782 H 1947.22 -1.84018 0.892063 0
M  V30 19783 H 1945.37 -3.82779 -0.596577 0
M  V30 19784 H 1945.79 -5.1028 1.21305 0
M  V30 19785 H 1947.26 -5.50163 -0.449989 0
M  V30 19786 H 1947.74 -4.14115 -1.46306 0
M  V30 19787 H 1948.34 -4.24802 0.205721 0
M  V30 19788 N 1946.66 -0.393643 -1.52605 0
M  V30 19789 C 1947.9 0.187431 -2.01932 0
M  V30 19790 C 1948.24 1.46098 -1.27942 0
M  V30 19791 O 1947.51 1.90729 -0.381154 0
M  V30 19792 C 1947.79 0.450933 -3.57265 0
M  V30 19793 C 1947.65 -0.838204 -4.41921 0
M  V30 19794 C 1948.97 1.23971 -4.22278 0
M  V30 19795 H 1946.09 0.0666471 -0.73398 0
M  V30 19796 H 1948.73 -0.524064 -1.8263 0
M  V30 19797 H 1946.88 1.05703 -3.73844 0
M  V30 19798 H 1948.55 -1.47492 -4.37086 0
M  V30 19799 H 1946.79 -1.45258 -4.08757 0
M  V30 19800 H 1947.46 -0.608424 -5.48637 0
M  V30 19801 H 1949.94 0.726733 -4.09705 0
M  V30 19802 H 1948.82 1.39283 -5.30935 0
M  V30 19803 H 1949.08 2.25611 -3.802 0
M  V30 19804 N 1948.14 1.57115 -0.123593 0
M  V30 19805 C 1949.08 2.16817 0.842196 0
M  V30 19806 C 1950.08 1.11865 1.27211 0
M  V30 19807 O 1951.28 1.3016 1.24331 0
M  V30 19808 H 1947.66 0.693949 0.289721 0
M  V30 19809 H 1949.63 2.96741 0.314221 0
M  V30 19810 C 1948.38 2.78577 2.08062 0
M  V30 19811 H 1947.7 3.59037 1.75876 0
M  V30 19812 H 1949.14 3.23884 2.73634 0
M  V30 19813 C 1947.6 1.75892 2.87339 0
M  V30 19814 O 1948.13 1.21508 3.82882 0
M  V30 19815 N 1946.34 1.45728 2.5142 0
M  V30 19816 H 1945.88 1.90143 1.73791 0
M  V30 19817 H 1945.84 0.772654 3.04758 0
M  V30 19818 N 1949.61 -0.150187 1.56883 0
M  V30 19819 C 1950.84 -0.877076 1.87059 0
M  V30 19820 C 1951.25 -1.75396 0.709427 0
M  V30 19821 O 1950.59 -1.80711 -0.330043 0
M  V30 19822 C 1950.66 -1.78766 3.11902 0
M  V30 19823 C 1950.32 -1.08826 4.43853 0
M  V30 19824 C 1951.32 -0.443669 5.18003 0
M  V30 19825 C 1949 -1.07872 4.9058 0
M  V30 19826 C 1951 0.201122 6.37083 0
M  V30 19827 C 1948.68 -0.430111 6.09584 0
M  V30 19828 C 1949.68 0.208684 6.82681 0
M  V30 19829 O 1949.37 0.847012 7.99425 0
M  V30 19830 H 1949.1 -0.259157 0.62435 0
M  V30 19831 H 1951.66 -0.148664 2.04861 0
M  V30 19832 H 1949.89 -2.55693 2.901 0
M  V30 19833 H 1951.57 -2.38622 3.28351 0
M  V30 19834 H 1952.34 -0.442872 4.82974 0
M  V30 19835 H 1948.22 -1.56534 4.33611 0
M  V30 19836 H 1951.76 0.700316 6.94076 0
M  V30 19837 H 1947.66 -0.428563 6.44076 0
M  V30 19838 H 1948.43 0.748362 8.15072 0
M  V30 19839 N 1951.09 -1.51916 -0.419434 0
M  V30 19840 C 1952.32 -1.69302 -1.1893 0
M  V30 19841 C 1952.74 -0.398024 -1.84557 0
M  V30 19842 O 1952.09 0.625083 -1.71461 0
M  V30 19843 C 1952.14 -2.82139 -2.26009 0
M  V30 19844 O 1951.86 -4.06623 -1.63064 0
M  V30 19845 C 1953.37 -3.10947 -3.15954 0
M  V30 19846 H 1950.59 -0.567657 -0.357781 0
M  V30 19847 H 1953.13 -1.98424 -0.494807 0
M  V30 19848 H 1951.28 -2.55565 -2.91144 0
M  V30 19849 H 1951.7 -4.69423 -2.33971 0
M  V30 19850 H 1953.17 -3.93438 -3.87183 0
M  V30 19851 H 1953.65 -2.24078 -3.77738 0
M  V30 19852 H 1954.26 -3.39246 -2.56499 0
M  V30 19853 N 1952.57 0.676023 -1.42365 0
M  V30 19854 C 1953.82 1.43608 -1.42769 0
M  V30 19855 C 1954.15 1.94451 -0.0436961 0
M  V30 19856 O 1953.4 1.71221 0.947723 0
M  V30 19857 C 1953.7 2.65018 -2.39792 0
M  V30 19858 C 1953.37 2.32724 -3.862 0
M  V30 19859 C 1952.03 2.23628 -4.2608 0
M  V30 19860 C 1954.38 2.06477 -4.78557 0
M  V30 19861 C 1951.71 1.86409 -5.56299 0
M  V30 19862 C 1954.06 1.70763 -6.09116 0
M  V30 19863 C 1952.72 1.60176 -6.47997 0
M  V30 19864 H 1951.99 0.525499 -0.522428 0
M  V30 19865 H 1954.64 0.770932 -1.75297 0
M  V30 19866 H 1952.95 3.36559 -2.00587 0
M  V30 19867 H 1954.64 3.23198 -2.37369 0
M  V30 19868 H 1951.23 2.40705 -3.54625 0
M  V30 19869 H 1955.42 2.12439 -4.48535 0
M  V30 19870 H 1950.67 1.7678 -5.85285 0
M  V30 19871 H 1954.85 1.49479 -6.80168 0
M  V30 19872 H 1952.47 1.31106 -7.48809 0
M  V30 19873 N 1954.05 1.28517 0.912209 0
M  V30 19874 C 1954.98 1.15113 2.03153 0
M  V30 19875 C 1955.96 0.0485128 1.70031 0
M  V30 19876 O 1957.14 0.225778 1.92883 0
M  V30 19877 C 1954.27 0.81381 3.37631 0
M  V30 19878 C 1953.23 1.87137 3.8492 0
M  V30 19879 C 1952.55 1.38765 5.1638 0
M  V30 19880 C 1953.85 3.27819 4.06611 0
M  V30 19881 H 1955.55 2.0875 2.14625 0
M  V30 19882 H 1953.09 1.00504 1.03126 0
M  V30 19883 H 1955.05 0.706804 4.1543 0
M  V30 19884 H 1953.77 -0.15826 3.26216 0
M  V30 19885 H 1952.43 1.96755 3.09327 0
M  V30 19886 H 1952.08 0.404598 5.0137 0
M  V30 19887 H 1951.78 2.09482 5.48991 0
M  V30 19888 H 1953.3 1.29389 5.96733 0
M  V30 19889 H 1954.72 3.21114 4.7493 0
M  V30 19890 H 1953.11 3.96384 4.50555 0
M  V30 19891 H 1954.18 3.71723 3.11368 0
M  V30 19892 N 1955.53 -1.12086 1.1079 0
M  V30 19893 C 1956.49 -2.16111 0.763446 0
M  V30 19894 C 1957.49 -1.59371 -0.213903 0
M  V30 19895 O 1958.68 -1.74197 0.00972099 0
M  V30 19896 C 1955.81 -3.40646 0.131488 0
M  V30 19897 H 1957 -2.48096 1.68489 0
M  V30 19898 H 1954.56 -1.27156 0.908896 0
M  V30 19899 H 1955.29 -3.14265 -0.800507 0
M  V30 19900 H 1955.08 -3.83108 0.834928 0
M  V30 19901 H 1956.57 -4.17495 -0.0936165 0
M  V30 19902 N 1957 -0.897194 -1.29569 0
M  V30 19903 C 1958.25 -0.521834 -1.95661 0
M  V30 19904 C 1958.58 0.931396 -1.70749 0
M  V30 19905 O 1957.83 1.67507 -1.01192 0
M  V30 19906 C 1958.13 -0.757743 -3.49275 0
M  V30 19907 C 1957.8 -2.18794 -3.94259 0
M  V30 19908 C 1956.46 -2.57901 -4.06252 0
M  V30 19909 C 1958.81 -3.11942 -4.17542 0
M  V30 19910 C 1956.14 -3.89341 -4.38897 0
M  V30 19911 C 1958.49 -4.42928 -4.51661 0
M  V30 19912 C 1957.16 -4.81911 -4.61864 0
M  V30 19913 H 1956.43 -0.190953 -0.715974 0
M  V30 19914 H 1959.07 -1.13537 -1.54212 0
M  V30 19915 H 1957.38 -0.0612622 -3.91752 0
M  V30 19916 H 1959.08 -0.446734 -3.98504 0
M  V30 19917 H 1955.67 -1.87443 -3.85439 0
M  V30 19918 H 1959.85 -2.82944 -4.07745 0
M  V30 19919 H 1955.11 -4.19269 -4.44998 0
M  V30 19920 H 1959.28 -5.15133 -4.68627 0
M  V30 19921 H 1956.91 -5.83797 -4.86914 0
M  V30 19922 N 1958.48 1.43142 -0.659413 0
M  V30 19923 C 1959.76 1.95318 -0.104973 0
M  V30 19924 C 1960.14 1.60048 1.37651 0
M  V30 19925 O 1959.49 0.888746 2.10508 0
M  V30 19926 C 1959.7 3.47161 -0.357769 0
M  V30 19927 C 1961.05 4.23766 -0.26602 0
M  V30 19928 O 1962.07 3.55012 -0.290667 0
M  V30 19929 O 1960.93 5.46152 -0.195021 0
M  V30 19930 H 1958.02 0.826978 0.0060428 0
M  V30 19931 H 1960.57 1.53049 -0.733079 0
M  V30 19932 H 1959.34 3.65983 -1.38465 0
M  V30 19933 H 1958.96 3.96443 0.303102 0
M  V30 19934 N 1959.96 0.40173 1.52394 0
M  V30 19935 C 1960.89 -0.41861 2.29717 0
M  V30 19936 C 1961.87 -1.05263 1.33618 0
M  V30 19937 O 1963.06 -1.06304 1.62521 0
M  V30 19938 C 1960.19 -1.5395 3.11314 0
M  V30 19939 C 1959.14 -1.03088 4.154 0
M  V30 19940 C 1958.47 -2.2448 4.85297 0
M  V30 19941 C 1959.77 -0.0900956 5.22222 0
M  V30 19942 H 1961.46 0.226577 2.98541 0
M  V30 19943 H 1959.01 0.110411 1.43576 0
M  V30 19944 H 1960.96 -2.12031 3.64171 0
M  V30 19945 H 1959.68 -2.21246 2.40246 0
M  V30 19946 H 1958.34 -0.472515 3.63542 0
M  V30 19947 H 1957.99 -2.90313 4.10764 0
M  V30 19948 H 1957.69 -1.91103 5.55656 0
M  V30 19949 H 1959.21 -2.83181 5.40963 0
M  V30 19950 H 1960.63 -0.579479 5.70364 0
M  V30 19951 H 1959.03 0.154505 5.99901 0
M  V30 19952 H 1960.1 0.857375 4.7726 0
M  V30 19953 N 1961.44 -1.57047 0.131923 0
M  V30 19954 C 1962.35 -2.19545 -0.826862 0
M  V30 19955 C 1963.36 -1.17532 -1.28305 0
M  V30 19956 O 1964.54 -1.50052 -1.34337 0
M  V30 19957 C 1961.61 -2.79284 -2.0543 0
M  V30 19958 C 1960.67 -3.96375 -1.64879 0
M  V30 19959 C 1959.9 -4.53256 -2.81771 0
M  V30 19960 O 1960.12 -4.09022 -3.97564 0
M  V30 19961 O 1959.06 -5.43748 -2.58111 0
M  V30 19962 H 1962.88 -3.01957 -0.324926 0
M  V30 19963 H 1960.47 -1.49102 -0.0943495 0
M  V30 19964 H 1962.35 -3.17312 -2.77292 0
M  V30 19965 H 1961.02 -1.99895 -2.54605 0
M  V30 19966 H 1959.93 -3.63092 -0.900848 0
M  V30 19967 H 1961.26 -4.77238 -1.20434 0
M  V30 19968 N 1962.92 0.141865 -1.5696 0
M  V30 19969 C 1963.87 1.18031 -1.95071 0
M  V30 19970 C 1964.85 1.38281 -0.822629 0
M  V30 19971 O 1966.04 1.39757 -1.08614 0
M  V30 19972 C 1963.17 2.51269 -2.33921 0
M  V30 19973 C 1962.26 2.3459 -3.53311 0
M  V30 19974 N 1962.65 1.87676 -4.69693 0
M  V30 19975 C 1960.95 2.65324 -3.58496 0
M  V30 19976 C 1961.65 1.84163 -5.51778 0
M  V30 19977 N 1960.62 2.27667 -4.93628 0
M  V30 19978 H 1964.43 0.809774 -2.82524 0
M  V30 19979 H 1961.94 0.349868 -1.58587 0
M  V30 19980 H 1963.94 3.26345 -2.59431 0
M  V30 19981 H 1962.6 2.891 -1.47821 0
M  V30 19982 H 1963.61 1.57565 -4.9335 0
M  V30 19983 H 1960.28 3.06996 -2.82948 0
M  V30 19984 H 1961.67 1.49341 -6.55093 0
M  V30 19985 N 1964.39 1.52136 0.411372 0
M  V30 19986 C 1965.34 1.717 1.50011 0
M  V30 19987 C 1966.33 0.570895 1.50431 0
M  V30 19988 O 1967.52 0.827873 1.56446 0
M  V30 19989 C 1964.65 1.86904 2.87961 0
M  V30 19990 C 1963.74 3.07379 2.92197 0
M  V30 19991 N 1964.13 4.30124 2.66133 0
M  V30 19992 C 1962.42 3.07167 3.23365 0
M  V30 19993 C 1963.13 5.11579 2.76879 0
M  V30 19994 N 1962.1 4.46777 3.09663 0
M  V30 19995 H 1965.9 2.64246 1.28651 0
M  V30 19996 H 1963.42 1.50138 0.61905 0
M  V30 19997 H 1965.41 1.99036 3.6632 0
M  V30 19998 H 1964.07 0.955566 3.10321 0
M  V30 19999 H 1965.09 4.58635 2.4057 0
M  V30 20000 H 1961.76 2.25548 3.51333 0
M  V30 20001 H 1963.15 6.19362 2.60463 0
M  V30 20002 N 1965.87 -0.668464 1.42721 0
M  V30 20003 C 1967.12 -1.42428 1.42819 0
M  V30 20004 C 1967.44 -1.95535 0.0504025 0
M  V30 20005 O 1968.64 -2.71407 -0.0712036 0
M  V30 20006 C 1967.1 -2.57681 2.51254 0
M  V30 20007 C 1966.71 -2.11246 3.95069 0
M  V30 20008 C 1968.45 -3.35151 2.60527 0
M  V30 20009 C 1966.36 -3.23619 4.95 0
M  V30 20010 H 1965.29 -0.535089 0.531221 0
M  V30 20011 H 1967.94 -0.723067 1.68653 0
M  V30 20012 H 1966.32 -3.302 2.18595 0
M  V30 20013 H 1967.49 -1.45838 4.37113 0
M  V30 20014 H 1965.81 -1.46697 3.89704 0
M  V30 20015 H 1968.41 -4.18853 3.32364 0
M  V30 20016 H 1968.75 -3.82166 1.6509 0
M  V30 20017 H 1969.28 -2.69705 2.92411 0
M  V30 20018 H 1966.02 -2.81588 5.91936 0
M  V30 20019 H 1965.54 -3.87788 4.57581 0
M  V30 20020 H 1967.22 -3.88988 5.17008 0
M  V30 20021 N 1967.35 -1.28999 -0.905381 0
M  V30 20022 C 1968.3 -1.13515 -2.0302 0
M  V30 20023 C 1969.29 -0.0522132 -1.6932 0
M  V30 20024 O 1970.5 -0.211599 -1.78752 0
M  V30 20025 H 1966.87 -0.350474 -0.665336 0
M  V30 20026 H 1968.85 -2.08758 -2.13219 0
M  V30 20027 C 1967.59 -0.822531 -3.37831 0
M  V30 20028 H 1966.92 -1.64783 -3.64262 0
M  V30 20029 H 1968.36 -0.754193 -4.17238 0
M  V30 20030 C 1966.82 0.474033 -3.33548 0
M  V30 20031 O 1967.35 1.50182 -3.7257 0
M  V30 20032 N 1965.55 0.477812 -2.86645 0
M  V30 20033 H 1965.1 -0.359023 -2.55086 0
M  V30 20034 H 1965.06 1.34533 -2.84162 0
M  V30 20035 N 1968.83 1.11497 -1.11383 0
M  V30 20036 C 1970.07 1.84854 -0.872254 0
M  V30 20037 C 1970.43 1.82665 0.591408 0
M  V30 20038 O 1971.63 2.51463 0.949721 0
M  V30 20039 C 1969.91 3.2808 -1.41769 0
M  V30 20040 S 1971.46 4.18695 -1.31301 0
M  V30 20041 H 1968.28 0.637445 -0.314936 0
M  V30 20042 H 1970.88 1.34246 -1.42121 0
M  V30 20043 H 1969.59 3.27238 -2.47677 0
M  V30 20044 H 1969.12 3.83756 -0.865746 0
M  V30 20045 H 1971.13 4.95425 -0.27715 0
M  V30 20046 N 1970.31 0.904053 1.29092 0
M  V30 20047 C 1971.53 0.547082 2.00054 0
M  V30 20048 C 1971.96 -0.862026 1.67185 0
M  V30 20049 O 1971.32 -1.57449 0.898855 0
M  V30 20050 C 1971.36 0.751495 3.52682 0
M  V30 20051 O 1970.47 -0.194004 4.11943 0
M  V30 20052 H 1969.81 0.213241 0.628828 0
M  V30 20053 H 1972.34 1.21683 1.64482 0
M  V30 20054 H 1972.35 0.657831 4.02662 0
M  V30 20055 H 1971.02 1.77878 3.75942 0
M  V30 20056 H 1969.6 -0.0524281 3.72863 0
M  V30 20057 N 1971.79 -1.4279 0.666995 0
M  V30 20058 C 1973.01 -2.05987 0.194192 0
M  V30 20059 C 1973.43 -1.50071 -1.1456 0
M  V30 20060 O 1972.79 -0.637419 -1.71006 0
M  V30 20061 C 1972.84 -3.61326 0.112034 0
M  V30 20062 O 1972.56 -4.15166 1.39888 0
M  V30 20063 C 1974.06 -4.41623 -0.385201 0
M  V30 20064 H 1971.28 -0.664055 0.096288 0
M  V30 20065 H 1973.82 -1.83061 0.91153 0
M  V30 20066 H 1971.98 -3.8339 -0.555944 0
M  V30 20067 H 1972.39 -5.08964 1.2671 0
M  V30 20068 H 1973.87 -5.50609 -0.391611 0
M  V30 20069 H 1974.34 -4.15643 -1.41906 0
M  V30 20070 H 1974.95 -4.2456 0.250766 0
M  V30 20071 N 1973.26 -0.409806 -1.52179 0
M  V30 20072 C 1974.54 0.224342 -1.94309 0
M  V30 20073 C 1974.92 1.62561 -1.34674 0
M  V30 20074 O 1974.27 2.22438 -0.522817 0
M  V30 20075 C 1974.48 0.22999 -3.48241 0
M  V30 20076 C 1975.83 0.449011 -4.22219 0
M  V30 20077 O 1976.85 0.309316 -3.54854 0
M  V30 20078 O 1975.71 0.724419 -5.41677 0
M  V30 20079 H 1972.8 0.144759 -0.814232 0
M  V30 20080 H 1975.35 -0.465799 -1.63182 0
M  V30 20081 H 1974.12 -0.750731 -3.84031 0
M  V30 20082 H 1973.74 0.964201 -3.85732 0
M  V30 20083 N 1974.74 1.56975 -0.14025 0
M  V30 20084 C 1975.97 1.99977 0.518922 0
M  V30 20085 C 1976.38 1.01924 1.59399 0
M  V30 20086 O 1975.72 0.007174 1.83699 0
M  V30 20087 C 1975.78 3.3941 1.18495 0
M  V30 20088 C 1975.45 4.56286 0.255289 0
M  V30 20089 C 1976.45 5.17349 -0.514424 0
M  V30 20090 C 1974.13 5.02045 0.160162 0
M  V30 20091 C 1976.12 6.22574 -1.36678 0
M  V30 20092 C 1973.81 6.07126 -0.695808 0
M  V30 20093 C 1974.81 6.67259 -1.45789 0
M  V30 20094 O 1974.5 7.70307 -2.29961 0
M  V30 20095 H 1974.23 0.661305 0.140186 0
M  V30 20096 H 1976.78 2.04111 -0.22979 0
M  V30 20097 H 1975.01 3.32095 1.98116 0
M  V30 20098 H 1976.7 3.66563 1.74316 0
M  V30 20099 H 1977.47 4.82899 -0.450926 0
M  V30 20100 H 1973.35 4.54972 0.743062 0
M  V30 20101 H 1976.89 6.69439 -1.96208 0
M  V30 20102 H 1972.79 6.41003 -0.760622 0
M  V30 20103 H 1973.56 7.87498 -2.23135 0
M  V30 20104 N 1976.22 -0.133539 1.57033 0
M  V30 20105 C 1977.15 -1.16595 2.02306 0
M  V30 20106 C 1978.13 -1.44031 0.904933 0
M  V30 20107 O 1979.32 -1.54721 1.17367 0
M  V30 20108 C 1976.45 -2.49581 2.41509 0
M  V30 20109 C 1975.4 -2.36639 3.56631 0
M  V30 20110 C 1974.73 -3.74457 3.81688 0
M  V30 20111 C 1976.03 -1.83912 4.88849 0
M  V30 20112 H 1977.72 -0.789456 2.88804 0
M  V30 20113 H 1975.27 -0.378309 1.38942 0
M  V30 20114 H 1977.22 -3.22043 2.71783 0
M  V30 20115 H 1975.94 -2.89093 1.51964 0
M  V30 20116 H 1974.6 -1.66628 3.26544 0
M  V30 20117 H 1974.25 -4.11428 2.89372 0
M  V30 20118 H 1973.95 -3.66655 4.59171 0
M  V30 20119 H 1975.47 -4.48446 4.14401 0
M  V30 20120 H 1976.89 -2.46178 5.17754 0
M  V30 20121 H 1975.28 -1.86967 5.70231 0
M  V30 20122 H 1976.35 -0.795669 4.78327 0
M  V30 20123 N 1977.7 -1.52352 -0.403298 0
M  V30 20124 C 1978.61 -1.79011 -1.51631 0
M  V30 20125 C 1979.62 -0.676014 -1.60331 0
M  V30 20126 O 1980.8 -0.962058 -1.76936 0
M  V30 20127 C 1977.86 -1.94046 -2.8731 0
M  V30 20128 C 1976.93 -3.17955 -2.88449 0
M  V30 20129 C 1976.16 -3.32264 -4.17656 0
M  V30 20130 O 1976.38 -2.51703 -5.11861 0
M  V30 20131 O 1975.32 -4.25446 -4.25769 0
M  V30 20132 H 1979.14 -2.73495 -1.32038 0
M  V30 20133 H 1976.73 -1.37268 -0.589733 0
M  V30 20134 H 1978.61 -2.05724 -3.67771 0
M  V30 20135 H 1977.28 -1.02752 -3.06959 0
M  V30 20136 H 1976.19 -3.11731 -2.0682 0
M  V30 20137 H 1977.52 -4.0905 -2.7375 0
M  V30 20138 N 1979.18 0.660885 -1.43074 0
M  V30 20139 C 1980.11 1.78579 -1.50438 0
M  V30 20140 C 1981.09 1.66253 -0.359703 0
M  V30 20141 O 1982.27 1.85465 -0.575893 0
M  V30 20142 C 1979.4 3.16963 -1.41956 0
M  V30 20143 C 1978.36 3.44043 -2.54594 0
M  V30 20144 C 1977.68 4.82147 -2.31166 0
M  V30 20145 C 1978.98 3.3955 -3.96867 0
M  V30 20146 H 1980.68 1.72673 -2.4459 0
M  V30 20147 H 1978.22 0.829317 -1.17721 0
M  V30 20148 H 1980.17 3.95406 -1.45713 0
M  V30 20149 H 1978.9 3.23581 -0.443048 0
M  V30 20150 H 1977.56 2.67969 -2.50177 0
M  V30 20151 H 1977.21 4.85432 -1.31776 0
M  V30 20152 H 1976.91 5.01228 -3.06667 0
M  V30 20153 H 1978.43 5.62857 -2.36695 0
M  V30 20154 H 1979.84 4.0794 -4.02813 0
M  V30 20155 H 1978.24 3.70166 -4.72332 0
M  V30 20156 H 1979.31 2.37868 -4.22548 0
M  V30 20157 N 1980.65 1.29477 0.898527 0
M  V30 20158 C 1981.88 1.20232 1.68011 0
M  V30 20159 C 1982.29 -0.239393 1.87679 0
M  V30 20160 O 1981.64 -1.17197 1.41459 0
M  V30 20161 C 1981.7 1.84564 3.08507 0
M  V30 20162 C 1981.36 3.33862 3.12065 0
M  V30 20163 C 1982.36 4.30068 2.92125 0
M  V30 20164 C 1980.04 3.75082 3.34094 0
M  V30 20165 C 1982.04 5.65469 2.94149 0
M  V30 20166 C 1979.72 5.10604 3.35748 0
M  V30 20167 C 1980.72 6.05607 3.15798 0
M  V30 20168 O 1980.41 7.38655 3.17243 0
M  V30 20169 H 1980.14 0.417733 0.531484 0
M  V30 20170 H 1982.7 1.71396 1.13193 0
M  V30 20171 H 1980.93 1.27913 3.64932 0
M  V30 20172 H 1982.62 1.69625 3.68758 0
M  V30 20173 H 1983.38 3.99556 2.74918 0
M  V30 20174 H 1979.26 3.01588 3.48662 0
M  V30 20175 H 1982.8 6.39598 2.78496 0
M  V30 20176 H 1978.7 5.40761 3.52488 0
M  V30 20177 H 1979.47 7.47475 3.33502 0
M  V30 20178 N 1982.13 -1.10905 1.11972 0
M  V30 20179 C 1983.41 -1.79218 0.783601 0
M  V30 20180 C 1983.79 -1.9817 -0.727451 0
M  V30 20181 O 1983.14 -1.57084 -1.65942 0
M  V30 20182 C 1983.35 -3.12538 1.55309 0
M  V30 20183 C 1984.7 -3.87492 1.73595 0
M  V30 20184 O 1985.72 -3.22244 1.5178 0
M  V30 20185 O 1984.58 -5.04588 2.09887 0
M  V30 20186 H 1981.67 -0.776524 0.284498 0
M  V30 20187 H 1984.22 -1.17598 1.22347 0
M  V30 20188 H 1982.99 -2.94133 2.58072 0
M  V30 20189 H 1982.61 -3.81874 1.10714 0
M  V30 20190 N 1983.61 -0.910886 -1.2861 0
M  V30 20191 C 1984.86 -0.541485 -1.94711 0
M  V30 20192 C 1985.18 0.917302 -1.72077 0
M  V30 20193 O 1984.45 1.64818 -1.05885 0
M  V30 20194 H 1983.03 -0.197263 -0.720483 0
M  V30 20195 H 1985.69 -1.15962 -1.56649 0
M  V30 20196 H 1984.79 -0.73351 -3.03358 0
M  V30 20197 N 1985.09 1.42434 -0.674558 0
M  V30 20198 C 1986.5 1.84678 -0.274015 0
M  V30 20199 C 1986.85 1.56464 1.18378 0
M  V30 20200 O 1985.98 1.02434 1.90621 0
M  V30 20201 C 1986.57 3.3523 -0.490545 0
M  V30 20202 C 1985.13 3.76124 -0.144124 0
M  V30 20203 C 1984.28 2.66013 -0.783107 0
M  V30 20204 H 1987.23 1.32284 -0.876737 0
M  V30 20205 H 1987.25 3.79628 0.257403 0
M  V30 20206 H 1986.76 3.55733 -1.55163 0
M  V30 20207 H 1984.86 3.61228 0.913523 0
M  V30 20208 H 1984.97 4.75521 -0.584478 0
M  V30 20209 H 1983.34 2.53796 -0.214457 0
M  V30 20210 H 1984.12 2.89339 -1.84764 0
M  V30 20211 N 1986.57 0.417871 1.51959 0
M  V30 20212 C 1987.98 0.0691743 1.5945 0
M  V30 20213 C 1988.18 -1.41946 1.43016 0
M  V30 20214 O 1987.24 -2.18728 1.26152 0
M  V30 20215 C 1988.55 0.571902 2.95211 0
M  V30 20216 C 1990.1 0.530639 3.08469 0
M  V30 20217 C 1990.57 1.01002 4.46724 0
M  V30 20218 N 1992.07 0.967199 4.5299 0
M  V30 20219 C 1992.8 1.30921 5.58254 0
M  V30 20220 N 1992.3 1.72311 6.7103 0
M  V30 20221 N 1994.09 1.22862 5.48508 0
M  V30 20222 H 1986.24 1.38668 1.60888 0
M  V30 20223 H 1988.5 0.570206 0.757344 0
M  V30 20224 H 1988.21 1.6127 3.12546 0
M  V30 20225 H 1988.08 -0.0137455 3.77197 0
M  V30 20226 H 1990.47 -0.50113 2.90814 0
M  V30 20227 H 1990.55 1.15245 2.28369 0
M  V30 20228 H 1990.2 2.04016 4.65124 0
M  V30 20229 H 1990.13 0.364935 5.25334 0
M  V30 20230 H 1992.62 0.663 3.72039 0
M  V30 20231 H 1992.93 1.96696 7.47349 0
M  V30 20232 H 1991.27 1.76222 6.72288 0
M  V30 20233 H 1994.47 0.904063 4.59287 0
M  V30 20234 H 1994.64 1.49846 6.30437 0
M  V30 20235 N 1988.04 -1.56898 0.148573 0
M  V30 20236 C 1988.98 -2.13971 -0.821526 0
M  V30 20237 C 1989.99 -1.08955 -1.20965 0
M  V30 20238 O 1991.18 -1.36226 -1.15346 0
M  V30 20239 C 1988.28 -2.6488 -2.11404 0
M  V30 20240 C 1987.45 -3.94313 -1.89303 0
M  V30 20241 C 1986.51 -4.30517 -3.02558 0
M  V30 20242 O 1985.54 -4.98812 -2.74181 0
M  V30 20243 N 1986.74 -3.90226 -4.29772 0
M  V30 20244 H 1989.5 -2.97836 -0.333735 0
M  V30 20245 H 1987.06 -1.61862 -0.0349479 0
M  V30 20246 H 1989.06 -2.86112 -2.8622 0
M  V30 20247 H 1987.63 -1.85731 -2.51441 0
M  V30 20248 H 1986.85 -3.81692 -0.985147 0
M  V30 20249 H 1988.13 -4.7889 -1.71877 0
M  V30 20250 H 1987.53 -3.352 -4.55694 0
M  V30 20251 H 1986.09 -4.16506 -5.01364 0
M  V30 20252 N 1989.52 0.125209 -1.57102 0
M  V30 20253 C 1990.46 1.18407 -1.95077 0
M  V30 20254 C 1991.43 1.40435 -0.819562 0
M  V30 20255 O 1992.62 1.54691 -1.07717 0
M  V30 20256 C 1989.74 2.53906 -2.24164 0
M  V30 20257 C 1988.79 2.48343 -3.46739 0
M  V30 20258 S 1989.62 1.92912 -4.99545 0
M  V30 20259 C 1990.78 3.30096 -5.31777 0
M  V30 20260 H 1991.01 0.860191 -2.84584 0
M  V30 20261 H 1988.55 0.331718 -1.50795 0
M  V30 20262 H 1990.5 3.31873 -2.416 0
M  V30 20263 H 1989.16 2.83474 -1.35282 0
M  V30 20264 H 1988.36 3.4814 -3.64437 0
M  V30 20265 H 1987.96 1.78494 -3.28658 0
M  V30 20266 H 1990.25 4.26287 -5.26579 0
M  V30 20267 H 1991.19 3.17232 -6.33064 0
M  V30 20268 H 1991.6 3.28238 -4.5926 0
M  V30 20269 N 1991 1.52564 0.395213 0
M  V30 20270 C 1992.25 1.66974 1.1386 0
M  V30 20271 C 1992.57 0.409016 1.90662 0
M  V30 20272 O 1991.84 -0.576451 1.87227 0
M  V30 20273 H 1990.42 0.61548 0.423313 0
M  V30 20274 H 1993.08 1.89657 0.449024 0
M  V30 20275 H 1992.18 2.5173 1.84496 0
M  V30 20276 N 1992.48 -0.653289 1.43422 0
M  V30 20277 C 1993.89 -0.968948 1.26821 0
M  V30 20278 C 1994.09 -2.00622 0.187882 0
M  V30 20279 O 1993.15 -2.48747 -0.43371 0
M  V30 20280 C 1994.46 -1.45328 2.63249 0
M  V30 20281 C 1996.01 -1.56993 2.70781 0
M  V30 20282 C 1996.49 -2.08817 4.07627 0
M  V30 20283 N 1997.98 -2.16119 4.09691 0
M  V30 20284 C 1998.71 -2.5734 5.1241 0
M  V30 20285 N 1998.21 -2.97858 6.25502 0
M  V30 20286 N 2000 -2.57279 4.99764 0
M  V30 20287 H 1992.15 0.0330932 2.12374 0
M  V30 20288 H 1994.42 -0.0477768 0.946795 0
M  V30 20289 H 1994.12 -0.765519 3.43268 0
M  V30 20290 H 1994 -2.42831 2.8864 0
M  V30 20291 H 1996.38 -2.24871 1.91095 0
M  V30 20292 H 1996.46 -0.579228 2.49156 0
M  V30 20293 H 1996.11 -1.41541 4.87779 0
M  V30 20294 H 1996.04 -3.08718 4.26616 0
M  V30 20295 H 1998.53 -1.8758 3.28058 0
M  V30 20296 H 1998.84 -3.2806 6.99712 0
M  V30 20297 H 1997.19 -2.95662 6.28974 0
M  V30 20298 H 2000.38 -2.25002 4.10478 0
M  V30 20299 H 2000.55 -2.89082 5.79944 0
M  V30 20300 N 1993.96 -1.29952 -0.891648 0
M  V30 20301 C 1995.19 -1.21121 -1.67371 0
M  V30 20302 C 1995.59 0.229437 -1.87804 0
M  V30 20303 O 1994.94 1.16445 -1.42079 0
M  V30 20304 C 1995 -1.86197 -3.07524 0
M  V30 20305 C 1994.66 -3.35513 -3.10291 0
M  V30 20306 C 1995.66 -4.31612 -2.8984 0
M  V30 20307 C 1993.35 -3.76848 -3.321 0
M  V30 20308 C 1995.34 -5.67021 -2.91146 0
M  V30 20309 C 1993.03 -5.12377 -3.33036 0
M  V30 20310 C 1994.02 -6.07274 -3.12582 0
M  V30 20311 O 1993.71 -7.40327 -3.13322 0
M  V30 20312 H 1993.44 -0.420546 -0.529261 0
M  V30 20313 H 1996 -1.71994 -1.12283 0
M  V30 20314 H 1994.23 -1.29846 -3.64248 0
M  V30 20315 H 1995.92 -1.71578 -3.67853 0
M  V30 20316 H 1996.68 -4.01009 -2.72795 0
M  V30 20317 H 1992.56 -3.03433 -3.47058 0
M  V30 20318 H 1996.11 -6.41066 -2.751 0
M  V30 20319 H 1992 -5.42623 -3.49615 0
M  V30 20320 H 1992.77 -7.49233 -3.29533 0
M  V30 20321 N 1995.44 1.1031 -1.12559 0
M  V30 20322 C 1996.68 1.83919 -0.891811 0
M  V30 20323 C 1997.04 1.83282 0.572001 0
M  V30 20324 O 1998.24 2.52456 0.922996 0
M  V30 20325 C 1996.51 3.26558 -1.45241 0
M  V30 20326 S 1998.07 4.17279 -1.35735 0
M  V30 20327 H 1994.89 0.634069 -0.321679 0
M  V30 20328 H 1997.49 1.32731 -1.43536 0
M  V30 20329 H 1996.19 3.24592 -2.51133 0
M  V30 20330 H 1995.73 3.82816 -0.906399 0
M  V30 20331 H 1997.74 4.95104 -0.329681 0
M  V30 20332 N 1996.91 0.917694 1.28125 0
M  V30 20333 C 1998.16 0.551804 1.94421 0
M  V30 20334 C 1998.48 -0.908163 1.72561 0
M  V30 20335 O 1997.75 -1.64255 1.06758 0
M  V30 20336 H 1996.33 0.201081 0.719427 0
M  V30 20337 H 1998.99 1.16791 1.56032 0
M  V30 20338 H 1998.09 0.749587 3.02965 0
M  V30 20339 N 1998.39 -1.42074 0.682102 0
M  V30 20340 C 1999.64 -2.01733 0.207714 0
M  V30 20341 C 1999.97 -1.53844 -1.18514 0
M  V30 20342 O 1999.25 -0.74378 -1.79717 0
M  V30 20343 C 1999.53 -3.59228 0.250438 0
M  V30 20344 C 1999.38 -4.17278 1.67927 0
M  V30 20345 C 2000.7 -4.38303 -0.397296 0
M  V30 20346 H 1997.82 -0.732972 0.0769518 0
M  V30 20347 H 2000.46 -1.69 0.868272 0
M  V30 20348 H 1998.61 -3.87245 -0.312007 0
M  V30 20349 H 2000.28 -4.00187 2.29452 0
M  V30 20350 H 1998.53 -3.7283 2.21767 0
M  V30 20351 H 1999.2 -5.26423 1.66079 0
M  V30 20352 H 2001.67 -4.1602 0.0815622 0
M  V30 20353 H 2000.55 -5.47866 -0.336797 0
M  V30 20354 H 2000.81 -4.16733 -1.476 0
M  V30 20355 N 1999.87 -0.425924 -1.51735 0
M  V30 20356 C 2001.15 0.203721 -1.94536 0
M  V30 20357 C 2001.53 1.61124 -1.3639 0
M  V30 20358 O 2000.87 2.21871 -0.54638 0
M  V30 20359 C 2001.08 0.193041 -3.48466 0
M  V30 20360 C 2002.43 0.404204 -4.22672 0
M  V30 20361 O 2003.46 0.271662 -3.55163 0
M  V30 20362 O 2002.32 0.666926 -5.42415 0
M  V30 20363 H 1999.41 0.136115 -0.815722 0
M  V30 20364 H 2001.96 -0.48308 -1.62679 0
M  V30 20365 H 2000.73 -0.791421 -3.83213 0
M  V30 20366 H 2000.35 0.923235 -3.86733 0
M  V30 20367 N 2001.35 1.56817 -0.156891 0
M  V30 20368 C 2002.28 2.20266 0.774915 0
M  V30 20369 C 2003.26 1.15387 1.24979 0
M  V30 20370 O 2004.44 1.43766 1.30557 0
M  V30 20371 C 2001.57 2.83207 2.01025 0
M  V30 20372 C 2000.53 3.94 1.67177 0
M  V30 20373 C 1999.85 4.43921 2.98057 0
M  V30 20374 C 2001.15 5.14297 0.91083 0
M  V30 20375 H 2002.85 2.98387 0.246082 0
M  V30 20376 H 2000.39 1.43525 0.116921 0
M  V30 20377 H 2002.35 3.26264 2.66701 0
M  V30 20378 H 2001.07 2.02433 2.56298 0
M  V30 20379 H 1999.73 3.51576 1.03876 0
M  V30 20380 H 1999.38 3.59957 3.5134 0
M  V30 20381 H 1999.08 5.18657 2.76169 0
M  V30 20382 H 2000.6 4.89656 3.64787 0
M  V30 20383 H 2002.02 5.54137 1.46988 0
M  V30 20384 H 2000.41 5.94857 0.791526 0
M  V30 20385 H 2001.48 4.84806 -0.0955943 0
M  V30 20386 N 2002.83 -0.116876 1.57166 0
M  V30 20387 C 2004.24 -0.673792 1.74118 0
M  V30 20388 C 2004.59 -1.80206 0.775892 0
M  V30 20389 O 2003.71 -2.16341 -0.0507019 0
M  V30 20390 C 2004.31 -1.22903 3.15722 0
M  V30 20391 C 2002.87 -1.73222 3.34172 0
M  V30 20392 C 2002.01 -0.632798 2.69983 0
M  V30 20393 H 2004.96 0.109055 1.58325 0
M  V30 20394 H 2004.99 -2.09867 3.1739 0
M  V30 20395 H 2004.5 -0.407637 3.85953 0
M  V30 20396 H 2002.6 -2.57832 2.68986 0
M  V30 20397 H 2002.71 -1.8402 4.4235 0
M  V30 20398 H 2001.08 -1.06693 2.31276 0
M  V30 20399 H 2001.86 0.177653 3.4284 0
M  V30 20400 N 2004.3 -1.52772 -0.387116 0
M  V30 20401 C 2005.71 -1.59829 -0.964966 0
M  V30 20402 C 2006.07 -0.452304 -1.90915 0
M  V30 20403 O 2005.19 0.424353 -2.12199 0
M  V30 20404 C 2005.79 -2.89687 -1.7569 0
M  V30 20405 C 2004.34 -2.99151 -2.28442 0
M  V30 20406 C 2003.49 -2.54957 -1.0905 0
M  V30 20407 H 2006.44 -1.57823 -0.1666 0
M  V30 20408 H 2006.46 -2.76279 -2.6163 0
M  V30 20409 H 2005.98 -3.73074 -1.06945 0
M  V30 20410 H 2004.08 -2.20305 -3.00494 0
M  V30 20411 H 2004.19 -4.03827 -2.578 0
M  V30 20412 H 2002.55 -2.09321 -1.45109 0
M  V30 20413 H 2003.34 -3.40741 -0.418373 0
M  V30 20414 N 2005.78 0.645673 -1.43767 0
M  V30 20415 C 2007.19 1.22702 -1.40717 0
M  V30 20416 C 2007.54 1.95862 -0.115066 0
M  V30 20417 O 2006.67 2.01652 0.785197 0
M  V30 20418 C 2007.26 2.23174 -2.54909 0
M  V30 20419 C 2005.82 2.76769 -2.551 0
M  V30 20420 C 2004.97 1.5153 -2.32237 0
M  V30 20421 H 2007.92 0.437227 -1.52558 0
M  V30 20422 H 2007.94 3.05497 -2.2683 0
M  V30 20423 H 2007.45 1.69898 -3.48936 0
M  V30 20424 H 2005.55 3.34087 -1.64974 0
M  V30 20425 H 2005.67 3.23799 -3.53116 0
M  V30 20426 H 2004.03 1.79146 -1.81049 0
M  V30 20427 H 2004.81 1.00177 -3.28359 0
M  V30 20428 N 2007.26 1.30423 0.884744 0
M  V30 20429 C 2008.51 1.19023 1.63334 0
M  V30 20430 C 2008.83 -0.255228 1.93322 0
M  V30 20431 O 2008.1 -1.17189 1.56983 0
M  V30 20432 H 2006.68 0.437514 0.605467 0
M  V30 20433 H 2009.34 1.63552 1.06003 0
M  V30 20434 H 2008.44 1.75125 2.58336 0
M  V30 20435 N 2008.74 -1.09711 1.13142 0
M  V30 20436 C 2009.96 -1.86136 0.914785 0
M  V30 20437 C 2010.39 -1.80448 -0.531035 0
M  V30 20438 O 2009.75 -1.17983 -1.37658 0
M  V30 20439 C 2009.79 -3.32164 1.40356 0
M  V30 20440 O 2008.9 -4.08203 0.586881 0
M  V30 20441 H 2008.24 -0.577287 0.328079 0
M  V30 20442 H 2010.77 -1.38563 1.50537 0
M  V30 20443 H 2010.78 -3.83013 1.40589 0
M  V30 20444 H 2009.45 -3.35619 2.45628 0
M  V30 20445 H 2008.03 -3.67153 0.652163 0
M  V30 20446 N 2010.22 -0.924476 -1.27637 0
M  V30 20447 C 2011.44 -0.579431 -1.98621 0
M  V30 20448 C 2011.86 0.84181 -1.68994 0
M  V30 20449 O 2011.22 1.55905 -0.948681 0
M  V30 20450 C 2011.27 -0.791898 -3.5272 0
M  V30 20451 O 2010.99 -2.15722 -3.81308 0
M  V30 20452 C 2012.49 -0.45513 -4.40957 0
M  V30 20453 H 2009.71 -0.219875 -0.633953 0
M  V30 20454 H 2012.25 -1.24062 -1.6257 0
M  V30 20455 H 2010.41 -0.17756 -3.86993 0
M  V30 20456 H 2010.82 -2.20483 -4.75907 0
M  V30 20457 H 2012.3 -0.654507 -5.48106 0
M  V30 20458 H 2012.77 0.609177 -4.34955 0
M  V30 20459 H 2013.38 -1.04747 -4.12199 0
M  V30 20460 N 2011.69 1.41711 -0.689627 0
M  V30 20461 C 2012.92 2.05652 -0.226938 0
M  V30 20462 C 2013.34 1.51875 1.12158 0
M  V30 20463 O 2012.69 0.664544 1.69971 0
M  V30 20464 C 2012.75 3.61102 -0.169503 0
M  V30 20465 O 2012.47 4.12888 -1.46475 0
M  V30 20466 C 2013.97 4.4218 0.314894 0
M  V30 20467 H 2011.19 0.66244 -0.10684 0
M  V30 20468 H 2013.73 1.81588 -0.940538 0
M  V30 20469 H 2011.89 3.84226 0.49488 0
M  V30 20470 H 2012.3 5.06884 -1.34791 0
M  V30 20471 H 2013.77 5.51162 0.303964 0
M  V30 20472 H 2014.25 4.17848 1.35275 0
M  V30 20473 H 2014.86 4.24107 -0.318278 0
M  V30 20474 N 2013.17 0.433965 1.51507 0
M  V30 20475 C 2014.4 -0.134793 2.06962 0
M  V30 20476 C 2014.82 -1.35984 1.29962 0
M  V30 20477 O 2014.18 -1.78147 0.336629 0
M  V30 20478 C 2014.23 -0.438976 3.57918 0
M  V30 20479 O 2013.33 -1.52599 3.83128 0
M  V30 20480 H 2012.67 -0.00334493 0.663992 0
M  V30 20481 H 2015.2 0.614327 1.95159 0
M  V30 20482 H 2015.21 -0.690415 4.02116 0
M  V30 20483 H 2013.89 0.456413 4.13388 0
M  V30 20484 H 2012.47 -1.26478 3.50796 0
M  V30 20485 N 2014.65 -1.56732 0.165206 0
M  V30 20486 C 2015.88 -2.01506 -0.490943 0
M  V30 20487 C 2016.3 -1.04466 -1.56424 0
M  V30 20488 O 2015.66 -0.0232331 -1.81285 0
M  V30 20489 C 2015.71 -3.4492 -1.05179 0
M  V30 20490 O 2014.81 -3.50937 -2.16603 0
M  V30 20491 H 2014.15 -0.653393 -0.11821 0
M  V30 20492 H 2016.68 -2.02846 0.267298 0
M  V30 20493 H 2016.69 -3.84099 -1.37593 0
M  V30 20494 H 2015.37 -4.15049 -0.265916 0
M  V30 20495 H 2013.94 -3.23613 -1.85281 0
M  V30 20496 N 2016.13 0.10854 -1.57226 0
M  V30 20497 C 2017.08 1.1326 -2.01099 0
M  V30 20498 C 2018.05 1.40564 -0.884932 0
M  V30 20499 O 2019.23 1.52253 -1.14994 0
M  V30 20500 C 2016.37 2.45125 -2.42915 0
M  V30 20501 C 2015.48 2.24667 -3.68983 0
M  V30 20502 C 2014.62 3.49836 -3.99736 0
M  V30 20503 C 2013.66 3.24581 -5.18954 0
M  V30 20504 N 2012.79 4.4198 -5.45525 0
M  V30 20505 H 2017.63 0.751475 -2.88369 0
M  V30 20506 H 2015.17 0.359547 -1.42638 0
M  V30 20507 H 2017.13 3.22063 -2.652 0
M  V30 20508 H 2015.76 2.8111 -1.58673 0
M  V30 20509 H 2014.81 1.38595 -3.54253 0
M  V30 20510 H 2016.12 2.01989 -4.56072 0
M  V30 20511 H 2015.28 4.35188 -4.22725 0
M  V30 20512 H 2014.02 3.75555 -3.11143 0
M  V30 20513 H 2013.02 2.37621 -4.95799 0
M  V30 20514 H 2014.25 3.00222 -6.09134 0
M  V30 20515 H 2012.19 4.678 -4.5989 0
M  V30 20516 H 2012.11 4.22445 -6.26958 0
M  V30 20517 H 2013.38 5.28436 -5.73041 0
M  V30 20518 N 2017.61 1.52975 0.379009 0
M  V30 20519 C 2018.54 1.81436 1.46981 0
M  V30 20520 C 2019.52 0.666985 1.56478 0
M  V30 20521 O 2020.7 0.915545 1.71264 0
M  V30 20522 C 2017.83 1.99221 2.84479 0
M  V30 20523 C 2016.79 3.14946 2.89816 0
M  V30 20524 C 2016.11 3.18001 4.2986 0
M  V30 20525 C 2017.41 4.53814 2.58554 0
M  V30 20526 H 2019.11 2.72781 1.23413 0
M  V30 20527 H 2016.65 1.31257 0.592257 0
M  V30 20528 H 2018.61 2.17714 3.60803 0
M  V30 20529 H 2017.33 1.04573 3.09406 0
M  V30 20530 H 2015.99 2.96251 2.15942 0
M  V30 20531 H 2015.64 2.21017 4.51841 0
M  V30 20532 H 2015.34 3.95746 4.34349 0
M  V30 20533 H 2016.86 3.38662 5.08075 0
M  V30 20534 H 2018.27 4.72559 3.24593 0
M  V30 20535 H 2016.67 5.33701 2.74379 0
M  V30 20536 H 2017.74 4.59845 1.53853 0
M  V30 20537 N 2019.08 -0.63804 1.44107 0
M  V30 20538 C 2020.02 -1.76333 1.46421 0
M  V30 20539 C 2021.03 -1.58805 0.358429 0
M  V30 20540 O 2022.22 -1.67246 0.623768 0
M  V30 20541 C 2019.32 -3.13967 1.27586 0
M  V30 20542 C 2018.49 -3.58016 2.51283 0
M  V30 20543 C 2017.55 -4.74503 2.27449 0
M  V30 20544 O 2016.58 -4.83167 3.00895 0
M  V30 20545 N 2017.78 -5.6574 1.3007 0
M  V30 20546 H 2020.54 -1.74822 2.43429 0
M  V30 20547 H 2018.1 -0.822384 1.39458 0
M  V30 20548 H 2020.1 -3.89605 1.09499 0
M  V30 20549 H 2018.67 -3.10162 0.389684 0
M  V30 20550 H 2017.89 -2.7266 2.84693 0
M  V30 20551 H 2019.17 -3.84197 3.33572 0
M  V30 20552 H 2018.57 -5.61427 0.693968 0
M  V30 20553 H 2017.13 -6.41037 1.17964 0
M  V30 20554 N 2020.56 -1.3089 -0.877815 0
M  V30 20555 C 2021.81 -1.20303 -1.63264 0
M  V30 20556 C 2022.14 0.240114 -1.9271 0
M  V30 20557 O 2021.42 1.17082 -1.55313 0
M  V30 20558 C 2021.7 -2.03934 -2.96788 0
M  V30 20559 C 2021.55 -3.56506 -2.74269 0
M  V30 20560 C 2022.87 -1.88268 -3.97798 0
M  V30 20561 H 2019.99 -0.438382 -0.592445 0
M  V30 20562 H 2022.63 -1.60598 -1.01529 0
M  V30 20563 H 2020.78 -1.69698 -3.49478 0
M  V30 20564 H 2022.45 -4.00838 -2.28312 0
M  V30 20565 H 2020.7 -3.8033 -2.08643 0
M  V30 20566 H 2021.37 -4.1032 -3.69244 0
M  V30 20567 H 2023.84 -2.18214 -3.54291 0
M  V30 20568 H 2022.72 -2.49098 -4.89123 0
M  V30 20569 H 2022.98 -0.843802 -4.33973 0
M  V30 20570 N 2022.04 1.0911 -1.13723 0
M  V30 20571 C 2022.97 2.17859 -0.840227 0
M  V30 20572 C 2023.95 1.68899 0.201778 0
M  V30 20573 O 2025.14 1.94107 0.0600046 0
M  V30 20574 C 2022.27 3.45922 -0.309024 0
M  V30 20575 C 2021.22 4.08234 -1.28565 0
M  V30 20576 C 2020.55 5.31162 -0.614064 0
M  V30 20577 C 2021.85 4.50354 -2.64534 0
M  V30 20578 H 2023.54 2.4296 -1.74959 0
M  V30 20579 H 2021.09 1.16771 -0.842653 0
M  V30 20580 H 2023.04 4.21306 -0.088895 0
M  V30 20581 H 2021.76 3.20353 0.635735 0
M  V30 20582 H 2020.42 3.34873 -1.49183 0
M  V30 20583 H 2020.07 5.01875 0.336272 0
M  V30 20584 H 2019.77 5.73807 -1.26566 0
M  V30 20585 H 2021.29 6.09267 -0.403293 0
M  V30 20586 H 2022.71 5.16948 -2.47866 0
M  V30 20587 H 2021.11 5.03894 -3.259 0
M  V30 20588 H 2022.18 3.62594 -3.21952 0
M  V30 20589 N 2023.52 0.931232 1.27145 0
M  V30 20590 C 2024.45 0.450505 2.29113 0
M  V30 20591 C 2025.43 -0.491043 1.62858 0
M  V30 20592 O 2026.61 -0.395036 1.9014 0
M  V30 20593 C 2023.74 -0.29432 3.46051 0
M  V30 20594 C 2022.7 0.559727 4.24324 0
M  V30 20595 C 2022.02 -0.314473 5.33774 0
M  V30 20596 C 2023.32 1.826 4.89341 0
M  V30 20597 H 2025.02 1.3027 2.69574 0
M  V30 20598 H 2022.56 0.627845 1.29592 0
M  V30 20599 H 2024.52 -0.641592 4.16487 0
M  V30 20600 H 2023.24 -1.18057 3.04516 0
M  V30 20601 H 2021.9 0.889756 3.55639 0
M  V30 20602 H 2021.55 -1.19978 4.88482 0
M  V30 20603 H 2021.25 0.253489 5.87053 0
M  V30 20604 H 2022.77 -0.657238 6.07053 0
M  V30 20605 H 2024.19 1.54659 5.52045 0
M  V30 20606 H 2022.58 2.33775 5.52693 0
M  V30 20607 H 2023.65 2.5434 4.12842 0
M  V30 20608 N 2025 -1.41343 0.697132 0
M  V30 20609 C 2025.93 -2.33452 0.0471857 0
M  V30 20610 C 2026.91 -1.51902 -0.765488 0
M  V30 20611 O 2028.09 -1.80434 -0.718146 0
M  V30 20612 C 2025.22 -3.35735 -0.888781 0
M  V30 20613 C 2024.18 -4.27608 -0.183088 0
M  V30 20614 C 2023.5 -5.20277 -1.23352 0
M  V30 20615 C 2024.8 -5.13559 0.951558 0
M  V30 20616 H 2026.5 -2.88052 0.816496 0
M  V30 20617 H 2024.04 -1.38502 0.394089 0
M  V30 20618 H 2026 -3.99098 -1.35272 0
M  V30 20619 H 2024.72 -2.79489 -1.68977 0
M  V30 20620 H 2023.38 -3.65671 0.260833 0
M  V30 20621 H 2023.03 -4.60346 -2.02708 0
M  V30 20622 H 2022.73 -5.82581 -0.766336 0
M  V30 20623 H 2024.25 -5.86517 -1.69793 0
M  V30 20624 H 2025.67 -5.70481 0.567835 0
M  V30 20625 H 2024.06 -5.84812 1.34593 0
M  V30 20626 H 2025.13 -4.50631 1.79053 0
M  V30 20627 N 2026.48 -0.441993 -1.51275 0
M  V30 20628 C 2027.7 0.121451 -2.06543 0
M  V30 20629 C 2028.12 1.36058 -1.30896 0
M  V30 20630 O 2027.48 1.78713 -0.369834 0
M  V30 20631 C 2027.53 0.438983 -3.58825 0
M  V30 20632 O 2027.25 -0.750969 -4.31616 0
M  V30 20633 C 2028.75 1.05259 -4.30622 0
M  V30 20634 H 2025.97 0.00586064 -0.670974 0
M  V30 20635 H 2028.51 -0.622415 -1.94798 0
M  V30 20636 H 2026.67 1.13275 -3.70469 0
M  V30 20637 H 2027.08 -0.478024 -5.22317 0
M  V30 20638 H 2028.56 1.22474 -5.38242 0
M  V30 20639 H 2029.03 2.03489 -3.89216 0
M  V30 20640 H 2029.64 0.398068 -4.23433 0
M  V30 20641 N 2027.95 1.56642 -0.173515 0
M  V30 20642 C 2029.23 1.88634 0.517348 0
M  V30 20643 C 2029.61 1.08374 1.81158 0
M  V30 20644 O 2028.96 0.178319 2.27803 0
M  V30 20645 C 2029.17 3.40689 0.757118 0
M  V30 20646 C 2030.52 4.10473 1.08614 0
M  V30 20647 O 2031.54 3.46018 0.845582 0
M  V30 20648 O 2030.4 5.24351 1.54008 0
M  V30 20649 H 2027.49 0.782731 0.266949 0
M  V30 20650 H 2030.04 1.68369 -0.212115 0
M  V30 20651 H 2028.81 3.90982 -0.157737 0
M  V30 20652 H 2028.43 3.66572 1.53982 0
M  V30 20653 N 2029.43 -0.1002 1.57281 0
M  V30 20654 C 2030.68 -0.803034 1.85461 0
M  V30 20655 C 2031 -1.79518 0.761475 0
M  V30 20656 O 2030.27 -1.94741 -0.212768 0
M  V30 20657 H 2028.85 -0.299556 0.684306 0
M  V30 20658 H 2031.51 -0.0830444 1.94723 0
M  V30 20659 H 2030.61 -1.33676 2.82024 0
M  V30 20660 N 2030.91 -1.53174 -0.370891 0
M  V30 20661 C 2032.16 -1.69349 -1.11574 0
M  V30 20662 C 2032.49 -0.441278 -1.8912 0
M  V30 20663 O 2031.76 0.561336 -1.86224 0
M  V30 20664 C 2032.05 -2.94003 -2.07929 0
M  V30 20665 C 2031.9 -4.29368 -1.34027 0
M  V30 20666 C 2033.22 -3.14243 -3.08123 0
M  V30 20667 H 2030.34 -0.616245 -0.404242 0
M  V30 20668 H 2032.98 -1.85803 -0.397124 0
M  V30 20669 H 2031.13 -2.80105 -2.69209 0
M  V30 20670 H 2032.8 -4.55068 -0.755718 0
M  V30 20671 H 2031.04 -4.29021 -0.642108 0
M  V30 20672 H 2031.72 -5.12712 -2.04525 0
M  V30 20673 H 2034.19 -3.27291 -2.56943 0
M  V30 20674 H 2033.07 -4.02907 -3.7277 0
M  V30 20675 H 2033.33 -2.2928 -3.77999 0
M  V30 20676 N 2032.39 0.630389 -1.44443 0
M  V30 20677 C 2033.64 1.38719 -1.46975 0
M  V30 20678 C 2033.96 1.94723 -0.103861 0
M  V30 20679 O 2033.23 1.75822 0.863919 0
M  V30 20680 H 2031.81 0.5149 -0.54119 0
M  V30 20681 H 2034.47 0.741905 -1.80227 0
M  V30 20682 H 2033.56 2.21813 -2.19557 0
M  V30 20683 N 2033.87 1.31354 0.870861 0
M  V30 20684 C 2035.28 1.09992 1.15646 0
M  V30 20685 C 2035.48 -0.130192 2.01079 0
M  V30 20686 O 2034.54 -0.819776 2.38822 0
M  V30 20687 C 2035.85 2.37098 1.84946 0
M  V30 20688 C 2037.4 2.42699 1.97651 0
M  V30 20689 C 2037.87 3.69684 2.70366 0
M  V30 20690 N 2039.36 3.70573 2.77902 0
M  V30 20691 C 2040.1 4.65525 3.34775 0
M  V30 20692 N 2039.6 5.70831 3.92586 0
M  V30 20693 N 2041.39 4.53046 3.32724 0
M  V30 20694 H 2033.54 2.10249 0.301547 0
M  V30 20695 H 2035.8 0.927478 0.196185 0
M  V30 20696 H 2035.51 3.26943 1.2962 0
M  V30 20697 H 2035.38 2.46827 2.8523 0
M  V30 20698 H 2037.77 1.53324 2.52142 0
M  V30 20699 H 2037.85 2.36935 0.964123 0
M  V30 20700 H 2037.49 4.59425 2.16543 0
M  V30 20701 H 2037.42 3.72714 3.7201 0
M  V30 20702 H 2039.92 2.94449 2.36872 0
M  V30 20703 H 2040.23 6.39363 4.3409 0
M  V30 20704 H 2038.57 5.74606 3.90964 0
M  V30 20705 H 2041.76 3.69952 2.86798 0
M  V30 20706 H 2041.94 5.27223 3.76749 0
M  V30 20707 N 2035.34 -1.08505 1.143 0
M  V30 20708 C 2036.76 -1.32937 0.883172 0
M  V30 20709 C 2036.96 -1.95791 -0.47623 0
M  V30 20710 O 2036.02 -2.2103 -1.22073 0
M  V30 20711 C 2037.33 -2.23189 2.01512 0
M  V30 20712 C 2038.88 -2.36672 2.0483 0
M  V30 20713 C 2039.35 -3.30266 3.17314 0
M  V30 20714 N 2040.84 -3.37843 3.16886 0
M  V30 20715 C 2041.58 -4.1029 4.00561 0
M  V30 20716 N 2041.07 -4.85454 4.94274 0
M  V30 20717 N 2042.87 -4.06111 3.88626 0
M  V30 20718 H 2035.02 -0.660869 2.01857 0
M  V30 20719 H 2037.28 -0.353741 0.879529 0
M  V30 20720 H 2036.99 -1.84248 2.99576 0
M  V30 20721 H 2036.86 -3.23644 1.93738 0
M  V30 20722 H 2039.25 -2.74873 1.07373 0
M  V30 20723 H 2039.33 -1.35963 2.16674 0
M  V30 20724 H 2038.97 -2.92787 4.15016 0
M  V30 20725 H 2038.9 -4.30901 3.02707 0
M  V30 20726 H 2041.39 -2.84257 2.49011 0
M  V30 20727 H 2041.71 -5.38193 5.54588 0
M  V30 20728 H 2040.05 -4.8451 4.98272 0
M  V30 20729 H 2043.24 -3.46497 3.14734 0
M  V30 20730 H 2043.42 -4.6231 4.54064 0
M  V30 20731 N 2036.82 -0.937962 -1.26649 0
M  V30 20732 C 2037.73 -0.451023 -2.30224 0
M  V30 20733 C 2038.75 0.473402 -1.67436 0
M  V30 20734 O 2039.92 0.353715 -1.9827 0
M  V30 20735 C 2036.99 0.278943 -3.45576 0
M  V30 20736 C 2036.05 -0.681649 -4.23854 0
M  V30 20737 C 2035.28 0.0135756 -5.33698 0
M  V30 20738 O 2035.51 1.2311 -5.56956 0
M  V30 20739 O 2034.44 -0.663486 -5.98232 0
M  V30 20740 H 2038.27 -1.31129 -2.73932 0
M  V30 20741 H 2035.85 -0.703717 -1.31788 0
M  V30 20742 H 2037.73 0.690262 -4.15708 0
M  V30 20743 H 2036.41 1.11465 -3.03903 0
M  V30 20744 H 2035.31 -1.14285 -3.56216 0
M  V30 20745 H 2036.65 -1.48488 -4.69268 0
M  V30 20746 N 2038.3 1.40971 -0.704618 0
M  V30 20747 C 2039.25 2.30756 -0.0450323 0
M  V30 20748 C 2040.22 1.47598 0.761835 0
M  V30 20749 O 2041.4 1.76365 0.728023 0
M  V30 20750 C 2038.54 3.33723 0.878802 0
M  V30 20751 C 2037.65 4.31955 0.0625832 0
M  V30 20752 C 2036.79 5.2199 0.984889 0
M  V30 20753 C 2035.83 6.11885 0.16211 0
M  V30 20754 N 2034.97 6.94374 1.0387 0
M  V30 20755 H 2039.81 2.86598 -0.816414 0
M  V30 20756 H 2037.34 1.41145 -0.414306 0
M  V30 20757 H 2039.3 3.9198 1.42856 0
M  V30 20758 H 2037.93 2.79409 1.61648 0
M  V30 20759 H 2036.98 3.75571 -0.604216 0
M  V30 20760 H 2038.29 4.95476 -0.574897 0
M  V30 20761 H 2037.45 5.85125 1.60356 0
M  V30 20762 H 2036.19 4.58717 1.65621 0
M  V30 20763 H 2035.19 5.47791 -0.469576 0
M  V30 20764 H 2036.42 6.77216 -0.505547 0
M  V30 20765 H 2034.36 6.337 1.69588 0
M  V30 20766 H 2034.28 7.54617 0.457006 0
M  V30 20767 H 2035.55 7.61969 1.6439 0
M  V30 20768 N 2039.78 0.45001 1.51039 0
M  V30 20769 C 2041.03 -0.111969 2.0179 0
M  V30 20770 C 2041.35 -1.42098 1.33541 0
M  V30 20771 O 2040.62 -1.9008 0.473962 0
M  V30 20772 H 2039.2 -0.0443688 0.745681 0
M  V30 20773 H 2041.86 0.595615 1.85576 0
M  V30 20774 H 2040.96 -0.278742 3.10853 0
M  V30 20775 N 2041.26 -1.56548 0.18182 0
M  V30 20776 C 2042.5 -1.97196 -0.460422 0
M  V30 20777 C 2042.83 -1.06822 -1.6254 0
M  V30 20778 O 2042.09 -0.104496 -1.95421 0
M  V30 20779 C 2042.39 -3.43837 -0.975236 0
M  V30 20780 C 2042.05 -4.50838 0.07496 0
M  V30 20781 C 2040.71 -4.79825 0.363562 0
M  V30 20782 C 2043.07 -5.1522 0.787246 0
M  V30 20783 C 2040.39 -5.70489 1.36966 0
M  V30 20784 C 2042.75 -6.06971 1.7824 0
M  V30 20785 C 2041.41 -6.3432 2.07834 0
M  V30 20786 H 2040.68 -0.721592 -0.16848 0
M  V30 20787 H 2043.33 -1.89501 0.275993 0
M  V30 20788 H 2041.63 -3.48537 -1.78967 0
M  V30 20789 H 2043.33 -3.72636 -1.48134 0
M  V30 20790 H 2039.92 -4.28301 -0.160151 0
M  V30 20791 H 2044.1 -4.92929 0.5775 0
M  V30 20792 H 2039.36 -5.89957 1.605 0
M  V30 20793 H 2043.53 -6.55922 2.33963 0
M  V30 20794 H 2041.16 -7.04374 2.85941 0
M  V30 20795 N 2042.73 0.0918577 -1.57332 0
M  V30 20796 C 2043.67 1.13749 -1.98982 0
M  V30 20797 C 2044.68 1.36133 -0.892834 0
M  V30 20798 O 2045.87 1.34728 -1.17092 0
M  V30 20799 C 2042.97 2.49241 -2.29635 0
M  V30 20800 C 2042.14 2.4709 -3.60923 0
M  V30 20801 C 2041.2 3.64534 -3.79475 0
M  V30 20802 O 2040.23 3.46877 -4.51292 0
M  V30 20803 N 2041.43 4.84137 -3.20299 0
M  V30 20804 H 2044.19 0.78297 -2.89292 0
M  V30 20805 H 2041.75 0.280794 -1.59446 0
M  V30 20806 H 2043.75 3.26417 -2.39236 0
M  V30 20807 H 2042.32 2.76771 -1.45316 0
M  V30 20808 H 2041.54 1.55438 -3.62261 0
M  V30 20809 H 2042.82 2.42733 -4.47167 0
M  V30 20810 H 2042.22 5.01386 -2.6197 0
M  V30 20811 H 2040.78 5.58894 -3.35381 0
M  V30 20812 N 2044.21 1.53368 0.362763 0
M  V30 20813 C 2045.15 1.74792 1.46707 0
M  V30 20814 C 2046.12 0.596367 1.51269 0
M  V30 20815 O 2047.31 0.829291 1.69278 0
M  V30 20816 C 2044.43 1.82926 2.85054 0
M  V30 20817 C 2043.48 3.04921 2.98204 0
M  V30 20818 S 2044.31 4.64381 2.66666 0
M  V30 20819 C 2045.47 4.75367 4.07157 0
M  V30 20820 H 2045.7 2.68184 1.28314 0
M  V30 20821 H 2043.24 1.43993 0.557272 0
M  V30 20822 H 2045.19 1.88297 3.64766 0
M  V30 20823 H 2043.85 0.905801 3.00756 0
M  V30 20824 H 2043.05 3.0723 3.99532 0
M  V30 20825 H 2042.65 2.97676 2.26418 0
M  V30 20826 H 2044.94 4.55595 5.01437 0
M  V30 20827 H 2045.88 5.77432 4.09852 0
M  V30 20828 H 2046.29 4.03977 3.94288 0
M  V30 20829 N 2045.69 -0.62272 1.44776 0
M  V30 20830 C 2046.62 -1.74771 1.48283 0
M  V30 20831 C 2047.64 -1.58416 0.375253 0
M  V30 20832 O 2048.82 -1.66575 0.641472 0
M  V30 20833 C 2045.92 -3.12596 1.30909 0
M  V30 20834 C 2045.1 -3.55331 2.55066 0
M  V30 20835 C 2044.16 -4.72064 2.32469 0
M  V30 20836 O 2043.18 -4.79949 3.06003 0
M  V30 20837 N 2044.38 -5.64329 1.36063 0
M  V30 20838 H 2047.15 -1.7223 2.45269 0
M  V30 20839 H 2044.71 -0.807546 1.40322 0
M  V30 20840 H 2046.7 -3.88422 1.13625 0
M  V30 20841 H 2045.27 -3.09731 0.422559 0
M  V30 20842 H 2044.49 -2.69625 2.87569 0
M  V30 20843 H 2045.78 -3.80637 3.37628 0
M  V30 20844 H 2045.18 -5.6066 0.753476 0
M  V30 20845 H 2043.74 -6.39749 1.24756 0
M  V30 20846 N 2047.17 -1.31814 -0.863883 0
M  V30 20847 C 2048.41 -1.23038 -1.61967 0
M  V30 20848 C 2048.77 0.208064 -1.91272 0
M  V30 20849 O 2048.06 1.14323 -1.53756 0
M  V30 20850 C 2048.26 -2.01404 -2.95248 0
M  V30 20851 C 2048.09 -3.52722 -2.78957 0
M  V30 20852 C 2046.86 -4.22068 -2.77824 0
M  V30 20853 C 2049.05 -4.47554 -2.53378 0
M  V30 20854 N 2047.04 -5.59502 -2.52648 0
M  V30 20855 C 2048.41 -5.72698 -2.37522 0
M  V30 20856 C 2050.46 -4.36913 -2.38771 0
M  V30 20857 C 2049.16 -6.88405 -2.08544 0
M  V30 20858 C 2051.19 -5.52409 -2.11182 0
M  V30 20859 C 2050.55 -6.76547 -1.9612 0
M  V30 20860 H 2046.65 -0.50536 -0.596771 0
M  V30 20861 H 2049.24 -1.66073 -1.01626 0
M  V30 20862 H 2047.41 -1.60728 -3.53583 0
M  V30 20863 H 2049.14 -1.84598 -3.60147 0
M  V30 20864 H 2045.89 -3.74097 -2.90428 0
M  V30 20865 H 2046.32 -6.31881 -2.43013 0
M  V30 20866 H 2050.96 -3.41597 -2.49141 0
M  V30 20867 H 2048.68 -7.83742 -1.96911 0
M  V30 20868 H 2052.26 -5.46097 -2.00672 0
M  V30 20869 H 2051.14 -7.64407 -1.75074 0
M  V30 20870 N 2048.65 1.07897 -1.14873 0
M  V30 20871 C 2049.89 1.80386 -0.920169 0
M  V30 20872 C 2050.22 1.86473 0.553002 0
M  V30 20873 O 2049.48 1.3404 1.4259 0
M  V30 20874 C 2049.78 3.25649 -1.47267 0
M  V30 20875 C 2049.44 3.39671 -2.96537 0
M  V30 20876 C 2048.1 3.43205 -3.37288 0
M  V30 20877 C 2050.46 3.42923 -3.92496 0
M  V30 20878 C 2047.78 3.47589 -4.72651 0
M  V30 20879 C 2050.14 3.48843 -5.27723 0
M  V30 20880 C 2048.8 3.50652 -5.67978 0
M  V30 20881 H 2048.07 0.66008 -0.336714 0
M  V30 20882 H 2050.72 1.27004 -1.43326 0
M  V30 20883 H 2049.02 3.81775 -0.880635 0
M  V30 20884 H 2050.72 3.80301 -1.2717 0
M  V30 20885 H 2047.31 3.37615 -2.64034 0
M  V30 20886 H 2051.49 3.39419 -3.62089 0
M  V30 20887 H 2046.75 3.47285 -5.03193 0
M  V30 20888 H 2050.92 3.50305 -6.0188 0
M  V30 20889 H 2048.55 3.53802 -6.72851 0
M  V30 20890 N 2050.12 0.944665 1.2615 0
M  V30 20891 C 2051.37 0.594973 1.93876 0
M  V30 20892 C 2051.7 -0.864305 1.73906 0
M  V30 20893 O 2050.98 -1.61882 1.07817 0
M  V30 20894 C 2051.26 0.9423 3.47552 0
M  V30 20895 C 2051.11 2.45658 3.76792 0
M  V30 20896 C 2052.43 0.460204 4.37687 0
M  V30 20897 H 2049.55 0.217629 0.704135 0
M  V30 20898 H 2052.19 1.17952 1.48954 0
M  V30 20899 H 2050.34 0.444863 3.85945 0
M  V30 20900 H 2052.02 3.02701 3.48095 0
M  V30 20901 H 2050.26 2.89856 3.22747 0
M  V30 20902 H 2050.93 2.65011 4.84224 0
M  V30 20903 H 2053.41 0.886761 4.06541 0
M  V30 20904 H 2052.28 0.732019 5.43997 0
M  V30 20905 H 2052.54 -0.639853 4.37445 0
M  V30 20906 N 2051.6 -1.40596 0.712085 0
M  V30 20907 C 2052.83 -2.04967 0.25925 0
M  V30 20908 C 2053.24 -1.53745 -1.10268 0
M  V30 20909 O 2052.58 -0.687539 -1.70348 0
M  V30 20910 C 2052.65 -3.59155 0.157468 0
M  V30 20911 C 2052.31 -4.33249 1.45411 0
M  V30 20912 C 2053.31 -4.61433 2.39533 0
M  V30 20913 C 2050.99 -4.72222 1.71207 0
M  V30 20914 C 2052.99 -5.2757 3.57699 0
M  V30 20915 C 2050.67 -5.38092 2.89655 0
M  V30 20916 C 2051.67 -5.65696 3.82723 0
M  V30 20917 O 2051.36 -6.30206 4.99095 0
M  V30 20918 H 2051.09 -0.666162 0.114911 0
M  V30 20919 H 2053.64 -1.81055 0.969955 0
M  V30 20920 H 2051.87 -3.81872 -0.60915 0
M  V30 20921 H 2053.56 -4.05064 -0.260344 0
M  V30 20922 H 2054.33 -4.3179 2.20867 0
M  V30 20923 H 2050.21 -4.50107 0.99621 0
M  V30 20924 H 2053.75 -5.49032 4.30359 0
M  V30 20925 H 2049.65 -5.67154 3.08231 0
M  V30 20926 H 2050.42 -6.48703 4.99126 0
M  V30 20927 N 2053.08 -0.458013 -1.50798 0
M  V30 20928 C 2054.33 0.101266 -2.01846 0
M  V30 20929 C 2054.65 1.41388 -1.34293 0
M  V30 20930 O 2053.92 1.89826 -0.484035 0
M  V30 20931 H 2052.5 0.0404137 -0.745906 0
M  V30 20932 H 2055.16 -0.605448 -1.85257 0
M  V30 20933 H 2054.26 0.262253 -3.10996 0
M  V30 20934 N 2054.56 1.56449 -0.190119 0
M  V30 20935 C 2055.8 1.99335 0.452186 0
M  V30 20936 C 2056.16 1.07415 1.59142 0
M  V30 20937 O 2057.36 1.39517 2.29757 0
M  V30 20938 C 2055.64 3.45746 0.90523 0
M  V30 20939 S 2057.19 4.1066 1.54607 0
M  V30 20940 H 2054.01 0.696102 0.144786 0
M  V30 20941 H 2056.61 1.93307 -0.292013 0
M  V30 20942 H 2055.32 4.10347 0.0659543 0
M  V30 20943 H 2054.85 3.55581 1.68302 0
M  V30 20944 H 2056.86 4.07257 2.83472 0
M  V30 20945 N 2056.04 -0.0835127 1.57379 0
M  V30 20946 C 2057.29 -0.783318 1.86302 0
M  V30 20947 C 2057.61 -1.787 0.780472 0
M  V30 20948 O 2056.88 -1.94956 -0.192101 0
M  V30 20949 H 2055.46 -0.292281 0.687445 0
M  V30 20950 H 2058.12 -0.0623868 1.948 0
M  V30 20951 H 2057.21 -1.30677 2.83425 0
M  V30 20952 N 2057.52 -1.53558 -0.354624 0
M  V30 20953 C 2058.76 -1.69934 -1.09393 0
M  V30 20954 C 2059.08 -0.459423 -1.89511 0
M  V30 20955 O 2058.35 0.526608 -1.88689 0
M  V30 20956 H 2056.93 -0.626487 -0.406845 0
M  V30 20957 H 2059.6 -1.90781 -0.398582 0
M  V30 20958 H 2058.69 -2.56533 -1.77757 0
M  V30 20959 N 2058.99 0.615033 -1.45104 0
M  V30 20960 C 2059.9 1.75459 -1.55728 0
M  V30 20961 C 2060.92 1.6829 -0.442095 0
M  V30 20962 O 2062.1 1.88779 -0.701735 0
M  V30 20963 C 2059.16 3.11899 -1.51394 0
M  V30 20964 C 2058.22 3.30578 -2.73892 0
M  V30 20965 C 2057.45 4.60509 -2.69754 0
M  V30 20966 O 2057.68 5.42353 -1.76662 0
M  V30 20967 O 2056.61 4.81739 -3.60848 0
M  V30 20968 H 2060.44 1.69447 -2.52035 0
M  V30 20969 H 2058.02 0.778221 -1.27531 0
M  V30 20970 H 2059.9 3.93203 -1.51557 0
M  V30 20971 H 2058.58 3.18418 -0.582365 0
M  V30 20972 H 2057.49 2.48891 -2.79292 0
M  V30 20973 H 2058.82 3.2893 -3.6615 0
M  V30 20974 N 2060.47 1.3227 0.85688 0
M  V30 20975 C 2061.4 1.23626 1.98088 0
M  V30 20976 C 2062.38 0.120585 1.69672 0
M  V30 20977 O 2063.57 0.307383 1.91752 0
M  V30 20978 C 2060.7 0.956279 3.33875 0
M  V30 20979 C 2059.65 2.03295 3.76637 0
M  V30 20980 C 2058.98 1.60541 5.1003 0
M  V30 20981 C 2060.28 3.4477 3.92341 0
M  V30 20982 H 2061.97 2.17665 2.05578 0
M  V30 20983 H 2059.52 1.04788 0.987703 0
M  V30 20984 H 2061.47 0.882366 4.12059 0
M  V30 20985 H 2060.19 -0.0197585 3.26594 0
M  V30 20986 H 2058.85 2.09698 3.00703 0
M  V30 20987 H 2058.5 0.616883 4.99203 0
M  V30 20988 H 2058.2 2.32578 5.39612 0
M  V30 20989 H 2059.73 1.54582 5.90709 0
M  V30 20990 H 2061.14 3.40968 4.60884 0
M  V30 20991 H 2059.54 4.15137 4.33338 0
M  V30 20992 H 2060.61 3.84594 2.95322 0
M  V30 20993 N 2061.95 -1.07287 1.15444 0
M  V30 20994 C 2063.17 -1.84153 0.954061 0
M  V30 20995 C 2063.6 -1.81534 -0.492639 0
M  V30 20996 O 2062.96 -1.20877 -1.35124 0
M  V30 20997 C 2063.01 -3.29112 1.4737 0
M  V30 20998 O 2062.11 -4.06866 0.673335 0
M  V30 20999 H 2061.45 -0.570198 0.34025 0
M  V30 21000 H 2063.98 -1.35339 1.53442 0
M  V30 21001 H 2063.99 -3.79944 1.48682 0
M  V30 21002 H 2062.67 -3.30333 2.52691 0
M  V30 21003 H 2061.24 -3.65687 0.729894 0
M  V30 21004 N 2063.43 -0.951342 -1.25647 0
M  V30 21005 C 2064.68 -0.603157 -1.9289 0
M  V30 21006 C 2065 0.862093 -1.74908 0
M  V30 21007 O 2064.27 1.61366 -1.11075 0
M  V30 21008 H 2062.85 -0.220085 -0.713843 0
M  V30 21009 H 2065.51 -1.20887 -1.5288 0
M  V30 21010 H 2064.6 -0.82965 -3.00871 0
M  V30 21011 N 2064.91 1.40216 -0.719531 0
M  V30 21012 C 2065.87 2.29067 -0.078186 0
M  V30 21013 C 2066.87 1.45561 0.683282 0
M  V30 21014 O 2068.06 1.66426 0.514598 0
M  V30 21015 C 2065.19 3.28832 0.899035 0
M  V30 21016 H 2066.38 2.87281 -0.860786 0
M  V30 21017 H 2063.94 1.48604 -0.48442 0
M  V30 21018 H 2064.67 2.75643 1.70855 0
M  V30 21019 H 2064.46 3.90482 0.355853 0
M  V30 21020 H 2065.95 3.95353 1.34483 0
M  V30 21021 N 2066.38 0.466004 1.50553 0
M  V30 21022 C 2067.61 -0.0885768 2.0671 0
M  V30 21023 C 2068.03 -1.33958 1.33044 0
M  V30 21024 O 2067.38 -1.78102 0.398219 0
M  V30 21025 C 2067.43 -0.381842 3.59478 0
M  V30 21026 O 2067.16 0.81954 4.30366 0
M  V30 21027 C 2068.66 -0.98395 4.32242 0
M  V30 21028 H 2065.88 0.00481473 0.670983 0
M  V30 21029 H 2068.42 0.653327 1.93783 0
M  V30 21030 H 2066.58 -1.07367 3.72224 0
M  V30 21031 H 2066.99 0.56106 5.21491 0
M  V30 21032 H 2068.46 -1.13895 5.40122 0
M  V30 21033 H 2068.94 -1.97271 3.92404 0
M  V30 21034 H 2069.55 -0.330654 4.24013 0
M  V30 21035 N 2067.86 -1.56346 0.198413 0
M  V30 21036 C 2069.11 -1.97283 -0.438612 0
M  V30 21037 C 2069.43 -1.08657 -1.61922 0
M  V30 21038 O 2068.7 -0.158561 -1.95257 0
M  V30 21039 H 2067.28 -0.728541 -0.165035 0
M  V30 21040 H 2069.94 -1.92791 0.285919 0
M  V30 21041 H 2069.04 -3.02183 -0.780516 0
M  V30 21042 N 2069.34 0.0751653 -1.57421 0
M  V30 21043 C 2070.57 0.791793 -1.91691 0
M  V30 21044 C 2070.99 1.70496 -0.794522 0
M  V30 21045 O 2070.35 1.79528 0.25284 0
M  V30 21046 C 2070.4 1.5643 -3.24903 0
M  V30 21047 O 2069.5 2.67473 -3.13898 0
M  V30 21048 H 2068.84 0.21624 -0.627803 0
M  V30 21049 H 2071.37 0.0444189 -2.04552 0
M  V30 21050 H 2071.38 1.94427 -3.58695 0
M  V30 21051 H 2070.06 0.894266 -4.06172 0
M  V30 21052 H 2068.63 2.32357 -2.91658 0
M  V30 21053 N 2070.82 1.53744 0.346476 0
M  V30 21054 C 2072.07 1.70849 1.08705 0
M  V30 21055 C 2072.39 0.470151 1.88732 0
M  V30 21056 O 2071.65 -0.548082 1.87868 0
M  V30 21057 C 2071.95 2.92192 2.05812 0
M  V30 21058 C 2071.61 4.27917 1.42119 0
M  V30 21059 C 2070.28 4.64821 1.24477 0
M  V30 21060 C 2072.63 5.12243 0.962087 0
M  V30 21061 C 2069.96 5.83671 0.595386 0
M  V30 21062 C 2072.31 6.31756 0.326627 0
M  V30 21063 C 2070.97 6.67358 0.137866 0
M  V30 21064 H 2070.24 0.625182 0.397779 0
M  V30 21065 H 2072.89 1.87957 0.366657 0
M  V30 21066 H 2071.19 2.69675 2.84223 0
M  V30 21067 H 2072.89 3.0262 2.63101 0
M  V30 21068 H 2069.48 3.9887 1.56847 0
M  V30 21069 H 2073.66 4.84267 1.08625 0
M  V30 21070 H 2068.92 6.09831 0.437727 0
M  V30 21071 H 2073.09 6.9639 -0.0372189 0
M  V30 21072 H 2070.72 7.59312 -0.367372 0
M  V30 21073 N 2072.3 -0.607329 1.45428 0
M  V30 21074 C 2073.52 -1.39786 1.53214 0
M  V30 21075 C 2073.95 -1.87369 0.165684 0
M  V30 21076 O 2073.3 -1.60154 -0.849728 0
M  V30 21077 C 2073.35 -2.57823 2.52111 0
M  V30 21078 O 2072.46 -3.58462 2.03909 0
M  V30 21079 H 2071.8 -0.417312 0.516476 0
M  V30 21080 H 2074.33 -0.739101 1.90784 0
M  V30 21081 H 2074.34 -3.05064 2.70925 0
M  V30 21082 H 2073.01 -2.22539 3.51354 0
M  V30 21083 H 2071.59 -3.17868 1.94973 0
M  V30 21084 N 2073.77 -1.32722 -0.849853 0
M  V30 21085 C 2075 -1.2671 -1.64193 0
M  V30 21086 C 2075.42 0.161092 -1.87409 0
M  V30 21087 O 2074.78 1.11408 -1.43031 0
M  V30 21088 C 2074.83 -2.03686 -2.97564 0
M  V30 21089 O 2073.93 -1.38794 -3.88343 0
M  V30 21090 H 2073.28 -0.436459 -0.5004 0
M  V30 21091 H 2075.81 -1.75113 -1.05813 0
M  V30 21092 H 2075.82 -2.1404 -3.47349 0
M  V30 21093 H 2074.49 -3.07537 -2.79989 0
M  V30 21094 H 2073.07 -1.37018 -3.46815 0
M  V30 21095 N 2075.25 1.06673 -1.16011 0
M  V30 21096 C 2076.66 1.60868 -0.947549 0
M  V30 21097 C 2077.01 1.89469 0.509491 0
M  V30 21098 O 2076.14 1.66526 1.38195 0
M  V30 21099 C 2076.73 2.92266 -1.71365 0
M  V30 21100 C 2075.29 3.43177 -1.54618 0
M  V30 21101 C 2074.44 2.17128 -1.72484 0
M  V30 21102 H 2077.39 0.896725 -1.30937 0
M  V30 21103 H 2077.41 3.61505 -1.1872 0
M  V30 21104 H 2076.92 2.71417 -2.77406 0
M  V30 21105 H 2075.03 3.69093 -0.51001 0
M  V30 21106 H 2075.14 4.1876 -2.3276 0
M  V30 21107 H 2073.5 2.27162 -1.15193 0
M  V30 21108 H 2074.29 1.98766 -2.79905 0
M  V30 21109 N 2076.73 0.957992 1.25141 0
M  V30 21110 C 2077.98 0.613378 1.92567 0
M  V30 21111 C 2078.3 -0.852805 1.75363 0
M  V30 21112 O 2077.57 -1.60775 1.11929 0
M  V30 21113 H 2076.15 0.223867 0.712666 0
M  V30 21114 H 2078.81 1.21696 1.52237 0
M  V30 21115 H 2077.91 0.845594 3.00427 0
M  V30 21116 N 2078.21 -1.39832 0.726957 0
M  V30 21117 C 2079.46 -2.00673 0.271386 0
M  V30 21118 C 2079.78 -1.57667 -1.13892 0
M  V30 21119 O 2079.04 -0.793014 -1.78913 0
M  V30 21120 C 2079.34 -3.56035 0.31205 0
M  V30 21121 C 2079 -4.18664 1.67425 0
M  V30 21122 C 2077.67 -4.35485 2.04711 0
M  V30 21123 C 2080.02 -4.53488 2.56901 0
M  V30 21124 C 2077.35 -4.84416 3.30996 0
M  V30 21125 C 2079.7 -5.03824 3.8255 0
M  V30 21126 C 2078.36 -5.18852 4.19939 0
M  V30 21127 H 2077.63 -0.734315 0.0993073 0
M  V30 21128 H 2080.28 -1.67278 0.932222 0
M  V30 21129 H 2078.58 -3.89407 -0.43236 0
M  V30 21130 H 2080.28 -4.00957 -0.0584539 0
M  V30 21131 H 2076.87 -4.05968 1.37433 0
M  V30 21132 H 2081.05 -4.40119 2.29367 0
M  V30 21133 H 2076.31 -4.94236 3.59918 0
M  V30 21134 H 2080.48 -5.29744 4.52045 0
M  V30 21135 H 2078.11 -5.56529 5.1786 0
M  V30 21136 N 2079.69 -0.473982 -1.50304 0
M  V30 21137 C 2081.1 -0.0195635 -1.8669 0
M  V30 21138 C 2081.45 1.38613 -1.38856 0
M  V30 21139 O 2080.57 2.02811 -0.754772 0
M  V30 21140 C 2081.17 -0.0287258 -3.38788 0
M  V30 21141 C 2079.73 0.370234 -3.74575 0
M  V30 21142 C 2078.87 -0.412963 -2.74208 0
M  V30 21143 H 2081.83 -0.688116 -1.43006 0
M  V30 21144 H 2081.85 0.772789 -3.7257 0
M  V30 21145 H 2081.36 -1.05193 -3.73572 0
M  V30 21146 H 2079.46 1.39768 -3.45392 0
M  V30 21147 H 2079.57 0.0695687 -4.79049 0
M  V30 21148 H 2077.94 0.13371 -2.54349 0
M  V30 21149 H 2078.72 -1.43573 -3.11836 0
M  V30 21150 N 2081.16 1.56239 -0.206702 0
M  V30 21151 C 2082.11 2.20977 0.726082 0
M  V30 21152 C 2083.11 1.18451 1.21102 0
M  V30 21153 O 2084.31 1.36568 1.17257 0
M  V30 21154 H 2080.69 0.708331 0.252529 0
M  V30 21155 H 2082.66 2.97989 0.156483 0
M  V30 21156 C 2081.41 2.89215 1.93003 0
M  V30 21157 H 2080.73 3.67855 1.56597 0
M  V30 21158 H 2082.17 3.37933 2.56081 0
M  V30 21159 C 2080.63 1.90876 2.77611 0
M  V30 21160 O 2081.16 1.41633 3.75903 0
M  V30 21161 N 2079.37 1.5885 2.43341 0
M  V30 21162 H 2078.91 1.99088 1.63468 0
M  V30 21163 H 2078.87 0.933114 3.00234 0
M  V30 21164 N 2082.64 -0.0668159 1.57458 0
M  V30 21165 C 2084.06 -0.421716 1.53928 0
M  V30 21166 C 2084.26 -1.78879 0.927602 0
M  V30 21167 O 2083.31 -2.46826 0.532256 0
M  V30 21168 C 2084.63 -0.358209 2.98559 0
M  V30 21169 C 2086.18 -0.438036 3.0992 0
M  V30 21170 C 2086.65 -0.404384 4.56211 0
M  V30 21171 N 2088.14 -0.464311 4.60867 0
M  V30 21172 C 2088.88 -0.460566 5.71547 0
M  V30 21173 N 2088.37 -0.41134 6.91578 0
M  V30 21174 N 2090.17 -0.507495 5.59804 0
M  V30 21175 H 2082.32 0.828281 1.95584 0
M  V30 21176 H 2084.58 0.311307 0.895428 0
M  V30 21177 H 2084.29 0.579727 3.46889 0
M  V30 21178 H 2084.16 -1.16651 3.58709 0
M  V30 21179 H 2086.55 -1.3664 2.6156 0
M  V30 21180 H 2086.63 0.398926 2.5267 0
M  V30 21181 H 2086.27 0.520148 5.0523 0
M  V30 21182 H 2086.2 -1.25895 5.1133 0
M  V30 21183 H 2088.69 -0.506402 3.74492 0
M  V30 21184 H 2089.01 -0.412545 7.71698 0
M  V30 21185 H 2087.35 -0.377953 6.93972 0
M  V30 21186 H 2090.54 -0.543679 4.64932 0
M  V30 21187 H 2090.71 -0.501107 6.4606 0
M  V30 21188 N 2084.12 -1.53926 -0.338317 0
M  V30 21189 C 2085.35 -1.75114 -1.0963 0
M  V30 21190 C 2085.76 -0.492691 -1.82672 0
M  V30 21191 O 2085.1 0.545601 -1.75411 0
M  V30 21192 C 2085.16 -2.88063 -2.15081 0
M  V30 21193 C 2084.83 -4.27487 -1.61568 0
M  V30 21194 C 2085.83 -5.0887 -1.06523 0
M  V30 21195 C 2083.51 -4.73988 -1.66256 0
M  V30 21196 C 2085.5 -6.34857 -0.568774 0
M  V30 21197 C 2083.19 -5.99946 -1.16223 0
M  V30 21198 C 2084.19 -6.80214 -0.616267 0
M  V30 21199 O 2083.88 -8.03805 -0.123412 0
M  V30 21200 H 2083.61 -0.588533 -0.332572 0
M  V30 21201 H 2086.16 -2.01572 -0.394676 0
M  V30 21202 H 2084.39 -2.57141 -2.88817 0
M  V30 21203 H 2086.08 -2.97172 -2.76485 0
M  V30 21204 H 2086.85 -4.74106 -1.02219 0
M  V30 21205 H 2082.73 -4.11564 -2.07692 0
M  V30 21206 H 2086.27 -6.97456 -0.141967 0
M  V30 21207 H 2082.17 -6.34204 -1.2023 0
M  V30 21208 H 2082.94 -8.18147 -0.240214 0
M  V30 21209 N 2085.6 0.599608 -1.45748 0
M  V30 21210 C 2087.01 1.18163 -1.44549 0
M  V30 21211 C 2087.36 1.95397 -0.17732 0
M  V30 21212 O 2086.49 2.04048 0.720645 0
M  V30 21213 C 2087.08 2.14951 -2.6188 0
M  V30 21214 C 2085.64 2.68513 -2.63776 0
M  V30 21215 C 2084.79 1.44065 -2.3694 0
M  V30 21216 H 2087.74 0.388471 -1.53872 0
M  V30 21217 H 2087.76 2.98126 -2.36434 0
M  V30 21218 H 2087.27 1.58711 -3.54164 0
M  V30 21219 H 2085.37 3.28669 -1.7552 0
M  V30 21220 H 2085.49 3.12401 -3.63239 0
M  V30 21221 H 2083.85 1.73296 -1.86657 0
M  V30 21222 H 2084.63 0.896802 -3.31379 0
M  V30 21223 N 2087.08 1.33171 0.842803 0
M  V30 21224 C 2088.49 1.21918 1.41397 0
M  V30 21225 C 2088.84 -0.163526 1.95517 0
M  V30 21226 O 2087.96 -1.06291 1.88497 0
M  V30 21227 C 2088.56 2.20727 2.57031 0
M  V30 21228 C 2087.12 2.13325 3.10112 0
M  V30 21229 C 2086.27 2.08432 1.82897 0
M  V30 21230 H 2089.22 1.44827 0.648912 0
M  V30 21231 H 2089.24 1.81271 3.34546 0
M  V30 21232 H 2088.75 3.21352 2.1761 0
M  V30 21233 H 2086.85 1.15989 3.54087 0
M  V30 21234 H 2086.96 3.03691 3.70552 0
M  V30 21235 H 2085.33 1.53848 2.02985 0
M  V30 21236 H 2086.11 3.10858 1.45678 0
M  V30 21237 N 2088.56 -1.06056 1.16576 0
M  V30 21238 C 2089.5 -2.15694 0.87056 0
M  V30 21239 C 2090.5 -1.6863 -0.161341 0
M  V30 21240 O 2091.7 -1.79994 -0.0150963 0
M  V30 21241 H 2088.08 -0.704161 0.263934 0
M  V30 21242 H 2090.05 -2.37802 1.80258 0
M  V30 21243 C 2088.8 -3.45498 0.390729 0
M  V30 21244 H 2088.12 -3.82107 1.17619 0
M  V30 21245 H 2089.56 -4.23413 0.222977 0
M  V30 21246 C 2088.02 -3.24928 -0.890131 0
M  V30 21247 O 2088.55 -3.50702 -1.95886 0
M  V30 21248 N 2086.76 -2.7835 -0.834838 0
M  V30 21249 H 2086.3 -2.57576 0.0350662 0
M  V30 21250 H 2086.26 -2.64967 -1.69233 0
M  V30 21251 N 2090.03 -0.964615 -1.24631 0
M  V30 21252 C 2090.98 -0.49166 -2.25502 0
M  V30 21253 C 2091.95 0.46115 -1.5957 0
M  V30 21254 O 2093.14 0.372197 -1.87135 0
M  V30 21255 C 2090.28 0.214964 -3.4443 0
M  V30 21256 C 2089.39 -0.776253 -4.24969 0
M  V30 21257 C 2088.52 -0.0460512 -5.3118 0
M  V30 21258 C 2087.56 -1.02754 -6.03414 0
M  V30 21259 N 2086.7 -0.327547 -7.01336 0
M  V30 21260 H 2091.54 -1.35669 -2.65326 0
M  V30 21261 H 2089.08 -0.68015 -1.30431 0
M  V30 21262 H 2091.03 0.641314 -4.12241 0
M  V30 21263 H 2089.66 1.04397 -3.05452 0
M  V30 21264 H 2088.72 -1.32105 -3.56724 0
M  V30 21265 H 2090.03 -1.52481 -4.74922 0
M  V30 21266 H 2089.18 0.438447 -6.05114 0
M  V30 21267 H 2087.92 0.735226 -4.82126 0
M  V30 21268 H 2086.93 -1.52294 -5.28286 0
M  V30 21269 H 2088.15 -1.80921 -6.54557 0
M  V30 21270 H 2086.1 0.43481 -6.54557 0
M  V30 21271 H 2086.01 -1.01503 -7.49155 0
M  V30 21272 H 2087.28 0.135085 -7.79383 0
M  V30 21273 N 2091.51 1.39445 -0.734362 0
M  V30 21274 C 2092.42 2.34405 -0.0955161 0
M  V30 21275 C 2093.44 1.58285 0.722625 0
M  V30 21276 O 2094.61 1.9058 0.65124 0
M  V30 21277 C 2091.68 3.3731 0.801447 0
M  V30 21278 C 2090.74 4.2929 -0.0288733 0
M  V30 21279 C 2089.97 5.27279 0.825373 0
M  V30 21280 O 2090.2 5.31743 2.06411 0
M  V30 21281 O 2089.13 6.01362 0.254373 0
M  V30 21282 H 2092.96 2.90693 -0.879273 0
M  V30 21283 H 2090.54 1.4096 -0.495025 0
M  V30 21284 H 2092.42 4.00368 1.31468 0
M  V30 21285 H 2091.1 2.83408 1.56403 0
M  V30 21286 H 2090 3.69456 -0.587608 0
M  V30 21287 H 2091.34 4.86396 -0.753661 0
M  V30 21288 N 2092.99 0.481946 1.5005 0
M  V30 21289 C 2094.23 -0.067885 2.04287 0
M  V30 21290 C 2094.59 -1.36011 1.35517 0
M  V30 21291 O 2095.79 -1.993 1.80369 0
M  V30 21292 C 2094.07 -0.23649 3.56617 0
M  V30 21293 S 2095.62 -0.743315 4.32458 0
M  V30 21294 H 2092.44 -0.0108195 0.710918 0
M  V30 21295 H 2095.04 0.651566 1.84323 0
M  V30 21296 H 2093.75 0.709617 4.04218 0
M  V30 21297 H 2093.28 -0.981739 3.80953 0
M  V30 21298 H 2095.29 -2.01523 4.53435 0
M  V30 21299 N 2094.47 -1.56127 0.214985 0
M  V30 21300 C 2095.72 -1.97304 -0.41881 0
M  V30 21301 C 2096.03 -1.10547 -1.61366 0
M  V30 21302 O 2097.24 -1.41593 -2.31654 0
M  V30 21303 C 2095.69 -3.50975 -0.796509 0
M  V30 21304 C 2095.3 -4.46426 0.375156 0
M  V30 21305 C 2097.04 -4.0088 -1.39627 0
M  V30 21306 C 2094.95 -5.91395 -0.0246118 0
M  V30 21307 H 2093.88 -0.736775 -0.160246 0
M  V30 21308 H 2096.53 -1.8086 0.310157 0
M  V30 21309 H 2094.91 -3.62996 -1.58271 0
M  V30 21310 H 2096.09 -4.46149 1.15271 0
M  V30 21311 H 2094.4 -4.06827 0.887721 0
M  V30 21312 H 2097 -5.06681 -1.70816 0
M  V30 21313 H 2097.34 -3.46346 -2.30977 0
M  V30 21314 H 2097.88 -3.92055 -0.673641 0
M  V30 21315 H 2094.61 -6.49897 0.855201 0
M  V30 21316 H 2094.13 -5.94881 -0.766611 0
M  V30 21317 H 2095.81 -6.45408 -0.453573 0
M  V30 21318 N 2095.95 0.0584645 -1.57492 0
M  V30 21319 C 2097.19 0.750872 -1.89033 0
M  V30 21320 C 2097.55 1.74507 -0.810254 0
M  V30 21321 O 2096.84 1.90712 0.184243 0
M  V30 21322 C 2097.03 1.48699 -3.24998 0
M  V30 21323 C 2096.86 0.565594 -4.46129 0
M  V30 21324 C 2095.63 0.197549 -5.04914 0
M  V30 21325 C 2097.83 -0.143444 -5.141 0
M  V30 21326 N 2095.81 -0.728176 -6.09566 0
M  V30 21327 C 2097.18 -0.925871 -6.13048 0
M  V30 21328 C 2099.24 -0.213507 -4.97442 0
M  V30 21329 C 2097.94 -1.77187 -6.97135 0
M  V30 21330 C 2099.97 -1.04653 -5.82067 0
M  V30 21331 C 2099.33 -1.81697 -6.80563 0
M  V30 21332 H 2095.43 0.249778 -0.741037 0
M  V30 21333 H 2098.01 0.0118869 -1.94696 0
M  V30 21334 H 2096.18 2.19661 -3.20318 0
M  V30 21335 H 2097.92 2.12946 -3.44145 0
M  V30 21336 H 2094.67 0.553344 -4.70356 0
M  V30 21337 H 2095.09 -1.18468 -6.66554 0
M  V30 21338 H 2099.74 0.367816 -4.21197 0
M  V30 21339 H 2097.45 -2.36411 -7.72745 0
M  V30 21340 H 2101.04 -1.10389 -5.71232 0
M  V30 21341 H 2099.92 -2.45115 -7.44908 0
M  V30 21342 N 2097.42 1.54103 0.330149 0
M  V30 21343 C 2098.65 1.75693 1.08699 0
M  V30 21344 C 2099.06 0.502371 1.82409 0
M  V30 21345 O 2098.4 -0.53629 1.75698 0
M  V30 21346 C 2098.47 2.89199 2.13551 0
M  V30 21347 C 2098.13 4.28338 1.59298 0
M  V30 21348 C 2099.13 5.09428 1.03823 0
M  V30 21349 C 2096.81 4.74863 1.6374 0
M  V30 21350 C 2098.81 6.3515 0.535098 0
M  V30 21351 C 2096.49 6.00554 1.1304 0
M  V30 21352 C 2097.49 6.80531 0.580184 0
M  V30 21353 O 2097.18 8.03859 0.0807823 0
M  V30 21354 H 2096.91 0.590289 0.329447 0
M  V30 21355 H 2099.47 2.01779 0.38398 0
M  V30 21356 H 2097.7 2.58669 2.87449 0
M  V30 21357 H 2099.38 2.98634 2.74905 0
M  V30 21358 H 2100.15 4.74641 0.997028 0
M  V30 21359 H 2096.03 4.1266 2.05506 0
M  V30 21360 H 2099.57 6.97521 0.104978 0
M  V30 21361 H 2095.47 6.34833 1.16865 0
M  V30 21362 H 2096.24 8.18263 0.196822 0
M  V30 21363 N 2098.9 -0.59187 1.46064 0
M  V30 21364 C 2100.15 -1.34657 1.50168 0
M  V30 21365 C 2100.46 -1.94993 0.153981 0
M  V30 21366 O 2101.67 -2.71402 0.0727633 0
M  V30 21367 C 2100.13 -2.44 2.6456 0
M  V30 21368 C 2099.73 -1.90007 4.05711 0
M  V30 21369 C 2101.48 -3.2087 2.77926 0
M  V30 21370 C 2099.39 -2.96925 5.11458 0
M  V30 21371 H 2098.32 -0.506178 0.558838 0
M  V30 21372 H 2100.97 -0.632651 1.72249 0
M  V30 21373 H 2099.35 -3.18149 2.35791 0
M  V30 21374 H 2100.52 -1.22462 4.44229 0
M  V30 21375 H 2098.84 -1.25833 3.96932 0
M  V30 21376 H 2101.43 -4.00647 3.54099 0
M  V30 21377 H 2101.78 -3.72878 1.85115 0
M  V30 21378 H 2102.31 -2.53825 3.06296 0
M  V30 21379 H 2099.05 -2.49815 6.0603 0
M  V30 21380 H 2098.57 -3.62987 4.77494 0
M  V30 21381 H 2100.25 -3.61036 5.369 0
M  V30 21382 N 2100.38 -1.33616 -0.835729 0
M  V30 21383 C 2101.8 -1.13019 -1.12689 0
M  V30 21384 C 2102 0.0768335 -2.01353 0
M  V30 21385 O 2101.05 0.756169 -2.40911 0
M  V30 21386 C 2102.37 -2.41918 -1.78595 0
M  V30 21387 C 2103.91 -2.47854 -1.91147 0
M  V30 21388 C 2104.39 -3.76723 -2.60469 0
M  V30 21389 N 2105.88 -3.77811 -2.67979 0
M  V30 21390 C 2106.61 -4.74237 -3.22315 0
M  V30 21391 N 2106.11 -5.81039 -3.77313 0
M  V30 21392 N 2107.9 -4.61709 -3.20596 0
M  V30 21393 H 2100.05 -2.10974 -0.245697 0
M  V30 21394 H 2102.32 -0.932353 -0.171526 0
M  V30 21395 H 2102.02 -3.30264 -1.20906 0
M  V30 21396 H 2101.9 -2.54302 -2.78586 0
M  V30 21397 H 2104.28 -1.59955 -2.47989 0
M  V30 21398 H 2104.37 -2.39408 -0.900965 0
M  V30 21399 H 2104.01 -4.65005 -2.04286 0
M  V30 21400 H 2103.94 -3.82447 -3.61998 0
M  V30 21401 H 2106.43 -3.00626 -2.28982 0
M  V30 21402 H 2106.74 -6.50648 -4.16986 0
M  V30 21403 H 2105.09 -5.8477 -3.75592 0
M  V30 21404 H 2108.28 -3.77426 -2.76888 0
M  V30 21405 H 2108.45 -5.37026 -3.62639 0
M  V30 21406 N 2101.86 1.05436 -1.17136 0
M  V30 21407 C 2103.09 1.82074 -0.982688 0
M  V30 21408 C 2103.5 1.8288 0.469081 0
M  V30 21409 O 2102.86 1.25425 1.3257 0
M  V30 21410 C 2102.91 3.28302 -1.51328 0
M  V30 21411 O 2102.63 3.27651 -2.9082 0
M  V30 21412 C 2104.13 4.21637 -1.36885 0
M  V30 21413 H 2101.35 0.57382 -0.347811 0
M  V30 21414 H 2103.9 1.32971 -1.55367 0
M  V30 21415 H 2102.05 3.74685 -0.984381 0
M  V30 21416 H 2102.46 4.19154 -3.15294 0
M  V30 21417 H 2103.94 5.2223 -1.78828 0
M  V30 21418 H 2104.42 4.38065 -0.315584 0
M  V30 21419 H 2105.02 3.81107 -1.88779 0
M  V30 21420 N 2103.34 0.971211 1.24118 0
M  V30 21421 C 2104.61 0.551769 1.87656 0
M  V30 21422 C 2104.99 -0.97112 1.87437 0
M  V30 21423 O 2104.34 -1.84396 1.34946 0
M  V30 21424 C 2104.55 1.14731 3.29602 0
M  V30 21425 C 2105.9 1.23437 4.06262 0
M  V30 21426 O 2106.92 1.10009 3.38787 0
M  V30 21427 O 2105.78 1.44701 5.26995 0
M  V30 21428 H 2102.88 0.184487 0.80616 0
M  V30 21429 H 2105.42 1.06571 1.32064 0
M  V30 21430 H 2104.19 2.18994 3.2428 0
M  V30 21431 H 2103.82 0.617636 3.92773 0
M  V30 21432 N 2104.81 -1.39054 0.741747 0
M  V30 21433 C 2106.23 -1.83161 0.361815 0
M  V30 21434 C 2106.58 -1.61934 -1.10778 0
M  V30 21435 O 2105.7 -1.11412 -1.85516 0
M  V30 21436 C 2106.3 -3.32508 0.649929 0
M  V30 21437 C 2104.86 -3.75008 0.323414 0
M  V30 21438 C 2104 -2.61973 0.909134 0
M  V30 21439 H 2106.95 -1.2795 0.938853 0
M  V30 21440 H 2106.97 -3.80424 -0.0759846 0
M  V30 21441 H 2106.49 -3.47925 1.71959 0
M  V30 21442 H 2104.59 -3.65175 -0.740136 0
M  V30 21443 H 2104.7 -4.72191 0.81069 0
M  V30 21444 H 2103.06 -2.52483 0.335302 0
M  V30 21445 H 2103.85 -2.80194 1.98358 0
M  V30 21446 N 2106.29 -0.489897 -1.49792 0
M  V30 21447 C 2107.54 0.0584284 -2.02016 0
M  V30 21448 C 2107.86 1.38507 -1.37262 0
M  V30 21449 O 2107.13 1.88757 -0.524191 0
M  V30 21450 H 2105.71 0.0245828 -0.746595 0
M  V30 21451 H 2108.37 -0.644608 -1.83932 0
M  V30 21452 H 2107.47 0.196227 -3.11483 0
M  V30 21453 N 2107.77 1.56011 -0.223262 0
M  V30 21454 C 2109 2.03189 0.415817 0
M  V30 21455 C 2109.42 1.102 1.52439 0
M  V30 21456 O 2108.78 0.0904999 1.81074 0
M  V30 21457 C 2108.83 3.48586 0.923053 0
M  V30 21458 O 2107.93 3.58734 2.03429 0
M  V30 21459 H 2107.27 0.65733 0.0938783 0
M  V30 21460 H 2109.8 2.01715 -0.342399 0
M  V30 21461 H 2109.81 3.88941 1.23243 0
M  V30 21462 H 2108.49 4.1575 0.11169 0
M  V30 21463 H 2107.06 3.30267 1.73142 0
M  V30 21464 N 2109.25 -0.0501116 1.5752 0
M  V30 21465 C 2110.47 -0.761197 1.92926 0
M  V30 21466 C 2110.9 -1.69211 0.821546 0
M  V30 21467 O 2110.26 -1.79908 -0.224247 0
M  V30 21468 C 2110.3 -1.51241 3.27351 0
M  V30 21469 O 2109.41 -2.62445 3.18114 0
M  V30 21470 H 2108.75 -0.206224 0.631164 0
M  V30 21471 H 2111.28 -0.0118709 2.04597 0
M  V30 21472 H 2111.29 -1.88696 3.61743 0
M  V30 21473 H 2109.96 -0.829535 4.07543 0
M  V30 21474 H 2108.54 -2.27688 2.95318 0
M  V30 21475 N 2110.73 -1.54276 -0.321972 0
M  V30 21476 C 2111.98 -1.7177 -1.05726 0
M  V30 21477 C 2112.29 -0.499164 -1.89124 0
M  V30 21478 O 2113.49 -0.555477 -2.65757 0
M  V30 21479 C 2111.95 -3.03824 -1.92923 0
M  V30 21480 C 2111.56 -4.33087 -1.14629 0
M  V30 21481 C 2113.3 -3.30681 -2.66178 0
M  V30 21482 C 2111.21 -5.56202 -2.00981 0
M  V30 21483 H 2110.14 -0.64013 -0.398433 0
M  V30 21484 H 2112.79 -1.80769 -0.315414 0
M  V30 21485 H 2111.17 -2.88736 -2.71012 0
M  V30 21486 H 2112.35 -4.58946 -0.412993 0
M  V30 21487 H 2110.66 -4.13007 -0.530488 0
M  V30 21488 H 2113.26 -4.19857 -3.31096 0
M  V30 21489 H 2113.6 -2.48629 -3.339 0
M  V30 21490 H 2114.13 -3.46643 -1.95149 0
M  V30 21491 H 2110.87 -6.4086 -1.37764 0
M  V30 21492 H 2110.39 -5.3456 -2.7204 0
M  V30 21493 H 2112.07 -5.92667 -2.59528 0
M  V30 21494 N 2112.2 0.584116 -1.46376 0
M  V30 21495 C 2113.14 1.70778 -1.52865 0
M  V30 21496 C 2114.15 1.57366 -0.417122 0
M  V30 21497 O 2115.34 1.64816 -0.685411 0
M  V30 21498 C 2112.44 3.09015 -1.39151 0
M  V30 21499 C 2111.61 3.48443 -2.64397 0
M  V30 21500 C 2110.67 4.65735 -2.44903 0
M  V30 21501 O 2109.7 4.71667 -3.1862 0
M  V30 21502 N 2110.9 5.60523 -1.50978 0
M  V30 21503 H 2113.66 1.65666 -2.49749 0
M  V30 21504 H 2111.22 0.770058 -1.42414 0
M  V30 21505 H 2113.22 3.85272 -1.23884 0
M  V30 21506 H 2111.79 3.08502 -0.50453 0
M  V30 21507 H 2111.01 2.61906 -2.94616 0
M  V30 21508 H 2112.29 3.71552 -3.47601 0
M  V30 21509 H 2111.69 5.58465 -0.90186 0
M  V30 21510 H 2110.25 6.36217 -1.41674 0
M  V30 21511 N 2113.68 1.34058 0.828631 0
M  V30 21512 C 2114.61 1.278 1.95421 0
M  V30 21513 C 2115.59 0.156548 1.69378 0
M  V30 21514 O 2116.78 0.347987 1.91057 0
M  V30 21515 C 2113.91 1.02688 3.31772 0
M  V30 21516 C 2112.86 2.11238 3.7224 0
M  V30 21517 C 2112.19 1.71324 5.0651 0
M  V30 21518 C 2113.49 3.53014 3.84939 0
M  V30 21519 H 2115.18 2.21977 2.00914 0
M  V30 21520 H 2112.73 1.06859 0.965253 0
M  V30 21521 H 2114.68 0.969571 4.10094 0
M  V30 21522 H 2113.41 0.0495214 3.26562 0
M  V30 21523 H 2112.07 2.16029 2.96188 0
M  V30 21524 H 2111.71 0.722632 4.97782 0
M  V30 21525 H 2111.41 2.43972 5.34557 0
M  V30 21526 H 2112.94 1.67077 5.87297 0
M  V30 21527 H 2114.35 3.50667 4.53547 0
M  V30 21528 H 2112.75 4.24235 4.24434 0
M  V30 21529 H 2113.82 3.90772 2.87098 0
M  V30 21530 N 2115.16 -1.04814 1.17694 0
M  V30 21531 C 2116.39 -1.8155 0.99233 0
M  V30 21532 C 2116.8 -1.83126 -0.459376 0
M  V30 21533 O 2116.16 -1.26127 -1.31903 0
M  V30 21534 C 2116.21 -3.27495 1.53067 0
M  V30 21535 O 2115.93 -3.26104 2.92554 0
M  V30 21536 C 2117.43 -4.20905 1.39119 0
M  V30 21537 H 2114.65 -0.571967 0.350849 0
M  V30 21538 H 2117.2 -1.32145 1.5607 0
M  V30 21539 H 2115.35 -3.74157 1.00424 0
M  V30 21540 H 2115.77 -4.17476 3.17512 0
M  V30 21541 H 2117.24 -5.21275 1.81595 0
M  V30 21542 H 2117.72 -4.37891 0.338812 0
M  V30 21543 H 2118.32 -3.801 1.90798 0
M  V30 21544 N 2116.64 -0.977779 -1.23601 0
M  V30 21545 C 2117.89 -0.640749 -1.91252 0
M  V30 21546 C 2118.2 0.829108 -1.77159 0
M  V30 21547 O 2119.41 1.27709 -2.39589 0
M  V30 21548 C 2117.86 -1.09542 -3.42824 0
M  V30 21549 C 2117.47 -2.58944 -3.65584 0
M  V30 21550 C 2119.22 -0.832015 -4.16266 0
M  V30 21551 C 2117.12 -2.98092 -5.10779 0
M  V30 21552 H 2116.05 -0.235949 -0.716131 0
M  V30 21553 H 2118.7 -1.18533 -1.40079 0
M  V30 21554 H 2117.09 -0.479076 -3.93091 0
M  V30 21555 H 2118.26 -3.25795 -3.25875 0
M  V30 21556 H 2116.57 -2.83003 -3.05447 0
M  V30 21557 H 2119.17 -1.10039 -5.23255 0
M  V30 21558 H 2119.51 0.231859 -4.15654 0
M  V30 21559 H 2120.05 -1.40982 -3.7198 0
M  V30 21560 H 2116.79 -4.03592 -5.16521 0
M  V30 21561 H 2116.31 -2.35933 -5.51449 0
M  V30 21562 H 2117.99 -2.88553 -5.79091 0
M  V30 21563 N 2118.12 1.38658 -0.749111 0
M  V30 21564 C 2119.07 2.27805 -0.0942107 0
M  V30 21565 C 2120.05 1.44975 0.697929 0
M  V30 21566 O 2121.24 1.67753 0.564619 0
M  V30 21567 C 2118.37 3.33811 0.801579 0
M  V30 21568 C 2117.46 4.241 0.0028319 0
M  V30 21569 N 2117.85 4.95175 -1.03129 0
M  V30 21570 C 2116.15 4.45405 0.230336 0
M  V30 21571 C 2116.85 5.61648 -1.51416 0
M  V30 21572 N 2115.82 5.37222 -0.830252 0
M  V30 21573 H 2119.63 2.80218 -0.886296 0
M  V30 21574 H 2117.14 1.51508 -0.584738 0
M  V30 21575 H 2119.14 3.96559 1.28634 0
M  V30 21576 H 2117.8 2.82956 1.59267 0
M  V30 21577 H 2118.81 4.98252 -1.41298 0
M  V30 21578 H 2115.49 4.05467 0.995116 0
M  V30 21579 H 2116.88 6.28513 -2.37531 0
M  V30 21580 N 2119.6 0.497834 1.49531 0
M  V30 21581 C 2120.87 -0.110673 1.95287 0
M  V30 21582 C 2121.25 -1.54433 1.43923 0
M  V30 21583 O 2120.6 -2.19012 0.651616 0
M  V30 21584 C 2120.81 -0.0265636 3.4899 0
M  V30 21585 C 2122.16 -0.202082 4.24119 0
M  V30 21586 O 2123.18 -0.1019 3.56054 0
M  V30 21587 O 2122.04 -0.407373 5.4498 0
M  V30 21588 H 2119.14 -0.0970406 0.821287 0
M  V30 21589 H 2121.68 0.560146 1.60189 0
M  V30 21590 H 2120.45 0.973355 3.79001 0
M  V30 21591 H 2120.08 -0.737668 3.90697 0
M  V30 21592 N 2121.07 -1.5589 0.231532 0
M  V30 21593 C 2122.32 -1.98561 -0.397452 0
M  V30 21594 C 2122.65 -1.11939 -1.5906 0
M  V30 21595 O 2121.9 -0.166615 -1.94989 0
M  V30 21596 C 2122.2 -3.46766 -0.865354 0
M  V30 21597 C 2121.87 -4.50371 0.218353 0
M  V30 21598 C 2120.53 -4.78425 0.516031 0
M  V30 21599 C 2122.88 -5.12455 0.950761 0
M  V30 21600 C 2120.21 -5.65842 1.55046 0
M  V30 21601 C 2122.56 -6.00993 1.9746 0
M  V30 21602 C 2121.23 -6.27386 2.27909 0
M  V30 21603 H 2120.5 -0.726587 -0.145438 0
M  V30 21604 H 2123.14 -1.88527 0.336141 0
M  V30 21605 H 2121.45 -3.54054 -1.67788 0
M  V30 21606 H 2123.15 -3.7716 -1.36204 0
M  V30 21607 H 2119.74 -4.28593 -0.023809 0
M  V30 21608 H 2123.92 -4.90842 0.734029 0
M  V30 21609 H 2119.18 -5.84552 1.79188 0
M  V30 21610 H 2123.35 -6.48147 2.54712 0
M  V30 21611 H 2120.98 -6.9492 3.08205 0
M  V30 21612 N 2122.55 0.0417572 -1.57545 0
M  V30 21613 C 2123.83 0.769799 -1.79815 0
M  V30 21614 C 2124.21 1.94247 -0.826527 0
M  V30 21615 O 2123.56 2.28106 0.134058 0
M  V30 21616 C 2123.77 1.21472 -3.27178 0
M  V30 21617 C 2125.11 1.63585 -3.91823 0
M  V30 21618 O 2126.14 1.30963 -3.31251 0
M  V30 21619 O 2125 2.24087 -4.98445 0
M  V30 21620 H 2122.09 0.371214 -0.739005 0
M  V30 21621 H 2124.64 0.019513 -1.69689 0
M  V30 21622 H 2123.41 0.377014 -3.8948 0
M  V30 21623 H 2123.03 2.02541 -3.42144 0
M  V30 21624 N 2124.03 1.54445 0.313786 0
M  V30 21625 C 2125.28 1.73373 1.05212 0
M  V30 21626 C 2125.61 0.511165 1.87352 0
M  V30 21627 O 2124.88 -0.491833 1.88179 0
M  V30 21628 C 2125.17 3.01517 1.96874 0
M  V30 21629 C 2125.02 4.34046 1.17999 0
M  V30 21630 C 2126.34 3.25462 2.96248 0
M  V30 21631 H 2123.46 0.630823 0.381092 0
M  V30 21632 H 2126.1 1.87149 0.327891 0
M  V30 21633 H 2124.25 2.89903 2.58628 0
M  V30 21634 H 2125.92 4.57559 0.586302 0
M  V30 21635 H 2124.16 4.31109 0.482437 0
M  V30 21636 H 2124.84 5.19949 1.85355 0
M  V30 21637 H 2127.31 3.36602 2.44619 0
M  V30 21638 H 2126.19 4.16464 3.57559 0
M  V30 21639 H 2126.45 2.43151 3.69229 0
M  V30 21640 N 2125.51 -0.576345 1.46683 0
M  V30 21641 C 2126.42 -1.71268 1.60326 0
M  V30 21642 C 2127.43 -1.67059 0.486559 0
M  V30 21643 O 2128.61 -1.86852 0.75154 0
M  V30 21644 C 2125.67 -3.07775 1.5961 0
M  V30 21645 C 2124.74 -3.232 2.8256 0
M  V30 21646 C 2123.97 -4.53195 2.81869 0
M  V30 21647 O 2124.19 -5.37478 1.90979 0
M  V30 21648 O 2123.13 -4.72003 3.73493 0
M  V30 21649 H 2126.95 -1.62705 2.56439 0
M  V30 21650 H 2124.54 -0.744135 1.29549 0
M  V30 21651 H 2126.42 -3.89046 1.61929 0
M  V30 21652 H 2125.09 -3.16762 0.666583 0
M  V30 21653 H 2124 -2.41398 2.85793 0
M  V30 21654 H 2125.33 -3.19107 3.74742 0
M  V30 21655 N 2126.99 -1.34495 -0.82151 0
M  V30 21656 C 2128.22 -1.29823 -1.60716 0
M  V30 21657 C 2128.62 0.129564 -1.88756 0
M  V30 21658 O 2127.97 1.0875 -1.48051 0
M  V30 21659 C 2128.03 -2.02237 -2.97221 0
M  V30 21660 C 2127.69 -3.51489 -2.92069 0
M  V30 21661 C 2128.69 -4.46369 -2.66554 0
M  V30 21662 C 2126.37 -3.93923 -3.11657 0
M  V30 21663 C 2128.37 -5.81657 -2.6068 0
M  V30 21664 C 2126.06 -5.2931 -3.05408 0
M  V30 21665 C 2127.05 -6.22989 -2.79953 0
M  V30 21666 O 2126.74 -7.55895 -2.73638 0
M  V30 21667 H 2126.47 -0.44801 -0.506225 0
M  V30 21668 H 2129.03 -1.77704 -1.03008 0
M  V30 21669 H 2127.26 -1.48972 -3.56853 0
M  V30 21670 H 2128.95 -1.90836 -3.58241 0
M  V30 21671 H 2129.71 -4.14905 -2.51155 0
M  V30 21672 H 2125.59 -3.21403 -3.30486 0
M  V30 21673 H 2129.14 -6.54747 -2.40732 0
M  V30 21674 H 2125.03 -5.60392 -3.20361 0
M  V30 21675 H 2125.8 -7.65647 -2.89355 0
M  V30 21676 N 2128.46 1.04188 -1.18248 0
M  V30 21677 C 2129.41 2.10485 -0.876358 0
M  V30 21678 C 2130.4 1.60167 0.153389 0
M  V30 21679 O 2131.59 1.76928 -0.0504786 0
M  V30 21680 C 2128.72 3.40932 -0.402528 0
M  V30 21681 C 2127.81 3.9802 -1.46428 0
M  V30 21682 N 2128.2 4.28938 -2.68041 0
M  V30 21683 C 2126.49 4.25879 -1.32451 0
M  V30 21684 C 2127.2 4.74605 -3.3634 0
M  V30 21685 N 2126.17 4.75344 -2.63722 0
M  V30 21686 H 2129.97 2.32265 -1.80084 0
M  V30 21687 H 2127.49 1.2193 -1.0727 0
M  V30 21688 H 2129.48 4.16574 -0.164728 0
M  V30 21689 H 2128.14 3.2058 0.51563 0
M  V30 21690 H 2129.16 4.18623 -3.04918 0
M  V30 21691 H 2125.83 4.1486 -0.468792 0
M  V30 21692 H 2127.22 5.07557 -4.40267 0
M  V30 21693 N 2129.94 0.98432 1.23081 0
M  V30 21694 C 2131.17 0.673202 1.9617 0
M  V30 21695 C 2131.59 -0.753958 1.72328 0
M  V30 21696 O 2130.95 -1.51414 0.997167 0
M  V30 21697 C 2131 0.974266 3.47189 0
M  V30 21698 O 2130.1 0.0683695 4.12343 0
M  V30 21699 H 2129.44 0.252801 0.613993 0
M  V30 21700 H 2131.97 1.31898 1.5641 0
M  V30 21701 H 2131.98 0.912577 3.97663 0
M  V30 21702 H 2130.66 2.01426 3.63868 0
M  V30 21703 H 2129.24 0.184805 3.72442 0
M  V30 21704 N 2131.42 -1.38259 0.756453 0
M  V30 21705 C 2132.84 -1.53575 0.434365 0
M  V30 21706 C 2133.04 -1.71851 -1.05212 0
M  V30 21707 O 2132.09 -1.73115 -1.83814 0
M  V30 21708 C 2133.41 -2.74118 1.23611 0
M  V30 21709 C 2134.95 -2.8797 1.22647 0
M  V30 21710 C 2135.43 -4.11477 2.01124 0
M  V30 21711 N 2136.92 -4.1856 1.98399 0
M  V30 21712 C 2137.65 -5.13124 2.55913 0
M  V30 21713 N 2137.15 -6.13343 3.22153 0
M  V30 21714 N 2138.94 -5.05495 2.45827 0
M  V30 21715 H 2131.09 -1.24647 1.7198 0
M  V30 21716 H 2133.36 -0.605745 0.72923 0
M  V30 21717 H 2133.06 -2.67028 2.28886 0
M  V30 21718 H 2132.94 -3.67384 0.854919 0
M  V30 21719 H 2135.32 -2.9454 0.181771 0
M  V30 21720 H 2135.41 -1.95707 1.6472 0
M  V30 21721 H 2135.05 -4.05669 3.05607 0
M  V30 21722 H 2134.98 -5.02825 1.56444 0
M  V30 21723 H 2137.47 -3.46785 1.50161 0
M  V30 21724 H 2137.78 -6.81999 3.63451 0
M  V30 21725 H 2136.13 -6.13667 3.26248 0
M  V30 21726 H 2139.32 -4.26141 1.93705 0
M  V30 21727 H 2139.49 -5.79012 2.90946 0
M  V30 21728 N 2132.9 -0.505757 -1.49264 0
M  V30 21729 C 2134.14 0.0353761 -2.04369 0
M  V30 21730 C 2134.5 1.33838 -1.37664 0
M  V30 21731 O 2135.7 1.96405 -1.83517 0
M  V30 21732 C 2133.97 0.179725 -3.56948 0
M  V30 21733 S 2135.53 0.67442 -4.33586 0
M  V30 21734 H 2132.35 -0.000491907 -0.711 0
M  V30 21735 H 2134.95 -0.680807 -1.83263 0
M  V30 21736 H 2133.66 -0.773835 -4.03038 0
M  V30 21737 H 2133.19 0.921008 -3.82467 0
M  V30 21738 H 2135.2 1.94284 -4.56583 0
M  V30 21739 N 2134.38 1.55765 -0.239796 0
M  V30 21740 C 2135.32 2.22467 0.679046 0
M  V30 21741 C 2136.32 1.20993 1.18562 0
M  V30 21742 O 2137.52 1.39024 1.14334 0
M  V30 21743 H 2133.9 0.713528 0.237447 0
M  V30 21744 H 2135.87 2.98254 0.0932403 0
M  V30 21745 C 2134.62 2.93244 1.86825 0
M  V30 21746 H 2133.94 3.71094 1.48759 0
M  V30 21747 H 2135.38 3.43289 2.48855 0
M  V30 21748 C 2133.84 1.96721 2.735 0
M  V30 21749 O 2134.37 1.49575 3.72814 0
M  V30 21750 N 2132.58 1.63976 2.39917 0
M  V30 21751 H 2132.12 2.02511 1.59208 0
M  V30 21752 H 2132.08 0.996588 2.98187 0
M  V30 21753 N 2135.85 -0.0334016 1.57565 0
M  V30 21754 C 2137.1 -0.725083 1.89074 0
M  V30 21755 C 2137.43 -1.75591 0.83654 0
M  V30 21756 O 2136.68 -1.9502 -0.163023 0
M  V30 21757 C 2136.98 -1.4351 3.27322 0
M  V30 21758 C 2136.65 -0.540657 4.47647 0
M  V30 21759 C 2135.31 -0.294289 4.80299 0
M  V30 21760 C 2137.66 0.0771583 5.21143 0
M  V30 21761 C 2134.99 0.578743 5.83839 0
M  V30 21762 C 2137.34 0.937867 6.25609 0
M  V30 21763 C 2136.01 1.19374 6.56739 0
M  V30 21764 H 2135.28 -0.265327 0.691869 0
M  V30 21765 H 2137.92 0.0149455 1.91494 0
M  V30 21766 H 2136.23 -2.24833 3.2087 0
M  V30 21767 H 2137.93 -1.97575 3.48949 0
M  V30 21768 H 2134.52 -0.742832 4.22114 0
M  V30 21769 H 2138.7 -0.100223 4.96199 0
M  V30 21770 H 2133.96 0.785335 6.06335 0
M  V30 21771 H 2138.13 1.42313 6.81704 0
M  V30 21772 H 2135.76 1.87196 7.36792 0
M  V30 21773 N 2137.33 -1.54609 -0.305591 0
M  V30 21774 C 2138.61 -1.64344 -1.06068 0
M  V30 21775 C 2138.99 -0.488774 -2.05364 0
M  V30 21776 O 2138.34 0.515015 -2.2262 0
M  V30 21777 C 2138.55 -3.02149 -1.74663 0
M  V30 21778 C 2139.9 -3.58808 -2.27029 0
M  V30 21779 O 2140.92 -3.04571 -1.84703 0
M  V30 21780 O 2139.78 -4.53762 -3.04568 0
M  V30 21781 H 2136.87 -0.666216 -0.489984 0
M  V30 21782 H 2139.42 -1.66954 -0.304046 0
M  V30 21783 H 2138.19 -3.77626 -1.02538 0
M  V30 21784 H 2137.81 -3.03296 -2.57094 0
M  V30 21785 N 2138.81 0.568558 -1.46987 0
M  V30 21786 C 2140.06 1.32819 -1.53255 0
M  V30 21787 C 2140.39 1.93274 -0.189458 0
M  V30 21788 O 2139.66 1.77254 0.800699 0
M  V30 21789 C 2139.95 2.44688 -2.64196 0
M  V30 21790 C 2139.8 1.89176 -4.08084 0
M  V30 21791 C 2141.12 3.46671 -2.71122 0
M  V30 21792 H 2138.24 0.481565 -0.557911 0
M  V30 21793 H 2140.88 0.637355 -1.78991 0
M  V30 21794 H 2139.03 3.03617 -2.42382 0
M  V30 21795 H 2140.7 1.34596 -4.41227 0
M  V30 21796 H 2138.95 1.19918 -4.16896 0
M  V30 21797 H 2139.62 2.69995 -4.81463 0
M  V30 21798 H 2142.09 2.97645 -2.90769 0
M  V30 21799 H 2140.97 4.22387 -3.50543 0
M  V30 21800 H 2141.23 4.04802 -1.7773 0
M  V30 21801 N 2140.29 1.34929 0.814366 0
M  V30 21802 C 2141.22 1.29866 1.94055 0
M  V30 21803 C 2142.2 0.174504 1.69203 0
M  V30 21804 O 2143.38 0.368232 1.90677 0
M  V30 21805 C 2140.51 1.06201 3.30664 0
M  V30 21806 C 2139.47 2.15174 3.69978 0
M  V30 21807 C 2138.79 1.76686 5.04664 0
M  V30 21808 C 2140.09 3.57077 3.81174 0
M  V30 21809 H 2141.79 2.24095 1.98549 0
M  V30 21810 H 2139.33 1.07877 0.953865 0
M  V30 21811 H 2141.29 1.01301 4.09043 0
M  V30 21812 H 2140.01 0.0841549 3.26492 0
M  V30 21813 H 2138.67 2.19158 2.9388 0
M  V30 21814 H 2138.32 0.775388 4.96988 0
M  V30 21815 H 2138.02 2.49628 5.3194 0
M  V30 21816 H 2139.54 1.73297 5.85492 0
M  V30 21817 H 2140.96 3.55458 4.49803 0
M  V30 21818 H 2139.35 4.28713 4.19911 0
M  V30 21819 H 2140.42 3.93795 2.82937 0
M  V30 21820 N 2141.77 -1.0356 1.18799 0
M  V30 21821 C 2142.68 -2.15173 0.934763 0
M  V30 21822 C 2143.69 -1.73695 -0.102902 0
M  V30 21823 O 2144.87 -2.0124 0.0801886 0
M  V30 21824 C 2141.93 -3.43507 0.469463 0
M  V30 21825 C 2140.99 -3.99337 1.57571 0
M  V30 21826 C 2140.23 -5.21546 1.13251 0
M  V30 21827 O 2140.45 -5.704 -0.0066957 0
M  V30 21828 O 2139.38 -5.70039 1.93233 0
M  V30 21829 H 2143.21 -2.39393 1.86881 0
M  V30 21830 H 2140.8 -1.13608 0.970239 0
M  V30 21831 H 2142.68 -4.20834 0.218298 0
M  V30 21832 H 2141.35 -3.20747 -0.436226 0
M  V30 21833 H 2140.26 -3.23375 1.88095 0
M  V30 21834 H 2141.59 -4.26448 2.45771 0
M  V30 21835 N 2143.25 -0.990834 -1.22557 0
M  V30 21836 C 2144.49 -0.660998 -1.90562 0
M  V30 21837 C 2144.81 0.810271 -1.78028 0
M  V30 21838 O 2146.01 1.2516 -2.4093 0
M  V30 21839 C 2144.47 -1.13172 -3.41643 0
M  V30 21840 C 2144.08 -2.62807 -3.62817 0
M  V30 21841 C 2145.82 -0.876119 -4.15361 0
M  V30 21842 C 2143.73 -3.03493 -5.07588 0
M  V30 21843 H 2142.66 -0.243531 -0.713589 0
M  V30 21844 H 2145.31 -1.20012 -1.38814 0
M  V30 21845 H 2143.69 -0.520742 -3.92561 0
M  V30 21846 H 2144.87 -3.29233 -3.22401 0
M  V30 21847 H 2143.18 -2.86227 -3.02428 0
M  V30 21848 H 2145.78 -1.15582 -5.22058 0
M  V30 21849 H 2146.12 0.187761 -4.15876 0
M  V30 21850 H 2146.65 -1.44919 -3.70464 0
M  V30 21851 H 2143.39 -4.09048 -5.12211 0
M  V30 21852 H 2142.91 -2.41769 -5.48915 0
M  V30 21853 H 2144.59 -2.94679 -5.75998 0
M  V30 21854 N 2144.72 1.37856 -0.763775 0
M  V30 21855 C 2145.95 2.03864 -0.335144 0
M  V30 21856 C 2146.36 1.57732 1.04486 0
M  V30 21857 O 2145.7 0.750289 1.67679 0
M  V30 21858 C 2145.77 3.58323 -0.290657 0
M  V30 21859 C 2145.43 4.27554 -1.61391 0
M  V30 21860 C 2146.43 4.52225 -2.56494 0
M  V30 21861 C 2144.11 4.65542 -1.88615 0
M  V30 21862 C 2146.11 5.13931 -3.77033 0
M  V30 21863 C 2143.79 5.26971 -3.09426 0
M  V30 21864 C 2144.79 5.51102 -4.03455 0
M  V30 21865 O 2144.48 6.11248 -5.2214 0
M  V30 21866 H 2144.21 0.661438 -0.139556 0
M  V30 21867 H 2146.77 1.77331 -1.03648 0
M  V30 21868 H 2145 3.8387 0.467001 0
M  V30 21869 H 2146.68 4.05751 0.109828 0
M  V30 21870 H 2147.45 4.23296 -2.3674 0
M  V30 21871 H 2143.33 4.461 -1.16258 0
M  V30 21872 H 2146.87 5.32682 -4.5044 0
M  V30 21873 H 2142.77 5.55324 -3.29068 0
M  V30 21874 H 2143.54 6.29731 -5.22859 0
M  V30 21875 N 2146.2 0.513665 1.48994 0
M  V30 21876 C 2147.45 -0.0262821 2.02083 0
M  V30 21877 C 2147.77 -1.36306 1.39448 0
M  V30 21878 O 2147.04 -1.87899 0.554154 0
M  V30 21879 H 2145.62 -0.012702 0.746892 0
M  V30 21880 H 2148.28 0.673788 1.82883 0
M  V30 21881 H 2147.38 -0.146648 3.11755 0
M  V30 21882 N 2147.68 -1.55636 0.248053 0
M  V30 21883 C 2148.93 -1.98579 -0.375626 0
M  V30 21884 C 2149.25 -1.13753 -1.58383 0
M  V30 21885 O 2148.52 -0.2206 -1.94654 0
M  V30 21886 H 2147.1 -0.733423 -0.141773 0
M  V30 21887 H 2149.76 -1.91784 0.34711 0
M  V30 21888 H 2148.86 -3.04513 -0.683983 0
M  V30 21889 N 2149.16 0.0250451 -1.5758 0
M  V30 21890 C 2150.57 0.571131 -1.7775 0
M  V30 21891 C 2150.92 1.75376 -0.879637 0
M  V30 21892 O 2150.04 2.16268 -0.0755171 0
M  V30 21893 C 2150.64 1.04287 -3.2235 0
M  V30 21894 C 2149.2 1.53444 -3.43703 0
M  V30 21895 C 2148.35 0.474313 -2.73213 0
M  V30 21896 H 2151.3 -0.201177 -1.5742 0
M  V30 21897 H 2151.32 1.91005 -3.29085 0
M  V30 21898 H 2150.83 0.181922 -3.87673 0
M  V30 21899 H 2148.93 2.41711 -2.83561 0
M  V30 21900 H 2149.04 1.57917 -4.52326 0
M  V30 21901 H 2147.41 0.93027 -2.37103 0
M  V30 21902 H 2148.19 -0.377237 -3.41221 0
M  V30 21903 N 2150.64 1.54769 0.297388 0
M  V30 21904 C 2151.91 1.64904 1.05195 0
M  V30 21905 C 2152.29 0.499658 2.05102 0
M  V30 21906 O 2151.64 -0.503202 2.2289 0
M  V30 21907 C 2151.85 3.03071 1.73058 0
M  V30 21908 C 2153.2 3.60007 2.25123 0
M  V30 21909 O 2154.22 3.05546 1.83085 0
M  V30 21910 O 2153.08 4.55371 3.02158 0
M  V30 21911 H 2150.18 0.668805 0.486444 0
M  V30 21912 H 2152.72 1.67113 0.295187 0
M  V30 21913 H 2151.49 3.78165 1.00534 0
M  V30 21914 H 2151.12 3.04655 2.55482 0
M  V30 21915 N 2152.11 -0.560755 1.47286 0
M  V30 21916 C 2153.36 -1.31809 1.53729 0
M  V30 21917 C 2153.69 -1.93489 0.198079 0
M  V30 21918 O 2152.94 -1.78211 -0.808664 0
M  V30 21919 C 2153.24 -2.45125 2.60093 0
M  V30 21920 C 2152.91 -2.01298 4.03472 0
M  V30 21921 C 2151.57 -1.89062 4.42503 0
M  V30 21922 C 2153.92 -1.67796 4.93451 0
M  V30 21923 C 2151.25 -1.41613 5.69353 0
M  V30 21924 C 2153.6 -1.21819 6.2076 0
M  V30 21925 C 2152.27 -1.08176 6.58676 0
M  V30 21926 H 2151.54 -0.482323 0.562535 0
M  V30 21927 H 2154.18 -0.629194 1.80868 0
M  V30 21928 H 2152.49 -3.19555 2.26697 0
M  V30 21929 H 2154.19 -3.03313 2.62302 0
M  V30 21930 H 2150.78 -2.11764 3.72631 0
M  V30 21931 H 2154.96 -1.76124 4.63998 0
M  V30 21932 H 2150.22 -1.29712 5.97482 0
M  V30 21933 H 2154.39 -0.949566 6.89896 0
M  V30 21934 H 2152.02 -0.711868 7.5686 0
M  V30 21935 N 2153.59 -1.35359 -0.807199 0
M  V30 21936 C 2154.54 -1.24773 -1.90829 0
M  V30 21937 C 2155.53 -0.143129 -1.60262 0
M  V30 21938 O 2156.72 -0.374292 -1.72997 0
M  V30 21939 C 2153.85 -1.02132 -3.27756 0
M  V30 21940 C 2152.93 -2.16979 -3.64391 0
M  V30 21941 N 2153.32 -3.42201 -3.72468 0
M  V30 21942 C 2151.62 -2.08352 -3.94342 0
M  V30 21943 C 2152.32 -4.17721 -4.04826 0
M  V30 21944 N 2151.3 -3.46471 -4.18878 0
M  V30 21945 H 2155.1 -2.19648 -1.95274 0
M  V30 21946 H 2152.61 -1.27823 -1.00175 0
M  V30 21947 H 2154.61 -0.926363 -4.06478 0
M  V30 21948 H 2153.27 -0.0814038 -3.24598 0
M  V30 21949 H 2154.28 -3.7656 -3.5556 0
M  V30 21950 H 2150.96 -1.22212 -3.99212 0
M  V30 21951 H 2152.35 -5.2593 -4.18147 0
M  V30 21952 N 2155.07 1.02928 -1.19346 0
M  V30 21953 C 2156.29 1.80485 -1.02175 0
M  V30 21954 C 2156.72 1.83238 0.424925 0
M  V30 21955 O 2156.08 1.25809 1.30545 0
M  V30 21956 C 2156.13 3.23415 -1.59483 0
M  V30 21957 O 2155.23 4.04087 -0.823877 0
M  V30 21958 H 2154.57 0.557177 -0.361178 0
M  V30 21959 H 2157.1 1.29551 -1.5836 0
M  V30 21960 H 2157.11 3.74164 -1.62681 0
M  V30 21961 H 2155.79 3.20727 -2.64777 0
M  V30 21962 H 2154.36 3.62726 -0.865114 0
M  V30 21963 N 2156.55 0.997319 1.2203 0
M  V30 21964 C 2157.96 0.710132 1.72667 0
M  V30 21965 C 2158.31 -0.77273 1.80342 0
M  V30 21966 O 2157.43 -1.6039 1.45273 0
M  V30 21967 C 2158.03 1.28239 3.13592 0
M  V30 21968 C 2156.59 1.04449 3.61618 0
M  V30 21969 C 2155.74 1.3999 2.3937 0
M  V30 21970 H 2158.69 1.16915 1.07315 0
M  V30 21971 H 2158.71 0.663177 3.74676 0
M  V30 21972 H 2158.22 2.36164 3.07974 0
M  V30 21973 H 2156.32 -0.0179379 3.72596 0
M  V30 21974 H 2156.43 1.71098 4.47507 0
M  V30 21975 H 2154.8 0.818553 2.41188 0
M  V30 21976 H 2155.58 2.48928 2.3641 0
M  V30 21977 N 2158.03 -1.37449 0.771075 0
M  V30 21978 C 2159.44 -1.53106 0.450629 0
M  V30 21979 C 2159.64 -1.72957 -1.03384 0
M  V30 21980 O 2158.7 -1.75055 -1.81967 0
M  V30 21981 C 2160.01 -2.72792 1.26511 0
M  V30 21982 C 2161.56 -2.86653 1.25695 0
M  V30 21983 C 2162.03 -4.09321 2.05477 0
M  V30 21984 N 2163.53 -4.16432 2.02827 0
M  V30 21985 C 2164.26 -5.10381 2.61341 0
M  V30 21986 N 2163.76 -6.09892 3.2864 0
M  V30 21987 N 2165.55 -5.02859 2.51175 0
M  V30 21988 H 2157.7 -1.22815 1.73292 0
M  V30 21989 H 2159.96 -0.597977 0.735614 0
M  V30 21990 H 2159.67 -2.64586 2.31705 0
M  V30 21991 H 2159.54 -3.66457 0.893837 0
M  V30 21992 H 2161.93 -2.9433 0.213001 0
M  V30 21993 H 2162.01 -1.93949 1.66786 0
M  V30 21994 H 2161.66 -4.02404 3.09892 0
M  V30 21995 H 2161.59 -5.01137 1.61768 0
M  V30 21996 H 2164.08 -3.45173 1.53831 0
M  V30 21997 H 2164.39 -6.78106 3.70664 0
M  V30 21998 H 2162.73 -6.10172 3.32738 0
M  V30 21999 H 2165.93 -4.24063 1.98213 0
M  V30 22000 H 2166.1 -5.75893 2.97071 0
M  V30 22001 N 2159.5 -0.52156 -1.4872 0
M  V30 22002 C 2160.75 0.0175509 -2.01692 0
M  V30 22003 C 2161.07 1.36122 -1.40464 0
M  V30 22004 O 2162.27 1.98821 -1.84885 0
M  V30 22005 C 2160.73 0.0816961 -3.59807 0
M  V30 22006 C 2160.34 -1.25657 -4.30017 0
M  V30 22007 C 2162.08 0.570081 -4.20655 0
M  V30 22008 C 2159.99 -1.15347 -5.80042 0
M  V30 22009 H 2158.92 0.0103307 -0.753929 0
M  V30 22010 H 2161.57 -0.664075 -1.71062 0
M  V30 22011 H 2159.95 0.828218 -3.87242 0
M  V30 22012 H 2161.12 -2.018 -4.14263 0
M  V30 22013 H 2159.44 -1.68002 -3.81004 0
M  V30 22014 H 2162.04 0.665053 -5.30548 0
M  V30 22015 H 2162.38 1.57387 -3.85402 0
M  V30 22016 H 2162.91 -0.120509 -3.97617 0
M  V30 22017 H 2159.65 -2.13215 -6.19854 0
M  V30 22018 H 2159.17 -0.433268 -5.98233 0
M  V30 22019 H 2160.85 -0.840647 -6.41515 0
M  V30 22020 N 2160.98 1.55502 -0.256304 0
M  V30 22021 C 2161.95 2.20485 0.626014 0
M  V30 22022 C 2162.95 1.17694 1.09566 0
M  V30 22023 O 2164.14 1.42718 0.998856 0
M  V30 22024 C 2161.27 2.85589 1.86149 0
M  V30 22025 H 2162.46 2.99842 0.0589124 0
M  V30 22026 H 2160.01 1.56299 -0.0068064 0
M  V30 22027 H 2160.75 2.10195 2.46959 0
M  V30 22028 H 2160.53 3.60896 1.53285 0
M  V30 22029 H 2162.02 3.35293 2.48935 0
M  V30 22030 N 2162.46 -0.0166879 1.57591 0
M  V30 22031 C 2163.39 -1.04126 2.04182 0
M  V30 22032 C 2164.41 -1.31719 0.956768 0
M  V30 22033 O 2165.59 -1.28988 1.23387 0
M  V30 22034 C 2162.69 -2.38001 2.41265 0
M  V30 22035 C 2161.87 -2.29588 3.72301 0
M  V30 22036 C 2160.93 -3.46013 3.96436 0
M  V30 22037 O 2159.95 -3.2495 4.67328 0
M  V30 22038 N 2161.15 -4.68304 3.43033 0
M  V30 22039 H 2163.92 -0.644054 2.92698 0
M  V30 22040 H 2161.48 -0.204401 1.60605 0
M  V30 22041 H 2163.47 -3.14631 2.54538 0
M  V30 22042 H 2162.04 -2.69522 1.58355 0
M  V30 22043 H 2161.26 -1.37977 3.69264 0
M  V30 22044 H 2162.55 -2.21122 4.58238 0
M  V30 22045 H 2161.95 -4.88316 2.85593 0
M  V30 22046 H 2160.51 -5.42256 3.61665 0
M  V30 22047 N 2163.94 -1.54924 -0.289176 0
M  V30 22048 C 2164.87 -1.89696 -1.36153 0
M  V30 22049 C 2165.85 -0.757081 -1.52323 0
M  V30 22050 O 2167.03 -1.01384 -1.65635 0
M  V30 22051 C 2164.16 -2.15468 -2.7238 0
M  V30 22052 C 2163.12 -3.31307 -2.70961 0
M  V30 22053 C 2162.44 -3.42522 -4.10588 0
M  V30 22054 C 2163.74 -4.68117 -2.31655 0
M  V30 22055 H 2165.44 -2.79513 -1.07299 0
M  V30 22056 H 2162.98 -1.34486 -0.514723 0
M  V30 22057 H 2164.94 -2.3838 -3.47495 0
M  V30 22058 H 2163.66 -1.22435 -3.02783 0
M  V30 22059 H 2162.32 -3.08337 -1.98302 0
M  V30 22060 H 2161.97 -2.46985 -4.38187 0
M  V30 22061 H 2161.67 -4.20397 -4.10537 0
M  V30 22062 H 2163.19 -3.67708 -4.87466 0
M  V30 22063 H 2164.61 -4.9068 -2.96489 0
M  V30 22064 H 2163 -5.4879 -2.42796 0
M  V30 22065 H 2164.07 -4.68033 -1.26781 0
M  V30 22066 N 2165.42 0.552936 -1.47582 0
M  V30 22067 C 2166.66 1.32065 -1.56007 0
M  V30 22068 C 2167.02 1.90747 -0.219017 0
M  V30 22069 O 2168.22 2.68209 -0.178138 0
M  V30 22070 C 2166.49 2.39794 -2.65016 0
M  V30 22071 S 2168.05 3.26596 -2.93054 0
M  V30 22072 H 2164.87 0.449542 -0.550847 0
M  V30 22073 H 2167.47 0.632535 -1.84984 0
M  V30 22074 H 2166.18 1.95125 -3.61046 0
M  V30 22075 H 2165.71 3.13341 -2.37867 0
M  V30 22076 H 2167.72 4.39364 -2.30595 0
M  V30 22077 N 2166.89 1.35785 0.800009 0
M  V30 22078 C 2168.12 1.32556 1.5886 0
M  V30 22079 C 2168.54 -0.0955366 1.88558 0
M  V30 22080 O 2167.89 -1.0494 1.49311 0
M  V30 22081 C 2167.95 2.13669 2.91595 0
M  V30 22082 O 2167.67 3.50238 2.63182 0
M  V30 22083 C 2169.17 2.181 3.85937 0
M  V30 22084 H 2166.39 0.455105 0.493073 0
M  V30 22085 H 2168.93 1.78733 0.993714 0
M  V30 22086 H 2167.09 1.71074 3.47581 0
M  V30 22087 H 2167.5 3.92442 3.47979 0
M  V30 22088 H 2168.97 2.79234 4.76164 0
M  V30 22089 H 2169.45 1.18154 4.23009 0
M  V30 22090 H 2170.06 2.60885 3.35886 0
M  V30 22091 N 2168.37 -1.02294 1.19891 0
M  V30 22092 C 2169.3 -2.108 0.899788 0
M  V30 22093 C 2170.32 -1.62429 -0.109916 0
M  V30 22094 O 2171.51 -1.78094 0.120276 0
M  V30 22095 C 2168.61 -3.37325 0.326304 0
M  V30 22096 C 2167.78 -4.1486 1.38601 0
M  V30 22097 C 2166.84 -5.19693 0.824993 0
M  V30 22098 O 2165.86 -5.48966 1.50415 0
M  V30 22099 N 2167.07 -5.79328 -0.36876 0
M  V30 22100 H 2169.83 -2.37048 1.8338 0
M  V30 22101 H 2167.39 -1.18633 1.10172 0
M  V30 22102 H 2169.38 -4.04651 -0.0629984 0
M  V30 22103 H 2167.95 -3.08377 -0.512119 0
M  V30 22104 H 2167.17 -3.42596 1.94991 0
M  V30 22105 H 2168.46 -4.63446 2.09989 0
M  V30 22106 H 2167.86 -5.57871 -0.93792 0
M  V30 22107 H 2166.42 -6.48033 -0.699773 0
M  V30 22108 N 2169.85 -1.00378 -1.21499 0
M  V30 22109 C 2171.27 -0.71638 -1.42619 0
M  V30 22110 C 2171.47 0.70891 -1.88618 0
M  V30 22111 O 2170.52 1.47842 -2.04693 0
M  V30 22112 C 2171.84 -1.7312 -2.45866 0
M  V30 22113 C 2173.38 -1.74788 -2.5965 0
M  V30 22114 C 2173.86 -2.75162 -3.66128 0
M  V30 22115 N 2175.35 -2.73823 -3.73598 0
M  V30 22116 C 2176.08 -3.48149 -4.55609 0
M  V30 22117 N 2175.58 -4.32111 -5.41527 0
M  V30 22118 N 2177.37 -3.36805 -4.50021 0
M  V30 22119 H 2169.52 -1.92412 -0.899518 0
M  V30 22120 H 2171.79 -0.830441 -0.457244 0
M  V30 22121 H 2171.49 -2.75165 -2.19036 0
M  V30 22122 H 2171.37 -1.53287 -3.44649 0
M  V30 22123 H 2173.75 -0.734346 -2.85817 0
M  V30 22124 H 2173.84 -1.98693 -1.61105 0
M  V30 22125 H 2173.48 -3.76671 -3.40707 0
M  V30 22126 H 2173.41 -2.48523 -4.64267 0
M  V30 22127 H 2175.9 -2.12907 -3.12216 0
M  V30 22128 H 2176.21 -4.85624 -6.01156 0
M  V30 22129 H 2174.56 -4.36194 -5.41073 0
M  V30 22130 H 2177.75 -2.70643 -3.81929 0
M  V30 22131 H 2177.92 -3.94986 -5.13702 0
M  V30 22132 N 2171.33 1.37038 -0.778354 0
M  V30 22133 C 2172.55 2.0432 -0.356086 0
M  V30 22134 C 2172.98 1.58315 1.01577 0
M  V30 22135 O 2172.34 0.74645 1.65221 0
M  V30 22136 C 2172.38 3.58196 -0.41573 0
M  V30 22137 O 2171.49 4.08281 0.581416 0
M  V30 22138 H 2170.83 0.646127 -0.153022 0
M  V30 22139 H 2173.36 1.75219 -1.05639 0
M  V30 22140 H 2173.37 4.0707 -0.275375 0
M  V30 22141 H 2172.04 3.91034 -1.41652 0
M  V30 22142 H 2170.62 3.70709 0.403635 0
M  V30 22143 N 2172.81 0.529439 1.48441 0
M  V30 22144 C 2174.22 0.0888387 1.86489 0
M  V30 22145 C 2174.57 -1.33364 1.43905 0
M  V30 22146 O 2173.69 -1.9987 0.829524 0
M  V30 22147 C 2174.29 0.154445 3.38448 0
M  V30 22148 C 2172.85 -0.230958 3.75691 0
M  V30 22149 C 2172 0.514449 2.72486 0
M  V30 22150 H 2174.95 0.740717 1.40353 0
M  V30 22151 H 2174.97 -0.63398 3.75181 0
M  V30 22152 H 2174.48 1.18985 3.69411 0
M  V30 22153 H 2172.58 -1.26853 3.50341 0
M  V30 22154 H 2172.69 0.108275 4.78978 0
M  V30 22155 H 2171.06 -0.039218 2.5467 0
M  V30 22156 H 2171.84 1.55048 3.06293 0
M  V30 22157 N 2174.29 -1.55364 0.264547 0
M  V30 22158 C 2175.2 -2.25763 -0.637821 0
M  V30 22159 C 2176.21 -1.27983 -1.17883 0
M  V30 22160 O 2177.39 -1.60897 -1.21136 0
M  V30 22161 C 2174.45 -2.95689 -1.81021 0
M  V30 22162 C 2173.51 -4.08923 -1.30693 0
M  V30 22163 C 2172.75 -4.75505 -2.42344 0
M  V30 22164 O 2172.97 -4.41244 -3.61469 0
M  V30 22165 O 2171.9 -5.63667 -2.111 0
M  V30 22166 H 2175.73 -3.03624 -0.0678471 0
M  V30 22167 H 2173.31 -1.49365 0.0323545 0
M  V30 22168 H 2175.2 -3.39671 -2.49402 0
M  V30 22169 H 2173.87 -2.20754 -2.36747 0
M  V30 22170 H 2172.78 -3.6942 -0.589885 0
M  V30 22171 H 2174.11 -4.85728 -0.795542 0
M  V30 22172 N 2175.76 0.00833021 -1.57598 0
M  V30 22173 C 2176.71 1.0207 -2.09008 0
M  V30 22174 C 2177.71 1.36126 -1.00826 0
M  V30 22175 O 2178.91 1.34788 -1.19298 0
M  V30 22176 H 2175.29 0.346781 -0.667268 0
M  V30 22177 H 2177.26 0.561462 -2.9307 0
M  V30 22178 C 2176.01 2.30647 -2.60187 0
M  V30 22179 H 2175.33 2.05307 -3.43059 0
M  V30 22180 H 2176.77 2.9978 -2.99847 0
M  V30 22181 C 2175.23 3.01051 -1.51227 0
M  V30 22182 O 2175.76 3.91708 -0.890385 0
M  V30 22183 N 2173.96 2.62734 -1.24175 0
M  V30 22184 H 2173.51 1.89095 -1.74931 0
M  V30 22185 H 2173.47 3.10155 -0.514892 0
M  V30 22186 N 2177.24 1.55075 0.280956 0
M  V30 22187 C 2178.65 1.66097 0.852571 0
M  V30 22188 C 2179 0.582747 1.87346 0
M  V30 22189 O 2178.13 -0.277166 2.14618 0
M  V30 22190 C 2178.72 3.01102 1.55317 0
M  V30 22191 C 2177.28 3.14177 2.07292 0
M  V30 22192 C 2176.43 2.61864 0.912278 0
M  V30 22193 H 2179.38 1.58596 0.0574834 0
M  V30 22194 H 2179.4 2.93646 2.41976 0
M  V30 22195 H 2178.91 3.79555 0.809903 0
M  V30 22196 H 2177.01 2.40482 2.84604 0
M  V30 22197 H 2177.13 4.20627 2.29369 0
M  V30 22198 H 2175.49 2.1882 1.30345 0
M  V30 22199 H 2176.27 3.42814 0.18265 0
M  V30 22200 N 2178.72 -0.545102 1.47873 0
M  V30 22201 C 2179.65 -1.66719 1.55821 0
M  V30 22202 C 2180.63 -1.57357 0.409558 0
M  V30 22203 O 2181.81 -1.78045 0.619059 0
M  V30 22204 C 2178.94 -3.05037 1.47208 0
M  V30 22205 C 2177.99 -3.32805 2.66726 0
M  V30 22206 S 2178.82 -3.20731 4.28826 0
M  V30 22207 C 2179.98 -4.61522 4.22787 0
M  V30 22208 H 2180.21 -1.59724 2.5075 0
M  V30 22209 H 2177.74 -0.726882 1.3622 0
M  V30 22210 H 2179.7 -3.84815 1.42926 0
M  V30 22211 H 2178.36 -3.09486 0.536426 0
M  V30 22212 H 2177.55 -4.33672 2.56797 0
M  V30 22213 H 2177.16 -2.60669 2.68193 0
M  V30 22214 H 2179.45 -5.52729 3.91787 0
M  V30 22215 H 2180.39 -4.76507 5.23781 0
M  V30 22216 H 2180.8 -4.40136 3.53469 0
M  V30 22217 N 2180.2 -1.36208 -0.792797 0
M  V30 22218 C 2181.13 -1.2612 -1.9138 0
M  V30 22219 C 2182.14 -0.181437 -1.61786 0
M  V30 22220 O 2183.33 -0.435871 -1.73097 0
M  V30 22221 C 2180.43 -0.922489 -3.26103 0
M  V30 22222 C 2179.6 -2.10345 -3.83502 0
M  V30 22223 C 2178.66 -1.73833 -4.96657 0
M  V30 22224 O 2177.69 -2.45879 -5.13354 0
M  V30 22225 N 2178.89 -0.670023 -5.7662 0
M  V30 22226 H 2181.66 -2.22705 -2.00556 0
M  V30 22227 H 2179.22 -1.29557 -0.970902 0
M  V30 22228 H 2181.21 -0.659458 -3.99291 0
M  V30 22229 H 2179.78 -0.0458868 -3.12566 0
M  V30 22230 H 2179 -2.52948 -3.02342 0
M  V30 22231 H 2180.29 -2.89252 -4.18582 0
M  V30 22232 H 2179.69 -0.0717267 -5.65655 0
M  V30 22233 H 2178.24 -0.466808 -6.50126 0
M  V30 22234 N 2181.68 1.01656 -1.20431 0
M  V30 22235 C 2182.92 1.75515 -1.016 0
M  V30 22236 C 2183.25 1.88896 0.450791 0
M  V30 22237 O 2182.53 1.4148 1.33468 0
M  V30 22238 C 2182.81 3.17433 -1.70024 0
M  V30 22239 C 2182.67 3.11847 -3.24147 0
M  V30 22240 C 2183.98 4.16105 -1.43334 0
M  V30 22241 H 2181.1 0.637102 -0.370501 0
M  V30 22242 H 2183.75 1.18591 -1.48446 0
M  V30 22243 H 2181.9 3.66035 -1.30195 0
M  V30 22244 H 2183.57 2.71049 -3.7327 0
M  V30 22245 H 2181.81 2.49242 -3.55051 0
M  V30 22246 H 2182.48 4.12169 -3.6718 0
M  V30 22247 H 2184.96 3.76159 -1.77887 0
M  V30 22248 H 2183.83 5.13571 -1.93741 0
M  V30 22249 H 2184.09 4.40624 -0.360952 0
M  V30 22250 N 2183.15 1.01021 1.20965 0
M  V30 22251 C 2184.38 0.714661 1.94698 0
M  V30 22252 C 2184.8 -0.717235 1.73889 0
M  V30 22253 O 2184.16 -1.49265 1.02906 0
M  V30 22254 C 2184.21 1.04769 3.45045 0
M  V30 22255 O 2183.31 0.155818 4.12106 0
M  V30 22256 H 2182.65 0.265768 0.608493 0
M  V30 22257 H 2185.18 1.35186 1.53577 0
M  V30 22258 H 2185.19 0.996722 3.95638 0
M  V30 22259 H 2183.87 2.09099 3.59514 0
M  V30 22260 H 2182.45 0.263764 3.71966 0
M  V30 22261 N 2184.63 -1.36623 0.78561 0
M  V30 22262 C 2185.86 -2.04129 0.366917 0
M  V30 22263 C 2186.28 -1.58852 -1.00736 0
M  V30 22264 O 2185.64 -0.755202 -1.64822 0
M  V30 22265 C 2185.69 -3.5797 0.43472 0
M  V30 22266 O 2184.79 -4.08584 -0.559755 0
M  V30 22267 H 2184.13 -0.645306 0.156447 0
M  V30 22268 H 2186.66 -1.74656 1.06566 0
M  V30 22269 H 2186.67 -4.06918 0.296959 0
M  V30 22270 H 2185.35 -3.90277 1.43724 0
M  V30 22271 H 2183.92 -3.70918 -0.38397 0
M  V30 22272 N 2186.11 -0.537304 -1.48158 0
M  V30 22273 C 2187.34 -0.0101482 -2.06898 0
M  V30 22274 C 2187.75 1.27458 -1.39283 0
M  V30 22275 O 2187.11 1.76 -0.48274 0
M  V30 22276 C 2187.16 0.209896 -3.6089 0
M  V30 22277 O 2186.88 -1.02394 -4.25966 0
M  V30 22278 C 2188.38 0.776601 -4.36444 0
M  V30 22279 H 2185.6 -0.0368227 -0.669989 0
M  V30 22280 H 2188.15 -0.745039 -1.90445 0
M  V30 22281 H 2186.3 0.894855 -3.76923 0
M  V30 22282 H 2186.72 -0.809231 -5.1822 0
M  V30 22283 H 2188.19 0.879955 -5.44941 0
M  V30 22284 H 2188.67 1.78324 -4.01369 0
M  V30 22285 H 2189.27 0.127975 -4.25107 0
M  V30 22286 N 2187.59 1.55221 -0.272782 0
M  V30 22287 C 2188.84 1.99151 0.343986 0
M  V30 22288 C 2189.16 1.16259 1.56553 0
M  V30 22289 O 2188.43 0.25154 1.94278 0
M  V30 22290 H 2187.01 0.735586 0.130087 0
M  V30 22291 H 2189.67 1.91208 -0.377577 0
M  V30 22292 H 2188.77 3.05562 0.635452 0
M  V30 22293 N 2189.07 2.77022e-05 1.576 0
M  V30 22294 C 2190.01 -1.0096 2.09547 0
M  V30 22295 C 2191.01 -1.3559 1.01547 0
M  V30 22296 O 2192.21 -1.34154 1.20012 0
M  V30 22297 H 2188.59 -0.343238 0.669098 0
M  V30 22298 H 2190.56 -0.545912 2.93364 0
M  V30 22299 C 2189.31 -2.29263 2.61407 0
M  V30 22300 H 2188.63 -2.03484 3.44143 0
M  V30 22301 H 2190.07 -2.98185 3.01433 0
M  V30 22302 C 2188.53 -3.00245 1.52822 0
M  V30 22303 O 2189.06 -3.9123 0.911146 0
M  V30 22304 N 2187.27 -2.62071 1.25567 0
M  V30 22305 H 2186.81 -1.88164 1.75932 0
M  V30 22306 H 2186.77 -3.09878 0.531333 0
M  V30 22307 N 2190.54 -1.55222 -0.272728 0
M  V30 22308 C 2191.45 -1.91218 -1.35915 0
M  V30 22309 C 2192.47 -0.809463 -1.54025 0
M  V30 22310 O 2193.65 -1.10855 -1.68146 0
M  V30 22311 C 2190.71 -2.17698 -2.69831 0
M  V30 22312 C 2189.77 -3.41258 -2.60464 0
M  V30 22313 C 2189.01 -3.66465 -3.87994 0
M  V30 22314 O 2189.23 -2.94178 -4.88688 0
M  V30 22315 O 2188.16 -4.59999 -3.88181 0
M  V30 22316 H 2191.99 -2.83701 -1.08385 0
M  V30 22317 H 2189.57 -1.41772 -0.471276 0
M  V30 22318 H 2191.46 -2.36153 -3.49012 0
M  V30 22319 H 2190.13 -1.28397 -2.97146 0
M  V30 22320 H 2189.04 -3.28137 -1.79657 0
M  V30 22321 H 2190.37 -4.30778 -2.38098 0
M  V30 22322 N 2192.02 0.537252 -1.4816 0
M  V30 22323 C 2192.95 1.65187 -1.65032 0
M  V30 22324 C 2193.93 1.62607 -0.499309 0
M  V30 22325 O 2195.12 1.79917 -0.731003 0
M  V30 22326 C 2192.25 3.03792 -1.68308 0
M  V30 22327 C 2191.2 3.21229 -2.82836 0
M  V30 22328 C 2190.53 4.60821 -2.71197 0
M  V30 22329 C 2191.83 3.04693 -4.24216 0
M  V30 22330 H 2193.52 1.51323 -2.58344 0
M  V30 22331 H 2191.07 0.726563 -1.24326 0
M  V30 22332 H 2193.02 3.81634 -1.787 0
M  V30 22333 H 2191.75 3.18662 -0.715691 0
M  V30 22334 H 2190.4 2.45802 -2.71987 0
M  V30 22335 H 2190.05 4.72517 -1.72443 0
M  V30 22336 H 2189.75 4.73434 -3.48043 0
M  V30 22337 H 2191.28 5.40772 -2.83546 0
M  V30 22338 H 2192.69 3.72334 -4.35936 0
M  V30 22339 H 2191.09 3.28804 -5.02004 0
M  V30 22340 H 2192.16 2.01201 -4.41187 0
M  V30 22341 N 2193.5 1.36626 0.785562 0
M  V30 22342 C 2194.46 1.3111 1.87997 0
M  V30 22343 C 2195.46 0.217987 1.59316 0
M  V30 22344 O 2196.65 0.473006 1.67655 0
M  V30 22345 C 2193.79 1.03339 3.2486 0
M  V30 22346 H 2194.98 2.28444 1.94303 0
M  V30 22347 H 2192.53 1.21455 0.983792 0
M  V30 22348 H 2193.27 0.0648002 3.24235 0
M  V30 22349 H 2193.05 1.82447 3.47067 0
M  V30 22350 H 2194.54 1.02095 4.04928 0
M  V30 22351 N 2194.98 -1.01016 1.20969 0
M  V30 22352 C 2196.23 -1.74126 1.01799 0
M  V30 22353 C 2196.54 -1.90361 -0.449657 0
M  V30 22354 O 2197.75 -2.60627 -0.760634 0
M  V30 22355 C 2196.2 -3.13211 1.77276 0
M  V30 22356 C 2195.81 -3.04967 3.28176 0
M  V30 22357 C 2197.55 -3.90486 1.66496 0
M  V30 22358 C 2195.46 -4.391 3.96164 0
M  V30 22359 H 2194.39 -0.652817 0.377288 0
M  V30 22360 H 2197.04 -1.12906 1.44653 0
M  V30 22361 H 2195.42 -3.75011 1.27211 0
M  V30 22362 H 2196.6 -2.52436 3.85503 0
M  V30 22363 H 2194.91 -2.41182 3.39441 0
M  V30 22364 H 2197.51 -4.89734 2.14626 0
M  V30 22365 H 2197.85 -4.11623 0.622272 0
M  V30 22366 H 2198.39 -3.35328 2.14009 0
M  V30 22367 H 2195.13 -4.23165 5.00611 0
M  V30 22368 H 2194.65 -4.91611 3.43625 0
M  V30 22369 H 2196.32 -5.07919 4.00783 0
M  V30 22370 N 2196.46 -1.01661 -1.20428 0
M  V30 22371 C 2197.87 -0.731467 -1.41851 0
M  V30 22372 C 2198.07 0.688865 -1.89359 0
M  V30 22373 O 2197.13 1.45662 -2.06249 0
M  V30 22374 C 2198.44 -1.75718 -2.44016 0
M  V30 22375 C 2199.99 -1.77532 -2.57782 0
M  V30 22376 C 2200.46 -2.7903 -3.63189 0
M  V30 22377 N 2201.96 -2.7777 -3.70673 0
M  V30 22378 C 2202.69 -3.52962 -4.51891 0
M  V30 22379 N 2202.19 -4.3783 -5.36914 0
M  V30 22380 N 2203.98 -3.41559 -4.46424 0
M  V30 22381 H 2196.13 -1.93355 -0.879059 0
M  V30 22382 H 2198.39 -0.835244 -0.448411 0
M  V30 22383 H 2198.1 -2.77473 -2.16105 0
M  V30 22384 H 2197.97 -1.56933 -3.43004 0
M  V30 22385 H 2200.36 -0.764619 -2.85022 0
M  V30 22386 H 2200.44 -2.0039 -1.58989 0
M  V30 22387 H 2200.09 -3.80264 -3.36693 0
M  V30 22388 H 2200.02 -2.53433 -4.61605 0
M  V30 22389 H 2202.51 -2.16206 -3.09941 0
M  V30 22390 H 2202.82 -4.91973 -5.95972 0
M  V30 22391 H 2201.16 -4.41908 -5.36416 0
M  V30 22392 H 2204.36 -2.74679 -3.79037 0
M  V30 22393 H 2204.53 -4.00413 -5.09484 0
M  V30 22394 N 2197.93 1.36205 -0.792844 0
M  V30 22395 C 2199.18 1.9915 -0.366821 0
M  V30 22396 C 2199.51 1.62921 1.0624 0
M  V30 22397 O 2198.76 0.877473 1.74925 0
M  V30 22398 C 2199.06 3.54141 -0.481564 0
M  V30 22399 C 2198.73 4.10199 -1.87209 0
M  V30 22400 C 2197.39 4.25222 -2.25255 0
M  V30 22401 C 2199.74 4.40715 -2.78245 0
M  V30 22402 C 2197.07 4.68072 -3.53731 0
M  V30 22403 C 2199.42 4.84998 -4.06152 0
M  V30 22404 C 2198.09 4.98226 -4.44215 0
M  V30 22405 H 2197.36 0.728741 -0.134229 0
M  V30 22406 H 2200 1.6264 -1.01097 0
M  V30 22407 H 2198.31 3.91026 0.246077 0
M  V30 22408 H 2200.01 4.0078 -0.132915 0
M  V30 22409 H 2196.6 3.98949 -1.56646 0
M  V30 22410 H 2200.78 4.28674 -2.50104 0
M  V30 22411 H 2196.04 4.76501 -3.83088 0
M  V30 22412 H 2200.21 5.07573 -4.76805 0
M  V30 22413 H 2197.84 5.31187 -5.43823 0
M  V30 22414 N 2199.41 0.545154 1.47871 0
M  V30 22415 C 2200.36 -0.20926 2.29849 0
M  V30 22416 C 2201.33 -0.919683 1.38315 0
M  V30 22417 O 2202.51 -0.917743 1.67279 0
M  V30 22418 C 2199.65 -1.24083 3.22021 0
M  V30 22419 C 2198.77 -0.537702 4.28641 0
M  V30 22420 C 2197.9 -1.55351 5.07976 0
M  V30 22421 C 2196.94 -0.834694 6.06382 0
M  V30 22422 N 2196.08 -1.79676 6.7872 0
M  V30 22423 H 2200.92 0.495962 2.93844 0
M  V30 22424 H 2198.46 0.256415 1.44848 0
M  V30 22425 H 2200.41 -1.85137 3.73872 0
M  V30 22426 H 2199.04 -1.91424 2.59917 0
M  V30 22427 H 2198.1 0.187112 3.7994 0
M  V30 22428 H 2199.41 0.0259783 4.98793 0
M  V30 22429 H 2198.56 -2.23793 5.63916 0
M  V30 22430 H 2197.3 -2.1511 4.37697 0
M  V30 22431 H 2196.31 -0.136291 5.49631 0
M  V30 22432 H 2197.53 -0.24301 6.78665 0
M  V30 22433 H 2195.48 -2.38315 6.11181 0
M  V30 22434 H 2195.39 -1.28492 7.45001 0
M  V30 22435 H 2196.66 -2.47269 7.39242 0
M  V30 22436 N 2200.89 -1.55074 0.28101 0
M  V30 22437 C 2202.12 -2.04133 -0.337257 0
M  V30 22438 C 2202.53 -1.15915 -1.49028 0
M  V30 22439 O 2201.89 -0.180491 -1.81605 0
M  V30 22440 C 2201.94 -3.52248 -0.812644 0
M  V30 22441 O 2201.66 -4.37109 0.294464 0
M  V30 22442 C 2203.16 -4.17218 -1.49812 0
M  V30 22443 H 2200.38 -0.666665 -0.0761521 0
M  V30 22444 H 2202.93 -2.00249 0.414822 0
M  V30 22445 H 2201.08 -3.56557 -1.5148 0
M  V30 22446 H 2201.5 -5.24451 -0.0720403 0
M  V30 22447 H 2202.97 -5.22441 -1.78211 0
M  V30 22448 H 2203.45 -3.65745 -2.43161 0
M  V30 22449 H 2204.05 -4.16929 -0.839669 0
M  V30 22450 N 2202.37 -0.00838561 -1.57598 0
M  V30 22451 C 2203.65 0.712203 -1.82173 0
M  V30 22452 C 2204.03 1.91519 -0.887907 0
M  V30 22453 O 2203.37 2.28417 0.0614199 0
M  V30 22454 C 2203.58 1.11002 -3.30877 0
M  V30 22455 C 2204.93 1.51037 -3.96829 0
M  V30 22456 O 2205.96 1.20358 -3.3525 0
M  V30 22457 O 2204.82 2.08116 -5.05322 0
M  V30 22458 H 2201.91 0.347515 -0.750441 0
M  V30 22459 H 2204.46 -0.0344821 -1.69665 0
M  V30 22460 H 2203.23 0.252913 -3.90482 0
M  V30 22461 H 2202.85 1.91554 -3.48415 0
M  V30 22462 N 2203.85 1.55365 0.264492 0
M  V30 22463 C 2204.78 1.91838 1.33117 0
M  V30 22464 C 2205.76 0.781219 1.51099 0
M  V30 22465 O 2206.94 1.04006 1.64001 0
M  V30 22466 C 2204.07 2.19774 2.68918 0
M  V30 22467 C 2203.03 3.35576 2.65655 0
M  V30 22468 C 2202.35 3.49011 4.05087 0
M  V30 22469 C 2203.65 4.71743 2.24179 0
M  V30 22470 H 2205.35 2.81184 1.02839 0
M  V30 22471 H 2202.89 1.35288 0.493263 0
M  V30 22472 H 2204.85 2.43878 3.43659 0
M  V30 22473 H 2203.57 1.27236 3.00796 0
M  V30 22474 H 2202.23 3.11453 1.93371 0
M  V30 22475 H 2201.88 2.53924 4.34202 0
M  V30 22476 H 2201.58 4.26875 4.03797 0
M  V30 22477 H 2203.1 3.75417 4.81554 0
M  V30 22478 H 2204.52 4.95335 2.88646 0
M  V30 22479 H 2202.91 5.52583 2.34034 0
M  V30 22480 H 2203.98 4.6999 1.19319 0
M  V30 22481 N 2205.33 -0.529387 1.48443 0
M  V30 22482 C 2206.55 -1.31468 1.60409 0
M  V30 22483 C 2206.98 -1.86227 0.264771 0
M  V30 22484 O 2206.33 -1.64433 -0.763639 0
M  V30 22485 C 2206.38 -2.44096 2.65423 0
M  V30 22486 O 2205.49 -3.47149 2.22624 0
M  V30 22487 H 2204.83 -0.389348 0.53787 0
M  V30 22488 H 2207.36 -0.636931 1.94433 0
M  V30 22489 H 2207.37 -2.90274 2.86715 0
M  V30 22490 H 2206.04 -2.03601 3.62656 0
M  V30 22491 H 2204.62 -3.07086 2.11548 0
M  V30 22492 N 2206.8 -1.37041 -0.778305 0
M  V30 22493 C 2208.05 -1.31213 -1.53187 0
M  V30 22494 C 2208.37 0.103061 -1.95328 0
M  V30 22495 O 2209.57 0.283779 -2.70013 0
M  V30 22496 C 2208.03 -2.30277 -2.76587 0
M  V30 22497 C 2207.64 -3.7729 -2.4157 0
M  V30 22498 C 2209.38 -2.33447 -3.54546 0
M  V30 22499 C 2207.29 -4.68103 -3.61433 0
M  V30 22500 H 2206.22 -0.487633 -0.575092 0
M  V30 22501 H 2208.87 -1.62465 -0.853073 0
M  V30 22502 H 2207.25 -1.92033 -3.46322 0
M  V30 22503 H 2208.42 -4.24333 -1.7966 0
M  V30 22504 H 2206.74 -3.77002 -1.768 0
M  V30 22505 H 2209.34 -2.98501 -4.43623 0
M  V30 22506 H 2209.68 -1.34618 -3.93934 0
M  V30 22507 H 2210.21 -2.70365 -2.91801 0
M  V30 22508 H 2206.95 -5.68036 -3.27132 0
M  V30 22509 H 2206.47 -4.25768 -4.2247 0
M  V30 22510 H 2208.15 -4.84918 -4.28327 0
M  V30 22511 N 2208.28 1.00373 -1.21503 0
M  V30 22512 C 2209.23 2.11295 -0.972479 0
M  V30 22513 C 2210.22 1.69208 0.0807013 0
M  V30 22514 O 2211.43 1.79861 -0.0707982 0
M  V30 22515 H 2207.8 0.690767 -0.29723 0
M  V30 22516 H 2209.78 2.2893 -1.91399 0
M  V30 22517 C 2208.52 3.4324 -0.555125 0
M  V30 22518 H 2207.85 3.7606 -1.35716 0
M  V30 22519 H 2209.29 4.21867 -0.424739 0
M  V30 22520 C 2207.75 3.28805 0.73409 0
M  V30 22521 O 2208.28 3.59648 1.7893 0
M  V30 22522 N 2206.48 2.82016 0.701083 0
M  V30 22523 H 2206.03 2.57115 -0.157919 0
M  V30 22524 H 2205.99 2.7274 1.56398 0
M  V30 22525 N 2209.76 1.02298 1.19887 0
M  V30 22526 C 2211.01 0.714591 1.89045 0
M  V30 22527 C 2211.33 -0.758649 1.79637 0
M  V30 22528 O 2210.6 -1.54616 1.20294 0
M  V30 22529 H 2209.18 0.261329 0.699797 0
M  V30 22530 H 2211.84 1.29595 1.45572 0
M  V30 22531 H 2210.94 1.00365 2.95522 0
M  V30 22532 N 2211.24 -1.35782 0.800057 0
M  V30 22533 C 2212.65 -1.52116 0.483004 0
M  V30 22534 C 2212.85 -1.75111 -0.996917 0
M  V30 22535 O 2211.91 -1.78875 -1.78213 0
M  V30 22536 C 2213.22 -2.70047 1.32269 0
M  V30 22537 C 2214.77 -2.83922 1.31747 0
M  V30 22538 C 2215.25 -4.0487 2.14113 0
M  V30 22539 N 2216.74 -4.12036 2.11615 0
M  V30 22540 C 2217.47 -5.04722 2.72108 0
M  V30 22541 N 2216.97 -6.02783 3.41503 0
M  V30 22542 N 2218.76 -4.97419 2.61785 0
M  V30 22543 H 2210.91 -1.19112 1.75858 0
M  V30 22544 H 2213.17 -0.582239 0.748132 0
M  V30 22545 H 2212.88 -2.59611 2.37265 0
M  V30 22546 H 2212.75 -3.64478 0.971367 0
M  V30 22547 H 2215.14 -2.93812 0.275385 0
M  V30 22548 H 2215.22 -1.90367 1.70862 0
M  V30 22549 H 2214.87 -3.95741 3.18358 0
M  V30 22550 H 2214.8 -4.97593 1.72361 0
M  V30 22551 H 2217.29 -3.41832 1.61118 0
M  V30 22552 H 2217.6 -6.70091 3.84964 0
M  V30 22553 H 2215.95 -6.02977 3.45606 0
M  V30 22554 H 2219.14 -4.19763 2.07164 0
M  V30 22555 H 2219.31 -5.69462 3.0922 0
M  V30 22556 N 2212.72 -0.552988 -1.4758 0
M  V30 22557 C 2213.96 -0.0273058 -2.02082 0
M  V30 22558 C 2214.28 1.32561 -1.43013 0
M  V30 22559 O 2213.55 1.86363 -0.603778 0
M  V30 22560 H 2212.13 -0.00710495 -0.746966 0
M  V30 22561 H 2214.8 -0.72204 -1.81032 0
M  V30 22562 H 2213.89 0.0639403 -3.12034 0
M  V30 22563 N 2214.19 1.54923 -0.28923 0
M  V30 22564 C 2215.44 1.999 0.323483 0
M  V30 22565 C 2215.77 1.17765 1.54795 0
M  V30 22566 O 2215.02 0.238869 1.94237 0
M  V30 22567 C 2215.32 3.49738 0.736058 0
M  V30 22568 C 2214.99 4.4925 -0.385354 0
M  V30 22569 C 2213.65 4.7618 -0.69324 0
M  V30 22570 C 2216 5.08573 -1.1403 0
M  V30 22571 C 2213.33 5.59698 -1.7594 0
M  V30 22572 C 2215.68 5.9325 -2.19629 0
M  V30 22573 C 2214.35 6.18496 -2.51037 0
M  V30 22574 H 2213.62 0.731484 0.118371 0
M  V30 22575 H 2216.26 1.87149 -0.40588 0
M  V30 22576 H 2214.57 3.60038 1.54532 0
M  V30 22577 H 2216.27 3.81955 1.22112 0
M  V30 22578 H 2212.86 4.28386 -0.135277 0
M  V30 22579 H 2217.04 4.87779 -0.915696 0
M  V30 22580 H 2212.3 5.77499 -2.0076 0
M  V30 22581 H 2216.47 6.38247 -2.78593 0
M  V30 22582 H 2214.1 6.83002 -3.33784 0
M  V30 22583 N 2215.67 0.0167433 1.57591 0
M  V30 22584 C 2216.62 -0.987316 2.10606 0
M  V30 22585 C 2217.61 -1.34505 1.02979 0
M  V30 22586 O 2218.82 -1.32873 1.21428 0
M  V30 22587 H 2215.19 -0.336122 0.672701 0
M  V30 22588 H 2217.17 -0.514766 2.93926 0
M  V30 22589 C 2215.91 -2.26478 2.63824 0
M  V30 22590 H 2215.24 -1.99823 3.46282 0
M  V30 22591 H 2216.68 -2.94971 3.04578 0
M  V30 22592 C 2215.14 -2.98607 1.55998 0
M  V30 22593 O 2215.67 -3.90242 0.95259 0
M  V30 22594 N 2213.87 -2.60725 1.28339 0
M  V30 22595 H 2213.42 -1.86288 1.77918 0
M  V30 22596 H 2213.38 -3.09297 0.564169 0
M  V30 22597 N 2217.15 -1.55503 -0.256249 0
M  V30 22598 C 2218.11 -1.88736 -1.30043 0
M  V30 22599 C 2219.11 -0.76311 -1.41539 0
M  V30 22600 O 2220.3 -1.03118 -1.40401 0
M  V30 22601 C 2217.44 -2.10751 -2.67949 0
M  V30 22602 H 2218.63 -2.82094 -1.01798 0
M  V30 22603 H 2216.18 -1.48251 -0.495108 0
M  V30 22604 H 2216.92 -1.19831 -3.01349 0
M  V30 22605 H 2216.7 -2.92622 -2.60988 0
M  V30 22606 H 2218.19 -2.37679 -3.43364 0
M  V30 22607 N 2218.63 0.521507 -1.48721 0
M  V30 22608 C 2219.85 1.30615 -1.61104 0
M  V30 22609 C 2220.28 1.86084 -0.274643 0
M  V30 22610 O 2219.64 1.64836 0.754908 0
M  V30 22611 C 2219.68 2.42685 -2.66714 0
M  V30 22612 O 2218.79 3.45963 -2.24462 0
M  V30 22613 H 2218.13 0.38649 -0.539927 0
M  V30 22614 H 2220.66 0.626611 -1.94768 0
M  V30 22615 H 2220.67 2.88749 -2.8825 0
M  V30 22616 H 2219.34 2.01675 -3.63731 0
M  V30 22617 H 2217.92 3.0596 -2.13174 0
M  V30 22618 N 2220.11 1.37452 0.771027 0
M  V30 22619 C 2221.35 1.33903 1.53106 0
M  V30 22620 C 2221.71 -0.0758063 1.92251 0
M  V30 22621 O 2221 -1.0346 1.61266 0
M  V30 22622 C 2221.19 2.21264 2.80672 0
M  V30 22623 C 2221.02 3.71101 2.53997 0
M  V30 22624 C 2219.79 4.40204 2.48089 0
M  V30 22625 C 2221.99 4.63945 2.21945 0
M  V30 22626 N 2219.97 5.75577 2.13505 0
M  V30 22627 C 2221.34 5.877 1.97505 0
M  V30 22628 C 2223.4 4.52323 2.08106 0
M  V30 22629 C 2222.1 7.01136 1.60625 0
M  V30 22630 C 2224.13 5.65645 1.72626 0
M  V30 22631 C 2223.49 6.88451 1.49048 0
M  V30 22632 H 2219.59 0.545269 0.56054 0
M  V30 22633 H 2222.17 1.72679 0.899441 0
M  V30 22634 H 2220.34 1.84704 3.41671 0
M  V30 22635 H 2222.08 2.08969 3.46575 0
M  V30 22636 H 2218.83 3.93215 2.63967 0
M  V30 22637 H 2219.26 6.47121 1.98907 0
M  V30 22638 H 2223.9 3.57948 2.25018 0
M  V30 22639 H 2221.62 7.95445 1.42453 0
M  V30 22640 H 2225.2 5.58624 1.62576 0
M  V30 22641 H 2224.08 7.74652 1.22 0
M  V30 22642 N 2221.58 -0.997276 1.22033 0
M  V30 22643 C 2222.52 -2.08844 0.944299 0
M  V30 22644 C 2223.53 -1.62625 -0.0754377 0
M  V30 22645 O 2224.72 -1.77799 0.158026 0
M  V30 22646 C 2221.82 -3.36557 0.397782 0
M  V30 22647 C 2220.99 -4.11826 1.4737 0
M  V30 22648 C 2220.05 -5.17826 0.935042 0
M  V30 22649 O 2219.08 -5.45652 1.62025 0
M  V30 22650 N 2220.28 -5.79979 -0.245793 0
M  V30 22651 H 2223.04 -2.33105 1.88367 0
M  V30 22652 H 2220.6 -1.1627 1.12663 0
M  V30 22653 H 2222.6 -4.04694 0.0228482 0
M  V30 22654 H 2221.17 -3.09393 -0.446592 0
M  V30 22655 H 2220.39 -3.38383 2.02214 0
M  V30 22656 H 2221.67 -4.58887 2.19772 0
M  V30 22657 H 2221.07 -5.59734 -0.819377 0
M  V30 22658 H 2219.63 -6.49371 -0.562158 0
M  V30 22659 N 2223.06 -1.02932 -1.19343 0
M  V30 22660 C 2224.03 -0.615107 -2.20792 0
M  V30 22661 C 2225.03 0.321505 -1.57553 0
M  V30 22662 O 2226.22 0.108453 -1.73862 0
M  V30 22663 C 2223.35 0.0998623 -3.40754 0
M  V30 22664 H 2224.54 -1.51273 -2.58952 0
M  V30 22665 H 2222.09 -0.820558 -1.33028 0
M  V30 22666 H 2222.83 1.01182 -3.08112 0
M  V30 22667 H 2222.61 -0.573158 -3.87888 0
M  V30 22668 H 2224.1 0.376572 -4.15899 0
M  V30 22669 N 2224.54 1.35356 -0.807246 0
M  V30 22670 C 2225.79 1.99044 -0.388498 0
M  V30 22671 C 2226.12 1.6389 1.04181 0
M  V30 22672 O 2225.39 0.902565 1.7229 0
M  V30 22673 C 2225.68 3.55514 -0.572846 0
M  V30 22674 C 2225.53 4.00464 -2.04814 0
M  V30 22675 C 2226.85 4.401 0.00106328 0
M  V30 22676 H 2223.97 0.723067 -0.142631 0
M  V30 22677 H 2226.61 1.60496 -1.0169 0
M  V30 22678 H 2224.76 3.88482 -0.0379108 0
M  V30 22679 H 2226.43 3.77903 -2.6455 0
M  V30 22680 H 2224.68 3.51349 -2.54433 0
M  V30 22681 H 2225.35 5.09333 -2.128 0
M  V30 22682 H 2227.82 4.13596 -0.455788 0
M  V30 22683 H 2226.7 5.48673 -0.157833 0
M  V30 22684 H 2226.96 4.2833 1.09481 0
M  V30 22685 N 2226.02 0.560807 1.47284 0
M  V30 22686 C 2227.25 0.0430626 2.06855 0
M  V30 22687 C 2227.66 -1.25226 1.41293 0
M  V30 22688 O 2227.02 -1.75209 0.510679 0
M  V30 22689 C 2227.07 -0.152455 3.61178 0
M  V30 22690 O 2226.79 1.09158 4.24283 0
M  V30 22691 C 2228.29 -0.707068 4.37625 0
M  V30 22692 H 2225.51 0.047477 0.669318 0
M  V30 22693 H 2228.06 0.775243 1.89236 0
M  V30 22694 H 2226.21 -0.834777 3.78299 0
M  V30 22695 H 2226.62 0.891573 5.16867 0
M  V30 22696 H 2228.1 -0.793148 5.46272 0
M  V30 22697 H 2228.58 -1.71916 4.04155 0
M  V30 22698 H 2229.18 -0.0603279 4.25257 0
M  V30 22699 N 2227.5 -1.54768 0.297442 0
M  V30 22700 C 2228.74 -1.99673 -0.31226 0
M  V30 22701 C 2229.07 -1.18735 -1.54684 0
M  V30 22702 O 2228.34 -0.282416 -1.93854 0
M  V30 22703 H 2226.92 -0.737562 -0.118368 0
M  V30 22704 H 2229.58 -1.90583 0.407949 0
M  V30 22705 H 2228.67 -3.06535 -0.586759 0
M  V30 22706 N 2228.97 -0.0251005 -1.5758 0
M  V30 22707 C 2230.22 0.653118 -1.91256 0
M  V30 22708 C 2230.54 1.72899 -0.901721 0
M  V30 22709 O 2229.81 1.95816 0.0573441 0
M  V30 22710 H 2228.39 0.24423 -0.705947 0
M  V30 22711 H 2231.06 -0.0719551 -1.94767 0
M  V30 22712 H 2230.15 1.10842 -2.91754 0
M  V30 22713 N 2230.45 1.55637 0.247999 0
M  V30 22714 C 2231.69 1.7918 0.983561 0
M  V30 22715 C 2232.06 0.594446 1.82566 0
M  V30 22716 O 2233.26 0.708629 2.59291 0
M  V30 22717 C 2231.53 3.07457 1.82222 0
M  V30 22718 S 2233.09 3.52217 2.61703 0
M  V30 22719 H 2229.91 0.62933 0.330855 0
M  V30 22720 H 2232.51 1.93875 0.251528 0
M  V30 22721 H 2231.21 3.9267 1.19326 0
M  V30 22722 H 2230.74 2.95497 2.59702 0
M  V30 22723 H 2232.76 3.13463 3.84649 0
M  V30 22724 N 2231.93 -0.513613 1.48996 0
M  V30 22725 C 2233.18 -1.26601 1.57533 0
M  V30 22726 C 2233.5 -1.93282 0.25827 0
M  V30 22727 O 2232.77 -1.82131 -0.72147 0
M  V30 22728 H 2231.35 -0.470266 0.580396 0
M  V30 22729 H 2234.01 -0.596341 1.85553 0
M  V30 22730 H 2233.11 -2.03664 2.36489 0
M  V30 22731 N 2233.41 -1.37859 -0.763727 0
M  V30 22732 C 2234.66 -1.33245 -1.51954 0
M  V30 22733 C 2234.98 0.0801367 -1.94835 0
M  V30 22734 O 2234.25 1.02579 -1.66896 0
M  V30 22735 H 2232.83 -0.49025 -0.563617 0
M  V30 22736 H 2235.49 -1.72432 -0.908474 0
M  V30 22737 H 2234.59 -1.97673 -2.4152 0
M  V30 22738 N 2234.89 0.990791 -1.22561 0
M  V30 22739 C 2236.14 1.72485 -1.04556 0
M  V30 22740 C 2236.45 1.91053 0.419316 0
M  V30 22741 O 2237.66 2.61804 0.719075 0
M  V30 22742 C 2236.11 3.10351 -1.82236 0
M  V30 22743 C 2235.72 2.99707 -3.32986 0
M  V30 22744 C 2237.46 3.87788 -1.72687 0
M  V30 22745 C 2235.37 4.32741 -4.03099 0
M  V30 22746 H 2234.3 0.646732 -0.387626 0
M  V30 22747 H 2236.95 1.10591 -1.46431 0
M  V30 22748 H 2235.33 3.7294 -1.33161 0
M  V30 22749 H 2236.51 2.46271 -3.89471 0
M  V30 22750 H 2234.82 2.35752 -3.43235 0
M  V30 22751 H 2237.42 4.86258 -2.2239 0
M  V30 22752 H 2237.76 4.10581 -0.687679 0
M  V30 22753 H 2238.3 3.31881 -2.19316 0
M  V30 22754 H 2235.03 4.15147 -5.0728 0
M  V30 22755 H 2234.55 4.86082 -3.51403 0
M  V30 22756 H 2236.23 5.01479 -4.08813 0
M  V30 22757 N 2236.37 1.03564 1.18795 0
M  V30 22758 C 2237.61 0.736056 1.88649 0
M  V30 22759 C 2237.94 -0.735857 1.80043 0
M  V30 22760 O 2237.2 -1.55223 1.19182 0
M  V30 22761 C 2237.49 1.14123 3.3869 0
M  V30 22762 C 2237.16 2.61256 3.675 0
M  V30 22763 C 2235.82 3.01453 3.75072 0
M  V30 22764 C 2238.17 3.56415 3.80287 0
M  V30 22765 C 2235.5 4.35707 3.92907 0
M  V30 22766 C 2237.85 4.90381 3.99636 0
M  V30 22767 C 2236.52 5.30256 4.05443 0
M  V30 22768 H 2235.79 0.269342 0.690316 0
M  V30 22769 H 2238.44 1.29973 1.40639 0
M  V30 22770 H 2236.74 0.49627 3.88644 0
M  V30 22771 H 2238.44 0.886858 3.9107 0
M  V30 22772 H 2235.03 2.29119 3.62219 0
M  V30 22773 H 2239.21 3.26508 3.73773 0
M  V30 22774 H 2234.47 4.66128 3.95645 0
M  V30 22775 H 2238.64 5.64024 4.08473 0
M  V30 22776 H 2236.27 6.34295 4.19015 0
M  V30 22777 N 2237.84 -1.34926 0.814413 0
M  V30 22778 C 2238.78 -2.28429 0.187874 0
M  V30 22779 C 2239.79 -1.50641 -0.617348 0
M  V30 22780 O 2240.98 -1.72776 -0.448424 0
M  V30 22781 C 2238.08 -3.30362 -0.755904 0
M  V30 22782 C 2237.25 -4.374 0.00464374 0
M  V30 22783 C 2236.31 -5.19145 -0.858785 0
M  V30 22784 O 2235.34 -5.68372 -0.306868 0
M  V30 22785 N 2236.54 -5.3802 -2.17979 0
M  V30 22786 H 2239.3 -2.82836 0.991154 0
M  V30 22787 H 2236.86 -1.47359 0.670587 0
M  V30 22788 H 2238.86 -3.81944 -1.33793 0
M  V30 22789 H 2237.43 -2.76413 -1.45996 0
M  V30 22790 H 2236.65 -3.86648 0.767933 0
M  V30 22791 H 2237.93 -5.06048 0.528511 0
M  V30 22792 H 2237.33 -4.99684 -2.65203 0
M  V30 22793 H 2235.89 -5.92752 -2.71087 0
M  V30 22794 N 2239.32 -0.56861 -1.46985 0
M  V30 22795 C 2240.28 0.162326 -2.28624 0
M  V30 22796 C 2241.28 0.832078 -1.37598 0
M  V30 22797 O 2242.47 0.686192 -1.60116 0
M  V30 22798 C 2239.61 1.23873 -3.17598 0
M  V30 22799 H 2240.8 -0.554951 -2.94721 0
M  V30 22800 H 2238.35 -0.326003 -1.52862 0
M  V30 22801 H 2239.09 1.98804 -2.56218 0
M  V30 22802 H 2238.87 0.763151 -3.84602 0
M  V30 22803 H 2240.36 1.75178 -3.79081 0
M  V30 22804 N 2240.8 1.54608 -0.305646 0
M  V30 22805 C 2242.21 1.85771 0.186065 0
M  V30 22806 C 2242.56 1.22753 1.53056 0
M  V30 22807 O 2241.69 0.526929 2.09887 0
M  V30 22808 C 2242.28 3.37045 0.34439 0
M  V30 22809 C 2240.84 3.68223 0.780319 0
M  V30 22810 C 2239.99 2.77087 -0.108603 0
M  V30 22811 H 2242.94 1.49712 -0.526512 0
M  V30 22812 H 2242.96 3.61799 1.17822 0
M  V30 22813 H 2242.47 3.82881 -0.634302 0
M  V30 22814 H 2240.57 3.27907 1.7694 0
M  V30 22815 H 2240.69 4.75372 0.596488 0
M  V30 22816 H 2239.05 2.51331 0.412887 0
M  V30 22817 H 2239.83 3.25745 -1.08373 0
M  V30 22818 N 2242.28 0.033457 1.57564 0
M  V30 22819 C 2243.5 -0.657861 1.9669 0
M  V30 22820 C 2243.93 -1.64618 0.910086 0
M  V30 22821 O 2243.29 -1.80844 -0.128566 0
M  V30 22822 C 2243.33 -1.33677 3.34907 0
M  V30 22823 O 2242.44 -2.45213 3.31578 0
M  V30 22824 H 2241.78 -0.172478 0.641208 0
M  V30 22825 H 2244.31 0.096598 2.04372 0
M  V30 22826 H 2244.32 -1.69256 3.71236 0
M  V30 22827 H 2242.99 -0.612339 4.11368 0
M  V30 22828 H 2241.57 -2.11714 3.06972 0
M  V30 22829 N 2243.76 -1.55766 -0.239741 0
M  V30 22830 C 2245 -1.77581 -0.96486 0
M  V30 22831 C 2245.32 -0.598732 -1.85581 0
M  V30 22832 O 2244.59 0.385193 -1.92076 0
M  V30 22833 H 2243.17 -0.65494 -0.359253 0
M  V30 22834 H 2245.84 -1.93212 -0.255967 0
M  V30 22835 H 2244.93 -2.69011 -1.58238 0
M  V30 22836 N 2245.23 0.505704 -1.49266 0
M  V30 22837 C 2246.14 1.63424 -1.68315 0
M  V30 22838 C 2247.16 1.64547 -0.56571 0
M  V30 22839 O 2248.34 1.83054 -0.839833 0
M  V30 22840 C 2245.4 2.9981 -1.74112 0
M  V30 22841 C 2244.46 3.0935 -2.97659 0
M  V30 22842 C 2243.69 4.3923 -3.03171 0
M  V30 22843 O 2243.92 5.27755 -2.16405 0
M  V30 22844 O 2242.85 4.53645 -3.95588 0
M  V30 22845 H 2246.68 1.50284 -2.6391 0
M  V30 22846 H 2244.26 0.681478 -1.32952 0
M  V30 22847 H 2246.14 3.80877 -1.80306 0
M  V30 22848 H 2244.82 3.13221 -0.816956 0
M  V30 22849 H 2243.73 2.27488 -2.96985 0
M  V30 22850 H 2245.06 3.00864 -3.8954 0
M  V30 22851 N 2246.71 1.38262 0.756405 0
M  V30 22852 C 2247.96 1.33633 1.5108 0
M  V30 22853 C 2248.27 -0.0719725 1.95468 0
M  V30 22854 O 2249.48 -0.240786 2.7043 0
M  V30 22855 C 2247.94 2.34648 2.72888 0
M  V30 22856 C 2247.54 3.81085 2.35537 0
M  V30 22857 C 2249.29 2.39058 3.50787 0
M  V30 22858 C 2247.2 4.73794 3.5394 0
M  V30 22859 H 2246.13 0.49672 0.567261 0
M  V30 22860 H 2248.78 1.63802 0.827118 0
M  V30 22861 H 2247.16 1.97519 3.43223 0
M  V30 22862 H 2248.33 4.27138 1.72887 0
M  V30 22863 H 2246.65 3.79767 1.7078 0
M  V30 22864 H 2249.24 3.05521 4.38818 0
M  V30 22865 H 2249.59 1.40868 3.91742 0
M  V30 22866 H 2250.12 2.74973 2.87462 0
M  V30 22867 H 2246.86 5.73169 3.18053 0
M  V30 22868 H 2246.38 4.32436 4.15643 0
M  V30 22869 H 2248.06 4.91671 4.20558 0
M  V30 22870 N 2248.19 -0.984277 1.23084 0
M  V30 22871 C 2249.14 -2.06064 0.975786 0
M  V30 22872 C 2250.12 -1.60717 -0.0767969 0
M  V30 22873 O 2251.32 -1.76486 0.134836 0
M  V30 22874 C 2248.45 -3.38623 0.564733 0
M  V30 22875 C 2247.53 -3.9058 1.65251 0
M  V30 22876 N 2247.92 -4.15661 2.88201 0
M  V30 22877 C 2246.22 -4.19074 1.52619 0
M  V30 22878 C 2246.92 -4.58018 3.58601 0
M  V30 22879 N 2245.9 -4.6222 2.86101 0
M  V30 22880 H 2249.7 -2.23408 1.90961 0
M  V30 22881 H 2247.21 -1.16673 1.12965 0
M  V30 22882 H 2249.21 -4.15314 0.363293 0
M  V30 22883 H 2247.87 -3.22675 -0.36209 0
M  V30 22884 H 2248.88 -4.03598 3.24544 0
M  V30 22885 H 2245.56 -4.12151 0.666193 0
M  V30 22886 H 2246.95 -4.85974 4.63982 0
M  V30 22887 N 2249.67 -1.04192 -1.18244 0
M  V30 22888 C 2250.89 -0.76603 -1.92735 0
M  V30 22889 C 2251.32 0.670879 -1.75729 0
M  V30 22890 O 2250.68 1.46484 -1.06827 0
M  V30 22891 C 2250.72 -1.13881 -3.42146 0
M  V30 22892 O 2249.83 -0.265026 -4.11548 0
M  V30 22893 H 2249.17 -0.281807 -0.601233 0
M  V30 22894 H 2251.7 -1.3921 -1.49939 0
M  V30 22895 H 2251.71 -1.10127 -3.92856 0
M  V30 22896 H 2250.38 -2.18558 -3.53844 0
M  V30 22897 H 2248.96 -0.362291 -3.71136 0
M  V30 22898 N 2251.15 1.34492 -0.821557 0
M  V30 22899 C 2252.56 1.80739 -0.467988 0
M  V30 22900 C 2252.91 1.68117 1.01148 0
M  V30 22901 O 2252.03 1.22039 1.78705 0
M  V30 22902 C 2252.63 3.28153 -0.842684 0
M  V30 22903 C 2251.19 3.72484 -0.541504 0
M  V30 22904 C 2250.33 2.56227 -1.06033 0
M  V30 22905 H 2253.29 1.22259 -1.01185 0
M  V30 22906 H 2253.31 3.8022 -0.145943 0
M  V30 22907 H 2252.82 3.37308 -1.91951 0
M  V30 22908 H 2250.92 3.68869 0.52597 0
M  V30 22909 H 2251.03 4.66662 -1.08461 0
M  V30 22910 H 2249.4 2.50099 -0.481936 0
M  V30 22911 H 2250.18 2.68153 -2.14357 0
M  V30 22912 N 2252.62 0.576397 1.46681 0
M  V30 22913 C 2253.57 -0.173309 2.31953 0
M  V30 22914 C 2254.57 -0.890595 1.441 0
M  V30 22915 O 2255.77 -0.8097 1.6076 0
M  V30 22916 H 2252.15 -0.0747595 0.748275 0
M  V30 22917 H 2254.12 0.564789 2.93006 0
M  V30 22918 C 2252.87 -1.1778 3.27144 0
M  V30 22919 H 2252.19 -0.635291 3.9472 0
M  V30 22920 H 2253.63 -1.67289 3.89603 0
M  V30 22921 C 2252.09 -2.23556 2.5204 0
M  V30 22922 O 2252.62 -3.30806 2.27882 0
M  V30 22923 N 2250.83 -1.97995 2.12712 0
M  V30 22924 H 2250.37 -1.10788 2.32559 0
M  V30 22925 H 2250.33 -2.68979 1.6278 0
M  V30 22926 N 2254.1 -1.54444 0.313841 0
M  V30 22927 C 2255.33 -2.04505 -0.293455 0
M  V30 22928 C 2255.74 -1.19008 -1.47084 0
M  V30 22929 O 2255.08 -0.21129 -1.82481 0
M  V30 22930 C 2255.15 -3.50477 -0.800394 0
M  V30 22931 C 2254.81 -4.56297 0.253403 0
M  V30 22932 C 2255.81 -5.08426 1.08621 0
M  V30 22933 C 2253.49 -5.00714 0.398796 0
M  V30 22934 C 2255.49 -6.03526 2.05023 0
M  V30 22935 C 2253.17 -5.95631 1.36625 0
M  V30 22936 C 2254.17 -6.46922 2.19044 0
M  V30 22937 O 2253.86 -7.39978 3.14147 0
M  V30 22938 H 2253.59 -0.672788 -0.0658207 0
M  V30 22939 H 2256.14 -2.00292 0.455212 0
M  V30 22940 H 2254.37 -3.52056 -1.59981 0
M  V30 22941 H 2256.06 -3.83666 -1.32497 0
M  V30 22942 H 2256.83 -4.74896 0.98482 0
M  V30 22943 H 2252.71 -4.60412 -0.232809 0
M  V30 22944 H 2256.25 -6.43485 2.69393 0
M  V30 22945 H 2252.15 -6.28578 1.46831 0
M  V30 22946 H 2252.92 -7.57821 3.09274 0
M  V30 22947 N 2255.58 -0.0418125 -1.57545 0
M  V30 22948 C 2256.99 0.495227 -1.80012 0
M  V30 22949 C 2257.34 1.71488 -0.953229 0
M  V30 22950 O 2256.47 2.15753 -0.167176 0
M  V30 22951 C 2257.06 0.905208 -3.26483 0
M  V30 22952 C 2255.62 1.38728 -3.49902 0
M  V30 22953 C 2254.77 0.358007 -2.74979 0
M  V30 22954 H 2257.72 -0.267763 -1.56425 0
M  V30 22955 H 2257.74 1.76876 -3.36891 0
M  V30 22956 H 2257.25 0.0173328 -3.88096 0
M  V30 22957 H 2255.35 2.29466 -2.93558 0
M  V30 22958 H 2255.47 1.3859 -4.58617 0
M  V30 22959 H 2253.83 0.828869 -2.40836 0
M  V30 22960 H 2254.61 -0.521621 -3.39314 0
M  V30 22961 N 2257.06 1.55891 0.231477 0
M  V30 22962 C 2258.28 1.82858 0.978657 0
M  V30 22963 C 2258.71 0.620877 1.77558 0
M  V30 22964 O 2258.07 -0.430274 1.7612 0
M  V30 22965 C 2258.11 3.0772 1.87992 0
M  V30 22966 O 2257.22 2.85717 2.97388 0
M  V30 22967 H 2256.56 0.603162 0.277653 0
M  V30 22968 H 2259.09 2.03094 0.247795 0
M  V30 22969 H 2259.1 3.37562 2.29164 0
M  V30 22970 H 2257.77 3.95254 1.2941 0
M  V30 22971 H 2256.35 2.67083 2.60233 0
M  V30 22972 N 2258.54 -0.497781 1.49532 0
M  V30 22973 C 2259.95 -1.07924 1.52346 0
M  V30 22974 C 2260.3 -1.93711 0.311503 0
M  V30 22975 O 2259.42 -2.08528 -0.578369 0
M  V30 22976 C 2260.02 -1.964 2.76066 0
M  V30 22977 C 2258.58 -2.49704 2.81647 0
M  V30 22978 C 2257.72 -1.274 2.46302 0
M  V30 22979 H 2260.68 -0.281549 1.56183 0
M  V30 22980 H 2260.7 -2.8113 2.5641 0
M  V30 22981 H 2260.21 -1.33936 3.64256 0
M  V30 22982 H 2258.31 -3.15797 1.97744 0
M  V30 22983 H 2258.42 -2.86636 3.83896 0
M  V30 22984 H 2256.79 -1.60025 1.98151 0
M  V30 22985 H 2257.57 -0.666391 3.3677 0
M  V30 22986 N 2260.01 -1.38661 -0.749062 0
M  V30 22987 C 2261.24 -1.3816 -1.53608 0
M  V30 22988 C 2261.65 0.0293263 -1.89177 0
M  V30 22989 O 2261 1.00749 -1.53608 0
M  V30 22990 C 2261.06 -2.17707 -2.86083 0
M  V30 22991 C 2260.72 -3.66477 -2.73027 0
M  V30 22992 C 2261.72 -4.5987 -2.42518 0
M  V30 22993 C 2259.4 -4.09889 -2.90338 0
M  V30 22994 C 2261.4 -5.94657 -2.29481 0
M  V30 22995 C 2259.08 -5.44755 -2.76921 0
M  V30 22996 C 2260.08 -6.36953 -2.46536 0
M  V30 22997 O 2259.77 -7.69337 -2.33185 0
M  V30 22998 H 2259.5 -0.474214 -0.481765 0
M  V30 22999 H 2262.06 -1.82914 -0.934433 0
M  V30 23000 H 2260.29 -1.67678 -3.48455 0
M  V30 23001 H 2261.98 -2.09557 -3.47621 0
M  V30 23002 H 2262.74 -4.27635 -2.28808 0
M  V30 23003 H 2258.62 -3.3847 -3.12984 0
M  V30 23004 H 2262.16 -6.66587 -2.05686 0
M  V30 23005 H 2258.06 -5.76586 -2.90205 0
M  V30 23006 H 2258.83 -7.79909 -2.48363 0
M  V30 23007 N 2261.49 0.977736 -1.23605 0
M  V30 23008 C 2262.91 1.24446 -0.999273 0
M  V30 23009 C 2263.11 1.99284 0.298018 0
M  V30 23010 O 2262.17 2.31123 1.01677 0
M  V30 23011 C 2263.48 2.0414 -2.20788 0
M  V30 23012 C 2265.03 2.17269 -2.25306 0
M  V30 23013 C 2265.5 3.00356 -3.4576 0
M  V30 23014 N 2266.99 3.0794 -3.46016 0
M  V30 23015 C 2267.73 3.7256 -4.35874 0
M  V30 23016 N 2267.22 4.38981 -5.35973 0
M  V30 23017 N 2269.02 3.69473 -4.23611 0
M  V30 23018 H 2261.17 0.476447 -2.06987 0
M  V30 23019 H 2263.43 0.273118 -0.907805 0
M  V30 23020 H 2263.14 1.56527 -3.14948 0
M  V30 23021 H 2263.01 3.04887 -2.2209 0
M  V30 23022 H 2265.4 2.64089 -1.31684 0
M  V30 23023 H 2265.48 1.15903 -2.28035 0
M  V30 23024 H 2265.12 2.54232 -4.39691 0
M  V30 23025 H 2265.05 4.01898 -3.40273 0
M  V30 23026 H 2267.54 2.60683 -2.73592 0
M  V30 23027 H 2267.86 4.86076 -6.00791 0
M  V30 23028 H 2266.2 4.37681 -5.3987 0
M  V30 23029 H 2269.39 3.16753 -3.44652 0
M  V30 23030 H 2269.57 4.19551 -4.93843 0
M  V30 23031 N 2262.97 1.04818 1.1769 0
M  V30 23032 C 2264.2 0.776241 1.92326 0
M  V30 23033 C 2264.62 -0.661551 1.76083 0
M  V30 23034 O 2263.98 -1.45916 1.07603 0
M  V30 23035 C 2264.03 1.15693 3.41537 0
M  V30 23036 O 2263.13 0.286848 4.11401 0
M  V30 23037 H 2262.47 0.284992 0.59973 0
M  V30 23038 H 2265 1.40003 1.49199 0
M  V30 23039 H 2265.01 1.12209 3.92267 0
M  V30 23040 H 2263.69 2.20431 3.5268 0
M  V30 23041 H 2262.26 0.381969 3.70939 0
M  V30 23042 N 2264.45 -1.34055 0.828678 0
M  V30 23043 C 2265.4 -2.31327 0.243014 0
M  V30 23044 C 2266.39 -1.57669 -0.619412 0
M  V30 23045 O 2267.6 -1.72621 -0.51011 0
M  V30 23046 H 2263.97 -0.749615 0.0598471 0
M  V30 23047 H 2265.94 -2.78242 1.07814 0
M  V30 23048 C 2264.69 -3.42901 -0.575673 0
M  V30 23049 H 2264.02 -3.99723 0.0786284 0
M  V30 23050 H 2265.46 -4.13186 -0.951475 0
M  V30 23051 C 2263.91 -2.8786 -1.75039 0
M  V30 23052 O 2264.44 -2.8321 -2.84877 0
M  V30 23053 N 2262.65 -2.44604 -1.56898 0
M  V30 23054 H 2262.2 -2.48585 -0.675503 0
M  V30 23055 H 2262.16 -2.08128 -2.35648 0
M  V30 23056 N 2265.93 -0.584167 -1.46374 0
M  V30 23057 C 2267.16 -0.075966 -2.0676 0
M  V30 23058 C 2267.57 1.22962 -1.43268 0
M  V30 23059 O 2266.93 1.74375 -0.538489 0
M  V30 23060 C 2266.98 0.0949749 -3.61375 0
M  V30 23061 O 2266.7 -1.15894 -4.22493 0
M  V30 23062 C 2268.2 0.637357 -4.38694 0
M  V30 23063 H 2265.42 -0.0581192 -0.668478 0
M  V30 23064 H 2267.96 -0.805251 -1.87979 0
M  V30 23065 H 2266.12 0.774487 -3.79579 0
M  V30 23066 H 2266.53 -0.973689 -5.15383 0
M  V30 23067 H 2268.01 0.70614 -5.47465 0
M  V30 23068 H 2268.48 1.65465 -4.06839 0
M  V30 23069 H 2269.09 -0.00733443 -4.25299 0
M  V30 23070 N 2267.41 1.54275 -0.322027 0
M  V30 23071 C 2268.68 1.92706 0.335198 0
M  V30 23072 C 2269.06 1.25148 1.70004 0
M  V30 23073 O 2268.41 0.394635 2.25066 0
M  V30 23074 C 2268.62 3.46354 0.428947 0
M  V30 23075 C 2269.97 4.18957 0.689955 0
M  V30 23076 O 2270.99 3.52502 0.51193 0
M  V30 23077 O 2269.85 5.36643 1.03329 0
M  V30 23078 H 2266.95 0.804611 0.191129 0
M  V30 23079 H 2269.49 1.65581 -0.371629 0
M  V30 23080 H 2268.26 3.87698 -0.529679 0
M  V30 23081 H 2267.89 3.7958 1.18341 0
M  V30 23082 N 2268.88 0.0501669 1.5752 0
M  V30 23083 C 2270.12 -0.627748 1.94522 0
M  V30 23084 C 2270.49 -1.68068 0.928294 0
M  V30 23085 O 2271.69 -2.41259 1.18522 0
M  V30 23086 C 2269.96 -1.20926 3.36321 0
M  V30 23087 S 2271.52 -1.90532 3.95276 0
M  V30 23088 H 2268.34 -0.206146 0.680459 0
M  V30 23089 H 2270.94 0.118863 1.95138 0
M  V30 23090 H 2269.64 -0.430793 4.08133 0
M  V30 23091 H 2269.17 -1.99271 3.39197 0
M  V30 23092 H 2271.19 -3.18583 3.8042 0
M  V30 23093 N 2270.36 -1.56011 -0.223207 0
M  V30 23094 C 2271.59 -1.83374 -0.968946 0
M  V30 23095 C 2272.01 -0.630285 -1.77226 0
M  V30 23096 O 2271.37 0.420928 -1.76346 0
M  V30 23097 C 2271.42 -3.08712 -1.86357 0
M  V30 23098 O 2270.52 -2.8729 -2.95868 0
M  V30 23099 H 2269.86 -0.604626 -0.27445 0
M  V30 23100 H 2272.39 -2.03222 -0.237021 0
M  V30 23101 H 2272.4 -3.38772 -2.2737 0
M  V30 23102 H 2271.08 -3.95935 -1.27312 0
M  V30 23103 H 2269.65 -2.68459 -2.58813 0
M  V30 23104 N 2271.84 0.489844 -1.49794 0
M  V30 23105 C 2273.09 1.24233 -1.61052 0
M  V30 23106 C 2273.44 1.90071 -0.298446 0
M  V30 23107 O 2272.73 1.78267 0.702231 0
M  V30 23108 C 2272.93 2.32436 -2.71492 0
M  V30 23109 C 2272.76 1.77211 -4.13311 0
M  V30 23110 C 2271.53 1.58015 -4.79958 0
M  V30 23111 C 2273.72 1.27763 -4.98178 0
M  V30 23112 N 2271.71 0.978358 -6.06054 0
M  V30 23113 C 2273.08 0.797892 -6.14844 0
M  V30 23114 C 2275.13 1.16441 -4.84093 0
M  V30 23115 C 2273.84 0.216118 -7.18975 0
M  V30 23116 C 2275.86 0.596594 -5.88383 0
M  V30 23117 C 2275.22 0.127138 -7.04285 0
M  V30 23118 H 2271.32 0.444161 -0.643619 0
M  V30 23119 H 2273.91 0.547507 -1.86843 0
M  V30 23120 H 2272.08 2.99367 -2.47454 0
M  V30 23121 H 2273.81 2.99473 -2.7221 0
M  V30 23122 H 2270.56 1.82704 -4.3694 0
M  V30 23123 H 2270.99 0.696415 -6.73409 0
M  V30 23124 H 2275.63 1.51333 -3.94789 0
M  V30 23125 H 2273.35 -0.145045 -8.0797 0
M  V30 23126 H 2276.93 0.511614 -5.79546 0
M  V30 23127 H 2275.81 -0.305367 -7.83605 0
M  V30 23128 N 2273.32 1.39056 0.741698 0
M  V30 23129 C 2274.56 1.36116 1.50334 0
M  V30 23130 C 2274.9 -0.0450455 1.94148 0
M  V30 23131 O 2274.17 -1.00865 1.66302 0
M  V30 23132 C 2274.45 2.32754 2.74768 0
M  V30 23133 C 2274.31 3.82287 2.37017 0
M  V30 23134 C 2275.63 2.27328 3.76842 0
M  V30 23135 H 2272.75 0.495753 0.545342 0
M  V30 23136 H 2275.39 1.69997 0.848595 0
M  V30 23137 H 2273.54 2.03991 3.30635 0
M  V30 23138 H 2275.21 4.21771 1.86833 0
M  V30 23139 H 2273.45 3.99388 1.69327 0
M  V30 23140 H 2274.12 4.45382 3.26097 0
M  V30 23141 H 2276.6 2.52745 3.30543 0
M  V30 23142 H 2275.48 2.97037 4.61585 0
M  V30 23143 H 2275.74 1.27606 4.23284 0
M  V30 23144 N 2274.8 -0.971167 1.24121 0
M  V30 23145 C 2276.04 -1.70799 1.07287 0
M  V30 23146 C 2276.36 -1.91696 -0.388868 0
M  V30 23147 O 2277.56 -2.62915 -0.677333 0
M  V30 23148 C 2276.02 -3.07413 1.8715 0
M  V30 23149 C 2275.63 -2.94371 3.37712 0
M  V30 23150 C 2277.37 -3.84992 1.78834 0
M  V30 23151 C 2275.28 -4.26274 4.09933 0
M  V30 23152 H 2274.21 -0.640483 0.397865 0
M  V30 23153 H 2276.86 -1.08247 1.48172 0
M  V30 23154 H 2275.24 -3.70774 1.39078 0
M  V30 23155 H 2276.42 -2.40044 3.93339 0
M  V30 23156 H 2274.73 -2.30261 3.46942 0
M  V30 23157 H 2277.33 -4.82658 2.30098 0
M  V30 23158 H 2277.67 -4.09435 0.752912 0
M  V30 23159 H 2278.2 -3.2835 2.24568 0
M  V30 23160 H 2274.94 -4.07024 5.13821 0
M  V30 23161 H 2274.46 -4.8043 3.59091 0
M  V30 23162 H 2276.14 -4.94912 4.16739 0
M  V30 23163 N 2276.27 -1.05441 -1.17133 0
M  V30 23164 C 2277.69 -0.776225 -1.39452 0
M  V30 23165 C 2277.89 0.628273 -1.91455 0
M  V30 23166 O 2276.95 1.39027 -2.10779 0
M  V30 23167 C 2278.26 -1.83392 -2.38302 0
M  V30 23168 C 2279.81 -1.85643 -2.52003 0
M  V30 23169 C 2280.28 -2.90443 -3.54128 0
M  V30 23170 N 2281.77 -2.89422 -3.61648 0
M  V30 23171 C 2282.51 -3.6716 -4.40433 0
M  V30 23172 N 2282 -4.5469 -5.22713 0
M  V30 23173 N 2283.8 -3.55589 -4.35331 0
M  V30 23174 H 2275.95 -1.96054 -0.8171 0
M  V30 23175 H 2278.21 -0.849087 -0.421611 0
M  V30 23176 H 2277.92 -2.84208 -2.07168 0
M  V30 23177 H 2277.79 -1.67766 -3.37838 0
M  V30 23178 H 2280.18 -0.85491 -2.82445 0
M  V30 23179 H 2280.26 -2.05347 -1.52533 0
M  V30 23180 H 2279.9 -3.90783 -3.24424 0
M  V30 23181 H 2279.83 -2.67991 -4.53308 0
M  V30 23182 H 2282.32 -2.25957 -3.02905 0
M  V30 23183 H 2282.64 -5.10684 -5.80018 0
M  V30 23184 H 2280.98 -4.5875 -5.22085 0
M  V30 23185 H 2284.17 -2.86599 -3.70106 0
M  V30 23186 H 2284.35 -4.16419 -4.96487 0
M  V30 23187 N 2277.75 1.33613 -0.835776 0
M  V30 23188 C 2279 1.98175 -0.430631 0
M  V30 23189 C 2279.33 1.66063 1.00682 0
M  V30 23190 O 2278.61 0.938907 1.70337 0
M  V30 23191 C 2278.89 3.54219 -0.648127 0
M  V30 23192 C 2278.74 3.96029 -2.13262 0
M  V30 23193 C 2280.06 4.40003 -0.0922887 0
M  V30 23194 H 2277.18 0.719879 -0.157936 0
M  V30 23195 H 2279.82 1.58303 -1.05072 0
M  V30 23196 H 2277.97 3.88314 -0.120305 0
M  V30 23197 H 2279.64 3.72207 -2.72507 0
M  V30 23198 H 2277.89 3.45873 -2.61829 0
M  V30 23199 H 2278.56 5.04704 -2.23556 0
M  V30 23200 H 2281.03 4.12536 -0.543416 0
M  V30 23201 H 2279.91 5.48215 -0.274179 0
M  V30 23202 H 2280.17 4.30556 1.00371 0
M  V30 23203 N 2279.23 0.591922 1.46062 0
M  V30 23204 C 2280.51 0.0137463 1.95595 0
M  V30 23205 C 2280.89 -1.44967 1.53453 0
M  V30 23206 O 2280.24 -2.14425 0.78958 0
M  V30 23207 C 2280.45 0.195435 3.48452 0
M  V30 23208 C 2281.79 0.0680511 4.24545 0
M  V30 23209 O 2282.82 0.124744 3.55982 0
M  V30 23210 O 2281.68 -0.0599619 5.46467 0
M  V30 23211 H 2278.77 -0.0446133 0.825796 0
M  V30 23212 H 2281.32 0.660886 1.56302 0
M  V30 23213 H 2280.09 1.21242 3.72043 0
M  V30 23214 H 2279.71 -0.487706 3.94598 0
M  V30 23215 N 2280.71 -1.54102 0.330204 0
M  V30 23216 C 2282.12 -1.59585 -0.022209 0
M  V30 23217 C 2282.32 -1.34656 -1.499 0
M  V30 23218 O 2281.38 -1.13425 -2.2559 0
M  V30 23219 C 2282.69 -2.98001 0.401984 0
M  V30 23220 C 2284.24 -3.11001 0.353199 0
M  V30 23221 C 2284.72 -4.51773 0.752656 0
M  V30 23222 N 2286.21 -4.57783 0.706319 0
M  V30 23223 C 2286.94 -5.64832 0.987516 0
M  V30 23224 N 2286.44 -6.79792 1.33619 0
M  V30 23225 N 2288.23 -5.54642 0.912638 0
M  V30 23226 H 2280.38 -1.68562 1.29231 0
M  V30 23227 H 2282.65 -0.788741 0.52592 0
M  V30 23228 H 2282.35 -3.21265 1.43115 0
M  V30 23229 H 2282.23 -3.765 -0.229633 0
M  V30 23230 H 2284.61 -2.87469 -0.666772 0
M  V30 23231 H 2284.69 -2.34591 1.01984 0
M  V30 23232 H 2284.34 -4.76039 1.77057 0
M  V30 23233 H 2284.27 -5.26562 0.0636335 0
M  V30 23234 H 2286.76 -3.75224 0.448956 0
M  V30 23235 H 2287.07 -7.57383 1.53595 0
M  V30 23236 H 2285.42 -6.81272 1.37451 0
M  V30 23237 H 2288.61 -4.63709 0.639683 0
M  V30 23238 H 2288.78 -6.3798 1.13514 0
M  V30 23239 N 2282.19 -0.0585199 -1.57491 0
M  V30 23240 C 2283.13 0.931131 -2.1315 0
M  V30 23241 C 2284.13 1.31728 -1.06509 0
M  V30 23242 O 2285.33 1.29607 -1.24908 0
M  V30 23243 H 2281.71 0.318168 -0.681376 0
M  V30 23244 H 2283.68 0.436655 -2.95188 0
M  V30 23245 C 2282.43 2.19404 -2.69736 0
M  V30 23246 H 2281.75 1.90572 -3.51458 0
M  V30 23247 H 2283.19 2.86792 -3.12292 0
M  V30 23248 C 2281.65 2.94366 -1.6386 0
M  V30 23249 O 2282.18 3.87579 -1.05572 0
M  V30 23250 N 2280.39 2.5723 -1.35207 0
M  V30 23251 H 2279.93 1.81505 -1.82794 0
M  V30 23252 H 2279.89 3.07692 -0.645976 0
M  V30 23253 N 2283.66 1.56128 0.21493 0
M  V30 23254 C 2284.61 1.89353 1.27002 0
M  V30 23255 C 2285.6 0.757227 1.41968 0
M  V30 23256 O 2286.79 1.01976 1.44672 0
M  V30 23257 C 2283.92 2.21945 2.61907 0
M  V30 23258 C 2283.01 3.41983 2.50816 0
M  V30 23259 N 2283.4 4.60427 2.09382 0
M  V30 23260 C 2281.69 3.45728 2.81759 0
M  V30 23261 C 2282.4 5.42586 2.09702 0
M  V30 23262 N 2281.37 4.82471 2.50446 0
M  V30 23263 H 2285.17 2.78439 0.940685 0
M  V30 23264 H 2282.69 1.56782 0.423465 0
M  V30 23265 H 2284.68 2.43925 3.38092 0
M  V30 23266 H 2283.34 1.34174 2.95681 0
M  V30 23267 H 2284.36 4.85462 1.80407 0
M  V30 23268 H 2281.03 2.68319 3.19861 0
M  V30 23269 H 2282.42 6.47414 1.79737 0
M  V30 23270 N 2285.14 -0.481893 1.50052 0
M  V30 23271 C 2286.56 -0.814732 1.37238 0
M  V30 23272 C 2286.76 -1.97071 0.420144 0
M  V30 23273 O 2285.81 -2.52105 -0.141201 0
M  V30 23274 C 2287.13 -1.13696 2.78377 0
M  V30 23275 C 2288.68 -1.24405 2.87215 0
M  V30 23276 C 2289.15 -1.59946 4.29163 0
M  V30 23277 N 2290.64 -1.66959 4.32064 0
M  V30 23278 C 2291.38 -1.95942 5.38882 0
M  V30 23279 N 2290.87 -2.2302 6.55922 0
M  V30 23280 N 2292.67 -1.97354 5.26315 0
M  V30 23281 H 2284.82 0.280087 2.10545 0
M  V30 23282 H 2287.08 0.062762 0.94592 0
M  V30 23283 H 2286.79 -0.360725 3.49845 0
M  V30 23284 H 2286.66 -2.07581 3.14945 0
M  V30 23285 H 2289.05 -2.01097 2.15972 0
M  V30 23286 H 2289.13 -0.285254 2.54205 0
M  V30 23287 H 2288.77 -0.837979 5.00939 0
M  V30 23288 H 2288.7 -2.56958 4.59652 0
M  V30 23289 H 2291.19 -1.48117 3.47663 0
M  V30 23290 H 2291.51 -2.44378 7.33143 0
M  V30 23291 H 2289.85 -2.20435 6.59116 0
M  V30 23292 H 2293.04 -1.75689 4.33879 0
M  V30 23293 H 2293.21 -2.19607 6.09653 0
M  V30 23294 N 2286.62 -1.39448 -0.734313 0
M  V30 23295 C 2287.87 -1.36911 -1.4961 0
M  V30 23296 C 2288.2 0.0347488 -1.94169 0
M  V30 23297 O 2287.47 0.999818 -1.66835 0
M  V30 23298 C 2287.76 -2.34208 -2.7353 0
M  V30 23299 C 2287.61 -3.83538 -2.34986 0
M  V30 23300 C 2288.93 -2.29324 -3.75631 0
M  V30 23301 H 2286.05 -0.498638 -0.542705 0
M  V30 23302 H 2288.69 -1.70444 -0.839567 0
M  V30 23303 H 2286.84 -2.05742 -3.29549 0
M  V30 23304 H 2288.51 -4.22756 -1.84593 0
M  V30 23305 H 2286.76 -4.00281 -1.67206 0
M  V30 23306 H 2287.43 -4.47105 -3.2373 0
M  V30 23307 H 2289.9 -2.54495 -3.29198 0
M  V30 23308 H 2288.78 -2.9948 -4.60003 0
M  V30 23309 H 2289.04 -1.29849 -4.22601 0
M  V30 23310 N 2288.1 0.964571 -1.24635 0
M  V30 23311 C 2289.03 2.07739 -1.06614 0
M  V30 23312 C 2290.01 1.70086 0.0218367 0
M  V30 23313 O 2291.19 1.93652 -0.145827 0
M  V30 23314 C 2288.32 3.40707 -0.673503 0
M  V30 23315 C 2287.28 3.92329 -1.71061 0
M  V30 23316 C 2286.6 5.21676 -1.17294 0
M  V30 23317 C 2287.9 4.19818 -3.10725 0
M  V30 23318 H 2289.6 2.23073 -1.99697 0
M  V30 23319 H 2287.14 1.07193 -0.961539 0
M  V30 23320 H 2289.1 4.17998 -0.534418 0
M  V30 23321 H 2287.82 3.25283 0.293016 0
M  V30 23322 H 2286.48 3.17198 -1.83796 0
M  V30 23323 H 2286.13 5.02614 -0.196935 0
M  V30 23324 H 2285.83 5.57183 -1.86602 0
M  V30 23325 H 2287.35 6.01573 -1.04604 0
M  V30 23326 H 2288.77 4.87802 -3.01201 0
M  V30 23327 H 2287.16 4.6656 -3.77414 0
M  V30 23328 H 2288.23 3.26473 -3.5853 0
M  V30 23329 N 2289.58 1.0606 1.16572 0
M  V30 23330 C 2290.51 0.690527 2.23056 0
M  V30 23331 C 2291.49 -0.315871 1.67141 0
M  V30 23332 O 2292.67 -0.191522 1.93253 0
M  V30 23333 C 2289.8 0.073686 3.47222 0
M  V30 23334 C 2288.76 1.0058 4.16014 0
M  V30 23335 C 2288.08 0.252383 5.34104 0
M  V30 23336 C 2289.38 2.33379 4.6726 0
M  V30 23337 H 2291.08 1.58077 2.54268 0
M  V30 23338 H 2288.62 0.761512 1.22217 0
M  V30 23339 H 2290.58 -0.197066 4.20939 0
M  V30 23340 H 2289.3 -0.851555 3.15303 0
M  V30 23341 H 2287.96 1.26126 3.44221 0
M  V30 23342 H 2287.61 -0.675901 4.98438 0
M  V30 23343 H 2287.31 0.873557 5.8107 0
M  V30 23344 H 2288.83 -0.0108784 6.10599 0
M  V30 23345 H 2290.24 2.12233 5.32569 0
M  V30 23346 H 2288.64 2.90973 5.24838 0
M  V30 23347 H 2289.71 2.96617 3.83596 0
M  V30 23348 N 2291.06 -1.33168 0.84285 0
M  V30 23349 C 2292 -2.31056 0.267536 0
M  V30 23350 C 2293 -1.58318 -0.602654 0
M  V30 23351 O 2294.2 -1.73152 -0.491773 0
M  V30 23352 H 2290.58 -0.748938 0.0677944 0
M  V30 23353 H 2292.55 -2.77083 1.10759 0
M  V30 23354 C 2291.3 -3.43493 -0.539271 0
M  V30 23355 H 2290.62 -3.99617 0.12102 0
M  V30 23356 H 2292.06 -4.14172 -0.907597 0
M  V30 23357 C 2290.52 -2.897 -1.71976 0
M  V30 23358 O 2291.05 -2.86216 -2.81857 0
M  V30 23359 N 2289.26 -2.46255 -1.54295 0
M  V30 23360 H 2288.8 -2.49288 -0.649099 0
M  V30 23361 H 2288.76 -2.10616 -2.33427 0
M  V30 23362 N 2292.53 -0.599659 -1.45746 0
M  V30 23363 C 2293.78 -0.091764 -2.02292 0
M  V30 23364 C 2294.11 1.27469 -1.46908 0
M  V30 23365 O 2293.36 1.85259 -0.630684 0
M  V30 23366 C 2293.66 0.00596476 -3.574 0
M  V30 23367 C 2293.33 -1.29511 -4.319 0
M  V30 23368 C 2291.99 -1.65152 -4.51971 0
M  V30 23369 C 2294.34 -2.15533 -4.74547 0
M  V30 23370 C 2291.67 -2.86583 -5.11944 0
M  V30 23371 C 2294.02 -3.36206 -5.35862 0
M  V30 23372 C 2292.69 -3.72109 -5.54158 0
M  V30 23373 H 2291.96 -0.0335788 -0.740239 0
M  V30 23374 H 2294.6 -0.779691 -1.74909 0
M  V30 23375 H 2292.91 0.777115 -3.84016 0
M  V30 23376 H 2294.61 0.414968 -3.98847 0
M  V30 23377 H 2291.2 -1.00768 -4.16586 0
M  V30 23378 H 2295.38 -1.89298 -4.58781 0
M  V30 23379 H 2290.64 -3.14516 -5.24299 0
M  V30 23380 H 2294.81 -4.03119 -5.67863 0
M  V30 23381 H 2292.44 -4.6629 -6.00398 0
M  V30 23382 N 2294.01 1.53925 -0.338371 0
M  V30 23383 C 2295.24 2.05244 0.261262 0
M  V30 23384 C 2295.65 1.21366 1.44623 0
M  V30 23385 O 2295.01 0.247768 1.8081 0
M  V30 23386 C 2295.06 3.55021 0.68135 0
M  V30 23387 O 2294.78 4.35715 -0.456491 0
M  V30 23388 C 2296.28 4.22491 1.34224 0
M  V30 23389 H 2293.5 0.669032 0.0513568 0
M  V30 23390 H 2296.05 1.98571 -0.488857 0
M  V30 23391 H 2294.2 3.61933 1.38142 0
M  V30 23392 H 2294.62 5.24357 -0.122656 0
M  V30 23393 H 2296.09 5.28695 1.58698 0
M  V30 23394 H 2296.57 3.74518 2.29419 0
M  V30 23395 H 2297.17 4.19758 0.68435 0
M  V30 23396 N 2295.49 0.0668712 1.57458 0
M  V30 23397 C 2296.77 -0.6441 1.84691 0
M  V30 23398 C 2297.15 -1.88091 0.958376 0
M  V30 23399 O 2296.49 -2.28488 0.0233981 0
M  V30 23400 C 2296.7 -0.986451 3.34769 0
M  V30 23401 C 2298.05 -1.36205 4.02161 0
M  V30 23402 O 2299.08 -1.07833 3.39486 0
M  V30 23403 O 2297.94 -1.89218 5.12698 0
M  V30 23404 H 2295.03 -0.319424 0.762822 0
M  V30 23405 H 2297.58 0.0974284 1.6942 0
M  V30 23406 H 2296.35 -0.107814 3.91151 0
M  V30 23407 H 2295.97 -1.78491 3.55284 0
M  V30 23408 N 2296.97 -1.56239 -0.206647 0
M  V30 23409 C 2298.21 -1.79943 -0.92881 0
M  V30 23410 C 2298.54 -0.638163 -1.83733 0
M  V30 23411 O 2297.8 0.376712 -1.9204 0
M  V30 23412 C 2298.1 -3.09535 -1.78669 0
M  V30 23413 C 2297.76 -4.38975 -1.03015 0
M  V30 23414 C 2296.42 -4.74141 -0.821218 0
M  V30 23415 C 2298.78 -5.18825 -0.49699 0
M  V30 23416 C 2296.1 -5.86661 -0.0674687 0
M  V30 23417 C 2298.46 -6.32131 0.243491 0
M  V30 23418 C 2297.12 -6.65889 0.463539 0
M  V30 23419 H 2296.39 -0.658457 -0.339876 0
M  V30 23420 H 2299.04 -1.90495 -0.195944 0
M  V30 23421 H 2297.34 -2.9417 -2.58788 0
M  V30 23422 H 2299.04 -3.25079 -2.34787 0
M  V30 23423 H 2295.63 -4.11371 -1.20298 0
M  V30 23424 H 2299.81 -4.9208 -0.645834 0
M  V30 23425 H 2295.07 -6.11295 0.113103 0
M  V30 23426 H 2299.24 -6.93227 0.664052 0
M  V30 23427 H 2296.87 -7.5292 1.04951 0
M  V30 23428 N 2298.45 0.473929 -1.50305 0
M  V30 23429 C 2299.72 1.23515 -1.51669 0
M  V30 23430 C 2300.1 2.09496 -0.259738 0
M  V30 23431 O 2299.45 2.15598 0.756948 0
M  V30 23432 C 2299.66 2.06863 -2.81085 0
M  V30 23433 C 2301.01 2.65147 -3.31636 0
M  V30 23434 O 2302.03 2.17108 -2.82387 0
M  V30 23435 O 2300.89 3.52668 -4.17478 0
M  V30 23436 H 2297.99 0.560344 -0.60823 0
M  V30 23437 H 2300.53 0.485982 -1.62592 0
M  V30 23438 H 2299.3 1.43484 -3.64044 0
M  V30 23439 H 2298.93 2.88919 -2.73151 0
M  V30 23440 N 2299.92 1.39835 0.726907 0
M  V30 23441 C 2300.85 1.41944 1.85403 0
M  V30 23442 C 2301.83 0.281757 1.6775 0
M  V30 23443 O 2303.02 0.48875 1.87949 0
M  V30 23444 C 2300.15 1.27015 3.2324 0
M  V30 23445 C 2299.1 2.38268 3.55545 0
M  V30 23446 C 2298.43 2.08423 4.92406 0
M  V30 23447 C 2299.73 3.80595 3.57693 0
M  V30 23448 H 2301.42 2.36269 1.83895 0
M  V30 23449 H 2298.97 1.13725 0.883329 0
M  V30 23450 H 2300.92 1.2711 4.01772 0
M  V30 23451 H 2299.65 0.291621 3.25295 0
M  V30 23452 H 2298.31 2.37404 2.79347 0
M  V30 23453 H 2297.95 1.08988 4.9105 0
M  V30 23454 H 2297.65 2.82952 5.14987 0
M  V30 23455 H 2299.18 2.10181 5.73285 0
M  V30 23456 H 2300.59 3.83344 4.26286 0
M  V30 23457 H 2298.99 4.5455 3.91796 0
M  V30 23458 H 2300.06 4.10992 2.5732 0
M  V30 23459 N 2301.4 -0.957948 1.25144 0
M  V30 23460 C 2302.31 -2.08792 1.06971 0
M  V30 23461 C 2303.33 -1.73998 0.00776969 0
M  V30 23462 O 2304.5 -2.00323 0.208008 0
M  V30 23463 C 2301.57 -3.39826 0.68697 0
M  V30 23464 C 2300.63 -3.88508 1.82648 0
M  V30 23465 C 2299.86 -5.13287 1.4619 0
M  V30 23466 O 2300.09 -5.69288 0.356071 0
M  V30 23467 O 2299.02 -5.56596 2.29094 0
M  V30 23468 H 2302.85 -2.27024 2.01727 0
M  V30 23469 H 2300.43 -1.07207 1.04053 0
M  V30 23470 H 2302.31 -4.18594 0.485491 0
M  V30 23471 H 2300.99 -3.22872 -0.23136 0
M  V30 23472 H 2299.89 -3.10758 2.08279 0
M  V30 23473 H 2301.23 -4.09954 2.72394 0
M  V30 23474 N 2302.88 -1.06677 -1.16008 0
M  V30 23475 C 2304.29 -0.809595 -1.68233 0
M  V30 23476 C 2304.64 0.666271 -1.84541 0
M  V30 23477 O 2303.77 1.51647 -1.54377 0
M  V30 23478 C 2304.36 -1.46304 -3.05582 0
M  V30 23479 C 2302.92 -1.25355 -3.54913 0
M  V30 23480 C 2302.07 -1.53707 -2.30801 0
M  V30 23481 H 2305.02 -1.22973 -1.00316 0
M  V30 23482 H 2305.04 -0.880496 -3.70172 0
M  V30 23483 H 2304.55 -2.53718 -2.93681 0
M  V30 23484 H 2302.65 -0.199327 -3.72066 0
M  V30 23485 H 2302.77 -1.96897 -4.3677 0
M  V30 23486 H 2301.13 -0.95778 -2.36006 0
M  V30 23487 H 2301.91 -2.62288 -2.21494 0
M  V30 23488 N 2304.36 1.32719 -0.8499 0
M  V30 23489 C 2305.29 2.2785 -0.248372 0
M  V30 23490 C 2306.3 1.52225 0.577191 0
M  V30 23491 O 2307.49 1.73904 0.402458 0
M  V30 23492 C 2304.59 3.3225 0.668048 0
M  V30 23493 C 2303.76 4.37234 -0.120611 0
M  V30 23494 C 2302.82 5.21239 0.720841 0
M  V30 23495 O 2301.85 5.68986 0.156066 0
M  V30 23496 N 2303.05 5.4361 2.03638 0
M  V30 23497 H 2305.82 2.80109 -1.06579 0
M  V30 23498 H 2303.38 1.45529 -0.709421 0
M  V30 23499 H 2305.37 3.85357 1.2362 0
M  V30 23500 H 2303.94 2.80186 1.38616 0
M  V30 23501 H 2303.16 3.84476 -0.870176 0
M  V30 23502 H 2304.45 5.04468 -0.662494 0
M  V30 23503 H 2303.85 5.06539 2.51862 0
M  V30 23504 H 2302.4 5.99731 2.55276 0
M  V30 23505 N 2305.84 0.60738 1.45426 0
M  V30 23506 C 2307.11 0.034491 1.9557 0
M  V30 23507 C 2307.49 -1.43332 1.54981 0
M  V30 23508 O 2306.84 -2.13575 0.812278 0
M  V30 23509 C 2307.05 0.232382 3.48225 0
M  V30 23510 C 2308.4 0.113076 4.24449 0
M  V30 23511 O 2309.42 0.162493 3.55829 0
M  V30 23512 O 2308.28 -0.00199836 5.465 0
M  V30 23513 H 2305.38 -0.0358522 0.826223 0
M  V30 23514 H 2307.92 0.677427 1.55592 0
M  V30 23515 H 2306.69 1.25181 3.70736 0
M  V30 23516 H 2306.32 -0.445826 3.95093 0
M  V30 23517 N 2307.31 -1.53743 0.34653 0
M  V30 23518 C 2308.54 -2.05851 -0.253038 0
M  V30 23519 C 2308.96 -1.21965 -1.432 0
M  V30 23520 O 2308.32 -0.234104 -1.79782 0
M  V30 23521 C 2308.37 -3.54819 -0.64313 0
M  V30 23522 O 2307.47 -3.73765 -1.74279 0
M  V30 23523 H 2306.82 -0.662711 -0.0413466 0
M  V30 23524 H 2309.35 -1.98356 0.501609 0
M  V30 23525 H 2309.36 -3.97505 -0.919456 0
M  V30 23526 H 2308.03 -4.15323 0.219039 0
M  V30 23527 H 2306.61 -3.42981 -1.4635 0
M  V30 23528 N 2308.79 -0.0752207 -1.5742 0
M  V30 23529 C 2310.03 0.596722 -1.95496 0
M  V30 23530 C 2310.4 1.66569 -0.954915 0
M  V30 23531 O 2311.6 2.39343 -1.22345 0
M  V30 23532 C 2309.87 1.1556 -3.38202 0
M  V30 23533 S 2311.43 1.84219 -3.98257 0
M  V30 23534 H 2308.25 0.195295 -0.683653 0
M  V30 23535 H 2310.85 -0.149893 -1.94925 0
M  V30 23536 H 2309.55 0.365808 -4.08766 0
M  V30 23537 H 2309.08 1.9385 -3.42324 0
M  V30 23538 H 2311.1 3.1249 -3.8544 0
M  V30 23539 N 2310.27 1.56347 0.198358 0
M  V30 23540 C 2311.52 1.79628 0.91742 0
M  V30 23541 C 2311.83 0.647873 1.84559 0
M  V30 23542 O 2313.04 0.764905 2.60502 0
M  V30 23543 C 2311.49 3.18193 1.68169 0
M  V30 23544 C 2311.1 4.40826 0.798512 0
M  V30 23545 C 2312.85 3.50787 2.39059 0
M  V30 23546 C 2310.75 5.70414 1.56147 0
M  V30 23547 H 2309.68 0.669768 0.346305 0
M  V30 23548 H 2312.33 1.82704 0.170768 0
M  V30 23549 H 2310.72 3.09359 2.47211 0
M  V30 23550 H 2311.89 4.60776 0.0469855 0
M  V30 23551 H 2310.21 4.15916 0.200613 0
M  V30 23552 H 2312.8 4.4484 2.96685 0
M  V30 23553 H 2313.15 2.74377 3.13087 0
M  V30 23554 H 2313.68 3.61055 1.66986 0
M  V30 23555 H 2310.42 6.49781 0.864028 0
M  V30 23556 H 2309.94 5.54487 2.28701 0
M  V30 23557 H 2311.62 6.11416 2.11611 0
M  V30 23558 N 2311.75 -0.465951 1.50554 0
M  V30 23559 C 2312.68 -1.58225 1.64439 0
M  V30 23560 C 2313.66 -1.54965 0.492394 0
M  V30 23561 O 2314.84 -1.74513 0.712566 0
M  V30 23562 C 2311.97 -2.96805 1.6317 0
M  V30 23563 C 2311.02 -3.18199 2.83992 0
M  V30 23564 S 2311.85 -2.97549 4.45225 0
M  V30 23565 C 2313.01 -4.38462 4.46656 0
M  V30 23566 H 2313.24 -1.46208 2.58864 0
M  V30 23567 H 2310.77 -0.653653 1.39881 0
M  V30 23568 H 2312.73 -3.76698 1.63123 0
M  V30 23569 H 2311.39 -3.06207 0.699724 0
M  V30 23570 H 2310.58 -4.1945 2.79424 0
M  V30 23571 H 2310.19 -2.46087 2.81633 0
M  V30 23572 H 2312.48 -5.31184 4.20535 0
M  V30 23573 H 2313.42 -4.48073 5.48303 0
M  V30 23574 H 2313.83 -4.2078 3.76303 0
M  V30 23575 N 2313.23 -1.40218 -0.719481 0
M  V30 23576 C 2314.19 -1.3993 -1.81527 0
M  V30 23577 C 2315.19 -0.29375 -1.58094 0
M  V30 23578 O 2316.38 -0.552458 -1.65208 0
M  V30 23579 C 2313.51 -1.18721 -3.19559 0
M  V30 23580 H 2314.7 -2.37454 -1.83182 0
M  V30 23581 H 2312.26 -1.2601 -0.924724 0
M  V30 23582 H 2312.99 -0.219423 -3.23557 0
M  V30 23583 H 2312.78 -1.98799 -3.37967 0
M  V30 23584 H 2314.27 -1.21298 -3.99595 0
M  V30 23585 N 2314.7 0.951297 -1.25651 0
M  V30 23586 C 2315.93 1.72839 -1.13182 0
M  V30 23587 C 2316.34 1.86529 0.316795 0
M  V30 23588 O 2315.69 1.36492 1.22946 0
M  V30 23589 C 2315.75 3.15875 -1.71649 0
M  V30 23590 C 2315.41 3.25604 -3.20673 0
M  V30 23591 C 2316.41 3.09659 -4.17621 0
M  V30 23592 C 2314.09 3.49318 -3.60946 0
M  V30 23593 C 2316.09 3.1728 -5.52822 0
M  V30 23594 C 2313.77 3.56575 -4.96284 0
M  V30 23595 C 2314.77 3.4057 -5.92031 0
M  V30 23596 O 2314.46 3.47516 -7.24906 0
M  V30 23597 H 2314.19 0.548303 -0.395399 0
M  V30 23598 H 2316.75 1.20184 -1.66568 0
M  V30 23599 H 2314.98 3.69909 -1.12713 0
M  V30 23600 H 2316.67 3.75456 -1.54232 0
M  V30 23601 H 2317.43 2.91204 -3.87847 0
M  V30 23602 H 2313.31 3.60835 -2.86913 0
M  V30 23603 H 2316.85 3.04705 -6.27535 0
M  V30 23604 H 2312.75 3.74547 -5.25723 0
M  V30 23605 H 2313.52 3.64125 -7.33045 0
M  V30 23606 N 2316.18 1.07291 1.1544 0
M  V30 23607 C 2317.46 0.708824 1.82305 0
M  V30 23608 C 2317.84 -0.808773 1.94992 0
M  V30 23609 O 2317.19 -1.72296 1.50088 0
M  V30 23610 C 2317.4 1.42253 3.18693 0
M  V30 23611 C 2318.75 1.57424 3.94339 0
M  V30 23612 O 2319.77 1.38325 3.28245 0
M  V30 23613 O 2318.63 1.88843 5.12836 0
M  V30 23614 H 2315.72 0.252146 0.787624 0
M  V30 23615 H 2318.27 1.1738 1.22557 0
M  V30 23616 H 2317.04 2.45689 3.04553 0
M  V30 23617 H 2316.66 0.948291 3.86126 0
M  V30 23618 N 2317.66 -1.32267 0.856927 0
M  V30 23619 C 2318.91 -1.96783 0.460509 0
M  V30 23620 C 2319.23 -1.68137 -0.987672 0
M  V30 23621 O 2318.5 -0.989795 -1.69056 0
M  V30 23622 H 2317.08 -0.728024 0.167302 0
M  V30 23623 H 2319.74 -1.6131 1.09385 0
M  V30 23624 H 2318.84 -3.06132 0.607443 0
M  V30 23625 N 2319.14 -0.615084 -1.45102 0
M  V30 23626 C 2320.07 0.0865209 -2.3334 0
M  V30 23627 C 2321.05 0.851183 -1.47271 0
M  V30 23628 O 2322.23 0.82025 -1.76027 0
M  V30 23629 C 2319.36 1.0795 -3.30097 0
M  V30 23630 C 2318.32 0.427553 -4.25859 0
M  V30 23631 C 2317.64 1.52931 -5.12363 0
M  V30 23632 C 2318.94 -0.656035 -5.18164 0
M  V30 23633 H 2320.64 -0.650275 -2.92253 0
M  V30 23634 H 2318.18 -0.314163 -1.40531 0
M  V30 23635 H 2320.14 1.57894 -3.90701 0
M  V30 23636 H 2318.86 1.84699 -2.69359 0
M  V30 23637 H 2317.52 -0.0510936 -3.66564 0
M  V30 23638 H 2317.17 2.28726 -4.47988 0
M  V30 23639 H 2316.87 1.09855 -5.7724 0
M  V30 23640 H 2318.39 2.03087 -5.75837 0
M  V30 23641 H 2319.81 -0.240358 -5.72796 0
M  V30 23642 H 2318.2 -1.00898 -5.91557 0
M  V30 23643 H 2319.27 -1.52965 -4.60141 0
M  V30 23644 N 2320.62 1.53557 -0.354678 0
M  V30 23645 C 2321.84 2.05982 0.242117 0
M  V30 23646 C 2322.27 1.22723 1.42551 0
M  V30 23647 O 2321.63 0.243635 1.79656 0
M  V30 23648 C 2321.67 3.55155 0.624304 0
M  V30 23649 O 2320.78 3.74684 1.72295 0
M  V30 23650 H 2320.12 0.662921 0.0378315 0
M  V30 23651 H 2322.65 1.98087 -0.512121 0
M  V30 23652 H 2322.66 3.97987 0.898363 0
M  V30 23653 H 2321.33 4.15201 -0.241062 0
M  V30 23654 H 2319.91 3.43753 1.44529 0
M  V30 23655 N 2322.1 0.083568 1.57378 0
M  V30 23656 C 2323.32 -0.594952 1.98683 0
M  V30 23657 C 2323.75 -1.61639 0.961997 0
M  V30 23658 O 2323.1 -1.81161 -0.070967 0
M  V30 23659 C 2323.15 -1.22954 3.38991 0
M  V30 23660 O 2322.26 -2.3454 3.39212 0
M  V30 23661 H 2321.6 -0.151991 0.64637 0
M  V30 23662 H 2324.13 0.161568 2.03961 0
M  V30 23663 H 2324.14 -1.57359 3.76433 0
M  V30 23664 H 2322.81 -0.481155 4.13107 0
M  V30 23665 H 2321.39 -2.01841 3.13552 0
M  V30 23666 N 2323.57 -1.5645 -0.190064 0
M  V30 23667 C 2324.8 -1.85034 -0.92574 0
M  V30 23668 C 2325.22 -0.666689 -1.76637 0
M  V30 23669 O 2324.57 0.364534 -1.78822 0
M  V30 23670 C 2324.62 -3.12471 -1.8178 0
M  V30 23671 O 2324.35 -4.26272 -1.01111 0
M  V30 23672 C 2325.85 -3.54269 -2.66474 0
M  V30 23673 H 2323.07 -0.614342 -0.269861 0
M  V30 23674 H 2325.61 -2.0356 -0.195802 0
M  V30 23675 H 2323.77 -2.95827 -2.50131 0
M  V30 23676 H 2324.18 -4.98872 -1.61947 0
M  V30 23677 H 2325.65 -4.46391 -3.24714 0
M  V30 23678 H 2326.13 -2.77497 -3.40429 0
M  V30 23679 H 2326.74 -3.73461 -2.03487 0
M  V30 23680 N 2325.05 0.45796 -1.50799 0
M  V30 23681 C 2325.98 1.5735 -1.65276 0
M  V30 23682 C 2326.96 1.54702 -0.500606 0
M  V30 23683 O 2328.15 1.74133 -0.721811 0
M  V30 23684 C 2325.27 2.95935 -1.64742 0
M  V30 23685 C 2324.32 3.16688 -2.85676 0
M  V30 23686 S 2325.15 2.95183 -4.46796 0
M  V30 23687 C 2326.31 4.36087 -4.48975 0
M  V30 23688 H 2326.54 1.44833 -2.59636 0
M  V30 23689 H 2324.07 0.646226 -1.40226 0
M  V30 23690 H 2326.03 3.75827 -1.65118 0
M  V30 23691 H 2324.69 3.05832 -0.715953 0
M  V30 23692 H 2323.89 4.17962 -2.81644 0
M  V30 23693 H 2323.49 2.4459 -2.82935 0
M  V30 23694 H 2325.78 5.28946 -4.23346 0
M  V30 23695 H 2326.72 4.45159 -5.50672 0
M  V30 23696 H 2327.13 4.18779 -3.78529 0
M  V30 23697 N 2326.53 1.40598 0.712035 0
M  V30 23698 C 2327.75 1.42584 1.50614 0
M  V30 23699 C 2328.18 0.0282432 1.88079 0
M  V30 23700 O 2327.54 -0.964552 1.53512 0
M  V30 23701 C 2327.59 2.32585 2.75566 0
M  V30 23702 O 2326.69 1.77154 3.72411 0
M  V30 23703 H 2326.03 0.484581 0.453957 0
M  V30 23704 H 2328.56 1.84869 0.876616 0
M  V30 23705 H 2328.57 2.47894 3.24056 0
M  V30 23706 H 2327.25 3.34142 2.47633 0
M  V30 23707 H 2325.82 1.7121 3.31273 0
M  V30 23708 N 2328.01 -0.94462 1.26153 0
M  V30 23709 C 2329.42 -1.21752 1.03192 0
M  V30 23710 C 2329.62 -2.00004 -0.245077 0
M  V30 23711 O 2328.68 -2.33738 -0.955135 0
M  V30 23712 C 2329.99 -1.98215 2.26123 0
M  V30 23713 C 2331.54 -2.1122 2.30988 0
M  V30 23714 C 2332.02 -2.91083 3.53602 0
M  V30 23715 N 2333.51 -2.98658 3.54059 0
M  V30 23716 C 2334.24 -3.60873 4.45599 0
M  V30 23717 N 2333.74 -4.24617 5.47424 0
M  V30 23718 N 2335.53 -3.58112 4.33258 0
M  V30 23719 H 2327.68 -0.4214 2.08178 0
M  V30 23720 H 2329.94 -0.248953 0.914728 0
M  V30 23721 H 2329.65 -1.48122 3.18987 0
M  V30 23722 H 2329.52 -2.98891 2.30095 0
M  V30 23723 H 2331.91 -2.60505 1.3864 0
M  V30 23724 H 2331.99 -1.09817 2.31028 0
M  V30 23725 H 2331.64 -2.42485 4.46277 0
M  V30 23726 H 2331.57 -3.92735 3.50809 0
M  V30 23727 H 2334.06 -2.53338 2.80408 0
M  V30 23728 H 2334.37 -4.69976 6.13467 0
M  V30 23729 H 2332.72 -4.23214 5.51285 0
M  V30 23730 H 2335.91 -3.07504 3.52929 0
M  V30 23731 H 2336.08 -4.0631 5.04793 0
M  V30 23732 N 2329.49 -1.07901 -1.1487 0
M  V30 23733 C 2330.42 -0.725926 -2.21929 0
M  V30 23734 C 2331.4 0.289241 -1.67623 0
M  V30 23735 O 2332.58 0.160753 -1.93534 0
M  V30 23736 C 2329.71 -0.128917 -3.47061 0
M  V30 23737 C 2328.67 -1.07186 -4.14361 0
M  V30 23738 C 2327.99 -0.337322 -5.33635 0
M  V30 23739 C 2329.29 -2.40783 -4.63488 0
M  V30 23740 H 2330.99 -1.62102 -2.51721 0
M  V30 23741 H 2328.53 -0.780859 -1.2099 0
M  V30 23742 H 2330.48 0.130073 -4.21199 0
M  V30 23743 H 2329.21 0.801285 -3.16618 0
M  V30 23744 H 2327.87 -1.31586 -3.42171 0
M  V30 23745 H 2327.52 0.596518 -4.9945 0
M  V30 23746 H 2327.22 -0.96589 -5.79607 0
M  V30 23747 H 2328.74 -0.086264 -6.10539 0
M  V30 23748 H 2330.15 -2.20678 -5.29126 0
M  V30 23749 H 2328.55 -2.99285 -5.20143 0
M  V30 23750 H 2329.62 -3.02683 -3.78829 0
M  V30 23751 N 2330.96 1.31811 -0.863929 0
M  V30 23752 C 2331.93 2.26952 -0.320252 0
M  V30 23753 C 2332.93 1.51976 0.525342 0
M  V30 23754 O 2334.12 1.70938 0.335517 0
M  V30 23755 C 2331.25 3.36501 0.54586 0
M  V30 23756 H 2332.44 2.76554 -1.16008 0
M  V30 23757 H 2329.99 1.4264 -0.63902 0
M  V30 23758 H 2330.73 2.92182 1.40713 0
M  V30 23759 H 2330.51 3.92055 -0.0595363 0
M  V30 23760 H 2332 4.07369 0.918724 0
M  V30 23761 N 2332.44 0.62277 1.44773 0
M  V30 23762 C 2333.86 0.287679 1.56986 0
M  V30 23763 C 2334.06 -1.20942 1.61169 0
M  V30 23764 O 2333.11 -1.99312 1.55019 0
M  V30 23765 C 2334.43 0.972238 2.84549 0
M  V30 23766 C 2335.97 0.949588 2.98248 0
M  V30 23767 C 2336.45 1.61445 4.28602 0
M  V30 23768 N 2337.94 1.58065 4.35396 0
M  V30 23769 C 2338.68 2.0641 5.3496 0
M  V30 23770 N 2338.17 2.62908 6.40977 0
M  V30 23771 N 2339.96 1.97088 5.26415 0
M  V30 23772 H 2332.12 1.59465 1.40302 0
M  V30 23773 H 2334.38 0.66889 0.671782 0
M  V30 23774 H 2334.08 2.02698 2.87413 0
M  V30 23775 H 2333.96 0.504837 3.73806 0
M  V30 23776 H 2336.35 -0.0966549 2.94942 0
M  V30 23777 H 2336.43 1.4554 2.10361 0
M  V30 23778 H 2336.07 2.6601 4.32667 0
M  V30 23779 H 2336 1.08354 5.15332 0
M  V30 23780 H 2338.49 1.16807 3.59395 0
M  V30 23781 H 2338.8 2.97552 7.1322 0
M  V30 23782 H 2337.15 2.66955 6.41685 0
M  V30 23783 H 2340.34 1.52677 4.42501 0
M  V30 23784 H 2340.51 2.35076 6.03857 0
M  V30 23785 N 2333.92 -1.53367 0.362817 0
M  V30 23786 C 2335.15 -2.05634 -0.228577 0
M  V30 23787 C 2335.56 -1.23651 -1.42674 0
M  V30 23788 O 2334.92 -0.276502 -1.80393 0
M  V30 23789 C 2334.97 -3.5606 -0.624783 0
M  V30 23790 O 2334.69 -4.34934 0.525752 0
M  V30 23791 C 2336.19 -4.24573 -1.27486 0
M  V30 23792 H 2333.41 -0.669764 -0.0407066 0
M  V30 23793 H 2335.96 -1.97768 0.520386 0
M  V30 23794 H 2334.11 -3.64085 -1.32366 0
M  V30 23795 H 2334.53 -5.24095 0.206061 0
M  V30 23796 H 2336 -5.31153 -1.50267 0
M  V30 23797 H 2336.48 -3.7812 -2.23432 0
M  V30 23798 H 2337.08 -4.20794 -0.617484 0
M  V30 23799 N 2335.4 -0.091913 -1.57332 0
M  V30 23800 C 2336.64 0.575954 -1.96118 0
M  V30 23801 C 2337 1.65547 -0.972528 0
M  V30 23802 O 2338.2 2.38032 -1.24877 0
M  V30 23803 C 2336.47 1.11967 -3.39409 0
M  V30 23804 S 2338.03 1.79985 -4.00189 0
M  V30 23805 H 2334.85 0.188033 -0.685686 0
M  V30 23806 H 2337.45 -0.170559 -1.94755 0
M  V30 23807 H 2336.16 0.322433 -4.09131 0
M  V30 23808 H 2335.69 1.90208 -3.44361 0
M  V30 23809 H 2337.7 3.08385 -3.88733 0
M  V30 23810 N 2336.88 1.56548 0.181765 0
M  V30 23811 C 2338.12 1.81039 0.898288 0
M  V30 23812 C 2338.45 0.667196 1.83231 0
M  V30 23813 O 2337.72 -0.31364 1.93373 0
M  V30 23814 H 2336.3 0.667822 0.334698 0
M  V30 23815 H 2338.96 1.94029 0.184081 0
M  V30 23816 H 2338.05 2.74699 1.48145 0
M  V30 23817 N 2338.35 -0.449957 1.5104 0
M  V30 23818 C 2339.77 -0.785438 1.38935 0
M  V30 23819 C 2339.97 -1.96136 0.461851 0
M  V30 23820 O 2339.03 -2.52348 -0.0876945 0
M  V30 23821 C 2340.34 -1.07765 2.80726 0
M  V30 23822 C 2341.89 -1.18285 2.89789 0
M  V30 23823 C 2342.36 -1.50807 4.32459 0
M  V30 23824 N 2343.85 -1.57757 4.35508 0
M  V30 23825 C 2344.59 -1.84468 5.42917 0
M  V30 23826 N 2344.08 -2.09056 6.60505 0
M  V30 23827 N 2345.88 -1.86146 5.30383 0
M  V30 23828 H 2338.03 0.324684 2.09904 0
M  V30 23829 H 2340.29 0.0828123 0.944376 0
M  V30 23830 H 2340 -0.286437 3.50532 0
M  V30 23831 H 2339.87 -2.00853 3.19277 0
M  V30 23832 H 2342.26 -1.96471 2.20189 0
M  V30 23833 H 2342.34 -0.231269 2.54752 0
M  V30 23834 H 2341.98 -0.731534 5.02604 0
M  V30 23835 H 2341.91 -2.4715 4.64999 0
M  V30 23836 H 2344.4 -1.40709 3.50727 0
M  V30 23837 H 2344.72 -2.28772 7.38162 0
M  V30 23838 H 2343.06 -2.06405 6.63643 0
M  V30 23839 H 2346.25 -1.66447 4.37508 0
M  V30 23840 H 2346.43 -2.06626 6.14174 0
M  V30 23841 N 2339.83 -1.40974 -0.704569 0
M  V30 23842 C 2340.74 -1.44452 -1.84854 0
M  V30 23843 C 2341.76 -0.335991 -1.70725 0
M  V30 23844 O 2342.93 -0.58231 -1.92798 0
M  V30 23845 C 2340 -1.31593 -3.20756 0
M  V30 23846 C 2339.06 -2.52683 -3.47058 0
M  V30 23847 C 2338.29 -2.40429 -4.76476 0
M  V30 23848 O 2338.52 -1.424 -5.52339 0
M  V30 23849 O 2337.45 -3.30016 -5.03362 0
M  V30 23850 H 2341.28 -2.40945 -1.84876 0
M  V30 23851 H 2338.86 -1.22415 -0.856449 0
M  V30 23852 H 2340.74 -1.26672 -4.01911 0
M  V30 23853 H 2339.42 -0.382105 -3.21437 0
M  V30 23854 H 2338.33 -2.63182 -2.65869 0
M  V30 23855 H 2339.66 -3.44864 -3.51184 0
M  V30 23856 N 2341.31 0.937917 -1.26653 0
M  V30 23857 C 2342.24 2.041 -1.04287 0
M  V30 23858 C 2343.26 1.628 -0.00223876 0
M  V30 23859 O 2344.44 1.76843 -0.242676 0
M  V30 23860 C 2341.54 3.34276 -0.557905 0
M  V30 23861 C 2340.72 4.04326 -1.66851 0
M  V30 23862 C 2339.78 5.12775 -1.18104 0
M  V30 23863 O 2338.8 5.373 -1.87874 0
M  V30 23864 N 2340 5.80492 -0.0312026 0
M  V30 23865 H 2342.77 2.23853 -1.99274 0
M  V30 23866 H 2340.33 1.10762 -1.18082 0
M  V30 23867 H 2342.32 4.04124 -0.215907 0
M  V30 23868 H 2340.89 3.11172 0.298468 0
M  V30 23869 H 2340.11 3.2835 -2.18129 0
M  V30 23870 H 2341.4 4.47879 -2.41416 0
M  V30 23871 H 2340.8 5.63006 0.551387 0
M  V30 23872 H 2339.36 6.51314 0.251694 0
M  V30 23873 N 2342.79 1.08509 1.14296 0
M  V30 23874 C 2343.72 0.737685 2.21541 0
M  V30 23875 C 2344.7 -0.280347 1.67774 0
M  V30 23876 O 2345.88 -0.150487 1.93616 0
M  V30 23877 C 2343.01 0.14732 3.46987 0
M  V30 23878 C 2341.97 1.09382 4.13787 0
M  V30 23879 C 2341.29 0.365618 5.33449 0
M  V30 23880 C 2342.59 2.43238 4.62204 0
M  V30 23881 H 2344.29 1.63435 2.50858 0
M  V30 23882 H 2341.83 0.787264 1.20574 0
M  V30 23883 H 2343.79 -0.107734 4.21262 0
M  V30 23884 H 2342.51 -0.784483 3.17039 0
M  V30 23885 H 2341.17 1.33399 3.41468 0
M  V30 23886 H 2340.82 -0.570022 4.9976 0
M  V30 23887 H 2340.52 0.996614 5.79087 0
M  V30 23888 H 2342.04 0.118641 6.10485 0
M  V30 23889 H 2343.46 2.23481 5.27948 0
M  V30 23890 H 2341.85 3.0204 5.18548 0
M  V30 23891 H 2342.92 3.04687 3.77218 0
M  V30 23892 N 2344.27 -1.31351 0.870907 0
M  V30 23893 C 2345.23 -2.26779 0.332283 0
M  V30 23894 C 2346.23 -1.52253 -0.517275 0
M  V30 23895 O 2347.42 -1.71114 -0.326447 0
M  V30 23896 C 2344.55 -3.36786 -0.528007 0
M  V30 23897 H 2345.74 -2.75935 1.17473 0
M  V30 23898 H 2343.3 -1.42299 0.646575 0
M  V30 23899 H 2344.03 -2.92924 -1.39162 0
M  V30 23900 H 2343.82 -3.92018 0.0803271 0
M  V30 23901 H 2345.31 -4.0785 -0.897107 0
M  V30 23902 N 2345.74 -0.630439 -1.44441 0
M  V30 23903 C 2346.69 0.087102 -2.32437 0
M  V30 23904 C 2347.69 0.836499 -1.47306 0
M  V30 23905 O 2348.89 0.749477 -1.63655 0
M  V30 23906 H 2345.27 0.0469363 -0.750534 0
M  V30 23907 H 2347.24 -0.673148 -2.90708 0
M  V30 23908 C 2345.99 1.05557 -3.3129 0
M  V30 23909 H 2345.31 0.488356 -3.96806 0
M  V30 23910 H 2346.75 1.52714 -3.95543 0
M  V30 23911 C 2345.21 2.14048 -2.60164 0
M  V30 23912 O 2345.74 3.2212 -2.40003 0
M  V30 23913 N 2343.95 1.89964 -2.19914 0
M  V30 23914 H 2343.49 1.0208 -2.36511 0
M  V30 23915 H 2343.45 2.62753 -1.72651 0
M  V30 23916 N 2347.22 1.53172 -0.370945 0
M  V30 23917 C 2348.63 1.86393 0.107106 0
M  V30 23918 C 2348.98 1.29135 1.47712 0
M  V30 23919 O 2348.11 0.615475 2.07463 0
M  V30 23920 C 2348.7 3.38202 0.201127 0
M  V30 23921 C 2347.26 3.71201 0.623441 0
M  V30 23922 C 2346.41 2.76377 -0.226027 0
M  V30 23923 H 2349.36 1.47344 -0.589536 0
M  V30 23924 H 2349.38 3.6647 1.02371 0
M  V30 23925 H 2348.89 3.79847 -0.796124 0
M  V30 23926 H 2347 3.35117 1.62873 0
M  V30 23927 H 2347.11 4.77474 0.39433 0
M  V30 23928 H 2345.47 2.52856 0.305917 0
M  V30 23929 H 2346.26 3.20856 -1.22092 0
M  V30 23930 N 2348.7 0.100255 1.57281 0
M  V30 23931 C 2349.95 -0.56195 1.93714 0
M  V30 23932 C 2350.26 -1.69016 0.984522 0
M  V30 23933 O 2351.47 -2.41387 1.24277 0
M  V30 23934 C 2349.92 -1.051 3.44212 0
M  V30 23935 C 2349.53 0.0477415 4.47975 0
M  V30 23936 C 2351.28 -1.68564 3.89598 0
M  V30 23937 C 2349.18 -0.456952 5.89632 0
M  V30 23938 H 2348.11 -0.213688 0.723086 0
M  V30 23939 H 2350.76 0.177089 1.82643 0
M  V30 23940 H 2349.15 -1.84388 3.50452 0
M  V30 23941 H 2350.32 0.823412 4.53383 0
M  V30 23942 H 2348.64 0.587888 4.12229 0
M  V30 23943 H 2351.23 -2.07406 4.92836 0
M  V30 23944 H 2351.58 -2.55682 3.28531 0
M  V30 23945 H 2352.11 -0.958494 3.8608 0
M  V30 23946 H 2348.85 0.377731 6.54411 0
M  V30 23947 H 2348.37 -1.19951 5.87683 0
M  V30 23948 H 2350.05 -0.924258 6.40364 0
M  V30 23949 N 2350.18 -1.56643 -0.17346 0
M  V30 23950 C 2351.43 -1.82142 -0.891752 0
M  V30 23951 C 2351.76 -0.677768 -1.81989 0
M  V30 23952 O 2351.03 0.320412 -1.91843 0
M  V30 23953 C 2351.32 -3.18018 -1.68928 0
M  V30 23954 C 2351.17 -4.42908 -0.784409 0
M  V30 23955 C 2352.49 -3.50812 -2.65742 0
M  V30 23956 H 2349.61 -0.662572 -0.322749 0
M  V30 23957 H 2352.25 -1.89341 -0.158062 0
M  V30 23958 H 2350.4 -3.12011 -2.31476 0
M  V30 23959 H 2352.07 -4.60979 -0.171965 0
M  V30 23960 H 2350.31 -4.33702 -0.0923355 0
M  V30 23961 H 2350.99 -5.34526 -1.3779 0
M  V30 23962 H 2353.46 -3.57259 -2.1332 0
M  V30 23963 H 2352.34 -4.46965 -3.18612 0
M  V30 23964 H 2352.6 -2.75407 -3.45838 0
M  V30 23965 N 2351.66 0.44194 -1.51277 0
M  V30 23966 C 2352.88 1.21892 -1.67801 0
M  V30 23967 C 2353.31 1.84367 -0.372896 0
M  V30 23968 O 2352.67 1.68606 0.666471 0
M  V30 23969 C 2352.71 2.28206 -2.79203 0
M  V30 23970 O 2351.82 3.33579 -2.42485 0
M  V30 23971 H 2351.16 0.357326 -0.559655 0
M  V30 23972 H 2353.69 0.522487 -1.97816 0
M  V30 23973 H 2353.7 2.73064 -3.03151 0
M  V30 23974 H 2352.37 1.82111 -3.7391 0
M  V30 23975 H 2350.95 2.9423 -2.29092 0
M  V30 23976 N 2353.14 1.41345 0.697083 0
M  V30 23977 C 2354.36 1.44173 1.49093 0
M  V30 23978 C 2354.79 0.0481899 1.88038 0
M  V30 23979 O 2354.14 -0.948216 1.54527 0
M  V30 23980 C 2354.19 2.35495 2.73084 0
M  V30 23981 O 2353.3 1.81094 3.70511 0
M  V30 23982 H 2352.64 0.489369 0.448792 0
M  V30 23983 H 2355.17 1.85789 0.856959 0
M  V30 23984 H 2355.18 2.51317 3.21409 0
M  V30 23985 H 2353.85 3.3675 2.44075 0
M  V30 23986 H 2352.43 1.74714 3.29438 0
M  V30 23987 N 2354.61 -0.931187 1.27148 0
M  V30 23988 C 2355.86 -1.67518 1.13058 0
M  V30 23989 C 2356.18 -1.92277 -0.324757 0
M  V30 23990 O 2355.45 -1.52656 -1.22772 0
M  V30 23991 H 2354.03 -0.620846 0.415402 0
M  V30 23992 H 2356.69 -1.1183 1.59624 0
M  V30 23993 H 2355.79 -2.64482 1.65698 0
M  V30 23994 N 2356.09 -1.09114 -1.13719 0
M  V30 23995 C 2357.04 -0.722258 -2.21102 0
M  V30 23996 C 2358.03 0.275344 -1.67147 0
M  V30 23997 O 2359.24 0.137144 -1.79477 0
M  V30 23998 H 2355.61 -0.215565 -0.720441 0
M  V30 23999 H 2357.59 -1.63714 -2.4948 0
M  V30 24000 C 2356.33 -0.155491 -3.47352 0
M  V30 24001 H 2355.66 -0.914314 -3.89205 0
M  V30 24002 H 2357.1 0.0647221 -4.23951 0
M  V30 24003 C 2355.56 1.10847 -3.18142 0
M  V30 24004 O 2356.09 2.19221 -3.36608 0
M  V30 24005 N 2354.29 1.02171 -2.72047 0
M  V30 24006 H 2353.84 0.139719 -2.57221 0
M  V30 24007 H 2353.8 1.86815 -2.52878 0
M  V30 24008 N 2357.57 1.30887 -0.877861 0
M  V30 24009 C 2358.79 2.01116 -0.506665 0
M  V30 24010 C 2359.22 1.65414 0.895535 0
M  V30 24011 O 2358.58 0.86695 1.59228 0
M  V30 24012 C 2358.63 3.54125 -0.680285 0
M  V30 24013 O 2357.73 4.11469 0.276961 0
M  V30 24014 H 2357.07 0.632996 -0.200529 0
M  V30 24015 H 2359.6 1.669 -1.18345 0
M  V30 24016 H 2359.61 4.03906 -0.576571 0
M  V30 24017 H 2358.29 3.79449 -1.70267 0
M  V30 24018 H 2356.86 3.72682 0.12754 0
M  V30 24019 N 2359.05 0.638091 1.44105 0
M  V30 24020 C 2359.98 -0.0493876 2.33448 0
M  V30 24021 C 2360.96 -0.827646 1.48607 0
M  V30 24022 O 2362.14 -0.792141 1.7731 0
M  V30 24023 C 2359.27 -1.02685 3.31773 0
M  V30 24024 C 2358.23 -0.359748 4.26485 0
M  V30 24025 C 2357.55 -1.4476 5.14732 0
M  V30 24026 C 2358.85 0.738387 5.17054 0
M  V30 24027 H 2360.55 0.696688 2.91181 0
M  V30 24028 H 2358.09 0.336481 1.40014 0
M  V30 24029 H 2360.05 -1.51659 3.93164 0
M  V30 24030 H 2358.77 -1.8039 2.72263 0
M  V30 24031 H 2357.43 0.109404 3.66437 0
M  V30 24032 H 2357.08 -2.2157 4.5157 0
M  V30 24033 H 2356.78 -1.00658 5.78914 0
M  V30 24034 H 2358.3 -1.93901 5.78995 0
M  V30 24035 H 2359.72 0.331454 5.72341 0
M  V30 24036 H 2358.11 1.10296 5.89877 0
M  V30 24037 H 2359.18 1.60266 4.57649 0
M  V30 24038 N 2360.53 -1.52973 0.379063 0
M  V30 24039 C 2361.77 -2.01446 -0.206386 0
M  V30 24040 C 2362.1 -1.2659 -1.47666 0
M  V30 24041 O 2361.36 -0.351709 -1.92514 0
M  V30 24042 C 2361.65 -3.53435 -0.530898 0
M  V30 24043 C 2361.32 -4.46239 0.646625 0
M  V30 24044 C 2359.98 -4.71328 0.969687 0
M  V30 24045 C 2362.33 -5.0106 1.43487 0
M  V30 24046 C 2359.66 -5.48488 2.08273 0
M  V30 24047 C 2362.01 -5.79436 2.53844 0
M  V30 24048 C 2360.68 -6.02807 2.8667 0
M  V30 24049 H 2359.95 -0.737141 -0.075522 0
M  V30 24050 H 2362.6 -1.84465 0.514303 0
M  V30 24051 H 2360.9 -3.68435 -1.33278 0
M  V30 24052 H 2362.6 -3.88425 -0.996349 0
M  V30 24053 H 2359.19 -4.26869 0.384809 0
M  V30 24054 H 2363.37 -4.81611 1.19853 0
M  V30 24055 H 2358.63 -5.64812 2.34088 0
M  V30 24056 H 2362.8 -6.20919 3.1533 0
M  V30 24057 H 2360.43 -6.6238 3.73037 0
M  V30 24058 N 2362 -0.108595 -1.57225 0
M  V30 24059 C 2362.93 0.842282 -2.17779 0
M  V30 24060 C 2363.91 1.28469 -1.11489 0
M  V30 24061 O 2365.1 1.34916 -1.39683 0
M  V30 24062 C 2362.23 2.09639 -2.76891 0
M  V30 24063 C 2361.18 1.79214 -3.88673 0
M  V30 24064 C 2360.51 3.11567 -4.34546 0
M  V30 24065 C 2361.81 1.06855 -5.11253 0
M  V30 24066 H 2363.5 0.337721 -2.97489 0
M  V30 24067 H 2361.05 0.161 -1.43097 0
M  V30 24068 H 2363 2.76608 -3.17909 0
M  V30 24069 H 2361.73 2.62401 -1.94456 0
M  V30 24070 H 2360.39 1.14638 -3.48215 0
M  V30 24071 H 2360.03 3.62243 -3.48983 0
M  V30 24072 H 2359.73 2.91987 -5.09919 0
M  V30 24073 H 2361.26 3.79672 -4.78207 0
M  V30 24074 H 2362.67 1.63958 -5.49355 0
M  V30 24075 H 2361.07 0.974074 -5.92142 0
M  V30 24076 H 2362.14 0.0535316 -4.8487 0
M  V30 24077 N 2363.48 1.56732 0.16515 0
M  V30 24078 C 2364.9 1.50989 0.517148 0
M  V30 24079 C 2365.1 0.813926 1.8433 0
M  V30 24080 O 2364.15 0.376864 2.49672 0
M  V30 24081 C 2365.47 2.95734 0.544209 0
M  V30 24082 C 2367.01 3.06574 0.630985 0
M  V30 24083 C 2367.49 4.5279 0.688881 0
M  V30 24084 N 2368.98 4.57061 0.751602 0
M  V30 24085 C 2369.72 5.67549 0.817077 0
M  V30 24086 N 2369.21 6.87652 0.843008 0
M  V30 24087 N 2371 5.55535 0.856571 0
M  V30 24088 H 2363.16 2.00381 -0.704353 0
M  V30 24089 H 2365.42 0.913143 -0.254703 0
M  V30 24090 H 2365.12 3.49835 -0.361668 0
M  V30 24091 H 2365 3.50713 1.38854 0
M  V30 24092 H 2367.39 2.52503 1.52729 0
M  V30 24093 H 2367.47 2.5467 -0.24014 0
M  V30 24094 H 2367.11 5.07493 -0.203189 0
M  V30 24095 H 2367.04 5.02456 1.57624 0
M  V30 24096 H 2369.53 3.70592 0.739596 0
M  V30 24097 H 2369.84 7.67608 0.894313 0
M  V30 24098 H 2368.19 6.9025 0.811183 0
M  V30 24099 H 2371.38 4.60622 0.833356 0
M  V30 24100 H 2371.55 6.41661 0.904134 0
M  V30 24101 N 2364.96 -0.433911 1.51509 0
M  V30 24102 C 2366.21 -1.18306 1.64347 0
M  V30 24103 C 2366.53 -1.91114 0.361349 0
M  V30 24104 O 2365.79 -1.84423 -0.65472 0
M  V30 24105 C 2366.09 -2.222 2.79932 0
M  V30 24106 C 2365.76 -1.6638 4.19081 0
M  V30 24107 C 2364.42 -1.50879 4.56934 0
M  V30 24108 C 2366.77 -1.25372 5.05897 0
M  V30 24109 C 2364.1 -0.928506 5.79306 0
M  V30 24110 C 2366.45 -0.687712 6.28851 0
M  V30 24111 C 2365.11 -0.519638 6.65474 0
M  V30 24112 H 2364.38 -0.432912 0.601388 0
M  V30 24113 H 2367.03 -0.473644 1.8555 0
M  V30 24114 H 2365.34 -2.99193 2.52964 0
M  V30 24115 H 2367.03 -2.79992 2.87064 0
M  V30 24116 H 2363.62 -1.79421 3.89238 0
M  V30 24117 H 2367.81 -1.36166 4.77255 0
M  V30 24118 H 2363.06 -0.786079 6.06326 0
M  V30 24119 H 2367.24 -0.361459 6.95461 0
M  V30 24120 H 2364.86 -0.0678643 7.6017 0
M  V30 24121 N 2366.44 -1.41713 -0.689577 0
M  V30 24122 C 2367.37 -1.39969 -1.81497 0
M  V30 24123 C 2368.38 -0.300946 -1.59994 0
M  V30 24124 O 2369.57 -0.563069 -1.69386 0
M  V30 24125 C 2366.67 -1.16184 -3.18362 0
M  V30 24126 C 2365.85 -2.38213 -3.66842 0
M  V30 24127 C 2364.9 -2.10195 -4.82395 0
M  V30 24128 O 2363.93 -2.83281 -4.93701 0
M  V30 24129 N 2365.13 -1.0959 -5.70062 0
M  V30 24130 H 2367.9 -2.36968 -1.83484 0
M  V30 24131 H 2365.46 -1.36402 -0.872125 0
M  V30 24132 H 2367.45 -0.953825 -3.93299 0
M  V30 24133 H 2366.02 -0.277614 -3.11365 0
M  V30 24134 H 2365.24 -2.74678 -2.82746 0
M  V30 24135 H 2366.53 -3.19505 -3.95973 0
M  V30 24136 H 2365.93 -0.491118 -5.63564 0
M  V30 24137 H 2364.48 -0.94777 -6.44873 0
M  V30 24138 N 2367.92 0.924431 -1.2764 0
M  V30 24139 C 2369.14 1.71177 -1.17104 0
M  V30 24140 C 2369.57 1.8618 0.268101 0
M  V30 24141 O 2368.92 1.3642 1.19413 0
M  V30 24142 C 2368.97 3.08736 -1.86319 0
M  V30 24143 O 2368.08 3.9565 -1.16338 0
M  V30 24144 H 2367.42 0.524562 -0.4071 0
M  V30 24145 H 2369.95 1.15663 -1.68769 0
M  V30 24146 H 2369.96 3.59031 -1.93806 0
M  V30 24147 H 2368.63 2.97133 -2.91006 0
M  V30 24148 H 2367.21 3.54089 -1.16941 0
M  V30 24149 N 2369.39 1.09715 1.13139 0
M  V30 24150 C 2370.64 0.83337 1.84118 0
M  V30 24151 C 2370.96 -0.642871 1.84098 0
M  V30 24152 O 2370.23 -1.46653 1.29884 0
M  V30 24153 H 2368.81 0.305305 0.681761 0
M  V30 24154 H 2371.48 1.3859 1.37036 0
M  V30 24155 H 2370.57 1.18956 2.88541 0
M  V30 24156 N 2370.87 -1.30419 0.88479 0
M  V30 24157 C 2372.28 -1.78301 0.553688 0
M  V30 24158 C 2372.63 -1.72752 -0.930122 0
M  V30 24159 O 2371.76 -1.30426 -1.72679 0
M  V30 24160 C 2372.35 -3.23759 0.998291 0
M  V30 24161 C 2370.91 -3.69477 0.718605 0
M  V30 24162 C 2370.06 -2.50876 1.18137 0
M  V30 24163 H 2373.01 -1.17292 1.06903 0
M  V30 24164 H 2373.03 -3.79091 0.327184 0
M  V30 24165 H 2372.54 -3.27765 2.07826 0
M  V30 24166 H 2370.65 -3.70958 -0.349378 0
M  V30 24167 H 2370.76 -4.60955 1.30603 0
M  V30 24168 H 2369.12 -2.47515 0.600713 0
M  V30 24169 H 2369.91 -2.5762 2.26907 0
M  V30 24170 N 2372.35 -0.645724 -1.43764 0
M  V30 24171 C 2373.58 -0.16192 -2.06767 0
M  V30 24172 C 2374 1.16047 -1.48037 0
M  V30 24173 O 2373.36 1.71521 -0.587399 0
M  V30 24174 C 2373.41 -0.0762636 -3.60519 0
M  V30 24175 O 2372.51 0.96365 -4.00983 0
M  V30 24176 H 2371.85 -0.0914405 -0.657674 0
M  V30 24177 H 2374.38 -0.886531 -1.84396 0
M  V30 24178 H 2374.39 0.109532 -4.07853 0
M  V30 24179 H 2373.07 -1.04164 -4.02644 0
M  V30 24180 H 2371.64 0.751248 -3.65254 0
M  V30 24181 N 2373.83 1.5277 -0.38717 0
M  V30 24182 C 2375.24 1.59557 -0.0370351 0
M  V30 24183 C 2375.44 1.40127 1.44799 0
M  V30 24184 O 2374.5 1.2172 2.21225 0
M  V30 24185 C 2375.81 2.96304 -0.512308 0
M  V30 24186 C 2377.36 3.09476 -0.468382 0
M  V30 24187 C 2377.84 4.48669 -0.91981 0
M  V30 24188 N 2379.33 4.54846 -0.875736 0
M  V30 24189 C 2380.06 5.60778 -1.19647 0
M  V30 24190 N 2379.56 6.74365 -1.58757 0
M  V30 24191 N 2381.35 5.50872 -1.11786 0
M  V30 24192 H 2373.5 1.63649 -1.35398 0
M  V30 24193 H 2375.77 0.768678 -0.554831 0
M  V30 24194 H 2375.47 3.15732 -1.5494 0
M  V30 24195 H 2375.35 3.77093 0.0897387 0
M  V30 24196 H 2377.73 2.89745 0.55962 0
M  V30 24197 H 2377.81 2.30644 -1.1062 0
M  V30 24198 H 2377.46 4.6914 -1.94603 0
M  V30 24199 H 2377.39 5.25963 -0.25902 0
M  V30 24200 H 2379.88 3.73299 -0.587909 0
M  V30 24201 H 2380.19 7.5116 -1.81599 0
M  V30 24202 H 2378.54 6.75702 -1.62642 0
M  V30 24203 H 2381.73 4.61015 -0.811345 0
M  V30 24204 H 2381.9 6.33328 -1.37114 0
M  V30 24205 N 2375.31 0.116931 1.57166 0
M  V30 24206 C 2376.24 -0.864469 2.12272 0
M  V30 24207 C 2377.25 -1.23136 1.06496 0
M  V30 24208 O 2378.44 -1.18067 1.33875 0
M  V30 24209 C 2375.54 -2.16698 2.60567 0
M  V30 24210 C 2374.71 -1.97209 3.90419 0
M  V30 24211 C 2373.77 -3.1117 4.24334 0
M  V30 24212 O 2372.8 -2.84175 4.93187 0
M  V30 24213 N 2374 -4.37547 3.81488 0
M  V30 24214 H 2376.77 -0.393674 2.97103 0
M  V30 24215 H 2374.33 -0.0675521 1.61759 0
M  V30 24216 H 2376.32 -2.91927 2.80287 0
M  V30 24217 H 2374.89 -2.55132 1.80628 0
M  V30 24218 H 2374.11 -1.06185 3.79629 0
M  V30 24219 H 2375.4 -1.81491 4.7533 0
M  V30 24220 H 2374.79 -4.62355 3.25951 0
M  V30 24221 H 2373.35 -5.09654 4.0632 0
M  V30 24222 N 2376.78 -1.56818 -0.156836 0
M  V30 24223 C 2377.73 -1.98457 -1.21315 0
M  V30 24224 C 2378.73 -0.87547 -1.45024 0
M  V30 24225 O 2379.93 -1.06063 -1.45433 0
M  V30 24226 H 2376.31 -0.631612 -0.408131 0
M  V30 24227 H 2378.28 -2.86474 -0.835194 0
M  V30 24228 C 2377.03 -2.3729 -2.54144 0
M  V30 24229 H 2376.35 -3.2218 -2.36727 0
M  V30 24230 H 2377.79 -2.70257 -3.26707 0
M  V30 24231 C 2376.25 -1.22179 -3.13965 0
M  V30 24232 O 2376.78 -0.517219 -3.98356 0
M  V30 24233 N 2374.99 -0.988584 -2.73268 0
M  V30 24234 H 2374.53 -1.5633 -2.04741 0
M  V30 24235 H 2374.49 -0.220264 -3.13627 0
M  V30 24236 N 2378.26 0.425871 -1.51737 0
M  V30 24237 C 2379.68 0.763235 -1.40167 0
M  V30 24238 C 2379.88 1.95376 -0.492996 0
M  V30 24239 O 2378.93 2.52455 0.0475371 0
M  V30 24240 C 2380.25 1.03286 -2.82405 0
M  V30 24241 C 2381.8 1.13659 -2.91634 0
M  V30 24242 C 2382.27 1.43908 -4.34804 0
M  V30 24243 N 2383.76 1.50808 -4.37962 0
M  V30 24244 C 2384.5 1.75807 -5.45783 0
M  V30 24245 N 2383.99 1.98522 -6.63748 0
M  V30 24246 N 2385.79 1.77684 -5.33277 0
M  V30 24247 H 2377.94 -0.358037 -2.09361 0
M  V30 24248 H 2380.2 -0.097826 -0.942939 0
M  V30 24249 H 2379.91 0.230634 -3.50943 0
M  V30 24250 H 2379.78 1.95749 -3.22432 0
M  V30 24251 H 2382.17 1.92943 -2.23287 0
M  V30 24252 H 2382.25 0.190711 -2.55088 0
M  V30 24253 H 2381.89 0.651482 -5.03704 0
M  V30 24254 H 2381.82 2.39721 -4.68872 0
M  V30 24255 H 2384.31 1.35111 -3.52921 0
M  V30 24256 H 2384.63 2.17 -7.41708 0
M  V30 24257 H 2382.97 1.95821 -6.66843 0
M  V30 24258 H 2386.16 1.59465 -4.401 0
M  V30 24259 H 2386.33 1.96829 -6.17384 0
M  V30 24260 N 2379.74 1.42077 0.682052 0
M  V30 24261 C 2380.99 1.41878 1.43927 0
M  V30 24262 C 2381.31 0.0335942 1.94971 0
M  V30 24263 O 2380.58 -0.926743 1.72593 0
M  V30 24264 H 2379.16 0.522276 0.534076 0
M  V30 24265 H 2381.82 1.77435 0.806396 0
M  V30 24266 H 2380.92 2.11418 2.29584 0
M  V30 24267 N 2381.22 -0.917649 1.28129 0
M  V30 24268 C 2382.47 -1.66639 1.15055 0
M  V30 24269 C 2382.79 -1.92147 -0.301643 0
M  V30 24270 O 2382.05 -1.51713 -1.23619 0
M  V30 24271 C 2382.35 -3.03323 1.89023 0
M  V30 24272 C 2382.01 -2.9749 3.38837 0
M  V30 24273 C 2380.68 -2.95606 3.79698 0
M  V30 24274 C 2383.03 -2.88028 4.34384 0
M  V30 24275 C 2380.36 -2.82057 5.14452 0
M  V30 24276 C 2382.71 -2.7602 5.69206 0
M  V30 24277 C 2381.37 -2.72492 6.09348 0
M  V30 24278 H 2380.64 -0.609775 0.421017 0
M  V30 24279 H 2383.29 -1.06942 1.58857 0
M  V30 24280 H 2381.59 -3.66783 1.37759 0
M  V30 24281 H 2383.29 -3.60152 1.76327 0
M  V30 24282 H 2379.88 -2.99749 3.06347 0
M  V30 24283 H 2384.07 -2.88574 4.0378 0
M  V30 24284 H 2379.32 -2.77718 5.44686 0
M  V30 24285 H 2383.5 -2.67666 6.42906 0
M  V30 24286 H 2381.12 -2.6175 7.13716 0
M  V30 24287 N 2382.7 -1.10314 -1.12555 0
M  V30 24288 C 2384.11 -0.834673 -1.36034 0
M  V30 24289 C 2384.31 0.546505 -1.93947 0
M  V30 24290 O 2383.37 1.29962 -2.16486 0
M  V30 24291 C 2384.68 -1.93335 -2.30309 0
M  V30 24292 C 2386.23 -1.96164 -2.43903 0
M  V30 24293 C 2386.71 -3.05201 -3.41491 0
M  V30 24294 N 2388.2 -3.045 -3.49047 0
M  V30 24295 C 2388.93 -3.8551 -4.24464 0
M  V30 24296 N 2388.43 -4.76451 -5.02957 0
M  V30 24297 N 2390.22 -3.73732 -4.19858 0
M  V30 24298 H 2382.37 -1.99343 -0.733211 0
M  V30 24299 H 2384.63 -0.866204 -0.385219 0
M  V30 24300 H 2384.34 -2.92739 -1.94928 0
M  V30 24301 H 2384.21 -1.81944 -3.30418 0
M  V30 24302 H 2386.6 -0.973935 -2.78565 0
M  V30 24303 H 2386.68 -2.11632 -1.43686 0
M  V30 24304 H 2386.33 -4.04191 -3.07558 0
M  V30 24305 H 2386.26 -2.86976 -4.41534 0
M  V30 24306 H 2388.75 -2.38601 -2.93049 0
M  V30 24307 H 2389.06 -5.34825 -5.57837 0
M  V30 24308 H 2387.41 -4.80481 -5.02158 0
M  V30 24309 H 2390.6 -3.02038 -3.57618 0
M  V30 24310 H 2390.77 -4.37102 -4.78378 0
M  V30 24311 N 2384.18 1.29948 -0.891694 0
M  V30 24312 C 2385.14 2.26221 -0.368319 0
M  V30 24313 C 2386.14 1.53056 0.492987 0
M  V30 24314 O 2387.33 1.71612 0.299183 0
M  V30 24315 C 2384.46 3.37584 0.47436 0
M  V30 24316 H 2385.65 2.74031 -1.21848 0
M  V30 24317 H 2383.21 1.41253 -0.669132 0
M  V30 24318 H 2383.94 2.95101 1.34484 0
M  V30 24319 H 2383.73 3.9184 -0.142684 0
M  V30 24320 H 2385.22 4.09226 0.832108 0
M  V30 24321 N 2385.65 0.653339 1.4342 0
M  V30 24322 C 2386.59 -0.0768731 2.29071 0
M  V30 24323 C 2387.6 -0.786992 1.42514 0
M  V30 24324 O 2388.79 -0.644728 1.6645 0
M  V30 24325 C 2385.89 -1.13193 3.19438 0
M  V30 24326 C 2385.06 -0.49993 4.34534 0
M  V30 24327 C 2384.12 -1.45189 5.05773 0
M  V30 24328 O 2383.15 -0.960439 5.61039 0
M  V30 24329 N 2384.35 -2.78585 5.09285 0
M  V30 24330 H 2387.11 0.658286 2.92381 0
M  V30 24331 H 2384.67 0.496131 1.54111 0
M  V30 24332 H 2386.67 -1.76958 3.63962 0
M  V30 24333 H 2385.24 -1.76906 2.57727 0
M  V30 24334 H 2384.46 0.316807 3.92925 0
M  V30 24335 H 2385.74 -0.058745 5.08766 0
M  V30 24336 H 2385.14 -3.21072 4.65757 0
M  V30 24337 H 2383.7 -3.37652 5.57525 0
M  V30 24338 N 2387.13 -1.52563 0.395266 0
M  V30 24339 C 2388.38 -2.01653 -0.185008 0
M  V30 24340 C 2388.71 -1.28149 -1.46315 0
M  V30 24341 O 2387.96 -0.372108 -1.9213 0
M  V30 24342 C 2388.26 -3.53978 -0.493382 0
M  V30 24343 C 2387.93 -4.45528 0.693918 0
M  V30 24344 C 2386.59 -4.70273 1.01962 0
M  V30 24345 C 2388.94 -4.9951 1.48794 0
M  V30 24346 C 2386.27 -5.46248 2.14079 0
M  V30 24347 C 2388.62 -5.76711 2.59975 0
M  V30 24348 C 2387.28 -5.99733 2.93047 0
M  V30 24349 H 2386.55 -0.737901 -0.0676994 0
M  V30 24350 H 2389.2 -1.83909 0.533839 0
M  V30 24351 H 2387.51 -3.69828 -1.29363 0
M  V30 24352 H 2389.2 -3.8946 -0.955095 0
M  V30 24353 H 2385.79 -4.26437 0.430062 0
M  V30 24354 H 2389.98 -4.80313 1.24954 0
M  V30 24355 H 2385.23 -5.62297 2.40066 0
M  V30 24356 H 2389.41 -6.17539 3.21898 0
M  V30 24357 H 2387.03 -6.58386 3.80042 0
M  V30 24358 N 2388.61 -0.125265 -1.57101 0
M  V30 24359 C 2390.03 0.231294 -1.57915 0
M  V30 24360 C 2390.23 1.66264 -1.13836 0
M  V30 24361 O 2389.28 2.38516 -0.828623 0
M  V30 24362 C 2390.59 -0.00771775 -3.00699 0
M  V30 24363 C 2392.14 0.0576933 -3.12947 0
M  V30 24364 C 2392.62 -0.153706 -4.57742 0
M  V30 24365 N 2394.11 -0.0998887 -4.63092 0
M  V30 24366 C 2394.84 -0.238274 -5.72905 0
M  V30 24367 N 2394.34 -0.433179 -6.91444 0
M  V30 24368 N 2396.13 -0.177406 -5.6182 0
M  V30 24369 H 2388.28 -1.0601 -1.84053 0
M  V30 24370 H 2390.55 -0.417944 -0.850898 0
M  V30 24371 H 2390.25 -0.99749 -3.37258 0
M  V30 24372 H 2390.13 0.721387 -3.70238 0
M  V30 24373 H 2392.51 1.038 -2.76242 0
M  V30 24374 H 2392.59 -0.703393 -2.45939 0
M  V30 24375 H 2392.24 -1.13101 -4.95147 0
M  V30 24376 H 2392.17 0.627442 -5.22849 0
M  V30 24377 H 2394.66 0.0469846 -3.77871 0
M  V30 24378 H 2394.97 -0.529468 -7.70984 0
M  V30 24379 H 2393.32 -0.469231 -6.93414 0
M  V30 24380 H 2396.51 -0.0260571 -4.68093 0
M  V30 24381 H 2396.68 -0.288696 -6.47357 0
M  V30 24382 N 2390.09 1.56899 0.148518 0
M  V30 24383 C 2391.02 1.94752 1.20849 0
M  V30 24384 C 2392.03 0.843176 1.39264 0
M  V30 24385 O 2393.22 1.12159 1.38862 0
M  V30 24386 C 2390.32 2.205 2.57358 0
M  V30 24387 C 2389.49 3.51781 2.59941 0
M  V30 24388 C 2388.55 3.66087 3.77977 0
M  V30 24389 O 2387.58 4.38494 3.62921 0
M  V30 24390 N 2388.78 3.02637 4.95369 0
M  V30 24391 H 2391.55 2.86281 0.886754 0
M  V30 24392 H 2389.11 1.5833 0.338094 0
M  V30 24393 H 2391.1 2.27313 3.34829 0
M  V30 24394 H 2389.67 1.35243 2.8183 0
M  V30 24395 H 2388.89 3.56422 1.68396 0
M  V30 24396 H 2390.18 4.38125 2.58696 0
M  V30 24397 H 2389.58 2.43724 5.10505 0
M  V30 24398 H 2388.13 3.15014 5.70622 0
M  V30 24399 N 2391.57 -0.417818 1.51961 0
M  V30 24400 C 2392.53 -1.49108 1.74067 0
M  V30 24401 C 2393.53 -1.48757 0.610563 0
M  V30 24402 O 2394.72 -1.50435 0.878347 0
M  V30 24403 C 2391.85 -2.88562 1.81507 0
M  V30 24404 H 2393.04 -1.30803 2.69872 0
M  V30 24405 H 2390.6 -0.64776 1.42245 0
M  V30 24406 H 2391.33 -3.12248 0.875868 0
M  V30 24407 H 2391.12 -2.9022 2.63656 0
M  V30 24408 H 2392.61 -3.66383 2.00382 0
M  V30 24409 N 2393.04 -1.42436 -0.674508 0
M  V30 24410 C 2394.28 -1.44407 -1.44658 0
M  V30 24411 C 2394.65 -0.0586121 -1.91911 0
M  V30 24412 O 2395.85 0.0469519 -2.68759 0
M  V30 24413 C 2394.12 -2.44018 -2.61132 0
M  V30 24414 S 2395.68 -2.64693 -3.49976 0
M  V30 24415 H 2392.5 -0.511293 -0.494066 0
M  V30 24416 H 2395.1 -1.79042 -0.78513 0
M  V30 24417 H 2393.8 -3.4345 -2.24656 0
M  V30 24418 H 2393.33 -2.10809 -3.32149 0
M  V30 24419 H 2395.35 -1.93015 -4.57121 0
M  V30 24420 N 2394.52 0.910841 -1.28614 0
M  V30 24421 C 2395.77 1.65699 -1.15708 0
M  V30 24422 C 2396.09 1.92769 0.294126 0
M  V30 24423 O 2395.36 1.5459 1.20328 0
M  V30 24424 H 2393.94 0.614159 -0.425227 0
M  V30 24425 H 2396.6 1.09277 -1.61383 0
M  V30 24426 H 2395.7 2.61812 -1.69885 0
M  V30 24427 N 2396 1.10909 1.11969 0
M  V30 24428 C 2397.25 0.852852 1.83224 0
M  V30 24429 C 2397.57 -0.623309 1.8477 0
M  V30 24430 O 2396.84 -1.45267 1.31432 0
M  V30 24431 H 2395.42 0.312519 0.678484 0
M  V30 24432 H 2398.08 1.40036 1.35558 0
M  V30 24433 H 2397.18 1.2201 2.87263 0
M  V30 24434 N 2397.48 -1.29474 0.898573 0
M  V30 24435 C 2398.43 -2.25347 0.346807 0
M  V30 24436 C 2399.41 -1.51834 -0.532482 0
M  V30 24437 O 2400.6 -1.72989 -0.374683 0
M  V30 24438 C 2397.73 -3.40651 -0.425621 0
M  V30 24439 C 2396.82 -4.21504 0.468524 0
M  V30 24440 N 2397.21 -4.80646 1.57523 0
M  V30 24441 C 2395.51 -4.45205 0.266108 0
M  V30 24442 C 2396.21 -5.4134 2.12899 0
M  V30 24443 N 2395.19 -5.24667 1.42217 0
M  V30 24444 H 2398.99 -2.68632 1.19223 0
M  V30 24445 H 2396.5 -1.4407 0.749498 0
M  V30 24446 H 2398.5 -4.08398 -0.837644 0
M  V30 24447 H 2397.16 -2.98904 -1.26833 0
M  V30 24448 H 2398.17 -4.79462 1.95798 0
M  V30 24449 H 2394.85 -4.14015 -0.538321 0
M  V30 24450 H 2396.24 -5.98221 3.05911 0
M  V30 24451 N 2398.96 -0.660936 -1.43071 0
M  V30 24452 C 2400.21 -0.17477 -2.00941 0
M  V30 24453 C 2400.52 1.22114 -1.52799 0
M  V30 24454 O 2401.72 1.80294 -2.02994 0
M  V30 24455 C 2400.18 -0.261622 -3.58948 0
M  V30 24456 C 2399.79 -1.66071 -4.16082 0
M  V30 24457 C 2401.53 0.166543 -4.24173 0
M  V30 24458 C 2399.44 -1.70108 -5.66407 0
M  V30 24459 H 2398.37 -0.0615763 -0.751481 0
M  V30 24460 H 2401.02 -0.824098 -1.63954 0
M  V30 24461 H 2399.4 0.455352 -3.93373 0
M  V30 24462 H 2400.58 -2.40366 -3.93142 0
M  V30 24463 H 2398.89 -2.03552 -3.63257 0
M  V30 24464 H 2401.49 0.156339 -5.34471 0
M  V30 24465 H 2401.83 1.19936 -3.98649 0
M  V30 24466 H 2402.36 -0.498945 -3.94659 0
M  V30 24467 H 2399.1 -2.71325 -5.9671 0
M  V30 24468 H 2398.62 -1.00149 -5.9138 0
M  V30 24469 H 2400.3 -1.44827 -6.30582 0
M  V30 24470 N 2400.43 1.52351 -0.403352 0
M  V30 24471 C 2401.36 2.29761 0.416165 0
M  V30 24472 C 2402.35 1.3373 1.0512 0
M  V30 24473 O 2403.53 1.62634 1.06131 0
M  V30 24474 C 2400.66 3.11478 1.53619 0
M  V30 24475 C 2399.61 4.15509 1.02645 0
M  V30 24476 C 2398.94 4.85535 2.23963 0
M  V30 24477 C 2400.24 5.22232 0.0845382 0
M  V30 24478 H 2401.93 2.98517 -0.229754 0
M  V30 24479 H 2399.48 1.43564 -0.111938 0
M  V30 24480 H 2401.43 3.64397 2.11644 0
M  V30 24481 H 2400.16 2.40481 2.2099 0
M  V30 24482 H 2398.82 3.63592 0.468646 0
M  V30 24483 H 2398.46 4.11073 2.89876 0
M  V30 24484 H 2398.16 5.55859 1.90511 0
M  V30 24485 H 2399.69 5.41264 2.82605 0
M  V30 24486 H 2401.1 5.70425 0.573409 0
M  V30 24487 H 2399.5 5.99884 -0.160889 0
M  V30 24488 H 2400.57 4.77168 -0.862454 0
M  V30 24489 N 2401.91 0.133594 1.57033 0
M  V30 24490 C 2403.14 -0.52816 2.00045 0
M  V30 24491 C 2403.56 -1.5929 1.01352 0
M  V30 24492 O 2402.91 -1.82498 0.00851577 0
M  V30 24493 C 2402.96 -1.14104 3.4302 0
M  V30 24494 O 2402.68 -0.118843 4.37939 0
M  V30 24495 C 2404.19 -1.8847 4.01241 0
M  V30 24496 H 2401.41 -0.138649 0.656519 0
M  V30 24497 H 2403.95 0.224232 2.03267 0
M  V30 24498 H 2402.1 -1.84412 3.40692 0
M  V30 24499 H 2402.52 -0.566038 5.21437 0
M  V30 24500 H 2403.99 -2.2666 5.03318 0
M  V30 24501 H 2404.47 -2.76552 3.41198 0
M  V30 24502 H 2405.08 -1.22891 4.07158 0
M  V30 24503 N 2403.39 -1.56975 -0.140195 0
M  V30 24504 C 2404.62 -1.88253 -0.870381 0
M  V30 24505 C 2405.04 -0.723342 -1.73636 0
M  V30 24506 O 2404.4 0.326859 -1.78329 0
M  V30 24507 C 2404.45 -3.18157 -1.69731 0
M  V30 24508 O 2403.55 -3.0257 -2.80224 0
M  V30 24509 H 2402.89 -0.618324 -0.242014 0
M  V30 24510 H 2405.42 -2.04193 -0.128963 0
M  V30 24511 H 2405.43 -3.50349 -2.09093 0
M  V30 24512 H 2404.11 -4.02127 -1.06145 0
M  V30 24513 H 2402.68 -2.81801 -2.44219 0
M  V30 24514 N 2404.87 0.409753 -1.5218 0
M  V30 24515 C 2406.09 1.18305 -1.70349 0
M  V30 24516 C 2406.52 1.83534 -0.411919 0
M  V30 24517 O 2405.88 1.69981 0.630557 0
M  V30 24518 C 2405.92 2.22233 -2.83981 0
M  V30 24519 O 2405.03 3.2836 -2.49506 0
M  V30 24520 H 2404.37 0.345374 -0.567109 0
M  V30 24521 H 2406.9 0.48041 -1.9888 0
M  V30 24522 H 2406.91 2.66572 -3.08874 0
M  V30 24523 H 2405.58 1.74139 -3.77688 0
M  V30 24524 H 2404.16 2.89304 -2.35282 0
M  V30 24525 N 2406.35 1.42792 0.666944 0
M  V30 24526 C 2407.59 1.4368 1.42696 0
M  V30 24527 C 2407.92 0.0560766 1.94419 0
M  V30 24528 O 2407.18 -0.936801 1.71821 0
M  V30 24529 C 2407.48 2.41474 2.63486 0
M  V30 24530 C 2407.14 3.87674 2.3026 0
M  V30 24531 C 2405.8 4.27495 2.2091 0
M  V30 24532 C 2408.16 4.79862 2.03426 0
M  V30 24533 C 2405.48 5.57475 1.82863 0
M  V30 24534 C 2407.84 6.10191 1.66881 0
M  V30 24535 C 2406.5 6.49004 1.56047 0
M  V30 24536 H 2405.77 0.525764 0.522162 0
M  V30 24537 H 2408.42 1.75784 0.759754 0
M  V30 24538 H 2406.72 2.02726 3.35275 0
M  V30 24539 H 2408.42 2.39422 3.2168 0
M  V30 24540 H 2405.01 3.5615 2.38442 0
M  V30 24541 H 2409.19 4.49878 2.09578 0
M  V30 24542 H 2404.45 5.86399 1.7305 0
M  V30 24543 H 2408.62 6.81106 1.45145 0
M  V30 24544 H 2406.25 7.49629 1.26335 0
M  V30 24545 N 2407.82 -0.904008 1.29095 0
M  V30 24546 C 2409.1 -1.63409 1.07503 0
M  V30 24547 C 2409.48 -2.07609 -0.38231 0
M  V30 24548 O 2408.83 -1.82854 -1.37028 0
M  V30 24549 C 2409.04 -2.81818 2.05863 0
M  V30 24550 C 2410.39 -3.52607 2.36545 0
M  V30 24551 O 2411.41 -2.91981 2.04024 0
M  V30 24552 O 2410.27 -4.61892 2.92093 0
M  V30 24553 H 2407.36 -0.71732 0.41156 0
M  V30 24554 H 2409.91 -0.952455 1.40451 0
M  V30 24555 H 2408.68 -2.46322 3.04041 0
M  V30 24556 H 2408.31 -3.5769 1.73619 0
M  V30 24557 N 2409.3 -1.11501 -1.11379 0
M  V30 24558 C 2410.53 -0.886783 -1.86933 0
M  V30 24559 C 2410.95 0.563445 -1.80196 0
M  V30 24560 O 2410.3 1.38906 -1.1837 0
M  V30 24561 C 2410.35 -1.3407 -3.35719 0
M  V30 24562 O 2410.07 -2.73407 -3.42316 0
M  V30 24563 C 2411.58 -1.14798 -4.28178 0
M  V30 24564 H 2408.8 -0.317534 -0.591112 0
M  V30 24565 H 2411.34 -1.4825 -1.40862 0
M  V30 24566 H 2409.49 -0.788421 -3.79292 0
M  V30 24567 H 2409.91 -2.93095 -4.34966 0
M  V30 24568 H 2411.38 -1.51459 -5.30815 0
M  V30 24569 H 2411.86 -0.087605 -4.39113 0
M  V30 24570 H 2412.47 -1.68728 -3.90399 0
M  V30 24571 N 2410.78 1.28995 -0.905426 0
M  V30 24572 C 2412.03 1.95614 -0.535073 0
M  V30 24573 C 2412.36 1.71166 0.917374 0
M  V30 24574 O 2411.64 1.02788 1.65121 0
M  V30 24575 C 2411.92 3.50286 -0.83498 0
M  V30 24576 C 2411.77 3.84168 -2.33955 0
M  V30 24577 C 2413.09 4.38895 -0.325395 0
M  V30 24578 H 2410.21 0.710495 -0.195874 0
M  V30 24579 H 2412.85 1.52511 -1.13315 0
M  V30 24580 H 2411 3.8713 -0.325972 0
M  V30 24581 H 2412.67 3.57238 -2.91854 0
M  V30 24582 H 2410.92 3.31508 -2.79795 0
M  V30 24583 H 2411.59 4.92145 -2.49995 0
M  V30 24584 H 2414.06 4.09076 -0.761328 0
M  V30 24585 H 2412.94 5.45991 -0.564391 0
M  V30 24586 H 2413.2 4.35271 0.774067 0
M  V30 24587 N 2412.26 0.668514 1.42719 0
M  V30 24588 C 2413.48 0.194794 2.06483 0
M  V30 24589 C 2413.91 -1.13677 1.49864 0
M  V30 24590 O 2413.27 -1.70564 0.614612 0
M  V30 24591 C 2413.32 0.133609 3.60352 0
M  V30 24592 O 2412.42 -0.899736 4.02466 0
M  V30 24593 H 2411.76 0.101892 0.656136 0
M  V30 24594 H 2414.29 0.915754 1.82962 0
M  V30 24595 H 2414.3 -0.0446324 4.07976 0
M  V30 24596 H 2412.98 1.10557 4.00936 0
M  V30 24597 H 2411.55 -0.693044 3.66403 0
M  V30 24598 N 2413.74 -1.52135 0.411426 0
M  V30 24599 C 2414.96 -2.06739 -0.165502 0
M  V30 24600 C 2415.39 -1.27929 -1.37898 0
M  V30 24601 O 2414.75 -0.310146 -1.78628 0
M  V30 24602 C 2414.79 -3.57227 -0.492061 0
M  V30 24603 O 2413.9 -3.80821 -1.5827 0
M  V30 24604 H 2413.24 -0.663869 -0.0132016 0
M  V30 24605 H 2415.77 -1.9605 0.585287 0
M  V30 24606 H 2415.78 -4.01047 -0.750033 0
M  V30 24607 H 2414.45 -4.1402 0.394995 0
M  V30 24608 H 2413.03 -3.4888 -1.31671 0
M  V30 24609 N 2415.22 -0.14192 -1.5696 0
M  V30 24610 C 2416.63 0.379743 -1.82797 0
M  V30 24611 C 2416.98 1.65078 -1.06036 0
M  V30 24612 O 2416.1 2.14253 -0.304049 0
M  V30 24613 C 2416.7 0.695744 -3.31579 0
M  V30 24614 C 2415.26 1.16195 -3.58016 0
M  V30 24615 C 2414.4 0.182406 -2.76699 0
M  V30 24616 H 2417.35 -0.366702 -1.54405 0
M  V30 24617 H 2417.38 1.55093 -3.47457 0
M  V30 24618 H 2416.89 -0.229517 -3.87421 0
M  V30 24619 H 2414.99 2.10333 -3.07556 0
M  V30 24620 H 2415.1 1.09143 -4.66502 0
M  V30 24621 H 2413.47 0.674029 -2.4562 0
M  V30 24622 H 2414.25 -0.736356 -3.3531 0
M  V30 24623 N 2416.69 1.57047 0.131868 0
M  V30 24624 C 2418.11 1.52052 0.485005 0
M  V30 24625 C 2418.31 0.852842 1.82562 0
M  V30 24626 O 2417.37 0.429738 2.48816 0
M  V30 24627 C 2418.68 2.96822 0.481357 0
M  V30 24628 C 2420.23 3.07843 0.565814 0
M  V30 24629 C 2420.7 4.54149 0.592682 0
M  V30 24630 N 2422.19 4.58553 0.654484 0
M  V30 24631 C 2422.93 5.69154 0.696508 0
M  V30 24632 N 2422.42 6.89285 0.696957 0
M  V30 24633 N 2424.22 5.57227 0.738541 0
M  V30 24634 H 2416.37 1.98842 -0.746699 0
M  V30 24635 H 2418.63 0.907535 -0.274015 0
M  V30 24636 H 2418.34 3.4899 -0.435792 0
M  V30 24637 H 2418.21 3.53579 1.31384 0
M  V30 24638 H 2420.6 2.55686 1.47338 0
M  V30 24639 H 2420.68 2.54104 -0.294105 0
M  V30 24640 H 2420.32 5.06948 -0.31079 0
M  V30 24641 H 2420.25 5.05687 1.4693 0
M  V30 24642 H 2422.74 3.72077 0.660822 0
M  V30 24643 H 2423.06 7.69332 0.731291 0
M  V30 24644 H 2421.4 6.91815 0.664588 0
M  V30 24645 H 2424.59 4.62286 0.735464 0
M  V30 24646 H 2424.77 6.43435 0.767825 0
M  V30 24647 N 2418.17 -0.401677 1.52395 0
M  V30 24648 C 2419.42 -1.14793 1.6682 0
M  V30 24649 C 2419.75 -1.90304 0.401805 0
M  V30 24650 O 2419 -1.8577 -0.615454 0
M  V30 24651 C 2419.3 -2.16212 2.84582 0
M  V30 24652 C 2418.97 -1.57453 4.22516 0
M  V30 24653 C 2417.63 -1.41153 4.60032 0
M  V30 24654 C 2419.98 -1.14613 5.08442 0
M  V30 24655 C 2417.31 -0.805418 5.81145 0
M  V30 24656 C 2419.66 -0.554169 6.30168 0
M  V30 24657 C 2418.32 -0.378364 6.66427 0
M  V30 24658 H 2417.59 -0.420058 0.610436 0
M  V30 24659 H 2420.24 -0.434179 1.86513 0
M  V30 24660 H 2418.55 -2.9376 2.59254 0
M  V30 24661 H 2420.24 -2.7384 2.92938 0
M  V30 24662 H 2416.83 -1.71125 3.92956 0
M  V30 24663 H 2421.02 -1.26012 4.80036 0
M  V30 24664 H 2416.27 -0.657292 6.07857 0
M  V30 24665 H 2420.45 -0.21386 6.96072 0
M  V30 24666 H 2418.07 0.0933942 7.60143 0
M  V30 24667 N 2419.65 -1.43144 -0.659362 0
M  V30 24668 C 2421.06 -1.39539 -1.24039 0
M  V30 24669 C 2421.41 -0.0963708 -1.95963 0
M  V30 24670 O 2420.54 0.804403 -2.00894 0
M  V30 24671 C 2421.13 -2.52768 -2.25596 0
M  V30 24672 C 2419.69 -2.52448 -2.7919 0
M  V30 24673 C 2418.84 -2.30781 -1.53739 0
M  V30 24674 H 2421.79 -1.52134 -0.451765 0
M  V30 24675 H 2421.81 -2.23905 -3.07647 0
M  V30 24676 H 2421.32 -3.47299 -1.7322 0
M  V30 24677 H 2419.42 -1.61779 -3.35646 0
M  V30 24678 H 2419.54 -3.5001 -3.27154 0
M  V30 24679 H 2417.9 -1.79331 -1.80866 0
M  V30 24680 H 2418.68 -3.27388 -1.03306 0
M  V30 24681 N 2421.13 0.897149 -1.29572 0
M  V30 24682 C 2422.09 1.9831 -1.14917 0
M  V30 24683 C 2423.09 1.60581 -0.0838911 0
M  V30 24684 O 2424.28 1.71026 -0.331036 0
M  V30 24685 C 2421.41 3.32368 -0.757893 0
M  V30 24686 H 2422.61 2.1274 -2.11381 0
M  V30 24687 H 2420.16 1.08199 -1.12795 0
M  V30 24688 H 2420.89 3.2364 0.20678 0
M  V30 24689 H 2420.68 3.61118 -1.52761 0
M  V30 24690 H 2422.17 4.12051 -0.67848 0
M  V30 24691 N 2422.61 1.1209 1.10786 0
M  V30 24692 C 2423.55 0.780625 2.1911 0
M  V30 24693 C 2424.55 -0.230931 1.67819 0
M  V30 24694 O 2425.75 -0.0895111 1.79777 0
M  V30 24695 H 2422.13 0.234591 0.714473 0
M  V30 24696 H 2424.1 1.70271 2.45052 0
M  V30 24697 C 2422.85 0.24753 3.46818 0
M  V30 24698 H 2422.17 1.01718 3.86644 0
M  V30 24699 H 2423.61 0.0477036 4.23973 0
M  V30 24700 C 2422.07 -1.02373 3.2097 0
M  V30 24701 O 2422.6 -2.1022 3.42302 0
M  V30 24702 N 2420.81 -0.949223 2.7466 0
M  V30 24703 H 2420.35 -0.071472 2.57501 0
M  V30 24704 H 2420.31 -1.80045 2.57743 0
M  V30 24705 N 2424.08 -1.28513 0.912254 0
M  V30 24706 C 2425.31 -1.98876 0.559639 0
M  V30 24707 C 2425.72 -1.68367 -0.863084 0
M  V30 24708 O 2425.06 -0.931997 -1.58302 0
M  V30 24709 C 2425.13 -3.52873 0.687092 0
M  V30 24710 C 2424.79 -4.06968 2.07909 0
M  V30 24711 C 2425.79 -4.20917 3.05164 0
M  V30 24712 C 2423.47 -4.41696 2.39186 0
M  V30 24713 C 2425.47 -4.68844 4.31815 0
M  V30 24714 C 2423.15 -4.89317 3.66076 0
M  V30 24715 C 2424.15 -5.02848 4.62204 0
M  V30 24716 O 2423.84 -5.49432 5.86839 0
M  V30 24717 H 2423.57 -0.64183 0.212203 0
M  V30 24718 H 2426.13 -1.64713 1.22715 0
M  V30 24719 H 2424.36 -3.86682 -0.0374806 0
M  V30 24720 H 2426.04 -4.04458 0.341799 0
M  V30 24721 H 2426.81 -3.94362 2.82318 0
M  V30 24722 H 2422.69 -4.30416 1.65116 0
M  V30 24723 H 2426.23 -4.7932 5.06851 0
M  V30 24724 H 2422.13 -5.15311 3.88748 0
M  V30 24725 H 2422.9 -5.6772 5.89607 0
M  V30 24726 N 2425.56 -0.676073 -1.42362 0
M  V30 24727 C 2426.97 -0.27598 -1.84649 0
M  V30 24728 C 2427.32 1.18212 -1.5659 0
M  V30 24729 O 2426.45 1.90512 -1.02637 0
M  V30 24730 C 2427.04 -0.494112 -3.35178 0
M  V30 24731 C 2425.6 -0.148127 -3.76108 0
M  V30 24732 C 2424.75 -0.785938 -2.65929 0
M  V30 24733 H 2427.7 -0.878144 -1.3219 0
M  V30 24734 H 2427.72 0.253363 -3.79656 0
M  V30 24735 H 2427.23 -1.55541 -3.55568 0
M  V30 24736 H 2425.34 0.909678 -3.61325 0
M  V30 24737 H 2425.45 -0.589538 -4.75459 0
M  V30 24738 H 2423.81 -0.217158 -2.53773 0
M  V30 24739 H 2424.6 -1.85072 -2.89142 0
M  V30 24740 N 2427.04 1.51915 -0.419488 0
M  V30 24741 C 2427.99 2.2886 0.415461 0
M  V30 24742 C 2428.98 1.33972 1.03672 0
M  V30 24743 O 2430.19 1.51389 0.973731 0
M  V30 24744 H 2426.56 0.736318 0.152773 0
M  V30 24745 H 2428.53 2.97312 -0.254584 0
M  V30 24746 C 2427.28 3.12998 1.51419 0
M  V30 24747 H 2426.61 3.85888 1.04549 0
M  V30 24748 H 2428.05 3.69924 2.07202 0
M  V30 24749 C 2426.51 2.27221 2.48741 0
M  V30 24750 O 2427.04 1.91956 3.52868 0
M  V30 24751 N 2425.24 1.90789 2.19198 0
M  V30 24752 H 2424.79 2.19667 1.34552 0
M  V30 24753 H 2424.75 1.33692 2.84559 0
M  V30 24754 N 2428.52 0.150242 1.56882 0
M  V30 24755 C 2429.47 -0.805274 2.18216 0
M  V30 24756 C 2430.46 -1.25294 1.14008 0
M  V30 24757 O 2431.67 -1.22104 1.32252 0
M  V30 24758 H 2428.04 -0.277901 0.698767 0
M  V30 24759 H 2430.01 -0.26381 2.97232 0
M  V30 24760 C 2428.76 -2.03304 2.82069 0
M  V30 24761 H 2428.08 -1.69756 3.61971 0
M  V30 24762 H 2429.52 -2.68097 3.28481 0
M  V30 24763 C 2427.98 -2.84312 1.80744 0
M  V30 24764 O 2428.51 -3.80764 1.27989 0
M  V30 24765 N 2426.72 -2.4891 1.49974 0
M  V30 24766 H 2426.27 -1.70539 1.93065 0
M  V30 24767 H 2426.22 -3.03403 0.82427 0
M  V30 24768 N 2430 -1.57115 -0.123538 0
M  V30 24769 C 2430.93 -1.9665 -1.17735 0
M  V30 24770 C 2431.94 -0.865225 -1.37905 0
M  V30 24771 O 2433.13 -1.14354 -1.3706 0
M  V30 24772 C 2430.23 -2.24566 -2.53817 0
M  V30 24773 C 2429.4 -3.55872 -2.54311 0
M  V30 24774 C 2428.46 -3.72054 -3.72105 0
M  V30 24775 O 2427.49 -4.44212 -3.55899 0
M  V30 24776 N 2428.69 -3.1048 -4.90492 0
M  V30 24777 H 2431.46 -2.87655 -0.841097 0
M  V30 24778 H 2429.02 -1.58848 -0.312862 0
M  V30 24779 H 2431.01 -2.32611 -3.31171 0
M  V30 24780 H 2429.58 -1.3971 -2.79642 0
M  V30 24781 H 2428.8 -3.59055 -1.62705 0
M  V30 24782 H 2430.09 -4.42185 -2.51693 0
M  V30 24783 H 2429.48 -2.51815 -5.06563 0
M  V30 24784 H 2428.04 -3.24053 -5.65538 0
M  V30 24785 N 2431.47 0.393589 -1.52606 0
M  V30 24786 C 2432.42 1.50096 -1.77691 0
M  V30 24787 C 2433.42 1.56655 -0.644643 0
M  V30 24788 O 2434.62 1.59876 -0.827025 0
M  V30 24789 H 2431 0.499472 -0.562167 0
M  V30 24790 H 2432.97 1.26131 -2.70432 0
M  V30 24791 C 2431.72 2.87286 -1.95863 0
M  V30 24792 H 2431.04 2.82987 -2.82415 0
M  V30 24793 H 2432.48 3.6402 -2.17406 0
M  V30 24794 C 2430.94 3.28898 -0.729906 0
M  V30 24795 O 2431.47 4.01588 0.0948511 0
M  V30 24796 N 2429.68 2.85127 -0.561333 0
M  V30 24797 H 2429.22 2.26141 -1.23361 0
M  V30 24798 H 2429.18 3.13328 0.259445 0
M  V30 24799 N 2432.95 1.43492 0.651762 0
M  V30 24800 C 2434.19 1.4669 1.42342 0
M  V30 24801 C 2434.56 0.089136 1.91793 0
M  V30 24802 O 2435.76 -0.00418869 2.688 0
M  V30 24803 C 2434.03 2.48142 2.57217 0
M  V30 24804 S 2435.59 2.70227 3.45721 0
M  V30 24805 H 2432.41 0.519088 0.485869 0
M  V30 24806 H 2435.01 1.80268 0.756547 0
M  V30 24807 H 2433.71 3.4698 2.19164 0
M  V30 24808 H 2433.24 2.16067 3.28753 0
M  V30 24809 H 2435.26 2.00263 4.53992 0
M  V30 24810 N 2434.43 -0.890264 1.30046 0
M  V30 24811 C 2435.66 -1.68012 1.21601 0
M  V30 24812 C 2436.08 -1.86825 -0.218645 0
M  V30 24813 O 2435.44 -1.39538 -1.15754 0
M  V30 24814 C 2435.49 -3.03687 1.94439 0
M  V30 24815 O 2434.59 -3.92427 1.26787 0
M  V30 24816 H 2433.93 -0.513584 0.420865 0
M  V30 24817 H 2436.46 -1.11148 1.71777 0
M  V30 24818 H 2436.47 -3.53766 2.03257 0
M  V30 24819 H 2435.15 -2.89313 2.98782 0
M  V30 24820 H 2433.72 -3.50864 1.26288 0
M  V30 24821 N 2435.91 -1.12676 -1.1019 0
M  V30 24822 C 2437.15 -0.894879 -1.82657 0
M  V30 24823 C 2437.51 0.573074 -1.83667 0
M  V30 24824 O 2436.8 1.41832 -1.28818 0
M  V30 24825 C 2437 -1.40676 -3.2855 0
M  V30 24826 C 2436.83 -2.92295 -3.41751 0
M  V30 24827 C 2435.6 -3.60558 -3.54015 0
M  V30 24828 C 2437.79 -3.9028 -3.34942 0
M  V30 24829 N 2435.78 -5.00266 -3.55819 0
M  V30 24830 C 2437.15 -5.16133 -3.43522 0
M  V30 24831 C 2439.2 -3.82656 -3.18558 0
M  V30 24832 C 2437.9 -6.35256 -3.37405 0
M  V30 24833 C 2439.93 -5.01305 -3.13764 0
M  V30 24834 C 2439.29 -6.26017 -3.22927 0
M  V30 24835 H 2435.39 -0.380768 -0.683037 0
M  V30 24836 H 2437.98 -1.43353 -1.31749 0
M  V30 24837 H 2436.15 -0.895122 -3.77945 0
M  V30 24838 H 2437.88 -1.11668 -3.88989 0
M  V30 24839 H 2434.63 -3.11056 -3.57129 0
M  V30 24840 H 2435.06 -5.73145 -3.60325 0
M  V30 24841 H 2439.7 -2.87129 -3.10349 0
M  V30 24842 H 2437.42 -7.31047 -3.44379 0
M  V30 24843 H 2441 -4.97138 -3.02233 0
M  V30 24844 H 2439.88 -7.16287 -3.19223 0
M  V30 24845 N 2437.39 1.28028 -0.919057 0
M  V30 24846 C 2438.64 1.94033 -0.550836 0
M  V30 24847 C 2438.95 1.73098 0.910847 0
M  V30 24848 O 2440.15 2.3337 1.38746 0
M  V30 24849 C 2438.61 3.47561 -0.93431 0
M  V30 24850 C 2438.22 3.77266 -2.41608 0
M  V30 24851 C 2439.96 4.19695 -0.636928 0
M  V30 24852 C 2437.87 5.24128 -2.73941 0
M  V30 24853 H 2436.8 0.726358 -0.202286 0
M  V30 24854 H 2439.45 1.45456 -1.1187 0
M  V30 24855 H 2437.83 3.94898 -0.295184 0
M  V30 24856 H 2439.01 3.40718 -3.10239 0
M  V30 24857 H 2437.32 3.18316 -2.68447 0
M  V30 24858 H 2439.92 5.27818 -0.855098 0
M  V30 24859 H 2440.26 4.1412 0.425502 0
M  V30 24860 H 2440.79 3.78151 -1.23476 0
M  V30 24861 H 2437.53 5.34785 -3.79058 0
M  V30 24862 H 2437.05 5.61854 -2.09952 0
M  V30 24863 H 2438.73 5.91921 -2.61225 0
M  V30 24864 N 2438.86 0.683613 1.42002 0
M  V30 24865 C 2440.11 0.206716 2.00638 0
M  V30 24866 C 2440.43 -1.19668 1.54722 0
M  V30 24867 O 2441.63 -1.77041 2.05836 0
M  V30 24868 C 2440.09 0.318695 3.58486 0
M  V30 24869 C 2439.7 1.7267 4.13387 0
M  V30 24870 C 2441.44 -0.0990395 4.24384 0
M  V30 24871 C 2439.35 1.79097 5.63629 0
M  V30 24872 H 2438.28 0.0735239 0.750407 0
M  V30 24873 H 2440.93 0.850077 1.62622 0
M  V30 24874 H 2439.31 -0.392712 3.94048 0
M  V30 24875 H 2440.48 2.4659 3.89269 0
M  V30 24876 H 2438.8 2.09305 3.59972 0
M  V30 24877 H 2441.4 -0.0712894 5.34652 0
M  V30 24878 H 2441.74 -1.13579 4.00507 0
M  V30 24879 H 2442.27 0.561668 3.93815 0
M  V30 24880 H 2439.01 2.80784 5.92318 0
M  V30 24881 H 2438.53 1.09545 5.89712 0
M  V30 24882 H 2440.21 1.54841 6.28198 0
M  V30 24883 N 2440.34 -1.5169 0.427538 0
M  V30 24884 C 2441.28 -2.25235 -0.424481 0
M  V30 24885 C 2442.29 -1.28882 -0.994648 0
M  V30 24886 O 2443.48 -1.54703 -0.890455 0
M  V30 24887 C 2440.58 -2.98498 -1.60474 0
M  V30 24888 C 2439.75 -4.2187 -1.1552 0
M  V30 24889 C 2438.81 -4.77797 -2.20446 0
M  V30 24890 O 2437.84 -5.39896 -1.80281 0
M  V30 24891 N 2439.04 -4.60973 -3.52823 0
M  V30 24892 H 2441.8 -2.98993 0.205802 0
M  V30 24893 H 2439.36 -1.59865 0.255895 0
M  V30 24894 H 2441.36 -3.32803 -2.3027 0
M  V30 24895 H 2439.93 -2.27813 -2.14057 0
M  V30 24896 H 2439.15 -3.93171 -0.284667 0
M  V30 24897 H 2440.43 -5.0195 -0.832085 0
M  V30 24898 H 2439.83 -4.11488 -3.88193 0
M  V30 24899 H 2438.39 -4.99666 -4.18542 0
M  V30 24900 N 2441.82 -0.15856 -1.568 0
M  V30 24901 C 2442.78 0.762667 -2.16139 0
M  V30 24902 C 2443.78 1.16711 -1.10612 0
M  V30 24903 O 2444.97 1.08615 -1.36193 0
M  V30 24904 C 2442.11 2.03644 -2.7339 0
M  V30 24905 H 2443.3 0.246301 -2.98887 0
M  V30 24906 H 2440.85 0.090947 -1.56035 0
M  V30 24907 H 2441.59 2.5962 -1.9434 0
M  V30 24908 H 2441.37 1.75553 -3.50604 0
M  V30 24909 H 2442.86 2.69415 -3.1907 0
M  V30 24910 N 2443.3 1.57178 0.115204 0
M  V30 24911 C 2444.23 1.97271 1.16691 0
M  V30 24912 C 2445.24 0.872526 1.37444 0
M  V30 24913 O 2446.43 1.15079 1.36452 0
M  V30 24914 C 2443.53 2.25909 2.52623 0
M  V30 24915 C 2442.71 3.57215 2.5242 0
M  V30 24916 C 2441.77 3.74022 3.70127 0
M  V30 24917 O 2440.79 4.46093 3.53538 0
M  V30 24918 N 2441.99 3.13077 4.88839 0
M  V30 24919 H 2444.76 2.88097 0.82583 0
M  V30 24920 H 2442.32 1.59012 0.304433 0
M  V30 24921 H 2444.31 2.34364 3.29932 0
M  V30 24922 H 2442.88 1.41191 2.78898 0
M  V30 24923 H 2442.1 3.59913 1.60798 0
M  V30 24924 H 2443.39 4.43514 2.49345 0
M  V30 24925 H 2442.79 2.54498 5.0522 0
M  V30 24926 H 2441.34 3.27047 5.63811 0
M  V30 24927 N 2444.78 -0.38549 1.52813 0
M  V30 24928 C 2446.19 -0.963265 1.59932 0
M  V30 24929 C 2446.54 -1.90867 0.454335 0
M  V30 24930 O 2445.66 -2.12244 -0.422094 0
M  V30 24931 C 2446.26 -1.75381 2.89874 0
M  V30 24932 C 2444.82 -2.28124 2.99393 0
M  V30 24933 C 2443.97 -1.08779 2.55073 0
M  V30 24934 H 2446.92 -0.164921 1.57841 0
M  V30 24935 H 2446.94 -2.61336 2.76557 0
M  V30 24936 H 2446.45 -1.06548 3.73188 0
M  V30 24937 H 2444.55 -3.00259 2.20624 0
M  V30 24938 H 2444.66 -2.5737 4.04101 0
M  V30 24939 H 2443.03 -1.44886 2.09476 0
M  V30 24940 H 2443.81 -0.414747 3.40785 0
M  V30 24941 N 2446.26 -1.43835 -0.644143 0
M  V30 24942 C 2447.67 -1.40847 -1.22552 0
M  V30 24943 C 2448.02 -0.11715 -1.9585 0
M  V30 24944 O 2447.14 0.78305 -2.01736 0
M  V30 24945 C 2447.74 -2.55147 -2.22903 0
M  V30 24946 C 2446.3 -2.55395 -2.76497 0
M  V30 24947 C 2445.44 -2.32398 -1.51282 0
M  V30 24948 H 2448.39 -1.52605 -0.435604 0
M  V30 24949 H 2448.42 -2.27155 -3.05255 0
M  V30 24950 H 2447.93 -3.49116 -1.69527 0
M  V30 24951 H 2446.03 -1.6533 -3.33911 0
M  V30 24952 H 2446.14 -3.5346 -3.23423 0
M  V30 24953 H 2444.51 -1.8124 -1.78953 0
M  V30 24954 H 2445.29 -3.28465 -0.998279 0
M  V30 24955 N 2447.73 0.883355 -1.30517 0
M  V30 24956 C 2448.66 2.00538 -1.1961 0
M  V30 24957 C 2449.64 1.69881 -0.0863759 0
M  V30 24958 O 2450.83 1.92332 -0.268687 0
M  V30 24959 C 2447.96 3.35734 -0.888817 0
M  V30 24960 C 2446.91 3.80656 -1.95665 0
M  V30 24961 C 2446.24 5.13161 -1.50233 0
M  V30 24962 C 2447.54 3.99207 -3.36795 0
M  V30 24963 H 2449.23 2.09921 -2.13479 0
M  V30 24964 H 2446.78 1.00861 -1.02776 0
M  V30 24965 H 2448.73 4.13753 -0.799167 0
M  V30 24966 H 2447.46 3.26488 0.0855552 0
M  V30 24967 H 2446.12 3.04867 -2.03597 0
M  V30 24968 H 2445.76 5.00344 -0.51618 0
M  V30 24969 H 2445.46 5.44188 -2.21659 0
M  V30 24970 H 2446.99 5.93703 -1.4265 0
M  V30 24971 H 2448.4 4.6766 -3.31613 0
M  V30 24972 H 2446.8 4.41614 -4.06322 0
M  V30 24973 H 2447.87 3.03011 -3.78566 0
M  V30 24974 N 2449.21 1.13259 1.09591 0
M  V30 24975 C 2450.16 0.803821 2.18269 0
M  V30 24976 C 2451.15 -0.213119 1.68054 0
M  V30 24977 O 2452.36 -0.0704383 1.79862 0
M  V30 24978 H 2448.73 0.242156 0.711944 0
M  V30 24979 H 2450.71 1.7286 2.43232 0
M  V30 24980 C 2449.45 0.284301 3.46536 0
M  V30 24981 H 2448.78 1.05813 3.85543 0
M  V30 24982 H 2450.22 0.092669 4.23899 0
M  V30 24983 C 2448.68 -0.989627 3.22037 0
M  V30 24984 O 2449.21 -2.06577 3.44512 0
M  V30 24985 N 2447.41 -0.920038 2.75651 0
M  V30 24986 H 2446.96 -0.0441566 2.57562 0
M  V30 24987 H 2446.92 -1.77301 2.59638 0
M  V30 24988 N 2450.69 -1.27539 0.925834 0
M  V30 24989 C 2451.64 -2.24561 0.394528 0
M  V30 24990 C 2452.62 -1.52929 -0.500156 0
M  V30 24991 O 2453.82 -1.73745 -0.337905 0
M  V30 24992 C 2450.94 -3.41478 -0.353268 0
M  V30 24993 C 2450.03 -4.20415 0.557826 0
M  V30 24994 N 2450.42 -4.77196 1.67683 0
M  V30 24995 C 2448.72 -4.44541 0.360483 0
M  V30 24996 C 2449.42 -5.36702 2.24334 0
M  V30 24997 N 2448.4 -5.21532 1.53314 0
M  V30 24998 H 2452.2 -2.66042 1.24895 0
M  V30 24999 H 2449.71 -1.42448 0.779889 0
M  V30 25000 H 2451.71 -4.10083 -0.750828 0
M  V30 25001 H 2450.37 -3.01527 -1.20464 0
M  V30 25002 H 2451.38 -4.75201 2.05924 0
M  V30 25003 H 2448.06 -4.15064 -0.450381 0
M  V30 25004 H 2449.45 -5.91597 3.18531 0
M  V30 25005 N 2452.17 -0.691135 -1.41637 0
M  V30 25006 C 2453.42 -0.217353 -2.00525 0
M  V30 25007 C 2453.73 1.18846 -1.55355 0
M  V30 25008 O 2454.94 1.75947 -2.06772 0
M  V30 25009 C 2453.39 -0.337702 -3.58312 0
M  V30 25010 C 2453 -1.7486 -4.12466 0
M  V30 25011 C 2454.74 0.076532 -4.24431 0
M  V30 25012 C 2452.65 -1.82084 -5.62672 0
M  V30 25013 H 2451.58 -0.0775025 -0.750006 0
M  V30 25014 H 2454.23 -0.858689 -1.62169 0
M  V30 25015 H 2452.61 0.371809 -3.94251 0
M  V30 25016 H 2453.79 -2.48651 -3.87955 0
M  V30 25017 H 2452.1 -2.11212 -3.58857 0
M  V30 25018 H 2454.7 0.0429344 -5.34683 0
M  V30 25019 H 2455.04 1.11453 -4.01103 0
M  V30 25020 H 2455.58 -0.582545 -3.93511 0
M  V30 25021 H 2452.31 -2.83921 -5.90821 0
M  V30 25022 H 2451.83 -1.12671 -5.89122 0
M  V30 25023 H 2453.51 -1.5817 -6.27368 0
M  V30 25024 N 2453.65 1.51461 -0.435577 0
M  V30 25025 C 2454.87 2.0649 0.130206 0
M  V30 25026 C 2455.29 1.30318 1.36612 0
M  V30 25027 O 2454.65 0.362255 1.78869 0
M  V30 25028 C 2454.7 3.58635 0.45419 0
M  V30 25029 O 2454.42 4.3193 -0.732666 0
M  V30 25030 C 2455.92 4.30172 1.07084 0
M  V30 25031 H 2453.14 0.670944 0.0087049 0
M  V30 25032 H 2455.68 1.9506 -0.614151 0
M  V30 25033 H 2453.84 3.69986 1.14845 0
M  V30 25034 H 2454.25 5.22515 -0.455879 0
M  V30 25035 H 2455.73 5.37718 1.24754 0
M  V30 25036 H 2456.2 3.8835 2.05137 0
M  V30 25037 H 2456.81 4.2326 0.416015 0
M  V30 25038 N 2455.12 0.166873 1.56714 0
M  V30 25039 C 2456.05 -0.760874 2.20755 0
M  V30 25040 C 2457.04 -1.24242 1.1618 0
M  V30 25041 O 2458.22 -1.29639 1.44594 0
M  V30 25042 C 2455.35 -1.99218 2.84481 0
M  V30 25043 C 2454.3 -1.64665 3.95056 0
M  V30 25044 C 2453.63 -2.95224 4.4581 0
M  V30 25045 C 2454.93 -0.878064 5.14866 0
M  V30 25046 H 2456.62 -0.227077 2.98538 0
M  V30 25047 H 2454.17 -0.10778 1.43596 0
M  V30 25048 H 2456.12 -2.64618 3.27956 0
M  V30 25049 H 2454.85 -2.55004 2.04061 0
M  V30 25050 H 2453.51 -1.01635 3.5223 0
M  V30 25051 H 2453.15 -3.49041 3.62187 0
M  V30 25052 H 2452.85 -2.72861 5.20404 0
M  V30 25053 H 2454.38 -3.61662 4.91969 0
M  V30 25054 H 2455.79 -1.43456 5.55061 0
M  V30 25055 H 2454.19 -0.753633 5.95349 0
M  V30 25056 H 2455.26 0.126462 4.84735 0
M  V30 25057 N 2456.6 -1.57237 -0.106866 0
M  V30 25058 C 2457.83 -1.90057 -0.830254 0
M  V30 25059 C 2458.25 -0.76001 -1.72062 0
M  V30 25060 O 2457.61 0.288959 -1.78982 0
M  V30 25061 C 2457.66 -3.21685 -1.62944 0
M  V30 25062 O 2456.76 -3.08446 -2.73743 0
M  V30 25063 H 2456.1 -0.623319 -0.228844 0
M  V30 25064 H 2458.63 -2.04421 -0.0856221 0
M  V30 25065 H 2458.64 -3.54705 -2.01615 0
M  V30 25066 H 2457.32 -4.04288 -0.975918 0
M  V30 25067 H 2455.9 -2.86917 -2.38186 0
M  V30 25068 N 2458.08 0.377381 -1.53015 0
M  V30 25069 C 2459.33 1.12125 -1.68625 0
M  V30 25070 C 2459.66 1.89641 -0.43203 0
M  V30 25071 O 2458.91 1.86726 0.585822 0
M  V30 25072 C 2459.21 2.11657 -2.87986 0
M  V30 25073 C 2458.88 1.50711 -4.24967 0
M  V30 25074 C 2457.54 1.33817 -4.62219 0
M  V30 25075 C 2459.89 1.0651 -5.10201 0
M  V30 25076 C 2457.22 0.712861 -5.82353 0
M  V30 25077 C 2459.57 0.453844 -6.3097 0
M  V30 25078 C 2458.23 0.272294 -6.66944 0
M  V30 25079 H 2457.5 0.410294 -0.617041 0
M  V30 25080 H 2460.15 0.404452 -1.8718 0
M  V30 25081 H 2458.46 2.89598 -2.63894 0
M  V30 25082 H 2460.15 2.69145 -2.97258 0
M  V30 25083 H 2456.74 1.64851 -3.95629 0
M  V30 25084 H 2460.93 1.1836 -4.8198 0
M  V30 25085 H 2456.18 0.560504 -6.08825 0
M  V30 25086 H 2460.36 0.103094 -6.96324 0
M  V30 25087 H 2457.98 -0.214314 -7.59898 0
M  V30 25088 N 2459.56 1.44175 0.636506 0
M  V30 25089 C 2460.79 1.50147 1.4235 0
M  V30 25090 C 2461.2 0.124608 1.88388 0
M  V30 25091 O 2460.56 -0.868461 1.60512 0
M  V30 25092 C 2460.61 2.46161 2.6474 0
M  V30 25093 O 2460.33 3.78494 2.20622 0
M  V30 25094 C 2461.83 2.61543 3.57925 0
M  V30 25095 H 2459.05 0.509408 0.436743 0
M  V30 25096 H 2461.6 1.89086 0.7789 0
M  V30 25097 H 2459.75 2.10372 3.25303 0
M  V30 25098 H 2460.16 4.30281 2.99931 0
M  V30 25099 H 2461.64 3.32764 4.40422 0
M  V30 25100 H 2462.12 1.66592 4.06379 0
M  V30 25101 H 2462.72 2.98211 3.03233 0
M  V30 25102 N 2461.04 -0.876421 1.30983 0
M  V30 25103 C 2461.99 -1.97053 1.14692 0
M  V30 25104 C 2462.97 -1.60789 0.0596876 0
M  V30 25105 O 2464.16 -1.74708 0.283923 0
M  V30 25106 C 2461.29 -3.32619 0.849686 0
M  V30 25107 C 2460.38 -3.7517 1.97758 0
M  V30 25108 N 2460.77 -3.8974 3.22391 0
M  V30 25109 C 2459.07 -4.04632 1.87587 0
M  V30 25110 C 2459.77 -4.25978 3.96128 0
M  V30 25111 N 2458.74 -4.3631 3.24245 0
M  V30 25112 H 2462.55 -2.0642 2.09208 0
M  V30 25113 H 2460.06 -1.0668 1.22447 0
M  V30 25114 H 2462.06 -4.10741 0.713967 0
M  V30 25115 H 2460.72 -3.24583 -0.0873189 0
M  V30 25116 H 2461.73 -3.74641 3.57582 0
M  V30 25117 H 2458.4 -4.05022 1.0131 0
M  V30 25118 H 2459.79 -4.44902 5.03499 0
M  V30 25119 N 2462.51 -1.13839 -1.08989 0
M  V30 25120 C 2463.76 -0.902914 -1.81256 0
M  V30 25121 C 2464.09 0.57077 -1.85937 0
M  V30 25122 O 2463.34 1.43862 -1.32673 0
M  V30 25123 C 2463.64 -1.44153 -3.27039 0
M  V30 25124 C 2463.31 -2.93282 -3.42485 0
M  V30 25125 C 2461.97 -3.33998 -3.46408 0
M  V30 25126 C 2464.32 -3.89206 -3.46653 0
M  V30 25127 C 2461.65 -4.69313 -3.52083 0
M  V30 25128 C 2464 -5.2437 -3.53863 0
M  V30 25129 C 2462.67 -5.64606 -3.56056 0
M  V30 25130 H 2461.94 -0.3304 -0.663262 0
M  V30 25131 H 2464.58 -1.42107 -1.28366 0
M  V30 25132 H 2462.89 -0.844165 -3.82598 0
M  V30 25133 H 2464.59 -1.23535 -3.81497 0
M  V30 25134 H 2461.18 -2.608 -3.40119 0
M  V30 25135 H 2465.36 -3.58834 -3.42859 0
M  V30 25136 H 2460.62 -4.99856 -3.52071 0
M  V30 25137 H 2464.79 -5.9851 -3.56033 0
M  V30 25138 H 2462.42 -6.69444 -3.60206 0
M  V30 25139 N 2463.99 1.27046 -0.932584 0
M  V30 25140 C 2464.9 2.30413 -0.441259 0
M  V30 25141 C 2465.92 1.67234 0.480496 0
M  V30 25142 O 2467.09 1.98118 0.362116 0
M  V30 25143 C 2464.16 3.45455 0.29359 0
M  V30 25144 C 2463.22 4.24139 -0.663675 0
M  V30 25145 C 2462.45 5.33688 0.0361994 0
M  V30 25146 O 2462.68 5.56429 1.2547 0
M  V30 25147 O 2461.61 5.98508 -0.63812 0
M  V30 25148 H 2465.44 2.74486 -1.29967 0
M  V30 25149 H 2463.02 1.32086 -0.698124 0
M  V30 25150 H 2464.9 4.15412 0.707878 0
M  V30 25151 H 2463.58 3.03428 1.12753 0
M  V30 25152 H 2462.49 3.56697 -1.12774 0
M  V30 25153 H 2463.82 4.69893 -1.46497 0
M  V30 25154 N 2465.47 0.698636 1.41269 0
M  V30 25155 C 2466.4 0.04967 2.33447 0
M  V30 25156 C 2467.38 -0.763871 1.51984 0
M  V30 25157 O 2468.57 -0.716225 1.8051 0
M  V30 25158 C 2465.7 -0.885208 3.35829 0
M  V30 25159 C 2464.65 -0.178537 4.27627 0
M  V30 25160 C 2463.98 -1.22798 5.20408 0
M  V30 25161 C 2465.28 0.957023 5.13457 0
M  V30 25162 H 2466.97 0.819561 2.87965 0
M  V30 25163 H 2464.52 0.395562 1.3846 0
M  V30 25164 H 2466.47 -1.34847 3.99242 0
M  V30 25165 H 2465.19 -1.6868 2.79669 0
M  V30 25166 H 2463.85 0.264724 3.65643 0
M  V30 25167 H 2463.5 -2.02218 4.60561 0
M  V30 25168 H 2463.2 -0.760136 5.82663 0
M  V30 25169 H 2464.72 -1.69169 5.86698 0
M  V30 25170 H 2466.14 0.573905 5.7042 0
M  V30 25171 H 2464.54 1.35216 5.84668 0
M  V30 25172 H 2465.61 1.79532 4.5044 0
M  V30 25173 N 2466.95 -1.51228 0.443603 0
M  V30 25174 C 2467.86 -2.31653 -0.37068 0
M  V30 25175 C 2468.87 -1.40835 -1.02183 0
M  V30 25176 O 2470.05 -1.73905 -1.01583 0
M  V30 25177 C 2467.12 -3.14751 -1.4537 0
M  V30 25178 C 2466.18 -4.21356 -0.822025 0
M  V30 25179 C 2465.41 -5.00483 -1.85344 0
M  V30 25180 O 2465.63 -4.80322 -3.07648 0
M  V30 25181 O 2464.57 -5.84409 -1.44049 0
M  V30 25182 H 2468.39 -3.0235 0.286055 0
M  V30 25183 H 2465.98 -1.47973 0.206006 0
M  V30 25184 H 2467.86 -3.66394 -2.08166 0
M  V30 25185 H 2466.53 -2.46812 -2.09441 0
M  V30 25186 H 2465.44 -3.73775 -0.155843 0
M  V30 25187 H 2466.77 -4.91687 -0.22471 0
M  V30 25188 N 2468.43 -0.175182 -1.56623 0
M  V30 25189 C 2469.84 0.180938 -1.58571 0
M  V30 25190 C 2470.04 1.62558 -1.19068 0
M  V30 25191 O 2469.1 2.3576 -0.904086 0
M  V30 25192 C 2470.41 -0.103379 -3.00522 0
M  V30 25193 C 2471.96 -0.0418976 -3.12972 0
M  V30 25194 C 2472.43 -0.299255 -4.57021 0
M  V30 25195 N 2473.93 -0.247167 -4.6254 0
M  V30 25196 C 2474.66 -0.420419 -5.71857 0
M  V30 25197 N 2474.16 -0.652937 -6.89716 0
M  V30 25198 N 2475.95 -0.356055 -5.60971 0
M  V30 25199 H 2468.1 -1.11812 -1.80588 0
M  V30 25200 H 2470.36 -0.444803 -0.83717 0
M  V30 25201 H 2470.07 -1.10428 -3.33914 0
M  V30 25202 H 2469.94 0.603234 -3.72345 0
M  V30 25203 H 2472.33 0.949587 -2.79404 0
M  V30 25204 H 2472.41 -0.781281 -2.43577 0
M  V30 25205 H 2472.06 -1.28797 -4.91298 0
M  V30 25206 H 2471.99 0.460784 -5.2458 0
M  V30 25207 H 2474.48 -0.0732559 -3.77829 0
M  V30 25208 H 2474.79 -0.774482 -7.68909 0
M  V30 25209 H 2473.13 -0.689598 -6.9157 0
M  V30 25210 H 2476.33 -0.174964 -4.67773 0
M  V30 25211 H 2476.5 -0.494501 -6.4611 0
M  V30 25212 N 2469.91 1.57292 0.0985263 0
M  V30 25213 C 2471.13 1.90494 0.820163 0
M  V30 25214 C 2471.56 0.769125 1.71657 0
M  V30 25215 O 2470.91 -0.279463 1.79133 0
M  V30 25216 C 2470.96 3.22545 1.61236 0
M  V30 25217 O 2470.07 3.09893 2.72103 0
M  V30 25218 H 2469.41 0.624524 0.225536 0
M  V30 25219 H 2471.94 2.04463 0.0747799 0
M  V30 25220 H 2471.95 3.55769 1.99731 0
M  V30 25221 H 2470.62 4.048 0.954464 0
M  V30 25222 H 2469.2 2.88177 2.36662 0
M  V30 25223 N 2471.38 -0.369261 1.53213 0
M  V30 25224 C 2472.61 -1.133 1.73121 0
M  V30 25225 C 2473.03 -1.83148 0.458487 0
M  V30 25226 O 2472.38 -1.73424 -0.568372 0
M  V30 25227 C 2472.43 -2.16611 2.89417 0
M  V30 25228 O 2472.16 -1.49607 4.11764 0
M  V30 25229 C 2473.66 -3.0556 3.21167 0
M  V30 25230 H 2470.88 -0.338924 0.579113 0
M  V30 25231 H 2473.42 -0.429302 1.99943 0
M  V30 25232 H 2471.58 -2.82585 2.64999 0
M  V30 25233 H 2471.99 -2.18411 4.76862 0
M  V30 25234 H 2473.46 -3.74038 4.05955 0
M  V30 25235 H 2473.94 -3.70166 2.36376 0
M  V30 25236 H 2474.55 -2.45207 3.47496 0
M  V30 25237 N 2472.86 -1.4451 -0.628851 0
M  V30 25238 C 2474.09 -1.509 -1.41552 0
M  V30 25239 C 2474.5 -0.134597 -1.8832 0
M  V30 25240 O 2473.86 0.859936 -1.6097 0
M  V30 25241 C 2473.91 -2.47561 -2.63431 0
M  V30 25242 O 2473.63 -3.79658 -2.18612 0
M  V30 25243 C 2475.13 -2.63438 -3.56533 0
M  V30 25244 H 2472.35 -0.511717 -0.434035 0
M  V30 25245 H 2474.9 -1.89496 -0.768861 0
M  V30 25246 H 2473.05 -2.12094 -3.24183 0
M  V30 25247 H 2473.47 -4.31866 -2.97644 0
M  V30 25248 H 2474.94 -3.35095 -4.38651 0
M  V30 25249 H 2475.42 -1.68745 -4.0549 0
M  V30 25250 H 2476.02 -2.99815 -3.01647 0
M  V30 25251 N 2474.34 0.869463 -1.31446 0
M  V30 25252 C 2475.58 1.63654 -1.22461 0
M  V30 25253 C 2475.94 1.90806 0.213813 0
M  V30 25254 O 2477.14 2.65384 0.427165 0
M  V30 25255 C 2475.42 2.93063 -2.04569 0
M  V30 25256 S 2476.97 3.8394 -2.12451 0
M  V30 25257 H 2473.79 0.561507 -0.436155 0
M  V30 25258 H 2476.39 1.03082 -1.66116 0
M  V30 25259 H 2475.1 2.7104 -3.08165 0
M  V30 25260 H 2474.63 3.5866 -1.61636 0
M  V30 25261 H 2476.64 4.79852 -1.2632 0
M  V30 25262 N 2475.82 1.14415 1.08383 0
M  V30 25263 C 2476.78 0.834086 2.13485 0
M  V30 25264 C 2477.78 -0.161389 1.59988 0
M  V30 25265 O 2478.97 0.0669881 1.74071 0
M  V30 25266 C 2476.1 0.243414 3.4003 0
M  V30 25267 H 2477.3 1.76555 2.42422 0
M  V30 25268 H 2474.85 0.950211 1.24099 0
M  V30 25269 H 2475.58 -0.696751 3.16727 0
M  V30 25270 H 2475.37 0.960434 3.80155 0
M  V30 25271 H 2476.86 0.0436976 4.17577 0
M  V30 25272 N 2477.3 -1.26549 0.939309 0
M  V30 25273 C 2478.71 -1.46148 0.64133 0
M  V30 25274 C 2478.91 -1.84681 -0.805931 0
M  V30 25275 O 2477.97 -1.96737 -1.58275 0
M  V30 25276 C 2479.28 -2.54526 1.60115 0
M  V30 25277 C 2480.83 -2.68379 1.61064 0
M  V30 25278 C 2481.3 -3.79927 2.55772 0
M  V30 25279 N 2482.79 -3.87317 2.54046 0
M  V30 25280 C 2483.53 -4.73079 3.24012 0
M  V30 25281 N 2483.03 -5.63242 4.03398 0
M  V30 25282 N 2484.82 -4.66909 3.12974 0
M  V30 25283 H 2476.97 -0.998252 1.8748 0
M  V30 25284 H 2479.23 -0.499764 0.805568 0
M  V30 25285 H 2478.94 -2.33034 2.63416 0
M  V30 25286 H 2478.81 -3.52146 1.35177 0
M  V30 25287 H 2481.2 -2.89246 0.584886 0
M  V30 25288 H 2481.28 -1.71209 1.90056 0
M  V30 25289 H 2480.92 -3.59813 3.58465 0
M  V30 25290 H 2480.85 -4.7655 2.24071 0
M  V30 25291 H 2483.35 -3.22854 1.96401 0
M  V30 25292 H 2483.66 -6.25571 4.53741 0
M  V30 25293 H 2482 -5.63 4.07499 0
M  V30 25294 H 2485.19 -3.95472 2.50439 0
M  V30 25295 H 2485.37 -5.33526 3.67769 0
M  V30 25296 N 2478.77 -0.706118 -1.40896 0
M  V30 25297 C 2480.05 -0.169133 -1.94867 0
M  V30 25298 C 2480.43 1.32315 -1.64487 0
M  V30 25299 O 2479.78 2.07472 -0.957476 0
M  V30 25300 C 2479.99 -0.471715 -3.45797 0
M  V30 25301 C 2481.34 -0.405202 -4.22662 0
M  V30 25302 O 2482.36 -0.40723 -3.53864 0
M  V30 25303 O 2481.22 -0.374479 -5.45215 0
M  V30 25304 H 2478.31 -0.0211497 -0.82673 0
M  V30 25305 H 2480.86 -0.783002 -1.50556 0
M  V30 25306 H 2479.63 -1.50423 -3.61232 0
M  V30 25307 H 2479.25 0.172596 -3.97225 0
M  V30 25308 N 2480.25 1.50991 -0.451617 0
M  V30 25309 C 2481.5 2.02201 0.110039 0
M  V30 25310 C 2481.83 1.33491 1.41458 0
M  V30 25311 O 2481.08 0.443159 1.90616 0
M  V30 25312 C 2481.38 3.55565 0.361665 0
M  V30 25313 C 2481.05 4.42646 -0.858795 0
M  V30 25314 C 2479.71 4.66165 -1.19346 0
M  V30 25315 C 2482.06 4.93643 -1.6723 0
M  V30 25316 C 2479.39 5.37927 -2.34205 0
M  V30 25317 C 2481.74 5.66665 -2.812 0
M  V30 25318 C 2480.4 5.88443 -3.15104 0
M  V30 25319 H 2479.67 0.739905 0.040266 0
M  V30 25320 H 2482.32 1.81801 -0.601728 0
M  V30 25321 H 2480.63 3.74374 1.15548 0
M  V30 25322 H 2482.32 3.92736 0.809891 0
M  V30 25323 H 2478.91 4.24547 -0.588035 0
M  V30 25324 H 2483.1 4.75344 -1.42695 0
M  V30 25325 H 2478.35 5.53 -2.6077 0
M  V30 25326 H 2482.53 6.05167 -3.44596 0
M  V30 25327 H 2480.15 6.43828 -4.04215 0
M  V30 25328 N 2481.73 0.183486 1.56528 0
M  V30 25329 C 2482.98 -0.459002 1.97537 0
M  V30 25330 C 2483.31 -1.62069 1.06992 0
M  V30 25331 O 2482.58 -1.94132 0.119515 0
M  V30 25332 C 2482.87 -0.930307 3.47875 0
M  V30 25333 C 2482.72 0.232396 4.49199 0
M  V30 25334 C 2484.04 -1.79982 4.01615 0
M  V30 25335 H 2481.16 -0.165371 0.718207 0
M  V30 25336 H 2483.8 0.272072 1.88042 0
M  V30 25337 H 2481.95 -1.55327 3.56098 0
M  V30 25338 H 2483.62 0.869799 4.53026 0
M  V30 25339 H 2481.86 0.886002 4.24656 0
M  V30 25340 H 2482.54 -0.139699 5.51823 0
M  V30 25341 H 2485.01 -1.27454 3.96099 0
M  V30 25342 H 2483.89 -2.09858 5.07199 0
M  V30 25343 H 2484.15 -2.74992 3.46167 0
M  V30 25344 N 2483.21 -1.57342 -0.0901833 0
M  V30 25345 C 2484.12 -2.0574 -1.12731 0
M  V30 25346 C 2485.13 -0.983256 -1.43555 0
M  V30 25347 O 2486.31 -1.29675 -1.54099 0
M  V30 25348 C 2483.37 -2.47628 -2.42655 0
M  V30 25349 C 2482.44 -3.69258 -2.18969 0
M  V30 25350 C 2481.67 -4.09139 -3.42697 0
M  V30 25351 O 2481.89 -3.49065 -4.51121 0
M  V30 25352 O 2480.83 -5.02059 -3.31994 0
M  V30 25353 H 2484.65 -2.94389 -0.746228 0
M  V30 25354 H 2482.24 -1.46294 -0.303038 0
M  V30 25355 H 2484.12 -2.75175 -3.1915 0
M  V30 25356 H 2482.79 -1.62114 -2.8018 0
M  V30 25357 H 2481.7 -3.4682 -1.40238 0
M  V30 25358 H 2483.03 -4.55566 -1.86334 0
M  V30 25359 N 2484.69 0.36113 -1.53407 0
M  V30 25360 C 2485.94 1.10063 -1.69024 0
M  V30 25361 C 2486.25 1.90333 -0.450871 0
M  V30 25362 O 2487.45 2.67084 -0.487664 0
M  V30 25363 C 2485.91 2.00592 -2.98815 0
M  V30 25364 C 2485.52 1.25614 -4.30029 0
M  V30 25365 C 2487.26 2.74507 -3.23799 0
M  V30 25366 C 2485.17 2.15071 -5.50907 0
M  V30 25367 H 2484.1 0.414595 -0.629783 0
M  V30 25368 H 2486.75 0.361317 -1.79908 0
M  V30 25369 H 2485.13 2.78273 -2.81745 0
M  V30 25370 H 2486.31 0.529659 -4.57746 0
M  V30 25371 H 2484.62 0.635424 -4.11523 0
M  V30 25372 H 2487.22 3.41673 -4.11295 0
M  V30 25373 H 2487.56 3.40119 -2.40051 0
M  V30 25374 H 2488.09 2.03908 -3.41565 0
M  V30 25375 H 2484.83 1.54029 -6.37146 0
M  V30 25376 H 2484.35 2.85556 -5.27464 0
M  V30 25377 H 2486.03 2.74527 -5.8587 0
M  V30 25378 N 2486.16 1.44842 0.621179 0
M  V30 25379 C 2487.09 1.55306 1.74363 0
M  V30 25380 C 2488.08 0.405414 1.65198 0
M  V30 25381 O 2489.26 0.62682 1.83806 0
M  V30 25382 C 2486.39 1.50643 3.12928 0
M  V30 25383 C 2485.34 2.63985 3.36892 0
M  V30 25384 C 2484.67 2.44375 4.75589 0
M  V30 25385 C 2485.97 4.0608 3.28476 0
M  V30 25386 H 2487.66 2.49259 1.65863 0
M  V30 25387 H 2485.21 1.19964 0.796537 0
M  V30 25388 H 2487.16 1.56562 3.91237 0
M  V30 25389 H 2485.89 0.532114 3.22236 0
M  V30 25390 H 2484.55 2.57471 2.60967 0
M  V30 25391 H 2484.19 1.45113 4.81613 0
M  V30 25392 H 2483.89 3.20373 4.9258 0
M  V30 25393 H 2485.42 2.52127 5.56115 0
M  V30 25394 H 2486.83 4.13909 3.96676 0
M  V30 25395 H 2485.23 4.8236 3.57 0
M  V30 25396 H 2486.3 4.28947 2.26125 0
M  V30 25397 N 2487.64 -0.862479 1.31905 0
M  V30 25398 C 2488.92 -1.59906 1.12647 0
M  V30 25399 C 2489.3 -2.0872 -0.316067 0
M  V30 25400 O 2488.65 -1.87121 -1.31142 0
M  V30 25401 C 2488.86 -2.75126 2.14724 0
M  V30 25402 C 2490.21 -3.44903 2.47644 0
M  V30 25403 O 2491.23 -2.85342 2.1321 0
M  V30 25404 O 2490.09 -4.52365 3.0664 0
M  V30 25405 H 2487.18 -0.703863 0.434172 0
M  V30 25406 H 2489.73 -0.907289 1.4341 0
M  V30 25407 H 2488.5 -2.36524 3.11724 0
M  V30 25408 H 2488.12 -3.51985 1.84911 0
M  V30 25409 N 2489.12 -1.14988 -1.07775 0
M  V30 25410 C 2490.37 -0.920266 -1.79932 0
M  V30 25411 C 2490.69 0.554303 -1.86956 0
M  V30 25412 O 2489.96 1.40289 -1.36733 0
M  V30 25413 H 2488.54 -0.337485 -0.666418 0
M  V30 25414 H 2491.2 -1.4497 -1.30267 0
M  V30 25415 H 2490.3 -1.32588 -2.82537 0
M  V30 25416 N 2490.6 1.26049 -0.946007 0
M  V30 25417 C 2491.85 1.93144 -0.594975 0
M  V30 25418 C 2492.17 1.74541 0.869499 0
M  V30 25419 O 2491.44 1.1039 1.61836 0
M  V30 25420 H 2490.02 0.714769 -0.217057 0
M  V30 25421 H 2492.68 1.53391 -1.20238 0
M  V30 25422 H 2491.78 3.0122 -0.816888 0
M  V30 25423 N 2492.08 0.71358 1.4052 0
M  V30 25424 C 2493.03 0.0362051 2.27971 0
M  V30 25425 C 2494.01 -0.734598 1.43152 0
M  V30 25426 O 2495.2 -0.607128 1.66262 0
M  V30 25427 C 2492.33 -0.886272 3.31663 0
M  V30 25428 C 2491.42 -0.110762 4.23955 0
M  V30 25429 N 2491.81 0.904935 4.97639 0
M  V30 25430 C 2490.11 -0.343614 4.44674 0
M  V30 25431 C 2490.81 1.37073 5.65319 0
M  V30 25432 N 2489.78 0.693263 5.39161 0
M  V30 25433 H 2493.59 0.814695 2.82383 0
M  V30 25434 H 2491.1 0.54599 1.52947 0
M  V30 25435 H 2493.1 -1.38685 3.93157 0
M  V30 25436 H 2491.76 -1.66416 2.78811 0
M  V30 25437 H 2492.77 1.28572 5.01687 0
M  V30 25438 H 2489.44 -1.09798 4.02803 0
M  V30 25439 H 2490.83 2.21458 6.34355 0
M  V30 25440 N 2493.55 -1.50749 0.459618 0
M  V30 25441 C 2494.46 -2.32033 -0.346089 0
M  V30 25442 C 2495.48 -1.41911 -1.00684 0
M  V30 25443 O 2496.66 -1.74972 -0.99733 0
M  V30 25444 C 2493.72 -3.16276 -1.42024 0
M  V30 25445 C 2492.78 -4.22205 -0.777288 0
M  V30 25446 C 2492.02 -5.02421 -1.80025 0
M  V30 25447 O 2492.24 -4.83558 -3.02536 0
M  V30 25448 O 2491.17 -5.85904 -1.37843 0
M  V30 25449 H 2495 -3.02029 0.318107 0
M  V30 25450 H 2492.58 -1.47746 0.221689 0
M  V30 25451 H 2494.47 -3.68581 -2.04269 0
M  V30 25452 H 2493.14 -2.4902 -2.06811 0
M  V30 25453 H 2492.05 -3.7392 -0.11619 0
M  V30 25454 H 2493.38 -4.91897 -0.172548 0
M  V30 25455 N 2495.03 -0.191784 -1.56429 0
M  V30 25456 C 2496.31 0.495298 -1.89225 0
M  V30 25457 C 2496.69 1.79881 -1.10481 0
M  V30 25458 O 2496.04 2.2758 -0.204892 0
M  V30 25459 C 2496.25 0.717307 -3.41549 0
M  V30 25460 C 2497.6 1.03816 -4.11713 0
M  V30 25461 O 2498.62 0.805143 -3.46981 0
M  V30 25462 O 2497.48 1.47878 -5.26112 0
M  V30 25463 H 2494.57 0.257796 -0.785793 0
M  V30 25464 H 2497.12 -0.23175 -1.6811 0
M  V30 25465 H 2495.89 -0.203356 -3.90771 0
M  V30 25466 H 2495.51 1.49693 -3.68344 0
M  V30 25467 N 2496.51 1.57387 0.0818378 0
M  V30 25468 C 2497.47 2.0202 1.08262 0
M  V30 25469 C 2498.47 0.915687 1.32181 0
M  V30 25470 O 2499.66 1.18083 1.28071 0
M  V30 25471 C 2496.8 2.39225 2.42866 0
M  V30 25472 H 2497.99 2.9166 0.698153 0
M  V30 25473 H 2495.54 1.52835 0.327276 0
M  V30 25474 H 2496.28 1.5258 2.86164 0
M  V30 25475 H 2496.06 3.19815 2.2685 0
M  V30 25476 H 2497.55 2.74367 3.14821 0
M  V30 25477 N 2497.99 -0.35299 1.53596 0
M  V30 25478 C 2499.4 -0.929124 1.61939 0
M  V30 25479 C 2499.75 -1.8986 0.494719 0
M  V30 25480 O 2498.88 -2.13091 -0.376979 0
M  V30 25481 C 2499.47 -1.69193 2.93529 0
M  V30 25482 C 2498.03 -2.21722 3.04165 0
M  V30 25483 C 2497.18 -1.03344 2.57323 0
M  V30 25484 H 2500.13 -0.131403 1.58155 0
M  V30 25485 H 2500.15 -2.55411 2.82038 0
M  V30 25486 H 2499.66 -0.986078 3.75364 0
M  V30 25487 H 2497.76 -2.95512 2.26944 0
M  V30 25488 H 2497.87 -2.48741 4.09469 0
M  V30 25489 H 2496.24 -1.4041 2.12502 0
M  V30 25490 H 2497.02 -0.342368 3.41589 0
M  V30 25491 N 2499.47 -1.45169 -0.613489 0
M  V30 25492 C 2500.4 -1.56228 -1.73537 0
M  V30 25493 C 2501.38 -0.414169 -1.64981 0
M  V30 25494 O 2502.56 -0.636558 -1.83471 0
M  V30 25495 C 2499.69 -1.523 -3.12125 0
M  V30 25496 C 2498.65 -2.65768 -3.35487 0
M  V30 25497 C 2497.97 -2.46893 -4.74287 0
M  V30 25498 C 2499.27 -4.07816 -3.26318 0
M  V30 25499 H 2500.97 -2.50135 -1.64538 0
M  V30 25500 H 2498.51 -1.20384 -0.790164 0
M  V30 25501 H 2500.47 -1.58635 -3.90401 0
M  V30 25502 H 2499.19 -0.549195 -3.21949 0
M  V30 25503 H 2497.85 -2.58852 -2.59598 0
M  V30 25504 H 2497.5 -1.47665 -4.80837 0
M  V30 25505 H 2497.2 -3.22981 -4.90874 0
M  V30 25506 H 2498.72 -2.55073 -5.5477 0
M  V30 25507 H 2500.14 -4.16007 -3.94476 0
M  V30 25508 H 2498.53 -4.84247 -3.54437 0
M  V30 25509 H 2499.6 -4.3014 -2.23847 0
M  V30 25510 N 2500.95 0.855472 -1.32361 0
M  V30 25511 C 2502.36 1.14355 -1.11334 0
M  V30 25512 C 2502.56 2.01217 0.106716 0
M  V30 25513 O 2501.62 2.39762 0.791849 0
M  V30 25514 C 2502.93 1.82167 -2.3924 0
M  V30 25515 C 2504.48 1.94805 -2.44989 0
M  V30 25516 C 2504.95 2.66033 -3.72814 0
M  V30 25517 N 2506.44 2.73558 -3.73791 0
M  V30 25518 C 2507.18 3.29319 -4.694 0
M  V30 25519 N 2506.68 3.85897 -5.75374 0
M  V30 25520 N 2508.47 3.27415 -4.56898 0
M  V30 25521 H 2500.62 0.27699 -2.10586 0
M  V30 25522 H 2502.88 0.185348 -0.929704 0
M  V30 25523 H 2502.59 1.25796 -3.28433 0
M  V30 25524 H 2502.46 2.8233 -2.50139 0
M  V30 25525 H 2504.85 2.50336 -1.56256 0
M  V30 25526 H 2504.93 0.936406 -2.38044 0
M  V30 25527 H 2504.57 2.11166 -4.61921 0
M  V30 25528 H 2504.5 3.67635 -3.7703 0
M  V30 25529 H 2507 2.33419 -2.97193 0
M  V30 25530 H 2507.31 4.26599 -6.44386 0
M  V30 25531 H 2505.65 3.84232 -5.7913 0
M  V30 25532 H 2508.84 2.82461 -3.73274 0
M  V30 25533 H 2509.02 3.70571 -5.31584 0
M  V30 25534 N 2502.42 1.15558 1.07164 0
M  V30 25535 C 2503.67 0.929795 1.79441 0
M  V30 25536 C 2503.99 -0.544381 1.87247 0
M  V30 25537 O 2503.26 -1.39562 1.37475 0
M  V30 25538 H 2501.84 0.341014 0.664619 0
M  V30 25539 H 2504.5 1.45659 1.29497 0
M  V30 25540 H 2503.6 1.34084 2.8183 0
M  V30 25541 N 2503.9 -1.25546 0.952678 0
M  V30 25542 C 2505.32 -1.45459 0.656794 0
M  V30 25543 C 2505.52 -1.85525 -0.786298 0
M  V30 25544 O 2504.57 -1.98404 -1.56179 0
M  V30 25545 C 2505.89 -2.52814 1.62805 0
M  V30 25546 C 2507.43 -2.66656 1.63902 0
M  V30 25547 C 2507.91 -3.77193 2.59787 0
M  V30 25548 N 2509.4 -3.84601 2.5814 0
M  V30 25549 C 2510.14 -4.69616 3.29012 0
M  V30 25550 N 2509.63 -5.58932 4.09349 0
M  V30 25551 N 2511.42 -4.63563 3.17908 0
M  V30 25552 H 2503.58 -0.978311 1.88528 0
M  V30 25553 H 2505.84 -0.491192 0.810823 0
M  V30 25554 H 2505.54 -2.30227 2.65873 0
M  V30 25555 H 2505.42 -3.50693 1.38904 0
M  V30 25556 H 2507.81 -2.88609 0.615532 0
M  V30 25557 H 2507.89 -1.69183 1.91861 0
M  V30 25558 H 2507.53 -3.55991 3.62261 0
M  V30 25559 H 2507.46 -4.74146 2.29113 0
M  V30 25560 H 2509.95 -3.20753 1.99815 0
M  V30 25561 H 2510.26 -6.20723 4.60351 0
M  V30 25562 H 2508.61 -5.58647 4.13448 0
M  V30 25563 H 2511.8 -3.92794 2.54619 0
M  V30 25564 H 2511.97 -5.29595 3.73407 0
M  V30 25565 N 2505.38 -0.721022 -1.40139 0
M  V30 25566 C 2506.61 -0.272296 -2.04798 0
M  V30 25567 C 2507.02 1.09287 -1.54444 0
M  V30 25568 O 2506.36 1.69907 -0.698372 0
M  V30 25569 C 2506.42 -0.180333 -3.59047 0
M  V30 25570 C 2506.09 -1.48167 -4.32314 0
M  V30 25571 C 2507.08 -2.42466 -4.59898 0
M  V30 25572 C 2504.77 -1.7421 -4.71122 0
M  V30 25573 C 2506.76 -3.61051 -5.25282 0
M  V30 25574 C 2504.45 -2.93075 -5.36237 0
M  V30 25575 C 2505.45 -3.86318 -5.63247 0
M  V30 25576 O 2505.14 -5.03097 -6.27015 0
M  V30 25577 H 2504.87 -0.11915 -0.665417 0
M  V30 25578 H 2507.42 -0.981464 -1.80434 0
M  V30 25579 H 2505.65 0.584822 -3.82252 0
M  V30 25580 H 2507.34 0.234547 -4.05222 0
M  V30 25581 H 2508.11 -2.23612 -4.30375 0
M  V30 25582 H 2503.99 -1.02485 -4.49464 0
M  V30 25583 H 2507.53 -4.33847 -5.46281 0
M  V30 25584 H 2503.43 -3.11836 -5.6518 0
M  V30 25585 H 2504.19 -5.03247 -6.45511 0
M  V30 25586 N 2506.86 1.50503 -0.467606 0
M  V30 25587 C 2508.1 2.04213 0.0873755 0
M  V30 25588 C 2508.46 1.34213 1.37298 0
M  V30 25589 O 2509.66 1.78459 2.01012 0
M  V30 25590 C 2507.93 3.56375 0.270508 0
M  V30 25591 S 2509.49 4.31729 0.784547 0
M  V30 25592 H 2506.31 0.710782 0.0176028 0
M  V30 25593 H 2508.91 1.84936 -0.633947 0
M  V30 25594 H 2507.62 4.04877 -0.671013 0
M  V30 25595 H 2507.15 3.79999 1.01805 0
M  V30 25596 H 2509.16 4.51491 2.05841 0
M  V30 25597 N 2508.34 0.200077 1.56325 0
M  V30 25598 C 2509.58 -0.436513 1.9733 0
M  V30 25599 C 2509.9 -1.61806 1.08829 0
M  V30 25600 O 2509.17 -1.9524 0.160638 0
M  V30 25601 H 2507.75 -0.164259 0.728717 0
M  V30 25602 H 2510.42 0.287971 1.92761 0
M  V30 25603 H 2509.51 -0.777299 3.02266 0
M  V30 25604 N 2509.81 -1.57429 -0.0734901 0
M  V30 25605 C 2511.04 -1.91391 -0.785936 0
M  V30 25606 C 2511.46 -0.795877 -1.71205 0
M  V30 25607 O 2510.81 0.230883 -1.81034 0
M  V30 25608 C 2510.86 -3.25094 -1.58101 0
M  V30 25609 O 2510.59 -4.32598 -0.692124 0
M  V30 25610 C 2512.09 -3.7306 -2.39461 0
M  V30 25611 H 2509.31 -0.632667 -0.223547 0
M  V30 25612 H 2511.85 -2.04452 -0.044266 0
M  V30 25613 H 2510.01 -3.13566 -2.27498 0
M  V30 25614 H 2510.42 -5.09511 -1.24496 0
M  V30 25615 H 2511.89 -4.69247 -2.90707 0
M  V30 25616 H 2512.37 -3.01984 -3.18908 0
M  V30 25617 H 2512.98 -3.87527 -1.75224 0
M  V30 25618 N 2511.29 0.344839 -1.53781 0
M  V30 25619 C 2512.57 1.10217 -1.61591 0
M  V30 25620 C 2512.95 2.06541 -0.436352 0
M  V30 25621 O 2512.3 2.21238 0.571504 0
M  V30 25622 C 2512.51 1.82296 -2.97606 0
M  V30 25623 C 2513.85 2.36087 -3.52914 0
M  V30 25624 O 2514.88 1.92394 -2.99771 0
M  V30 25625 O 2513.74 3.16018 -4.45864 0
M  V30 25626 H 2510.83 0.506781 -0.653531 0
M  V30 25627 H 2513.38 0.346436 -1.66126 0
M  V30 25628 H 2512.15 1.12115 -3.74895 0
M  V30 25629 H 2511.77 2.6473 -2.96655 0
M  V30 25630 N 2512.77 1.45492 0.605781 0
M  V30 25631 C 2513.7 1.48794 1.73019 0
M  V30 25632 C 2514.68 0.34414 1.58916 0
M  V30 25633 O 2515.86 0.544908 1.80452 0
M  V30 25634 C 2512.99 1.34469 3.10863 0
M  V30 25635 C 2512.04 2.52737 3.4355 0
M  V30 25636 S 2512.87 4.15197 3.38189 0
M  V30 25637 C 2514.03 4.03341 4.78609 0
M  V30 25638 H 2514.26 2.43931 1.69956 0
M  V30 25639 H 2511.79 1.33097 0.782587 0
M  V30 25640 H 2513.75 1.26891 3.90396 0
M  V30 25641 H 2512.41 0.407995 3.11439 0
M  V30 25642 H 2511.6 2.38644 4.4392 0
M  V30 25643 H 2511.21 2.57185 2.71536 0
M  V30 25644 H 2513.5 3.68597 5.68456 0
M  V30 25645 H 2514.44 5.03629 4.97758 0
M  V30 25646 H 2514.85 3.34967 4.54375 0
M  V30 25647 N 2514.25 -0.848441 1.32813 0
M  V30 25648 C 2515.66 -1.41912 1.21317 0
M  V30 25649 C 2516.01 -1.95446 -0.171812 0
M  V30 25650 O 2515.14 -1.88045 -1.07089 0
M  V30 25651 C 2515.73 -2.57964 2.19636 0
M  V30 25652 C 2514.29 -3.11013 2.12008 0
M  V30 25653 C 2513.44 -1.83779 2.07655 0
M  V30 25654 H 2516.39 -0.655045 1.44551 0
M  V30 25655 H 2516.41 -3.35312 1.79851 0
M  V30 25656 H 2515.92 -2.18971 3.20427 0
M  V30 25657 H 2514.02 -3.54575 1.14487 0
M  V30 25658 H 2514.13 -3.71836 3.02117 0
M  V30 25659 H 2512.5 -2.03635 1.52986 0
M  V30 25660 H 2513.28 -1.46994 3.10238 0
M  V30 25661 N 2515.73 -1.16125 -1.06549 0
M  V30 25662 C 2516.68 -0.833773 -2.12208 0
M  V30 25663 C 2517.66 0.185628 -1.59826 0
M  V30 25664 O 2518.85 -0.0148218 -1.76994 0
M  V30 25665 C 2515.98 -0.333757 -3.41674 0
M  V30 25666 C 2515.07 -1.38379 -4.00889 0
M  V30 25667 N 2515.46 -2.59344 -4.34251 0
M  V30 25668 C 2513.76 -1.23843 -4.28461 0
M  V30 25669 C 2514.46 -3.2671 -4.81286 0
M  V30 25670 N 2513.43 -2.54091 -4.80561 0
M  V30 25671 H 2517.24 -1.75368 -2.35846 0
M  V30 25672 H 2514.75 -1.04792 -1.24067 0
M  V30 25673 H 2516.75 -0.080765 -4.16822 0
M  V30 25674 H 2515.41 0.580114 -3.19476 0
M  V30 25675 H 2516.42 -2.96422 -4.24681 0
M  V30 25676 H 2513.09 -0.385113 -4.1572 0
M  V30 25677 H 2514.48 -4.29952 -5.16325 0
M  V30 25678 N 2517.2 1.25039 -0.959323 0
M  V30 25679 C 2518.62 1.74769 -0.6567 0
M  V30 25680 C 2518.97 1.77881 0.827821 0
M  V30 25681 O 2518.09 1.40272 1.64781 0
M  V30 25682 C 2518.69 3.17387 -1.18535 0
M  V30 25683 C 2517.25 3.64659 -0.932798 0
M  V30 25684 C 2516.39 2.43562 -1.32563 0
M  V30 25685 H 2519.34 1.1086 -1.1356 0
M  V30 25686 H 2519.36 3.76538 -0.547649 0
M  V30 25687 H 2518.88 3.15091 -2.26582 0
M  V30 25688 H 2516.98 3.72364 0.132505 0
M  V30 25689 H 2517.09 4.52557 -1.57256 0
M  V30 25690 H 2515.45 2.43591 -0.743999 0
M  V30 25691 H 2516.24 2.43953 -2.41541 0
M  V30 25692 N 2518.68 0.728444 1.39755 0
M  V30 25693 C 2519.93 0.270443 1.99879 0
M  V30 25694 C 2520.24 -1.14685 1.58451 0
M  V30 25695 O 2521.45 -1.70403 2.11365 0
M  V30 25696 C 2519.91 0.432583 3.57291 0
M  V30 25697 C 2519.51 1.85734 4.07685 0
M  V30 25698 C 2521.26 0.0360253 4.24485 0
M  V30 25699 C 2519.17 1.96938 5.57646 0
M  V30 25700 H 2518.1 0.0973603 0.747688 0
M  V30 25701 H 2520.75 0.901384 1.59835 0
M  V30 25702 H 2519.13 -0.26715 3.95098 0
M  V30 25703 H 2520.3 2.58849 3.81226 0
M  V30 25704 H 2518.62 2.20652 3.53131 0
M  V30 25705 H 2521.21 0.0988423 5.34609 0
M  V30 25706 H 2521.56 -1.0078 4.03917 0
M  V30 25707 H 2522.09 0.686673 3.91829 0
M  V30 25708 H 2518.83 2.99486 5.83085 0
M  V30 25709 H 2518.35 1.28251 5.85928 0
M  V30 25710 H 2520.03 1.74748 6.22954 0
M  V30 25711 N 2520.16 -1.50253 0.475581 0
M  V30 25712 C 2521.39 -2.06763 -0.0754129 0
M  V30 25713 C 2521.8 -1.33894 -1.33109 0
M  V30 25714 O 2521.16 -0.409551 -1.77845 0
M  V30 25715 C 2521.21 -3.59714 -0.358945 0
M  V30 25716 O 2520.93 -4.29836 0.846927 0
M  V30 25717 C 2522.43 -4.3286 -0.956408 0
M  V30 25718 H 2519.65 -0.670938 0.00908704 0
M  V30 25719 H 2522.2 -1.93363 0.665652 0
M  V30 25720 H 2520.35 -3.72901 -1.04995 0
M  V30 25721 H 2520.77 -5.21123 0.594254 0
M  V30 25722 H 2522.24 -5.40836 -1.10454 0
M  V30 25723 H 2522.72 -3.93652 -1.94768 0
M  V30 25724 H 2523.32 -4.24215 -0.303648 0
M  V30 25725 N 2521.64 -0.208365 -1.56217 0
M  V30 25726 C 2522.86 0.435187 -2.02783 0
M  V30 25727 C 2523.29 1.53483 -1.0874 0
M  V30 25728 O 2522.65 1.81152 -0.0732173 0
M  V30 25729 C 2522.69 0.956274 -3.47689 0
M  V30 25730 O 2521.8 2.06843 -3.56777 0
M  V30 25731 H 2521.14 0.100146 -0.656404 0
M  V30 25732 H 2523.67 -0.323135 -2.02032 0
M  V30 25733 H 2523.68 1.26948 -3.87747 0
M  V30 25734 H 2522.35 0.151357 -4.15624 0
M  V30 25735 H 2520.93 1.76286 -3.286 0
M  V30 25736 N 2523.12 1.57465 0.0651402 0
M  V30 25737 C 2524.36 1.87574 0.76303 0
M  V30 25738 C 2524.69 0.800993 1.77241 0
M  V30 25739 O 2523.95 -0.202282 1.94652 0
M  V30 25740 C 2524.25 3.24364 1.50075 0
M  V30 25741 C 2523.91 4.46467 0.630738 0
M  V30 25742 C 2522.57 4.79609 0.390998 0
M  V30 25743 C 2524.93 5.21193 0.0278549 0
M  V30 25744 C 2522.25 5.84886 -0.460997 0
M  V30 25745 C 2524.61 6.27372 -0.811632 0
M  V30 25746 C 2523.27 6.59011 -1.06118 0
M  V30 25747 H 2522.54 0.686383 0.279212 0
M  V30 25748 H 2525.19 1.91485 0.0236389 0
M  V30 25749 H 2523.49 3.16275 2.31252 0
M  V30 25750 H 2525.19 3.44897 2.04565 0
M  V30 25751 H 2521.78 4.20531 0.827727 0
M  V30 25752 H 2525.96 4.95896 0.200175 0
M  V30 25753 H 2521.22 6.07794 -0.663014 0
M  V30 25754 H 2525.39 6.84433 -1.28549 0
M  V30 25755 H 2523.02 7.40414 -1.72313 0
M  V30 25756 N 2524.59 -0.336679 1.53962 0
M  V30 25757 C 2525.82 -1.10043 1.75799 0
M  V30 25758 C 2526.24 -1.8136 0.499017 0
M  V30 25759 O 2525.6 -1.72796 -0.548739 0
M  V30 25760 C 2525.65 -2.0843 2.9426 0
M  V30 25761 O 2524.75 -3.16082 2.64889 0
M  V30 25762 H 2524.1 -0.317924 0.582941 0
M  V30 25763 H 2526.63 -0.384975 2.00946 0
M  V30 25764 H 2526.64 -2.51531 3.21241 0
M  V30 25765 H 2525.31 -1.55921 3.85567 0
M  V30 25766 H 2523.89 -2.77749 2.48817 0
M  V30 25767 N 2526.07 -1.45812 -0.598057 0
M  V30 25768 C 2527.3 -1.54101 -1.38808 0
M  V30 25769 C 2527.72 -0.177611 -1.8726 0
M  V30 25770 O 2527.08 0.839513 -1.60692 0
M  V30 25771 C 2527.13 -2.53747 -2.56212 0
M  V30 25772 O 2526.23 -2.06188 -3.57156 0
M  V30 25773 H 2525.57 -0.519122 -0.414015 0
M  V30 25774 H 2528.1 -1.91251 -0.726938 0
M  V30 25775 H 2528.11 -2.72862 -3.03332 0
M  V30 25776 H 2526.79 -3.52763 -2.20297 0
M  V30 25777 H 2525.37 -1.96993 -3.1662 0
M  V30 25778 N 2527.55 0.841385 -1.33261 0
M  V30 25779 C 2528.51 1.93257 -1.23224 0
M  V30 25780 C 2529.51 1.60081 -0.151923 0
M  V30 25781 O 2530.7 1.69468 -0.403276 0
M  V30 25782 C 2527.84 3.28855 -0.89818 0
M  V30 25783 H 2529.03 2.03583 -2.20214 0
M  V30 25784 H 2526.58 1.03317 -1.17283 0
M  V30 25785 H 2527.32 3.24226 0.0693271 0
M  V30 25786 H 2527.1 3.54314 -1.6794 0
M  V30 25787 H 2528.59 4.08803 -0.852635 0
M  V30 25788 N 2529.03 1.16688 1.05932 0
M  V30 25789 C 2529.96 0.899986 2.15459 0
M  V30 25790 C 2530.94 -0.155124 1.69391 0
M  V30 25791 O 2532.13 -0.00645279 1.94199 0
M  V30 25792 C 2529.26 0.404301 3.44939 0
M  V30 25793 C 2528.21 1.39774 4.04533 0
M  V30 25794 C 2527.54 0.760309 5.29267 0
M  V30 25795 C 2528.84 2.76853 4.42888 0
M  V30 25796 H 2530.53 1.81592 2.38043 0
M  V30 25797 H 2528.08 0.874534 1.14402 0
M  V30 25798 H 2530.03 0.205045 4.20901 0
M  V30 25799 H 2528.75 -0.54715 3.21984 0
M  V30 25800 H 2527.41 1.58361 3.30632 0
M  V30 25801 H 2527.06 -0.197743 5.02611 0
M  V30 25802 H 2526.76 1.42342 5.70099 0
M  V30 25803 H 2528.28 0.571157 6.07923 0
M  V30 25804 H 2529.7 2.62028 5.09916 0
M  V30 25805 H 2528.09 3.39672 4.94715 0
M  V30 25806 H 2529.16 3.31829 3.53578 0
M  V30 25807 N 2530.51 -1.24529 0.96594 0
M  V30 25808 C 2531.74 -1.96608 0.64442 0
M  V30 25809 C 2532.15 -1.7167 -0.785793 0
M  V30 25810 O 2531.51 -0.999426 -1.52701 0
M  V30 25811 C 2531.56 -3.49925 0.907436 0
M  V30 25812 O 2531.28 -3.74009 2.28142 0
M  V30 25813 C 2532.78 -4.39223 0.599861 0
M  V30 25814 H 2530 -0.626381 0.240599 0
M  V30 25815 H 2532.54 -1.58403 1.29339 0
M  V30 25816 H 2530.7 -3.862 0.304699 0
M  V30 25817 H 2531.11 -4.68401 2.3601 0
M  V30 25818 H 2532.59 -5.45658 0.834359 0
M  V30 25819 H 2533.06 -4.36722 -0.465844 0
M  V30 25820 H 2533.67 -4.08533 1.18242 0
M  V30 25821 N 2531.99 -0.735845 -1.39367 0
M  V30 25822 C 2532.92 -0.111547 -2.33233 0
M  V30 25823 C 2533.9 0.723307 -1.53955 0
M  V30 25824 O 2535.08 0.668115 -1.82345 0
M  V30 25825 C 2532.21 0.795857 -3.38058 0
M  V30 25826 C 2531.17 0.0650968 -4.2795 0
M  V30 25827 C 2530.49 1.08957 -5.23481 0
M  V30 25828 C 2531.79 -1.09282 -5.10739 0
M  V30 25829 H 2533.49 -0.895621 -2.8569 0
M  V30 25830 H 2531.03 -0.432134 -1.37363 0
M  V30 25831 H 2532.98 1.24214 -4.02677 0
M  V30 25832 H 2531.71 1.61206 -2.84043 0
M  V30 25833 H 2530.37 -0.361575 -3.64813 0
M  V30 25834 H 2530.02 1.89936 -4.65761 0
M  V30 25835 H 2529.72 0.605386 -5.84473 0
M  V30 25836 H 2531.24 1.53554 -5.90977 0
M  V30 25837 H 2532.65 -0.72494 -5.68698 0
M  V30 25838 H 2531.05 -1.5067 -5.80877 0
M  V30 25839 H 2532.12 -1.91412 -4.45522 0
M  V30 25840 N 2533.46 1.49999 -0.483543 0
M  V30 25841 C 2534.88 1.58999 -0.138432 0
M  V30 25842 C 2535.08 1.49052 1.35594 0
M  V30 25843 O 2534.14 1.35543 2.13036 0
M  V30 25844 C 2535.45 2.92446 -0.699709 0
M  V30 25845 C 2537 3.0587 -0.664249 0
M  V30 25846 C 2537.47 4.41911 -1.20328 0
M  V30 25847 N 2538.96 4.48356 -1.16323 0
M  V30 25848 C 2539.7 5.52034 -1.55068 0
M  V30 25849 N 2539.19 6.62903 -2.01323 0
M  V30 25850 N 2540.99 5.42648 -1.46593 0
M  V30 25851 H 2533.14 1.54707 -1.45532 0
M  V30 25852 H 2535.4 0.731837 -0.602593 0
M  V30 25853 H 2535.11 3.05239 -1.74706 0
M  V30 25854 H 2534.98 3.76901 -0.15026 0
M  V30 25855 H 2537.37 2.92718 0.374221 0
M  V30 25856 H 2537.45 2.23142 -1.25065 0
M  V30 25857 H 2537.09 4.55814 -2.24045 0
M  V30 25858 H 2537.02 5.23251 -0.592988 0
M  V30 25859 H 2539.51 3.68804 -0.824123 0
M  V30 25860 H 2539.83 7.38091 -2.29003 0
M  V30 25861 H 2538.17 6.6399 -2.05284 0
M  V30 25862 H 2541.36 4.54922 -1.10289 0
M  V30 25863 H 2541.54 6.23326 -1.77114 0
M  V30 25864 N 2534.94 0.216646 1.56104 0
M  V30 25865 C 2536.19 -0.416381 1.98173 0
M  V30 25866 C 2536.52 -1.6012 1.10416 0
M  V30 25867 O 2535.77 -1.9514 0.148001 0
M  V30 25868 C 2536.07 -0.898403 3.45924 0
M  V30 25869 C 2535.74 0.175367 4.50559 0
M  V30 25870 C 2534.4 0.470355 4.78896 0
M  V30 25871 C 2536.75 0.901818 5.13339 0
M  V30 25872 C 2534.08 1.4964 5.67296 0
M  V30 25873 C 2536.43 1.91716 6.0285 0
M  V30 25874 C 2535.09 2.21912 6.29533 0
M  V30 25875 H 2534.36 -0.152365 0.725166 0
M  V30 25876 H 2537.01 0.318137 1.88839 0
M  V30 25877 H 2535.32 -1.71159 3.52437 0
M  V30 25878 H 2537.01 -1.39796 3.75843 0
M  V30 25879 H 2533.6 -0.0647052 4.28551 0
M  V30 25880 H 2537.79 0.687159 4.9152 0
M  V30 25881 H 2533.04 1.73602 5.86236 0
M  V30 25882 H 2537.22 2.48516 6.50548 0
M  V30 25883 H 2534.84 3.0156 6.97829 0
M  V30 25884 N 2536.42 -1.57498 -0.0567885 0
M  V30 25885 C 2537.67 -1.88255 -0.754187 0
M  V30 25886 C 2538 -0.810896 -1.7646 0
M  V30 25887 O 2537.27 0.177225 -1.93691 0
M  V30 25888 C 2537.56 -3.29672 -1.44873 0
M  V30 25889 C 2537.41 -4.47506 -0.45371 0
M  V30 25890 C 2538.73 -3.69558 -2.38987 0
M  V30 25891 H 2535.85 -0.684688 -0.272712 0
M  V30 25892 H 2538.49 -1.89992 -0.0171779 0
M  V30 25893 H 2536.64 -3.28322 -2.07694 0
M  V30 25894 H 2538.31 -4.60985 0.170452 0
M  V30 25895 H 2536.55 -4.33192 0.229628 0
M  V30 25896 H 2537.23 -5.43274 -0.977603 0
M  V30 25897 H 2539.7 -3.72098 -1.86232 0
M  V30 25898 H 2538.58 -4.69368 -2.84579 0
M  V30 25899 H 2538.84 -3.00301 -3.24456 0
M  V30 25900 N 2537.9 0.328509 -1.54138 0
M  V30 25901 C 2539.12 1.09109 -1.7638 0
M  V30 25902 C 2539.55 1.81093 -0.508628 0
M  V30 25903 O 2538.91 1.73085 0.539567 0
M  V30 25904 C 2538.95 2.06867 -2.95361 0
M  V30 25905 O 2538.06 3.14673 -2.66561 0
M  V30 25906 H 2537.4 0.314828 -0.584619 0
M  V30 25907 H 2539.93 0.374313 -2.01147 0
M  V30 25908 H 2539.94 2.49824 -3.22571 0
M  V30 25909 H 2538.61 1.53874 -3.86388 0
M  V30 25910 H 2537.19 2.76426 -2.50286 0
M  V30 25911 N 2539.38 1.46127 0.590316 0
M  V30 25912 C 2540.65 1.41518 1.35026 0
M  V30 25913 C 2541.03 0.0946843 2.10888 0
M  V30 25914 O 2540.38 -0.923656 2.09 0
M  V30 25915 C 2540.59 2.64001 2.28264 0
M  V30 25916 C 2541.94 3.09826 2.90332 0
M  V30 25917 O 2542.96 2.64496 2.3858 0
M  V30 25918 O 2541.82 3.88542 3.84314 0
M  V30 25919 H 2538.92 0.562424 0.606307 0
M  V30 25920 H 2541.46 1.58282 0.611966 0
M  V30 25921 H 2540.23 3.51674 1.71585 0
M  V30 25922 H 2539.86 2.49658 3.09446 0
M  V30 25923 N 2540.85 -0.834306 1.33705 0
M  V30 25924 C 2542.08 -1.62703 1.28618 0
M  V30 25925 C 2542.5 -1.87584 -0.139209 0
M  V30 25926 O 2541.86 -1.44322 -1.09731 0
M  V30 25927 C 2541.91 -2.95167 2.07144 0
M  V30 25928 O 2541.01 -3.86696 1.43317 0
M  V30 25929 H 2540.35 -0.495272 0.442269 0
M  V30 25930 H 2542.88 -1.03762 1.76336 0
M  V30 25931 H 2542.89 -3.44827 2.18079 0
M  V30 25932 H 2541.57 -2.7638 3.10784 0
M  V30 25933 H 2540.15 -3.45192 1.41056 0
M  V30 25934 N 2542.33 -1.17248 -1.05312 0
M  V30 25935 C 2543.56 -0.98518 -1.82507 0
M  V30 25936 C 2543.98 0.461756 -1.82344 0
M  V30 25937 O 2543.34 1.33053 -1.23153 0
M  V30 25938 C 2543.39 -1.52935 -3.26563 0
M  V30 25939 O 2542.49 -0.742296 -4.05665 0
M  V30 25940 H 2541.83 -0.349879 -0.564341 0
M  V30 25941 H 2544.36 -1.55718 -1.32715 0
M  V30 25942 H 2544.37 -1.5511 -3.77366 0
M  V30 25943 H 2543.05 -2.58262 -3.25996 0
M  V30 25944 H 2541.62 -0.791858 -3.64395 0
M  V30 25945 N 2543.81 1.24015 -0.972531 0
M  V30 25946 C 2545.06 1.91522 -0.632636 0
M  V30 25947 C 2545.37 1.76806 0.83661 0
M  V30 25948 O 2546.58 2.39045 1.28723 0
M  V30 25949 C 2545.03 3.43286 -1.08088 0
M  V30 25950 C 2544.64 3.66679 -2.57392 0
M  V30 25951 C 2546.39 4.16615 -0.814362 0
M  V30 25952 C 2544.29 5.12038 -2.95924 0
M  V30 25953 H 2543.22 0.717125 -0.232911 0
M  V30 25954 H 2545.87 1.4058 -1.17938 0
M  V30 25955 H 2544.26 3.93291 -0.462409 0
M  V30 25956 H 2545.43 3.27253 -3.24411 0
M  V30 25957 H 2543.75 3.06644 -2.81706 0
M  V30 25958 H 2546.34 5.23717 -1.07819 0
M  V30 25959 H 2546.69 4.15552 0.249477 0
M  V30 25960 H 2547.22 3.72574 -1.39404 0
M  V30 25961 H 2543.96 5.18227 -4.01399 0
M  V30 25962 H 2543.48 5.52444 -2.33593 0
M  V30 25963 H 2545.16 5.80309 -2.86096 0
M  V30 25964 N 2545.29 0.743226 1.38974 0
M  V30 25965 C 2546.51 0.303972 2.0516 0
M  V30 25966 C 2546.94 -1.05573 1.55679 0
M  V30 25967 O 2546.3 -1.67067 0.704161 0
M  V30 25968 C 2546.34 0.324437 3.59138 0
M  V30 25969 O 2545.45 -0.685132 4.06669 0
M  V30 25970 H 2544.79 0.136529 0.649812 0
M  V30 25971 H 2547.32 1.01145 1.77851 0
M  V30 25972 H 2547.33 0.171689 4.07639 0
M  V30 25973 H 2546 1.31654 3.94512 0
M  V30 25974 H 2544.58 -0.497848 3.69562 0
M  V30 25975 N 2546.77 -1.4974 0.491491 0
M  V30 25976 C 2547.73 -2.27473 -0.280866 0
M  V30 25977 C 2548.73 -1.3309 -0.90243 0
M  V30 25978 O 2549.92 -1.56335 -0.768438 0
M  V30 25979 C 2547.05 -3.10734 -1.40203 0
M  V30 25980 H 2548.24 -2.97206 0.401109 0
M  V30 25981 H 2545.8 -1.54349 0.246159 0
M  V30 25982 H 2546.53 -2.45545 -2.11844 0
M  V30 25983 H 2546.32 -3.80118 -0.961903 0
M  V30 25984 H 2547.81 -3.69469 -1.94633 0
M  V30 25985 N 2548.24 -0.224922 -1.55987 0
M  V30 25986 C 2549.49 0.405064 -1.97999 0
M  V30 25987 C 2549.81 1.60054 -1.1139 0
M  V30 25988 O 2549.08 1.9496 -0.191679 0
M  V30 25989 H 2547.66 0.152645 -0.731238 0
M  V30 25990 H 2550.33 -0.318601 -1.92278 0
M  V30 25991 H 2549.42 0.729113 -3.03464 0
M  V30 25992 N 2549.72 1.57526 0.0484352 0
M  V30 25993 C 2550.97 1.88001 0.741624 0
M  V30 25994 C 2551.29 0.820085 1.76917 0
M  V30 25995 O 2550.56 -0.148627 1.95335 0
M  V30 25996 H 2549.14 0.693785 0.276896 0
M  V30 25997 H 2551.8 1.94891 0.0189788 0
M  V30 25998 H 2550.9 2.86266 1.24331 0
M  V30 25999 N 2551.2 -0.32033 1.5431 0
M  V30 26000 C 2552.45 -1.05789 1.7267 0
M  V30 26001 C 2552.78 -1.87907 0.502117 0
M  V30 26002 O 2552.03 -1.88772 -0.516116 0
M  V30 26003 C 2552.33 -2.00823 2.95643 0
M  V30 26004 C 2552 -1.34835 4.30268 0
M  V30 26005 C 2550.66 -1.16569 4.66867 0
M  V30 26006 C 2553.01 -0.875005 5.13803 0
M  V30 26007 C 2550.34 -0.496233 5.84598 0
M  V30 26008 C 2552.69 -0.219351 6.3222 0
M  V30 26009 C 2551.35 -0.0245742 6.67495 0
M  V30 26010 H 2550.62 -0.38711 0.631844 0
M  V30 26011 H 2553.27 -0.334702 1.88552 0
M  V30 26012 H 2551.58 -2.79604 2.74461 0
M  V30 26013 H 2553.27 -2.57927 3.07042 0
M  V30 26014 H 2549.86 -1.50054 4.01474 0
M  V30 26015 H 2554.05 -1.0039 4.86041 0
M  V30 26016 H 2549.3 -0.334156 6.10486 0
M  V30 26017 H 2553.48 0.155413 6.96227 0
M  V30 26018 H 2551.1 0.496198 7.58579 0
M  V30 26019 N 2552.68 -1.46438 -0.582558 0
M  V30 26020 C 2553.63 -1.53429 -1.68652 0
M  V30 26021 C 2554.61 -0.395221 -1.55971 0
M  V30 26022 O 2555.8 -0.643641 -1.64883 0
M  V30 26023 C 2552.93 -1.52768 -3.07436 0
M  V30 26024 C 2552.02 -2.71969 -3.25413 0
M  V30 26025 N 2552.41 -3.96888 -3.13549 0
M  V30 26026 C 2550.71 -2.68195 -3.56353 0
M  V30 26027 C 2551.41 -4.76581 -3.33535 0
M  V30 26028 N 2550.39 -4.08457 -3.58697 0
M  V30 26029 H 2554.19 -2.47811 -1.5801 0
M  V30 26030 H 2551.7 -1.42079 -0.786592 0
M  V30 26031 H 2553.7 -1.55864 -3.86668 0
M  V30 26032 H 2552.36 -0.594629 -3.19209 0
M  V30 26033 H 2553.37 -4.28135 -2.91412 0
M  V30 26034 H 2550.05 -1.83915 -3.74809 0
M  V30 26035 H 2551.44 -5.85534 -3.29545 0
M  V30 26036 N 2554.16 0.827204 -1.34146 0
M  V30 26037 C 2555.38 1.61499 -1.29328 0
M  V30 26038 C 2555.8 1.88327 0.133507 0
M  V30 26039 O 2555.16 1.47166 1.07927 0
M  V30 26040 C 2555.21 2.95841 -2.07751 0
M  V30 26041 O 2554.93 2.70185 -3.44865 0
M  V30 26042 C 2556.43 3.90253 -2.1028 0
M  V30 26043 H 2553.65 0.502142 -0.445078 0
M  V30 26044 H 2556.19 1.02952 -1.76695 0
M  V30 26045 H 2554.35 3.50957 -1.64037 0
M  V30 26046 H 2554.76 3.55815 -3.85351 0
M  V30 26047 H 2556.24 4.81694 -2.69583 0
M  V30 26048 H 2556.71 4.25303 -1.09607 0
M  V30 26049 H 2557.32 3.41074 -2.54065 0
M  V30 26050 N 2555.63 1.17805 1.04688 0
M  V30 26051 C 2556.86 0.994262 1.81444 0
M  V30 26052 C 2557.28 -0.457427 1.83175 0
M  V30 26053 O 2556.63 -1.31768 1.26267 0
M  V30 26054 C 2556.69 1.53416 3.27332 0
M  V30 26055 O 2556.41 2.929 3.25793 0
M  V30 26056 C 2557.91 1.39567 4.20756 0
M  V30 26057 H 2555.13 0.351457 0.571593 0
M  V30 26058 H 2557.67 1.56211 1.31979 0
M  V30 26059 H 2555.83 1.00822 3.7405 0
M  V30 26060 H 2556.24 3.17956 4.17138 0
M  V30 26061 H 2557.71 1.8215 5.21081 0
M  V30 26062 H 2558.19 0.343471 4.37855 0
M  V30 26063 H 2558.8 1.91202 3.79897 0
M  V30 26064 N 2557.11 -1.23497 0.979094 0
M  V30 26065 C 2558.36 -1.92162 0.648212 0
M  V30 26066 C 2558.69 -1.76224 -0.816018 0
M  V30 26067 O 2557.97 -1.1224 -1.58847 0
M  V30 26068 C 2558.25 -3.44822 1.03779 0
M  V30 26069 C 2558.1 -3.69874 2.55955 0
M  V30 26070 C 2559.42 -4.36252 0.58073 0
M  V30 26071 H 2556.54 -0.697866 0.236964 0
M  V30 26072 H 2559.18 -1.45645 1.22014 0
M  V30 26073 H 2557.33 -3.84571 0.551126 0
M  V30 26074 H 2559 -3.39615 3.12185 0
M  V30 26075 H 2557.25 -3.14631 2.98647 0
M  V30 26076 H 2557.92 -4.76732 2.78263 0
M  V30 26077 H 2560.39 -4.03941 0.998536 0
M  V30 26078 H 2559.27 -5.41771 0.881759 0
M  V30 26079 H 2559.53 -4.39043 -0.518975 0
M  V30 26080 N 2558.59 -0.750586 -1.38578 0
M  V30 26081 C 2559.82 -0.316134 -2.04471 0
M  V30 26082 C 2560.23 1.05449 -1.56608 0
M  V30 26083 O 2559.59 1.66921 -0.737813 0
M  V30 26084 C 2559.64 -0.326338 -3.60024 0
M  V30 26085 O 2559.36 -1.64287 -4.0613 0
M  V30 26086 C 2560.86 0.122351 -4.43131 0
M  V30 26087 H 2558.08 -0.13554 -0.657168 0
M  V30 26088 H 2560.63 -1.0186 -1.77327 0
M  V30 26089 H 2558.78 0.327363 -3.86014 0
M  V30 26090 H 2559.2 -1.56701 -5.00545 0
M  V30 26091 H 2560.67 0.0640503 -5.51963 0
M  V30 26092 H 2561.15 1.16981 -4.23335 0
M  V30 26093 H 2561.75 -0.502364 -4.22323 0
M  V30 26094 N 2560.07 1.49477 -0.499425 0
M  V30 26095 C 2561.03 2.27618 0.268798 0
M  V30 26096 C 2562.03 1.33566 0.89536 0
M  V30 26097 O 2563.22 1.5674 0.760136 0
M  V30 26098 C 2560.35 3.11474 1.38553 0
M  V30 26099 H 2561.55 2.96989 -0.416865 0
M  V30 26100 H 2559.1 1.54217 -0.254341 0
M  V30 26101 H 2559.84 2.46665 2.10539 0
M  V30 26102 H 2559.62 3.80623 0.94173 0
M  V30 26103 H 2561.11 3.70496 1.92671 0
M  V30 26104 N 2561.55 0.233191 1.55865 0
M  V30 26105 C 2562.77 -0.402871 2.0345 0
M  V30 26106 C 2563.2 -1.51734 1.11168 0
M  V30 26107 O 2562.56 -1.81013 0.102028 0
M  V30 26108 C 2562.6 -0.900839 3.49167 0
M  V30 26109 O 2561.71 -2.01141 3.60022 0
M  V30 26110 H 2561.05 -0.089691 0.657915 0
M  V30 26111 H 2563.58 0.355236 2.01493 0
M  V30 26112 H 2563.59 -1.20764 3.89718 0
M  V30 26113 H 2562.26 -0.0852158 4.15813 0
M  V30 26114 H 2560.84 -1.71036 3.31363 0
M  V30 26115 N 2563.03 -1.57549 -0.0400806 0
M  V30 26116 C 2564.27 -1.89044 -0.734178 0
M  V30 26117 C 2564.6 -0.829566 -1.7559 0
M  V30 26118 O 2563.88 0.156672 -1.93868 0
M  V30 26119 C 2564.16 -3.3119 -1.41368 0
M  V30 26120 C 2564.02 -4.47962 -0.406221 0
M  V30 26121 C 2565.33 -3.72072 -2.35054 0
M  V30 26122 H 2562.45 -0.687542 -0.265435 0
M  V30 26123 H 2565.1 -1.9 0.00297427 0
M  V30 26124 H 2563.25 -3.30506 -2.042 0
M  V30 26125 H 2564.92 -4.60778 0.219336 0
M  V30 26126 H 2563.16 -4.32924 0.275561 0
M  V30 26127 H 2563.83 -5.44281 -0.919927 0
M  V30 26128 H 2566.31 -3.74052 -1.82275 0
M  V30 26129 H 2565.18 -4.7236 -2.79585 0
M  V30 26130 H 2565.44 -3.03726 -3.21252 0
M  V30 26131 N 2564.5 0.312142 -1.54478 0
M  V30 26132 C 2565.73 1.07232 -1.77528 0
M  V30 26133 C 2566.15 1.80543 -0.527807 0
M  V30 26134 O 2565.51 1.73647 0.521179 0
M  V30 26135 C 2565.56 2.03723 -2.97539 0
M  V30 26136 O 2564.66 3.11828 -2.69884 0
M  V30 26137 H 2564 0.308609 -0.587925 0
M  V30 26138 H 2566.53 0.352957 -2.01533 0
M  V30 26139 H 2566.54 2.46389 -3.25202 0
M  V30 26140 H 2565.22 1.49767 -3.87998 0
M  V30 26141 H 2563.8 2.73755 -2.53204 0
M  V30 26142 N 2565.98 1.46745 0.574784 0
M  V30 26143 C 2566.94 1.57481 1.66531 0
M  V30 26144 C 2567.94 0.45129 1.54337 0
M  V30 26145 O 2569.13 0.715841 1.58812 0
M  V30 26146 C 2566.27 1.50264 3.05996 0
M  V30 26147 H 2567.46 2.54676 1.58367 0
M  V30 26148 H 2565.01 1.34673 0.793278 0
M  V30 26149 H 2565.75 0.543781 3.19708 0
M  V30 26150 H 2565.53 2.31787 3.16255 0
M  V30 26151 H 2567.02 1.60879 3.85367 0
M  V30 26152 N 2567.46 -0.820078 1.34583 0
M  V30 26153 C 2568.7 -1.58996 1.28451 0
M  V30 26154 C 2569.06 -1.91468 -0.142849 0
M  V30 26155 O 2570.26 -2.66787 -0.328375 0
M  V30 26156 C 2568.54 -2.85269 2.15305 0
M  V30 26157 S 2570.09 -3.7579 2.26555 0
M  V30 26158 H 2566.91 -0.544932 0.456695 0
M  V30 26159 H 2569.51 -0.968457 1.69827 0
M  V30 26160 H 2568.22 -2.59416 3.18012 0
M  V30 26161 H 2567.75 -3.52414 1.74836 0
M  V30 26162 H 2569.76 -4.74833 1.44042 0
M  V30 26163 N 2568.94 -1.18359 -1.04062 0
M  V30 26164 C 2570.19 -0.977044 -1.76913 0
M  V30 26165 C 2570.51 0.494544 -1.88625 0
M  V30 26166 O 2569.78 1.35868 -1.41127 0
M  V30 26167 H 2568.36 -0.358516 -0.655344 0
M  V30 26168 H 2571.02 -1.49041 -1.25589 0
M  V30 26169 H 2570.11 -1.41509 -2.78175 0
M  V30 26170 N 2570.42 1.22976 -0.98563 0
M  V30 26171 C 2571.66 1.91153 -0.656121 0
M  V30 26172 C 2571.98 1.77219 0.81353 0
M  V30 26173 O 2571.25 1.15483 1.58242 0
M  V30 26174 H 2569.83 0.707502 -0.239687 0
M  V30 26175 H 2572.5 1.49488 -1.25057 0
M  V30 26176 H 2571.59 2.98468 -0.912305 0
M  V30 26177 N 2571.89 0.757924 1.38178 0
M  V30 26178 C 2573.12 0.326973 2.043 0
M  V30 26179 C 2573.54 -1.04617 1.57165 0
M  V30 26180 O 2572.89 -1.66527 0.746655 0
M  V30 26181 C 2572.94 0.345427 3.59846 0
M  V30 26182 O 2572.67 1.66439 4.05253 0
M  V30 26183 C 2574.17 -0.0988491 4.4319 0
M  V30 26184 H 2571.39 0.139023 0.65644 0
M  V30 26185 H 2573.93 1.02799 1.76784 0
M  V30 26186 H 2572.09 -0.306888 3.86183 0
M  V30 26187 H 2572.5 1.59354 4.99707 0
M  V30 26188 H 2573.97 -0.0347775 5.51989 0
M  V30 26189 H 2574.45 -1.14734 4.23949 0
M  V30 26190 H 2575.06 0.524754 4.2205 0
M  V30 26191 N 2573.37 -1.4921 0.507345 0
M  V30 26192 C 2574.62 -2.0247 -0.0349173 0
M  V30 26193 C 2574.95 -1.38649 -1.36406 0
M  V30 26194 O 2574.2 -0.5136 -1.8884 0
M  V30 26195 C 2574.5 -3.56663 -0.22945 0
M  V30 26196 C 2574.17 -4.39154 1.02249 0
M  V30 26197 C 2572.83 -4.61415 1.36565 0
M  V30 26198 C 2575.18 -4.87096 1.85436 0
M  V30 26199 C 2572.51 -5.28864 2.54008 0
M  V30 26200 C 2574.86 -5.55838 3.02038 0
M  V30 26201 C 2573.53 -5.76343 3.36727 0
M  V30 26202 H 2572.8 -0.74089 -0.0127772 0
M  V30 26203 H 2575.44 -1.79442 0.668788 0
M  V30 26204 H 2573.75 -3.78405 -1.01574 0
M  V30 26205 H 2575.44 -3.95472 -0.663572 0
M  V30 26206 H 2572.03 -4.22072 0.745198 0
M  V30 26207 H 2576.22 -4.69721 1.60238 0
M  V30 26208 H 2571.47 -5.42941 2.81114 0
M  V30 26209 H 2575.65 -5.9196 3.66819 0
M  V30 26210 H 2573.28 -6.28382 4.27832 0
M  V30 26211 N 2574.85 -0.241454 -1.55739 0
M  V30 26212 C 2576.08 0.388534 -2.02914 0
M  V30 26213 C 2576.49 1.52476 -1.12017 0
M  V30 26214 O 2575.83 1.83268 -0.125935 0
M  V30 26215 C 2575.89 0.963014 -3.46362 0
M  V30 26216 C 2575.56 -0.0402719 -4.56982 0
M  V30 26217 C 2576.55 -0.847857 -5.1294 0
M  V30 26218 C 2574.24 -0.164787 -5.0203 0
M  V30 26219 C 2576.23 -1.76647 -6.12433 0
M  V30 26220 C 2573.92 -1.08691 -6.01356 0
M  V30 26221 C 2574.92 -1.88628 -6.56436 0
M  V30 26222 O 2574.61 -2.79286 -7.53826 0
M  V30 26223 H 2574.34 0.0971335 -0.668985 0
M  V30 26224 H 2576.89 -0.361283 -2.02198 0
M  V30 26225 H 2575.12 1.76229 -3.44209 0
M  V30 26226 H 2576.81 1.5025 -3.77067 0
M  V30 26227 H 2577.58 -0.762217 -4.78973 0
M  V30 26228 H 2573.46 0.44733 -4.58825 0
M  V30 26229 H 2577 -2.39083 -6.55351 0
M  V30 26230 H 2572.9 -1.17349 -6.34744 0
M  V30 26231 H 2573.67 -2.73586 -7.71423 0
M  V30 26232 N 2576.33 1.57568 0.0317248 0
M  V30 26233 C 2577.26 2.01762 1.06617 0
M  V30 26234 C 2578.24 0.901486 1.35322 0
M  V30 26235 O 2579.42 1.16711 1.48023 0
M  V30 26236 C 2576.55 2.38842 2.40151 0
M  V30 26237 C 2575.6 3.60871 2.27321 0
M  V30 26238 S 2576.43 5.10116 1.62916 0
M  V30 26239 C 2577.59 5.50436 2.97945 0
M  V30 26240 H 2577.82 2.89189 0.68973 0
M  V30 26241 H 2575.35 1.52498 0.241614 0
M  V30 26242 H 2577.31 2.60876 3.16945 0
M  V30 26243 H 2575.97 1.51872 2.74943 0
M  V30 26244 H 2575.16 3.84462 3.25891 0
M  V30 26245 H 2574.77 3.38674 1.58669 0
M  V30 26246 H 2577.06 5.50957 3.94275 0
M  V30 26247 H 2578 6.5078 2.7909 0
M  V30 26248 H 2578.41 4.77936 3.00396 0
M  V30 26249 N 2577.81 -0.303946 1.54641 0
M  V30 26250 C 2578.77 -1.35786 1.84648 0
M  V30 26251 C 2579.77 -1.43819 0.719225 0
M  V30 26252 O 2580.96 -1.43505 0.987516 0
M  V30 26253 C 2578.09 -2.74303 2.02412 0
M  V30 26254 H 2579.28 -1.10424 2.78831 0
M  V30 26255 H 2576.84 -0.540462 1.46658 0
M  V30 26256 H 2577.57 -3.04891 1.10507 0
M  V30 26257 H 2577.36 -2.69863 2.84458 0
M  V30 26258 H 2578.85 -3.5051 2.27008 0
M  V30 26259 N 2579.28 -1.47047 -0.566994 0
M  V30 26260 C 2580.19 -1.61413 -1.70244 0
M  V30 26261 C 2581.21 -0.497186 -1.66745 0
M  V30 26262 O 2582.39 -0.763422 -1.8637 0
M  V30 26263 C 2579.45 -1.61566 -3.06753 0
M  V30 26264 C 2578.51 -2.84613 -3.21394 0
M  V30 26265 C 2577.75 -2.84749 -4.51391 0
M  V30 26266 O 2577.97 -1.94398 -5.36252 0
M  V30 26267 O 2576.9 -3.76491 -4.69615 0
M  V30 26268 H 2580.73 -2.5747 -1.61069 0
M  V30 26269 H 2578.31 -1.3002 -0.735871 0
M  V30 26270 H 2580.2 -1.64403 -3.88007 0
M  V30 26271 H 2578.87 -0.686739 -3.16331 0
M  V30 26272 H 2577.78 -2.87324 -2.39574 0
M  V30 26273 H 2579.11 -3.76766 -3.16714 0
M  V30 26274 N 2580.76 0.812929 -1.35016 0
M  V30 26275 C 2582.01 1.56659 -1.27681 0
M  V30 26276 C 2582.33 1.9442 0.150324 0
M  V30 26277 O 2581.6 1.6309 1.08529 0
M  V30 26278 H 2580.18 0.580925 -0.469612 0
M  V30 26279 H 2582.84 0.970047 -1.69045 0
M  V30 26280 H 2581.94 2.48489 -1.88837 0
M  V30 26281 N 2582.24 1.18909 1.03433 0
M  V30 26282 C 2583.49 0.982699 1.76142 0
M  V30 26283 C 2583.8 -0.487919 1.89417 0
M  V30 26284 O 2585.01 -0.81299 2.59042 0
M  V30 26285 C 2583.46 1.70929 3.16719 0
M  V30 26286 C 2583.07 3.21965 3.11517 0
M  V30 26287 C 2584.82 1.58594 3.93761 0
M  V30 26288 C 2582.72 3.87236 4.46992 0
M  V30 26289 H 2581.65 0.364058 0.660286 0
M  V30 26290 H 2584.3 1.42349 1.15798 0
M  V30 26291 H 2582.69 1.1963 3.77498 0
M  V30 26292 H 2583.86 3.80339 2.60152 0
M  V30 26293 H 2582.18 3.34513 2.47972 0
M  V30 26294 H 2584.77 2.04715 4.93959 0
M  V30 26295 H 2585.12 0.539214 4.12793 0
M  V30 26296 H 2585.65 2.07209 3.39572 0
M  V30 26297 H 2582.39 4.91984 4.33165 0
M  V30 26298 H 2581.91 3.33651 4.98435 0
M  V30 26299 H 2583.59 3.90468 5.15891 0
M  V30 26300 N 2583.72 -1.22452 0.992137 0
M  V30 26301 C 2584.97 -1.9118 0.667568 0
M  V30 26302 C 2585.29 -1.77273 -0.800286 0
M  V30 26303 O 2584.55 -1.13508 -1.59419 0
M  V30 26304 C 2584.85 -3.42584 1.01839 0
M  V30 26305 C 2584.51 -3.76679 2.47838 0
M  V30 26306 C 2583.18 -3.85696 2.87736 0
M  V30 26307 C 2585.53 -3.92889 3.42473 0
M  V30 26308 C 2582.86 -4.08359 4.2126 0
M  V30 26309 C 2585.21 -4.17055 4.75655 0
M  V30 26310 C 2583.87 -4.24296 5.15295 0
M  V30 26311 H 2583.14 -0.699577 0.24428 0
M  V30 26312 H 2585.79 -1.45233 1.24818 0
M  V30 26313 H 2584.09 -3.90181 0.355838 0
M  V30 26314 H 2585.79 -3.94013 0.745297 0
M  V30 26315 H 2582.38 -3.70243 2.15912 0
M  V30 26316 H 2586.56 -3.85301 3.12821 0
M  V30 26317 H 2581.82 -4.12192 4.51562 0
M  V30 26318 H 2585.99 -4.28541 5.48932 0
M  V30 26319 H 2583.62 -4.4161 6.18777 0
M  V30 26320 N 2585.2 -0.765242 -1.37774 0
M  V30 26321 C 2586.14 -0.134839 -2.32209 0
M  V30 26322 C 2587.14 0.692288 -1.54608 0
M  V30 26323 O 2588.34 0.590079 -1.70053 0
M  V30 26324 H 2584.72 -0.0248137 -0.75159 0
M  V30 26325 H 2586.69 -0.947168 -2.82969 0
M  V30 26326 C 2585.44 0.735004 -3.39843 0
M  V30 26327 H 2584.76 0.107921 -3.99654 0
M  V30 26328 H 2586.2 1.14318 -4.08298 0
M  V30 26329 C 2584.66 1.88276 -2.79381 0
M  V30 26330 O 2585.19 2.97778 -2.69613 0
M  V30 26331 N 2583.4 1.68138 -2.37019 0
M  V30 26332 H 2582.94 0.790729 -2.45164 0
M  V30 26333 H 2582.9 2.451 -1.96909 0
M  V30 26334 N 2586.67 1.48939 -0.515251 0
M  V30 26335 C 2587.9 2.07388 0.0226906 0
M  V30 26336 C 2588.32 1.37124 1.28758 0
M  V30 26337 O 2587.68 0.432461 1.76067 0
M  V30 26338 C 2587.73 3.59768 0.244806 0
M  V30 26339 O 2586.83 3.90819 1.3166 0
M  V30 26340 H 2586.18 0.663201 -0.0325623 0
M  V30 26341 H 2588.71 1.91552 -0.718951 0
M  V30 26342 H 2588.72 4.05261 0.471979 0
M  V30 26343 H 2587.39 4.10315 -0.679266 0
M  V30 26344 H 2585.97 3.57122 1.07325 0
M  V30 26345 N 2588.15 0.249709 1.55609 0
M  V30 26346 C 2589.56 -0.252916 1.84979 0
M  V30 26347 C 2589.92 -1.57382 1.17156 0
M  V30 26348 O 2589.04 -2.1165 0.450921 0
M  V30 26349 C 2589.64 -0.465673 3.35584 0
M  V30 26350 C 2588.19 -0.91256 3.6517 0
M  V30 26351 C 2587.34 0.00863959 2.77299 0
M  V30 26352 H 2590.29 0.472197 1.51512 0
M  V30 26353 H 2590.31 -1.30789 3.57316 0
M  V30 26354 H 2589.83 0.495858 3.84919 0
M  V30 26355 H 2587.93 -1.88646 3.21315 0
M  V30 26356 H 2588.04 -0.767476 4.72913 0
M  V30 26357 H 2586.4 -0.503226 2.49679 0
M  V30 26358 H 2587.19 0.965594 3.29441 0
M  V30 26359 N 2589.63 -1.57583 -0.0233682 0
M  V30 26360 C 2590.88 -1.89157 -0.711621 0
M  V30 26361 C 2591.2 -0.848127 -1.7559 0
M  V30 26362 O 2590.47 0.117532 -1.95547 0
M  V30 26363 H 2589.05 -0.698102 -0.265823 0
M  V30 26364 H 2591.71 -1.94896 0.012029 0
M  V30 26365 H 2590.81 -2.88208 -1.19761 0
M  V30 26366 N 2591.11 0.29574 -1.548 0
M  V30 26367 C 2592.34 1.04759 -1.78071 0
M  V30 26368 C 2592.75 1.81244 -0.542879 0
M  V30 26369 O 2592.09 1.76849 0.49702 0
M  V30 26370 C 2592.15 2.07056 -2.93885 0
M  V30 26371 C 2591.82 1.49717 -4.3178 0
M  V30 26372 C 2592.81 0.924491 -5.11614 0
M  V30 26373 C 2590.5 1.53122 -4.78392 0
M  V30 26374 C 2592.49 0.393483 -6.36184 0
M  V30 26375 C 2590.18 0.996341 -6.02923 0
M  V30 26376 C 2591.18 0.428449 -6.81655 0
M  V30 26377 O 2590.87 -0.0983006 -8.0384 0
M  V30 26378 H 2590.6 0.316216 -0.597481 0
M  V30 26379 H 2593.15 0.338938 -2.02584 0
M  V30 26380 H 2591.38 2.81616 -2.65008 0
M  V30 26381 H 2593.07 2.68184 -3.04683 0
M  V30 26382 H 2593.84 0.891052 -4.76744 0
M  V30 26383 H 2589.72 1.96263 -4.17135 0
M  V30 26384 H 2593.26 -0.050424 -6.97582 0
M  V30 26385 H 2589.16 1.02694 -6.37279 0
M  V30 26386 H 2589.92 0.0145016 -8.18499 0
M  V30 26387 N 2592.59 1.47346 0.559187 0
M  V30 26388 C 2594 1.47753 1.14132 0
M  V30 26389 C 2594.35 0.231137 1.94834 0
M  V30 26390 O 2593.47 -0.664101 2.05958 0
M  V30 26391 C 2594.07 2.67708 2.07648 0
M  V30 26392 C 2592.63 2.71081 2.61136 0
M  V30 26393 C 2591.78 2.40823 1.37476 0
M  V30 26394 H 2594.73 1.54885 0.34589 0
M  V30 26395 H 2594.75 2.44566 2.91492 0
M  V30 26396 H 2594.26 3.58407 1.48884 0
M  V30 26397 H 2592.36 1.84517 3.23704 0
M  V30 26398 H 2592.47 3.71716 3.02265 0
M  V30 26399 H 2590.84 1.91365 1.68082 0
M  V30 26400 H 2591.62 3.33727 0.805076 0
M  V30 26401 N 2594.07 -0.805758 1.35445 0
M  V30 26402 C 2595.34 -1.54985 1.19328 0
M  V30 26403 C 2595.72 -2.09873 -0.227257 0
M  V30 26404 O 2595.07 -1.92514 -1.23087 0
M  V30 26405 C 2595.28 -2.65771 2.262 0
M  V30 26406 C 2596.63 -3.34089 2.62049 0
M  V30 26407 O 2597.65 -2.76042 2.2512 0
M  V30 26408 O 2596.51 -4.38953 3.2555 0
M  V30 26409 H 2593.61 -0.684815 0.463635 0
M  V30 26410 H 2596.15 -0.845648 1.47129 0
M  V30 26411 H 2594.92 -2.2309 3.21475 0
M  V30 26412 H 2594.55 -3.43826 1.99673 0
M  V30 26413 N 2595.54 -1.19456 -1.02801 0
M  V30 26414 C 2596.79 -0.992027 -1.75618 0
M  V30 26415 C 2597.11 0.477867 -1.89673 0
M  V30 26416 O 2598.31 0.799241 -2.59469 0
M  V30 26417 C 2596.77 -1.72606 -3.15809 0
M  V30 26418 C 2596.38 -3.23612 -3.09805 0
M  V30 26419 C 2598.12 -1.6068 -3.92915 0
M  V30 26420 C 2596.03 -3.89601 -4.44932 0
M  V30 26421 H 2594.96 -0.367555 -0.658346 0
M  V30 26422 H 2597.61 -1.42961 -1.15041 0
M  V30 26423 H 2595.99 -1.2163 -3.76858 0
M  V30 26424 H 2597.16 -3.81713 -2.58131 0
M  V30 26425 H 2595.48 -3.35823 -2.46195 0
M  V30 26426 H 2598.08 -2.07332 -4.92867 0
M  V30 26427 H 2598.42 -0.561098 -4.12501 0
M  V30 26428 H 2598.95 -2.09007 -3.38469 0
M  V30 26429 H 2595.69 -4.94274 -4.3055 0
M  V30 26430 H 2595.21 -3.36289 -4.96658 0
M  V30 26431 H 2596.89 -3.93199 -5.13813 0
M  V30 26432 N 2597.02 1.21924 -0.998617 0
M  V30 26433 C 2598.25 1.94548 -0.695311 0
M  V30 26434 C 2598.66 1.73913 0.745049 0
M  V30 26435 O 2598 1.03883 1.51506 0
M  V30 26436 C 2598.06 3.47301 -0.928546 0
M  V30 26437 C 2597.73 3.91679 -2.3545 0
M  V30 26438 C 2598.73 3.98895 -3.33435 0
M  V30 26439 C 2596.41 4.2417 -2.69045 0
M  V30 26440 C 2598.4 4.37984 -4.63086 0
M  V30 26441 C 2596.09 4.62937 -3.98915 0
M  V30 26442 C 2597.09 4.69813 -4.95746 0
M  V30 26443 O 2596.78 5.077 -6.23294 0
M  V30 26444 H 2596.51 0.625687 -0.255913 0
M  V30 26445 H 2599.06 1.55868 -1.3377 0
M  V30 26446 H 2597.29 3.86021 -0.228985 0
M  V30 26447 H 2598.98 4.01143 -0.619609 0
M  V30 26448 H 2599.75 3.73977 -3.08814 0
M  V30 26449 H 2595.63 4.18019 -1.94375 0
M  V30 26450 H 2599.17 4.43266 -5.38666 0
M  V30 26451 H 2595.07 4.87307 -4.23323 0
M  V30 26452 H 2595.84 5.25755 -6.27315 0
M  V30 26453 N 2598.5 0.772537 1.37367 0
M  V30 26454 C 2599.91 0.402525 1.82309 0
M  V30 26455 C 2600.26 -1.07144 1.64362 0
M  V30 26456 O 2599.39 -1.82988 1.15517 0
M  V30 26457 C 2599.98 0.723835 3.30977 0
M  V30 26458 C 2598.54 0.406868 3.74195 0
M  V30 26459 C 2597.69 0.967264 2.59883 0
M  V30 26460 H 2600.64 0.967121 1.25827 0
M  V30 26461 H 2600.66 0.0087752 3.80499 0
M  V30 26462 H 2600.17 1.79666 3.44008 0
M  V30 26463 H 2598.27 -0.658608 3.66733 0
M  V30 26464 H 2598.39 0.915671 4.70268 0
M  V30 26465 H 2596.75 0.39146 2.51674 0
M  V30 26466 H 2597.53 2.04551 2.75706 0
M  V30 26467 N 2599.98 -1.48664 0.523142 0
M  V30 26468 C 2601.39 -1.86525 0.0809325 0
M  V30 26469 C 2601.74 -1.43338 -1.33972 0
M  V30 26470 O 2600.86 -0.821044 -2.00219 0
M  V30 26471 C 2601.46 -3.3851 0.140096 0
M  V30 26472 C 2600.02 -3.75589 -0.246882 0
M  V30 26473 C 2599.17 -2.72702 0.502893 0
M  V30 26474 H 2602.12 -1.40666 0.734761 0
M  V30 26475 H 2602.14 -3.74909 -0.649879 0
M  V30 26476 H 2601.65 -3.69912 1.17418 0
M  V30 26477 H 2599.75 -3.49801 -1.28337 0
M  V30 26478 H 2599.86 -4.79019 0.0879701 0
M  V30 26479 H 2598.23 -2.54651 -0.0500134 0
M  V30 26480 H 2599.01 -3.06947 1.53748 0
M  V30 26481 N 2601.46 -0.257958 -1.55475 0
M  V30 26482 C 2602.4 0.653037 -2.23245 0
M  V30 26483 C 2603.4 1.17142 -1.22369 0
M  V30 26484 O 2604.6 1.12704 -1.40349 0
M  V30 26485 H 2600.98 0.229104 -0.716251 0
M  V30 26486 H 2602.95 0.0584263 -2.98343 0
M  V30 26487 C 2601.7 1.8339 -2.95404 0
M  V30 26488 H 2601.02 1.44418 -3.72805 0
M  V30 26489 H 2602.46 2.44832 -3.4617 0
M  V30 26490 C 2600.92 2.71186 -1.999 0
M  V30 26491 O 2601.45 3.71043 -1.53915 0
M  V30 26492 N 2599.66 2.37987 -1.66765 0
M  V30 26493 H 2599.2 1.56834 -2.04355 0
M  V30 26494 H 2599.16 2.97004 -1.03132 0
M  V30 26495 N 2602.93 1.57593 0.0150108 0
M  V30 26496 C 2604.18 1.90188 0.70401 0
M  V30 26497 C 2604.51 0.857396 1.74248 0
M  V30 26498 O 2603.79 -0.125809 1.94093 0
M  V30 26499 C 2604.07 3.33398 1.36081 0
M  V30 26500 C 2603.92 4.48551 0.334902 0
M  V30 26501 C 2605.24 3.75764 2.29105 0
M  V30 26502 H 2602.36 0.691677 0.254463 0
M  V30 26503 H 2605 1.89971 -0.0332012 0
M  V30 26504 H 2603.15 3.33713 1.98916 0
M  V30 26505 H 2604.83 4.60371 -0.292615 0
M  V30 26506 H 2603.07 4.32431 -0.344401 0
M  V30 26507 H 2603.74 5.45675 0.83322 0
M  V30 26508 H 2606.22 3.76905 1.76301 0
M  V30 26509 H 2605.09 4.76748 2.72035 0
M  V30 26510 H 2605.35 3.08798 3.1638 0
M  V30 26511 N 2604.41 -0.287527 1.54955 0
M  V30 26512 C 2605.32 -1.37733 1.89913 0
M  V30 26513 C 2606.34 -1.5479 0.794729 0
M  V30 26514 O 2607.51 -1.69196 1.09246 0
M  V30 26515 C 2604.58 -2.71896 2.15113 0
M  V30 26516 C 2603.64 -2.63709 3.38757 0
M  V30 26517 C 2602.87 -3.91473 3.62746 0
M  V30 26518 O 2603.1 -4.91473 2.89501 0
M  V30 26519 O 2602.03 -3.92553 4.56274 0
M  V30 26520 H 2605.86 -1.11087 2.82654 0
M  V30 26521 H 2603.44 -0.484782 1.41316 0
M  V30 26522 H 2605.32 -3.5125 2.32812 0
M  V30 26523 H 2604 -2.98358 1.25556 0
M  V30 26524 H 2602.91 -1.8278 3.26408 0
M  V30 26525 H 2604.24 -2.42198 4.28487 0
M  V30 26526 N 2605.89 -1.47641 -0.551365 0
M  V30 26527 C 2607.13 -1.56148 -1.31899 0
M  V30 26528 C 2607.49 -0.221046 -1.90723 0
M  V30 26529 O 2608.7 -0.180992 -2.6819 0
M  V30 26530 C 2606.97 -2.65271 -2.39512 0
M  V30 26531 S 2608.53 -2.93401 -3.26284 0
M  V30 26532 H 2605.34 -0.551326 -0.448956 0
M  V30 26533 H 2607.95 -1.85052 -0.630567 0
M  V30 26534 H 2606.65 -3.61254 -1.94741 0
M  V30 26535 H 2606.18 -2.38201 -3.13088 0
M  V30 26536 H 2608.2 -2.31062 -4.39118 0
M  V30 26537 N 2607.37 0.798563 -1.3587 0
M  V30 26538 C 2608.61 1.55834 -1.29783 0
M  V30 26539 C 2608.95 1.93795 0.125287 0
M  V30 26540 O 2608.22 1.61989 1.07656 0
M  V30 26541 C 2608.51 2.84158 -2.21193 0
M  V30 26542 C 2608.36 2.52622 -3.72159 0
M  V30 26543 C 2609.68 3.8592 -2.11551 0
M  V30 26544 H 2606.8 0.565375 -0.472779 0
M  V30 26545 H 2609.44 0.918163 -1.66342 0
M  V30 26546 H 2607.59 3.38788 -1.90145 0
M  V30 26547 H 2609.26 2.04113 -4.13685 0
M  V30 26548 H 2607.5 1.85697 -3.92045 0
M  V30 26549 H 2608.17 3.44234 -4.31517 0
M  V30 26550 H 2610.65 3.40712 -2.38861 0
M  V30 26551 H 2609.53 4.73473 -2.77696 0
M  V30 26552 H 2609.79 4.28198 -1.09994 0
M  V30 26553 N 2608.85 1.19999 1.02166 0
M  V30 26554 C 2610.09 1.01858 1.76058 0
M  V30 26555 C 2610.45 -0.445189 1.87179 0
M  V30 26556 O 2609.74 -1.32621 1.38283 0
M  V30 26557 C 2609.93 1.62975 3.18079 0
M  V30 26558 C 2609.76 3.15143 3.20804 0
M  V30 26559 C 2608.53 3.84088 3.28336 0
M  V30 26560 C 2610.73 4.12426 3.07261 0
M  V30 26561 N 2608.71 5.23589 3.20511 0
M  V30 26562 C 2610.08 5.38571 3.0715 0
M  V30 26563 C 2612.14 4.03691 2.91441 0
M  V30 26564 C 2610.84 6.5699 2.92842 0
M  V30 26565 C 2612.87 5.21728 2.78484 0
M  V30 26566 C 2612.23 6.46776 2.79035 0
M  V30 26567 H 2608.33 0.426916 0.655184 0
M  V30 26568 H 2610.91 1.52089 1.21561 0
M  V30 26569 H 2609.08 1.15335 3.7088 0
M  V30 26570 H 2610.82 1.38199 3.80372 0
M  V30 26571 H 2607.57 3.34919 3.34853 0
M  V30 26572 H 2608 5.96605 3.19986 0
M  V30 26573 H 2612.64 3.07826 2.89832 0
M  V30 26574 H 2610.36 7.53033 2.932 0
M  V30 26575 H 2613.94 5.16777 2.67269 0
M  V30 26576 H 2612.82 7.36576 2.69121 0
M  V30 26577 N 2610.32 -1.21392 1.00507 0
M  V30 26578 C 2611.27 -2.25791 0.558663 0
M  V30 26579 C 2612.27 -1.64687 -0.396819 0
M  V30 26580 O 2613.47 -1.77994 -0.268004 0
M  V30 26581 H 2609.85 -0.734274 0.162313 0
M  V30 26582 H 2611.82 -2.60783 1.45034 0
M  V30 26583 C 2610.57 -3.47559 -0.0988963 0
M  V30 26584 H 2609.89 -3.94848 0.627295 0
M  V30 26585 H 2611.33 -4.22343 -0.374526 0
M  V30 26586 C 2609.79 -3.09186 -1.33811 0
M  V30 26587 O 2610.32 -3.19678 -2.43246 0
M  V30 26588 N 2608.53 -2.63848 -1.21789 0
M  V30 26589 H 2608.07 -2.55511 -0.327415 0
M  V30 26590 H 2608.03 -2.38542 -2.04805 0
M  V30 26591 N 2611.8 -0.779811 -1.36955 0
M  V30 26592 C 2613.05 -0.34444 -1.98737 0
M  V30 26593 C 2613.36 1.08725 -1.62598 0
M  V30 26594 O 2614.57 1.62441 -2.17543 0
M  V30 26595 C 2613.03 -0.564891 -3.55439 0
M  V30 26596 C 2612.63 -2.00737 -4.0051 0
M  V30 26597 C 2614.38 -0.193545 -4.24059 0
M  V30 26598 C 2612.29 -2.17499 -5.49953 0
M  V30 26599 H 2611.22 -0.125043 -0.743559 0
M  V30 26600 H 2613.87 -0.960084 -1.5638 0
M  V30 26601 H 2612.25 0.120328 -3.95817 0
M  V30 26602 H 2613.42 -2.7282 -3.71357 0
M  V30 26603 H 2611.74 -2.33606 -3.44699 0
M  V30 26604 H 2614.33 -0.297191 -5.33873 0
M  V30 26605 H 2614.68 0.857191 -4.07379 0
M  V30 26606 H 2615.21 -0.831625 -3.8901 0
M  V30 26607 H 2611.95 -3.20921 -5.71568 0
M  V30 26608 H 2611.47 -1.49909 -5.80764 0
M  V30 26609 H 2613.15 -1.97748 -6.16039 0
M  V30 26610 N 2613.28 1.48384 -0.531019 0
M  V30 26611 C 2614.53 2.028 0.00270571 0
M  V30 26612 C 2614.86 1.40718 1.33836 0
M  V30 26613 O 2614.13 0.55331 1.86464 0
M  V30 26614 C 2614.42 3.59888 0.123613 0
M  V30 26615 C 2614.27 4.32448 -1.23728 0
M  V30 26616 C 2615.59 4.31816 0.849892 0
M  V30 26617 H 2612.71 0.737 -0.000490713 0
M  V30 26618 H 2615.35 1.77096 -0.688249 0
M  V30 26619 H 2613.5 3.81918 0.71209 0
M  V30 26620 H 2615.17 4.21833 -1.86694 0
M  V30 26621 H 2613.42 3.93826 -1.81889 0
M  V30 26622 H 2614.09 5.40813 -1.10567 0
M  V30 26623 H 2616.56 4.14621 0.350499 0
M  V30 26624 H 2615.44 5.41415 0.90339 0
M  V30 26625 H 2615.7 3.99171 1.9004 0
M  V30 26626 N 2614.76 0.2662 1.55336 0
M  V30 26627 C 2615.98 -0.359625 2.04258 0
M  V30 26628 C 2616.41 -1.49342 1.14362 0
M  V30 26629 O 2615.77 -1.80756 0.1404 0
M  V30 26630 C 2615.81 -0.826573 3.50999 0
M  V30 26631 O 2614.92 -1.93459 3.64208 0
M  V30 26632 H 2614.26 -0.0757154 0.659669 0
M  V30 26633 H 2616.79 0.397896 2.00694 0
M  V30 26634 H 2616.8 -1.1247 3.92192 0
M  V30 26635 H 2615.47 0.00300343 4.159 0
M  V30 26636 H 2614.05 -1.63969 3.34916 0
M  V30 26637 N 2616.24 -1.57599 -0.0066531 0
M  V30 26638 C 2617.46 -1.94952 -0.707704 0
M  V30 26639 C 2617.89 -0.867897 -1.66881 0
M  V30 26640 O 2617.24 0.174548 -1.80458 0
M  V30 26641 C 2617.29 -3.31397 -1.42157 0
M  V30 26642 O 2616.4 -3.2523 -2.53573 0
M  V30 26643 H 2615.74 -0.636611 -0.18874 0
M  V30 26644 H 2618.27 -2.04551 0.0445552 0
M  V30 26645 H 2618.28 -3.66809 -1.78649 0
M  V30 26646 H 2616.95 -4.09676 -0.716831 0
M  V30 26647 H 2615.53 -3.01484 -2.19457 0
M  V30 26648 N 2617.72 0.279305 -1.55105 0
M  V30 26649 C 2619.13 0.850803 -1.66187 0
M  V30 26650 C 2619.48 1.87284 -0.58474 0
M  V30 26651 O 2618.6 2.14647 0.274882 0
M  V30 26652 C 2619.2 1.54996 -3.01267 0
M  V30 26653 C 2617.76 2.06957 -3.14397 0
M  V30 26654 C 2616.9 0.90949 -2.61961 0
M  V30 26655 H 2619.85 0.0557957 -1.58602 0
M  V30 26656 H 2619.88 2.41664 -2.93903 0
M  V30 26657 H 2619.39 0.805864 -3.79641 0
M  V30 26658 H 2617.49 2.84348 -2.40784 0
M  V30 26659 H 2617.6 2.28921 -4.20871 0
M  V30 26660 H 2615.97 1.30112 -2.18959 0
M  V30 26661 H 2616.75 0.179002 -3.42833 0
M  V30 26662 N 2619.19 1.47931 0.543528 0
M  V30 26663 C 2620.44 1.5495 1.29749 0
M  V30 26664 C 2620.76 0.219276 1.93763 0
M  V30 26665 O 2620.03 -0.758019 1.8064 0
M  V30 26666 H 2618.61 0.570803 0.481864 0
M  V30 26667 H 2621.27 1.84314 0.633604 0
M  V30 26668 H 2620.37 2.32338 2.08388 0
M  V30 26669 N 2620.67 -0.791347 1.36292 0
M  V30 26670 C 2621.62 -1.9253 1.30518 0
M  V30 26671 C 2622.61 -1.68247 0.197315 0
M  V30 26672 O 2623.82 -1.76277 0.364207 0
M  V30 26673 H 2620.19 -0.632808 0.406274 0
M  V30 26674 H 2622.17 -1.94519 2.26285 0
M  V30 26675 C 2620.91 -3.29527 1.10939 0
M  V30 26676 H 2620.24 -3.48778 1.95433 0
M  V30 26677 H 2621.68 -4.09228 1.10945 0
M  V30 26678 C 2620.14 -3.36386 -0.186063 0
M  V30 26679 O 2620.67 -3.84083 -1.17657 0
M  V30 26680 N 2618.87 -2.89688 -0.230078 0
M  V30 26681 H 2618.42 -2.51064 0.57659 0
M  V30 26682 H 2618.38 -2.94659 -1.09653 0
M  V30 26683 N 2622.15 -1.2054 -1.01528 0
M  V30 26684 C 2623.57 -0.960533 -1.2746 0
M  V30 26685 C 2623.77 0.359158 -1.98273 0
M  V30 26686 O 2622.82 1.08736 -2.27887 0
M  V30 26687 C 2624.13 -2.14406 -2.10833 0
M  V30 26688 C 2625.68 -2.18519 -2.24095 0
M  V30 26689 C 2626.16 -3.36361 -3.10846 0
M  V30 26690 N 2627.65 -3.36383 -3.18435 0
M  V30 26691 C 2628.38 -4.24212 -3.85787 0
M  V30 26692 N 2627.88 -5.22221 -4.55255 0
M  V30 26693 N 2629.67 -4.12049 -3.82324 0
M  V30 26694 H 2621.82 -2.05424 -0.539871 0
M  V30 26695 H 2624.09 -0.898978 -0.300904 0
M  V30 26696 H 2623.79 -3.09985 -1.66138 0
M  V30 26697 H 2623.67 -2.12609 -3.11572 0
M  V30 26698 H 2626.05 -1.23501 -2.68014 0
M  V30 26699 H 2626.13 -2.24363 -1.22861 0
M  V30 26700 H 2625.78 -4.31665 -2.67633 0
M  V30 26701 H 2625.71 -3.27754 -4.12171 0
M  V30 26702 H 2628.2 -2.65447 -2.68973 0
M  V30 26703 H 2628.51 -5.8556 -5.04321 0
M  V30 26704 H 2626.86 -5.26156 -4.54076 0
M  V30 26705 H 2630.05 -3.34749 -3.27201 0
M  V30 26706 H 2630.22 -4.80708 -4.34539 0
M  V30 26707 N 2623.63 1.20858 -1.01149 0
M  V30 26708 C 2624.56 2.25721 -0.597702 0
M  V30 26709 C 2625.54 1.65692 0.384714 0
M  V30 26710 O 2626.72 1.92296 0.271269 0
M  V30 26711 C 2623.85 3.4723 0.0699539 0
M  V30 26712 C 2622.81 4.19817 -0.832917 0
M  V30 26713 C 2622.13 5.34691 -0.0313142 0
M  V30 26714 C 2623.43 4.7651 -2.13858 0
M  V30 26715 H 2625.13 2.60587 -1.47428 0
M  V30 26716 H 2622.67 1.25261 -0.710323 0
M  V30 26717 H 2624.63 4.19764 0.370956 0
M  V30 26718 H 2623.35 3.11512 0.981205 0
M  V30 26719 H 2622.01 3.49142 -1.11784 0
M  V30 26720 H 2621.66 4.95217 0.881428 0
M  V30 26721 H 2621.36 5.84186 -0.632536 0
M  V30 26722 H 2622.88 6.10032 0.263353 0
M  V30 26723 H 2624.3 5.4089 -1.90029 0
M  V30 26724 H 2622.69 5.36421 -2.69022 0
M  V30 26725 H 2623.76 3.95533 -2.80502 0
M  V30 26726 N 2625.11 0.787064 1.3654 0
M  V30 26727 C 2626.04 0.141813 2.28761 0
M  V30 26728 C 2627.05 -0.647573 1.49366 0
M  V30 26729 O 2628.24 -0.483143 1.71837 0
M  V30 26730 C 2625.34 -0.82231 3.28772 0
M  V30 26731 C 2624.51 -0.0834825 4.3732 0
M  V30 26732 C 2623.57 -0.963205 5.17309 0
M  V30 26733 O 2622.6 -0.421319 5.67639 0
M  V30 26734 N 2623.8 -2.28774 5.33519 0
M  V30 26735 H 2626.56 0.933969 2.84776 0
M  V30 26736 H 2624.13 0.640761 1.4868 0
M  V30 26737 H 2626.12 -1.41462 3.79171 0
M  V30 26738 H 2624.69 -1.51536 2.73415 0
M  V30 26739 H 2623.91 0.689877 3.88116 0
M  V30 26740 H 2625.2 0.426447 5.0701 0
M  V30 26741 H 2624.59 -2.75217 4.94239 0
M  V30 26742 H 2623.15 -2.82975 5.8717 0
M  V30 26743 N 2626.58 -1.48101 0.53888 0
M  V30 26744 C 2627.51 -2.32575 -0.207613 0
M  V30 26745 C 2628.49 -1.42651 -0.926534 0
M  V30 26746 O 2629.68 -1.71529 -0.91058 0
M  V30 26747 C 2626.81 -3.24044 -1.24951 0
M  V30 26748 C 2625.76 -4.23063 -0.648189 0
M  V30 26749 C 2625.09 -5.03728 -1.79339 0
M  V30 26750 C 2626.39 -5.20872 0.385988 0
M  V30 26751 H 2628.08 -2.95236 0.497586 0
M  V30 26752 H 2625.63 -1.41973 0.24074 0
M  V30 26753 H 2627.58 -3.81972 -1.77976 0
M  V30 26754 H 2626.31 -2.59401 -1.98441 0
M  V30 26755 H 2624.97 -3.66335 -0.139388 0
M  V30 26756 H 2624.61 -4.35502 -2.51688 0
M  V30 26757 H 2624.31 -5.70754 -1.39692 0
M  V30 26758 H 2625.84 -5.6451 -2.32725 0
M  V30 26759 H 2627.25 -5.73271 -0.0575062 0
M  V30 26760 H 2625.65 -5.95999 0.700332 0
M  V30 26761 H 2626.72 -4.67466 1.28856 0
M  V30 26762 N 2628.06 -0.274434 -1.55192 0
M  V30 26763 C 2629.29 0.348788 -2.04446 0
M  V30 26764 C 2629.71 1.48733 -1.15152 0
M  V30 26765 O 2629.07 1.80679 -0.149984 0
M  V30 26766 C 2629.12 0.807947 -3.51432 0
M  V30 26767 O 2628.22 1.91525 -3.65229 0
M  V30 26768 H 2627.56 0.072216 -0.660061 0
M  V30 26769 H 2630.09 -0.408533 -2.0048 0
M  V30 26770 H 2630.1 1.10388 -3.92783 0
M  V30 26771 H 2628.78 -0.0250596 -4.15892 0
M  V30 26772 H 2627.35 1.6219 -3.35781 0
M  V30 26773 N 2629.54 1.576 -0.00170483 0
M  V30 26774 C 2630.79 1.90642 0.682786 0
M  V30 26775 C 2631.11 0.875446 1.73684 0
M  V30 26776 O 2630.37 -0.119541 1.95335 0
M  V30 26777 C 2630.67 3.30438 1.36183 0
M  V30 26778 C 2630.33 4.4874 0.440808 0
M  V30 26779 C 2629 4.80836 0.187227 0
M  V30 26780 C 2631.35 5.20842 -0.193226 0
M  V30 26781 C 2628.68 5.82405 -0.708652 0
M  V30 26782 C 2631.03 6.23365 -1.07699 0
M  V30 26783 C 2629.69 6.53917 -1.33973 0
M  V30 26784 H 2628.96 0.697608 0.249849 0
M  V30 26785 H 2631.61 1.91413 -0.0575979 0
M  V30 26786 H 2629.91 3.25798 2.1763 0
M  V30 26787 H 2631.61 3.53263 1.89753 0
M  V30 26788 H 2628.2 4.23664 0.64862 0
M  V30 26789 H 2632.39 4.96299 -0.0103317 0
M  V30 26790 H 2627.64 6.04435 -0.920204 0
M  V30 26791 H 2631.82 6.78365 -1.57463 0
M  V30 26792 H 2629.44 7.32439 -2.03562 0
M  V30 26793 N 2631.02 -0.271076 1.55251 0
M  V30 26794 C 2632.27 -1.00021 1.75153 0
M  V30 26795 C 2632.58 -1.8738 0.561074 0
M  V30 26796 O 2633.79 -2.63787 0.642552 0
M  V30 26797 C 2632.24 -1.82829 3.10002 0
M  V30 26798 C 2631.85 -1.00328 4.36621 0
M  V30 26799 C 2633.59 -2.55162 3.39253 0
M  V30 26800 C 2631.5 -1.82585 5.62509 0
M  V30 26801 H 2630.43 -0.377172 0.652884 0
M  V30 26802 H 2633.08 -0.255811 1.81708 0
M  V30 26803 H 2631.46 -2.61373 2.9749 0
M  V30 26804 H 2632.64 -0.261879 4.60055 0
M  V30 26805 H 2630.95 -0.394413 4.14528 0
M  V30 26806 H 2633.55 -3.17113 4.30516 0
M  V30 26807 H 2633.89 -3.25545 2.59473 0
M  V30 26808 H 2634.43 -1.83647 3.52872 0
M  V30 26809 H 2631.16 -1.1662 6.45043 0
M  V30 26810 H 2630.68 -2.54318 5.43215 0
M  V30 26811 H 2632.36 -2.39903 6.00879 0
M  V30 26812 N 2632.5 -1.48217 -0.535675 0
M  V30 26813 C 2633.72 -1.5985 -1.32147 0
M  V30 26814 C 2634.15 -0.256874 -1.86338 0
M  V30 26815 O 2633.5 0.770603 -1.64108 0
M  V30 26816 C 2633.55 -2.64386 -2.45219 0
M  V30 26817 O 2632.66 -2.2115 -3.48089 0
M  V30 26818 H 2632 -0.536215 -0.391624 0
M  V30 26819 H 2634.53 -1.94162 -0.645168 0
M  V30 26820 H 2634.54 -2.85481 -2.91486 0
M  V30 26821 H 2633.21 -3.6179 -2.05137 0
M  V30 26822 H 2631.79 -2.10244 -3.0798 0
M  V30 26823 N 2633.97 0.784108 -1.3671 0
M  V30 26824 C 2635.22 1.5422 -1.31234 0
M  V30 26825 C 2635.55 1.94206 0.10683 0
M  V30 26826 O 2634.8 1.63378 1.07731 0
M  V30 26827 C 2635.1 2.82771 -2.18576 0
M  V30 26828 C 2634.77 2.61897 -3.67043 0
M  V30 26829 C 2633.43 2.55912 -4.07508 0
M  V30 26830 C 2635.78 2.42872 -4.61153 0
M  V30 26831 C 2633.11 2.28877 -5.40215 0
M  V30 26832 C 2635.46 2.17362 -5.94084 0
M  V30 26833 C 2634.13 2.09814 -6.33667 0
M  V30 26834 H 2633.4 0.564332 -0.48022 0
M  V30 26835 H 2636.04 0.904203 -1.68809 0
M  V30 26836 H 2634.35 3.51065 -1.73955 0
M  V30 26837 H 2636.05 3.40589 -2.11661 0
M  V30 26838 H 2632.64 2.67412 -3.34946 0
M  V30 26839 H 2636.82 2.46494 -4.3076 0
M  V30 26840 H 2632.08 2.21519 -5.69859 0
M  V30 26841 H 2636.25 2.01638 -6.6657 0
M  V30 26842 H 2633.88 1.88628 -7.36426 0
M  V30 26843 N 2635.45 1.21076 1.00888 0
M  V30 26844 C 2636.38 0.924328 2.09735 0
M  V30 26845 C 2637.4 -0.0909523 1.62546 0
M  V30 26846 O 2638.59 0.141052 1.77942 0
M  V30 26847 C 2635.69 0.365649 3.36922 0
M  V30 26848 C 2634.86 1.43433 4.13214 0
M  V30 26849 C 2633.92 0.885587 5.18694 0
M  V30 26850 O 2632.94 1.56811 5.47174 0
M  V30 26851 N 2634.15 -0.301125 5.79718 0
M  V30 26852 H 2636.91 1.86134 2.34892 0
M  V30 26853 H 2634.47 1.11549 1.17339 0
M  V30 26854 H 2636.46 -0.0157696 4.04697 0
M  V30 26855 H 2635.03 -0.476095 3.08953 0
M  V30 26856 H 2634.25 1.98976 3.40297 0
M  V30 26857 H 2635.54 2.15384 4.60963 0
M  V30 26858 H 2634.94 -0.87275 5.58927 0
M  V30 26859 H 2633.5 -0.624097 6.48805 0
M  V30 26860 N 2636.93 -1.2032 1.01789 0
M  V30 26861 C 2637.86 -2.254 0.609664 0
M  V30 26862 C 2638.84 -1.65894 -0.375922 0
M  V30 26863 O 2640.03 -1.92437 -0.261067 0
M  V30 26864 C 2637.16 -3.47262 -0.0515384 0
M  V30 26865 C 2636.11 -4.1937 0.855169 0
M  V30 26866 C 2635.44 -5.34667 0.0596697 0
M  V30 26867 C 2636.74 -4.75369 2.16382 0
M  V30 26868 H 2638.43 -2.59801 1.48807 0
M  V30 26869 H 2635.98 -1.24883 0.716956 0
M  V30 26870 H 2637.93 -4.19955 -0.34869 0
M  V30 26871 H 2636.65 -3.12028 -0.964671 0
M  V30 26872 H 2635.31 -3.48544 1.13634 0
M  V30 26873 H 2634.96 -4.95677 -0.855153 0
M  V30 26874 H 2634.66 -5.83842 0.663508 0
M  V30 26875 H 2636.18 -6.10163 -0.230998 0
M  V30 26876 H 2637.6 -5.39874 1.92895 0
M  V30 26877 H 2636 -5.34987 2.71863 0
M  V30 26878 H 2637.07 -3.9404 2.82596 0
M  V30 26879 N 2638.41 -0.794293 -1.3612 0
M  V30 26880 C 2639.32 -0.197337 -2.33769 0
M  V30 26881 C 2640.33 0.653124 -1.61277 0
M  V30 26882 O 2641.51 0.567766 -1.93231 0
M  V30 26883 C 2638.58 0.654038 -3.40475 0
M  V30 26884 C 2637.64 -0.215487 -4.28759 0
M  V30 26885 C 2636.87 0.595349 -5.30369 0
M  V30 26886 O 2637.09 1.83098 -5.40214 0
M  V30 26887 O 2636.03 -0.00731931 -6.019 0
M  V30 26888 H 2639.85 -1.00483 -2.86595 0
M  V30 26889 H 2637.44 -0.555842 -1.38675 0
M  V30 26890 H 2639.32 1.13937 -4.05705 0
M  V30 26891 H 2637.99 1.43933 -2.89939 0
M  V30 26892 H 2636.9 -0.74768 -3.66552 0
M  V30 26893 H 2638.23 -0.964417 -4.82659 0
M  V30 26894 N 2639.89 1.47813 -0.546727 0
M  V30 26895 C 2641.16 1.95545 0.0464069 0
M  V30 26896 C 2641.54 1.48922 1.49618 0
M  V30 26897 O 2640.89 0.72327 2.16751 0
M  V30 26898 C 2641.1 3.48889 -0.0881912 0
M  V30 26899 C 2642.45 4.24554 0.0625313 0
M  V30 26900 O 2643.47 3.56197 -0.0152181 0
M  V30 26901 O 2642.33 5.46024 0.227975 0
M  V30 26902 H 2639.43 0.824033 0.069986 0
M  V30 26903 H 2641.97 1.58261 -0.61251 0
M  V30 26904 H 2640.74 3.75596 -1.09744 0
M  V30 26905 H 2640.37 3.92911 0.608817 0
M  V30 26906 N 2641.36 0.28266 1.55044 0
M  V30 26907 C 2642.59 -0.337941 2.04628 0
M  V30 26908 C 2643.01 -1.48121 1.15939 0
M  V30 26909 O 2642.37 -1.80596 0.159564 0
M  V30 26910 C 2642.42 -0.789298 3.51856 0
M  V30 26911 O 2641.52 -1.89585 3.66239 0
M  V30 26912 H 2640.87 -0.0687145 0.660435 0
M  V30 26913 H 2643.4 0.41916 2.0026 0
M  V30 26914 H 2643.41 -1.08304 3.93363 0
M  V30 26915 H 2642.08 0.047115 4.15873 0
M  V30 26916 H 2640.66 -1.60407 3.36636 0
M  V30 26917 N 2642.84 -1.57597 0.0100627 0
M  V30 26918 C 2643.77 -2.0592 -1.00645 0
M  V30 26919 C 2644.79 -0.978987 -1.30076 0
M  V30 26920 O 2645.98 -1.25558 -1.26875 0
M  V30 26921 C 2643.08 -2.4527 -2.33872 0
M  V30 26922 C 2642.25 -3.76144 -2.23236 0
M  V30 26923 C 2641.31 -4.02251 -3.39235 0
M  V30 26924 O 2640.33 -4.72777 -3.16972 0
M  V30 26925 N 2641.54 -3.50932 -4.62414 0
M  V30 26926 H 2644.3 -2.93749 -0.594281 0
M  V30 26927 H 2641.86 -1.60928 -0.177111 0
M  V30 26928 H 2643.85 -2.59841 -3.10265 0
M  V30 26929 H 2642.42 -1.62907 -2.66796 0
M  V30 26930 H 2641.64 -3.71553 -1.31689 0
M  V30 26931 H 2642.93 -4.61926 -2.13313 0
M  V30 26932 H 2642.33 -2.9384 -4.83399 0
M  V30 26933 H 2640.89 -3.70816 -5.3604 0
M  V30 26934 N 2644.32 0.262839 -1.55393 0
M  V30 26935 C 2645.6 1.01496 -1.67206 0
M  V30 26936 C 2645.98 2.03938 -0.545222 0
M  V30 26937 O 2645.33 2.23956 0.453427 0
M  V30 26938 C 2645.54 1.66265 -3.0685 0
M  V30 26939 C 2646.88 2.17048 -3.64932 0
M  V30 26940 O 2647.91 1.76234 -3.09548 0
M  V30 26941 O 2646.77 2.91939 -4.61989 0
M  V30 26942 H 2643.86 0.471426 -0.679475 0
M  V30 26943 H 2646.41 0.257889 -1.67729 0
M  V30 26944 H 2645.18 0.920848 -3.8031 0
M  V30 26945 H 2644.8 2.48633 -3.1027 0
M  V30 26946 N 2645.8 1.48499 0.527807 0
M  V30 26947 C 2647.04 1.58226 1.29398 0
M  V30 26948 C 2647.4 0.251361 1.90348 0
M  V30 26949 O 2648.6 0.223635 2.67868 0
M  V30 26950 C 2646.87 2.69048 2.35261 0
M  V30 26951 S 2648.43 2.98555 3.21575 0
M  V30 26952 H 2645.25 0.558398 0.440128 0
M  V30 26953 H 2647.85 1.86031 0.601047 0
M  V30 26954 H 2646.56 3.64306 1.88969 0
M  V30 26955 H 2646.09 2.43151 3.09259 0
M  V30 26956 H 2648.1 2.38019 4.35387 0
M  V30 26957 N 2647.28 -0.776847 1.37123 0
M  V30 26958 C 2648.5 -1.57102 1.35403 0
M  V30 26959 C 2648.93 -1.88006 -0.0595231 0
M  V30 26960 O 2648.29 -1.48846 -1.03511 0
M  V30 26961 C 2648.33 -2.86116 2.19477 0
M  V30 26962 O 2647.44 -3.8027 1.59589 0
M  V30 26963 H 2646.78 -0.476068 0.462877 0
M  V30 26964 H 2649.31 -0.9619 1.80579 0
M  V30 26965 H 2649.32 -3.35267 2.32508 0
M  V30 26966 H 2647.99 -2.6295 3.22227 0
M  V30 26967 H 2646.57 -3.38899 1.5557 0
M  V30 26968 N 2648.76 -1.2161 -1.00244 0
M  V30 26969 C 2650.17 -0.973998 -1.26434 0
M  V30 26970 C 2650.37 0.338109 -1.98643 0
M  V30 26971 O 2649.43 1.06313 -2.29028 0
M  V30 26972 C 2650.74 -2.1663 -2.08547 0
M  V30 26973 C 2652.29 -2.20883 -2.21765 0
M  V30 26974 C 2652.76 -3.39639 -3.07261 0
M  V30 26975 N 2654.25 -3.39741 -3.14849 0
M  V30 26976 C 2654.99 -4.2828 -3.81266 0
M  V30 26977 N 2654.49 -5.2702 -4.49691 0
M  V30 26978 N 2656.28 -4.16081 -3.77932 0
M  V30 26979 H 2648.43 -2.05985 -0.518053 0
M  V30 26980 H 2650.69 -0.902119 -0.291352 0
M  V30 26981 H 2650.4 -3.1173 -1.62841 0
M  V30 26982 H 2650.27 -2.15902 -3.09299 0
M  V30 26983 H 2652.66 -1.26337 -2.66689 0
M  V30 26984 H 2652.74 -2.25654 -1.20474 0
M  V30 26985 H 2652.38 -4.3448 -2.63039 0
M  V30 26986 H 2652.31 -3.32107 -4.08672 0
M  V30 26987 H 2654.81 -2.68285 -2.66142 0
M  V30 26988 H 2655.12 -5.90876 -4.98082 0
M  V30 26989 H 2653.46 -5.30943 -4.4847 0
M  V30 26990 H 2656.65 -3.38201 -3.23632 0
M  V30 26991 H 2656.83 -4.8529 -4.29416 0
M  V30 26992 N 2650.23 1.19778 -1.02425 0
M  V30 26993 C 2651.51 1.8508 -0.632834 0
M  V30 26994 C 2651.89 1.91481 0.888711 0
M  V30 26995 O 2651.24 1.42835 1.78355 0
M  V30 26996 C 2651.45 3.24303 -1.28953 0
M  V30 26997 C 2652.8 4.00511 -1.40983 0
M  V30 26998 O 2653.82 3.33684 -1.24634 0
M  V30 26999 O 2652.68 5.20206 -1.67476 0
M  V30 27000 H 2649.77 0.797377 -0.219362 0
M  V30 27001 H 2652.32 1.27305 -1.12211 0
M  V30 27002 H 2651.09 3.14452 -2.32886 0
M  V30 27003 H 2650.71 3.89717 -0.787816 0
M  V30 27004 N 2651.71 0.801501 1.35697 0
M  V30 27005 C 2652.96 0.379494 1.98912 0
M  V30 27006 C 2653.29 -1.05201 1.63594 0
M  V30 27007 O 2652.54 -1.74363 0.888593 0
M  V30 27008 C 2652.84 0.504103 3.53827 0
M  V30 27009 C 2652.51 1.89817 4.08999 0
M  V30 27010 C 2651.17 2.27958 4.23779 0
M  V30 27011 C 2653.52 2.81045 4.38934 0
M  V30 27012 C 2650.85 3.56704 4.6581 0
M  V30 27013 C 2653.2 4.09232 4.82402 0
M  V30 27014 C 2651.86 4.47379 4.95387 0
M  V30 27015 H 2651.13 0.138867 0.727872 0
M  V30 27016 H 2653.78 1.02131 1.61993 0
M  V30 27017 H 2652.09 -0.221174 3.91175 0
M  V30 27018 H 2653.78 0.158431 4.00687 0
M  V30 27019 H 2650.37 1.59183 3.97943 0
M  V30 27020 H 2654.56 2.52829 4.27073 0
M  V30 27021 H 2649.81 3.86115 4.74052 0
M  V30 27022 H 2653.99 4.80027 5.04527 0
M  V30 27023 H 2651.61 5.47195 5.27714 0
M  V30 27024 N 2653.19 -1.47521 0.554558 0
M  V30 27025 C 2654.44 -2.02778 0.0295583 0
M  V30 27026 C 2654.77 -1.4283 -1.3158 0
M  V30 27027 O 2654.04 -0.582905 -1.8556 0
M  V30 27028 C 2654.33 -3.60039 -0.0663424 0
M  V30 27029 C 2654.18 -4.30425 1.30592 0
M  V30 27030 C 2655.5 -4.33113 -0.781086 0
M  V30 27031 H 2652.62 -0.736899 0.0122157 0
M  V30 27032 H 2655.26 -1.75979 0.716336 0
M  V30 27033 H 2653.41 -3.83003 -0.65124 0
M  V30 27034 H 2655.08 -4.18809 1.93382 0
M  V30 27035 H 2653.32 -3.90882 1.88131 0
M  V30 27036 H 2654 -5.38986 1.19156 0
M  V30 27037 H 2656.47 -4.15126 -0.284492 0
M  V30 27038 H 2655.35 -5.42784 -0.817142 0
M  V30 27039 H 2655.61 -4.02144 -1.83665 0
M  V30 27040 N 2654.67 -0.290879 -1.54892 0
M  V30 27041 C 2655.58 0.59941 -2.26813 0
M  V30 27042 C 2656.59 1.15694 -1.29965 0
M  V30 27043 O 2657.77 1.18388 -1.6293 0
M  V30 27044 C 2654.83 1.75976 -2.98719 0
M  V30 27045 C 2653.9 1.23733 -4.11082 0
M  V30 27046 C 2653.13 2.34238 -4.7955 0
M  V30 27047 O 2653.35 3.53928 -4.47316 0
M  V30 27048 O 2652.29 2.01502 -5.67169 0
M  V30 27049 H 2656.11 0.0163027 -3.03696 0
M  V30 27050 H 2653.7 -0.0577018 -1.49289 0
M  V30 27051 H 2655.58 2.43601 -3.43855 0
M  V30 27052 H 2654.25 2.32966 -2.24741 0
M  V30 27053 H 2653.16 0.527098 -3.70368 0
M  V30 27054 H 2654.49 0.712984 -4.87009 0
M  V30 27055 N 2656.15 1.57589 -0.0184203 0
M  V30 27056 C 2657.39 1.90533 0.661816 0
M  V30 27057 C 2657.71 0.895397 1.73902 0
M  V30 27058 O 2658.91 1.1157 2.47516 0
M  V30 27059 C 2657.37 3.38288 1.22838 0
M  V30 27060 C 2656.98 4.47618 0.185024 0
M  V30 27061 C 2658.72 3.80316 1.88575 0
M  V30 27062 C 2656.63 5.86462 0.76262 0
M  V30 27063 H 2655.56 0.71101 0.25096 0
M  V30 27064 H 2658.21 1.83317 -0.0819757 0
M  V30 27065 H 2656.59 3.40401 2.02344 0
M  V30 27066 H 2657.77 4.57049 -0.58679 0
M  V30 27067 H 2656.08 4.14726 -0.372962 0
M  V30 27068 H 2658.68 4.81397 2.32726 0
M  V30 27069 H 2659.02 3.14806 2.72402 0
M  V30 27070 H 2659.55 3.8058 1.15775 0
M  V30 27071 H 2656.29 6.55489 -0.0372865 0
M  V30 27072 H 2655.81 5.80659 1.50317 0
M  V30 27073 H 2657.49 6.34699 1.25565 0
M  V30 27074 N 2657.62 -0.254594 1.5553 0
M  V30 27075 C 2659.04 -0.602727 1.47781 0
M  V30 27076 C 2659.24 -1.88687 0.70708 0
M  V30 27077 O 2658.3 -2.5142 0.233332 0
M  V30 27078 C 2659.61 -0.712597 2.92134 0
M  V30 27079 C 2661.16 -0.805435 3.0246 0
M  V30 27080 C 2661.63 -0.94693 4.48104 0
M  V30 27081 N 2663.12 -1.01199 4.5201 0
M  V30 27082 C 2663.86 -1.14061 5.61941 0
M  V30 27083 N 2663.35 -1.23524 6.81699 0
M  V30 27084 N 2665.15 -1.17316 5.49721 0
M  V30 27085 H 2657.3 0.588499 2.04084 0
M  V30 27086 H 2659.56 0.202017 0.926225 0
M  V30 27087 H 2659.27 0.160828 3.51332 0
M  V30 27088 H 2659.14 -1.58701 3.4219 0
M  V30 27089 H 2661.53 -1.66932 2.43347 0
M  V30 27090 H 2661.61 0.0939716 2.55627 0
M  V30 27091 H 2661.25 -0.0876358 5.07824 0
M  V30 27092 H 2661.18 -1.86126 4.9261 0
M  V30 27093 H 2663.67 -0.950512 3.65751 0
M  V30 27094 H 2663.99 -1.33223 7.6123 0
M  V30 27095 H 2662.33 -1.20496 6.84475 0
M  V30 27096 H 2665.52 -1.09565 4.55097 0
M  V30 27097 H 2665.7 -1.26994 6.35434 0
M  V30 27098 N 2659.1 -1.48777 -0.519925 0
M  V30 27099 C 2660.01 -1.66747 -1.65023 0
M  V30 27100 C 2661.03 -0.549983 -1.65079 0
M  V30 27101 O 2662.2 -0.822328 -1.83847 0
M  V30 27102 C 2659.27 -1.71244 -3.01457 0
M  V30 27103 C 2658.33 -2.94693 -3.12177 0
M  V30 27104 C 2657.56 -2.98965 -4.42103 0
M  V30 27105 O 2657.79 -2.1136 -5.29795 0
M  V30 27106 O 2656.72 -3.91241 -4.57399 0
M  V30 27107 H 2660.55 -2.62464 -1.52796 0
M  V30 27108 H 2658.13 -1.32296 -0.694134 0
M  V30 27109 H 2660.01 -1.76664 -3.82581 0
M  V30 27110 H 2658.69 -0.78703 -3.13987 0
M  V30 27111 H 2657.59 -2.94801 -2.30311 0
M  V30 27112 H 2658.93 -3.86652 -3.04568 0
M  V30 27113 N 2660.58 0.769564 -1.37534 0
M  V30 27114 C 2661.83 1.52518 -1.326 0
M  V30 27115 C 2662.15 1.948 0.0883952 0
M  V30 27116 O 2661.42 1.6646 1.03286 0
M  V30 27117 H 2660 0.56569 -0.487856 0
M  V30 27118 H 2662.66 0.915775 -1.72045 0
M  V30 27119 H 2661.76 2.42356 -1.96647 0
M  V30 27120 N 2662.06 1.22139 0.995977 0
M  V30 27121 C 2663.01 0.985913 2.10672 0
M  V30 27122 C 2664 -0.0699255 1.69256 0
M  V30 27123 O 2665.21 0.0822492 1.79812 0
M  V30 27124 H 2661.58 0.301622 0.68886 0
M  V30 27125 H 2663.55 1.92852 2.27707 0
M  V30 27126 C 2662.3 0.576969 3.4288 0
M  V30 27127 H 2661.62 1.38108 3.75188 0
M  V30 27128 H 2663.06 0.451592 4.21588 0
M  V30 27129 C 2661.52 -0.713138 3.29266 0
M  V30 27130 O 2662.05 -1.76637 3.6078 0
M  V30 27131 N 2660.26 -0.683112 2.82457 0
M  V30 27132 H 2659.81 0.174287 2.5701 0
M  V30 27133 H 2659.76 -1.54659 2.7373 0
M  V30 27134 N 2663.54 -1.19233 1.03059 0
M  V30 27135 C 2664.5 -2.20726 0.617457 0
M  V30 27136 C 2665.5 -1.57587 -0.319829 0
M  V30 27137 O 2666.69 -1.73874 -0.106603 0
M  V30 27138 C 2663.82 -3.40764 -0.0962361 0
M  V30 27139 H 2665.01 -2.58791 1.51549 0
M  V30 27140 H 2662.57 -1.32941 0.821973 0
M  V30 27141 H 2663.3 -3.08219 -1.00854 0
M  V30 27142 H 2663.09 -3.87827 0.577285 0
M  V30 27143 H 2664.58 -4.15938 -0.372146 0
M  V30 27144 N 2665.01 -0.808686 -1.3527 0
M  V30 27145 C 2666.24 -0.402572 -2.02946 0
M  V30 27146 C 2666.66 0.987119 -1.60939 0
M  V30 27147 O 2666.01 1.63641 -0.807946 0
M  V30 27148 C 2666.07 -0.478743 -3.58316 0
M  V30 27149 O 2665.79 -1.81365 -3.98796 0
M  V30 27150 C 2667.29 -0.065706 -4.43251 0
M  V30 27151 H 2664.51 -0.163291 -0.650828 0
M  V30 27152 H 2667.05 -1.09289 -1.72847 0
M  V30 27153 H 2665.21 0.163347 -3.87055 0
M  V30 27154 H 2665.62 -1.7779 -4.93448 0
M  V30 27155 H 2667.09 -0.170114 -5.51738 0
M  V30 27156 H 2667.57 0.989203 -4.27915 0
M  V30 27157 H 2668.18 -0.681034 -4.19812 0
M  V30 27158 N 2666.49 1.47225 -0.562374 0
M  V30 27159 C 2667.74 2.0206 -0.0401726 0
M  V30 27160 C 2668.06 1.43854 1.31648 0
M  V30 27161 O 2667.33 0.615632 1.85975 0
M  V30 27162 H 2665.91 0.746906 -0.011861 0
M  V30 27163 H 2668.57 1.80569 -0.733552 0
M  V30 27164 H 2667.67 3.12069 0.0440705 0
M  V30 27165 N 2667.97 0.299089 1.54736 0
M  V30 27166 C 2668.92 -0.592894 2.20156 0
M  V30 27167 C 2669.9 -1.10036 1.17392 0
M  V30 27168 O 2671.1 -1.04145 1.43118 0
M  V30 27169 C 2668.23 -1.76522 2.9444 0
M  V30 27170 C 2667.31 -1.27381 4.04518 0
M  V30 27171 N 2667.7 -0.50025 5.0332 0
M  V30 27172 C 2666 -1.5547 4.18025 0
M  V30 27173 C 2666.7 -0.238807 5.8121 0
M  V30 27174 N 2665.68 -0.818068 5.37409 0
M  V30 27175 H 2669.48 0.00568762 2.93899 0
M  V30 27176 H 2666.99 0.10376 1.62068 0
M  V30 27177 H 2668.99 -2.41576 3.39774 0
M  V30 27178 H 2667.65 -2.36752 2.22213 0
M  V30 27179 H 2668.66 -0.145328 5.17696 0
M  V30 27180 H 2665.34 -2.16463 3.57002 0
M  V30 27181 H 2666.73 0.382341 6.70811 0
M  V30 27182 N 2669.45 -1.57577 0.0267774 0
M  V30 27183 C 2670.38 -2.1311 -0.95427 0
M  V30 27184 C 2671.36 -1.04665 -1.34086 0
M  V30 27185 O 2672.54 -1.32486 -1.4199 0
M  V30 27186 C 2669.67 -2.65628 -2.23739 0
M  V30 27187 C 2668.63 -3.78839 -1.99162 0
M  V30 27188 C 2667.95 -4.17775 -3.33719 0
M  V30 27189 C 2669.25 -5.05012 -1.33268 0
M  V30 27190 H 2670.95 -2.95333 -0.491796 0
M  V30 27191 H 2668.49 -1.42068 -0.235115 0
M  V30 27192 H 2670.45 -3.03111 -2.92748 0
M  V30 27193 H 2669.17 -1.80563 -2.72148 0
M  V30 27194 H 2667.83 -3.4179 -1.32571 0
M  V30 27195 H 2667.48 -3.29695 -3.79882 0
M  V30 27196 H 2667.18 -4.94063 -3.18081 0
M  V30 27197 H 2668.7 -4.57839 -4.03999 0
M  V30 27198 H 2670.12 -5.40096 -1.92273 0
M  V30 27199 H 2668.51 -5.86282 -1.28035 0
M  V30 27200 H 2669.58 -4.83938 -0.305326 0
M  V30 27201 N 2670.93 0.246342 -1.55663 0
M  V30 27202 C 2672.17 0.975747 -1.77784 0
M  V30 27203 C 2672.51 1.84952 -0.592136 0
M  V30 27204 O 2671.78 1.90139 0.409554 0
M  V30 27205 C 2672.06 1.83579 -3.09792 0
M  V30 27206 C 2671.92 0.990164 -4.38766 0
M  V30 27207 C 2673.24 2.81817 -3.38034 0
M  V30 27208 H 2670.35 0.353306 -0.646795 0
M  V30 27209 H 2673 0.246215 -1.88398 0
M  V30 27210 H 2671.15 2.45779 -3.00874 0
M  V30 27211 H 2672.82 0.386816 -4.59675 0
M  V30 27212 H 2671.06 0.29455 -4.32799 0
M  V30 27213 H 2671.73 1.62574 -5.27516 0
M  V30 27214 H 2674.21 2.29754 -3.46919 0
M  V30 27215 H 2673.08 3.39115 -4.31616 0
M  V30 27216 H 2673.35 3.58308 -2.58974 0
M  V30 27217 N 2672.4 1.4905 0.512027 0
M  V30 27218 C 2673.65 1.57668 1.26433 0
M  V30 27219 C 2673.97 0.260326 1.93254 0
M  V30 27220 O 2673.24 -0.719532 1.82207 0
M  V30 27221 H 2671.82 0.580896 0.469648 0
M  V30 27222 H 2674.49 1.85616 0.594366 0
M  V30 27223 H 2673.58 2.36706 2.03413 0
M  V30 27224 N 2673.88 -0.762259 1.3794 0
M  V30 27225 C 2675.3 -1.06413 1.18947 0
M  V30 27226 C 2675.5 -2.01474 0.0321517 0
M  V30 27227 O 2674.55 -2.44648 -0.624801 0
M  V30 27228 C 2675.87 -1.65253 2.51221 0
M  V30 27229 C 2677.42 -1.77466 2.57827 0
M  V30 27230 C 2677.89 -2.39718 3.90255 0
M  V30 27231 N 2679.38 -2.47159 3.91748 0
M  V30 27232 C 2680.12 -2.96201 4.90971 0
M  V30 27233 N 2679.61 -3.45344 6.00591 0
M  V30 27234 N 2681.41 -2.95162 4.78368 0
M  V30 27235 H 2673.56 -0.131263 2.11994 0
M  V30 27236 H 2675.82 -0.120862 0.940264 0
M  V30 27237 H 2675.53 -1.02872 3.36319 0
M  V30 27238 H 2675.4 -2.64428 2.68994 0
M  V30 27239 H 2677.79 -2.38977 1.7313 0
M  V30 27240 H 2677.87 -0.770198 2.43929 0
M  V30 27241 H 2677.51 -1.78844 4.75371 0
M  V30 27242 H 2677.44 -3.40789 4.0146 0
M  V30 27243 H 2679.93 -2.12392 3.12567 0
M  V30 27244 H 2680.25 -3.81195 6.72242 0
M  V30 27245 H 2678.59 -3.43424 6.04223 0
M  V30 27246 H 2681.78 -2.56075 3.91846 0
M  V30 27247 H 2681.95 -3.33071 5.55849 0
M  V30 27248 N 2675.36 -1.22666 -0.989486 0
M  V30 27249 C 2676.59 -1.07813 -1.76238 0
M  V30 27250 C 2677 0.374003 -1.85467 0
M  V30 27251 O 2676.34 1.27085 -1.32647 0
M  V30 27252 C 2676.4 -1.61855 -3.21004 0
M  V30 27253 C 2676.07 -3.10509 -3.35311 0
M  V30 27254 C 2677.06 -4.07901 -3.22354 0
M  V30 27255 C 2674.75 -3.50034 -3.60252 0
M  V30 27256 C 2676.74 -5.42804 -3.34129 0
M  V30 27257 C 2674.43 -4.85084 -3.71667 0
M  V30 27258 C 2675.43 -5.81278 -3.58615 0
M  V30 27259 O 2675.12 -7.13876 -3.69643 0
M  V30 27260 H 2674.85 -0.378351 -0.560202 0
M  V30 27261 H 2677.4 -1.62794 -1.25249 0
M  V30 27262 H 2675.63 -1.01285 -3.732 0
M  V30 27263 H 2677.32 -1.42613 -3.80021 0
M  V30 27264 H 2678.09 -3.78709 -3.02993 0
M  V30 27265 H 2673.97 -2.75682 -3.69487 0
M  V30 27266 H 2677.51 -6.17869 -3.23858 0
M  V30 27267 H 2673.41 -5.13957 -3.90536 0
M  V30 27268 H 2674.18 -7.21501 -3.86494 0
M  V30 27269 N 2676.84 1.18685 -1.0369 0
M  V30 27270 C 2678.08 1.90265 -0.746891 0
M  V30 27271 C 2678.44 1.78309 0.712043 0
M  V30 27272 O 2679.64 2.44561 1.11549 0
M  V30 27273 C 2677.92 3.36813 -1.19549 0
M  V30 27274 S 2679.47 4.26527 -1.03054 0
M  V30 27275 H 2676.29 0.65705 -0.271674 0
M  V30 27276 H 2678.89 1.43435 -1.32841 0
M  V30 27277 H 2677.6 3.43044 -2.25276 0
M  V30 27278 H 2677.13 3.8868 -0.607601 0
M  V30 27279 H 2679.14 4.9617 0.054236 0
M  V30 27280 N 2678.32 0.815849 1.34839 0
M  V30 27281 C 2679.57 0.399779 1.98106 0
M  V30 27282 C 2679.89 -1.03891 1.6502 0
M  V30 27283 O 2679.16 -1.7202 0.937341 0
M  V30 27284 H 2677.74 0.144836 0.732824 0
M  V30 27285 H 2680.4 1.04373 1.64597 0
M  V30 27286 H 2679.49 0.513019 3.07855 0
M  V30 27287 N 2679.8 -1.46924 0.570174 0
M  V30 27288 C 2680.74 -2.31878 -0.183141 0
M  V30 27289 C 2681.74 -1.43721 -0.896695 0
M  V30 27290 O 2682.94 -1.60416 -0.816508 0
M  V30 27291 H 2679.32 -0.747951 -0.0779308 0
M  V30 27292 H 2681.29 -2.93243 0.552363 0
M  V30 27293 C 2680.04 -3.26642 -1.19166 0
M  V30 27294 H 2679.36 -3.94447 -0.652018 0
M  V30 27295 H 2680.8 -3.8889 -1.6894 0
M  V30 27296 C 2679.26 -2.5109 -2.24623 0
M  V30 27297 O 2679.79 -2.26478 -3.31769 0
M  V30 27298 N 2678 -2.11871 -1.98895 0
M  V30 27299 H 2677.54 -2.32087 -1.11773 0
M  V30 27300 H 2677.5 -1.61639 -2.69667 0
M  V30 27301 N 2681.27 -0.307291 -1.54575 0
M  V30 27302 C 2682.5 0.305343 -2.0514 0
M  V30 27303 C 2682.92 1.46257 -1.18281 0
M  V30 27304 O 2682.28 1.8032 -0.188275 0
M  V30 27305 C 2682.33 0.733221 -3.53067 0
M  V30 27306 O 2681.43 1.83735 -3.69209 0
M  V30 27307 H 2680.77 0.0581989 -0.661445 0
M  V30 27308 H 2683.3 -0.450966 -1.99568 0
M  V30 27309 H 2683.31 1.02032 -3.95036 0
M  V30 27310 H 2681.99 -0.113271 -4.15746 0
M  V30 27311 H 2680.57 1.55031 -3.39146 0
M  V30 27312 N 2682.75 1.57561 -0.0351337 0
M  V30 27313 C 2684 1.92047 0.642195 0
M  V30 27314 C 2684.33 0.91209 1.71788 0
M  V30 27315 O 2683.58 -0.0780809 1.95544 0
M  V30 27316 C 2683.88 3.33252 1.29143 0
M  V30 27317 C 2683.55 4.49574 0.345525 0
M  V30 27318 C 2682.21 4.81125 0.0851929 0
M  V30 27319 C 2684.56 5.20315 -0.303661 0
M  V30 27320 C 2681.89 5.8077 -0.832029 0
M  V30 27321 C 2684.24 6.2094 -1.20897 0
M  V30 27322 C 2682.9 6.50928 -1.47814 0
M  V30 27323 H 2682.17 0.70275 0.234996 0
M  V30 27324 H 2684.82 1.91248 -0.0981865 0
M  V30 27325 H 2683.13 3.30341 2.1067 0
M  V30 27326 H 2684.82 3.57209 1.82217 0
M  V30 27327 H 2681.41 4.24944 0.558609 0
M  V30 27328 H 2685.6 4.96165 -0.115602 0
M  V30 27329 H 2680.85 6.02348 -1.04821 0
M  V30 27330 H 2685.03 6.74872 -1.71816 0
M  V30 27331 H 2682.65 7.27956 -2.19052 0
M  V30 27332 N 2684.23 -0.238084 1.55791 0
M  V30 27333 C 2685.64 -0.806442 1.68385 0
M  V30 27334 C 2685.99 -1.85668 0.63419 0
M  V30 27335 O 2685.12 -2.153 -0.217875 0
M  V30 27336 C 2685.71 -1.46954 3.0527 0
M  V30 27337 C 2684.27 -1.98549 3.19774 0
M  V30 27338 C 2683.42 -0.839716 2.6428 0
M  V30 27339 H 2686.37 -0.0137256 1.58694 0
M  V30 27340 H 2686.39 -2.33786 3.00207 0
M  V30 27341 H 2685.9 -0.704925 3.81644 0
M  V30 27342 H 2684 -2.77864 2.48239 0
M  V30 27343 H 2684.12 -2.17682 4.26792 0
M  V30 27344 H 2682.48 -1.24261 2.22332 0
M  V30 27345 H 2683.26 -0.0880429 3.43187 0
M  V30 27346 N 2685.71 -1.4932 -0.504115 0
M  V30 27347 C 2686.64 -1.6867 -1.6147 0
M  V30 27348 C 2687.62 -0.535407 -1.61454 0
M  V30 27349 O 2688.8 -0.770899 -1.78244 0
M  V30 27350 C 2685.93 -1.75033 -2.99968 0
M  V30 27351 C 2684.89 -2.89921 -3.14849 0
M  V30 27352 C 2684.21 -2.81395 -4.54666 0
M  V30 27353 C 2685.51 -4.30898 -2.95168 0
M  V30 27354 H 2687.21 -2.61651 -1.45531 0
M  V30 27355 H 2684.75 -1.25914 -0.698689 0
M  V30 27356 H 2686.71 -1.87157 -3.77558 0
M  V30 27357 H 2685.43 -0.786496 -3.16989 0
M  V30 27358 H 2684.09 -2.77395 -2.39682 0
M  V30 27359 H 2683.74 -1.82926 -4.68559 0
M  V30 27360 H 2683.44 -3.58503 -4.65564 0
M  V30 27361 H 2684.96 -2.95522 -5.34321 0
M  V30 27362 H 2686.38 -4.44122 -3.62531 0
M  V30 27363 H 2684.77 -5.09204 -3.1754 0
M  V30 27364 H 2685.84 -4.45559 -1.91324 0
M  V30 27365 N 2687.19 0.754933 -1.38342 0
M  V30 27366 C 2688.13 1.89002 -1.35576 0
M  V30 27367 C 2689.13 1.67665 -0.241853 0
M  V30 27368 O 2690.33 1.75249 -0.410815 0
M  V30 27369 H 2686.71 0.621813 -0.422909 0
M  V30 27370 H 2688.68 1.88451 -2.31363 0
M  V30 27371 C 2687.43 3.26469 -1.19637 0
M  V30 27372 H 2686.75 3.43474 -2.04611 0
M  V30 27373 H 2688.19 4.06142 -1.21756 0
M  V30 27374 C 2686.65 3.36761 0.0968113 0
M  V30 27375 O 2687.18 3.87067 1.07432 0
M  V30 27376 N 2685.39 2.90196 0.153191 0
M  V30 27377 H 2684.93 2.49447 -0.642952 0
M  V30 27378 H 2684.89 2.97462 1.01802 0
M  V30 27379 N 2688.66 1.23189 0.982967 0
M  V30 27380 C 2689.89 1.08746 1.75664 0
M  V30 27381 C 2690.3 -0.364162 1.85662 0
M  V30 27382 O 2689.64 -1.26379 1.33319 0
M  V30 27383 C 2689.71 1.63555 3.20141 0
M  V30 27384 C 2689.37 3.12283 3.33659 0
M  V30 27385 C 2690.37 4.09605 3.20187 0
M  V30 27386 C 2688.05 3.51939 3.58391 0
M  V30 27387 C 2690.05 5.44569 3.31246 0
M  V30 27388 C 2687.73 4.87048 3.69089 0
M  V30 27389 C 2688.73 5.83172 3.55527 0
M  V30 27390 O 2688.42 7.15827 3.65852 0
M  V30 27391 H 2688.15 0.381317 0.558188 0
M  V30 27392 H 2690.71 1.63456 1.24384 0
M  V30 27393 H 2688.94 1.03263 3.72658 0
M  V30 27394 H 2690.62 1.44627 3.7926 0
M  V30 27395 H 2691.39 3.8031 3.0098 0
M  V30 27396 H 2687.27 2.77637 3.6802 0
M  V30 27397 H 2690.81 6.19578 3.20577 0
M  V30 27398 H 2686.71 5.16021 3.87805 0
M  V30 27399 H 2687.48 7.23541 3.82663 0
M  V30 27400 N 2690.14 -1.18133 1.04318 0
M  V30 27401 C 2691.37 -1.92653 0.768081 0
M  V30 27402 C 2691.79 -1.75801 -0.669009 0
M  V30 27403 O 2691.15 -1.06983 -1.4637 0
M  V30 27404 C 2691.2 -3.42024 1.14245 0
M  V30 27405 O 2690.3 -4.11519 0.269405 0
M  V30 27406 H 2689.64 -0.600932 0.282447 0
M  V30 27407 H 2692.17 -1.49791 1.39369 0
M  V30 27408 H 2692.18 -3.92739 1.10545 0
M  V30 27409 H 2690.86 -3.53611 2.18934 0
M  V30 27410 H 2689.43 -3.71097 0.366241 0
M  V30 27411 N 2691.62 -0.822988 -1.34405 0
M  V30 27412 C 2692.85 -0.42307 -2.03039 0
M  V30 27413 C 2693.27 0.963168 -1.61569 0
M  V30 27414 O 2692.63 1.62677 -0.800367 0
M  V30 27415 C 2692.68 -0.533272 -3.56635 0
M  V30 27416 O 2691.78 0.446867 -4.09972 0
M  V30 27417 H 2691.12 -0.174183 -0.640747 0
M  V30 27418 H 2693.65 -1.11342 -1.71651 0
M  V30 27419 H 2693.66 -0.409062 -4.05944 0
M  V30 27420 H 2692.34 -1.54432 -3.86165 0
M  V30 27421 H 2690.91 0.281536 -3.71836 0
M  V30 27422 N 2693.1 1.4662 -0.577957 0
M  V30 27423 C 2694.35 2.01612 -0.0594635 0
M  V30 27424 C 2694.66 1.45558 1.3066 0
M  V30 27425 O 2695.87 1.92341 1.91618 0
M  V30 27426 C 2694.32 3.59857 -0.0557298 0
M  V30 27427 C 2693.93 4.24906 -1.41982 0
M  V30 27428 C 2695.67 4.22524 0.409069 0
M  V30 27429 C 2693.58 5.75216 -1.37407 0
M  V30 27430 H 2692.51 0.753774 -0.0184602 0
M  V30 27431 H 2695.16 1.68402 -0.728898 0
M  V30 27432 H 2693.54 3.90122 0.679774 0
M  V30 27433 H 2694.72 4.06256 -2.17468 0
M  V30 27434 H 2693.03 3.74313 -1.82425 0
M  V30 27435 H 2695.63 5.327 0.462017 0
M  V30 27436 H 2695.97 3.9113 1.42559 0
M  V30 27437 H 2696.51 3.96867 -0.272222 0
M  V30 27438 H 2693.25 6.11262 -2.36724 0
M  V30 27439 H 2692.77 5.96143 -0.661344 0
M  V30 27440 H 2694.44 6.37838 -1.08495 0
M  V30 27441 N 2694.58 0.315484 1.5441 0
M  V30 27442 C 2695.82 -0.289936 2.00717 0
M  V30 27443 C 2696.16 -1.52418 1.20342 0
M  V30 27444 O 2695.43 -1.92421 0.283613 0
M  V30 27445 C 2695.71 -0.632134 3.54508 0
M  V30 27446 C 2695.57 0.612258 4.45614 0
M  V30 27447 C 2696.89 -1.45297 4.15424 0
M  V30 27448 H 2694 -0.103907 0.729638 0
M  V30 27449 H 2696.65 0.430459 1.8506 0
M  V30 27450 H 2694.8 -1.24588 3.67981 0
M  V30 27451 H 2696.47 1.25061 4.44024 0
M  V30 27452 H 2694.71 1.24271 4.15619 0
M  V30 27453 H 2695.38 0.328476 5.51022 0
M  V30 27454 H 2697.86 -0.934259 4.05476 0
M  V30 27455 H 2696.73 -1.66117 5.2316 0
M  V30 27456 H 2697 -2.44665 3.68228 0
M  V30 27457 N 2696.05 -1.5754 0.0434891 0
M  V30 27458 C 2697.3 -1.92005 -0.630753 0
M  V30 27459 C 2697.62 -0.921838 -1.71835 0
M  V30 27460 O 2696.89 0.0344876 -1.9587 0
M  V30 27461 H 2695.47 -0.708749 -0.235975 0
M  V30 27462 H 2698.14 -1.9467 0.0946804 0
M  V30 27463 H 2697.23 -2.93028 -1.07429 0
M  V30 27464 N 2697.53 0.229818 -1.55915 0
M  V30 27465 C 2698.48 1.28804 -1.88132 0
M  V30 27466 C 2699.47 1.42684 -0.743646 0
M  V30 27467 O 2700.66 1.45638 -1.00591 0
M  V30 27468 C 2697.79 2.64013 -2.19436 0
M  V30 27469 C 2696.87 2.54068 -3.39574 0
M  V30 27470 N 2697.26 2.13766 -4.58408 0
M  V30 27471 C 2695.56 2.85045 -3.43024 0
M  V30 27472 C 2696.26 2.1487 -5.4056 0
M  V30 27473 N 2695.24 2.55038 -4.80059 0
M  V30 27474 H 2699.04 0.967212 -2.77529 0
M  V30 27475 H 2696.56 0.438406 -1.56371 0
M  V30 27476 H 2698.55 3.40404 -2.40687 0
M  V30 27477 H 2697.21 2.96948 -1.31347 0
M  V30 27478 H 2698.22 1.85031 -4.83719 0
M  V30 27479 H 2694.9 3.22407 -2.65255 0
M  V30 27480 H 2696.29 1.85907 -6.45669 0
M  V30 27481 N 2699.01 1.49585 0.49619 0
M  V30 27482 C 2700.24 1.63031 1.27391 0
M  V30 27483 C 2700.65 0.303601 1.86343 0
M  V30 27484 O 2700.01 -0.711517 1.68059 0
M  V30 27485 C 2700.06 2.70273 2.40072 0
M  V30 27486 O 2699.78 3.97799 1.83542 0
M  V30 27487 C 2701.28 2.94468 3.31366 0
M  V30 27488 H 2698.5 0.548716 0.386201 0
M  V30 27489 H 2701.05 1.95649 0.595129 0
M  V30 27490 H 2699.2 2.4042 3.03771 0
M  V30 27491 H 2699.62 4.5691 2.57553 0
M  V30 27492 H 2701.09 3.73228 4.067 0
M  V30 27493 H 2701.57 2.04567 3.8865 0
M  V30 27494 H 2702.17 3.25756 2.73429 0
M  V30 27495 N 2700.49 -0.747586 1.3874 0
M  V30 27496 C 2701.42 -1.87489 1.39176 0
M  V30 27497 C 2702.4 -1.6815 0.256823 0
M  V30 27498 O 2703.58 -1.88654 0.460795 0
M  V30 27499 C 2700.71 -3.2509 1.22203 0
M  V30 27500 C 2699.67 -3.59043 2.32964 0
M  V30 27501 C 2698.99 -4.95446 2.01091 0
M  V30 27502 C 2700.29 -3.63304 3.75244 0
M  V30 27503 H 2701.99 -1.87382 2.33513 0
M  V30 27504 H 2699.53 -0.900114 1.12401 0
M  V30 27505 H 2701.49 -4.03615 1.21131 0
M  V30 27506 H 2700.21 -3.25693 0.243298 0
M  V30 27507 H 2698.87 -2.82841 2.33231 0
M  V30 27508 H 2698.52 -4.92614 1.01687 0
M  V30 27509 H 2698.22 -5.19131 2.75276 0
M  V30 27510 H 2699.74 -5.76342 2.01648 0
M  V30 27511 H 2701.16 -4.3193 3.76974 0
M  V30 27512 H 2699.55 -3.98501 4.48684 0
M  V30 27513 H 2700.62 -2.63393 4.07127 0
M  V30 27514 N 2701.97 -1.23709 -0.97642 0
M  V30 27515 C 2703.21 -1.08322 -1.72156 0
M  V30 27516 C 2703.57 0.375412 -1.88702 0
M  V30 27517 O 2702.86 1.27398 -1.4311 0
M  V30 27518 C 2703.05 -1.74668 -3.11811 0
M  V30 27519 C 2702.88 -3.26832 -3.08886 0
M  V30 27520 C 2701.65 -3.9601 -3.13854 0
M  V30 27521 C 2703.85 -4.23545 -2.91743 0
M  V30 27522 N 2701.83 -5.35124 -3.00857 0
M  V30 27523 C 2703.2 -5.496 -2.8695 0
M  V30 27524 C 2705.26 -4.1423 -2.76257 0
M  V30 27525 C 2703.96 -6.67406 -2.68256 0
M  V30 27526 C 2705.99 -5.31705 -2.58929 0
M  V30 27527 C 2705.35 -6.56686 -2.54838 0
M  V30 27528 H 2701.45 -0.450939 -0.638888 0
M  V30 27529 H 2704.03 -1.56496 -1.15833 0
M  V30 27530 H 2702.2 -1.29021 -3.66344 0
M  V30 27531 H 2703.94 -1.52221 -3.74981 0
M  V30 27532 H 2700.69 -3.47116 -3.22192 0
M  V30 27533 H 2701.12 -6.0807 -2.97623 0
M  V30 27534 H 2705.76 -3.18371 -2.78208 0
M  V30 27535 H 2703.48 -7.63396 -2.6505 0
M  V30 27536 H 2707.06 -5.26341 -2.47905 0
M  V30 27537 H 2705.94 -7.46056 -2.41598 0
M  V30 27538 N 2703.44 1.17579 -1.04943 0
M  V30 27539 C 2704.69 1.88055 -0.759145 0
M  V30 27540 C 2705.02 1.80682 0.711887 0
M  V30 27541 O 2704.3 1.2131 1.52033 0
M  V30 27542 C 2704.58 3.38185 -1.23706 0
M  V30 27543 C 2704.43 3.54322 -2.77084 0
M  V30 27544 C 2705.75 4.32124 -0.83409 0
M  V30 27545 H 2702.87 0.682863 -0.277249 0
M  V30 27546 H 2705.51 1.38284 -1.30298 0
M  V30 27547 H 2703.66 3.80704 -0.774404 0
M  V30 27548 H 2705.34 3.20836 -3.31455 0
M  V30 27549 H 2703.58 2.96684 -3.16482 0
M  V30 27550 H 2704.25 4.59698 -3.05585 0
M  V30 27551 H 2706.73 3.97432 -1.23235 0
M  V30 27552 H 2705.6 5.35709 -1.19613 0
M  V30 27553 H 2705.86 4.41322 0.262117 0
M  V30 27554 N 2704.92 0.830104 1.33967 0
M  V30 27555 C 2706.34 0.516769 1.51002 0
M  V30 27556 C 2706.54 -0.957663 1.77288 0
M  V30 27557 O 2705.59 -1.74185 1.828 0
M  V30 27558 C 2706.91 1.38252 2.67034 0
M  V30 27559 C 2708.46 1.38039 2.80917 0
M  V30 27560 C 2708.93 2.23078 4 0
M  V30 27561 N 2710.42 2.2074 4.0722 0
M  V30 27562 C 2711.16 2.83284 4.98536 0
M  V30 27563 N 2710.65 3.54845 5.95027 0
M  V30 27564 N 2712.45 2.728 4.91464 0
M  V30 27565 H 2704.6 1.78468 1.15165 0
M  V30 27566 H 2706.86 0.760916 0.565429 0
M  V30 27567 H 2706.57 2.42989 2.54262 0
M  V30 27568 H 2706.44 1.05231 3.62224 0
M  V30 27569 H 2708.83 0.340764 2.93126 0
M  V30 27570 H 2708.91 1.75061 1.86514 0
M  V30 27571 H 2708.55 3.27094 3.88551 0
M  V30 27572 H 2708.48 1.83403 4.9363 0
M  V30 27573 H 2710.97 1.68693 3.38159 0
M  V30 27574 H 2711.29 3.99795 6.6135 0
M  V30 27575 H 2709.63 3.58952 5.95129 0
M  V30 27576 H 2712.82 2.16463 4.15044 0
M  V30 27577 H 2712.99 3.21828 5.62433 0
M  V30 27578 N 2706.4 -1.46311 0.585725 0
M  V30 27579 C 2707.65 -2.0237 0.0724566 0
M  V30 27580 C 2707.98 -1.45685 -1.28865 0
M  V30 27581 O 2707.23 -0.612978 -1.85852 0
M  V30 27582 C 2707.53 -3.57378 -0.0400683 0
M  V30 27583 C 2707.2 -4.33116 1.25384 0
M  V30 27584 C 2705.86 -4.53527 1.60832 0
M  V30 27585 C 2708.21 -4.76582 2.10995 0
M  V30 27586 C 2705.54 -5.14656 2.81685 0
M  V30 27587 C 2707.89 -5.39046 3.31077 0
M  V30 27588 C 2706.55 -5.57684 3.66804 0
M  V30 27589 H 2705.82 -0.740526 0.0265138 0
M  V30 27590 H 2708.47 -1.75645 0.762966 0
M  V30 27591 H 2706.78 -3.83257 -0.813723 0
M  V30 27592 H 2708.47 -3.98433 -0.453008 0
M  V30 27593 H 2705.06 -4.17528 0.967881 0
M  V30 27594 H 2709.25 -4.60566 1.84912 0
M  V30 27595 H 2704.5 -5.27276 3.09499 0
M  V30 27596 H 2708.68 -5.71684 3.97682 0
M  V30 27597 H 2706.3 -6.0482 4.6054 0
M  V30 27598 N 2707.88 -0.323668 -1.54241 0
M  V30 27599 C 2709.13 0.279771 -1.9975 0
M  V30 27600 C 2709.44 1.53238 -1.21563 0
M  V30 27601 O 2710.65 2.21182 -1.57451 0
M  V30 27602 C 2709.1 0.549052 -3.55687 0
M  V30 27603 C 2708.71 -0.68651 -4.42709 0
M  V30 27604 C 2710.46 1.11244 -4.09665 0
M  V30 27605 C 2708.36 -0.389126 -5.90118 0
M  V30 27606 H 2707.29 0.108317 -0.746179 0
M  V30 27607 H 2709.94 -0.435908 -1.78247 0
M  V30 27608 H 2708.33 1.32492 -3.73178 0
M  V30 27609 H 2709.5 -1.46196 -4.36994 0
M  V30 27610 H 2707.81 -1.17012 -3.99621 0
M  V30 27611 H 2710.41 1.34956 -5.17389 0
M  V30 27612 H 2710.75 2.06184 -3.61654 0
M  V30 27613 H 2711.29 0.397751 -3.95806 0
M  V30 27614 H 2708.03 -1.30771 -6.42323 0
M  V30 27615 H 2707.55 0.348617 -5.98786 0
M  V30 27616 H 2709.23 0.00100267 -6.47 0
M  V30 27617 N 2709.36 1.57515 -0.0518432 0
M  V30 27618 C 2710.58 1.97444 0.634861 0
M  V30 27619 C 2711.01 0.929236 1.63545 0
M  V30 27620 O 2710.37 -0.107452 1.80981 0
M  V30 27621 C 2710.41 3.36445 1.29759 0
M  V30 27622 O 2709.52 3.34417 2.41327 0
M  V30 27623 H 2708.86 0.643177 0.164983 0
M  V30 27624 H 2711.39 2.04245 -0.120442 0
M  V30 27625 H 2711.4 3.73187 1.64912 0
M  V30 27626 H 2710.07 4.12054 0.564288 0
M  V30 27627 H 2708.65 3.09422 2.08117 0
M  V30 27628 N 2710.84 -0.221546 1.56035 0
M  V30 27629 C 2712.11 -0.970271 1.69838 0
M  V30 27630 C 2712.49 -2.0242 0.5991 0
M  V30 27631 O 2711.84 -2.25079 -0.39389 0
M  V30 27632 C 2712.05 -1.5807 3.11151 0
M  V30 27633 C 2713.4 -2.07296 3.70559 0
M  V30 27634 O 2714.42 -1.67964 3.14112 0
M  V30 27635 O 2713.28 -2.79588 4.69567 0
M  V30 27636 H 2710.38 -0.453245 0.691735 0
M  V30 27637 H 2712.92 -0.213328 1.68354 0
M  V30 27638 H 2711.69 -0.819692 3.82618 0
M  V30 27639 H 2711.32 -2.40319 3.16753 0
M  V30 27640 N 2712.31 -1.49846 -0.48825 0
M  V30 27641 C 2713.56 -1.59659 -1.23909 0
M  V30 27642 C 2713.88 -0.291039 -1.92816 0
M  V30 27643 O 2713.15 0.690453 -1.83329 0
M  V30 27644 H 2711.73 -0.588294 -0.460347 0
M  V30 27645 H 2714.39 -1.86538 -0.564761 0
M  V30 27646 H 2713.49 -2.39912 -1.99621 0
M  V30 27647 N 2713.79 0.740218 -1.39135 0
M  V30 27648 C 2715.02 1.53456 -1.3952 0
M  V30 27649 C 2715.44 1.88098 0.00965577 0
M  V30 27650 O 2714.8 1.51538 0.995285 0
M  V30 27651 C 2714.85 2.80196 -2.26986 0
M  V30 27652 O 2713.95 3.75905 -1.69615 0
M  V30 27653 H 2713.29 0.463628 -0.475336 0
M  V30 27654 H 2715.82 0.913685 -1.83065 0
M  V30 27655 H 2715.83 3.28985 -2.41315 0
M  V30 27656 H 2714.51 2.54315 -3.29085 0
M  V30 27657 H 2713.08 3.34655 -1.645 0
M  V30 27658 N 2715.27 1.24225 0.969846 0
M  V30 27659 C 2716.52 1.07853 1.70916 0
M  V30 27660 C 2716.84 -0.383729 1.91187 0
M  V30 27661 O 2716.11 -1.27408 1.48808 0
M  V30 27662 H 2714.69 0.396114 0.633327 0
M  V30 27663 H 2717.35 1.5611 1.16686 0
M  V30 27664 H 2716.45 1.57487 2.69452 0
M  V30 27665 N 2716.75 -1.1702 1.05565 0
M  V30 27666 C 2717.97 -1.91828 0.788471 0
M  V30 27667 C 2718.4 -1.765 -0.650325 0
M  V30 27668 O 2717.76 -1.0853 -1.45227 0
M  V30 27669 C 2717.8 -3.40793 1.17866 0
M  V30 27670 O 2716.91 -4.1121 0.313037 0
M  V30 27671 H 2716.25 -0.597903 0.288805 0
M  V30 27672 H 2718.78 -1.48304 1.4095 0
M  V30 27673 H 2718.79 -3.91544 1.14704 0
M  V30 27674 H 2717.46 -3.51269 2.22672 0
M  V30 27675 H 2716.04 -3.70688 0.40558 0
M  V30 27676 N 2718.23 -0.837197 -1.33524 0
M  V30 27677 C 2719.47 -0.431246 -1.97445 0
M  V30 27678 C 2719.79 1.01252 -1.66652 0
M  V30 27679 O 2719.06 1.70507 -0.964589 0
M  V30 27680 H 2717.64 -0.156476 -0.730427 0
M  V30 27681 H 2720.31 -1.06979 -1.62916 0
M  V30 27682 H 2719.4 -0.561931 -3.07 0
M  V30 27683 N 2719.7 1.45999 -0.593476 0
M  V30 27684 C 2720.93 2.06708 -0.0891297 0
M  V30 27685 C 2721.35 1.44048 1.22048 0
M  V30 27686 O 2720.7 0.549581 1.74028 0
M  V30 27687 C 2720.75 3.61428 0.0719628 0
M  V30 27688 O 2720.48 4.21746 -1.18582 0
M  V30 27689 C 2721.98 4.39091 0.60941 0
M  V30 27690 H 2719.2 0.668095 -0.0623745 0
M  V30 27691 H 2721.74 1.87462 -0.817204 0
M  V30 27692 H 2719.9 3.80065 0.750302 0
M  V30 27693 H 2720.31 5.14752 -1.00649 0
M  V30 27694 H 2721.78 5.47903 0.671267 0
M  V30 27695 H 2722.26 4.07884 1.62871 0
M  V30 27696 H 2722.87 4.25286 -0.0344148 0
M  V30 27697 N 2721.18 0.331843 1.54067 0
M  V30 27698 C 2722.43 -0.267704 2.00319 0
M  V30 27699 C 2722.75 -1.52001 1.22151 0
M  V30 27700 O 2722.02 -1.93176 0.325527 0
M  V30 27701 H 2720.6 -0.101909 0.740016 0
M  V30 27702 H 2723.26 0.4503 1.89627 0
M  V30 27703 H 2722.36 -0.518331 3.07766 0
M  V30 27704 N 2722.66 -1.57485 0.0601958 0
M  V30 27705 C 2723.91 -1.93045 -0.611561 0
M  V30 27706 C 2724.24 -0.939304 -1.70315 0
M  V30 27707 O 2723.49 0.0469616 -1.95644 0
M  V30 27708 C 2723.79 -3.35264 -1.23825 0
M  V30 27709 C 2723.46 -4.50067 -0.273958 0
M  V30 27710 C 2722.12 -4.81199 -0.00863935 0
M  V30 27711 C 2724.47 -5.19766 0.3864 0
M  V30 27712 C 2721.8 -5.79373 0.924319 0
M  V30 27713 C 2724.15 -6.18938 1.30761 0
M  V30 27714 C 2722.81 -6.48494 1.58151 0
M  V30 27715 H 2722.08 -0.7064 -0.223786 0
M  V30 27716 H 2724.73 -1.91068 0.1286 0
M  V30 27717 H 2723.04 -3.33651 -2.05388 0
M  V30 27718 H 2724.73 -3.60062 -1.76511 0
M  V30 27719 H 2721.32 -4.25779 -0.490933 0
M  V30 27720 H 2725.51 -4.95919 0.194523 0
M  V30 27721 H 2720.76 -6.00604 1.1439 0
M  V30 27722 H 2724.94 -6.72053 1.82531 0
M  V30 27723 H 2722.56 -7.24379 2.30605 0
M  V30 27724 N 2724.14 0.213268 -1.5615 0
M  V30 27725 C 2725.07 1.28799 -1.89588 0
M  V30 27726 C 2726.08 1.42631 -0.784869 0
M  V30 27727 O 2727.27 1.43381 -1.06321 0
M  V30 27728 C 2724.37 2.66255 -2.0967 0
M  V30 27729 C 2723.55 2.74264 -3.40731 0
M  V30 27730 C 2722.6 3.92792 -3.50144 0
M  V30 27731 O 2721.63 3.80743 -4.23112 0
M  V30 27732 N 2722.83 5.0746 -2.81895 0
M  V30 27733 H 2725.6 1.00437 -2.82369 0
M  V30 27734 H 2723.16 0.403274 -1.56797 0
M  V30 27735 H 2725.15 3.43942 -2.13274 0
M  V30 27736 H 2723.72 2.87181 -1.23474 0
M  V30 27737 H 2722.94 1.8299 -3.49153 0
M  V30 27738 H 2724.23 2.76592 -4.27053 0
M  V30 27739 H 2723.63 5.20146 -2.22406 0
M  V30 27740 H 2722.18 5.8316 -2.9115 0
M  V30 27741 N 2725.62 1.50103 0.480296 0
M  V30 27742 C 2726.58 1.67753 1.56178 0
M  V30 27743 C 2727.58 0.548529 1.51155 0
M  V30 27744 O 2728.77 0.81539 1.53938 0
M  V30 27745 C 2725.9 1.6942 2.9582 0
M  V30 27746 H 2727.09 2.64232 1.4185 0
M  V30 27747 H 2724.65 1.39445 0.706025 0
M  V30 27748 H 2725.38 0.746003 3.15603 0
M  V30 27749 H 2725.17 2.5143 3.00874 0
M  V30 27750 H 2726.66 1.85061 3.74356 0
M  V30 27751 N 2727.09 -0.732829 1.39526 0
M  V30 27752 C 2728.32 -1.52206 1.40146 0
M  V30 27753 C 2728.74 -1.888 -0.00345517 0
M  V30 27754 O 2728.09 -1.54252 -0.97533 0
M  V30 27755 C 2728.15 -2.80826 2.27637 0
M  V30 27756 O 2727.87 -2.45786 3.62658 0
M  V30 27757 C 2729.37 -3.7484 2.36664 0
M  V30 27758 H 2726.59 -0.470289 0.478612 0
M  V30 27759 H 2729.13 -0.905356 1.83367 0
M  V30 27760 H 2727.29 -3.38823 1.87824 0
M  V30 27761 H 2727.7 -3.28424 4.08947 0
M  V30 27762 H 2729.17 -4.61978 3.02126 0
M  V30 27763 H 2729.65 -4.16742 1.38645 0
M  V30 27764 H 2730.26 -3.22761 2.76957 0
M  V30 27765 N 2728.57 -1.24737 -0.963244 0
M  V30 27766 C 2729.82 -1.08973 -1.70679 0
M  V30 27767 C 2730.15 0.370718 -1.90934 0
M  V30 27768 O 2729.4 1.29008 -1.47158 0
M  V30 27769 C 2729.7 -1.77965 -3.09941 0
M  V30 27770 C 2729.37 -3.27892 -3.09512 0
M  V30 27771 C 2728.03 -3.68794 -3.09102 0
M  V30 27772 C 2730.38 -4.23717 -3.03501 0
M  V30 27773 C 2727.71 -5.03949 -3.0042 0
M  V30 27774 C 2730.06 -5.58886 -2.96361 0
M  V30 27775 C 2728.73 -5.99128 -2.94282 0
M  V30 27776 H 2728 -0.39876 -0.624557 0
M  V30 27777 H 2730.64 -1.54898 -1.126 0
M  V30 27778 H 2728.95 -1.24446 -3.71511 0
M  V30 27779 H 2730.64 -1.63229 -3.66275 0
M  V30 27780 H 2727.23 -2.95342 -3.10598 0
M  V30 27781 H 2731.42 -3.93115 -3.02943 0
M  V30 27782 H 2726.67 -5.3432 -2.97174 0
M  V30 27783 H 2730.85 -6.32838 -2.9067 0
M  V30 27784 H 2728.48 -7.03816 -2.8731 0
M  V30 27785 N 2730.05 1.16459 -1.06184 0
M  V30 27786 C 2730.98 2.19732 -0.615897 0
M  V30 27787 C 2731.96 1.58548 0.360738 0
M  V30 27788 O 2733.15 1.86557 0.269976 0
M  V30 27789 C 2730.27 3.3856 0.0972525 0
M  V30 27790 C 2729.32 4.18227 -0.835963 0
M  V30 27791 S 2730.15 4.82124 -2.3306 0
M  V30 27792 C 2731.31 6.04332 -1.62891 0
M  V30 27793 H 2731.54 2.57219 -1.49083 0
M  V30 27794 H 2729.07 1.27232 -0.874714 0
M  V30 27795 H 2731.03 4.07413 0.502492 0
M  V30 27796 H 2729.69 2.99441 0.948365 0
M  V30 27797 H 2728.89 5.03202 -0.283514 0
M  V30 27798 H 2728.49 3.54863 -1.18103 0
M  V30 27799 H 2730.78 6.71033 -0.933882 0
M  V30 27800 H 2731.72 6.64124 -2.45652 0
M  V30 27801 H 2732.13 5.53439 -1.11199 0
M  V30 27802 N 2731.53 0.844266 1.33079 0
M  V30 27803 C 2732.48 0.279364 2.29103 0
M  V30 27804 C 2733.45 -0.607855 1.54578 0
M  V30 27805 O 2734.63 -0.544977 1.82851 0
M  V30 27806 C 2731.77 -0.53502 3.40927 0
M  V30 27807 C 2730.88 0.376825 4.30353 0
M  V30 27808 C 2730.02 -0.449183 5.29297 0
M  V30 27809 C 2729.06 0.460713 6.10364 0
M  V30 27810 N 2728.19 -0.327489 7.01336 0
M  V30 27811 H 2733.03 1.10351 2.76815 0
M  V30 27812 H 2730.57 0.555635 1.36202 0
M  V30 27813 H 2732.53 -1.02271 4.04471 0
M  V30 27814 H 2731.16 -1.32409 2.94394 0
M  V30 27815 H 2730.21 0.982856 3.67483 0
M  V30 27816 H 2731.52 1.07557 4.87066 0
M  V30 27817 H 2730.68 -1.00048 5.98394 0
M  V30 27818 H 2729.42 -1.18134 4.73176 0
M  V30 27819 H 2728.42 1.02398 5.4018 0
M  V30 27820 H 2729.65 1.19132 6.68569 0
M  V30 27821 H 2727.59 -1.04293 6.47656 0
M  V30 27822 H 2727.51 0.312433 7.55354 0
M  V30 27823 H 2728.78 -0.860844 7.74732 0
M  V30 27824 N 2733.01 -1.45682 0.60121 0
M  V30 27825 C 2734.26 -2.01492 0.0915307 0
M  V30 27826 C 2734.57 -1.47619 -1.28328 0
M  V30 27827 O 2735.77 -1.95365 -1.88533 0
M  V30 27828 C 2734.23 -3.59723 0.112973 0
M  V30 27829 C 2733.84 -4.22593 1.48724 0
M  V30 27830 C 2735.58 -4.23122 -0.341797 0
M  V30 27831 C 2733.49 -5.72957 1.46541 0
M  V30 27832 H 2732.42 -0.753385 0.0304497 0
M  V30 27833 H 2735.07 -1.67221 0.755597 0
M  V30 27834 H 2733.45 -3.91154 -0.617623 0
M  V30 27835 H 2734.63 -4.02745 2.23904 0
M  V30 27836 H 2732.94 -3.71363 1.88357 0
M  V30 27837 H 2735.54 -5.33368 -0.37721 0
M  V30 27838 H 2735.88 -3.93349 -1.36318 0
M  V30 27839 H 2736.41 -3.96384 0.335326 0
M  V30 27840 H 2733.15 -6.07419 2.46419 0
M  V30 27841 H 2732.67 -5.95015 0.756102 0
M  V30 27842 H 2734.35 -6.36032 1.18629 0
M  V30 27843 N 2734.48 -0.340009 -1.53889 0
M  V30 27844 C 2735.73 0.257586 -2.00855 0
M  V30 27845 C 2736.06 1.5084 -1.22791 0
M  V30 27846 O 2735.31 1.93346 -0.302601 0
M  V30 27847 C 2735.61 0.620673 -3.51969 0
M  V30 27848 C 2735.28 -0.53285 -4.4774 0
M  V30 27849 C 2733.94 -0.849423 -4.73644 0
M  V30 27850 C 2736.29 -1.30689 -5.04549 0
M  V30 27851 C 2733.62 -1.94247 -5.53611 0
M  V30 27852 C 2735.97 -2.39015 -5.85708 0
M  V30 27853 C 2734.64 -2.71236 -6.09908 0
M  V30 27854 H 2733.91 0.0942573 -0.734981 0
M  V30 27855 H 2736.55 -0.467192 -1.85714 0
M  V30 27856 H 2734.86 1.42611 -3.64924 0
M  V30 27857 H 2736.56 1.09488 -3.85763 0
M  V30 27858 H 2733.15 -0.276048 -4.2771 0
M  V30 27859 H 2737.33 -1.07557 -4.84505 0
M  V30 27860 H 2732.59 -2.19638 -5.70587 0
M  V30 27861 H 2736.76 -2.99426 -6.28742 0
M  V30 27862 H 2734.39 -3.56059 -6.71659 0
M  V30 27863 N 2735.96 1.57451 -0.0685468 0
M  V30 27864 C 2737.21 1.92984 0.600127 0
M  V30 27865 C 2737.53 0.949058 1.70346 0
M  V30 27866 O 2736.8 -0.00332204 1.959 0
M  V30 27867 H 2735.38 0.712413 0.22467 0
M  V30 27868 H 2738.04 1.94495 -0.125639 0
M  V30 27869 H 2737.14 2.947 1.02754 0
M  V30 27870 N 2737.44 -0.204984 1.56261 0
M  V30 27871 C 2738.39 -1.27361 1.94633 0
M  V30 27872 C 2739.38 -1.47647 0.83046 0
M  V30 27873 O 2740.59 -1.48625 1.01541 0
M  V30 27874 H 2736.96 -0.42736 0.618763 0
M  V30 27875 H 2738.94 -0.922891 2.8377 0
M  V30 27876 C 2737.68 -2.6132 2.29362 0
M  V30 27877 H 2737.01 -2.46523 3.14748 0
M  V30 27878 H 2738.45 -3.34863 2.60082 0
M  V30 27879 C 2736.91 -3.17574 1.12466 0
M  V30 27880 O 2737.44 -3.99758 0.394478 0
M  V30 27881 N 2735.64 -2.76179 0.904085 0
M  V30 27882 H 2735.19 -2.09451 1.4996 0
M  V30 27883 H 2735.15 -3.14156 0.123718 0
M  V30 27884 N 2738.92 -1.50356 -0.472329 0
M  V30 27885 C 2740.2 -1.518 -1.23353 0
M  V30 27886 C 2740.58 -0.261967 -2.09468 0
M  V30 27887 O 2739.92 0.754653 -2.15679 0
M  V30 27888 C 2740.13 -2.81305 -2.06563 0
M  V30 27889 C 2741.48 -3.31918 -2.64794 0
M  V30 27890 O 2742.51 -2.82618 -2.16807 0
M  V30 27891 O 2741.37 -4.17853 -3.52224 0
M  V30 27892 H 2738.46 -0.608826 -0.559697 0
M  V30 27893 H 2741.01 -1.62644 -0.484252 0
M  V30 27894 H 2739.78 -3.64197 -1.43096 0
M  V30 27895 H 2739.4 -2.73459 -2.88628 0
M  V30 27896 N 2740.4 0.725419 -1.39912 0
M  V30 27897 C 2741.35 1.86084 -1.39555 0
M  V30 27898 C 2742.34 1.67114 -0.277363 0
M  V30 27899 O 2743.55 1.74338 -0.447896 0
M  V30 27900 H 2739.92 0.612703 -0.436003 0
M  V30 27901 H 2741.89 1.83501 -2.35308 0
M  V30 27902 C 2740.64 3.23858 -1.26535 0
M  V30 27903 H 2739.96 3.39056 -2.11851 0
M  V30 27904 H 2741.4 4.03468 -1.30343 0
M  V30 27905 C 2739.86 3.3689 0.0253576 0
M  V30 27906 O 2740.39 3.89259 0.99198 0
M  V30 27907 N 2738.6 2.90456 0.0916017 0
M  V30 27908 H 2738.15 2.48027 -0.695719 0
M  V30 27909 H 2738.1 2.99555 0.954692 0
M  V30 27910 N 2741.88 1.25246 0.956615 0
M  V30 27911 C 2743.12 1.09273 1.69536 0
M  V30 27912 C 2743.44 -0.36647 1.92136 0
M  V30 27913 O 2744.64 -0.646603 2.63688 0
M  V30 27914 C 2743.1 1.90725 3.05208 0
M  V30 27915 C 2742.71 3.41125 2.9041 0
M  V30 27916 C 2744.45 1.83315 3.82878 0
M  V30 27917 C 2742.36 4.1488 4.21461 0
M  V30 27918 H 2741.29 0.405313 0.635797 0
M  V30 27919 H 2743.94 1.49425 1.0651 0
M  V30 27920 H 2742.32 1.43395 3.69126 0
M  V30 27921 H 2743.5 3.96114 2.35437 0
M  V30 27922 H 2741.81 3.49606 2.26197 0
M  V30 27923 H 2744.41 2.35715 4.7994 0
M  V30 27924 H 2744.75 0.800644 4.08528 0
M  V30 27925 H 2745.28 2.28385 3.25707 0
M  V30 27926 H 2742.02 5.18536 4.01 0
M  V30 27927 H 2741.54 3.64674 4.76207 0
M  V30 27928 H 2743.22 4.22486 4.90015 0
M  V30 27929 N 2743.35 -1.15894 1.068 0
M  V30 27930 C 2744.6 -1.86824 0.788967 0
M  V30 27931 C 2744.93 -1.81791 -0.683052 0
M  V30 27932 O 2744.21 -1.23714 -1.50084 0
M  V30 27933 C 2744.49 -3.36174 1.29071 0
M  V30 27934 C 2744.34 -3.49869 2.82686 0
M  V30 27935 C 2745.66 -4.30742 0.902731 0
M  V30 27936 H 2742.78 -0.678366 0.288077 0
M  V30 27937 H 2745.42 -1.36193 1.32482 0
M  V30 27938 H 2743.57 -3.79423 0.834873 0
M  V30 27939 H 2745.25 -3.15522 3.36517 0
M  V30 27940 H 2743.49 -2.91611 3.21162 0
M  V30 27941 H 2744.16 -4.54778 3.1286 0
M  V30 27942 H 2746.64 -3.95421 1.29542 0
M  V30 27943 H 2745.51 -5.33738 1.2812 0
M  V30 27944 H 2745.77 -4.41683 -0.191874 0
M  V30 27945 N 2744.83 -0.851312 -1.32629 0
M  V30 27946 C 2746.08 -0.452163 -1.96977 0
M  V30 27947 C 2746.4 0.99479 -1.67717 0
M  V30 27948 O 2745.67 1.69474 -0.98262 0
M  V30 27949 H 2744.25 -0.164214 -0.728727 0
M  V30 27950 H 2746.91 -1.08701 -1.61772 0
M  V30 27951 H 2746.01 -0.594461 -3.06386 0
M  V30 27952 N 2746.31 1.45361 -0.608928 0
M  V30 27953 C 2747.54 2.06602 -0.111049 0
M  V30 27954 C 2747.95 1.45334 1.20513 0
M  V30 27955 O 2747.31 0.568008 1.73436 0
M  V30 27956 C 2747.36 3.61484 0.0336244 0
M  V30 27957 O 2747.08 4.20465 -1.23048 0
M  V30 27958 C 2748.58 4.39713 0.562805 0
M  V30 27959 H 2745.8 0.667395 -0.0694571 0
M  V30 27960 H 2748.35 1.86585 -0.83704 0
M  V30 27961 H 2746.5 3.80839 0.709949 0
M  V30 27962 H 2746.92 5.13656 -1.06103 0
M  V30 27963 H 2748.39 5.48584 0.613117 0
M  V30 27964 H 2748.87 4.09589 1.58535 0
M  V30 27965 H 2749.47 4.25226 -0.0795201 0
M  V30 27966 N 2747.79 0.348166 1.53706 0
M  V30 27967 C 2748.74 -0.522553 2.21931 0
M  V30 27968 C 2749.72 -1.06246 1.20833 0
M  V30 27969 O 2750.91 -0.995389 1.46359 0
M  V30 27970 C 2748.04 -1.67065 2.99907 0
M  V30 27971 C 2747.13 -1.14447 4.08366 0
M  V30 27972 N 2747.52 -0.33987 5.04657 0
M  V30 27973 C 2745.82 -1.42093 4.2276 0
M  V30 27974 C 2746.52 -0.0537784 5.81675 0
M  V30 27975 N 2745.49 -0.646682 5.3974 0
M  V30 27976 H 2749.3 0.0991866 2.93733 0
M  V30 27977 H 2746.81 0.155268 1.61656 0
M  V30 27978 H 2748.81 -2.30645 3.47288 0
M  V30 27979 H 2747.47 -2.29562 2.29633 0
M  V30 27980 H 2748.48 0.0194462 5.17896 0
M  V30 27981 H 2745.16 -2.04995 3.63708 0
M  V30 27982 H 2746.55 0.595561 6.69255 0
M  V30 27983 N 2749.27 -1.57412 0.0768958 0
M  V30 27984 C 2750.51 -1.933 -0.589884 0
M  V30 27985 C 2750.83 -0.958079 -1.69841 0
M  V30 27986 O 2750.1 -0.00706705 -1.95899 0
M  V30 27987 H 2748.68 -0.713595 -0.220888 0
M  V30 27988 H 2751.35 -1.94425 0.135951 0
M  V30 27989 H 2750.44 -2.95241 -1.0119 0
M  V30 27990 N 2750.74 0.196695 -1.56368 0
M  V30 27991 C 2751.69 1.24378 -1.94419 0
M  V30 27992 C 2752.66 1.45313 -0.804569 0
M  V30 27993 O 2753.85 1.58473 -1.06259 0
M  V30 27994 C 2750.99 2.58384 -2.28761 0
M  V30 27995 C 2750.1 2.45041 -3.55779 0
M  V30 27996 C 2749.23 3.71739 -3.79451 0
M  V30 27997 C 2748.27 3.53223 -4.999 0
M  V30 27998 N 2747.41 4.71929 -5.19834 0
M  V30 27999 H 2752.25 0.912288 -2.83692 0
M  V30 28000 H 2749.79 0.43911 -1.40393 0
M  V30 28001 H 2751.75 3.36453 -2.46688 0
M  V30 28002 H 2750.38 2.8958 -1.4263 0
M  V30 28003 H 2749.43 1.58278 -3.45908 0
M  V30 28004 H 2750.74 2.27292 -4.44004 0
M  V30 28005 H 2749.89 4.58249 -3.97609 0
M  V30 28006 H 2748.63 3.92441 -2.89553 0
M  V30 28007 H 2747.64 2.65098 -4.81667 0
M  V30 28008 H 2748.86 3.33968 -5.91306 0
M  V30 28009 H 2746.81 4.92897 -4.32884 0
M  V30 28010 H 2746.73 4.56999 -6.02236 0
M  V30 28011 H 2747.99 5.59794 -5.42449 0
M  V30 28012 N 2752.22 1.50604 0.464349 0
M  V30 28013 C 2753.47 1.6217 1.21773 0
M  V30 28014 C 2753.8 0.324188 1.91475 0
M  V30 28015 O 2753.08 -0.67475 1.82421 0
M  V30 28016 C 2753.36 2.80665 2.25609 0
M  V30 28017 C 2753.21 4.20317 1.60168 0
M  V30 28018 C 2754.53 2.94707 3.26857 0
M  V30 28019 H 2751.65 0.59023 0.441359 0
M  V30 28020 H 2754.29 1.83011 0.51059 0
M  V30 28021 H 2752.44 2.63026 2.85919 0
M  V30 28022 H 2754.11 4.49562 1.03403 0
M  V30 28023 H 2752.36 4.24263 0.904622 0
M  V30 28024 H 2753.03 4.9917 2.35656 0
M  V30 28025 H 2755.5 3.10877 2.76577 0
M  V30 28026 H 2754.38 3.7923 3.96832 0
M  V30 28027 H 2754.64 2.0561 3.91378 0
M  V30 28028 N 2753.7 -0.717989 1.40295 0
M  V30 28029 C 2754.66 -1.81378 1.40123 0
M  V30 28030 C 2755.66 -1.58063 0.295433 0
M  V30 28031 O 2756.85 -1.65149 0.554216 0
M  V30 28032 C 2753.99 -3.19433 1.19061 0
M  V30 28033 H 2755.18 -1.82929 2.37649 0
M  V30 28034 H 2752.73 -0.923382 1.26108 0
M  V30 28035 H 2753.47 -3.23533 0.222866 0
M  V30 28036 H 2753.25 -3.37755 1.99158 0
M  V30 28037 H 2754.74 -3.99466 1.21723 0
M  V30 28038 N 2755.18 -1.25752 -0.94996 0
M  V30 28039 C 2756.4 -1.13631 -1.73501 0
M  V30 28040 C 2756.83 0.305557 -1.85602 0
M  V30 28041 O 2756.19 1.22137 -1.33986 0
M  V30 28042 C 2756.23 -1.80061 -3.12427 0
M  V30 28043 O 2755.34 -1.08343 -3.97914 0
M  V30 28044 H 2754.68 -0.396449 -0.532658 0
M  V30 28045 H 2757.21 -1.66405 -1.1904 0
M  V30 28046 H 2757.22 -1.86533 -3.62863 0
M  V30 28047 H 2755.89 -2.84961 -3.02936 0
M  V30 28048 H 2754.47 -1.09784 -3.56373 0
M  V30 28049 N 2756.66 1.15326 -1.07413 0
M  V30 28050 C 2758.07 1.67714 -0.82029 0
M  V30 28051 C 2758.42 1.84961 0.654507 0
M  V30 28052 O 2757.54 1.55339 1.50661 0
M  V30 28053 C 2758.14 3.04644 -1.48247 0
M  V30 28054 C 2756.7 3.54107 -1.27612 0
M  V30 28055 C 2755.84 2.29818 -1.55174 0
M  V30 28056 H 2758.8 0.99531 -1.23609 0
M  V30 28057 H 2758.82 3.69604 -0.904049 0
M  V30 28058 H 2758.33 2.9206 -2.55583 0
M  V30 28059 H 2756.43 3.71932 -0.223013 0
M  V30 28060 H 2756.54 4.35508 -1.99675 0
M  V30 28061 H 2754.91 2.35391 -0.972788 0
M  V30 28062 H 2755.69 2.1982 -2.63693 0
M  V30 28063 N 2758.13 0.858334 1.32176 0
M  V30 28064 C 2759.38 0.463518 1.97124 0
M  V30 28065 C 2759.71 -0.981675 1.67909 0
M  V30 28066 O 2758.96 -1.70437 0.961747 0
M  V30 28067 C 2759.26 0.65372 3.51371 0
M  V30 28068 C 2758.93 2.06994 4.0058 0
M  V30 28069 C 2757.59 2.45727 4.13729 0
M  V30 28070 C 2759.94 2.99409 4.26619 0
M  V30 28071 C 2757.27 3.7614 4.50262 0
M  V30 28072 C 2759.62 4.29324 4.64611 0
M  V30 28073 C 2758.29 4.67987 4.75966 0
M  V30 28074 H 2757.56 0.169613 0.721327 0
M  V30 28075 H 2760.2 1.08909 1.57515 0
M  V30 28076 H 2758.51 -0.0550639 3.91761 0
M  V30 28077 H 2760.21 0.328234 3.99654 0
M  V30 28078 H 2756.8 1.75918 3.90833 0
M  V30 28079 H 2760.98 2.70715 4.15965 0
M  V30 28080 H 2756.24 4.05873 4.57249 0
M  V30 28081 H 2760.41 5.00994 4.83713 0
M  V30 28082 H 2758.04 5.69084 5.04031 0
M  V30 28083 N 2759.61 -1.45036 0.616628 0
M  V30 28084 C 2760.86 -2.03022 0.124001 0
M  V30 28085 C 2761.21 -1.47527 -1.23505 0
M  V30 28086 O 2760.51 -0.644013 -1.80452 0
M  V30 28087 C 2760.7 -3.57382 0.0357457 0
M  V30 28088 C 2760.53 -4.27851 1.3847 0
M  V30 28089 C 2759.3 -4.65412 1.96774 0
M  V30 28090 C 2761.5 -4.5923 2.31544 0
M  V30 28091 N 2759.48 -5.2078 3.25055 0
M  V30 28092 C 2760.85 -5.15527 3.44429 0
M  V30 28093 C 2762.91 -4.41174 2.30803 0
M  V30 28094 C 2761.61 -5.55671 4.56752 0
M  V30 28095 C 2763.63 -4.82356 3.4218 0
M  V30 28096 C 2763 -5.38754 4.53788 0
M  V30 28097 H 2759.1 -0.776924 0.0889564 0
M  V30 28098 H 2761.68 -1.76731 0.816956 0
M  V30 28099 H 2759.85 -3.83315 -0.626453 0
M  V30 28100 H 2761.58 -4.02027 -0.464373 0
M  V30 28101 H 2758.34 -4.49259 1.49878 0
M  V30 28102 H 2758.76 -5.52955 3.90602 0
M  V30 28103 H 2763.4 -3.96876 1.45772 0
M  V30 28104 H 2761.12 -5.9893 5.42502 0
M  V30 28105 H 2764.71 -4.7011 3.42765 0
M  V30 28106 H 2763.59 -5.70034 5.38546 0
M  V30 28107 N 2761.09 -0.356312 -1.53519 0
M  V30 28108 C 2762.5 0.124887 -1.86282 0
M  V30 28109 C 2762.85 1.48937 -1.27719 0
M  V30 28110 O 2761.98 2.08041 -0.595651 0
M  V30 28111 C 2762.57 0.23339 -3.37995 0
M  V30 28112 C 2761.13 0.658834 -3.70589 0
M  V30 28113 C 2760.28 -0.199644 -2.7658 0
M  V30 28114 H 2763.23 -0.575449 -1.479 0
M  V30 28115 H 2763.25 1.05863 -3.65477 0
M  V30 28116 H 2762.76 -0.759842 -3.80589 0
M  V30 28117 H 2760.86 1.66063 -3.33547 0
M  V30 28118 H 2760.98 0.439873 -4.77076 0
M  V30 28119 H 2759.34 0.330031 -2.52553 0
M  V30 28120 H 2760.12 -1.19025 -3.22006 0
M  V30 28121 N 2762.57 1.57369 -0.0852427 0
M  V30 28122 C 2763.48 2.16994 0.891674 0
M  V30 28123 C 2764.49 1.13671 1.31738 0
M  V30 28124 O 2765.67 1.45998 1.38732 0
M  V30 28125 C 2762.74 2.73062 2.1363 0
M  V30 28126 C 2761.8 3.91306 1.76573 0
M  V30 28127 C 2761.03 4.44691 2.95103 0
M  V30 28128 O 2761.25 3.97039 4.09532 0
M  V30 28129 O 2760.19 5.35846 2.7414 0
M  V30 28130 H 2764.01 3.00859 0.414424 0
M  V30 28131 H 2761.6 1.48756 0.138572 0
M  V30 28132 H 2763.48 3.0894 2.8659 0
M  V30 28133 H 2762.15 1.92249 2.60427 0
M  V30 28134 H 2761.06 3.60257 1.00824 0
M  V30 28135 H 2762.39 4.73453 1.34548 0
M  V30 28136 N 2764.05 -0.188399 1.5647 0
M  V30 28137 C 2764.99 -1.25289 1.95973 0
M  V30 28138 C 2765.99 -1.46758 0.846073 0
M  V30 28139 O 2767.19 -1.4754 1.03111 0
M  V30 28140 H 2763.57 -0.420773 0.623261 0
M  V30 28141 H 2765.54 -0.892742 2.84733 0
M  V30 28142 C 2764.29 -2.58873 2.32121 0
M  V30 28143 H 2763.61 -2.4317 3.17345 0
M  V30 28144 H 2765.05 -3.32086 2.63619 0
M  V30 28145 C 2763.51 -3.16363 1.15828 0
M  V30 28146 O 2764.04 -3.99318 0.436855 0
M  V30 28147 N 2762.25 -2.75204 0.933327 0
M  V30 28148 H 2761.79 -2.07849 1.52173 0
M  V30 28149 H 2761.75 -3.14008 0.157031 0
M  V30 28150 N 2765.53 -1.50848 -0.456355 0
M  V30 28151 C 2766.76 -1.6611 -1.22845 0
M  V30 28152 C 2767.16 -0.34993 -1.85936 0
M  V30 28153 O 2766.51 0.679635 -1.70665 0
M  V30 28154 C 2766.57 -2.70565 -2.36717 0
M  V30 28155 C 2766.23 -4.1371 -1.94147 0
M  V30 28156 C 2767.23 -4.99107 -1.45561 0
M  V30 28157 C 2764.91 -4.59709 -2.02418 0
M  V30 28158 C 2766.91 -6.28556 -1.05809 0
M  V30 28159 C 2764.6 -5.8916 -1.62277 0
M  V30 28160 C 2765.59 -6.7341 -1.14052 0
M  V30 28161 O 2765.28 -8.00443 -0.744732 0
M  V30 28162 H 2765.01 -0.561048 -0.377095 0
M  V30 28163 H 2767.57 -1.97916 -0.549396 0
M  V30 28164 H 2765.8 -2.34033 -3.0784 0
M  V30 28165 H 2767.49 -2.74897 -2.98641 0
M  V30 28166 H 2768.25 -4.6478 -1.38581 0
M  V30 28167 H 2764.13 -3.94268 -2.38901 0
M  V30 28168 H 2767.68 -6.94268 -0.680978 0
M  V30 28169 H 2763.57 -6.23006 -1.68921 0
M  V30 28170 H 2764.34 -8.13839 -0.872277 0
M  V30 28171 N 2767 0.710538 -1.40674 0
M  V30 28172 C 2768.41 1.28989 -1.34977 0
M  V30 28173 C 2768.77 1.96183 -0.0256617 0
M  V30 28174 O 2767.89 1.97863 0.876304 0
M  V30 28175 C 2768.49 2.34562 -2.44471 0
M  V30 28176 C 2767.04 2.8811 -2.42219 0
M  V30 28177 C 2766.19 1.61959 -2.25088 0
M  V30 28178 H 2769.14 0.506317 -1.50407 0
M  V30 28179 H 2769.16 3.15519 -2.12668 0
M  V30 28180 H 2768.68 1.85628 -3.40828 0
M  V30 28181 H 2766.78 3.4126 -1.49574 0
M  V30 28182 H 2766.89 3.39559 -3.37989 0
M  V30 28183 H 2765.25 1.87213 -1.72694 0
M  V30 28184 H 2766.04 1.15042 -3.23451 0
M  V30 28185 N 2768.48 1.26254 0.943277 0
M  V30 28186 C 2769.43 1.04301 2.02745 0
M  V30 28187 C 2770.42 -0.0239152 1.60882 0
M  V30 28188 O 2771.61 0.192788 1.75947 0
M  V30 28189 C 2768.74 0.675759 3.36583 0
M  V30 28190 C 2767.82 1.78003 3.84936 0
M  V30 28191 N 2768.21 3.01711 4.05961 0
M  V30 28192 C 2766.51 1.66315 4.1383 0
M  V30 28193 C 2767.21 3.73466 4.4598 0
M  V30 28194 N 2766.19 3.01143 4.52564 0
M  V30 28195 H 2769.99 1.98203 2.17009 0
M  V30 28196 H 2767.5 1.1674 1.12896 0
M  V30 28197 H 2769.5 0.499643 4.13895 0
M  V30 28198 H 2768.16 -0.255806 3.23691 0
M  V30 28199 H 2769.17 3.37638 3.9271 0
M  V30 28200 H 2765.85 0.801339 4.09737 0
M  V30 28201 H 2767.24 4.79709 4.70456 0
M  V30 28202 N 2769.96 -1.14755 1.08024 0
M  V30 28203 C 2770.91 -2.21781 0.701127 0
M  V30 28204 C 2771.9 -1.66877 -0.291281 0
M  V30 28205 O 2773.11 -1.79338 -0.154264 0
M  V30 28206 H 2769.48 -0.722465 0.208681 0
M  V30 28207 H 2771.45 -2.51031 1.61326 0
M  V30 28208 C 2770.2 -3.47485 0.122339 0
M  V30 28209 H 2769.53 -3.90059 0.877134 0
M  V30 28210 H 2770.97 -4.2387 -0.105173 0
M  V30 28211 C 2769.42 -3.1707 -1.13877 0
M  V30 28212 O 2769.95 -3.34501 -2.22424 0
M  V30 28213 N 2768.16 -2.71059 -1.04762 0
M  V30 28214 H 2767.71 -2.57076 -0.164257 0
M  V30 28215 H 2767.67 -2.51084 -1.8922 0
M  V30 28216 N 2771.44 -0.865331 -1.31719 0
M  V30 28217 C 2772.66 -0.487451 -2.0159 0
M  V30 28218 C 2773.09 0.911278 -1.64552 0
M  V30 28219 O 2772.45 1.60048 -0.851717 0
M  V30 28220 C 2772.49 -0.646463 -3.54758 0
M  V30 28221 O 2771.6 0.316212 -4.11186 0
M  V30 28222 H 2770.94 -0.194479 -0.634881 0
M  V30 28223 H 2773.47 -1.16747 -1.68022 0
M  V30 28224 H 2773.48 -0.538003 -4.04437 0
M  V30 28225 H 2772.15 -1.66639 -3.81057 0
M  V30 28226 H 2770.73 0.163097 -3.72543 0
M  V30 28227 N 2772.92 1.44707 -0.624311 0
M  V30 28228 C 2773.86 2.32398 0.0969544 0
M  V30 28229 C 2774.86 1.4695 0.842736 0
M  V30 28230 O 2776.06 1.63335 0.756408 0
M  V30 28231 H 2772.44 0.750328 0.0501174 0
M  V30 28232 H 2774.41 2.90991 -0.660818 0
M  V30 28233 C 2773.16 3.30839 1.06961 0
M  V30 28234 H 2772.48 3.96596 0.505172 0
M  V30 28235 H 2773.92 3.94892 1.5439 0
M  V30 28236 C 2772.38 2.59254 2.15149 0
M  V30 28237 O 2772.91 2.38635 3.23135 0
M  V30 28238 N 2771.12 2.19107 1.90894 0
M  V30 28239 H 2770.66 2.36076 1.03082 0
M  V30 28240 H 2770.62 1.71536 2.63482 0
M  V30 28241 N 2774.39 0.364449 1.53328 0
M  V30 28242 C 2775.62 -0.22606 2.0536 0
M  V30 28243 C 2776.03 -1.43092 1.23779 0
M  V30 28244 O 2775.37 -1.81688 0.271171 0
M  V30 28245 C 2775.44 -0.684732 3.52919 0
M  V30 28246 C 2775.1 0.403286 4.55217 0
M  V30 28247 C 2776.1 1.25278 5.0458 0
M  V30 28248 C 2773.78 0.563204 4.99133 0
M  V30 28249 C 2775.78 2.24755 5.96459 0
M  V30 28250 C 2773.46 1.56134 5.90818 0
M  V30 28251 C 2774.46 2.40195 6.39371 0
M  V30 28252 O 2774.15 3.38306 7.29249 0
M  V30 28253 H 2773.88 -0.0436653 0.674588 0
M  V30 28254 H 2776.44 0.520817 1.98687 0
M  V30 28255 H 2774.67 -1.48319 3.57125 0
M  V30 28256 H 2776.35 -1.19812 3.87814 0
M  V30 28257 H 2777.12 1.14042 4.71401 0
M  V30 28258 H 2773 -0.0813099 4.60928 0
M  V30 28259 H 2776.54 2.90404 6.3428 0
M  V30 28260 H 2772.44 1.67418 6.23411 0
M  V30 28261 H 2773.21 3.34022 7.47243 0
M  V30 28262 N 2775.87 -1.57322 0.0935872 0
M  V30 28263 C 2776.8 -2.10966 -0.895886 0
M  V30 28264 C 2777.82 -1.04656 -1.24703 0
M  V30 28265 O 2779.01 -1.32107 -1.20041 0
M  V30 28266 C 2776.11 -2.57322 -2.20542 0
M  V30 28267 C 2775.28 -3.87449 -2.02983 0
M  V30 28268 C 2774.34 -4.19668 -3.17435 0
M  V30 28269 O 2773.36 -4.88914 -2.91465 0
M  V30 28270 N 2774.57 -3.7495 -4.43162 0
M  V30 28271 H 2777.33 -2.96486 -0.437736 0
M  V30 28272 H 2774.89 -1.61641 -0.0915579 0
M  V30 28273 H 2776.88 -2.75923 -2.96055 0
M  V30 28274 H 2775.45 -1.7682 -2.57785 0
M  V30 28275 H 2774.67 -3.78011 -1.11809 0
M  V30 28276 H 2775.96 -4.72583 -1.88527 0
M  V30 28277 H 2775.36 -3.19051 -4.67143 0
M  V30 28278 H 2773.92 -3.98709 -5.1563 0
M  V30 28279 N 2777.35 0.180099 -1.56568 0
M  V30 28280 C 2778.6 0.894827 -1.82659 0
M  V30 28281 C 2778.95 1.80251 -0.672858 0
M  V30 28282 O 2778.24 1.88716 0.331194 0
M  V30 28283 C 2778.44 1.7339 -3.12523 0
M  V30 28284 C 2778.27 0.908951 -4.40418 0
M  V30 28285 C 2777.04 0.587474 -5.01873 0
M  V30 28286 C 2779.23 0.254608 -5.13669 0
M  V30 28287 N 2777.22 -0.254536 -6.13372 0
M  V30 28288 C 2778.59 -0.448946 -6.18372 0
M  V30 28289 C 2780.64 0.171871 -4.97603 0
M  V30 28290 C 2779.35 -1.22738 -7.08751 0
M  V30 28291 C 2781.37 -0.593204 -5.88417 0
M  V30 28292 C 2780.73 -1.28515 -6.92577 0
M  V30 28293 H 2776.83 0.306344 -0.719498 0
M  V30 28294 H 2779.42 0.162436 -1.94021 0
M  V30 28295 H 2777.59 2.43778 -3.02369 0
M  V30 28296 H 2779.32 2.38926 -3.26645 0
M  V30 28297 H 2776.07 0.915476 -4.64668 0
M  V30 28298 H 2776.5 -0.665592 -6.7372 0
M  V30 28299 H 2781.14 0.692482 -4.17091 0
M  V30 28300 H 2778.86 -1.75937 -7.88715 0
M  V30 28301 H 2782.44 -0.658776 -5.78058 0
M  V30 28302 H 2781.32 -1.86767 -7.61635 0
M  V30 28303 N 2778.83 1.51088 0.448349 0
M  V30 28304 C 2780.06 1.67002 1.2214 0
M  V30 28305 C 2780.47 0.362731 1.85283 0
M  V30 28306 O 2779.83 -0.65769 1.70237 0
M  V30 28307 C 2779.88 2.77774 2.31352 0
M  V30 28308 O 2779.6 4.03437 1.70794 0
M  V30 28309 C 2781.1 3.04861 3.2183 0
M  V30 28310 H 2778.32 0.560725 0.368549 0
M  V30 28311 H 2780.86 1.97443 0.532584 0
M  V30 28312 H 2779.02 2.49963 2.95969 0
M  V30 28313 H 2779.43 4.64872 2.42887 0
M  V30 28314 H 2780.91 3.85978 3.9462 0
M  V30 28315 H 2781.38 2.16828 3.81945 0
M  V30 28316 H 2781.99 3.3429 2.62927 0
M  V30 28317 N 2780.31 -0.703068 1.41049 0
M  V30 28318 C 2781.55 -1.46523 1.4021 0
M  V30 28319 C 2781.89 -1.94198 0.00851176 0
M  V30 28320 O 2781.16 -1.69021 -0.962407 0
M  V30 28321 C 2781.44 -2.68245 2.40243 0
M  V30 28322 C 2781.3 -2.26384 3.88678 0
M  V30 28323 C 2782.62 -3.7043 2.37634 0
M  V30 28324 H 2779.73 -0.531463 0.510603 0
M  V30 28325 H 2782.38 -0.801392 1.72272 0
M  V30 28326 H 2780.53 -3.24884 2.13032 0
M  V30 28327 H 2782.2 -1.75131 4.26763 0
M  V30 28328 H 2780.44 -1.58248 4.03906 0
M  V30 28329 H 2781.11 -3.1369 4.54205 0
M  V30 28330 H 2783.59 -3.23448 2.61765 0
M  V30 28331 H 2782.46 -4.53218 3.09653 0
M  V30 28332 H 2782.73 -4.19604 1.39231 0
M  V30 28333 N 2781.78 -1.26752 -0.936569 0
M  V30 28334 C 2782.73 -1.0853 -2.05728 0
M  V30 28335 C 2783.73 -0.0109081 -1.69396 0
M  V30 28336 O 2784.93 -0.167946 -1.79215 0
M  V30 28337 H 2781.31 -0.334145 -0.673685 0
M  V30 28338 H 2783.28 -2.03497 -2.18247 0
M  V30 28339 C 2782.03 -0.739904 -3.39736 0
M  V30 28340 H 2781.35 -1.55851 -3.68172 0
M  V30 28341 H 2782.79 -0.652223 -4.18954 0
M  V30 28342 C 2781.25 0.555229 -3.32293 0
M  V30 28343 O 2781.78 1.59222 -3.68797 0
M  V30 28344 N 2779.99 0.54757 -2.85395 0
M  V30 28345 H 2779.53 -0.296712 -2.55885 0
M  V30 28346 H 2779.49 1.41423 -2.80797 0
M  V30 28347 N 2783.26 1.1418 -1.08631 0
M  V30 28348 C 2784.51 1.85545 -0.818589 0
M  V30 28349 C 2784.84 1.82855 0.654044 0
M  V30 28350 O 2784.12 1.26086 1.48097 0
M  V30 28351 C 2784.4 3.34078 -1.34403 0
M  V30 28352 C 2784.25 3.45328 -2.88217 0
M  V30 28353 C 2785.57 4.29251 -0.971144 0
M  V30 28354 H 2782.69 0.673697 -0.298833 0
M  V30 28355 H 2785.33 1.34068 -1.34632 0
M  V30 28356 H 2783.48 3.78047 -0.89513 0
M  V30 28357 H 2785.15 3.10128 -3.41494 0
M  V30 28358 H 2783.4 2.86465 -3.25761 0
M  V30 28359 H 2784.07 4.49743 -3.20055 0
M  V30 28360 H 2786.54 3.9331 -1.35816 0
M  V30 28361 H 2785.42 5.31632 -1.36595 0
M  V30 28362 H 2785.68 4.41933 0.121581 0
M  V30 28363 N 2784.74 0.872304 1.31258 0
M  V30 28364 C 2785.69 0.318938 2.30403 0
M  V30 28365 C 2786.68 -0.567239 1.59621 0
M  V30 28366 O 2787.89 -0.45308 1.74204 0
M  V30 28367 H 2784.26 0.0844605 0.747242 0
M  V30 28368 H 2786.23 1.16903 2.74547 0
M  V30 28369 C 2784.98 -0.462623 3.44609 0
M  V30 28370 H 2784.31 0.210006 3.99248 0
M  V30 28371 H 2785.75 -0.815113 4.16091 0
M  V30 28372 C 2784.21 -1.6548 2.93459 0
M  V30 28373 O 2784.74 -2.75411 2.92423 0
M  V30 28374 N 2782.94 -1.48771 2.49631 0
M  V30 28375 H 2782.49 -0.593408 2.50672 0
M  V30 28376 H 2782.45 -2.28678 2.15763 0
M  V30 28377 N 2786.22 -1.44374 0.631976 0
M  V30 28378 C 2787.18 -2.29114 -0.0627739 0
M  V30 28379 C 2788.18 -1.41085 -0.771469 0
M  V30 28380 O 2789.37 -1.62948 -0.61593 0
M  V30 28381 C 2786.5 -3.22683 -1.09947 0
M  V30 28382 H 2787.7 -2.92029 0.682561 0
M  V30 28383 H 2785.25 -1.513 0.392154 0
M  V30 28384 H 2785.98 -2.64619 -1.87476 0
M  V30 28385 H 2785.77 -3.87556 -0.595218 0
M  V30 28386 H 2787.26 -3.86339 -1.58532 0
M  V30 28387 N 2787.7 -0.372575 -1.53133 0
M  V30 28388 C 2788.92 0.218062 -2.0625 0
M  V30 28389 C 2789.35 1.41109 -1.24378 0
M  V30 28390 O 2788.7 1.79359 -0.264585 0
M  V30 28391 C 2788.75 0.582814 -3.55859 0
M  V30 28392 O 2787.86 1.6791 -3.7667 0
M  V30 28393 H 2787.2 0.0300924 -0.663318 0
M  V30 28394 H 2789.73 -0.535204 -1.97476 0
M  V30 28395 H 2789.74 0.851855 -3.99008 0
M  V30 28396 H 2788.41 -0.289501 -4.14891 0
M  V30 28397 H 2786.99 1.40507 -3.45416 0
M  V30 28398 N 2789.17 1.5727 -0.101929 0
M  V30 28399 C 2790.12 2.10942 0.865309 0
M  V30 28400 C 2791.11 1.02607 1.23938 0
M  V30 28401 O 2792.3 1.2887 1.21332 0
M  V30 28402 C 2789.43 2.69877 2.12182 0
M  V30 28403 C 2788.52 3.85266 1.77288 0
M  V30 28404 N 2788.91 4.93019 1.12985 0
M  V30 28405 C 2787.2 3.95129 2.06855 0
M  V30 28406 C 2787.91 5.7358 0.96853 0
M  V30 28407 N 2786.88 5.22837 1.48805 0
M  V30 28408 H 2790.68 2.91633 0.364317 0
M  V30 28409 H 2788.2 1.62085 0.101076 0
M  V30 28410 H 2790.19 3.06662 2.82425 0
M  V30 28411 H 2788.85 1.90643 2.62841 0
M  V30 28412 H 2789.87 5.11749 0.795845 0
M  V30 28413 H 2786.54 3.26914 2.5968 0
M  V30 28414 H 2787.93 6.70288 0.465114 0
M  V30 28415 N 2790.65 -0.171793 1.56661 0
M  V30 28416 C 2791.9 -0.889813 1.82237 0
M  V30 28417 C 2792.23 -1.81917 0.679705 0
M  V30 28418 O 2791.51 -1.91877 -0.31837 0
M  V30 28419 C 2791.79 -1.68589 3.18198 0
M  V30 28420 C 2791.64 -0.779695 4.42991 0
M  V30 28421 C 2792.96 -2.65368 3.51095 0
M  V30 28422 H 2790.08 -0.322044 0.662915 0
M  V30 28423 H 2792.72 -0.156047 1.89358 0
M  V30 28424 H 2790.87 -2.31144 3.12257 0
M  V30 28425 H 2792.54 -0.167059 4.60997 0
M  V30 28426 H 2790.79 -0.0877201 4.33711 0
M  V30 28427 H 2791.46 -1.37221 5.34672 0
M  V30 28428 H 2793.93 -2.1294 3.57485 0
M  V30 28429 H 2792.81 -3.18136 4.47304 0
M  V30 28430 H 2793.07 -3.45544 2.75775 0
M  V30 28431 N 2792.13 -1.51324 -0.44033 0
M  V30 28432 C 2793.38 -1.64087 -1.19178 0
M  V30 28433 C 2793.71 -0.354609 -1.90935 0
M  V30 28434 O 2792.98 0.645643 -1.83471 0
M  V30 28435 C 2793.27 -2.84218 -2.21115 0
M  V30 28436 C 2793.12 -4.22812 -1.5346 0
M  V30 28437 C 2794.44 -2.9987 -3.22127 0
M  V30 28438 H 2791.56 -0.597176 -0.431914 0
M  V30 28439 H 2794.2 -1.838 -0.48141 0
M  V30 28440 H 2792.35 -2.67542 -2.81698 0
M  V30 28441 H 2794.02 -4.5115 -0.962376 0
M  V30 28442 H 2792.27 -4.25648 -0.837011 0
M  V30 28443 H 2792.94 -5.02856 -2.27685 0
M  V30 28444 H 2795.41 -3.15238 -2.71596 0
M  V30 28445 H 2794.29 -3.85495 -3.90749 0
M  V30 28446 H 2794.55 -2.1181 -3.88058 0
M  V30 28447 N 2793.61 0.695578 -1.41419 0
M  V30 28448 C 2794.56 1.80162 -1.39734 0
M  V30 28449 C 2795.54 1.58589 -0.271717 0
M  V30 28450 O 2796.73 1.69421 -0.512384 0
M  V30 28451 C 2793.86 3.18467 -1.28193 0
M  V30 28452 C 2792.95 3.45735 -2.45618 0
M  V30 28453 N 2793.34 3.43702 -3.71083 0
M  V30 28454 C 2791.64 3.76283 -2.3943 0
M  V30 28455 C 2792.34 3.69874 -4.48963 0
M  V30 28456 N 2791.32 3.89618 -3.79077 0
M  V30 28457 H 2795.12 1.76953 -2.34659 0
M  V30 28458 H 2792.63 0.895567 -1.35475 0
M  V30 28459 H 2794.63 3.97698 -1.25067 0
M  V30 28460 H 2793.29 3.22888 -0.342525 0
M  V30 28461 H 2794.3 3.24083 -4.03969 0
M  V30 28462 H 2790.98 3.88075 -1.53962 0
M  V30 28463 H 2792.37 3.74438 -5.57894 0
M  V30 28464 N 2795.09 1.27247 0.929833 0
M  V30 28465 C 2796.34 1.13236 1.67398 0
M  V30 28466 C 2796.66 -0.32271 1.92311 0
M  V30 28467 O 2795.93 -1.2261 1.52786 0
M  V30 28468 H 2794.51 0.416063 0.620404 0
M  V30 28469 H 2797.17 1.59743 1.1166 0
M  V30 28470 H 2796.26 1.6598 2.64305 0
M  V30 28471 N 2796.57 -1.13603 1.09235 0
M  V30 28472 C 2797.98 -1.36825 0.821654 0
M  V30 28473 C 2798.18 -1.93417 -0.564987 0
M  V30 28474 O 2797.24 -2.15236 -1.32022 0
M  V30 28475 C 2798.55 -2.32143 1.91128 0
M  V30 28476 C 2800.1 -2.45763 1.93828 0
M  V30 28477 C 2800.57 -3.44388 3.01929 0
M  V30 28478 N 2802.06 -3.51937 3.01155 0
M  V30 28479 C 2802.8 -4.28124 3.81442 0
M  V30 28480 N 2802.3 -5.07481 4.7163 0
M  V30 28481 N 2804.09 -4.23405 3.69709 0
M  V30 28482 H 2796.24 -0.7522 1.98635 0
M  V30 28483 H 2798.5 -0.393467 0.862489 0
M  V30 28484 H 2798.21 -1.97712 2.90865 0
M  V30 28485 H 2798.08 -3.32139 1.78783 0
M  V30 28486 H 2800.47 -2.79482 0.947309 0
M  V30 28487 H 2800.55 -1.45699 2.10251 0
M  V30 28488 H 2800.19 -3.11401 4.01238 0
M  V30 28489 H 2800.12 -4.44252 2.8275 0
M  V30 28490 H 2802.62 -2.95313 2.35794 0
M  V30 28491 H 2802.93 -5.62915 5.29478 0
M  V30 28492 H 2801.27 -5.0672 4.75667 0
M  V30 28493 H 2804.46 -3.60484 2.98612 0
M  V30 28494 H 2804.64 -4.82528 4.32517 0
M  V30 28495 N 2798.04 -0.879253 -1.30793 0
M  V30 28496 C 2799.29 -0.490909 -1.95635 0
M  V30 28497 C 2799.61 0.963645 -1.70215 0
M  V30 28498 O 2800.81 1.45857 -2.28994 0
M  V30 28499 C 2799.27 -0.826991 -3.5027 0
M  V30 28500 C 2798.88 -2.29893 -3.84517 0
M  V30 28501 C 2800.62 -0.507568 -4.21455 0
M  V30 28502 C 2798.53 -2.57694 -5.32304 0
M  V30 28503 H 2797.46 -0.179854 -0.732235 0
M  V30 28504 H 2800.11 -1.07344 -1.48827 0
M  V30 28505 H 2798.49 -0.173611 -3.95619 0
M  V30 28506 H 2799.66 -2.99615 -3.50097 0
M  V30 28507 H 2797.98 -2.58531 -3.26421 0
M  V30 28508 H 2800.58 -0.692386 -5.30198 0
M  V30 28509 H 2800.92 0.552645 -4.12615 0
M  V30 28510 H 2801.45 -1.11789 -3.8177 0
M  V30 28511 H 2798.19 -3.62434 -5.46189 0
M  V30 28512 H 2797.71 -1.92576 -5.68045 0
M  V30 28513 H 2799.39 -2.429 -5.99674 0
M  V30 28514 N 2799.52 1.44037 -0.639624 0
M  V30 28515 C 2800.45 2.33453 0.0469033 0
M  V30 28516 C 2801.43 1.48695 0.826064 0
M  V30 28517 O 2802.62 1.77394 0.790254 0
M  V30 28518 C 2799.75 3.31882 1.02332 0
M  V30 28519 C 2798.7 4.26523 0.355209 0
M  V30 28520 C 2798.03 5.14885 1.44212 0
M  V30 28521 C 2799.33 5.16975 -0.743889 0
M  V30 28522 H 2801.02 2.91107 -0.699786 0
M  V30 28523 H 2798.57 1.39978 -0.33797 0
M  V30 28524 H 2800.52 3.93325 1.5124 0
M  V30 28525 H 2799.24 2.72455 1.801 0
M  V30 28526 H 2797.9 3.66425 -0.113304 0
M  V30 28527 H 2797.55 4.51806 2.21089 0
M  V30 28528 H 2797.25 5.79021 1.00042 0
M  V30 28529 H 2798.78 5.79201 1.93284 0
M  V30 28530 H 2800.19 5.72305 -0.337545 0
M  V30 28531 H 2798.59 5.89759 -1.10924 0
M  V30 28532 H 2799.66 4.57478 -1.60753 0
M  V30 28533 N 2801 0.380691 1.52933 0
M  V30 28534 C 2801.91 -0.466152 2.29922 0
M  V30 28535 C 2802.93 -1.0792 1.36489 0
M  V30 28536 O 2804.1 -1.08687 1.69555 0
M  V30 28537 C 2801.17 -1.58261 3.08471 0
M  V30 28538 C 2800.23 -0.995553 4.17597 0
M  V30 28539 C 2799.46 -2.0588 4.92391 0
M  V30 28540 O 2799.68 -3.27246 4.6719 0
M  V30 28541 O 2798.62 -1.68092 5.77952 0
M  V30 28542 H 2802.44 0.160788 3.03274 0
M  V30 28543 H 2800.03 0.144643 1.48698 0
M  V30 28544 H 2801.91 -2.23139 3.57473 0
M  V30 28545 H 2800.59 -2.19467 2.37941 0
M  V30 28546 H 2799.49 -0.310266 3.72811 0
M  V30 28547 H 2800.83 -0.427831 4.90337 0
M  V30 28548 N 2802.48 -1.57214 0.110268 0
M  V30 28549 C 2803.41 -2.10542 -0.880187 0
M  V30 28550 C 2804.39 -1.01966 -1.26656 0
M  V30 28551 O 2805.57 -1.29564 -1.36914 0
M  V30 28552 C 2802.7 -2.59493 -2.17672 0
M  V30 28553 C 2801.75 -3.79872 -1.93907 0
M  V30 28554 S 2802.58 -5.22713 -1.16327 0
M  V30 28555 C 2803.73 -5.75025 -2.47178 0
M  V30 28556 H 2803.97 -2.94224 -0.426563 0
M  V30 28557 H 2801.5 -1.54054 -0.103333 0
M  V30 28558 H 2803.46 -2.88352 -2.9217 0
M  V30 28559 H 2802.12 -1.76009 -2.60153 0
M  V30 28560 H 2801.31 -4.12242 -2.89953 0
M  V30 28561 H 2800.91 -3.51584 -1.27532 0
M  V30 28562 H 2803.21 -5.84217 -3.43069 0
M  V30 28563 H 2804.15 -6.73264 -2.19365 0
M  V30 28564 H 2804.56 -5.03041 -2.56145 0
M  V30 28565 N 2803.96 0.163482 -1.5675 0
M  V30 28566 C 2805.23 0.906569 -1.73323 0
M  V30 28567 C 2805.61 2.00057 -0.673815 0
M  V30 28568 O 2804.96 2.26386 0.310082 0
M  V30 28569 C 2805.17 1.46413 -3.16803 0
M  V30 28570 C 2806.52 1.934 -3.77997 0
M  V30 28571 O 2807.54 1.56191 -3.2013 0
M  V30 28572 O 2806.4 2.61967 -4.7962 0
M  V30 28573 H 2803.5 0.427259 -0.708081 0
M  V30 28574 H 2806.04 0.150698 -1.6903 0
M  V30 28575 H 2804.81 0.677121 -3.85397 0
M  V30 28576 H 2804.44 2.28397 -3.25454 0
M  V30 28577 N 2805.43 1.51555 0.432299 0
M  V30 28578 C 2806.68 1.63705 1.17828 0
M  V30 28579 C 2807 0.361593 1.92229 0
M  V30 28580 O 2808.2 0.362543 2.69069 0
M  V30 28581 C 2806.66 2.89133 2.14313 0
M  V30 28582 C 2806.27 4.23702 1.45537 0
M  V30 28583 C 2808.01 3.10642 2.89313 0
M  V30 28584 C 2805.92 5.40275 2.40535 0
M  V30 28585 H 2804.85 0.609757 0.443522 0
M  V30 28586 H 2807.5 1.78026 0.444847 0
M  V30 28587 H 2805.88 2.68457 2.91113 0
M  V30 28588 H 2807.05 4.54777 0.742613 0
M  V30 28589 H 2805.37 4.08111 0.8267 0
M  V30 28590 H 2807.97 3.94908 3.60488 0
M  V30 28591 H 2808.31 2.23924 3.50947 0
M  V30 28592 H 2808.84 3.31681 2.1962 0
M  V30 28593 H 2805.58 6.29267 1.83583 0
M  V30 28594 H 2805.1 5.13569 3.0985 0
M  V30 28595 H 2806.78 5.72426 3.01558 0
M  V30 28596 N 2806.91 -0.688069 1.41786 0
M  V30 28597 C 2807.82 -1.83155 1.46599 0
M  V30 28598 C 2808.84 -1.70321 0.355892 0
M  V30 28599 O 2810.01 -1.92105 0.60477 0
M  V30 28600 C 2807.08 -3.19198 1.35327 0
M  V30 28601 C 2806.14 -3.44086 2.56717 0
M  V30 28602 C 2805.37 -4.73638 2.45973 0
M  V30 28603 O 2805.6 -5.50639 1.48837 0
M  V30 28604 O 2804.53 -4.99476 3.35868 0
M  V30 28605 H 2808.36 -1.82051 2.43086 0
M  V30 28606 H 2805.94 -0.842104 1.23406 0
M  V30 28607 H 2807.82 -4.00405 1.31354 0
M  V30 28608 H 2806.5 -3.20969 0.419592 0
M  V30 28609 H 2805.4 -2.62779 2.66266 0
M  V30 28610 H 2806.74 -3.47135 3.48939 0
M  V30 28611 N 2808.39 -1.27739 -0.923072 0
M  V30 28612 C 2809.3 -1.12688 -2.05763 0
M  V30 28613 C 2810.32 -0.0557503 -1.73911 0
M  V30 28614 O 2811.49 -0.263172 -1.99673 0
M  V30 28615 C 2808.56 -0.780422 -3.37802 0
M  V30 28616 C 2807.62 -1.93293 -3.83323 0
M  V30 28617 C 2806.85 -1.6029 -5.09061 0
M  V30 28618 O 2807.07 -0.512928 -5.68089 0
M  V30 28619 O 2806.01 -2.44357 -5.50067 0
M  V30 28620 H 2809.83 -2.07911 -2.21375 0
M  V30 28621 H 2807.42 -1.06969 -1.04297 0
M  V30 28622 H 2809.3 -0.600742 -4.17096 0
M  V30 28623 H 2807.98 0.142234 -3.23387 0
M  V30 28624 H 2806.88 -2.1677 -3.04896 0
M  V30 28625 H 2808.22 -2.83595 -4.02287 0
M  V30 28626 N 2809.87 1.13022 -1.09836 0
M  V30 28627 C 2811.12 1.83748 -0.831839 0
M  V30 28628 C 2811.43 1.84669 0.644731 0
M  V30 28629 O 2812.64 2.51329 1.02693 0
M  V30 28630 C 2811.09 3.29913 -1.43823 0
M  V30 28631 C 2810.7 3.37369 -2.94765 0
M  V30 28632 C 2812.44 4.05653 -1.25084 0
M  V30 28633 C 2810.35 4.77832 -3.48469 0
M  V30 28634 H 2809.28 0.688438 -0.307522 0
M  V30 28635 H 2811.93 1.27305 -1.32158 0
M  V30 28636 H 2810.31 3.86185 -0.876174 0
M  V30 28637 H 2811.49 2.91069 -3.57233 0
M  V30 28638 H 2809.8 2.75098 -3.12586 0
M  V30 28639 H 2812.4 5.09359 -1.62658 0
M  V30 28640 H 2812.74 4.15858 -0.191855 0
M  V30 28641 H 2813.28 3.55722 -1.78063 0
M  V30 28642 H 2810.02 4.7282 -4.54006 0
M  V30 28643 H 2809.54 5.24609 -2.90766 0
M  V30 28644 H 2811.21 5.4676 -3.45923 0
M  V30 28645 N 2811.35 0.886177 1.30325 0
M  V30 28646 C 2812.28 0.311112 2.27079 0
M  V30 28647 C 2813.29 -0.534992 1.53758 0
M  V30 28648 O 2814.48 -0.354347 1.74948 0
M  V30 28649 C 2811.58 -0.576169 3.33966 0
M  V30 28650 C 2810.75 0.241141 4.36735 0
M  V30 28651 C 2809.81 -0.576824 5.23029 0
M  V30 28652 O 2808.84 0.000902282 5.692 0
M  V30 28653 N 2810.04 -1.88569 5.49019 0
M  V30 28654 H 2812.81 1.14264 2.77063 0
M  V30 28655 H 2810.37 0.749284 1.43518 0
M  V30 28656 H 2812.36 -1.12946 3.8862 0
M  V30 28657 H 2810.93 -1.30837 2.83902 0
M  V30 28658 H 2810.15 0.975872 3.8193 0
M  V30 28659 H 2811.44 0.80136 5.0245 0
M  V30 28660 H 2810.83 -2.37797 5.13292 0
M  V30 28661 H 2809.39 -2.3864 6.06543 0
M  V30 28662 N 2812.82 -1.43695 0.647253 0
M  V30 28663 C 2813.77 -2.32523 -0.0599696 0
M  V30 28664 C 2814.77 -1.48272 -0.819251 0
M  V30 28665 O 2815.97 -1.64518 -0.730327 0
M  V30 28666 H 2812.35 -0.75103 -0.038174 0
M  V30 28667 H 2814.32 -2.89903 0.707029 0
M  V30 28668 C 2813.07 -3.32499 -1.01684 0
M  V30 28669 H 2812.39 -3.97349 -0.442014 0
M  V30 28670 H 2813.83 -3.97298 -1.48088 0
M  V30 28671 C 2812.29 -2.62644 -2.10997 0
M  V30 28672 O 2812.82 -2.43746 -3.19297 0
M  V30 28673 N 2811.03 -2.22116 -1.87384 0
M  V30 28674 H 2810.57 -2.37686 -0.993132 0
M  V30 28675 H 2810.53 -1.75706 -2.6072 0
M  V30 28676 N 2814.3 -0.388796 -1.52729 0
M  V30 28677 C 2815.54 0.193336 -2.03484 0
M  V30 28678 C 2815.91 1.44085 -1.269 0
M  V30 28679 O 2817.11 2.10011 -1.67777 0
M  V30 28680 C 2815.38 0.455263 -3.54489 0
M  V30 28681 S 2816.94 1.00775 -4.27071 0
M  V30 28682 H 2813.76 0.0545007 -0.708908 0
M  V30 28683 H 2816.36 -0.537026 -1.87979 0
M  V30 28684 H 2815.06 -0.459794 -4.07816 0
M  V30 28685 H 2814.59 1.21406 -3.74198 0
M  V30 28686 H 2816.61 2.29015 -4.40189 0
M  V30 28687 N 2815.78 1.57153 -0.118604 0
M  V30 28688 C 2817.01 1.99243 0.546431 0
M  V30 28689 C 2817.42 0.997176 1.60789 0
M  V30 28690 O 2816.76 -0.0181422 1.83691 0
M  V30 28691 C 2816.82 3.37745 1.23161 0
M  V30 28692 C 2816.49 4.55891 0.318146 0
M  V30 28693 C 2817.48 5.18009 -0.44308 0
M  V30 28694 C 2815.17 5.01776 0.229333 0
M  V30 28695 C 2817.16 6.24398 -1.28085 0
M  V30 28696 C 2814.85 6.08027 -0.612073 0
M  V30 28697 C 2815.85 6.69205 -1.3658 0
M  V30 28698 O 2815.54 7.73403 -2.19323 0
M  V30 28699 H 2815.27 0.65931 0.149286 0
M  V30 28700 H 2817.82 2.04408 -0.201639 0
M  V30 28701 H 2816.05 3.29333 2.02674 0
M  V30 28702 H 2817.74 3.64126 1.79352 0
M  V30 28703 H 2818.51 4.83475 -0.384335 0
M  V30 28704 H 2814.39 4.53905 0.805691 0
M  V30 28705 H 2817.93 6.72079 -1.86964 0
M  V30 28706 H 2813.83 6.4199 -0.672213 0
M  V30 28707 H 2814.6 7.90498 -2.12261 0
M  V30 28708 N 2817.26 -0.155167 1.56834 0
M  V30 28709 C 2818.49 -0.883011 1.86779 0
M  V30 28710 C 2818.9 -1.7562 0.703855 0
M  V30 28711 O 2818.24 -1.80605 -0.335779 0
M  V30 28712 C 2818.3 -1.79755 3.11333 0
M  V30 28713 C 2817.97 -1.10235 4.43506 0
M  V30 28714 C 2818.96 -0.460113 5.1786 0
M  V30 28715 C 2816.65 -1.09429 4.90235 0
M  V30 28716 C 2818.64 0.180894 6.37143 0
M  V30 28717 C 2816.33 -0.449462 6.09445 0
M  V30 28718 C 2817.33 0.187008 6.82744 0
M  V30 28719 O 2817.01 0.821626 7.9969 0
M  V30 28720 H 2816.75 -0.261138 0.623524 0
M  V30 28721 H 2819.3 -0.155168 2.04813 0
M  V30 28722 H 2817.53 -2.56613 2.89287 0
M  V30 28723 H 2819.22 -2.39664 3.27591 0
M  V30 28724 H 2819.99 -0.458204 4.82831 0
M  V30 28725 H 2815.86 -1.5791 4.33111 0
M  V30 28726 H 2819.41 0.678276 6.94295 0
M  V30 28727 H 2815.31 -0.44901 6.43936 0
M  V30 28728 H 2816.07 0.72248 8.15305 0
M  V30 28729 N 2818.74 -1.51782 -0.424256 0
M  V30 28730 C 2820.01 -1.55648 -1.18462 0
M  V30 28731 C 2820.39 -0.328475 -2.08529 0
M  V30 28732 O 2819.74 0.685654 -2.1797 0
M  V30 28733 C 2819.95 -2.87734 -1.97509 0
M  V30 28734 C 2821.3 -3.40174 -2.541 0
M  V30 28735 O 2822.32 -2.89373 -2.07706 0
M  V30 28736 O 2821.18 -4.28847 -3.38752 0
M  V30 28737 H 2818.28 -0.626324 -0.540044 0
M  V30 28738 H 2820.82 -1.64102 -0.432263 0
M  V30 28739 H 2819.59 -3.68565 -1.31437 0
M  V30 28740 H 2819.22 -2.82503 -2.79782 0
M  V30 28741 N 2820.21 0.68054 -1.42149 0
M  V30 28742 C 2821.16 1.79421 -1.45178 0
M  V30 28743 C 2822.13 1.63287 -0.304381 0
M  V30 28744 O 2823.32 1.83923 -0.507623 0
M  V30 28745 C 2820.46 3.17414 -1.35434 0
M  V30 28746 C 2819.57 3.44875 -2.60164 0
M  V30 28747 C 2818.7 4.72564 -2.42604 0
M  V30 28748 C 2817.74 4.93041 -3.62735 0
M  V30 28749 N 2816.88 6.11966 -3.44153 0
M  V30 28750 H 2821.72 1.76167 -2.40352 0
M  V30 28751 H 2819.26 0.860086 -1.19335 0
M  V30 28752 H 2821.22 3.97149 -1.27784 0
M  V30 28753 H 2819.85 3.19807 -0.438592 0
M  V30 28754 H 2818.9 2.59435 -2.78204 0
M  V30 28755 H 2820.21 3.55902 -3.49479 0
M  V30 28756 H 2819.36 5.6038 -2.32507 0
M  V30 28757 H 2818.1 4.6381 -1.5077 0
M  V30 28758 H 2817.11 4.03669 -3.73271 0
M  V30 28759 H 2818.33 5.03644 -4.55543 0
M  V30 28760 H 2816.28 6.04397 -2.55031 0
M  V30 28761 H 2816.2 6.23829 -4.27052 0
M  V30 28762 H 2817.46 7.02476 -3.37857 0
M  V30 28763 N 2821.69 1.28226 0.916285 0
M  V30 28764 C 2822.62 1.14468 2.03518 0
M  V30 28765 C 2823.6 0.0431143 1.70045 0
M  V30 28766 O 2824.79 0.219653 1.92954 0
M  V30 28767 C 2821.92 0.803087 3.37887 0
M  V30 28768 C 2820.87 1.85914 3.85512 0
M  V30 28769 C 2820.2 1.37125 5.16818 0
M  V30 28770 C 2821.5 3.26526 4.07649 0
M  V30 28771 H 2823.19 2.08068 2.15286 0
M  V30 28772 H 2820.74 1.00176 1.03444 0
M  V30 28773 H 2822.69 0.693611 4.15653 0
M  V30 28774 H 2821.42 -0.168617 3.26164 0
M  V30 28775 H 2820.07 1.95772 3.0995 0
M  V30 28776 H 2819.72 0.388678 5.01496 0
M  V30 28777 H 2819.42 2.07738 5.49653 0
M  V30 28778 H 2820.95 1.27494 5.97141 0
M  V30 28779 H 2822.36 3.19604 4.75948 0
M  V30 28780 H 2820.76 3.94951 4.51811 0
M  V30 28781 H 2821.83 3.70732 3.12547 0
M  V30 28782 N 2823.17 -1.12438 1.10433 0
M  V30 28783 C 2824.59 -1.35946 0.83612 0
M  V30 28784 C 2824.79 -1.94005 -0.544441 0
M  V30 28785 O 2823.84 -2.16624 -1.29732 0
M  V30 28786 C 2825.16 -2.30103 1.93579 0
M  V30 28787 C 2826.7 -2.43694 1.96424 0
M  V30 28788 C 2827.18 -3.41166 3.05565 0
M  V30 28789 N 2828.67 -3.48723 3.04871 0
M  V30 28790 C 2829.4 -4.24054 3.85961 0
M  V30 28791 N 2828.9 -5.0245 4.76986 0
M  V30 28792 N 2830.69 -4.1946 3.74179 0
M  V30 28793 H 2822.84 -0.731089 1.99421 0
M  V30 28794 H 2825.11 -0.384297 0.866614 0
M  V30 28795 H 2824.81 -1.94616 2.92946 0
M  V30 28796 H 2824.69 -3.30224 1.82296 0
M  V30 28797 H 2827.07 -2.78461 0.976899 0
M  V30 28798 H 2827.16 -1.43461 2.11784 0
M  V30 28799 H 2826.8 -3.07128 4.04518 0
M  V30 28800 H 2826.73 -4.41229 2.87446 0
M  V30 28801 H 2829.22 -2.92795 2.38913 0
M  V30 28802 H 2829.53 -5.57267 5.35419 0
M  V30 28803 H 2827.88 -5.01647 4.81015 0
M  V30 28804 H 2831.07 -3.57296 3.02419 0
M  V30 28805 H 2831.24 -4.77913 4.37611 0
M  V30 28806 N 2824.65 -0.893076 -1.29853 0
M  V30 28807 C 2825.9 -0.511632 -1.95103 0
M  V30 28808 C 2826.21 0.945537 -1.71228 0
M  V30 28809 O 2827.42 1.4342 -2.30528 0
M  V30 28810 C 2825.87 -0.864095 -3.49373 0
M  V30 28811 C 2825.48 -2.33958 -3.82057 0
M  V30 28812 C 2827.23 -0.552241 -4.20893 0
M  V30 28813 C 2825.13 -2.63325 -5.29541 0
M  V30 28814 H 2824.06 -0.18761 -0.730287 0
M  V30 28815 H 2826.71 -1.08916 -1.4768 0
M  V30 28816 H 2825.1 -0.215562 -3.95413 0
M  V30 28817 H 2826.27 -3.03311 -3.46899 0
M  V30 28818 H 2824.58 -2.61979 -3.2366 0
M  V30 28819 H 2827.18 -0.748582 -5.29434 0
M  V30 28820 H 2827.52 0.508851 -4.13178 0
M  V30 28821 H 2828.06 -1.15832 -3.80562 0
M  V30 28822 H 2824.8 -3.68207 -5.42314 0
M  V30 28823 H 2824.32 -1.9859 -5.6597 0
M  V30 28824 H 2826 -2.49247 -5.97064 0
M  V30 28825 N 2826.13 1.4335 -0.654865 0
M  V30 28826 C 2827.36 2.05845 -0.176465 0
M  V30 28827 C 2827.77 1.49178 1.16372 0
M  V30 28828 O 2827.11 0.618352 1.7298 0
M  V30 28829 C 2827.17 3.59498 -0.0126476 0
M  V30 28830 C 2826.83 4.38755 -1.27839 0
M  V30 28831 C 2827.83 4.70708 -2.20749 0
M  V30 28832 C 2825.52 4.78736 -1.52043 0
M  V30 28833 C 2827.51 5.41552 -3.36154 0
M  V30 28834 C 2825.2 5.49325 -2.67742 0
M  V30 28835 C 2826.2 5.80655 -3.59623 0
M  V30 28836 O 2825.88 6.49801 -4.733 0
M  V30 28837 H 2825.62 0.67025 -0.08798 0
M  V30 28838 H 2828.17 1.84816 -0.896226 0
M  V30 28839 H 2826.4 3.79108 0.7625 0
M  V30 28840 H 2828.09 4.03687 0.423321 0
M  V30 28841 H 2828.85 4.40338 -2.03292 0
M  V30 28842 H 2824.73 4.53755 -0.814067 0
M  V30 28843 H 2828.28 5.65924 -4.07891 0
M  V30 28844 H 2824.17 5.79111 -2.85132 0
M  V30 28845 H 2824.94 6.68284 -4.72587 0
M  V30 28846 N 2827.61 0.39689 1.52521 0
M  V30 28847 C 2828.88 -0.240808 1.94112 0
M  V30 28848 C 2829.26 -1.63697 1.33291 0
M  V30 28849 O 2828.61 -2.22874 0.50394 0
M  V30 28850 C 2828.82 -0.259505 3.48034 0
M  V30 28851 C 2830.17 -0.484791 4.21823 0
M  V30 28852 O 2831.19 -0.33939 3.54579 0
M  V30 28853 O 2830.05 -0.770317 5.41044 0
M  V30 28854 H 2827.15 -0.151657 0.812976 0
M  V30 28855 H 2829.69 0.451947 1.63571 0
M  V30 28856 H 2828.46 0.718146 3.84654 0
M  V30 28857 H 2828.09 -0.996869 3.849 0
M  V30 28858 N 2829.08 -1.57088 0.126936 0
M  V30 28859 C 2830.33 -1.95079 -0.528088 0
M  V30 28860 C 2830.65 -1.01163 -1.66707 0
M  V30 28861 O 2829.92 -0.0693872 -1.95777 0
M  V30 28862 H 2828.5 -0.720261 -0.198074 0
M  V30 28863 H 2831.16 -1.93894 0.197738 0
M  V30 28864 H 2830.26 -2.98311 -0.917455 0
M  V30 28865 N 2830.56 0.146848 -1.56914 0
M  V30 28866 C 2831.97 0.706897 -1.728 0
M  V30 28867 C 2832.32 1.81654 -0.741361 0
M  V30 28868 O 2831.45 2.16204 0.0919782 0
M  V30 28869 C 2832.04 1.28906 -3.13319 0
M  V30 28870 C 2830.6 1.79568 -3.30806 0
M  V30 28871 C 2829.75 0.684205 -2.68726 0
M  V30 28872 H 2832.7 -0.078821 -1.58504 0
M  V30 28873 H 2832.72 2.15886 -3.13327 0
M  V30 28874 H 2832.23 0.481217 -3.85105 0
M  V30 28875 H 2830.33 2.62918 -2.64017 0
M  V30 28876 H 2830.45 1.92428 -4.38757 0
M  V30 28877 H 2828.81 1.11087 -2.29198 0
M  V30 28878 H 2829.59 -0.112195 -3.43117 0
M  V30 28879 N 2832.04 1.52005 0.4162 0
M  V30 28880 C 2833.26 1.69846 1.19026 0
M  V30 28881 C 2833.69 0.404136 1.83707 0
M  V30 28882 O 2833.05 -0.637757 1.69713 0
M  V30 28883 C 2833.1 2.83036 2.23434 0
M  V30 28884 O 2832.2 2.48112 3.29415 0
M  V30 28885 H 2831.54 0.56564 0.347775 0
M  V30 28886 H 2834.07 1.98674 0.488836 0
M  V30 28887 H 2834.08 3.07742 2.67879 0
M  V30 28888 H 2832.76 3.76947 1.75738 0
M  V30 28889 H 2831.33 2.34053 2.90299 0
M  V30 28890 N 2833.52 -0.672992 1.42508 0
M  V30 28891 C 2834.77 -1.4288 1.42366 0
M  V30 28892 C 2835.08 -1.9555 0.0441942 0
M  V30 28893 O 2836.29 -2.71383 -0.0798202 0
M  V30 28894 C 2834.74 -2.58477 2.50435 0
M  V30 28895 C 2834.35 -2.12499 3.94396 0
M  V30 28896 C 2836.09 -3.35976 2.59461 0
M  V30 28897 C 2834 -3.25189 4.9397 0
M  V30 28898 H 2832.93 -0.536773 0.52952 0
M  V30 28899 H 2835.58 -0.728418 1.68423 0
M  V30 28900 H 2833.96 -3.30892 2.17546 0
M  V30 28901 H 2835.14 -1.47225 4.36648 0
M  V30 28902 H 2833.45 -1.47933 3.89236 0
M  V30 28903 H 2836.05 -4.19906 3.31033 0
M  V30 28904 H 2836.39 -3.82689 1.63875 0
M  V30 28905 H 2836.93 -2.70632 2.91553 0
M  V30 28906 H 2833.66 -2.83466 5.91039 0
M  V30 28907 H 2833.18 -3.89239 4.56348 0
M  V30 28908 H 2834.86 -3.90628 5.1577 0
M  V30 28909 N 2835 -1.2871 -0.909472 0
M  V30 28910 C 2835.95 -1.0964 -1.99908 0
M  V30 28911 C 2836.93 -0.0187483 -1.60889 0
M  V30 28912 O 2838.12 -0.239369 -1.75374 0
M  V30 28913 C 2835.25 -0.764761 -3.34673 0
M  V30 28914 C 2834.34 -1.88146 -3.80081 0
M  V30 28915 N 2834.73 -3.12368 -3.97819 0
M  V30 28916 C 2833.03 -1.77228 -4.09275 0
M  V30 28917 C 2833.73 -3.85159 -4.35922 0
M  V30 28918 N 2832.7 -3.13036 -4.4442 0
M  V30 28919 H 2836.5 -2.03887 -2.11678 0
M  V30 28920 H 2834.02 -1.19692 -1.09761 0
M  V30 28921 H 2836.02 -0.609205 -4.12425 0
M  V30 28922 H 2834.68 0.169895 -3.24255 0
M  V30 28923 H 2835.69 -3.47931 -3.8362 0
M  V30 28924 H 2832.36 -0.909692 -4.07469 0
M  V30 28925 H 2833.75 -4.92014 -4.57572 0
M  V30 28926 N 2836.47 1.1185 -1.11028 0
M  V30 28927 C 2837.44 2.15948 -0.768044 0
M  V30 28928 C 2838.44 1.59416 0.21051 0
M  V30 28929 O 2839.63 1.74195 -0.0134285 0
M  V30 28930 C 2836.76 3.40618 -0.138738 0
M  V30 28931 H 2837.95 2.47737 -1.69017 0
M  V30 28932 H 2835.5 1.26963 -0.9116 0
M  V30 28933 H 2836.24 3.14434 0.793817 0
M  V30 28934 H 2836.02 3.82929 -0.84308 0
M  V30 28935 H 2837.51 4.17514 0.0847305 0
M  V30 28936 N 2837.95 0.89995 1.29378 0
M  V30 28937 C 2839.37 0.596085 1.48051 0
M  V30 28938 C 2839.57 -0.86234 1.82115 0
M  V30 28939 O 2838.62 -1.6425 1.91777 0
M  V30 28940 C 2839.94 1.52212 2.5933 0
M  V30 28941 C 2841.48 1.52735 2.73205 0
M  V30 28942 C 2841.96 2.43968 3.87613 0
M  V30 28943 N 2843.45 2.42016 3.94946 0
M  V30 28944 C 2844.19 3.09312 4.82819 0
M  V30 28945 N 2843.68 3.85887 5.75381 0
M  V30 28946 N 2845.47 2.98468 4.76312 0
M  V30 28947 H 2837.63 1.84321 1.05543 0
M  V30 28948 H 2839.89 0.789819 0.5243 0
M  V30 28949 H 2839.59 2.56126 2.41024 0
M  V30 28950 H 2839.47 1.24284 3.56137 0
M  V30 28951 H 2841.86 0.495665 2.90907 0
M  V30 28952 H 2841.94 1.84701 1.76972 0
M  V30 28953 H 2841.58 3.47231 3.70666 0
M  V30 28954 H 2841.51 2.09311 4.83215 0
M  V30 28955 H 2844 1.8638 3.28741 0
M  V30 28956 H 2844.31 4.3429 6.39228 0
M  V30 28957 H 2842.66 3.89994 5.75265 0
M  V30 28958 H 2845.85 2.38159 4.02986 0
M  V30 28959 H 2846.02 3.51189 5.44583 0
M  V30 28960 N 2839.43 -1.43001 0.662458 0
M  V30 28961 C 2840.36 -2.33498 -0.00975705 0
M  V30 28962 C 2841.34 -1.4999 -0.802303 0
M  V30 28963 O 2842.53 -1.78629 -0.761932 0
M  V30 28964 C 2839.66 -3.33468 -0.970388 0
M  V30 28965 C 2838.61 -4.27035 -0.287308 0
M  V30 28966 C 2837.94 -5.17114 -1.36003 0
M  V30 28967 C 2839.24 -5.15727 0.826041 0
M  V30 28968 H 2840.93 -2.89957 0.74601 0
M  V30 28969 H 2838.48 -1.39422 0.360197 0
M  V30 28970 H 2840.43 -3.95681 -1.44964 0
M  V30 28971 H 2839.15 -2.75285 -1.75743 0
M  V30 28972 H 2837.81 -3.66198 0.171584 0
M  V30 28973 H 2837.46 -4.55266 -2.13874 0
M  V30 28974 H 2837.16 -5.80539 -0.908174 0
M  V30 28975 H 2838.68 -5.82202 -1.84045 0
M  V30 28976 H 2840.1 -5.71696 0.428551 0
M  V30 28977 H 2838.5 -5.8792 1.20292 0
M  V30 28978 H 2839.57 -4.54863 1.68011 0
M  V30 28979 N 2840.91 -0.404973 -1.52308 0
M  V30 28980 C 2842.16 0.173494 -2.00952 0
M  V30 28981 C 2842.47 1.46578 -1.29515 0
M  V30 28982 O 2843.68 2.12525 -1.68954 0
M  V30 28983 C 2842.13 0.359738 -3.58098 0
M  V30 28984 C 2841.74 -0.920215 -4.38447 0
M  V30 28985 C 2843.48 0.893721 -4.14985 0
M  V30 28986 C 2841.39 -0.701388 -5.87226 0
M  V30 28987 H 2840.32 0.0686112 -0.750872 0
M  V30 28988 H 2842.97 -0.52978 -1.75686 0
M  V30 28989 H 2841.35 1.12524 -3.79677 0
M  V30 28990 H 2842.53 -1.69155 -4.2863 0
M  V30 28991 H 2840.84 -1.38031 -3.92857 0
M  V30 28992 H 2843.44 1.0734 -5.23815 0
M  V30 28993 H 2843.78 1.86724 -3.72075 0
M  V30 28994 H 2844.32 0.187383 -3.97358 0
M  V30 28995 H 2841.06 -1.64635 -6.34488 0
M  V30 28996 H 2840.58 0.0307234 -5.99792 0
M  V30 28997 H 2842.25 -0.341959 -6.46096 0
M  V30 28998 N 2842.39 1.57018 -0.135265 0
M  V30 28999 C 2843.63 1.95356 0.517735 0
M  V30 29000 C 2843.96 1.02045 1.66168 0
M  V30 29001 O 2843.23 0.0797687 1.95738 0
M  V30 29002 H 2841.81 0.721301 0.194252 0
M  V30 29003 H 2844.47 1.93787 -0.208017 0
M  V30 29004 H 2843.56 2.98793 0.901622 0
M  V30 29005 N 2843.86 -0.138524 1.5699 0
M  V30 29006 C 2844.83 -1.15474 1.97986 0
M  V30 29007 C 2845.83 -1.35396 0.86744 0
M  V30 29008 O 2847.02 -1.32244 1.13389 0
M  V30 29009 C 2844.15 -2.51333 2.30314 0
M  V30 29010 H 2845.34 -0.802845 2.88954 0
M  V30 29011 H 2842.9 -0.382162 1.51556 0
M  V30 29012 H 2843.63 -2.91479 1.42164 0
M  V30 29013 H 2843.42 -2.38232 3.11429 0
M  V30 29014 H 2844.91 -3.24508 2.62839 0
M  V30 29015 N 2845.34 -1.52224 -0.408133 0
M  V30 29016 C 2846.57 -1.69934 -1.17498 0
M  V30 29017 C 2846.98 -0.408907 -1.84728 0
M  V30 29018 O 2846.32 0.624995 -1.72741 0
M  V30 29019 C 2846.39 -2.77959 -2.27989 0
M  V30 29020 C 2846.05 -4.19677 -1.80887 0
M  V30 29021 C 2847.05 -5.03485 -1.29609 0
M  V30 29022 C 2844.73 -4.65916 -1.8769 0
M  V30 29023 C 2846.73 -6.31605 -0.857584 0
M  V30 29024 C 2844.41 -5.94024 -1.43451 0
M  V30 29025 C 2845.41 -6.76698 -0.925703 0
M  V30 29026 O 2845.1 -8.02407 -0.4897 0
M  V30 29027 H 2844.83 -0.572761 -0.359055 0
M  V30 29028 H 2847.38 -1.99564 -0.486153 0
M  V30 29029 H 2845.61 -2.43708 -3.00239 0
M  V30 29030 H 2847.3 -2.84259 -2.89744 0
M  V30 29031 H 2848.07 -4.68953 -1.23725 0
M  V30 29032 H 2843.95 -4.01669 -2.26237 0
M  V30 29033 H 2847.49 -6.96083 -0.459757 0
M  V30 29034 H 2843.39 -6.28064 -1.49015 0
M  V30 29035 H 2844.16 -8.16202 -0.612919 0
M  V30 29036 N 2846.82 0.665425 -1.42863 0
M  V30 29037 C 2848.06 1.43735 -1.45326 0
M  V30 29038 C 2848.42 1.91869 -0.0708307 0
M  V30 29039 O 2849.63 2.68783 0.029838 0
M  V30 29040 C 2847.9 2.59573 -2.45676 0
M  V30 29041 S 2849.46 3.48283 -2.66916 0
M  V30 29042 H 2846.27 0.4908 -0.514428 0
M  V30 29043 H 2848.88 0.773714 -1.79538 0
M  V30 29044 H 2847.58 2.22465 -3.44873 0
M  V30 29045 H 2847.11 3.308 -2.1292 0
M  V30 29046 H 2849.13 4.55883 -1.95922 0
M  V30 29047 N 2848.3 1.29191 0.902633 0
M  V30 29048 C 2849.55 1.16761 1.64958 0
M  V30 29049 C 2849.87 -0.281846 1.92952 0
M  V30 29050 O 2849.14 -1.19341 1.55353 0
M  V30 29051 H 2847.72 0.429129 0.611439 0
M  V30 29052 H 2850.38 1.62076 1.08247 0
M  V30 29053 H 2849.48 1.71548 2.60725 0
M  V30 29054 N 2849.78 -1.1126 1.1162 0
M  V30 29055 C 2851 -1.86838 0.888772 0
M  V30 29056 C 2851.42 -1.80256 -0.561527 0
M  V30 29057 O 2850.78 -1.18517 -1.3878 0
M  V30 29058 C 2850.83 -3.35576 1.34427 0
M  V30 29059 O 2850.55 -3.42024 2.73772 0
M  V30 29060 C 2852.05 -4.28055 1.15254 0
M  V30 29061 H 2849.27 -0.590774 0.318163 0
M  V30 29062 H 2851.81 -1.40704 1.484 0
M  V30 29063 H 2849.97 -3.79208 0.792457 0
M  V30 29064 H 2850.38 -4.34654 2.93558 0
M  V30 29065 H 2851.86 -5.30653 1.52024 0
M  V30 29066 H 2852.33 -4.39103 0.0922779 0
M  V30 29067 H 2852.94 -3.90219 1.69143 0
M  V30 29068 N 2851.25 -0.906798 -1.28899 0
M  V30 29069 C 2852.19 -0.347199 -2.26555 0
M  V30 29070 C 2853.2 0.510463 -1.5459 0
M  V30 29071 O 2854.39 0.32647 -1.75489 0
M  V30 29072 C 2851.49 0.522965 -3.34841 0
M  V30 29073 C 2850.66 -0.310591 -4.36296 0
M  V30 29074 C 2849.72 0.493542 -5.2388 0
M  V30 29075 O 2848.75 -0.0914569 -5.69127 0
M  V30 29076 N 2849.95 1.79811 -5.5195 0
M  V30 29077 H 2852.71 -1.18657 -2.7521 0
M  V30 29078 H 2850.27 -0.772021 -1.42308 0
M  V30 29079 H 2852.27 1.06749 -3.90367 0
M  V30 29080 H 2850.84 1.26304 -2.85948 0
M  V30 29081 H 2850.06 -1.03651 -3.80329 0
M  V30 29082 H 2851.34 -0.881194 -5.01111 0
M  V30 29083 H 2850.74 2.29601 -5.1701 0
M  V30 29084 H 2849.3 2.28961 -6.10263 0
M  V30 29085 N 2852.73 1.42648 -0.670032 0
M  V30 29086 C 2853.96 2.05945 -0.198576 0
M  V30 29087 C 2854.38 1.50315 1.1424 0
M  V30 29088 O 2853.73 0.641057 1.7087 0
M  V30 29089 C 2853.78 3.61302 -0.119724 0
M  V30 29090 O 2853.5 4.14868 -1.40771 0
M  V30 29091 C 2855.01 4.41704 0.375801 0
M  V30 29092 H 2852.23 0.663849 -0.0977011 0
M  V30 29093 H 2854.77 1.82867 -0.915424 0
M  V30 29094 H 2852.92 3.83508 0.547783 0
M  V30 29095 H 2853.34 5.08694 -1.27793 0
M  V30 29096 H 2854.81 5.50691 0.379891 0
M  V30 29097 H 2855.29 4.15944 1.41021 0
M  V30 29098 H 2855.9 4.24506 -0.259801 0
M  V30 29099 N 2854.21 0.413044 1.52091 0
M  V30 29100 C 2855.12 -0.417277 2.30859 0
M  V30 29101 C 2856.14 -1.05 1.38748 0
M  V30 29102 O 2857.31 -1.05066 1.71823 0
M  V30 29103 C 2854.38 -1.51682 3.11759 0
M  V30 29104 C 2853.44 -0.906751 4.19615 0
M  V30 29105 C 2852.67 -1.9539 4.96647 0
M  V30 29106 O 2852.9 -3.17263 4.74026 0
M  V30 29107 O 2851.83 -1.55795 5.81388 0
M  V30 29108 H 2855.66 0.225081 3.02865 0
M  V30 29109 H 2853.24 0.176152 1.48358 0
M  V30 29110 H 2855.12 -2.15506 3.62126 0
M  V30 29111 H 2853.8 -2.14371 2.42543 0
M  V30 29112 H 2852.7 -0.231118 3.73385 0
M  V30 29113 H 2854.04 -0.323727 4.91134 0
M  V30 29114 N 2855.69 -1.56945 0.143591 0
M  V30 29115 C 2856.91 -2.0081 -0.518666 0
M  V30 29116 C 2857.34 -1.02301 -1.57849 0
M  V30 29117 O 2856.7 0.00175203 -1.813 0
M  V30 29118 C 2856.75 -3.43438 -1.09923 0
M  V30 29119 O 2855.85 -3.47919 -2.21419 0
M  V30 29120 H 2855.19 -0.651702 -0.127203 0
M  V30 29121 H 2857.72 -2.03196 0.239318 0
M  V30 29122 H 2857.73 -3.82167 -1.42873 0
M  V30 29123 H 2856.41 -4.14643 -0.323089 0
M  V30 29124 H 2854.98 -3.21029 -1.89723 0
M  V30 29125 N 2857.17 0.130197 -1.57061 0
M  V30 29126 C 2858.41 0.839939 -1.84259 0
M  V30 29127 C 2858.74 1.80401 -0.727018 0
M  V30 29128 O 2858 1.93649 0.282597 0
M  V30 29129 C 2858.3 1.63359 -3.17881 0
M  V30 29130 C 2857.96 0.814813 -4.43477 0
M  V30 29131 C 2856.62 0.588982 -4.77582 0
M  V30 29132 C 2858.98 0.243345 -5.20632 0
M  V30 29133 C 2856.3 -0.218751 -5.86292 0
M  V30 29134 C 2858.66 -0.551518 -6.30191 0
M  V30 29135 C 2857.32 -0.78777 -6.62835 0
M  V30 29136 H 2856.59 0.307356 -0.67425 0
M  V30 29137 H 2859.24 0.102798 -1.91224 0
M  V30 29138 H 2857.54 2.44133 -3.06442 0
M  V30 29139 H 2859.24 2.18652 -3.36144 0
M  V30 29140 H 2855.83 1.00091 -4.16749 0
M  V30 29141 H 2860.01 0.405058 -4.94644 0
M  V30 29142 H 2855.27 -0.411123 -6.10016 0
M  V30 29143 H 2859.44 -1.00138 -6.89163 0
M  V30 29144 H 2857.07 -1.4155 -7.46905 0
M  V30 29145 N 2858.65 1.52438 0.400055 0
M  V30 29146 C 2859.87 1.71098 1.17218 0
M  V30 29147 C 2860.3 0.423597 1.83268 0
M  V30 29148 O 2859.65 -0.619721 1.70379 0
M  V30 29149 C 2859.7 2.8539 2.2042 0
M  V30 29150 O 2858.81 2.51592 3.26765 0
M  V30 29151 H 2858.15 0.569297 0.341756 0
M  V30 29152 H 2860.68 1.99182 0.467737 0
M  V30 29153 H 2860.69 3.10566 2.646 0
M  V30 29154 H 2859.36 3.78789 1.7173 0
M  V30 29155 H 2857.94 2.37119 2.878 0
M  V30 29156 N 2860.12 -0.657839 1.43214 0
M  V30 29157 C 2861.35 -1.45061 1.4823 0
M  V30 29158 C 2861.77 -1.87834 0.100027 0
M  V30 29159 O 2861.13 -1.57083 -0.905241 0
M  V30 29160 C 2861.18 -2.66486 2.42936 0
M  V30 29161 O 2860.28 -3.65376 1.91243 0
M  V30 29162 H 2859.62 -0.435126 0.501559 0
M  V30 29163 H 2862.15 -0.805398 1.88081 0
M  V30 29164 H 2862.16 -3.14356 2.60085 0
M  V30 29165 H 2860.84 -2.34695 3.43352 0
M  V30 29166 H 2859.42 -3.24495 1.83732 0
M  V30 29167 N 2861.6 -1.29668 -0.895769 0
M  V30 29168 C 2862.83 -1.20764 -1.67999 0
M  V30 29169 C 2863.24 0.231154 -1.8738 0
M  V30 29170 O 2862.6 1.15426 -1.41361 0
M  V30 29171 C 2862.65 -1.92103 -3.06233 0
M  V30 29172 O 2862.37 -3.30364 -2.87734 0
M  V30 29173 C 2863.87 -1.89724 -4.00649 0
M  V30 29174 H 2861.09 -0.418393 -0.524584 0
M  V30 29175 H 2863.64 -1.71108 -1.11992 0
M  V30 29176 H 2861.79 -1.45585 -3.59004 0
M  V30 29177 H 2862.21 -3.66348 -3.75352 0
M  V30 29178 H 2863.68 -2.44198 -4.95047 0
M  V30 29179 H 2864.16 -0.87367 -4.30423 0
M  V30 29180 H 2864.76 -2.36005 -3.53811 0
M  V30 29181 N 2863.08 1.10667 -1.12208 0
M  V30 29182 C 2864.33 1.82216 -0.874176 0
M  V30 29183 C 2864.65 1.85485 0.601703 0
M  V30 29184 O 2863.92 1.33118 1.43723 0
M  V30 29185 H 2862.5 0.674791 -0.320416 0
M  V30 29186 H 2865.16 1.33915 -1.41608 0
M  V30 29187 H 2864.26 2.85819 -1.25354 0
M  V30 29188 N 2864.56 0.913621 1.28416 0
M  V30 29189 C 2865.51 0.392077 2.29272 0
M  V30 29190 C 2866.5 -0.51617 1.61344 0
M  V30 29191 O 2867.71 -0.397429 1.75558 0
M  V30 29192 H 2864.08 0.108191 0.744177 0
M  V30 29193 H 2866.05 1.25579 2.70689 0
M  V30 29194 C 2864.8 -0.352754 3.45906 0
M  V30 29195 H 2864.12 0.336918 3.98378 0
M  V30 29196 H 2865.56 -0.682325 4.18474 0
M  V30 29197 C 2864.02 -1.5606 2.98575 0
M  V30 29198 O 2864.55 -2.65969 3.01037 0
M  V30 29199 N 2862.76 -1.40754 2.54237 0
M  V30 29200 H 2862.31 -0.513359 2.52433 0
M  V30 29201 H 2862.26 -2.21698 2.22929 0
M  V30 29202 N 2866.04 -1.4229 0.677588 0
M  V30 29203 C 2867.26 -2.06355 0.207938 0
M  V30 29204 C 2867.69 -1.50585 -1.1272 0
M  V30 29205 O 2867.04 -0.62546 -1.7017 0
M  V30 29206 C 2867.09 -3.6026 0.156552 0
M  V30 29207 O 2866.2 -4.0303 -0.874091 0
M  V30 29208 H 2865.54 -0.655474 0.106068 0
M  V30 29209 H 2868.07 -1.82375 0.927386 0
M  V30 29210 H 2868.08 -4.07996 -0.018654 0
M  V30 29211 H 2866.75 -4.00224 1.13108 0
M  V30 29212 H 2865.33 -3.66837 -0.6697 0
M  V30 29213 N 2867.51 -0.421104 -1.5187 0
M  V30 29214 C 2868.44 0.389322 -2.30231 0
M  V30 29215 C 2869.42 1.03553 -1.34948 0
M  V30 29216 O 2870.61 1.04226 -1.63861 0
M  V30 29217 C 2867.74 1.49973 -3.1325 0
M  V30 29218 C 2866.69 0.977893 -4.16679 0
M  V30 29219 C 2866.02 2.18281 -4.88116 0
M  V30 29220 C 2867.32 0.0235857 -5.22295 0
M  V30 29221 H 2869.01 -0.264576 -2.98229 0
M  V30 29222 H 2866.56 -0.128685 -1.43424 0
M  V30 29223 H 2868.51 2.07377 -3.66842 0
M  V30 29224 H 2867.24 2.18168 -2.43044 0
M  V30 29225 H 2865.9 0.426181 -3.64114 0
M  V30 29226 H 2865.54 2.85059 -4.14428 0
M  V30 29227 H 2865.24 1.84011 -5.58044 0
M  V30 29228 H 2866.77 2.76269 -5.44525 0
M  V30 29229 H 2868.18 0.506798 -5.71056 0
M  V30 29230 H 2866.58 -0.230887 -5.99656 0
M  V30 29231 H 2867.65 -0.918083 -4.76129 0
M  V30 29232 N 2868.99 1.56866 -0.151912 0
M  V30 29233 C 2870.22 2.00648 0.504778 0
M  V30 29234 C 2870.64 1.03204 1.58096 0
M  V30 29235 O 2869.99 0.0298135 1.82476 0
M  V30 29236 C 2870.04 3.44328 1.10093 0
M  V30 29237 O 2869.76 4.38048 0.0677251 0
M  V30 29238 C 2871.27 4.03413 1.83775 0
M  V30 29239 H 2868.49 0.658093 0.130978 0
M  V30 29240 H 2871.03 2.02991 -0.247939 0
M  V30 29241 H 2869.18 3.42821 1.80424 0
M  V30 29242 H 2869.6 5.22062 0.505146 0
M  V30 29243 H 2871.07 5.05929 2.20771 0
M  V30 29244 H 2871.55 3.44402 2.72551 0
M  V30 29245 H 2872.16 4.08565 1.1813 0
M  V30 29246 N 2870.47 -0.121866 1.57128 0
M  V30 29247 C 2871.72 -0.830156 1.84702 0
M  V30 29248 C 2872.05 -1.80013 0.736575 0
M  V30 29249 O 2871.3 -1.93796 -0.272324 0
M  V30 29250 C 2871.6 -1.61671 3.18743 0
M  V30 29251 C 2871.27 -0.791283 4.43903 0
M  V30 29252 C 2869.93 -0.563647 4.77888 0
M  V30 29253 C 2872.28 -0.215731 5.20753 0
M  V30 29254 C 2869.61 0.24984 5.86168 0
M  V30 29255 C 2871.96 0.584931 6.2989 0
M  V30 29256 C 2870.62 0.82291 6.62408 0
M  V30 29257 H 2869.89 -0.303776 0.675871 0
M  V30 29258 H 2872.54 -0.0926558 1.91276 0
M  V30 29259 H 2870.85 -2.42504 3.07732 0
M  V30 29260 H 2872.54 -2.16866 3.37298 0
M  V30 29261 H 2869.13 -0.978794 4.17274 0
M  V30 29262 H 2873.32 -0.37882 4.94852 0
M  V30 29263 H 2868.57 0.443468 6.0979 0
M  V30 29264 H 2872.75 1.03791 6.88622 0
M  V30 29265 H 2870.37 1.45509 7.46144 0
M  V30 29266 N 2871.95 -1.52648 -0.391965 0
M  V30 29267 C 2872.9 -1.73596 -1.47812 0
M  V30 29268 C 2873.88 -0.590006 -1.49692 0
M  V30 29269 O 2875.07 -0.847728 -1.55379 0
M  V30 29270 C 2872.2 -1.90556 -2.85558 0
M  V30 29271 C 2871.29 -3.11075 -2.88259 0
M  V30 29272 N 2871.68 -4.33478 -2.60634 0
M  V30 29273 C 2869.98 -3.1126 -3.19427 0
M  V30 29274 C 2870.68 -5.15063 -2.70342 0
M  V30 29275 N 2869.66 -4.50685 -3.03948 0
M  V30 29276 H 2873.46 -2.65863 -1.25276 0
M  V30 29277 H 2870.97 -1.50915 -0.599881 0
M  V30 29278 H 2872.97 -2.03685 -3.63756 0
M  V30 29279 H 2871.63 -0.995007 -3.09079 0
M  V30 29280 H 2872.64 -4.61662 -2.3471 0
M  V30 29281 H 2869.32 -2.30003 -3.48432 0
M  V30 29282 H 2870.71 -6.22628 -2.52554 0
M  V30 29283 N 2873.43 0.650235 -1.43561 0
M  V30 29284 C 2874.67 1.4101 -1.45336 0
M  V30 29285 C 2875 1.9434 -0.0787624 0
M  V30 29286 O 2874.26 1.72903 0.916685 0
M  V30 29287 C 2874.56 2.6065 -2.44533 0
M  V30 29288 C 2874.22 2.2572 -3.90335 0
M  V30 29289 C 2872.88 2.15906 -4.30044 0
M  V30 29290 C 2875.24 1.97812 -4.82203 0
M  V30 29291 C 2872.56 1.76345 -5.59571 0
M  V30 29292 C 2874.92 1.59748 -6.12097 0
M  V30 29293 C 2873.58 1.48462 -6.50781 0
M  V30 29294 H 2872.85 0.515991 -0.531822 0
M  V30 29295 H 2875.5 0.739188 -1.76659 0
M  V30 29296 H 2873.8 3.32887 -2.06625 0
M  V30 29297 H 2875.5 3.18864 -2.4316 0
M  V30 29298 H 2872.09 2.3427 -3.58909 0
M  V30 29299 H 2876.27 2.04314 -4.52294 0
M  V30 29300 H 2871.53 1.66195 -5.88379 0
M  V30 29301 H 2875.7 1.37186 -6.82754 0
M  V30 29302 H 2873.33 1.17578 -7.51052 0
M  V30 29303 N 2874.9 1.30141 0.88888 0
M  V30 29304 C 2876.13 1.21477 1.67113 0
M  V30 29305 C 2876.54 -0.225439 1.87852 0
M  V30 29306 O 2875.89 -1.16142 1.42326 0
M  V30 29307 C 2875.95 1.86851 3.07127 0
M  V30 29308 C 2875.61 3.36172 3.09576 0
M  V30 29309 C 2876.61 4.32227 2.88921 0
M  V30 29310 C 2874.29 3.77554 3.31297 0
M  V30 29311 C 2876.29 5.67639 2.89939 0
M  V30 29312 C 2873.97 5.13085 3.31945 0
M  V30 29313 C 2874.97 6.07938 3.11289 0
M  V30 29314 O 2874.66 7.40993 3.11745 0
M  V30 29315 H 2874.39 0.421671 0.528365 0
M  V30 29316 H 2876.95 1.72232 1.11916 0
M  V30 29317 H 2875.18 1.30621 3.63971 0
M  V30 29318 H 2876.87 1.72361 3.67487 0
M  V30 29319 H 2877.63 4.01588 2.71941 0
M  V30 29320 H 2873.51 3.04171 3.46411 0
M  V30 29321 H 2877.05 6.4165 2.73735 0
M  V30 29322 H 2872.95 5.43366 3.4846 0
M  V30 29323 H 2873.72 7.49933 3.27938 0
M  V30 29324 N 2876.38 -1.1007 1.12794 0
M  V30 29325 C 2877.61 -1.86425 0.90887 0
M  V30 29326 C 2878.03 -1.80279 -0.536761 0
M  V30 29327 O 2877.39 -1.17546 -1.38031 0
M  V30 29328 C 2877.44 -3.32608 1.393 0
M  V30 29329 O 2876.54 -4.08387 0.573918 0
M  V30 29330 H 2875.88 -0.578326 0.326245 0
M  V30 29331 H 2878.41 -1.3904 1.50097 0
M  V30 29332 H 2878.42 -3.83457 1.39373 0
M  V30 29333 H 2877.1 -3.36397 2.44561 0
M  V30 29334 H 2875.68 -3.67358 0.640503 0
M  V30 29335 N 2877.86 -0.920419 -1.2793 0
M  V30 29336 C 2879.14 -0.475721 -1.89727 0
M  V30 29337 C 2879.52 1.04584 -1.83372 0
M  V30 29338 O 2878.87 1.89683 -1.27408 0
M  V30 29339 C 2879.08 -1.0136 -3.33957 0
M  V30 29340 C 2880.42 -1.0697 -4.10905 0
M  V30 29341 O 2881.45 -0.962707 -3.42944 0
M  V30 29342 O 2880.31 -1.23352 -5.32397 0
M  V30 29343 H 2877.4 -0.151859 -0.812938 0
M  V30 29344 H 2879.95 -1.01164 -1.3625 0
M  V30 29345 H 2878.72 -2.05752 -3.32839 0
M  V30 29346 H 2878.34 -0.458898 -3.94943 0
M  V30 29347 N 2879.34 1.41929 -0.685124 0
M  V30 29348 C 2880.56 2.06242 -0.218878 0
M  V30 29349 C 2880.99 1.5118 1.1192 0
M  V30 29350 O 2880.35 0.634476 1.69835 0
M  V30 29351 C 2880.39 3.60172 -0.175655 0
M  V30 29352 O 2879.5 4.03488 0.852705 0
M  V30 29353 H 2878.84 0.654902 -0.109542 0
M  V30 29354 H 2881.37 1.81881 -0.937045 0
M  V30 29355 H 2881.38 4.08 -0.00298323 0
M  V30 29356 H 2880.05 3.99619 -1.15229 0
M  V30 29357 H 2878.63 3.67187 0.650236 0
M  V30 29358 N 2880.82 0.429152 1.51644 0
M  V30 29359 C 2882.04 -0.141363 2.06918 0
M  V30 29360 C 2882.47 -1.36396 1.29529 0
M  V30 29361 O 2881.82 -1.78253 0.330971 0
M  V30 29362 C 2881.87 -0.450337 3.57777 0
M  V30 29363 O 2880.98 -1.53815 3.82642 0
M  V30 29364 H 2880.32 -0.00545303 0.663978 0
M  V30 29365 H 2882.85 0.608127 1.95353 0
M  V30 29366 H 2882.86 -0.703178 4.01895 0
M  V30 29367 H 2881.53 0.443286 4.13531 0
M  V30 29368 H 2880.11 -1.27591 3.50393 0
M  V30 29369 N 2882.29 -1.56783 0.160229 0
M  V30 29370 C 2883.54 -1.95718 -0.487585 0
M  V30 29371 C 2883.86 -1.04833 -1.65134 0
M  V30 29372 O 2885.06 -1.33402 -2.36466 0
M  V30 29373 C 2883.52 -3.47974 -0.918818 0
M  V30 29374 C 2883.13 -4.47466 0.218733 0
M  V30 29375 C 2884.87 -3.95749 -1.53568 0
M  V30 29376 C 2882.78 -5.90947 -0.23151 0
M  V30 29377 H 2881.71 -0.730717 -0.185926 0
M  V30 29378 H 2884.36 -1.81834 0.246689 0
M  V30 29379 H 2882.74 -3.57237 -1.70874 0
M  V30 29380 H 2883.91 -4.49909 0.995904 0
M  V30 29381 H 2882.23 -4.09684 0.744839 0
M  V30 29382 H 2884.83 -5.00395 -1.88439 0
M  V30 29383 H 2885.17 -3.38052 -2.42953 0
M  V30 29384 H 2885.7 -3.89458 -0.810398 0
M  V30 29385 H 2882.44 -6.52492 0.627295 0
M  V30 29386 H 2881.96 -5.91834 -0.974275 0
M  V30 29387 H 2883.64 -6.43426 -0.679107 0
M  V30 29388 N 2883.77 0.113531 -1.57191 0
M  V30 29389 C 2885 0.838303 -1.89703 0
M  V30 29390 C 2885.42 1.72383 -0.75271 0
M  V30 29391 O 2884.78 1.78858 0.296544 0
M  V30 29392 C 2884.83 1.64307 -3.20992 0
M  V30 29393 O 2883.93 2.75048 -3.07282 0
M  V30 29394 H 2883.27 0.231485 -0.622343 0
M  V30 29395 H 2885.8 0.0942869 -2.04383 0
M  V30 29396 H 2885.81 2.03116 -3.53847 0
M  V30 29397 H 2884.49 0.993048 -4.0387 0
M  V30 29398 H 2883.07 2.39401 -2.85905 0
M  V30 29399 N 2885.25 1.52854 0.383864 0
M  V30 29400 C 2886.5 1.67816 1.12616 0
M  V30 29401 C 2886.82 0.423174 1.90353 0
M  V30 29402 O 2886.09 -0.562521 1.8765 0
M  V30 29403 H 2884.67 0.618609 0.418727 0
M  V30 29404 H 2887.33 1.89985 0.434917 0
M  V30 29405 H 2886.43 2.53094 1.8262 0
M  V30 29406 N 2886.73 -0.642612 1.43904 0
M  V30 29407 C 2887.68 -1.75509 1.49884 0
M  V30 29408 C 2888.65 -1.62423 0.347566 0
M  V30 29409 O 2889.83 -1.82513 0.556209 0
M  V30 29410 C 2886.97 -3.13712 1.43802 0
M  V30 29411 C 2886.08 -3.37856 2.69216 0
M  V30 29412 C 2885.22 -4.65966 2.55048 0
M  V30 29413 C 2884.26 -4.8325 3.7568 0
M  V30 29414 N 2883.4 -6.02627 3.60257 0
M  V30 29415 H 2888.24 -1.69733 2.44938 0
M  V30 29416 H 2885.77 -0.828144 1.21574 0
M  V30 29417 H 2887.73 -3.93621 1.38269 0
M  V30 29418 H 2886.36 -3.18531 0.523229 0
M  V30 29419 H 2885.41 -2.51968 2.84985 0
M  V30 29420 H 2886.72 -3.46511 3.58792 0
M  V30 29421 H 2885.88 -5.54018 2.47283 0
M  V30 29422 H 2884.62 -4.5965 1.63014 0
M  V30 29423 H 2883.62 -3.93631 3.83842 0
M  V30 29424 H 2884.85 -4.91389 4.68736 0
M  V30 29425 H 2882.79 -5.97422 2.70966 0
M  V30 29426 H 2882.71 -6.12287 4.43442 0
M  V30 29427 H 2883.98 -6.93272 3.56363 0
M  V30 29428 N 2888.21 -1.30611 -0.881966 0
M  V30 29429 C 2889.46 -1.19371 -1.6308 0
M  V30 29430 C 2889.78 0.251113 -1.93376 0
M  V30 29431 O 2889.05 1.16855 -1.57232 0
M  V30 29432 H 2887.63 -0.438802 -0.604535 0
M  V30 29433 H 2890.29 -1.63778 -1.05655 0
M  V30 29434 H 2889.38 -1.75675 -2.57963 0
M  V30 29435 N 2889.69 1.0947 -1.13376 0
M  V30 29436 C 2890.93 1.81637 -0.895222 0
M  V30 29437 C 2891.26 1.85693 0.578647 0
M  V30 29438 O 2890.52 1.32062 1.44423 0
M  V30 29439 C 2890.81 3.27648 -1.42765 0
M  V30 29440 C 2890.48 3.43725 -2.91828 0
M  V30 29441 C 2889.14 3.47821 -3.32527 0
M  V30 29442 C 2891.49 3.483 -3.87733 0
M  V30 29443 C 2888.82 3.54069 -4.67816 0
M  V30 29444 C 2891.17 3.56082 -5.22865 0
M  V30 29445 C 2889.84 3.58446 -5.63092 0
M  V30 29446 H 2889.11 0.664657 -0.327585 0
M  V30 29447 H 2891.76 1.28967 -1.41562 0
M  V30 29448 H 2890.06 3.82952 -0.827938 0
M  V30 29449 H 2891.76 3.82017 -1.21917 0
M  V30 29450 H 2888.35 3.41222 -2.59356 0
M  V30 29451 H 2892.53 3.44377 -3.57377 0
M  V30 29452 H 2887.79 3.54186 -4.98359 0
M  V30 29453 H 2891.96 3.58567 -5.96995 0
M  V30 29454 H 2889.59 3.6304 -6.67911 0
M  V30 29455 N 2891.16 0.92719 1.2744 0
M  V30 29456 C 2892.09 0.443228 2.29255 0
M  V30 29457 C 2893.07 -0.496211 1.62701 0
M  V30 29458 O 2894.26 -0.401071 1.90013 0
M  V30 29459 C 2891.39 -0.305305 3.45955 0
M  V30 29460 C 2890.34 0.546252 4.245 0
M  V30 29461 C 2889.67 -0.331418 5.33672 0
M  V30 29462 C 2890.97 1.81046 4.89918 0
M  V30 29463 H 2892.66 1.29413 2.69986 0
M  V30 29464 H 2890.21 0.623727 1.29791 0
M  V30 29465 H 2892.16 -0.654812 4.16281 0
M  V30 29466 H 2890.89 -1.19023 3.0414 0
M  V30 29467 H 2889.55 0.87846 3.55919 0
M  V30 29468 H 2889.19 -1.21528 4.88098 0
M  V30 29469 H 2888.89 0.234849 5.8713 0
M  V30 29470 H 2890.42 -0.676508 6.06841 0
M  V30 29471 H 2891.83 1.52905 5.52533 0
M  V30 29472 H 2890.23 2.32019 5.53432 0
M  V30 29473 H 2891.3 2.53028 4.13648 0
M  V30 29474 N 2892.64 -1.41564 0.692641 0
M  V30 29475 C 2893.57 -2.33466 0.0397735 0
M  V30 29476 C 2894.55 -1.51658 -0.770307 0
M  V30 29477 O 2895.74 -1.80205 -0.723871 0
M  V30 29478 C 2892.87 -3.35451 -0.899436 0
M  V30 29479 C 2891.82 -4.27548 -0.196663 0
M  V30 29480 C 2891.15 -5.19883 -1.25003 0
M  V30 29481 C 2892.45 -5.13858 0.935248 0
M  V30 29482 H 2894.14 -2.88309 0.807346 0
M  V30 29483 H 2891.69 -1.38627 0.389689 0
M  V30 29484 H 2893.64 -3.98667 -1.36538 0
M  V30 29485 H 2892.36 -2.78951 -1.69864 0
M  V30 29486 H 2891.02 -3.65752 0.249222 0
M  V30 29487 H 2890.67 -4.597 -2.04169 0
M  V30 29488 H 2890.37 -5.82335 -0.784829 0
M  V30 29489 H 2891.9 -5.85975 -1.71655 0
M  V30 29490 H 2893.31 -5.70658 0.54972 0
M  V30 29491 H 2891.71 -5.85236 1.32736 0
M  V30 29492 H 2892.78 -4.51197 1.77621 0
M  V30 29493 N 2894.12 -0.437188 -1.51415 0
M  V30 29494 C 2895.03 0.380497 -2.31494 0
M  V30 29495 C 2896.05 1.02779 -1.40401 0
M  V30 29496 O 2897.22 1.0232 -1.73472 0
M  V30 29497 C 2894.29 1.46703 -3.14132 0
M  V30 29498 C 2893.35 0.839879 -4.21004 0
M  V30 29499 C 2892.58 1.87464 -4.99693 0
M  V30 29500 O 2892.8 3.09681 -4.79013 0
M  V30 29501 O 2891.74 1.46526 -5.83793 0
M  V30 29502 H 2895.56 -0.273236 -3.02468 0
M  V30 29503 H 2893.15 -0.199732 -1.48059 0
M  V30 29504 H 2895.03 2.09718 -3.65508 0
M  V30 29505 H 2893.71 2.10485 -2.45922 0
M  V30 29506 H 2892.61 0.171686 -3.73706 0
M  V30 29507 H 2893.95 0.245551 -4.91587 0
M  V30 29508 N 2895.6 1.56696 -0.168541 0
M  V30 29509 C 2896.84 1.97864 0.471333 0
M  V30 29510 C 2897.2 1.0527 1.61047 0
M  V30 29511 O 2896.49 0.0918244 1.9138 0
M  V30 29512 C 2896.69 3.42998 1.00435 0
M  V30 29513 C 2896.51 4.49626 -0.0816031 0
M  V30 29514 C 2895.28 5.02509 -0.53033 0
M  V30 29515 C 2897.48 5.06698 -0.880986 0
M  V30 29516 N 2895.46 5.92767 -1.59688 0
M  V30 29517 C 2896.84 5.93371 -1.79753 0
M  V30 29518 C 2898.89 4.89206 -0.926376 0
M  V30 29519 C 2897.59 6.64423 -2.75562 0
M  V30 29520 C 2899.62 5.60977 -1.8724 0
M  V30 29521 C 2898.98 6.47375 -2.77642 0
M  V30 29522 H 2895.08 0.769246 0.140657 0
M  V30 29523 H 2897.66 1.92845 -0.268118 0
M  V30 29524 H 2895.84 3.48568 1.71333 0
M  V30 29525 H 2897.57 3.71183 1.61263 0
M  V30 29526 H 2894.32 4.73425 -0.128553 0
M  V30 29527 H 2894.75 6.42601 -2.13056 0
M  V30 29528 H 2899.39 4.2211 -0.241486 0
M  V30 29529 H 2897.11 7.30735 -3.4504 0
M  V30 29530 H 2900.69 5.4943 -1.91359 0
M  V30 29531 H 2899.57 7.01935 -3.49652 0
M  V30 29532 N 2897.08 -0.105193 1.57249 0
M  V30 29533 C 2898.32 -0.810519 1.85572 0
M  V30 29534 C 2898.65 -1.79222 0.755626 0
M  V30 29535 O 2897.91 -1.94074 -0.251754 0
M  V30 29536 C 2898.2 -1.58282 3.2044 0
M  V30 29537 C 2897.87 -0.744156 4.44717 0
M  V30 29538 C 2896.53 -0.512929 4.78458 0
M  V30 29539 C 2898.88 -0.160486 5.20953 0
M  V30 29540 C 2896.21 0.311997 5.8587 0
M  V30 29541 C 2898.56 0.651707 6.29234 0
M  V30 29542 C 2897.23 0.893121 6.61498 0
M  V30 29543 H 2896.5 -0.29659 0.679055 0
M  V30 29544 H 2899.15 -0.0723632 1.91363 0
M  V30 29545 H 2897.45 -2.39226 3.10287 0
M  V30 29546 H 2899.15 -2.13276 3.3958 0
M  V30 29547 H 2895.74 -0.934481 4.18289 0
M  V30 29548 H 2899.92 -0.326313 4.95226 0
M  V30 29549 H 2895.18 0.508119 6.09285 0
M  V30 29550 H 2899.35 1.11089 6.87482 0
M  V30 29551 H 2896.98 1.53414 7.44559 0
M  V30 29552 N 2898.55 -1.53055 -0.375752 0
M  V30 29553 C 2899.52 -1.78113 -1.44251 0
M  V30 29554 C 2900.52 -0.651354 -1.47017 0
M  V30 29555 O 2901.71 -0.919498 -1.47956 0
M  V30 29556 C 2898.84 -1.89396 -2.83447 0
M  V30 29557 H 2900.03 -2.73376 -1.23311 0
M  V30 29558 H 2897.59 -1.43978 -0.608287 0
M  V30 29559 H 2898.32 -0.961643 -3.09714 0
M  V30 29560 H 2898.11 -2.7156 -2.82839 0
M  V30 29561 H 2899.6 -2.1041 -3.60718 0
M  V30 29562 N 2900.03 0.634971 -1.44242 0
M  V30 29563 C 2901.28 1.39667 -1.47041 0
M  V30 29564 C 2901.61 1.93936 -0.101157 0
M  V30 29565 O 2900.89 1.7342 0.880669 0
M  V30 29566 C 2901.17 2.56478 -2.52767 0
M  V30 29567 C 2901.02 2.07582 -3.99036 0
M  V30 29568 C 2902.34 3.5867 -2.55037 0
M  V30 29569 H 2899.46 0.506496 -0.535379 0
M  V30 29570 H 2902.1 0.718286 -1.759 0
M  V30 29571 H 2900.25 3.1435 -2.2829 0
M  V30 29572 H 2901.92 1.5457 -4.34633 0
M  V30 29573 H 2900.17 1.38797 -4.10996 0
M  V30 29574 H 2900.84 2.91662 -4.68655 0
M  V30 29575 H 2903.31 3.1059 -2.76899 0
M  V30 29576 H 2902.19 4.37928 -3.30924 0
M  V30 29577 H 2902.45 4.12483 -1.59092 0
M  V30 29578 N 2901.51 1.31076 0.875027 0
M  V30 29579 C 2902.79 1.11116 1.60974 0
M  V30 29580 C 2903.17 -0.335969 2.08409 0
M  V30 29581 O 2902.52 -1.32921 1.85861 0
M  V30 29582 C 2902.73 2.12089 2.77163 0
M  V30 29583 C 2904.07 2.44341 3.4725 0
M  V30 29584 O 2905.1 2.10477 2.87364 0
M  V30 29585 O 2903.96 3.02309 4.55271 0
M  V30 29586 H 2901.05 0.427436 0.707974 0
M  V30 29587 H 2903.6 1.42537 0.920932 0
M  V30 29588 H 2902.37 3.09453 2.39488 0
M  V30 29589 H 2901.99 1.81544 3.53734 0
M  V30 29590 N 2902.99 -1.08867 1.13955 0
M  V30 29591 C 2903.95 -2.13836 0.825028 0
M  V30 29592 C 2904.95 -1.59918 -0.16817 0
M  V30 29593 O 2906.14 -1.74098 0.0596084 0
M  V30 29594 C 2903.27 -3.4013 0.228998 0
M  V30 29595 H 2904.47 -2.43168 1.75525 0
M  V30 29596 H 2902.02 -1.24501 0.944942 0
M  V30 29597 H 2902.75 -3.16429 -0.710171 0
M  V30 29598 H 2902.54 -3.80559 0.94431 0
M  V30 29599 H 2904.03 -4.17592 0.0259957 0
M  V30 29600 N 2904.47 -0.933936 -1.26946 0
M  V30 29601 C 2905.88 -0.621355 -1.76057 0
M  V30 29602 C 2906.23 0.863491 -1.76177 0
M  V30 29603 O 2905.35 1.67574 -1.36923 0
M  V30 29604 C 2905.95 -1.12117 -3.19711 0
M  V30 29605 C 2904.51 -0.859139 -3.66464 0
M  V30 29606 C 2903.65 -1.27628 -2.46183 0
M  V30 29607 H 2906.61 -1.11303 -1.13125 0
M  V30 29608 H 2906.63 -0.471674 -3.77565 0
M  V30 29609 H 2906.14 -2.20188 -3.19592 0
M  V30 29610 H 2904.24 0.2075 -3.72022 0
M  V30 29611 H 2904.35 -1.48106 -4.55633 0
M  V30 29612 H 2902.72 -0.694771 -2.45041 0
M  V30 29613 H 2903.5 -2.36577 -2.4877 0
M  V30 29614 N 2905.94 1.41194 -0.700139 0
M  V30 29615 C 2907.22 1.94937 -0.160871 0
M  V30 29616 C 2907.6 1.63925 1.33011 0
M  V30 29617 O 2906.95 0.948673 2.07876 0
M  V30 29618 C 2907.16 3.45994 -0.457052 0
M  V30 29619 C 2908.51 4.2283 -0.387281 0
M  V30 29620 O 2909.53 3.54034 -0.392226 0
M  V30 29621 O 2908.39 5.45369 -0.351363 0
M  V30 29622 H 2905.48 0.826812 -0.017645 0
M  V30 29623 H 2908.03 1.50887 -0.776613 0
M  V30 29624 H 2906.8 3.61867 -1.4889 0
M  V30 29625 H 2906.43 3.97148 0.189433 0
M  V30 29626 N 2907.42 0.445212 1.51181 0
M  V30 29627 C 2908.67 -0.118375 2.01753 0
M  V30 29628 C 2908.99 -1.42521 1.33089 0
M  V30 29629 O 2908.26 -1.9023 0.467924 0
M  V30 29630 H 2906.84 -0.0467361 0.745537 0
M  V30 29631 H 2909.5 0.58972 1.85764 0
M  V30 29632 H 2908.6 -0.28861 3.10763 0
M  V30 29633 N 2908.9 -1.56605 0.176849 0
M  V30 29634 C 2910.15 -1.97341 -0.467371 0
M  V30 29635 C 2910.48 -1.06304 -1.62521 0
M  V30 29636 O 2909.75 -0.111284 -1.94181 0
M  V30 29637 C 2910.04 -3.47478 -0.945045 0
M  V30 29638 C 2909.89 -4.49294 0.213352 0
M  V30 29639 C 2911.21 -4.00848 -1.81683 0
M  V30 29640 H 2908.33 -0.7175 -0.168414 0
M  V30 29641 H 2910.97 -1.88156 0.264098 0
M  V30 29642 H 2909.12 -3.55437 -1.56835 0
M  V30 29643 H 2910.79 -4.5339 0.850587 0
M  V30 29644 H 2909.04 -4.25027 0.867993 0
M  V30 29645 H 2909.71 -5.51759 -0.16309 0
M  V30 29646 H 2912.18 -3.95555 -1.29132 0
M  V30 29647 H 2911.06 -5.06305 -2.12006 0
M  V30 29648 H 2911.32 -3.44999 -2.76457 0
M  V30 29649 N 2910.38 0.0968524 -1.57302 0
M  V30 29650 C 2911.31 1.11842 -2.04972 0
M  V30 29651 C 2912.29 1.4188 -0.938303 0
M  V30 29652 O 2913.47 1.5194 -1.20946 0
M  V30 29653 C 2910.6 2.43877 -2.47268 0
M  V30 29654 C 2909.56 2.28251 -3.62057 0
M  V30 29655 C 2908.88 3.65447 -3.90324 0
M  V30 29656 C 2910.18 1.72453 -4.93009 0
M  V30 29657 H 2911.88 0.721836 -2.90568 0
M  V30 29658 H 2909.42 0.345778 -1.39787 0
M  V30 29659 H 2911.38 3.15612 -2.79225 0
M  V30 29660 H 2910.1 2.85467 -1.58669 0
M  V30 29661 H 2908.76 1.58961 -3.30344 0
M  V30 29662 H 2908.41 4.04562 -2.98896 0
M  V30 29663 H 2908.11 3.55838 -4.67603 0
M  V30 29664 H 2909.63 4.38652 -4.24755 0
M  V30 29665 H 2911.05 2.34027 -5.23359 0
M  V30 29666 H 2909.44 1.73608 -5.74439 0
M  V30 29667 H 2910.51 0.683814 -4.80054 0
M  V30 29668 N 2911.86 1.53252 0.36763 0
M  V30 29669 C 2913.27 1.61045 0.944535 0
M  V30 29670 C 2913.62 0.476579 1.90324 0
M  V30 29671 O 2912.74 -0.397296 2.12722 0
M  V30 29672 C 2913.34 2.91901 1.71987 0
M  V30 29673 C 2911.9 3.02035 2.24614 0
M  V30 29674 C 2911.04 2.56326 1.05795 0
M  V30 29675 H 2914 1.58022 0.146489 0
M  V30 29676 H 2914.02 2.79588 2.5809 0
M  V30 29677 H 2913.53 3.74406 1.02185 0
M  V30 29678 H 2911.63 2.24114 2.97664 0
M  V30 29679 H 2911.74 4.07077 2.52636 0
M  V30 29680 H 2910.11 2.11152 1.42432 0
M  V30 29681 H 2910.89 3.41246 0.374948 0
M  V30 29682 N 2913.34 -0.627313 1.44577 0
M  V30 29683 C 2914.56 -1.41391 1.5105 0
M  V30 29684 C 2914.98 -1.88305 0.136601 0
M  V30 29685 O 2914.34 -1.61061 -0.858223 0
M  V30 29686 C 2914.39 -2.63167 2.47841 0
M  V30 29687 O 2914.11 -2.18208 3.79891 0
M  V30 29688 C 2915.61 -3.56252 2.63817 0
M  V30 29689 H 2912.83 -0.433491 0.512179 0
M  V30 29690 H 2915.37 -0.766844 1.89578 0
M  V30 29691 H 2913.53 -3.23957 2.12439 0
M  V30 29692 H 2913.94 -2.97185 4.32182 0
M  V30 29693 H 2915.42 -4.38295 3.35562 0
M  V30 29694 H 2915.89 -4.0531 1.69176 0
M  V30 29695 H 2916.5 -3.01328 3.00136 0
M  V30 29696 N 2914.81 -1.31539 -0.868063 0
M  V30 29697 C 2916.06 -1.20692 -1.61605 0
M  V30 29698 C 2916.38 0.23324 -1.94204 0
M  V30 29699 O 2917.58 0.463418 -2.67516 0
M  V30 29700 C 2916.04 -2.11297 -2.91344 0
M  V30 29701 C 2915.65 -3.6032 -2.66221 0
M  V30 29702 C 2917.39 -2.09255 -3.69341 0
M  V30 29703 C 2915.3 -4.42927 -3.91879 0
M  V30 29704 H 2914.23 -0.448149 -0.606365 0
M  V30 29705 H 2916.88 -1.56407 -0.959638 0
M  V30 29706 H 2915.26 -1.68483 -3.58371 0
M  V30 29707 H 2916.43 -4.11392 -2.0759 0
M  V30 29708 H 2914.75 -3.64357 -2.01576 0
M  V30 29709 H 2917.35 -2.68217 -4.62562 0
M  V30 29710 H 2917.69 -1.08017 -4.02042 0
M  V30 29711 H 2918.22 -2.5028 -3.092 0
M  V30 29712 H 2914.96 -5.44928 -3.64327 0
M  V30 29713 H 2914.48 -3.96612 -4.49954 0
M  V30 29714 H 2916.16 -4.55239 -4.59746 0
M  V30 29715 N 2916.29 1.08262 -1.1453 0
M  V30 29716 C 2917.25 2.13396 -0.836357 0
M  V30 29717 C 2918.25 1.60005 0.159687 0
M  V30 29718 O 2919.44 1.74064 -0.0688404 0
M  V30 29719 C 2916.58 3.40004 -0.247032 0
M  V30 29720 H 2917.77 2.42234 -1.76813 0
M  V30 29721 H 2915.32 1.23998 -0.951531 0
M  V30 29722 H 2916.06 3.16801 0.69338 0
M  V30 29723 H 2915.84 3.80053 -0.964479 0
M  V30 29724 H 2917.33 4.17572 -0.0481413 0
M  V30 29725 N 2917.77 0.940655 1.26449 0
M  V30 29726 C 2919.18 0.630683 1.75725 0
M  V30 29727 C 2919.53 -0.854136 1.76632 0
M  V30 29728 O 2918.66 -1.66845 1.3781 0
M  V30 29729 C 2919.25 1.13811 3.19112 0
M  V30 29730 C 2917.81 0.878561 3.66003 0
M  V30 29731 C 2916.96 1.28932 2.45503 0
M  V30 29732 H 2919.91 1.11902 1.12533 0
M  V30 29733 H 2919.93 0.491691 3.7731 0
M  V30 29734 H 2919.44 2.21879 3.1842 0
M  V30 29735 H 2917.54 -0.187768 3.72127 0
M  V30 29736 H 2917.66 1.5052 4.54841 0
M  V30 29737 H 2916.02 0.707756 2.44669 0
M  V30 29738 H 2916.8 2.37893 2.47512 0
M  V30 29739 N 2919.25 -1.40821 0.707617 0
M  V30 29740 C 2920.5 -2.00631 0.243224 0
M  V30 29741 C 2920.82 -1.56367 -1.16509 0
M  V30 29742 O 2920.09 -0.799585 -1.78839 0
M  V30 29743 H 2918.67 -0.741924 0.0869334 0
M  V30 29744 H 2921.33 -1.72274 0.911468 0
M  V30 29745 H 2920.42 -3.10929 0.270068 0
M  V30 29746 N 2920.73 -0.453223 -1.50943 0
M  V30 29747 C 2921.69 0.338665 -2.26684 0
M  V30 29748 C 2922.69 0.936009 -1.3075 0
M  V30 29749 O 2923.88 0.807975 -1.54329 0
M  V30 29750 C 2921.01 1.48066 -3.07066 0
M  V30 29751 H 2922.2 -0.325342 -2.9813 0
M  V30 29752 H 2919.76 -0.206798 -1.54926 0
M  V30 29753 H 2920.49 2.18025 -2.40074 0
M  V30 29754 H 2920.28 1.05833 -3.77547 0
M  V30 29755 H 2921.77 2.03973 -3.64396 0
M  V30 29756 N 2922.2 1.56509 -0.185151 0
M  V30 29757 C 2923.44 1.99191 0.458512 0
M  V30 29758 C 2923.81 1.06909 1.59482 0
M  V30 29759 O 2925.01 1.38787 2.30199 0
M  V30 29760 C 2923.28 3.45457 0.916203 0
M  V30 29761 S 2924.84 4.10168 1.5591 0
M  V30 29762 H 2921.66 0.695639 0.146995 0
M  V30 29763 H 2924.26 1.93399 -0.285875 0
M  V30 29764 H 2922.96 4.10324 0.0789822 0
M  V30 29765 H 2922.49 3.55045 1.6943 0
M  V30 29766 H 2924.51 4.06355 2.84764 0
M  V30 29767 N 2923.68 -0.0885089 1.57351 0
M  V30 29768 C 2924.93 -0.789229 1.86053 0
M  V30 29769 C 2925.25 -1.78947 0.774795 0
M  V30 29770 O 2924.52 -1.94894 -0.19829 0
M  V30 29771 H 2923.1 -0.294462 0.686514 0
M  V30 29772 H 2925.76 -0.0685712 1.94779 0
M  V30 29773 H 2924.86 -1.31576 2.83009 0
M  V30 29774 N 2925.16 -1.53445 -0.359498 0
M  V30 29775 C 2926.41 -1.69586 -1.09932 0
M  V30 29776 C 2926.73 -0.453404 -1.89656 0
M  V30 29777 O 2926 0.532597 -1.88521 0
M  V30 29778 H 2924.58 -0.625192 -0.408832 0
M  V30 29779 H 2927.24 -1.90653 -0.404637 0
M  V30 29780 H 2926.34 -2.55967 -1.7857 0
M  V30 29781 N 2926.64 0.619637 -1.44908 0
M  V30 29782 C 2927.88 1.37895 -1.48294 0
M  V30 29783 C 2928.21 1.9413 -0.119967 0
M  V30 29784 O 2927.47 1.74808 0.879804 0
M  V30 29785 C 2927.77 2.55404 -2.50007 0
M  V30 29786 C 2927.43 2.1739 -3.95035 0
M  V30 29787 C 2926.09 2.06736 -4.34527 0
M  V30 29788 C 2928.45 1.87539 -4.8629 0
M  V30 29789 C 2925.77 1.64436 -5.63185 0
M  V30 29790 C 2928.13 1.46729 -6.15348 0
M  V30 29791 C 2926.79 1.34624 -6.53783 0
M  V30 29792 H 2926.06 0.504594 -0.542647 0
M  V30 29793 H 2928.71 0.70155 -1.78187 0
M  V30 29794 H 2927.01 3.28429 -2.13639 0
M  V30 29795 H 2928.71 3.13634 -2.49869 0
M  V30 29796 H 2925.3 2.26604 -3.63797 0
M  V30 29797 H 2929.48 1.94674 -4.56526 0
M  V30 29798 H 2924.74 1.53677 -5.91771 0
M  V30 29799 H 2928.91 1.22673 -6.8551 0
M  V30 29800 H 2926.54 1.01621 -7.53377 0
M  V30 29801 N 2928.12 1.31997 0.861075 0
M  V30 29802 C 2929.05 1.22997 1.98479 0
M  V30 29803 C 2930.03 0.115198 1.69709 0
M  V30 29804 O 2931.21 0.301294 1.91849 0
M  V30 29805 C 2928.34 0.945674 3.34177 0
M  V30 29806 C 2927.3 2.02098 3.7728 0
M  V30 29807 C 2926.62 1.58921 5.10537 0
M  V30 29808 C 2927.92 3.43522 3.93433 0
M  V30 29809 H 2929.62 2.17012 2.06268 0
M  V30 29810 H 2927.16 1.04473 0.991025 0
M  V30 29811 H 2929.12 0.869279 4.12337 0
M  V30 29812 H 2927.84 -0.0301275 3.26586 0
M  V30 29813 H 2926.5 2.08742 3.01368 0
M  V30 29814 H 2926.15 0.60103 4.99396 0
M  V30 29815 H 2925.85 2.30864 5.40348 0
M  V30 29816 H 2927.37 1.52706 5.91196 0
M  V30 29817 H 2928.78 3.39503 4.61964 0
M  V30 29818 H 2927.18 4.13759 4.34653 0
M  V30 29819 H 2928.25 3.83655 2.96542 0
M  V30 29820 N 2929.59 -1.07653 1.15103 0
M  V30 29821 C 2931.01 -1.32277 0.893027 0
M  V30 29822 C 2931.21 -1.9614 -0.461667 0
M  V30 29823 O 2930.27 -2.21931 -1.20427 0
M  V30 29824 C 2931.58 -2.21686 2.03165 0
M  V30 29825 C 2933.13 -2.35143 2.06583 0
M  V30 29826 C 2933.6 -3.27899 3.1976 0
M  V30 29827 N 2935.09 -3.35479 3.19388 0
M  V30 29828 C 2935.83 -4.07302 4.03599 0
M  V30 29829 N 2935.32 -4.81767 4.97868 0
M  V30 29830 N 2937.12 -4.03212 3.91633 0
M  V30 29831 H 2929.27 -0.64585 2.02343 0
M  V30 29832 H 2931.53 -0.347195 0.882133 0
M  V30 29833 H 2931.24 -1.82016 3.00937 0
M  V30 29834 H 2931.11 -3.22195 1.96138 0
M  V30 29835 H 2933.5 -2.74067 1.09412 0
M  V30 29836 H 2933.58 -1.34349 2.17678 0
M  V30 29837 H 2933.22 -2.89694 4.1718 0
M  V30 29838 H 2933.15 -4.2864 3.05901 0
M  V30 29839 H 2935.64 -2.82398 2.51117 0
M  V30 29840 H 2935.96 -5.34057 5.58572 0
M  V30 29841 H 2934.3 -4.80794 5.01859 0
M  V30 29842 H 2937.49 -3.44148 3.17301 0
M  V30 29843 H 2937.67 -4.58922 4.57487 0
M  V30 29844 N 2931.07 -0.947348 -1.25949 0
M  V30 29845 C 2932.3 -0.615162 -1.97543 0
M  V30 29846 C 2932.72 0.811191 -1.70485 0
M  V30 29847 O 2932.07 1.54168 -0.976647 0
M  V30 29848 C 2932.12 -0.85539 -3.51234 0
M  V30 29849 O 2931.84 -2.22565 -3.77355 0
M  V30 29850 C 2933.35 -0.534592 -4.40065 0
M  V30 29851 H 2930.57 -0.231274 -0.629884 0
M  V30 29852 H 2933.11 -1.26974 -1.60306 0
M  V30 29853 H 2931.26 -0.247334 -3.8661 0
M  V30 29854 H 2931.68 -2.29031 -4.71853 0
M  V30 29855 H 2933.15 -0.753264 -5.46836 0
M  V30 29856 H 2933.63 0.530625 -4.35983 0
M  V30 29857 H 2934.24 -1.12165 -4.10243 0
M  V30 29858 N 2932.55 1.40444 -0.715075 0
M  V30 29859 C 2933.8 2.00499 -0.253861 0
M  V30 29860 C 2934.12 1.56983 1.15678 0
M  V30 29861 O 2933.39 0.809058 1.78413 0
M  V30 29862 H 2931.97 0.741453 -0.0908668 0
M  V30 29863 H 2934.63 1.71788 -0.920592 0
M  V30 29864 H 2933.73 3.10782 -0.286554 0
M  V30 29865 N 2934.03 0.461222 1.507 0
M  V30 29866 C 2935.31 -0.158262 1.94959 0
M  V30 29867 C 2935.69 -1.57897 1.40114 0
M  V30 29868 O 2935.03 -2.20536 0.598015 0
M  V30 29869 C 2935.24 -0.111659 3.48821 0
M  V30 29870 C 2936.59 -0.305445 4.235 0
M  V30 29871 O 2937.62 -0.188696 3.557 0
M  V30 29872 O 2936.47 -0.540148 5.43824 0
M  V30 29873 H 2933.57 -0.117039 0.818676 0
M  V30 29874 H 2936.11 0.520917 1.61507 0
M  V30 29875 H 2934.89 0.880644 3.81262 0
M  V30 29876 H 2934.51 -0.832723 3.88782 0
M  V30 29877 N 2935.51 -1.56408 0.193449 0
M  V30 29878 C 2936.47 -2.17784 -0.714332 0
M  V30 29879 C 2937.47 -1.13185 -1.14218 0
M  V30 29880 O 2938.66 -1.38578 -1.05554 0
M  V30 29881 C 2935.79 -2.77858 -1.97504 0
M  V30 29882 H 2936.98 -2.99361 -0.179662 0
M  V30 29883 H 2934.54 -1.56199 -0.056167 0
M  V30 29884 H 2935.27 -2.00075 -2.55226 0
M  V30 29885 H 2935.06 -3.54428 -1.677 0
M  V30 29886 H 2936.55 -3.24992 -2.62241 0
M  V30 29887 N 2936.98 0.0801629 -1.57396 0
M  V30 29888 C 2938.4 0.632971 -1.75643 0
M  V30 29889 C 2938.75 1.78346 -0.817739 0
M  V30 29890 O 2937.87 2.164 0.000195706 0
M  V30 29891 C 2938.47 1.15501 -3.18504 0
M  V30 29892 C 2937.03 1.65375 -3.38124 0
M  V30 29893 C 2936.17 0.569613 -2.71387 0
M  V30 29894 H 2939.12 -0.145977 -1.58027 0
M  V30 29895 H 2939.14 2.02402 -3.22201 0
M  V30 29896 H 2938.66 0.317447 -3.868 0
M  V30 29897 H 2936.76 2.51484 -2.7493 0
M  V30 29898 H 2936.87 1.73646 -4.46524 0
M  V30 29899 H 2935.23 1.01266 -2.33704 0
M  V30 29900 H 2936.02 -0.257621 -3.42332 0
M  V30 29901 N 2938.46 1.53634 0.351355 0
M  V30 29902 C 2939.71 1.70756 1.09408 0
M  V30 29903 C 2940.04 0.465326 1.88543 0
M  V30 29904 O 2939.32 -0.537575 1.86923 0
M  V30 29905 C 2939.6 2.96627 2.04168 0
M  V30 29906 C 2939.45 4.3104 1.28548 0
M  V30 29907 C 2940.77 3.18141 3.04096 0
M  V30 29908 H 2937.89 0.621342 0.396362 0
M  V30 29909 H 2940.53 1.86294 0.373431 0
M  V30 29910 H 2938.68 2.8351 2.6562 0
M  V30 29911 H 2940.35 4.55993 0.697706 0
M  V30 29912 H 2938.6 4.29804 0.587422 0
M  V30 29913 H 2939.27 5.15275 1.9798 0
M  V30 29914 H 2941.74 3.30536 2.52755 0
M  V30 29915 H 2940.62 4.07621 3.67609 0
M  V30 29916 H 2940.88 2.34075 3.75048 0
M  V30 29917 N 2939.94 -0.611943 1.45234 0
M  V30 29918 C 2941.19 -1.37107 1.49023 0
M  V30 29919 C 2941.52 -1.94063 0.130261 0
M  V30 29920 O 2940.77 -1.75272 -0.870521 0
M  V30 29921 C 2941.07 -2.54075 2.51358 0
M  V30 29922 C 2940.74 -2.15292 3.96182 0
M  V30 29923 C 2939.4 -2.04428 4.35617 0
M  V30 29924 C 2941.75 -1.84958 4.87278 0
M  V30 29925 C 2939.08 -1.61447 5.6405 0
M  V30 29926 C 2941.43 -1.43463 6.16118 0
M  V30 29927 C 2940.09 -1.31155 6.54488 0
M  V30 29928 H 2939.36 -0.501709 0.545316 0
M  V30 29929 H 2942.01 -0.69209 1.78556 0
M  V30 29930 H 2940.32 -3.27291 2.15378 0
M  V30 29931 H 2942.01 -3.12305 2.51529 0
M  V30 29932 H 2938.6 -2.24672 3.64994 0
M  V30 29933 H 2942.79 -1.9225 4.57552 0
M  V30 29934 H 2938.04 -1.50536 5.92578 0
M  V30 29935 H 2942.22 -1.19036 6.86151 0
M  V30 29936 H 2939.84 -0.976237 7.53906 0
M  V30 29937 N 2941.42 -1.32452 -0.854063 0
M  V30 29938 C 2942.35 -1.24048 -1.97824 0
M  V30 29939 C 2943.33 -0.124196 -1.69646 0
M  V30 29940 O 2944.51 -0.311464 -1.91686 0
M  V30 29941 C 2941.64 -0.963383 -3.33671 0
M  V30 29942 C 2940.6 -2.04096 -3.76203 0
M  V30 29943 C 2939.92 -1.61627 -5.09687 0
M  V30 29944 C 2941.22 -3.45604 -3.91606 0
M  V30 29945 H 2942.92 -2.18102 -2.05114 0
M  V30 29946 H 2940.46 -1.04998 -0.98547 0
M  V30 29947 H 2942.42 -0.891134 -4.1187 0
M  V30 29948 H 2941.14 0.0128074 -3.26597 0
M  V30 29949 H 2939.8 -2.10337 -3.00256 0
M  V30 29950 H 2939.45 -0.627506 -4.9907 0
M  V30 29951 H 2939.15 -2.33726 -5.39116 0
M  V30 29952 H 2940.67 -1.55839 -5.90378 0
M  V30 29953 H 2942.09 -3.41948 -4.60157 0
M  V30 29954 H 2940.48 -4.16058 -4.32453 0
M  V30 29955 H 2941.55 -3.85222 -2.94503 0
M  V30 29956 N 2942.9 1.07041 -1.15672 0
M  V30 29957 C 2944.14 1.79697 -0.933549 0
M  V30 29958 C 2944.47 1.86879 0.539129 0
M  V30 29959 O 2943.73 1.35096 1.4159 0
M  V30 29960 C 2944.03 3.24546 -1.49683 0
M  V30 29961 C 2943.69 3.37458 -2.99053 0
M  V30 29962 C 2942.35 3.40689 -3.3983 0
M  V30 29963 C 2944.71 3.39997 -3.95033 0
M  V30 29964 C 2942.03 3.44067 -4.75221 0
M  V30 29965 C 2944.39 3.44911 -5.30301 0
M  V30 29966 C 2943.05 3.46422 -5.70568 0
M  V30 29967 H 2942.32 0.657559 -0.34161 0
M  V30 29968 H 2944.97 1.25935 -1.44266 0
M  V30 29969 H 2943.27 3.8111 -0.908982 0
M  V30 29970 H 2944.97 3.79345 -1.29992 0
M  V30 29971 H 2941.56 3.35644 -2.66536 0
M  V30 29972 H 2945.74 3.36719 -3.64601 0
M  V30 29973 H 2941 3.43536 -5.0576 0
M  V30 29974 H 2945.17 3.45823 -6.04466 0
M  V30 29975 H 2942.8 3.48791 -6.75462 0
M  V30 29976 N 2944.38 0.954014 1.25445 0
M  V30 29977 C 2945.6 0.625164 1.97754 0
M  V30 29978 C 2946.03 -0.795757 1.70439 0
M  V30 29979 O 2945.38 -1.53801 0.959947 0
M  V30 29980 C 2945.43 0.889313 3.49462 0
M  V30 29981 O 2944.54 -0.0322032 4.12387 0
M  V30 29982 H 2943.88 0.237753 0.619975 0
M  V30 29983 H 2946.41 1.28044 1.5958 0
M  V30 29984 H 2946.42 0.815333 3.9977 0
M  V30 29985 H 2945.09 1.92493 3.68672 0
M  V30 29986 H 2943.67 0.093928 3.72782 0
M  V30 29987 N 2945.85 -1.40063 0.722513 0
M  V30 29988 C 2947.26 -1.83642 0.336539 0
M  V30 29989 C 2947.62 -1.60392 -1.12999 0
M  V30 29990 O 2946.74 -1.08845 -1.87034 0
M  V30 29991 C 2947.34 -3.33372 0.604044 0
M  V30 29992 C 2945.89 -3.75418 0.271703 0
M  V30 29993 C 2945.04 -2.63201 0.872945 0
M  V30 29994 H 2947.99 -1.29232 0.921131 0
M  V30 29995 H 2948.01 -3.80283 -0.128404 0
M  V30 29996 H 2947.53 -3.50262 1.67147 0
M  V30 29997 H 2945.63 -3.6412 -0.790391 0
M  V30 29998 H 2945.74 -4.73264 0.74554 0
M  V30 29999 H 2944.1 -2.52921 0.300475 0
M  V30 30000 H 2944.89 -2.82901 1.94478 0
M  V30 30001 N 2947.33 -0.469207 -1.50453 0
M  V30 30002 C 2948.58 0.0862627 -2.01916 0
M  V30 30003 C 2948.9 1.40386 -1.3534 0
M  V30 30004 O 2948.17 1.89461 -0.498129 0
M  V30 30005 H 2946.75 0.0348693 -0.746186 0
M  V30 30006 H 2949.41 -0.619199 -1.84802 0
M  V30 30007 H 2948.51 0.239134 -3.11183 0
M  V30 30008 N 2948.81 1.56303 -0.201741 0
M  V30 30009 C 2950.06 1.98819 0.429257 0
M  V30 30010 C 2950.41 1.08662 1.58778 0
M  V30 30011 O 2949.7 0.132398 1.91142 0
M  V30 30012 C 2949.9 3.45051 0.931371 0
M  V30 30013 C 2949.73 4.49352 -0.176957 0
M  V30 30014 C 2948.5 5.01271 -0.6368 0
M  V30 30015 C 2950.69 5.04716 -0.988266 0
M  V30 30016 N 2948.68 5.89247 -1.72226 0
M  V30 30017 C 2950.05 5.89425 -1.92299 0
M  V30 30018 C 2952.1 4.87131 -1.02994 0
M  V30 30019 C 2950.81 6.58429 -2.89593 0
M  V30 30020 C 2952.83 5.56879 -1.99097 0
M  V30 30021 C 2952.19 6.4134 -2.91311 0
M  V30 30022 H 2948.29 0.772057 0.124309 0
M  V30 30023 H 2950.88 1.92233 -0.308963 0
M  V30 30024 H 2949.05 3.52124 1.63901 0
M  V30 30025 H 2950.78 3.7452 1.53353 0
M  V30 30026 H 2947.53 4.73046 -0.228945 0
M  V30 30027 H 2947.96 6.37937 -2.26639 0
M  V30 30028 H 2952.6 4.21503 -0.330968 0
M  V30 30029 H 2950.32 7.23251 -3.60462 0
M  V30 30030 H 2953.9 5.45247 -2.0297 0
M  V30 30031 H 2952.78 6.94361 -3.64462 0
M  V30 30032 N 2950.29 -0.0718147 1.57436 0
M  V30 30033 C 2951.7 -0.623647 1.75976 0
M  V30 30034 C 2952.05 -1.7791 0.827186 0
M  V30 30035 O 2951.17 -2.16397 0.0112805 0
M  V30 30036 C 2951.77 -1.1381 3.19112 0
M  V30 30037 C 2950.33 -1.6358 3.38996 0
M  V30 30038 C 2949.48 -0.555213 2.71685 0
M  V30 30039 H 2952.43 0.154356 1.57948 0
M  V30 30040 H 2952.45 -2.00691 3.2327 0
M  V30 30041 H 2951.96 -0.29693 3.86962 0
M  V30 30042 H 2950.06 -2.50022 2.7626 0
M  V30 30043 H 2950.17 -1.71276 4.47439 0
M  V30 30044 H 2948.54 -1.00025 2.34237 0
M  V30 30045 H 2949.32 0.275772 3.42191 0
M  V30 30046 N 2951.77 -1.53818 -0.343203 0
M  V30 30047 C 2953.04 -1.61708 -1.10045 0
M  V30 30048 C 2953.42 -0.43855 -2.06494 0
M  V30 30049 O 2952.77 0.569149 -2.21298 0
M  V30 30050 C 2952.98 -2.97799 -1.81979 0
M  V30 30051 C 2954.33 -3.53165 -2.35711 0
M  V30 30052 O 2955.35 -2.99976 -1.92075 0
M  V30 30053 O 2954.21 -4.462 -3.15543 0
M  V30 30054 H 2951.31 -0.65407 -0.506085 0
M  V30 30055 H 2953.85 -1.66163 -0.344668 0
M  V30 30056 H 2952.62 -3.75014 -1.11716 0
M  V30 30057 H 2952.25 -2.96936 -2.64414 0
M  V30 30058 N 2953.24 0.604233 -1.45557 0
M  V30 30059 C 2954.47 1.3946 -1.53512 0
M  V30 30060 C 2954.89 1.87333 -0.169671 0
M  V30 30061 O 2954.25 1.60335 0.846317 0
M  V30 30062 C 2954.3 2.57286 -2.52659 0
M  V30 30063 O 2953.4 3.58027 -2.04672 0
M  V30 30064 H 2952.74 0.416211 -0.517363 0
M  V30 30065 H 2955.27 0.735038 -1.90941 0
M  V30 30066 H 2955.28 3.04486 -2.71573 0
M  V30 30067 H 2953.96 2.2179 -3.51826 0
M  V30 30068 H 2952.54 3.17452 -1.95649 0
M  V30 30069 N 2954.72 1.32903 0.847027 0
M  V30 30070 C 2955.95 1.26732 1.63164 0
M  V30 30071 C 2956.36 -0.165562 1.88474 0
M  V30 30072 O 2955.7 -1.11555 1.45949 0
M  V30 30073 C 2955.76 1.96528 3.01027 0
M  V30 30074 C 2955.43 3.45851 2.98724 0
M  V30 30075 C 2956.43 4.412 2.75024 0
M  V30 30076 C 2954.11 3.87903 3.19118 0
M  V30 30077 C 2956.1 5.76576 2.71733 0
M  V30 30078 C 2953.79 5.23386 3.15453 0
M  V30 30079 C 2954.79 6.17533 2.9179 0
M  V30 30080 O 2954.48 7.50535 2.88013 0
M  V30 30081 H 2954.21 0.438267 0.514682 0
M  V30 30082 H 2956.76 1.75705 1.0638 0
M  V30 30083 H 2954.99 1.42135 3.59631 0
M  V30 30084 H 2956.68 1.83965 3.61817 0
M  V30 30085 H 2957.45 4.10037 2.59027 0
M  V30 30086 H 2953.33 3.15038 3.36559 0
M  V30 30087 H 2956.87 6.50034 2.53183 0
M  V30 30088 H 2952.77 5.54176 3.30997 0
M  V30 30089 H 2953.54 7.59986 3.03913 0
M  V30 30090 N 2956.2 -1.06426 1.16238 0
M  V30 30091 C 2957.42 -1.83439 0.96772 0
M  V30 30092 C 2957.85 -1.81895 -0.479135 0
M  V30 30093 O 2957.21 -1.21878 -1.34222 0
M  V30 30094 C 2957.26 -3.28007 1.49811 0
M  V30 30095 O 2956.36 -4.06354 0.703553 0
M  V30 30096 H 2955.7 -0.567654 0.344478 0
M  V30 30097 H 2958.23 -1.34195 1.54444 0
M  V30 30098 H 2958.24 -3.78829 1.51502 0
M  V30 30099 H 2956.92 -3.28446 2.55139 0
M  V30 30100 H 2955.49 -3.65134 0.757051 0
M  V30 30101 N 2957.68 -0.960653 -1.24937 0
M  V30 30102 C 2958.63 -0.4769 -2.27659 0
M  V30 30103 C 2959.62 0.455932 -1.63149 0
M  V30 30104 O 2960.83 0.331998 -1.76912 0
M  V30 30105 H 2957.2 -0.135736 -0.739648 0
M  V30 30106 H 2959.17 -1.35539 -2.65842 0
M  V30 30107 C 2957.92 0.22413 -3.46977 0
M  V30 30108 H 2957.24 -0.484541 -3.96853 0
M  V30 30109 H 2958.68 0.526541 -4.20718 0
M  V30 30110 C 2957.14 1.44871 -3.04161 0
M  V30 30111 O 2957.67 2.54613 -3.10701 0
M  V30 30112 N 2955.88 1.31221 -2.59286 0
M  V30 30113 H 2955.43 0.419316 -2.54164 0
M  V30 30114 H 2955.38 2.13271 -2.31004 0
M  V30 30115 N 2959.16 1.39677 -0.729931 0
M  V30 30116 C 2960.57 1.54376 -0.404978 0
M  V30 30117 C 2960.77 1.69811 1.08473 0
M  V30 30118 O 2959.83 1.69575 1.87084 0
M  V30 30119 C 2961.14 2.76427 -1.18357 0
M  V30 30120 C 2962.69 2.90258 -1.17129 0
M  V30 30121 C 2963.16 4.1524 -1.93235 0
M  V30 30122 N 2964.66 4.22269 -1.90375 0
M  V30 30123 C 2965.39 5.17914 -2.46074 0
M  V30 30124 N 2964.89 6.19379 -3.10389 0
M  V30 30125 N 2966.68 5.10094 -2.36136 0
M  V30 30126 H 2958.83 1.27906 -1.6957 0
M  V30 30127 H 2961.09 0.619551 -0.717538 0
M  V30 30128 H 2960.8 2.71348 -2.23748 0
M  V30 30129 H 2960.67 3.68949 -0.784653 0
M  V30 30130 H 2963.06 2.94833 -0.125529 0
M  V30 30131 H 2963.14 1.98814 -1.60955 0
M  V30 30132 H 2962.79 4.11427 -2.97809 0
M  V30 30133 H 2962.72 5.05719 -1.46819 0
M  V30 30134 H 2965.21 3.49588 -1.43516 0
M  V30 30135 H 2965.52 6.88811 -3.5037 0
M  V30 30136 H 2963.86 6.19781 -3.14478 0
M  V30 30137 H 2967.06 4.2976 -1.85537 0
M  V30 30138 H 2967.23 5.84458 -2.79843 0
M  V30 30139 N 2960.63 0.47718 1.50202 0
M  V30 30140 C 2961.88 -0.0758151 2.02658 0
M  V30 30141 C 2962.21 -1.38822 1.35802 0
M  V30 30142 O 2961.49 -1.88337 0.485729 0
M  V30 30143 C 2961.77 -0.253275 3.59208 0
M  V30 30144 C 2961.62 1.08057 4.36628 0
M  V30 30145 C 2962.94 -1.00501 4.28471 0
M  V30 30146 H 2960.06 -0.0260791 0.736538 0
M  V30 30147 H 2962.7 0.623956 1.79462 0
M  V30 30148 H 2960.85 -0.849312 3.79103 0
M  V30 30149 H 2962.53 1.71366 4.28289 0
M  V30 30150 H 2960.77 1.67573 4.00127 0
M  V30 30151 H 2961.44 0.909978 5.44448 0
M  V30 30152 H 2963.92 -0.499745 4.13088 0
M  V30 30153 H 2962.79 -1.09799 5.37806 0
M  V30 30154 H 2963.05 -2.04307 3.9206 0
M  V30 30155 N 2962.11 -1.56194 0.210027 0
M  V30 30156 C 2963.39 -1.8979 -0.473181 0
M  V30 30157 C 2963.77 -1.12573 -1.78579 0
M  V30 30158 O 2963.12 -0.231438 -2.27325 0
M  V30 30159 C 2963.33 -3.42363 -0.677397 0
M  V30 30160 C 2964.68 -4.12896 -0.990041 0
M  V30 30161 O 2965.7 -3.47897 -0.764594 0
M  V30 30162 O 2964.56 -5.27802 -1.41728 0
M  V30 30163 H 2961.65 -0.788748 -0.248608 0
M  V30 30164 H 2964.2 -1.67828 0.251354 0
M  V30 30165 H 2962.97 -3.90507 0.248947 0
M  V30 30166 H 2962.59 -3.70066 -1.45384 0
M  V30 30167 N 2963.59 0.0634645 -1.57472 0
M  V30 30168 C 2964.83 0.766279 -1.89493 0
M  V30 30169 C 2965.19 1.74319 -0.804781 0
M  V30 30170 O 2966.4 2.49172 -1.0083 0
M  V30 30171 C 2964.67 1.44845 -3.26733 0
M  V30 30172 S 2966.23 2.18518 -3.8052 0
M  V30 30173 H 2963.04 0.254641 -0.663837 0
M  V30 30174 H 2965.65 0.0220524 -1.95488 0
M  V30 30175 H 2964.35 0.723753 -4.03968 0
M  V30 30176 H 2963.88 2.23194 -3.23957 0
M  V30 30177 H 2965.9 3.45166 -3.56476 0
M  V30 30178 N 2965.07 1.53998 0.33504 0
M  V30 30179 C 2966.3 1.75602 1.09415 0
M  V30 30180 C 2966.71 0.49917 1.82082 0
M  V30 30181 O 2966.07 -0.529601 1.74647 0
M  V30 30182 C 2966.12 2.9417 2.1011 0
M  V30 30183 O 2965.84 4.14994 1.40397 0
M  V30 30184 C 2967.34 3.27893 2.9833 0
M  V30 30185 H 2964.56 0.586519 0.32594 0
M  V30 30186 H 2967.11 2.0085 0.384658 0
M  V30 30187 H 2965.26 2.71228 2.76611 0
M  V30 30188 H 2965.67 4.81608 2.07734 0
M  V30 30189 H 2967.15 4.14186 3.64902 0
M  V30 30190 H 2967.63 2.44563 3.64809 0
M  V30 30191 H 2968.23 3.52872 2.37406 0
M  V30 30192 N 2966.55 -0.596505 1.45875 0
M  V30 30193 C 2967.79 -1.35515 1.51681 0
M  V30 30194 C 2968.15 -1.91728 0.160714 0
M  V30 30195 O 2967.44 -1.72744 -0.828856 0
M  V30 30196 C 2967.63 -2.51395 2.54038 0
M  V30 30197 C 2967.46 -2.06531 3.99468 0
M  V30 30198 C 2966.23 -1.92188 4.67324 0
M  V30 30199 C 2968.43 -1.63327 4.87677 0
M  V30 30200 N 2966.41 -1.41251 5.97429 0
M  V30 30201 C 2967.78 -1.23884 6.07497 0
M  V30 30202 C 2969.84 -1.5102 4.74444 0
M  V30 30203 C 2968.54 -0.733614 7.15549 0
M  V30 30204 C 2970.57 -1.019 5.82555 0
M  V30 30205 C 2969.93 -0.63428 7.01538 0
M  V30 30206 H 2966.03 -0.489382 0.609942 0
M  V30 30207 H 2968.61 -0.680714 1.82413 0
M  V30 30208 H 2966.78 -3.1642 2.2524 0
M  V30 30209 H 2968.52 -3.18308 2.49924 0
M  V30 30210 H 2965.27 -2.13713 4.22639 0
M  V30 30211 H 2965.7 -1.17983 6.6664 0
M  V30 30212 H 2970.34 -1.79386 3.82858 0
M  V30 30213 H 2968.06 -0.437514 8.06915 0
M  V30 30214 H 2971.64 -0.927876 5.74353 0
M  V30 30215 H 2970.52 -0.260052 7.83769 0
M  V30 30216 N 2968.02 -1.3335 -0.839967 0
M  V30 30217 C 2968.95 -1.26139 -1.96498 0
M  V30 30218 C 2969.94 -0.142182 -1.69505 0
M  V30 30219 O 2971.12 -0.331777 -1.91345 0
M  V30 30220 C 2968.25 -0.998719 -3.3263 0
M  V30 30221 C 2967.2 -2.08075 -3.74017 0
M  V30 30222 C 2966.53 -1.67023 -5.07944 0
M  V30 30223 C 2967.83 -3.49738 -3.87918 0
M  V30 30224 H 2969.52 -2.20266 -2.02789 0
M  V30 30225 H 2967.07 -1.06037 -0.974278 0
M  V30 30226 H 2969.02 -0.934768 -4.10902 0
M  V30 30227 H 2967.75 -0.0218333 -3.26593 0
M  V30 30228 H 2966.41 -2.1351 -2.98008 0
M  V30 30229 H 2966.05 -0.680404 -4.98377 0
M  V30 30230 H 2965.75 -2.39431 -5.36606 0
M  V30 30231 H 2967.28 -1.62092 -5.88692 0
M  V30 30232 H 2968.69 -3.4681 -4.56504 0
M  V30 30233 H 2967.09 -4.20621 -4.28016 0
M  V30 30234 H 2968.16 -3.88324 -2.90401 0
M  V30 30235 N 2969.5 1.05808 -1.16801 0
M  V30 30236 C 2970.75 1.78086 -0.947012 0
M  V30 30237 C 2971.06 1.88395 0.525983 0
M  V30 30238 O 2972.27 2.57351 0.865016 0
M  V30 30239 C 2970.73 3.20099 -1.64513 0
M  V30 30240 C 2970.33 3.1794 -3.15623 0
M  V30 30241 C 2972.08 3.96877 -1.50629 0
M  V30 30242 C 2969.99 4.54703 -3.78152 0
M  V30 30243 H 2968.92 0.667487 -0.350681 0
M  V30 30244 H 2971.57 1.18642 -1.39987 0
M  V30 30245 H 2969.95 3.79832 -1.12 0
M  V30 30246 H 2971.12 2.67762 -3.7502 0
M  V30 30247 H 2969.44 2.54662 -3.29449 0
M  V30 30248 H 2972.03 4.97983 -1.94722 0
M  V30 30249 H 2972.38 4.13796 -0.455937 0
M  V30 30250 H 2972.91 3.43678 -2.00325 0
M  V30 30251 H 2969.65 4.4299 -4.83157 0
M  V30 30252 H 2969.17 5.05056 -3.23541 0
M  V30 30253 H 2970.85 5.23653 -3.79995 0
M  V30 30254 N 2970.98 0.967265 1.24426 0
M  V30 30255 C 2971.91 0.454896 2.2464 0
M  V30 30256 C 2972.93 -0.436125 1.5685 0
M  V30 30257 O 2974.11 -0.24237 1.76847 0
M  V30 30258 C 2971.21 -0.362613 3.36954 0
M  V30 30259 C 2970.39 0.5184 4.34317 0
M  V30 30260 C 2969.45 -0.24303 5.25638 0
M  V30 30261 O 2968.47 0.36289 5.68042 0
M  V30 30262 N 2969.67 -1.53272 5.599 0
M  V30 30263 H 2972.44 1.31652 2.69235 0
M  V30 30264 H 2970 0.839039 1.38462 0
M  V30 30265 H 2971.99 -0.880024 3.95016 0
M  V30 30266 H 2970.56 -1.12517 2.91648 0
M  V30 30267 H 2969.78 1.21679 3.7495 0
M  V30 30268 H 2971.07 1.11928 4.96336 0
M  V30 30269 H 2970.47 -2.04673 5.27376 0
M  V30 30270 H 2969.03 -1.99583 6.20492 0
M  V30 30271 N 2972.46 -1.39288 0.737328 0
M  V30 30272 C 2973.42 -2.28948 0.10735 0
M  V30 30273 C 2974.42 -1.46419 -0.66469 0
M  V30 30274 O 2975.61 -1.67068 -0.493363 0
M  V30 30275 C 2972.74 -3.2995 -0.857087 0
M  V30 30276 H 2973.94 -2.86162 0.897301 0
M  V30 30277 H 2971.49 -1.47975 0.503305 0
M  V30 30278 H 2972.23 -2.77796 -1.67331 0
M  V30 30279 H 2972.01 -3.90903 -0.306098 0
M  V30 30280 H 2973.5 -3.97034 -1.29437 0
M  V30 30281 N 2973.94 -0.485139 -1.49947 0
M  V30 30282 C 2975.35 -0.0334369 -1.8667 0
M  V30 30283 C 2975.7 1.37577 -1.39882 0
M  V30 30284 O 2974.82 2.02244 -0.769823 0
M  V30 30285 C 2975.42 -0.0539021 -3.38757 0
M  V30 30286 C 2973.98 0.342387 -3.7484 0
M  V30 30287 C 2973.13 -0.433329 -2.73893 0
M  V30 30288 H 2976.08 -0.698724 -1.4249 0
M  V30 30289 H 2976.1 0.74508 -3.73134 0
M  V30 30290 H 2975.61 -1.07966 -3.7278 0
M  V30 30291 H 2973.71 1.37197 -3.46421 0
M  V30 30292 H 2973.82 0.0339661 -4.79088 0
M  V30 30293 H 2972.19 0.114804 -2.54441 0
M  V30 30294 H 2972.97 -1.45886 -3.1076 0
M  V30 30295 N 2975.42 1.56081 -0.218307 0
M  V30 30296 C 2976.69 1.90039 0.463109 0
M  V30 30297 C 2977.07 1.13518 1.7798 0
M  V30 30298 O 2976.42 0.24349 2.27199 0
M  V30 30299 C 2976.63 3.42717 0.659232 0
M  V30 30300 C 2977.98 4.13416 0.96813 0
M  V30 30301 O 2979 3.48298 0.746133 0
M  V30 30302 O 2977.86 5.28547 1.38927 0
M  V30 30303 H 2974.96 0.790055 0.244422 0
M  V30 30304 H 2977.5 1.67693 -0.26025 0
M  V30 30305 H 2976.27 3.9037 -0.269653 0
M  V30 30306 H 2975.9 3.70832 1.4342 0
M  V30 30307 N 2976.89 -0.0551124 1.57504 0
M  V30 30308 C 2978.12 -0.767318 1.92684 0
M  V30 30309 C 2978.54 -1.69471 0.81617 0
M  V30 30310 O 2977.9 -1.79836 -0.229957 0
M  V30 30311 C 2977.95 -1.5228 3.26869 0
M  V30 30312 O 2977.05 -2.63454 3.17279 0
M  V30 30313 H 2976.39 -0.208227 0.630506 0
M  V30 30314 H 2978.92 -0.0183666 2.04592 0
M  V30 30315 H 2978.93 -1.89844 3.61142 0
M  V30 30316 H 2977.61 -0.84247 4.07278 0
M  V30 30317 H 2976.19 -2.28624 2.94593 0
M  V30 30318 N 2978.37 -1.54173 -0.326869 0
M  V30 30319 C 2979.6 -1.76179 -1.08483 0
M  V30 30320 C 2980.01 -0.508819 -1.81814 0
M  V30 30321 O 2979.37 0.520331 -1.74925 0
M  V30 30322 C 2979.42 -2.9528 -2.08547 0
M  V30 30323 O 2979.14 -4.15733 -1.38194 0
M  V30 30324 C 2980.64 -3.29471 -2.96587 0
M  V30 30325 H 2977.86 -0.588239 -0.322825 0
M  V30 30326 H 2980.41 -2.01051 -0.374001 0
M  V30 30327 H 2978.56 -2.72692 -2.75169 0
M  V30 30328 H 2978.98 -4.82703 -2.05177 0
M  V30 30329 H 2980.45 -4.16116 -3.62701 0
M  V30 30330 H 2980.93 -2.46494 -3.63507 0
M  V30 30331 H 2981.53 -3.54126 -2.35531 0
M  V30 30332 N 2979.85 0.58876 -1.4619 0
M  V30 30333 C 2981.1 1.34918 -1.5141 0
M  V30 30334 C 2981.43 1.93516 -0.162805 0
M  V30 30335 O 2980.7 1.76134 0.825051 0
M  V30 30336 C 2980.99 2.48306 -2.60799 0
M  V30 30337 C 2980.84 1.94782 -4.05438 0
M  V30 30338 C 2982.16 3.50375 -2.66319 0
M  V30 30339 H 2979.28 0.489207 -0.551221 0
M  V30 30340 H 2981.92 0.661961 -1.78096 0
M  V30 30341 H 2980.07 3.06928 -2.38175 0
M  V30 30342 H 2981.74 1.40664 -4.39331 0
M  V30 30343 H 2979.98 1.25651 -4.15204 0
M  V30 30344 H 2980.66 2.76605 -4.77696 0
M  V30 30345 H 2983.13 3.01624 -2.8664 0
M  V30 30346 H 2982.01 4.27178 -3.44688 0
M  V30 30347 H 2982.27 4.07213 -1.72134 0
M  V30 30348 N 2981.33 1.33794 0.832883 0
M  V30 30349 C 2982.24 1.26595 1.97511 0
M  V30 30350 C 2983.25 0.175421 1.73113 0
M  V30 30351 O 2984.43 0.400097 1.97386 0
M  V30 30352 C 2981.49 1.01127 3.31624 0
M  V30 30353 C 2980.56 2.1924 3.69097 0
M  V30 30354 C 2979.79 1.94977 4.96809 0
M  V30 30355 O 2980.01 0.903054 5.63206 0
M  V30 30356 O 2978.95 2.81669 5.31927 0
M  V30 30357 H 2982.77 2.22667 2.06526 0
M  V30 30358 H 2980.36 1.139 0.966806 0
M  V30 30359 H 2982.24 0.886643 4.11967 0
M  V30 30360 H 2980.91 0.0808789 3.23599 0
M  V30 30361 H 2979.82 2.37259 2.89239 0
M  V30 30362 H 2981.15 3.10634 3.81795 0
M  V30 30363 N 2982.81 -1.05187 1.1736 0
M  V30 30364 C 2983.74 -2.14881 0.913687 0
M  V30 30365 C 2984.72 -1.69487 -0.144335 0
M  V30 30366 O 2985.9 -1.94199 0.00591275 0
M  V30 30367 C 2983.03 -3.44674 0.426257 0
M  V30 30368 C 2981.99 -4.03635 1.42347 0
M  V30 30369 C 2981.31 -5.28772 0.793995 0
M  V30 30370 C 2982.61 -4.41116 2.79667 0
M  V30 30371 H 2984.31 -2.36882 1.83104 0
M  V30 30372 H 2981.85 -1.13843 0.881801 0
M  V30 30373 H 2983.8 -4.20762 0.231841 0
M  V30 30374 H 2982.53 -3.22326 -0.526637 0
M  V30 30375 H 2981.19 -3.29617 1.60463 0
M  V30 30376 H 2980.84 -5.02727 -0.165735 0
M  V30 30377 H 2980.54 -5.69181 1.45969 0
M  V30 30378 H 2982.06 -6.07547 0.609854 0
M  V30 30379 H 2983.47 -5.08237 2.65269 0
M  V30 30380 H 2981.87 -4.92542 3.42815 0
M  V30 30381 H 2982.94 -3.51458 3.34074 0
M  V30 30382 N 2984.28 -0.97385 -1.23911 0
M  V30 30383 C 2985.23 -0.501019 -2.2714 0
M  V30 30384 C 2986.23 0.438602 -1.63623 0
M  V30 30385 O 2987.43 0.313216 -1.77254 0
M  V30 30386 H 2983.81 -0.143573 -0.738167 0
M  V30 30387 H 2985.78 -1.38351 -2.64389 0
M  V30 30388 C 2984.53 0.187316 -3.47195 0
M  V30 30389 H 2983.85 -0.526605 -3.96317 0
M  V30 30390 H 2985.29 0.481888 -4.21253 0
M  V30 30391 C 2983.75 1.41637 -3.05681 0
M  V30 30392 O 2984.28 2.51303 -3.13384 0
M  V30 30393 N 2982.48 1.28464 -2.60663 0
M  V30 30394 H 2982.03 0.392335 -2.54595 0
M  V30 30395 H 2981.99 2.10809 -2.33253 0
M  V30 30396 N 2985.76 1.38895 -0.744705 0
M  V30 30397 C 2987.01 1.99549 -0.293751 0
M  V30 30398 C 2987.32 1.59779 1.12828 0
M  V30 30399 O 2988.53 2.13339 1.67925 0
M  V30 30400 C 2986.99 3.56762 -0.474251 0
M  V30 30401 C 2986.59 4.05489 -1.90479 0
M  V30 30402 C 2988.34 4.24414 -0.0855621 0
M  V30 30403 C 2986.24 5.5531 -2.03433 0
M  V30 30404 H 2985.17 0.746501 -0.10608 0
M  V30 30405 H 2987.83 1.58772 -0.919976 0
M  V30 30406 H 2986.21 3.95383 0.221022 0
M  V30 30407 H 2987.38 3.7818 -2.63281 0
M  V30 30408 H 2985.7 3.50532 -2.24758 0
M  V30 30409 H 2988.29 5.34457 -0.161227 0
M  V30 30410 H 2988.64 4.05066 0.960589 0
M  V30 30411 H 2989.17 3.91001 -0.732354 0
M  V30 30412 H 2985.91 5.7955 -3.06271 0
M  V30 30413 H 2985.43 5.84391 -1.3508 0
M  V30 30414 H 2987.11 6.20872 -1.82007 0
M  V30 30415 N 2987.24 0.493084 1.49688 0
M  V30 30416 C 2988.17 -0.279033 2.31827 0
M  V30 30417 C 2989.15 -0.969962 1.39735 0
M  V30 30418 O 2990.34 -0.962895 1.68647 0
M  V30 30419 C 2987.47 -1.34857 3.20048 0
M  V30 30420 C 2986.42 -0.777976 4.2087 0
M  V30 30421 C 2985.75 -1.94744 4.97975 0
M  V30 30422 C 2987.05 0.225635 5.21812 0
M  V30 30423 H 2988.74 0.406564 2.96627 0
M  V30 30424 H 2986.29 0.196968 1.42647 0
M  V30 30425 H 2988.24 -1.89638 3.76318 0
M  V30 30426 H 2986.96 -2.06324 2.53176 0
M  V30 30427 H 2985.62 -0.251972 3.65733 0
M  V30 30428 H 2985.27 -2.64961 4.27557 0
M  V30 30429 H 2984.97 -1.57177 5.66188 0
M  V30 30430 H 2986.49 -2.49974 5.57086 0
M  V30 30431 H 2987.91 -0.233763 5.72823 0
M  V30 30432 H 2986.31 0.516727 5.97871 0
M  V30 30433 H 2987.38 1.1442 4.71207 0
M  V30 30434 N 2988.72 -1.55963 0.226582 0
M  V30 30435 C 2989.94 -2.03277 -0.411491 0
M  V30 30436 C 2990.37 -1.10524 -1.52204 0
M  V30 30437 O 2989.73 -0.0943536 -1.81054 0
M  V30 30438 C 2989.77 -3.48782 -0.915632 0
M  V30 30439 O 2988.88 -3.59166 -2.02665 0
M  V30 30440 H 2988.22 -0.657528 -0.0924791 0
M  V30 30441 H 2990.75 -2.01641 0.346691 0
M  V30 30442 H 2990.76 -3.89203 -1.22415 0
M  V30 30443 H 2989.43 -4.15773 -0.102842 0
M  V30 30444 H 2988.01 -3.30635 -1.72439 0
M  V30 30445 N 2990.2 0.0467589 -1.57531 0
M  V30 30446 C 2991.13 1.05264 -2.08427 0
M  V30 30447 C 2992.11 1.38823 -0.982966 0
M  V30 30448 O 2993.29 1.48015 -1.25718 0
M  V30 30449 C 2990.42 2.35887 -2.54902 0
M  V30 30450 C 2989.38 2.16617 -3.69136 0
M  V30 30451 C 2988.7 3.52844 -4.01753 0
M  V30 30452 C 2990 1.56681 -4.98245 0
M  V30 30453 H 2991.7 0.629029 -2.92718 0
M  V30 30454 H 2989.24 0.301131 -1.40816 0
M  V30 30455 H 2991.2 3.06569 -2.89125 0
M  V30 30456 H 2989.92 2.80275 -1.67671 0
M  V30 30457 H 2988.58 1.48371 -3.35234 0
M  V30 30458 H 2988.23 3.94848 -3.11615 0
M  V30 30459 H 2987.93 3.40782 -4.78687 0
M  V30 30460 H 2989.45 4.24917 -4.38495 0
M  V30 30461 H 2990.86 2.17259 -5.30539 0
M  V30 30462 H 2989.26 1.55244 -5.79672 0
M  V30 30463 H 2990.33 0.530742 -4.81987 0
M  V30 30464 N 2991.67 1.54344 0.318688 0
M  V30 30465 C 2992.95 1.63439 1.07458 0
M  V30 30466 C 2993.33 0.471346 2.05771 0
M  V30 30467 O 2992.68 -0.533871 2.22176 0
M  V30 30468 C 2992.89 3.00657 1.77219 0
M  V30 30469 C 2994.24 3.5687 2.30063 0
M  V30 30470 O 2995.26 3.02994 1.87278 0
M  V30 30471 O 2994.12 4.51164 3.08405 0
M  V30 30472 H 2991.21 0.662038 0.495615 0
M  V30 30473 H 2993.76 1.6669 0.318189 0
M  V30 30474 H 2992.53 3.76744 1.05736 0
M  V30 30475 H 2992.16 3.01105 2.59656 0
M  V30 30476 N 2993.15 -0.580999 1.465 0
M  V30 30477 C 2994.4 -1.33537 1.51165 0
M  V30 30478 C 2994.71 -1.94873 0.168467 0
M  V30 30479 O 2995.92 -2.71341 0.0929307 0
M  V30 30480 C 2994.38 -2.42027 2.66366 0
M  V30 30481 C 2993.98 -1.86987 4.07112 0
M  V30 30482 C 2995.73 -3.18796 2.80303 0
M  V30 30483 C 2993.64 -2.93116 5.13651 0
M  V30 30484 H 2992.57 -0.502011 0.562584 0
M  V30 30485 H 2995.22 -0.619833 1.72715 0
M  V30 30486 H 2993.6 -3.16387 2.38149 0
M  V30 30487 H 2994.77 -1.19158 4.45127 0
M  V30 30488 H 2993.09 -1.2288 3.97856 0
M  V30 30489 H 2995.68 -3.98004 3.57067 0
M  V30 30490 H 2996.03 -3.71492 1.87881 0
M  V30 30491 H 2996.56 -2.51542 3.08174 0
M  V30 30492 H 2993.3 -2.45305 6.0787 0
M  V30 30493 H 2992.82 -3.59429 4.80178 0
M  V30 30494 H 2994.5 -3.57036 5.39568 0
M  V30 30495 N 2994.63 -1.34234 -0.825776 0
M  V30 30496 C 2995.54 -1.27641 -1.96837 0
M  V30 30497 C 2996.56 -0.184599 -1.73018 0
M  V30 30498 O 2997.73 -0.410559 -1.97171 0
M  V30 30499 C 2994.8 -1.02885 -3.31083 0
M  V30 30500 C 2993.86 -2.21194 -3.67929 0
M  V30 30501 C 2993.09 -1.97609 -4.95768 0
M  V30 30502 O 2993.31 -0.932909 -5.62719 0
M  V30 30503 O 2992.25 -2.84486 -5.30426 0
M  V30 30504 H 2996.07 -2.23759 -2.05342 0
M  V30 30505 H 2993.66 -1.14411 -0.960752 0
M  V30 30506 H 2995.54 -0.908478 -4.11491 0
M  V30 30507 H 2994.22 -0.098039 -3.23552 0
M  V30 30508 H 2993.12 -2.38789 -2.87977 0
M  V30 30509 H 2994.46 -3.12655 -3.80142 0
M  V30 30510 N 2996.11 1.04563 -1.17917 0
M  V30 30511 C 2997.33 1.81876 -0.996781 0
M  V30 30512 C 2997.76 1.82635 0.450136 0
M  V30 30513 O 2997.12 1.23998 1.32266 0
M  V30 30514 C 2997.16 3.25583 -1.55011 0
M  V30 30515 O 2996.27 4.05184 -0.768111 0
M  V30 30516 H 2995.61 0.562101 -0.353466 0
M  V30 30517 H 2998.14 1.31721 -1.56559 0
M  V30 30518 H 2998.15 3.76371 -1.57509 0
M  V30 30519 H 2996.82 3.24345 -2.60332 0
M  V30 30520 H 2995.4 3.63884 -0.815044 0
M  V30 30521 N 2997.59 0.980408 1.23393 0
M  V30 30522 C 2998.54 0.491786 2.22633 0
M  V30 30523 C 2999.52 -0.433195 1.54959 0
M  V30 30524 O 3000.71 -0.262048 1.75049 0
M  V30 30525 C 2997.84 -0.204471 3.42691 0
M  V30 30526 C 2996.93 0.740081 4.17593 0
M  V30 30527 N 2997.32 1.88271 4.69455 0
M  V30 30528 C 2995.62 0.553413 4.42553 0
M  V30 30529 C 2996.32 2.47455 5.26442 0
M  V30 30530 N 2995.29 1.75843 5.14373 0
M  V30 30531 H 2999.1 1.36343 2.60361 0
M  V30 30532 H 2996.61 0.841084 1.38923 0
M  V30 30533 H 2998.61 -0.571828 4.1296 0
M  V30 30534 H 2997.27 -1.07241 3.06479 0
M  V30 30535 H 2998.28 2.26389 4.65799 0
M  V30 30536 H 2994.95 -0.2695 4.16629 0
M  V30 30537 H 2996.34 3.43951 5.77189 0
M  V30 30538 N 2999.06 -1.38498 0.75206 0
M  V30 30539 C 3000.48 -1.53713 0.429487 0
M  V30 30540 C 3000.68 -1.71516 -1.05757 0
M  V30 30541 O 2999.74 -1.7253 -1.84363 0
M  V30 30542 C 3001.05 -2.74509 1.2274 0
M  V30 30543 C 3002.6 -2.88358 1.21732 0
M  V30 30544 C 3003.07 -4.12113 1.99816 0
M  V30 30545 N 3004.56 -4.19187 1.97069 0
M  V30 30546 C 3005.3 -5.13934 2.54283 0
M  V30 30547 N 3004.79 -6.14363 3.20204 0
M  V30 30548 N 3006.59 -5.06273 2.44221 0
M  V30 30549 H 2998.74 -1.25192 1.71583 0
M  V30 30550 H 3001 -0.608057 0.727303 0
M  V30 30551 H 3000.71 -2.67754 2.28037 0
M  V30 30552 H 3000.58 -3.67654 0.843251 0
M  V30 30553 H 3002.97 -2.94596 0.172419 0
M  V30 30554 H 3003.05 -1.96229 1.64097 0
M  V30 30555 H 3002.69 -4.06637 3.04317 0
M  V30 30556 H 3002.62 -5.03319 1.54846 0
M  V30 30557 H 3005.11 -3.4726 1.4906 0
M  V30 30558 H 3005.43 -6.8315 3.61284 0
M  V30 30559 H 3003.77 -6.147 3.24298 0
M  V30 30560 H 3006.96 -4.26754 1.92351 0
M  V30 30561 H 3007.14 -5.79932 2.89106 0
M  V30 30562 N 3000.54 -0.501015 -1.49424 0
M  V30 30563 C 3001.77 0.0403079 -2.06861 0
M  V30 30564 C 3002.19 1.30817 -1.36134 0
M  V30 30565 O 3001.54 1.77124 -0.439678 0
M  V30 30566 C 3001.59 0.297838 -3.60271 0
M  V30 30567 O 3001.31 -0.919761 -4.28336 0
M  V30 30568 C 3002.82 0.8828 -4.34421 0
M  V30 30569 H 3000.04 -0.0204737 -0.670688 0
M  V30 30570 H 3002.58 -0.698376 -1.92206 0
M  V30 30571 H 3000.73 0.986504 -3.74629 0
M  V30 30572 H 3001.15 -0.682619 -5.20039 0
M  V30 30573 H 3002.62 1.01258 -5.42633 0
M  V30 30574 H 3003.1 1.88059 -3.96901 0
M  V30 30575 H 3003.71 0.231602 -4.24669 0
M  V30 30576 N 3002.02 1.5584 -0.234849 0
M  V30 30577 C 3003.26 2.00549 0.394909 0
M  V30 30578 C 3003.63 1.11929 1.56 0
M  V30 30579 O 3004.83 1.46041 2.25667 0
M  V30 30580 C 3003.1 3.48197 0.805834 0
M  V30 30581 S 3004.66 4.1492 1.42782 0
M  V30 30582 H 3001.47 0.699963 0.12479 0
M  V30 30583 H 3004.08 1.92391 -0.347258 0
M  V30 30584 H 3002.78 4.10368 -0.0515993 0
M  V30 30585 H 3002.31 3.60256 1.58048 0
M  V30 30586 H 3004.33 4.15209 2.71692 0
M  V30 30587 N 3003.5 -0.038404 1.57553 0
M  V30 30588 C 3004.46 -1.0265 2.04929 0
M  V30 30589 C 3005.46 -1.29606 0.951791 0
M  V30 30590 O 3006.65 -1.24765 1.2157 0
M  V30 30591 C 3003.78 -2.36177 2.45832 0
M  V30 30592 H 3004.98 -0.617456 2.93475 0
M  V30 30593 H 3002.53 -0.285004 1.5368 0
M  V30 30594 H 3003.27 -2.81848 1.60413 0
M  V30 30595 H 3003.05 -2.17944 3.25949 0
M  V30 30596 H 3004.54 -3.07135 2.82945 0
M  V30 30597 N 3004.98 -1.54511 -0.310498 0
M  V30 30598 C 3006.21 -1.77063 -1.06453 0
M  V30 30599 C 3006.62 -0.525559 -1.81754 0
M  V30 30600 O 3005.96 0.513873 -1.76366 0
M  V30 30601 C 3006.02 -2.91895 -2.09851 0
M  V30 30602 C 3005.68 -4.30331 -1.53831 0
M  V30 30603 C 3006.68 -5.10709 -0.973269 0
M  V30 30604 C 3004.37 -4.76909 -1.5768 0
M  V30 30605 C 3006.36 -6.3578 -0.454171 0
M  V30 30606 C 3004.05 -6.01945 -1.05383 0
M  V30 30607 C 3005.05 -6.81215 -0.493475 0
M  V30 30608 O 3004.73 -8.03897 0.0215919 0
M  V30 30609 H 3004.47 -0.594436 -0.321903 0
M  V30 30610 H 3007.02 -2.02252 -0.358253 0
M  V30 30611 H 3005.25 -2.62309 -2.84132 0
M  V30 30612 H 3006.94 -3.0211 -2.7108 0
M  V30 30613 H 3007.7 -4.75872 -0.936504 0
M  V30 30614 H 3003.58 -4.15244 -2.00234 0
M  V30 30615 H 3007.13 -6.97598 -0.0161431 0
M  V30 30616 H 3003.02 -6.3627 -1.08771 0
M  V30 30617 H 3003.79 -8.18448 -0.0926039 0
M  V30 30618 N 3006.46 0.573222 -1.46806 0
M  V30 30619 C 3007.73 1.33365 -1.43084 0
M  V30 30620 C 3008.11 2.10763 -0.119289 0
M  V30 30621 O 3007.46 2.10063 0.899202 0
M  V30 30622 C 3007.67 2.25168 -2.66647 0
M  V30 30623 C 3009.02 2.86697 -3.13193 0
M  V30 30624 O 3010.04 2.35477 -2.67262 0
M  V30 30625 O 3008.9 3.79754 -3.93 0
M  V30 30626 H 3006 0.599702 -0.569461 0
M  V30 30627 H 3008.54 0.593452 -1.58985 0
M  V30 30628 H 3007.31 1.67469 -3.53652 0
M  V30 30629 H 3006.94 3.06511 -2.53252 0
M  V30 30630 N 3007.93 1.3467 0.818645 0
M  V30 30631 C 3009.16 1.30508 1.61191 0
M  V30 30632 C 3009.58 -0.117308 1.87734 0
M  V30 30633 O 3008.94 -1.08039 1.45592 0
M  V30 30634 C 3008.99 2.10575 2.92729 0
M  V30 30635 O 3008.09 1.4782 3.84997 0
M  V30 30636 H 3007.43 0.448019 0.490077 0
M  V30 30637 H 3009.96 1.77535 1.01697 0
M  V30 30638 H 3009.97 2.22088 3.42258 0
M  V30 30639 H 3008.65 3.13988 2.72735 0
M  V30 30640 H 3007.23 1.45075 3.43522 0
M  V30 30641 N 3009.41 -1.03936 1.1847 0
M  V30 30642 C 3010.34 -2.139 0.936427 0
M  V30 30643 C 3011.32 -1.6963 -0.126351 0
M  V30 30644 O 3012.51 -1.94182 0.0265098 0
M  V30 30645 C 3009.64 -3.44203 0.46279 0
M  V30 30646 C 3008.59 -4.02103 1.4662 0
M  V30 30647 C 3007.92 -5.279 0.850033 0
M  V30 30648 C 3009.22 -4.38125 2.8433 0
M  V30 30649 H 3010.91 -2.34927 1.85607 0
M  V30 30650 H 3008.46 -1.12902 0.893826 0
M  V30 30651 H 3010.41 -4.20492 0.276456 0
M  V30 30652 H 3009.13 -3.22867 -0.49242 0
M  V30 30653 H 3007.79 -3.27896 1.6395 0
M  V30 30654 H 3007.44 -5.02874 -0.112405 0
M  V30 30655 H 3007.14 -5.67601 1.51998 0
M  V30 30656 H 3008.67 -6.06866 0.674258 0
M  V30 30657 H 3010.08 -5.05395 2.70645 0
M  V30 30658 H 3008.48 -4.88878 3.4802 0
M  V30 30659 H 3009.55 -3.47895 3.37783 0
M  V30 30660 N 3010.89 -0.986938 -1.22871 0
M  V30 30661 C 3012.14 -0.660434 -1.91745 0
M  V30 30662 C 3012.47 0.804781 -1.7674 0
M  V30 30663 O 3011.74 1.58129 -1.13249 0
M  V30 30664 C 3012.03 -1.05972 -3.44154 0
M  V30 30665 C 3011.88 -2.58305 -3.68237 0
M  V30 30666 C 3013.2 -0.608496 -4.35873 0
M  V30 30667 H 3010.32 -0.241403 -0.696343 0
M  V30 30668 H 3012.96 -1.22939 -1.44865 0
M  V30 30669 H 3011.11 -0.575602 -3.84212 0
M  V30 30670 H 3012.78 -3.14341 -3.3762 0
M  V30 30671 H 3011.02 -3.00644 -3.12723 0
M  V30 30672 H 3011.7 -2.81293 -4.74951 0
M  V30 30673 H 3014.17 -1.02424 -4.03297 0
M  V30 30674 H 3013.05 -0.916238 -5.41199 0
M  V30 30675 H 3013.31 0.491009 -4.39365 0
M  V30 30676 N 3012.37 1.38098 -0.759394 0
M  V30 30677 C 3013.62 1.99227 -0.314899 0
M  V30 30678 C 3013.93 1.60966 1.11127 0
M  V30 30679 O 3015.14 2.15108 1.65653 0
M  V30 30680 C 3013.59 3.56239 -0.512064 0
M  V30 30681 C 3013.2 4.03446 -1.94769 0
M  V30 30682 C 3014.94 4.24299 -0.130572 0
M  V30 30683 C 3012.85 5.53121 -2.09311 0
M  V30 30684 H 3011.78 0.745333 -0.113991 0
M  V30 30685 H 3014.43 1.57788 -0.936764 0
M  V30 30686 H 3012.81 3.95595 0.179074 0
M  V30 30687 H 3013.99 3.75366 -2.67277 0
M  V30 30688 H 3012.3 3.48129 -2.28463 0
M  V30 30689 H 3014.9 5.34256 -0.217904 0
M  V30 30690 H 3015.24 4.06062 0.917572 0
M  V30 30691 H 3015.78 3.90202 -0.773784 0
M  V30 30692 H 3012.51 5.76269 -3.124 0
M  V30 30693 H 3012.03 5.82926 -1.41271 0
M  V30 30694 H 3013.71 6.18907 -1.88581 0
M  V30 30695 N 3013.85 0.508932 1.49156 0
M  V30 30696 C 3015.26 0.1654 1.58741 0
M  V30 30697 C 3015.46 -1.33045 1.51332 0
M  V30 30698 O 3014.52 -2.10705 1.39139 0
M  V30 30699 C 3015.83 0.749246 2.91216 0
M  V30 30700 C 3017.38 0.716069 3.04699 0
M  V30 30701 C 3017.85 1.27812 4.39805 0
M  V30 30702 N 3019.34 1.23916 4.46317 0
M  V30 30703 C 3020.08 1.64416 5.49322 0
M  V30 30704 N 3019.58 2.12545 6.59391 0
M  V30 30705 N 3021.37 1.55783 5.40082 0
M  V30 30706 H 3013.52 1.48136 1.52215 0
M  V30 30707 H 3015.78 0.614928 0.721504 0
M  V30 30708 H 3015.49 1.79862 3.0223 0
M  V30 30709 H 3015.36 0.21421 3.76591 0
M  V30 30710 H 3017.75 -0.324483 2.93311 0
M  V30 30711 H 3017.83 1.28834 2.20987 0
M  V30 30712 H 3017.47 2.31749 4.51946 0
M  V30 30713 H 3017.4 0.681714 5.22169 0
M  V30 30714 H 3019.9 0.886602 3.67352 0
M  V30 30715 H 3020.21 2.41497 7.34097 0
M  V30 30716 H 3018.55 2.16525 6.6041 0
M  V30 30717 H 3021.74 1.17995 4.52984 0
M  V30 30718 H 3021.92 1.87668 6.2023 0
M  V30 30719 N 3015.32 -1.55714 0.243111 0
M  V30 30720 C 3016.6 -1.90751 -0.432817 0
M  V30 30721 C 3016.98 -1.16336 -1.76151 0
M  V30 30722 O 3016.33 -0.279605 -2.26783 0
M  V30 30723 C 3016.54 -3.43723 -0.604625 0
M  V30 30724 C 3017.89 -4.14903 -0.902237 0
M  V30 30725 O 3018.91 -3.49441 -0.690628 0
M  V30 30726 O 3017.77 -5.3069 -1.30501 0
M  V30 30727 H 3014.86 -0.793844 -0.231821 0
M  V30 30728 H 3017.41 -1.67257 0.286896 0
M  V30 30729 H 3016.18 -3.89891 0.331723 0
M  V30 30730 H 3015.8 -3.73067 -1.37502 0
M  V30 30731 N 3016.8 0.030048 -1.57571 0
M  V30 30732 C 3018.05 0.719633 -1.88854 0
M  V30 30733 C 3018.37 1.75948 -0.840676 0
M  V30 30734 O 3017.64 1.95496 0.12582 0
M  V30 30735 H 3016.22 0.26878 -0.696969 0
M  V30 30736 H 3018.88 -0.00376711 -1.949 0
M  V30 30737 H 3017.98 1.20982 -2.87698 0
M  V30 30738 N 3018.28 1.54674 0.3023 0
M  V30 30739 C 3019.56 1.64569 1.05718 0
M  V30 30740 C 3019.94 0.493144 2.05259 0
M  V30 30741 O 3019.29 -0.510276 2.2273 0
M  V30 30742 C 3019.5 3.0252 1.7402 0
M  V30 30743 C 3020.84 3.5929 2.26265 0
M  V30 30744 O 3021.87 3.04963 1.84054 0
M  V30 30745 O 3020.73 4.5441 3.03602 0
M  V30 30746 H 3017.82 0.667258 0.488565 0
M  V30 30747 H 3020.37 1.67018 0.300492 0
M  V30 30748 H 3019.14 3.77844 1.01734 0
M  V30 30749 H 3018.76 3.03842 2.56448 0
M  V30 30750 N 3019.76 -0.565428 1.47108 0
M  V30 30751 C 3020.71 -1.69421 1.59371 0
M  V30 30752 C 3021.7 -1.62996 0.461373 0
M  V30 30753 O 3022.91 -1.68281 0.638878 0
M  V30 30754 H 3019.28 -0.56045 0.501397 0
M  V30 30755 H 3021.25 -1.56213 2.54244 0
M  V30 30756 C 3020 -3.07789 1.61744 0
M  V30 30757 H 3019.32 -3.13411 2.48221 0
M  V30 30758 H 3020.76 -3.86483 1.74377 0
M  V30 30759 C 3019.22 -3.35085 0.349215 0
M  V30 30760 O 3019.75 -3.97872 -0.553218 0
M  V30 30761 N 3017.96 -2.89674 0.231774 0
M  V30 30762 H 3017.51 -2.38759 0.967063 0
M  V30 30763 H 3017.46 -3.08309 -0.615857 0
M  V30 30764 N 3021.24 -1.35102 -0.811492 0
M  V30 30765 C 3022.18 -1.27645 -1.94447 0
M  V30 30766 C 3023.18 -0.172317 -1.68521 0
M  V30 30767 O 3024.38 -0.337998 -1.76798 0
M  V30 30768 H 3020.76 -0.396835 -0.638769 0
M  V30 30769 H 3022.73 -2.23372 -1.97857 0
M  V30 30770 C 3021.48 -1.06035 -3.31137 0
M  V30 30771 H 3020.8 -1.90234 -3.51641 0
M  V30 30772 H 3022.24 -1.04857 -4.1083 0
M  V30 30773 C 3020.7 0.23598 -3.36073 0
M  V30 30774 O 3021.23 1.23346 -3.82294 0
M  V30 30775 N 3019.44 0.273057 -2.89314 0
M  V30 30776 H 3018.98 -0.539255 -2.51892 0
M  V30 30777 H 3018.94 1.14015 -2.92998 0
M  V30 30778 N 3022.71 1.03306 -1.19019 0
M  V30 30779 C 3023.64 2.13401 -0.947757 0
M  V30 30780 C 3024.63 1.69695 0.117353 0
M  V30 30781 O 3025.81 1.94165 -0.0368074 0
M  V30 30782 C 3022.94 3.43952 -0.481037 0
M  V30 30783 C 3021.89 4.01319 -1.4875 0
M  V30 30784 C 3021.22 5.27442 -0.878017 0
M  V30 30785 C 3022.52 4.36611 -2.8665 0
M  V30 30786 H 3024.21 2.33939 -1.8685 0
M  V30 30787 H 3021.76 1.12426 -0.899801 0
M  V30 30788 H 3023.71 4.2034 -0.298751 0
M  V30 30789 H 3022.44 3.23123 0.475291 0
M  V30 30790 H 3021.1 3.27022 -1.65686 0
M  V30 30791 H 3020.74 5.02927 0.0857348 0
M  V30 30792 H 3020.44 5.66786 -1.55006 0
M  V30 30793 H 3021.97 6.065 -0.706433 0
M  V30 30794 H 3023.38 5.03953 -2.73321 0
M  V30 30795 H 3021.78 4.87026 -3.50608 0
M  V30 30796 H 3022.85 3.46099 -3.39623 0
M  V30 30797 N 3024.19 0.99344 1.22346 0
M  V30 30798 C 3025.16 0.54929 2.22521 0
M  V30 30799 C 3026.16 -0.368136 1.56529 0
M  V30 30800 O 3027.35 -0.160019 1.73463 0
M  V30 30801 C 3024.48 -0.200978 3.40307 0
M  V30 30802 H 3025.67 1.43519 2.63329 0
M  V30 30803 H 3023.22 0.780704 1.35406 0
M  V30 30804 H 3023.96 -1.10284 3.04972 0
M  V30 30805 H 3023.74 0.457753 3.89419 0
M  V30 30806 H 3025.23 -0.499873 4.14597 0
M  V30 30807 N 3025.67 -1.37693 0.766707 0
M  V30 30808 C 3026.6 -2.28946 0.107838 0
M  V30 30809 C 3027.62 -1.48389 -0.669675 0
M  V30 30810 O 3028.8 -1.71101 -0.508599 0
M  V30 30811 C 3025.9 -3.27515 -0.871026 0
M  V30 30812 C 3025.08 -4.37148 -0.148394 0
M  V30 30813 C 3024.14 -5.15822 -1.03989 0
M  V30 30814 O 3023.16 -5.66951 -0.505539 0
M  V30 30815 N 3024.36 -5.30064 -2.36669 0
M  V30 30816 H 3027.13 -2.86131 0.891591 0
M  V30 30817 H 3024.69 -1.49615 0.618619 0
M  V30 30818 H 3026.68 -3.77029 -1.47075 0
M  V30 30819 H 3025.25 -2.71135 -1.55578 0
M  V30 30820 H 3024.47 -3.89098 0.632185 0
M  V30 30821 H 3025.76 -5.07587 0.351134 0
M  V30 30822 H 3025.16 -4.90099 -2.82524 0
M  V30 30823 H 3023.72 -5.82904 -2.9166 0
M  V30 30824 N 3027.15 -0.516835 -1.48884 0
M  V30 30825 C 3028.08 0.290021 -2.27358 0
M  V30 30826 C 3029.09 0.916383 -1.3456 0
M  V30 30827 O 3030.28 0.797045 -1.59717 0
M  V30 30828 C 3027.38 1.42471 -3.07499 0
M  V30 30829 C 3026.56 0.902718 -4.27983 0
M  V30 30830 C 3025.61 1.91692 -4.90041 0
M  V30 30831 O 3024.64 1.47912 -5.49646 0
M  V30 30832 N 3025.84 3.24835 -4.81105 0
M  V30 30833 H 3028.61 -0.382936 -2.97243 0
M  V30 30834 H 3026.17 -0.350348 -1.58064 0
M  V30 30835 H 3028.16 2.10107 -3.45886 0
M  V30 30836 H 3026.73 2.00155 -2.40118 0
M  V30 30837 H 3025.95 0.0507579 -3.94167 0
M  V30 30838 H 3027.24 0.532634 -5.06004 0
M  V30 30839 H 3026.64 3.63081 -4.33807 0
M  V30 30840 H 3025.19 3.88141 -5.23631 0
M  V30 30841 N 3028.63 1.55583 -0.251365 0
M  V30 30842 C 3029.56 2.24547 0.640397 0
M  V30 30843 C 3030.54 1.22728 1.17778 0
M  V30 30844 O 3031.72 1.51392 1.21631 0
M  V30 30845 C 3028.85 2.94837 1.83544 0
M  V30 30846 C 3027.81 4.03382 1.43063 0
M  V30 30847 C 3027.13 4.61121 2.70687 0
M  V30 30848 C 3028.43 5.18861 0.598389 0
M  V30 30849 H 3030.13 2.99329 0.0653245 0
M  V30 30850 H 3027.67 1.43969 0.0299789 0
M  V30 30851 H 3029.63 3.41784 2.46499 0
M  V30 30852 H 3028.35 2.1755 2.43597 0
M  V30 30853 H 3027.01 3.5721 0.824411 0
M  V30 30854 H 3026.66 3.8053 3.28947 0
M  V30 30855 H 3026.36 5.34397 2.44323 0
M  V30 30856 H 3027.88 5.10804 3.34532 0
M  V30 30857 H 3029.29 5.62006 1.13234 0
M  V30 30858 H 3027.69 5.98553 0.430623 0
M  V30 30859 H 3028.76 4.83342 -0.388375 0
M  V30 30860 N 3030.1 -0.0216912 1.57585 0
M  V30 30861 C 3031.07 -1.0047 2.06006 0
M  V30 30862 C 3032.07 -1.28589 0.965483 0
M  V30 30863 O 3033.26 -1.23469 1.22886 0
M  V30 30864 C 3030.39 -2.33556 2.48323 0
M  V30 30865 H 3031.58 -0.586295 2.94113 0
M  V30 30866 H 3029.14 -0.268689 1.53973 0
M  V30 30867 H 3029.87 -2.8013 1.63394 0
M  V30 30868 H 3029.66 -2.14475 3.28242 0
M  V30 30869 H 3031.15 -3.04117 2.86186 0
M  V30 30870 N 3031.58 -1.54832 -0.294093 0
M  V30 30871 C 3032.83 -1.74699 -1.02996 0
M  V30 30872 C 3033.16 -0.534982 -1.86686 0
M  V30 30873 O 3032.44 0.46783 -1.8879 0
M  V30 30874 C 3032.72 -3.04 -1.93018 0
M  V30 30875 C 3032.57 -4.35514 -1.12462 0
M  V30 30876 C 3033.89 -3.29208 -2.92079 0
M  V30 30877 H 3031.01 -0.635625 -0.373028 0
M  V30 30878 H 3033.65 -1.87552 -0.304032 0
M  V30 30879 H 3031.8 -2.93173 -2.54915 0
M  V30 30880 H 3033.48 -4.58268 -0.527986 0
M  V30 30881 H 3031.72 -4.31688 -0.427498 0
M  V30 30882 H 3032.39 -5.22268 -1.78719 0
M  V30 30883 H 3034.87 -3.39689 -2.40313 0
M  V30 30884 H 3033.74 -4.20984 -3.52227 0
M  V30 30885 H 3034 -2.47833 -3.66102 0
M  V30 30886 N 3033.06 0.557619 -1.47405 0
M  V30 30887 C 3033.99 1.67446 -1.62739 0
M  V30 30888 C 3034.97 1.63279 -0.476853 0
M  V30 30889 O 3036.16 1.80907 -0.706139 0
M  V30 30890 C 3033.29 3.06083 -1.64105 0
M  V30 30891 C 3032.24 3.25096 -2.78382 0
M  V30 30892 C 3031.57 4.64515 -2.64821 0
M  V30 30893 C 3032.87 3.10511 -4.19977 0
M  V30 30894 H 3034.56 1.54869 -2.56234 0
M  V30 30895 H 3032.11 0.743628 -1.23313 0
M  V30 30896 H 3034.06 3.8406 -1.73424 0
M  V30 30897 H 3032.78 3.19618 -0.671708 0
M  V30 30898 H 3031.44 2.49527 -2.68574 0
M  V30 30899 H 3031.09 4.74849 -1.65915 0
M  V30 30900 H 3030.79 4.78185 -3.41486 0
M  V30 30901 H 3032.32 5.44628 -2.76067 0
M  V30 30902 H 3033.73 3.78306 -4.30764 0
M  V30 30903 H 3032.13 3.35691 -4.97425 0
M  V30 30904 H 3033.2 2.07262 -4.38372 0
M  V30 30905 N 3034.54 1.35531 0.804316 0
M  V30 30906 C 3035.78 1.30298 1.57486 0
M  V30 30907 C 3036.14 -0.120494 1.91622 0
M  V30 30908 O 3037.34 -0.297218 2.67152 0
M  V30 30909 C 3035.62 2.1862 2.82737 0
M  V30 30910 S 3037.17 2.30925 3.73121 0
M  V30 30911 H 3033.99 0.463023 0.539565 0
M  V30 30912 H 3036.59 1.70946 0.948571 0
M  V30 30913 H 3035.3 3.21018 2.55687 0
M  V30 30914 H 3034.83 1.78937 3.5035 0
M  V30 30915 H 3036.84 1.49574 4.73119 0
M  V30 30916 N 3036.02 -1.02674 1.19565 0
M  V30 30917 C 3037.27 -1.75761 0.997624 0
M  V30 30918 C 3037.59 -1.89189 -0.472497 0
M  V30 30919 O 3036.86 -1.42703 -1.34211 0
M  V30 30920 H 3035.44 -0.651115 0.366139 0
M  V30 30921 H 3038.1 -1.23841 1.50497 0
M  V30 30922 H 3037.19 -2.76505 1.44746 0
M  V30 30923 N 3037.5 -0.999914 -1.21817 0
M  V30 30924 C 3038.91 -0.711849 -1.42846 0
M  V30 30925 C 3039.11 0.714895 -1.88392 0
M  V30 30926 O 3038.17 1.48491 -2.04222 0
M  V30 30927 C 3039.48 -1.72339 -2.46414 0
M  V30 30928 C 3041.03 -1.73963 -2.60204 0
M  V30 30929 C 3041.5 -2.73998 -3.67 0
M  V30 30930 N 3042.99 -2.72635 -3.74465 0
M  V30 30931 C 3043.73 -3.46701 -4.56712 0
M  V30 30932 N 3043.23 -4.3039 -5.42897 0
M  V30 30933 N 3045.02 -3.35374 -4.51088 0
M  V30 30934 H 3037.17 -1.92126 -0.905622 0
M  V30 30935 H 3039.43 -0.828985 -0.459879 0
M  V30 30936 H 3039.14 -2.74469 -2.19909 0
M  V30 30937 H 3039.01 -1.52192 -3.45134 0
M  V30 30938 H 3041.4 -0.725268 -2.86049 0
M  V30 30939 H 3041.48 -1.9818 -1.61735 0
M  V30 30940 H 3041.12 -3.75588 -3.41901 0
M  V30 30941 H 3041.05 -2.47048 -4.65054 0
M  V30 30942 H 3043.55 -2.11915 -3.12891 0
M  V30 30943 H 3043.86 -4.83713 -6.02695 0
M  V30 30944 H 3042.2 -4.34474 -5.42455 0
M  V30 30945 H 3045.39 -2.69429 -3.82786 0
M  V30 30946 H 3045.57 -3.93353 -5.14953 0
M  V30 30947 N 3038.97 1.37284 -0.773999 0
M  V30 30948 C 3039.88 2.34036 -0.162612 0
M  V30 30949 C 3040.9 1.6029 0.676994 0
M  V30 30950 O 3042.08 1.92367 0.596389 0
M  V30 30951 C 3039.14 3.39467 0.70451 0
M  V30 30952 C 3038.2 4.29031 -0.151813 0
M  V30 30953 C 3037.43 5.29427 0.674017 0
M  V30 30954 O 3037.66 5.37437 1.91097 0
M  V30 30955 O 3036.59 6.01844 0.082034 0
M  V30 30956 H 3040.42 2.88056 -0.962169 0
M  V30 30957 H 3038 1.39485 -0.535194 0
M  V30 30958 H 3039.88 4.03969 1.19947 0
M  V30 30959 H 3038.56 2.87771 1.48222 0
M  V30 30960 H 3037.47 3.67622 -0.693183 0
M  V30 30961 H 3038.8 4.84038 -0.89266 0
M  V30 30962 N 3040.45 0.524724 1.48608 0
M  V30 30963 C 3041.7 -0.0132582 2.01696 0
M  V30 30964 C 3042.01 -1.35823 1.40753 0
M  V30 30965 O 3043.22 -1.98427 1.85308 0
M  V30 30966 C 3041.68 -0.074038 3.59824 0
M  V30 30967 C 3041.28 1.26572 4.29748 0
M  V30 30968 C 3043.03 -0.561126 4.20775 0
M  V30 30969 C 3040.93 1.16581 5.79796 0
M  V30 30970 H 3039.86 -0.00872605 0.75395 0
M  V30 30971 H 3042.52 0.667714 1.70921 0
M  V30 30972 H 3040.9 -0.819975 3.87418 0
M  V30 30973 H 3042.07 2.02681 4.13832 0
M  V30 30974 H 3040.39 1.68813 3.80646 0
M  V30 30975 H 3042.98 -0.653759 5.30688 0
M  V30 30976 H 3043.33 -1.56566 3.85736 0
M  V30 30977 H 3043.86 0.128971 3.97591 0
M  V30 30978 H 3040.6 2.14534 6.19399 0
M  V30 30979 H 3040.12 0.445999 5.9814 0
M  V30 30980 H 3041.8 0.854299 6.41335 0
M  V30 30981 N 3041.93 -1.55447 0.259613 0
M  V30 30982 C 3043.34 -1.85136 -0.241133 0
M  V30 30983 C 3043.69 -1.18156 -1.56632 0
M  V30 30984 O 3042.82 -0.464388 -2.11358 0
M  V30 30985 C 3043.41 -3.35874 -0.444296 0
M  V30 30986 C 3041.97 -3.65744 -0.889289 0
M  V30 30987 C 3041.12 -2.77288 0.0262961 0
M  V30 30988 H 3044.07 -1.51209 0.481835 0
M  V30 30989 H 3044.09 -3.58141 -1.28511 0
M  V30 30990 H 3043.6 -3.84596 0.520357 0
M  V30 30991 H 3041.7 -3.2251 -1.86596 0
M  V30 30992 H 3041.82 -4.73392 -0.737348 0
M  V30 30993 H 3040.18 -2.49995 -0.487317 0
M  V30 30994 H 3040.96 -3.28819 0.986552 0
M  V30 30995 N 3043.41 0.0133338 -1.57594 0
M  V30 30996 C 3044.66 0.699562 -1.89606 0
M  V30 30997 C 3044.98 1.75046 -0.85929 0
M  V30 30998 O 3044.25 1.95618 0.105078 0
M  V30 30999 H 3042.83 0.261373 -0.699781 0
M  V30 31000 H 3045.49 -0.0244386 -1.94885 0
M  V30 31001 H 3044.58 1.17923 -2.88965 0
M  V30 31002 N 3044.89 1.54985 0.285878 0
M  V30 31003 C 3046.3 1.65825 0.85784 0
M  V30 31004 C 3046.65 0.576796 1.8753 0
M  V30 31005 O 3045.77 -0.283978 2.14529 0
M  V30 31006 C 3046.37 3.00607 1.56272 0
M  V30 31007 C 3044.93 3.13517 2.08288 0
M  V30 31008 C 3044.07 2.61573 0.920587 0
M  V30 31009 H 3047.02 1.58577 0.0625184 0
M  V30 31010 H 3047.05 2.92876 2.42907 0
M  V30 31011 H 3046.56 3.79296 0.82195 0
M  V30 31012 H 3044.66 2.39577 2.85366 0
M  V30 31013 H 3044.77 4.19896 2.30703 0
M  V30 31014 H 3043.14 2.18405 1.31039 0
M  V30 31015 H 3043.92 3.42754 0.193533 0
M  V30 31016 N 3046.36 -0.549794 1.47699 0
M  V30 31017 C 3047.61 -1.30301 1.53963 0
M  V30 31018 C 3047.93 -1.94472 0.209765 0
M  V30 31019 O 3049.13 -2.71083 0.150465 0
M  V30 31020 C 3047.59 -2.36323 2.7144 0
M  V30 31021 C 3047.2 -1.78309 4.10986 0
M  V30 31022 C 3048.94 -3.12778 2.87002 0
M  V30 31023 C 3046.85 -2.82155 5.19752 0
M  V30 31024 H 3045.78 -0.489964 0.573106 0
M  V30 31025 H 3048.43 -0.583058 1.7399 0
M  V30 31026 H 3046.81 -3.11265 2.44806 0
M  V30 31027 H 3047.98 -1.09689 4.47554 0
M  V30 31028 H 3046.3 -1.14413 4.00373 0
M  V30 31029 H 3048.9 -3.90341 3.65429 0
M  V30 31030 H 3049.24 -3.67423 1.95719 0
M  V30 31031 H 3049.77 -2.44949 3.13441 0
M  V30 31032 H 3046.51 -2.32356 6.12936 0
M  V30 31033 H 3046.03 -3.49163 4.87694 0
M  V30 31034 H 3047.71 -3.45511 5.4702 0
M  V30 31035 N 3047.84 -1.35955 -0.797117 0
M  V30 31036 C 3049.26 -1.162 -1.09406 0
M  V30 31037 C 3049.46 0.0191328 -2.01491 0
M  V30 31038 O 3048.51 0.68686 -2.42978 0
M  V30 31039 C 3049.83 -2.46934 -1.71593 0
M  V30 31040 C 3051.38 -2.53227 -1.8397 0
M  V30 31041 C 3051.85 -3.84028 -2.49573 0
M  V30 31042 N 3053.34 -3.85331 -2.57049 0
M  V30 31043 C 3054.08 -4.83274 -3.086 0
M  V30 31044 N 3053.57 -5.91608 -3.60517 0
M  V30 31045 N 3055.37 -4.70701 -3.07241 0
M  V30 31046 H 3047.52 -2.11591 -0.185172 0
M  V30 31047 H 3049.78 -0.936884 -0.144752 0
M  V30 31048 H 3049.49 -3.33592 -1.11398 0
M  V30 31049 H 3049.36 -2.62177 -2.71188 0
M  V30 31050 H 3051.75 -1.66992 -2.43306 0
M  V30 31051 H 3051.83 -2.4189 -0.832027 0
M  V30 31052 H 3051.47 -4.70665 -1.90884 0
M  V30 31053 H 3051.4 -3.92657 -3.50895 0
M  V30 31054 H 3053.89 -3.07061 -2.20277 0
M  V30 31055 H 3054.21 -6.62324 -3.9818 0
M  V30 31056 H 3052.55 -5.95287 -3.5869 0
M  V30 31057 H 3055.74 -3.85202 -2.65965 0
M  V30 31058 H 3055.91 -5.47192 -3.47109 0
M  V30 31059 N 3049.32 1.02038 -1.20108 0
M  V30 31060 C 3050.55 1.79721 -1.03514 0
M  V30 31061 C 3050.97 1.83548 0.411296 0
M  V30 31062 O 3050.33 1.26775 1.29606 0
M  V30 31063 C 3050.38 3.22221 -1.61882 0
M  V30 31064 O 3049.48 4.03463 -0.853884 0
M  V30 31065 H 3048.82 0.554477 -0.365309 0
M  V30 31066 H 3051.35 1.2837 -1.59318 0
M  V30 31067 H 3051.36 3.72945 -1.65457 0
M  V30 31068 H 3050.04 3.1875 -2.67154 0
M  V30 31069 H 3048.61 3.62073 -0.892046 0
M  V30 31070 N 3050.8 1.00636 1.21285 0
M  V30 31071 C 3052.03 0.708712 1.94383 0
M  V30 31072 C 3052.44 -0.728927 1.74161 0
M  V30 31073 O 3051.8 -1.49333 1.04909 0
M  V30 31074 C 3051.85 1.02199 3.46753 0
M  V30 31075 O 3051.57 2.40315 3.66306 0
M  V30 31076 C 3053.07 0.743944 4.37013 0
M  V30 31077 H 3050.29 0.261063 0.618132 0
M  V30 31078 H 3052.84 1.34477 1.54065 0
M  V30 31079 H 3050.99 0.431508 3.84989 0
M  V30 31080 H 3051.4 2.51283 4.60388 0
M  V30 31081 H 3052.88 1.01331 5.4262 0
M  V30 31082 H 3053.36 -0.322007 4.38018 0
M  V30 31083 H 3053.96 1.3161 4.04424 0
M  V30 31084 N 3052.28 -1.36872 0.781268 0
M  V30 31085 C 3053.52 -1.9906 0.349233 0
M  V30 31086 C 3053.85 -1.62323 -1.08057 0
M  V30 31087 O 3053.12 -0.89326 -1.74349 0
M  V30 31088 H 3051.7 -0.736273 0.126139 0
M  V30 31089 H 3054.36 -1.672 1.00151 0
M  V30 31090 H 3053.45 -3.09061 0.434506 0
M  V30 31091 N 3053.75 -0.532597 -1.48328 0
M  V30 31092 C 3054.66 0.232505 -2.33445 0
M  V30 31093 C 3055.68 0.936424 -1.46653 0
M  V30 31094 O 3056.86 0.910802 -1.79628 0
M  V30 31095 C 3053.92 1.26428 -3.22826 0
M  V30 31096 C 3052.98 0.570436 -4.25493 0
M  V30 31097 C 3052.22 1.55306 -5.10603 0
M  V30 31098 O 3052.44 2.78591 -4.97738 0
M  V30 31099 O 3051.37 1.09102 -5.91929 0
M  V30 31100 H 3055.2 -0.465041 -3.00118 0
M  V30 31101 H 3052.78 -0.293487 -1.46489 0
M  V30 31102 H 3054.67 1.86048 -3.78106 0
M  V30 31103 H 3053.34 1.94419 -2.58811 0
M  V30 31104 H 3052.25 -0.0663244 -3.74041 0
M  V30 31105 H 3053.58 -0.0675769 -4.92154 0
M  V30 31106 N 3055.23 1.55307 -0.267853 0
M  V30 31107 C 3056.46 2.03544 0.354037 0
M  V30 31108 C 3056.87 1.14589 1.50552 0
M  V30 31109 O 3056.21 0.157023 1.83028 0
M  V30 31110 C 3056.28 3.47946 0.904087 0
M  V30 31111 C 3055.94 4.56848 -0.11783 0
M  V30 31112 C 3056.94 5.11427 -0.934796 0
M  V30 31113 C 3054.62 5.01678 -0.249973 0
M  V30 31114 C 3056.62 6.09347 -1.87016 0
M  V30 31115 C 3054.3 5.99425 -1.18882 0
M  V30 31116 C 3055.3 6.5314 -1.99742 0
M  V30 31117 O 3054.99 7.48977 -2.92041 0
M  V30 31118 H 3054.72 0.670537 0.0857647 0
M  V30 31119 H 3057.27 2.01555 -0.395551 0
M  V30 31120 H 3055.5 3.47151 1.70362 0
M  V30 31121 H 3057.19 3.79563 1.43829 0
M  V30 31122 H 3057.96 4.7761 -0.843404 0
M  V30 31123 H 3053.84 4.59518 0.369389 0
M  V30 31124 H 3057.38 6.51199 -2.50171 0
M  V30 31125 H 3053.28 6.3266 -1.28106 0
M  V30 31126 H 3054.05 7.66668 -2.8664 0
M  V30 31127 N 3056.71 -0.00497598 1.57599 0
M  V30 31128 C 3057.64 -1.03177 2.03543 0
M  V30 31129 C 3058.62 -1.33772 0.924324 0
M  V30 31130 O 3059.81 -1.46021 1.19206 0
M  V30 31131 C 3056.93 -2.36062 2.42883 0
M  V30 31132 C 3055.98 -2.21163 3.64677 0
M  V30 31133 S 3056.81 -1.54234 5.12808 0
M  V30 31134 C 3057.97 -2.8856 5.55413 0
M  V30 31135 H 3058.2 -0.640547 2.90318 0
M  V30 31136 H 3055.73 -0.215695 1.52886 0
M  V30 31137 H 3057.69 -3.12471 2.66218 0
M  V30 31138 H 3056.35 -2.72326 1.56517 0
M  V30 31139 H 3055.55 -3.19319 3.89938 0
M  V30 31140 H 3055.15 -1.52898 3.41319 0
M  V30 31141 H 3057.44 -3.84867 5.5757 0
M  V30 31142 H 3058.38 -2.68004 6.55423 0
M  V30 31143 H 3058.79 -2.9224 4.82966 0
M  V30 31144 N 3058.19 -1.55135 -0.277654 0
M  V30 31145 C 3059.44 -1.75522 -1.00987 0
M  V30 31146 C 3059.76 -0.553745 -1.86451 0
M  V30 31147 O 3059.02 0.463862 -1.90123 0
M  V30 31148 C 3059.32 -3.01069 -1.92594 0
M  V30 31149 C 3058.98 -4.33822 -1.22918 0
M  V30 31150 C 3057.65 -4.69904 -1.0365 0
M  V30 31151 C 3060 -5.1602 -0.732981 0
M  V30 31152 C 3057.33 -5.85744 -0.33483 0
M  V30 31153 C 3059.68 -6.32584 -0.0449207 0
M  V30 31154 C 3058.34 -6.67309 0.15951 0
M  V30 31155 H 3057.61 -0.642279 -0.369538 0
M  V30 31156 H 3060.26 -1.89404 -0.282578 0
M  V30 31157 H 3058.56 -2.82067 -2.71929 0
M  V30 31158 H 3060.26 -3.14038 -2.49361 0
M  V30 31159 H 3056.85 -4.0546 -1.38926 0
M  V30 31160 H 3061.03 -4.88624 -0.869479 0
M  V30 31161 H 3056.29 -6.11175 -0.165675 0
M  V30 31162 H 3060.46 -6.95533 0.347352 0
M  V30 31163 H 3058.09 -7.56922 0.705203 0
M  V30 31164 N 3059.67 0.541953 -1.47989 0
M  V30 31165 C 3060.92 1.29482 -1.54652 0
M  V30 31166 C 3061.23 1.94358 -0.220075 0
M  V30 31167 O 3062.43 2.70999 -0.164839 0
M  V30 31168 C 3060.89 2.3488 -2.72689 0
M  V30 31169 C 3060.5 1.76127 -4.11926 0
M  V30 31170 C 3062.24 3.11252 -2.88657 0
M  V30 31171 C 3060.15 2.79395 -5.21241 0
M  V30 31172 H 3059.08 0.486918 -0.575697 0
M  V30 31173 H 3061.73 0.573823 -1.74297 0
M  V30 31174 H 3060.11 3.09962 -2.46454 0
M  V30 31175 H 3061.29 1.07314 -4.4813 0
M  V30 31176 H 3059.6 1.12288 -4.00974 0
M  V30 31177 H 3062.2 3.88397 -3.67494 0
M  V30 31178 H 3062.54 3.6638 -1.97665 0
M  V30 31179 H 3063.07 2.43283 -3.14735 0
M  V30 31180 H 3059.81 2.29102 -6.1416 0
M  V30 31181 H 3059.33 3.46571 -4.89539 0
M  V30 31182 H 3061.01 3.42605 -5.48845 0
M  V30 31183 N 3061.15 1.36376 0.789896 0
M  V30 31184 C 3062.56 1.16779 1.08788 0
M  V30 31185 C 3062.76 -0.00844695 2.01498 0
M  V30 31186 O 3061.82 -0.673964 2.43339 0
M  V30 31187 C 3063.13 2.4784 1.70281 0
M  V30 31188 C 3064.68 2.54199 1.82624 0
M  V30 31189 C 3065.15 3.85346 2.47532 0
M  V30 31190 N 3066.64 3.86689 2.55001 0
M  V30 31191 C 3067.38 4.84904 3.06033 0
M  V30 31192 N 3066.88 5.93511 3.57374 0
M  V30 31193 N 3068.67 4.72324 3.0474 0
M  V30 31194 H 3060.82 2.11687 0.173948 0
M  V30 31195 H 3063.08 0.937638 0.139781 0
M  V30 31196 H 3062.79 3.34178 1.09627 0
M  V30 31197 H 3062.66 2.63611 2.69794 0
M  V30 31198 H 3065.05 1.6828 2.42417 0
M  V30 31199 H 3065.13 2.42328 0.819187 0
M  V30 31200 H 3064.77 4.71671 1.88385 0
M  V30 31201 H 3064.7 3.94513 3.48808 0
M  V30 31202 H 3067.2 3.08225 2.18646 0
M  V30 31203 H 3067.51 6.64426 3.94662 0
M  V30 31204 H 3065.85 5.97181 3.55528 0
M  V30 31205 H 3069.04 3.86607 2.63918 0
M  V30 31206 H 3069.22 5.49025 3.44202 0
M  V30 31207 N 3062.62 -1.014 1.20647 0
M  V30 31208 C 3063.87 -1.75039 1.01822 0
M  V30 31209 C 3064.2 -1.89238 -0.449352 0
M  V30 31210 O 3063.45 -1.41697 -1.34983 0
M  V30 31211 C 3063.75 -3.17034 1.64997 0
M  V30 31212 C 3063.42 -3.22806 3.14813 0
M  V30 31213 C 3062.08 -3.24088 3.55697 0
M  V30 31214 C 3064.43 -3.20762 4.10805 0
M  V30 31215 C 3061.76 -3.21001 4.91096 0
M  V30 31216 C 3064.11 -3.19217 5.46153 0
M  V30 31217 C 3062.78 -3.18804 5.86447 0
M  V30 31218 H 3062.05 -0.640512 0.372594 0
M  V30 31219 H 3064.69 -1.18909 1.5011 0
M  V30 31220 H 3063 -3.76339 1.08978 0
M  V30 31221 H 3064.7 -3.72711 1.47943 0
M  V30 31222 H 3061.29 -3.22545 2.82246 0
M  V30 31223 H 3065.47 -3.1894 3.80252 0
M  V30 31224 H 3060.73 -3.19014 5.21574 0
M  V30 31225 H 3064.9 -3.16589 6.20278 0
M  V30 31226 H 3062.53 -3.16167 6.91334 0
M  V30 31227 N 3064.1 -1.01278 -1.2075 0
M  V30 31228 C 3065.33 -0.71901 -1.94005 0
M  V30 31229 C 3065.74 0.71968 -1.74545 0
M  V30 31230 O 3065.1 1.48775 -1.057 0
M  V30 31231 C 3065.15 -1.04037 -3.46206 0
M  V30 31232 O 3064.87 -2.42255 -3.65026 0
M  V30 31233 C 3066.37 -0.767109 -4.36612 0
M  V30 31234 H 3063.59 -0.264338 -0.616739 0
M  V30 31235 H 3066.14 -1.35293 -1.5335 0
M  V30 31236 H 3064.29 -0.451919 -3.84755 0
M  V30 31237 H 3064.71 -2.53721 -4.59049 0
M  V30 31238 H 3066.18 -1.04207 -5.42075 0
M  V30 31239 H 3066.66 0.298774 -4.38183 0
M  V30 31240 H 3067.26 -1.33753 -4.0372 0
M  V30 31241 N 3065.58 1.36456 -0.788516 0
M  V30 31242 C 3066.8 2.0405 -0.37126 0
M  V30 31243 C 3067.23 1.59066 1.00397 0
M  V30 31244 O 3066.59 0.758708 1.64661 0
M  V30 31245 C 3066.64 3.57877 -0.442338 0
M  V30 31246 O 3065.74 4.08702 0.551058 0
M  V30 31247 H 3065.08 0.644972 -0.15782 0
M  V30 31248 H 3067.61 1.74429 -1.06938 0
M  V30 31249 H 3067.62 4.06854 -0.305619 0
M  V30 31250 H 3066.3 3.89971 -1.44554 0
M  V30 31251 H 3064.87 3.70999 0.376075 0
M  V30 31252 N 3067.06 0.540456 1.48043 0
M  V30 31253 C 3068.33 -0.0546958 1.95524 0
M  V30 31254 C 3068.71 -1.50248 1.48287 0
M  V30 31255 O 3068.06 -2.17056 0.714075 0
M  V30 31256 C 3068.27 0.0734007 3.48923 0
M  V30 31257 C 3069.62 -0.0805279 4.24524 0
M  V30 31258 O 3070.64 0.00011848 3.562 0
M  V30 31259 O 3069.5 -0.25112 5.45923 0
M  V30 31260 H 3066.6 -0.0734785 0.823729 0
M  V30 31261 H 3069.14 0.605796 1.58519 0
M  V30 31262 H 3067.92 1.0815 3.76057 0
M  V30 31263 H 3067.54 -0.625467 3.9265 0
M  V30 31264 N 3068.54 -1.55163 0.276085 0
M  V30 31265 C 3069.76 -2.04483 -0.346612 0
M  V30 31266 C 3070.19 -1.1531 -1.48611 0
M  V30 31267 O 3069.54 -0.151907 -1.80662 0
M  V30 31268 C 3069.59 -3.51518 -0.804207 0
M  V30 31269 O 3068.7 -3.65432 -1.91136 0
M  V30 31270 H 3068.04 -0.660138 -0.0715135 0
M  V30 31271 H 3070.57 -2.00436 0.410667 0
M  V30 31272 H 3070.58 -3.929 -1.0997 0
M  V30 31273 H 3069.25 -4.1589 0.0294854 0
M  V30 31274 H 3067.83 -3.35953 -1.61833 0
M  V30 31275 N 3070.01 -0.00338196 -1.576 0
M  V30 31276 C 3071.24 0.695276 -1.95399 0
M  V30 31277 C 3071.66 1.66325 -0.878505 0
M  V30 31278 O 3071.02 1.80565 0.163054 0
M  V30 31279 C 3071.07 1.40044 -3.32295 0
M  V30 31280 O 3070.17 2.51497 -3.26838 0
M  V30 31281 H 3069.51 0.184683 -0.637799 0
M  V30 31282 H 3072.04 -0.0575789 -2.04519 0
M  V30 31283 H 3072.05 1.76309 -3.67939 0
M  V30 31284 H 3070.73 0.690731 -4.10124 0
M  V30 31285 H 3069.31 2.17533 -3.02876 0
M  V30 31286 N 3071.49 1.5528 0.269423 0
M  V30 31287 C 3072.74 1.76316 1.00203 0
M  V30 31288 C 3073.07 0.564614 1.85811 0
M  V30 31289 O 3072.35 -0.437736 1.8951 0
M  V30 31290 C 3072.63 3.07032 1.88158 0
M  V30 31291 C 3072.48 4.37248 1.05519 0
M  V30 31292 C 3073.8 3.33813 2.86805 0
M  V30 31293 H 3070.92 0.641479 0.362868 0
M  V30 31294 H 3073.56 1.88012 0.274155 0
M  V30 31295 H 3071.71 2.97192 2.50218 0
M  V30 31296 H 3073.38 4.5905 0.455013 0
M  V30 31297 H 3071.63 4.32314 0.358766 0
M  V30 31298 H 3072.3 5.25045 1.70388 0
M  V30 31299 H 3074.77 3.4347 2.34878 0
M  V30 31300 H 3073.65 4.26534 3.45485 0
M  V30 31301 H 3073.91 2.53626 3.62113 0
M  V30 31302 N 3072.97 -0.534097 1.48274 0
M  V30 31303 C 3074.2 -1.31499 1.59736 0
M  V30 31304 C 3074.61 -1.87055 0.25608 0
M  V30 31305 O 3073.97 -1.66193 -0.754056 0
M  V30 31306 C 3074.02 -2.46873 2.64076 0
M  V30 31307 O 3073.74 -1.93607 3.92999 0
M  V30 31308 C 3075.24 -3.38753 2.85939 0
M  V30 31309 H 3072.46 -0.40004 0.53871 0
M  V30 31310 H 3075.01 -0.644728 1.94071 0
M  V30 31311 H 3073.16 -3.09791 2.32612 0
M  V30 31312 H 3073.58 -2.69098 4.50207 0
M  V30 31313 H 3075.05 -4.16067 3.62757 0
M  V30 31314 H 3075.53 -3.9373 1.9461 0
M  V30 31315 H 3076.13 -2.81631 3.18692 0
M  V30 31316 N 3074.45 -1.36793 -0.782652 0
M  V30 31317 C 3075.86 -1.17354 -1.08167 0
M  V30 31318 C 3076.06 -0.00223911 -2.015 0
M  V30 31319 O 3075.12 0.66105 -2.43693 0
M  V30 31320 C 3076.43 -2.4874 -1.68964 0
M  V30 31321 C 3077.98 -2.55164 -1.81274 0
M  V30 31322 C 3078.46 -3.86653 -2.45485 0
M  V30 31323 N 3079.95 -3.88036 -2.52947 0
M  V30 31324 C 3080.68 -4.8652 -3.03457 0
M  V30 31325 N 3080.18 -5.95398 -3.54222 0
M  V30 31326 N 3081.97 -4.73933 -3.02231 0
M  V30 31327 H 3074.12 -2.11776 -0.16272 0
M  V30 31328 H 3076.38 -0.938366 -0.134807 0
M  V30 31329 H 3076.09 -3.34754 -1.07853 0
M  V30 31330 H 3075.96 -2.65039 -2.68392 0
M  V30 31331 H 3078.35 -1.69563 -2.41521 0
M  V30 31332 H 3078.43 -2.42759 -0.806325 0
M  V30 31333 H 3078.08 -4.72663 -1.85881 0
M  V30 31334 H 3078.01 -3.96357 -3.46711 0
M  V30 31335 H 3080.5 -3.0938 -2.17008 0
M  V30 31336 H 3080.81 -6.66509 -3.91133 0
M  V30 31337 H 3079.16 -5.99058 -3.52356 0
M  V30 31338 H 3082.35 -3.88001 -2.61864 0
M  V30 31339 H 3082.52 -5.50843 -3.41286 0
M  V30 31340 N 3075.93 1.00759 -1.21184 0
M  V30 31341 C 3076.89 2.07645 -0.970376 0
M  V30 31342 C 3077.89 1.60697 0.0576063 0
M  V30 31343 O 3079.08 1.73274 -0.179399 0
M  V30 31344 C 3076.21 3.37744 -0.462762 0
M  V30 31345 H 3077.4 2.30499 -1.9186 0
M  V30 31346 H 3074.96 1.17696 -1.02846 0
M  V30 31347 H 3075.69 3.20569 0.490503 0
M  V30 31348 H 3075.48 3.7315 -1.20423 0
M  V30 31349 H 3076.97 4.16421 -0.313604 0
M  V30 31350 N 3077.4 1.01917 1.20211 0
M  V30 31351 C 3078.65 0.708586 1.89271 0
M  V30 31352 C 3078.97 -0.764349 1.79395 0
M  V30 31353 O 3078.24 -1.54997 1.19803 0
M  V30 31354 H 3076.82 0.259106 0.700623 0
M  V30 31355 H 3079.49 1.29132 1.45983 0
M  V30 31356 H 3078.58 0.994267 2.95839 0
M  V30 31357 N 3078.88 -1.36036 0.795742 0
M  V30 31358 C 3080.13 -1.99071 0.371059 0
M  V30 31359 C 3080.46 -1.63147 -1.05893 0
M  V30 31360 O 3079.71 -0.881194 -1.74738 0
M  V30 31361 C 3080.01 -3.54038 0.4891 0
M  V30 31362 C 3079.68 -4.098 1.88082 0
M  V30 31363 C 3078.34 -4.24741 2.2616 0
M  V30 31364 C 3080.69 -4.40121 2.79182 0
M  V30 31365 C 3078.02 -4.67318 3.54727 0
M  V30 31366 C 3080.37 -4.84132 4.07184 0
M  V30 31367 C 3079.04 -4.97279 4.45275 0
M  V30 31368 H 3078.31 -0.728454 0.13578 0
M  V30 31369 H 3080.95 -1.62424 1.01443 0
M  V30 31370 H 3079.26 -3.91078 -0.237754 0
M  V30 31371 H 3080.95 -4.0075 0.141444 0
M  V30 31372 H 3077.54 -3.98614 1.57495 0
M  V30 31373 H 3081.73 -4.28141 2.51016 0
M  V30 31374 H 3076.98 -4.75685 3.84102 0
M  V30 31375 H 3081.16 -5.06557 4.77884 0
M  V30 31376 H 3078.79 -5.30029 5.44953 0
M  V30 31377 N 3080.36 -0.5483 -1.47755 0
M  V30 31378 C 3081.31 0.217543 -2.3158 0
M  V30 31379 C 3082.3 0.917932 -1.42374 0
M  V30 31380 O 3083.51 0.840231 -1.59186 0
M  V30 31381 H 3079.88 0.0890257 -0.746712 0
M  V30 31382 H 3081.85 -0.50877 -2.94031 0
M  V30 31383 C 3080.6 1.24002 -3.24837 0
M  V30 31384 H 3079.93 0.710502 -3.93436 0
M  V30 31385 H 3081.37 1.74694 -3.86339 0
M  V30 31386 C 3079.83 2.28325 -2.47728 0
M  V30 31387 O 3080.36 3.35094 -2.21528 0
M  V30 31388 N 3078.56 2.02018 -2.08895 0
M  V30 31389 H 3078.11 1.15206 -2.30403 0
M  V30 31390 H 3078.07 2.72037 -1.57618 0
M  V30 31391 N 3081.84 1.55014 -0.28431 0
M  V30 31392 C 3082.8 2.21578 0.586143 0
M  V30 31393 C 3083.8 1.19652 1.07425 0
M  V30 31394 O 3084.99 1.44497 0.972951 0
M  V30 31395 C 3082.12 2.889 1.80968 0
M  V30 31396 H 3083.32 2.999 0.00481982 0
M  V30 31397 H 3080.87 1.56261 -0.0349971 0
M  V30 31398 H 3081.6 2.14615 2.43127 0
M  V30 31399 H 3081.39 3.63602 1.4675 0
M  V30 31400 H 3082.88 3.39728 2.42847 0
M  V30 31401 N 3083.32 0.0117398 1.57596 0
M  V30 31402 C 3084.54 -0.684904 1.95765 0
M  V30 31403 C 3084.97 -1.65856 0.887314 0
M  V30 31404 O 3084.32 -1.80649 -0.153476 0
M  V30 31405 C 3084.37 -1.38279 3.33033 0
M  V30 31406 O 3083.48 -2.4976 3.28167 0
M  V30 31407 H 3082.82 -0.181298 0.63877 0
M  V30 31408 H 3085.35 0.0684243 2.04486 0
M  V30 31409 H 3085.36 -1.74356 3.68869 0
M  V30 31410 H 3084.03 -0.668971 4.10485 0
M  V30 31411 H 3082.61 -2.15924 3.04025 0
M  V30 31412 N 3084.79 -1.55421 -0.261185 0
M  V30 31413 C 3086.04 -1.76583 -0.991199 0
M  V30 31414 C 3086.37 -0.573489 -1.85853 0
M  V30 31415 O 3085.62 0.443671 -1.90604 0
M  V30 31416 C 3085.92 -3.03094 -1.8939 0
M  V30 31417 C 3085.59 -4.35102 -1.1831 0
M  V30 31418 C 3084.25 -4.70977 -0.986605 0
M  V30 31419 C 3086.6 -5.16769 -0.678209 0
M  V30 31420 C 3083.93 -5.86066 -0.272685 0
M  V30 31421 C 3086.28 -6.32596 0.0221758 0
M  V30 31422 C 3084.95 -6.67103 0.230279 0
M  V30 31423 H 3084.22 -0.646162 -0.362705 0
M  V30 31424 H 3086.86 -1.89693 -0.262473 0
M  V30 31425 H 3085.17 -2.84935 -2.68922 0
M  V30 31426 H 3086.87 -3.16665 -2.46016 0
M  V30 31427 H 3083.46 -4.0691 -1.34618 0
M  V30 31428 H 3087.64 -4.89519 -0.817605 0
M  V30 31429 H 3082.9 -6.11317 -0.100843 0
M  V30 31430 H 3087.07 -6.95126 0.421103 0
M  V30 31431 H 3084.7 -7.56131 0.785445 0
M  V30 31432 N 3086.27 0.526227 -1.48555 0
M  V30 31433 C 3087.22 1.62671 -1.59756 0
M  V30 31434 C 3088.21 1.54348 -0.454479 0
M  V30 31435 O 3089.4 1.62305 -0.70612 0
M  V30 31436 C 3086.53 3.0138 -1.64393 0
M  V30 31437 C 3085.61 3.14793 -2.84194 0
M  V30 31438 N 3086 2.98168 -4.0857 0
M  V30 31439 C 3084.3 3.45854 -2.81605 0
M  V30 31440 C 3085 3.15097 -4.88967 0
M  V30 31441 N 3083.98 3.42841 -4.21854 0
M  V30 31442 H 3087.78 1.48434 -2.53662 0
M  V30 31443 H 3085.3 0.731776 -1.44979 0
M  V30 31444 H 3087.29 3.80436 -1.70512 0
M  V30 31445 H 3085.95 3.16706 -0.716062 0
M  V30 31446 H 3086.96 2.74855 -4.38948 0
M  V30 31447 H 3083.64 3.67514 -1.9809 0
M  V30 31448 H 3085.03 3.0695 -5.97688 0
M  V30 31449 N 3087.75 1.37206 0.775387 0
M  V30 31450 C 3088.7 1.32674 1.88855 0
M  V30 31451 C 3089.67 0.192928 1.64976 0
M  V30 31452 O 3090.85 0.381706 1.86943 0
M  V30 31453 C 3087.99 1.13593 3.25869 0
M  V30 31454 C 3087.11 2.36173 3.61727 0
M  V30 31455 C 3086.24 2.09993 4.87931 0
M  V30 31456 C 3085.28 3.28459 5.16509 0
M  V30 31457 N 3084.42 3.01853 6.339 0
M  V30 31458 H 3089.26 2.2785 1.92064 0
M  V30 31459 H 3086.79 1.13227 0.939046 0
M  V30 31460 H 3088.75 1.00553 4.04901 0
M  V30 31461 H 3087.38 0.22067 3.22045 0
M  V30 31462 H 3086.43 2.59967 2.77708 0
M  V30 31463 H 3087.75 3.24535 3.78786 0
M  V30 31464 H 3086.9 1.93963 5.74859 0
M  V30 31465 H 3085.64 1.18964 4.72968 0
M  V30 31466 H 3084.64 3.45032 4.28057 0
M  V30 31467 H 3085.87 4.20334 5.33382 0
M  V30 31468 H 3083.81 2.1345 6.20302 0
M  V30 31469 H 3083.73 3.83757 6.51357 0
M  V30 31470 H 3085 2.89433 7.23774 0
M  V30 31471 N 3089.23 -1.00115 1.21716 0
M  V30 31472 C 3090.45 -1.78052 1.0636 0
M  V30 31473 C 3090.88 -1.84179 -0.382043 0
M  V30 31474 O 3090.24 -1.28821 -1.27573 0
M  V30 31475 C 3090.28 -3.19605 1.66988 0
M  V30 31476 O 3089.39 -4.02054 0.917963 0
M  V30 31477 H 3088.73 -0.548596 0.374084 0
M  V30 31478 H 3091.26 -1.25819 1.6134 0
M  V30 31479 H 3091.27 -3.70265 1.71369 0
M  V30 31480 H 3089.94 -3.1446 2.72191 0
M  V30 31481 H 3088.52 -3.60608 0.949536 0
M  V30 31482 N 3090.71 -1.02553 -1.19669 0
M  V30 31483 C 3091.95 -0.728701 -1.90969 0
M  V30 31484 C 3092.31 0.729026 -1.77621 0
M  V30 31485 O 3093.51 1.13878 -2.43486 0
M  V30 31486 C 3091.78 -1.16329 -3.37938 0
M  V30 31487 S 3093.34 -0.989797 -4.27491 0
M  V30 31488 H 3090.16 -0.265392 -0.659612 0
M  V30 31489 H 3092.76 -1.31466 -1.44696 0
M  V30 31490 H 3091.47 -2.21992 -3.45178 0
M  V30 31491 H 3091 -0.570485 -3.89242 0
M  V30 31492 H 3093.01 0.101579 -4.96096 0
M  V30 31493 N 3092.19 1.35612 -0.802945 0
M  V30 31494 C 3093.43 1.98479 -0.380857 0
M  V30 31495 C 3093.75 1.64021 1.05461 0
M  V30 31496 O 3093.02 0.920884 1.72906 0
M  V30 31497 H 3091.6 0.734173 -0.137836 0
M  V30 31498 H 3094.27 1.65586 -1.02798 0
M  V30 31499 H 3093.36 3.0833 -0.483619 0
M  V30 31500 N 3093.66 0.556128 1.47462 0
M  V30 31501 C 3094.91 0.0316067 2.02075 0
M  V30 31502 C 3095.23 -1.32256 1.43295 0
M  V30 31503 O 3094.5 -1.86235 0.607743 0
M  V30 31504 H 3093.08 0.00869473 0.746949 0
M  V30 31505 H 3095.74 0.725891 1.80878 0
M  V30 31506 H 3094.84 -0.057299 3.12047 0
M  V30 31507 N 3095.14 -1.54861 0.292527 0
M  V30 31508 C 3096.37 -2.04081 -0.321611 0
M  V30 31509 C 3096.78 -1.1697 -1.4871 0
M  V30 31510 O 3096.12 -0.186122 -1.82755 0
M  V30 31511 C 3096.18 -3.4934 -0.848617 0
M  V30 31512 C 3095.85 -4.56603 0.190496 0
M  V30 31513 C 3096.85 -5.09875 1.01604 0
M  V30 31514 C 3094.53 -5.01216 0.329754 0
M  V30 31515 C 3096.52 -6.06295 1.96687 0
M  V30 31516 C 3094.21 -5.97458 1.28403 0
M  V30 31517 C 3095.21 -6.4988 2.10108 0
M  V30 31518 O 3094.9 -7.44237 3.0392 0
M  V30 31519 H 3094.63 -0.671817 -0.0750862 0
M  V30 31520 H 3097.18 -2.00901 0.427566 0
M  V30 31521 H 3095.41 -3.49817 -1.64817 0
M  V30 31522 H 3097.1 -3.81803 -1.37772 0
M  V30 31523 H 3097.87 -4.76208 0.919281 0
M  V30 31524 H 3093.75 -4.60047 -0.296237 0
M  V30 31525 H 3097.29 -6.47136 2.605 0
M  V30 31526 H 3093.19 -6.30542 1.38155 0
M  V30 31527 H 3093.96 -7.62011 2.98801 0
M  V30 31528 N 3096.62 -0.0200973 -1.57587 0
M  V30 31529 C 3097.55 0.963296 -2.12704 0
M  V30 31530 C 3098.53 1.34529 -1.04096 0
M  V30 31531 O 3099.72 1.4255 -1.31883 0
M  V30 31532 C 3096.85 2.24863 -2.64677 0
M  V30 31533 C 3095.8 2.00766 -3.77991 0
M  V30 31534 C 3095.13 3.35487 -4.16357 0
M  V30 31535 C 3096.43 1.35407 -5.04442 0
M  V30 31536 H 3098.12 0.504311 -2.95122 0
M  V30 31537 H 3095.67 0.241135 -1.41967 0
M  V30 31538 H 3097.62 2.94031 -3.01867 0
M  V30 31539 H 3096.34 2.72911 -1.79408 0
M  V30 31540 H 3095 1.34019 -3.41225 0
M  V30 31541 H 3094.65 3.81276 -3.28082 0
M  V30 31542 H 3094.35 3.20172 -4.9271 0
M  V30 31543 H 3095.87 4.05937 -4.56123 0
M  V30 31544 H 3097.29 1.94561 -5.39276 0
M  V30 31545 H 3095.68 1.30519 -5.85734 0
M  V30 31546 H 3096.75 0.325838 -4.83804 0
M  V30 31547 N 3098.1 1.55557 0.252939 0
M  V30 31548 C 3099.05 1.86199 1.31582 0
M  V30 31549 C 3100.03 0.722382 1.43772 0
M  V30 31550 O 3101.22 0.984178 1.47115 0
M  V30 31551 C 3098.35 2.15492 2.67242 0
M  V30 31552 C 3097.44 3.35765 2.59081 0
M  V30 31553 N 3097.83 4.55184 2.20548 0
M  V30 31554 C 3096.13 3.38755 2.90106 0
M  V30 31555 C 3096.83 5.37311 2.22871 0
M  V30 31556 N 3095.8 4.7622 2.62137 0
M  V30 31557 H 3099.61 2.76062 1.0083 0
M  V30 31558 H 3097.12 1.55703 0.461571 0
M  V30 31559 H 3099.12 2.35608 3.4394 0
M  V30 31560 H 3097.78 1.26924 2.98865 0
M  V30 31561 H 3098.79 4.80919 1.92192 0
M  V30 31562 H 3095.47 2.6044 3.26309 0
M  V30 31563 H 3096.86 6.42838 1.95471 0
M  V30 31564 N 3099.58 -0.518341 1.48832 0
M  V30 31565 C 3100.54 -1.60397 1.63724 0
M  V30 31566 C 3101.54 -1.52502 0.509884 0
M  V30 31567 O 3102.73 -1.55964 0.77595 0
M  V30 31568 C 3099.86 -3.00036 1.61837 0
M  V30 31569 H 3101.05 -1.48529 2.60536 0
M  V30 31570 H 3098.61 -0.741284 1.37603 0
M  V30 31571 H 3099.34 -3.17399 0.665443 0
M  V30 31572 H 3099.13 -3.07175 2.43692 0
M  V30 31573 H 3100.62 -3.78944 1.75474 0
M  V30 31574 N 3101.05 -1.37615 -0.7681 0
M  V30 31575 C 3102.33 -1.23557 -1.51635 0
M  V30 31576 C 3102.71 0.169294 -2.1042 0
M  V30 31577 O 3102.06 1.17731 -1.95836 0
M  V30 31578 C 3102.27 -2.33443 -2.59432 0
M  V30 31579 C 3103.62 -2.71163 -3.26735 0
M  V30 31580 O 3104.64 -2.32647 -2.69729 0
M  V30 31581 O 3103.5 -3.37531 -4.29808 0
M  V30 31582 H 3100.59 -0.482344 -0.671769 0
M  V30 31583 H 3103.14 -1.49405 -0.804752 0
M  V30 31584 H 3101.91 -3.27505 -2.1414 0
M  V30 31585 H 3101.53 -2.09079 -3.38189 0
M  V30 31586 N 3102.53 0.994677 -1.22245 0
M  V30 31587 C 3103.95 1.25811 -0.982028 0
M  V30 31588 C 3104.15 1.98854 0.325453 0
M  V30 31589 O 3103.2 2.297 1.04853 0
M  V30 31590 C 3104.52 2.07164 -2.17954 0
M  V30 31591 C 3106.06 2.20354 -2.22291 0
M  V30 31592 C 3106.54 3.05092 -3.41588 0
M  V30 31593 N 3108.03 3.1268 -3.41739 0
M  V30 31594 C 3108.77 3.78532 -4.30699 0
M  V30 31595 N 3108.26 4.46326 -5.29873 0
M  V30 31596 N 3110.05 3.75275 -4.18479 0
M  V30 31597 H 3102.21 0.504926 -2.06311 0
M  V30 31598 H 3104.47 0.285602 -0.903955 0
M  V30 31599 H 3104.17 1.60853 -3.12761 0
M  V30 31600 H 3104.05 3.07918 -2.17867 0
M  V30 31601 H 3106.44 2.65879 -1.28032 0
M  V30 31602 H 3106.52 1.19035 -2.26416 0
M  V30 31603 H 3106.16 2.60268 -4.36146 0
M  V30 31604 H 3106.09 4.06549 -3.34702 0
M  V30 31605 H 3108.58 2.64429 -2.69974 0
M  V30 31606 H 3108.89 4.94309 -5.94035 0
M  V30 31607 H 3107.24 4.4508 -5.33787 0
M  V30 31608 H 3110.43 3.21472 -3.40255 0
M  V30 31609 H 3110.6 4.26317 -4.88014 0
M  V30 31610 N 3104.01 1.03186 1.19123 0
M  V30 31611 C 3105.26 0.728621 1.88509 0
M  V30 31612 C 3105.58 -0.745279 1.80196 0
M  V30 31613 O 3104.85 -1.53718 1.2144 0
M  V30 31614 H 3103.43 0.266523 0.697836 0
M  V30 31615 H 3106.09 1.30673 1.44605 0
M  V30 31616 H 3105.19 1.02559 2.94768 0
M  V30 31617 N 3105.49 -1.35184 0.810125 0
M  V30 31618 C 3106.74 -1.97921 0.388624 0
M  V30 31619 C 3107.05 -1.6498 -1.05076 0
M  V30 31620 O 3108.26 -2.21108 -1.57555 0
M  V30 31621 C 3106.71 -3.54093 0.643926 0
M  V30 31622 C 3106.32 -3.9594 2.09609 0
M  V30 31623 C 3108.06 -4.23522 0.287958 0
M  V30 31624 C 3105.97 -5.44972 2.29695 0
M  V30 31625 H 3104.9 -0.740589 0.141575 0
M  V30 31626 H 3107.55 -1.54202 0.99468 0
M  V30 31627 H 3105.93 -3.95987 -0.0321282 0
M  V30 31628 H 3107.11 -3.65187 2.81025 0
M  V30 31629 H 3105.42 -3.3941 2.41226 0
M  V30 31630 H 3108.02 -5.33079 0.416039 0
M  V30 31631 H 3108.36 -4.09188 -0.766233 0
M  V30 31632 H 3108.9 -3.87061 0.918072 0
M  V30 31633 H 3105.64 -5.64278 3.33573 0
M  V30 31634 H 3105.16 -5.77281 1.62808 0
M  V30 31635 H 3106.83 -6.11482 2.11422 0
M  V30 31636 N 3106.97 -0.56394 -1.47165 0
M  V30 31637 C 3108.22 -0.0402225 -2.0166 0
M  V30 31638 C 3108.53 1.32043 -1.44305 0
M  V30 31639 O 3109.73 1.93444 -1.90504 0
M  V30 31640 C 3108.19 -0.021389 -3.59894 0
M  V30 31641 C 3107.8 -1.37921 -4.26241 0
M  V30 31642 C 3109.54 0.449368 -4.22115 0
M  V30 31643 C 3107.45 -1.31912 -5.76501 0
M  V30 31644 H 3106.38 -0.0112667 -0.753916 0
M  V30 31645 H 3109.03 -0.712796 -1.6909 0
M  V30 31646 H 3107.41 0.716969 -3.89455 0
M  V30 31647 H 3108.59 -2.13582 -4.08313 0
M  V30 31648 H 3106.9 -1.78845 -3.76036 0
M  V30 31649 H 3109.5 0.512827 -5.32235 0
M  V30 31650 H 3109.84 1.46284 -3.89752 0
M  V30 31651 H 3110.37 -0.23434 -3.97109 0
M  V30 31652 H 3107.11 -2.30881 -6.13494 0
M  V30 31653 H 3106.63 -0.604429 -5.96747 0
M  V30 31654 H 3108.31 -1.02404 -6.38845 0
M  V30 31655 N 3108.44 1.54704 -0.300735 0
M  V30 31656 C 3109.67 2.04546 0.311234 0
M  V30 31657 C 3110.09 1.17803 1.47539 0
M  V30 31658 O 3109.44 0.203602 1.81361 0
M  V30 31659 C 3109.5 3.53254 0.767721 0
M  V30 31660 O 3109.22 4.36699 -0.350104 0
M  V30 31661 C 3110.72 4.19092 1.44487 0
M  V30 31662 H 3107.94 0.66758 0.0676562 0
M  V30 31663 H 3110.48 1.99704 -0.440289 0
M  V30 31664 H 3108.64 3.58457 1.46927 0
M  V30 31665 H 3109.05 5.245 0.00524818 0
M  V30 31666 H 3110.52 5.24668 1.71544 0
M  V30 31667 H 3111 3.68812 2.38484 0
M  V30 31668 H 3111.61 4.17964 0.786507 0
M  V30 31669 N 3109.92 0.0284543 1.57574 0
M  V30 31670 C 3111.15 -0.664102 1.9648 0
M  V30 31671 C 3111.57 -1.64906 0.904855 0
M  V30 31672 O 3110.93 -1.80802 -0.134307 0
M  V30 31673 C 3110.98 -1.34739 3.34481 0
M  V30 31674 O 3110.08 -2.46265 3.30798 0
M  V30 31675 H 3109.42 -0.174513 0.640657 0
M  V30 31676 H 3111.95 0.0901088 2.04401 0
M  V30 31677 H 3111.96 -1.70433 3.70697 0
M  V30 31678 H 3110.64 -0.625396 4.11171 0
M  V30 31679 H 3109.22 -2.12687 3.06298 0
M  V30 31680 N 3111.4 -1.55689 -0.244686 0
M  V30 31681 C 3112.81 -1.68041 -0.813573 0
M  V30 31682 C 3113.16 -0.626313 -1.85935 0
M  V30 31683 O 3112.29 0.227 -2.15206 0
M  V30 31684 C 3112.88 -3.04645 -1.48247 0
M  V30 31685 C 3111.44 -3.18929 -1.99903 0
M  V30 31686 C 3110.59 -2.63922 -0.850912 0
M  V30 31687 H 3113.54 -1.58687 -0.0204526 0
M  V30 31688 H 3113.56 -2.99213 -2.35057 0
M  V30 31689 H 3113.07 -3.81342 -0.721097 0
M  V30 31690 H 3111.17 -2.47059 -2.78914 0
M  V30 31691 H 3111.29 -4.25865 -2.19489 0
M  V30 31692 H 3109.65 -2.21803 -1.25202 0
M  V30 31693 H 3110.43 -3.43147 -0.10259 0
M  V30 31694 N 3112.88 0.510441 -1.49105 0
M  V30 31695 C 3113.83 1.61302 -1.65077 0
M  V30 31696 C 3114.8 1.58634 -0.49239 0
M  V30 31697 O 3115.98 1.76764 -0.718272 0
M  V30 31698 C 3113.12 2.9949 -1.71463 0
M  V30 31699 C 3112.23 3.12245 -2.98541 0
M  V30 31700 C 3111.37 4.4111 -2.95965 0
M  V30 31701 C 3110.41 4.47464 -4.17663 0
M  V30 31702 N 3109.54 5.67744 -4.13051 0
M  V30 31703 H 3114.38 1.46991 -2.59225 0
M  V30 31704 H 3111.92 0.715323 -1.28536 0
M  V30 31705 H 3113.88 3.79574 -1.73146 0
M  V30 31706 H 3112.51 3.12527 -0.807889 0
M  V30 31707 H 3111.56 2.25287 -3.06513 0
M  V30 31708 H 3112.87 3.128 -3.88532 0
M  V30 31709 H 3112.03 5.29505 -2.96158 0
M  V30 31710 H 3110.77 4.43106 -2.03735 0
M  V30 31711 H 3109.77 3.57473 -4.17723 0
M  V30 31712 H 3111 4.47191 -5.11074 0
M  V30 31713 H 3108.94 5.706 -3.23653 0
M  V30 31714 H 3108.86 5.69876 -4.96767 0
M  V30 31715 H 3110.13 6.58372 -4.17333 0
M  V30 31716 N 3114.36 1.38021 0.760791 0
M  V30 31717 C 3115.59 1.36852 1.54774 0
M  V30 31718 C 3115.99 -0.0453639 1.89146 0
M  V30 31719 O 3115.34 -1.02048 1.52748 0
M  V30 31720 C 3115.4 2.15274 2.87919 0
M  V30 31721 C 3115.06 3.64149 2.76124 0
M  V30 31722 C 3116.06 4.57798 2.46408 0
M  V30 31723 C 3113.75 4.07413 2.93803 0
M  V30 31724 C 3115.74 5.9269 2.34515 0
M  V30 31725 C 3113.43 5.42388 2.81529 0
M  V30 31726 C 3114.42 6.3484 2.51927 0
M  V30 31727 O 3114.11 7.67333 2.39699 0
M  V30 31728 H 3113.84 0.470112 0.485768 0
M  V30 31729 H 3116.4 1.82115 0.949907 0
M  V30 31730 H 3114.63 1.64718 3.49864 0
M  V30 31731 H 3116.32 2.06603 3.49385 0
M  V30 31732 H 3117.08 4.2568 2.32426 0
M  V30 31733 H 3112.96 3.35804 3.15843 0
M  V30 31734 H 3116.51 6.6482 2.1133 0
M  V30 31735 H 3112.4 5.74105 2.95083 0
M  V30 31736 H 3113.17 7.77775 2.54966 0
M  V30 31737 N 3115.83 -0.98818 1.22771 0
M  V30 31738 C 3117.25 -1.54293 1.05122 0
M  V30 31739 C 3117.6 -1.92408 -0.38387 0
M  V30 31740 O 3116.72 -1.75249 -1.26952 0
M  V30 31741 C 3117.32 -2.80372 1.90203 0
M  V30 31742 C 3115.88 -3.32273 1.76837 0
M  V30 31743 C 3115.02 -2.05323 1.86381 0
M  V30 31744 H 3117.97 -0.808734 1.36547 0
M  V30 31745 H 3117.99 -3.52921 1.42222 0
M  V30 31746 H 3117.51 -2.52599 2.94644 0
M  V30 31747 H 3115.61 -3.64943 0.751476 0
M  V30 31748 H 3115.72 -4.02557 2.59778 0
M  V30 31749 H 3114.08 -2.191 1.29873 0
M  V30 31750 H 3114.87 -1.79941 2.92363 0
M  V30 31751 N 3117.31 -1.03816 -1.18575 0
M  V30 31752 C 3118.22 -0.637351 -2.25776 0
M  V30 31753 C 3119.24 0.335218 -1.7074 0
M  V30 31754 O 3120.41 0.190774 -2.00494 0
M  V30 31755 C 3117.48 -0.00393047 -3.467 0
M  V30 31756 C 3116.54 -1.02518 -4.16879 0
M  V30 31757 C 3115.77 -0.421896 -5.3203 0
M  V30 31758 O 3116 0.772599 -5.65143 0
M  V30 31759 O 3114.93 -1.14935 -5.90824 0
M  V30 31760 H 3118.76 -1.53041 -2.62321 0
M  V30 31761 H 3116.34 -0.808892 -1.25608 0
M  V30 31762 H 3118.22 0.348799 -4.19954 0
M  V30 31763 H 3116.9 0.862993 -3.11984 0
M  V30 31764 H 3115.81 -1.42966 -3.45704 0
M  V30 31765 H 3117.14 -1.86279 -4.55589 0
M  V30 31766 N 3118.79 1.34753 -0.817283 0
M  V30 31767 C 3120.02 2.02685 -0.415487 0
M  V30 31768 C 3120.43 1.61564 0.976851 0
M  V30 31769 O 3119.79 0.818349 1.63124 0
M  V30 31770 C 3119.84 3.58004 -0.501549 0
M  V30 31771 O 3119.56 3.97633 -1.839 0
M  V30 31772 C 3121.06 4.432 -0.0939283 0
M  V30 31773 H 3118.28 0.649775 -0.167431 0
M  V30 31774 H 3120.83 1.72148 -1.10387 0
M  V30 31775 H 3118.98 3.87152 0.138698 0
M  V30 31776 H 3119.4 4.92306 -1.80928 0
M  V30 31777 H 3120.87 5.51618 -0.205242 0
M  V30 31778 H 3121.35 4.28536 0.961936 0
M  V30 31779 H 3121.95 4.1937 -0.707751 0
M  V30 31780 N 3120.27 0.571737 1.46864 0
M  V30 31781 C 3121.5 0.0583492 2.06518 0
M  V30 31782 C 3121.91 -1.24721 1.42272 0
M  V30 31783 O 3121.25 -1.76236 0.518324 0
M  V30 31784 C 3121.31 -0.193151 3.58981 0
M  V30 31785 C 3120.98 1.02515 4.45353 0
M  V30 31786 C 3121.97 1.93443 4.82572 0
M  V30 31787 C 3119.66 1.24391 4.86654 0
M  V30 31788 C 3121.65 3.04604 5.59906 0
M  V30 31789 C 3119.34 2.35859 5.6375 0
M  V30 31790 C 3120.34 3.25796 6.00288 0
M  V30 31791 O 3120.03 4.35329 6.75828 0
M  V30 31792 H 3119.76 0.0494703 0.674187 0
M  V30 31793 H 3122.31 0.788967 1.89643 0
M  V30 31794 H 3120.54 -0.978253 3.74122 0
M  V30 31795 H 3122.23 -0.653699 4.00602 0
M  V30 31796 H 3123 1.77753 4.51252 0
M  V30 31797 H 3118.88 0.553001 4.57671 0
M  V30 31798 H 3122.42 3.74829 5.88345 0
M  V30 31799 H 3118.32 2.51516 5.94483 0
M  V30 31800 H 3119.08 4.33559 6.9424 0
M  V30 31801 N 3121.75 -1.54542 0.308935 0
M  V30 31802 C 3123.16 -1.8581 -0.182111 0
M  V30 31803 C 3123.51 -1.23079 -1.52794 0
M  V30 31804 O 3122.63 -0.531395 -2.09774 0
M  V30 31805 C 3123.23 -3.37118 -0.337215 0
M  V30 31806 C 3121.79 -3.68388 -0.772481 0
M  V30 31807 C 3120.94 -2.77064 0.1145 0
M  V30 31808 H 3123.89 -1.49599 0.529697 0
M  V30 31809 H 3123.91 -3.62049 -1.17052 0
M  V30 31810 H 3123.42 -3.82746 0.64245 0
M  V30 31811 H 3121.52 -3.28283 -1.76241 0
M  V30 31812 H 3121.63 -4.75498 -0.586369 0
M  V30 31813 H 3120 -2.51418 -0.407537 0
M  V30 31814 H 3120.78 -3.25514 1.09066 0
M  V30 31815 N 3123.23 -0.0368104 -1.57557 0
M  V30 31816 C 3124.45 0.653673 -1.9683 0
M  V30 31817 C 3124.88 1.64424 -0.913588 0
M  V30 31818 O 3124.23 1.80871 0.124717 0
M  V30 31819 C 3124.28 1.32964 -3.35191 0
M  V30 31820 O 3123.39 2.44507 -3.32099 0
M  V30 31821 H 3122.73 0.171113 -0.641573 0
M  V30 31822 H 3125.26 -0.100947 -2.04351 0
M  V30 31823 H 3125.27 1.68465 -3.71596 0
M  V30 31824 H 3123.94 0.603582 -4.11497 0
M  V30 31825 H 3122.52 2.1106 -3.07422 0
M  V30 31826 N 3124.7 1.55817 0.236426 0
M  V30 31827 C 3125.65 1.92028 1.31256 0
M  V30 31828 C 3126.65 0.800544 1.4929 0
M  V30 31829 O 3127.85 0.985256 1.50641 0
M  V30 31830 H 3124.23 0.610027 0.43974 0
M  V30 31831 H 3126.2 2.81853 0.979877 0
M  V30 31832 C 3124.95 2.24051 2.65888 0
M  V30 31833 H 3124.27 3.09718 2.52814 0
M  V30 31834 H 3125.71 2.53283 3.40035 0
M  V30 31835 C 3124.17 1.06045 3.19775 0
M  V30 31836 O 3124.7 0.313856 4.00472 0
M  V30 31837 N 3122.9 0.848258 2.77944 0
M  V30 31838 H 3122.45 1.45709 2.1243 0
M  V30 31839 H 3122.41 0.0603977 3.14342 0
M  V30 31840 N 3126.18 -0.502526 1.49373 0
M  V30 31841 C 3127.11 -1.61291 1.68842 0
M  V30 31842 C 3128.09 -1.61397 0.537125 0
M  V30 31843 O 3129.28 -1.78161 0.772795 0
M  V30 31844 C 3126.41 -2.99781 1.75352 0
M  V30 31845 C 3125.36 -3.1454 2.90256 0
M  V30 31846 C 3124.69 -4.54366 2.81878 0
M  V30 31847 C 3125.99 -2.94709 4.31212 0
M  V30 31848 H 3127.68 -1.45252 2.61806 0
M  V30 31849 H 3125.23 -0.697348 1.25988 0
M  V30 31850 H 3127.18 -3.77359 1.87558 0
M  V30 31851 H 3125.9 -3.16905 0.789869 0
M  V30 31852 H 3124.56 -2.39387 2.7765 0
M  V30 31853 H 3124.21 -4.68364 1.83424 0
M  V30 31854 H 3123.91 -4.65182 3.58998 0
M  V30 31855 H 3125.44 -5.34007 2.9609 0
M  V30 31856 H 3126.85 -3.62058 4.44508 0
M  V30 31857 H 3125.25 -3.16998 5.09541 0
M  V30 31858 H 3126.32 -1.90849 4.45763 0
M  V30 31859 N 3127.66 -1.38422 -0.75346 0
M  V30 31860 C 3128.61 -1.35777 -1.88858 0
M  V30 31861 C 3129.6 -0.243637 -1.67639 0
M  V30 31862 O 3130.81 -0.41268 -1.75205 0
M  V30 31863 H 3127.18 -0.423571 -0.621363 0
M  V30 31864 H 3129.15 -2.31563 -1.88205 0
M  V30 31865 C 3127.9 -1.19984 -3.26342 0
M  V30 31866 H 3127.23 -2.04977 -3.43256 0
M  V30 31867 H 3128.67 -1.22188 -4.06012 0
M  V30 31868 C 3127.12 0.0932275 -3.36771 0
M  V30 31869 O 3127.65 1.0702 -3.87181 0
M  V30 31870 N 3125.86 0.150103 -2.90212 0
M  V30 31871 H 3125.41 -0.645606 -2.49379 0
M  V30 31872 H 3125.37 1.01485 -2.9757 0
M  V30 31873 N 3129.14 0.981655 -1.23294 0
M  V30 31874 C 3130.38 1.73786 -1.076 0
M  V30 31875 C 3130.74 1.88187 0.380729 0
M  V30 31876 O 3131.94 2.60601 0.65882 0
M  V30 31877 C 3130.21 3.09913 -1.78013 0
M  V30 31878 S 3131.77 4.01131 -1.77875 0
M  V30 31879 H 3128.59 0.597677 -0.385102 0
M  V30 31880 H 3131.19 1.17287 -1.5641 0
M  V30 31881 H 3129.9 2.97082 -2.83144 0
M  V30 31882 H 3129.43 3.71482 -1.29479 0
M  V30 31883 H 3131.44 4.89099 -0.836454 0
M  V30 31884 N 3130.62 1.04444 1.18022 0
M  V30 31885 C 3131.84 0.770131 1.92571 0
M  V30 31886 C 3132.27 -0.667138 1.75872 0
M  V30 31887 O 3131.62 -1.46256 1.07139 0
M  V30 31888 C 3131.67 1.14608 3.41902 0
M  V30 31889 O 3130.78 0.273784 4.1149 0
M  V30 31890 H 3130.12 0.283086 0.600631 0
M  V30 31891 H 3132.65 1.39529 1.49643 0
M  V30 31892 H 3132.66 1.10963 3.92621 0
M  V30 31893 H 3131.33 2.1931 3.53378 0
M  V30 31894 H 3129.91 0.37019 3.71058 0
M  V30 31895 N 3132.09 -1.34317 0.824418 0
M  V30 31896 C 3133.34 -1.98953 0.422999 0
M  V30 31897 C 3133.69 -1.64176 -1.0032 0
M  V30 31898 O 3132.99 -0.903899 -1.68939 0
M  V30 31899 C 3133.18 -3.5292 0.564086 0
M  V30 31900 C 3133.01 -4.02656 2.00245 0
M  V30 31901 C 3131.78 -4.31178 2.63464 0
M  V30 31902 C 3133.98 -4.1992 2.96937 0
M  V30 31903 N 3131.96 -4.66959 3.98526 0
M  V30 31904 C 3133.33 -4.58897 4.16909 0
M  V30 31905 C 3135.39 -4.02172 2.93534 0
M  V30 31906 C 3134.09 -4.81981 5.33935 0
M  V30 31907 C 3136.12 -4.26423 4.09777 0
M  V30 31908 C 3135.48 -4.65689 5.28501 0
M  V30 31909 H 3131.58 -0.755213 0.202921 0
M  V30 31910 H 3134.16 -1.627 1.06943 0
M  V30 31911 H 3132.33 -3.88365 -0.0524585 0
M  V30 31912 H 3134.06 -4.04473 0.135522 0
M  V30 31913 H 3130.82 -4.22141 2.14695 0
M  V30 31914 H 3131.24 -4.89082 4.68111 0
M  V30 31915 H 3135.88 -3.70942 2.02884 0
M  V30 31916 H 3133.6 -5.12078 6.25141 0
M  V30 31917 H 3137.19 -4.14226 4.08544 0
M  V30 31918 H 3136.07 -4.84085 6.16953 0
M  V30 31919 N 3133.57 -0.579517 -1.46558 0
M  V30 31920 C 3134.52 0.17641 -2.27317 0
M  V30 31921 C 3135.51 0.864811 -1.35683 0
M  V30 31922 O 3136.7 0.759434 -1.5988 0
M  V30 31923 C 3133.83 1.19151 -3.2196 0
M  V30 31924 C 3132.91 0.505385 -4.21078 0
M  V30 31925 N 3133.3 -0.437222 -5.03907 0
M  V30 31926 C 3131.6 0.756533 -4.39537 0
M  V30 31927 C 3132.3 -0.83792 -5.75633 0
M  V30 31928 N 3131.28 -0.187774 -5.43276 0
M  V30 31929 H 3135.08 -0.547983 -2.88746 0
M  V30 31930 H 3132.59 -0.401075 -1.57369 0
M  V30 31931 H 3134.59 1.74721 -3.78521 0
M  V30 31932 H 3133.25 1.91676 -2.62089 0
M  V30 31933 H 3134.26 -0.812578 -5.11486 0
M  V30 31934 H 3130.94 1.4686 -3.90818 0
M  V30 31935 H 3132.33 -1.61376 -6.52233 0
M  V30 31936 N 3135.05 1.54376 -0.317127 0
M  V30 31937 C 3136.3 2.00747 0.2878 0
M  V30 31938 C 3136.63 1.20504 1.5229 0
M  V30 31939 O 3135.9 0.28566 1.92391 0
M  V30 31940 C 3136.19 3.54575 0.628361 0
M  V30 31941 C 3136.04 4.45548 -0.617 0
M  V30 31942 C 3137.36 4.15578 1.44855 0
M  V30 31943 H 3134.48 0.729749 0.103131 0
M  V30 31944 H 3137.12 1.85014 -0.432428 0
M  V30 31945 H 3135.27 3.68113 1.24197 0
M  V30 31946 H 3136.94 4.43891 -1.25534 0
M  V30 31947 H 3135.19 4.15486 -1.24713 0
M  V30 31948 H 3135.86 5.50987 -0.33434 0
M  V30 31949 H 3138.33 4.05575 0.929944 0
M  V30 31950 H 3137.21 5.23336 1.65561 0
M  V30 31951 H 3137.47 3.68488 2.44273 0
M  V30 31952 N 3136.53 0.0451655 1.57535 0
M  V30 31953 C 3137.46 -0.929334 2.14209 0
M  V30 31954 C 3138.44 -1.32856 1.06223 0
M  V30 31955 O 3139.62 -1.40434 1.34134 0
M  V30 31956 C 3136.75 -2.20624 2.68221 0
M  V30 31957 C 3135.71 -1.94727 3.81137 0
M  V30 31958 C 3135.03 -3.2882 4.21641 0
M  V30 31959 C 3136.33 -1.27365 5.06533 0
M  V30 31960 H 3138.03 -0.457296 2.95887 0
M  V30 31961 H 3135.57 -0.218519 1.42332 0
M  V30 31962 H 3137.53 -2.89191 3.06507 0
M  V30 31963 H 3136.25 -2.70022 1.83727 0
M  V30 31964 H 3134.91 -1.28573 3.43314 0
M  V30 31965 H 3134.56 -3.76008 3.34106 0
M  V30 31966 H 3134.26 -3.12293 4.97742 0
M  V30 31967 H 3135.78 -3.98629 4.62523 0
M  V30 31968 H 3137.2 -1.85957 5.42303 0
M  V30 31969 H 3135.59 -1.21184 5.87737 0
M  V30 31970 H 3136.66 -0.248827 4.84261 0
M  V30 31971 N 3138.01 -1.5594 -0.228159 0
M  V30 31972 C 3139.25 -1.7891 -0.954933 0
M  V30 31973 C 3139.59 -0.61368 -1.84249 0
M  V30 31974 O 3138.86 0.387336 -1.90604 0
M  V30 31975 C 3139.14 -3.11913 -1.79951 0
M  V30 31976 C 3139 -4.39892 -0.938891 0
M  V30 31977 C 3140.32 -3.413 -2.77853 0
M  V30 31978 H 3137.43 -0.650874 -0.345733 0
M  V30 31979 H 3140.08 -1.88672 -0.224211 0
M  V30 31980 H 3138.23 -3.03721 -2.42251 0
M  V30 31981 H 3139.9 -4.60095 -0.333144 0
M  V30 31982 H 3138.14 -4.33113 -0.24402 0
M  V30 31983 H 3138.81 -5.29378 -1.56407 0
M  V30 31984 H 3141.29 -3.49576 -2.25689 0
M  V30 31985 H 3140.16 -4.35544 -3.34055 0
M  V30 31986 H 3140.43 -2.63138 -3.55262 0
M  V30 31987 N 3139.48 0.494597 -1.49638 0
M  V30 31988 C 3140.42 1.61228 -1.62905 0
M  V30 31989 C 3141.43 1.54557 -0.511452 0
M  V30 31990 O 3142.62 1.60373 -0.783753 0
M  V30 31991 C 3139.72 3.00042 -1.57569 0
M  V30 31992 C 3138.89 3.3183 -2.8497 0
M  V30 31993 C 3137.95 4.50085 -2.72599 0
M  V30 31994 O 3136.98 4.51552 -3.4654 0
M  V30 31995 N 3138.18 5.50376 -1.84573 0
M  V30 31996 H 3140.94 1.50272 -2.59304 0
M  V30 31997 H 3138.5 0.682594 -1.46807 0
M  V30 31998 H 3140.5 3.77082 -1.46938 0
M  V30 31999 H 3139.07 3.04889 -0.690027 0
M  V30 32000 H 3138.29 2.43625 -3.09904 0
M  V30 32001 H 3139.57 3.49868 -3.69418 0
M  V30 32002 H 3138.97 5.51995 -1.23768 0
M  V30 32003 H 3137.53 6.26493 -1.7986 0
M  V30 32004 N 3140.96 1.3882 0.746109 0
M  V30 32005 C 3142.19 1.38868 1.54046 0
M  V30 32006 C 3142.61 -0.0176293 1.88092 0
M  V30 32007 O 3141.97 -1.0017 1.51115 0
M  V30 32008 C 3142.02 2.25796 2.81156 0
M  V30 32009 O 3141.12 1.6802 3.7662 0
M  V30 32010 H 3140.46 0.473367 0.465639 0
M  V30 32011 H 3142.99 1.82676 0.921437 0
M  V30 32012 H 3143 2.39918 3.30005 0
M  V30 32013 H 3141.68 3.28004 2.55707 0
M  V30 32014 H 3140.26 1.6308 3.35349 0
M  V30 32015 N 3142.44 -0.975103 1.23812 0
M  V30 32016 C 3143.69 -1.71371 1.07127 0
M  V30 32017 C 3144.01 -1.91023 -0.391831 0
M  V30 32018 O 3143.28 -1.48267 -1.28038 0
M  V30 32019 H 3141.86 -0.635 0.393426 0
M  V30 32020 H 3144.52 -1.17347 1.55614 0
M  V30 32021 H 3143.62 -2.70117 1.56343 0
M  V30 32022 N 3143.92 -1.05068 -1.17467 0
M  V30 32023 C 3144.85 -0.671591 -2.23633 0
M  V30 32024 C 3145.83 0.33003 -1.66868 0
M  V30 32025 O 3147.01 0.207899 -1.93084 0
M  V30 32026 C 3144.14 -0.0442456 -3.47272 0
M  V30 32027 C 3143.1 -0.970493 -4.16852 0
M  V30 32028 C 3142.42 -0.207092 -5.34299 0
M  V30 32029 C 3143.72 -2.29409 -4.69221 0
M  V30 32030 H 3145.42 -1.55915 -2.55599 0
M  V30 32031 H 3142.96 -0.751122 -1.22858 0
M  V30 32032 H 3144.92 0.232746 -4.20757 0
M  V30 32033 H 3143.64 0.878256 -3.1457 0
M  V30 32034 H 3142.3 -1.23203 -3.45278 0
M  V30 32035 H 3141.95 0.718134 -4.97847 0
M  V30 32036 H 3141.65 -0.824262 -5.8179 0
M  V30 32037 H 3143.17 0.0626451 -6.10568 0
M  V30 32038 H 3144.59 -2.0771 -5.3435 0
M  V30 32039 H 3142.98 -2.86512 -5.27286 0
M  V30 32040 H 3144.05 -2.93355 -3.86097 0
M  V30 32041 N 3145.4 1.33878 -0.831529 0
M  V30 32042 C 3146.62 2.02233 -0.436961 0
M  V30 32043 C 3147.04 1.62591 0.95966 0
M  V30 32044 O 3146.4 0.835605 1.62246 0
M  V30 32045 C 3146.45 3.57452 -0.539492 0
M  V30 32046 O 3146.17 3.9566 -1.88108 0
M  V30 32047 C 3147.67 4.43076 -0.14093 0
M  V30 32048 H 3144.89 0.647963 -0.174314 0
M  V30 32049 H 3147.43 1.70967 -1.12207 0
M  V30 32050 H 3145.59 3.87277 0.0976279 0
M  V30 32051 H 3146 4.90359 -1.8614 0
M  V30 32052 H 3147.48 5.5137 -0.263736 0
M  V30 32053 H 3147.95 4.29533 0.91643 0
M  V30 32054 H 3148.56 4.18595 -0.752191 0
M  V30 32055 N 3146.87 0.587281 1.46249 0
M  V30 32056 C 3148.12 0.0722997 2.0157 0
M  V30 32057 C 3148.44 -1.29731 1.46387 0
M  V30 32058 O 3149.64 -1.90389 1.93557 0
M  V30 32059 C 3148.1 0.0786422 3.59814 0
M  V30 32060 C 3147.71 1.44685 4.23993 0
M  V30 32061 C 3149.45 -0.382156 4.22776 0
M  V30 32062 C 3147.36 1.41067 5.74329 0
M  V30 32063 H 3146.29 0.0232594 0.753641 0
M  V30 32064 H 3148.94 0.739606 1.67935 0
M  V30 32065 H 3147.32 -0.65492 3.90547 0
M  V30 32066 H 3148.49 2.20051 4.04863 0
M  V30 32067 H 3146.81 1.84805 3.73143 0
M  V30 32068 H 3149.41 -0.428088 5.32984 0
M  V30 32069 H 3149.75 -1.40065 3.9203 0
M  V30 32070 H 3150.28 0.297487 3.96686 0
M  V30 32071 H 3147.02 2.40612 6.09743 0
M  V30 32072 H 3146.54 0.69929 5.9571 0
M  V30 32073 H 3148.22 1.12554 6.37135 0
M  V30 32074 N 3148.35 -1.54206 0.325309 0
M  V30 32075 C 3149.32 -2.23055 -0.527189 0
M  V30 32076 C 3150.32 -1.22458 -1.04215 0
M  V30 32077 O 3151.51 -1.47026 -0.934299 0
M  V30 32078 C 3148.64 -2.93597 -1.73245 0
M  V30 32079 H 3149.83 -2.99807 0.074695 0
M  V30 32080 H 3147.38 -1.56113 0.0764146 0
M  V30 32081 H 3148.12 -2.20986 -2.37352 0
M  V30 32082 H 3147.9 -3.67365 -1.37059 0
M  V30 32083 H 3149.39 -3.46047 -2.33754 0
M  V30 32084 N 3149.83 -0.0535194 -1.57509 0
M  V30 32085 C 3151.08 0.620657 -1.93069 0
M  V30 32086 C 3151.41 1.70356 -0.932343 0
M  V30 32087 O 3150.69 1.94456 0.0413051 0
M  V30 32088 C 3150.97 1.21457 -3.38999 0
M  V30 32089 C 3150.82 0.139571 -4.49583 0
M  V30 32090 C 3152.14 2.12552 -3.8537 0
M  V30 32091 H 3149.26 0.22415 -0.702087 0
M  V30 32092 H 3151.9 -0.115763 -1.89647 0
M  V30 32093 H 3150.05 1.8422 -3.42046 0
M  V30 32094 H 3151.72 -0.492492 -4.58664 0
M  V30 32095 H 3149.97 -0.532081 -4.30524 0
M  V30 32096 H 3150.64 0.595191 -5.48782 0
M  V30 32097 H 3153.11 1.59748 -3.84213 0
M  V30 32098 H 3151.99 2.5105 -4.88124 0
M  V30 32099 H 3152.25 3.02655 -3.22261 0
M  V30 32100 N 3151.31 1.56059 0.219886 0
M  V30 32101 C 3152.26 1.88948 1.27603 0
M  V30 32102 C 3153.24 0.752716 1.42208 0
M  V30 32103 O 3154.44 1.01516 1.44995 0
M  V30 32104 C 3151.56 2.21112 2.62611 0
M  V30 32105 C 3150.65 3.41185 2.519 0
M  V30 32106 N 3151.04 4.59759 2.10843 0
M  V30 32107 C 3149.34 3.44832 2.82855 0
M  V30 32108 C 3150.04 5.41918 2.11424 0
M  V30 32109 N 3149.02 4.81673 2.51976 0
M  V30 32110 H 3152.82 2.78139 0.949521 0
M  V30 32111 H 3150.33 1.56647 0.42844 0
M  V30 32112 H 3152.33 2.4285 3.38865 0
M  V30 32113 H 3150.99 1.33235 2.96106 0
M  V30 32114 H 3152 4.84887 1.81947 0
M  V30 32115 H 3148.68 2.67303 3.20711 0
M  V30 32116 H 3150.07 6.4684 1.81792 0
M  V30 32117 N 3152.79 -0.486655 1.49898 0
M  V30 32118 C 3154.03 -1.23984 1.60107 0
M  V30 32119 C 3154.36 -1.92261 0.294262 0
M  V30 32120 O 3153.62 -1.8202 -0.718844 0
M  V30 32121 C 3153.92 -2.31858 2.71986 0
M  V30 32122 C 3153.58 -1.8094 4.13003 0
M  V30 32123 C 3152.24 -1.66774 4.51376 0
M  V30 32124 C 3154.6 -1.42995 5.012 0
M  V30 32125 C 3151.92 -1.13062 5.75703 0
M  V30 32126 C 3154.28 -0.90731 6.2606 0
M  V30 32127 C 3152.94 -0.752152 6.63249 0
M  V30 32128 H 3152.21 -0.453688 0.585874 0
M  V30 32129 H 3154.86 -0.538273 1.83779 0
M  V30 32130 H 3153.16 -3.0786 2.42341 0
M  V30 32131 H 3154.86 -2.89864 2.77092 0
M  V30 32132 H 3151.45 -1.9293 3.82722 0
M  V30 32133 H 3155.63 -1.52781 4.72199 0
M  V30 32134 H 3150.89 -0.997736 6.03204 0
M  V30 32135 H 3155.06 -0.604562 6.93771 0
M  V30 32136 H 3152.69 -0.333786 7.59467 0
M  V30 32137 N 3154.27 -1.39214 -0.738737 0
M  V30 32138 C 3155.18 -1.39901 -1.88321 0
M  V30 32139 C 3156.19 -0.294259 -1.71494 0
M  V30 32140 O 3157.37 -0.535122 -1.94161 0
M  V30 32141 C 3154.43 -1.23732 -3.23869 0
M  V30 32142 C 3153.49 -2.44145 -3.53117 0
M  V30 32143 C 3152.73 -2.28738 -4.82198 0
M  V30 32144 O 3152.95 -1.28889 -5.55647 0
M  V30 32145 O 3151.88 -3.17643 -5.1126 0
M  V30 32146 H 3155.71 -2.36365 -1.90696 0
M  V30 32147 H 3153.29 -1.2029 -0.886045 0
M  V30 32148 H 3155.18 -1.16833 -4.0488 0
M  V30 32149 H 3153.85 -0.303607 -3.22273 0
M  V30 32150 H 3152.76 -2.5662 -2.72208 0
M  V30 32151 H 3154.09 -3.36197 -3.59489 0
M  V30 32152 N 3155.74 0.968523 -1.24328 0
M  V30 32153 C 3156.68 2.06583 -0.992785 0
M  V30 32154 C 3157.69 1.62757 0.0374616 0
M  V30 32155 O 3158.88 1.77382 -0.19948 0
M  V30 32156 C 3155.98 3.35537 -0.476224 0
M  V30 32157 C 3155.15 4.08275 -1.56941 0
M  V30 32158 C 3154.21 5.15502 -1.05564 0
M  V30 32159 O 3153.24 5.41722 -1.74716 0
M  V30 32160 N 3154.44 5.80395 0.110363 0
M  V30 32161 H 3157.2 2.28645 -1.93756 0
M  V30 32162 H 3154.76 1.13609 -1.15346 0
M  V30 32163 H 3156.76 4.0453 -0.117295 0
M  V30 32164 H 3155.33 3.10351 0.37426 0
M  V30 32165 H 3154.55 3.33571 -2.10057 0
M  V30 32166 H 3155.83 4.53633 -2.30423 0
M  V30 32167 H 3155.23 5.61494 0.688515 0
M  V30 32168 H 3153.79 6.50506 0.410446 0
M  V30 32169 N 3157.22 1.0569 1.16908 0
M  V30 32170 C 3158.63 0.795302 1.68914 0
M  V30 32171 C 3158.98 -0.681892 1.83969 0
M  V30 32172 O 3158.11 -1.5295 1.53085 0
M  V30 32173 C 3158.7 1.43708 3.06812 0
M  V30 32174 C 3157.26 1.22341 3.55963 0
M  V30 32175 C 3156.41 1.51745 2.32096 0
M  V30 32176 H 3159.36 1.22118 1.01355 0
M  V30 32177 H 3159.38 0.849081 3.70905 0
M  V30 32178 H 3158.89 2.51219 2.95822 0
M  V30 32179 H 3156.99 0.167775 3.72222 0
M  V30 32180 H 3157.11 1.93187 4.38424 0
M  V30 32181 H 3155.47 0.937737 2.36809 0
M  V30 32182 H 3156.25 2.60401 2.2371 0
M  V30 32183 N 3158.7 -1.33435 0.838617 0
M  V30 32184 C 3159.95 -1.9779 0.434204 0
M  V30 32185 C 3160.27 -1.66433 -1.00649 0
M  V30 32186 O 3159.53 -0.936339 -1.71846 0
M  V30 32187 C 3159.83 -3.52302 0.601487 0
M  V30 32188 C 3159.49 -4.03609 2.01024 0
M  V30 32189 C 3158.16 -4.17331 2.39558 0
M  V30 32190 C 3160.51 -4.31017 2.93043 0
M  V30 32191 C 3157.84 -4.55796 3.69414 0
M  V30 32192 C 3160.19 -4.70933 4.2238 0
M  V30 32193 C 3158.85 -4.82861 4.6087 0
M  V30 32194 H 3158.12 -0.723765 0.158887 0
M  V30 32195 H 3160.77 -1.59115 1.06559 0
M  V30 32196 H 3159.07 -3.91636 -0.113215 0
M  V30 32197 H 3160.77 -4.00098 0.268868 0
M  V30 32198 H 3157.36 -3.93402 1.70097 0
M  V30 32199 H 3161.55 -4.19938 2.6451 0
M  V30 32200 H 3156.8 -4.63224 3.99041 0
M  V30 32201 H 3160.98 -4.91097 4.93758 0
M  V30 32202 H 3158.6 -5.12423 5.61539 0
M  V30 32203 N 3160.18 -0.595029 -1.45935 0
M  V30 32204 C 3161.11 0.169096 -2.28575 0
M  V30 32205 C 3162.12 0.843767 -1.39228 0
M  V30 32206 O 3163.31 0.711262 -1.63717 0
M  V30 32207 C 3160.41 1.2597 -3.14618 0
M  V30 32208 C 3159.58 0.674584 -4.32167 0
M  V30 32209 C 3158.64 1.65447 -4.99514 0
M  V30 32210 O 3157.67 1.18568 -5.56714 0
M  V30 32211 N 3158.87 2.98876 -4.97648 0
M  V30 32212 H 3161.64 -0.53996 -2.94796 0
M  V30 32213 H 3159.2 -0.433642 -1.55984 0
M  V30 32214 H 3161.19 1.91477 -3.56537 0
M  V30 32215 H 3159.76 1.87145 -2.5039 0
M  V30 32216 H 3158.98 -0.158253 -3.93882 0
M  V30 32217 H 3160.27 0.263663 -5.08116 0
M  V30 32218 H 3159.67 3.39575 -4.52444 0
M  V30 32219 H 3158.22 3.59839 -5.4347 0
M  V30 32220 N 3161.66 1.54031 -0.333483 0
M  V30 32221 C 3162.9 1.99924 0.267046 0
M  V30 32222 C 3163.22 1.22536 1.5246 0
M  V30 32223 O 3164.42 1.58856 2.20175 0
M  V30 32224 C 3162.88 3.5603 0.526393 0
M  V30 32225 C 3162.49 4.42263 -0.714685 0
M  V30 32226 C 3164.23 4.10365 1.08633 0
M  V30 32227 C 3162.14 5.89859 -0.426693 0
M  V30 32228 H 3161.07 0.746854 0.103563 0
M  V30 32229 H 3163.72 1.77966 -0.447249 0
M  V30 32230 H 3162.1 3.74014 1.30113 0
M  V30 32231 H 3163.28 4.36054 -1.48976 0
M  V30 32232 H 3161.59 3.98868 -1.19554 0
M  V30 32233 H 3164.19 5.18237 1.31659 0
M  V30 32234 H 3164.53 3.6296 2.03877 0
M  V30 32235 H 3165.06 3.96052 0.37254 0
M  V30 32236 H 3161.8 6.41478 -1.34858 0
M  V30 32237 H 3161.32 5.98996 0.310483 0
M  V30 32238 H 3163 6.46988 -0.0401944 0
M  V30 32239 N 3163.13 0.0618717 1.57479 0
M  V30 32240 C 3164.54 -0.472263 1.80628 0
M  V30 32241 C 3164.9 -1.7026 0.97499 0
M  V30 32242 O 3164.02 -2.15523 0.194638 0
M  V30 32243 C 3164.62 -0.863558 3.2761 0
M  V30 32244 C 3163.17 -1.34261 3.5164 0
M  V30 32245 C 3162.32 -0.322961 2.75413 0
M  V30 32246 H 3165.27 0.287662 1.56071 0
M  V30 32247 H 3165.29 -1.72571 3.39116 0
M  V30 32248 H 3164.81 0.0320908 3.88087 0
M  V30 32249 H 3162.91 -2.25709 2.96456 0
M  V30 32250 H 3163.02 -1.32739 4.60345 0
M  V30 32251 H 3161.38 -0.798133 2.41872 0
M  V30 32252 H 3162.17 0.564788 3.38622 0
M  V30 32253 N 3164.61 -1.56173 -0.211607 0
M  V30 32254 C 3165.56 -1.94091 -1.28184 0
M  V30 32255 C 3166.55 -0.824193 -1.47998 0
M  V30 32256 O 3167.76 -1.0091 -1.49054 0
M  V30 32257 H 3164.14 -0.616946 -0.429979 0
M  V30 32258 H 3166.11 -2.83376 -0.934912 0
M  V30 32259 C 3164.86 -2.28252 -2.6229 0
M  V30 32260 H 3164.18 -3.13701 -2.47855 0
M  V30 32261 H 3165.62 -2.5866 -3.35962 0
M  V30 32262 C 3164.08 -1.11119 -3.18047 0
M  V30 32263 O 3164.61 -0.377528 -3.99922 0
M  V30 32264 N 3162.81 -0.892369 -2.76559 0
M  V30 32265 H 3162.36 -1.49071 -2.10085 0
M  V30 32266 H 3162.32 -0.110399 -3.14206 0
M  V30 32267 N 3166.09 0.478699 -1.50154 0
M  V30 32268 C 3167.34 1.2289 -1.60445 0
M  V30 32269 C 3167.66 1.92627 -0.30331 0
M  V30 32270 O 3166.93 1.83765 0.678766 0
M  V30 32271 H 3165.51 0.456592 -0.591213 0
M  V30 32272 H 3168.17 0.552872 -1.86894 0
M  V30 32273 H 3167.27 1.98089 -2.41178 0
M  V30 32274 N 3167.57 1.39603 0.731343 0
M  V30 32275 C 3168.85 1.27533 1.48306 0
M  V30 32276 C 3169.23 -0.113445 2.10795 0
M  V30 32277 O 3168.57 -1.12498 1.98888 0
M  V30 32278 C 3168.78 2.4024 2.53152 0
M  V30 32279 C 3170.13 2.7973 3.19431 0
M  V30 32280 O 3171.16 2.39716 2.63466 0
M  V30 32281 O 3170.01 3.48808 4.20708 0
M  V30 32282 H 3167.11 0.499985 0.658744 0
M  V30 32283 H 3169.65 1.51486 0.764857 0
M  V30 32284 H 3168.43 3.33068 2.05382 0
M  V30 32285 H 3168.05 2.17972 3.32527 0
M  V30 32286 N 3169.05 -0.961916 1.2484 0
M  V30 32287 C 3170.27 -1.74578 1.1197 0
M  V30 32288 C 3170.7 -1.85302 -0.323254 0
M  V30 32289 O 3170.05 -1.32815 -1.2341 0
M  V30 32290 C 3170.1 -3.14131 1.77071 0
M  V30 32291 O 3169.21 -3.9893 1.04541 0
M  V30 32292 H 3168.55 -0.536417 0.391348 0
M  V30 32293 H 3171.08 -1.20623 1.65261 0
M  V30 32294 H 3171.09 -3.64626 1.83062 0
M  V30 32295 H 3169.76 -3.05641 2.82057 0
M  V30 32296 H 3168.34 -3.57405 1.06378 0
M  V30 32297 N 3170.52 -1.06308 -1.16346 0
M  V30 32298 C 3171.75 -0.80067 -1.91322 0
M  V30 32299 C 3172.17 0.639074 -1.76911 0
M  V30 32300 O 3171.53 1.44533 -1.09452 0
M  V30 32301 C 3171.58 -1.20033 -3.40036 0
M  V30 32302 O 3170.68 -0.339214 -4.11003 0
M  V30 32303 H 3170.03 -0.292606 -0.596052 0
M  V30 32304 H 3172.56 -1.41892 -1.47404 0
M  V30 32305 H 3172.57 -1.17195 -3.90806 0
M  V30 32306 H 3171.24 -2.24904 -3.49844 0
M  V30 32307 H 3169.82 -0.429175 -3.70422 0
M  V30 32308 N 3172 1.32989 -0.845682 0
M  V30 32309 C 3173.24 1.99366 -0.450854 0
M  V30 32310 C 3173.61 1.65504 0.973268 0
M  V30 32311 O 3174.81 2.24901 1.47218 0
M  V30 32312 C 3173.08 3.51009 -0.672887 0
M  V30 32313 S 3174.64 4.37201 -0.374293 0
M  V30 32314 H 3171.46 0.690553 -0.169285 0
M  V30 32315 H 3174.06 1.61859 -1.09645 0
M  V30 32316 H 3172.76 3.73142 -1.70861 0
M  V30 32317 H 3172.29 3.93398 -0.0133877 0
M  V30 32318 H 3174.31 4.89655 0.803256 0
M  V30 32319 N 3173.48 0.60276 1.45618 0
M  V30 32320 C 3174.43 -0.131443 2.32228 0
M  V30 32321 C 3175.42 -0.864458 1.45683 0
M  V30 32322 O 3176.63 -0.780572 1.62195 0
M  V30 32323 H 3173 -0.0612506 0.749501 0
M  V30 32324 H 3174.97 0.617547 2.9194 0
M  V30 32325 C 3173.72 -1.1186 3.29215 0
M  V30 32326 H 3173.05 -0.563992 3.95802 0
M  V30 32327 H 3174.49 -1.60235 3.92557 0
M  V30 32328 C 3172.95 -2.18974 2.56031 0
M  V30 32329 O 3173.48 -3.26642 2.33812 0
M  V30 32330 N 3171.68 -1.94126 2.16249 0
M  V30 32331 H 3171.23 -1.06575 2.3452 0
M  V30 32332 H 3171.19 -2.66 1.67605 0
M  V30 32333 N 3174.96 -1.53852 0.341647 0
M  V30 32334 C 3175.89 -2.22495 -0.550343 0
M  V30 32335 C 3176.9 -1.23091 -1.06548 0
M  V30 32336 O 3178.09 -1.49457 -0.975958 0
M  V30 32337 C 3175.19 -2.89012 -1.7699 0
M  V30 32338 C 3174.37 -4.14714 -1.39037 0
M  V30 32339 C 3173.42 -4.64658 -2.46939 0
M  V30 32340 O 3172.45 -5.28915 -2.10326 0
M  V30 32341 N 3173.65 -4.40424 -3.78162 0
M  V30 32342 H 3176.42 -2.99677 0.0375087 0
M  V30 32343 H 3173.98 -1.6105 0.165682 0
M  V30 32344 H 3175.97 -3.19341 -2.48603 0
M  V30 32345 H 3174.54 -2.15428 -2.26517 0
M  V30 32346 H 3173.76 -3.90951 -0.505093 0
M  V30 32347 H 3175.05 -4.96483 -1.11276 0
M  V30 32348 H 3174.45 -3.8903 -4.10697 0
M  V30 32349 H 3173 -4.75364 -4.45951 0
M  V30 32350 N 3176.44 -0.0702223 -1.57443 0
M  V30 32351 C 3177.68 0.598073 -1.93048 0
M  V30 32352 C 3178.01 1.70245 -0.950871 0
M  V30 32353 O 3177.28 1.959 0.00123733 0
M  V30 32354 H 3175.86 0.223911 -0.712652 0
M  V30 32355 H 3178.52 -0.127708 -1.94481 0
M  V30 32356 H 3177.61 1.0244 -2.94809 0
M  V30 32357 N 3177.91 1.56283 0.203321 0
M  V30 32358 C 3179.19 1.70959 0.950385 0
M  V30 32359 C 3179.57 0.622683 2.01707 0
M  V30 32360 O 3178.92 -0.367595 2.25524 0
M  V30 32361 C 3179.13 3.12974 1.54428 0
M  V30 32362 C 3180.48 3.72953 2.02957 0
M  V30 32363 O 3181.5 3.16051 1.64287 0
M  V30 32364 O 3180.36 4.72798 2.74089 0
M  V30 32365 H 3177.45 0.696978 0.445141 0
M  V30 32366 H 3180 1.68591 0.193666 0
M  V30 32367 H 3178.77 3.83549 0.774983 0
M  V30 32368 H 3178.4 3.19536 2.36606 0
M  V30 32369 N 3179.39 -0.470729 1.50406 0
M  V30 32370 C 3180.62 -1.24425 1.64931 0
M  V30 32371 C 3181.03 -1.86261 0.332172 0
M  V30 32372 O 3180.37 -1.70009 -0.695889 0
M  V30 32373 C 3180.44 -2.39288 2.68294 0
M  V30 32374 C 3180.1 -1.98086 4.11839 0
M  V30 32375 C 3181.1 -1.50317 4.97695 0
M  V30 32376 C 3178.78 -2.06795 4.57756 0
M  V30 32377 C 3180.78 -1.11802 6.27518 0
M  V30 32378 C 3178.46 -1.67891 5.87585 0
M  V30 32379 C 3179.46 -1.20473 6.72291 0
M  V30 32380 O 3179.15 -0.821078 7.99696 0
M  V30 32381 H 3178.88 -0.382432 0.557424 0
M  V30 32382 H 3181.44 -0.568257 1.97383 0
M  V30 32383 H 3179.67 -3.10059 2.31085 0
M  V30 32384 H 3181.35 -3.0125 2.72035 0
M  V30 32385 H 3182.12 -1.4301 4.63436 0
M  V30 32386 H 3178 -2.42653 3.9197 0
M  V30 32387 H 3181.54 -0.747195 6.93587 0
M  V30 32388 H 3177.44 -1.74858 6.21365 0
M  V30 32389 H 3178.21 -0.949895 8.12969 0
M  V30 32390 N 3180.87 -1.39989 -0.72393 0
M  V30 32391 C 3181.8 -1.42338 -1.851 0
M  V30 32392 C 3182.78 -0.285327 -1.6769 0
M  V30 32393 O 3183.97 -0.492749 -1.87845 0
M  V30 32394 C 3181.1 -1.27703 -3.22969 0
M  V30 32395 C 3180.05 -2.39024 -3.55037 0
M  V30 32396 C 3179.38 -2.09471 -4.91961 0
M  V30 32397 C 3180.68 -3.81356 -3.56882 0
M  V30 32398 H 3182.37 -2.3666 -1.83392 0
M  V30 32399 H 3179.92 -1.13912 -0.880906 0
M  V30 32400 H 3181.87 -1.27965 -4.01501 0
M  V30 32401 H 3180.59 -0.298544 -3.25233 0
M  V30 32402 H 3179.25 -2.37998 -2.78841 0
M  V30 32403 H 3178.9 -1.10033 -4.90817 0
M  V30 32404 H 3178.6 -2.84047 -5.14384 0
M  V30 32405 H 3180.13 -2.11401 -5.72837 0
M  V30 32406 H 3181.54 -3.84251 -4.25469 0
M  V30 32407 H 3179.94 -4.55383 -3.90828 0
M  V30 32408 H 3181.01 -4.11538 -2.56445 0
M  V30 32409 N 3182.35 0.955282 -1.25348 0
M  V30 32410 C 3183.6 1.70233 -1.10221 0
M  V30 32411 C 3183.93 1.90907 0.356091 0
M  V30 32412 O 3183.2 1.47956 1.26251 0
M  V30 32413 C 3183.49 3.08565 -1.85632 0
M  V30 32414 C 3183.34 2.95305 -3.39286 0
M  V30 32415 C 3184.66 4.08445 -1.63893 0
M  V30 32416 H 3181.78 0.617845 -0.401791 0
M  V30 32417 H 3184.42 1.11046 -1.54172 0
M  V30 32418 H 3182.57 3.59091 -1.48276 0
M  V30 32419 H 3184.24 2.5211 -3.86314 0
M  V30 32420 H 3182.48 2.31238 -3.67031 0
M  V30 32421 H 3183.16 3.93357 -3.87265 0
M  V30 32422 H 3185.63 3.66826 -1.96412 0
M  V30 32423 H 3184.51 5.03278 -2.19095 0
M  V30 32424 H 3184.77 4.38278 -0.580098 0
M  V30 32425 N 3183.83 1.06924 1.1578 0
M  V30 32426 C 3184.76 0.707084 2.22537 0
M  V30 32427 C 3185.74 -0.303441 1.67372 0
M  V30 32428 O 3186.92 -0.177155 1.9339 0
M  V30 32429 C 3184.05 0.0994879 3.47157 0
M  V30 32430 C 3183.01 1.03669 4.15255 0
M  V30 32431 C 3182.33 0.292068 5.33902 0
M  V30 32432 C 3183.63 2.36845 4.65512 0
M  V30 32433 H 3185.33 1.59962 2.53086 0
M  V30 32434 H 3182.87 0.770573 1.21648 0
M  V30 32435 H 3184.83 -0.165778 4.21074 0
M  V30 32436 H 3183.55 -0.828099 3.15927 0
M  V30 32437 H 3182.21 1.2868 3.43274 0
M  V30 32438 H 3181.86 -0.63884 4.98927 0
M  V30 32439 H 3181.56 0.916716 5.80405 0
M  V30 32440 H 3183.08 0.0344988 6.1059 0
M  V30 32441 H 3184.5 2.16184 5.30978 0
M  V30 32442 H 3182.89 2.94865 5.22661 0
M  V30 32443 H 3183.96 2.9946 3.81381 0
M  V30 32444 N 3185.31 -1.32538 0.852723 0
M  V30 32445 C 3186.72 -1.50103 0.542324 0
M  V30 32446 C 3186.92 -1.78888 -0.927434 0
M  V30 32447 O 3185.98 -1.85731 -1.71057 0
M  V30 32448 C 3187.29 -2.64649 1.42764 0
M  V30 32449 C 3188.84 -2.78534 1.42787 0
M  V30 32450 C 3189.31 -3.96156 2.29835 0
M  V30 32451 N 3190.8 -4.03414 2.2762 0
M  V30 32452 C 3191.54 -4.93656 2.91704 0
M  V30 32453 N 3191.04 -5.88918 3.64893 0
M  V30 32454 N 3192.83 -4.86763 2.81102 0
M  V30 32455 H 3184.98 -1.12119 1.80397 0
M  V30 32456 H 3187.24 -0.552433 0.770404 0
M  V30 32457 H 3186.95 -2.50101 2.4727 0
M  V30 32458 H 3186.82 -3.60386 1.11364 0
M  V30 32459 H 3189.21 -2.92505 0.390468 0
M  V30 32460 H 3189.29 -1.83516 1.78201 0
M  V30 32461 H 3188.93 -3.82943 3.33642 0
M  V30 32462 H 3188.86 -4.90446 1.91755 0
M  V30 32463 H 3191.36 -3.35247 1.74408 0
M  V30 32464 H 3191.67 -6.54469 4.10963 0
M  V30 32465 H 3190.01 -5.88951 3.69001 0
M  V30 32466 H 3193.2 -4.1131 2.23476 0
M  V30 32467 H 3193.38 -5.5689 3.31328 0
M  V30 32468 N 3186.78 -0.610474 -1.45296 0
M  V30 32469 C 3187.73 0.119126 -2.32295 0
M  V30 32470 C 3188.73 0.85672 -1.46139 0
M  V30 32471 O 3189.93 0.771959 -1.62606 0
M  V30 32472 H 3186.31 0.057275 -0.749816 0
M  V30 32473 H 3188.28 -0.633021 -2.91608 0
M  V30 32474 C 3187.03 1.10113 -3.29804 0
M  V30 32475 H 3186.35 0.542993 -3.96095 0
M  V30 32476 H 3187.79 1.58151 -3.93401 0
M  V30 32477 C 3186.25 2.17613 -2.57189 0
M  V30 32478 O 3186.78 3.25397 -2.35541 0
M  V30 32479 N 3184.98 1.92976 -2.17275 0
M  V30 32480 H 3184.53 1.0533 -2.35082 0
M  V30 32481 H 3184.49 2.65107 -1.69014 0
M  V30 32482 N 3188.26 1.53669 -0.349801 0
M  V30 32483 C 3189.51 2.00618 0.244308 0
M  V30 32484 C 3189.83 1.23916 1.50565 0
M  V30 32485 O 3189.1 0.34805 1.92783 0
M  V30 32486 H 3187.68 0.741155 0.0932662 0
M  V30 32487 H 3190.34 1.89088 -0.4724 0
M  V30 32488 H 3189.44 3.0835 0.482378 0
M  V30 32489 N 3189.74 0.0785709 1.57404 0
M  V30 32490 C 3191.15 -0.453078 1.81119 0
M  V30 32491 C 3191.5 -1.69216 0.992993 0
M  V30 32492 O 3190.63 -2.15304 0.217486 0
M  V30 32493 C 3191.22 -0.828762 3.28507 0
M  V30 32494 C 3189.78 -1.30524 3.53045 0
M  V30 32495 C 3188.93 -0.293732 2.7574 0
M  V30 32496 H 3191.88 0.304199 1.55757 0
M  V30 32497 H 3191.9 -1.68965 3.40927 0
M  V30 32498 H 3191.41 0.0732508 3.88031 0
M  V30 32499 H 3189.51 -2.22552 2.98833 0
M  V30 32500 H 3189.63 -1.27849 4.61727 0
M  V30 32501 H 3187.99 -0.772434 2.42705 0
M  V30 32502 H 3188.77 0.600672 3.38004 0
M  V30 32503 N 3191.22 -1.56389 -0.19503 0
M  V30 32504 C 3192.49 -1.71461 -0.941305 0
M  V30 32505 C 3192.87 -0.633371 -2.01374 0
M  V30 32506 O 3192.22 0.35563 -2.25716 0
M  V30 32507 C 3192.43 -3.13789 -1.52767 0
M  V30 32508 C 3193.78 -3.74024 -2.00976 0
M  V30 32509 O 3194.8 -3.16918 -1.62609 0
M  V30 32510 O 3193.66 -4.74245 -2.71577 0
M  V30 32511 H 3190.76 -0.699329 -0.441439 0
M  V30 32512 H 3193.3 -1.68692 -0.184722 0
M  V30 32513 H 3192.08 -3.83954 -0.754632 0
M  V30 32514 H 3191.7 -3.20787 -2.34908 0
M  V30 32515 N 3192.7 0.462746 -1.50653 0
M  V30 32516 C 3193.94 1.21102 -1.61298 0
M  V30 32517 C 3194.26 1.92918 -0.322791 0
M  V30 32518 O 3195.46 2.69744 -0.308258 0
M  V30 32519 C 3193.92 2.20095 -2.84756 0
M  V30 32520 C 3193.53 1.54044 -4.20683 0
M  V30 32521 C 3195.27 2.95513 -3.0475 0
M  V30 32522 C 3193.18 2.51372 -5.35319 0
M  V30 32523 H 3192.11 0.455717 -0.600698 0
M  V30 32524 H 3194.76 0.480625 -1.77094 0
M  V30 32525 H 3193.14 2.96462 -2.62538 0
M  V30 32526 H 3194.32 0.834088 -4.53188 0
M  V30 32527 H 3192.63 0.908757 -4.06363 0
M  V30 32528 H 3195.23 3.68371 -3.87565 0
M  V30 32529 H 3195.57 3.55387 -2.16808 0
M  V30 32530 H 3196.1 2.26257 -3.27189 0
M  V30 32531 H 3192.84 1.96224 -6.25441 0
M  V30 32532 H 3192.36 3.20135 -5.07222 0
M  V30 32533 H 3194.04 3.1303 -5.66234 0
M  V30 32534 N 3194.17 1.40371 0.716495 0
M  V30 32535 C 3195.41 1.40049 1.48881 0
M  V30 32536 C 3195.78 0.00161402 1.92 0
M  V30 32537 O 3196.98 -0.126717 2.68501 0
M  V30 32538 C 3195.25 2.36158 2.68261 0
M  V30 32539 S 3196.81 2.54186 3.5768 0
M  V30 32540 H 3193.63 0.4964 0.509026 0
M  V30 32541 H 3196.23 1.76632 0.837936 0
M  V30 32542 H 3194.93 3.36629 2.34753 0
M  V30 32543 H 3194.46 2.00856 3.38261 0
M  V30 32544 H 3196.48 1.7936 4.62649 0
M  V30 32545 N 3195.65 -0.948621 1.25853 0
M  V30 32546 C 3196.88 -1.7338 1.13816 0
M  V30 32547 C 3197.3 -1.85634 -0.303582 0
M  V30 32548 O 3196.66 -1.34116 -1.21994 0
M  V30 32549 C 3196.71 -3.12235 1.80393 0
M  V30 32550 O 3195.81 -3.97799 1.08766 0
M  V30 32551 H 3195.15 -0.532236 0.397015 0
M  V30 32552 H 3197.68 -1.18863 1.66531 0
M  V30 32553 H 3197.69 -3.62664 1.86919 0
M  V30 32554 H 3196.37 -3.02632 2.85283 0
M  V30 32555 H 3194.95 -3.56256 1.10163 0
M  V30 32556 N 3197.13 -1.07536 -1.15212 0
M  V30 32557 C 3198.54 -0.822074 -1.67627 0
M  V30 32558 C 3198.89 0.652538 -1.85031 0
M  V30 32559 O 3198.02 1.50495 -1.55499 0
M  V30 32560 C 3198.61 -1.48571 -3.04487 0
M  V30 32561 C 3197.17 -1.27989 -3.53971 0
M  V30 32562 C 3196.32 -1.55418 -2.29653 0
M  V30 32563 H 3199.27 -1.23715 -0.993994 0
M  V30 32564 H 3199.29 -0.907981 -3.69508 0
M  V30 32565 H 3198.8 -2.55894 -2.91788 0
M  V30 32566 H 3196.9 -0.226971 -3.71908 0
M  V30 32567 H 3197.02 -2.00138 -4.35295 0
M  V30 32568 H 3195.38 -0.975293 -2.35287 0
M  V30 32569 H 3196.16 -2.63927 -2.19539 0
M  V30 32570 N 3198.61 1.32084 -0.85974 0
M  V30 32571 C 3200.02 1.79325 -0.519561 0
M  V30 32572 C 3200.37 1.70945 0.96292 0
M  V30 32573 O 3199.5 1.27107 1.75136 0
M  V30 32574 C 3200.09 3.25605 -0.936324 0
M  V30 32575 C 3198.65 3.70781 -0.647964 0
M  V30 32576 C 3197.8 2.53085 -1.13328 0
M  V30 32577 H 3200.75 1.19311 -1.04645 0
M  V30 32578 H 3200.77 3.79646 -0.254781 0
M  V30 32579 H 3200.28 3.31672 -2.01533 0
M  V30 32580 H 3198.38 3.70224 0.420107 0
M  V30 32581 H 3198.49 4.63364 -1.21782 0
M  V30 32582 H 3196.86 2.48616 -0.553369 0
M  V30 32583 H 3197.64 2.61904 -2.21949 0
M  V30 32584 N 3200.09 0.618171 1.4497 0
M  V30 32585 C 3201.02 -0.0815544 2.33358 0
M  V30 32586 C 3202 -0.848047 1.47452 0
M  V30 32587 O 3203.18 -0.816501 1.76201 0
M  V30 32588 C 3200.31 -1.07247 3.30326 0
M  V30 32589 C 3199.27 -0.418488 4.25949 0
M  V30 32590 C 3198.59 -1.5184 5.12688 0
M  V30 32591 C 3199.89 0.667062 5.18023 0
M  V30 32592 H 3201.59 0.656494 2.92114 0
M  V30 32593 H 3199.13 0.317153 1.40464 0
M  V30 32594 H 3201.09 -1.57062 3.91036 0
M  V30 32595 H 3199.81 -1.84125 2.69751 0
M  V30 32596 H 3198.47 0.0588952 3.66553 0
M  V30 32597 H 3198.12 -2.27772 4.48474 0
M  V30 32598 H 3197.82 -1.08626 5.77472 0
M  V30 32599 H 3199.34 -2.01861 5.76268 0
M  V30 32600 H 3200.75 0.252548 5.72743 0
M  V30 32601 H 3199.15 1.02157 5.91341 0
M  V30 32602 H 3200.22 1.53944 4.59814 0
M  V30 32603 N 3201.56 -1.53481 0.357946 0
M  V30 32604 C 3202.81 -2.00745 -0.233665 0
M  V30 32605 C 3203.13 -1.24713 -1.49905 0
M  V30 32606 O 3202.4 -0.358269 -1.92596 0
M  V30 32607 H 3200.98 -0.741639 -0.0893343 0
M  V30 32608 H 3203.65 -1.88835 0.482421 0
M  V30 32609 H 3202.74 -3.08601 -0.466019 0
M  V30 32610 N 3203.04 -0.0869173 -1.5736 0
M  V30 32611 C 3204.45 0.443467 -1.81357 0
M  V30 32612 C 3204.8 1.68687 -1.00195 0
M  V30 32613 O 3203.93 2.15186 -0.228901 0
M  V30 32614 C 3204.52 0.811329 -3.28942 0
M  V30 32615 C 3203.08 1.2865 -3.53732 0
M  V30 32616 C 3202.23 0.279104 -2.75892 0
M  V30 32617 H 3205.18 -0.312455 -1.55594 0
M  V30 32618 H 3205.2 1.67154 -3.41818 0
M  V30 32619 H 3204.71 -0.093828 -3.87987 0
M  V30 32620 H 3202.82 2.20964 -3.00009 0
M  V30 32621 H 3202.93 1.25398 -4.62398 0
M  V30 32622 H 3201.29 0.759552 -2.43111 0
M  V30 32623 H 3202.08 -0.618589 -3.37681 0
M  V30 32624 N 3204.52 1.5649 0.186734 0
M  V30 32625 C 3205.93 1.70945 0.750645 0
M  V30 32626 C 3206.28 0.69489 1.83482 0
M  V30 32627 O 3205.41 -0.146971 2.159 0
M  V30 32628 C 3206 3.09937 1.36838 0
M  V30 32629 C 3204.56 3.26129 1.87928 0
M  V30 32630 C 3203.71 2.66898 0.752373 0
M  V30 32631 H 3206.66 1.58653 -0.0384571 0
M  V30 32632 H 3206.68 3.07731 2.2379 0
M  V30 32633 H 3206.19 3.83756 0.579068 0
M  V30 32634 H 3204.29 2.5724 2.69552 0
M  V30 32635 H 3204.41 4.33718 2.03532 0
M  V30 32636 H 3202.77 2.26297 1.16884 0
M  V30 32637 H 3203.55 3.43291 -0.0248373 0
M  V30 32638 N 3206 -0.45475 1.50897 0
M  V30 32639 C 3207.25 -1.20321 1.6238 0
M  V30 32640 C 3207.57 -1.9212 0.333917 0
M  V30 32641 O 3206.84 -1.84822 -0.649444 0
M  V30 32642 H 3205.42 -0.447128 0.598402 0
M  V30 32643 H 3208.08 -0.523069 1.8775 0
M  V30 32644 H 3207.18 -1.94227 2.44299 0
M  V30 32645 N 3207.48 -1.40749 -0.709041 0
M  V30 32646 C 3208.72 -1.39106 -1.46608 0
M  V30 32647 C 3209.05 0.00361939 -1.95 0
M  V30 32648 O 3208.32 0.959511 -1.70793 0
M  V30 32649 H 3206.9 -0.511989 -0.543945 0
M  V30 32650 H 3209.56 -1.75864 -0.84011 0
M  V30 32651 H 3208.65 -2.06998 -2.33577 0
M  V30 32652 N 3208.96 0.941933 -1.26354 0
M  V30 32653 C 3209.9 2.06186 -1.07657 0
M  V30 32654 C 3210.9 1.694 -0.00372719 0
M  V30 32655 O 3212.1 1.79284 -0.160348 0
M  V30 32656 H 3208.48 0.675095 -0.331286 0
M  V30 32657 H 3210.45 2.19107 -2.0257 0
M  V30 32658 C 3209.2 3.40047 -0.725496 0
M  V30 32659 H 3208.52 3.68829 -1.54289 0
M  V30 32660 H 3209.96 4.19226 -0.634457 0
M  V30 32661 C 3208.42 3.32055 0.56931 0
M  V30 32662 O 3208.95 3.68119 1.60784 0
M  V30 32663 N 3207.16 2.8516 0.559663 0
M  V30 32664 H 3206.7 2.56009 -0.285862 0
M  V30 32665 H 3206.66 2.80195 1.42612 0
M  V30 32666 N 3210.43 1.08146 1.1464 0
M  V30 32667 C 3211.68 0.807918 1.85249 0
M  V30 32668 C 3212 -0.668181 1.83195 0
M  V30 32669 O 3211.27 -1.48429 1.27851 0
M  V30 32670 H 3209.85 0.295881 0.685904 0
M  V30 32671 H 3212.51 1.36689 1.38933 0
M  V30 32672 H 3211.61 1.14969 2.90153 0
M  V30 32673 N 3211.91 -1.31626 0.866732 0
M  V30 32674 C 3212.86 -2.26126 0.291751 0
M  V30 32675 C 3213.85 -1.5049 -0.569349 0
M  V30 32676 O 3215.04 -1.72024 -0.416756 0
M  V30 32677 C 3212.17 -3.39512 -0.508564 0
M  V30 32678 C 3211.25 -4.22521 0.365599 0
M  V30 32679 N 3211.64 -4.84344 1.45755 0
M  V30 32680 C 3209.94 -4.45722 0.157463 0
M  V30 32681 C 3210.64 -5.46371 1.99635 0
M  V30 32682 N 3209.62 -5.27979 1.2938 0
M  V30 32683 H 3213.42 -2.71459 1.12637 0
M  V30 32684 H 3210.93 -1.45855 0.714143 0
M  V30 32685 H 3212.93 -4.06234 -0.936985 0
M  V30 32686 H 3211.59 -2.95722 -1.34084 0
M  V30 32687 H 3212.6 -4.84094 1.84048 0
M  V30 32688 H 3209.28 -4.12579 -0.639121 0
M  V30 32689 H 3210.67 -6.05503 2.91232 0
M  V30 32690 N 3213.39 -0.62585 -1.4464 0
M  V30 32691 C 3214.64 -0.128237 -2.02094 0
M  V30 32692 C 3214.96 1.24798 -1.49183 0
M  V30 32693 O 3214.22 1.84091 -0.663997 0
M  V30 32694 C 3214.52 -0.0585009 -3.57352 0
M  V30 32695 C 3214.18 -1.3728 -4.29494 0
M  V30 32696 C 3212.85 -1.73277 -4.48919 0
M  V30 32697 C 3215.2 -2.24058 -4.70582 0
M  V30 32698 C 3212.53 -2.9577 -5.06692 0
M  V30 32699 C 3214.88 -3.45817 -5.29711 0
M  V30 32700 C 3213.54 -3.82044 -5.47356 0
M  V30 32701 H 3212.81 -0.0469252 -0.739513 0
M  V30 32702 H 3215.46 -0.811113 -1.73474 0
M  V30 32703 H 3213.76 0.707723 -3.85355 0
M  V30 32704 H 3215.46 0.34296 -3.99531 0
M  V30 32705 H 3212.05 -1.08266 -4.14701 0
M  V30 32706 H 3216.24 -1.97543 -4.55292 0
M  V30 32707 H 3211.49 -3.23922 -5.18541 0
M  V30 32708 H 3215.67 -4.13296 -5.60499 0
M  V30 32709 H 3213.29 -4.77044 -5.9189 0
M  V30 32710 N 3214.87 1.53289 -0.36608 0
M  V30 32711 C 3216.11 2.03174 0.223522 0
M  V30 32712 C 3216.47 1.24747 1.45953 0
M  V30 32713 O 3217.67 1.64641 2.12478 0
M  V30 32714 C 3215.94 3.53774 0.507837 0
M  V30 32715 S 3217.5 4.25528 1.07104 0
M  V30 32716 H 3214.32 0.708021 0.0650185 0
M  V30 32717 H 3216.92 1.88756 -0.509061 0
M  V30 32718 H 3215.63 4.08454 -0.399202 0
M  V30 32719 H 3215.16 3.72354 1.26948 0
M  V30 32720 H 3217.17 4.36741 2.35525 0
M  V30 32721 N 3216.35 0.0952613 1.57312 0
M  V30 32722 C 3217.59 -0.567285 1.93975 0
M  V30 32723 C 3217.91 -1.68711 0.977835 0
M  V30 32724 O 3217.18 -1.95877 0.0299288 0
M  V30 32725 H 3215.76 -0.212545 0.716124 0
M  V30 32726 H 3218.43 0.158632 1.94253 0
M  V30 32727 H 3217.52 -0.977371 2.96402 0
M  V30 32728 N 3217.82 -1.56587 -0.178432 0
M  V30 32729 C 3219.05 -1.86074 -0.916028 0
M  V30 32730 C 3219.47 -0.680785 -1.75348 0
M  V30 32731 O 3218.83 0.370248 -1.77479 0
M  V30 32732 C 3218.88 -3.13923 -1.77439 0
M  V30 32733 O 3217.98 -2.95646 -2.87519 0
M  V30 32734 H 3217.32 -0.612239 -0.257021 0
M  V30 32735 H 3219.85 -2.03818 -0.178719 0
M  V30 32736 H 3219.86 -3.45146 -2.17574 0
M  V30 32737 H 3218.54 -3.99419 -1.1592 0
M  V30 32738 H 3217.12 -2.75761 -2.51018 0
M  V30 32739 N 3219.3 0.446741 -1.51136 0
M  V30 32740 C 3220.25 1.53974 -1.68155 0
M  V30 32741 C 3221.24 1.51722 -0.535657 0
M  V30 32742 O 3222.43 1.58334 -0.791162 0
M  V30 32743 C 3219.56 2.92242 -1.80138 0
M  V30 32744 C 3218.64 2.99286 -3.00481 0
M  V30 32745 N 3219.03 2.76092 -4.23801 0
M  V30 32746 C 3217.33 3.3044 -2.99542 0
M  V30 32747 C 3218.03 2.88735 -5.04982 0
M  V30 32748 N 3217.01 3.19998 -4.39434 0
M  V30 32749 H 3220.81 1.34779 -2.61174 0
M  V30 32750 H 3218.32 0.653897 -1.48654 0
M  V30 32751 H 3220.32 3.70862 -1.90439 0
M  V30 32752 H 3218.98 3.12465 -0.882934 0
M  V30 32753 H 3219.99 2.51201 -4.529 0
M  V30 32754 H 3216.67 3.56497 -2.17293 0
M  V30 32755 H 3218.06 2.74836 -6.13119 0
M  V30 32756 N 3220.78 1.41123 0.701567 0
M  V30 32757 C 3221.74 1.42231 1.79731 0
M  V30 32758 C 3222.74 0.313859 1.57707 0
M  V30 32759 O 3223.93 0.573452 1.64491 0
M  V30 32760 C 3221.06 1.22781 3.18021 0
M  V30 32761 H 3222.26 2.39767 1.80143 0
M  V30 32762 H 3219.81 1.27177 0.908602 0
M  V30 32763 H 3220.55 0.260609 3.23251 0
M  V30 32764 H 3220.33 2.03086 3.35408 0
M  V30 32765 H 3221.82 1.26377 3.98018 0
M  V30 32766 N 3222.26 -0.935219 1.26852 0
M  V30 32767 C 3223.48 -1.72163 1.15648 0
M  V30 32768 C 3223.91 -1.85946 -0.283876 0
M  V30 32769 O 3223.27 -1.35402 -1.20565 0
M  V30 32770 C 3223.31 -3.10304 1.83695 0
M  V30 32771 O 3222.42 -3.96623 1.12979 0
M  V30 32772 H 3221.76 -0.527995 0.402638 0
M  V30 32773 H 3224.29 -1.1709 1.67783 0
M  V30 32774 H 3224.3 -3.60661 1.90755 0
M  V30 32775 H 3222.97 -2.9959 2.88477 0
M  V30 32776 H 3221.55 -3.55068 1.13935 0
M  V30 32777 N 3223.74 -1.08752 -1.14065 0
M  V30 32778 C 3224.96 -0.841072 -1.8958 0
M  V30 32779 C 3225.39 0.601404 -1.78227 0
M  V30 32780 O 3224.74 1.42179 -1.12493 0
M  V30 32781 C 3224.79 -1.27219 -3.37413 0
M  V30 32782 O 3223.9 -0.426318 -4.10191 0
M  V30 32783 H 3223.24 -0.305183 -0.589711 0
M  V30 32784 H 3225.77 -1.44986 -1.44361 0
M  V30 32785 H 3225.78 -1.25458 -3.88232 0
M  V30 32786 H 3224.45 -2.32274 -3.44995 0
M  V30 32787 H 3223.03 -0.50765 -3.69428 0
M  V30 32788 N 3225.21 1.31165 -0.873701 0
M  V30 32789 C 3226.44 2.00741 -0.501079 0
M  V30 32790 C 3226.86 1.65562 0.907447 0
M  V30 32791 O 3226.21 0.886799 1.59506 0
M  V30 32792 C 3226.27 3.55554 -0.652939 0
M  V30 32793 O 3225.99 3.89476 -2.006 0
M  V30 32794 C 3227.49 4.42403 -0.28182 0
M  V30 32795 H 3224.71 0.642089 -0.19484 0
M  V30 32796 H 3227.25 1.67311 -1.1759 0
M  V30 32797 H 3225.41 3.87392 -0.0256308 0
M  V30 32798 H 3225.82 4.84189 -2.01646 0
M  V30 32799 H 3227.29 5.50251 -0.439017 0
M  V30 32800 H 3227.77 4.32231 0.779313 0
M  V30 32801 H 3228.38 4.15991 -0.884983 0
M  V30 32802 N 3226.69 0.633512 1.44307 0
M  V30 32803 C 3227.62 -0.0567992 2.33431 0
M  V30 32804 C 3228.6 -0.83236 1.48343 0
M  V30 32805 O 3229.79 -0.797767 1.77057 0
M  V30 32806 C 3226.92 -1.03738 3.31445 0
M  V30 32807 C 3225.87 -0.373287 4.26369 0
M  V30 32808 C 3225.2 -1.46394 5.14269 0
M  V30 32809 C 3226.5 0.721967 5.17286 0
M  V30 32810 H 3228.19 0.687439 2.91401 0
M  V30 32811 H 3225.74 0.332033 1.4012 0
M  V30 32812 H 3227.69 -1.52906 3.9268 0
M  V30 32813 H 3226.42 -1.81253 2.71689 0
M  V30 32814 H 3225.07 0.0977697 3.6647 0
M  V30 32815 H 3224.72 -2.23003 4.50864 0
M  V30 32816 H 3224.42 -1.02495 5.78592 0
M  V30 32817 H 3225.95 -1.95738 5.78376 0
M  V30 32818 H 3227.36 0.313281 5.72443 0
M  V30 32819 H 3225.76 1.08423 5.90224 0
M  V30 32820 H 3226.83 1.58812 4.58156 0
M  V30 32821 N 3228.17 -1.53093 0.374204 0
M  V30 32822 C 3229.42 -2.01379 -0.212781 0
M  V30 32823 C 3229.75 -1.2612 -1.48067 0
M  V30 32824 O 3229 -0.345595 -1.92624 0
M  V30 32825 C 3229.3 -3.53265 -0.542117 0
M  V30 32826 C 3228.97 -4.46442 0.632454 0
M  V30 32827 C 3227.63 -4.71634 0.954718 0
M  V30 32828 C 3229.98 -5.01513 1.41896 0
M  V30 32829 C 3227.31 -5.49147 2.0653 0
M  V30 32830 C 3229.66 -5.80239 2.52003 0
M  V30 32831 C 3228.32 -6.03714 2.84755 0
M  V30 32832 H 3227.59 -0.736898 -0.077862 0
M  V30 32833 H 3230.24 -1.84627 0.508444 0
M  V30 32834 H 3228.55 -3.6801 -1.34447 0
M  V30 32835 H 3230.24 -3.88107 -1.00868 0
M  V30 32836 H 3226.83 -4.26989 0.371254 0
M  V30 32837 H 3231.02 -4.81989 1.18323 0
M  V30 32838 H 3226.27 -5.65552 2.32294 0
M  V30 32839 H 3230.45 -6.21917 3.13357 0
M  V30 32840 H 3228.07 -6.63561 3.70932 0
M  V30 32841 N 3229.65 -0.103603 -1.57259 0
M  V30 32842 C 3230.88 0.56624 -1.99001 0
M  V30 32843 C 3231.29 1.61195 -0.982938 0
M  V30 32844 O 3230.65 1.82481 0.0263129 0
M  V30 32845 C 3230.7 1.20629 -3.4078 0
M  V30 32846 O 3230.42 0.202395 -4.37632 0
M  V30 32847 C 3231.92 1.96093 -3.97571 0
M  V30 32848 H 3229.14 0.151153 -0.653754 0
M  V30 32849 H 3231.69 -0.185401 -2.03658 0
M  V30 32850 H 3229.84 1.9088 -3.3711 0
M  V30 32851 H 3230.25 0.665444 -5.20262 0
M  V30 32852 H 3231.73 2.36224 -4.98901 0
M  V30 32853 H 3232.21 2.83013 -3.35858 0
M  V30 32854 H 3232.81 1.30638 -4.04739 0
M  V30 32855 N 3231.13 1.56679 0.170126 0
M  V30 32856 C 3232.35 1.86558 0.906148 0
M  V30 32857 C 3232.78 0.690075 1.74985 0
M  V30 32858 O 3232.13 -0.360831 1.77673 0
M  V30 32859 C 3232.18 3.1486 1.75772 0
M  V30 32860 O 3231.29 2.97167 2.85947 0
M  V30 32861 H 3230.63 0.613593 0.25377 0
M  V30 32862 H 3233.16 2.0391 0.167907 0
M  V30 32863 H 3233.17 3.46295 2.15741 0
M  V30 32864 H 3231.84 4.00028 1.138 0
M  V30 32865 H 3230.42 2.77089 2.49552 0
M  V30 32866 N 3232.6 -0.43872 1.5137 0
M  V30 32867 C 3233.88 -1.19941 1.5451 0
M  V30 32868 C 3234.26 -2.08833 0.308562 0
M  V30 32869 O 3233.61 -2.17306 -0.706422 0
M  V30 32870 C 3233.82 -2.00246 2.85837 0
M  V30 32871 C 3235.17 -2.57335 3.37734 0
M  V30 32872 O 3236.19 -2.10458 2.87378 0
M  V30 32873 O 3235.05 -3.42828 4.25595 0
M  V30 32874 H 3232.14 -0.545996 0.621142 0
M  V30 32875 H 3234.69 -0.447902 1.63682 0
M  V30 32876 H 3233.46 -1.34948 3.67294 0
M  V30 32877 H 3233.09 -2.82465 2.7982 0
M  V30 32878 N 3234.08 -1.41493 -0.694073 0
M  V30 32879 C 3235.03 -1.43665 -1.82929 0
M  V30 32880 C 3236.02 -0.31452 -1.66455 0
M  V30 32881 O 3237.23 -0.486619 -1.73297 0
M  V30 32882 H 3233.61 -0.449543 -0.602839 0
M  V30 32883 H 3235.58 -2.39337 -1.78214 0
M  V30 32884 C 3234.33 -1.33718 -3.20959 0
M  V30 32885 H 3233.65 -2.19351 -3.34253 0
M  V30 32886 H 3235.09 -1.39298 -4.00465 0
M  V30 32887 C 3233.55 -0.0496924 -3.36863 0
M  V30 32888 O 3234.08 0.905025 -3.91372 0
M  V30 32889 N 3232.28 0.0268788 -2.90588 0
M  V30 32890 H 3231.83 -0.750795 -2.46416 0
M  V30 32891 H 3231.79 0.887728 -3.01607 0
M  V30 32892 N 3235.56 0.928479 -1.27346 0
M  V30 32893 C 3236.49 2.0332 -1.05801 0
M  V30 32894 C 3237.51 1.62794 -0.0143372 0
M  V30 32895 O 3238.69 1.76657 -0.255811 0
M  V30 32896 C 3235.79 3.33852 -0.582732 0
M  V30 32897 C 3234.97 4.03075 -1.69851 0
M  V30 32898 C 3234.03 5.11883 -1.21911 0
M  V30 32899 O 3233.05 5.35889 -1.91862 0
M  V30 32900 N 3234.25 5.80452 -0.0743412 0
M  V30 32901 H 3237.02 2.22366 -2.00932 0
M  V30 32902 H 3234.58 1.09881 -1.18902 0
M  V30 32903 H 3236.57 4.03952 -0.245933 0
M  V30 32904 H 3235.14 3.11385 0.275335 0
M  V30 32905 H 3234.36 3.2672 -2.20563 0
M  V30 32906 H 3235.65 4.46073 -2.44738 0
M  V30 32907 H 3235.05 5.63401 0.509532 0
M  V30 32908 H 3233.61 6.51483 0.203285 0
M  V30 32909 N 3237.04 1.09355 1.13486 0
M  V30 32910 C 3237.97 0.676258 2.1795 0
M  V30 32911 C 3238.95 -0.316878 1.59482 0
M  V30 32912 O 3240.13 -0.218426 1.8723 0
M  V30 32913 C 3237.26 -0.00385071 3.387 0
M  V30 32914 C 3236.31 0.950979 4.15763 0
M  V30 32915 S 3237.14 2.46267 4.75513 0
M  V30 32916 C 3238.3 1.79495 5.9961 0
M  V30 32917 H 3238.53 1.5612 2.5301 0
M  V30 32918 H 3236.06 0.909469 1.24772 0
M  V30 32919 H 3238.02 -0.389948 4.08644 0
M  V30 32920 H 3236.68 -0.865427 3.01942 0
M  V30 32921 H 3235.87 0.422175 5.02229 0
M  V30 32922 H 3235.48 1.27844 3.51471 0
M  V30 32923 H 3237.77 1.11858 6.68202 0
M  V30 32924 H 3238.71 2.63873 6.57097 0
M  V30 32925 H 3239.12 1.26418 5.50162 0
M  V30 32926 N 3238.52 -1.307 0.880644 0
M  V30 32927 C 3239.76 -1.96309 0.49691 0
M  V30 32928 C 3240.09 -1.69551 -0.953034 0
M  V30 32929 O 3239.35 -0.990537 -1.6878 0
M  V30 32930 C 3239.65 -3.5021 0.713264 0
M  V30 32931 C 3239.31 -3.97009 2.13763 0
M  V30 32932 C 3237.97 -4.09499 2.52714 0
M  V30 32933 C 3240.33 -4.21475 3.06607 0
M  V30 32934 C 3237.65 -4.43813 3.83728 0
M  V30 32935 C 3240.01 -4.57257 4.37148 0
M  V30 32936 C 3238.67 -4.67955 4.75999 0
M  V30 32937 H 3237.94 -0.718344 0.181832 0
M  V30 32938 H 3240.59 -1.55644 1.11567 0
M  V30 32939 H 3238.89 -3.91798 0.0114383 0
M  V30 32940 H 3240.59 -3.9904 0.39602 0
M  V30 32941 H 3237.18 -3.87791 1.82526 0
M  V30 32942 H 3241.36 -4.1131 2.77736 0
M  V30 32943 H 3236.62 -4.50294 4.13576 0
M  V30 32944 H 3240.79 -4.7514 5.09132 0
M  V30 32945 H 3238.42 -4.94299 5.77557 0
M  V30 32946 N 3240 -0.641156 -1.43969 0
M  V30 32947 C 3241.24 -0.149886 -2.02245 0
M  V30 32948 C 3241.57 1.22869 -1.50389 0
M  V30 32949 O 3240.85 1.81772 -0.692035 0
M  V30 32950 C 3241.13 -0.147512 -3.59798 0
M  V30 32951 C 3240.99 -1.55914 -4.21913 0
M  V30 32952 C 3242.3 0.52259 -4.36986 0
M  V30 32953 H 3239.42 -0.0559403 -0.734874 0
M  V30 32954 H 3242.07 -0.819543 -1.71416 0
M  V30 32955 H 3240.22 0.422721 -3.86193 0
M  V30 32956 H 3241.89 -2.17903 -4.0659 0
M  V30 32957 H 3240.13 -2.11004 -3.79024 0
M  V30 32958 H 3240.8 -1.50943 -5.30962 0
M  V30 32959 H 3243.28 0.0375494 -4.16083 0
M  V30 32960 H 3242.15 0.493476 -5.46677 0
M  V30 32961 H 3242.41 1.59468 -4.12338 0
M  V30 32962 N 3241.47 1.52892 -0.382318 0
M  V30 32963 C 3242.41 2.23876 0.491159 0
M  V30 32964 C 3243.42 1.25872 1.03247 0
M  V30 32965 O 3244.61 1.51992 0.93599 0
M  V30 32966 C 3241.71 2.93603 1.69265 0
M  V30 32967 C 3240.88 4.18254 1.27993 0
M  V30 32968 C 3239.94 4.71042 2.34533 0
M  V30 32969 O 3238.97 5.34306 1.96229 0
M  V30 32970 N 3240.17 4.50296 3.66352 0
M  V30 32971 H 3242.93 2.99472 -0.116949 0
M  V30 32972 H 3240.49 1.60554 -0.208324 0
M  V30 32973 H 3242.49 3.2582 2.40048 0
M  V30 32974 H 3241.06 2.21357 2.20725 0
M  V30 32975 H 3240.28 3.92152 0.401261 0
M  V30 32976 H 3241.56 4.99259 0.980732 0
M  V30 32977 H 3240.96 3.99782 4.00238 0
M  V30 32978 H 3239.52 4.8702 4.33191 0
M  V30 32979 N 3242.95 0.111941 1.57202 0
M  V30 32980 C 3244.2 -0.547761 1.94951 0
M  V30 32981 C 3244.53 -1.67135 0.994793 0
M  V30 32982 O 3243.78 -1.95692 0.0173872 0
M  V30 32983 C 3244.08 -1.12735 3.39154 0
M  V30 32984 C 3243.75 -0.125837 4.50724 0
M  V30 32985 C 3242.41 0.149573 4.80967 0
M  V30 32986 C 3244.76 0.557079 5.18214 0
M  V30 32987 C 3242.09 1.11431 5.76021 0
M  V30 32988 C 3244.44 1.51039 6.14304 0
M  V30 32989 C 3243.1 1.79386 6.42944 0
M  V30 32990 H 3242.37 -0.20044 0.713376 0
M  V30 32991 H 3245.02 0.191349 1.90542 0
M  V30 32992 H 3243.33 -1.94307 3.40223 0
M  V30 32993 H 3245.02 -1.64577 3.65671 0
M  V30 32994 H 3241.61 -0.350681 4.27163 0
M  V30 32995 H 3245.8 0.357465 4.95011 0
M  V30 32996 H 3241.05 1.34075 5.96518 0
M  V30 32997 H 3245.23 2.04528 6.65689 0
M  V30 32998 H 3242.85 2.54297 7.16406 0
M  V30 32999 N 3244.43 -1.56767 -0.161814 0
M  V30 33000 C 3245.68 -1.8172 -0.875246 0
M  V30 33001 C 3245.99 -0.690771 -1.82996 0
M  V30 33002 O 3247.2 -0.825496 -2.58646 0
M  V30 33003 C 3245.65 -3.22032 -1.60697 0
M  V30 33004 C 3245.26 -4.4257 -0.695408 0
M  V30 33005 C 3247.01 -3.56271 -2.30806 0
M  V30 33006 C 3244.91 -5.73903 -1.42791 0
M  V30 33007 H 3243.84 -0.677668 -0.330579 0
M  V30 33008 H 3246.49 -1.83052 -0.12808 0
M  V30 33009 H 3244.88 -3.15044 -2.39923 0
M  V30 33010 H 3246.05 -4.6076 0.0605692 0
M  V30 33011 H 3244.36 -4.16271 -0.103487 0
M  V30 33012 H 3246.96 -4.51643 -2.86221 0
M  V30 33013 H 3247.3 -2.81609 -3.06598 0
M  V30 33014 H 3247.84 -3.64854 -1.58514 0
M  V30 33015 H 3244.58 -6.5162 -0.712138 0
M  V30 33016 H 3244.1 -5.59674 -2.15697 0
M  V30 33017 H 3245.78 -6.16188 -1.97284 0
M  V30 33018 N 3245.91 0.430686 -1.51601 0
M  V30 33019 C 3247.13 1.20642 -1.68702 0
M  V30 33020 C 3247.56 1.84085 -0.386587 0
M  V30 33021 O 3246.92 1.69096 0.653923 0
M  V30 33022 C 3246.96 2.26125 -2.80891 0
M  V30 33023 O 3246.07 3.31767 -2.44957 0
M  V30 33024 H 3245.41 0.353157 -0.562295 0
M  V30 33025 H 3247.94 0.507772 -1.98199 0
M  V30 33026 H 3247.95 2.70803 -3.05172 0
M  V30 33027 H 3246.62 1.79327 -3.75253 0
M  V30 33028 H 3245.2 2.92519 -2.31273 0
M  V30 33029 N 3247.39 1.4186 0.686559 0
M  V30 33030 C 3248.66 1.32187 1.44173 0
M  V30 33031 C 3249.04 -0.0463249 2.11049 0
M  V30 33032 O 3248.39 -1.06113 2.02367 0
M  V30 33033 C 3248.6 2.48172 2.45381 0
M  V30 33034 C 3249.95 2.89751 3.1037 0
M  V30 33035 O 3250.97 2.47977 2.55706 0
M  V30 33036 O 3249.83 3.62016 4.09398 0
M  V30 33037 H 3246.93 0.520689 0.642504 0
M  V30 33038 H 3249.47 1.53843 0.716276 0
M  V30 33039 H 3248.24 3.39433 1.94681 0
M  V30 33040 H 3247.87 2.28441 3.25424 0
M  V30 33041 N 3248.86 -0.921712 1.27837 0
M  V30 33042 C 3249.81 -2.00945 1.07727 0
M  V30 33043 C 3250.8 -1.609 0.00339504 0
M  V30 33044 O 3251.99 -1.75594 0.222624 0
M  V30 33045 C 3249.12 -3.35388 0.732791 0
M  V30 33046 C 3248.2 -3.81859 1.84511 0
M  V30 33047 N 3248.6 -4.00781 3.08558 0
M  V30 33048 C 3246.89 -4.10948 1.73315 0
M  V30 33049 C 3247.59 -4.39577 3.80982 0
M  V30 33050 N 3246.57 -4.47387 3.08781 0
M  V30 33051 H 3250.37 -2.13614 2.01858 0
M  V30 33052 H 3247.89 -1.10898 1.18639 0
M  V30 33053 H 3249.88 -4.12987 0.569822 0
M  V30 33054 H 3248.54 -3.24078 -0.200828 0
M  V30 33055 H 3249.55 -3.86922 3.44255 0
M  V30 33056 H 3246.23 -4.08318 0.870769 0
M  V30 33057 H 3247.62 -4.62246 4.87625 0
M  V30 33058 N 3250.34 -1.09956 -1.12905 0
M  V30 33059 C 3251.57 -0.861132 -1.88678 0
M  V30 33060 C 3251.99 0.582467 -1.78854 0
M  V30 33061 O 3251.35 1.40978 -1.13995 0
M  V30 33062 C 3251.4 -1.30791 -3.36045 0
M  V30 33063 O 3250.5 -0.4698 -4.09715 0
M  V30 33064 H 3249.84 -0.311421 -0.586441 0
M  V30 33065 H 3252.37 -1.46509 -1.42815 0
M  V30 33066 H 3252.38 -1.29569 -3.8688 0
M  V30 33067 H 3251.06 -2.35921 -3.42512 0
M  V30 33068 H 3249.63 -0.546805 -3.68869 0
M  V30 33069 N 3251.82 1.30231 -0.887563 0
M  V30 33070 C 3252.77 2.30015 -0.345805 0
M  V30 33071 C 3253.76 1.60272 0.548572 0
M  V30 33072 O 3254.97 1.74721 0.432719 0
M  V30 33073 H 3251.34 0.746205 -0.0931754 0
M  V30 33074 H 3253.31 2.73164 -1.201 0
M  V30 33075 C 3252.06 3.45125 0.422374 0
M  V30 33076 H 3251.39 3.98976 -0.256586 0
M  V30 33077 H 3252.83 4.17014 0.766498 0
M  V30 33078 C 3251.28 2.9537 1.62044 0
M  V30 33079 O 3251.81 2.95618 2.7198 0
M  V30 33080 N 3250.02 2.5135 1.45848 0
M  V30 33081 H 3249.57 2.51347 0.564113 0
M  V30 33082 H 3249.53 2.18417 2.26144 0
M  V30 33083 N 3253.3 0.648782 1.43627 0
M  V30 33084 C 3254.21 -0.0462624 2.34554 0
M  V30 33085 C 3255.22 -0.816925 1.53631 0
M  V30 33086 O 3256.4 -0.76518 1.86298 0
M  V30 33087 C 3253.47 -1.00375 3.31852 0
M  V30 33088 C 3252.53 -0.230513 4.28681 0
M  V30 33089 C 3251.76 -1.14239 5.2133 0
M  V30 33090 O 3251.98 -2.38157 5.18302 0
M  V30 33091 O 3250.92 -0.617191 5.98727 0
M  V30 33092 H 3254.74 0.70206 2.95474 0
M  V30 33093 H 3252.33 0.408967 1.43693 0
M  V30 33094 H 3254.21 -1.55414 3.91694 0
M  V30 33095 H 3252.88 -1.73238 2.73442 0
M  V30 33096 H 3251.79 0.363347 3.72331 0
M  V30 33097 H 3253.12 0.458454 4.9006 0
M  V30 33098 N 3254.78 -1.52688 0.390421 0
M  V30 33099 C 3256.02 -2.01195 -0.191032 0
M  V30 33100 C 3256.35 -1.27865 -1.47226 0
M  V30 33101 O 3255.62 -0.399041 -1.91793 0
M  V30 33102 H 3254.2 -0.743367 -0.073583 0
M  V30 33103 H 3256.86 -1.87769 0.522367 0
M  V30 33104 H 3255.95 -3.0952 -0.400455 0
M  V30 33105 N 3256.25 -0.120276 -1.5714 0
M  V30 33106 C 3257.19 0.859949 -2.12456 0
M  V30 33107 C 3258.2 1.22909 -1.06758 0
M  V30 33108 O 3259.39 1.17782 -1.34126 0
M  V30 33109 C 3256.49 2.16143 -2.61028 0
M  V30 33110 C 3255.66 1.96378 -3.90838 0
M  V30 33111 C 3254.72 3.10267 -4.24995 0
M  V30 33112 O 3253.75 2.83125 -4.93791 0
M  V30 33113 N 3254.95 4.36734 -3.82418 0
M  V30 33114 H 3257.71 0.38735 -2.97186 0
M  V30 33115 H 3255.27 0.0641091 -1.61773 0
M  V30 33116 H 3257.27 2.9133 -2.80908 0
M  V30 33117 H 3255.84 2.54747 -1.8117 0
M  V30 33118 H 3255.06 1.05377 -3.79854 0
M  V30 33119 H 3256.34 1.80479 -4.75715 0
M  V30 33120 H 3255.74 4.61661 -3.26934 0
M  V30 33121 H 3254.3 5.08788 -4.07404 0
M  V30 33122 N 3257.73 1.56851 0.153498 0
M  V30 33123 C 3258.98 1.8263 0.865487 0
M  V30 33124 C 3259.3 0.700137 1.81997 0
M  V30 33125 O 3258.57 -0.278709 1.93907 0
M  V30 33126 H 3257.15 0.67375 0.322598 0
M  V30 33127 H 3259.81 1.94329 0.149054 0
M  V30 33128 H 3258.91 2.77326 1.43166 0
M  V30 33129 N 3259.21 -0.42264 1.51827 0
M  V30 33130 C 3260.46 -1.17081 1.65222 0
M  V30 33131 C 3260.79 -1.9084 0.375541 0
M  V30 33132 O 3260.04 -1.84905 -0.640997 0
M  V30 33133 C 3260.34 -2.20114 2.81575 0
M  V30 33134 C 3260.01 -1.63261 4.20306 0
M  V30 33135 C 3258.67 -1.47479 4.58043 0
M  V30 33136 C 3261.02 -1.21609 5.06814 0
M  V30 33137 C 3258.35 -0.885429 5.7998 0
M  V30 33138 C 3260.7 -0.64096 6.29344 0
M  V30 33139 C 3259.36 -0.470169 6.65842 0
M  V30 33140 H 3258.63 -0.428431 0.604589 0
M  V30 33141 H 3261.28 -0.459841 1.85897 0
M  V30 33142 H 3259.59 -2.97305 2.55181 0
M  V30 33143 H 3261.28 -2.77851 2.89137 0
M  V30 33144 H 3257.87 -1.76524 3.9056 0
M  V30 33145 H 3262.06 -1.32616 4.78254 0
M  V30 33146 H 3257.31 -0.740998 6.06893 0
M  V30 33147 H 3261.49 -0.309766 6.95711 0
M  V30 33148 H 3259.11 -0.0113702 7.60199 0
M  V30 33149 N 3260.69 -1.42222 -0.679027 0
M  V30 33150 C 3261.64 -1.45369 -1.79267 0
M  V30 33151 C 3262.61 -0.306118 -1.63255 0
M  V30 33152 O 3263.79 -0.50958 -1.83869 0
M  V30 33153 C 3260.93 -1.35772 -3.1727 0
M  V30 33154 C 3260.04 -2.60531 -3.44598 0
M  V30 33155 C 3259.18 -2.43107 -4.72306 0
M  V30 33156 C 3258.22 -3.6326 -4.92655 0
M  V30 33157 N 3257.35 -3.44804 -6.116 0
M  V30 33158 H 3262.19 -2.40539 -1.75912 0
M  V30 33159 H 3259.73 -1.19427 -0.858815 0
M  V30 33160 H 3261.69 -1.28207 -3.97012 0
M  V30 33161 H 3260.32 -0.441995 -3.1976 0
M  V30 33162 H 3259.37 -2.7848 -2.59139 0
M  V30 33163 H 3260.68 -3.49857 -3.5553 0
M  V30 33164 H 3259.84 -2.33103 -5.60132 0
M  V30 33165 H 3258.58 -1.51263 -4.63649 0
M  V30 33166 H 3257.58 -3.737 -4.03272 0
M  V30 33167 H 3258.81 -4.56079 -5.03159 0
M  V30 33168 H 3256.75 -2.55674 -6.04125 0
M  V30 33169 H 3256.67 -4.27716 -6.23374 0
M  V30 33170 H 3257.94 -3.38604 -7.02116 0
M  V30 33171 N 3262.17 0.91492 -1.28324 0
M  V30 33172 C 3263.42 1.65851 -1.14788 0
M  V30 33173 C 3263.73 1.93237 0.303101 0
M  V30 33174 O 3264.93 2.65671 0.559559 0
M  V30 33175 C 3263.39 2.98772 -2.00657 0
M  V30 33176 C 3263 2.79038 -3.50488 0
M  V30 33177 C 3264.74 3.76644 -1.95804 0
M  V30 33178 C 3262.65 4.07592 -4.28512 0
M  V30 33179 H 3261.58 0.622127 -0.425998 0
M  V30 33180 H 3264.23 1.0154 -1.52846 0
M  V30 33181 H 3262.61 3.64212 -1.55454 0
M  V30 33182 H 3263.79 2.22286 -4.0364 0
M  V30 33183 H 3262.1 2.1458 -3.56853 0
M  V30 33184 H 3264.7 4.71931 -2.51367 0
M  V30 33185 H 3265.04 4.05675 -0.934526 0
M  V30 33186 H 3265.57 3.18022 -2.3897 0
M  V30 33187 H 3262.31 3.83735 -5.31439 0
M  V30 33188 H 3261.83 4.6396 -3.80133 0
M  V30 33189 H 3263.51 4.75859 -4.38369 0
M  V30 33190 N 3263.64 1.10553 1.1232 0
M  V30 33191 C 3264.59 0.755463 2.18086 0
M  V30 33192 C 3265.56 -0.268776 1.63911 0
M  V30 33193 O 3266.75 -0.14778 1.90227 0
M  V30 33194 C 3263.89 0.194773 3.4455 0
M  V30 33195 C 3263 1.27446 4.12773 0
M  V30 33196 C 3262.13 0.675286 5.2689 0
M  V30 33197 C 3261.17 1.73547 5.86982 0
M  V30 33198 N 3260.31 1.15647 6.9251 0
M  V30 33199 H 3265.15 1.66159 2.47376 0
M  V30 33200 H 3262.69 0.829945 1.21451 0
M  V30 33201 H 3264.65 -0.148202 4.16937 0
M  V30 33202 H 3263.28 -0.674583 3.15673 0
M  V30 33203 H 3262.33 1.73454 3.38553 0
M  V30 33204 H 3263.64 2.07695 4.53502 0
M  V30 33205 H 3262.79 0.28183 6.06045 0
M  V30 33206 H 3261.53 -0.158623 4.87442 0
M  V30 33207 H 3260.54 2.13834 5.06513 0
M  V30 33208 H 3261.76 2.57224 6.285 0
M  V30 33209 H 3259.71 0.344043 6.55097 0
M  V30 33210 H 3259.63 1.89578 7.31844 0
M  V30 33211 H 3260.89 0.789599 7.75491 0
M  V30 33212 N 3265.12 -1.29758 0.894457 0
M  V30 33213 C 3266.35 -1.99628 0.532178 0
M  V30 33214 C 3266.76 -1.67162 -0.886205 0
M  V30 33215 O 3266.1 -0.910093 -1.59571 0
M  V30 33216 C 3266.17 -3.53786 0.638397 0
M  V30 33217 C 3265.83 -4.09795 2.0228 0
M  V30 33218 C 3266.83 -4.25082 2.99334 0
M  V30 33219 C 3264.51 -4.4495 2.33076 0
M  V30 33220 C 3266.51 -4.74751 4.25312 0
M  V30 33221 C 3264.19 -4.94316 3.59298 0
M  V30 33222 C 3265.19 -5.0917 4.55231 0
M  V30 33223 O 3264.88 -5.57467 5.79212 0
M  V30 33224 H 3264.61 -0.644694 0.203337 0
M  V30 33225 H 3267.16 -1.66388 1.20433 0
M  V30 33226 H 3265.39 -3.86593 -0.0907658 0
M  V30 33227 H 3267.08 -4.04891 0.286028 0
M  V30 33228 H 3267.85 -3.98215 2.76856 0
M  V30 33229 H 3263.73 -4.3265 1.59169 0
M  V30 33230 H 3267.27 -4.8626 5.00197 0
M  V30 33231 H 3263.17 -5.20619 3.81609 0
M  V30 33232 H 3263.94 -5.75792 5.81727 0
M  V30 33233 N 3266.6 -0.65639 -1.4328 0
M  V30 33234 C 3267.51 0.0338228 -2.34576 0
M  V30 33235 C 3268.53 0.808766 -1.54062 0
M  V30 33236 O 3269.7 0.755289 -1.86701 0
M  V30 33237 C 3266.77 0.986138 -3.3238 0
M  V30 33238 C 3265.83 0.207776 -4.28797 0
M  V30 33239 C 3265.06 1.11473 -5.21929 0
M  V30 33240 O 3265.28 2.35405 -5.19558 0
M  V30 33241 O 3264.22 0.58543 -5.99046 0
M  V30 33242 H 3268.04 -0.71772 -2.95097 0
M  V30 33243 H 3265.63 -0.416582 -1.43475 0
M  V30 33244 H 3267.51 1.53334 -3.92513 0
M  V30 33245 H 3266.19 1.71785 -2.74357 0
M  V30 33246 H 3265.09 -0.383088 -3.72133 0
M  V30 33247 H 3266.43 -0.484436 -4.8981 0
M  V30 33248 N 3268.08 1.52478 -0.398513 0
M  V30 33249 C 3269.04 2.25316 0.420167 0
M  V30 33250 C 3270.04 1.2729 0.982537 0
M  V30 33251 O 3271.23 1.51316 0.863087 0
M  V30 33252 C 3268.36 3.01528 1.59039 0
M  V30 33253 H 3269.56 2.99109 -0.217652 0
M  V30 33254 H 3267.11 1.55571 -0.150811 0
M  V30 33255 H 3267.85 2.32058 2.26538 0
M  V30 33256 H 3267.63 3.73486 1.19375 0
M  V30 33257 H 3269.12 3.56806 2.16977 0
M  V30 33258 N 3269.56 0.128608 1.57074 0
M  V30 33259 C 3270.5 -0.818026 2.15817 0
M  V30 33260 C 3271.47 -1.25694 1.08583 0
M  V30 33261 O 3272.66 -1.33275 1.36538 0
M  V30 33262 C 3269.8 -2.059 2.76946 0
M  V30 33263 C 3268.91 -1.66757 3.98517 0
M  V30 33264 C 3268.05 -2.85894 4.47703 0
M  V30 33265 C 3267.09 -2.43037 5.61782 0
M  V30 33266 N 3266.22 -3.5512 6.05669 0
M  V30 33267 H 3271.06 -0.310266 2.9638 0
M  V30 33268 H 3268.6 -0.141446 1.46418 0
M  V30 33269 H 3270.56 -2.78624 3.10523 0
M  V30 33270 H 3269.19 -2.54118 1.99057 0
M  V30 33271 H 3268.24 -0.8387 3.71039 0
M  V30 33272 H 3269.55 -1.31268 4.81217 0
M  V30 33273 H 3268.71 -3.66831 4.83239 0
M  V30 33274 H 3267.45 -3.24616 3.63972 0
M  V30 33275 H 3266.45 -1.60535 5.25841 0
M  V30 33276 H 3267.68 -2.05422 6.47286 0
M  V30 33277 H 3265.62 -3.93497 5.24877 0
M  V30 33278 H 3265.54 -3.23586 6.83248 0
M  V30 33279 H 3266.81 -4.36468 6.45845 0
M  V30 33280 N 3271.04 -1.5693 -0.145178 0
M  V30 33281 C 3272.26 -1.87976 -0.876353 0
M  V30 33282 C 3272.69 -0.717826 -1.73865 0
M  V30 33283 O 3272.04 0.332519 -1.78225 0
M  V30 33284 C 3272.09 -3.17616 -1.7074 0
M  V30 33285 O 3271.2 -3.01679 -2.81183 0
M  V30 33286 H 3270.54 -0.617553 -0.243976 0
M  V30 33287 H 3273.07 -2.04151 -0.135446 0
M  V30 33288 H 3273.08 -3.49683 -2.10204 0
M  V30 33289 H 3271.75 -4.01788 -1.07422 0
M  V30 33290 H 3270.33 -2.81024 -2.45112 0
M  V30 33291 N 3272.51 0.414582 -1.52049 0
M  V30 33292 C 3273.44 1.51172 -1.77958 0
M  V30 33293 C 3274.42 1.57991 -0.63031 0
M  V30 33294 O 3275.61 1.73353 -0.875354 0
M  V30 33295 C 3272.74 2.89048 -1.92532 0
M  V30 33296 C 3271.69 2.97082 -3.08101 0
M  V30 33297 C 3271.02 4.37159 -3.0789 0
M  V30 33298 C 3272.32 2.69067 -4.47661 0
M  V30 33299 H 3274.01 1.29741 -2.69829 0
M  V30 33300 H 3271.56 0.622707 -1.2984 0
M  V30 33301 H 3273.51 3.65782 -2.0924 0
M  V30 33302 H 3272.24 3.11761 -0.97329 0
M  V30 33303 H 3270.9 2.22792 -2.91135 0
M  V30 33304 H 3270.54 4.56873 -2.10419 0
M  V30 33305 H 3270.24 4.4346 -3.85509 0
M  V30 33306 H 3271.77 5.15835 -3.26721 0
M  V30 33307 H 3273.18 3.35526 -4.64861 0
M  V30 33308 H 3271.58 2.86751 -5.27156 0
M  V30 33309 H 3272.65 1.64536 -4.56132 0
M  V30 33310 N 3273.99 1.4258 0.671475 0
M  V30 33311 C 3274.95 1.46011 1.76673 0
M  V30 33312 C 3275.95 0.347241 1.57006 0
M  V30 33313 O 3277.14 0.608213 1.63237 0
M  V30 33314 C 3274.28 1.29499 3.15346 0
M  V30 33315 H 3275.47 2.43534 1.75017 0
M  V30 33316 H 3273.02 1.29076 0.881421 0
M  V30 33317 H 3273.76 0.329117 3.22626 0
M  V30 33318 H 3273.54 2.10155 3.31025 0
M  V30 33319 H 3275.03 1.34791 3.95248 0
M  V30 33320 N 3275.47 -0.908102 1.28807 0
M  V30 33321 C 3276.71 -1.67217 1.17549 0
M  V30 33322 C 3277.07 -1.90087 -0.270363 0
M  V30 33323 O 3278.27 -2.63999 -0.505761 0
M  V30 33324 C 3276.55 -2.99007 1.95779 0
M  V30 33325 S 3278.1 -3.90078 2.0096 0
M  V30 33326 H 3274.92 -0.574207 0.419293 0
M  V30 33327 H 3277.52 -1.07968 1.62982 0
M  V30 33328 H 3276.23 -2.80069 2.99983 0
M  V30 33329 H 3275.76 -3.63301 1.50917 0
M  V30 33330 H 3277.77 -4.8339 1.12019 0
M  V30 33331 N 3276.95 -1.11147 -1.11732 0
M  V30 33332 C 3278.2 -0.856749 -1.83042 0
M  V30 33333 C 3278.52 0.619375 -1.84902 0
M  V30 33334 O 3277.79 1.44987 -1.31741 0
M  V30 33335 H 3276.37 -0.313962 -0.677818 0
M  V30 33336 H 3279.03 -1.40324 -1.3526 0
M  V30 33337 H 3278.12 -1.22621 -2.87003 0
M  V30 33338 N 3278.43 1.29282 -0.901326 0
M  V30 33339 C 3279.67 1.95107 -0.527035 0
M  V30 33340 C 3279.99 1.71392 0.930034 0
M  V30 33341 O 3279.26 1.0466 1.65599 0
M  V30 33342 H 3277.84 0.721926 -0.191916 0
M  V30 33343 H 3280.51 1.57504 -1.14797 0
M  V30 33344 H 3279.6 3.03893 -0.710999 0
M  V30 33345 N 3279.9 0.663979 1.4293 0
M  V30 33346 C 3280.85 -0.0328291 2.32577 0
M  V30 33347 C 3281.85 -0.801891 1.49218 0
M  V30 33348 O 3283.05 -0.711077 1.65359 0
M  V30 33349 H 3279.43 -0.0294066 0.751425 0
M  V30 33350 H 3281.4 0.740813 2.89058 0
M  V30 33351 C 3280.15 -0.977966 3.33663 0
M  V30 33352 H 3279.47 -0.395611 3.97838 0
M  V30 33353 H 3280.91 -1.43441 3.99 0
M  V30 33354 C 3279.37 -2.07918 2.65088 0
M  V30 33355 O 3279.9 -3.16431 2.47456 0
M  V30 33356 N 3278.1 -1.84779 2.24288 0
M  V30 33357 H 3277.65 -0.965326 2.38829 0
M  V30 33358 H 3277.61 -2.58652 1.78737 0
M  V30 33359 N 3281.38 -1.52265 0.406593 0
M  V30 33360 C 3282.63 -2.02084 -0.170269 0
M  V30 33361 C 3282.96 -1.29178 -1.45005 0
M  V30 33362 O 3282.24 -0.397344 -1.90398 0
M  V30 33363 C 3282.52 -3.57636 -0.420564 0
M  V30 33364 C 3282.37 -4.41193 0.875718 0
M  V30 33365 C 3283.69 -4.23316 -1.20379 0
M  V30 33366 H 3280.81 -0.73452 -0.060409 0
M  V30 33367 H 3283.45 -1.82178 0.539561 0
M  V30 33368 H 3281.6 -3.74728 -1.02523 0
M  V30 33369 H 3283.27 -4.35817 1.512 0
M  V30 33370 H 3281.52 -4.07509 1.48725 0
M  V30 33371 H 3282.19 -5.481 0.655012 0
M  V30 33372 H 3284.66 -4.10307 -0.6919 0
M  V30 33373 H 3283.54 -5.32099 -1.34767 0
M  V30 33374 H 3283.8 -3.82103 -2.22373 0
M  V30 33375 N 3282.86 -0.136936 -1.57004 0
M  V30 33376 C 3284.09 0.523142 -1.99867 0
M  V30 33377 C 3284.5 1.59614 -1.01587 0
M  V30 33378 O 3283.84 1.837 -0.00329655 0
M  V30 33379 C 3283.9 1.19211 -3.39159 0
M  V30 33380 C 3283.57 0.26492 -4.56231 0
M  V30 33381 C 3284.56 -0.503503 -5.17456 0
M  V30 33382 C 3282.25 0.170758 -5.0201 0
M  V30 33383 C 3284.24 -1.35364 -6.22861 0
M  V30 33384 C 3281.93 -0.682991 -6.07271 0
M  V30 33385 C 3282.93 -1.4438 -6.67565 0
M  V30 33386 O 3282.62 -2.28334 -7.70791 0
M  V30 33387 H 3282.35 0.141581 -0.661007 0
M  V30 33388 H 3284.9 -0.225481 -2.04159 0
M  V30 33389 H 3283.13 1.98817 -3.31676 0
M  V30 33390 H 3284.82 1.7509 -3.66194 0
M  V30 33391 H 3285.59 -0.440732 -4.82993 0
M  V30 33392 H 3281.47 0.752664 -4.54814 0
M  V30 33393 H 3285.01 -1.94795 -6.69851 0
M  V30 33394 H 3280.91 -0.74709 -6.41162 0
M  V30 33395 H 3281.68 -2.21472 -7.87967 0
M  V30 33396 N 3284.34 1.57005 0.136853 0
M  V30 33397 C 3285.59 1.8309 0.846225 0
M  V30 33398 C 3285.9 0.719797 1.81874 0
M  V30 33399 O 3287.11 0.86654 2.573 0
M  V30 33400 C 3285.56 3.24548 1.55553 0
M  V30 33401 C 3285.17 4.4362 0.624911 0
M  V30 33402 C 3286.91 3.59897 2.25109 0
M  V30 33403 C 3284.82 5.76102 1.33643 0
M  V30 33404 H 3283.75 0.682841 0.319756 0
M  V30 33405 H 3286.4 1.83233 0.0989419 0
M  V30 33406 H 3284.78 3.18821 2.34881 0
M  V30 33407 H 3285.96 4.60606 -0.133864 0
M  V30 33408 H 3284.27 4.16383 0.0372484 0
M  V30 33409 H 3286.87 4.56139 2.79 0
M  V30 33410 H 3287.21 2.86451 3.02079 0
M  V30 33411 H 3287.75 3.67329 1.52689 0
M  V30 33412 H 3284.49 6.52671 0.608381 0
M  V30 33413 H 3284.01 5.63035 2.06766 0
M  V30 33414 H 3285.68 6.19249 1.87456 0
M  V30 33415 N 3285.82 -0.406513 1.52267 0
M  V30 33416 C 3286.77 -1.49462 1.72178 0
M  V30 33417 C 3287.75 -1.50248 0.575695 0
M  V30 33418 O 3288.94 -1.56181 0.832863 0
M  V30 33419 C 3286.07 -2.87363 1.87823 0
M  V30 33420 C 3285.16 -2.91214 3.0831 0
M  V30 33421 N 3285.55 -2.64759 4.30972 0
M  V30 33422 C 3283.85 -3.22382 3.08197 0
M  V30 33423 C 3284.55 -2.75245 5.1246 0
M  V30 33424 N 3283.52 -3.08235 4.47764 0
M  V30 33425 H 3287.33 -1.27807 2.64656 0
M  V30 33426 H 3284.84 -0.614254 1.50335 0
M  V30 33427 H 3286.84 -3.65683 2.00204 0
M  V30 33428 H 3285.5 -3.10014 0.965468 0
M  V30 33429 H 3286.51 -2.39105 4.59401 0
M  V30 33430 H 3283.18 -3.50611 2.26668 0
M  V30 33431 H 3284.57 -2.58484 6.2019 0
M  V30 33432 N 3287.29 -1.42934 -0.663904 0
M  V30 33433 C 3288.57 -1.34464 -1.42052 0
M  V30 33434 C 3288.95 0.012743 -2.11096 0
M  V30 33435 O 3288.3 1.0288 -2.04029 0
M  V30 33436 C 3288.51 -2.52044 -2.41401 0
M  V30 33437 C 3289.86 -2.94652 -3.05721 0
M  V30 33438 O 3290.88 -2.52014 -2.51729 0
M  V30 33439 O 3289.74 -3.68484 -4.03587 0
M  V30 33440 H 3286.83 -0.530845 -0.634139 0
M  V30 33441 H 3289.38 -1.54963 -0.69171 0
M  V30 33442 H 3288.15 -3.42487 -1.89257 0
M  V30 33443 H 3287.78 -2.33589 -3.21748 0
M  V30 33444 N 3288.77 0.901258 -1.29287 0
M  V30 33445 C 3289.74 1.98674 -1.14286 0
M  V30 33446 C 3290.74 1.60607 -0.0787923 0
M  V30 33447 O 3291.93 1.7113 -0.325604 0
M  V30 33448 C 3289.06 3.32607 -0.747337 0
M  V30 33449 H 3290.25 2.1341 -2.10704 0
M  V30 33450 H 3287.8 1.08556 -1.12451 0
M  V30 33451 H 3288.54 3.23573 0.217054 0
M  V30 33452 H 3288.32 3.61601 -1.51614 0
M  V30 33453 H 3289.81 4.12265 -0.665395 0
M  V30 33454 N 3290.25 1.11738 1.11141 0
M  V30 33455 C 3291.53 0.779816 1.79383 0
M  V30 33456 C 3291.91 -0.731633 1.98016 0
M  V30 33457 O 3291.26 -1.66273 1.56734 0
M  V30 33458 C 3291.47 1.54649 3.12865 0
M  V30 33459 C 3292.81 1.72777 3.87857 0
M  V30 33460 O 3293.84 1.51099 3.22564 0
M  V30 33461 O 3292.7 2.08822 5.0503 0
M  V30 33462 H 3289.79 0.282859 0.777123 0
M  V30 33463 H 3292.34 1.22098 1.17856 0
M  V30 33464 H 3291.11 2.57451 2.94677 0
M  V30 33465 H 3290.73 1.09908 3.82107 0
M  V30 33466 N 3291.73 -1.28802 0.90817 0
M  V30 33467 C 3292.95 -1.99879 0.553466 0
M  V30 33468 C 3293.38 -1.67459 -0.856685 0
M  V30 33469 O 3292.74 -0.903877 -1.57162 0
M  V30 33470 C 3292.78 -3.52441 0.76275 0
M  V30 33471 O 3291.89 -4.12003 -0.180852 0
M  V30 33472 H 3291.23 -0.628144 0.215248 0
M  V30 33473 H 3293.76 -1.64093 1.22208 0
M  V30 33474 H 3293.77 -4.0245 0.670683 0
M  V30 33475 H 3292.44 -3.75372 1.79077 0
M  V30 33476 H 3291.02 -3.72878 -0.0405241 0
M  V30 33477 N 3293.21 -0.67155 -1.42576 0
M  V30 33478 C 3294.17 -0.000432769 -2.292 0
M  V30 33479 C 3295.17 0.732268 -1.43159 0
M  V30 33480 O 3296.36 0.57076 -1.64584 0
M  V30 33481 C 3293.49 1.01007 -3.25592 0
M  V30 33482 H 3294.68 -0.762834 -2.90036 0
M  V30 33483 H 3292.24 -0.433729 -1.50162 0
M  V30 33484 H 3292.97 1.80107 -2.69688 0
M  V30 33485 H 3292.76 0.488115 -3.8905 0
M  V30 33486 H 3294.25 1.47817 -3.90563 0
M  V30 33487 N 3294.68 1.52047 -0.414663 0
M  V30 33488 C 3295.93 2.01474 0.158999 0
M  V30 33489 C 3296.25 1.30191 1.45173 0
M  V30 33490 O 3295.52 0.429503 1.91134 0
M  V30 33491 H 3294.1 0.744444 0.0617473 0
M  V30 33492 H 3296.77 1.86915 -0.552174 0
M  V30 33493 H 3295.86 3.10118 0.351163 0
M  V30 33494 N 3296.16 0.145261 1.56929 0
M  V30 33495 C 3297.39 -0.512535 2.00142 0
M  V30 33496 C 3297.8 -1.59073 1.02432 0
M  V30 33497 O 3297.14 -1.83695 0.0130385 0
M  V30 33498 C 3297.21 -1.17411 3.39787 0
M  V30 33499 C 3296.87 -0.240721 4.56366 0
M  V30 33500 C 3297.87 0.530938 5.17182 0
M  V30 33501 C 3295.55 -0.144133 5.02093 0
M  V30 33502 C 3297.55 1.38665 6.22134 0
M  V30 33503 C 3295.23 0.715187 6.06901 0
M  V30 33504 C 3296.23 1.47918 6.6679 0
M  V30 33505 O 3295.92 2.32419 7.69569 0
M  V30 33506 H 3295.65 -0.138074 0.661749 0
M  V30 33507 H 3298.2 0.236305 2.04036 0
M  V30 33508 H 3296.43 -1.97055 3.32725 0
M  V30 33509 H 3298.12 -1.73145 3.67118 0
M  V30 33510 H 3298.89 0.466341 4.82753 0
M  V30 33511 H 3294.77 -0.728533 4.55207 0
M  V30 33512 H 3298.31 1.98345 6.68809 0
M  V30 33513 H 3294.21 0.781082 6.40757 0
M  V30 33514 H 3294.98 2.25648 7.86782 0
M  V30 33515 N 3297.64 -1.57075 -0.128525 0
M  V30 33516 C 3298.89 -1.84621 -0.83922 0
M  V30 33517 C 3299.22 -0.729613 -1.79973 0
M  V30 33518 O 3298.5 0.265335 -1.92682 0
M  V30 33519 C 3298.78 -3.22726 -1.5975 0
M  V30 33520 C 3298.63 -4.44972 -0.657235 0
M  V30 33521 C 3299.95 -3.58279 -2.55585 0
M  V30 33522 H 3297.07 -0.671544 -0.30364 0
M  V30 33523 H 3299.71 -1.89716 -0.103769 0
M  V30 33524 H 3297.86 -3.18513 -2.22445 0
M  V30 33525 H 3299.53 -4.61283 -0.039866 0
M  V30 33526 H 3297.78 -4.33788 0.0319178 0
M  V30 33527 H 3298.45 -5.38253 -1.22424 0
M  V30 33528 H 3300.92 -3.63222 -2.03001 0
M  V30 33529 H 3299.8 -4.55907 -3.05679 0
M  V30 33530 H 3300.06 -2.85199 -3.37808 0
M  V30 33531 N 3299.12 0.398432 -1.5248 0
M  V30 33532 C 3300.35 1.16583 -1.70927 0
M  V30 33533 C 3300.76 1.8399 -0.423452 0
M  V30 33534 O 3300.12 1.72307 0.601364 0
M  V30 33535 C 3300.17 2.22094 -2.8523 0
M  V30 33536 O 3299.89 1.57437 -4.08834 0
M  V30 33537 C 3301.39 3.11633 -3.15277 0
M  V30 33538 H 3298.61 0.349914 -0.572539 0
M  V30 33539 H 3301.16 0.467381 -1.99087 0
M  V30 33540 H 3299.31 2.8759 -2.59558 0
M  V30 33541 H 3299.73 2.27471 -4.72607 0
M  V30 33542 H 3301.2 3.81717 -3.98743 0
M  V30 33543 H 3301.68 3.7461 -2.29269 0
M  V30 33544 H 3302.28 2.51794 -3.42753 0
M  V30 33545 N 3300.6 1.43284 0.656314 0
M  V30 33546 C 3301.82 1.48384 1.44903 0
M  V30 33547 C 3302.25 0.102026 1.87823 0
M  V30 33548 O 3301.61 -0.903569 1.57179 0
M  V30 33549 C 3301.65 2.43219 2.66227 0
M  V30 33550 O 3300.76 1.91632 3.65173 0
M  V30 33551 H 3300.1 0.502022 0.434592 0
M  V30 33552 H 3302.63 1.88167 0.803396 0
M  V30 33553 H 3302.64 2.6042 3.14079 0
M  V30 33554 H 3301.31 3.43602 2.3433 0
M  V30 33555 H 3299.89 1.84077 3.24299 0
M  V30 33556 N 3302.08 -0.894389 1.29763 0
M  V30 33557 C 3303.49 -1.4607 1.16278 0
M  V30 33558 C 3303.84 -1.94725 -0.240089 0
M  V30 33559 O 3302.96 -1.84183 -1.13603 0
M  V30 33560 C 3303.56 -2.65491 2.10476 0
M  V30 33561 C 3302.12 -3.18241 2.00997 0
M  V30 33562 C 3301.26 -1.90932 2.01098 0
M  V30 33563 H 3304.21 -0.705219 1.4217 0
M  V30 33564 H 3304.24 -3.41399 1.68009 0
M  V30 33565 H 3303.75 -2.30048 3.1257 0
M  V30 33566 H 3301.85 -3.58364 1.02011 0
M  V30 33567 H 3301.96 -3.82179 2.88923 0
M  V30 33568 H 3300.33 -2.08863 1.45768 0
M  V30 33569 H 3301.11 -1.57759 3.04905 0
M  V30 33570 N 3303.55 -1.12326 -1.10547 0
M  V30 33571 C 3304.5 -0.785287 -2.18943 0
M  V30 33572 C 3305.5 0.227359 -1.67867 0
M  V30 33573 O 3306.7 0.0856846 -1.79796 0
M  V30 33574 H 3303.08 -0.236111 -0.713972 0
M  V30 33575 H 3305.05 -1.70792 -2.44689 0
M  V30 33576 C 3303.8 -0.254911 -3.46764 0
M  V30 33577 H 3303.12 -1.02541 -3.86426 0
M  V30 33578 H 3304.56 -0.0567271 -4.23962 0
M  V30 33579 C 3303.02 1.01689 -3.21187 0
M  V30 33580 O 3303.55 2.09491 -3.42748 0
M  V30 33581 N 3301.75 0.943375 -2.74861 0
M  V30 33582 H 3301.3 0.0659914 -2.57515 0
M  V30 33583 H 3301.26 1.79496 -2.58125 0
M  V30 33584 N 3305.03 1.28319 -0.914988 0
M  V30 33585 C 3305.98 2.24887 -0.375475 0
M  V30 33586 C 3306.97 1.52499 0.513103 0
M  V30 33587 O 3308.16 1.73452 0.352623 0
M  V30 33588 C 3305.29 3.41166 0.382206 0
M  V30 33589 C 3304.37 4.20873 -0.522163 0
M  V30 33590 N 3304.76 4.78601 -1.63631 0
M  V30 33591 C 3303.06 4.4483 -0.322781 0
M  V30 33592 C 3303.76 5.38585 -2.19775 0
M  V30 33593 N 3302.74 5.22813 -1.48887 0
M  V30 33594 H 3306.54 2.67092 -1.22635 0
M  V30 33595 H 3304.05 1.43104 -0.767784 0
M  V30 33596 H 3306.05 4.09432 0.785569 0
M  V30 33597 H 3304.71 3.00495 1.23016 0
M  V30 33598 H 3305.72 4.7693 -2.01888 0
M  V30 33599 H 3302.4 4.14667 0.485554 0
M  V30 33600 H 3303.79 5.94277 -3.13504 0
M  V30 33601 N 3306.51 0.679102 1.42218 0
M  V30 33602 C 3307.92 0.279909 1.8459 0
M  V30 33603 C 3308.27 -1.17878 1.56841 0
M  V30 33604 O 3307.4 -1.90293 1.03042 0
M  V30 33605 C 3307.99 0.501244 3.35072 0
M  V30 33606 C 3306.55 0.156131 3.76076 0
M  V30 33607 C 3305.7 0.791596 2.65761 0
M  V30 33608 H 3308.65 0.880955 1.32003 0
M  V30 33609 H 3308.67 -0.245282 3.79709 0
M  V30 33610 H 3308.18 1.56298 3.55236 0
M  V30 33611 H 3306.28 -0.901986 3.61518 0
M  V30 33612 H 3306.4 0.599656 4.75332 0
M  V30 33613 H 3304.76 0.222558 2.53726 0
M  V30 33614 H 3305.54 1.85687 2.88748 0
M  V30 33615 N 3307.99 -1.51825 0.42272 0
M  V30 33616 C 3308.94 -2.24216 -0.413686 0
M  V30 33617 C 3309.92 -1.25872 -1.00226 0
M  V30 33618 O 3311.11 -1.5104 -0.922819 0
M  V30 33619 C 3308.24 -3.07698 -1.52239 0
M  V30 33620 C 3307.33 -4.13462 -0.943927 0
M  V30 33621 N 3307.72 -5.05714 -0.0933228 0
M  V30 33622 C 3306.02 -4.29187 -1.21304 0
M  V30 33623 C 3306.72 -5.81245 0.229993 0
M  V30 33624 N 3305.69 -5.42251 -0.382658 0
M  V30 33625 H 3309.5 -2.92899 0.242334 0
M  V30 33626 H 3307.01 -1.60706 0.23393 0
M  V30 33627 H 3309.01 -3.58124 -2.13431 0
M  V30 33628 H 3307.67 -2.40556 -2.18089 0
M  V30 33629 H 3308.68 -5.17185 0.272023 0
M  V30 33630 H 3305.36 -3.73273 -1.87012 0
M  V30 33631 H 3306.75 -6.65554 0.921276 0
M  V30 33632 N 3309.47 -0.153581 -1.5685 0
M  V30 33633 C 3310.41 0.800628 -2.18387 0
M  V30 33634 C 3311.41 1.25051 -1.14275 0
M  V30 33635 O 3312.61 1.21822 -1.32511 0
M  V30 33636 H 3308.99 0.276413 -0.699357 0
M  V30 33637 H 3310.96 0.257483 -2.97287 0
M  V30 33638 C 3309.71 2.02703 -2.82501 0
M  V30 33639 H 3309.03 1.68986 -3.62331 0
M  V30 33640 H 3310.47 2.67397 -3.29051 0
M  V30 33641 C 3308.93 2.83927 -1.81348 0
M  V30 33642 O 3309.46 3.80491 -1.288 0
M  V30 33643 N 3307.67 2.4859 -1.50503 0
M  V30 33644 H 3307.21 1.70128 -1.93428 0
M  V30 33645 H 3307.17 3.03226 -0.830726 0
M  V30 33646 N 3310.94 1.57141 0.120193 0
M  V30 33647 C 3312.17 1.887 0.841186 0
M  V30 33648 C 3312.58 0.7428 1.74009 0
M  V30 33649 O 3311.92 -0.295465 1.81308 0
M  V30 33650 C 3311.99 3.1526 1.72776 0
M  V30 33651 C 3311.65 4.45851 1.00328 0
M  V30 33652 C 3312.65 5.18756 0.344643 0
M  V30 33653 C 3310.33 4.92551 0.984812 0
M  V30 33654 C 3312.33 6.36582 -0.322776 0
M  V30 33655 C 3310.01 6.10295 0.313594 0
M  V30 33656 C 3311.01 6.82158 -0.339046 0
M  V30 33657 O 3310.7 7.97662 -0.999557 0
M  V30 33658 H 3310.43 0.629187 0.247184 0
M  V30 33659 H 3312.99 2.05108 0.109506 0
M  V30 33660 H 3311.22 2.94931 2.50105 0
M  V30 33661 H 3312.9 3.32849 2.32307 0
M  V30 33662 H 3313.67 4.83732 0.350538 0
M  V30 33663 H 3309.55 4.36521 1.48223 0
M  V30 33664 H 3313.09 6.92612 -0.832765 0
M  V30 33665 H 3308.99 6.44777 0.305459 0
M  V30 33666 H 3309.76 8.13493 -0.903913 0
M  V30 33667 N 3312.42 -0.39034 1.5269 0
M  V30 33668 C 3313.83 -0.968338 1.59625 0
M  V30 33669 C 3314.18 -1.9101 0.448273 0
M  V30 33670 O 3313.31 -2.12108 -0.428831 0
M  V30 33671 C 3313.9 -1.76301 2.89315 0
M  V30 33672 C 3312.46 -2.29073 2.98668 0
M  V30 33673 C 3311.61 -1.09588 2.54727 0
M  V30 33674 H 3314.56 -0.169931 1.57788 0
M  V30 33675 H 3314.58 -2.62213 2.75726 0
M  V30 33676 H 3314.09 -1.07732 3.72848 0
M  V30 33677 H 3312.2 -3.00958 2.1967 0
M  V30 33678 H 3312.31 -2.58652 4.03282 0
M  V30 33679 H 3310.67 -1.45551 2.09015 0
M  V30 33680 H 3311.46 -0.425565 3.40652 0
M  V30 33681 N 3313.9 -1.4363 -0.648706 0
M  V30 33682 C 3315.31 -1.40457 -1.22998 0
M  V30 33683 C 3315.66 -0.110931 -1.95886 0
M  V30 33684 O 3314.79 0.789451 -2.01486 0
M  V30 33685 C 3315.38 -2.54438 -2.23712 0
M  V30 33686 C 3313.94 -2.54515 -2.77306 0
M  V30 33687 C 3313.09 -2.31917 -1.5202 0
M  V30 33688 H 3316.04 -1.52466 -0.440446 0
M  V30 33689 H 3316.06 -2.26185 -3.05975 0
M  V30 33690 H 3315.57 -3.48577 -1.70634 0
M  V30 33691 H 3313.67 -1.64269 -3.34435 0
M  V30 33692 H 3313.79 -3.52432 -3.24544 0
M  V30 33693 H 3312.15 -1.8067 -1.79528 0
M  V30 33694 H 3312.93 -3.28146 -1.0087 0
M  V30 33695 N 3315.38 0.887495 -1.30236 0
M  V30 33696 C 3316.33 1.98018 -1.13017 0
M  V30 33697 C 3317.31 1.60834 -0.0460535 0
M  V30 33698 O 3318.5 1.74942 -0.269101 0
M  V30 33699 C 3315.63 3.33327 -0.821455 0
M  V30 33700 C 3314.72 3.76833 -1.9457 0
M  V30 33701 N 3315.11 3.9246 -3.19075 0
M  V30 33702 C 3313.41 4.06208 -1.8415 0
M  V30 33703 C 3314.11 4.29321 -3.92502 0
M  V30 33704 N 3313.09 4.39043 -3.20534 0
M  V30 33705 H 3316.89 2.08187 -2.0745 0
M  V30 33706 H 3314.4 1.07714 -1.21538 0
M  V30 33707 H 3316.4 4.11331 -0.679118 0
M  V30 33708 H 3315.06 3.24497 0.114834 0
M  V30 33709 H 3316.07 3.77659 -3.54393 0
M  V30 33710 H 3312.75 4.05866 -0.978722 0
M  V30 33711 H 3314.14 4.49155 -4.99709 0
M  V30 33712 N 3316.86 1.12911 1.0995 0
M  V30 33713 C 3317.82 0.804586 2.14614 0
M  V30 33714 C 3318.82 -0.183422 1.5975 0
M  V30 33715 O 3320.01 0.0429929 1.74147 0
M  V30 33716 C 3317.14 0.196531 3.40333 0
M  V30 33717 H 3318.33 1.73197 2.44832 0
M  V30 33718 H 3315.89 0.933019 1.25397 0
M  V30 33719 H 3316.62 -0.740333 3.15737 0
M  V30 33720 H 3316.41 0.907953 3.81443 0
M  V30 33721 H 3317.9 -0.013853 4.17598 0
M  V30 33722 N 3318.33 -1.27832 0.92178 0
M  V30 33723 C 3319.61 -1.89676 0.477739 0
M  V30 33724 C 3319.99 -1.83483 -1.04389 0
M  V30 33725 O 3319.34 -1.27609 -1.89547 0
M  V30 33726 C 3319.55 -3.33849 1.01715 0
M  V30 33727 C 3320.9 -4.10791 1.07407 0
M  V30 33728 O 3321.92 -3.42841 0.966355 0
M  V30 33729 O 3320.78 -5.32265 1.23919 0
M  V30 33730 H 3317.87 -0.812776 0.152724 0
M  V30 33731 H 3320.42 -1.36142 1.01309 0
M  V30 33732 H 3319.19 -3.3262 2.06106 0
M  V30 33733 H 3318.82 -3.94894 0.463101 0
M  V30 33734 N 3319.81 -0.686634 -1.41856 0
M  V30 33735 C 3321.05 -0.217875 -2.03235 0
M  V30 33736 C 3321.42 1.15768 -1.53172 0
M  V30 33737 O 3322.62 1.72178 -2.06418 0
M  V30 33738 C 3320.89 -0.263505 -3.56427 0
M  V30 33739 S 3322.45 0.132518 -4.386 0
M  V30 33740 H 3319.27 -0.0884994 -0.705471 0
M  V30 33741 H 3321.87 -0.902423 -1.73426 0
M  V30 33742 H 3320.57 -1.26679 -3.9036 0
M  V30 33743 H 3320.1 0.440487 -3.90926 0
M  V30 33744 H 3322.12 1.36271 -4.77121 0
M  V30 33745 N 3321.29 1.51599 -0.430766 0
M  V30 33746 C 3322.54 2.01218 0.139361 0
M  V30 33747 C 3322.85 1.31984 1.44359 0
M  V30 33748 O 3324.06 1.72537 2.09627 0
M  V30 33749 C 3322.51 3.58657 0.298906 0
M  V30 33750 C 3322.12 4.36822 -0.994501 0
M  V30 33751 C 3323.87 4.16443 0.823157 0
M  V30 33752 C 3321.77 5.85951 -0.800958 0
M  V30 33753 H 3320.7 0.751928 0.0558566 0
M  V30 33754 H 3323.35 1.74762 -0.559523 0
M  V30 33755 H 3321.74 3.81532 1.06064 0
M  V30 33756 H 3322.91 4.25697 -1.76405 0
M  V30 33757 H 3321.23 3.90457 -1.44679 0
M  V30 33758 H 3323.82 5.25561 0.984342 0
M  V30 33759 H 3324.17 3.75191 1.80382 0
M  V30 33760 H 3324.7 3.97619 0.119912 0
M  V30 33761 H 3321.44 6.31603 -1.7538 0
M  V30 33762 H 3320.96 5.99758 -0.0710847 0
M  V30 33763 H 3322.64 6.45422 -0.451573 0
M  V30 33764 N 3322.77 0.161897 1.56766 0
M  V30 33765 C 3324.01 -0.479717 1.97662 0
M  V30 33766 C 3324.37 -1.61492 1.04586 0
M  V30 33767 O 3323.66 -1.91417 0.0837108 0
M  V30 33768 C 3323.86 -1.01888 3.42569 0
M  V30 33769 C 3323.69 0.0625423 4.49657 0
M  V30 33770 C 3322.46 0.509023 5.0273 0
M  V30 33771 C 3324.65 0.859499 5.07067 0
M  V30 33772 N 3322.64 1.57174 5.93439 0
M  V30 33773 C 3324.01 1.77236 5.94128 0
M  V30 33774 C 3326.06 0.905629 4.89594 0
M  V30 33775 C 3324.76 2.72743 6.65585 0
M  V30 33776 C 3326.79 1.8486 5.61766 0
M  V30 33777 C 3326.15 2.74895 6.48546 0
M  V30 33778 H 3322.25 -0.143917 0.768643 0
M  V30 33779 H 3324.84 0.25994 1.92957 0
M  V30 33780 H 3323.01 -1.72809 3.47838 0
M  V30 33781 H 3324.74 -1.62835 3.70496 0
M  V30 33782 H 3321.49 0.108483 4.73476 0
M  V30 33783 H 3321.92 2.1033 6.43498 0
M  V30 33784 H 3326.56 0.223591 4.22208 0
M  V30 33785 H 3324.28 3.41939 7.32191 0
M  V30 33786 H 3327.86 1.89028 5.50236 0
M  V30 33787 H 3326.74 3.46673 7.03411 0
M  V30 33788 N 3324.25 -1.57203 -0.111858 0
M  V30 33789 C 3325.5 -1.84413 -0.81699 0
M  V30 33790 C 3325.81 -0.74864 -1.80706 0
M  V30 33791 O 3327.01 -0.907364 -2.55889 0
M  V30 33792 C 3325.47 -3.26981 -1.50371 0
M  V30 33793 C 3325.08 -4.44558 -0.554256 0
M  V30 33794 C 3326.82 -3.63433 -2.19355 0
M  V30 33795 C 3324.73 -5.78155 -1.2446 0
M  V30 33796 H 3323.66 -0.687842 -0.308852 0
M  V30 33797 H 3326.31 -1.83367 -0.0697786 0
M  V30 33798 H 3324.69 -3.22518 -2.29779 0
M  V30 33799 H 3325.87 -4.60334 0.207126 0
M  V30 33800 H 3324.18 -4.1639 0.0289993 0
M  V30 33801 H 3326.78 -4.6052 -2.71708 0
M  V30 33802 H 3327.12 -2.91221 -2.97483 0
M  V30 33803 H 3327.65 -3.69712 -1.46826 0
M  V30 33804 H 3324.39 -6.53556 -0.504469 0
M  V30 33805 H 3323.91 -5.66253 -1.97782 0
M  V30 33806 H 3325.59 -6.22153 -1.7758 0
M  V30 33807 N 3325.72 0.382237 -1.52894 0
M  V30 33808 C 3326.65 1.47363 -1.81125 0
M  V30 33809 C 3327.64 1.56618 -0.66368 0
M  V30 33810 O 3328.82 1.71457 -0.911928 0
M  V30 33811 C 3325.95 2.84899 -1.9862 0
M  V30 33812 C 3324.9 2.9048 -3.14333 0
M  V30 33813 C 3324.23 4.3053 -3.17093 0
M  V30 33814 C 3325.53 2.59511 -4.53267 0
M  V30 33815 H 3327.22 1.23988 -2.7252 0
M  V30 33816 H 3324.77 0.595026 -1.31131 0
M  V30 33817 H 3326.72 3.61261 -2.16952 0
M  V30 33818 H 3325.45 3.09626 -1.0392 0
M  V30 33819 H 3324.11 2.16566 -2.95795 0
M  V30 33820 H 3323.75 4.52307 -2.20063 0
M  V30 33821 H 3323.45 4.35183 -3.94828 0
M  V30 33822 H 3324.98 5.08789 -3.37589 0
M  V30 33823 H 3326.39 3.2559 -4.71873 0
M  V30 33824 H 3324.79 2.75505 -5.3312 0
M  V30 33825 H 3325.86 1.54823 -4.59519 0
M  V30 33826 N 3327.2 1.43972 0.64108 0
M  V30 33827 C 3328.17 1.49726 1.73536 0
M  V30 33828 C 3329.17 0.380466 1.56234 0
M  V30 33829 O 3330.36 0.642702 1.6191 0
M  V30 33830 C 3327.49 1.36159 3.12528 0
M  V30 33831 H 3328.68 2.47192 1.69812 0
M  V30 33832 H 3326.23 1.30917 0.853844 0
M  V30 33833 H 3326.97 0.397476 3.21855 0
M  V30 33834 H 3326.75 2.17129 3.26492 0
M  V30 33835 H 3328.24 1.43144 3.923 0
M  V30 33836 N 3328.68 -0.880575 1.30704 0
M  V30 33837 C 3329.64 -1.9683 1.17433 0
M  V30 33838 C 3330.64 -1.60461 0.104334 0
M  V30 33839 O 3331.83 -1.7059 0.352788 0
M  V30 33840 C 3328.97 -3.31376 0.800158 0
M  V30 33841 H 3330.16 -2.1003 2.14073 0
M  V30 33842 H 3327.71 -1.06753 1.14164 0
M  V30 33843 H 3328.45 -3.23877 -0.165549 0
M  V30 33844 H 3328.23 -3.59144 1.57348 0
M  V30 33845 H 3329.72 -4.11154 0.730898 0
M  V30 33846 N 3330.16 -1.13492 -1.09349 0
M  V30 33847 C 3331.57 -0.909774 -1.63034 0
M  V30 33848 C 3331.92 0.55354 -1.8823 0
M  V30 33849 O 3331.05 1.42041 -1.63258 0
M  V30 33850 C 3331.64 -1.64502 -2.96183 0
M  V30 33851 C 3330.2 -1.46572 -3.46689 0
M  V30 33852 C 3329.35 -1.67373 -2.21092 0
M  V30 33853 H 3332.3 -1.2881 -0.927018 0
M  V30 33854 H 3332.32 -1.10257 -3.64175 0
M  V30 33855 H 3331.83 -2.71001 -2.77813 0
M  V30 33856 H 3329.93 -0.423793 -3.70182 0
M  V30 33857 H 3330.05 -2.22931 -4.24074 0
M  V30 33858 H 3328.41 -1.09864 -2.29787 0
M  V30 33859 H 3329.19 -2.75193 -2.0524 0
M  V30 33860 N 3331.64 1.27341 -0.928546 0
M  V30 33861 C 3333.05 1.76319 -0.613887 0
M  V30 33862 C 3333.4 1.75809 0.870952 0
M  V30 33863 O 3332.52 1.36212 1.68153 0
M  V30 33864 C 3333.12 3.20184 -1.1076 0
M  V30 33865 C 3331.68 3.66825 -0.843596 0
M  V30 33866 C 3330.83 2.46722 -1.26584 0
M  V30 33867 H 3333.78 1.13596 -1.10823 0
M  V30 33868 H 3333.8 3.77762 -0.455665 0
M  V30 33869 H 3333.31 3.20522 -2.18831 0
M  V30 33870 H 3331.41 3.7193 0.223269 0
M  V30 33871 H 3331.52 4.56257 -1.46173 0
M  V30 33872 H 3329.89 2.45333 -0.684377 0
M  V30 33873 H 3330.67 2.4977 -2.3552 0
M  V30 33874 N 3333.12 0.694147 1.4149 0
M  V30 33875 C 3334.03 0.0283827 2.34583 0
M  V30 33876 C 3335.04 -0.767635 1.56152 0
M  V30 33877 O 3336.22 -0.705523 1.88638 0
M  V30 33878 C 3333.28 -0.897667 3.34877 0
M  V30 33879 C 3332.34 -0.0940151 4.29197 0
M  V30 33880 C 3331.58 -0.975959 5.24701 0
M  V30 33881 O 3331.8 -2.21547 5.25617 0
M  V30 33882 O 3330.73 -0.426398 6.00388 0
M  V30 33883 H 3334.56 0.795708 2.93091 0
M  V30 33884 H 3332.14 0.454475 1.4232 0
M  V30 33885 H 3334.03 -1.42873 3.96441 0
M  V30 33886 H 3332.7 -1.64451 2.78815 0
M  V30 33887 H 3331.61 0.481618 3.70987 0
M  V30 33888 H 3332.94 0.614131 4.88354 0
M  V30 33889 N 3334.59 -1.51368 0.438799 0
M  V30 33890 C 3335.82 -2.06517 -0.125811 0
M  V30 33891 C 3336.24 -1.30608 -1.36334 0
M  V30 33892 O 3335.59 -0.366061 -1.78791 0
M  V30 33893 C 3335.64 -3.58731 -0.446556 0
M  V30 33894 O 3335.37 -4.31773 0.741857 0
M  V30 33895 C 3336.87 -4.30399 -1.06168 0
M  V30 33896 H 3334.09 -0.670961 -0.00727689 0
M  V30 33897 H 3336.63 -1.94929 0.618302 0
M  V30 33898 H 3334.79 -3.70229 -1.14057 0
M  V30 33899 H 3335.2 -5.22417 0.466998 0
M  V30 33900 H 3336.67 -5.37982 -1.23609 0
M  V30 33901 H 3337.15 -3.88785 -2.0431 0
M  V30 33902 H 3337.76 -4.23348 -0.407005 0
M  V30 33903 N 3336.07 -0.170208 -1.56678 0
M  V30 33904 C 3337.49 0.185971 -1.58513 0
M  V30 33905 C 3337.69 1.62935 -1.18551 0
M  V30 33906 O 3336.74 2.36045 -0.896596 0
M  V30 33907 C 3338.06 -0.0938371 -3.00554 0
M  V30 33908 C 3339.6 -0.0319607 -3.12984 0
M  V30 33909 C 3340.08 -0.284744 -4.57114 0
M  V30 33910 N 3341.57 -0.232481 -4.62616 0
M  V30 33911 C 3342.31 -0.402261 -5.71987 0
M  V30 33912 N 3341.8 -0.631036 -6.8992 0
M  V30 33913 N 3343.59 -0.338243 -5.61081 0
M  V30 33914 H 3335.75 -1.11238 -1.80942 0
M  V30 33915 H 3338.01 -0.442143 -0.838578 0
M  V30 33916 H 3337.71 -1.09367 -3.34263 0
M  V30 33917 H 3337.59 0.615052 -3.72152 0
M  V30 33918 H 3339.98 0.958453 -2.79102 0
M  V30 33919 H 3340.06 -0.773543 -2.43824 0
M  V30 33920 H 3339.7 -1.27236 -4.91705 0
M  V30 33921 H 3339.63 0.477437 -5.24431 0
M  V30 33922 H 3342.12 -0.0612597 -3.7785 0
M  V30 33923 H 3342.43 -0.750066 -7.69151 0
M  V30 33924 H 3340.78 -0.667637 -6.91786 0
M  V30 33925 H 3343.97 -0.160112 -4.67826 0
M  V30 33926 H 3344.14 -0.473985 -6.46264 0
M  V30 33927 N 3337.55 1.5726 0.10352 0
M  V30 33928 C 3338.8 1.84844 0.807198 0
M  V30 33929 C 3339.11 0.758213 1.80307 0
M  V30 33930 O 3340.32 0.920922 2.55404 0
M  V30 33931 C 3338.77 3.27774 1.48634 0
M  V30 33932 C 3338.38 4.44846 0.530672 0
M  V30 33933 C 3340.13 3.64591 2.17425 0
M  V30 33934 C 3338.03 5.78807 1.21393 0
M  V30 33935 H 3336.96 0.68947 0.3052 0
M  V30 33936 H 3339.61 1.83402 0.0600532 0
M  V30 33937 H 3338 3.23732 2.28065 0
M  V30 33938 H 3339.17 4.60218 -0.231536 0
M  V30 33939 H 3337.48 4.16369 -0.051081 0
M  V30 33940 H 3340.08 4.61955 2.69262 0
M  V30 33941 H 3340.42 2.92794 2.95935 0
M  V30 33942 H 3340.96 3.70485 1.44863 0
M  V30 33943 H 3337.7 6.53814 0.469803 0
M  V30 33944 H 3337.22 5.67294 1.94777 0
M  V30 33945 H 3338.9 6.23086 1.74278 0
M  V30 33946 N 3339.03 -0.374123 1.53095 0
M  V30 33947 C 3339.96 -1.47773 1.75202 0
M  V30 33948 C 3340.97 -1.50004 0.632654 0
M  V30 33949 O 3342.16 -1.53638 0.908715 0
M  V30 33950 C 3339.26 -2.86572 1.80914 0
M  V30 33951 C 3338.43 -3.08135 3.10438 0
M  V30 33952 C 3337.49 -4.26999 3.07503 0
M  V30 33953 O 3336.52 -4.22586 3.81327 0
M  V30 33954 N 3337.72 -5.33968 2.27725 0
M  V30 33955 H 3340.49 -1.29191 2.70425 0
M  V30 33956 H 3338.05 -0.563775 1.51767 0
M  V30 33957 H 3340.04 -3.64214 1.76439 0
M  V30 33958 H 3338.61 -2.98442 0.930126 0
M  V30 33959 H 3337.83 -2.18228 3.28284 0
M  V30 33960 H 3339.12 -3.19406 3.96052 0
M  V30 33961 H 3338.52 -5.40414 1.67241 0
M  V30 33962 H 3337.07 -6.10219 2.29076 0
M  V30 33963 N 3340.51 -1.4431 -0.633436 0
M  V30 33964 C 3341.44 -1.53822 -1.75673 0
M  V30 33965 C 3342.42 -0.391394 -1.65536 0
M  V30 33966 O 3343.6 -0.611214 -1.84331 0
M  V30 33967 C 3340.73 -1.47984 -3.14194 0
M  V30 33968 C 3339.69 -2.61119 -3.39118 0
M  V30 33969 C 3339.01 -2.40334 -4.77644 0
M  V30 33970 C 3340.31 -4.0328 -3.31907 0
M  V30 33971 H 3342.01 -2.47844 -1.6797 0
M  V30 33972 H 3339.55 -1.19284 -0.806679 0
M  V30 33973 H 3341.5 -1.5324 -3.9255 0
M  V30 33974 H 3340.23 -0.504775 -3.22676 0
M  V30 33975 H 3338.89 -2.5525 -2.63141 0
M  V30 33976 H 3338.54 -1.41025 -4.82826 0
M  V30 33977 H 3338.24 -3.16185 -4.95278 0
M  V30 33978 H 3339.76 -2.47403 -5.58233 0
M  V30 33979 H 3341.17 -4.10531 -4.00171 0
M  V30 33980 H 3339.57 -4.79316 -3.61076 0
M  V30 33981 H 3340.64 -4.27014 -2.29754 0
M  V30 33982 N 3341.98 0.873632 -1.3117 0
M  V30 33983 C 3342.92 1.98649 -1.14329 0
M  V30 33984 C 3343.93 1.62586 -0.0833707 0
M  V30 33985 O 3345.12 1.75414 -0.330508 0
M  V30 33986 C 3342.22 3.3108 -0.723806 0
M  V30 33987 C 3341.39 3.95508 -1.86794 0
M  V30 33988 C 3340.45 5.06252 -1.43512 0
M  V30 33989 O 3339.48 5.2727 -2.14418 0
M  V30 33990 N 3340.68 5.79615 -0.320464 0
M  V30 33991 H 3343.44 2.13643 -2.10182 0
M  V30 33992 H 3341 1.04739 -1.23456 0
M  V30 33993 H 3343 4.02545 -0.417042 0
M  V30 33994 H 3341.57 3.12273 0.143018 0
M  V30 33995 H 3340.79 3.17071 -2.34222 0
M  V30 33996 H 3342.07 4.35291 -2.63437 0
M  V30 33997 H 3341.47 5.65055 0.270116 0
M  V30 33998 H 3340.03 6.51759 -0.0732146 0
M  V30 33999 N 3343.46 1.1407 1.08746 0
M  V30 34000 C 3344.71 0.906769 1.81063 0
M  V30 34001 C 3345.04 -0.566812 1.86058 0
M  V30 34002 O 3344.29 -1.4358 1.32979 0
M  V30 34003 C 3344.59 1.44848 3.26732 0
M  V30 34004 C 3344.26 2.94011 3.4186 0
M  V30 34005 C 3342.92 3.34735 3.45697 0
M  V30 34006 C 3345.27 3.89943 3.45824 0
M  V30 34007 C 3342.6 4.70061 3.51083 0
M  V30 34008 C 3344.95 5.25122 3.52746 0
M  V30 34009 C 3343.62 5.65363 3.54854 0
M  V30 34010 H 3342.89 0.33181 0.662558 0
M  V30 34011 H 3345.53 1.4238 1.28063 0
M  V30 34012 H 3343.84 0.852306 3.82417 0
M  V30 34013 H 3345.53 1.24347 3.81233 0
M  V30 34014 H 3342.12 2.61524 3.39563 0
M  V30 34015 H 3346.31 3.59563 3.42094 0
M  V30 34016 H 3341.56 5.00604 3.51006 0
M  V30 34017 H 3345.74 5.99266 3.54758 0
M  V30 34018 H 3343.37 6.70209 3.5878 0
M  V30 34019 N 3344.94 -1.26847 0.935286 0
M  V30 34020 C 3345.85 -2.30318 0.446162 0
M  V30 34021 C 3346.87 -1.67336 -0.476935 0
M  V30 34022 O 3348.04 -1.98194 -0.357899 0
M  V30 34023 C 3345.11 -3.45516 -0.286237 0
M  V30 34024 C 3344.17 -4.23997 0.672701 0
M  V30 34025 C 3343.4 -5.33694 -0.0248406 0
M  V30 34026 O 3343.62 -5.56695 -1.24286 0
M  V30 34027 O 3342.56 -5.98371 0.650857 0
M  V30 34028 H 3346.38 -2.74208 1.30551 0
M  V30 34029 H 3343.97 -1.31937 0.700933 0
M  V30 34030 H 3345.85 -4.15562 -0.699035 0
M  V30 34031 H 3344.53 -3.03667 -1.12106 0
M  V30 34032 H 3343.43 -3.56456 1.13533 0
M  V30 34033 H 3344.77 -4.6958 1.47497 0
M  V30 34034 N 3346.42 -0.701641 -1.4112 0
M  V30 34035 C 3347.7 -0.162945 -1.9492 0
M  V30 34036 C 3348.08 1.32836 -1.64066 0
M  V30 34037 O 3347.42 2.07775 -0.950884 0
M  V30 34038 C 3347.63 -0.460734 -3.45945 0
M  V30 34039 C 3348.98 -0.39178 -4.22789 0
M  V30 34040 O 3350.01 -0.395993 -3.53992 0
M  V30 34041 O 3348.86 -0.357167 -5.45332 0
M  V30 34042 H 3345.96 -0.0185248 -0.826792 0
M  V30 34043 H 3348.5 -0.778218 -1.50804 0
M  V30 34044 H 3347.28 -1.49275 -3.61708 0
M  V30 34045 H 3346.9 0.185207 -3.97168 0
M  V30 34046 N 3347.9 1.51133 -0.446821 0
M  V30 34047 C 3349.31 1.59289 -0.0996185 0
M  V30 34048 C 3349.51 1.45701 1.39188 0
M  V30 34049 O 3348.57 1.30307 2.16278 0
M  V30 34050 C 3349.88 2.94065 -0.628186 0
M  V30 34051 C 3351.43 3.07399 -0.589463 0
M  V30 34052 C 3351.9 4.44714 -1.09516 0
M  V30 34053 N 3353.4 4.51059 -1.05355 0
M  V30 34054 C 3354.13 5.55651 -1.4156 0
M  V30 34055 N 3353.63 6.67616 -1.85097 0
M  V30 34056 N 3355.42 5.46061 -1.33317 0
M  V30 34057 H 3347.57 1.5821 -1.41716 0
M  V30 34058 H 3349.83 0.746314 -0.584568 0
M  V30 34059 H 3349.54 3.09408 -1.6721 0
M  V30 34060 H 3349.41 3.77155 -0.0583061 0
M  V30 34061 H 3351.8 2.91718 0.44549 0
M  V30 34062 H 3351.88 2.26126 -1.19586 0
M  V30 34063 H 3351.53 4.61142 -2.12863 0
M  V30 34064 H 3351.46 5.24541 -0.465214 0
M  V30 34065 H 3353.95 3.70704 -0.733942 0
M  V30 34066 H 3354.26 7.43455 -2.10936 0
M  V30 34067 H 3352.6 6.68799 -1.89032 0
M  V30 34068 H 3355.8 4.57476 -0.991627 0
M  V30 34069 H 3355.97 6.27459 -1.61861 0
M  V30 34070 N 3349.37 0.178515 1.56586 0
M  V30 34071 C 3350.62 -0.464583 1.97099 0
M  V30 34072 C 3350.95 -1.62765 1.06479 0
M  V30 34073 O 3350.2 -1.95442 0.100371 0
M  V30 34074 C 3350.5 -0.982492 3.4363 0
M  V30 34075 C 3350.17 0.0654438 4.50853 0
M  V30 34076 C 3348.83 0.353433 4.799 0
M  V30 34077 C 3351.18 0.77637 5.15385 0
M  V30 34078 C 3348.51 1.35761 5.70776 0
M  V30 34079 C 3350.86 1.76958 6.07345 0
M  V30 34080 C 3349.53 2.06494 6.34757 0
M  V30 34081 H 3348.8 -0.170003 0.721235 0
M  V30 34082 H 3351.44 0.271992 1.89559 0
M  V30 34083 H 3349.75 -1.79703 3.48158 0
M  V30 34084 H 3351.45 -1.4892 3.72322 0
M  V30 34085 H 3348.04 -0.169191 4.28266 0
M  V30 34086 H 3352.22 0.567094 4.93049 0
M  V30 34087 H 3347.48 1.59255 5.90295 0
M  V30 34088 H 3351.65 2.32578 6.56415 0
M  V30 34089 H 3349.28 2.84453 7.04975 0
M  V30 34090 N 3350.85 -1.57312 -0.0951784 0
M  V30 34091 C 3352.13 -1.771 -0.830357 0
M  V30 34092 C 3352.51 -0.760156 -1.96939 0
M  V30 34093 O 3351.86 0.211363 -2.2752 0
M  V30 34094 C 3352.07 -3.22869 -1.32501 0
M  V30 34095 C 3353.42 -3.86048 -1.76783 0
M  V30 34096 O 3354.44 -3.26617 -1.42125 0
M  V30 34097 O 3353.3 -4.90556 -2.40867 0
M  V30 34098 H 3350.39 -0.725987 -0.396071 0
M  V30 34099 H 3352.94 -1.69525 -0.0770667 0
M  V30 34100 H 3351.71 -3.87976 -0.508923 0
M  V30 34101 H 3351.33 -3.35076 -2.14032 0
M  V30 34102 N 3352.33 0.365999 -1.53291 0
M  V30 34103 C 3353.58 1.10599 -1.68673 0
M  V30 34104 C 3353.89 1.90475 -0.444826 0
M  V30 34105 O 3355.1 2.67238 -0.479182 0
M  V30 34106 C 3353.55 2.0154 -2.98177 0
M  V30 34107 C 3353.16 1.26978 -4.29628 0
M  V30 34108 C 3354.91 2.75534 -3.22926 0
M  V30 34109 C 3352.81 2.16819 -5.50221 0
M  V30 34110 H 3351.74 0.416593 -0.628464 0
M  V30 34111 H 3354.39 0.367027 -1.79792 0
M  V30 34112 H 3352.78 2.79166 -2.8086 0
M  V30 34113 H 3353.95 0.544189 -4.57575 0
M  V30 34114 H 3352.27 0.648486 -4.11319 0
M  V30 34115 H 3354.86 3.42978 -4.10208 0
M  V30 34116 H 3355.21 3.4088 -2.3897 0
M  V30 34117 H 3355.74 2.04992 -3.40915 0
M  V30 34118 H 3352.48 1.56051 -6.36654 0
M  V30 34119 H 3352 2.87229 -5.26554 0
M  V30 34120 H 3353.68 2.76386 -5.84995 0
M  V30 34121 N 3353.81 1.44644 0.625774 0
M  V30 34122 C 3354.72 1.54423 1.76609 0
M  V30 34123 C 3355.73 0.429606 1.68613 0
M  V30 34124 O 3356.91 0.687719 1.89294 0
M  V30 34125 C 3353.98 1.49077 3.13013 0
M  V30 34126 C 3353.04 2.71434 3.32599 0
M  V30 34127 C 3352.27 2.66333 4.62496 0
M  V30 34128 O 3352.49 1.72636 5.43648 0
M  V30 34129 O 3351.43 3.57266 4.84401 0
M  V30 34130 H 3355.25 2.50772 1.71311 0
M  V30 34131 H 3352.84 1.2695 0.787655 0
M  V30 34132 H 3354.72 1.48638 3.94316 0
M  V30 34133 H 3353.39 0.558742 3.18841 0
M  V30 34134 H 3352.3 2.77439 2.50954 0
M  V30 34135 H 3353.63 3.63701 3.31636 0
M  V30 34136 N 3355.29 -0.866663 1.31631 0
M  V30 34137 C 3356.53 -1.62236 1.21686 0
M  V30 34138 C 3356.87 -1.92907 -0.223733 0
M  V30 34139 O 3356.14 -1.56302 -1.15758 0
M  V30 34140 C 3356.42 -2.95045 2.06448 0
M  V30 34141 C 3356.28 -2.71231 3.58823 0
M  V30 34142 C 3357.6 -3.96184 1.91641 0
M  V30 34143 H 3354.71 -0.588699 0.443399 0
M  V30 34144 H 3357.36 -1.00161 1.61455 0
M  V30 34145 H 3355.51 -3.48024 1.7266 0
M  V30 34146 H 3357.18 -2.24898 4.02764 0
M  V30 34147 H 3355.42 -2.05404 3.82088 0
M  V30 34148 H 3356.09 -3.65745 4.13442 0
M  V30 34149 H 3358.57 -3.52424 2.21216 0
M  V30 34150 H 3357.44 -4.86989 2.53245 0
M  V30 34151 H 3357.71 -4.3324 0.88064 0
M  V30 34152 N 3356.77 -1.14645 -1.0814 0
M  V30 34153 C 3357.99 -0.939958 -1.84316 0
M  V30 34154 C 3358.41 0.511604 -1.81736 0
M  V30 34155 O 3357.77 1.35459 -1.22299 0
M  V30 34156 C 3357.82 -1.4363 -3.31742 0
M  V30 34157 O 3357.54 -2.831 -3.34345 0
M  V30 34158 C 3359.04 -1.27014 -4.24714 0
M  V30 34159 H 3356.26 -0.334333 -0.581775 0
M  V30 34160 H 3358.8 -1.52224 -1.36558 0
M  V30 34161 H 3356.96 -0.89673 -3.76879 0
M  V30 34162 H 3357.37 -3.05432 -4.26393 0
M  V30 34163 H 3358.85 -1.666 -5.26259 0
M  V30 34164 H 3359.32 -0.213334 -4.38682 0
M  V30 34165 H 3359.93 -1.7984 -3.85406 0
M  V30 34166 N 3358.24 1.26349 -0.942 0
M  V30 34167 C 3359.65 1.75658 -0.632553 0
M  V30 34168 C 3360.01 1.76723 0.852256 0
M  V30 34169 O 3359.13 1.37988 1.66698 0
M  V30 34170 C 3359.73 3.18991 -1.1415 0
M  V30 34171 C 3358.28 3.65909 -0.882455 0
M  V30 34172 C 3357.43 2.45366 -1.29193 0
M  V30 34173 H 3360.38 1.12414 -1.12021 0
M  V30 34174 H 3360.4 3.77257 -0.495706 0
M  V30 34175 H 3359.92 3.18183 -2.22218 0
M  V30 34176 H 3358.02 3.72146 0.183808 0
M  V30 34177 H 3358.13 4.54681 -1.51004 0
M  V30 34178 H 3356.49 2.44594 -0.710359 0
M  V30 34179 H 3357.28 2.47258 -2.38156 0
M  V30 34180 N 3359.72 0.709115 1.40746 0
M  V30 34181 C 3360.67 0.04118 2.32564 0
M  V30 34182 C 3361.66 -0.754013 1.51694 0
M  V30 34183 O 3362.87 -0.658109 1.67538 0
M  V30 34184 H 3359.24 -0.00548567 0.75198 0
M  V30 34185 H 3361.22 0.8324 2.86555 0
M  V30 34186 C 3359.96 -0.871319 3.36606 0
M  V30 34187 H 3359.29 -0.268842 3.98895 0
M  V30 34188 H 3360.73 -1.30675 4.03361 0
M  V30 34189 C 3359.19 -1.99379 2.71569 0
M  V30 34190 O 3359.72 -3.08398 2.57398 0
M  V30 34191 N 3357.92 -1.7755 2.30053 0
M  V30 34192 H 3357.47 -0.888856 2.41779 0
M  V30 34193 H 3357.43 -2.52834 1.86875 0
M  V30 34194 N 3361.2 -1.50894 0.454829 0
M  V30 34195 C 3362.44 -2.04132 -0.104686 0
M  V30 34196 C 3362.8 -1.33044 -1.38431 0
M  V30 34197 O 3364 -1.76749 -2.02518 0
M  V30 34198 C 3362.28 -3.56133 -0.300713 0
M  V30 34199 S 3363.83 -4.31049 -0.821121 0
M  V30 34200 H 3360.65 -0.710607 -0.0236282 0
M  V30 34201 H 3363.25 -1.85467 0.618246 0
M  V30 34202 H 3361.96 -4.05432 0.636663 0
M  V30 34203 H 3361.49 -3.79122 -1.05023 0
M  V30 34204 H 3363.5 -4.4973 -2.09661 0
M  V30 34205 N 3362.68 -0.186817 -1.56489 0
M  V30 34206 C 3363.91 0.459958 -2.01723 0
M  V30 34207 C 3364.32 1.55758 -1.067 0
M  V30 34208 O 3363.68 1.82364 -0.0704533 0
M  V30 34209 C 3363.73 1.02395 -3.46695 0
M  V30 34210 O 3363.45 -0.0298686 -4.3809 0
M  V30 34211 C 3364.95 1.74743 -4.07406 0
M  V30 34212 H 3362.17 0.116286 -0.660847 0
M  V30 34213 H 3364.71 -0.293095 -2.02389 0
M  V30 34214 H 3362.87 1.72743 -3.46755 0
M  V30 34215 H 3363.28 0.388729 -5.23058 0
M  V30 34216 H 3364.76 2.09446 -5.10721 0
M  V30 34217 H 3365.23 2.64812 -3.50388 0
M  V30 34218 H 3365.84 1.09 -4.11095 0
M  V30 34219 N 3364.16 1.57361 0.0868344 0
M  V30 34220 C 3365.38 1.91099 0.805983 0
M  V30 34221 C 3365.81 0.78186 1.71081 0
M  V30 34222 O 3365.16 -0.266143 1.79336 0
M  V30 34223 C 3365.21 3.23734 1.58835 0
M  V30 34224 O 3364.32 3.11907 2.69793 0
M  V30 34225 H 3363.66 0.626182 0.220888 0
M  V30 34226 H 3366.19 2.04513 0.0595831 0
M  V30 34227 H 3366.2 3.57244 1.97081 0
M  V30 34228 H 3364.87 4.05498 0.924355 0
M  V30 34229 H 3363.45 2.89927 2.34513 0
M  V30 34230 N 3365.63 -0.357865 1.53483 0
M  V30 34231 C 3366.58 -1.45908 1.81145 0
M  V30 34232 C 3367.58 -1.55108 0.681029 0
M  V30 34233 O 3368.78 -1.57902 0.864114 0
M  V30 34234 H 3365.16 -0.486215 0.573672 0
M  V30 34235 H 3367.13 -1.19784 2.73302 0
M  V30 34236 C 3365.88 -2.82636 2.02514 0
M  V30 34237 H 3365.2 -2.76319 2.88943 0
M  V30 34238 H 3366.64 -3.58847 2.25843 0
M  V30 34239 C 3365.1 -3.27105 0.80647 0
M  V30 34240 O 3365.63 -4.017 -0.00109748 0
M  V30 34241 N 3363.83 -2.83739 0.627727 0
M  V30 34242 H 3363.38 -2.232 1.28605 0
M  V30 34243 H 3363.34 -3.13848 -0.186246 0
M  V30 34244 N 3367.11 -1.44974 -0.618094 0
M  V30 34245 C 3368.34 -1.51727 -1.40223 0
M  V30 34246 C 3368.75 -0.145131 -1.88643 0
M  V30 34247 O 3368.09 0.861648 -1.62238 0
M  V30 34248 C 3368.15 -2.43144 -2.64804 0
M  V30 34249 C 3367.82 -3.90078 -2.38094 0
M  V30 34250 C 3368.82 -4.80262 -1.99108 0
M  V30 34251 C 3366.5 -4.349 -2.5133 0
M  V30 34252 C 3368.49 -6.13274 -1.73705 0
M  V30 34253 C 3366.18 -5.67956 -2.25542 0
M  V30 34254 C 3367.18 -6.56962 -1.8679 0
M  V30 34255 O 3366.87 -7.87552 -1.61296 0
M  V30 34256 H 3366.6 -0.516592 -0.436015 0
M  V30 34257 H 3369.15 -1.90747 -0.761896 0
M  V30 34258 H 3367.38 -1.99076 -3.3152 0
M  V30 34259 H 3369.07 -2.407 -3.26831 0
M  V30 34260 H 3369.84 -4.46901 -1.88427 0
M  V30 34261 H 3365.72 -3.65872 -2.80462 0
M  V30 34262 H 3369.26 -6.82706 -1.43383 0
M  V30 34263 H 3365.16 -6.00876 -2.35836 0
M  V30 34264 H 3365.93 -7.99478 -1.75435 0
M  V30 34265 N 3368.59 0.85967 -1.32089 0
M  V30 34266 C 3369.52 1.98348 -1.23208 0
M  V30 34267 C 3370.5 1.69697 -0.117003 0
M  V30 34268 O 3371.69 1.91816 -0.303335 0
M  V30 34269 C 3368.82 3.34076 -0.949229 0
M  V30 34270 C 3367.77 3.77065 -2.02499 0
M  V30 34271 C 3367.1 5.10368 -1.59464 0
M  V30 34272 C 3368.4 3.93068 -3.43941 0
M  V30 34273 H 3370.09 2.06037 -2.17231 0
M  V30 34274 H 3367.64 0.989912 -1.04579 0
M  V30 34275 H 3369.59 4.12244 -0.873666 0
M  V30 34276 H 3368.31 3.26589 0.0266521 0
M  V30 34277 H 3366.97 3.01145 -2.09062 0
M  V30 34278 H 3366.62 4.99332 -0.606344 0
M  V30 34279 H 3366.32 5.40102 -2.31439 0
M  V30 34280 H 3367.84 5.91034 -1.53335 0
M  V30 34281 H 3369.26 4.61602 -3.39995 0
M  V30 34282 H 3367.65 4.34213 -4.14221 0
M  V30 34283 H 3368.72 2.96133 -3.8397 0
M  V30 34284 N 3370.07 1.15217 1.0753 0
M  V30 34285 C 3370.98 0.86123 2.1822 0
M  V30 34286 C 3371.99 -0.161767 1.73246 0
M  V30 34287 O 3373.17 0.011874 2.01396 0
M  V30 34288 C 3370.23 0.352662 3.44902 0
M  V30 34289 C 3369.3 1.43933 4.04452 0
M  V30 34290 C 3368.53 0.954934 5.25087 0
M  V30 34291 O 3368.75 -0.200193 5.70049 0
M  V30 34292 O 3367.69 1.73784 5.76266 0
M  V30 34293 H 3371.51 1.78652 2.45595 0
M  V30 34294 H 3369.1 0.93114 1.16834 0
M  V30 34295 H 3370.98 0.0754088 4.21333 0
M  V30 34296 H 3369.65 -0.544785 3.19083 0
M  V30 34297 H 3368.56 1.77016 3.2957 0
M  V30 34298 H 3369.89 2.31162 4.3454 0
M  V30 34299 N 3371.55 -1.25848 0.948687 0
M  V30 34300 C 3372.48 -2.28469 0.482076 0
M  V30 34301 C 3373.46 -1.6352 -0.468524 0
M  V30 34302 O 3374.64 -1.90667 -0.368762 0
M  V30 34303 C 3371.77 -3.46424 -0.246542 0
M  V30 34304 C 3370.73 -4.23511 0.618225 0
M  V30 34305 C 3370.05 -5.34158 -0.24079 0
M  V30 34306 C 3371.35 -4.86775 1.89335 0
M  V30 34307 H 3373.05 -2.67751 1.33977 0
M  V30 34308 H 3370.59 -1.28713 0.645667 0
M  V30 34309 H 3372.55 -4.17333 -0.584062 0
M  V30 34310 H 3371.27 -3.06116 -1.13844 0
M  V30 34311 H 3369.93 -3.54377 0.938744 0
M  V30 34312 H 3369.58 -4.90091 -1.13226 0
M  V30 34313 H 3369.28 -5.86647 0.33447 0
M  V30 34314 H 3370.8 -6.07902 -0.57341 0
M  V30 34315 H 3372.21 -5.49858 1.62261 0
M  V30 34316 H 3370.61 -5.49415 2.41379 0
M  V30 34317 H 3371.68 -4.09294 2.60013 0
M  V30 34318 N 3373.02 -0.716569 -1.40368 0
M  V30 34319 C 3374.44 -0.390229 -1.54756 0
M  V30 34320 C 3374.64 1.10088 -1.68769 0
M  V30 34321 O 3373.7 1.88694 -1.67783 0
M  V30 34322 C 3375.01 -1.15714 -2.77544 0
M  V30 34323 C 3376.56 -1.14354 -2.91362 0
M  V30 34324 C 3377.03 -1.89264 -4.17065 0
M  V30 34325 N 3378.52 -1.86337 -4.24067 0
M  V30 34326 C 3379.26 -2.41121 -5.20239 0
M  V30 34327 N 3378.75 -3.04465 -6.22313 0
M  V30 34328 N 3380.55 -2.31258 -5.12324 0
M  V30 34329 H 3372.7 -1.68341 -1.29518 0
M  V30 34330 H 3374.96 -0.711593 -0.62637 0
M  V30 34331 H 3374.67 -2.21149 -2.7347 0
M  V30 34332 H 3374.54 -0.749412 -3.6968 0
M  V30 34333 H 3376.93 -0.0973902 -2.94939 0
M  V30 34334 H 3377.01 -1.5905 -2.00341 0
M  V30 34335 H 3376.65 -2.9387 -4.1425 0
M  V30 34336 H 3376.58 -1.41987 -5.07097 0
M  V30 34337 H 3379.07 -1.40174 -3.50941 0
M  V30 34338 H 3379.39 -3.43781 -6.92123 0
M  V30 34339 H 3377.73 -3.08549 -6.22754 0
M  V30 34340 H 3380.92 -1.81428 -4.31511 0
M  V30 34341 H 3381.1 -2.74254 -5.87102 0
M  V30 34342 N 3374.5 1.50651 -0.462825 0
M  V30 34343 C 3375.78 1.94975 0.156187 0
M  V30 34344 C 3376.16 1.40282 1.57747 0
M  V30 34345 O 3375.51 0.600361 2.20472 0
M  V30 34346 C 3375.72 3.48833 0.107947 0
M  V30 34347 C 3377.07 4.23532 0.300939 0
M  V30 34348 O 3378.09 3.5572 0.18491 0
M  V30 34349 O 3376.95 5.43881 0.534361 0
M  V30 34350 H 3374.04 0.8188 0.116168 0
M  V30 34351 H 3376.59 1.61452 -0.522635 0
M  V30 34352 H 3375.36 3.81168 -0.884701 0
M  V30 34353 H 3374.98 3.8887 0.828585 0
M  V30 34354 N 3375.98 0.195113 1.56388 0
M  V30 34355 C 3377.23 -0.442775 1.9719 0
M  V30 34356 C 3377.55 -1.62151 1.08315 0
M  V30 34357 O 3376.82 -1.9529 0.154439 0
M  V30 34358 H 3375.4 -0.166572 0.728191 0
M  V30 34359 H 3378.06 0.281849 1.92851 0
M  V30 34360 H 3377.16 -0.786892 3.02017 0
M  V30 34361 N 3377.46 -1.57404 -0.0784879 0
M  V30 34362 C 3378.7 -1.87198 -0.780059 0
M  V30 34363 C 3379.04 -0.786501 -1.77561 0
M  V30 34364 O 3378.31 0.203901 -1.93428 0
M  V30 34365 C 3378.6 -3.27645 -1.49402 0
M  V30 34366 C 3378.45 -4.46838 -0.515338 0
M  V30 34367 C 3379.77 -3.66229 -2.44058 0
M  V30 34368 H 3376.89 -0.680864 -0.282122 0
M  V30 34369 H 3379.53 -1.89951 -0.0433592 0
M  V30 34370 H 3377.68 -3.25429 -2.12199 0
M  V30 34371 H 3379.35 -4.61176 0.106908 0
M  V30 34372 H 3377.59 -4.33467 0.169908 0
M  V30 34373 H 3378.26 -5.41875 -1.05238 0
M  V30 34374 H 3380.74 -3.69496 -1.91342 0
M  V30 34375 H 3379.62 -4.65401 -2.9102 0
M  V30 34376 H 3379.88 -2.95801 -3.28563 0
M  V30 34377 N 3378.94 0.34972 -1.53671 0
M  V30 34378 C 3380.21 1.10729 -1.6124 0
M  V30 34379 C 3380.59 2.06678 -0.429792 0
M  V30 34380 O 3379.94 2.21055 0.578525 0
M  V30 34381 C 3380.15 1.8324 -2.97025 0
M  V30 34382 C 3381.5 2.37206 -3.52163 0
M  V30 34383 O 3382.52 1.93345 -2.99159 0
M  V30 34384 O 3381.38 3.17432 -4.44859 0
M  V30 34385 H 3378.48 0.508853 -0.651918 0
M  V30 34386 H 3381.02 0.351709 -1.66015 0
M  V30 34387 H 3379.79 1.13305 -3.74537 0
M  V30 34388 H 3379.42 2.6567 -2.95813 0
M  V30 34389 N 3380.41 1.45299 0.610397 0
M  V30 34390 C 3381.64 1.52919 1.40109 0
M  V30 34391 C 3382.06 0.161729 1.87403 0
M  V30 34392 O 3381.42 -0.853107 1.59974 0
M  V30 34393 C 3381.47 2.51566 2.58354 0
M  V30 34394 O 3380.57 2.03152 3.58891 0
M  V30 34395 H 3379.92 0.515594 0.418401 0
M  V30 34396 H 3382.45 1.90627 0.743126 0
M  V30 34397 H 3382.46 2.7028 3.05635 0
M  V30 34398 H 3381.13 3.50883 2.2328 0
M  V30 34399 H 3379.71 1.94301 3.18279 0
M  V30 34400 N 3381.89 -0.852653 1.32543 0
M  V30 34401 C 3383.17 -1.59065 1.13832 0
M  V30 34402 C 3383.55 -2.0895 -0.300547 0
M  V30 34403 O 3382.9 -1.8809 -1.29747 0
M  V30 34404 C 3383.11 -2.73523 2.16763 0
M  V30 34405 C 3384.46 -3.43053 2.502 0
M  V30 34406 O 3385.48 -2.8375 2.15324 0
M  V30 34407 O 3384.34 -4.50074 3.09993 0
M  V30 34408 H 3381.43 -0.700617 0.439391 0
M  V30 34409 H 3383.98 -0.896607 1.4408 0
M  V30 34410 H 3382.75 -2.34201 3.13473 0
M  V30 34411 H 3382.37 -3.50601 1.87522 0
M  V30 34412 N 3383.37 -1.15786 -1.06918 0
M  V30 34413 C 3384.33 -0.861204 -2.12405 0
M  V30 34414 C 3385.33 0.141003 -1.60181 0
M  V30 34415 O 3386.52 -0.0891498 -1.73972 0
M  V30 34416 C 3383.66 -0.286695 -3.39692 0
M  V30 34417 H 3384.85 -1.79627 -2.40154 0
M  V30 34418 H 3382.4 -0.965937 -1.22879 0
M  V30 34419 H 3383.14 0.656361 -3.17588 0
M  V30 34420 H 3382.92 -1.00877 -3.78901 0
M  V30 34421 H 3384.41 -0.0968705 -4.17488 0
M  V30 34422 N 3384.85 1.25343 -0.955348 0
M  V30 34423 C 3386.26 1.74977 -0.651148 0
M  V30 34424 C 3386.61 1.77617 0.833464 0
M  V30 34425 O 3385.74 1.39748 1.65225 0
M  V30 34426 C 3386.33 3.17762 -1.17527 0
M  V30 34427 C 3384.89 3.64953 -0.921215 0
M  V30 34428 C 3384.04 2.43982 -1.31789 0
M  V30 34429 H 3386.99 1.1122 -1.13207 0
M  V30 34430 H 3387.01 3.7671 -0.535691 0
M  V30 34431 H 3386.52 3.15809 -2.2558 0
M  V30 34432 H 3384.62 3.7232 0.144326 0
M  V30 34433 H 3384.73 4.53054 -1.55818 0
M  V30 34434 H 3383.1 2.43826 -0.736262 0
M  V30 34435 H 3383.88 2.44718 -2.40765 0
M  V30 34436 N 3386.33 0.724003 1.39986 0
M  V30 34437 C 3387.58 0.264095 1.99964 0
M  V30 34438 C 3387.89 -1.15187 1.58086 0
M  V30 34439 O 3389.1 -1.71073 2.10822 0
M  V30 34440 C 3387.55 0.421237 3.57426 0
M  V30 34441 C 3387.16 1.84439 4.08272 0
M  V30 34442 C 3388.9 0.022548 4.24494 0
M  V30 34443 C 3386.81 1.95167 5.58269 0
M  V30 34444 H 3385.74 0.094986 0.747993 0
M  V30 34445 H 3388.39 0.896304 1.60121 0
M  V30 34446 H 3386.77 -0.279693 3.95011 0
M  V30 34447 H 3387.95 2.57638 3.82046 0
M  V30 34448 H 3386.26 2.19529 3.5383 0
M  V30 34449 H 3388.86 0.0818684 5.34637 0
M  V30 34450 H 3389.2 -1.02062 4.03595 0
M  V30 34451 H 3389.74 0.674229 3.92045 0
M  V30 34452 H 3386.47 2.97633 5.84033 0
M  V30 34453 H 3385.99 1.2639 5.86332 0
M  V30 34454 H 3387.67 1.7277 6.23506 0
M  V30 34455 N 3387.81 -1.50403 0.470808 0
M  V30 34456 C 3388.74 -2.31387 -0.313417 0
M  V30 34457 C 3389.72 -1.38279 -0.990599 0
M  V30 34458 O 3390.9 -1.67199 -0.987825 0
M  V30 34459 C 3388.03 -3.18011 -1.39593 0
M  V30 34460 C 3386.99 -4.19669 -0.840369 0
M  V30 34461 C 3386.31 -4.95029 -2.02115 0
M  V30 34462 C 3387.61 -5.2209 0.148146 0
M  V30 34463 H 3389.31 -2.97198 0.362484 0
M  V30 34464 H 3386.85 -1.42923 0.175771 0
M  V30 34465 H 3388.8 -3.73462 -1.95203 0
M  V30 34466 H 3387.53 -2.50085 -2.1006 0
M  V30 34467 H 3386.19 -3.65319 -0.306238 0
M  V30 34468 H 3385.84 -4.23576 -2.71279 0
M  V30 34469 H 3385.54 -5.63793 -1.65564 0
M  V30 34470 H 3387.06 -5.53314 -2.58217 0
M  V30 34471 H 3388.47 -5.72413 -0.318774 0
M  V30 34472 H 3386.87 -5.98572 0.427916 0
M  V30 34473 H 3387.94 -4.72854 1.07413 0
M  V30 34474 N 3389.28 -0.203404 -1.56282 0
M  V30 34475 C 3390.51 0.441623 -2.02644 0
M  V30 34476 C 3390.93 1.53828 -1.08252 0
M  V30 34477 O 3390.29 1.81174 -0.0674655 0
M  V30 34478 C 3390.34 0.967308 -3.47384 0
M  V30 34479 O 3389.44 2.07975 -3.56118 0
M  V30 34480 H 3388.78 0.10223 -0.656083 0
M  V30 34481 H 3391.31 -0.316719 -2.02134 0
M  V30 34482 H 3391.32 1.28179 -3.87342 0
M  V30 34483 H 3390 0.164552 -4.15574 0
M  V30 34484 H 3388.58 1.77328 -3.28038 0
M  V30 34485 N 3390.76 1.57444 0.0701393 0
M  V30 34486 C 3391.71 2.03803 1.08319 0
M  V30 34487 C 3392.68 0.918971 1.38362 0
M  V30 34488 O 3393.86 1.18675 1.49402 0
M  V30 34489 C 3391 2.48825 2.39124 0
M  V30 34490 C 3390.12 3.74356 2.15596 0
M  V30 34491 C 3389.25 4.08154 3.39977 0
M  V30 34492 C 3388.29 5.2672 3.11821 0
M  V30 34493 N 3387.43 5.56149 4.28536 0
M  V30 34494 H 3392.27 2.90117 0.68088 0
M  V30 34495 H 3389.8 1.43473 0.324631 0
M  V30 34496 H 3391.76 2.7298 3.15496 0
M  V30 34497 H 3390.39 1.65486 2.77154 0
M  V30 34498 H 3389.44 3.5753 1.29909 0
M  V30 34499 H 3390.76 4.60865 1.908 0
M  V30 34500 H 3389.91 4.33219 4.24743 0
M  V30 34501 H 3388.65 3.20215 3.6785 0
M  V30 34502 H 3387.65 5.0145 2.25451 0
M  V30 34503 H 3388.88 6.16279 2.85268 0
M  V30 34504 H 3386.83 4.71169 4.56438 0
M  V30 34505 H 3386.74 6.3708 4.07019 0
M  V30 34506 H 3388.01 5.85766 5.14295 0
M  V30 34507 N 3392.24 -0.341566 1.53854 0
M  V30 34508 C 3393.49 -1.08159 1.71196 0
M  V30 34509 C 3393.81 -1.88581 0.476174 0
M  V30 34510 O 3393.07 -1.88042 -0.542082 0
M  V30 34511 C 3393.37 -2.04878 2.92847 0
M  V30 34512 C 3393.03 -1.40752 4.28369 0
M  V30 34513 C 3391.7 -1.22992 4.65216 0
M  V30 34514 C 3394.05 -0.945729 5.12548 0
M  V30 34515 C 3391.38 -0.576749 5.83858 0
M  V30 34516 C 3393.73 -0.306457 6.31857 0
M  V30 34517 C 3392.39 -0.11656 6.67398 0
M  V30 34518 H 3391.66 -0.395781 0.626449 0
M  V30 34519 H 3394.31 -0.360655 1.88073 0
M  V30 34520 H 3392.61 -2.8336 2.70581 0
M  V30 34521 H 3394.31 -2.62134 3.03458 0
M  V30 34522 H 3390.9 -1.55573 3.99368 0
M  V30 34523 H 3395.09 -1.07078 4.84611 0
M  V30 34524 H 3390.34 -0.418256 6.09968 0
M  V30 34525 H 3394.52 0.0594509 6.96375 0
M  V30 34526 H 3392.14 0.391611 7.59191 0
M  V30 34527 N 3393.72 -1.45621 -0.602683 0
M  V30 34528 C 3394.96 -1.51437 -1.37281 0
M  V30 34529 C 3395.32 -0.154182 -1.9138 0
M  V30 34530 O 3396.52 -0.0870482 -2.68659 0
M  V30 34531 C 3394.79 -2.56729 -2.48646 0
M  V30 34532 S 3396.35 -2.81806 -3.3635 0
M  V30 34533 H 3393.17 -0.53528 -0.46797 0
M  V30 34534 H 3395.77 -1.82732 -0.694925 0
M  V30 34535 H 3394.48 -3.54219 -2.07261 0
M  V30 34536 H 3394.01 -2.27101 -3.2123 0
M  V30 34537 H 3396.02 -2.15557 -4.46933 0
M  V30 34538 N 3395.2 0.845612 -1.32993 0
M  V30 34539 C 3396.44 1.59726 -1.23822 0
M  V30 34540 C 3396.76 1.93995 0.19769 0
M  V30 34541 O 3396.03 1.60394 1.12474 0
M  V30 34542 H 3394.61 0.592204 -0.455306 0
M  V30 34543 H 3397.28 1.01098 -1.66629 0
M  V30 34544 H 3396.37 2.5302 -1.82722 0
M  V30 34545 N 3396.67 1.16351 1.06302 0
M  V30 34546 C 3397.9 0.969162 1.82797 0
M  V30 34547 C 3398.32 -0.482627 1.82527 0
M  V30 34548 O 3397.67 -1.33496 1.24439 0
M  V30 34549 C 3397.72 1.4889 3.29415 0
M  V30 34550 O 3397.45 2.88383 3.29798 0
M  V30 34551 C 3398.95 1.33755 4.2264 0
M  V30 34552 H 3396.17 0.343547 0.576382 0
M  V30 34553 H 3398.71 1.54377 1.34119 0
M  V30 34554 H 3396.87 0.956575 3.75404 0
M  V30 34555 H 3397.28 3.12177 4.2148 0
M  V30 34556 H 3398.75 1.74951 5.23542 0
M  V30 34557 H 3399.23 0.283098 4.38287 0
M  V30 34558 H 3399.84 1.85949 3.82496 0
M  V30 34559 N 3398.15 -1.24835 0.961982 0
M  V30 34560 C 3399.38 -1.97351 0.637743 0
M  V30 34561 C 3399.8 -1.70942 -0.784889 0
M  V30 34562 O 3399.16 -0.969721 -1.53186 0
M  V30 34563 C 3399.21 -3.48889 0.911546 0
M  V30 34564 O 3398.31 -4.124 -0.00594419 0
M  V30 34565 H 3397.65 -0.618449 0.241696 0
M  V30 34566 H 3400.18 -1.58762 1.29058 0
M  V30 34567 H 3400.19 -3.99243 0.840772 0
M  V30 34568 H 3398.87 -3.67439 1.94837 0
M  V30 34569 H 3397.44 -3.72714 0.117663 0
M  V30 34570 N 3399.63 -0.731417 -1.396 0
M  V30 34571 C 3400.56 -0.104141 -2.33268 0
M  V30 34572 C 3401.54 0.728191 -1.53725 0
M  V30 34573 O 3402.73 0.673901 -1.82132 0
M  V30 34574 C 3399.86 0.806586 -3.37804 0
M  V30 34575 C 3398.81 0.0786835 -4.27928 0
M  V30 34576 C 3398.14 1.10619 -5.23132 0
M  V30 34577 C 3399.44 -1.0766 -5.11084 0
M  V30 34578 H 3401.13 -0.886546 -2.85973 0
M  V30 34579 H 3398.68 -0.42777 -1.375 0
M  V30 34580 H 3400.63 1.25492 -4.02281 0
M  V30 34581 H 3399.35 1.62107 -2.83529 0
M  V30 34582 H 3398.01 -0.349991 -3.64926 0
M  V30 34583 H 3397.66 1.91414 -4.65156 0
M  V30 34584 H 3397.36 0.62394 -5.84278 0
M  V30 34585 H 3398.88 1.5543 -5.90486 0
M  V30 34586 H 3400.3 -0.706881 -5.68925 0
M  V30 34587 H 3398.69 -1.48825 -5.81353 0
M  V30 34588 H 3399.76 -1.89996 -4.46127 0
M  V30 34589 N 3401.11 1.50152 -0.478778 0
M  V30 34590 C 3402.52 1.86683 -0.0255235 0
M  V30 34591 C 3402.87 1.39298 1.38169 0
M  V30 34592 O 3402 0.761243 2.02569 0
M  V30 34593 C 3402.59 3.38777 -0.0395414 0
M  V30 34594 C 3401.15 3.74691 0.358274 0
M  V30 34595 C 3400.3 2.74075 -0.421715 0
M  V30 34596 H 3403.25 1.42785 -0.692678 0
M  V30 34597 H 3403.27 3.72815 0.760891 0
M  V30 34598 H 3402.78 3.73234 -1.06385 0
M  V30 34599 H 3400.88 3.45837 1.38665 0
M  V30 34600 H 3400.99 4.79069 0.0542747 0
M  V30 34601 H 3399.36 2.5439 0.125589 0
M  V30 34602 H 3400.14 3.11376 -1.44568 0
M  V30 34603 N 3402.59 0.211689 1.56172 0
M  V30 34604 C 3403.81 -0.43087 2.02875 0
M  V30 34605 C 3404.24 -1.53252 1.09067 0
M  V30 34606 O 3403.59 -1.81136 0.0770727 0
M  V30 34607 C 3403.64 -0.948872 3.47892 0
M  V30 34608 O 3402.75 -2.06083 3.57216 0
M  V30 34609 H 3402.09 -0.0987492 0.656616 0
M  V30 34610 H 3404.62 0.327435 2.01963 0
M  V30 34611 H 3404.63 -1.26123 3.88017 0
M  V30 34612 H 3403.3 -0.142511 4.15656 0
M  V30 34613 H 3401.88 -1.75586 3.28974 0
M  V30 34614 N 3404.06 -1.57479 -0.0617887 0
M  V30 34615 C 3405.29 -1.92357 -0.775479 0
M  V30 34616 C 3405.71 -0.808979 -1.69815 0
M  V30 34617 O 3405.07 0.237579 -1.79737 0
M  V30 34618 C 3405.12 -3.2622 -1.53664 0
M  V30 34619 O 3404.22 -3.16159 -2.64796 0
M  V30 34620 H 3403.57 -0.629617 -0.210898 0
M  V30 34621 H 3406.1 -2.04582 -0.0270393 0
M  V30 34622 H 3406.11 -3.60334 -1.91373 0
M  V30 34623 H 3404.78 -4.06917 -0.859727 0
M  V30 34624 H 3403.36 -2.93622 -2.29871 0
M  V30 34625 N 3405.54 0.333401 -1.54033 0
M  V30 34626 C 3406.47 1.43076 -1.79058 0
M  V30 34627 C 3407.49 1.48274 -0.672202 0
M  V30 34628 O 3408.68 1.51175 -0.94913 0
M  V30 34629 C 3405.78 2.81674 -1.88448 0
M  V30 34630 C 3404.95 2.99796 -3.18498 0
M  V30 34631 C 3404.01 4.18696 -3.18716 0
M  V30 34632 O 3403.03 4.12327 -3.92397 0
M  V30 34633 N 3404.24 5.27743 -2.41802 0
M  V30 34634 H 3407 1.21976 -2.73755 0
M  V30 34635 H 3404.56 0.523338 -1.53208 0
M  V30 34636 H 3406.55 3.59408 -1.86033 0
M  V30 34637 H 3405.12 2.95871 -1.00893 0
M  V30 34638 H 3404.34 2.09447 -3.33955 0
M  V30 34639 H 3405.63 3.08793 -4.04381 0
M  V30 34640 H 3405.03 5.3579 -1.8151 0
M  V30 34641 H 3403.59 6.03931 -2.45174 0
M  V30 34642 N 3407.02 1.45939 0.594952 0
M  V30 34643 C 3408.27 1.51825 1.35354 0
M  V30 34644 C 3408.62 0.162754 1.9171 0
M  V30 34645 O 3407.91 -0.827017 1.72832 0
M  V30 34646 C 3408.11 2.54306 2.51124 0
M  V30 34647 C 3407.94 3.99688 2.06106 0
M  V30 34648 C 3406.71 4.67529 1.9169 0
M  V30 34649 C 3408.91 4.8785 1.62808 0
M  V30 34650 N 3406.89 5.97579 1.40615 0
M  V30 34651 C 3408.26 6.07629 1.23238 0
M  V30 34652 C 3410.31 4.74605 1.50515 0
M  V30 34653 C 3409.02 7.15627 0.725998 0
M  V30 34654 C 3411.04 5.82663 1.0128 0
M  V30 34655 C 3410.4 7.01606 0.626814 0
M  V30 34656 H 3406.5 0.610462 0.488733 0
M  V30 34657 H 3409.09 1.82485 0.678772 0
M  V30 34658 H 3407.26 2.25577 3.1618 0
M  V30 34659 H 3408.99 2.50263 3.18042 0
M  V30 34660 H 3405.75 4.22866 2.13263 0
M  V30 34661 H 3406.17 6.66765 1.17273 0
M  V30 34662 H 3410.81 3.83049 1.78978 0
M  V30 34663 H 3408.53 8.06961 0.428927 0
M  V30 34664 H 3412.12 5.74452 0.921763 0
M  V30 34665 H 3411 7.83796 0.251712 0
M  V30 34666 N 3408.5 -0.838547 1.3344 0
M  V30 34667 C 3409.72 -1.63111 1.281 0
M  V30 34668 C 3410.15 -1.87539 -0.145164 0
M  V30 34669 O 3409.51 -1.43973 -1.10189 0
M  V30 34670 C 3409.55 -2.95823 2.06206 0
M  V30 34671 O 3408.66 -3.87149 1.42088 0
M  V30 34672 H 3408 -0.496674 0.440694 0
M  V30 34673 H 3410.53 -1.04322 1.76006 0
M  V30 34674 H 3410.54 -3.45518 2.16983 0
M  V30 34675 H 3409.21 -2.77366 3.09905 0
M  V30 34676 H 3407.79 -3.45638 1.39959 0
M  V30 34677 N 3409.98 -1.16914 -1.05683 0
M  V30 34678 C 3411.2 -0.979381 -1.82819 0
M  V30 34679 C 3411.63 0.467543 -1.82197 0
M  V30 34680 O 3410.98 1.33443 -1.2273 0
M  V30 34681 C 3411.03 -1.51897 -3.27047 0
M  V30 34682 O 3410.14 -0.729413 -4.05898 0
M  V30 34683 H 3409.48 -0.348086 -0.565449 0
M  V30 34684 H 3412.01 -1.55295 -1.33209 0
M  V30 34685 H 3412.02 -1.53911 -3.77856 0
M  V30 34686 H 3410.69 -2.57225 -3.26815 0
M  V30 34687 H 3409.27 -0.780285 -3.64645 0
M  V30 34688 N 3411.45 1.24323 -0.968589 0
M  V30 34689 C 3412.7 1.92039 -0.629716 0
M  V30 34690 C 3413.02 1.76081 0.837876 0
M  V30 34691 O 3412.29 1.13291 1.59818 0
M  V30 34692 H 3410.87 0.710738 -0.229914 0
M  V30 34693 H 3413.54 1.51198 -1.22985 0
M  V30 34694 H 3412.63 2.99697 -0.871087 0
M  V30 34695 N 3412.93 0.73881 1.3921 0
M  V30 34696 C 3413.84 0.102999 2.34374 0
M  V30 34697 C 3414.86 -0.717568 1.58515 0
M  V30 34698 O 3416.03 -0.645152 1.90787 0
M  V30 34699 C 3413.1 -0.790674 3.37564 0
M  V30 34700 C 3412.16 0.0425783 4.29279 0
M  V30 34701 C 3411.39 -0.808535 5.2754 0
M  V30 34702 O 3411.62 -2.04713 5.32399 0
M  V30 34703 O 3410.55 -0.235173 6.0144 0
M  V30 34704 H 3414.38 0.888549 2.90411 0
M  V30 34705 H 3411.96 0.499523 1.40802 0
M  V30 34706 H 3413.84 -1.30189 4.00785 0
M  V30 34707 H 3412.52 -1.55497 2.83905 0
M  V30 34708 H 3411.43 0.5994 3.69267 0
M  V30 34709 H 3412.76 0.769186 4.86153 0
M  V30 34710 N 3414.41 -1.49895 0.486734 0
M  V30 34711 C 3415.66 -2.02702 -0.0629095 0
M  V30 34712 C 3415.99 -1.36683 -1.37954 0
M  V30 34713 O 3415.26 -0.497711 -1.88024 0
M  V30 34714 C 3415.55 -3.59362 -0.230398 0
M  V30 34715 C 3415.4 -4.35931 1.10835 0
M  V30 34716 C 3416.72 -4.29102 -0.97771 0
M  V30 34717 H 3413.84 -0.73669 -0.0213887 0
M  V30 34718 H 3416.48 -1.79062 0.635371 0
M  V30 34719 H 3414.63 -3.79636 -0.825155 0
M  V30 34720 H 3416.3 -4.27189 1.74089 0
M  V30 34721 H 3414.55 -3.99052 1.70117 0
M  V30 34722 H 3415.22 -5.43857 0.944627 0
M  V30 34723 H 3417.69 -4.13398 -0.473432 0
M  V30 34724 H 3416.57 -5.38494 -1.06372 0
M  V30 34725 H 3416.83 -3.93353 -2.01806 0
M  V30 34726 N 3415.89 -0.219968 -1.56057 0
M  V30 34727 C 3416.82 0.730758 -2.16183 0
M  V30 34728 C 3417.8 1.19213 -1.10576 0
M  V30 34729 O 3418.98 1.27516 -1.38823 0
M  V30 34730 C 3416.11 1.98987 -2.74084 0
M  V30 34731 C 3415.16 1.6686 -3.92505 0
M  V30 34732 S 3415.99 0.794782 -5.29569 0
M  V30 34733 C 3417.15 2.06349 -5.90907 0
M  V30 34734 H 3417.38 0.21971 -2.96487 0
M  V30 34735 H 3414.91 -0.00467968 -1.54399 0
M  V30 34736 H 3416.87 2.71285 -3.08083 0
M  V30 34737 H 3415.53 2.47204 -1.93776 0
M  V30 34738 H 3414.72 2.60407 -4.31514 0
M  V30 34739 H 3414.33 1.02627 -3.59644 0
M  V30 34740 H 3416.62 3.01363 -6.06784 0
M  V30 34741 H 3417.56 1.71733 -6.8696 0
M  V30 34742 H 3417.97 2.2033 -5.19726 0
M  V30 34743 N 3417.37 1.57509 0.0534363 0
M  V30 34744 C 3418.6 1.92098 0.760395 0
M  V30 34745 C 3419.01 0.815935 1.70702 0
M  V30 34746 O 3418.35 -0.2183 1.82398 0
M  V30 34747 C 3418.41 3.22304 1.59249 0
M  V30 34748 C 3418.07 4.49705 0.813276 0
M  V30 34749 C 3419.07 5.19751 0.124311 0
M  V30 34750 C 3416.76 4.96285 0.775018 0
M  V30 34751 C 3418.75 6.3464 -0.592481 0
M  V30 34752 C 3416.44 6.11076 0.0544653 0
M  V30 34753 C 3417.44 6.80106 -0.628067 0
M  V30 34754 O 3417.12 7.92704 -1.33697 0
M  V30 34755 H 3416.86 0.639104 0.220276 0
M  V30 34756 H 3419.41 2.05388 0.0224144 0
M  V30 34757 H 3417.64 3.05273 2.37371 0
M  V30 34758 H 3419.33 3.42402 2.17981 0
M  V30 34759 H 3420.09 4.84783 0.145055 0
M  V30 34760 H 3415.97 4.42415 1.29575 0
M  V30 34761 H 3419.52 6.88456 -1.12578 0
M  V30 34762 H 3415.41 6.45492 0.0317119 0
M  V30 34763 H 3416.18 8.08928 -1.24813 0
M  V30 34764 N 3418.85 -0.325228 1.54208 0
M  V30 34765 C 3419.78 -1.4054 1.86469 0
M  V30 34766 C 3420.76 -1.54047 0.721351 0
M  V30 34767 O 3421.94 -1.67954 0.974935 0
M  V30 34768 C 3419.07 -2.77331 2.09057 0
M  V30 34769 C 3418.03 -2.78614 3.24898 0
M  V30 34770 C 3417.35 -4.18465 3.32854 0
M  V30 34771 C 3418.65 -2.4251 4.62587 0
M  V30 34772 H 3420.35 -1.13789 2.76934 0
M  V30 34773 H 3417.89 -0.545948 1.33249 0
M  V30 34774 H 3419.84 -3.5296 2.30211 0
M  V30 34775 H 3418.57 -3.05556 1.1534 0
M  V30 34776 H 3417.23 -2.05439 3.03629 0
M  V30 34777 H 3416.88 -4.43828 2.36698 0
M  V30 34778 H 3416.58 -4.20229 4.10708 0
M  V30 34779 H 3418.1 -4.95909 3.5624 0
M  V30 34780 H 3419.51 -3.07852 4.83632 0
M  V30 34781 H 3417.91 -2.55528 5.42978 0
M  V30 34782 H 3418.98 -1.37662 4.64949 0
M  V30 34783 N 3420.32 -1.46252 -0.587204 0
M  V30 34784 C 3421.74 -1.31108 -0.910106 0
M  V30 34785 C 3421.94 -0.279176 -1.99557 0
M  V30 34786 O 3421 0.319823 -2.50466 0
M  V30 34787 C 3422.31 -2.69603 -1.33172 0
M  V30 34788 C 3423.86 -2.77658 -1.44481 0
M  V30 34789 C 3424.33 -4.16725 -1.90011 0
M  V30 34790 N 3425.82 -4.1912 -1.97211 0
M  V30 34791 C 3426.56 -5.23612 -2.33705 0
M  V30 34792 N 3426.05 -6.38434 -2.69023 0
M  V30 34793 N 3427.85 -5.10976 -2.34221 0
M  V30 34794 H 3420 -2.12002 0.129907 0
M  V30 34795 H 3422.26 -0.947989 -0.00455051 0
M  V30 34796 H 3421.97 -3.46402 -0.608182 0
M  V30 34797 H 3421.84 -2.99413 -2.29416 0
M  V30 34798 H 3424.23 -2.01151 -2.15922 0
M  V30 34799 H 3424.31 -2.51538 -0.465003 0
M  V30 34800 H 3423.95 -4.93726 -1.1915 0
M  V30 34801 H 3423.88 -4.4025 -2.88942 0
M  V30 34802 H 3426.37 -3.36271 -1.72425 0
M  V30 34803 H 3426.69 -7.13944 -2.9581 0
M  V30 34804 H 3425.03 -6.41803 -2.66672 0
M  V30 34805 H 3428.22 -4.20311 -2.06049 0
M  V30 34806 H 3428.4 -5.92524 -2.62334 0
M  V30 34807 N 3421.8 0.831459 -1.33883 0
M  V30 34808 C 3423.05 1.58717 -1.25758 0
M  V30 34809 C 3423.38 1.93714 0.174712 0
M  V30 34810 O 3422.63 1.59509 1.13381 0
M  V30 34811 C 3422.93 2.90245 -2.08549 0
M  V30 34812 C 3422.6 2.74578 -3.57656 0
M  V30 34813 C 3421.26 2.70013 -3.98304 0
M  V30 34814 C 3423.61 2.58858 -4.52374 0
M  V30 34815 C 3420.94 2.47637 -5.31877 0
M  V30 34816 C 3423.29 2.38015 -5.86116 0
M  V30 34817 C 3421.95 2.31856 -6.25938 0
M  V30 34818 H 3421.22 0.580788 -0.460181 0
M  V30 34819 H 3423.87 0.962711 -1.65542 0
M  V30 34820 H 3422.18 3.56936 -1.61566 0
M  V30 34821 H 3423.87 3.47786 -1.99615 0
M  V30 34822 H 3420.46 2.78967 -3.25385 0
M  V30 34823 H 3424.65 2.61414 -4.21873 0
M  V30 34824 H 3419.9 2.41321 -5.6176 0
M  V30 34825 H 3424.08 2.24836 -6.59107 0
M  V30 34826 H 3421.7 2.14278 -7.29376 0
M  V30 34827 N 3423.28 1.17472 1.05062 0
M  V30 34828 C 3424.7 0.922271 1.30255 0
M  V30 34829 C 3424.9 -0.417861 1.9712 0
M  V30 34830 O 3423.95 -1.15454 2.24559 0
M  V30 34831 C 3425.26 2.08052 2.17105 0
M  V30 34832 C 3426.81 2.1177 2.30483 0
M  V30 34833 C 3427.29 3.26984 3.20695 0
M  V30 34834 N 3428.78 3.26781 3.28281 0
M  V30 34835 C 3429.51 4.12572 3.98211 0
M  V30 34836 N 3429.01 5.08476 4.70558 0
M  V30 34837 N 3430.8 4.00518 3.94388 0
M  V30 34838 H 3422.95 2.03731 0.600617 0
M  V30 34839 H 3425.22 0.889649 0.327459 0
M  V30 34840 H 3424.92 3.04917 1.75268 0
M  V30 34841 H 3424.8 2.03266 3.17746 0
M  V30 34842 H 3427.18 1.1549 2.71562 0
M  V30 34843 H 3427.26 2.20617 1.29467 0
M  V30 34844 H 3426.91 4.2353 2.8033 0
M  V30 34845 H 3426.84 3.15373 4.21719 0
M  V30 34846 H 3429.33 2.57345 2.76735 0
M  V30 34847 H 3429.64 5.7033 5.21482 0
M  V30 34848 H 3427.99 5.12444 4.69496 0
M  V30 34849 H 3431.18 3.24888 3.36995 0
M  V30 34850 H 3431.35 4.67596 4.48618 0
M  V30 34851 N 3424.76 -1.23807 0.975168 0
M  V30 34852 C 3425.98 -1.96664 0.658639 0
M  V30 34853 C 3426.41 -1.71765 -0.766714 0
M  V30 34854 O 3425.77 -0.985914 -1.52149 0
M  V30 34855 C 3425.81 -3.47902 0.948499 0
M  V30 34856 O 3424.92 -4.12383 0.0377966 0
M  V30 34857 H 3424.26 -0.615851 0.248242 0
M  V30 34858 H 3426.79 -1.57384 1.30734 0
M  V30 34859 H 3426.8 -3.98329 0.88307 0
M  V30 34860 H 3425.47 -3.65352 1.98723 0
M  V30 34861 H 3424.05 -3.72569 0.157187 0
M  V30 34862 N 3426.24 -0.746182 -1.38816 0
M  V30 34863 C 3427.51 -0.224875 -1.94303 0
M  V30 34864 C 3427.89 1.27549 -1.68209 0
M  V30 34865 O 3427.24 2.04645 -1.0165 0
M  V30 34866 C 3427.45 -0.57056 -3.44305 0
M  V30 34867 C 3428.8 -0.526089 -4.21328 0
M  V30 34868 O 3429.82 -0.508413 -3.52553 0
M  V30 34869 O 3428.68 -0.530479 -5.43919 0
M  V30 34870 H 3425.78 -0.0448192 -0.825785 0
M  V30 34871 H 3428.32 -0.825801 -1.48252 0
M  V30 34872 H 3427.09 -1.60707 -3.56776 0
M  V30 34873 H 3426.72 0.0587572 -3.97557 0
M  V30 34874 N 3427.71 1.49635 -0.494676 0
M  V30 34875 C 3428.66 2.30646 0.300888 0
M  V30 34876 C 3429.66 1.38972 0.968662 0
M  V30 34877 O 3430.86 1.56053 0.897073 0
M  V30 34878 H 3427.24 0.743017 0.115887 0
M  V30 34879 H 3429.21 2.95674 -0.402439 0
M  V30 34880 C 3427.96 3.20155 1.35632 0
M  V30 34881 H 3427.28 3.90619 0.851878 0
M  V30 34882 H 3428.72 3.7979 1.88508 0
M  V30 34883 C 3427.18 2.39336 2.37108 0
M  V30 34884 O 3427.71 2.09304 3.42863 0
M  V30 34885 N 3425.91 2.01476 2.09417 0
M  V30 34886 H 3425.46 2.261 1.23437 0
M  V30 34887 H 3425.42 1.47708 2.77542 0
M  V30 34888 N 3429.19 0.228241 1.55939 0
M  V30 34889 C 3430.42 -0.409328 2.03321 0
M  V30 34890 C 3430.84 -1.52086 1.10686 0
M  V30 34891 O 3430.2 -1.81044 0.0962802 0
M  V30 34892 C 3430.25 -0.91192 3.48879 0
M  V30 34893 O 3429.35 -2.02283 3.59382 0
M  V30 34894 H 3428.69 -0.0917793 0.657626 0
M  V30 34895 H 3431.22 0.348837 2.01604 0
M  V30 34896 H 3431.23 -1.22 3.89333 0
M  V30 34897 H 3429.91 -0.0984171 4.15784 0
M  V30 34898 H 3428.48 -1.72087 3.30818 0
M  V30 34899 N 3430.67 -1.57536 -0.0450825 0
M  V30 34900 C 3432.08 -1.77009 -0.593689 0
M  V30 34901 C 3432.43 -0.857264 -1.76481 0
M  V30 34902 O 3431.56 -0.0480083 -2.16347 0
M  V30 34903 C 3432.15 -3.20998 -1.08377 0
M  V30 34904 C 3430.71 -3.41724 -1.57802 0
M  V30 34905 C 3429.86 -2.72588 -0.509019 0
M  V30 34906 H 3432.81 -1.57663 0.181142 0
M  V30 34907 H 3432.83 -3.2663 -1.95175 0
M  V30 34908 H 3432.34 -3.87411 -0.231208 0
M  V30 34909 H 3430.44 -2.80464 -2.45297 0
M  V30 34910 H 3430.56 -4.50281 -1.63656 0
M  V30 34911 H 3428.92 -2.35901 -0.960347 0
M  V30 34912 H 3429.7 -3.41673 0.333813 0
M  V30 34913 N 3432.15 0.317045 -1.54378 0
M  V30 34914 C 3433.38 1.07359 -1.76866 0
M  V30 34915 C 3433.79 1.81487 -0.520386 0
M  V30 34916 O 3433.15 1.75253 0.509182 0
M  V30 34917 C 3433.2 2.06663 -2.96602 0
M  V30 34918 O 3432.92 1.35544 -4.16604 0
M  V30 34919 C 3434.42 2.94483 -3.31353 0
M  V30 34920 H 3431.64 0.319073 -0.590283 0
M  V30 34921 H 3434.19 0.361192 -2.01285 0
M  V30 34922 H 3432.34 2.73427 -2.74438 0
M  V30 34923 H 3432.75 2.021 -4.84 0
M  V30 34924 H 3434.23 3.60044 -4.18417 0
M  V30 34925 H 3434.71 3.6193 -2.48803 0
M  V30 34926 H 3435.31 2.33271 -3.55619 0
M  V30 34927 N 3433.63 1.46561 0.57944 0
M  V30 34928 C 3434.58 1.53788 1.68325 0
M  V30 34929 C 3435.56 0.39854 1.55886 0
M  V30 34930 O 3436.75 0.647148 1.64745 0
M  V30 34931 C 3433.88 1.53422 3.0711 0
M  V30 34932 C 3432.97 2.72661 3.24834 0
M  V30 34933 N 3433.36 3.97555 3.12704 0
M  V30 34934 C 3431.66 2.68953 3.55781 0
M  V30 34935 C 3432.36 4.7729 3.3252 0
M  V30 34936 N 3431.33 4.0922 3.57827 0
M  V30 34937 H 3435.14 2.48146 1.57482 0
M  V30 34938 H 3432.65 1.42246 0.783566 0
M  V30 34939 H 3434.65 1.56686 3.86335 0
M  V30 34940 H 3433.31 0.601421 3.19082 0
M  V30 34941 H 3434.32 4.28754 2.90501 0
M  V30 34942 H 3430.99 1.84712 3.74417 0
M  V30 34943 H 3432.38 5.86234 3.28298 0
M  V30 34944 N 3435.1 -0.824347 1.34322 0
M  V30 34945 C 3436.35 -1.58282 1.26785 0
M  V30 34946 C 3436.68 -1.93521 -0.162248 0
M  V30 34947 O 3435.96 -1.59905 -1.10727 0
M  V30 34948 C 3436.24 -2.88327 2.1573 0
M  V30 34949 C 3436.09 -2.59678 3.6727 0
M  V30 34950 C 3437.41 -3.89887 2.04148 0
M  V30 34951 H 3434.53 -0.574294 0.461904 0
M  V30 34952 H 3437.17 -0.94974 1.6456 0
M  V30 34953 H 3435.32 -3.42355 1.83645 0
M  V30 34954 H 3437 -2.11971 4.09715 0
M  V30 34955 H 3435.24 -1.93144 3.8843 0
M  V30 34956 H 3435.91 -3.52406 4.24869 0
M  V30 34957 H 3438.39 -3.45208 2.32316 0
M  V30 34958 H 3437.26 -4.78686 2.6861 0
M  V30 34959 H 3437.52 -4.30219 1.01803 0
M  V30 34960 N 3436.58 -1.18028 -1.04437 0
M  V30 34961 C 3437.83 -0.971423 -1.77222 0
M  V30 34962 C 3438.15 0.50053 -1.88467 0
M  V30 34963 O 3437.42 1.36315 -1.40695 0
M  V30 34964 H 3436 -0.356433 -0.656479 0
M  V30 34965 H 3438.66 -1.48642 -1.26062 0
M  V30 34966 H 3437.76 -1.40625 -2.78623 0
M  V30 34967 N 3438.06 1.23288 -0.98172 0
M  V30 34968 C 3439.31 1.91739 -0.651335 0
M  V30 34969 C 3439.64 1.76588 0.815287 0
M  V30 34970 O 3438.89 1.12153 1.60375 0
M  V30 34971 C 3439.19 3.43435 -0.989304 0
M  V30 34972 C 3438.86 3.78767 -2.44635 0
M  V30 34973 C 3437.52 3.88122 -2.84455 0
M  V30 34974 C 3439.87 3.95778 -3.3913 0
M  V30 34975 C 3437.2 4.11916 -4.17782 0
M  V30 34976 C 3439.55 4.21073 -4.72102 0
M  V30 34977 C 3438.21 4.2865 -5.11679 0
M  V30 34978 H 3437.48 0.701623 -0.23834 0
M  V30 34979 H 3440.13 1.46286 -1.23583 0
M  V30 34980 H 3438.44 3.90468 -0.322745 0
M  V30 34981 H 3440.13 3.94631 -0.711865 0
M  V30 34982 H 3436.72 3.7206 -2.12765 0
M  V30 34983 H 3440.91 3.87939 -3.09543 0
M  V30 34984 H 3436.16 4.16005 -4.48051 0
M  V30 34985 H 3440.34 4.33179 -5.45279 0
M  V30 34986 H 3437.96 4.4684 -6.15011 0
M  V30 34987 N 3439.54 0.753533 1.38418 0
M  V30 34988 C 3440.49 0.125781 2.30457 0
M  V30 34989 C 3441.46 -0.709702 1.50175 0
M  V30 34990 O 3442.64 -0.665841 1.78805 0
M  V30 34991 C 3439.78 -0.761444 3.36595 0
M  V30 34992 C 3438.89 0.0886608 4.31909 0
M  V30 34993 C 3438.03 -0.801563 5.25118 0
M  V30 34994 C 3437.07 0.0521795 6.12078 0
M  V30 34995 N 3436.2 -0.795001 6.97585 0
M  V30 34996 H 3441.04 0.916237 2.83565 0
M  V30 34997 H 3438.58 0.46346 1.39608 0
M  V30 34998 H 3440.54 -1.29047 3.9674 0
M  V30 34999 H 3439.17 -1.51769 2.84897 0
M  V30 35000 H 3438.22 0.735314 3.73226 0
M  V30 35001 H 3439.53 0.747985 4.9316 0
M  V30 35002 H 3438.69 -1.39776 5.90379 0
M  V30 35003 H 3437.43 -1.49462 4.64233 0
M  V30 35004 H 3436.43 0.661042 5.45812 0
M  V30 35005 H 3437.66 0.742297 6.75031 0
M  V30 35006 H 3435.6 -1.47301 6.39248 0
M  V30 35007 H 3435.52 -0.192572 7.55755 0
M  V30 35008 H 3436.79 -1.37617 7.67256 0
M  V30 35009 N 3441.02 -1.49371 0.502605 0
M  V30 35010 C 3441.98 -2.27675 -0.263953 0
M  V30 35011 C 3442.98 -1.33757 -0.892515 0
M  V30 35012 O 3444.17 -1.56902 -0.756798 0
M  V30 35013 C 3441.3 -3.11768 -1.3789 0
M  V30 35014 H 3442.49 -2.96899 0.423185 0
M  V30 35015 H 3440.05 -1.54162 0.257622 0
M  V30 35016 H 3440.78 -2.47113 -2.10014 0
M  V30 35017 H 3440.57 -3.80823 -0.933627 0
M  V30 35018 H 3442.06 -3.70906 -1.91882 0
M  V30 35019 N 3442.49 -0.236508 -1.55815 0
M  V30 35020 C 3443.44 0.667411 -2.2094 0
M  V30 35021 C 3444.41 1.17915 -1.16984 0
M  V30 35022 O 3445.6 1.23552 -1.45394 0
M  V30 35023 C 3442.74 1.86332 -2.90472 0
M  V30 35024 C 3441.85 1.38908 -4.09058 0
M  V30 35025 C 3440.98 2.54374 -4.66334 0
M  V30 35026 C 3440.02 2.0376 -5.7719 0
M  V30 35027 N 3439.16 3.12553 -6.28693 0
M  V30 35028 H 3444 0.105359 -2.97814 0
M  V30 35029 H 3441.54 0.0402453 -1.47045 0
M  V30 35030 H 3443.5 2.5657 -3.2898 0
M  V30 35031 H 3442.13 2.39802 -2.1609 0
M  V30 35032 H 3441.18 0.581107 -3.75935 0
M  V30 35033 H 3442.49 0.978066 -4.89117 0
M  V30 35034 H 3441.64 3.3267 -5.07361 0
M  V30 35035 H 3440.38 2.98771 -3.8547 0
M  V30 35036 H 3439.39 1.2393 -5.35651 0
M  V30 35037 H 3440.61 1.60344 -6.59899 0
M  V30 35038 H 3438.56 3.56405 -5.50737 0
M  V30 35039 H 3438.48 2.7575 -7.03916 0
M  V30 35040 H 3439.74 3.9094 -6.74378 0
M  V30 35041 N 3443.97 1.57557 0.0367273 0
M  V30 35042 C 3445.2 1.92893 0.739978 0
M  V30 35043 C 3445.61 0.833994 1.69827 0
M  V30 35044 O 3444.95 -0.198942 1.8262 0
M  V30 35045 C 3445.02 3.23975 1.55822 0
M  V30 35046 C 3444.68 4.50543 0.765533 0
M  V30 35047 C 3445.68 5.19854 0.0691772 0
M  V30 35048 C 3443.36 4.97079 0.722337 0
M  V30 35049 C 3445.36 6.33976 -0.65976 0
M  V30 35050 C 3443.04 6.11099 -0.0103505 0
M  V30 35051 C 3444.04 6.79402 -0.700166 0
M  V30 35052 O 3443.73 7.91242 -1.42097 0
M  V30 35053 H 3443.46 0.641405 0.213485 0
M  V30 35054 H 3446.01 2.054 0.000629048 0
M  V30 35055 H 3444.24 3.07774 2.3412 0
M  V30 35056 H 3445.93 3.44695 2.14337 0
M  V30 35057 H 3446.7 4.8491 0.0936295 0
M  V30 35058 H 3442.58 4.43765 1.24875 0
M  V30 35059 H 3446.12 6.87224 -1.19873 0
M  V30 35060 H 3442.02 6.4549 -0.0367529 0
M  V30 35061 H 3442.79 8.07558 -1.33386 0
M  V30 35062 N 3445.45 -0.308854 1.54544 0
M  V30 35063 C 3446.68 -1.06854 1.77755 0
M  V30 35064 C 3447.1 -1.8043 0.531648 0
M  V30 35065 O 3446.46 -1.73758 -0.517482 0
M  V30 35066 C 3446.51 -2.03089 2.97972 0
M  V30 35067 O 3445.61 -3.11253 2.70547 0
M  V30 35068 H 3444.95 -0.307357 0.588581 0
M  V30 35069 H 3447.48 -0.348667 2.01607 0
M  V30 35070 H 3447.49 -2.45696 3.25726 0
M  V30 35071 H 3446.17 -1.48941 3.88316 0
M  V30 35072 H 3444.74 -2.73216 2.53786 0
M  V30 35073 N 3446.93 -1.46867 -0.571659 0
M  V30 35074 C 3448.18 -1.52012 -1.32572 0
M  V30 35075 C 3448.49 -0.180872 -1.94762 0
M  V30 35076 O 3449.7 -0.110206 -2.71276 0
M  V30 35077 C 3448.15 -2.67902 -2.40326 0
M  V30 35078 C 3447.76 -4.08294 -1.84391 0
M  V30 35079 C 3449.51 -2.82327 -3.17004 0
M  V30 35080 C 3447.41 -5.15507 -2.8984 0
M  V30 35081 H 3446.34 -0.56577 -0.498418 0
M  V30 35082 H 3448.99 -1.73106 -0.608823 0
M  V30 35083 H 3447.38 -2.40159 -3.14865 0
M  V30 35084 H 3448.55 -4.45877 -1.16321 0
M  V30 35085 H 3446.86 -3.9863 -1.20344 0
M  V30 35086 H 3449.46 -3.59594 -3.95722 0
M  V30 35087 H 3449.8 -1.90243 -3.70288 0
M  V30 35088 H 3450.34 -3.0977 -2.49575 0
M  V30 35089 H 3447.08 -6.0942 -2.41429 0
M  V30 35090 H 3446.6 -4.82457 -3.56364 0
M  V30 35091 H 3448.28 -5.41831 -3.53593 0
M  V30 35092 N 3448.41 0.817212 -1.34757 0
M  V30 35093 C 3449.37 1.91003 -1.2669 0
M  V30 35094 C 3450.37 1.59781 -0.180773 0
M  V30 35095 O 3451.56 1.68713 -0.433777 0
M  V30 35096 C 3448.69 3.27181 -0.95735 0
M  V30 35097 H 3449.89 1.99578 -2.2385 0
M  V30 35098 H 3447.44 1.01185 -1.19127 0
M  V30 35099 H 3448.17 3.24298 0.0108347 0
M  V30 35100 H 3447.96 3.51227 -1.74304 0
M  V30 35101 H 3449.45 4.07199 -0.926233 0
M  V30 35102 N 3449.89 1.1858 1.0381 0
M  V30 35103 C 3450.82 0.872908 2.11927 0
M  V30 35104 C 3451.83 -0.130563 1.62276 0
M  V30 35105 O 3453.02 0.0976182 1.78233 0
M  V30 35106 C 3450.12 0.28338 3.37713 0
M  V30 35107 C 3449.29 1.33314 4.16589 0
M  V30 35108 C 3448.35 0.758837 5.207 0
M  V30 35109 O 3447.38 1.43421 5.50835 0
M  V30 35110 N 3448.58 -0.442403 5.78812 0
M  V30 35111 H 3451.34 1.8035 2.39361 0
M  V30 35112 H 3448.91 1.08654 1.20025 0
M  V30 35113 H 3450.9 -0.114453 4.04538 0
M  V30 35114 H 3449.47 -0.551293 3.077 0
M  V30 35115 H 3448.69 1.90619 3.45048 0
M  V30 35116 H 3449.98 2.04079 4.66079 0
M  V30 35117 H 3449.37 -1.00879 5.56633 0
M  V30 35118 H 3447.93 -0.782126 6.4709 0
M  V30 35119 N 3451.36 -1.22766 0.988245 0
M  V30 35120 C 3452.6 -1.9312 0.669633 0
M  V30 35121 C 3452.97 -1.75295 -0.7833 0
M  V30 35122 O 3454.17 -2.39869 -1.21311 0
M  V30 35123 C 3452.44 -3.41356 1.05882 0
M  V30 35124 S 3454 -4.30332 0.857873 0
M  V30 35125 H 3450.82 -0.667461 0.244983 0
M  V30 35126 H 3453.42 -1.4867 1.26954 0
M  V30 35127 H 3452.12 -3.51841 2.11273 0
M  V30 35128 H 3451.65 -3.90812 0.450521 0
M  V30 35129 H 3453.67 -4.95549 -0.254084 0
M  V30 35130 N 3452.84 -0.760864 -1.38017 0
M  V30 35131 C 3454.09 -0.319644 -1.99556 0
M  V30 35132 C 3454.41 1.10455 -1.60701 0
M  V30 35133 O 3453.68 1.75656 -0.867279 0
M  V30 35134 H 3452.26 -0.115195 -0.738064 0
M  V30 35135 H 3454.92 -0.976574 -1.68668 0
M  V30 35136 H 3454.02 -0.388577 -3.09672 0
M  V30 35137 N 3454.32 1.49102 -0.510519 0
M  V30 35138 C 3455.57 2.02077 0.0305475 0
M  V30 35139 C 3455.89 1.3916 1.366 0
M  V30 35140 O 3455.16 0.550187 1.88015 0
M  V30 35141 H 3453.74 0.746864 0.0142785 0
M  V30 35142 H 3456.4 1.83025 -0.669927 0
M  V30 35143 H 3455.5 3.11724 0.153228 0
M  V30 35144 N 3455.8 0.244768 1.55688 0
M  V30 35145 C 3457.21 -0.110131 1.5922 0
M  V30 35146 C 3457.41 -1.57093 1.2619 0
M  V30 35147 O 3456.47 -2.31499 1.0082 0
M  V30 35148 C 3457.78 0.237128 2.99764 0
M  V30 35149 C 3459.33 0.181253 3.12475 0
M  V30 35150 C 3459.81 0.502515 4.55235 0
M  V30 35151 N 3461.3 0.452936 4.6098 0
M  V30 35152 C 3462.03 0.674705 5.69417 0
M  V30 35153 N 3461.53 0.959487 6.86124 0
M  V30 35154 N 3463.32 0.605557 5.58829 0
M  V30 35155 H 3455.47 1.19744 1.75428 0
M  V30 35156 H 3457.73 0.481649 0.816528 0
M  V30 35157 H 3457.44 1.25191 3.28664 0
M  V30 35158 H 3457.31 -0.436794 3.74662 0
M  V30 35159 H 3459.7 -0.824198 2.83357 0
M  V30 35160 H 3459.78 0.888994 2.39855 0
M  V30 35161 H 3459.43 1.50551 4.85074 0
M  V30 35162 H 3459.36 -0.22668 5.26112 0
M  V30 35163 H 3461.85 0.241467 3.77128 0
M  V30 35164 H 3462.16 1.11618 7.64697 0
M  V30 35165 H 3460.51 0.996937 6.87813 0
M  V30 35166 H 3463.7 0.383135 4.66529 0
M  V30 35167 H 3463.87 0.781787 6.43267 0
M  V30 35168 N 3457.28 -1.57574 -0.0283712 0
M  V30 35169 C 3458.52 -1.89584 -0.720109 0
M  V30 35170 C 3458.85 -0.842592 -1.74969 0
M  V30 35171 O 3458.13 0.14226 -1.93979 0
M  V30 35172 C 3458.41 -3.32232 -1.38903 0
M  V30 35173 C 3458.27 -4.48251 -0.372919 0
M  V30 35174 C 3459.58 -3.73808 -2.32283 0
M  V30 35175 H 3456.7 -0.689495 -0.260318 0
M  V30 35176 H 3459.35 -1.89992 0.0170941 0
M  V30 35177 H 3457.5 -3.32015 -2.01739 0
M  V30 35178 H 3459.17 -4.60603 0.253573 0
M  V30 35179 H 3457.41 -4.32707 0.307726 0
M  V30 35180 H 3458.08 -5.44949 -0.879453 0
M  V30 35181 H 3460.56 -3.75396 -1.7949 0
M  V30 35182 H 3459.43 -4.74424 -2.76067 0
M  V30 35183 H 3459.69 -3.06105 -3.18986 0
M  V30 35184 N 3458.75 0.300654 -1.54706 0
M  V30 35185 C 3460.16 0.873625 -1.64999 0
M  V30 35186 C 3460.52 1.88072 -0.558875 0
M  V30 35187 O 3459.64 2.14248 0.304436 0
M  V30 35188 C 3460.24 1.59133 -2.99102 0
M  V30 35189 C 3458.79 2.1127 -3.11515 0
M  V30 35190 C 3457.94 0.945505 -2.60683 0
M  V30 35191 H 3460.89 0.0776473 -1.5851 0
M  V30 35192 H 3460.91 2.45691 -2.90545 0
M  V30 35193 H 3460.43 0.858106 -3.78495 0
M  V30 35194 H 3458.53 2.87639 -2.36843 0
M  V30 35195 H 3458.64 2.34699 -4.17676 0
M  V30 35196 H 3457 1.33117 -2.17145 0
M  V30 35197 H 3457.79 0.226231 -3.42554 0
M  V30 35198 N 3460.23 1.47168 0.563863 0
M  V30 35199 C 3461.48 1.53148 1.31872 0
M  V30 35200 C 3461.8 0.192552 1.94047 0
M  V30 35201 O 3461.07 -0.782841 1.79578 0
M  V30 35202 H 3459.65 0.564108 0.489684 0
M  V30 35203 H 3462.31 1.83423 0.658944 0
M  V30 35204 H 3461.41 2.29444 2.1157 0
M  V30 35205 N 3461.71 -0.810054 1.35188 0
M  V30 35206 C 3462.64 -1.92968 1.23676 0
M  V30 35207 C 3463.66 -1.62003 0.160848 0
M  V30 35208 O 3464.84 -1.73637 0.413823 0
M  V30 35209 C 3461.94 -3.2725 0.880944 0
M  V30 35210 C 3461.12 -3.86146 2.05451 0
M  V30 35211 C 3460.18 -4.98828 1.67503 0
M  V30 35212 O 3459.2 -5.16439 2.39331 0
M  V30 35213 N 3460.4 -5.77426 0.596641 0
M  V30 35214 H 3463.17 -2.03372 2.20136 0
M  V30 35215 H 3460.73 -0.987299 1.28312 0
M  V30 35216 H 3462.72 -4.00097 0.608627 0
M  V30 35217 H 3461.29 -3.12599 0.00613421 0
M  V30 35218 H 3460.51 -3.05535 2.49083 0
M  V30 35219 H 3461.8 -4.22226 2.83906 0
M  V30 35220 H 3461.2 -5.657 -0.000213155 0
M  V30 35221 H 3459.76 -6.50667 0.384094 0
M  V30 35222 N 3463.19 -1.19129 -1.0318 0
M  V30 35223 C 3464.41 -1.01794 -1.80701 0
M  V30 35224 C 3464.84 0.428792 -1.83147 0
M  V30 35225 O 3464.2 1.3081 -1.25533 0
M  V30 35226 C 3464.24 -1.588 -3.23751 0
M  V30 35227 O 3463.35 -0.815345 -4.0426 0
M  V30 35228 H 3462.69 -0.360002 -0.557938 0
M  V30 35229 H 3465.22 -1.58086 -1.29885 0
M  V30 35230 H 3465.23 -1.61891 -3.74507 0
M  V30 35231 H 3463.9 -2.641 -3.21285 0
M  V30 35232 H 3462.48 -0.857456 -3.62908 0
M  V30 35233 N 3464.67 1.2224 -0.994741 0
M  V30 35234 C 3465.91 1.9066 -0.670308 0
M  V30 35235 C 3466.24 1.77819 0.800338 0
M  V30 35236 O 3465.51 1.16656 1.57379 0
M  V30 35237 H 3464.09 0.705701 -0.244938 0
M  V30 35238 H 3466.75 1.48555 -1.26164 0
M  V30 35239 H 3465.84 2.97782 -0.934461 0
M  V30 35240 N 3466.14 0.768172 1.37611 0
M  V30 35241 C 3467.39 0.331366 2.00075 0
M  V30 35242 C 3467.72 -1.0883 1.60841 0
M  V30 35243 O 3467 -1.74803 0.85288 0
M  V30 35244 C 3467.28 0.470852 3.57008 0
M  V30 35245 C 3467.13 1.93267 4.06162 0
M  V30 35246 C 3468.45 -0.127033 4.39917 0
M  V30 35247 H 3465.57 0.121876 0.726853 0
M  V30 35248 H 3468.21 0.970546 1.63341 0
M  V30 35249 H 3466.36 -0.0733005 3.88431 0
M  V30 35250 H 3468.04 2.53625 3.85321 0
M  V30 35251 H 3466.28 2.44272 3.58488 0
M  V30 35252 H 3466.95 1.98135 5.15215 0
M  V30 35253 H 3469.43 0.337217 4.14731 0
M  V30 35254 H 3468.3 0.000720709 5.489 0
M  V30 35255 H 3468.56 -1.21696 4.25021 0
M  V30 35256 N 3467.62 -1.48829 0.518419 0
M  V30 35257 C 3468.87 -2.0279 -0.0198992 0
M  V30 35258 C 3469.2 -1.39579 -1.35024 0
M  V30 35259 O 3468.48 -0.537482 -1.86926 0
M  V30 35260 C 3468.76 -3.5977 -0.15412 0
M  V30 35261 C 3468.61 -4.33482 1.20057 0
M  V30 35262 C 3469.93 -4.3108 -0.886471 0
M  V30 35263 H 3467.05 -0.736978 -0.00575766 0
M  V30 35264 H 3469.69 -1.77674 0.673209 0
M  V30 35265 H 3467.84 -3.81301 -0.744443 0
M  V30 35266 H 3469.51 -4.234 1.83111 0
M  V30 35267 H 3467.76 -3.95354 1.78544 0
M  V30 35268 H 3468.43 -5.41731 1.05977 0
M  V30 35269 H 3470.9 -4.14309 -0.385638 0
M  V30 35270 H 3469.78 -5.4063 -0.94926 0
M  V30 35271 H 3470.04 -3.97545 -1.93417 0
M  V30 35272 N 3469.1 -0.253021 -1.55556 0
M  V30 35273 C 3470.01 0.654542 -2.25284 0
M  V30 35274 C 3471.03 1.18829 -1.27105 0
M  V30 35275 O 3472.2 1.22326 -1.59995 0
M  V30 35276 C 3469.27 1.83208 -2.94339 0
M  V30 35277 C 3468.33 1.33721 -4.07943 0
M  V30 35278 C 3467.56 2.45862 -4.73695 0
M  V30 35279 O 3467.78 3.64731 -4.38552 0
M  V30 35280 O 3466.72 2.15273 -5.62086 0
M  V30 35281 H 3470.54 0.0903558 -3.03566 0
M  V30 35282 H 3468.13 -0.0212797 -1.49385 0
M  V30 35283 H 3470.01 2.51914 -3.37813 0
M  V30 35284 H 3468.69 2.38378 -2.18993 0
M  V30 35285 H 3467.59 0.617258 -3.68973 0
M  V30 35286 H 3468.93 0.831532 -4.85125 0
M  V30 35287 N 3470.58 1.57587 0.0200142 0
M  V30 35288 C 3471.8 1.94345 0.724207 0
M  V30 35289 C 3472.23 0.853718 1.6761 0
M  V30 35290 O 3471.59 -0.189841 1.80303 0
M  V30 35291 C 3471.63 3.3018 1.44961 0
M  V30 35292 O 3470.74 3.23069 2.56321 0
M  V30 35293 H 3470.08 0.634988 0.194131 0
M  V30 35294 H 3472.61 2.04582 -0.0272116 0
M  V30 35295 H 3472.62 3.65281 1.81752 0
M  V30 35296 H 3471.29 4.09053 0.751538 0
M  V30 35297 H 3469.87 2.99613 2.22006 0
M  V30 35298 N 3472.06 -0.292445 1.54863 0
M  V30 35299 C 3473.31 -1.02426 1.73758 0
M  V30 35300 C 3473.62 -1.88136 0.535197 0
M  V30 35301 O 3474.82 -2.64647 0.606139 0
M  V30 35302 C 3473.28 -1.87084 3.07453 0
M  V30 35303 C 3472.89 -1.06336 4.35197 0
M  V30 35304 C 3474.63 -2.59813 3.35704 0
M  V30 35305 C 3472.54 -1.9032 5.5994 0
M  V30 35306 H 3471.47 -0.386133 0.647624 0
M  V30 35307 H 3474.12 -0.280828 1.81338 0
M  V30 35308 H 3472.5 -2.65448 2.9386 0
M  V30 35309 H 3473.68 -0.325254 4.59651 0
M  V30 35310 H 3471.99 -0.451502 4.13945 0
M  V30 35311 H 3474.59 -3.23015 4.26105 0
M  V30 35312 H 3474.93 -3.2909 2.54962 0
M  V30 35313 H 3475.46 -1.88493 3.50308 0
M  V30 35314 H 3472.2 -1.25498 6.43374 0
M  V30 35315 H 3471.72 -2.6178 5.39659 0
M  V30 35316 H 3473.4 -2.48161 5.97516 0
M  V30 35317 N 3473.53 -1.47465 -0.55605 0
M  V30 35318 C 3474.78 -1.53845 -1.31058 0
M  V30 35319 C 3475.1 -0.20284 -1.93942 0
M  V30 35320 O 3474.37 0.773306 -1.79991 0
M  V30 35321 H 3472.95 -0.566697 -0.486686 0
M  V30 35322 H 3475.62 -1.8377 -0.649208 0
M  V30 35323 H 3474.71 -2.30563 -2.1035 0
M  V30 35324 N 3475.01 0.802873 -1.35616 0
M  V30 35325 C 3475.96 1.9043 -1.25381 0
M  V30 35326 C 3476.95 1.60216 -0.148245 0
M  V30 35327 O 3478.14 1.72877 -0.379813 0
M  V30 35328 C 3475.27 3.27428 -1.03178 0
M  V30 35329 C 3474.35 3.63696 -2.18142 0
M  V30 35330 N 3474.75 3.71373 -3.43388 0
M  V30 35331 C 3473.04 3.93675 -2.0961 0
M  V30 35332 C 3473.74 4.03491 -4.19011 0
M  V30 35333 N 3472.72 4.1777 -3.47807 0
M  V30 35334 H 3476.52 1.94572 -2.2027 0
M  V30 35335 H 3474.04 0.997664 -1.28142 0
M  V30 35336 H 3476.03 4.0618 -0.939335 0
M  V30 35337 H 3474.69 3.2457 -0.0917661 0
M  V30 35338 H 3475.7 3.54356 -3.77693 0
M  V30 35339 H 3472.38 3.9882 -1.23486 0
M  V30 35340 H 3473.77 4.16466 -5.27262 0
M  V30 35341 N 3476.49 1.19674 1.02547 0
M  V30 35342 C 3477.9 1.00328 1.57452 0
M  V30 35343 C 3478.25 -0.442855 1.91137 0
M  V30 35344 O 3477.38 -1.32281 1.71262 0
M  V30 35345 C 3477.97 1.81491 2.86088 0
M  V30 35346 C 3476.53 1.66536 3.37554 0
M  V30 35347 C 3475.68 1.79979 2.10957 0
M  V30 35348 H 3478.63 1.33996 0.850341 0
M  V30 35349 H 3478.65 1.31302 3.57127 0
M  V30 35350 H 3478.16 2.86737 2.6154 0
M  V30 35351 H 3476.26 0.638898 3.67082 0
M  V30 35352 H 3476.38 2.47276 4.10355 0
M  V30 35353 H 3474.74 1.23075 2.2299 0
M  V30 35354 H 3475.52 2.86691 1.88847 0
M  V30 35355 N 3477.97 -1.21711 1.00121 0
M  V30 35356 C 3479.2 -1.94682 0.700465 0
M  V30 35357 C 3479.61 -1.73851 -0.736303 0
M  V30 35358 O 3478.97 -1.04275 -1.49776 0
M  V30 35359 C 3479.02 -3.47183 1.00729 0
M  V30 35360 O 3478.74 -3.67321 2.38761 0
M  V30 35361 C 3480.24 -4.37324 0.725412 0
M  V30 35362 H 3477.46 -0.619233 0.258441 0
M  V30 35363 H 3480.01 -1.54634 1.33823 0
M  V30 35364 H 3478.16 -3.85169 0.415184 0
M  V30 35365 H 3478.58 -4.61449 2.49329 0
M  V30 35366 H 3480.05 -5.43044 0.990297 0
M  V30 35367 H 3480.53 -4.37878 -0.340573 0
M  V30 35368 H 3481.13 -4.04978 1.29895 0
M  V30 35369 N 3479.45 -0.775459 -1.37202 0
M  V30 35370 C 3480.38 -0.178301 -2.32818 0
M  V30 35371 C 3481.36 0.678916 -1.55964 0
M  V30 35372 O 3482.54 0.615615 -1.84184 0
M  V30 35373 C 3479.67 0.698708 -3.40199 0
M  V30 35374 C 3478.63 -0.0574982 -4.27961 0
M  V30 35375 C 3477.95 0.939198 -5.26387 0
M  V30 35376 C 3479.25 -1.23865 -5.074 0
M  V30 35377 H 3480.95 -0.977078 -2.83008 0
M  V30 35378 H 3478.49 -0.471298 -1.36069 0
M  V30 35379 H 3480.45 1.1263 -4.06069 0
M  V30 35380 H 3479.17 1.53004 -2.88543 0
M  V30 35381 H 3477.83 -0.465912 -3.63627 0
M  V30 35382 H 3477.48 1.76518 -4.7101 0
M  V30 35383 H 3477.18 0.437741 -5.85967 0
M  V30 35384 H 3478.7 1.36565 -5.95132 0
M  V30 35385 H 3480.12 -0.887523 -5.66388 0
M  V30 35386 H 3478.51 -1.67245 -5.76324 0
M  V30 35387 H 3479.58 -2.04093 -4.39857 0
M  V30 35388 N 3480.93 1.48552 -0.526305 0
M  V30 35389 C 3482.34 1.86507 -0.0849022 0
M  V30 35390 C 3482.69 1.43623 1.33667 0
M  V30 35391 O 3481.81 0.825303 2.00044 0
M  V30 35392 C 3482.41 3.3848 -0.147301 0
M  V30 35393 C 3480.97 3.75641 0.238888 0
M  V30 35394 C 3480.11 2.72594 -0.508696 0
M  V30 35395 H 3483.06 1.40509 -0.737753 0
M  V30 35396 H 3483.09 3.75047 0.641898 0
M  V30 35397 H 3482.6 3.69661 -1.18205 0
M  V30 35398 H 3480.7 3.50073 1.27592 0
M  V30 35399 H 3480.81 4.78999 -0.098165 0
M  V30 35400 H 3479.18 2.54661 0.0445934 0
M  V30 35401 H 3479.96 3.06619 -1.54401 0
M  V30 35402 N 3482.4 0.261267 1.55419 0
M  V30 35403 C 3483.63 -0.362663 2.03392 0
M  V30 35404 C 3484.04 -1.51037 1.1395 0
M  V30 35405 O 3483.38 -1.83093 0.149263 0
M  V30 35406 C 3483.45 -0.918828 3.4756 0
M  V30 35407 C 3483.11 0.0984632 4.56894 0
M  V30 35408 C 3484.11 0.913108 5.11819 0
M  V30 35409 C 3481.79 0.228705 5.01779 0
M  V30 35410 C 3483.79 1.84431 6.10134 0
M  V30 35411 C 3481.47 1.1634 5.99924 0
M  V30 35412 C 3482.47 1.96972 6.53981 0
M  V30 35413 O 3482.16 2.88863 7.50209 0
M  V30 35414 H 3481.89 -0.0886064 0.670168 0
M  V30 35415 H 3484.45 0.387003 2.01721 0
M  V30 35416 H 3482.68 -1.71832 3.46426 0
M  V30 35417 H 3484.36 -1.45436 3.7895 0
M  V30 35418 H 3485.13 0.82315 4.77964 0
M  V30 35419 H 3481.01 -0.388865 4.59357 0
M  V30 35420 H 3484.55 2.47409 6.52254 0
M  V30 35421 H 3480.45 1.25423 6.33198 0
M  V30 35422 H 3481.22 2.83387 7.67876 0
M  V30 35423 N 3483.88 -1.57596 -0.0116567 0
M  V30 35424 C 3485.3 -1.5531 -0.367575 0
M  V30 35425 C 3485.5 -0.98965 -1.75523 0
M  V30 35426 O 3484.55 -0.618332 -2.44812 0
M  V30 35427 C 3485.87 -2.9963 -0.253479 0
M  V30 35428 C 3487.41 -3.11263 -0.32928 0
M  V30 35429 C 3487.89 -4.57347 -0.24444 0
M  V30 35430 N 3489.38 -4.6221 -0.3027 0
M  V30 35431 C 3490.12 -5.72809 -0.260214 0
M  V30 35432 N 3489.61 -6.92594 -0.169002 0
M  V30 35433 N 3491.4 -5.61238 -0.311224 0
M  V30 35434 H 3483.56 -1.92565 0.896238 0
M  V30 35435 H 3485.82 -0.883982 0.342461 0
M  V30 35436 H 3485.52 -3.44647 0.7008 0
M  V30 35437 H 3485.4 -3.62573 -1.04023 0
M  V30 35438 H 3487.79 -2.66183 -1.274 0
M  V30 35439 H 3487.87 -2.51119 0.487128 0
M  V30 35440 H 3487.51 -5.03099 0.696685 0
M  V30 35441 H 3487.44 -5.15423 -1.07918 0
M  V30 35442 H 3489.93 -3.76035 -0.375001 0
M  V30 35443 H 3490.24 -7.72669 -0.14216 0
M  V30 35444 H 3488.59 -6.94869 -0.134797 0
M  V30 35445 H 3491.78 -4.6655 -0.380596 0
M  V30 35446 H 3491.95 -6.47418 -0.274647 0
M  V30 35447 N 3485.36 0.284228 -1.55016 0
M  V30 35448 C 3486.64 1.03791 -1.65792 0
M  V30 35449 C 3487.02 2.0467 -0.517065 0
M  V30 35450 O 3486.36 2.2331 0.484248 0
M  V30 35451 C 3486.57 1.70477 -3.0453 0
M  V30 35452 C 3487.92 2.22056 -3.61906 0
M  V30 35453 O 3488.95 1.80483 -3.0709 0
M  V30 35454 O 3487.81 2.98278 -4.57922 0
M  V30 35455 H 3484.9 0.480745 -0.672914 0
M  V30 35456 H 3487.45 0.280979 -1.67358 0
M  V30 35457 H 3486.22 0.973172 -3.79005 0
M  V30 35458 H 3485.84 2.52885 -3.06814 0
M  V30 35459 N 3486.84 1.47758 0.548222 0
M  V30 35460 C 3487.79 1.61338 1.6755 0
M  V30 35461 C 3488.78 0.480364 1.62447 0
M  V30 35462 O 3489.99 0.658474 1.67523 0
M  V30 35463 H 3486.36 0.507904 0.554561 0
M  V30 35464 H 3488.33 2.5605 1.53235 0
M  V30 35465 C 3487.08 1.65325 3.0588 0
M  V30 35466 H 3486.4 2.51861 3.10493 0
M  V30 35467 H 3487.84 1.78875 3.84421 0
M  V30 35468 C 3486.3 0.388297 3.34655 0
M  V30 35469 O 3486.83 -0.506746 3.98491 0
M  V30 35470 N 3485.04 0.265564 2.89384 0
M  V30 35471 H 3484.59 0.994861 2.37614 0
M  V30 35472 H 3484.54 -0.579834 3.09007 0
M  V30 35473 N 3488.32 -0.79567 1.3604 0
M  V30 35474 C 3489.25 -1.92244 1.32531 0
M  V30 35475 C 3490.23 -1.68946 0.197835 0
M  V30 35476 O 3491.41 -1.90151 0.394508 0
M  V30 35477 C 3488.54 -3.29167 1.10754 0
M  V30 35478 C 3487.5 -3.66974 2.20259 0
M  V30 35479 C 3486.82 -5.02178 1.83633 0
M  V30 35480 C 3488.12 -3.7621 3.62303 0
M  V30 35481 H 3489.82 -1.95438 2.26814 0
M  V30 35482 H 3487.36 -0.938889 1.09183 0
M  V30 35483 H 3489.31 -4.07606 1.06936 0
M  V30 35484 H 3488.04 -3.26344 0.129198 0
M  V30 35485 H 3486.7 -2.90828 2.23192 0
M  V30 35486 H 3486.35 -4.9587 0.843891 0
M  V30 35487 H 3486.05 -5.28444 2.56944 0
M  V30 35488 H 3487.57 -5.83045 1.8136 0
M  V30 35489 H 3488.98 -4.44855 3.61631 0
M  V30 35490 H 3487.38 -4.13955 4.34466 0
M  V30 35491 H 3488.45 -2.77476 3.97662 0
M  V30 35492 N 3489.79 -1.20217 -1.0191 0
M  V30 35493 C 3491.04 -1.01079 -1.75469 0
M  V30 35494 C 3491.37 0.45737 -1.89046 0
M  V30 35495 O 3490.62 1.35582 -1.41124 0
M  V30 35496 C 3490.92 -1.63651 -3.17731 0
M  V30 35497 C 3490.59 -3.13442 -3.24137 0
M  V30 35498 C 3489.25 -3.5432 -3.25593 0
M  V30 35499 C 3491.6 -4.09442 -3.22501 0
M  V30 35500 C 3488.93 -4.89731 -3.2308 0
M  V30 35501 C 3491.28 -5.44795 -3.2153 0
M  V30 35502 C 3489.95 -5.8509 -3.21288 0
M  V30 35503 H 3489.22 -0.369875 -0.642085 0
M  V30 35504 H 3491.86 -1.49605 -1.19544 0
M  V30 35505 H 3490.17 -1.07382 -3.76798 0
M  V30 35506 H 3491.87 -1.46362 -3.73335 0
M  V30 35507 H 3488.46 -2.80876 -3.23738 0
M  V30 35508 H 3492.64 -3.78896 -3.20549 0
M  V30 35509 H 3487.9 -5.20217 -3.21222 0
M  V30 35510 H 3492.07 -6.1893 -3.19216 0
M  V30 35511 H 3489.7 -6.89987 -3.19095 0
M  V30 35512 N 3491.27 1.21178 -1.00765 0
M  V30 35513 C 3492.51 1.9203 -0.700272 0
M  V30 35514 C 3492.88 1.76519 0.755313 0
M  V30 35515 O 3494.08 2.41768 1.1748 0
M  V30 35516 C 3492.35 3.39628 -1.113 0
M  V30 35517 S 3493.91 4.28913 -0.926227 0
M  V30 35518 H 3490.73 0.663479 -0.255571 0
M  V30 35519 H 3493.33 1.46632 -1.29303 0
M  V30 35520 H 3492.03 3.48435 -2.16844 0
M  V30 35521 H 3491.56 3.90046 -0.512639 0
M  V30 35522 H 3493.58 4.95891 0.175214 0
M  V30 35523 N 3492.75 0.782725 1.36789 0
M  V30 35524 C 3493.66 0.177511 2.33927 0
M  V30 35525 C 3494.68 -0.666774 1.60718 0
M  V30 35526 O 3495.85 -0.584128 1.92743 0
M  V30 35527 C 3492.92 -0.682881 3.39908 0
M  V30 35528 C 3491.98 0.179129 4.28926 0
M  V30 35529 C 3491.21 -0.640293 5.29845 0
M  V30 35530 O 3491.43 -1.87671 5.38642 0
M  V30 35531 O 3490.37 -0.0437106 6.01884 0
M  V30 35532 H 3494.19 0.980492 2.87437 0
M  V30 35533 H 3491.78 0.544065 1.39141 0
M  V30 35534 H 3493.66 -1.17372 4.04724 0
M  V30 35535 H 3492.34 -1.46386 2.88709 0
M  V30 35536 H 3491.24 0.716576 3.67173 0
M  V30 35537 H 3492.58 0.923462 4.83459 0
M  V30 35538 N 3494.23 -1.48271 0.534176 0
M  V30 35539 C 3495.47 -2.03398 0.00975129 0
M  V30 35540 C 3495.83 -1.40356 -1.31598 0
M  V30 35541 O 3495.12 -0.541621 -1.83785 0
M  V30 35542 C 3495.32 -3.57019 -0.165081 0
M  V30 35543 C 3495.15 -4.34954 1.14215 0
M  V30 35544 C 3493.92 -4.75731 1.70317 0
M  V30 35545 C 3496.11 -4.71512 2.05379 0
M  V30 35546 N 3494.1 -5.38219 2.95285 0
M  V30 35547 C 3495.47 -5.34063 3.14924 0
M  V30 35548 C 3497.52 -4.53443 2.05655 0
M  V30 35549 C 3496.22 -5.80453 4.24814 0
M  V30 35550 C 3498.25 -5.00817 3.14541 0
M  V30 35551 C 3497.61 -5.63396 4.22805 0
M  V30 35552 H 3493.71 -0.780694 0.0451699 0
M  V30 35553 H 3496.3 -1.81042 0.716382 0
M  V30 35554 H 3494.47 -3.7919 -0.840802 0
M  V30 35555 H 3496.2 -3.98783 -0.68949 0
M  V30 35556 H 3492.95 -4.56969 1.24403 0
M  V30 35557 H 3493.38 -5.74025 3.58921 0
M  V30 35558 H 3498.02 -4.04438 1.23246 0
M  V30 35559 H 3495.74 -6.28461 5.07998 0
M  V30 35560 H 3499.32 -4.88623 3.15814 0
M  V30 35561 H 3498.2 -5.99388 5.05672 0
M  V30 35562 N 3495.71 -0.269505 -1.55279 0
M  V30 35563 C 3496.66 0.634799 -2.18985 0
M  V30 35564 C 3497.64 1.12256 -1.15271 0
M  V30 35565 O 3498.83 1.06857 -1.41105 0
M  V30 35566 C 3495.96 1.82109 -2.91018 0
M  V30 35567 C 3495.05 1.35077 -4.02014 0
M  V30 35568 N 3495.44 0.596211 -5.02274 0
M  V30 35569 C 3493.74 1.6342 -4.14982 0
M  V30 35570 C 3494.44 0.349679 -5.80648 0
M  V30 35571 N 3493.41 0.920476 -5.3575 0
M  V30 35572 H 3497.22 0.0503999 -2.93857 0
M  V30 35573 H 3494.73 -0.0728128 -1.62237 0
M  V30 35574 H 3496.73 2.48017 -3.35102 0
M  V30 35575 H 3495.39 2.40949 -2.17655 0
M  V30 35576 H 3496.4 0.244097 -5.17324 0
M  V30 35577 H 3493.07 2.23236 -3.52806 0
M  V30 35578 H 3494.46 -0.254257 -6.71419 0
M  V30 35579 N 3497.18 1.576 0.00329885 0
M  V30 35580 C 3498.11 2.1125 0.994766 0
M  V30 35581 C 3499.1 1.02087 1.36059 0
M  V30 35582 O 3500.28 1.29752 1.44492 0
M  V30 35583 C 3497.41 2.6131 2.28767 0
M  V30 35584 C 3496.36 3.74969 2.06355 0
M  V30 35585 C 3495.69 4.1133 3.4163 0
M  V30 35586 C 3496.99 5.02377 1.42881 0
M  V30 35587 H 3498.68 2.94341 0.548067 0
M  V30 35588 H 3496.23 1.41593 0.262184 0
M  V30 35589 H 3498.18 2.97469 2.98479 0
M  V30 35590 H 3496.91 1.75336 2.75544 0
M  V30 35591 H 3495.57 3.39198 1.3907 0
M  V30 35592 H 3495.21 3.22385 3.86104 0
M  V30 35593 H 3494.91 4.87903 3.27451 0
M  V30 35594 H 3496.44 4.50046 4.12663 0
M  V30 35595 H 3497.85 5.36329 2.02545 0
M  V30 35596 H 3496.25 5.83732 1.392 0
M  V30 35597 H 3497.32 4.83267 0.397623 0
M  V30 35598 N 3498.66 -0.276003 1.55164 0
M  V30 35599 C 3499.59 -1.36332 1.84245 0
M  V30 35600 C 3500.61 -1.45677 0.72677 0
M  V30 35601 O 3501.8 -1.47548 1.00458 0
M  V30 35602 C 3498.9 -2.74486 1.98773 0
M  V30 35603 C 3498.07 -2.87769 3.29405 0
M  V30 35604 C 3497.13 -4.06579 3.34036 0
M  V30 35605 O 3496.15 -3.97479 4.0743 0
M  V30 35606 N 3497.36 -5.18405 2.61222 0
M  V30 35607 H 3500.12 -1.11732 2.78094 0
M  V30 35608 H 3497.68 -0.466116 1.55045 0
M  V30 35609 H 3499.67 -3.52255 1.99244 0
M  V30 35610 H 3498.24 -2.91922 1.11804 0
M  V30 35611 H 3497.46 -1.96908 3.41498 0
M  V30 35612 H 3498.75 -2.93572 4.15564 0
M  V30 35613 H 3498.15 -5.28684 2.01271 0
M  V30 35614 H 3496.71 -5.94416 2.6742 0
M  V30 35615 N 3500.14 -1.48046 -0.540378 0
M  V30 35616 C 3501.39 -1.55226 -1.29419 0
M  V30 35617 C 3501.71 -0.223399 -1.93716 0
M  V30 35618 O 3500.98 0.754172 -1.80801 0
M  V30 35619 H 3499.56 -0.571827 -0.480648 0
M  V30 35620 H 3502.22 -1.84448 -0.62968 0
M  V30 35621 H 3501.32 -2.32781 -2.07893 0
M  V30 35622 N 3501.62 0.788444 -1.3646 0
M  V30 35623 C 3502.55 1.91539 -1.33549 0
M  V30 35624 C 3503.53 1.68838 -0.206792 0
M  V30 35625 O 3504.71 1.89939 -0.404586 0
M  V30 35626 C 3501.84 3.28575 -1.12498 0
M  V30 35627 C 3500.8 3.65801 -2.22202 0
M  V30 35628 C 3500.12 5.01197 -1.86294 0
M  V30 35629 C 3501.42 3.74283 -3.64293 0
M  V30 35630 H 3503.12 1.94232 -2.27847 0
M  V30 35631 H 3500.66 0.933086 -1.09679 0
M  V30 35632 H 3502.62 4.07033 -1.09096 0
M  V30 35633 H 3501.34 3.26271 -0.146503 0
M  V30 35634 H 3500 2.8964 -2.24732 0
M  V30 35635 H 3499.65 4.95416 -0.870177 0
M  V30 35636 H 3499.35 5.27074 -2.59743 0
M  V30 35637 H 3500.87 5.82075 -1.84449 0
M  V30 35638 H 3502.29 4.42931 -3.63985 0
M  V30 35639 H 3500.68 4.11645 -4.36655 0
M  V30 35640 H 3501.75 2.75364 -3.99128 0
M  V30 35641 N 3503.1 1.20755 1.01271 0
M  V30 35642 C 3504.32 1.04656 1.79058 0
M  V30 35643 C 3504.75 -0.3996 1.83806 0
M  V30 35644 O 3504.1 -1.28796 1.27598 0
M  V30 35645 C 3504.15 1.6393 3.21184 0
M  V30 35646 O 3503.26 0.879557 4.02911 0
M  V30 35647 H 3502.6 0.368832 0.55214 0
M  V30 35648 H 3505.13 1.60132 1.27353 0
M  V30 35649 H 3505.14 1.67828 3.71884 0
M  V30 35650 H 3503.81 2.69178 3.17043 0
M  V30 35651 H 3502.39 0.915083 3.61498 0
M  V30 35652 N 3504.58 -1.20642 1.01406 0
M  V30 35653 C 3505.82 -1.8957 0.700556 0
M  V30 35654 C 3506.14 -1.7907 -0.771947 0
M  V30 35655 O 3505.41 -1.19145 -1.55503 0
M  V30 35656 H 3503.99 -0.701715 0.256134 0
M  V30 35657 H 3506.66 -1.46529 1.28512 0
M  V30 35658 H 3505.75 -2.96258 0.981717 0
M  V30 35659 N 3506.05 -0.789968 -1.36372 0
M  V30 35660 C 3507 -0.161838 -2.27425 0
M  V30 35661 C 3507.99 0.654557 -1.46984 0
M  V30 35662 O 3509.18 0.51454 -1.69356 0
M  V30 35663 C 3506.31 0.702069 -3.36044 0
M  V30 35664 C 3505.39 -0.123146 -4.23921 0
M  V30 35665 N 3505.79 -1.17792 -4.91893 0
M  V30 35666 C 3504.08 0.0979288 -4.45892 0
M  V30 35667 C 3504.78 -1.68033 -5.56902 0
M  V30 35668 N 3503.76 -0.989465 -5.34519 0
M  V30 35669 H 3507.56 -0.969142 -2.77461 0
M  V30 35670 H 3505.08 -0.629484 -1.49704 0
M  V30 35671 H 3507.07 1.16798 -4.00205 0
M  V30 35672 H 3505.73 1.50791 -2.87562 0
M  V30 35673 H 3506.74 -1.56036 -4.93835 0
M  V30 35674 H 3503.42 0.874235 -4.08244 0
M  V30 35675 H 3504.81 -2.56095 -6.2118 0
M  V30 35676 N 3507.53 1.47986 -0.542031 0
M  V30 35677 C 3508.76 2.06593 -0.0167291 0
M  V30 35678 C 3509.17 1.39731 1.27562 0
M  V30 35679 O 3508.51 0.482712 1.77244 0
M  V30 35680 C 3508.57 3.58519 0.265438 0
M  V30 35681 C 3508.24 4.47329 -0.935212 0
M  V30 35682 C 3509.24 4.86371 -1.83681 0
M  V30 35683 C 3506.92 4.89061 -1.14561 0
M  V30 35684 C 3508.91 5.6593 -2.93262 0
M  V30 35685 C 3506.6 5.68387 -2.24453 0
M  V30 35686 C 3507.6 6.0673 -3.13635 0
M  V30 35687 O 3507.29 6.84462 -4.21625 0
M  V30 35688 H 3507.02 0.675047 -0.035877 0
M  V30 35689 H 3509.57 1.91194 -0.750598 0
M  V30 35690 H 3507.8 3.72075 1.05343 0
M  V30 35691 H 3509.49 3.99203 0.734277 0
M  V30 35692 H 3510.26 4.54742 -1.68626 0
M  V30 35693 H 3506.14 4.58692 -0.460679 0
M  V30 35694 H 3509.68 5.95777 -3.62899 0
M  V30 35695 H 3505.58 5.9943 -2.39488 0
M  V30 35696 H 3506.35 7.02834 -4.19484 0
M  V30 35697 N 3509.01 0.277736 1.55133 0
M  V30 35698 C 3509.94 -0.602192 2.25601 0
M  V30 35699 C 3510.92 -1.15678 1.2471 0
M  V30 35700 O 3512.11 -1.19044 1.53435 0
M  V30 35701 C 3509.24 -1.78514 2.9791 0
M  V30 35702 C 3508.19 -1.36196 4.05752 0
M  V30 35703 C 3507.52 -2.62821 4.65649 0
M  V30 35704 C 3508.82 -0.510236 5.19802 0
M  V30 35705 H 3510.51 -0.0145096 2.99396 0
M  V30 35706 H 3508.06 -0.00553857 1.43999 0
M  V30 35707 H 3510.01 -2.40662 3.45919 0
M  V30 35708 H 3508.73 -2.39869 2.21654 0
M  V30 35709 H 3507.39 -0.763663 3.58558 0
M  V30 35710 H 3507.04 -3.22441 3.86058 0
M  V30 35711 H 3506.74 -2.35217 5.38467 0
M  V30 35712 H 3508.26 -3.25813 5.16409 0
M  V30 35713 H 3509.68 -1.03679 5.63847 0
M  V30 35714 H 3508.07 -0.328967 5.99198 0
M  V30 35715 H 3509.14 0.470358 4.82613 0
M  V30 35716 N 3510.49 -1.57599 0.00505908 0
M  V30 35717 C 3511.72 -1.9507 -0.689575 0
M  V30 35718 C 3512.13 -0.880212 -1.67026 0
M  V30 35719 O 3511.49 0.140375 -1.81959 0
M  V30 35720 C 3511.54 -3.3257 -1.41703 0
M  V30 35721 O 3511.26 -4.3551 -0.475669 0
M  V30 35722 C 3512.76 -3.8453 -2.20571 0
M  V30 35723 H 3509.98 -0.643022 -0.191739 0
M  V30 35724 H 3512.52 -2.04419 0.057682 0
M  V30 35725 H 3510.68 -3.24514 -2.11588 0
M  V30 35726 H 3511.09 -5.15082 -0.989483 0
M  V30 35727 H 3512.57 -4.83152 -2.6696 0
M  V30 35728 H 3513.04 -3.17503 -3.03461 0
M  V30 35729 H 3513.65 -3.95778 -1.55693 0
M  V30 35730 N 3511.97 0.267771 -1.55309 0
M  V30 35731 C 3513.21 0.996484 -1.75366 0
M  V30 35732 C 3513.53 1.8726 -0.56506 0
M  V30 35733 O 3514.73 2.6365 -0.648165 0
M  V30 35734 C 3513.19 1.82169 -3.10391 0
M  V30 35735 C 3512.8 0.993985 -4.36834 0
M  V30 35736 C 3514.54 2.54439 -3.39795 0
M  V30 35737 C 3512.45 1.81388 -5.62896 0
M  V30 35738 H 3511.38 0.375781 -0.653685 0
M  V30 35739 H 3514.03 0.251943 -1.81762 0
M  V30 35740 H 3512.41 2.60739 -2.98046 0
M  V30 35741 H 3513.59 0.252086 -4.6011 0
M  V30 35742 H 3511.9 0.385589 -4.14611 0
M  V30 35743 H 3514.5 3.16196 -4.3119 0
M  V30 35744 H 3514.84 3.24992 -2.60165 0
M  V30 35745 H 3515.37 1.82896 -3.53262 0
M  V30 35746 H 3512.11 1.15247 -6.45289 0
M  V30 35747 H 3511.63 2.53161 -5.43755 0
M  V30 35748 H 3513.31 2.38623 -6.01388 0
M  V30 35749 N 3513.44 1.48331 0.532519 0
M  V30 35750 C 3514.67 1.60131 1.31806 0
M  V30 35751 C 3515.09 0.26084 1.86283 0
M  V30 35752 O 3514.45 -0.767108 1.64272 0
M  V30 35753 C 3514.5 2.64907 2.44656 0
M  V30 35754 O 3513.6 2.21891 3.47618 0
M  V30 35755 H 3512.94 0.537047 0.390482 0
M  V30 35756 H 3515.47 1.94299 0.641034 0
M  V30 35757 H 3515.48 2.86101 2.90878 0
M  V30 35758 H 3514.16 3.62225 2.04366 0
M  V30 35759 H 3512.74 2.10899 3.07532 0
M  V30 35760 N 3514.92 -0.781196 1.36876 0
M  V30 35761 C 3516.17 -1.53941 1.31562 0
M  V30 35762 C 3516.5 -1.94229 -0.102696 0
M  V30 35763 O 3515.75 -1.63607 -1.07383 0
M  V30 35764 C 3516.05 -2.82305 2.19177 0
M  V30 35765 C 3515.72 -2.61115 3.676 0
M  V30 35766 C 3514.38 -2.55044 4.08051 0
M  V30 35767 C 3516.73 -2.4189 4.61669 0
M  V30 35768 C 3514.06 -2.27726 5.40701 0
M  V30 35769 C 3516.41 -2.16097 5.94546 0
M  V30 35770 C 3515.07 -2.08465 6.34112 0
M  V30 35771 H 3514.34 -0.563308 0.48142 0
M  V30 35772 H 3516.99 -0.900608 1.69001 0
M  V30 35773 H 3515.3 -3.50694 1.74702 0
M  V30 35774 H 3516.99 -3.40137 2.12385 0
M  V30 35775 H 3513.58 -2.66699 3.35514 0
M  V30 35776 H 3517.77 -2.45576 4.31284 0
M  V30 35777 H 3513.02 -2.20305 5.70329 0
M  V30 35778 H 3517.2 -2.00219 6.66997 0
M  V30 35779 H 3514.82 -1.87061 7.36826 0
M  V30 35780 N 3516.4 -1.21291 -1.0063 0
M  V30 35781 C 3517.31 -0.986994 -2.12828 0
M  V30 35782 C 3518.33 0.0604846 -1.73895 0
M  V30 35783 O 3519.5 -0.129274 -2.00985 0
M  V30 35784 C 3516.57 -0.553149 -3.42259 0
M  V30 35785 C 3515.63 -1.67269 -3.95373 0
M  V30 35786 C 3514.86 -1.25945 -5.18627 0
M  V30 35787 O 3515.08 -0.132502 -5.70246 0
M  V30 35788 O 3514.02 -2.07086 -5.65154 0
M  V30 35789 H 3517.84 -1.92667 -2.34762 0
M  V30 35790 H 3515.43 -0.997674 -1.11206 0
M  V30 35791 H 3517.31 -0.320929 -4.20176 0
M  V30 35792 H 3515.99 0.357824 -3.21716 0
M  V30 35793 H 3514.89 -1.9593 -3.18688 0
M  V30 35794 H 3516.23 -2.56104 -4.20323 0
M  V30 35795 N 3517.88 1.20103 -1.02045 0
M  V30 35796 C 3519.15 1.8528 -0.626955 0
M  V30 35797 C 3519.53 1.91198 0.894786 0
M  V30 35798 O 3518.88 1.42268 1.78807 0
M  V30 35799 C 3519.09 3.2471 -1.27923 0
M  V30 35800 C 3520.44 4.00956 -1.39711 0
M  V30 35801 O 3521.46 3.34078 -1.23574 0
M  V30 35802 O 3520.32 5.20735 -1.65823 0
M  V30 35803 H 3517.42 0.798069 -0.216829 0
M  V30 35804 H 3519.96 1.27661 -1.11807 0
M  V30 35805 H 3518.74 3.1519 -2.31886 0
M  V30 35806 H 3518.36 3.89965 -0.775439 0
M  V30 35807 N 3519.36 0.797189 1.35951 0
M  V30 35808 C 3520.6 0.373177 1.99032 0
M  V30 35809 C 3520.93 -1.0572 1.63259 0
M  V30 35810 O 3520.19 -1.74644 0.883053 0
M  V30 35811 C 3520.49 0.492867 3.53985 0
M  V30 35812 C 3520.15 1.88518 4.096 0
M  V30 35813 C 3518.81 2.26611 4.24501 0
M  V30 35814 C 3521.17 2.7965 4.39824 0
M  V30 35815 C 3518.49 3.55224 4.6694 0
M  V30 35816 C 3520.85 4.07699 4.83699 0
M  V30 35817 C 3519.51 4.45804 4.96805 0
M  V30 35818 H 3518.78 0.136555 0.728309 0
M  V30 35819 H 3521.43 1.01616 1.62316 0
M  V30 35820 H 3519.73 -0.233592 3.91103 0
M  V30 35821 H 3521.43 0.145709 4.00735 0
M  V30 35822 H 3518.02 1.57919 3.98446 0
M  V30 35823 H 3522.2 2.51472 4.27873 0
M  V30 35824 H 3517.46 3.84608 4.75276 0
M  V30 35825 H 3521.63 4.78423 5.06048 0
M  V30 35826 H 3519.26 5.45516 5.29449 0
M  V30 35827 N 3520.83 -1.47696 0.549872 0
M  V30 35828 C 3521.78 -2.31603 -0.215078 0
M  V30 35829 C 3522.78 -1.42472 -0.916416 0
M  V30 35830 O 3523.98 -1.59275 -0.838537 0
M  V30 35831 H 3520.36 -0.746806 -0.088231 0
M  V30 35832 H 3522.33 -2.93976 0.511899 0
M  V30 35833 C 3521.08 -3.24968 -1.23656 0
M  V30 35834 H 3520.4 -3.93511 -0.706315 0
M  V30 35835 H 3521.84 -3.86525 -1.74283 0
M  V30 35836 C 3520.3 -2.47971 -2.28062 0
M  V30 35837 O 3520.83 -2.21884 -3.34858 0
M  V30 35838 N 3519.04 -2.0911 -2.01795 0
M  V30 35839 H 3518.58 -2.30525 -1.14961 0
M  V30 35840 H 3518.54 -1.57907 -2.71869 0
M  V30 35841 N 3522.31 -0.285959 -1.54984 0
M  V30 35842 C 3523.24 0.59022 -2.25917 0
M  V30 35843 C 3524.22 1.15015 -1.25321 0
M  V30 35844 O 3525.41 1.18228 -1.54064 0
M  V30 35845 C 3522.54 1.76931 -2.98852 0
M  V30 35846 C 3521.49 1.34042 -4.06468 0
M  V30 35847 C 3520.82 2.60348 -4.67036 0
M  V30 35848 C 3522.12 0.482662 -5.20065 0
M  V30 35849 H 3523.81 -0.00136834 -2.994 0
M  V30 35850 H 3521.36 -0.00209812 -1.44 0
M  V30 35851 H 3523.31 2.38824 -3.4719 0
M  V30 35852 H 3522.04 2.3869 -2.22923 0
M  V30 35853 H 3520.69 0.744637 -3.58958 0
M  V30 35854 H 3520.34 3.20389 -3.87763 0
M  V30 35855 H 3520.04 2.32358 -5.39707 0
M  V30 35856 H 3521.57 3.2307 -5.18129 0
M  V30 35857 H 3522.98 1.00687 -5.64389 0
M  V30 35858 H 3521.38 0.297186 -5.99364 0
M  V30 35859 H 3522.45 -0.495945 -4.82357 0
M  V30 35860 N 3523.79 1.57594 -0.0134169 0
M  V30 35861 C 3524.72 2.06134 1.00207 0
M  V30 35862 C 3525.74 0.981753 1.29867 0
M  V30 35863 O 3526.92 1.25828 1.26608 0
M  V30 35864 C 3524.02 2.45767 2.33349 0
M  V30 35865 C 3523.2 3.76619 2.22435 0
M  V30 35866 C 3522.26 4.02973 3.38378 0
M  V30 35867 O 3521.28 4.7345 3.15965 0
M  V30 35868 N 3522.48 3.51916 4.61666 0
M  V30 35869 H 3525.25 2.93875 0.588028 0
M  V30 35870 H 3522.81 1.60966 0.173686 0
M  V30 35871 H 3524.8 2.60501 3.09712 0
M  V30 35872 H 3523.37 1.63475 2.66449 0
M  V30 35873 H 3522.59 3.71832 1.30898 0
M  V30 35874 H 3523.88 4.62378 2.12329 0
M  V30 35875 H 3523.28 2.94869 4.82772 0
M  V30 35876 H 3521.84 3.71956 5.35249 0
M  V30 35877 N 3525.27 -0.259531 1.55448 0
M  V30 35878 C 3526.22 -1.34092 1.90058 0
M  V30 35879 C 3527.21 -1.50462 0.778293 0
M  V30 35880 O 3528.42 -1.52087 0.962784 0
M  V30 35881 H 3524.79 -0.448747 0.603432 0
M  V30 35882 H 3526.76 -1.02161 2.80367 0
M  V30 35883 C 3525.51 -2.69185 2.20079 0
M  V30 35884 H 3524.83 -2.57384 3.05931 0
M  V30 35885 H 3526.27 -3.43758 2.48207 0
M  V30 35886 C 3524.73 -3.21314 1.01286 0
M  V30 35887 O 3525.26 -4.00894 0.254371 0
M  V30 35888 N 3523.47 -2.79173 0.806904 0
M  V30 35889 H 3523.02 -2.1457 1.4254 0
M  V30 35890 H 3522.97 -3.14397 0.0137267 0
M  V30 35891 N 3526.75 -1.48611 -0.524645 0
M  V30 35892 C 3527.97 -1.60828 -1.30955 0
M  V30 35893 C 3528.4 -0.270715 -1.86142 0
M  V30 35894 O 3527.75 0.758386 -1.64676 0
M  V30 35895 C 3527.8 -2.66201 -2.43248 0
M  V30 35896 O 3526.91 -2.23731 -3.46436 0
M  V30 35897 H 3526.25 -0.539111 -0.387629 0
M  V30 35898 H 3528.78 -1.94636 -0.630721 0
M  V30 35899 H 3528.79 -2.8764 -2.89357 0
M  V30 35900 H 3527.46 -3.63304 -2.02442 0
M  V30 35901 H 3526.04 -2.12527 -3.06409 0
M  V30 35902 N 3528.22 0.773926 -1.37289 0
M  V30 35903 C 3529.45 1.56813 -1.35737 0
M  V30 35904 C 3529.87 1.88018 0.0555216 0
M  V30 35905 O 3529.23 1.49066 1.03194 0
M  V30 35906 C 3529.28 2.85648 -2.20085 0
M  V30 35907 O 3528.38 3.79929 -1.60398 0
M  V30 35908 H 3527.73 0.475082 -0.463889 0
M  V30 35909 H 3530.26 0.958055 -1.80783 0
M  V30 35910 H 3530.27 3.34772 -2.33221 0
M  V30 35911 H 3528.94 2.62264 -3.22786 0
M  V30 35912 H 3527.52 3.38567 -1.56291 0
M  V30 35913 N 3529.7 1.21823 0.99985 0
M  V30 35914 C 3530.95 1.03653 1.73495 0
M  V30 35915 C 3531.27 -0.430237 1.90195 0
M  V30 35916 O 3530.54 -1.30999 1.45657 0
M  V30 35917 H 3529.12 0.380552 0.642798 0
M  V30 35918 H 3531.78 1.53218 1.20458 0
M  V30 35919 H 3530.88 1.50869 2.73212 0
M  V30 35920 N 3531.18 -1.1956 1.0268 0
M  V30 35921 C 3532.42 -1.90892 0.730733 0
M  V30 35922 C 3532.78 -1.77698 -0.727135 0
M  V30 35923 O 3533.99 -2.43607 -1.13618 0
M  V30 35924 C 3532.26 -3.37814 1.16689 0
M  V30 35925 S 3533.82 -4.27385 0.994346 0
M  V30 35926 H 3530.63 -0.659329 0.266094 0
M  V30 35927 H 3533.24 -1.44556 1.3162 0
M  V30 35928 H 3531.94 -3.44941 2.2236 0
M  V30 35929 H 3531.47 -3.89181 0.574627 0
M  V30 35930 H 3533.49 -4.96107 -0.0962999 0
M  V30 35931 N 3532.66 -0.804387 -1.35526 0
M  V30 35932 C 3533.57 -0.214705 -2.33615 0
M  V30 35933 C 3534.58 0.641121 -1.61758 0
M  V30 35934 O 3535.76 0.55339 -1.93648 0
M  V30 35935 C 3532.83 0.628718 -3.40952 0
M  V30 35936 C 3531.89 -0.247344 -4.28587 0
M  V30 35937 C 3531.12 0.555918 -5.30797 0
M  V30 35938 O 3531.34 1.79078 -5.4156 0
M  V30 35939 O 3530.28 -0.0520495 -6.01877 0
M  V30 35940 H 3534.1 -1.0261 -2.85841 0
M  V30 35941 H 3531.69 -0.566132 -1.38258 0
M  V30 35942 H 3533.57 1.10918 -4.0654 0
M  V30 35943 H 3532.24 1.41775 -2.91001 0
M  V30 35944 H 3531.15 -0.7749 -3.65986 0
M  V30 35945 H 3532.48 -1.00026 -4.81929 0
M  V30 35946 N 3534.14 1.47403 -0.557697 0
M  V30 35947 C 3535.08 2.30019 0.189725 0
M  V30 35948 C 3536.05 1.39091 0.907899 0
M  V30 35949 O 3537.24 1.68052 0.903498 0
M  V30 35950 C 3534.38 3.23063 1.21342 0
M  V30 35951 C 3533.49 4.29082 0.501267 0
M  V30 35952 C 3532.63 5.09277 1.5103 0
M  V30 35953 C 3531.67 6.07069 0.783147 0
M  V30 35954 N 3530.8 6.80222 1.73904 0
M  V30 35955 H 3535.64 2.93412 -0.520908 0
M  V30 35956 H 3533.18 1.44625 -0.268711 0
M  V30 35957 H 3535.14 3.75431 1.81954 0
M  V30 35958 H 3533.77 2.61534 1.89209 0
M  V30 35959 H 3532.82 3.79767 -0.219384 0
M  V30 35960 H 3534.13 4.98753 -0.0683532 0
M  V30 35961 H 3533.29 5.65797 2.18994 0
M  V30 35962 H 3532.03 4.39509 2.11384 0
M  V30 35963 H 3531.03 5.49727 0.0895916 0
M  V30 35964 H 3532.26 6.78847 0.185344 0
M  V30 35965 H 3530.2 6.13183 2.33114 0
M  V30 35966 H 3530.12 7.46065 1.22158 0
M  V30 35967 H 3531.39 7.41316 2.4098 0
M  V30 35968 N 3535.62 0.294175 1.5483 0
M  V30 35969 C 3536.89 -0.369868 1.92071 0
M  V30 35970 C 3537.27 -1.72231 1.22064 0
M  V30 35971 O 3536.62 -2.25741 0.354015 0
M  V30 35972 C 3536.83 -0.491289 3.45525 0
M  V30 35973 C 3538.18 -0.765338 4.17645 0
M  V30 35974 O 3539.2 -0.575366 3.51522 0
M  V30 35975 O 3538.06 -1.12982 5.34694 0
M  V30 35976 H 3535.16 -0.205596 0.801036 0
M  V30 35977 H 3537.7 0.341731 1.66224 0
M  V30 35978 H 3536.47 0.459732 3.8859 0
M  V30 35979 H 3536.1 -1.25162 3.77386 0
M  V30 35980 N 3537.09 -1.57585 0.0217743 0
M  V30 35981 C 3538.34 -1.91496 -0.658454 0
M  V30 35982 C 3538.67 -0.897493 -1.72555 0
M  V30 35983 O 3537.92 0.0946565 -1.95471 0
M  V30 35984 C 3538.22 -3.32145 -1.31964 0
M  V30 35985 C 3537.89 -4.49265 -0.383628 0
M  V30 35986 C 3536.55 -4.81035 -0.12598 0
M  V30 35987 C 3538.9 -5.20553 0.259537 0
M  V30 35988 C 3536.23 -5.81455 0.782761 0
M  V30 35989 C 3538.58 -6.21943 1.15629 0
M  V30 35990 C 3537.25 -6.52158 1.4229 0
M  V30 35991 H 3536.52 -0.700733 -0.240945 0
M  V30 35992 H 3539.16 -1.91324 0.0819688 0
M  V30 35993 H 3537.47 -3.28543 -2.13463 0
M  V30 35994 H 3539.17 -3.55651 -1.85239 0
M  V30 35995 H 3535.76 -4.24455 -0.594616 0
M  V30 35996 H 3539.94 -4.96246 0.0735322 0
M  V30 35997 H 3535.2 -6.03215 0.997101 0
M  V30 35998 H 3539.37 -6.76304 1.66088 0
M  V30 35999 H 3537 -7.29787 2.12872 0
M  V30 36000 N 3538.57 0.251283 -1.55584 0
M  V30 36001 C 3539.82 0.981387 -1.77473 0
M  V30 36002 C 3540.15 1.85139 -0.586261 0
M  V30 36003 O 3539.43 1.90008 0.415589 0
M  V30 36004 C 3539.71 1.84562 -3.09207 0
M  V30 36005 C 3539.56 1.00409 -4.3845 0
M  V30 36006 C 3540.88 2.82889 -3.37137 0
M  V30 36007 H 3538 0.355357 -0.64567 0
M  V30 36008 H 3540.64 0.252195 -1.88319 0
M  V30 36009 H 3538.79 2.46733 -3.00092 0
M  V30 36010 H 3540.46 0.401409 -4.5955 0
M  V30 36011 H 3538.71 0.308289 -4.32703 0
M  V30 36012 H 3539.38 1.64248 -5.26998 0
M  V30 36013 H 3541.85 2.30854 -3.46187 0
M  V30 36014 H 3540.73 3.40484 -4.30537 0
M  V30 36015 H 3540.99 3.59129 -2.57835 0
M  V30 36016 N 3540.05 1.48887 0.516757 0
M  V30 36017 C 3540.96 1.67098 1.64667 0
M  V30 36018 C 3541.98 0.553495 1.64962 0
M  V30 36019 O 3543.15 0.826239 1.83672 0
M  V30 36020 C 3540.22 1.71885 3.01092 0
M  V30 36021 C 3539.28 2.95357 3.11549 0
M  V30 36022 C 3538.51 2.99906 4.41466 0
M  V30 36023 O 3538.73 2.12487 5.29344 0
M  V30 36024 O 3537.67 3.92213 4.56566 0
M  V30 36025 H 3541.49 2.62788 1.52237 0
M  V30 36026 H 3539.08 1.32443 0.691317 0
M  V30 36027 H 3540.96 1.77477 3.82204 0
M  V30 36028 H 3539.64 0.793711 3.13818 0
M  V30 36029 H 3538.54 2.9529 2.29683 0
M  V30 36030 H 3539.88 3.87299 3.03744 0
M  V30 36031 N 3541.53 -0.766635 1.37697 0
M  V30 36032 C 3542.78 -1.52066 1.32509 0
M  V30 36033 C 3543.09 -1.95409 -0.0864624 0
M  V30 36034 O 3544.3 -2.70244 -0.260829 0
M  V30 36035 C 3542.75 -2.74621 2.32619 0
M  V30 36036 C 3542.36 -2.38356 3.79329 0
M  V30 36037 C 3544.1 -3.5255 2.36451 0
M  V30 36038 C 3542.01 -3.57443 4.71156 0
M  V30 36039 H 3540.94 -0.570928 0.492501 0
M  V30 36040 H 3543.59 -0.83924 1.63184 0
M  V30 36041 H 3541.97 -3.44678 1.94969 0
M  V30 36042 H 3543.15 -1.76049 4.25844 0
M  V30 36043 H 3541.46 -1.7359 3.78491 0
M  V30 36044 H 3544.06 -4.41071 3.02259 0
M  V30 36045 H 3544.4 -3.92776 1.3796 0
M  V30 36046 H 3544.94 -2.89493 2.72834 0
M  V30 36047 H 3541.67 -3.22294 5.70795 0
M  V30 36048 H 3541.19 -4.18838 4.29342 0
M  V30 36049 H 3542.87 -4.24192 4.88539 0
M  V30 36050 N 3543.01 -1.22351 -0.993375 0
M  V30 36051 C 3544.25 -1.05939 -1.73633 0
M  V30 36052 C 3544.61 0.401381 -1.88167 0
M  V30 36053 O 3543.9 1.29358 -1.4134 0
M  V30 36054 C 3544.09 -1.70354 -3.14188 0
M  V30 36055 C 3543.92 -3.22544 -3.13361 0
M  V30 36056 C 3542.69 -3.91647 -3.19282 0
M  V30 36057 C 3544.89 -4.19485 -2.97552 0
M  V30 36058 N 3542.87 -5.30927 -3.08203 0
M  V30 36059 C 3544.24 -5.45593 -2.94497 0
M  V30 36060 C 3546.3 -4.10383 -2.8194 0
M  V30 36061 C 3545 -6.63646 -2.77428 0
M  V30 36062 C 3547.03 -5.28086 -2.66232 0
M  V30 36063 C 3546.39 -6.53112 -2.63864 0
M  V30 36064 H 3542.49 -0.442091 -0.645042 0
M  V30 36065 H 3545.07 -1.54885 -1.17978 0
M  V30 36066 H 3543.24 -1.2396 -3.68088 0
M  V30 36067 H 3544.98 -1.47039 -3.77043 0
M  V30 36068 H 3541.73 -3.42643 -3.26945 0
M  V30 36069 H 3542.15 -6.03911 -3.05975 0
M  V30 36070 H 3546.8 -3.14507 -2.82569 0
M  V30 36071 H 3544.51 -7.59671 -2.75545 0
M  V30 36072 H 3548.1 -5.22874 -2.55135 0
M  V30 36073 H 3546.98 -7.42656 -2.51857 0
M  V30 36074 N 3544.48 1.19014 -1.03313 0
M  V30 36075 C 3545.76 1.84604 -0.646571 0
M  V30 36076 C 3546.14 1.92137 0.874456 0
M  V30 36077 O 3545.49 1.44157 1.77288 0
M  V30 36078 C 3545.7 3.23335 -1.31359 0
M  V30 36079 C 3547.05 3.99452 -1.43956 0
M  V30 36080 O 3548.07 3.32748 -1.2711 0
M  V30 36081 O 3546.93 5.18947 -1.71337 0
M  V30 36082 H 3544.02 0.795724 -0.225281 0
M  V30 36083 H 3546.57 1.26468 -1.13154 0
M  V30 36084 H 3545.34 3.12713 -2.35216 0
M  V30 36085 H 3544.96 3.89121 -0.816757 0
M  V30 36086 N 3545.96 0.811563 1.35098 0
M  V30 36087 C 3546.91 0.213577 2.31617 0
M  V30 36088 C 3547.9 -0.639413 1.56869 0
M  V30 36089 O 3549.11 -0.532021 1.71958 0
M  V30 36090 H 3545.48 0.0503095 0.750315 0
M  V30 36091 H 3547.46 1.04267 2.79591 0
M  V30 36092 C 3546.2 -0.619233 3.42141 0
M  V30 36093 H 3545.53 0.0277895 3.9979 0
M  V30 36094 H 3546.97 -1.00394 4.11943 0
M  V30 36095 C 3545.43 -1.78685 2.8561 0
M  V30 36096 O 3545.96 -2.88455 2.79565 0
M  V30 36097 N 3544.16 -1.59996 2.42589 0
M  V30 36098 H 3543.71 -0.707061 2.47706 0
M  V30 36099 H 3543.67 -2.38276 2.05115 0
M  V30 36100 N 3547.44 -1.47105 0.565506 0
M  V30 36101 C 3548.39 -2.27138 -0.198093 0
M  V30 36102 C 3549.37 -1.34851 -0.877719 0
M  V30 36103 O 3550.57 -1.59148 -0.774655 0
M  V30 36104 C 3547.69 -3.20808 -1.22218 0
M  V30 36105 C 3546.78 -4.20577 -0.545542 0
M  V30 36106 N 3547.17 -5.04301 0.389118 0
M  V30 36107 C 3545.47 -4.38795 -0.79844 0
M  V30 36108 C 3546.17 -5.76407 0.782954 0
M  V30 36109 N 3545.15 -5.4343 0.135925 0
M  V30 36110 H 3548.95 -2.89256 0.520405 0
M  V30 36111 H 3546.46 -1.57745 0.38604 0
M  V30 36112 H 3548.46 -3.76836 -1.78325 0
M  V30 36113 H 3547.12 -2.60248 -1.94168 0
M  V30 36114 H 3548.13 -5.12238 0.763734 0
M  V30 36115 H 3544.81 -3.89399 -1.50582 0
M  V30 36116 H 3546.2 -6.53743 1.55145 0
M  V30 36117 N 3548.92 -0.302382 -1.54672 0
M  V30 36118 C 3550.15 0.309057 -2.04579 0
M  V30 36119 C 3550.56 1.47414 -1.1796 0
M  V30 36120 O 3549.92 1.81339 -0.205532 0
M  V30 36121 C 3549.97 0.763961 -3.53335 0
M  V30 36122 O 3549.69 -0.354751 -4.36661 0
M  V30 36123 C 3551.19 1.44041 -4.19246 0
M  V30 36124 H 3548.41 0.0669458 -0.667652 0
M  V30 36125 H 3550.96 -0.442414 -1.99657 0
M  V30 36126 H 3549.11 1.46545 -3.58613 0
M  V30 36127 H 3549.52 -0.000333382 -5.245 0
M  V30 36128 H 3551 1.70985 -5.2485 0
M  V30 36129 H 3551.48 2.38091 -3.69065 0
M  V30 36130 H 3552.08 0.782059 -4.18048 0
M  V30 36131 N 3550.4 1.57571 -0.0301311 0
M  V30 36132 C 3551.62 1.96551 0.662011 0
M  V30 36133 C 3552.05 0.906609 1.6481 0
M  V30 36134 O 3551.4 -0.132383 1.80816 0
M  V30 36135 C 3551.45 3.34624 1.34383 0
M  V30 36136 O 3550.56 3.3106 2.45913 0
M  V30 36137 H 3549.9 0.640842 0.173831 0
M  V30 36138 H 3552.43 2.04392 -0.092284 0
M  V30 36139 H 3552.44 3.70878 1.70039 0
M  V30 36140 H 3551.11 4.11237 0.62102 0
M  V30 36141 H 3549.69 3.06524 2.12361 0
M  V30 36142 N 3551.87 -0.243029 1.55715 0
M  V30 36143 C 3553.12 -0.968606 1.77377 0
M  V30 36144 C 3553.44 -1.85707 0.594813 0
M  V30 36145 O 3552.71 -1.91994 -0.389246 0
M  V30 36146 H 3551.29 -0.360635 0.65418 0
M  V30 36147 H 3553.96 -0.260045 1.93157 0
M  V30 36148 H 3553.05 -1.58805 2.68677 0
M  V30 36149 N 3553.35 -1.49159 -0.508854 0
M  V30 36150 C 3554.3 -1.65723 -1.63213 0
M  V30 36151 C 3555.29 -0.523265 -1.61116 0
M  V30 36152 O 3556.5 -0.702658 -1.65719 0
M  V30 36153 H 3552.88 -0.522429 -0.5409 0
M  V30 36154 H 3554.85 -2.60023 -1.46392 0
M  V30 36155 C 3553.6 -1.73377 -3.0139 0
M  V30 36156 H 3552.92 -2.60005 -3.03706 0
M  V30 36157 H 3554.36 -1.89004 -3.79544 0
M  V30 36158 C 3552.82 -0.476888 -3.33508 0
M  V30 36159 O 3553.35 0.400915 -3.99694 0
M  V30 36160 N 3551.55 -0.342196 -2.88578 0
M  V30 36161 H 3551.1 -1.05751 -2.34892 0
M  V30 36162 H 3551.06 0.497703 -3.10436 0
M  V30 36163 N 3554.83 0.759322 -1.38102 0
M  V30 36164 C 3556.08 1.51362 -1.33314 0
M  V30 36165 C 3556.39 1.95452 0.0760981 0
M  V30 36166 O 3557.6 2.70379 0.246494 0
M  V30 36167 C 3556.05 2.73383 -2.34072 0
M  V30 36168 C 3555.66 2.36341 -3.80587 0
M  V30 36169 C 3557.41 3.51291 -2.38317 0
M  V30 36170 C 3555.31 3.54939 -4.73045 0
M  V30 36171 H 3554.24 0.568308 -0.495522 0
M  V30 36172 H 3556.89 0.830574 -1.63627 0
M  V30 36173 H 3555.28 3.4364 -1.96794 0
M  V30 36174 H 3556.45 1.73788 -4.26772 0
M  V30 36175 H 3554.77 1.71581 -3.79406 0
M  V30 36176 H 3557.36 4.39462 -3.04594 0
M  V30 36177 H 3557.71 3.92039 -1.40041 0
M  V30 36178 H 3558.24 2.88042 -2.74366 0
M  V30 36179 H 3554.98 3.19263 -5.72496 0
M  V30 36180 H 3554.5 4.16555 -4.31557 0
M  V30 36181 H 3556.18 4.21595 -4.90782 0
M  V30 36182 N 3556.31 1.22876 0.986873 0
M  V30 36183 C 3557.24 1.02854 2.09627 0
M  V30 36184 C 3558.22 -0.0524819 1.70019 0
M  V30 36185 O 3559.4 0.110908 1.93883 0
M  V30 36186 C 3556.53 0.612 3.41865 0
M  V30 36187 C 3555.49 1.63963 3.95348 0
M  V30 36188 C 3554.81 1.07874 5.23705 0
M  V30 36189 C 3556.11 3.0311 4.25349 0
M  V30 36190 H 3557.81 1.95645 2.26635 0
M  V30 36191 H 3555.35 0.942067 1.08909 0
M  V30 36192 H 3557.31 0.45901 4.18893 0
M  V30 36193 H 3556.03 -0.351583 3.24702 0
M  V30 36194 H 3554.69 1.7805 3.20458 0
M  V30 36195 H 3554.34 0.106334 5.02888 0
M  V30 36196 H 3554.04 1.76532 5.60455 0
M  V30 36197 H 3555.56 0.937466 6.03361 0
M  V30 36198 H 3556.98 2.92362 4.93151 0
M  V30 36199 H 3555.37 3.68946 4.73285 0
M  V30 36200 H 3556.44 3.52589 3.3288 0
M  V30 36201 N 3557.79 -1.18464 1.03942 0
M  V30 36202 C 3559.03 -1.88041 0.740609 0
M  V30 36203 C 3559.36 -1.80667 -0.73379 0
M  V30 36204 O 3558.63 -1.22416 -1.52941 0
M  V30 36205 H 3557.21 -0.696124 0.270961 0
M  V30 36206 H 3559.87 -1.4377 1.31591 0
M  V30 36207 H 3558.96 -2.94109 1.04434 0
M  V30 36208 N 3559.26 -0.818716 -1.34665 0
M  V30 36209 C 3560.68 -0.503948 -1.51435 0
M  V30 36210 C 3560.88 0.97266 -1.7647 0
M  V30 36211 O 3559.94 1.75728 -1.81317 0
M  V30 36212 C 3561.25 -1.35983 -2.68196 0
M  V30 36213 C 3562.8 -1.35652 -2.82077 0
M  V30 36214 C 3563.27 -2.19679 -4.01877 0
M  V30 36215 N 3564.76 -2.1728 -4.09077 0
M  V30 36216 C 3565.5 -2.79047 -5.0092 0
M  V30 36217 N 3564.99 -3.49788 -5.98014 0
M  V30 36218 N 3566.79 -2.68623 -4.93759 0
M  V30 36219 H 3558.94 -1.77485 -1.16674 0
M  V30 36220 H 3561.2 -0.756095 -0.57186 0
M  V30 36221 H 3560.91 -2.40825 -2.56313 0
M  V30 36222 H 3560.78 -1.02157 -3.63103 0
M  V30 36223 H 3563.17 -0.315901 -2.93404 0
M  V30 36224 H 3563.25 -1.73473 -1.87991 0
M  V30 36225 H 3562.89 -3.23788 -3.9131 0
M  V30 36226 H 3562.82 -1.79211 -4.95168 0
M  V30 36227 H 3565.31 -1.6582 -3.39577 0
M  V30 36228 H 3565.63 -3.94174 -6.64715 0
M  V30 36229 H 3563.97 -3.53894 -5.98151 0
M  V30 36230 H 3567.16 -2.12936 -4.16864 0
M  V30 36231 H 3567.34 -3.17048 -5.65141 0
M  V30 36232 N 3560.74 1.46803 -0.573299 0
M  V30 36233 C 3561.97 2.06511 -0.0605468 0
M  V30 36234 C 3562.38 1.42405 1.24569 0
M  V30 36235 O 3561.72 0.520199 1.76181 0
M  V30 36236 C 3561.79 3.59001 0.189331 0
M  V30 36237 C 3561.45 4.45244 -1.02989 0
M  V30 36238 C 3562.45 4.82366 -1.93957 0
M  V30 36239 C 3560.13 4.86521 -1.24909 0
M  V30 36240 C 3562.13 5.59582 -3.052 0
M  V30 36241 C 3559.81 5.63498 -2.36459 0
M  V30 36242 C 3560.81 5.99941 -3.26435 0
M  V30 36243 O 3560.5 6.75364 -4.36048 0
M  V30 36244 H 3560.23 0.674134 -0.0501877 0
M  V30 36245 H 3562.78 1.89559 -0.790985 0
M  V30 36246 H 3561.01 3.74226 0.974271 0
M  V30 36247 H 3562.7 4.00671 0.649435 0
M  V30 36248 H 3563.47 4.51063 -1.78233 0
M  V30 36249 H 3559.35 4.57612 -0.557871 0
M  V30 36250 H 3562.89 5.87945 -3.75455 0
M  V30 36251 H 3558.79 5.94215 -2.52148 0
M  V30 36252 H 3559.56 6.93778 -4.34298 0
M  V30 36253 N 3562.22 0.31058 1.54509 0
M  V30 36254 C 3563.46 -0.296623 2.02236 0
M  V30 36255 C 3563.82 -1.50355 1.19404 0
M  V30 36256 O 3565.03 -2.18275 1.56873 0
M  V30 36257 C 3563.3 -0.635045 3.51713 0
M  V30 36258 S 3564.86 -1.22375 4.2139 0
M  V30 36259 H 3561.67 -0.090501 0.705217 0
M  V30 36260 H 3564.28 0.440682 1.90468 0
M  V30 36261 H 3562.98 0.251691 4.09627 0
M  V30 36262 H 3562.51 -1.40289 3.67536 0
M  V30 36263 H 3564.53 -2.51117 4.27966 0
M  V30 36264 N 3563.7 -1.57553 0.0384871 0
M  V30 36265 C 3564.95 -1.91804 -0.636846 0
M  V30 36266 C 3565.27 -0.916377 -1.72126 0
M  V30 36267 O 3564.54 0.0407061 -1.95858 0
M  V30 36268 H 3563.12 -0.707996 -0.238224 0
M  V30 36269 H 3565.78 -1.94699 0.0884993 0
M  V30 36270 H 3564.88 -2.92685 -1.08359 0
M  V30 36271 N 3565.18 0.234767 -1.55842 0
M  V30 36272 C 3566.13 1.31052 -1.92167 0
M  V30 36273 C 3567.12 1.49205 -0.802132 0
M  V30 36274 O 3568.33 1.50536 -0.986858 0
M  V30 36275 H 3564.7 0.43909 -0.610495 0
M  V30 36276 H 3566.67 0.976877 -2.81957 0
M  V30 36277 C 3565.42 2.6565 -2.24334 0
M  V30 36278 H 3564.74 2.52484 -3.09987 0
M  V30 36279 H 3566.18 3.39765 -2.53645 0
M  V30 36280 C 3564.64 3.19662 -1.06385 0
M  V30 36281 O 3565.17 4.00438 -0.318117 0
M  V30 36282 N 3563.38 2.77854 -0.851216 0
M  V30 36283 H 3562.93 2.12275 -1.45935 0
M  V30 36284 H 3562.88 3.14335 -0.0637428 0
M  V30 36285 N 3566.66 1.49427 0.500936 0
M  V30 36286 C 3567.88 1.62626 1.27908 0
M  V30 36287 C 3568.3 0.297684 1.86438 0
M  V30 36288 O 3567.66 -0.716849 1.67832 0
M  V30 36289 C 3567.71 2.6951 2.40929 0
M  V30 36290 O 3567.43 3.97214 1.84804 0
M  V30 36291 C 3568.93 2.93414 3.323 0
M  V30 36292 H 3566.15 0.547488 0.387941 0
M  V30 36293 H 3568.69 1.95459 0.601338 0
M  V30 36294 H 3566.85 2.39455 3.04533 0
M  V30 36295 H 3567.26 4.5609 2.59003 0
M  V30 36296 H 3568.74 3.71935 4.07883 0
M  V30 36297 H 3569.21 2.03332 3.89298 0
M  V30 36298 H 3569.82 3.24886 2.74462 0
M  V30 36299 N 3568.13 -0.751987 1.38502 0
M  V30 36300 C 3569.38 -1.50652 1.34115 0
M  V30 36301 C 3569.7 -1.9549 -0.0657318 0
M  V30 36302 O 3570.9 -2.70506 -0.232151 0
M  V30 36303 C 3569.36 -2.72138 2.35518 0
M  V30 36304 C 3568.97 -2.3432 3.81835 0
M  V30 36305 C 3570.71 -3.50022 2.40177 0
M  V30 36306 C 3568.62 -3.52426 4.74921 0
M  V30 36307 H 3567.55 -0.565672 0.498529 0
M  V30 36308 H 3570.2 -0.821884 1.64065 0
M  V30 36309 H 3568.58 -3.42591 1.98613 0
M  V30 36310 H 3569.75 -1.71522 4.27688 0
M  V30 36311 H 3568.07 -1.69566 3.80311 0
M  V30 36312 H 3570.67 -4.3784 3.0692 0
M  V30 36313 H 3571.01 -3.9129 1.42118 0
M  V30 36314 H 3571.54 -2.86583 2.75889 0
M  V30 36315 H 3568.28 -3.16222 5.74181 0
M  V30 36316 H 3567.8 -4.14261 4.3376 0
M  V30 36317 H 3569.48 -4.18986 4.93011 0
M  V30 36318 N 3569.61 -1.23398 -0.980343 0
M  V30 36319 C 3571.02 -1.06103 -1.5362 0
M  V30 36320 C 3571.37 0.371611 -1.92649 0
M  V30 36321 O 3570.5 1.25834 -1.76053 0
M  V30 36322 C 3571.09 -1.91984 -2.79155 0
M  V30 36323 C 3569.65 -1.78949 -3.31141 0
M  V30 36324 C 3568.8 -1.87684 -2.04132 0
M  V30 36325 H 3571.75 -1.3706 -0.800023 0
M  V30 36326 H 3571.77 -1.44466 -3.52008 0
M  V30 36327 H 3571.28 -2.96246 -2.50718 0
M  V30 36328 H 3569.38 -0.774698 -3.64457 0
M  V30 36329 H 3569.5 -2.62336 -4.00895 0
M  V30 36330 H 3567.86 -1.31266 -2.18269 0
M  V30 36331 H 3568.64 -2.93503 -1.78076 0
M  V30 36332 N 3571.09 1.17911 -1.04569 0
M  V30 36333 C 3572.37 1.83908 -0.666115 0
M  V30 36334 C 3572.75 1.93053 0.854029 0
M  V30 36335 O 3572.09 1.46029 1.75749 0
M  V30 36336 C 3572.3 3.21924 -1.34781 0
M  V30 36337 C 3573.65 3.97903 -1.48184 0
M  V30 36338 O 3574.68 3.31381 -1.30632 0
M  V30 36339 O 3573.54 5.171 -1.76832 0
M  V30 36340 H 3570.63 0.79329 -0.233708 0
M  V30 36341 H 3573.18 1.25261 -1.14489 0
M  V30 36342 H 3571.95 3.102 -2.38519 0
M  V30 36343 H 3571.57 3.88232 -0.857982 0
M  V30 36344 N 3572.57 0.825847 1.34229 0
M  V30 36345 C 3573.79 0.42739 2.02949 0
M  V30 36346 C 3574.22 -0.959727 1.61774 0
M  V30 36347 O 3573.58 -1.62506 0.803828 0
M  V30 36348 C 3573.62 0.540861 3.56521 0
M  V30 36349 O 3572.73 -0.438141 4.10066 0
M  V30 36350 H 3572.07 0.175546 0.640375 0
M  V30 36351 H 3574.6 1.11707 1.71414 0
M  V30 36352 H 3574.61 0.417701 4.05856 0
M  V30 36353 H 3573.28 1.55253 3.85836 0
M  V30 36354 H 3571.86 -0.273621 3.71895 0
M  V30 36355 N 3574.05 -1.46497 0.581077 0
M  V30 36356 C 3575.29 -2.01599 0.0637544 0
M  V30 36357 C 3575.61 -1.45836 -1.3035 0
M  V30 36358 O 3576.81 -1.92748 -1.91208 0
M  V30 36359 C 3575.27 -3.59844 0.0633887 0
M  V30 36360 C 3574.88 -4.24603 1.42886 0
M  V30 36361 C 3576.62 -4.22611 -0.400075 0
M  V30 36362 C 3574.53 -5.74922 1.38631 0
M  V30 36363 H 3573.46 -0.753733 0.0200644 0
M  V30 36364 H 3576.11 -1.68247 0.732481 0
M  V30 36365 H 3574.49 -3.90266 -0.671469 0
M  V30 36366 H 3575.67 -4.05793 2.18332 0
M  V30 36367 H 3573.98 -3.73924 1.83222 0
M  V30 36368 H 3576.58 -5.32797 -0.450678 0
M  V30 36369 H 3576.92 -3.91433 -1.41726 0
M  V30 36370 H 3577.45 -3.96809 0.280668 0
M  V30 36371 H 3574.19 -6.10757 2.38025 0
M  V30 36372 H 3573.71 -5.96001 0.674031 0
M  V30 36373 H 3575.39 -6.37606 1.09852 0
M  V30 36374 N 3575.52 -0.31877 -1.54343 0
M  V30 36375 C 3576.8 0.339265 -1.92635 0
M  V30 36376 C 3577.18 1.70267 -1.24789 0
M  V30 36377 O 3576.53 2.25149 -0.389884 0
M  V30 36378 C 3576.74 0.436257 -3.46263 0
M  V30 36379 C 3578.09 0.698797 -4.1881 0
M  V30 36380 O 3579.11 0.519369 -3.52393 0
M  V30 36381 O 3577.97 1.04461 -5.36423 0
M  V30 36382 H 3575.06 0.192826 -0.804206 0
M  V30 36383 H 3577.61 -0.368133 -1.65659 0
M  V30 36384 H 3576.38 -0.521495 -3.87809 0
M  V30 36385 H 3576 1.19142 -3.79329 0
M  V30 36386 N 3577 1.5753 -0.0468419 0
M  V30 36387 C 3578.23 1.9683 0.637613 0
M  V30 36388 C 3578.64 0.924187 1.64634 0
M  V30 36389 O 3578 -0.0920819 1.82268 0
M  V30 36390 C 3578.05 3.3621 1.32836 0
M  V30 36391 O 3577.77 4.36618 0.360034 0
M  V30 36392 C 3579.27 3.90243 2.10298 0
M  V30 36393 H 3576.49 0.64788 0.174623 0
M  V30 36394 H 3579.04 2.04194 -0.11186 0
M  V30 36395 H 3577.19 3.3001 2.02909 0
M  V30 36396 H 3577.61 5.17524 0.85257 0
M  V30 36397 H 3579.08 4.90061 2.54056 0
M  V30 36398 H 3579.56 3.25437 2.94937 0
M  V30 36399 H 3580.16 3.99766 1.45144 0
M  V30 36400 N 3578.48 -0.226499 1.55964 0
M  V30 36401 C 3579.71 -0.972814 1.8317 0
M  V30 36402 C 3580.13 -1.77359 0.626543 0
M  V30 36403 O 3579.49 -1.76257 -0.424649 0
M  V30 36404 C 3579.54 -1.87009 3.08318 0
M  V30 36405 O 3578.64 -2.96474 2.86665 0
M  V30 36406 H 3577.98 -0.275726 0.604046 0
M  V30 36407 H 3580.51 -0.24131 2.03172 0
M  V30 36408 H 3580.52 -2.28085 3.38292 0
M  V30 36409 H 3579.2 -1.28148 3.95665 0
M  V30 36410 H 3577.77 -2.59379 2.67912 0
M  V30 36411 N 3579.96 -1.4969 -0.493005 0
M  V30 36412 C 3581.18 -1.63569 -1.27514 0
M  V30 36413 C 3581.61 -0.310138 -1.85526 0
M  V30 36414 O 3580.97 0.723285 -1.66248 0
M  V30 36415 C 3581.01 -2.71301 -2.37547 0
M  V30 36416 O 3580.12 -2.31029 -3.41613 0
M  V30 36417 H 3579.46 -0.547211 -0.376106 0
M  V30 36418 H 3581.99 -1.9593 -0.589294 0
M  V30 36419 H 3582 -2.93713 -2.8319 0
M  V30 36420 H 3580.67 -3.67516 -1.94691 0
M  V30 36421 H 3579.25 -2.18979 -3.01832 0
M  V30 36422 N 3581.44 0.744631 -1.38899 0
M  V30 36423 C 3582.38 1.87989 -1.36977 0
M  V30 36424 C 3583.38 1.6748 -0.254307 0
M  V30 36425 O 3584.58 1.74939 -0.423828 0
M  V30 36426 H 3580.96 0.618653 -0.427518 0
M  V30 36427 H 3582.93 1.86727 -2.32757 0
M  V30 36428 C 3581.68 3.25571 -1.2206 0
M  V30 36429 H 3581 3.41944 -2.07158 0
M  V30 36430 H 3582.44 4.05226 -1.24771 0
M  V30 36431 C 3580.9 3.36824 0.0717821 0
M  V30 36432 O 3581.43 3.87855 1.04553 0
M  V30 36433 N 3579.64 2.90302 0.131621 0
M  V30 36434 H 3579.18 2.48962 -0.661472 0
M  V30 36435 H 3579.14 2.98211 0.995883 0
M  V30 36436 N 3582.91 1.23916 0.973785 0
M  V30 36437 C 3584.14 1.10209 1.75105 0
M  V30 36438 C 3584.56 -0.345903 1.85604 0
M  V30 36439 O 3583.91 -1.23898 1.33999 0
M  V30 36440 C 3583.97 1.72915 3.17463 0
M  V30 36441 O 3583.69 3.12052 3.07498 0
M  V30 36442 C 3585.19 1.64737 4.11554 0
M  V30 36443 H 3582.41 0.385355 0.549311 0
M  V30 36444 H 3584.95 1.639 1.22298 0
M  V30 36445 H 3583.11 1.23241 3.67274 0
M  V30 36446 H 3583.52 3.42582 3.97163 0
M  V30 36447 H 3584.99 2.13304 5.09122 0
M  V30 36448 H 3585.47 0.607428 4.34979 0
M  V30 36449 H 3586.08 2.13809 3.67649 0
M  V30 36450 N 3584.39 -1.17355 1.05193 0
M  V30 36451 C 3585.36 -2.19577 0.657169 0
M  V30 36452 C 3586.36 -1.58138 -0.291352 0
M  V30 36453 O 3587.55 -1.74038 -0.0752234 0
M  V30 36454 C 3584.68 -3.40882 -0.0347562 0
M  V30 36455 H 3585.87 -2.56016 1.56192 0
M  V30 36456 H 3583.42 -1.31437 0.845818 0
M  V30 36457 H 3584.16 -3.09988 -0.95278 0
M  V30 36458 H 3583.94 -3.86723 0.647144 0
M  V30 36459 H 3585.43 -4.16542 -0.297062 0
M  V30 36460 N 3585.87 -0.832954 -1.3379 0
M  V30 36461 C 3587.12 -0.426447 -1.98266 0
M  V30 36462 C 3587.45 1.01032 -1.6585 0
M  V30 36463 O 3586.72 1.70535 -0.93531 0
M  V30 36464 C 3587.01 -0.640649 -3.54355 0
M  V30 36465 C 3586.86 -2.12426 -3.96479 0
M  V30 36466 C 3588.18 -0.0830011 -4.40022 0
M  V30 36467 H 3585.3 -0.156417 -0.72021 0
M  V30 36468 H 3587.94 -1.04737 -1.58525 0
M  V30 36469 H 3586.09 -0.112108 -3.88338 0
M  V30 36470 H 3587.76 -2.71721 -3.72781 0
M  V30 36471 H 3586.01 -2.61098 -3.46425 0
M  V30 36472 H 3586.68 -2.2249 -5.05175 0
M  V30 36473 H 3589.15 -0.534707 -4.1265 0
M  V30 36474 H 3588.03 -0.262607 -5.48271 0
M  V30 36475 H 3588.29 1.01279 -4.30343 0
M  V30 36476 N 3587.35 1.46186 -0.588837 0
M  V30 36477 C 3588.59 2.02654 -0.0768773 0
M  V30 36478 C 3588.93 1.45862 1.28211 0
M  V30 36479 O 3588.2 0.626055 1.84149 0
M  V30 36480 C 3588.49 3.60096 -0.0177062 0
M  V30 36481 C 3588.34 4.2726 -1.40602 0
M  V30 36482 C 3589.66 4.34818 0.679788 0
M  V30 36483 H 3586.78 0.736413 -0.029411 0
M  V30 36484 H 3589.42 1.74259 -0.757213 0
M  V30 36485 H 3587.57 3.84418 0.561672 0
M  V30 36486 H 3589.24 4.14182 -2.03104 0
M  V30 36487 H 3587.48 3.86385 -1.97203 0
M  V30 36488 H 3588.15 5.36058 -1.31703 0
M  V30 36489 H 3590.63 4.15677 0.187527 0
M  V30 36490 H 3589.51 5.44543 0.690237 0
M  V30 36491 H 3589.77 4.06321 1.74229 0
M  V30 36492 N 3588.83 0.32695 1.54171 0
M  V30 36493 C 3590.24 -0.0255774 1.5958 0
M  V30 36494 C 3590.44 -1.50184 1.3434 0
M  V30 36495 O 3589.5 -2.25829 1.12949 0
M  V30 36496 C 3590.81 0.395693 2.98085 0
M  V30 36497 C 3592.36 0.346634 3.11075 0
M  V30 36498 C 3592.83 0.743118 4.51931 0
M  V30 36499 N 3594.33 0.696655 4.57931 0
M  V30 36500 C 3595.06 0.975592 5.6504 0
M  V30 36501 N 3594.56 1.32184 6.80073 0
M  V30 36502 N 3596.35 0.900929 5.54833 0
M  V30 36503 H 3588.5 1.28875 1.68834 0
M  V30 36504 H 3590.76 0.524254 0.789849 0
M  V30 36505 H 3590.47 1.42437 3.21566 0
M  V30 36506 H 3590.34 -0.237579 3.76451 0
M  V30 36507 H 3592.73 -0.672838 2.87327 0
M  V30 36508 H 3592.81 1.01489 2.34806 0
M  V30 36509 H 3592.46 1.76052 4.76412 0
M  V30 36510 H 3592.39 0.0525189 5.26574 0
M  V30 36511 H 3594.88 0.441035 3.75318 0
M  V30 36512 H 3595.19 1.51996 7.57705 0
M  V30 36513 H 3593.53 1.36013 6.81561 0
M  V30 36514 H 3596.73 0.629894 4.63843 0
M  V30 36515 H 3596.9 1.12167 6.38218 0
M  V30 36516 N 3590.3 -1.57503 0.0551955 0
M  V30 36517 C 3591.55 -1.92849 -0.617686 0
M  V30 36518 C 3591.88 -0.933892 -1.70613 0
M  V30 36519 O 3591.13 0.0531729 -1.95628 0
M  V30 36520 C 3591.43 -3.34869 -1.24889 0
M  V30 36521 C 3591.1 -4.49978 -0.288245 0
M  V30 36522 C 3589.76 -4.81194 -0.023917 0
M  V30 36523 C 3592.11 -5.19886 0.369896 0
M  V30 36524 C 3589.44 -5.79664 0.90592 0
M  V30 36525 C 3591.79 -6.1935 1.28795 0
M  V30 36526 C 3590.46 -6.48993 1.56091 0
M  V30 36527 H 3589.73 -0.705686 -0.226027 0
M  V30 36528 H 3592.37 -1.91108 0.122533 0
M  V30 36529 H 3590.68 -3.32997 -2.06446 0
M  V30 36530 H 3592.38 -3.595 -1.77653 0
M  V30 36531 H 3588.97 -4.25621 -0.504449 0
M  V30 36532 H 3593.15 -4.95978 0.178777 0
M  V30 36533 H 3588.41 -6.00964 1.12483 0
M  V30 36534 H 3592.58 -6.72629 1.80396 0
M  V30 36535 H 3590.21 -7.25108 2.28304 0
M  V30 36536 N 3591.78 0.218225 -1.56082 0
M  V30 36537 C 3593.03 0.943522 -1.79515 0
M  V30 36538 C 3593.36 1.83854 -0.6254 0
M  V30 36539 O 3592.64 1.90847 0.375192 0
M  V30 36540 C 3592.92 1.77961 -3.13052 0
M  V30 36541 C 3592.77 0.910862 -4.40481 0
M  V30 36542 C 3594.09 2.75674 -3.43062 0
M  V30 36543 H 3591.21 0.341582 -0.653063 0
M  V30 36544 H 3593.85 0.212193 -1.88811 0
M  V30 36545 H 3592 2.40312 -3.05258 0
M  V30 36546 H 3593.67 0.303841 -4.60298 0
M  V30 36547 H 3591.92 0.216437 -4.3326 0
M  V30 36548 H 3592.59 1.53033 -5.30363 0
M  V30 36549 H 3595.06 2.23459 -3.51006 0
M  V30 36550 H 3593.94 3.31275 -4.37662 0
M  V30 36551 H 3594.2 3.53579 -2.65395 0
M  V30 36552 N 3593.26 1.4995 0.485059 0
M  V30 36553 C 3594.49 1.63973 1.26176 0
M  V30 36554 C 3594.9 0.317441 1.86112 0
M  V30 36555 O 3594.26 -0.699008 1.68583 0
M  V30 36556 C 3594.31 2.7205 2.38057 0
M  V30 36557 O 3594.03 3.99152 1.80581 0
M  V30 36558 C 3595.53 2.96922 3.29169 0
M  V30 36559 H 3592.75 0.551571 0.382113 0
M  V30 36560 H 3595.3 1.96086 0.580573 0
M  V30 36561 H 3593.45 2.42671 3.01976 0
M  V30 36562 H 3593.87 4.58811 2.54151 0
M  V30 36563 H 3595.34 3.7624 4.03915 0
M  V30 36564 H 3595.82 2.0745 3.87119 0
M  V30 36565 H 3596.42 3.27779 2.71 0
M  V30 36566 N 3594.74 -0.737255 1.39292 0
M  V30 36567 C 3596.02 -1.48845 1.26904 0
M  V30 36568 C 3596.4 -2.10745 -0.12238 0
M  V30 36569 O 3595.74 -1.9841 -1.1334 0
M  V30 36570 C 3595.95 -2.54168 2.39164 0
M  V30 36571 C 3597.3 -3.20614 2.78374 0
M  V30 36572 O 3598.33 -2.6448 2.38597 0
M  V30 36573 O 3597.19 -4.22183 3.47022 0
M  V30 36574 H 3594.28 -0.660858 0.497188 0
M  V30 36575 H 3596.83 -0.771272 1.5116 0
M  V30 36576 H 3595.6 -2.06792 3.32194 0
M  V30 36577 H 3595.22 -3.33448 2.16561 0
M  V30 36578 N 3596.22 -1.24431 -0.967199 0
M  V30 36579 C 3597.47 -1.08216 -1.70686 0
M  V30 36580 C 3597.79 0.379659 -1.91268 0
M  V30 36581 O 3597.06 1.27091 -1.49079 0
M  V30 36582 H 3595.64 -0.397461 -0.632482 0
M  V30 36583 H 3598.3 -1.56358 -1.16354 0
M  V30 36584 H 3597.39 -1.5806 -2.69116 0
M  V30 36585 N 3597.7 1.16795 -1.05814 0
M  V30 36586 C 3598.92 1.9166 -0.792552 0
M  V30 36587 C 3599.35 1.76638 0.646567 0
M  V30 36588 O 3598.7 1.08838 1.44996 0
M  V30 36589 C 3598.75 3.40542 -1.18591 0
M  V30 36590 O 3597.86 4.11143 -0.321789 0
M  V30 36591 H 3597.2 0.597287 -0.290077 0
M  V30 36592 H 3599.73 1.48004 -1.41266 0
M  V30 36593 H 3599.74 3.91299 -1.15537 0
M  V30 36594 H 3598.41 3.50794 -2.23419 0
M  V30 36595 H 3596.99 3.70601 -0.413469 0
M  V30 36596 N 3599.17 0.840037 1.33346 0
M  V30 36597 C 3600.42 0.436955 1.98037 0
M  V30 36598 C 3600.75 -1.00151 1.66383 0
M  V30 36599 O 3600.03 -1.70037 0.944341 0
M  V30 36600 C 3600.31 0.659432 3.54011 0
M  V30 36601 C 3600.16 2.14525 3.95347 0
M  V30 36602 C 3601.48 0.106335 4.39972 0
M  V30 36603 H 3598.6 0.160234 0.719371 0
M  V30 36604 H 3601.24 1.05577 1.57967 0
M  V30 36605 H 3599.39 0.132701 3.88273 0
M  V30 36606 H 3601.07 2.73694 3.71335 0
M  V30 36607 H 3599.31 2.62932 3.45035 0
M  V30 36608 H 3599.98 2.25166 5.03988 0
M  V30 36609 H 3602.46 0.556583 4.12361 0
M  V30 36610 H 3601.33 0.29168 5.48124 0
M  V30 36611 H 3601.59 -0.989956 4.30874 0
M  V30 36612 N 3600.65 -1.45872 0.596582 0
M  V30 36613 C 3601.88 -2.06688 0.0935289 0
M  V30 36614 C 3602.29 -1.44307 -1.21741 0
M  V30 36615 O 3601.65 -0.553284 -1.73911 0
M  V30 36616 C 3601.7 -3.61443 -0.0642702 0
M  V30 36617 O 3601.42 -4.21493 1.19479 0
M  V30 36618 C 3602.92 -4.3922 -0.600064 0
M  V30 36619 H 3600.14 -0.66796 0.0637963 0
M  V30 36620 H 3602.69 -1.87288 0.821192 0
M  V30 36621 H 3600.84 -3.80224 -0.742211 0
M  V30 36622 H 3601.26 -5.14537 1.01744 0
M  V30 36623 H 3602.73 -5.48045 -0.659604 0
M  V30 36624 H 3603.21 -4.0823 -1.62002 0
M  V30 36625 H 3603.81 -4.25278 0.0434662 0
M  V30 36626 N 3602.13 -0.335122 -1.53996 0
M  V30 36627 C 3603.09 0.512976 -2.23386 0
M  V30 36628 C 3604.09 1.03433 -1.23119 0
M  V30 36629 O 3605.28 0.924918 -1.47617 0
M  V30 36630 C 3602.41 1.71372 -2.94694 0
M  V30 36631 H 3603.61 -0.0937833 -2.99753 0
M  V30 36632 H 3601.16 -0.0863534 -1.56061 0
M  V30 36633 H 3601.9 2.3594 -2.22492 0
M  V30 36634 H 3601.68 1.34717 -3.68231 0
M  V30 36635 H 3603.17 2.31546 -3.47529 0
M  V30 36636 N 3603.61 1.57472 -0.0635475 0
M  V30 36637 C 3604.83 1.97911 0.620171 0
M  V30 36638 C 3605.26 0.941364 1.62849 0
M  V30 36639 O 3604.62 -0.0939994 1.81056 0
M  V30 36640 C 3604.66 3.374 1.27255 0
M  V30 36641 O 3603.77 3.36202 2.38835 0
M  V30 36642 H 3603.11 0.644385 0.160199 0
M  V30 36643 H 3605.64 2.0415 -0.135618 0
M  V30 36644 H 3605.65 3.74402 1.62134 0
M  V30 36645 H 3604.32 4.12462 0.533651 0
M  V30 36646 H 3602.9 3.1096 2.05812 0
M  V30 36647 N 3605.09 -0.209945 1.56195 0
M  V30 36648 C 3606.33 -0.930764 1.79391 0
M  V30 36649 C 3606.65 -1.84403 0.634071 0
M  V30 36650 O 3605.92 -1.92776 -0.348434 0
M  V30 36651 H 3604.5 -0.346678 0.661682 0
M  V30 36652 H 3607.17 -0.219015 1.93666 0
M  V30 36653 H 3606.26 -1.53071 2.71985 0
M  V30 36654 N 3606.56 -1.50205 -0.4771 0
M  V30 36655 C 3607.81 -1.60893 -1.22962 0
M  V30 36656 C 3608.14 -0.306498 -1.9207 0
M  V30 36657 O 3607.39 0.70724 -1.82474 0
M  V30 36658 C 3607.69 -2.73457 -2.30122 0
M  V30 36659 C 3607.36 -4.14147 -1.78307 0
M  V30 36660 C 3606.02 -4.52428 -1.63896 0
M  V30 36661 C 3608.37 -5.02101 -1.39801 0
M  V30 36662 C 3605.7 -5.76411 -1.09394 0
M  V30 36663 C 3608.05 -6.26625 -0.867428 0
M  V30 36664 C 3606.72 -6.63714 -0.709905 0
M  V30 36665 H 3605.99 -0.588751 -0.449948 0
M  V30 36666 H 3608.63 -1.84118 -0.52656 0
M  V30 36667 H 3606.94 -2.44297 -3.06311 0
M  V30 36668 H 3608.64 -2.78932 -2.88094 0
M  V30 36669 H 3605.23 -3.83943 -1.90489 0
M  V30 36670 H 3609.41 -4.73162 -1.49771 0
M  V30 36671 H 3604.67 -6.03827 -0.959307 0
M  V30 36672 H 3608.84 -6.94142 -0.560374 0
M  V30 36673 H 3606.47 -7.59664 -0.285421 0
M  V30 36674 N 3608.04 0.729857 -1.39681 0
M  V30 36675 C 3609.46 1.03608 -1.21398 0
M  V30 36676 C 3609.66 2.01344 -0.0791656 0
M  V30 36677 O 3608.71 2.46039 0.567531 0
M  V30 36678 C 3610.03 1.59345 -2.55009 0
M  V30 36679 C 3611.58 1.714 -2.61899 0
M  V30 36680 C 3612.05 2.30545 -3.95744 0
M  V30 36681 N 3613.54 2.37948 -3.9741 0
M  V30 36682 C 3614.28 2.84661 -4.9775 0
M  V30 36683 N 3613.77 3.31232 -6.08487 0
M  V30 36684 N 3615.57 2.83917 -4.85126 0
M  V30 36685 H 3607.72 0.0817497 -2.12243 0
M  V30 36686 H 3609.98 0.098884 -0.942829 0
M  V30 36687 H 3609.69 0.949946 -3.38628 0
M  V30 36688 H 3609.56 2.58078 -2.75092 0
M  V30 36689 H 3611.95 2.34871 -1.78661 0
M  V30 36690 H 3612.03 0.713057 -2.45661 0
M  V30 36691 H 3611.67 1.677 -4.79415 0
M  V30 36692 H 3611.6 3.31326 -4.09305 0
M  V30 36693 H 3614.09 2.05039 -3.17439 0
M  V30 36694 H 3614.41 3.65402 -6.80956 0
M  V30 36695 H 3612.75 3.29228 -6.12073 0
M  V30 36696 H 3615.94 2.4686 -3.97715 0
M  V30 36697 H 3616.11 3.20007 -5.63471 0
M  V30 36698 N 3609.52 1.24942 0.960587 0
M  V30 36699 C 3610.45 1.07277 2.07398 0
M  V30 36700 C 3611.43 -0.0164066 1.70092 0
M  V30 36701 O 3612.62 0.152009 1.93604 0
M  V30 36702 C 3609.75 0.684377 3.4049 0
M  V30 36703 C 3608.7 1.72312 3.91781 0
M  V30 36704 C 3608.03 1.18959 5.21299 0
M  V30 36705 C 3609.33 3.12064 4.18824 0
M  V30 36706 H 3611.02 2.00408 2.22434 0
M  V30 36707 H 3608.57 0.964956 1.06886 0
M  V30 36708 H 3610.52 0.54776 4.17825 0
M  V30 36709 H 3609.24 -0.28263 3.25375 0
M  V30 36710 H 3607.9 1.84808 3.1661 0
M  V30 36711 H 3607.55 0.21298 5.02549 0
M  V30 36712 H 3607.25 1.8838 5.56585 0
M  V30 36713 H 3608.77 1.06524 6.01236 0
M  V30 36714 H 3610.19 3.02756 4.86838 0
M  V30 36715 H 3608.59 3.78902 4.65353 0
M  V30 36716 H 3609.66 3.5957 3.25327 0
M  V30 36717 N 3611 -1.16233 1.06432 0
M  V30 36718 C 3612.41 -1.38788 0.788045 0
M  V30 36719 C 3612.61 -1.91982 -0.611985 0
M  V30 36720 O 3611.67 -2.11952 -1.37231 0
M  V30 36721 C 3612.98 -2.36735 1.8541 0
M  V30 36722 C 3614.53 -2.50417 1.87777 0
M  V30 36723 C 3615.01 -3.51648 2.93441 0
M  V30 36724 N 3616.5 -3.59176 2.92484 0
M  V30 36725 C 3617.23 -4.37298 3.70888 0
M  V30 36726 N 3616.73 -5.18831 4.59115 0
M  V30 36727 N 3618.52 -4.32294 3.59274 0
M  V30 36728 H 3610.67 -0.800414 1.96741 0
M  V30 36729 H 3612.94 -0.414382 0.852638 0
M  V30 36730 H 3612.64 -2.04746 2.85958 0
M  V30 36731 H 3612.52 -3.364 1.70631 0
M  V30 36732 H 3614.9 -2.81709 0.878874 0
M  V30 36733 H 3614.98 -1.50783 2.06635 0
M  V30 36734 H 3614.63 -3.21093 3.93525 0
M  V30 36735 H 3614.56 -4.51015 2.71832 0
M  V30 36736 H 3617.05 -3.00975 2.28523 0
M  V30 36737 H 3617.36 -5.75659 5.15593 0
M  V30 36738 H 3615.71 -5.18169 4.63169 0
M  V30 36739 H 3618.9 -3.67658 2.89733 0
M  V30 36740 H 3619.07 -4.92931 4.20622 0
M  V30 36741 N 3612.48 -0.847097 -1.32899 0
M  V30 36742 C 3613.72 -0.446789 -1.9751 0
M  V30 36743 C 3614.05 0.995875 -1.67071 0
M  V30 36744 O 3613.31 1.71247 -0.947263 0
M  V30 36745 C 3613.61 -0.623907 -3.51912 0
M  V30 36746 C 3613.27 -2.0359 -4.02321 0
M  V30 36747 C 3611.93 -2.4221 -4.15798 0
M  V30 36748 C 3614.29 -2.95781 -4.29142 0
M  V30 36749 C 3611.61 -3.72309 -4.53434 0
M  V30 36750 C 3613.97 -4.2537 -4.68234 0
M  V30 36751 C 3612.63 -4.63935 -4.79917 0
M  V30 36752 H 3611.9 -0.163492 -0.722739 0
M  V30 36753 H 3614.55 -1.0757 -1.58433 0
M  V30 36754 H 3612.85 0.0882759 -3.91701 0
M  V30 36755 H 3614.55 -0.294339 -3.99918 0
M  V30 36756 H 3611.14 -1.72598 -3.92311 0
M  V30 36757 H 3615.32 -2.67179 -4.18245 0
M  V30 36758 H 3610.58 -4.01982 -4.60674 0
M  V30 36759 H 3614.75 -4.96875 -4.87943 0
M  V30 36760 H 3612.38 -5.64791 -5.08837 0
M  V30 36761 N 3613.95 1.45554 -0.604309 0
M  V30 36762 C 3614.86 2.34301 0.118367 0
M  V30 36763 C 3615.88 1.51046 0.863781 0
M  V30 36764 O 3617.06 1.83857 0.822106 0
M  V30 36765 C 3614.12 3.28608 1.10532 0
M  V30 36766 C 3613.18 4.27769 0.362226 0
M  V30 36767 C 3612.42 5.17571 1.30217 0
M  V30 36768 O 3612.64 5.10734 2.53982 0
M  V30 36769 O 3611.57 5.96546 0.801011 0
M  V30 36770 H 3615.4 2.97493 -0.610868 0
M  V30 36771 H 3612.98 1.44883 -0.364587 0
M  V30 36772 H 3614.87 3.8673 1.67385 0
M  V30 36773 H 3613.54 2.67985 1.81564 0
M  V30 36774 H 3612.45 3.73273 -0.248681 0
M  V30 36775 H 3613.78 4.91238 -0.307541 0
M  V30 36776 N 3615.43 0.343284 1.53816 0
M  V30 36777 C 3616.66 -0.257382 2.05797 0
M  V30 36778 C 3617.08 -1.43457 1.21662 0
M  V30 36779 O 3616.44 -1.79831 0.230309 0
M  V30 36780 C 3616.49 -0.650618 3.54682 0
M  V30 36781 O 3615.59 -1.75068 3.73397 0
M  V30 36782 H 3614.93 -0.0427454 0.662623 0
M  V30 36783 H 3617.46 0.497421 1.98461 0
M  V30 36784 H 3617.47 -0.927844 3.9731 0
M  V30 36785 H 3616.15 0.210272 4.15368 0
M  V30 36786 H 3614.73 -1.47074 3.42672 0
M  V30 36787 N 3616.91 -1.57436 0.0718977 0
M  V30 36788 C 3618.14 -1.98237 -0.609666 0
M  V30 36789 C 3618.56 -0.949987 -1.62348 0
M  V30 36790 O 3617.92 0.0843963 -1.81103 0
M  V30 36791 C 3617.97 -3.3807 -1.25464 0
M  V30 36792 O 3617.07 -3.37463 -2.37049 0
M  V30 36793 H 3616.41 -0.645226 -0.156779 0
M  V30 36794 H 3618.94 -2.04075 0.146442 0
M  V30 36795 H 3618.95 -3.75256 -1.60146 0
M  V30 36796 H 3617.63 -4.12739 -0.51177 0
M  V30 36797 H 3616.2 -3.12047 -2.0416 0
M  V30 36798 N 3618.39 0.201658 -1.56305 0
M  V30 36799 C 3619.32 1.27777 -1.89072 0
M  V30 36800 C 3620.3 1.44264 -0.750116 0
M  V30 36801 O 3621.48 1.59759 -1.00047 0
M  V30 36802 C 3618.61 2.64534 -2.11518 0
M  V30 36803 C 3617.66 2.64953 -3.34218 0
M  V30 36804 S 3618.49 2.17038 -4.89545 0
M  V30 36805 C 3619.65 3.55632 -5.1505 0
M  V30 36806 H 3619.88 0.997922 -2.80051 0
M  V30 36807 H 3617.41 0.404846 -1.48998 0
M  V30 36808 H 3619.37 3.43258 -2.25132 0
M  V30 36809 H 3618.03 2.89733 -1.213 0
M  V30 36810 H 3617.22 3.65495 -3.4703 0
M  V30 36811 H 3616.83 1.94306 -3.19564 0
M  V30 36812 H 3619.12 4.51454 -5.05168 0
M  V30 36813 H 3620.06 3.4772 -6.16844 0
M  V30 36814 H 3620.47 3.5024 -4.4271 0
M  V30 36815 N 3619.87 1.50456 0.469128 0
M  V30 36816 C 3620.78 1.72252 1.59268 0
M  V30 36817 C 3621.79 0.605697 1.63117 0
M  V30 36818 O 3622.97 0.884254 1.8095 0
M  V30 36819 C 3620.03 1.81377 2.95471 0
M  V30 36820 C 3619.09 3.05119 3.01994 0
M  V30 36821 C 3618.33 3.13799 4.31701 0
M  V30 36822 O 3618.55 2.2922 5.22316 0
M  V30 36823 O 3617.48 4.0654 4.43857 0
M  V30 36824 H 3621.31 2.67498 1.438 0
M  V30 36825 H 3618.9 1.34575 0.648831 0
M  V30 36826 H 3620.78 1.89547 3.76364 0
M  V30 36827 H 3619.45 0.893148 3.11134 0
M  V30 36828 H 3618.36 3.02448 2.20173 0
M  V30 36829 H 3619.69 3.96766 2.91269 0
M  V30 36830 N 3621.34 -0.722439 1.40066 0
M  V30 36831 C 3622.25 -1.86676 1.42089 0
M  V30 36832 C 3623.27 -1.71139 0.314253 0
M  V30 36833 O 3624.45 -1.93523 0.557744 0
M  V30 36834 C 3621.51 -3.22403 1.27503 0
M  V30 36835 C 3620.57 -3.50244 2.4825 0
M  V30 36836 C 3619.81 -4.79495 2.3435 0
M  V30 36837 O 3620.03 -5.54105 1.35365 0
M  V30 36838 O 3618.96 -5.07518 3.23588 0
M  V30 36839 H 3622.79 -1.87925 2.38575 0
M  V30 36840 H 3620.37 -0.871947 1.21315 0
M  V30 36841 H 3622.26 -4.03489 1.2155 0
M  V30 36842 H 3620.93 -3.21897 0.341197 0
M  V30 36843 H 3619.84 -2.69194 2.59779 0
M  V30 36844 H 3621.17 -3.55541 3.4037 0
M  V30 36845 N 3622.82 -1.2545 -0.953947 0
M  V30 36846 C 3624.06 -1.11444 -1.71346 0
M  V30 36847 C 3624.43 0.338715 -1.88989 0
M  V30 36848 O 3625.63 0.600606 -2.62004 0
M  V30 36849 C 3623.9 -1.84872 -3.05871 0
M  V30 36850 S 3625.46 -1.86766 -3.97069 0
M  V30 36851 H 3622.28 -0.39832 -0.58895 0
M  V30 36852 H 3624.88 -1.58984 -1.13773 0
M  V30 36853 H 3623.58 -2.89691 -2.90701 0
M  V30 36854 H 3623.11 -1.37722 -3.68505 0
M  V30 36855 H 3625.13 -0.945195 -4.87114 0
M  V30 36856 N 3624.3 1.15667 -1.07047 0
M  V30 36857 C 3625.55 1.86011 -0.790204 0
M  V30 36858 C 3625.87 1.82549 0.685631 0
M  V30 36859 O 3625.14 1.26428 1.49642 0
M  V30 36860 H 3623.72 0.688696 -0.289322 0
M  V30 36861 H 3626.38 1.40231 -1.35357 0
M  V30 36862 H 3625.48 2.91237 -1.12195 0
M  V30 36863 N 3625.78 0.854133 1.32447 0
M  V30 36864 C 3627.03 0.456354 1.9688 0
M  V30 36865 C 3627.35 -0.991218 1.67928 0
M  V30 36866 O 3626.62 -1.69264 0.986224 0
M  V30 36867 H 3625.2 0.165765 0.728376 0
M  V30 36868 H 3627.86 1.09045 1.6154 0
M  V30 36869 H 3626.96 0.60098 3.06259 0
M  V30 36870 N 3627.26 -1.45231 0.61202 0
M  V30 36871 C 3628.53 -1.95558 0.0407344 0
M  V30 36872 C 3628.91 -1.55438 -1.42836 0
M  V30 36873 O 3628.26 -0.819093 -2.13315 0
M  V30 36874 C 3628.47 -3.4815 0.243498 0
M  V30 36875 C 3629.82 -4.24411 0.126626 0
M  V30 36876 O 3630.84 -3.55775 0.173852 0
M  V30 36877 O 3629.7 -5.46498 0.0154487 0
M  V30 36878 H 3626.8 -0.826333 -0.0332143 0
M  V30 36879 H 3629.34 -1.55375 0.682391 0
M  V30 36880 H 3628.12 -3.70335 1.26364 0
M  V30 36881 H 3627.74 -3.95233 -0.433211 0
M  V30 36882 N 3628.74 -0.351436 -1.53632 0
M  V30 36883 C 3629.67 0.493869 -2.28217 0
M  V30 36884 C 3630.65 1.09597 -1.30087 0
M  V30 36885 O 3631.83 1.11588 -1.5894 0
M  V30 36886 C 3628.96 1.64097 -3.06088 0
M  V30 36887 C 3627.92 1.16682 -4.11788 0
M  V30 36888 C 3627.24 2.40305 -4.77658 0
M  V30 36889 C 3628.54 0.261651 -5.21644 0
M  V30 36890 H 3630.24 -0.128353 -2.99125 0
M  V30 36891 H 3627.78 -0.0631715 -1.43861 0
M  V30 36892 H 3629.73 2.23884 -3.57007 0
M  V30 36893 H 3628.46 2.29021 -2.32846 0
M  V30 36894 H 3627.12 0.59172 -3.61793 0
M  V30 36895 H 3626.77 3.03654 -4.01003 0
M  V30 36896 H 3626.47 2.09259 -5.49076 0
M  V30 36897 H 3627.99 3.00804 -5.31366 0
M  V30 36898 H 3629.4 0.766589 -5.68152 0
M  V30 36899 H 3627.8 0.0427077 -6.00085 0
M  V30 36900 H 3628.87 -0.700083 -4.7982 0
M  V30 36901 N 3630.21 1.57396 -0.0802459 0
M  V30 36902 C 3631.15 2.10199 0.91374 0
M  V30 36903 C 3632.16 1.03595 1.25586 0
M  V30 36904 O 3633.35 1.31085 1.21157 0
M  V30 36905 C 3630.45 2.55443 2.22716 0
M  V30 36906 C 3629.62 3.85714 2.06261 0
M  V30 36907 C 3628.68 4.16962 3.20982 0
M  V30 36908 O 3627.71 4.86425 2.956 0
M  V30 36909 N 3628.91 3.7118 4.46325 0
M  V30 36910 H 3631.67 2.96104 0.462856 0
M  V30 36911 H 3629.23 1.61557 0.105259 0
M  V30 36912 H 3631.23 2.73403 2.98384 0
M  V30 36913 H 3629.8 1.74628 2.59275 0
M  V30 36914 H 3629.02 3.7705 1.1501 0
M  V30 36915 H 3630.3 4.70968 1.92527 0
M  V30 36916 H 3629.7 3.15079 4.69831 0
M  V30 36917 H 3628.26 3.94323 5.18992 0
M  V30 36918 N 3631.69 -0.193366 1.56409 0
M  V30 36919 C 3632.94 -0.911685 1.80368 0
M  V30 36920 C 3633.26 -1.8372 0.653593 0
M  V30 36921 O 3632.53 -1.93135 -0.327967 0
M  V30 36922 H 3631.11 -0.33964 0.665322 0
M  V30 36923 H 3633.77 -0.198462 1.93887 0
M  V30 36924 H 3632.87 -1.50177 2.73593 0
M  V30 36925 N 3633.17 -1.50702 -0.461142 0
M  V30 36926 C 3634.39 -1.66237 -1.24016 0
M  V30 36927 C 3634.82 -0.34942 -1.84826 0
M  V30 36928 O 3634.18 0.687859 -1.67744 0
M  V30 36929 C 3634.23 -2.76278 -2.31738 0
M  V30 36930 O 3633.33 -2.38223 -3.36635 0
M  V30 36931 H 3632.67 -0.555066 -0.364414 0
M  V30 36932 H 3635.2 -1.97136 -0.547601 0
M  V30 36933 H 3635.21 -2.99654 -2.76897 0
M  V30 36934 H 3633.89 -3.71563 -1.86851 0
M  V30 36935 H 3632.46 -2.25332 -2.97119 0
M  V30 36936 N 3634.65 0.715001 -1.40447 0
M  V30 36937 C 3635.9 1.47044 -1.38062 0
M  V30 36938 C 3636.21 1.95595 0.0138781 0
M  V30 36939 O 3637.42 2.71026 0.16035 0
M  V30 36940 C 3635.87 2.65798 -2.42651 0
M  V30 36941 C 3635.48 2.24114 -3.87914 0
M  V30 36942 C 3637.22 3.43531 -2.49373 0
M  V30 36943 C 3635.13 3.3971 -4.84098 0
M  V30 36944 H 3634.06 0.552256 -0.513351 0
M  V30 36945 H 3636.71 0.778097 -1.66186 0
M  V30 36946 H 3635.09 3.37205 -2.07627 0
M  V30 36947 H 3636.27 1.60123 -4.32085 0
M  V30 36948 H 3634.58 1.59423 -3.84673 0
M  V30 36949 H 3637.18 4.29549 -3.18421 0
M  V30 36950 H 3637.52 3.87385 -1.52442 0
M  V30 36951 H 3638.06 2.79168 -2.83391 0
M  V30 36952 H 3634.79 3.00887 -5.82363 0
M  V30 36953 H 3634.31 4.02615 -4.44591 0
M  V30 36954 H 3635.99 4.05767 -5.03946 0
M  V30 36955 N 3636.13 1.25954 0.947281 0
M  V30 36956 C 3637.37 1.10918 1.68943 0
M  V30 36957 C 3637.69 -0.349182 1.91848 0
M  V30 36958 O 3636.96 -1.24704 1.51082 0
M  V30 36959 H 3635.54 0.407473 0.626079 0
M  V30 36960 H 3638.21 1.58189 1.13851 0
M  V30 36961 H 3637.3 1.62321 2.66567 0
M  V30 36962 N 3637.6 -1.15097 1.07659 0
M  V30 36963 C 3638.83 -1.89833 0.822858 0
M  V30 36964 C 3639.25 -1.78181 -0.62425 0
M  V30 36965 O 3638.6 -1.13589 -1.42842 0
M  V30 36966 C 3638.66 -3.40074 1.22604 0
M  V30 36967 O 3638.38 -3.51394 2.61637 0
M  V30 36968 C 3639.88 -4.31826 1.00207 0
M  V30 36969 H 3637.1 -0.601544 0.297298 0
M  V30 36970 H 3639.64 -1.4581 1.43386 0
M  V30 36971 H 3637.8 -3.81749 0.659297 0
M  V30 36972 H 3638.21 -4.44659 2.7817 0
M  V30 36973 H 3639.68 -5.35647 1.33365 0
M  V30 36974 H 3640.16 -4.39157 -0.0614093 0
M  V30 36975 H 3640.77 -3.95898 1.55387 0
M  V30 36976 N 3639.08 -0.861145 -1.31993 0
M  V30 36977 C 3640.33 -0.467713 -1.97025 0
M  V30 36978 C 3640.66 0.978099 -1.68117 0
M  V30 36979 O 3639.91 1.70232 -0.965372 0
M  V30 36980 C 3640.21 -0.661197 -3.51231 0
M  V30 36981 C 3639.88 -2.07846 -4.00139 0
M  V30 36982 C 3638.54 -2.46607 -4.13205 0
M  V30 36983 C 3640.89 -3.00316 -4.25981 0
M  V30 36984 C 3638.22 -3.77097 -4.4946 0
M  V30 36985 C 3640.57 -4.30312 -4.63696 0
M  V30 36986 C 3639.24 -4.68999 -4.74969 0
M  V30 36987 H 3638.51 -0.171148 -0.720964 0
M  V30 36988 H 3641.15 -1.09244 -1.57283 0
M  V30 36989 H 3639.46 0.0467258 -3.91772 0
M  V30 36990 H 3641.15 -0.336739 -3.99584 0
M  V30 36991 H 3637.74 -1.76749 -3.90458 0
M  V30 36992 H 3641.93 -2.716 -4.15388 0
M  V30 36993 H 3637.18 -4.06846 -4.56384 0
M  V30 36994 H 3641.36 -5.02022 -4.82646 0
M  V30 36995 H 3638.99 -5.70156 -5.02818 0
M  V30 36996 N 3640.56 1.44905 -0.619713 0
M  V30 36997 C 3641.79 2.06514 -0.126399 0
M  V30 36998 C 3642.2 1.46226 1.1943 0
M  V30 36999 O 3641.56 0.580882 1.73009 0
M  V30 37000 C 3641.61 3.61499 0.00675965 0
M  V30 37001 O 3641.33 4.19539 -1.2617 0
M  V30 37002 C 3642.83 4.40119 0.530112 0
M  V30 37003 H 3640.05 0.666861 -0.0744149 0
M  V30 37004 H 3642.6 1.85958 -0.850883 0
M  V30 37005 H 3640.75 3.81356 0.681627 0
M  V30 37006 H 3641.17 5.12853 -1.09917 0
M  V30 37007 H 3642.64 5.49025 0.572331 0
M  V30 37008 H 3643.12 4.10756 1.55487 0
M  V30 37009 H 3643.72 4.25155 -0.111119 0
M  V30 37010 N 3642.04 0.359579 1.53443 0
M  V30 37011 C 3643.26 -0.23554 2.06058 0
M  V30 37012 C 3643.69 -1.42158 1.23177 0
M  V30 37013 O 3643.05 -1.79577 0.24937 0
M  V30 37014 C 3643.09 -0.612963 3.55352 0
M  V30 37015 O 3642.2 -1.71098 3.75232 0
M  V30 37016 H 3641.54 -0.035715 0.663039 0
M  V30 37017 H 3644.07 0.518443 1.97923 0
M  V30 37018 H 3644.08 -0.885652 3.98272 0
M  V30 37019 H 3642.75 0.254316 4.15122 0
M  V30 37020 H 3641.33 -1.43431 3.44212 0
M  V30 37021 N 3643.52 -1.57351 0.0885919 0
M  V30 37022 C 3644.93 -1.81404 -0.441537 0
M  V30 37023 C 3645.28 -1.00375 -1.6858 0
M  V30 37024 O 3644.4 -0.231191 -2.15161 0
M  V30 37025 C 3645 -3.29028 -0.807828 0
M  V30 37026 C 3643.56 -3.53868 -1.28273 0
M  V30 37027 C 3642.7 -2.75921 -0.276168 0
M  V30 37028 H 3645.66 -1.5556 0.31411 0
M  V30 37029 H 3645.68 -3.41996 -1.66791 0
M  V30 37030 H 3645.19 -3.87976 0.0979568 0
M  V30 37031 H 3643.29 -3.00244 -2.20645 0
M  V30 37032 H 3643.4 -4.62531 -1.24906 0
M  V30 37033 H 3641.77 -2.43192 -0.756965 0
M  V30 37034 H 3642.55 -3.37615 0.622182 0
M  V30 37035 N 3644.99 0.185069 -1.5651 0
M  V30 37036 C 3645.94 1.24872 -1.96239 0
M  V30 37037 C 3646.94 1.46578 -0.849195 0
M  V30 37038 O 3648.14 1.4732 -1.03425 0
M  V30 37039 H 3644.52 0.419446 -0.624155 0
M  V30 37040 H 3646.49 0.88668 -2.84922 0
M  V30 37041 C 3645.24 2.58378 -2.32671 0
M  V30 37042 H 3644.56 2.42495 -3.17862 0
M  V30 37043 H 3646 3.31524 -2.64326 0
M  V30 37044 C 3644.46 3.16116 -1.16501 0
M  V30 37045 O 3644.99 3.99224 -0.445353 0
M  V30 37046 N 3643.2 2.75005 -0.939182 0
M  V30 37047 H 3642.74 2.07525 -1.52615 0
M  V30 37048 H 3642.7 3.13973 -0.163714 0
M  V30 37049 N 3646.47 1.50945 0.453144 0
M  V30 37050 C 3647.7 1.66371 1.22491 0
M  V30 37051 C 3648.11 0.353886 1.85861 0
M  V30 37052 O 3647.45 -0.676001 1.7081 0
M  V30 37053 C 3647.52 2.71068 2.36141 0
M  V30 37054 C 3647.18 4.14122 1.93266 0
M  V30 37055 C 3648.18 4.99416 1.44499 0
M  V30 37056 C 3645.86 4.60139 2.01439 0
M  V30 37057 C 3647.86 6.2878 1.04471 0
M  V30 37058 C 3645.54 5.89504 1.61022 0
M  V30 37059 C 3646.54 6.73651 1.12619 0
M  V30 37060 O 3646.23 8.006 0.727694 0
M  V30 37061 H 3645.96 0.56185 0.3759 0
M  V30 37062 H 3648.51 1.98033 0.545183 0
M  V30 37063 H 3646.74 2.34687 3.07341 0
M  V30 37064 H 3648.43 2.75532 2.98055 0
M  V30 37065 H 3649.2 4.65074 1.37592 0
M  V30 37066 H 3645.08 3.94776 2.38062 0
M  V30 37067 H 3648.62 6.94412 0.6662 0
M  V30 37068 H 3644.52 6.23364 1.67595 0
M  V30 37069 H 3645.29 8.14023 0.854954 0
M  V30 37070 N 3647.95 -0.707543 1.40825 0
M  V30 37071 C 3649.36 -1.28701 1.35251 0
M  V30 37072 C 3649.71 -1.96177 0.0298371 0
M  V30 37073 O 3648.84 -1.98049 -0.872091 0
M  V30 37074 C 3649.43 -2.34041 2.4497 0
M  V30 37075 C 3647.99 -2.87593 2.42831 0
M  V30 37076 C 3647.14 -1.61479 2.25432 0
M  V30 37077 H 3650.09 -0.503114 1.50514 0
M  V30 37078 H 3650.11 -3.15066 2.13339 0
M  V30 37079 H 3649.62 -1.84902 3.41223 0
M  V30 37080 H 3647.72 -3.40941 1.503 0
M  V30 37081 H 3647.84 -3.38839 3.3871 0
M  V30 37082 H 3646.2 -1.86845 1.73092 0
M  V30 37083 H 3646.98 -1.14353 3.23695 0
M  V30 37084 N 3649.43 -1.26454 -0.940588 0
M  V30 37085 C 3650.38 -1.07877 -2.06071 0
M  V30 37086 C 3651.37 -0.00552988 -1.69399 0
M  V30 37087 O 3652.58 -0.162255 -1.79267 0
M  V30 37088 H 3648.95 -0.332004 -0.674742 0
M  V30 37089 H 3650.92 -2.02803 -2.18892 0
M  V30 37090 C 3649.67 -0.729114 -3.39969 0
M  V30 37091 H 3648.99 -1.54682 -3.68665 0
M  V30 37092 H 3650.43 -0.638918 -4.19158 0
M  V30 37093 C 3648.89 0.565777 -3.32115 0
M  V30 37094 O 3649.42 1.60392 -3.6829 0
M  V30 37095 N 3647.63 0.556628 -2.85219 0
M  V30 37096 H 3647.18 -0.288586 -2.55978 0
M  V30 37097 H 3647.13 1.42313 -2.80347 0
M  V30 37098 N 3650.91 1.14525 -1.08268 0
M  V30 37099 C 3652.32 1.671 -0.832731 0
M  V30 37100 C 3652.67 1.85443 0.640743 0
M  V30 37101 O 3651.79 1.56455 1.49502 0
M  V30 37102 C 3652.39 3.03534 -1.50507 0
M  V30 37103 C 3650.95 3.53149 -1.3024 0
M  V30 37104 C 3650.09 2.28659 -1.56877 0
M  V30 37105 H 3653.05 0.986096 -1.24346 0
M  V30 37106 H 3653.07 3.68922 -0.931491 0
M  V30 37107 H 3652.58 2.90152 -2.57746 0
M  V30 37108 H 3650.68 3.71756 -0.250648 0
M  V30 37109 H 3650.79 4.34012 -2.02905 0
M  V30 37110 H 3649.16 2.34662 -0.990255 0
M  V30 37111 H 3649.94 2.17854 -2.6532 0
M  V30 37112 N 3652.39 0.868133 1.31534 0
M  V30 37113 C 3653.33 0.311621 2.30503 0
M  V30 37114 C 3654.33 -0.572304 1.5944 0
M  V30 37115 O 3655.53 -0.458609 1.7406 0
M  V30 37116 H 3651.91 0.0820876 0.747506 0
M  V30 37117 H 3653.88 1.16031 2.74917 0
M  V30 37118 C 3652.63 -0.473562 3.4446 0
M  V30 37119 H 3651.95 0.197329 3.99313 0
M  V30 37120 H 3653.39 -0.82832 4.1583 0
M  V30 37121 C 3651.85 -1.66411 2.92932 0
M  V30 37122 O 3652.38 -2.76339 2.91547 0
M  V30 37123 N 3650.59 -1.49563 2.49157 0
M  V30 37124 H 3650.13 -0.601364 2.50482 0
M  V30 37125 H 3650.09 -2.29362 2.15036 0
M  V30 37126 N 3653.86 -1.44574 0.627389 0
M  V30 37127 C 3655.27 -1.85479 0.213181 0
M  V30 37128 C 3655.63 -1.5249 -1.23456 0
M  V30 37129 O 3654.75 -0.961149 -1.93884 0
M  V30 37130 C 3655.35 -3.36661 0.380122 0
M  V30 37131 C 3653.9 -3.76394 0.0204511 0
M  V30 37132 C 3653.05 -2.68442 0.695272 0
M  V30 37133 H 3656 -1.35093 0.832794 0
M  V30 37134 H 3656.02 -3.78578 -0.382011 0
M  V30 37135 H 3655.54 -3.6064 1.43389 0
M  V30 37136 H 3653.64 -3.58031 -1.03173 0
M  V30 37137 H 3653.75 -4.77185 0.427904 0
M  V30 37138 H 3652.11 -2.54363 0.130943 0
M  V30 37139 H 3652.9 -2.95254 1.75156 0
M  V30 37140 N 3655.34 -0.367711 -1.5325 0
M  V30 37141 C 3656.29 0.494248 -2.22578 0
M  V30 37142 C 3657.28 1.04698 -1.22177 0
M  V30 37143 O 3658.47 0.97667 -1.47615 0
M  V30 37144 C 3655.6 1.63233 -3.0201 0
M  V30 37145 C 3654.68 1.09237 -4.0979 0
M  V30 37146 N 3655.07 0.275577 -5.05049 0
M  V30 37147 C 3653.37 1.36697 -4.24535 0
M  V30 37148 C 3654.07 -0.0202996 -5.81696 0
M  V30 37149 N 3653.05 0.577896 -5.40519 0
M  V30 37150 H 3656.85 -0.136584 -2.93582 0
M  V30 37151 H 3654.36 -0.175842 -1.61445 0
M  V30 37152 H 3656.36 2.26203 -3.50197 0
M  V30 37153 H 3655.02 2.2662 -2.32537 0
M  V30 37154 H 3656.03 -0.0853963 -5.1783 0
M  V30 37155 H 3652.71 2.00347 -3.66289 0
M  V30 37156 H 3654.1 -0.680739 -6.68443 0
M  V30 37157 N 3656.82 1.57302 -0.0969353 0
M  V30 37158 C 3658.07 1.94035 0.56522 0
M  V30 37159 C 3658.39 0.97963 1.68607 0
M  V30 37160 O 3657.66 0.0320133 1.95874 0
M  V30 37161 H 3656.24 0.71635 0.211783 0
M  V30 37162 H 3658.9 1.94236 -0.1607 0
M  V30 37163 H 3658 2.96505 0.974216 0
M  V30 37164 N 3658.3 -0.176766 1.56606 0
M  V30 37165 C 3659.71 -0.528328 1.50602 0
M  V30 37166 C 3659.91 -1.84928 0.800238 0
M  V30 37167 O 3658.97 -2.49944 0.358343 0
M  V30 37168 C 3660.28 -0.56612 2.95323 0
M  V30 37169 C 3661.83 -0.653697 3.06098 0
M  V30 37170 C 3662.31 -0.722431 4.52266 0
M  V30 37171 N 3663.8 -0.785468 4.56492 0
M  V30 37172 C 3664.53 -0.859133 5.66927 0
M  V30 37173 N 3664.03 -0.893967 6.87008 0
M  V30 37174 N 3665.82 -0.897734 5.54885 0
M  V30 37175 H 3657.97 0.689478 2.00898 0
M  V30 37176 H 3660.23 0.247926 0.915006 0
M  V30 37177 H 3659.94 0.335722 3.50094 0
M  V30 37178 H 3659.81 -1.4145 3.49674 0
M  V30 37179 H 3662.2 -1.54596 2.51364 0
M  V30 37180 H 3662.28 0.221252 2.54841 0
M  V30 37181 H 3661.93 0.165558 5.0763 0
M  V30 37182 H 3661.86 -1.61345 5.01274 0
M  V30 37183 H 3664.35 -0.767052 3.70033 0
M  V30 37184 H 3664.66 -0.951199 7.66924 0
M  V30 37185 H 3663.01 -0.862336 6.89629 0
M  V30 37186 H 3666.2 -0.867484 4.59992 0
M  V30 37187 H 3666.37 -0.951682 6.40973 0
M  V30 37188 N 3659.78 -1.51183 -0.445132 0
M  V30 37189 C 3661.02 -1.627 -1.19212 0
M  V30 37190 C 3661.34 -0.345283 -1.92528 0
M  V30 37191 O 3662.54 -0.339718 -2.69366 0
M  V30 37192 C 3661 -2.87306 -2.16757 0
M  V30 37193 C 3660.61 -4.22452 -1.49124 0
M  V30 37194 C 3662.35 -3.08178 -2.91936 0
M  V30 37195 C 3660.26 -5.38216 -2.45107 0
M  V30 37196 H 3659.19 -0.605975 -0.448676 0
M  V30 37197 H 3661.84 -1.77643 -0.459924 0
M  V30 37198 H 3660.22 -2.6598 -2.93378 0
M  V30 37199 H 3661.4 -4.54131 -0.781142 0
M  V30 37200 H 3659.71 -4.07395 -0.861271 0
M  V30 37201 H 3662.31 -3.91838 -3.63823 0
M  V30 37202 H 3662.65 -2.20941 -3.52833 0
M  V30 37203 H 3663.18 -3.29807 -2.22424 0
M  V30 37204 H 3659.92 -6.27688 -1.88912 0
M  V30 37205 H 3659.44 -5.10923 -3.14193 0
M  V30 37206 H 3661.12 -5.69849 -3.06401 0
M  V30 37207 N 3661.25 0.700065 -1.41198 0
M  V30 37208 C 3662.49 1.47236 -1.41777 0
M  V30 37209 C 3662.86 1.91985 -0.0240211 0
M  V30 37210 O 3664.06 2.68631 0.0953735 0
M  V30 37211 C 3662.33 2.65487 -2.39273 0
M  V30 37212 S 3663.89 3.54689 -2.58343 0
M  V30 37213 H 3660.71 0.503199 -0.502307 0
M  V30 37214 H 3663.31 0.817265 -1.77598 0
M  V30 37215 H 3662.01 2.30809 -3.39346 0
M  V30 37216 H 3661.54 3.35894 -2.0479 0
M  V30 37217 H 3663.56 4.60525 -1.84747 0
M  V30 37218 N 3662.73 1.26951 0.933869 0
M  V30 37219 C 3663.64 1.1094 2.06711 0
M  V30 37220 C 3664.66 0.0410039 1.73952 0
M  V30 37221 O 3665.83 0.246234 1.99889 0
M  V30 37222 C 3662.9 0.751755 3.38452 0
M  V30 37223 C 3661.96 1.90036 3.84948 0
M  V30 37224 C 3661.19 1.55968 5.10401 0
M  V30 37225 O 3661.42 0.464746 5.68504 0
M  V30 37226 O 3660.35 2.39684 5.52119 0
M  V30 37227 H 3664.18 2.06027 2.23129 0
M  V30 37228 H 3661.76 1.06081 1.052 0
M  V30 37229 H 3663.64 0.565358 4.1759 0
M  V30 37230 H 3662.32 -0.169646 3.23255 0
M  V30 37231 H 3661.22 2.14177 3.06723 0
M  V30 37232 H 3662.56 2.80174 4.04677 0
M  V30 37233 N 3664.21 -1.13949 1.08873 0
M  V30 37234 C 3665.46 -1.85587 0.8324 0
M  V30 37235 C 3665.81 -1.81617 -0.635052 0
M  V30 37236 O 3665.1 -1.23933 -1.46121 0
M  V30 37237 C 3665.3 -3.33133 1.29449 0
M  V30 37238 C 3665.13 -3.5147 2.80533 0
M  V30 37239 C 3663.9 -3.66042 3.4834 0
M  V30 37240 C 3666.09 -3.47989 3.78692 0
M  V30 37241 N 3664.08 -3.72585 4.87908 0
M  V30 37242 C 3665.45 -3.60833 5.04182 0
M  V30 37243 C 3667.5 -3.31356 3.71629 0
M  V30 37244 C 3666.21 -3.58761 6.23444 0
M  V30 37245 C 3668.23 -3.30589 4.90372 0
M  V30 37246 C 3667.59 -3.43978 6.14702 0
M  V30 37247 H 3663.69 -0.695561 0.357377 0
M  V30 37248 H 3666.28 -1.36537 1.38802 0
M  V30 37249 H 3664.45 -3.80764 0.766393 0
M  V30 37250 H 3666.18 -3.92553 0.984075 0
M  V30 37251 H 3662.93 -3.67476 2.98762 0
M  V30 37252 H 3663.36 -3.79561 5.60591 0
M  V30 37253 H 3668 -3.19911 2.76436 0
M  V30 37254 H 3665.72 -3.6898 7.18943 0
M  V30 37255 H 3669.3 -3.18924 4.86599 0
M  V30 37256 H 3668.18 -3.43338 7.05045 0
M  V30 37257 N 3665.69 -0.875096 -1.31072 0
M  V30 37258 C 3667.1 -0.567723 -1.49161 0
M  V30 37259 C 3667.3 0.896937 -1.80436 0
M  V30 37260 O 3666.36 1.6788 -1.88607 0
M  V30 37261 C 3667.67 -1.47236 -2.62187 0
M  V30 37262 C 3669.22 -1.47494 -2.7607 0
M  V30 37263 C 3669.7 -2.36526 -3.92198 0
M  V30 37264 N 3671.19 -2.34435 -3.99493 0
M  V30 37265 C 3671.92 -3.00041 -4.88634 0
M  V30 37266 N 3671.42 -3.74837 -5.8264 0
M  V30 37267 N 3673.21 -2.89324 -4.81921 0
M  V30 37268 H 3665.36 -1.82274 -1.09041 0
M  V30 37269 H 3667.62 -0.779669 -0.539277 0
M  V30 37270 H 3667.33 -2.51479 -2.45868 0
M  V30 37271 H 3667.2 -1.17465 -3.58444 0
M  V30 37272 H 3669.59 -0.440059 -2.918 0
M  V30 37273 H 3669.67 -1.8129 -1.80465 0
M  V30 37274 H 3669.32 -3.40094 -3.77225 0
M  V30 37275 H 3669.25 -2.00052 -4.87121 0
M  V30 37276 H 3671.74 -1.80073 -3.32238 0
M  V30 37277 H 3672.05 -4.22012 -6.47399 0
M  V30 37278 H 3670.4 -3.78945 -5.82603 0
M  V30 37279 H 3673.59 -2.30425 -4.07458 0
M  V30 37280 H 3673.76 -3.40732 -5.51186 0
M  V30 37281 N 3667.17 1.44239 -0.635047 0
M  V30 37282 C 3668.42 2.01224 -0.138533 0
M  V30 37283 C 3668.73 1.50574 1.24848 0
M  V30 37284 O 3669.93 1.99712 1.83922 0
M  V30 37285 C 3668.39 3.59361 -0.196899 0
M  V30 37286 C 3668 4.19007 -1.58547 0
M  V30 37287 C 3669.74 4.23804 0.24295 0
M  V30 37288 C 3667.65 5.69381 -1.59874 0
M  V30 37289 H 3666.58 0.752469 -0.0480249 0
M  V30 37290 H 3669.23 1.65412 -0.79442 0
M  V30 37291 H 3667.61 3.92489 0.526162 0
M  V30 37292 H 3668.79 3.9741 -2.33243 0
M  V30 37293 H 3667.1 3.66866 -1.96973 0
M  V30 37294 H 3669.7 5.34103 0.252623 0
M  V30 37295 H 3670.04 3.96423 1.271 0
M  V30 37296 H 3670.57 3.95494 -0.427748 0
M  V30 37297 H 3667.31 6.01502 -2.60529 0
M  V30 37298 H 3666.83 5.93088 -0.894768 0
M  V30 37299 H 3668.51 6.3309 -1.33441 0
M  V30 37300 N 3668.64 0.375833 1.53053 0
M  V30 37301 C 3669.87 -0.211098 2.0582 0
M  V30 37302 C 3670.29 -1.41618 1.24859 0
M  V30 37303 O 3669.64 -1.80152 0.291817 0
M  V30 37304 C 3669.7 -0.59451 3.56578 0
M  V30 37305 O 3669.42 0.562683 4.34471 0
M  V30 37306 C 3670.92 -1.23874 4.25641 0
M  V30 37307 H 3668.14 -0.035015 0.670086 0
M  V30 37308 H 3670.68 0.537169 1.97319 0
M  V30 37309 H 3668.84 -1.29269 3.65196 0
M  V30 37310 H 3669.25 0.250579 5.23901 0
M  V30 37311 H 3670.72 -1.45749 5.32411 0
M  V30 37312 H 3671.2 -2.20211 3.80005 0
M  V30 37313 H 3671.81 -0.581712 4.21303 0
M  V30 37314 N 3670.12 -1.57248 0.105276 0
M  V30 37315 C 3671.09 -2.13427 -0.835551 0
M  V30 37316 C 3672.09 -1.0659 -1.20396 0
M  V30 37317 O 3673.28 -1.3243 -1.13173 0
M  V30 37318 C 3670.41 -2.66324 -2.12801 0
M  V30 37319 H 3671.6 -2.97879 -0.347553 0
M  V30 37320 H 3669.15 -1.55637 -0.143828 0
M  V30 37321 H 3669.89 -1.85421 -2.66063 0
M  V30 37322 H 3669.67 -3.44447 -1.87346 0
M  V30 37323 H 3671.16 -3.09746 -2.80084 0
M  V30 37324 N 3671.6 0.168458 -1.56697 0
M  V30 37325 C 3673.01 0.730644 -1.71809 0
M  V30 37326 C 3673.36 1.82659 -0.716256 0
M  V30 37327 O 3672.49 2.16057 0.121765 0
M  V30 37328 C 3673.08 1.33211 -3.11513 0
M  V30 37329 C 3671.64 1.84109 -3.283 0
M  V30 37330 C 3670.79 0.721173 -2.67758 0
M  V30 37331 H 3673.74 -0.05697 -1.58598 0
M  V30 37332 H 3673.76 2.20183 -3.10322 0
M  V30 37333 H 3673.27 0.534242 -3.84405 0
M  V30 37334 H 3671.37 2.66531 -2.60368 0
M  V30 37335 H 3671.49 1.98457 -4.36064 0
M  V30 37336 H 3669.85 1.14235 -2.27646 0
M  V30 37337 H 3670.63 -0.0648992 -3.43239 0
M  V30 37338 N 3673.08 1.51417 0.437109 0
M  V30 37339 C 3673.99 1.75592 1.55578 0
M  V30 37340 C 3675 0.64016 1.61796 0
M  V30 37341 O 3676.18 0.922437 1.79034 0
M  V30 37342 C 3673.25 1.87603 2.91558 0
M  V30 37343 C 3672.31 3.11456 2.95455 0
M  V30 37344 C 3671.54 3.22885 4.24948 0
M  V30 37345 O 3671.76 2.40247 5.17337 0
M  V30 37346 O 3670.7 4.15864 4.35133 0
M  V30 37347 H 3674.52 2.70488 1.38093 0
M  V30 37348 H 3672.11 1.35921 0.620139 0
M  V30 37349 H 3673.99 1.97488 3.72259 0
M  V30 37350 H 3672.66 0.958944 3.0917 0
M  V30 37351 H 3671.57 3.0705 2.13708 0
M  V30 37352 H 3672.9 4.02855 2.82787 0
M  V30 37353 N 3674.56 -0.692567 1.41567 0
M  V30 37354 C 3675.8 -1.44975 1.40807 0
M  V30 37355 C 3676.13 -1.94991 0.0191382 0
M  V30 37356 O 3675.4 -1.71901 -0.939513 0
M  V30 37357 H 3673.98 -0.537933 0.518302 0
M  V30 37358 H 3676.64 -0.819529 1.76833 0
M  V30 37359 H 3675.73 -2.31145 2.0971 0
M  V30 37360 N 3676.03 -1.27445 -0.927123 0
M  V30 37361 C 3677.45 -1.04862 -1.20317 0
M  V30 37362 C 3677.65 0.217456 -2.00323 0
M  V30 37363 O 3676.71 0.922791 -2.35034 0
M  V30 37364 C 3678.02 -2.28836 -1.95076 0
M  V30 37365 C 3679.57 -2.3388 -2.08012 0
M  V30 37366 C 3680.04 -3.57585 -2.86176 0
M  V30 37367 N 3681.53 -3.58146 -2.93744 0
M  V30 37368 C 3682.27 -4.50536 -3.5469 0
M  V30 37369 N 3681.76 -5.53231 -4.17022 0
M  V30 37370 N 3683.56 -4.38158 -3.52099 0
M  V30 37371 H 3675.71 -2.08739 -0.392634 0
M  V30 37372 H 3677.97 -0.918076 -0.236307 0
M  V30 37373 H 3677.68 -3.21001 -1.43706 0
M  V30 37374 H 3677.55 -2.34198 -2.95688 0
M  V30 37375 H 3679.94 -1.42221 -2.58567 0
M  V30 37376 H 3680.02 -2.32521 -1.06618 0
M  V30 37377 H 3679.66 -4.49581 -2.36304 0
M  V30 37378 H 3679.59 -3.56195 -3.87857 0
M  V30 37379 H 3682.08 -2.83877 -2.49444 0
M  V30 37380 H 3682.4 -6.19894 -4.61466 0
M  V30 37381 H 3680.74 -5.57072 -4.15567 0
M  V30 37382 H 3683.93 -3.57139 -3.02604 0
M  V30 37383 H 3684.11 -5.10351 -3.99306 0
M  V30 37384 N 3677.51 1.1337 -1.09476 0
M  V30 37385 C 3678.93 1.3665 -0.824565 0
M  V30 37386 C 3679.13 1.93537 0.560869 0
M  V30 37387 O 3678.18 2.15516 1.31563 0
M  V30 37388 C 3679.5 2.31736 -1.91622 0
M  V30 37389 C 3681.05 2.4535 -1.94351 0
M  V30 37390 C 3681.52 3.43744 -3.02661 0
M  V30 37391 N 3683.01 3.51295 -3.01904 0
M  V30 37392 C 3683.75 4.27311 -3.82352 0
M  V30 37393 N 3683.24 5.06476 -4.72709 0
M  V30 37394 N 3685.04 4.22617 -3.70609 0
M  V30 37395 H 3677.19 0.74797 -1.98794 0
M  V30 37396 H 3679.45 0.391631 -0.863325 0
M  V30 37397 H 3679.16 1.97093 -2.91286 0
M  V30 37398 H 3679.03 3.31758 -1.7949 0
M  V30 37399 H 3681.42 2.7928 -0.953256 0
M  V30 37400 H 3681.5 1.45251 -2.1056 0
M  V30 37401 H 3681.14 3.10546 -4.019 0
M  V30 37402 H 3681.07 4.4365 -2.83694 0
M  V30 37403 H 3683.56 2.9481 -2.36422 0
M  V30 37404 H 3683.88 5.61787 -5.30675 0
M  V30 37405 H 3682.22 5.05707 -4.76745 0
M  V30 37406 H 3685.41 3.59847 -2.99379 0
M  V30 37407 H 3685.58 4.81606 -4.33543 0
M  V30 37408 N 3678.99 0.882035 1.30606 0
M  V30 37409 C 3680.24 0.495072 1.9553 0
M  V30 37410 C 3680.55 -0.96002 1.7042 0
M  V30 37411 O 3681.76 -1.45369 2.29303 0
M  V30 37412 C 3680.21 0.834444 3.50093 0
M  V30 37413 C 3679.82 2.30711 3.84027 0
M  V30 37414 C 3681.57 0.516537 4.21346 0
M  V30 37415 C 3679.47 2.58826 5.31755 0
M  V30 37416 H 3678.4 0.181412 0.731851 0
M  V30 37417 H 3681.05 1.0766 1.48598 0
M  V30 37418 H 3679.44 0.182031 3.95581 0
M  V30 37419 H 3680.61 3.00359 3.49458 0
M  V30 37420 H 3678.93 2.59225 3.2587 0
M  V30 37421 H 3681.52 0.703669 5.3005 0
M  V30 37422 H 3681.87 -0.543862 4.12732 0
M  V30 37423 H 3682.4 1.12601 3.81531 0
M  V30 37424 H 3679.14 3.63596 5.45416 0
M  V30 37425 H 3678.66 1.93784 5.67633 0
M  V30 37426 H 3680.34 2.44176 5.99155 0
M  V30 37427 N 3680.47 -1.439 0.642688 0
M  V30 37428 C 3681.7 -2.06286 0.159238 0
M  V30 37429 C 3682.11 -1.48107 -1.17088 0
M  V30 37430 O 3681.47 -0.608332 -1.72063 0
M  V30 37431 C 3681.52 -3.61464 0.0507526 0
M  V30 37432 O 3681.24 -4.17478 1.32828 0
M  V30 37433 C 3682.74 -4.40907 -0.460025 0
M  V30 37434 H 3679.96 -0.665593 0.0850147 0
M  V30 37435 H 3682.51 -1.8458 0.88036 0
M  V30 37436 H 3680.66 -3.82392 -0.62087 0
M  V30 37437 H 3681.07 -5.1104 1.18062 0
M  V30 37438 H 3682.55 -5.49866 -0.484914 0
M  V30 37439 H 3683.03 -4.13178 -1.48933 0
M  V30 37440 H 3683.63 -4.24924 0.178743 0
M  V30 37441 N 3681.95 -0.383945 -1.52852 0
M  V30 37442 C 3682.88 0.44535 -2.29214 0
M  V30 37443 C 3683.86 1.06813 -1.32382 0
M  V30 37444 O 3685.04 1.08191 -1.61271 0
M  V30 37445 C 3682.17 1.57567 -3.09499 0
M  V30 37446 C 3681.13 1.07921 -4.1417 0
M  V30 37447 C 3680.45 2.30119 -4.82648 0
M  V30 37448 C 3681.75 0.150943 -5.22082 0
M  V30 37449 H 3683.45 -0.191773 -2.98785 0
M  V30 37450 H 3680.99 -0.0936724 -1.43695 0
M  V30 37451 H 3682.95 2.16261 -3.61676 0
M  V30 37452 H 3681.67 2.2403 -2.37651 0
M  V30 37453 H 3680.33 0.514846 -3.62967 0
M  V30 37454 H 3679.98 2.9508 -4.07353 0
M  V30 37455 H 3679.68 1.97565 -5.53391 0
M  V30 37456 H 3681.2 2.89465 -5.37627 0
M  V30 37457 H 3682.62 0.645903 -5.6965 0
M  V30 37458 H 3681.01 -0.0845887 -6.0004 0
M  V30 37459 H 3682.08 -0.801703 -4.78227 0
M  V30 37460 N 3683.43 1.5719 -0.113614 0
M  V30 37461 C 3684.36 2.10729 0.875704 0
M  V30 37462 C 3685.34 1.02235 1.26439 0
M  V30 37463 O 3686.52 1.29855 1.36638 0
M  V30 37464 C 3683.65 2.59956 2.17119 0
M  V30 37465 C 3682.69 3.80283 1.93098 0
M  V30 37466 S 3683.53 5.22959 1.15214 0
M  V30 37467 C 3684.68 5.7555 2.45953 0
M  V30 37468 H 3684.92 2.94314 0.4203 0
M  V30 37469 H 3682.45 1.54075 0.100054 0
M  V30 37470 H 3684.41 2.88973 2.91556 0
M  V30 37471 H 3683.07 1.76562 2.59778 0
M  V30 37472 H 3682.26 4.12858 2.89075 0
M  V30 37473 H 3681.86 3.51855 1.26784 0
M  V30 37474 H 3684.15 5.84946 3.41825 0
M  V30 37475 H 3685.1 6.7373 2.17931 0
M  V30 37476 H 3685.51 5.03585 2.55074 0
M  V30 37477 N 3684.9 -0.160146 1.56784 0
M  V30 37478 C 3686.15 -0.87495 1.82622 0
M  V30 37479 C 3686.48 -1.81756 0.692459 0
M  V30 37480 O 3685.73 -1.93074 -0.319501 0
M  V30 37481 C 3686.03 -1.69396 3.14706 0
M  V30 37482 C 3685.7 -0.899296 4.41841 0
M  V30 37483 C 3684.36 -0.680015 4.76371 0
M  V30 37484 C 3686.71 -0.342656 5.20072 0
M  V30 37485 C 3684.04 0.106826 5.86603 0
M  V30 37486 C 3686.39 0.431155 6.31129 0
M  V30 37487 C 3685.06 0.661134 6.64218 0
M  V30 37488 H 3684.33 -0.320167 0.668262 0
M  V30 37489 H 3686.97 -0.139272 1.90993 0
M  V30 37490 H 3685.28 -2.49936 3.01727 0
M  V30 37491 H 3686.98 -2.25027 3.3191 0
M  V30 37492 H 3683.57 -1.08026 4.14763 0
M  V30 37493 H 3687.75 -0.49938 4.93781 0
M  V30 37494 H 3683.01 0.294635 6.1069 0
M  V30 37495 H 3687.18 0.869678 6.90948 0
M  V30 37496 H 3684.81 1.2727 7.49471 0
M  V30 37497 N 3686.38 -1.51647 -0.429072 0
M  V30 37498 C 3687.33 -1.74142 -1.54199 0
M  V30 37499 C 3688.32 -0.607933 -1.58116 0
M  V30 37500 O 3689.53 -0.789514 -1.61761 0
M  V30 37501 H 3685.9 -0.550366 -0.512446 0
M  V30 37502 H 3687.88 -2.67417 -1.32403 0
M  V30 37503 C 3686.62 -1.89109 -2.91776 0
M  V30 37504 H 3685.95 -2.75738 -2.89497 0
M  V30 37505 H 3687.39 -2.08857 -3.68991 0
M  V30 37506 C 3685.85 -0.653003 -3.30511 0
M  V30 37507 O 3686.38 0.188483 -4.01258 0
M  V30 37508 N 3684.58 -0.494684 -2.86359 0
M  V30 37509 H 3684.13 -1.18053 -2.28957 0
M  V30 37510 H 3684.09 0.332448 -3.12637 0
M  V30 37511 N 3687.86 0.685049 -1.41932 0
M  V30 37512 C 3688.81 1.82011 -1.44827 0
M  V30 37513 C 3689.8 1.66251 -0.325112 0
M  V30 37514 O 3691.01 1.72984 -0.497644 0
M  V30 37515 H 3687.38 0.599964 -0.453373 0
M  V30 37516 H 3689.35 1.76687 -2.40467 0
M  V30 37517 C 3688.1 3.20101 -1.35759 0
M  V30 37518 H 3687.43 3.3285 -2.21475 0
M  V30 37519 H 3688.87 3.9957 -1.41845 0
M  V30 37520 C 3687.32 3.36825 -0.0711408 0
M  V30 37521 O 3687.85 3.91941 0.880086 0
M  V30 37522 N 3686.06 2.90599 0.00837544 0
M  V30 37523 H 3685.61 2.45933 -0.76647 0
M  V30 37524 H 3685.57 3.02166 0.868506 0
M  V30 37525 N 3689.34 1.27935 0.920351 0
M  V30 37526 C 3690.27 1.13821 2.0388 0
M  V30 37527 C 3691.25 0.0377152 1.70058 0
M  V30 37528 O 3692.43 0.213526 1.93023 0
M  V30 37529 C 3689.56 0.792355 3.38141 0
M  V30 37530 C 3688.52 1.84689 3.86101 0
M  V30 37531 C 3687.84 1.35483 5.17251 0
M  V30 37532 C 3689.14 3.2523 4.08684 0
M  V30 37533 H 3690.84 2.07383 2.15946 0
M  V30 37534 H 3688.38 0.998472 1.03762 0
M  V30 37535 H 3690.34 0.68041 4.15871 0
M  V30 37536 H 3689.06 -0.178971 3.26109 0
M  V30 37537 H 3687.72 1.94787 3.1057 0
M  V30 37538 H 3687.37 0.372754 5.01617 0
M  V30 37539 H 3687.07 2.05992 5.5031 0
M  V30 37540 H 3688.59 1.25598 5.97543 0
M  V30 37541 H 3690.01 3.18091 4.7696 0
M  V30 37542 H 3688.4 3.93515 4.53063 0
M  V30 37543 H 3689.47 3.69738 3.13722 0
M  V30 37544 N 3690.82 -1.12788 1.10076 0
M  V30 37545 C 3692.23 -1.3621 0.8318 0
M  V30 37546 C 3692.43 -1.93832 -0.550598 0
M  V30 37547 O 3691.49 -2.16211 -1.30419 0
M  V30 37548 C 3692.8 -2.30717 1.92848 0
M  V30 37549 C 3694.35 -2.44316 1.95649 0
M  V30 37550 C 3694.82 -3.42134 3.0448 0
M  V30 37551 N 3696.31 -3.49689 3.03763 0
M  V30 37552 C 3697.05 -4.25277 3.84613 0
M  V30 37553 N 3696.55 -5.03962 4.75388 0
M  V30 37554 N 3698.34 -4.20646 3.72845 0
M  V30 37555 H 3690.49 -0.737417 1.99188 0
M  V30 37556 H 3692.75 -0.387047 0.865389 0
M  V30 37557 H 3692.46 -1.95545 2.92327 0
M  V30 37558 H 3692.33 -3.30801 1.81247 0
M  V30 37559 H 3694.72 -2.7877 0.968053 0
M  V30 37560 H 3694.8 -1.44133 2.11328 0
M  V30 37561 H 3694.44 -3.08411 4.03541 0
M  V30 37562 H 3694.37 -4.42139 2.86043 0
M  V30 37563 H 3696.87 -2.93552 2.37982 0
M  V30 37564 H 3697.18 -5.58964 5.33647 0
M  V30 37565 H 3695.52 -5.03171 4.7942 0
M  V30 37566 H 3698.71 -3.58255 3.01283 0
M  V30 37567 H 3698.89 -4.793 4.36091 0
M  V30 37568 N 3692.29 -0.888949 -1.30136 0
M  V30 37569 C 3693.22 -0.374974 -2.3047 0
M  V30 37570 C 3694.2 0.544294 -1.61157 0
M  V30 37571 O 3695.39 0.457304 -1.88739 0
M  V30 37572 C 3692.52 0.407874 -3.44897 0
M  V30 37573 C 3691.47 -0.419991 -4.25934 0
M  V30 37574 C 3690.8 0.489703 -5.32453 0
M  V30 37575 C 3692.1 -1.66422 -4.95077 0
M  V30 37576 H 3693.79 -1.21341 -2.73709 0
M  V30 37577 H 3691.34 -0.584922 -1.31585 0
M  V30 37578 H 3693.29 0.778104 -4.14154 0
M  V30 37579 H 3692.02 1.28 -3.00472 0
M  V30 37580 H 3690.68 -0.772411 -3.5837 0
M  V30 37581 H 3690.32 1.35965 -4.84275 0
M  V30 37582 H 3690.02 -0.0604445 -5.87569 0
M  V30 37583 H 3691.55 0.856362 -6.04565 0
M  V30 37584 H 3692.96 -1.36435 -5.56829 0
M  V30 37585 H 3691.36 -2.15487 -5.60076 0
M  V30 37586 H 3692.43 -2.40637 -4.20977 0
M  V30 37587 N 3693.77 1.43557 -0.65031 0
M  V30 37588 C 3694.73 2.29175 0.0335922 0
M  V30 37589 C 3695.73 1.42056 0.75344 0
M  V30 37590 O 3696.92 1.63719 0.595129 0
M  V30 37591 C 3694.06 3.24057 1.05829 0
M  V30 37592 H 3695.25 2.91136 -0.719694 0
M  V30 37593 H 3692.8 1.50789 -0.41139 0
M  V30 37594 H 3693.54 2.66985 1.84091 0
M  V30 37595 H 3693.32 3.88282 0.545816 0
M  V30 37596 H 3694.81 3.88326 1.53599 0
M  V30 37597 N 3695.25 0.392045 1.52646 0
M  V30 37598 C 3696.48 -0.189256 2.06033 0
M  V30 37599 C 3696.89 -1.40286 1.26354 0
M  V30 37600 O 3696.25 -1.79832 0.310909 0
M  V30 37601 C 3696.3 -0.556657 3.57188 0
M  V30 37602 O 3696.02 0.608733 4.3385 0
M  V30 37603 C 3697.52 -1.19353 4.26931 0
M  V30 37604 H 3694.74 -0.0279059 0.670419 0
M  V30 37605 H 3697.29 0.558067 1.96738 0
M  V30 37606 H 3695.44 -1.25388 3.66547 0
M  V30 37607 H 3695.86 0.306131 5.23606 0
M  V30 37608 H 3697.33 -1.40094 5.33927 0
M  V30 37609 H 3697.81 -2.16169 3.82319 0
M  V30 37610 H 3698.41 -0.536995 4.21896 0
M  V30 37611 N 3696.73 -1.57127 0.121948 0
M  V30 37612 C 3697.68 -2.12027 -0.838376 0
M  V30 37613 C 3698.66 -1.04177 -1.22621 0
M  V30 37614 O 3699.85 -1.30405 -1.19681 0
M  V30 37615 C 3696.98 -2.72558 -2.08728 0
M  V30 37616 C 3696.07 -3.87492 -1.72367 0
M  V30 37617 N 3696.46 -4.94418 -1.06697 0
M  V30 37618 C 3694.76 -3.97731 -2.01806 0
M  V30 37619 C 3695.46 -5.74767 -0.895409 0
M  V30 37620 N 3694.44 -5.24689 -1.42135 0
M  V30 37621 H 3698.24 -2.92074 -0.327149 0
M  V30 37622 H 3695.75 -1.62201 -0.0804268 0
M  V30 37623 H 3697.75 -3.10234 -2.78497 0
M  V30 37624 H 3696.41 -1.93975 -2.60392 0
M  V30 37625 H 3697.42 -5.12721 -0.730612 0
M  V30 37626 H 3694.1 -3.30194 -2.55496 0
M  V30 37627 H 3695.49 -6.70826 -0.379718 0
M  V30 37628 N 3698.21 0.151829 -1.56867 0
M  V30 37629 C 3699.62 0.71238 -1.72575 0
M  V30 37630 C 3699.97 1.81889 -0.735589 0
M  V30 37631 O 3699.09 2.16174 0.098842 0
M  V30 37632 C 3699.69 1.299 -3.12908 0
M  V30 37633 C 3698.25 1.80617 -3.30234 0
M  V30 37634 C 3697.39 0.692733 -2.68508 0
M  V30 37635 H 3700.35 -0.0737882 -1.58528 0
M  V30 37636 H 3700.37 2.16879 -3.1264 0
M  V30 37637 H 3699.88 0.493441 -3.8495 0
M  V30 37638 H 3697.98 2.63755 -2.63181 0
M  V30 37639 H 3698.09 1.9382 -4.38144 0
M  V30 37640 H 3696.46 1.11814 -2.28844 0
M  V30 37641 H 3697.24 -0.101301 -3.43151 0
M  V30 37642 N 3699.68 1.51872 0.421024 0
M  V30 37643 C 3700.91 1.69467 1.19565 0
M  V30 37644 C 3701.33 0.398301 1.83835 0
M  V30 37645 O 3700.69 -0.643142 1.69509 0
M  V30 37646 C 3700.74 2.82325 2.24332 0
M  V30 37647 O 3699.84 2.47065 3.30201 0
M  V30 37648 H 3699.19 0.564533 0.349569 0
M  V30 37649 H 3701.72 1.98518 0.495142 0
M  V30 37650 H 3701.73 3.0689 2.68855 0
M  V30 37651 H 3700.4 3.76387 1.76934 0
M  V30 37652 H 3698.98 2.3313 2.91041 0
M  V30 37653 N 3701.16 -0.677513 1.42294 0
M  V30 37654 C 3702.4 -1.44962 1.44102 0
M  V30 37655 C 3702.77 -1.91922 0.0545612 0
M  V30 37656 O 3703.97 -2.68748 -0.0526246 0
M  V30 37657 C 3702.24 -2.61647 2.43466 0
M  V30 37658 S 3703.8 -3.50534 2.63954 0
M  V30 37659 H 3700.62 -0.495144 0.510249 0
M  V30 37660 H 3703.22 -0.788907 1.78876 0
M  V30 37661 H 3701.92 -2.25381 3.42975 0
M  V30 37662 H 3701.45 -3.32593 2.10108 0
M  V30 37663 H 3703.47 -4.57527 1.9205 0
M  V30 37664 N 3702.64 -1.28421 -0.913554 0
M  V30 37665 C 3703.59 -1.12224 -2.03737 0
M  V30 37666 C 3704.58 -0.0414607 -1.69349 0
M  V30 37667 O 3705.79 -0.200244 -1.78883 0
M  V30 37668 H 3702.16 -0.346242 -0.667548 0
M  V30 37669 H 3704.13 -2.074 -2.14541 0
M  V30 37670 C 3702.88 -0.801063 -3.38346 0
M  V30 37671 H 3702.21 -1.62467 -3.65301 0
M  V30 37672 H 3703.65 -0.727684 -4.17709 0
M  V30 37673 C 3702.11 0.495203 -3.33241 0
M  V30 37674 O 3702.64 1.52544 -3.71609 0
M  V30 37675 N 3700.84 0.496004 -2.86336 0
M  V30 37676 H 3700.39 -0.342818 -2.55309 0
M  V30 37677 H 3700.35 1.36335 -2.83302 0
M  V30 37678 N 3704.12 1.12202 -1.10672 0
M  V30 37679 C 3705.07 2.20085 -0.752698 0
M  V30 37680 C 3706.06 1.67511 0.252254 0
M  V30 37681 O 3707.27 1.79649 0.112366 0
M  V30 37682 H 3703.64 0.717398 -0.225486 0
M  V30 37683 H 3705.61 2.47197 -1.67141 0
M  V30 37684 C 3704.36 3.47105 -0.203406 0
M  V30 37685 H 3703.68 3.87906 -0.967932 0
M  V30 37686 H 3705.12 4.24 0.0062167 0
M  V30 37687 C 3703.58 3.19642 1.06446 0
M  V30 37688 O 3704.11 3.39601 2.14556 0
M  V30 37689 N 3702.32 2.73431 0.984074 0
M  V30 37690 H 3701.87 2.57389 0.104212 0
M  V30 37691 H 3701.82 2.55432 1.83308 0
M  V30 37692 N 3705.6 0.895838 1.29663 0
M  V30 37693 C 3706.51 0.375127 2.31581 0
M  V30 37694 C 3707.52 -0.528166 1.6579 0
M  V30 37695 O 3708.7 -0.418676 1.97 0
M  V30 37696 C 3705.76 -0.39235 3.44473 0
M  V30 37697 C 3704.82 0.542001 4.25865 0
M  V30 37698 C 3704.06 -0.188943 5.33365 0
M  V30 37699 O 3704.28 -1.41346 5.5261 0
M  V30 37700 O 3703.21 0.466547 6.00089 0
M  V30 37701 H 3707.04 1.22057 2.78093 0
M  V30 37702 H 3704.63 0.66003 1.3403 0
M  V30 37703 H 3706.51 -0.826493 4.13216 0
M  V30 37704 H 3705.18 -1.21391 3.00076 0
M  V30 37705 H 3704.09 1.02518 3.59779 0
M  V30 37706 H 3705.42 1.32987 4.73894 0
M  V30 37707 N 3707.07 -1.43211 0.657914 0
M  V30 37708 C 3708.02 -2.27938 -0.0532413 0
M  V30 37709 C 3709.01 -1.4016 -0.790182 0
M  V30 37710 O 3710.2 -1.63752 -0.671875 0
M  V30 37711 C 3707.33 -3.27931 -1.01568 0
M  V30 37712 C 3706.42 -4.23195 -0.276967 0
M  V30 37713 N 3706.81 -5.00806 0.709047 0
M  V30 37714 C 3705.1 -4.42984 -0.517767 0
M  V30 37715 C 3705.81 -5.70261 1.14794 0
M  V30 37716 N 3704.78 -5.41466 0.481251 0
M  V30 37717 H 3708.58 -2.85361 0.703307 0
M  V30 37718 H 3706.1 -1.54971 0.485579 0
M  V30 37719 H 3708.09 -3.87414 -1.53999 0
M  V30 37720 H 3706.75 -2.72069 -1.77224 0
M  V30 37721 H 3707.77 -5.06344 1.08795 0
M  V30 37722 H 3704.44 -3.98187 -1.25513 0
M  V30 37723 H 3705.83 -6.42553 1.96406 0
M  V30 37724 N 3708.55 -0.400135 -1.52436 0
M  V30 37725 C 3709.8 0.178834 -2.0201 0
M  V30 37726 C 3710.13 1.45552 -1.28563 0
M  V30 37727 O 3709.41 1.90565 -0.389269 0
M  V30 37728 C 3709.69 0.435721 -3.57454 0
M  V30 37729 C 3709.54 -0.857007 -4.4156 0
M  V30 37730 C 3710.86 1.22173 -4.22802 0
M  V30 37731 H 3707.98 0.0635221 -0.734257 0
M  V30 37732 H 3710.62 -0.531833 -1.82405 0
M  V30 37733 H 3708.77 1.04111 -3.7429 0
M  V30 37734 H 3710.44 -1.49351 -4.36454 0
M  V30 37735 H 3708.69 -1.46997 -4.08135 0
M  V30 37736 H 3709.36 -0.631772 -5.48373 0
M  V30 37737 H 3711.83 0.709287 -4.1001 0
M  V30 37738 H 3710.71 1.37021 -5.31523 0
M  V30 37739 H 3710.97 2.23991 -3.81157 0
M  V30 37740 N 3710.03 1.57061 -0.13028 0
M  V30 37741 C 3711.28 1.94752 0.524846 0
M  V30 37742 C 3711.59 1.01663 1.67105 0
M  V30 37743 O 3712.8 1.28865 2.38969 0
M  V30 37744 C 3711.25 3.46157 0.985057 0
M  V30 37745 C 3710.86 4.47802 -0.133301 0
M  V30 37746 C 3712.61 3.92746 1.61092 0
M  V30 37747 C 3710.51 5.90397 0.344242 0
M  V30 37748 H 3709.44 0.727036 0.199837 0
M  V30 37749 H 3712.09 1.82272 -0.211944 0
M  V30 37750 H 3710.48 3.53911 1.77661 0
M  V30 37751 H 3711.65 4.51728 -0.909864 0
M  V30 37752 H 3709.97 4.11031 -0.666521 0
M  V30 37753 H 3712.56 4.96707 1.97954 0
M  V30 37754 H 3712.91 3.33355 2.4936 0
M  V30 37755 H 3713.44 3.8784 0.884573 0
M  V30 37756 H 3710.18 6.5357 -0.502662 0
M  V30 37757 H 3709.7 5.89867 1.08704 0
M  V30 37758 H 3711.38 6.42013 0.801772 0
M  V30 37759 N 3711.51 -0.143508 1.56945 0
M  V30 37760 C 3712.76 -0.856798 1.83812 0
M  V30 37761 C 3713.09 -1.80661 0.712407 0
M  V30 37762 O 3712.36 -1.9242 -0.283709 0
M  V30 37763 C 3712.65 -1.62823 3.21187 0
M  V30 37764 C 3712.5 -0.699666 4.44325 0
M  V30 37765 C 3713.82 -2.58993 3.55824 0
M  V30 37766 H 3710.94 -0.310034 0.668616 0
M  V30 37767 H 3713.58 -0.121867 1.89609 0
M  V30 37768 H 3711.73 -2.25474 3.16376 0
M  V30 37769 H 3713.4 -0.0838808 4.61224 0
M  V30 37770 H 3711.64 -0.00947665 4.33799 0
M  V30 37771 H 3712.32 -1.27555 5.3706 0
M  V30 37772 H 3714.79 -2.06457 3.61268 0
M  V30 37773 H 3713.67 -3.10016 4.5297 0
M  V30 37774 H 3713.93 -3.40514 2.81962 0
M  V30 37775 N 3712.99 -1.52093 -0.412964 0
M  V30 37776 C 3714.23 -1.65964 -1.16027 0
M  V30 37777 C 3714.56 -0.387685 -1.90597 0
M  V30 37778 O 3713.82 0.62921 -1.85309 0
M  V30 37779 C 3714.12 -2.82971 -2.18316 0
M  V30 37780 C 3713.78 -4.21337 -1.60581 0
M  V30 37781 C 3712.44 -4.58973 -1.4456 0
M  V30 37782 C 3714.8 -5.07578 -1.18379 0
M  V30 37783 C 3712.12 -5.80532 -0.848482 0
M  V30 37784 C 3714.48 -6.2974 -0.600874 0
M  V30 37785 C 3713.14 -6.66128 -0.427763 0
M  V30 37786 H 3712.41 -0.607305 -0.424573 0
M  V30 37787 H 3715.06 -1.86186 -0.447995 0
M  V30 37788 H 3713.36 -2.57068 -2.95674 0
M  V30 37789 H 3715.06 -2.909 -2.76004 0
M  V30 37790 H 3711.65 -3.91676 -1.74033 0
M  V30 37791 H 3715.83 -4.79089 -1.29568 0
M  V30 37792 H 3711.09 -6.07353 -0.70234 0
M  V30 37793 H 3715.26 -6.95894 -0.265461 0
M  V30 37794 H 3712.89 -7.60191 0.037035 0
M  V30 37795 N 3714.47 0.669957 -1.42651 0
M  V30 37796 C 3715.41 1.80464 -1.46749 0
M  V30 37797 C 3716.41 1.65897 -0.342727 0
M  V30 37798 O 3717.61 1.72447 -0.515963 0
M  V30 37799 H 3713.99 0.595122 -0.459711 0
M  V30 37800 H 3715.96 1.74126 -2.42328 0
M  V30 37801 C 3714.71 3.18643 -1.39146 0
M  V30 37802 H 3714.03 3.30482 -2.24993 0
M  V30 37803 H 3715.47 3.98043 -1.46075 0
M  V30 37804 C 3713.93 3.3673 -0.106862 0
M  V30 37805 O 3714.46 3.92852 0.838466 0
M  V30 37806 N 3712.67 2.90591 -0.0224469 0
M  V30 37807 H 3712.21 2.45106 -0.792512 0
M  V30 37808 H 3712.17 3.0307 0.836408 0
M  V30 37809 N 3715.94 1.28904 0.90673 0
M  V30 37810 C 3717.19 1.16237 1.65328 0
M  V30 37811 C 3717.51 -0.28797 1.92862 0
M  V30 37812 O 3716.78 -1.19834 1.54973 0
M  V30 37813 H 3715.36 0.427185 0.612798 0
M  V30 37814 H 3718.02 1.61731 1.08761 0
M  V30 37815 H 3717.12 1.7072 2.61268 0
M  V30 37816 N 3717.42 -1.11614 1.11266 0
M  V30 37817 C 3718.67 -1.82674 0.855171 0
M  V30 37818 C 3718.98 -1.85475 -0.621162 0
M  V30 37819 O 3720.19 -2.52617 -0.994842 0
M  V30 37820 C 3718.65 -3.28055 1.48013 0
M  V30 37821 C 3718.25 -3.33588 2.99037 0
M  V30 37822 C 3720 -4.04027 1.3024 0
M  V30 37823 C 3717.9 -4.73356 3.54526 0
M  V30 37824 H 3716.83 -0.684466 0.316264 0
M  V30 37825 H 3719.49 -1.25611 1.33769 0
M  V30 37826 H 3717.87 -3.85038 0.925282 0
M  V30 37827 H 3719.04 -2.86497 3.6091 0
M  V30 37828 H 3717.36 -2.71095 3.16064 0
M  V30 37829 H 3719.95 -5.07246 1.69131 0
M  V30 37830 H 3720.3 -4.1558 0.244797 0
M  V30 37831 H 3720.83 -3.53426 1.82579 0
M  V30 37832 H 3717.57 -4.67 4.59991 0
M  V30 37833 H 3717.09 -5.20864 2.97423 0
M  V30 37834 H 3718.77 -5.4231 3.52858 0
M  V30 37835 N 3718.9 -0.902701 -1.29186 0
M  V30 37836 C 3720.32 -0.599235 -1.47923 0
M  V30 37837 C 3720.52 0.858462 -1.82298 0
M  V30 37838 O 3719.57 1.63841 -1.92126 0
M  V30 37839 C 3720.88 -1.52764 -2.59005 0
M  V30 37840 C 3722.43 -1.53316 -2.72879 0
M  V30 37841 C 3722.91 -2.44792 -3.87093 0
M  V30 37842 N 3724.4 -2.42856 -3.9443 0
M  V30 37843 C 3725.13 -3.10338 -4.82159 0
M  V30 37844 N 3724.63 -3.87111 -5.74558 0
M  V30 37845 N 3726.42 -2.99481 -4.75676 0
M  V30 37846 H 3718.57 -1.84546 -1.05151 0
M  V30 37847 H 3720.84 -0.790933 -0.522618 0
M  V30 37848 H 3720.54 -2.56638 -2.40478 0
M  V30 37849 H 3720.42 -1.25042 -3.55871 0
M  V30 37850 H 3722.8 -0.501855 -2.90801 0
M  V30 37851 H 3722.88 -1.85077 -1.76579 0
M  V30 37852 H 3722.53 -3.48019 -3.69926 0
M  V30 37853 H 3722.46 -2.10339 -4.82768 0
M  V30 37854 H 3724.95 -1.8708 -3.28344 0
M  V30 37855 H 3725.26 -4.3565 -6.38302 0
M  V30 37856 H 3723.61 -3.91217 -5.74434 0
M  V30 37857 H 3726.8 -2.39016 -4.02478 0
M  V30 37858 H 3726.97 -3.52347 -5.43834 0
M  V30 37859 N 3720.38 1.4286 -0.6655 0
M  V30 37860 C 3721.6 2.06524 -0.190435 0
M  V30 37861 C 3722.03 1.49624 1.13993 0
M  V30 37862 O 3721.39 0.611011 1.70694 0
M  V30 37863 C 3721.43 3.6038 -0.126003 0
M  V30 37864 O 3720.54 4.02275 0.908229 0
M  V30 37865 H 3719.88 0.656349 -0.100507 0
M  V30 37866 H 3722.41 1.83155 -0.911891 0
M  V30 37867 H 3722.42 4.07965 0.0532436 0
M  V30 37868 H 3721.09 4.01169 -1.0971 0
M  V30 37869 H 3719.67 3.66256 0.700777 0
M  V30 37870 N 3721.86 0.408213 1.52221 0
M  V30 37871 C 3722.8 -0.432418 2.28545 0
M  V30 37872 C 3723.8 -1.04662 1.332 0
M  V30 37873 O 3725 -0.984928 1.50662 0
M  V30 37874 H 3721.38 -0.158228 0.735165 0
M  V30 37875 H 3723.35 0.232534 2.97493 0
M  V30 37876 C 3722.1 -1.53735 3.11866 0
M  V30 37877 H 3721.42 -1.07407 3.85102 0
M  V30 37878 H 3722.86 -2.09939 3.68377 0
M  V30 37879 C 3721.32 -2.50419 2.25371 0
M  V30 37880 O 3721.85 -3.54281 1.89335 0
M  V30 37881 N 3720.06 -2.20607 1.89159 0
M  V30 37882 H 3719.6 -1.36177 2.18663 0
M  V30 37883 H 3719.56 -2.85542 1.31579 0
M  V30 37884 N 3723.33 -1.56989 0.138607 0
M  V30 37885 C 3724.56 -2.00644 -0.525039 0
M  V30 37886 C 3724.98 -1.01799 -1.58173 0
M  V30 37887 O 3724.34 0.00750816 -1.81298 0
M  V30 37888 C 3724.39 -3.43087 -1.11012 0
M  V30 37889 O 3723.49 -3.47214 -2.22523 0
M  V30 37890 H 3722.83 -0.651295 -0.129272 0
M  V30 37891 H 3725.36 -2.0327 0.232866 0
M  V30 37892 H 3725.37 -3.81711 -1.44086 0
M  V30 37893 H 3724.05 -4.14538 -0.336252 0
M  V30 37894 H 3722.63 -3.20425 -1.90741 0
M  V30 37895 N 3724.81 0.135183 -1.57019 0
M  V30 37896 C 3726.22 0.694036 -1.73321 0
M  V30 37897 C 3726.57 1.81098 -0.75484 0
M  V30 37898 O 3725.7 2.16267 0.0759083 0
M  V30 37899 C 3726.29 1.26574 -3.14268 0
M  V30 37900 C 3724.85 1.77104 -3.32131 0
M  V30 37901 C 3724 0.664216 -2.69228 0
M  V30 37902 H 3726.95 -0.0905981 -1.58441 0
M  V30 37903 H 3726.97 2.13551 -3.14922 0
M  V30 37904 H 3726.48 0.452584 -3.85452 0
M  V30 37905 H 3724.58 2.60949 -2.65963 0
M  V30 37906 H 3724.7 1.89162 -4.40175 0
M  V30 37907 H 3723.06 1.0938 -2.30017 0
M  V30 37908 H 3723.84 -0.137691 -3.43024 0
M  V30 37909 N 3726.29 1.5231 0.404892 0
M  V30 37910 C 3727.22 1.72189 1.51273 0
M  V30 37911 C 3728.24 0.602303 1.51249 0
M  V30 37912 O 3729.42 0.877576 1.55438 0
M  V30 37913 C 3726.52 1.75104 2.90158 0
M  V30 37914 C 3725.7 3.04166 3.14327 0
M  V30 37915 C 3724.76 2.98837 4.33108 0
M  V30 37916 O 3723.78 3.72735 4.30183 0
M  V30 37917 N 3724.98 2.1692 5.38448 0
M  V30 37918 H 3727.75 2.67767 1.34613 0
M  V30 37919 H 3725.31 1.506 0.594238 0
M  V30 37920 H 3727.3 1.69065 3.67694 0
M  V30 37921 H 3725.87 0.869809 3.00255 0
M  V30 37922 H 3725.09 3.23821 2.24797 0
M  V30 37923 H 3726.38 3.89537 3.2732 0
M  V30 37924 H 3725.78 1.56319 5.43674 0
M  V30 37925 H 3724.34 2.16735 6.14711 0
M  V30 37926 N 3727.77 -0.662382 1.43004 0
M  V30 37927 C 3728.7 -1.78737 1.50251 0
M  V30 37928 C 3729.68 -1.66291 0.357963 0
M  V30 37929 O 3730.86 -1.85525 0.573952 0
M  V30 37930 C 3727.99 -3.17112 1.41624 0
M  V30 37931 C 3726.95 -3.4431 2.54234 0
M  V30 37932 C 3726.27 -4.82389 2.30662 0
M  V30 37933 C 3727.57 -3.39965 3.96511 0
M  V30 37934 H 3729.27 -1.72929 2.44409 0
M  V30 37935 H 3726.81 -0.830548 1.17635 0
M  V30 37936 H 3728.77 -3.95558 1.45299 0
M  V30 37937 H 3727.49 -3.23627 0.439662 0
M  V30 37938 H 3726.15 -2.6823 2.49896 0
M  V30 37939 H 3725.8 -4.85569 1.31268 0
M  V30 37940 H 3725.5 -5.01548 3.06142 0
M  V30 37941 H 3727.02 -5.63104 2.36106 0
M  V30 37942 H 3728.44 -4.08361 4.02385 0
M  V30 37943 H 3726.83 -3.7066 4.71944 0
M  V30 37944 H 3727.9 -2.3831 4.22299 0
M  V30 37945 N 3729.25 -1.29383 -0.899882 0
M  V30 37946 C 3730.16 -1.16382 -2.03697 0
M  V30 37947 C 3731.17 -0.0871097 -1.73782 0
M  V30 37948 O 3732.35 -0.299144 -1.99166 0
M  V30 37949 C 3729.41 -0.841225 -3.3634 0
M  V30 37950 C 3728.47 -2.00175 -3.79774 0
M  V30 37951 C 3727.71 -1.69446 -5.06087 0
M  V30 37952 O 3727.93 -0.615312 -5.67071 0
M  V30 37953 O 3726.86 -2.54238 -5.4557 0
M  V30 37954 H 3730.69 -2.1187 -2.17588 0
M  V30 37955 H 3728.28 -1.08833 -1.02351 0
M  V30 37956 H 3730.16 -0.675876 -4.15945 0
M  V30 37957 H 3728.83 0.0838807 -3.23591 0
M  V30 37958 H 3727.74 -2.22234 -3.00937 0
M  V30 37959 H 3729.07 -2.90805 -3.97106 0
M  V30 37960 N 3730.72 1.11022 -1.11856 0
M  V30 37961 C 3731.67 2.17189 -0.780863 0
M  V30 37962 C 3732.64 1.64213 0.249629 0
M  V30 37963 O 3733.83 1.90386 0.125569 0
M  V30 37964 C 3730.97 3.44299 -0.23497 0
M  V30 37965 C 3730.08 4.11258 -1.32254 0
M  V30 37966 C 3729.21 5.26066 -0.736731 0
M  V30 37967 C 3728.25 5.84917 -1.80385 0
M  V30 37968 N 3727.39 6.91113 -1.23721 0
M  V30 37969 H 3732.23 2.4542 -1.69035 0
M  V30 37970 H 3729.77 1.20474 -0.844062 0
M  V30 37971 H 3731.73 4.17081 0.0995331 0
M  V30 37972 H 3730.36 3.16438 0.637697 0
M  V30 37973 H 3729.41 3.36505 -1.77393 0
M  V30 37974 H 3730.72 4.51048 -2.12973 0
M  V30 37975 H 3729.87 6.05675 -0.352539 0
M  V30 37976 H 3728.61 4.87594 0.101725 0
M  V30 37977 H 3727.62 5.03983 -2.1973 0
M  V30 37978 H 3728.84 6.25455 -2.64542 0
M  V30 37979 H 3726.79 6.54651 -0.420472 0
M  V30 37980 H 3726.71 7.29582 -1.98106 0
M  V30 37981 H 3727.97 7.74516 -0.880049 0
M  V30 37982 N 3732.2 0.90954 1.28706 0
M  V30 37983 C 3733.13 0.411592 2.29844 0
M  V30 37984 C 3734.11 -0.518586 1.62002 0
M  V30 37985 O 3735.3 -0.427219 1.89443 0
M  V30 37986 C 3732.43 -0.352953 3.45502 0
M  V30 37987 C 3731.38 0.4877 4.25212 0
M  V30 37988 C 3730.71 -0.404932 5.33165 0
M  V30 37989 C 3732.01 1.74277 4.92366 0
M  V30 37990 H 3733.7 1.2568 2.71744 0
M  V30 37991 H 3731.25 0.605782 1.30638 0
M  V30 37992 H 3733.2 -0.712118 4.15339 0
M  V30 37993 H 3731.93 -1.23203 3.02471 0
M  V30 37994 H 3730.58 0.829327 3.57096 0
M  V30 37995 H 3730.23 -1.28243 4.86377 0
M  V30 37996 H 3729.93 0.153914 5.87398 0
M  V30 37997 H 3731.46 -0.760072 6.05851 0
M  V30 37998 H 3732.87 1.45276 5.54588 0
M  V30 37999 H 3731.27 2.2437 5.56577 0
M  V30 38000 H 3732.34 2.47304 4.17096 0
M  V30 38001 N 3733.68 -1.42505 0.673067 0
M  V30 38002 C 3734.92 -2.03434 0.198472 0
M  V30 38003 C 3735.28 -1.52061 -1.17224 0
M  V30 38004 O 3736.49 -2.04765 -1.7414 0
M  V30 38005 C 3734.76 -3.56663 0.229482 0
M  V30 38006 S 3736.32 -4.38453 -0.174364 0
M  V30 38007 H 3733.13 -0.706283 0.0817636 0
M  V30 38008 H 3735.74 -1.74279 0.885834 0
M  V30 38009 H 3734.44 -3.91551 1.22948 0
M  V30 38010 H 3733.97 -3.90488 -0.47777 0
M  V30 38011 H 3735.99 -4.75799 -1.40818 0
M  V30 38012 N 3735.16 -0.41628 -1.52003 0
M  V30 38013 C 3736.38 0.158901 -2.0679 0
M  V30 38014 C 3736.81 1.37489 -1.28368 0
M  V30 38015 O 3736.17 1.78528 -0.315847 0
M  V30 38016 C 3736.21 0.480654 -3.57382 0
M  V30 38017 O 3735.32 1.57053 -3.81324 0
M  V30 38018 H 3734.66 0.0110821 -0.663908 0
M  V30 38019 H 3737.19 -0.591543 -1.95862 0
M  V30 38020 H 3737.2 0.737226 -4.01284 0
M  V30 38021 H 3735.87 -0.40821 -4.13892 0
M  V30 38022 H 3734.45 1.30557 -3.49298 0
M  V30 38023 N 3736.64 1.56914 -0.146931 0
M  V30 38024 C 3737.86 2.0092 0.51439 0
M  V30 38025 C 3738.29 1.02636 1.57631 0
M  V30 38026 O 3737.64 0.00210665 1.813 0
M  V30 38027 C 3737.69 3.43671 1.09191 0
M  V30 38028 O 3736.8 3.48389 2.20678 0
M  V30 38029 H 3736.14 0.651971 0.125816 0
M  V30 38030 H 3738.67 2.03144 -0.243643 0
M  V30 38031 H 3738.68 3.8247 1.4206 0
M  V30 38032 H 3737.35 4.14711 0.314263 0
M  V30 38033 H 3735.93 3.21432 1.89039 0
M  V30 38034 N 3738.11 -0.126854 1.57089 0
M  V30 38035 C 3739.36 -0.837254 1.8471 0
M  V30 38036 C 3739.69 -1.79895 0.731528 0
M  V30 38037 O 3738.97 -1.9271 -0.263285 0
M  V30 38038 C 3739.25 -1.59407 3.22896 0
M  V30 38039 C 3739.1 -0.6525 4.45042 0
M  V30 38040 C 3740.42 -2.55204 3.58551 0
M  V30 38041 H 3737.54 -0.302925 0.671867 0
M  V30 38042 H 3740.18 -0.10175 1.89727 0
M  V30 38043 H 3738.33 -2.22106 3.18749 0
M  V30 38044 H 3740.01 -0.0349571 4.61287 0
M  V30 38045 H 3738.25 0.0365341 4.33785 0
M  V30 38046 H 3738.92 -1.21851 5.38383 0
M  V30 38047 H 3741.4 -2.02614 3.63437 0
M  V30 38048 H 3740.27 -3.05194 4.56232 0
M  V30 38049 H 3740.53 -3.37504 2.85558 0
M  V30 38050 N 3739.59 -1.52523 -0.396809 0
M  V30 38051 C 3740.54 -1.77373 -1.50471 0
M  V30 38052 C 3741.53 -0.641335 -1.5679 0
M  V30 38053 O 3742.74 -0.823649 -1.6005 0
M  V30 38054 H 3739.12 -0.561112 -0.500657 0
M  V30 38055 H 3741.09 -2.70165 -1.26701 0
M  V30 38056 C 3739.84 -1.95256 -2.87699 0
M  V30 38057 H 3739.16 -2.81817 -2.83583 0
M  V30 38058 H 3740.6 -2.16637 -3.64478 0
M  V30 38059 C 3739.06 -0.722962 -3.29051 0
M  V30 38060 O 3739.59 0.103327 -4.01567 0
M  V30 38061 N 3737.79 -0.555314 -2.85245 0
M  V30 38062 H 3737.34 -1.22883 -2.26401 0
M  V30 38063 H 3737.3 0.266058 -3.13272 0
M  V30 38064 N 3741.07 0.654789 -1.43354 0
M  V30 38065 C 3742.32 1.4168 -1.45102 0
M  V30 38066 C 3742.65 1.94057 -0.0744205 0
M  V30 38067 O 3741.93 1.7219 0.904484 0
M  V30 38068 C 3742.21 2.59937 -2.49209 0
M  V30 38069 C 3742.06 2.13062 -3.96137 0
M  V30 38070 C 3743.38 3.62151 -2.5007 0
M  V30 38071 H 3740.5 0.513826 -0.528348 0
M  V30 38072 H 3743.14 0.742458 -1.74893 0
M  V30 38073 H 3741.29 3.17466 -2.23936 0
M  V30 38074 H 3742.96 1.60545 -4.32462 0
M  V30 38075 H 3741.21 1.44448 -4.09044 0
M  V30 38076 H 3741.88 2.98093 -4.64591 0
M  V30 38077 H 3744.35 3.14377 -2.72592 0
M  V30 38078 H 3743.23 4.42447 -3.24857 0
M  V30 38079 H 3743.49 4.14636 -1.53392 0
M  V30 38080 N 3742.55 1.29858 0.893007 0
M  V30 38081 C 3743.77 1.21246 1.68268 0
M  V30 38082 C 3744.2 -0.222588 1.86778 0
M  V30 38083 O 3743.56 -1.16048 1.39293 0
M  V30 38084 C 3743.61 1.93797 3.04097 0
M  V30 38085 O 3742.71 1.25958 3.92694 0
M  V30 38086 H 3742.05 0.41978 0.514472 0
M  V30 38087 H 3744.58 1.71542 1.1151 0
M  V30 38088 H 3744.59 2.0251 3.54194 0
M  V30 38089 H 3743.27 2.98171 2.89943 0
M  V30 38090 H 3741.84 1.25547 3.5113 0
M  V30 38091 N 3744.03 -1.10427 1.12443 0
M  V30 38092 C 3744.98 -2.18859 0.787616 0
M  V30 38093 C 3745.97 -1.67891 -0.225573 0
M  V30 38094 O 3747.18 -1.79805 -0.0837712 0
M  V30 38095 H 3743.55 -0.71372 0.236871 0
M  V30 38096 H 3745.52 -2.44507 1.71052 0
M  V30 38097 C 3744.27 -3.46737 0.258601 0
M  V30 38098 H 3743.59 -3.86317 1.02952 0
M  V30 38099 H 3745.03 -4.23956 0.0612387 0
M  V30 38100 C 3743.49 -3.21295 -1.01348 0
M  V30 38101 O 3744.02 -3.42971 -2.09126 0
M  V30 38102 N 3742.23 -2.74962 -0.940449 0
M  V30 38103 H 3741.78 -2.57522 -0.0632509 0
M  V30 38104 H 3741.73 -2.58316 -1.79221 0
M  V30 38105 N 3745.51 -0.916353 -1.28221 0
M  V30 38106 C 3746.42 -0.411922 -2.30955 0
M  V30 38107 C 3747.43 0.501724 -1.6661 0
M  V30 38108 O 3748.61 0.387282 -1.97641 0
M  V30 38109 C 3745.67 0.337497 -3.45053 0
M  V30 38110 C 3744.73 -0.609684 -4.24949 0
M  V30 38111 C 3743.97 0.104065 -5.33599 0
M  V30 38112 O 3744.19 1.32536 -5.54789 0
M  V30 38113 O 3743.12 -0.561956 -5.99271 0
M  V30 38114 H 3746.95 -1.26466 -2.76116 0
M  V30 38115 H 3744.53 -0.68127 -1.32963 0
M  V30 38116 H 3746.42 0.760649 -4.14478 0
M  V30 38117 H 3745.09 1.16602 -3.0197 0
M  V30 38118 H 3744 -1.08229 -3.58102 0
M  V30 38119 H 3745.33 -1.4051 -4.71718 0
M  V30 38120 N 3746.98 1.42146 -0.680615 0
M  V30 38121 C 3748.23 2.00681 -0.20248 0
M  V30 38122 C 3748.55 1.54469 1.19994 0
M  V30 38123 O 3749.75 2.05462 1.77475 0
M  V30 38124 C 3748.21 3.58553 -0.311127 0
M  V30 38125 C 3747.82 4.13751 -1.71797 0
M  V30 38126 C 3749.56 4.24363 0.107997 0
M  V30 38127 C 3747.47 5.64006 -1.77907 0
M  V30 38128 H 3746.4 0.75056 -0.0719398 0
M  V30 38129 H 3749.05 1.62801 -0.846642 0
M  V30 38130 H 3747.43 3.93964 0.401029 0
M  V30 38131 H 3748.6 3.89788 -2.45768 0
M  V30 38132 H 3746.92 3.60413 -2.08545 0
M  V30 38133 H 3749.52 5.34636 0.0825744 0
M  V30 38134 H 3749.86 4.00266 1.14424 0
M  V30 38135 H 3750.39 3.93933 -0.553355 0
M  V30 38136 H 3747.13 5.92909 -2.79533 0
M  V30 38137 H 3746.65 5.89942 -1.083 0
M  V30 38138 H 3748.33 6.28524 -1.53515 0
M  V30 38139 N 3748.46 0.424336 1.5178 0
M  V30 38140 C 3749.41 -0.393628 2.27419 0
M  V30 38141 C 3750.38 -1.02805 1.30462 0
M  V30 38142 O 3751.56 -1.04944 1.59347 0
M  V30 38143 C 3748.7 -1.49605 3.10986 0
M  V30 38144 C 3747.82 -0.881049 4.2292 0
M  V30 38145 C 3746.95 -1.95743 4.9382 0
M  V30 38146 C 3745.99 -1.32017 5.97694 0
M  V30 38147 N 3745.13 -2.33736 6.62051 0
M  V30 38148 H 3749.97 0.257783 2.96883 0
M  V30 38149 H 3747.5 0.138968 1.46442 0
M  V30 38150 H 3749.46 -2.14636 3.57753 0
M  V30 38151 H 3748.09 -2.11728 2.43662 0
M  V30 38152 H 3747.14 -0.119378 3.80213 0
M  V30 38153 H 3748.46 -0.375676 4.97383 0
M  V30 38154 H 3747.61 -2.68466 5.44069 0
M  V30 38155 H 3746.35 -2.4965 4.18958 0
M  V30 38156 H 3745.35 -0.578348 5.4675 0
M  V30 38157 H 3746.58 -0.788604 6.74506 0
M  V30 38158 H 3744.53 -2.86747 5.9001 0
M  V30 38159 H 3744.44 -1.88053 7.32238 0
M  V30 38160 H 3745.71 -3.05982 7.16935 0
M  V30 38161 N 3749.94 -1.56833 0.15525 0
M  V30 38162 C 3751.16 -2.0119 -0.503728 0
M  V30 38163 C 3751.59 -1.03471 -1.57084 0
M  V30 38164 O 3750.95 -0.0117214 -1.81296 0
M  V30 38165 C 3751 -3.44245 -1.07367 0
M  V30 38166 O 3750.1 -3.49554 -2.18827 0
M  V30 38167 H 3749.44 -0.652629 -0.122357 0
M  V30 38168 H 3751.97 -2.03012 0.254412 0
M  V30 38169 H 3751.98 -3.83218 -1.40029 0
M  V30 38170 H 3750.66 -4.14872 -0.292266 0
M  V30 38171 H 3749.23 -3.2243 -1.87332 0
M  V30 38172 N 3751.42 0.118521 -1.57154 0
M  V30 38173 C 3752.64 0.844322 -1.89436 0
M  V30 38174 C 3753.07 1.72621 -0.747233 0
M  V30 38175 O 3752.43 1.78763 0.302221 0
M  V30 38176 C 3752.47 1.65325 -3.20468 0
M  V30 38177 O 3751.58 2.76022 -3.06408 0
M  V30 38178 H 3750.92 0.233459 -0.621605 0
M  V30 38179 H 3753.45 0.100775 -2.04352 0
M  V30 38180 H 3753.46 2.04239 -3.532 0
M  V30 38181 H 3752.13 1.00587 -4.03553 0
M  V30 38182 H 3750.71 2.40307 -2.85144 0
M  V30 38183 N 3752.9 1.52731 0.388715 0
M  V30 38184 C 3754.14 1.67457 1.13148 0
M  V30 38185 C 3754.46 0.417128 1.90486 0
M  V30 38186 O 3753.73 -0.568476 1.8747 0
M  V30 38187 H 3752.31 0.617276 0.420689 0
M  V30 38188 H 3754.98 1.89846 0.440947 0
M  V30 38189 H 3754.07 2.52513 1.83423 0
M  V30 38190 N 3754.37 -0.647178 1.43699 0
M  V30 38191 C 3755.32 -1.78107 1.49602 0
M  V30 38192 C 3756.32 -1.65331 0.369076 0
M  V30 38193 O 3757.52 -1.71604 0.543333 0
M  V30 38194 H 3753.9 -0.587733 0.469121 0
M  V30 38195 H 3755.87 -1.70249 2.45067 0
M  V30 38196 C 3754.62 -3.16389 1.44198 0
M  V30 38197 H 3753.94 -3.26861 2.30222 0
M  V30 38198 H 3755.38 -3.95668 1.52389 0
M  V30 38199 C 3753.84 -3.36518 0.160419 0
M  V30 38200 O 3754.37 -3.94136 -0.775861 0
M  V30 38201 N 3752.57 -2.90519 0.0686746 0
M  V30 38202 H 3752.12 -2.43814 0.831406 0
M  V30 38203 H 3752.08 -3.04363 -0.788087 0
M  V30 38204 N 3755.85 -1.3033 -0.886108 0
M  V30 38205 C 3757.08 -1.22009 -1.67097 0
M  V30 38206 C 3757.5 0.217222 -1.87546 0
M  V30 38207 O 3756.85 1.14373 -1.42215 0
M  V30 38208 C 3756.9 -1.94374 -3.04797 0
M  V30 38209 O 3756.62 -3.32494 -2.85271 0
M  V30 38210 C 3758.13 -1.92697 -3.99228 0
M  V30 38211 H 3755.35 -0.42228 -0.52146 0
M  V30 38212 H 3757.89 -1.71936 -1.10717 0
M  V30 38213 H 3756.04 -1.48249 -3.57912 0
M  V30 38214 H 3756.46 -3.69127 -3.72619 0
M  V30 38215 H 3757.93 -2.4787 -4.93218 0
M  V30 38216 H 3758.41 -0.905633 -4.29761 0
M  V30 38217 H 3759.02 -2.38628 -3.52047 0
M  V30 38218 N 3757.33 1.0983 -1.13028 0
M  V30 38219 C 3758.26 2.15608 -0.74755 0
M  V30 38220 C 3759.24 1.60438 0.264272 0
M  V30 38221 O 3760.43 1.87847 0.156751 0
M  V30 38222 C 3757.55 3.38529 -0.107509 0
M  V30 38223 C 3756.6 4.12411 -1.08716 0
M  V30 38224 S 3757.43 4.67159 -2.61768 0
M  V30 38225 C 3758.59 5.93385 -1.99112 0
M  V30 38226 H 3758.82 2.4774 -1.64354 0
M  V30 38227 H 3756.35 1.21714 -0.949999 0
M  V30 38228 H 3758.31 4.09705 0.255384 0
M  V30 38229 H 3756.97 3.04624 0.765687 0
M  V30 38230 H 3756.17 5.00569 -0.587068 0
M  V30 38231 H 3755.77 3.47078 -1.39331 0
M  V30 38232 H 3758.06 6.64163 -1.33766 0
M  V30 38233 H 3759 6.48066 -2.85335 0
M  V30 38234 H 3759.41 5.45709 -1.44438 0
M  V30 38235 N 3758.81 0.92314 1.27734 0
M  V30 38236 C 3759.76 0.417294 2.26996 0
M  V30 38237 C 3760.73 -0.513337 1.57969 0
M  V30 38238 O 3761.91 -0.433489 1.8581 0
M  V30 38239 C 3759.05 -0.328028 3.43537 0
M  V30 38240 C 3758.16 0.636188 4.2729 0
M  V30 38241 C 3757.3 -0.128521 5.31045 0
M  V30 38242 C 3756.34 0.828699 6.06464 0
M  V30 38243 N 3755.47 0.0969092 7.02033 0
M  V30 38244 H 3760.31 1.26877 2.69641 0
M  V30 38245 H 3757.85 0.636923 1.32596 0
M  V30 38246 H 3759.81 -0.776432 4.09911 0
M  V30 38247 H 3758.44 -1.14378 3.01857 0
M  V30 38248 H 3757.49 1.20312 3.60873 0
M  V30 38249 H 3758.8 1.36793 4.79676 0
M  V30 38250 H 3757.96 -0.637053 6.03346 0
M  V30 38251 H 3756.7 -0.893257 4.7945 0
M  V30 38252 H 3755.7 1.34852 5.33006 0
M  V30 38253 H 3756.93 1.59314 6.60148 0
M  V30 38254 H 3754.87 -0.649664 6.52775 0
M  V30 38255 H 3754.79 0.768303 7.52086 0
M  V30 38256 H 3756.06 -0.39112 7.78518 0
M  V30 38257 N 3760.29 -1.41783 0.688143 0
M  V30 38258 C 3761.53 -2.01643 0.216299 0
M  V30 38259 C 3761.87 -1.54348 -1.17858 0
M  V30 38260 O 3761.14 -0.751424 -1.79399 0
M  V30 38261 C 3761.42 -3.59118 0.265726 0
M  V30 38262 C 3761.28 -4.16559 1.69701 0
M  V30 38263 C 3762.6 -4.38468 -0.378636 0
M  V30 38264 H 3759.71 -0.732637 0.0800711 0
M  V30 38265 H 3762.36 -1.68629 0.875458 0
M  V30 38266 H 3760.51 -3.87374 -0.29552 0
M  V30 38267 H 3762.18 -3.99206 2.31153 0
M  V30 38268 H 3760.42 -3.71882 2.23352 0
M  V30 38269 H 3761.09 -5.25712 1.68319 0
M  V30 38270 H 3763.57 -4.15982 0.0992701 0
M  V30 38271 H 3762.44 -5.48004 -0.313473 0
M  V30 38272 H 3762.71 -4.17358 -1.45825 0
M  V30 38273 N 3761.76 -0.432379 -1.51553 0
M  V30 38274 C 3763.01 0.13722 -2.01233 0
M  V30 38275 C 3763.33 1.44218 -1.32138 0
M  V30 38276 O 3764.53 2.09443 -1.7276 0
M  V30 38277 C 3762.99 0.295089 -3.58688 0
M  V30 38278 C 3762.6 -0.999149 -4.36716 0
M  V30 38279 C 3764.34 0.818724 -4.1653 0
M  V30 38280 C 3762.25 -0.807193 -5.85865 0
M  V30 38281 H 3761.18 0.0550564 -0.751987 0
M  V30 38282 H 3763.83 -0.561383 -1.74702 0
M  V30 38283 H 3762.21 1.05658 -3.81644 0
M  V30 38284 H 3763.38 -1.76858 -4.25509 0
M  V30 38285 H 3761.7 -1.45094 -3.90303 0
M  V30 38286 H 3764.3 0.978748 -5.25666 0
M  V30 38287 H 3764.64 1.79982 -3.75383 0
M  V30 38288 H 3765.17 0.11568 -3.97632 0
M  V30 38289 H 3761.91 -1.76052 -6.31416 0
M  V30 38290 H 3761.43 -0.0774671 -5.9975 0
M  V30 38291 H 3763.11 -0.458441 -6.45374 0
M  V30 38292 N 3763.24 1.56749 -0.163565 0
M  V30 38293 C 3764.49 1.96646 0.483369 0
M  V30 38294 C 3764.82 1.04921 1.63774 0
M  V30 38295 O 3764.07 0.0817172 1.95529 0
M  V30 38296 C 3764.37 3.42677 1.01524 0
M  V30 38297 C 3764.04 4.50894 -0.0224194 0
M  V30 38298 C 3762.7 4.80216 -0.307624 0
M  V30 38299 C 3765.05 5.16103 -0.727155 0
M  V30 38300 C 3762.38 5.72046 -1.30309 0
M  V30 38301 C 3764.73 6.09006 -1.71155 0
M  V30 38302 C 3763.4 6.36698 -2.00428 0
M  V30 38303 H 3762.67 0.71958 0.176877 0
M  V30 38304 H 3765.31 1.89809 -0.253892 0
M  V30 38305 H 3763.62 3.46428 1.83017 0
M  V30 38306 H 3765.31 3.70884 1.52466 0
M  V30 38307 H 3761.9 4.28085 0.210049 0
M  V30 38308 H 3766.09 4.93568 -0.520021 0
M  V30 38309 H 3761.34 5.91788 -1.53615 0
M  V30 38310 H 3765.52 6.58604 -2.26304 0
M  V30 38311 H 3763.15 7.07658 -2.77713 0
M  V30 38312 N 3764.72 -0.110185 1.57214 0
M  V30 38313 C 3765.97 -0.816407 1.85313 0
M  V30 38314 C 3766.3 -1.79461 0.749932 0
M  V30 38315 O 3765.55 -1.93993 -0.257914 0
M  V30 38316 C 3765.85 -1.59298 3.19936 0
M  V30 38317 C 3765.52 -0.758272 4.44478 0
M  V30 38318 C 3764.18 -0.528117 4.78293 0
M  V30 38319 C 3766.53 -0.177025 5.20899 0
M  V30 38320 C 3763.86 0.293395 5.85966 0
M  V30 38321 C 3766.21 0.631726 6.29438 0
M  V30 38322 C 3764.87 0.872115 6.61778 0
M  V30 38323 H 3764.14 -0.298744 0.67811 0
M  V30 38324 H 3766.79 -0.0784385 1.91339 0
M  V30 38325 H 3765.1 -2.4021 3.09526 0
M  V30 38326 H 3766.79 -2.14353 3.38901 0
M  V30 38327 H 3763.38 -0.947757 4.1799 0
M  V30 38328 H 3767.57 -0.342034 4.9512 0
M  V30 38329 H 3762.82 0.488772 6.09443 0
M  V30 38330 H 3767 1.08906 6.87832 0
M  V30 38331 H 3764.62 1.5105 7.45042 0
M  V30 38332 N 3766.2 -1.52935 -0.38061 0
M  V30 38333 C 3767.43 -1.72276 -1.1458 0
M  V30 38334 C 3767.84 -0.444896 -1.83483 0
M  V30 38335 O 3767.2 0.581214 -1.72998 0
M  V30 38336 C 3767.25 -2.87803 -2.1875 0
M  V30 38337 O 3766.97 -4.10643 -1.52655 0
M  V30 38338 C 3768.47 -3.18892 -3.07933 0
M  V30 38339 H 3765.69 -0.576584 -0.343208 0
M  V30 38340 H 3768.24 -1.99619 -0.444114 0
M  V30 38341 H 3766.39 -2.62897 -2.84542 0
M  V30 38342 H 3766.8 -4.75229 -2.2194 0
M  V30 38343 H 3768.28 -4.03171 -3.77037 0
M  V30 38344 H 3768.76 -2.33625 -3.71909 0
M  V30 38345 H 3769.36 -3.45669 -2.47777 0
M  V30 38346 N 3767.68 0.639548 -1.4404 0
M  V30 38347 C 3768.95 1.39749 -1.36856 0
M  V30 38348 C 3769.33 2.11087 -0.0230886 0
M  V30 38349 O 3768.68 2.05746 0.994025 0
M  V30 38350 C 3768.89 2.37089 -2.56105 0
M  V30 38351 C 3770.24 3.00676 -2.99799 0
M  V30 38352 O 3771.26 2.47415 -2.5625 0
M  V30 38353 O 3770.12 3.97274 -3.75281 0
M  V30 38354 H 3767.22 0.625038 -0.541532 0
M  V30 38355 H 3769.76 0.665309 -1.56114 0
M  V30 38356 H 3768.53 1.83416 -3.4565 0
M  V30 38357 H 3768.16 3.17737 -2.39017 0
M  V30 38358 N 3769.15 1.30798 0.879184 0
M  V30 38359 C 3770.4 1.19717 1.62826 0
M  V30 38360 C 3770.72 -0.246997 1.93429 0
M  V30 38361 O 3769.99 -1.1652 1.5748 0
M  V30 38362 H 3768.57 0.440087 0.603599 0
M  V30 38363 H 3771.24 1.64002 1.05306 0
M  V30 38364 H 3770.33 1.76223 2.57588 0
M  V30 38365 N 3770.63 -1.09229 1.13608 0
M  V30 38366 C 3771.86 -1.85744 0.922699 0
M  V30 38367 C 3772.28 -1.80673 -0.523349 0
M  V30 38368 O 3771.64 -1.18568 -1.37154 0
M  V30 38369 C 3771.69 -3.31563 1.41768 0
M  V30 38370 O 3770.79 -4.07949 0.604252 0
M  V30 38371 H 3770.13 -0.575885 0.330533 0
M  V30 38372 H 3772.66 -1.37921 1.51126 0
M  V30 38373 H 3772.67 -3.82411 1.42219 0
M  V30 38374 H 3771.35 -3.3457 2.47054 0
M  V30 38375 H 3769.93 -3.66872 0.667785 0
M  V30 38376 N 3772.11 -0.929901 -1.27242 0
M  V30 38377 C 3773.53 -0.630477 -1.46619 0
M  V30 38378 C 3773.73 0.819601 -1.84078 0
M  V30 38379 O 3772.78 1.59729 -1.95558 0
M  V30 38380 C 3774.1 -1.58223 -2.55707 0
M  V30 38381 C 3775.64 -1.5907 -2.69566 0
M  V30 38382 C 3776.12 -2.52948 -3.81813 0
M  V30 38383 N 3777.61 -2.51168 -3.8919 0
M  V30 38384 C 3778.35 -3.20496 -4.75468 0
M  V30 38385 N 3777.84 -3.99211 -5.66218 0
M  V30 38386 N 3779.63 -3.09503 -4.69216 0
M  V30 38387 H 3771.79 -1.86735 -1.01212 0
M  V30 38388 H 3774.05 -0.80184 -0.505723 0
M  V30 38389 H 3773.75 -2.61681 -2.34981 0
M  V30 38390 H 3773.63 -1.32562 -3.53139 0
M  V30 38391 H 3776.02 -0.563426 -2.89671 0
M  V30 38392 H 3776.1 -1.88781 -1.72613 0
M  V30 38393 H 3775.74 -3.55787 -3.62461 0
M  V30 38394 H 3775.67 -2.20532 -4.78198 0
M  V30 38395 H 3778.16 -1.94002 -3.24302 0
M  V30 38396 H 3778.47 -4.49091 -6.28917 0
M  V30 38397 H 3776.82 -4.03314 -5.66006 0
M  V30 38398 H 3780.01 -2.475 -3.97318 0
M  V30 38399 H 3780.18 -3.63803 -5.36238 0
M  V30 38400 N 3773.59 1.41416 -0.695653 0
M  V30 38401 C 3775 1.84251 -0.301433 0
M  V30 38402 C 3775.35 1.58206 1.1604 0
M  V30 38403 O 3774.48 1.05256 1.89077 0
M  V30 38404 C 3775.07 3.34464 -0.540315 0
M  V30 38405 C 3773.63 3.75868 -0.20001 0
M  V30 38406 C 3772.78 2.64819 -0.822557 0
M  V30 38407 H 3775.73 1.30966 -0.896301 0
M  V30 38408 H 3775.75 3.79969 0.200952 0
M  V30 38409 H 3775.26 3.53388 -1.60433 0
M  V30 38410 H 3773.36 3.62546 0.859734 0
M  V30 38411 H 3773.48 4.746 -0.655088 0
M  V30 38412 H 3771.84 2.53449 -0.252154 0
M  V30 38413 H 3772.62 2.86561 -1.89044 0
M  V30 38414 N 3775.07 0.44041 1.51321 0
M  V30 38415 C 3776.3 -0.123434 2.06231 0
M  V30 38416 C 3776.71 -1.36745 1.30757 0
M  V30 38417 O 3776.05 -1.8011 0.361382 0
M  V30 38418 C 3776.11 -0.507996 3.55893 0
M  V30 38419 C 3775.77 0.629652 4.52642 0
M  V30 38420 C 3776.77 1.5027 4.9771 0
M  V30 38421 C 3774.46 0.811258 4.95705 0
M  V30 38422 C 3776.45 2.54202 5.84517 0
M  V30 38423 C 3774.14 1.85385 5.82302 0
M  V30 38424 C 3775.14 2.71761 6.26606 0
M  V30 38425 O 3774.82 3.74229 7.11483 0
M  V30 38426 H 3774.56 -0.00999151 0.675926 0
M  V30 38427 H 3777.11 0.61919 1.95845 0
M  V30 38428 H 3775.34 -1.30337 3.64073 0
M  V30 38429 H 3777.03 -1.00335 3.93304 0
M  V30 38430 H 3777.79 1.37394 4.65132 0
M  V30 38431 H 3773.67 0.148504 4.60761 0
M  V30 38432 H 3777.22 3.21654 6.19019 0
M  V30 38433 H 3773.11 1.98279 6.14293 0
M  V30 38434 H 3773.88 3.70847 7.29667 0
M  V30 38435 N 3776.55 -1.5666 0.171876 0
M  V30 38436 C 3777.79 -1.96511 -0.472 0
M  V30 38437 C 3778.11 -1.05896 -1.63741 0
M  V30 38438 O 3777.38 -0.125431 -1.95498 0
M  V30 38439 H 3775.96 -0.725638 -0.177364 0
M  V30 38440 H 3778.63 -1.93248 0.253189 0
M  V30 38441 H 3777.72 -3.00816 -0.83164 0
M  V30 38442 N 3778.02 0.101846 -1.57271 0
M  V30 38443 C 3779.27 0.804974 -1.85377 0
M  V30 38444 C 3779.59 1.79597 -0.759596 0
M  V30 38445 O 3778.86 1.94719 0.214806 0
M  V30 38446 H 3777.44 0.300272 -0.683992 0
M  V30 38447 H 3780.1 0.0850823 -1.94714 0
M  V30 38448 H 3779.2 1.33971 -2.81883 0
M  V30 38449 N 3779.5 1.53135 0.372494 0
M  V30 38450 C 3780.75 1.68982 1.11586 0
M  V30 38451 C 3781.08 0.438082 1.89502 0
M  V30 38452 O 3780.33 -0.579858 1.86912 0
M  V30 38453 C 3780.63 2.8866 2.10737 0
M  V30 38454 C 3780.3 4.25446 1.49354 0
M  V30 38455 C 3778.96 4.62644 1.3234 0
M  V30 38456 C 3781.31 5.10539 1.0488 0
M  V30 38457 C 3778.64 5.82578 0.694265 0
M  V30 38458 C 3780.99 6.31112 0.433698 0
M  V30 38459 C 3779.65 6.67028 0.251 0
M  V30 38460 H 3778.92 0.618348 0.408322 0
M  V30 38461 H 3781.57 1.87308 0.398474 0
M  V30 38462 H 3779.88 2.64817 2.88754 0
M  V30 38463 H 3781.57 2.98115 2.68194 0
M  V30 38464 H 3778.16 3.96153 1.63588 0
M  V30 38465 H 3782.35 4.82355 1.1682 0
M  V30 38466 H 3777.6 6.09001 0.541064 0
M  V30 38467 H 3781.78 6.96353 0.0808635 0
M  V30 38468 H 3779.4 7.59826 -0.238573 0
M  V30 38469 N 3780.98 -0.6319 1.44377 0
M  V30 38470 C 3782.21 -1.4187 1.50601 0
M  V30 38471 C 3782.62 -1.88348 0.130622 0
M  V30 38472 O 3781.98 -1.60788 -0.863332 0
M  V30 38473 C 3782.03 -2.63953 2.47004 0
M  V30 38474 O 3781.75 -2.19413 3.79196 0
M  V30 38475 C 3783.25 -3.57088 2.62685 0
M  V30 38476 H 3780.47 -0.435115 0.5108 0
M  V30 38477 H 3783.02 -0.77286 1.89333 0
M  V30 38478 H 3781.17 -3.2463 2.1141 0
M  V30 38479 H 3781.59 -2.98555 4.31237 0
M  V30 38480 H 3783.06 -4.39358 3.34169 0
M  V30 38481 H 3783.54 -4.05845 1.67889 0
M  V30 38482 H 3784.14 -3.0228 2.99178 0
M  V30 38483 N 3782.46 -1.31262 -0.872235 0
M  V30 38484 C 3783.42 -1.18684 -1.96079 0
M  V30 38485 C 3784.42 -0.114549 -1.60391 0
M  V30 38486 O 3785.61 -0.363643 -1.70362 0
M  V30 38487 C 3782.74 -0.821241 -3.3086 0
M  V30 38488 H 3783.94 -2.15406 -2.08663 0
M  V30 38489 H 3781.49 -1.14841 -1.06024 0
M  V30 38490 H 3782.22 0.144923 -3.23976 0
M  V30 38491 H 3782.01 -1.59631 -3.58134 0
M  V30 38492 H 3783.5 -0.757063 -4.1068 0
M  V30 38493 N 3783.94 1.08625 -1.14186 0
M  V30 38494 C 3785.16 1.85253 -0.932537 0
M  V30 38495 C 3785.59 1.80948 0.51376 0
M  V30 38496 O 3784.94 1.19294 1.36523 0
M  V30 38497 C 3784.99 3.30807 -1.43525 0
M  V30 38498 O 3784.1 4.07623 -0.625878 0
M  V30 38499 H 3783.44 0.574124 -0.333583 0
M  V30 38500 H 3785.97 1.37118 -1.51855 0
M  V30 38501 H 3785.98 3.81651 -1.44245 0
M  V30 38502 H 3784.65 3.33255 -2.48825 0
M  V30 38503 H 3783.23 3.66513 -0.687232 0
M  V30 38504 N 3785.41 0.936635 1.26747 0
M  V30 38505 C 3786.64 0.597524 1.97771 0
M  V30 38506 C 3787.05 -0.830766 1.69985 0
M  V30 38507 O 3786.4 -1.56493 0.962065 0
M  V30 38508 C 3786.46 0.754369 3.51496 0
M  V30 38509 C 3786.12 2.15644 4.02923 0
M  V30 38510 C 3787.12 3.13148 4.15011 0
M  V30 38511 C 3784.8 2.47579 4.37047 0
M  V30 38512 C 3786.8 4.40691 4.60511 0
M  V30 38513 C 3784.48 3.75356 4.82236 0
M  V30 38514 C 3785.48 4.71725 4.93928 0
M  V30 38515 O 3785.17 5.97227 5.38122 0
M  V30 38516 H 3784.9 0.224424 0.63766 0
M  V30 38517 H 3787.46 1.25838 1.62339 0
M  V30 38518 H 3785.69 0.0363869 3.86683 0
M  V30 38519 H 3787.38 0.418992 4.03732 0
M  V30 38520 H 3788.14 2.89799 3.88898 0
M  V30 38521 H 3784.02 1.73308 4.27183 0
M  V30 38522 H 3787.56 5.15914 4.69551 0
M  V30 38523 H 3783.46 3.9852 5.07792 0
M  V30 38524 H 3784.23 6.00343 5.56354 0
M  V30 38525 N 3786.89 -1.41045 0.703143 0
M  V30 38526 C 3788.12 -2.05425 0.246588 0
M  V30 38527 C 3788.54 -1.5294 -1.10701 0
M  V30 38528 O 3787.89 -0.680762 -1.69328 0
M  V30 38529 C 3787.94 -3.60924 0.204016 0
M  V30 38530 O 3787.66 -4.11469 1.50415 0
M  V30 38531 C 3789.17 -4.42461 -0.272608 0
M  V30 38532 H 3786.39 -0.661388 0.113168 0
M  V30 38533 H 3788.93 -1.8068 0.957855 0
M  V30 38534 H 3787.08 -3.84682 -0.458126 0
M  V30 38535 H 3787.5 -5.05572 1.39631 0
M  V30 38536 H 3788.97 -5.51428 -0.251261 0
M  V30 38537 H 3789.45 -4.19122 -1.31274 0
M  V30 38538 H 3790.06 -4.23784 0.358807 0
M  V30 38539 N 3788.37 -0.448429 -1.51086 0
M  V30 38540 C 3789.6 0.115002 -2.07081 0
M  V30 38541 C 3790.02 1.34735 -1.31256 0
M  V30 38542 O 3789.38 1.77817 -0.353644 0
M  V30 38543 C 3789.43 0.40474 -3.58321 0
M  V30 38544 O 3788.53 1.48929 -3.8457 0
M  V30 38545 H 3787.87 -0.00300285 -0.663993 0
M  V30 38546 H 3790.4 -0.632955 -1.94563 0
M  V30 38547 H 3790.41 0.651942 -4.02758 0
M  V30 38548 H 3789.09 -0.495911 -4.12933 0
M  V30 38549 H 3787.66 1.23118 -3.51989 0
M  V30 38550 N 3789.85 1.56567 -0.180181 0
M  V30 38551 C 3791.07 2.01966 0.471657 0
M  V30 38552 C 3791.5 1.05957 1.55418 0
M  V30 38553 O 3790.86 0.0405626 1.81255 0
M  V30 38554 C 3790.9 3.4591 1.01877 0
M  V30 38555 O 3790.01 3.52992 2.13239 0
M  V30 38556 H 3789.35 0.654493 0.111958 0
M  V30 38557 H 3791.88 2.02582 -0.286678 0
M  V30 38558 H 3791.89 3.85397 1.33915 0
M  V30 38559 H 3790.56 4.15284 0.226226 0
M  V30 38560 H 3789.14 3.2537 1.82178 0
M  V30 38561 N 3791.33 -0.0935042 1.57322 0
M  V30 38562 C 3792.24 -1.13165 2.05501 0
M  V30 38563 C 3793.25 -1.43762 0.980224 0
M  V30 38564 O 3794.43 -1.54372 1.29349 0
M  V30 38565 C 3791.49 -2.43177 2.47115 0
M  V30 38566 C 3790.55 -2.19748 3.68795 0
M  V30 38567 C 3789.79 -3.4356 4.08415 0
M  V30 38568 O 3790.01 -4.51857 3.48112 0
M  V30 38569 O 3788.94 -3.33053 5.01357 0
M  V30 38570 H 3792.77 -0.75244 2.94231 0
M  V30 38571 H 3790.36 -0.306126 1.4623 0
M  V30 38572 H 3792.24 -3.1973 2.74501 0
M  V30 38573 H 3790.91 -2.80521 1.61523 0
M  V30 38574 H 3789.82 -1.4097 3.46523 0
M  V30 38575 H 3791.15 -1.87295 4.55172 0
M  V30 38576 N 3792.8 -1.5333 -0.364368 0
M  V30 38577 C 3794.08 -1.60176 -1.12263 0
M  V30 38578 C 3794.46 -0.410051 -2.07079 0
M  V30 38579 O 3793.81 0.599592 -2.20493 0
M  V30 38580 C 3794.02 -2.95263 -1.86066 0
M  V30 38581 C 3795.37 -3.49883 -2.40556 0
M  V30 38582 O 3796.39 -2.97301 -1.96191 0
M  V30 38583 O 3795.25 -4.4181 -3.21662 0
M  V30 38584 H 3792.34 -0.647033 -0.515051 0
M  V30 38585 H 3794.89 -1.65672 -0.367534 0
M  V30 38586 H 3793.66 -3.73439 -1.16873 0
M  V30 38587 H 3793.29 -2.93264 -2.68481 0
M  V30 38588 N 3794.28 0.624234 -1.4471 0
M  V30 38589 C 3795.25 1.71777 -1.51741 0
M  V30 38590 C 3796.25 1.55779 -0.398673 0
M  V30 38591 O 3797.44 1.61149 -0.661553 0
M  V30 38592 C 3794.57 3.10917 -1.39797 0
M  V30 38593 H 3795.76 1.66916 -2.49157 0
M  V30 38594 H 3793.31 0.838507 -1.31904 0
M  V30 38595 H 3794.05 3.21369 -0.435011 0
M  V30 38596 H 3793.83 3.23936 -2.20925 0
M  V30 38597 H 3795.32 3.90603 -1.47713 0
M  V30 38598 N 3795.76 1.31723 0.865262 0
M  V30 38599 C 3797.01 1.21858 1.62106 0
M  V30 38600 C 3797.34 -0.22168 1.92931 0
M  V30 38601 O 3796.61 -1.15592 1.56425 0
M  V30 38602 C 3796.9 2.06762 2.94825 0
M  V30 38603 C 3796.75 3.59111 2.70849 0
M  V30 38604 C 3798.07 1.92062 3.9598 0
M  V30 38605 H 3795.19 0.444025 0.588227 0
M  V30 38606 H 3797.83 1.61562 0.999894 0
M  V30 38607 H 3795.98 1.73031 3.4784 0
M  V30 38608 H 3797.65 4.03003 2.2447 0
M  V30 38609 H 3795.9 3.82307 2.04998 0
M  V30 38610 H 3796.57 4.13831 3.65305 0
M  V30 38611 H 3799.04 2.2159 3.52189 0
M  V30 38612 H 3797.92 2.53763 4.86719 0
M  V30 38613 H 3798.18 0.88525 4.33146 0
M  V30 38614 N 3797.24 -1.08018 1.14761 0
M  V30 38615 C 3798.48 -1.82083 0.928717 0
M  V30 38616 C 3798.84 -1.84398 -0.534925 0
M  V30 38617 O 3800.04 -2.54266 -0.871901 0
M  V30 38618 C 3798.31 -3.23562 1.51796 0
M  V30 38619 S 3799.87 -4.14457 1.44122 0
M  V30 38620 H 3796.69 -0.627454 0.3344 0
M  V30 38621 H 3799.29 -1.2981 1.46184 0
M  V30 38622 H 3798 -3.19462 2.57628 0
M  V30 38623 H 3797.53 -3.8091 0.98341 0
M  V30 38624 H 3799.54 -4.94338 0.429452 0
M  V30 38625 N 3798.72 -0.943344 -1.26249 0
M  V30 38626 C 3799.96 -0.590897 -1.93269 0
M  V30 38627 C 3800.29 0.873182 -1.74358 0
M  V30 38628 O 3799.56 1.62068 -1.10048 0
M  V30 38629 H 3798.14 -0.215548 -0.715226 0
M  V30 38630 H 3800.8 -1.19914 -1.53645 0
M  V30 38631 H 3799.89 -0.810528 -3.01392 0
M  V30 38632 N 3800.2 1.4067 -0.710613 0
M  V30 38633 C 3801.44 2.00579 -0.247494 0
M  V30 38634 C 3801.76 1.56614 1.16176 0
M  V30 38635 O 3801.03 0.803389 1.78669 0
M  V30 38636 H 3799.61 0.741738 -0.0885122 0
M  V30 38637 H 3802.28 1.72079 -0.915133 0
M  V30 38638 H 3801.37 3.10871 -0.276685 0
M  V30 38639 N 3801.67 0.456435 1.50846 0
M  V30 38640 C 3802.9 -0.104018 2.07139 0
M  V30 38641 C 3803.32 -1.34037 1.31968 0
M  V30 38642 O 3802.68 -1.77627 0.363069 0
M  V30 38643 C 3802.73 -0.385731 3.58531 0
M  V30 38644 O 3801.83 -1.46888 3.85354 0
M  V30 38645 H 3801.17 0.00652413 0.663968 0
M  V30 38646 H 3803.7 0.643265 1.94225 0
M  V30 38647 H 3803.71 -0.630574 4.03098 0
M  V30 38648 H 3802.39 0.517803 4.12664 0
M  V30 38649 H 3800.97 -1.2125 3.52637 0
M  V30 38650 N 3803.15 -1.56469 0.188482 0
M  V30 38651 C 3804.08 -2.21784 -0.73034 0
M  V30 38652 C 3805.06 -1.17884 -1.22627 0
M  V30 38653 O 3806.25 -1.46369 -1.27631 0
M  V30 38654 C 3803.38 -2.87203 -1.95273 0
M  V30 38655 C 3802.33 -3.97291 -1.59198 0
M  V30 38656 C 3801.66 -4.49842 -2.89044 0
M  V30 38657 C 3802.96 -5.16029 -0.806936 0
M  V30 38658 H 3804.65 -2.98823 -0.185862 0
M  V30 38659 H 3802.2 -1.43731 -0.0879552 0
M  V30 38660 H 3804.15 -3.31576 -2.60068 0
M  V30 38661 H 3802.87 -2.0756 -2.52163 0
M  V30 38662 H 3801.53 -3.53599 -0.967651 0
M  V30 38663 H 3801.18 -3.66969 -3.4401 0
M  V30 38664 H 3800.88 -5.2412 -2.65654 0
M  V30 38665 H 3802.41 -4.96912 -3.54839 0
M  V30 38666 H 3803.82 -5.56988 -1.35784 0
M  V30 38667 H 3802.22 -5.96332 -0.671412 0
M  V30 38668 H 3803.29 -4.84514 0.193336 0
M  V30 38669 N 3804.63 0.0851597 -1.5737 0
M  V30 38670 C 3806.04 0.638544 -1.75441 0
M  V30 38671 C 3806.39 1.78605 -0.812073 0
M  V30 38672 O 3805.52 2.16399 0.00706624 0
M  V30 38673 C 3806.11 1.16512 -3.18136 0
M  V30 38674 C 3804.67 1.66448 -3.37597 0
M  V30 38675 C 3803.82 0.578227 -2.71204 0
M  V30 38676 H 3806.77 -0.140959 -1.58073 0
M  V30 38677 H 3806.79 2.03424 -3.21557 0
M  V30 38678 H 3806.3 0.329726 -3.86697 0
M  V30 38679 H 3804.4 2.52355 -2.74131 0
M  V30 38680 H 3804.52 1.75063 -4.45971 0
M  V30 38681 H 3802.88 1.02007 -2.33381 0
M  V30 38682 H 3803.66 -0.246751 -3.42412 0
M  V30 38683 N 3806.11 1.53521 0.356231 0
M  V30 38684 C 3807.06 1.81301 1.45715 0
M  V30 38685 C 3808.05 0.68268 1.55035 0
M  V30 38686 O 3809.26 0.865794 1.5781 0
M  V30 38687 H 3805.63 0.574189 0.485604 0
M  V30 38688 H 3807.6 2.7343 1.19494 0
M  V30 38689 C 3806.35 2.02815 2.82421 0
M  V30 38690 H 3805.67 2.89237 2.76011 0
M  V30 38691 H 3807.11 2.26225 3.58606 0
M  V30 38692 C 3805.57 0.80995 3.27019 0
M  V30 38693 O 3806.1 0.00317729 4.017 0
M  V30 38694 N 3804.31 0.630746 2.83672 0
M  V30 38695 H 3803.86 1.28843 2.23063 0
M  V30 38696 H 3803.81 -0.182906 3.13868 0
M  V30 38697 N 3807.59 -0.616551 1.45039 0
M  V30 38698 C 3808.81 -1.40265 1.52097 0
M  V30 38699 C 3809.23 -1.88198 0.150592 0
M  V30 38700 O 3808.59 -1.61695 -0.84623 0
M  V30 38701 C 3808.64 -2.61318 2.4979 0
M  V30 38702 O 3808.36 -2.15379 3.81502 0
M  V30 38703 C 3809.86 -3.54282 2.66457 0
M  V30 38704 H 3807.08 -0.429672 0.515386 0
M  V30 38705 H 3809.62 -0.752735 1.90142 0
M  V30 38706 H 3807.78 -3.2237 2.14841 0
M  V30 38707 H 3808.19 -2.93965 4.34379 0
M  V30 38708 H 3809.67 -4.35789 3.3881 0
M  V30 38709 H 3810.14 -4.04041 1.72184 0
M  V30 38710 H 3810.75 -2.99089 3.02367 0
M  V30 38711 N 3809.06 -1.3218 -0.858264 0
M  V30 38712 C 3810.47 -1.20262 -1.42808 0
M  V30 38713 C 3810.83 0.186298 -1.95314 0
M  V30 38714 O 3809.95 1.08481 -1.87246 0
M  V30 38715 C 3810.55 -2.17717 -2.59586 0
M  V30 38716 C 3809.1 -2.09697 -3.12577 0
M  V30 38717 C 3808.25 -2.06286 -1.85314 0
M  V30 38718 H 3811.2 -1.44061 -0.665744 0
M  V30 38719 H 3811.22 -1.7736 -3.36636 0
M  V30 38720 H 3810.74 -3.18795 -2.2134 0
M  V30 38721 H 3808.84 -1.11855 -3.55414 0
M  V30 38722 H 3808.95 -2.99352 -3.74066 0
M  V30 38723 H 3807.31 -1.51472 -2.04764 0
M  V30 38724 H 3808.1 -3.0914 -1.49291 0
M  V30 38725 N 3810.54 1.07407 -1.15332 0
M  V30 38726 C 3811.45 2.18128 -0.863552 0
M  V30 38727 C 3812.47 1.73264 0.159924 0
M  V30 38728 O 3813.64 2.01395 -0.0140172 0
M  V30 38729 C 3810.71 3.44864 -0.356332 0
M  V30 38730 C 3809.77 4.04299 -1.44363 0
M  V30 38731 C 3809 5.24985 -0.960521 0
M  V30 38732 O 3809.23 5.7007 0.194127 0
M  V30 38733 O 3808.16 5.76081 -1.74397 0
M  V30 38734 H 3811.99 2.45405 -1.78913 0
M  V30 38735 H 3809.57 1.16735 -0.932383 0
M  V30 38736 H 3811.45 4.21324 -0.0798924 0
M  V30 38737 H 3810.13 3.19141 0.541389 0
M  V30 38738 H 3809.03 3.29381 -1.77367 0
M  V30 38739 H 3810.37 4.34294 -2.31625 0
M  V30 38740 N 3812.02 0.950026 1.25747 0
M  V30 38741 C 3813.27 0.601138 1.92953 0
M  V30 38742 C 3813.59 -0.863923 1.74818 0
M  V30 38743 O 3812.86 -1.61482 1.10906 0
M  V30 38744 H 3811.44 0.219337 0.714073 0
M  V30 38745 H 3814.1 1.20727 1.53007 0
M  V30 38746 H 3813.2 0.8265 3.00957 0
M  V30 38747 N 3813.5 -1.40291 0.718063 0
M  V30 38748 C 3814.45 -2.32533 0.0559874 0
M  V30 38749 C 3815.44 -1.52171 -0.744339 0
M  V30 38750 O 3816.65 -1.67953 -0.647428 0
M  V30 38751 H 3813.02 -0.752 -0.000697409 0
M  V30 38752 H 3814.99 -2.86019 0.850629 0
M  V30 38753 C 3813.74 -3.37154 -0.849868 0
M  V30 38754 H 3813.06 -3.99058 -0.243437 0
M  V30 38755 H 3814.5 -4.04185 -1.28104 0
M  V30 38756 C 3812.96 -2.72833 -1.97645 0
M  V30 38757 O 3813.49 -2.59356 -3.06753 0
M  V30 38758 N 3811.7 -2.31179 -1.76082 0
M  V30 38759 H 3811.25 -2.4234 -0.873442 0
M  V30 38760 H 3811.2 -1.88481 -2.51639 0
M  V30 38761 N 3814.98 -0.464428 -1.50602 0
M  V30 38762 C 3816.22 0.0928564 -2.02287 0
M  V30 38763 C 3816.55 1.40319 -1.34688 0
M  V30 38764 O 3815.81 1.90233 -0.459337 0
M  V30 38765 C 3816.11 0.331444 -3.5586 0
M  V30 38766 C 3815.77 -0.89637 -4.419 0
M  V30 38767 C 3814.43 -1.23302 -4.65134 0
M  V30 38768 C 3816.79 -1.71418 -4.92205 0
M  V30 38769 C 3814.11 -2.38766 -5.35917 0
M  V30 38770 C 3816.47 -2.86004 -5.64255 0
M  V30 38771 C 3815.13 -3.20092 -5.85745 0
M  V30 38772 H 3814.4 0.0339786 -0.740221 0
M  V30 38773 H 3817.05 -0.617152 -1.81283 0
M  V30 38774 H 3815.35 1.12363 -3.75342 0
M  V30 38775 H 3817.05 0.776497 -3.9341 0
M  V30 38776 H 3813.64 -0.624082 -4.24032 0
M  V30 38777 H 3817.82 -1.46728 -4.74115 0
M  V30 38778 H 3813.08 -2.65458 -5.50765 0
M  V30 38779 H 3817.25 -3.49725 -6.02217 0
M  V30 38780 H 3814.88 -4.09671 -6.4037 0
M  V30 38781 N 3816.45 1.56367 -0.196777 0
M  V30 38782 C 3817.68 2.02011 0.447104 0
M  V30 38783 C 3818.1 1.0769 1.55075 0
M  V30 38784 O 3817.45 0.0820637 1.82315 0
M  V30 38785 C 3817.51 3.4734 1.00186 0
M  V30 38786 O 3817.23 4.38062 -0.0577629 0
M  V30 38787 C 3818.73 4.08511 1.72145 0
M  V30 38788 H 3815.95 0.661574 0.112076 0
M  V30 38789 H 3818.49 2.02198 -0.305976 0
M  V30 38790 H 3816.65 3.47847 1.70531 0
M  V30 38791 H 3817.06 5.23294 0.355416 0
M  V30 38792 H 3818.53 5.12045 2.0619 0
M  V30 38793 H 3819.01 3.52067 2.62575 0
M  V30 38794 H 3819.62 4.11781 1.0638 0
M  V30 38795 N 3817.93 -0.0768128 1.57413 0
M  V30 38796 C 3819.16 -0.793799 1.91608 0
M  V30 38797 C 3819.58 -1.70579 0.792738 0
M  V30 38798 O 3818.94 -1.79502 -0.254719 0
M  V30 38799 C 3818.99 -1.5677 3.24739 0
M  V30 38800 O 3818.09 -2.67801 3.13618 0
M  V30 38801 H 3817.43 -0.216897 0.627576 0
M  V30 38802 H 3819.96 -0.0465597 2.04547 0
M  V30 38803 H 3819.97 -1.94803 3.58491 0
M  V30 38804 H 3818.65 -0.898517 4.06078 0
M  V30 38805 H 3817.23 -2.32663 2.91415 0
M  V30 38806 N 3819.41 -1.53708 -0.348084 0
M  V30 38807 C 3820.82 -1.62235 -0.92395 0
M  V30 38808 C 3821.17 -0.500778 -1.89701 0
M  V30 38809 O 3820.3 0.370175 -2.1321 0
M  V30 38810 C 3820.89 -2.94067 -1.68255 0
M  V30 38811 C 3819.45 -3.04871 -2.2075 0
M  V30 38812 C 3818.6 -2.57652 -1.02522 0
M  V30 38813 H 3821.55 -1.58196 -0.126353 0
M  V30 38814 H 3821.57 -2.82852 -2.54509 0
M  V30 38815 H 3821.08 -3.75677 -0.974089 0
M  V30 38816 H 3819.18 -2.27886 -2.94786 0
M  V30 38817 H 3819.3 -4.10261 -2.47432 0
M  V30 38818 H 3817.66 -2.12949 -1.39731 0
M  V30 38819 H 3818.44 -3.41696 -0.331461 0
M  V30 38820 N 3820.89 0.608851 -1.45364 0
M  V30 38821 C 3822.14 1.36519 -1.4902 0
M  V30 38822 C 3822.46 1.94547 -0.132791 0
M  V30 38823 O 3821.73 1.77086 0.837692 0
M  V30 38824 H 3820.31 0.506799 -0.548784 0
M  V30 38825 H 3822.97 0.715036 -1.8131 0
M  V30 38826 H 3822.07 2.18525 -2.2283 0
M  V30 38827 N 3822.37 1.32633 0.851242 0
M  V30 38828 C 3823.6 1.26214 1.63566 0
M  V30 38829 C 3824 -0.171545 1.88421 0
M  V30 38830 O 3823.35 -1.12018 1.45594 0
M  V30 38831 C 3823.41 1.95571 3.01649 0
M  V30 38832 C 3823.07 3.44901 2.99821 0
M  V30 38833 C 3824.07 4.40325 2.76423 0
M  V30 38834 C 3821.76 3.86888 3.20348 0
M  V30 38835 C 3823.75 5.7571 2.73562 0
M  V30 38836 C 3821.44 5.22381 3.17113 0
M  V30 38837 C 3822.43 6.16604 2.9375 0
M  V30 38838 O 3822.12 7.49617 2.90395 0
M  V30 38839 H 3821.85 0.436631 0.516071 0
M  V30 38840 H 3824.41 1.75367 1.06938 0
M  V30 38841 H 3822.64 1.40992 3.60081 0
M  V30 38842 H 3824.33 1.82815 3.624 0
M  V30 38843 H 3825.09 4.09212 2.60327 0
M  V30 38844 H 3820.97 3.13968 3.37558 0
M  V30 38845 H 3824.52 6.49227 2.55245 0
M  V30 38846 H 3820.41 5.53123 3.32754 0
M  V30 38847 H 3821.18 7.59017 3.06325 0
M  V30 38848 N 3823.84 -1.06794 1.159 0
M  V30 38849 C 3825.12 -1.76275 0.847732 0
M  V30 38850 C 3825.5 -2.00665 -0.655501 0
M  V30 38851 O 3824.85 -1.62967 -1.60168 0
M  V30 38852 C 3825.06 -3.06733 1.66481 0
M  V30 38853 C 3826.41 -3.80978 1.87458 0
M  V30 38854 O 3827.43 -3.1656 1.63304 0
M  V30 38855 O 3826.29 -4.9669 2.27951 0
M  V30 38856 H 3823.38 -0.765757 0.312321 0
M  V30 38857 H 3825.93 -1.13109 1.26509 0
M  V30 38858 H 3824.7 -2.84634 2.68513 0
M  V30 38859 H 3824.33 -3.77633 1.24416 0
M  V30 38860 N 3825.32 -0.956681 -1.25241 0
M  V30 38861 C 3826.57 -0.611362 -1.92631 0
M  V30 38862 C 3826.89 0.854639 -1.75274 0
M  V30 38863 O 3826.16 1.60892 -1.11761 0
M  V30 38864 H 3824.74 -0.223121 -0.7129 0
M  V30 38865 H 3827.4 -1.21537 -1.52364 0
M  V30 38866 H 3826.5 -0.842449 -3.00515 0
M  V30 38867 N 3826.8 1.39908 -0.725493 0
M  V30 38868 C 3828.05 2.00999 -0.269685 0
M  V30 38869 C 3828.38 1.57418 1.13724 0
M  V30 38870 O 3827.65 0.798724 1.77343 0
M  V30 38871 C 3827.94 3.58287 -0.360847 0
M  V30 38872 C 3827.79 4.11913 -1.80686 0
M  V30 38873 C 3829.11 4.39318 0.26225 0
M  V30 38874 H 3826.23 0.730257 -0.0994675 0
M  V30 38875 H 3828.87 1.66249 -0.919859 0
M  V30 38876 H 3827.02 3.88022 0.192711 0
M  V30 38877 H 3828.69 3.92937 -2.41656 0
M  V30 38878 H 3826.94 3.6583 -2.33133 0
M  V30 38879 H 3827.61 5.21064 -1.82198 0
M  V30 38880 H 3830.08 4.15572 -0.209525 0
M  V30 38881 H 3828.96 5.48643 0.16807 0
M  V30 38882 H 3829.22 4.21077 1.34708 0
M  V30 38883 N 3828.28 0.472408 1.50353 0
M  V30 38884 C 3829.69 0.126641 1.59097 0
M  V30 38885 C 3829.89 -1.36695 1.48043 0
M  V30 38886 O 3828.95 -2.14035 1.33959 0
M  V30 38887 C 3830.26 0.678008 2.92957 0
M  V30 38888 C 3831.81 0.641553 3.06355 0
M  V30 38889 C 3832.29 1.17049 4.42791 0
M  V30 38890 N 3833.78 1.12996 4.49206 0
M  V30 38891 C 3834.51 1.50971 5.53168 0
M  V30 38892 N 3834.01 1.96402 6.64378 0
M  V30 38893 N 3835.8 1.42566 5.4372 0
M  V30 38894 H 3827.95 1.44381 1.55782 0
M  V30 38895 H 3830.22 0.597151 0.736284 0
M  V30 38896 H 3829.92 1.72438 3.06526 0
M  V30 38897 H 3829.8 0.122313 3.77002 0
M  V30 38898 H 3832.18 -0.395912 2.92432 0
M  V30 38899 H 3832.26 1.23407 2.24063 0
M  V30 38900 H 3831.91 2.20659 4.57462 0
M  V30 38901 H 3831.84 0.554178 5.23676 0
M  V30 38902 H 3834.33 0.796757 3.69405 0
M  V30 38903 H 3834.64 2.23524 7.39768 0
M  V30 38904 H 3832.99 2.00356 6.65494 0
M  V30 38905 H 3836.18 1.06913 4.55727 0
M  V30 38906 H 3836.35 1.72487 6.24622 0
M  V30 38907 N 3829.76 -1.5626 0.205067 0
M  V30 38908 C 3830.71 -2.20901 -0.728394 0
M  V30 38909 C 3831.7 -1.18324 -1.21226 0
M  V30 38910 O 3832.91 -1.36445 -1.174 0
M  V30 38911 H 3829.28 -0.708067 -0.25327 0
M  V30 38912 H 3831.25 -2.97973 -0.159602 0
M  V30 38913 C 3830 -2.89013 -1.93306 0
M  V30 38914 H 3829.32 -3.67691 -1.56982 0
M  V30 38915 H 3830.76 -3.37665 -2.56434 0
M  V30 38916 C 3829.22 -1.90585 -2.77811 0
M  V30 38917 O 3829.75 -1.4124 -3.76051 0
M  V30 38918 N 3827.96 -1.58595 -2.43508 0
M  V30 38919 H 3827.51 -1.98917 -1.63676 0
M  V30 38920 H 3827.46 -0.929971 -3.00331 0
M  V30 38921 N 3831.24 0.0684638 -1.57451 0
M  V30 38922 C 3832.47 0.778691 -1.91363 0
M  V30 38923 C 3832.87 1.71473 -0.799609 0
M  V30 38924 O 3832.22 1.82182 0.235695 0
M  V30 38925 C 3832.28 1.62317 -3.2077 0
M  V30 38926 C 3831.94 0.856151 -4.48909 0
M  V30 38927 C 3832.94 0.173901 -5.19609 0
M  V30 38928 C 3830.62 0.82234 -4.95523 0
M  V30 38929 C 3832.62 -0.531896 -6.35177 0
M  V30 38930 C 3830.31 0.112773 -6.10996 0
M  V30 38931 C 3831.3 -0.563141 -6.80674 0
M  V30 38932 O 3830.99 -1.26127 -7.93944 0
M  V30 38933 H 3830.72 0.226364 -0.636973 0
M  V30 38934 H 3833.28 0.042012 -2.05357 0
M  V30 38935 H 3831.51 2.40273 -3.02995 0
M  V30 38936 H 3833.2 2.21238 -3.40307 0
M  V30 38937 H 3833.96 0.191308 -4.84623 0
M  V30 38938 H 3829.84 1.33791 -4.41159 0
M  V30 38939 H 3833.39 -1.06003 -6.89499 0
M  V30 38940 H 3829.28 0.0933048 -6.45433 0
M  V30 38941 H 3830.05 -1.17088 -8.10082 0
M  V30 38942 N 3832.71 1.5389 0.339928 0
M  V30 38943 C 3833.94 1.75566 1.10414 0
M  V30 38944 C 3834.36 0.495188 1.81465 0
M  V30 38945 O 3833.72 -0.552385 1.7268 0
M  V30 38946 C 3833.77 2.9382 2.09051 0
M  V30 38947 O 3832.87 2.64221 3.1664 0
M  V30 38948 H 3832.21 0.582269 0.319153 0
M  V30 38949 H 3834.74 2.00864 0.389215 0
M  V30 38950 H 3834.75 3.2071 2.52209 0
M  V30 38951 H 3833.43 3.85237 1.56734 0
M  V30 38952 H 3832.01 2.4823 2.78274 0
M  V30 38953 N 3834.19 -0.601133 1.45685 0
M  V30 38954 C 3835.61 -0.922575 1.30233 0
M  V30 38955 C 3835.81 -1.99814 0.260121 0
M  V30 38956 O 3834.86 -2.5015 -0.343709 0
M  V30 38957 C 3836.18 -1.35738 2.6832 0
M  V30 38958 C 3837.72 -1.47124 2.76267 0
M  V30 38959 C 3838.2 -1.93978 4.14893 0
M  V30 38960 N 3839.69 -2.01202 4.17219 0
M  V30 38961 C 3840.43 -2.38691 5.21358 0
M  V30 38962 N 3839.92 -2.75103 6.35838 0
M  V30 38963 N 3841.71 -2.39086 5.08718 0
M  V30 38964 H 3833.87 0.109672 2.12117 0
M  V30 38965 H 3836.13 -0.0135962 0.947902 0
M  V30 38966 H 3835.83 -0.641209 3.45805 0
M  V30 38967 H 3835.71 -2.32262 2.9721 0
M  V30 38968 H 3838.1 -2.17832 1.99081 0
M  V30 38969 H 3838.18 -0.488984 2.51083 0
M  V30 38970 H 3837.82 -1.23856 4.92567 0
M  V30 38971 H 3837.75 -2.9313 4.37473 0
M  V30 38972 H 3840.24 -1.75626 3.3461 0
M  V30 38973 H 3840.55 -3.02609 7.11089 0
M  V30 38974 H 3838.9 -2.72784 6.39229 0
M  V30 38975 H 3842.09 -2.1005 4.18326 0
M  V30 38976 H 3842.26 -2.67976 5.89994 0
M  V30 38977 N 3835.67 -1.33083 -0.844196 0
M  V30 38978 C 3836.62 -1.22865 -1.97502 0
M  V30 38979 C 3837.61 -0.131171 -1.68891 0
M  V30 38980 O 3838.82 -0.294784 -1.7757 0
M  V30 38981 H 3835.19 -0.38114 -0.648256 0
M  V30 38982 H 3837.16 -2.18481 -2.03245 0
M  V30 38983 C 3835.91 -0.979287 -3.33624 0
M  V30 38984 H 3835.24 -1.81602 -3.56175 0
M  V30 38985 H 3836.68 -0.948079 -4.13264 0
M  V30 38986 C 3835.13 0.317863 -3.35397 0
M  V30 38987 O 3835.66 1.32632 -3.79172 0
M  V30 38988 N 3833.87 0.343526 -2.88562 0
M  V30 38989 H 3833.42 -0.477669 -2.53133 0
M  V30 38990 H 3833.38 1.21126 -2.90131 0
M  V30 38991 N 3837.15 1.06178 -1.16464 0
M  V30 38992 C 3838.08 2.15648 -0.895437 0
M  V30 38993 C 3839.06 1.69358 0.158699 0
M  V30 38994 O 3840.24 1.94197 0.0105519 0
M  V30 38995 C 3837.37 3.45023 -0.39702 0
M  V30 38996 C 3836.33 4.04827 -1.3892 0
M  V30 38997 C 3835.65 5.29426 -0.749136 0
M  V30 38998 C 3836.95 4.43471 -2.75918 0
M  V30 38999 H 3838.65 2.38426 -1.81089 0
M  V30 39000 H 3836.19 1.14587 -0.872118 0
M  V30 39001 H 3838.15 4.20943 -0.19616 0
M  V30 39002 H 3836.87 3.21868 0.553945 0
M  V30 39003 H 3835.53 3.30965 -1.57662 0
M  V30 39004 H 3835.18 5.02568 0.208351 0
M  V30 39005 H 3834.88 5.70398 -1.41138 0
M  V30 39006 H 3836.4 6.08042 -0.558324 0
M  V30 39007 H 3837.82 5.10468 -2.60951 0
M  V30 39008 H 3836.21 4.95431 -3.38627 0
M  V30 39009 H 3837.28 3.54278 -3.31082 0
M  V30 39010 N 3838.63 0.96331 1.24732 0
M  V30 39011 C 3839.57 0.481744 2.27557 0
M  V30 39012 C 3840.57 -0.452459 1.63246 0
M  V30 39013 O 3841.77 -0.328232 1.76982 0
M  V30 39014 H 3838.15 0.13731 0.739358 0
M  V30 39015 H 3840.12 1.36104 2.65553 0
M  V30 39016 C 3838.87 -0.216745 3.47024 0
M  V30 39017 H 3838.19 0.492986 3.96749 0
M  V30 39018 H 3839.63 -0.517585 4.20829 0
M  V30 39019 C 3838.09 -1.44223 3.04469 0
M  V30 39020 O 3838.62 -2.53951 3.11242 0
M  V30 39021 N 3836.83 -1.30669 2.59565 0
M  V30 39022 H 3836.37 -0.413906 2.54253 0
M  V30 39023 H 3836.33 -2.12779 2.31457 0
M  V30 39024 N 3840.1 -1.39522 0.732902 0
M  V30 39025 C 3841.34 -2.02409 0.284577 0
M  V30 39026 C 3841.71 -1.56896 -1.1067 0
M  V30 39027 O 3842.91 -2.11967 -1.65298 0
M  V30 39028 C 3841.18 -3.55368 0.380548 0
M  V30 39029 S 3842.74 -4.38798 0.011756 0
M  V30 39030 H 3839.56 -0.70218 0.111646 0
M  V30 39031 H 3842.16 -1.70365 0.958954 0
M  V30 39032 H 3840.86 -3.85984 1.39444 0
M  V30 39033 H 3840.39 -3.92163 -0.311721 0
M  V30 39034 H 3842.41 -4.81343 -1.20511 0
M  V30 39035 N 3841.58 -0.480375 -1.501 0
M  V30 39036 C 3842.49 0.314039 -2.32489 0
M  V30 39037 C 3843.51 0.987161 -1.43287 0
M  V30 39038 O 3844.68 0.973092 -1.76332 0
M  V30 39039 C 3841.75 1.37646 -3.18205 0
M  V30 39040 C 3840.81 0.718956 -4.23237 0
M  V30 39041 C 3840.04 1.73075 -5.04857 0
M  V30 39042 O 3840.27 2.95835 -4.87686 0
M  V30 39043 O 3839.2 1.29745 -5.8775 0
M  V30 39044 H 3843.03 -0.359753 -3.01562 0
M  V30 39045 H 3840.61 -0.242055 -1.47426 0
M  V30 39046 H 3842.49 1.99163 -3.71365 0
M  V30 39047 H 3841.17 2.03355 -2.5185 0
M  V30 39048 H 3840.07 0.0645834 -3.74044 0
M  V30 39049 H 3841.41 0.104656 -4.92089 0
M  V30 39050 N 3843.06 1.56149 -0.213351 0
M  V30 39051 C 3844.31 1.99132 0.41447 0
M  V30 39052 C 3844.66 1.09839 1.57966 0
M  V30 39053 O 3843.95 0.146599 1.91038 0
M  V30 39054 C 3844.15 3.45734 0.905703 0
M  V30 39055 C 3843.98 4.49208 -0.210346 0
M  V30 39056 C 3842.75 5.00784 -0.674035 0
M  V30 39057 C 3844.94 5.03967 -1.02575 0
M  V30 39058 N 3842.93 5.8795 -1.766 0
M  V30 39059 C 3844.3 5.87979 -1.96674 0
M  V30 39060 C 3846.35 4.86352 -1.06611 0
M  V30 39061 C 3845.06 6.56258 -2.94478 0
M  V30 39062 C 3847.08 5.55384 -2.0323 0
M  V30 39063 C 3846.44 6.39157 -2.96069 0
M  V30 39064 H 3842.54 0.772959 0.118568 0
M  V30 39065 H 3845.13 1.91998 -0.32324 0
M  V30 39066 H 3843.3 3.53332 1.6128 0
M  V30 39067 H 3845.03 3.75649 1.50565 0
M  V30 39068 H 3841.78 4.72863 -0.264093 0
M  V30 39069 H 3842.21 6.36235 -2.31373 0
M  V30 39070 H 3846.85 4.21245 -0.362283 0
M  V30 39071 H 3844.57 7.20553 -3.65827 0
M  V30 39072 H 3848.15 5.43724 -2.07016 0
M  V30 39073 H 3847.03 6.91633 -3.69613 0
M  V30 39074 N 3844.54 -0.0601128 1.57485 0
M  V30 39075 C 3845.77 -0.769647 1.92052 0
M  V30 39076 C 3846.18 -1.70523 0.810394 0
M  V30 39077 O 3845.54 -1.81223 -0.215495 0
M  V30 39078 C 3845.59 -1.55334 3.26426 0
M  V30 39079 O 3845.31 -0.655346 4.33171 0
M  V30 39080 C 3846.81 -2.36283 3.75081 0
M  V30 39081 H 3844.03 -0.218164 0.634544 0
M  V30 39082 H 3846.58 -0.0268948 2.04482 0
M  V30 39083 H 3844.73 -2.24826 3.15487 0
M  V30 39084 H 3845.14 -1.20162 5.1055 0
M  V30 39085 H 3846.62 -2.8671 4.717 0
M  V30 39086 H 3847.1 -3.16331 3.04683 0
M  V30 39087 H 3847.7 -1.71925 3.89001 0
M  V30 39088 N 3846.02 -1.54068 -0.331762 0
M  V30 39089 C 3846.95 -1.85872 -1.41329 0
M  V30 39090 C 3847.93 -0.714814 -1.54352 0
M  V30 39091 O 3849.11 -0.967806 -1.68366 0
M  V30 39092 C 3846.24 -2.07879 -2.78215 0
M  V30 39093 C 3845.2 -3.23714 -2.79988 0
M  V30 39094 C 3844.52 -3.31077 -4.19872 0
M  V30 39095 C 3845.82 -4.61554 -2.44468 0
M  V30 39096 H 3847.52 -2.76449 -1.14962 0
M  V30 39097 H 3845.06 -1.33017 -0.551592 0
M  V30 39098 H 3847.02 -2.28712 -3.53933 0
M  V30 39099 H 3845.74 -1.14044 -3.06042 0
M  V30 39100 H 3844.4 -3.02755 -2.06724 0
M  V30 39101 H 3844.05 -2.34815 -4.44827 0
M  V30 39102 H 3843.75 -4.08923 -4.21967 0
M  V30 39103 H 3845.27 -3.54134 -4.97415 0
M  V30 39104 H 3846.68 -4.82323 -3.099 0
M  V30 39105 H 3845.08 -5.4189 -2.57828 0
M  V30 39106 H 3846.15 -4.64361 -1.39632 0
M  V30 39107 N 3847.49 0.593399 -1.46002 0
M  V30 39108 C 3848.72 1.38315 -1.54544 0
M  V30 39109 C 3849.14 1.87202 -0.183588 0
M  V30 39110 O 3848.5 1.60959 0.834379 0
M  V30 39111 C 3848.55 2.55401 -2.54564 0
M  V30 39112 O 3847.65 3.56496 -2.07327 0
M  V30 39113 H 3847 0.412355 -0.520441 0
M  V30 39114 H 3849.53 0.720828 -1.91482 0
M  V30 39115 H 3849.54 3.0246 -2.73829 0
M  V30 39116 H 3848.21 2.1917 -3.53465 0
M  V30 39117 H 3846.79 3.1599 -1.98003 0
M  V30 39118 N 3848.97 1.33529 0.837127 0
M  V30 39119 C 3849.92 1.23911 1.96847 0
M  V30 39120 C 3850.91 0.140126 1.68819 0
M  V30 39121 O 3852.12 0.304197 1.77411 0
M  V30 39122 H 3848.5 0.384573 0.646226 0
M  V30 39123 H 3850.47 2.19556 2.02084 0
M  V30 39124 C 3849.22 0.996966 3.331 0
M  V30 39125 H 3848.54 1.83488 3.55207 0
M  V30 39126 H 3849.98 0.969982 4.12756 0
M  V30 39127 C 3848.44 -0.300071 3.35561 0
M  V30 39128 O 3848.97 -1.30619 3.7987 0
M  V30 39129 N 3847.17 -0.328218 2.88741 0
M  V30 39130 H 3846.72 0.491087 2.52876 0
M  V30 39131 H 3846.68 -1.19585 2.90769 0
M  V30 39132 N 3850.45 -1.05559 1.17026 0
M  V30 39133 C 3851.86 -1.59954 0.962884 0
M  V30 39134 C 3852.21 -1.89948 -0.491355 0
M  V30 39135 O 3851.34 -1.6784 -1.36597 0
M  V30 39136 C 3851.93 -2.90614 1.74151 0
M  V30 39137 C 3850.49 -3.41683 1.57891 0
M  V30 39138 C 3849.64 -2.15469 1.74552 0
M  V30 39139 H 3852.59 -0.884166 1.31788 0
M  V30 39140 H 3852.61 -3.60353 1.22171 0
M  V30 39141 H 3852.12 -2.68753 2.79988 0
M  V30 39142 H 3850.22 -3.68589 0.545271 0
M  V30 39143 H 3850.34 -4.16515 2.36753 0
M  V30 39144 H 3848.7 -2.2605 1.1736 0
M  V30 39145 H 3849.48 -1.96082 2.81792 0
M  V30 39146 N 3851.93 -0.969911 -1.2422 0
M  V30 39147 C 3852.88 -0.493805 -2.27298 0
M  V30 39148 C 3853.87 0.443795 -1.63483 0
M  V30 39149 O 3855.08 0.318842 -1.77154 0
M  V30 39150 H 3851.45 -0.141229 -0.738619 0
M  V30 39151 H 3853.42 -1.37511 -2.64827 0
M  V30 39152 C 3852.17 0.198338 -3.47134 0
M  V30 39153 H 3851.49 -0.51402 -3.96482 0
M  V30 39154 H 3852.93 0.49526 -4.21098 0
M  V30 39155 C 3851.39 1.42606 -3.05229 0
M  V30 39156 O 3851.92 2.52297 -3.12585 0
M  V30 39157 N 3850.13 1.29291 -2.60254 0
M  V30 39158 H 3849.68 0.400416 -2.54469 0
M  V30 39159 H 3849.63 2.11549 -2.32582 0
M  V30 39160 N 3853.41 1.39131 -0.740291 0
M  V30 39161 C 3854.34 2.2911 -0.0641273 0
M  V30 39162 C 3855.35 1.47084 0.697871 0
M  V30 39163 O 3856.54 1.70099 0.541159 0
M  V30 39164 C 3853.64 3.25794 0.933369 0
M  V30 39165 C 3852.81 4.36785 0.23179 0
M  V30 39166 C 3851.87 5.13744 1.13814 0
M  V30 39167 O 3850.9 5.65883 0.613641 0
M  V30 39168 N 3852.1 5.25451 2.46742 0
M  V30 39169 H 3854.87 2.8778 -0.836824 0
M  V30 39170 H 3852.43 1.50769 -0.589955 0
M  V30 39171 H 3854.42 3.74154 1.54243 0
M  V30 39172 H 3852.99 2.68117 1.60724 0
M  V30 39173 H 3852.21 3.90233 -0.557816 0
M  V30 39174 H 3853.5 5.08165 -0.254205 0
M  V30 39175 H 3852.89 4.84618 2.91825 0
M  V30 39176 H 3851.45 5.77232 3.02731 0
M  V30 39177 N 3854.88 0.488329 1.49844 0
M  V30 39178 C 3856.13 -0.0605427 2.02009 0
M  V30 39179 C 3856.45 -1.38651 1.37117 0
M  V30 39180 O 3855.72 -1.88811 0.522215 0
M  V30 39181 H 3854.3 -0.0253642 0.746569 0
M  V30 39182 H 3856.97 0.642683 1.83999 0
M  V30 39183 H 3856.06 -0.199487 3.11462 0
M  V30 39184 N 3856.36 -1.56034 0.221629 0
M  V30 39185 C 3857.31 -2.21661 -0.704924 0
M  V30 39186 C 3858.3 -1.19603 -1.19964 0
M  V30 39187 O 3859.51 -1.37683 -1.15946 0
M  V30 39188 H 3855.89 -0.710713 -0.245746 0
M  V30 39189 H 3857.86 -2.98125 -0.127989 0
M  V30 39190 C 3856.61 -2.91047 -1.90229 0
M  V30 39191 H 3855.93 -3.69336 -1.53073 0
M  V30 39192 H 3857.37 -3.40366 -2.52838 0
M  V30 39193 C 3855.83 -1.93521 -2.75774 0
M  V30 39194 O 3856.36 -1.4522 -3.74532 0
M  V30 39195 N 3854.56 -1.61169 -2.41812 0
M  V30 39196 H 3854.11 -2.00642 -1.61557 0
M  V30 39197 H 3854.07 -0.961773 -2.99328 0
M  V30 39198 N 3857.84 0.0517601 -1.57515 0
M  V30 39199 C 3859.07 0.763216 -1.92847 0
M  V30 39200 C 3859.49 1.69296 -0.819775 0
M  V30 39201 O 3858.85 1.79884 0.226129 0
M  V30 39202 C 3858.9 1.51584 -3.27192 0
M  V30 39203 O 3858 2.62778 -3.17839 0
M  V30 39204 H 3857.34 0.206885 -0.630947 0
M  V30 39205 H 3859.87 0.0140122 -2.04595 0
M  V30 39206 H 3859.88 1.89075 -3.61545 0
M  V30 39207 H 3858.56 0.833799 -4.07456 0
M  V30 39208 H 3857.13 2.27997 -2.95079 0
M  V30 39209 N 3859.32 1.54242 0.323587 0
M  V30 39210 C 3860.54 1.76728 1.08545 0
M  V30 39211 C 3860.97 0.514407 1.80929 0
M  V30 39212 O 3860.33 -0.534039 1.73256 0
M  V30 39213 C 3860.38 2.9602 2.05923 0
M  V30 39214 O 3859.48 2.67564 3.1382 0
M  V30 39215 H 3858.82 0.585621 0.31296 0
M  V30 39216 H 3861.35 2.01265 0.367889 0
M  V30 39217 H 3861.36 3.23367 2.48793 0
M  V30 39218 H 3860.04 3.86877 1.52639 0
M  V30 39219 H 3858.61 2.51168 2.75625 0
M  V30 39220 N 3860.8 -0.585648 1.46314 0
M  V30 39221 C 3862.05 -1.34016 1.5074 0
M  V30 39222 C 3862.36 -1.94926 0.162279 0
M  V30 39223 O 3863.57 -2.71369 0.0843153 0
M  V30 39224 C 3862.02 -2.42872 2.65596 0
M  V30 39225 C 3861.63 -1.88278 4.06516 0
M  V30 39226 C 3863.37 -3.19684 2.79289 0
M  V30 39227 C 3861.28 -2.94745 5.12717 0
M  V30 39228 H 3860.21 -0.503794 0.560988 0
M  V30 39229 H 3862.86 -0.625313 1.72517 0
M  V30 39230 H 3861.24 -3.17142 2.37143 0
M  V30 39231 H 3862.42 -1.2057 4.44746 0
M  V30 39232 H 3860.73 -1.24143 3.97464 0
M  V30 39233 H 3863.33 -3.99136 3.55802 0
M  V30 39234 H 3863.67 -3.72087 1.86701 0
M  V30 39235 H 3864.21 -2.52519 3.07374 0
M  V30 39236 H 3860.94 -2.47233 6.07088 0
M  V30 39237 H 3860.46 -3.60951 4.79035 0
M  V30 39238 H 3862.14 -3.58747 5.38432 0
M  V30 39239 N 3862.28 -1.33971 -0.830033 0
M  V30 39240 C 3863.5 -1.29136 -1.62292 0
M  V30 39241 C 3863.93 0.13322 -1.87628 0
M  V30 39242 O 3863.28 1.0927 -1.44671 0
M  V30 39243 C 3863.33 -2.08086 -2.94504 0
M  V30 39244 O 3862.44 -1.44551 -3.86237 0
M  V30 39245 H 3861.78 -0.443848 -0.493857 0
M  V30 39246 H 3864.31 -1.76667 -1.03199 0
M  V30 39247 H 3864.32 -2.19179 -3.44129 0
M  V30 39248 H 3862.99 -3.11665 -2.75387 0
M  V30 39249 H 3861.57 -1.42157 -3.4474 0
M  V30 39250 N 3863.75 1.04937 -1.17584 0
M  V30 39251 C 3865 1.77377 -0.96022 0
M  V30 39252 C 3865.32 1.88781 0.511968 0
M  V30 39253 O 3866.52 2.57987 0.845867 0
M  V30 39254 C 3864.98 3.18868 -1.66888 0
M  V30 39255 C 3864.59 3.15586 -3.17977 0
M  V30 39256 C 3866.33 3.95746 -1.53574 0
M  V30 39257 C 3864.24 4.5188 -3.81521 0
M  V30 39258 H 3863.17 0.664862 -0.355632 0
M  V30 39259 H 3865.82 1.17599 -1.40865 0
M  V30 39260 H 3864.2 3.78989 -1.1482 0
M  V30 39261 H 3865.37 2.64967 -3.77 0
M  V30 39262 H 3863.69 2.52206 -3.31332 0
M  V30 39263 H 3866.29 4.96523 -1.98417 0
M  V30 39264 H 3866.63 4.13445 -0.486676 0
M  V30 39265 H 3867.16 3.4218 -2.02874 0
M  V30 39266 H 3863.9 4.39387 -4.86436 0
M  V30 39267 H 3863.42 5.02638 -3.27285 0
M  V30 39268 H 3865.1 5.20815 -3.83876 0
M  V30 39269 N 3865.23 0.976485 1.23703 0
M  V30 39270 C 3866.18 0.484715 2.22788 0
M  V30 39271 C 3867.17 -0.438112 1.5482 0
M  V30 39272 O 3868.36 -0.267604 1.74965 0
M  V30 39273 C 3865.49 -0.21535 3.42624 0
M  V30 39274 C 3864.57 0.726819 4.17826 0
M  V30 39275 N 3864.96 1.8678 4.7005 0
M  V30 39276 C 3863.26 0.539359 4.42727 0
M  V30 39277 C 3863.96 2.45783 5.27225 0
M  V30 39278 N 3862.94 1.74209 5.14929 0
M  V30 39279 H 3866.74 1.35516 2.60792 0
M  V30 39280 H 3864.25 0.836669 1.39189 0
M  V30 39281 H 3866.25 -0.584937 4.12776 0
M  V30 39282 H 3864.91 -1.08213 3.06137 0
M  V30 39283 H 3865.92 2.24909 4.66515 0
M  V30 39284 H 3862.6 -0.282726 4.16542 0
M  V30 39285 H 3863.99 3.42117 5.78278 0
M  V30 39286 N 3866.71 -1.38737 0.747659 0
M  V30 39287 C 3867.96 -2.00248 0.301182 0
M  V30 39288 C 3868.28 -1.59342 -1.11537 0
M  V30 39289 O 3867.54 -0.819518 -1.77714 0
M  V30 39290 C 3867.84 -3.55532 0.364932 0
M  V30 39291 C 3867.5 -4.1613 1.73629 0
M  V30 39292 C 3866.17 -4.32394 2.1116 0
M  V30 39293 C 3868.52 -4.4962 2.63612 0
M  V30 39294 C 3865.85 -4.79443 3.38159 0
M  V30 39295 C 3868.2 -4.98082 3.89996 0
M  V30 39296 C 3866.86 -5.12554 4.27604 0
M  V30 39297 H 3866.13 -0.732758 0.11021 0
M  V30 39298 H 3868.78 -1.65874 0.956981 0
M  V30 39299 H 3867.08 -3.90007 -0.374436 0
M  V30 39300 H 3868.78 -4.01 0.00114552 0
M  V30 39301 H 3865.37 -4.03881 1.43452 0
M  V30 39302 H 3869.56 -4.36661 2.35883 0
M  V30 39303 H 3864.81 -4.88832 3.67224 0
M  V30 39304 H 3868.99 -5.22967 4.59868 0
M  V30 39305 H 3866.61 -5.48771 5.26075 0
M  V30 39306 N 3868.19 -0.496268 -1.49583 0
M  V30 39307 C 3869.1 0.289363 -2.32809 0
M  V30 39308 C 3870.11 0.971908 -1.44326 0
M  V30 39309 O 3871.29 0.954335 -1.77354 0
M  V30 39310 C 3868.35 1.34263 -3.19647 0
M  V30 39311 C 3867.42 0.674025 -4.23976 0
M  V30 39312 C 3866.65 1.67711 -5.06664 0
M  V30 39313 O 3866.87 2.90645 -4.90797 0
M  V30 39314 O 3865.81 1.23504 -5.89093 0
M  V30 39315 H 3869.63 -0.391717 -3.01163 0
M  V30 39316 H 3867.22 -0.257678 -1.47161 0
M  V30 39317 H 3869.1 1.95213 -3.73457 0
M  V30 39318 H 3867.77 2.00672 -2.53993 0
M  V30 39319 H 3866.68 0.0249074 -3.74092 0
M  V30 39320 H 3868.01 0.0524577 -4.92172 0
M  V30 39321 N 3869.67 1.55914 -0.2299 0
M  V30 39322 C 3870.94 1.90377 0.448974 0
M  V30 39323 C 3871.32 1.14838 1.77131 0
M  V30 39324 O 3870.67 0.260368 2.27012 0
M  V30 39325 C 3870.88 3.43198 0.633744 0
M  V30 39326 C 3872.23 4.14124 0.93738 0
M  V30 39327 O 3873.25 3.48843 0.720229 0
M  V30 39328 O 3872.11 5.29564 1.34995 0
M  V30 39329 H 3869.21 0.79185 0.238543 0
M  V30 39330 H 3871.75 1.67495 -0.272705 0
M  V30 39331 H 3870.52 3.90159 -0.298656 0
M  V30 39332 H 3870.15 3.71888 1.4066 0
M  V30 39333 N 3871.14 -0.043406 1.5754 0
M  V30 39334 C 3872.39 -0.737074 1.88609 0
M  V30 39335 C 3872.72 -1.76119 0.825373 0
M  V30 39336 O 3871.97 -1.94912 -0.175403 0
M  V30 39337 C 3872.27 -1.45585 3.26404 0
M  V30 39338 C 3871.94 -0.569071 4.47295 0
M  V30 39339 C 3870.6 -0.324781 4.80103 0
M  V30 39340 C 3872.95 0.0440651 5.21181 0
M  V30 39341 C 3870.28 0.541659 5.84194 0
M  V30 39342 C 3872.63 0.898123 6.26192 0
M  V30 39343 C 3871.3 1.15201 6.57484 0
M  V30 39344 H 3870.57 -0.269715 0.69017 0
M  V30 39345 H 3873.21 0.00278565 1.915 0
M  V30 39346 H 3871.52 -2.26866 3.19435 0
M  V30 39347 H 3873.22 -1.99786 3.47687 0
M  V30 39348 H 3869.81 -0.76962 4.21633 0
M  V30 39349 H 3873.99 -0.131729 4.96125 0
M  V30 39350 H 3869.25 0.746818 6.06822 0
M  V30 39351 H 3873.42 1.37981 6.82594 0
M  V30 39352 H 3871.05 1.82514 7.37965 0
M  V30 39353 N 3872.62 -1.54412 -0.315402 0
M  V30 39354 C 3873.85 -1.76724 -1.07015 0
M  V30 39355 C 3874.26 -0.519786 -1.8192 0
M  V30 39356 O 3873.6 0.51947 -1.76202 0
M  V30 39357 C 3873.66 -2.91228 -2.10776 0
M  V30 39358 C 3873.33 -4.29841 -1.55196 0
M  V30 39359 C 3874.33 -5.10397 -0.989478 0
M  V30 39360 C 3872.01 -4.76406 -1.59193 0
M  V30 39361 C 3874 -6.35632 -0.474354 0
M  V30 39362 C 3871.69 -6.01607 -1.07293 0
M  V30 39363 C 3872.69 -6.81055 -0.515101 0
M  V30 39364 O 3872.38 -8.039 -0.00393129 0
M  V30 39365 H 3872.11 -0.593411 -0.323788 0
M  V30 39366 H 3874.66 -2.02137 -0.364673 0
M  V30 39367 H 3872.89 -2.61405 -2.84963 0
M  V30 39368 H 3874.58 -3.01248 -2.72037 0
M  V30 39369 H 3875.35 -4.75573 -0.951608 0
M  V30 39370 H 3871.23 -4.14606 -2.01552 0
M  V30 39371 H 3874.77 -6.97589 -0.0382913 0
M  V30 39372 H 3870.67 -6.35921 -1.1079 0
M  V30 39373 H 3871.44 -8.18414 -0.118589 0
M  V30 39374 N 3874.1 0.57788 -1.46623 0
M  V30 39375 C 3875.03 1.69673 -1.60416 0
M  V30 39376 C 3876.01 1.63921 -0.454306 0
M  V30 39377 O 3877.2 1.81863 -0.681142 0
M  V30 39378 C 3874.33 3.08315 -1.59872 0
M  V30 39379 C 3873.28 3.28901 -2.73876 0
M  V30 39380 C 3872.61 4.6812 -2.58394 0
M  V30 39381 C 3873.91 3.16269 -4.15658 0
M  V30 39382 H 3875.6 1.58385 -2.54076 0
M  V30 39383 H 3873.15 0.760551 -1.22277 0
M  V30 39384 H 3875.1 3.86414 -1.68114 0
M  V30 39385 H 3873.82 3.20513 -0.627598 0
M  V30 39386 H 3872.48 2.53204 -2.6511 0
M  V30 39387 H 3872.13 4.7709 -1.59355 0
M  V30 39388 H 3871.83 4.82846 -3.34863 0
M  V30 39389 H 3873.35 5.48381 -2.68535 0
M  V30 39390 H 3874.77 3.84206 -4.2551 0
M  V30 39391 H 3873.17 3.42514 -4.92752 0
M  V30 39392 H 3874.24 2.13284 -4.35475 0
M  V30 39393 N 3875.58 1.34409 0.822917 0
M  V30 39394 C 3876.49 1.2806 1.96565 0
M  V30 39395 C 3877.5 0.188281 1.72978 0
M  V30 39396 O 3878.68 0.414755 1.97083 0
M  V30 39397 C 3875.75 1.03589 3.30863 0
M  V30 39398 C 3874.81 2.21977 3.67457 0
M  V30 39399 C 3874.04 1.98664 4.95347 0
M  V30 39400 O 3874.26 0.944884 5.62519 0
M  V30 39401 O 3873.2 2.85614 5.29819 0
M  V30 39402 H 3877.02 2.24196 2.04866 0
M  V30 39403 H 3874.61 1.14615 0.958314 0
M  V30 39404 H 3876.49 0.917234 4.11296 0
M  V30 39405 H 3875.16 0.104925 3.2353 0
M  V30 39406 H 3874.07 2.39401 2.87468 0
M  V30 39407 H 3875.4 3.13463 3.79476 0
M  V30 39408 N 3877.06 -1.04312 1.18139 0
M  V30 39409 C 3878.28 -1.81664 1.00065 0
M  V30 39410 C 3878.71 -1.8273 -0.446248 0
M  V30 39411 O 3878.06 -1.24279 -1.32002 0
M  V30 39412 C 3878.11 -3.25252 1.55703 0
M  V30 39413 O 3877.22 -4.05019 0.776733 0
M  V30 39414 H 3876.56 -0.561348 0.354661 0
M  V30 39415 H 3879.09 -1.31387 1.56839 0
M  V30 39416 H 3879.1 -3.76035 1.5831 0
M  V30 39417 H 3877.77 -3.23791 2.61022 0
M  V30 39418 H 3876.35 -3.6371 0.822787 0
M  V30 39419 N 3878.53 -0.983032 -1.23184 0
M  V30 39420 C 3879.48 -0.496524 -2.22528 0
M  V30 39421 C 3880.47 0.429896 -1.55051 0
M  V30 39422 O 3881.66 0.258321 -1.75105 0
M  V30 39423 C 3878.79 0.197177 -3.42733 0
M  V30 39424 C 3877.88 -0.748967 -4.17434 0
M  V30 39425 N 3878.27 -1.8927 -4.69053 0
M  V30 39426 C 3876.56 -0.562831 -4.42434 0
M  V30 39427 C 3877.27 -2.48575 -5.25914 0
M  V30 39428 N 3876.24 -1.76938 -5.13998 0
M  V30 39429 H 3880.04 -1.36897 -2.6007 0
M  V30 39430 H 3877.56 -0.844038 -1.38743 0
M  V30 39431 H 3879.55 0.563038 -4.1308 0
M  V30 39432 H 3878.21 1.06588 -3.06707 0
M  V30 39433 H 3879.23 -2.2738 -4.65316 0
M  V30 39434 H 3875.9 0.260632 -4.16686 0
M  V30 39435 H 3877.29 -3.45179 -5.76456 0
M  V30 39436 N 3880.01 1.38338 -0.755006 0
M  V30 39437 C 3880.94 2.29029 -0.0884239 0
M  V30 39438 C 3881.96 1.47816 0.682232 0
M  V30 39439 O 3883.15 1.70664 0.523087 0
M  V30 39440 C 3880.25 3.26765 0.898762 0
M  V30 39441 C 3879.42 4.37007 0.18545 0
M  V30 39442 C 3878.48 5.14922 1.08359 0
M  V30 39443 O 3877.5 5.66502 0.553587 0
M  V30 39444 N 3878.71 5.28038 2.41155 0
M  V30 39445 H 3881.47 2.86876 -0.8673 0
M  V30 39446 H 3879.03 1.50134 -0.605912 0
M  V30 39447 H 3881.02 3.75769 1.50266 0
M  V30 39448 H 3879.59 2.69807 1.57871 0
M  V30 39449 H 3878.81 3.8962 -0.599174 0
M  V30 39450 H 3880.1 5.07866 -0.308088 0
M  V30 39451 H 3879.5 4.87686 2.86669 0
M  V30 39452 H 3878.06 5.80411 2.96592 0
M  V30 39453 N 3881.49 0.504194 1.49317 0
M  V30 39454 C 3882.77 -0.102359 1.95332 0
M  V30 39455 C 3883.15 -1.53819 1.44579 0
M  V30 39456 O 3882.5 -2.18733 0.660933 0
M  V30 39457 C 3882.71 -0.011708 3.48998 0
M  V30 39458 C 3884.05 -0.184027 4.24201 0
M  V30 39459 O 3885.08 -0.086743 3.56094 0
M  V30 39460 O 3883.94 -0.384172 5.45148 0
M  V30 39461 H 3881.03 -0.0935437 0.821693 0
M  V30 39462 H 3883.58 0.56696 1.59949 0
M  V30 39463 H 3882.35 0.989479 3.78583 0
M  V30 39464 H 3881.97 -0.721031 3.91008 0
M  V30 39465 N 3882.97 -1.5579 0.238166 0
M  V30 39466 C 3884.21 -2.00632 -0.39064 0
M  V30 39467 C 3884.57 -1.1226 -1.55761 0
M  V30 39468 O 3885.77 -1.46521 -2.25356 0
M  V30 39469 C 3884.04 -3.48368 -0.798422 0
M  V30 39470 S 3885.6 -4.15223 -1.41899 0
M  V30 39471 H 3882.42 -0.700227 -0.1233 0
M  V30 39472 H 3885.02 -1.92317 0.351352 0
M  V30 39473 H 3883.73 -4.10356 0.0603331 0
M  V30 39474 H 3883.26 -3.60591 -1.57281 0
M  V30 39475 H 3885.27 -4.15786 -2.70807 0
M  V30 39476 N 3884.45 0.0350506 -1.57561 0
M  V30 39477 C 3885.38 1.06498 -2.02955 0
M  V30 39478 C 3886.39 1.32825 -0.941354 0
M  V30 39479 O 3887.58 1.30417 -1.21875 0
M  V30 39480 C 3884.68 2.40796 -2.38475 0
M  V30 39481 C 3883.85 2.33911 -3.696 0
M  V30 39482 C 3882.91 3.5061 -3.92377 0
M  V30 39483 O 3881.94 3.30374 -4.6351 0
M  V30 39484 N 3883.14 4.72269 -3.37553 0
M  V30 39485 H 3885.91 0.678118 -2.91927 0
M  V30 39486 H 3883.47 0.223102 -1.60355 0
M  V30 39487 H 3885.46 3.17576 -2.50854 0
M  V30 39488 H 3884.03 2.71349 -1.55204 0
M  V30 39489 H 3883.25 1.4227 -3.67631 0
M  V30 39490 H 3884.54 2.26447 -4.55631 0
M  V30 39491 H 3883.93 4.91611 -2.79884 0
M  V30 39492 H 3882.49 5.46434 -3.55321 0
M  V30 39493 N 3885.92 1.54577 0.307209 0
M  V30 39494 C 3887.17 1.73562 1.04318 0
M  V30 39495 C 3887.5 0.518063 1.87474 0
M  V30 39496 O 3886.75 -0.50006 1.89203 0
M  V30 39497 C 3887.05 2.97338 1.98304 0
M  V30 39498 C 3886.72 4.31398 1.31175 0
M  V30 39499 C 3885.38 4.67841 1.12599 0
M  V30 39500 C 3887.73 5.14527 0.831322 0
M  V30 39501 C 3885.06 5.84998 0.44655 0
M  V30 39502 C 3887.41 6.32383 0.165632 0
M  V30 39503 C 3886.08 6.67492 -0.0321349 0
M  V30 39504 H 3885.35 0.63511 0.381728 0
M  V30 39505 H 3887.99 1.8883 0.318671 0
M  V30 39506 H 3886.3 2.76826 2.77263 0
M  V30 39507 H 3888 3.09222 2.55309 0
M  V30 39508 H 3884.59 4.02735 1.46638 0
M  V30 39509 H 3888.77 4.86876 0.962568 0
M  V30 39510 H 3884.03 6.10748 0.282279 0
M  V30 39511 H 3888.2 6.96069 -0.214556 0
M  V30 39512 H 3885.83 7.5813 -0.560626 0
M  V30 39513 N 3887.4 -0.570096 1.46927 0
M  V30 39514 C 3888.68 -1.33061 1.43367 0
M  V30 39515 C 3889.06 -2.10737 0.123775 0
M  V30 39516 O 3888.41 -2.10254 -0.894729 0
M  V30 39517 C 3888.62 -2.246 2.67126 0
M  V30 39518 C 3889.97 -2.8603 3.13803 0
M  V30 39519 O 3890.99 -2.34907 2.67763 0
M  V30 39520 O 3889.85 -3.78916 3.93808 0
M  V30 39521 H 3886.94 -0.598489 0.570736 0
M  V30 39522 H 3889.49 -0.590067 1.59111 0
M  V30 39523 H 3888.26 -1.66716 3.54008 0
M  V30 39524 H 3887.88 -3.05971 2.53904 0
M  V30 39525 N 3888.88 -1.34844 -0.815777 0
M  V30 39526 C 3890.13 -1.27791 -1.57472 0
M  V30 39527 C 3890.46 0.149922 -1.9362 0
M  V30 39528 O 3889.74 1.09707 -1.60607 0
M  V30 39529 C 3890.02 -2.17561 -2.86948 0
M  V30 39530 C 3889.87 -3.68916 -2.57334 0
M  V30 39531 C 3891.19 -2.06626 -3.88579 0
M  V30 39532 H 3888.31 -0.465551 -0.571342 0
M  V30 39533 H 3890.95 -1.65161 -0.939242 0
M  V30 39534 H 3889.1 -1.85821 -3.41178 0
M  V30 39535 H 3890.77 -4.11056 -2.09358 0
M  V30 39536 H 3889.02 -3.89652 -1.90667 0
M  V30 39537 H 3889.69 -4.27104 -3.49694 0
M  V30 39538 H 3892.16 -2.34509 -3.43722 0
M  V30 39539 H 3891.04 -2.71652 -4.76966 0
M  V30 39540 H 3891.3 -1.0454 -4.29562 0
M  V30 39541 N 3890.36 1.03684 -1.1869 0
M  V30 39542 C 3891.29 2.137 -0.940977 0
M  V30 39543 C 3892.27 1.69657 0.12274 0
M  V30 39544 O 3893.46 1.94176 -0.0306426 0
M  V30 39545 C 3890.59 3.44103 -0.470115 0
M  V30 39546 C 3889.54 4.0179 -1.47475 0
M  V30 39547 C 3888.87 5.27718 -0.861267 0
M  V30 39548 C 3890.17 4.37519 -2.85262 0
M  V30 39549 H 3891.86 2.34531 -1.86106 0
M  V30 39550 H 3889.41 1.12711 -0.896227 0
M  V30 39551 H 3891.36 4.20432 -0.285404 0
M  V30 39552 H 3890.08 3.22971 0.485547 0
M  V30 39553 H 3888.74 3.27547 -1.64647 0
M  V30 39554 H 3888.39 5.02897 0.101702 0
M  V30 39555 H 3888.09 5.67276 -1.53206 0
M  V30 39556 H 3889.61 6.06721 -0.687173 0
M  V30 39557 H 3891.03 5.04818 -2.7172 0
M  V30 39558 H 3889.42 4.88137 -3.4906 0
M  V30 39559 H 3890.49 3.47175 -3.38522 0
M  V30 39560 N 3891.84 0.989551 1.22661 0
M  V30 39561 C 3892.75 0.545875 2.28161 0
M  V30 39562 C 3893.76 -0.403732 1.69251 0
M  V30 39563 O 3894.94 -0.271392 1.99563 0
M  V30 39564 C 3892 -0.135747 3.46434 0
M  V30 39565 C 3891.07 0.856404 4.20671 0
M  V30 39566 C 3890.3 0.207215 5.33298 0
M  V30 39567 O 3890.52 -0.999651 5.61572 0
M  V30 39568 O 3889.46 0.910393 5.94975 0
M  V30 39569 H 3893.28 1.42349 2.68273 0
M  V30 39570 H 3890.87 0.757632 1.28765 0
M  V30 39571 H 3892.75 -0.517702 4.18208 0
M  V30 39572 H 3891.42 -0.987981 3.08254 0
M  V30 39573 H 3890.33 1.28923 3.51183 0
M  V30 39574 H 3891.66 1.67773 4.62723 0
M  V30 39575 N 3893.32 -1.37936 0.762332 0
M  V30 39576 C 3894.56 -1.99917 0.322404 0
M  V30 39577 C 3894.89 -1.60516 -1.0984 0
M  V30 39578 O 3894.15 -0.838321 -1.76835 0
M  V30 39579 C 3894.44 -3.55125 0.40262 0
M  V30 39580 C 3894.11 -4.14265 1.78033 0
M  V30 39581 C 3892.77 -4.3013 2.15735 0
M  V30 39582 C 3895.12 -4.46799 2.68366 0
M  V30 39583 C 3892.45 -4.75829 3.43225 0
M  V30 39584 C 3894.8 -4.93918 3.95257 0
M  V30 39585 C 3893.47 -5.0799 4.33016 0
M  V30 39586 H 3892.74 -0.731548 0.117976 0
M  V30 39587 H 3895.39 -1.6485 0.97452 0
M  V30 39588 H 3893.69 -3.90382 -0.33305 0
M  V30 39589 H 3895.39 -4.00976 0.0436769 0
M  V30 39590 H 3891.98 -4.02336 1.47728 0
M  V30 39591 H 3896.16 -4.34135 2.40501 0
M  V30 39592 H 3891.42 -4.8491 3.72388 0
M  V30 39593 H 3895.59 -5.1806 4.65389 0
M  V30 39594 H 3893.22 -5.4316 5.31866 0
M  V30 39595 N 3894.79 -0.512106 -1.49048 0
M  V30 39596 C 3896.21 -0.168778 -1.58705 0
M  V30 39597 C 3896.41 1.32722 -1.51615 0
M  V30 39598 O 3895.47 2.10408 -1.39587 0
M  V30 39599 C 3896.78 -0.755442 -2.91056 0
M  V30 39600 C 3898.33 -0.722552 -3.04546 0
M  V30 39601 C 3898.8 -1.28747 -4.39532 0
M  V30 39602 N 3900.29 -1.24866 -4.46052 0
M  V30 39603 C 3901.03 -1.65584 -5.48971 0
M  V30 39604 N 3900.52 -2.13948 -6.58937 0
M  V30 39605 N 3902.32 -1.56932 -5.39749 0
M  V30 39606 H 3894.47 -1.4846 -1.51899 0
M  V30 39607 H 3896.73 -0.616462 -0.720193 0
M  V30 39608 H 3896.44 -1.80504 -3.01846 0
M  V30 39609 H 3896.31 -0.222225 -3.76545 0
M  V30 39610 H 3898.7 0.31824 -2.93379 0
M  V30 39611 H 3898.78 -1.29304 -2.20713 0
M  V30 39612 H 3898.42 -2.32711 -4.51451 0
M  V30 39613 H 3898.35 -0.692826 -5.22022 0
M  V30 39614 H 3900.84 -0.894418 -3.67163 0
M  V30 39615 H 3901.16 -2.43059 -7.33582 0
M  V30 39616 H 3899.5 -2.1793 -6.59948 0
M  V30 39617 H 3902.69 -1.18958 -4.52732 0
M  V30 39618 H 3902.87 -1.88987 -6.19829 0
M  V30 39619 N 3896.27 1.55662 -0.246424 0
M  V30 39620 C 3897.52 1.99227 0.379012 0
M  V30 39621 C 3897.85 1.13437 1.57625 0
M  V30 39622 O 3897.13 0.197661 1.93493 0
M  V30 39623 C 3897.41 3.51342 0.789342 0
M  V30 39624 C 3897.26 4.47898 -0.413254 0
M  V30 39625 C 3898.58 4.08543 1.63649 0
M  V30 39626 H 3895.7 0.724289 0.136289 0
M  V30 39627 H 3898.34 1.86793 -0.34764 0
M  V30 39628 H 3896.49 3.62069 1.40848 0
M  V30 39629 H 3898.16 4.49152 -1.05168 0
M  V30 39630 H 3896.41 4.2074 -1.05644 0
M  V30 39631 H 3897.08 5.51938 -0.0828237 0
M  V30 39632 H 3899.55 4.00914 1.11386 0
M  V30 39633 H 3898.43 5.15245 1.89245 0
M  V30 39634 H 3898.69 3.5697 2.60816 0
M  V30 39635 N 3897.75 -0.0266943 1.57577 0
M  V30 39636 C 3899 -0.715612 1.89006 0
M  V30 39637 C 3899.32 -1.75769 0.844419 0
M  V30 39638 O 3898.59 -1.95522 -0.121659 0
M  V30 39639 H 3897.17 -0.267296 0.69754 0
M  V30 39640 H 3899.83 0.00791522 1.94898 0
M  V30 39641 H 3898.93 -1.20369 2.87954 0
M  V30 39642 N 3899.23 -1.54738 -0.299007 0
M  V30 39643 C 3900.5 -1.64794 -1.05368 0
M  V30 39644 C 3900.88 -0.497511 -2.05154 0
M  V30 39645 O 3900.23 0.505534 -2.22838 0
M  V30 39646 C 3900.44 -3.02889 -1.73376 0
M  V30 39647 C 3901.79 -3.59771 -2.25499 0
M  V30 39648 O 3902.81 -3.05354 -1.83405 0
M  V30 39649 O 3901.67 -4.55055 -3.02634 0
M  V30 39650 H 3898.77 -0.668296 -0.487144 0
M  V30 39651 H 3901.31 -1.67082 -0.296936 0
M  V30 39652 H 3900.09 -3.78059 -1.00929 0
M  V30 39653 H 3899.71 -3.04387 -2.55801 0
M  V30 39654 N 3900.71 0.562296 -1.47228 0
M  V30 39655 C 3901.67 1.65187 -1.5889 0
M  V30 39656 C 3902.67 1.53948 -0.464386 0
M  V30 39657 O 3903.86 1.58198 -0.729307 0
M  V30 39658 C 3900.99 3.04708 -1.52858 0
M  V30 39659 H 3902.18 1.56198 -2.56012 0
M  V30 39660 H 3899.74 0.781808 -1.35342 0
M  V30 39661 H 3900.47 3.19235 -0.570923 0
M  V30 39662 H 3900.26 3.14274 -2.34465 0
M  V30 39663 H 3901.75 3.83986 -1.64147 0
M  V30 39664 N 3902.18 1.35274 0.808615 0
M  V30 39665 C 3903.46 1.19 1.55236 0
M  V30 39666 C 3903.84 -0.231686 2.09825 0
M  V30 39667 O 3903.19 -1.23493 1.92254 0
M  V30 39668 C 3903.4 2.25639 2.66248 0
M  V30 39669 C 3904.75 2.61343 3.34641 0
M  V30 39670 O 3905.77 2.24537 2.76517 0
M  V30 39671 O 3904.63 3.24623 4.39639 0
M  V30 39672 H 3901.72 0.462188 0.685792 0
M  V30 39673 H 3904.27 1.4695 0.848751 0
M  V30 39674 H 3903.04 3.21004 2.23768 0
M  V30 39675 H 3902.66 1.98947 3.44247 0
M  V30 39676 N 3903.66 -1.03053 1.19239 0
M  V30 39677 C 3904.91 -1.76077 0.992039 0
M  V30 39678 C 3905.23 -1.89038 -0.478501 0
M  V30 39679 O 3904.5 -1.42276 -1.34664 0
M  V30 39680 H 3903.08 -0.652274 0.36407 0
M  V30 39681 H 3905.74 -1.24318 1.50103 0
M  V30 39682 H 3904.84 -2.76963 1.43867 0
M  V30 39683 N 3905.14 -0.996042 -1.22134 0
M  V30 39684 C 3906.55 -0.708325 -1.72742 0
M  V30 39685 C 3906.9 0.774617 -1.80261 0
M  V30 39686 O 3906.03 1.60542 -1.45105 0
M  V30 39687 C 3906.62 -1.27911 -3.13726 0
M  V30 39688 C 3905.18 -1.04071 -3.61727 0
M  V30 39689 C 3904.33 -1.39739 -2.39517 0
M  V30 39690 H 3907.28 -1.16803 -1.07437 0
M  V30 39691 H 3907.3 -0.659256 -3.74745 0
M  V30 39692 H 3906.81 -2.35842 -3.08221 0
M  V30 39693 H 3904.91 0.0218374 -3.72594 0
M  V30 39694 H 3905.03 -1.70629 -4.47686 0
M  V30 39695 H 3903.39 -0.816028 -2.41274 0
M  V30 39696 H 3904.17 -2.48681 -2.3667 0
M  V30 39697 N 3906.62 1.37529 -0.769636 0
M  V30 39698 C 3907.55 2.32892 -0.16843 0
M  V30 39699 C 3908.53 1.55675 0.685522 0
M  V30 39700 O 3909.71 1.83922 0.623418 0
M  V30 39701 C 3906.84 3.399 0.713123 0
M  V30 39702 C 3905.8 4.27982 -0.0393561 0
M  V30 39703 C 3905.12 5.25984 0.961503 0
M  V30 39704 C 3906.42 5.0792 -1.21713 0
M  V30 39705 H 3908.12 2.8342 -0.965072 0
M  V30 39706 H 3905.66 1.36268 -0.465526 0
M  V30 39707 H 3907.62 4.05588 1.14351 0
M  V30 39708 H 3906.34 2.87892 1.54226 0
M  V30 39709 H 3905 3.63822 -0.450493 0
M  V30 39710 H 3904.65 4.70257 1.78513 0
M  V30 39711 H 3904.35 5.85776 0.462576 0
M  V30 39712 H 3905.87 5.94548 1.39087 0
M  V30 39713 H 3907.29 5.6676 -0.863505 0
M  V30 39714 H 3905.68 5.77028 -1.648 0
M  V30 39715 H 3906.75 4.40718 -2.02227 0
M  V30 39716 N 3908.1 0.520003 1.48774 0
M  V30 39717 C 3909.03 -0.295255 2.26282 0
M  V30 39718 C 3910.01 -0.953672 1.31696 0
M  V30 39719 O 3911.19 -0.980035 1.6102 0
M  V30 39720 C 3908.32 -1.41732 3.07619 0
M  V30 39721 C 3907.36 -0.871338 4.17504 0
M  V30 39722 S 3908.2 0.252939 5.34902 0
M  V30 39723 C 3909.35 -0.87184 6.19798 0
M  V30 39724 H 3909.59 0.36255 2.95081 0
M  V30 39725 H 3907.12 0.305613 1.51345 0
M  V30 39726 H 3909.08 -2.06014 3.55061 0
M  V30 39727 H 3907.74 -2.04681 2.38253 0
M  V30 39728 H 3906.93 -1.7128 4.74003 0
M  V30 39729 H 3906.53 -0.305398 3.72751 0
M  V30 39730 H 3908.83 -1.77279 6.53895 0
M  V30 39731 H 3909.77 -0.345049 7.07259 0
M  V30 39732 H 3910.18 -1.14774 5.52709 0
M  V30 39733 N 3909.57 -1.55529 0.254676 0
M  V30 39734 C 3910.82 -2.00161 -0.361528 0
M  V30 39735 C 3911.18 -1.13989 -1.54998 0
M  V30 39736 O 3910.47 -0.197198 -1.90582 0
M  V30 39737 C 3910.66 -3.48013 -0.813719 0
M  V30 39738 C 3910.49 -4.48492 0.329371 0
M  V30 39739 C 3909.26 -4.98821 0.806572 0
M  V30 39740 C 3911.46 -5.0107 1.159 0
M  V30 39741 N 3909.44 -5.83062 1.92126 0
M  V30 39742 C 3910.81 -5.82558 2.12194 0
M  V30 39743 C 3912.87 -4.83355 1.19468 0
M  V30 39744 C 3911.57 -6.4822 3.11774 0
M  V30 39745 C 3913.6 -5.49801 2.17883 0
M  V30 39746 C 3912.96 -6.31083 3.12912 0
M  V30 39747 H 3909.06 -0.775831 -0.0980324 0
M  V30 39748 H 3911.64 -1.91074 0.374031 0
M  V30 39749 H 3909.81 -3.57484 -1.51855 0
M  V30 39750 H 3911.54 -3.79509 -1.40553 0
M  V30 39751 H 3908.3 -4.71997 0.389371 0
M  V30 39752 H 3908.72 -6.29877 2.48161 0
M  V30 39753 H 3913.37 -4.20136 0.473841 0
M  V30 39754 H 3911.08 -7.106 3.84803 0
M  V30 39755 H 3914.67 -5.38044 2.21359 0
M  V30 39756 H 3913.55 -6.8159 3.8782 0
M  V30 39757 N 3911.05 0.0183372 -1.57589 0
M  V30 39758 C 3912.47 0.374155 -1.55152 0
M  V30 39759 C 3912.67 1.75941 -0.982201 0
M  V30 39760 O 3911.72 2.45072 -0.607948 0
M  V30 39761 C 3913.04 0.266178 -2.9952 0
M  V30 39762 C 3914.59 0.342472 -3.11121 0
M  V30 39763 C 3915.06 0.263825 -4.5724 0
M  V30 39764 N 3916.55 0.322291 -4.62077 0
M  V30 39765 C 3917.29 0.284493 -5.72694 0
M  V30 39766 N 3916.78 0.19836 -6.92516 0
M  V30 39767 N 3918.58 0.335013 -5.61101 0
M  V30 39768 H 3910.73 -0.888067 -1.92943 0
M  V30 39769 H 3912.99 -0.338711 -0.885426 0
M  V30 39770 H 3912.7 -0.686184 -3.44941 0
M  V30 39771 H 3912.57 1.05559 -3.62129 0
M  V30 39772 H 3914.96 1.28527 -2.6564 0
M  V30 39773 H 3915.04 -0.476479 -2.51323 0
M  V30 39774 H 3914.68 -0.675352 -5.0339 0
M  V30 39775 H 3914.61 1.10102 -5.14961 0
M  V30 39776 H 3917.1 0.390938 -3.75872 0
M  V30 39777 H 3917.42 0.174913 -7.72602 0
M  V30 39778 H 3915.76 0.164252 -6.94806 0
M  V30 39779 H 3918.95 0.40037 -4.66385 0
M  V30 39780 H 3919.12 0.302089 -6.47295 0
M  V30 39781 N 3912.53 1.54894 0.290797 0
M  V30 39782 C 3913.46 1.89554 1.36351 0
M  V30 39783 C 3914.44 0.755487 1.52402 0
M  V30 39784 O 3915.63 1.01211 1.65741 0
M  V30 39785 C 3912.76 2.15183 2.72605 0
M  V30 39786 C 3911.71 3.31023 2.71307 0
M  V30 39787 C 3911.04 3.42092 4.10946 0
M  V30 39788 C 3912.34 4.67874 2.32145 0
M  V30 39789 H 3914.03 2.794 1.07592 0
M  V30 39790 H 3911.58 1.34432 0.516131 0
M  V30 39791 H 3913.53 2.38016 3.47745 0
M  V30 39792 H 3912.25 1.22118 3.02911 0
M  V30 39793 H 3910.91 3.0813 1.98625 0
M  V30 39794 H 3910.56 2.46526 4.38445 0
M  V30 39795 H 3910.26 4.19967 4.10976 0
M  V30 39796 H 3911.78 3.67198 4.87851 0
M  V30 39797 H 3913.2 4.90369 2.97003 0
M  V30 39798 H 3911.6 5.48535 2.4337 0
M  V30 39799 H 3912.67 4.679 1.27271 0
M  V30 39800 N 3914.01 -0.55448 1.47524 0
M  V30 39801 C 3915.25 -1.32228 1.55869 0
M  V30 39802 C 3915.61 -1.9077 0.21702 0
M  V30 39803 O 3916.81 -2.68228 0.17533 0
M  V30 39804 C 3915.08 -2.40071 2.64765 0
M  V30 39805 S 3916.64 -3.26903 2.92712 0
M  V30 39806 H 3913.46 -0.450118 0.550377 0
M  V30 39807 H 3916.06 -0.634471 1.84918 0
M  V30 39808 H 3914.77 -1.95503 3.60842 0
M  V30 39809 H 3914.3 -3.1359 2.37539 0
M  V30 39810 H 3916.31 -4.39605 2.30135 0
M  V30 39811 N 3915.49 -1.35701 -0.80143 0
M  V30 39812 C 3916.73 -1.29007 -1.55569 0
M  V30 39813 C 3917.06 0.133802 -1.9454 0
M  V30 39814 O 3916.33 1.0714 -1.64006 0
M  V30 39815 H 3914.91 -0.47453 -0.576914 0
M  V30 39816 H 3917.57 -1.69863 -0.95565 0
M  V30 39817 H 3916.66 -1.90942 -2.46876 0
M  V30 39818 N 3916.96 1.02419 -1.19783 0
M  V30 39819 C 3918.38 1.57345 -1.00495 0
M  V30 39820 C 3918.73 1.91184 0.440821 0
M  V30 39821 O 3917.85 1.71403 1.32099 0
M  V30 39822 C 3918.45 2.85895 -1.81795 0
M  V30 39823 C 3917.01 3.37377 -1.66895 0
M  V30 39824 C 3916.15 2.10766 -1.80203 0
M  V30 39825 H 3919.1 0.848914 -1.34086 0
M  V30 39826 H 3919.12 3.56987 -1.31682 0
M  V30 39827 H 3918.64 2.61235 -2.87015 0
M  V30 39828 H 3916.74 3.67013 -0.642804 0
M  V30 39829 H 3916.85 4.10092 -2.47713 0
M  V30 39830 H 3915.21 2.22859 -1.23312 0
M  V30 39831 H 3916 1.88541 -2.86892 0
M  V30 39832 N 3918.44 1.0025 1.21604 0
M  V30 39833 C 3919.67 0.702283 1.95148 0
M  V30 39834 C 3920.09 -0.728262 1.7343 0
M  V30 39835 O 3919.45 -1.49915 1.01956 0
M  V30 39836 C 3919.5 1.02576 3.45703 0
M  V30 39837 O 3918.6 0.129647 4.12196 0
M  V30 39838 H 3917.94 0.261898 0.610168 0
M  V30 39839 H 3920.47 1.34208 1.54433 0
M  V30 39840 H 3920.48 0.97158 3.96263 0
M  V30 39841 H 3919.16 2.06812 3.60835 0
M  V30 39842 H 3917.74 0.240139 3.72126 0
M  V30 39843 N 3919.92 -1.37119 0.776919 0
M  V30 39844 C 3920.87 -2.3021 0.164879 0
M  V30 39845 C 3921.84 -1.51358 -0.68411 0
M  V30 39846 O 3923.02 -1.79909 -0.635396 0
M  V30 39847 C 3920.16 -3.37839 -0.704204 0
M  V30 39848 C 3919.28 -4.31696 0.161957 0
M  V30 39849 C 3918.41 -5.26402 -0.712318 0
M  V30 39850 C 3917.45 -6.11901 0.156061 0
M  V30 39851 N 3916.59 -6.98833 -0.676484 0
M  V30 39852 H 3921.43 -2.81969 0.964235 0
M  V30 39853 H 3918.96 -1.38801 0.487089 0
M  V30 39854 H 3920.92 -3.98873 -1.22295 0
M  V30 39855 H 3919.55 -2.87432 -1.46911 0
M  V30 39856 H 3918.6 -3.71924 0.798557 0
M  V30 39857 H 3919.92 -4.91819 0.831582 0
M  V30 39858 H 3919.07 -5.92667 -1.29735 0
M  V30 39859 H 3917.81 -4.66703 -1.41561 0
M  V30 39860 H 3916.81 -5.44611 0.753588 0
M  V30 39861 H 3918.04 -6.73674 0.856764 0
M  V30 39862 H 3915.99 -6.41656 -1.3643 0
M  V30 39863 H 3915.9 -7.55973 -0.0642688 0
M  V30 39864 H 3917.17 -7.69481 -1.24574 0
M  V30 39865 N 3921.4 -0.527886 -1.48496 0
M  V30 39866 C 3922.81 -0.0868869 -1.86498 0
M  V30 39867 C 3923.16 1.33514 -1.43765 0
M  V30 39868 O 3922.29 1.99956 -0.827432 0
M  V30 39869 C 3922.88 -0.150903 -3.38464 0
M  V30 39870 C 3921.44 0.23489 -3.75666 0
M  V30 39871 C 3920.59 -0.511597 -2.7254 0
M  V30 39872 H 3923.54 -0.739248 -1.40431 0
M  V30 39873 H 3923.56 0.637906 -3.75115 0
M  V30 39874 H 3923.07 -1.18598 -3.69535 0
M  V30 39875 H 3921.17 1.27219 -3.50209 0
M  V30 39876 H 3921.29 -0.103262 -4.78989 0
M  V30 39877 H 3919.65 0.0418834 -2.54666 0
M  V30 39878 H 3920.43 -1.54727 -3.06455 0
M  V30 39879 N 3922.88 1.55391 -0.26292 0
M  V30 39880 C 3924.11 2.03726 0.361021 0
M  V30 39881 C 3924.52 1.1417 1.50368 0
M  V30 39882 O 3923.88 0.159316 1.81803 0
M  V30 39883 C 3923.93 3.51277 0.853636 0
M  V30 39884 O 3923.65 4.37423 -0.243508 0
M  V30 39885 C 3925.15 4.15444 1.54664 0
M  V30 39886 H 3922.37 0.665732 0.0839155 0
M  V30 39887 H 3924.91 2.00718 -0.391459 0
M  V30 39888 H 3923.07 3.54767 1.55624 0
M  V30 39889 H 3923.48 5.24331 0.133149 0
M  V30 39890 H 3924.96 5.20329 1.84287 0
M  V30 39891 H 3925.43 3.62887 2.47407 0
M  V30 39892 H 3926.04 4.15922 0.888196 0
M  V30 39893 N 3924.36 -0.00997961 1.57597 0
M  V30 39894 C 3925.29 -1.00371 2.10827 0
M  V30 39895 C 3926.27 -1.36491 1.0151 0
M  V30 39896 O 3927.45 -1.45041 1.29139 0
M  V30 39897 C 3924.58 -2.29873 2.60338 0
M  V30 39898 C 3923.54 -2.07943 3.74091 0
M  V30 39899 C 3922.86 -3.43371 4.09879 0
M  V30 39900 C 3924.16 -1.45009 5.01767 0
M  V30 39901 H 3925.86 -0.560539 2.94106 0
M  V30 39902 H 3923.4 -0.268183 1.41481 0
M  V30 39903 H 3925.35 -2.99738 2.96201 0
M  V30 39904 H 3924.08 -2.76285 1.74167 0
M  V30 39905 H 3922.74 -1.40506 3.38605 0
M  V30 39906 H 3922.39 -3.87468 3.20746 0
M  V30 39907 H 3922.09 -3.29517 4.86511 0
M  V30 39908 H 3923.61 -4.14567 4.48293 0
M  V30 39909 H 3925.02 -2.04817 5.35465 0
M  V30 39910 H 3923.42 -1.41673 5.83137 0
M  V30 39911 H 3924.49 -0.418105 4.83094 0
M  V30 39912 N 3925.83 -1.55046 -0.282578 0
M  V30 39913 C 3927.24 -1.66007 -0.854309 0
M  V30 39914 C 3927.6 -0.580786 -1.87407 0
M  V30 39915 O 3926.72 0.279412 -2.14589 0
M  V30 39916 C 3927.32 -3.00939 -1.55632 0
M  V30 39917 C 3925.87 -3.1396 -2.07621 0
M  V30 39918 C 3925.02 -2.61768 -0.915018 0
M  V30 39919 H 3927.97 -1.5859 -0.0591432 0
M  V30 39920 H 3927.99 -2.93392 -2.42283 0
M  V30 39921 H 3927.51 -3.7947 -0.813875 0
M  V30 39922 H 3925.61 -2.40184 -2.84855 0
M  V30 39923 H 3925.72 -4.20386 -2.29809 0
M  V30 39924 H 3924.08 -2.18684 -1.30574 0
M  V30 39925 H 3924.87 -3.42794 -0.186238 0
M  V30 39926 N 3927.31 0.546649 -1.47816 0
M  V30 39927 C 3928.24 1.66232 -1.63979 0
M  V30 39928 C 3929.22 1.6292 -0.488974 0
M  V30 39929 O 3930.41 1.80377 -0.719564 0
M  V30 39930 C 3927.54 3.04855 -1.66375 0
M  V30 39931 C 3926.49 3.23018 -2.80791 0
M  V30 39932 C 3925.82 4.62534 -2.68265 0
M  V30 39933 C 3927.12 3.07381 -4.22273 0
M  V30 39934 H 3928.81 1.5296 -2.57378 0
M  V30 39935 H 3926.36 0.734443 -1.23863 0
M  V30 39936 H 3928.31 3.82761 -1.76273 0
M  V30 39937 H 3927.03 3.1911 -0.695442 0
M  V30 39938 H 3925.69 2.47524 -2.70421 0
M  V30 39939 H 3925.34 4.73603 -1.69439 0
M  V30 39940 H 3925.04 4.75634 -3.4503 0
M  V30 39941 H 3926.57 5.42561 -2.80107 0
M  V30 39942 H 3927.98 3.75094 -4.33563 0
M  V30 39943 H 3926.38 3.31985 -4.99906 0
M  V30 39944 H 3927.45 2.03999 -4.39901 0
M  V30 39945 N 3928.79 1.36124 0.794222 0
M  V30 39946 C 3930.04 1.3028 1.55419 0
M  V30 39947 C 3930.37 -0.1191 1.93834 0
M  V30 39948 O 3929.64 -1.07138 1.62332 0
M  V30 39949 C 3929.93 2.22099 2.8345 0
M  V30 39950 C 3929.78 3.72964 2.51432 0
M  V30 39951 C 3931.1 2.12782 3.85242 0
M  V30 39952 H 3928.22 0.474582 0.563863 0
M  V30 39953 H 3930.86 1.66635 0.912848 0
M  V30 39954 H 3929.01 1.91226 3.38179 0
M  V30 39955 H 3930.68 4.14335 2.02792 0
M  V30 39956 H 3928.92 3.92636 1.84444 0
M  V30 39957 H 3929.6 4.32614 3.42855 0
M  V30 39958 H 3932.07 2.39948 3.39948 0
M  V30 39959 H 3930.95 2.79206 4.72584 0
M  V30 39960 H 3931.21 1.11361 4.27845 0
M  V30 39961 N 3930.27 -1.01782 1.20325 0
M  V30 39962 C 3931.52 -1.74769 1.00691 0
M  V30 39963 C 3931.83 -1.90072 -0.461736 0
M  V30 39964 O 3933.04 -2.60139 -0.777168 0
M  V30 39965 C 3931.49 -3.14331 1.75283 0
M  V30 39966 C 3931.1 -3.07044 3.26233 0
M  V30 39967 C 3932.84 -3.91536 1.64013 0
M  V30 39968 C 3930.75 -4.41606 3.93367 0
M  V30 39969 H 3929.68 -0.6552 0.373135 0
M  V30 39970 H 3932.33 -1.13822 1.43933 0
M  V30 39971 H 3930.71 -3.75811 1.24827 0
M  V30 39972 H 3931.89 -2.54879 3.83893 0
M  V30 39973 H 3930.2 -2.43333 3.37902 0
M  V30 39974 H 3932.8 -4.91087 2.11512 0
M  V30 39975 H 3933.14 -4.1201 0.596123 0
M  V30 39976 H 3933.68 -3.36681 2.11875 0
M  V30 39977 H 3930.41 -4.26335 4.97914 0
M  V30 39978 H 3929.93 -4.93783 3.40497 0
M  V30 39979 H 3931.61 -5.10454 3.9755 0
M  V30 39980 N 3931.75 -1.00894 -1.21071 0
M  V30 39981 C 3933.16 -0.726607 -1.71981 0
M  V30 39982 C 3933.51 0.755454 -1.81073 0
M  V30 39983 O 3932.63 1.58993 -1.46799 0
M  V30 39984 C 3933.23 -1.31231 -3.12352 0
M  V30 39985 C 3931.79 -1.07901 -3.60603 0
M  V30 39986 C 3930.93 -1.42271 -2.38021 0
M  V30 39987 H 3933.88 -1.17936 -1.06192 0
M  V30 39988 H 3933.91 -0.698965 -3.74025 0
M  V30 39989 H 3933.42 -2.39097 -3.05703 0
M  V30 39990 H 3931.52 -0.0176823 -3.72596 0
M  V30 39991 H 3931.63 -1.75368 -4.45851 0
M  V30 39992 H 3930 -0.841573 -2.40395 0
M  V30 39993 H 3930.78 -2.51177 -2.34019 0
M  V30 39994 N 3933.22 1.36705 -0.78418 0
M  V30 39995 C 3934.45 2.03343 -0.365407 0
M  V30 39996 C 3934.86 1.59267 1.0213 0
M  V30 39997 O 3934.21 0.775128 1.66546 0
M  V30 39998 C 3934.27 3.57852 -0.343882 0
M  V30 39999 C 3933.93 4.25108 -1.67728 0
M  V30 40000 C 3934.93 4.48362 -2.63186 0
M  V30 40001 C 3932.61 4.62688 -1.95513 0
M  V30 40002 C 3934.61 5.0827 -3.8463 0
M  V30 40003 C 3932.29 5.22314 -3.17224 0
M  V30 40004 C 3933.29 5.45044 -4.11601 0
M  V30 40005 O 3932.98 6.0342 -5.31168 0
M  V30 40006 H 3932.71 0.659291 -0.149371 0
M  V30 40007 H 3935.27 1.75771 -1.06273 0
M  V30 40008 H 3933.5 3.84521 0.409896 0
M  V30 40009 H 3935.19 4.0587 0.0495104 0
M  V30 40010 H 3935.95 4.1973 -2.43005 0
M  V30 40011 H 3931.83 4.44323 -1.22875 0
M  V30 40012 H 3935.37 5.25928 -4.58307 0
M  V30 40013 H 3931.27 5.50371 -3.37286 0
M  V30 40014 H 3932.04 6.2189 -5.3216 0
M  V30 40015 N 3934.7 0.535753 1.48214 0
M  V30 40016 C 3935.93 0.00592817 2.07399 0
M  V30 40017 C 3936.35 -1.26853 1.38888 0
M  V30 40018 O 3935.71 -1.75453 0.456715 0
M  V30 40019 C 3935.76 -0.195139 3.60072 0
M  V30 40020 O 3934.86 -1.26254 3.92598 0
M  V30 40021 H 3934.2 0.0417105 0.662689 0
M  V30 40022 H 3936.73 0.745315 1.90542 0
M  V30 40023 H 3936.74 -0.416014 4.05874 0
M  V30 40024 H 3935.42 0.735819 4.09339 0
M  V30 40025 H 3934 -1.02387 3.58568 0
M  V30 40026 N 3936.18 -1.5525 0.271158 0
M  V30 40027 C 3937.11 -2.19755 -0.651196 0
M  V30 40028 C 3938.13 -1.18106 -1.12048 0
M  V30 40029 O 3939.31 -1.44852 -1.04307 0
M  V30 40030 C 3936.41 -2.80643 -1.8998 0
M  V30 40031 C 3935.59 -4.07944 -1.57798 0
M  V30 40032 C 3934.65 -4.52919 -2.67864 0
M  V30 40033 O 3933.67 -5.18778 -2.34219 0
M  V30 40034 N 3934.87 -4.22728 -3.97846 0
M  V30 40035 H 3937.64 -2.99536 -0.0991387 0
M  V30 40036 H 3935.2 -1.61638 0.0920951 0
M  V30 40037 H 3937.19 -3.07677 -2.62901 0
M  V30 40038 H 3935.76 -2.04878 -2.36101 0
M  V30 40039 H 3934.98 -3.88242 -0.682783 0
M  V30 40040 H 3936.27 -4.90894 -1.33792 0
M  V30 40041 H 3935.67 -3.69904 -4.28004 0
M  V30 40042 H 3934.23 -4.54541 -4.67157 0
M  V30 40043 N 3937.66 0.00162173 -1.576 0
M  V30 40044 C 3938.9 0.687826 -1.90779 0
M  V30 40045 C 3939.24 1.73513 -0.872169 0
M  V30 40046 O 3938.51 1.94193 0.109315 0
M  V30 40047 C 3938.8 1.33244 -3.34542 0
M  V30 40048 C 3938.65 0.296783 -4.4882 0
M  V30 40049 C 3939.97 2.25905 -3.77697 0
M  V30 40050 H 3937.09 0.248577 -0.693814 0
M  V30 40051 H 3939.73 -0.0493393 -1.89936 0
M  V30 40052 H 3937.88 1.96074 -3.35391 0
M  V30 40053 H 3939.55 -0.331716 -4.60106 0
M  V30 40054 H 3937.79 -0.381126 -4.32123 0
M  V30 40055 H 3938.46 0.786831 -5.46363 0
M  V30 40056 H 3940.94 1.73093 -3.78389 0
M  V30 40057 H 3939.82 2.67974 -4.79042 0
M  V30 40058 H 3940.08 3.13745 -3.11475 0
M  V30 40059 N 3939.14 1.55194 0.274352 0
M  V30 40060 C 3940.38 1.7692 1.00354 0
M  V30 40061 C 3940.74 0.56274 1.83986 0
M  V30 40062 O 3940.03 -0.444592 1.8637 0
M  V30 40063 C 3940.22 3.01478 1.91953 0
M  V30 40064 C 3940.05 4.34123 1.17335 0
M  V30 40065 C 3938.82 4.97408 0.889582 0
M  V30 40066 C 3941.02 5.11193 0.56445 0
M  V30 40067 N 3939 6.1379 0.116466 0
M  V30 40068 C 3940.37 6.19955 -0.0745675 0
M  V30 40069 C 3942.43 4.95656 0.472158 0
M  V30 40070 C 3941.13 7.14871 -0.79698 0
M  V30 40071 C 3943.16 5.90926 -0.236658 0
M  V30 40072 C 3942.52 6.99076 -0.86442 0
M  V30 40073 H 3938.62 0.699678 0.349249 0
M  V30 40074 H 3941.2 1.92686 0.279347 0
M  V30 40075 H 3939.37 2.8709 2.61599 0
M  V30 40076 H 3941.11 3.11614 2.58222 0
M  V30 40077 H 3937.86 4.58289 1.19451 0
M  V30 40078 H 3938.29 6.76511 -0.257383 0
M  V30 40079 H 3942.93 4.12146 0.943181 0
M  V30 40080 H 3940.65 7.97903 -1.27969 0
M  V30 40081 H 3944.23 5.80982 -0.308368 0
M  V30 40082 H 3943.11 7.71526 -1.40416 0
M  V30 40083 N 3940.61 -0.538802 1.48104 0
M  V30 40084 C 3941.86 -1.29153 1.54927 0
M  V30 40085 C 3942.18 -1.94311 0.224211 0
M  V30 40086 O 3943.38 -2.70963 0.170607 0
M  V30 40087 C 3941.84 -2.34299 2.73188 0
M  V30 40088 C 3941.45 -1.7525 4.123 0
M  V30 40089 C 3943.19 -3.10637 2.89318 0
M  V30 40090 C 3941.1 -2.78285 5.21835 0
M  V30 40091 H 3940.03 -0.485692 0.576732 0
M  V30 40092 H 3942.68 -0.570112 1.74419 0
M  V30 40093 H 3941.06 -3.09437 2.47113 0
M  V30 40094 H 3942.23 -1.0636 4.48357 0
M  V30 40095 H 3940.55 -1.11435 4.01212 0
M  V30 40096 H 3943.15 -3.87614 3.6832 0
M  V30 40097 H 3943.49 -3.65959 1.98444 0
M  V30 40098 H 3944.02 -2.42613 3.15252 0
M  V30 40099 H 3940.76 -2.27794 6.14646 0
M  V30 40100 H 3940.28 -3.45529 4.90275 0
M  V30 40101 H 3941.96 -3.41436 5.49573 0
M  V30 40102 N 3942.09 -1.36544 -0.786992 0
M  V30 40103 C 3943.04 -1.27595 -1.88954 0
M  V30 40104 C 3944.03 -0.166933 -1.60032 0
M  V30 40105 O 3945.22 -0.399963 -1.72422 0
M  V30 40106 C 3942.35 -1.06992 -3.26202 0
M  V30 40107 C 3941.43 -2.22371 -3.61126 0
M  V30 40108 N 3941.82 -3.47699 -3.6734 0
M  V30 40109 C 3940.12 -2.1419 -3.91201 0
M  V30 40110 C 3940.82 -4.23691 -3.98573 0
M  V30 40111 N 3939.8 -3.52659 -4.13682 0
M  V30 40112 H 3943.6 -2.22526 -1.91988 0
M  V30 40113 H 3941.12 -1.29298 -0.982642 0
M  V30 40114 H 3943.11 -0.986674 -4.05056 0
M  V30 40115 H 3941.77 -0.129639 -3.24441 0
M  V30 40116 H 3942.78 -3.81803 -3.49924 0
M  V30 40117 H 3939.46 -1.28132 -3.97352 0
M  V30 40118 H 3940.85 -5.32087 -4.10285 0
M  V30 40119 N 3943.57 1.01143 -1.20863 0
M  V30 40120 C 3944.82 1.74821 -1.02194 0
M  V30 40121 C 3945.15 1.89333 0.445324 0
M  V30 40122 O 3944.4 1.41984 1.34681 0
M  V30 40123 C 3944.7 3.16682 -1.65671 0
M  V30 40124 C 3944.37 3.22135 -3.155 0
M  V30 40125 C 3943.03 3.2333 -3.56386 0
M  V30 40126 C 3945.38 3.19887 -4.11487 0
M  V30 40127 C 3942.71 3.19955 -4.91778 0
M  V30 40128 C 3945.06 3.18054 -5.46831 0
M  V30 40129 C 3943.72 3.17556 -5.87124 0
M  V30 40130 H 3942.99 0.639717 -0.373956 0
M  V30 40131 H 3945.64 1.18589 -1.50363 0
M  V30 40132 H 3943.95 3.76106 -1.09779 0
M  V30 40133 H 3945.64 3.72396 -1.48736 0
M  V30 40134 H 3942.23 3.21943 -2.82932 0
M  V30 40135 H 3946.42 3.1813 -3.80929 0
M  V30 40136 H 3941.67 3.17903 -5.22252 0
M  V30 40137 H 3945.85 3.15268 -6.2095 0
M  V30 40138 H 3943.47 3.14695 -6.92005 0
M  V30 40139 N 3945.05 1.01535 1.20534 0
M  V30 40140 C 3946.29 0.705006 1.90151 0
M  V30 40141 C 3946.63 -0.763312 1.7857 0
M  V30 40142 O 3945.9 -1.55443 1.16909 0
M  V30 40143 C 3946.19 1.13976 3.41587 0
M  V30 40144 C 3946.04 2.66829 3.62108 0
M  V30 40145 C 3947.36 0.71006 4.34334 0
M  V30 40146 H 3944.48 0.257589 0.690519 0
M  V30 40147 H 3947.12 1.26287 1.41956 0
M  V30 40148 H 3945.27 0.665117 3.82764 0
M  V30 40149 H 3946.94 3.22135 3.30192 0
M  V30 40150 H 3945.18 3.07861 3.05621 0
M  V30 40151 H 3945.85 2.92302 4.68256 0
M  V30 40152 H 3948.33 1.11808 4.00797 0
M  V30 40153 H 3947.21 1.0423 5.38913 0
M  V30 40154 H 3947.47 -0.388331 4.40391 0
M  V30 40155 N 3946.53 -1.36288 0.791419 0
M  V30 40156 C 3947.75 -2.03441 0.376731 0
M  V30 40157 C 3948.17 -1.59671 -1.00751 0
M  V30 40158 O 3947.53 -0.78707 -1.64656 0
M  V30 40159 C 3947.58 -3.58896 0.433137 0
M  V30 40160 O 3947.3 -4.0107 1.76279 0
M  V30 40161 C 3948.8 -4.43299 0.00933267 0
M  V30 40162 H 3946.02 -0.652852 0.155001 0
M  V30 40163 H 3948.56 -1.74223 1.07082 0
M  V30 40164 H 3946.72 -3.86816 -0.212555 0
M  V30 40165 H 3947.13 -4.95669 1.71501 0
M  V30 40166 H 3948.61 -5.5191 0.0999356 0
M  V30 40167 H 3949.08 -4.26623 -1.04354 0
M  V30 40168 H 3949.69 -4.20644 0.627591 0
M  V30 40169 N 3948.01 -0.543606 -1.47928 0
M  V30 40170 C 3948.95 0.224894 -2.3151 0
M  V30 40171 C 3949.95 0.922448 -1.42082 0
M  V30 40172 O 3951.15 0.845281 -1.58918 0
M  V30 40173 H 3947.53 0.091396 -0.746425 0
M  V30 40174 H 3949.5 -0.499433 -2.94191 0
M  V30 40175 C 3948.25 1.25033 -3.24441 0
M  V30 40176 H 3947.57 0.72299 -3.93208 0
M  V30 40177 H 3949.01 1.7592 -3.85783 0
M  V30 40178 C 3947.47 2.29111 -2.47002 0
M  V30 40179 O 3948 3.35796 -2.20463 0
M  V30 40180 N 3946.21 2.0268 -2.08253 0
M  V30 40181 H 3945.75 1.15937 -2.30036 0
M  V30 40182 H 3945.71 2.72536 -1.56753 0
M  V30 40183 N 3949.48 1.55104 -0.279387 0
M  V30 40184 C 3950.39 2.26363 0.61621 0
M  V30 40185 C 3951.41 1.29104 1.16654 0
M  V30 40186 O 3952.59 1.62048 1.19593 0
M  V30 40187 C 3949.65 2.97406 1.78186 0
M  V30 40188 C 3948.71 4.10154 1.26777 0
M  V30 40189 C 3947.94 4.778 2.37787 0
M  V30 40190 O 3948.17 4.44679 3.57234 0
M  V30 40191 O 3947.1 5.65659 2.05701 0
M  V30 40192 H 3950.93 3.03675 0.0388181 0
M  V30 40193 H 3948.51 1.49327 -0.046632 0
M  V30 40194 H 3950.39 3.4204 2.46144 0
M  V30 40195 H 3949.07 2.23007 2.34626 0
M  V30 40196 H 3947.98 3.69967 0.554543 0
M  V30 40197 H 3949.31 4.86467 0.749071 0
M  V30 40198 N 3950.96 0.0067362 1.57599 0
M  V30 40199 C 3952.38 -0.349425 1.55728 0
M  V30 40200 C 3952.58 -1.74356 1.01007 0
M  V30 40201 O 3951.63 -2.44074 0.64686 0
M  V30 40202 C 3952.95 -0.218494 2.99905 0
M  V30 40203 C 3954.49 -0.292932 3.11626 0
M  V30 40204 C 3954.97 -0.191048 4.57601 0
M  V30 40205 N 3956.46 -0.248738 4.62532 0
M  V30 40206 C 3957.2 -0.193347 5.73074 0
M  V30 40207 N 3956.69 -0.0881616 6.92744 0
M  V30 40208 N 3958.48 -0.245704 5.61563 0
M  V30 40209 H 3950.64 0.91865 1.91506 0
M  V30 40210 H 3952.9 0.352754 0.879925 0
M  V30 40211 H 3952.6 0.740974 3.43806 0
M  V30 40212 H 3952.48 -0.997841 3.63762 0
M  V30 40213 H 3954.87 -1.24285 2.67651 0
M  V30 40214 H 3954.95 0.516402 2.50533 0
M  V30 40215 H 3954.59 0.755351 5.02252 0
M  V30 40216 H 3954.52 -1.01896 5.16648 0
M  V30 40217 H 3957.01 -0.331091 3.76447 0
M  V30 40218 H 3957.32 -0.0519762 7.72783 0
M  V30 40219 H 3955.67 -0.0536934 6.94979 0
M  V30 40220 H 3958.86 -0.326122 4.66963 0
M  V30 40221 H 3959.03 -0.199072 6.47694 0
M  V30 40222 N 3952.44 -1.55337 -0.266118 0
M  V30 40223 C 3953.69 -1.76528 -0.998277 0
M  V30 40224 C 3954.02 -0.568568 -1.8569 0
M  V30 40225 O 3953.29 0.433701 -1.89603 0
M  V30 40226 C 3953.58 -3.07432 -1.87504 0
M  V30 40227 C 3953.43 -4.37472 -1.04588 0
M  V30 40228 C 3954.75 -3.34423 -2.86093 0
M  V30 40229 H 3951.87 -0.64225 -0.361502 0
M  V30 40230 H 3954.51 -1.8807 -0.270153 0
M  V30 40231 H 3952.66 -2.97724 -2.49585 0
M  V30 40232 H 3954.33 -4.59146 -0.445242 0
M  V30 40233 H 3952.57 -4.32389 -0.349565 0
M  V30 40234 H 3953.25 -5.25406 -1.6927 0
M  V30 40235 H 3955.72 -3.43969 -2.34147 0
M  V30 40236 H 3954.6 -4.27269 -3.44576 0
M  V30 40237 H 3954.86 -2.54397 -3.61573 0
M  V30 40238 N 3953.92 0.53094 -1.48387 0
M  V30 40239 C 3954.83 1.66254 -1.65519 0
M  V30 40240 C 3955.84 1.65483 -0.537729 0
M  V30 40241 O 3957.02 1.84452 -0.808675 0
M  V30 40242 C 3954.08 3.02719 -1.69004 0
M  V30 40243 C 3953.15 3.14353 -2.92371 0
M  V30 40244 C 3952.38 4.44308 -2.9568 0
M  V30 40245 O 3952.6 5.31348 -2.07426 0
M  V30 40246 O 3951.54 4.60287 -3.87839 0
M  V30 40247 H 3955.36 1.54738 -2.61323 0
M  V30 40248 H 3952.95 0.703923 -1.31777 0
M  V30 40249 H 3954.83 3.8388 -1.73822 0
M  V30 40250 H 3953.5 3.14561 -0.76373 0
M  V30 40251 H 3952.41 2.32491 -2.93085 0
M  V30 40252 H 3953.74 3.07426 -3.84383 0
M  V30 40253 N 3955.4 1.36959 0.779739 0
M  V30 40254 C 3956.35 1.28595 1.88274 0
M  V30 40255 C 3957.33 0.175417 1.59941 0
M  V30 40256 O 3958.52 0.409101 1.72207 0
M  V30 40257 C 3955.65 1.0872 3.2563 0
M  V30 40258 C 3954.74 2.24283 3.59941 0
M  V30 40259 N 3955.13 3.49642 3.65491 0
M  V30 40260 C 3953.43 2.16262 3.9006 0
M  V30 40261 C 3954.13 4.25799 3.96321 0
M  V30 40262 N 3953.1 3.54848 4.11806 0
M  V30 40263 H 3956.9 2.23541 1.90805 0
M  V30 40264 H 3954.42 1.29817 0.975771 0
M  V30 40265 H 3956.42 1.00814 4.04527 0
M  V30 40266 H 3955.08 0.146843 3.24368 0
M  V30 40267 H 3956.09 3.83653 3.47895 0
M  V30 40268 H 3952.76 1.30237 3.96667 0
M  V30 40269 H 3954.15 5.34255 4.07457 0
M  V30 40270 N 3956.87 -1.00501 1.21398 0
M  V30 40271 C 3958.12 -1.73691 1.02539 0
M  V30 40272 C 3958.44 -1.90551 -0.44155 0
M  V30 40273 O 3959.64 -2.60949 -0.749534 0
M  V30 40274 C 3958.1 -3.12454 1.78607 0
M  V30 40275 C 3957.71 -3.03567 3.29471 0
M  V30 40276 C 3959.45 -3.89774 1.68156 0
M  V30 40277 C 3957.36 -4.37409 3.98029 0
M  V30 40278 H 3956.29 -0.651205 0.380063 0
M  V30 40279 H 3958.94 -1.12289 1.45132 0
M  V30 40280 H 3957.32 -3.74466 1.28806 0
M  V30 40281 H 3958.49 -2.50793 3.86574 0
M  V30 40282 H 3956.81 -2.39735 3.40464 0
M  V30 40283 H 3959.41 -4.88816 2.16708 0
M  V30 40284 H 3959.75 -4.11354 0.639788 0
M  V30 40285 H 3960.28 -3.34414 2.15434 0
M  V30 40286 H 3957.02 -4.2103 5.02408 0
M  V30 40287 H 3956.54 -4.90144 3.45715 0
M  V30 40288 H 3958.22 -5.06209 4.02941 0
M  V30 40289 N 3958.35 -1.02172 -1.19994 0
M  V30 40290 C 3959.6 -0.712612 -1.8912 0
M  V30 40291 C 3959.92 0.760529 -1.79558 0
M  V30 40292 O 3959.19 1.54742 -1.20133 0
M  V30 40293 H 3957.77 -0.260597 -0.70007 0
M  V30 40294 H 3960.43 -1.29442 -1.45708 0
M  V30 40295 H 3959.53 -1.00056 -2.95627 0
M  V30 40296 N 3959.83 1.35866 -0.798635 0
M  V30 40297 C 3961.08 1.98992 -0.375295 0
M  V30 40298 C 3961.4 1.63372 1.05546 0
M  V30 40299 O 3960.66 0.884911 1.7455 0
M  V30 40300 C 3960.96 3.53933 -0.496634 0
M  V30 40301 C 3960.62 4.09399 -1.88954 0
M  V30 40302 C 3959.29 4.24259 -2.27063 0
M  V30 40303 C 3961.64 4.39526 -2.80118 0
M  V30 40304 C 3958.97 4.66562 -3.5572 0
M  V30 40305 C 3961.32 4.83265 -4.08213 0
M  V30 40306 C 3959.98 4.9633 -4.46332 0
M  V30 40307 H 3959.25 0.728163 -0.13733 0
M  V30 40308 H 3961.9 1.62208 -1.01788 0
M  V30 40309 H 3960.2 3.91128 0.22943 0
M  V30 40310 H 3961.9 4.00719 -0.149973 0
M  V30 40311 H 3958.49 3.98278 -1.58343 0
M  V30 40312 H 3962.68 4.27606 -2.51927 0
M  V30 40313 H 3957.93 4.74866 -3.85113 0
M  V30 40314 H 3962.11 5.05539 -4.78961 0
M  V30 40315 H 3959.73 5.28868 -5.4608 0
M  V30 40316 N 3961.31 0.551443 1.47638 0
M  V30 40317 C 3962.26 -0.219758 2.26938 0
M  V30 40318 C 3963.24 -0.890547 1.34008 0
M  V30 40319 O 3964.43 -0.789806 1.58402 0
M  V30 40320 C 3961.56 -1.25273 3.19627 0
M  V30 40321 C 3960.65 -0.58565 4.20037 0
M  V30 40322 N 3961.04 0.340979 5.04649 0
M  V30 40323 C 3959.34 -0.840275 4.38013 0
M  V30 40324 C 3960.04 0.727916 5.77128 0
M  V30 40325 N 3959.01 0.0840637 5.43535 0
M  V30 40326 H 3962.82 0.49278 2.89739 0
M  V30 40327 H 3960.33 0.370971 1.58106 0
M  V30 40328 H 3962.33 -1.81913 3.75118 0
M  V30 40329 H 3960.99 -1.96642 2.58383 0
M  V30 40330 H 3962 0.71482 5.12943 0
M  V30 40331 H 3958.68 -1.54291 3.87944 0
M  V30 40332 H 3960.07 1.489 6.55194 0
M  V30 40333 N 3962.79 -1.54953 0.287609 0
M  V30 40334 C 3963.75 -2.21703 -0.581426 0
M  V30 40335 C 3964.75 -1.1988 -1.0717 0
M  V30 40336 O 3965.94 -1.44703 -0.969874 0
M  V30 40337 C 3963.07 -2.89285 -1.80353 0
M  V30 40338 H 3964.26 -2.999 0.00156306 0
M  V30 40339 H 3961.82 -1.56253 0.0383228 0
M  V30 40340 H 3962.55 -2.15132 -2.4267 0
M  V30 40341 H 3962.34 -3.63914 -1.45976 0
M  V30 40342 H 3963.83 -3.40244 -2.42123 0
M  V30 40343 N 3964.26 -0.0150939 -1.57593 0
M  V30 40344 C 3965.21 0.971406 -2.09362 0
M  V30 40345 C 3966.18 1.33191 -0.99244 0
M  V30 40346 O 3967.37 1.42766 -1.2658 0
M  V30 40347 C 3964.51 2.2532 -2.6139 0
M  V30 40348 C 3963.62 1.95039 -3.85466 0
M  V30 40349 C 3962.75 3.1741 -4.25939 0
M  V30 40350 C 3961.79 2.82884 -5.4281 0
M  V30 40351 N 3960.93 3.97838 -5.78506 0
M  V30 40352 H 3965.77 0.523016 -2.93374 0
M  V30 40353 H 3963.31 0.24658 -1.45019 0
M  V30 40354 H 3965.27 3.00274 -2.8964 0
M  V30 40355 H 3963.9 2.67801 -1.8023 0
M  V30 40356 H 3962.95 1.10387 -3.64031 0
M  V30 40357 H 3964.26 1.65601 -4.70508 0
M  V30 40358 H 3963.41 4.00697 -4.55551 0
M  V30 40359 H 3962.15 3.49998 -3.39636 0
M  V30 40360 H 3961.16 1.98007 -5.12907 0
M  V30 40361 H 3962.38 2.51528 -6.30802 0
M  V30 40362 H 3960.33 4.30294 -4.95159 0
M  V30 40363 H 3960.25 3.71976 -6.58156 0
M  V30 40364 H 3961.51 4.8187 -6.12717 0
M  V30 40365 N 3965.74 1.55476 0.257876 0
M  V30 40366 C 3966.97 1.80574 1.00382 0
M  V30 40367 C 3967.38 0.586947 1.79865 0
M  V30 40368 O 3966.72 -0.453715 1.78009 0
M  V30 40369 C 3966.79 2.9885 1.99822 0
M  V30 40370 C 3966.45 4.35305 1.39136 0
M  V30 40371 C 3967.45 5.13718 0.799366 0
M  V30 40372 C 3965.13 4.81986 1.41402 0
M  V30 40373 C 3967.13 6.36955 0.238116 0
M  V30 40374 C 3964.81 6.05175 0.848912 0
M  V30 40375 C 3965.81 6.82497 0.261977 0
M  V30 40376 O 3965.5 8.03361 -0.294434 0
M  V30 40377 H 3965.23 0.60502 0.301541 0
M  V30 40378 H 3967.78 2.03351 0.2894 0
M  V30 40379 H 3966.01 2.71801 2.75065 0
M  V30 40380 H 3967.7 3.11137 2.60669 0
M  V30 40381 H 3968.47 4.78777 0.774446 0
M  V30 40382 H 3964.35 4.21801 1.86025 0
M  V30 40383 H 3967.89 6.97251 -0.220641 0
M  V30 40384 H 3963.79 6.39595 0.871122 0
M  V30 40385 H 3964.56 8.1829 -0.185242 0
M  V30 40386 N 3967.22 -0.523064 1.48667 0
M  V30 40387 C 3968.45 -1.30784 1.60967 0
M  V30 40388 C 3968.87 -1.86113 0.272696 0
M  V30 40389 O 3968.23 -1.64757 -0.756633 0
M  V30 40390 C 3968.28 -2.42964 2.6646 0
M  V30 40391 O 3967.38 -3.46198 2.241 0
M  V30 40392 H 3966.72 -0.387055 0.539523 0
M  V30 40393 H 3969.25 -0.628649 1.94703 0
M  V30 40394 H 3969.26 -2.89051 2.87948 0
M  V30 40395 H 3967.94 -2.02056 3.63519 0
M  V30 40396 H 3966.51 -3.06183 2.12853 0
M  V30 40397 N 3968.7 -1.37371 -0.772465 0
M  V30 40398 C 3969.95 -1.3254 -1.531 0
M  V30 40399 C 3970.27 0.0903267 -1.9429 0
M  V30 40400 O 3969.53 1.06339 -1.64288 0
M  V30 40401 C 3969.83 -2.20971 -2.80903 0
M  V30 40402 C 3969.49 -3.69255 -2.58769 0
M  V30 40403 C 3968.16 -4.09667 -2.52441 0
M  V30 40404 C 3970.51 -4.632 -2.38946 0
M  V30 40405 C 3967.84 -5.4214 -2.24279 0
M  V30 40406 C 3970.19 -5.9591 -2.12307 0
M  V30 40407 C 3968.85 -6.35427 -2.04423 0
M  V30 40408 H 3968.12 -0.484997 -0.560231 0
M  V30 40409 H 3970.77 -1.69571 -0.889829 0
M  V30 40410 H 3969.07 -1.76932 -3.49575 0
M  V30 40411 H 3970.77 -2.14547 -3.38778 0
M  V30 40412 H 3967.36 -3.37205 -2.64557 0
M  V30 40413 H 3971.54 -4.32839 -2.42825 0
M  V30 40414 H 3966.8 -5.71721 -2.16669 0
M  V30 40415 H 3970.97 -6.68259 -1.95967 0
M  V30 40416 H 3968.6 -7.38002 -1.82365 0
M  V30 40417 N 3970.18 0.998553 -1.21929 0
M  V30 40418 C 3971.4 1.7729 -1.06658 0
M  V30 40419 C 3971.82 1.8487 0.383227 0
M  V30 40420 O 3971.18 1.31475 1.26572 0
M  V30 40421 C 3971.23 3.20882 -1.66484 0
M  V30 40422 O 3970.95 3.13723 -3.05793 0
M  V30 40423 C 3972.45 4.14789 -1.56412 0
M  V30 40424 H 3969.67 0.556963 -0.374209 0
M  V30 40425 H 3972.21 1.25576 -1.61403 0
M  V30 40426 H 3970.37 3.69683 -1.15816 0
M  V30 40427 H 3970.78 4.03984 -3.3451 0
M  V30 40428 H 3972.26 5.13316 -2.03004 0
M  V30 40429 H 3972.73 4.36115 -0.519667 0
M  V30 40430 H 3973.34 3.71882 -2.06358 0
M  V30 40431 N 3971.65 1.02807 1.1945 0
M  V30 40432 C 3972.93 0.63874 1.84877 0
M  V30 40433 C 3973.31 -0.882593 1.91764 0
M  V30 40434 O 3972.66 -1.77898 1.43404 0
M  V30 40435 C 3972.87 1.29988 3.23889 0
M  V30 40436 C 3974.22 1.42261 4.00059 0
M  V30 40437 O 3975.24 1.25699 3.33284 0
M  V30 40438 O 3974.1 1.69136 5.19669 0
M  V30 40439 H 3971.19 0.221906 0.796672 0
M  V30 40440 H 3973.74 1.12617 1.26947 0
M  V30 40441 H 3972.51 2.33888 3.13707 0
M  V30 40442 H 3972.14 0.800254 3.89463 0
M  V30 40443 N 3973.13 -1.35441 0.805829 0
M  V30 40444 C 3974.37 -2.00616 0.391469 0
M  V30 40445 C 3974.74 -1.62541 -1.02197 0
M  V30 40446 O 3975.94 -2.20431 -1.5383 0
M  V30 40447 C 3974.21 -3.52851 0.568386 0
M  V30 40448 S 3975.77 -4.38119 0.244337 0
M  V30 40449 H 3972.59 -0.695274 0.14871 0
M  V30 40450 H 3975.19 -1.65043 1.04791 0
M  V30 40451 H 3973.89 -3.78049 1.59708 0
M  V30 40452 H 3973.42 -3.93264 -0.103406 0
M  V30 40453 H 3975.44 -4.87055 -0.948265 0
M  V30 40454 N 3974.61 -0.559265 -1.47343 0
M  V30 40455 C 3975.86 -0.0359075 -2.02068 0
M  V30 40456 C 3976.18 1.31951 -1.43576 0
M  V30 40457 O 3975.45 1.86105 -0.611705 0
M  V30 40458 H 3974.03 -0.0102845 -0.746929 0
M  V30 40459 H 3976.69 -0.729739 -1.80723 0
M  V30 40460 H 3975.79 0.0506574 -3.12059 0
M  V30 40461 N 3976.09 1.54799 -0.295822 0
M  V30 40462 C 3977.34 1.9964 0.314349 0
M  V30 40463 C 3977.66 1.18573 1.54808 0
M  V30 40464 O 3976.93 0.280387 1.93883 0
M  V30 40465 H 3975.51 0.737438 0.11914 0
M  V30 40466 H 3978.17 1.90625 -0.405954 0
M  V30 40467 H 3977.27 3.06473 0.589967 0
M  V30 40468 N 3977.57 0.0234513 1.57583 0
M  V30 40469 C 3978.82 -0.65573 1.90743 0
M  V30 40470 C 3979.13 -1.73616 0.900944 0
M  V30 40471 O 3980.34 -2.47159 1.1236 0
M  V30 40472 C 3978.79 -1.21757 3.38679 0
M  V30 40473 C 3978.4 -0.170733 4.47675 0
M  V30 40474 C 3980.14 -1.87359 3.80916 0
M  V30 40475 C 3978.05 -0.743893 5.86703 0
M  V30 40476 H 3976.98 -0.248689 0.711807 0
M  V30 40477 H 3979.63 0.0878277 1.8329 0
M  V30 40478 H 3978.01 -2.01256 3.41046 0
M  V30 40479 H 3979.19 0.601378 4.56859 0
M  V30 40480 H 3977.5 0.3862 4.14605 0
M  V30 40481 H 3980.1 -2.31188 4.82137 0
M  V30 40482 H 3980.44 -2.71396 3.15674 0
M  V30 40483 H 3980.98 -1.14559 3.80947 0
M  V30 40484 H 3977.71 0.0582128 6.55474 0
M  V30 40485 H 3977.23 -1.48462 5.81136 0
M  V30 40486 H 3978.91 -1.23538 6.35096 0
M  V30 40487 N 3979.05 -1.5561 -0.249627 0
M  V30 40488 C 3979.98 -1.86533 -1.33185 0
M  V30 40489 C 3980.99 -0.751392 -1.44423 0
M  V30 40490 O 3982.18 -1.02948 -1.45822 0
M  V30 40491 C 3979.28 -2.03403 -2.71073 0
M  V30 40492 C 3978.45 -3.34242 -2.82136 0
M  V30 40493 C 3977.51 -3.40889 -4.00851 0
M  V30 40494 O 3976.54 -4.14117 -3.90507 0
M  V30 40495 N 3977.74 -2.69983 -5.13896 0
M  V30 40496 H 3980.5 -2.7995 -1.06995 0
M  V30 40497 H 3978.07 -1.55814 -0.439732 0
M  V30 40498 H 3980.06 -2.05194 -3.48823 0
M  V30 40499 H 3978.63 -1.16743 -2.89983 0
M  V30 40500 H 3977.85 -3.44791 -1.91083 0
M  V30 40501 H 3979.14 -4.20486 -2.86476 0
M  V30 40502 H 3978.53 -2.10215 -5.25192 0
M  V30 40503 H 3977.09 -2.7747 -5.89791 0
M  V30 40504 N 3980.52 0.515172 -1.48942 0
M  V30 40505 C 3981.77 1.26672 -1.56962 0
M  V30 40506 C 3982.09 1.93929 -0.255096 0
M  V30 40507 O 3983.29 2.70658 -0.213693 0
M  V30 40508 C 3981.75 2.29923 -2.76881 0
M  V30 40509 C 3981.36 1.68668 -4.15036 0
M  V30 40510 C 3983.1 3.05995 -2.94224 0
M  V30 40511 C 3981.01 2.69947 -5.26196 0
M  V30 40512 H 3979.94 0.476455 -0.584386 0
M  V30 40513 H 3982.59 0.542291 -1.75304 0
M  V30 40514 H 3980.97 3.05466 -2.52005 0
M  V30 40515 H 3982.14 0.992136 -4.49993 0
M  V30 40516 H 3980.46 1.05038 -4.02934 0
M  V30 40517 H 3983.06 3.81705 -3.7444 0
M  V30 40518 H 3983.4 3.62755 -2.04241 0
M  V30 40519 H 3983.93 2.37566 -3.19072 0
M  V30 40520 H 3980.67 2.17987 -6.18193 0
M  V30 40521 H 3980.19 3.37685 -4.9571 0
M  V30 40522 H 3981.87 3.3265 -5.54935 0
M  V30 40523 N 3982 1.37779 0.765169 0
M  V30 40524 C 3983.25 1.33086 1.52094 0
M  V30 40525 C 3983.57 -0.0821758 1.94827 0
M  V30 40526 O 3982.84 -1.02754 1.66789 0
M  V30 40527 H 3981.42 0.489659 0.56413 0
M  V30 40528 H 3984.08 1.72337 0.910278 0
M  V30 40529 H 3983.18 1.9742 2.41727 0
M  V30 40530 N 3983.48 -0.992073 1.22457 0
M  V30 40531 C 3984.76 -1.70527 0.958121 0
M  V30 40532 C 3985.14 -2.04427 -0.526559 0
M  V30 40533 O 3984.48 -1.72823 -1.4948 0
M  V30 40534 C 3984.69 -2.95525 1.85651 0
M  V30 40535 C 3986.04 -3.68285 2.11308 0
M  V30 40536 O 3987.07 -3.05534 1.83105 0
M  V30 40537 O 3985.93 -4.81188 2.59077 0
M  V30 40538 H 3983.02 -0.744345 0.360388 0
M  V30 40539 H 3985.57 -1.04834 1.33446 0
M  V30 40540 H 3984.34 -2.66981 2.86071 0
M  V30 40541 H 3983.96 -3.68956 1.4818 0
M  V30 40542 N 3984.96 -1.03439 -1.18904 0
M  V30 40543 C 3986.18 -0.753776 -1.93217 0
M  V30 40544 C 3986.61 0.682024 -1.753 0
M  V30 40545 O 3985.97 1.4716 -1.05895 0
M  V30 40546 C 3986.01 -1.11706 -3.42862 0
M  V30 40547 O 3985.12 -0.238888 -4.11708 0
M  V30 40548 H 3984.46 -0.277984 -0.60301 0
M  V30 40549 H 3986.99 -1.38255 -1.5082 0
M  V30 40550 H 3987 -1.0763 -3.93548 0
M  V30 40551 H 3985.67 -2.16306 -3.55224 0
M  V30 40552 H 3984.25 -0.338718 -3.71358 0
M  V30 40553 N 3986.44 1.35011 -0.813001 0
M  V30 40554 C 3987.68 1.9819 -0.395597 0
M  V30 40555 C 3988 1.64801 1.04239 0
M  V30 40556 O 3987.27 0.933708 1.72217 0
M  V30 40557 H 3985.85 0.733128 -0.143289 0
M  V30 40558 H 3988.52 1.64817 -1.04026 0
M  V30 40559 H 3987.61 3.07962 -0.50652 0
M  V30 40560 N 3987.91 0.567071 1.47044 0
M  V30 40561 C 3989.16 0.0467847 2.02746 0
M  V30 40562 C 3989.49 -1.30362 1.43943 0
M  V30 40563 O 3988.77 -1.85058 0.598648 0
M  V30 40564 C 3989.05 -0.0357523 3.60082 0
M  V30 40565 C 3988.9 1.34244 4.293 0
M  V30 40566 C 3990.22 -0.744262 4.33761 0
M  V30 40567 H 3987.34 0.0184757 0.736768 0
M  V30 40568 H 3989.98 0.731261 1.75364 0
M  V30 40569 H 3988.13 -0.618677 3.83542 0
M  V30 40570 H 3989.81 1.96933 4.17151 0
M  V30 40571 H 3988.05 1.91445 3.8927 0
M  V30 40572 H 3988.72 1.23731 5.37954 0
M  V30 40573 H 3991.2 -0.249214 4.15353 0
M  V30 40574 H 3990.07 -0.770999 5.43458 0
M  V30 40575 H 3990.33 -1.80242 4.03689 0
M  V30 40576 N 3989.39 -1.5464 0.304027 0
M  V30 40577 C 3990.64 -1.99378 -0.30515 0
M  V30 40578 C 3990.95 -1.19605 -1.54771 0
M  V30 40579 O 3992.16 -1.54625 -2.23167 0
M  V30 40580 C 3990.62 -3.5496 -0.594241 0
M  V30 40581 C 3990.22 -4.43546 0.630156 0
M  V30 40582 C 3991.97 -4.08217 -1.16445 0
M  V30 40583 C 3989.87 -5.90566 0.31405 0
M  V30 40584 H 3988.8 -0.744741 -0.117797 0
M  V30 40585 H 3991.46 -1.78787 0.413205 0
M  V30 40586 H 3989.84 -3.71463 -1.37227 0
M  V30 40587 H 3991.01 -4.38817 1.40627 0
M  V30 40588 H 3989.33 -4.01077 1.11921 0
M  V30 40589 H 3991.92 -5.15631 -1.41524 0
M  V30 40590 H 3992.27 -3.59003 -2.10767 0
M  V30 40591 H 3992.8 -3.95269 -0.448053 0
M  V30 40592 H 3989.54 -6.43934 1.22592 0
M  V30 40593 H 3989.06 -5.98294 -0.424736 0
M  V30 40594 H 3990.74 -6.46946 -0.0832813 0
M  V30 40595 N 3990.87 -0.0318079 -1.57568 0
M  V30 40596 C 3992.1 0.656366 -1.96213 0
M  V30 40597 C 3992.51 1.65508 -0.908435 0
M  V30 40598 O 3991.87 1.82171 0.10947 0
M  V30 40599 C 3991.92 1.36038 -3.34927 0
M  V30 40600 O 3991.64 0.401681 -4.36255 0
M  V30 40601 C 3993.14 2.14012 -3.88219 0
M  V30 40602 H 3990.36 0.180797 -0.646184 0
M  V30 40603 H 3992.91 -0.09237 -2.04291 0
M  V30 40604 H 3991.06 2.06049 -3.28059 0
M  V30 40605 H 3991.48 0.901915 -5.16687 0
M  V30 40606 H 3992.95 2.58721 -4.87614 0
M  V30 40607 H 3993.43 2.98029 -3.22608 0
M  V30 40608 H 3994.03 1.48953 -3.98363 0
M  V30 40609 N 3992.35 1.55741 0.241371 0
M  V30 40610 C 3993.57 1.82233 0.990248 0
M  V30 40611 C 3994 0.60959 1.77948 0
M  V30 40612 O 3993.36 -0.441449 1.75843 0
M  V30 40613 C 3993.4 3.0652 1.89942 0
M  V30 40614 O 3992.51 2.83823 2.99196 0
M  V30 40615 H 3991.85 0.601387 0.281477 0
M  V30 40616 H 3994.38 2.02932 0.260686 0
M  V30 40617 H 3994.39 3.361 2.31303 0
M  V30 40618 H 3993.06 3.94424 1.31917 0
M  V30 40619 H 3991.64 2.65425 2.61924 0
M  V30 40620 N 3993.83 -0.507266 1.49213 0
M  V30 40621 C 3995.24 -1.0889 1.51657 0
M  V30 40622 C 3995.59 -1.93905 0.299197 0
M  V30 40623 O 3994.71 -2.08156 -0.591598 0
M  V30 40624 C 3995.31 -1.98149 2.74813 0
M  V30 40625 C 3993.87 -2.51487 2.80056 0
M  V30 40626 C 3993.01 -1.28961 2.45488 0
M  V30 40627 H 3995.97 -0.29146 1.56001 0
M  V30 40628 H 3995.99 -2.82753 2.5462 0
M  V30 40629 H 3995.5 -1.36247 3.63399 0
M  V30 40630 H 3993.6 -3.17047 1.95735 0
M  V30 40631 H 3993.71 -2.89068 3.82069 0
M  V30 40632 H 3992.08 -1.6128 1.97131 0
M  V30 40633 H 3992.86 -0.687762 3.3634 0
M  V30 40634 N 3995.3 -1.38182 -0.757851 0
M  V30 40635 C 3996.25 -1.35177 -1.89288 0
M  V30 40636 C 3997.25 -0.238314 -1.67715 0
M  V30 40637 O 3998.45 -0.407115 -1.75336 0
M  V30 40638 H 3994.83 -0.421596 -0.622705 0
M  V30 40639 H 3996.8 -2.30964 -1.88939 0
M  V30 40640 C 3995.55 -1.18948 -3.26721 0
M  V30 40641 H 3994.87 -2.03886 -3.43905 0
M  V30 40642 H 3996.31 -1.20898 -4.06398 0
M  V30 40643 C 3994.77 0.103919 -3.3674 0
M  V30 40644 O 3995.3 1.08249 -3.8684 0
M  V30 40645 N 3993.51 0.159316 -2.90163 0
M  V30 40646 H 3993.05 -0.637685 -2.49582 0
M  V30 40647 H 3993.01 1.02429 -2.97247 0
M  V30 40648 N 3996.78 0.985565 -1.22981 0
M  V30 40649 C 3998.01 1.75893 -1.08375 0
M  V30 40650 C 3998.42 1.85585 0.368081 0
M  V30 40651 O 3997.76 1.33052 1.26661 0
M  V30 40652 C 3997.83 3.20485 -1.62879 0
M  V30 40653 C 3997.49 3.34318 -3.11578 0
M  V30 40654 C 3998.49 3.21051 -4.08928 0
M  V30 40655 C 3996.17 3.59133 -3.51182 0
M  V30 40656 C 3998.17 3.32395 -5.43868 0
M  V30 40657 C 3995.85 3.70117 -4.86268 0
M  V30 40658 C 3996.85 3.56757 -5.8242 0
M  V30 40659 O 3996.54 3.67362 -7.15053 0
M  V30 40660 H 3996.27 0.558991 -0.380138 0
M  V30 40661 H 3998.82 1.24728 -1.63193 0
M  V30 40662 H 3997.05 3.72875 -1.02476 0
M  V30 40663 H 3998.74 3.79564 -1.43826 0
M  V30 40664 H 3999.51 3.01783 -3.79674 0
M  V30 40665 H 3995.39 3.68605 -2.7686 0
M  V30 40666 H 3998.93 3.21884 -6.18899 0
M  V30 40667 H 3994.83 3.88894 -5.15201 0
M  V30 40668 H 3995.6 3.84189 -7.22732 0
M  V30 40669 N 3998.26 1.04068 1.18353 0
M  V30 40670 C 3999.67 0.771949 1.69994 0
M  V30 40671 C 4000.02 -0.70718 1.83012 0
M  V30 40672 O 3999.15 -1.55045 1.50963 0
M  V30 40673 C 3999.74 1.39466 3.08763 0
M  V30 40674 C 3998.3 1.17424 3.57615 0
M  V30 40675 C 3997.45 1.48532 2.34166 0
M  V30 40676 H 4000.4 1.2071 1.03028 0
M  V30 40677 H 4000.42 0.797886 3.7204 0
M  V30 40678 H 3999.93 2.47118 2.99256 0
M  V30 40679 H 3998.03 0.116463 3.72418 0
M  V30 40680 H 3998.15 1.87127 4.41045 0
M  V30 40681 H 3996.51 0.905013 2.38079 0
M  V30 40682 H 3997.29 2.57293 2.27278 0
M  V30 40683 N 3999.74 -1.34578 0.820149 0
M  V30 40684 C 4000.69 -2.31477 0.22832 0
M  V30 40685 C 4001.68 -1.57273 -0.629411 0
M  V30 40686 O 4002.89 -1.72293 -0.521061 0
M  V30 40687 H 3999.26 -0.74998 0.055086 0
M  V30 40688 H 4001.23 -2.78921 1.06045 0
M  V30 40689 C 3999.98 -3.42529 -0.597435 0
M  V30 40690 H 3999.3 -3.99765 0.0532452 0
M  V30 40691 H 4000.74 -4.12574 -0.977692 0
M  V30 40692 C 3999.2 -2.86742 -1.76863 0
M  V30 40693 O 3999.73 -2.81396 -2.86669 0
M  V30 40694 N 3997.94 -2.43603 -1.58448 0
M  V30 40695 H 3997.49 -2.48151 -0.691274 0
M  V30 40696 H 3997.44 -2.06628 -2.36965 0
M  V30 40697 N 4001.22 -0.574861 -1.46742 0
M  V30 40698 C 4002.18 0.152592 -2.28691 0
M  V30 40699 C 4003.18 0.826214 -1.37951 0
M  V30 40700 O 4004.37 0.67937 -1.60406 0
M  V30 40701 C 4001.5 1.2252 -3.18122 0
M  V30 40702 H 4002.69 -0.567491 -2.94482 0
M  V30 40703 H 4000.25 -0.332507 -1.52722 0
M  V30 40704 H 4000.98 1.97711 -2.57062 0
M  V30 40705 H 4000.77 0.746773 -3.84923 0
M  V30 40706 H 4002.26 1.73563 -3.79823 0
M  V30 40707 N 4002.69 1.54476 -0.312224 0
M  V30 40708 C 4003.92 2.04474 0.295596 0
M  V30 40709 C 4004.33 1.18854 1.47209 0
M  V30 40710 O 4003.68 0.20938 1.82503 0
M  V30 40711 C 4003.74 3.50393 0.804061 0
M  V30 40712 C 4003.4 4.56323 -0.248627 0
M  V30 40713 C 4004.4 5.0854 -1.08089 0
M  V30 40714 C 4002.08 5.00756 -0.393555 0
M  V30 40715 C 4004.08 6.03741 -2.04392 0
M  V30 40716 C 4001.76 5.95774 -1.36001 0
M  V30 40717 C 4002.76 6.47151 -2.18367 0
M  V30 40718 O 4002.45 7.40306 -3.13373 0
M  V30 40719 H 4002.18 0.672719 0.0665248 0
M  V30 40720 H 4004.74 2.0034 -0.453115 0
M  V30 40721 H 4002.97 3.51888 1.60349 0
M  V30 40722 H 4004.66 3.83527 1.32899 0
M  V30 40723 H 4005.42 4.74999 -0.979849 0
M  V30 40724 H 4001.3 4.60387 0.237628 0
M  V30 40725 H 4004.84 6.43767 -2.6872 0
M  V30 40726 H 4000.74 6.28732 -1.46173 0
M  V30 40727 H 4001.51 7.58144 -3.0848 0
M  V30 40728 N 4004.17 0.0401637 1.57549 0
M  V30 40729 C 4005.45 -0.675323 1.83572 0
M  V30 40730 C 4005.83 -1.89689 0.926346 0
M  V30 40731 O 4005.18 -2.28495 -0.0153467 0
M  V30 40732 C 4005.39 -1.04307 3.33048 0
M  V30 40733 C 4006.74 -1.43004 3.99794 0
M  V30 40734 O 4007.76 -1.13573 3.37609 0
M  V30 40735 O 4006.62 -1.97884 5.09416 0
M  V30 40736 H 4003.71 -0.332312 0.757296 0
M  V30 40737 H 4006.26 0.0686882 1.69561 0
M  V30 40738 H 4005.03 -0.174121 3.90912 0
M  V30 40739 H 4004.65 -1.84489 3.52207 0
M  V30 40740 N 4005.65 -1.55866 -0.233109 0
M  V30 40741 C 4006.88 -1.82756 -0.98057 0
M  V30 40742 C 4007.3 -0.619019 -1.77623 0
M  V30 40743 O 4006.66 0.432117 -1.76075 0
M  V30 40744 C 4006.71 -3.07523 -1.88314 0
M  V30 40745 O 4005.81 -2.85406 -2.97687 0
M  V30 40746 H 4005.15 -0.602872 -0.278284 0
M  V30 40747 H 4007.68 -2.03068 -0.24992 0
M  V30 40748 H 4007.69 -3.37322 -2.29517 0
M  V30 40749 H 4006.37 -3.95119 -1.29824 0
M  V30 40750 H 4004.94 -2.6681 -2.60513 0
M  V30 40751 N 4007.13 0.499346 -1.4948 0
M  V30 40752 C 4008.06 1.60931 -1.69185 0
M  V30 40753 C 4009.04 1.61282 -0.540558 0
M  V30 40754 O 4010.23 1.77997 -0.776585 0
M  V30 40755 C 4007.36 2.99407 -1.7599 0
M  V30 40756 C 4006.31 3.13921 -2.90925 0
M  V30 40757 C 4005.64 4.53765 -2.82845 0
M  V30 40758 C 4006.94 2.93791 -4.31838 0
M  V30 40759 H 4008.63 1.44695 -2.62114 0
M  V30 40760 H 4006.18 0.694665 -1.26136 0
M  V30 40761 H 4008.13 3.76959 -1.88361 0
M  V30 40762 H 4006.85 3.16736 -0.796612 0
M  V30 40763 H 4005.51 2.38795 -2.78159 0
M  V30 40764 H 4005.16 4.67972 -1.84421 0
M  V30 40765 H 4004.86 4.64417 -3.59987 0
M  V30 40766 H 4006.38 5.33375 -2.97226 0
M  V30 40767 H 4007.8 3.61111 -4.45277 0
M  V30 40768 H 4006.19 3.15913 -5.10215 0
M  V30 40769 H 4007.26 1.899 -4.46168 0
M  V30 40770 N 4008.61 1.38582 0.750513 0
M  V30 40771 C 4009.84 1.38199 1.53976 0
M  V30 40772 C 4010.25 -0.0274645 1.8878 0
M  V30 40773 O 4009.61 -0.994867 1.52999 0
M  V30 40774 C 4009.66 2.24048 2.83699 0
M  V30 40775 O 4009.38 3.59503 2.50378 0
M  V30 40776 C 4010.88 2.31878 3.77819 0
M  V30 40777 H 4008.1 0.472593 0.476337 0
M  V30 40778 H 4010.64 1.82201 0.928602 0
M  V30 40779 H 4008.8 1.835 3.41184 0
M  V30 40780 H 4009.21 4.04738 3.33598 0
M  V30 40781 H 4010.69 2.96226 4.65783 0
M  V30 40782 H 4011.16 1.33334 4.18472 0
M  V30 40783 H 4011.77 2.7283 3.26257 0
M  V30 40784 N 4010.09 -0.979029 1.23502 0
M  V30 40785 C 4011.04 -2.05647 0.984548 0
M  V30 40786 C 4012.02 -1.60748 -0.069955 0
M  V30 40787 O 4013.21 -1.76427 0.142347 0
M  V30 40788 C 4010.34 -3.3838 0.579141 0
M  V30 40789 C 4009.43 -3.89873 1.66912 0
M  V30 40790 N 4009.82 -4.1443 2.89967 0
M  V30 40791 C 4008.12 -4.18421 1.54402 0
M  V30 40792 C 4008.82 -4.56487 3.60547 0
M  V30 40793 N 4007.79 -4.60998 2.88066 0
M  V30 40794 H 4011.59 -2.22593 1.9191 0
M  V30 40795 H 4009.11 -1.16191 1.13461 0
M  V30 40796 H 4011.11 -4.15156 0.380969 0
M  V30 40797 H 4009.77 -3.22826 -0.348352 0
M  V30 40798 H 4010.78 -4.02213 3.26259 0
M  V30 40799 H 4007.45 -4.11863 0.683731 0
M  V30 40800 H 4008.84 -4.83994 4.66046 0
M  V30 40801 N 4011.56 -1.04695 -1.178 0
M  V30 40802 C 4012.8 -0.763028 -1.89624 0
M  V30 40803 C 4013.17 0.696869 -1.78907 0
M  V30 40804 O 4014.37 1.09467 -2.455 0
M  V30 40805 C 4012.64 -1.22406 -3.35785 0
M  V30 40806 S 4014.2 -1.06674 -4.25636 0
M  V30 40807 H 4011.02 -0.277247 -0.654718 0
M  V30 40808 H 4013.62 -1.34054 -1.42301 0
M  V30 40809 H 4012.32 -2.28182 -3.41117 0
M  V30 40810 H 4011.85 -0.640601 -3.88149 0
M  V30 40811 H 4013.87 0.012081 -4.96199 0
M  V30 40812 N 4013.04 1.34141 -0.827275 0
M  V30 40813 C 4014.27 2.02903 -0.429549 0
M  V30 40814 C 4014.69 1.61876 0.958005 0
M  V30 40815 O 4014.05 0.805557 1.62421 0
M  V30 40816 C 4014.1 3.56463 -0.544655 0
M  V30 40817 O 4013.2 4.10112 0.433777 0
M  V30 40818 H 4012.54 0.640187 -0.176227 0
M  V30 40819 H 4015.07 1.71295 -1.1189 0
M  V30 40820 H 4015.08 4.05812 -0.42202 0
M  V30 40821 H 4013.76 3.8567 -1.55664 0
M  V30 40822 H 4012.33 3.71924 0.269663 0
M  V30 40823 N 4014.52 0.582635 1.46435 0
M  V30 40824 C 4015.74 0.0719076 2.07275 0
M  V30 40825 C 4016.17 -1.2237 1.42853 0
M  V30 40826 O 4015.53 -1.73911 0.512303 0
M  V30 40827 C 4015.58 -0.0804867 3.6051 0
M  V30 40828 O 4014.68 -1.137 3.96416 0
M  V30 40829 H 4014.02 0.0627723 0.661026 0
M  V30 40830 H 4016.55 0.805557 1.88074 0
M  V30 40831 H 4016.56 -0.286678 4.06992 0
M  V30 40832 H 4015.24 0.865675 4.06791 0
M  V30 40833 H 4013.81 -0.909274 3.61644 0
M  V30 40834 N 4016 -1.54309 0.320412 0
M  V30 40835 C 4016.93 -2.27176 -0.539749 0
M  V30 40836 C 4017.91 -1.27852 -1.12195 0
M  V30 40837 O 4019.09 -1.56659 -1.14767 0
M  V30 40838 C 4016.22 -3.02719 -1.7023 0
M  V30 40839 C 4015.18 -4.09353 -1.24955 0
M  V30 40840 C 4014.5 -4.7272 -2.4988 0
M  V30 40841 C 4015.8 -5.21011 -0.366696 0
M  V30 40842 H 4017.5 -2.99323 0.0680605 0
M  V30 40843 H 4015.04 -1.43959 0.0341741 0
M  V30 40844 H 4017 -3.52424 -2.31031 0
M  V30 40845 H 4015.72 -2.28184 -2.33665 0
M  V30 40846 H 4014.38 -3.60527 -0.664493 0
M  V30 40847 H 4014.03 -3.94803 -3.11672 0
M  V30 40848 H 4013.73 -5.44749 -2.20279 0
M  V30 40849 H 4015.25 -5.25197 -3.11449 0
M  V30 40850 H 4016.67 -5.66492 -0.880902 0
M  V30 40851 H 4015.06 -5.99877 -0.163601 0
M  V30 40852 H 4016.13 -4.81133 0.603269 0
M  V30 40853 N 4017.48 -0.0485183 -1.57525 0
M  V30 40854 C 4018.41 0.924773 -2.14407 0
M  V30 40855 C 4019.39 1.32629 -1.06506 0
M  V30 40856 O 4020.57 1.40148 -1.34433 0
M  V30 40857 C 4017.7 2.20052 -2.6869 0
M  V30 40858 C 4016.66 1.93915 -3.81551 0
M  V30 40859 C 4015.98 3.27922 -4.2234 0
M  V30 40860 C 4017.28 1.26287 -5.06803 0
M  V30 40861 H 4018.98 0.450998 -2.95984 0
M  V30 40862 H 4016.52 0.215489 -1.42379 0
M  V30 40863 H 4018.47 2.88538 -3.07122 0
M  V30 40864 H 4017.2 2.69631 -1.84301 0
M  V30 40865 H 4015.86 1.27842 -3.43587 0
M  V30 40866 H 4015.51 3.75296 -3.34905 0
M  V30 40867 H 4015.21 3.11233 -4.98405 0
M  V30 40868 H 4016.73 3.97643 -4.6337 0
M  V30 40869 H 4018.14 1.84802 -5.42698 0
M  V30 40870 H 4016.54 1.19933 -5.87993 0
M  V30 40871 H 4017.61 0.23852 -4.84313 0
M  V30 40872 N 4018.95 1.55988 0.224839 0
M  V30 40873 C 4019.86 1.95309 1.29967 0
M  V30 40874 C 4020.88 0.85647 1.51461 0
M  V30 40875 O 4022.06 1.15976 1.64656 0
M  V30 40876 C 4019.12 2.25897 2.63005 0
M  V30 40877 C 4018.18 3.4911 2.49841 0
M  V30 40878 C 4017.41 3.78229 3.76535 0
M  V30 40879 O 4017.64 3.09074 4.79405 0
M  V30 40880 O 4016.57 4.71725 3.73844 0
M  V30 40881 H 4020.4 2.86902 0.996042 0
M  V30 40882 H 4017.98 1.43155 0.427432 0
M  V30 40883 H 4019.86 2.4678 3.41581 0
M  V30 40884 H 4018.54 1.37479 2.93055 0
M  V30 40885 H 4017.45 3.3351 1.69476 0
M  V30 40886 H 4018.78 4.379 2.24731 0
M  V30 40887 N 4020.43 -0.491412 1.49743 0
M  V30 40888 C 4021.39 -1.57418 1.6659 0
M  V30 40889 C 4022.39 -1.51557 0.537308 0
M  V30 40890 O 4023.58 -1.54539 0.803955 0
M  V30 40891 C 4020.72 -2.97068 1.67222 0
M  V30 40892 H 4021.91 -1.43805 2.63173 0
M  V30 40893 H 4019.46 -0.716344 1.38918 0
M  V30 40894 H 4020.2 -3.16147 0.722584 0
M  V30 40895 H 4019.98 -3.0273 2.49193 0
M  V30 40896 H 4021.47 -3.75717 1.8228 0
M  V30 40897 N 4021.91 -1.38978 -0.743153 0
M  V30 40898 C 4023.32 -1.31932 -1.32102 0
M  V30 40899 C 4023.67 0.0200986 -1.9619 0
M  V30 40900 O 4022.8 0.922211 -1.95766 0
M  V30 40901 C 4023.39 -2.38934 -2.402 0
M  V30 40902 C 4021.95 -2.35433 -2.9368 0
M  V30 40903 C 4021.1 -2.2125 -1.67164 0
M  V30 40904 H 4024.05 -1.49185 -0.541256 0
M  V30 40905 H 4024.07 -2.05252 -3.20393 0
M  V30 40906 H 4023.58 -3.36406 -1.93526 0
M  V30 40907 H 4021.68 -1.41574 -3.44656 0
M  V30 40908 H 4021.8 -3.29977 -3.47349 0
M  V30 40909 H 4020.16 -1.68281 -1.9119 0
M  V30 40910 H 4020.94 -3.2068 -1.22554 0
M  V30 40911 N 4023.39 0.972465 -1.2402 0
M  V30 40912 C 4024.32 2.06897 -0.986221 0
M  V30 40913 C 4025.33 1.62744 0.0426288 0
M  V30 40914 O 4026.52 1.77444 -0.193847 0
M  V30 40915 C 4023.62 3.35687 -0.465569 0
M  V30 40916 C 4022.8 4.08771 -1.55644 0
M  V30 40917 C 4021.85 5.15835 -1.03927 0
M  V30 40918 O 4020.88 5.42274 -1.72995 0
M  V30 40919 N 4022.08 5.80357 0.128789 0
M  V30 40920 H 4024.85 2.29259 -1.93029 0
M  V30 40921 H 4022.41 1.13974 -1.14985 0
M  V30 40922 H 4024.4 4.04565 -0.10445 0
M  V30 40923 H 4022.97 3.10231 0.384112 0
M  V30 40924 H 4022.19 3.34236 -2.08997 0
M  V30 40925 H 4023.48 4.54362 -2.28981 0
M  V30 40926 H 4022.88 5.61273 0.706339 0
M  V30 40927 H 4021.43 6.50373 0.431097 0
M  V30 40928 N 4024.87 1.05318 1.17243 0
M  V30 40929 C 4026.11 0.762504 1.87164 0
M  V30 40930 C 4026.44 -0.712655 1.81511 0
M  V30 40931 O 4025.71 -1.51502 1.24193 0
M  V30 40932 H 4024.29 0.279066 0.692915 0
M  V30 40933 H 4026.95 1.3326 1.42224 0
M  V30 40934 H 4026.04 1.07859 2.9287 0
M  V30 40935 N 4026.34 -1.33701 0.834377 0
M  V30 40936 C 4027.29 -2.2677 0.236522 0
M  V30 40937 C 4028.28 -1.49057 -0.605878 0
M  V30 40938 O 4029.47 -1.70956 -0.458581 0
M  V30 40939 C 4026.6 -3.38171 -0.591205 0
M  V30 40940 C 4025.69 -4.23287 0.262456 0
M  V30 40941 N 4026.08 -4.87754 1.33901 0
M  V30 40942 C 4024.37 -4.45973 0.048724 0
M  V30 40943 C 4025.08 -5.51076 1.86252 0
M  V30 40944 N 4024.05 -5.30977 1.16467 0
M  V30 40945 H 4027.85 -2.74125 1.05984 0
M  V30 40946 H 4025.37 -1.47553 0.678363 0
M  V30 40947 H 4027.36 -4.03828 -1.03577 0
M  V30 40948 H 4026.02 -2.92365 -1.41255 0
M  V30 40949 H 4027.04 -4.88438 1.72188 0
M  V30 40950 H 4023.71 -4.10898 -0.739541 0
M  V30 40951 H 4025.1 -6.12424 2.7638 0
M  V30 40952 N 4027.82 -0.590393 -1.46124 0
M  V30 40953 C 4029.05 -0.0847664 -2.06726 0
M  V30 40954 C 4029.47 1.22351 -1.4379 0
M  V30 40955 O 4028.82 1.74144 -0.545907 0
M  V30 40956 C 4028.87 0.0795915 -3.61412 0
M  V30 40957 O 4028.59 -1.17691 -4.21996 0
M  V30 40958 C 4030.1 0.618677 -4.38962 0
M  V30 40959 H 4027.32 -0.0609642 -0.668225 0
M  V30 40960 H 4029.86 -0.813245 -1.87634 0
M  V30 40961 H 4028.01 0.758323 -3.79906 0
M  V30 40962 H 4028.43 -0.995618 -5.14964 0
M  V30 40963 H 4029.9 0.68283 -5.4776 0
M  V30 40964 H 4030.38 1.63731 -4.0754 0
M  V30 40965 H 4030.99 -0.0254379 -4.25292 0
M  V30 40966 N 4029.3 1.54136 -0.328591 0
M  V30 40967 C 4030.55 1.99839 0.273392 0
M  V30 40968 C 4030.86 1.22052 1.52849 0
M  V30 40969 O 4032.07 1.58156 2.20678 0
M  V30 40970 C 4030.52 3.55861 0.537694 0
M  V30 40971 C 4030.13 4.42487 -0.70064 0
M  V30 40972 C 4031.88 4.10018 1.09936 0
M  V30 40973 C 4029.78 5.89991 -0.407964 0
M  V30 40974 H 4028.71 0.746521 0.105934 0
M  V30 40975 H 4031.36 1.78107 -0.441596 0
M  V30 40976 H 4029.75 3.73599 1.313 0
M  V30 40977 H 4030.92 4.36525 -1.4759 0
M  V30 40978 H 4029.24 3.99246 -1.18287 0
M  V30 40979 H 4031.83 5.17817 1.33303 0
M  V30 40980 H 4032.18 3.62311 2.05029 0
M  V30 40981 H 4032.71 3.95931 0.385113 0
M  V30 40982 H 4029.45 6.41903 -1.32821 0
M  V30 40983 H 4028.97 5.98894 0.329499 0
M  V30 40984 H 4030.65 6.46997 -0.0196528 0
M  V30 40985 N 4030.78 0.0568716 1.57497 0
M  V30 40986 C 4032.01 -0.625067 1.97232 0
M  V30 40987 C 4032.42 -1.64042 0.934651 0
M  V30 40988 O 4031.78 -1.82322 -0.0804743 0
M  V30 40989 C 4031.83 -1.30692 3.37049 0
M  V30 40990 O 4031.55 -0.332226 4.36838 0
M  V30 40991 C 4033.05 -2.07809 3.91574 0
M  V30 40992 H 4030.27 -0.170494 0.648978 0
M  V30 40993 H 4032.82 0.124859 2.04118 0
M  V30 40994 H 4030.97 -2.00804 3.31295 0
M  V30 40995 H 4031.38 -0.8196 5.18057 0
M  V30 40996 H 4032.86 -2.50931 4.91668 0
M  V30 40997 H 4033.34 -2.92858 3.27308 0
M  V30 40998 H 4033.94 -1.42596 4.00682 0
M  V30 40999 N 4032.26 -1.56105 -0.216564 0
M  V30 41000 C 4033.19 -1.95843 -1.27152 0
M  V30 41001 C 4034.17 -0.827339 -1.48624 0
M  V30 41002 O 4035.35 -1.09003 -1.60723 0
M  V30 41003 C 4032.48 -2.27944 -2.62028 0
M  V30 41004 C 4031.44 -3.43591 -2.55205 0
M  V30 41005 C 4030.76 -3.6131 -3.94157 0
M  V30 41006 C 4032.06 -4.78417 -2.09558 0
M  V30 41007 H 4033.76 -2.84215 -0.941385 0
M  V30 41008 H 4031.3 -1.36742 -0.451403 0
M  V30 41009 H 4033.26 -2.54336 -3.35993 0
M  V30 41010 H 4031.98 -1.36431 -2.96739 0
M  V30 41011 H 4030.64 -3.17255 -1.83697 0
M  V30 41012 H 4030.29 -2.67164 -4.26184 0
M  V30 41013 H 4029.99 -4.39097 -3.90471 0
M  V30 41014 H 4031.51 -3.90055 -4.69776 0
M  V30 41015 H 4032.92 -5.03981 -2.73268 0
M  V30 41016 H 4031.32 -5.59522 -2.16921 0
M  V30 41017 H 4032.39 -4.73439 -1.04802 0
M  V30 41018 N 4033.73 0.483463 -1.50001 0
M  V30 41019 C 4034.96 1.26001 -1.64108 0
M  V30 41020 C 4035.38 1.86078 -0.319422 0
M  V30 41021 O 4034.73 1.68657 0.697214 0
M  V30 41022 C 4034.79 2.37767 -2.72303 0
M  V30 41023 O 4034.51 1.80156 -3.99344 0
M  V30 41024 C 4036.01 3.28853 -2.97272 0
M  V30 41025 H 4033.23 0.381525 -0.551978 0
M  V30 41026 H 4035.77 0.578486 -1.96147 0
M  V30 41027 H 4033.93 3.01718 -2.42992 0
M  V30 41028 H 4034.34 2.53662 -4.59081 0
M  V30 41029 H 4035.81 4.03515 -3.76669 0
M  V30 41030 H 4036.29 3.86898 -2.07862 0
M  V30 41031 H 4036.9 2.70652 -3.28067 0
M  V30 41032 N 4035.21 1.39371 0.735772 0
M  V30 41033 C 4036.46 1.36552 1.49532 0
M  V30 41034 C 4036.79 -0.0387823 1.94461 0
M  V30 41035 O 4036.04 -1.01946 1.67049 0
M  V30 41036 C 4036.34 2.28341 2.74946 0
M  V30 41037 C 4036.01 3.75986 2.48888 0
M  V30 41038 C 4034.67 4.16216 2.41491 0
M  V30 41039 C 4037.02 4.69373 2.26581 0
M  V30 41040 C 4034.35 5.47896 2.09826 0
M  V30 41041 C 4036.7 6.01329 1.96433 0
M  V30 41042 C 4035.37 6.40623 1.87504 0
M  V30 41043 H 4034.64 0.49968 0.547176 0
M  V30 41044 H 4037.28 1.71871 0.844557 0
M  V30 41045 H 4035.59 1.86138 3.44761 0
M  V30 41046 H 4037.28 2.23454 3.32971 0
M  V30 41047 H 4033.87 3.44101 2.55524 0
M  V30 41048 H 4038.06 4.39125 2.31264 0
M  V30 41049 H 4033.31 5.77264 2.01435 0
M  V30 41050 H 4037.49 6.7322 1.78181 0
M  V30 41051 H 4035.12 7.42578 1.62734 0
M  V30 41052 N 4036.69 -0.965875 1.24534 0
M  V30 41053 C 4037.92 -1.74932 1.11416 0
M  V30 41054 C 4038.34 -1.85198 -0.329136 0
M  V30 41055 O 4037.7 -1.32422 -1.23831 0
M  V30 41056 C 4037.75 -3.14691 1.76073 0
M  V30 41057 O 4036.85 -3.9926 1.03274 0
M  V30 41058 H 4036.19 -0.537656 0.389643 0
M  V30 41059 H 4038.72 -1.21147 1.64878 0
M  V30 41060 H 4038.73 -3.65205 1.81904 0
M  V30 41061 H 4037.41 -3.06535 2.81085 0
M  V30 41062 H 4035.98 -3.57741 1.05243 0
M  V30 41063 N 4038.17 -1.05938 -1.16683 0
M  V30 41064 C 4039.45 -0.687532 -1.83118 0
M  V30 41065 C 4039.83 0.83144 -1.94037 0
M  V30 41066 O 4039.17 1.74033 -1.4807 0
M  V30 41067 C 4039.38 -1.38529 -3.20329 0
M  V30 41068 C 4040.73 -1.52818 -3.96146 0
M  V30 41069 O 4041.76 -1.34491 -3.29834 0
M  V30 41070 O 4040.62 -1.82854 -5.15002 0
M  V30 41071 H 4037.71 -0.24295 -0.790509 0
M  V30 41072 H 4040.26 -1.15943 -1.23916 0
M  V30 41073 H 4039.03 -2.42123 -3.07395 0
M  V30 41074 H 4038.65 -0.903232 -3.87205 0
M  V30 41075 N 4039.65 1.33256 -0.841456 0
M  V30 41076 C 4040.89 1.97697 -0.438413 0
M  V30 41077 C 4041.22 1.66647 1.00295 0
M  V30 41078 O 4040.48 0.939995 1.71647 0
M  V30 41079 C 4040.78 3.52173 -0.608983 0
M  V30 41080 C 4040.44 4.0318 -2.01883 0
M  V30 41081 C 4039.1 4.16821 -2.40446 0
M  V30 41082 C 4041.46 4.30392 -2.9396 0
M  V30 41083 C 4038.78 4.55009 -3.70384 0
M  V30 41084 C 4041.14 4.70033 -4.23381 0
M  V30 41085 C 4039.8 4.81879 -4.61897 0
M  V30 41086 H 4039.07 0.723425 -0.160427 0
M  V30 41087 H 4041.72 1.58887 -1.06897 0
M  V30 41088 H 4040.02 3.9166 0.10488 0
M  V30 41089 H 4041.72 4.00039 -0.277383 0
M  V30 41090 H 4038.31 3.93039 -1.70934 0
M  V30 41091 H 4042.49 4.19374 -2.65403 0
M  V30 41092 H 4037.75 4.62374 -4.00026 0
M  V30 41093 H 4041.92 4.90045 -4.94802 0
M  V30 41094 H 4039.55 5.11227 -5.62629 0
M  V30 41095 N 4041.13 0.598134 1.45809 0
M  V30 41096 C 4042.4 0.022072 1.95588 0
M  V30 41097 C 4042.78 -1.44313 1.54068 0
M  V30 41098 O 4042.13 -2.14086 0.7987 0
M  V30 41099 C 4042.34 0.210265 3.48366 0
M  V30 41100 C 4043.69 0.086122 4.24513 0
M  V30 41101 O 4044.71 0.139895 3.55925 0
M  V30 41102 O 4043.57 -0.0367001 5.46488 0
M  V30 41103 H 4040.67 -0.0410978 0.825978 0
M  V30 41104 H 4043.21 0.667534 1.56019 0
M  V30 41105 H 4041.98 1.22824 3.71524 0
M  V30 41106 H 4041.61 -0.470905 3.94802 0
M  V30 41107 N 4042.6 -1.5396 0.33676 0
M  V30 41108 C 4043.85 -1.99981 -0.26279 0
M  V30 41109 C 4044.17 -1.22861 -1.52199 0
M  V30 41110 O 4045.37 -1.59324 -2.19836 0
M  V30 41111 C 4043.83 -3.56141 -0.518815 0
M  V30 41112 C 4043.44 -4.4211 0.724096 0
M  V30 41113 C 4045.18 -4.10595 -1.0776 0
M  V30 41114 C 4043.09 -5.89767 0.439247 0
M  V30 41115 H 4042.02 -0.747073 -0.101974 0
M  V30 41116 H 4044.67 -1.77871 0.451036 0
M  V30 41117 H 4043.05 -3.7429 -1.29317 0
M  V30 41118 H 4044.22 -4.35736 1.49903 0
M  V30 41119 H 4042.54 -3.98613 1.20403 0
M  V30 41120 H 4045.14 -5.18517 -1.30555 0
M  V30 41121 H 4045.48 -3.63393 -2.03104 0
M  V30 41122 H 4046.01 -3.9613 -0.36411 0
M  V30 41123 H 4042.75 -6.41189 1.36223 0
M  V30 41124 H 4042.27 -5.99061 -0.297733 0
M  V30 41125 H 4043.95 -6.46977 0.0539644 0
M  V30 41126 N 4044.08 -0.0652232 -1.57465 0
M  V30 41127 C 4044.99 0.919197 -2.15842 0
M  V30 41128 C 4046.01 1.33173 -1.11987 0
M  V30 41129 O 4047.18 1.40578 -1.44222 0
M  V30 41130 C 4044.25 2.17085 -2.70323 0
M  V30 41131 C 4043.31 1.81535 -3.89029 0
M  V30 41132 C 4042.54 3.00734 -4.40902 0
M  V30 41133 O 4042.77 4.14548 -3.91799 0
M  V30 41134 O 4041.7 2.80932 -5.32317 0
M  V30 41135 H 4045.53 0.452651 -3.00308 0
M  V30 41136 H 4043.11 0.157478 -1.48568 0
M  V30 41137 H 4044.99 2.90496 -3.05271 0
M  V30 41138 H 4043.67 2.6285 -1.88921 0
M  V30 41139 H 4042.57 1.05397 -3.58946 0
M  V30 41140 H 4043.91 1.40558 -4.71703 0
M  V30 41141 N 4045.56 1.56218 0.208282 0
M  V30 41142 C 4046.97 1.69894 0.774132 0
M  V30 41143 C 4047.32 0.669539 1.84422 0
M  V30 41144 O 4046.45 -0.17671 2.15677 0
M  V30 41145 C 4047.04 3.08022 1.41096 0
M  V30 41146 C 4045.6 3.23508 1.92405 0
M  V30 41147 C 4044.75 2.65836 0.789083 0
M  V30 41148 H 4047.7 1.58691 -0.0165893 0
M  V30 41149 H 4047.72 3.04618 2.28009 0
M  V30 41150 H 4047.23 3.82921 0.631898 0
M  V30 41151 H 4045.33 2.53501 2.73071 0
M  V30 41152 H 4045.45 4.30872 2.0949 0
M  V30 41153 H 4043.81 2.24665 1.19991 0
M  V30 41154 H 4044.59 3.43293 0.0224741 0
M  V30 41155 N 4047.04 -0.475502 1.50256 0
M  V30 41156 C 4047.99 -1.57155 1.65186 0
M  V30 41157 C 4048.97 -1.52716 0.506605 0
M  V30 41158 O 4050.16 -1.59815 0.760802 0
M  V30 41159 C 4047.29 -2.95626 1.74528 0
M  V30 41160 C 4046.38 -3.04966 2.94715 0
M  V30 41161 N 4046.77 -2.84129 4.18455 0
M  V30 41162 C 4045.07 -3.36096 2.93181 0
M  V30 41163 C 4045.77 -2.98319 4.9938 0
M  V30 41164 N 4044.74 -3.28326 4.33247 0
M  V30 41165 H 4048.55 -1.39739 2.58554 0
M  V30 41166 H 4046.06 -0.682146 1.47379 0
M  V30 41167 H 4048.06 -3.74429 1.83326 0
M  V30 41168 H 4046.72 -3.14093 0.823144 0
M  V30 41169 H 4047.73 -2.59798 4.48024 0
M  V30 41170 H 4044.41 -3.60579 2.1045 0
M  V30 41171 H 4045.8 -2.86487 6.07762 0
M  V30 41172 N 4048.52 -1.39759 -0.72837 0
M  V30 41173 C 4049.74 -1.40631 -1.51758 0
M  V30 41174 C 4050.16 -0.00257228 -1.888 0
M  V30 41175 O 4049.52 0.9704 -1.54562 0
M  V30 41176 C 4049.57 -2.28533 -2.80098 0
M  V30 41177 O 4049.29 -3.63441 -2.44627 0
M  V30 41178 C 4050.79 -2.3786 -3.74082 0
M  V30 41179 H 4048.01 -0.480111 -0.468758 0
M  V30 41180 H 4050.55 -1.83655 -0.899497 0
M  V30 41181 H 4048.71 -1.88904 -3.38222 0
M  V30 41182 H 4049.12 -4.09994 -3.27117 0
M  V30 41183 H 4050.6 -3.03599 -4.61011 0
M  V30 41184 H 4051.07 -1.39975 -4.16298 0
M  V30 41185 H 4051.68 -2.77986 -3.21875 0
M  V30 41186 N 4049.99 0.959257 -1.25044 0
M  V30 41187 C 4051.22 1.73807 -1.12245 0
M  V30 41188 C 4051.64 1.85995 0.324218 0
M  V30 41189 O 4050.99 1.35435 1.22325 0
M  V30 41190 C 4051.04 3.15423 -1.76608 0
M  V30 41191 O 4050.77 3.03836 -3.15619 0
M  V30 41192 C 4052.27 4.09603 -1.69529 0
M  V30 41193 H 4049.49 0.544776 -0.391739 0
M  V30 41194 H 4052.03 1.20377 -1.65317 0
M  V30 41195 H 4050.19 3.65811 -1.27518 0
M  V30 41196 H 4050.6 3.93137 -3.47193 0
M  V30 41197 H 4052.07 5.06598 -2.19232 0
M  V30 41198 H 4052.55 4.34241 -0.658151 0
M  V30 41199 H 4053.16 3.65129 -2.18085 0
M  V30 41200 N 4051.47 1.06556 1.16119 0
M  V30 41201 C 4052.71 0.793099 1.88386 0
M  V30 41202 C 4053.08 -0.668318 1.79993 0
M  V30 41203 O 4054.28 -1.05548 2.47211 0
M  V30 41204 C 4052.55 1.27732 3.33795 0
M  V30 41205 S 4054.11 1.13432 4.23885 0
M  V30 41206 H 4050.93 0.287627 0.650224 0
M  V30 41207 H 4053.53 1.36301 1.40151 0
M  V30 41208 H 4052.23 2.3358 3.37444 0
M  V30 41209 H 4051.76 0.702271 3.87081 0
M  V30 41210 H 4053.78 0.0668614 4.96155 0
M  V30 41211 N 4052.95 -1.32808 0.848511 0
M  V30 41212 C 4053.91 -2.27309 0.293784 0
M  V30 41213 C 4054.91 -1.51354 -0.543016 0
M  V30 41214 O 4056.1 -1.70536 -0.355413 0
M  V30 41215 C 4053.24 -3.35842 -0.585035 0
M  V30 41216 H 4054.43 -2.77887 1.12778 0
M  V30 41217 H 4051.98 -1.43375 0.622355 0
M  V30 41218 H 4052.72 -2.90522 -1.44109 0
M  V30 41219 H 4052.5 -3.92098 0.0138467 0
M  V30 41220 H 4053.99 -4.0627 -0.966132 0
M  V30 41221 N 4054.43 -0.605858 -1.45489 0
M  V30 41222 C 4055.67 -0.108945 -2.03108 0
M  V30 41223 C 4056.03 1.24596 -1.46607 0
M  V30 41224 O 4055.32 1.80925 -0.630617 0
M  V30 41225 C 4055.52 -0.00924859 -3.57399 0
M  V30 41226 C 4055.35 -1.35294 -4.28866 0
M  V30 41227 C 4054.12 -1.93318 -4.66858 0
M  V30 41228 C 4056.31 -2.28133 -4.60934 0
M  V30 41229 N 4054.3 -3.21185 -5.23176 0
M  V30 41230 C 4055.67 -3.40598 -5.18067 0
M  V30 41231 C 4057.72 -2.27526 -4.42873 0
M  V30 41232 C 4056.42 -4.52619 -5.59042 0
M  V30 41233 C 4058.45 -3.38594 -4.84879 0
M  V30 41234 C 4057.81 -4.49781 -5.42104 0
M  V30 41235 H 4053.91 -0.0831939 -0.777562 0
M  V30 41236 H 4056.5 -0.803831 -1.77332 0
M  V30 41237 H 4054.67 0.654854 -3.8284 0
M  V30 41238 H 4056.4 0.494166 -4.01672 0
M  V30 41239 H 4053.15 -1.46543 -4.50358 0
M  V30 41240 H 4053.58 -3.86492 -5.55836 0
M  V30 41241 H 4058.22 -1.42826 -3.97946 0
M  V30 41242 H 4055.94 -5.38046 -6.02936 0
M  V30 41243 H 4059.52 -3.3927 -4.72638 0
M  V30 41244 H 4058.4 -5.34305 -5.74011 0
M  V30 41245 N 4055.91 1.53779 -0.34492 0
M  V30 41246 C 4057.18 1.93183 0.30652 0
M  V30 41247 C 4057.56 1.27661 1.68125 0
M  V30 41248 O 4056.91 0.428042 2.24455 0
M  V30 41249 C 4057.12 3.46953 0.377423 0
M  V30 41250 C 4058.47 4.19936 0.627611 0
M  V30 41251 O 4059.49 3.53224 0.459482 0
M  V30 41252 O 4058.35 5.38119 0.953416 0
M  V30 41253 H 4055.45 0.807363 0.179149 0
M  V30 41254 H 4057.99 1.6501 -0.396197 0
M  V30 41255 H 4056.76 3.86868 -0.587243 0
M  V30 41256 H 4056.39 3.81297 1.12687 0
M  V30 41257 N 4057.38 0.0735731 1.57428 0
M  V30 41258 C 4058.61 -0.607556 1.98302 0
M  V30 41259 C 4059.03 -1.62247 0.951714 0
M  V30 41260 O 4058.39 -1.81112 -0.082469 0
M  V30 41261 C 4058.44 -1.25104 3.38203 0
M  V30 41262 O 4057.54 -2.3669 3.37716 0
M  V30 41263 H 4056.89 -0.156092 0.645392 0
M  V30 41264 H 4059.42 0.148614 2.0406 0
M  V30 41265 H 4059.43 -1.59746 3.75427 0
M  V30 41266 H 4058.1 -0.507377 4.12794 0
M  V30 41267 H 4056.68 -2.03827 3.12264 0
M  V30 41268 N 4058.86 -1.56326 -0.199995 0
M  V30 41269 C 4060.11 -1.80604 -0.922507 0
M  V30 41270 C 4060.44 -0.646814 -1.83112 0
M  V30 41271 O 4059.72 0.352894 -1.91272 0
M  V30 41272 C 4060 -3.15108 -1.74296 0
M  V30 41273 C 4059.85 -4.41514 -0.859394 0
M  V30 41274 C 4061.17 -3.46256 -2.71652 0
M  V30 41275 H 4058.29 -0.657005 -0.333937 0
M  V30 41276 H 4060.93 -1.89046 -0.190143 0
M  V30 41277 H 4059.08 -3.08042 -2.36733 0
M  V30 41278 H 4060.75 -4.60622 -0.250102 0
M  V30 41279 H 4059 -4.33483 -0.165859 0
M  V30 41280 H 4059.67 -5.32113 -1.46833 0
M  V30 41281 H 4062.14 -3.5359 -2.19347 0
M  V30 41282 H 4061.02 -4.41499 -3.26144 0
M  V30 41283 H 4061.28 -2.69503 -3.50457 0
M  V30 41284 N 4060.34 0.467527 -1.50506 0
M  V30 41285 C 4061.57 1.24253 -1.65435 0
M  V30 41286 C 4061.98 1.85729 -0.33914 0
M  V30 41287 O 4061.34 1.69387 0.679286 0
M  V30 41288 C 4061.39 2.34866 -2.7481 0
M  V30 41289 O 4061.11 1.7591 -4.01232 0
M  V30 41290 C 4062.61 3.25681 -3.00743 0
M  V30 41291 H 4059.83 0.375649 -0.555993 0
M  V30 41292 H 4062.38 0.557649 -1.9675 0
M  V30 41293 H 4060.53 2.99123 -2.46179 0
M  V30 41294 H 4060.95 2.48779 -4.61746 0
M  V30 41295 H 4062.42 3.99497 -3.80928 0
M  V30 41296 H 4062.9 3.84672 -2.11953 0
M  V30 41297 H 4063.5 2.67157 -3.30919 0
M  V30 41298 N 4061.82 1.40143 0.720948 0
M  V30 41299 C 4063.06 1.38335 1.48294 0
M  V30 41300 C 4063.4 -0.016185 1.94193 0
M  V30 41301 O 4062.67 -0.983823 1.67783 0
M  V30 41302 C 4062.96 2.36812 2.71279 0
M  V30 41303 C 4062.81 3.85767 2.31309 0
M  V30 41304 C 4064.13 2.32904 3.73422 0
M  V30 41305 H 4061.25 0.503803 0.537914 0
M  V30 41306 H 4063.89 1.71239 0.823235 0
M  V30 41307 H 4062.04 2.08883 3.27567 0
M  V30 41308 H 4063.71 4.24502 1.80544 0
M  V30 41309 H 4061.95 4.01861 1.63372 0
M  V30 41310 H 4062.62 4.50179 3.19441 0
M  V30 41311 H 4065.1 2.5763 3.2675 0
M  V30 41312 H 4063.98 3.03864 4.57119 0
M  V30 41313 H 4064.24 1.33883 4.2134 0
M  V30 41314 N 4063.3 -0.952612 1.25551 0
M  V30 41315 C 4064.71 -1.22405 1.02416 0
M  V30 41316 C 4064.91 -1.99844 -0.257772 0
M  V30 41317 O 4063.97 -2.33127 -0.969958 0
M  V30 41318 C 4065.28 -1.99647 2.24859 0
M  V30 41319 C 4066.83 -2.12682 2.29642 0
M  V30 41320 C 4067.3 -2.93323 3.51747 0
M  V30 41321 N 4068.8 -3.009 3.52155 0
M  V30 41322 C 4069.53 -3.63695 4.43298 0
M  V30 41323 N 4069.03 -4.28084 5.44716 0
M  V30 41324 N 4070.82 -3.60855 4.30975 0
M  V30 41325 H 4062.97 -0.43461 2.07906 0
M  V30 41326 H 4065.23 -0.254756 0.913128 0
M  V30 41327 H 4064.94 -1.50145 3.1804 0
M  V30 41328 H 4064.81 -3.00346 2.28193 0
M  V30 41329 H 4067.2 -2.6138 1.36983 0
M  V30 41330 H 4067.28 -1.11281 2.30326 0
M  V30 41331 H 4066.93 -2.45314 4.44728 0
M  V30 41332 H 4066.86 -3.94954 3.48308 0
M  V30 41333 H 4069.35 -2.55113 2.78793 0
M  V30 41334 H 4069.66 -4.73862 6.10471 0
M  V30 41335 H 4068 -4.26706 5.48587 0
M  V30 41336 H 4071.2 -3.09738 3.5097 0
M  V30 41337 H 4071.37 -4.09507 5.02203 0
M  V30 41338 N 4064.77 -1.0717 -1.15553 0
M  V30 41339 C 4065.72 -0.684665 -2.22295 0
M  V30 41340 C 4066.72 0.303645 -1.66656 0
M  V30 41341 O 4067.92 0.167556 -1.79218 0
M  V30 41342 H 4064.3 -0.203319 -0.723993 0
M  V30 41343 H 4066.27 -1.5946 -2.5222 0
M  V30 41344 C 4065.02 -0.0965729 -3.47566 0
M  V30 41345 H 4064.34 -0.848191 -3.90699 0
M  V30 41346 H 4065.78 0.136596 -4.2378 0
M  V30 41347 C 4064.24 1.16225 -3.16217 0
M  V30 41348 O 4064.77 2.24897 -3.32842 0
M  V30 41349 N 4062.98 1.06769 -2.70275 0
M  V30 41350 H 4062.52 0.183312 -2.56947 0
M  V30 41351 H 4062.48 1.91076 -2.49674 0
M  V30 41352 N 4066.25 1.32356 -0.855542 0
M  V30 41353 C 4067.5 1.96832 -0.458449 0
M  V30 41354 C 4067.82 1.68034 0.989431 0
M  V30 41355 O 4067.09 0.988025 1.69159 0
M  V30 41356 H 4065.67 0.728199 -0.16654 0
M  V30 41357 H 4068.33 1.61424 -1.09216 0
M  V30 41358 H 4067.43 3.06195 -0.604239 0
M  V30 41359 N 4067.73 0.613565 1.45166 0
M  V30 41360 C 4068.98 0.110879 2.01796 0
M  V30 41361 C 4069.3 -1.26531 1.48374 0
M  V30 41362 O 4068.57 -1.83706 0.680355 0
M  V30 41363 H 4067.15 0.0379992 0.746033 0
M  V30 41364 H 4069.81 0.79631 1.7789 0
M  V30 41365 H 4068.91 0.0651961 3.12032 0
M  V30 41366 N 4069.21 -1.53594 0.353071 0
M  V30 41367 C 4070.43 -2.05956 -0.244273 0
M  V30 41368 C 4070.86 -1.22573 -1.42679 0
M  V30 41369 O 4070.22 -0.241755 -1.79681 0
M  V30 41370 C 4070.27 -3.55089 -0.628021 0
M  V30 41371 O 4069.37 -3.74504 -1.72687 0
M  V30 41372 H 4068.71 -0.662881 -0.0385253 0
M  V30 41373 H 4071.24 -1.98141 0.510048 0
M  V30 41374 H 4071.25 -3.97893 -0.902527 0
M  V30 41375 H 4069.93 -4.15226 0.236716 0
M  V30 41376 H 4068.5 -3.43601 -1.44889 0
M  V30 41377 N 4070.69 -0.0819208 -1.57387 0
M  V30 41378 C 4072.1 0.449223 -1.81215 0
M  V30 41379 C 4072.45 1.69004 -0.996592 0
M  V30 41380 O 4071.57 2.15258 -0.222068 0
M  V30 41381 C 4072.17 0.821769 -3.28683 0
M  V30 41382 C 4070.73 1.29772 -3.53322 0
M  V30 41383 C 4069.88 0.287862 -2.75802 0
M  V30 41384 H 4072.83 -0.307513 -1.55692 0
M  V30 41385 H 4072.85 1.68239 -3.41286 0
M  V30 41386 H 4072.36 -0.0815092 -3.88014 0
M  V30 41387 H 4070.46 2.21916 -2.99306 0
M  V30 41388 H 4070.57 1.26866 -4.61998 0
M  V30 41389 H 4068.94 0.767267 -2.42868 0
M  V30 41390 H 4069.72 -0.607865 -3.37876 0
M  V30 41391 N 4072.17 1.5643 0.191702 0
M  V30 41392 C 4073.08 1.98022 1.25795 0
M  V30 41393 C 4074.09 0.888405 1.49611 0
M  V30 41394 O 4075.27 1.19443 1.62159 0
M  V30 41395 C 4072.33 2.31425 2.58154 0
M  V30 41396 C 4071.39 3.54331 2.4238 0
M  V30 41397 C 4070.63 3.86131 3.68427 0
M  V30 41398 O 4070.85 3.19174 4.72741 0
M  V30 41399 O 4069.78 4.79549 3.63754 0
M  V30 41400 H 4073.61 2.8895 0.934962 0
M  V30 41401 H 4071.19 1.4403 0.39697 0
M  V30 41402 H 4073.08 2.5397 3.3627 0
M  V30 41403 H 4071.75 1.43664 2.90073 0
M  V30 41404 H 4070.66 3.3703 1.62363 0
M  V30 41405 H 4071.99 4.42569 2.15392 0
M  V30 41406 N 4073.64 -0.459538 1.50751 0
M  V30 41407 C 4074.87 -1.23839 1.66369 0
M  V30 41408 C 4075.29 -1.84789 0.351387 0
M  V30 41409 O 4074.65 -1.67818 -0.686073 0
M  V30 41410 C 4074.7 -2.31444 2.76525 0
M  V30 41411 O 4073.8 -3.36382 2.38582 0
M  V30 41412 H 4073.14 -0.363823 0.555454 0
M  V30 41413 H 4075.67 -0.545503 1.97194 0
M  V30 41414 H 4075.68 -2.76578 2.99948 0
M  V30 41415 H 4074.36 -1.86456 3.71762 0
M  V30 41416 H 4072.94 -2.96879 2.25648 0
M  V30 41417 N 4075.12 -1.40523 -0.713506 0
M  V30 41418 C 4076.53 -1.34704 -1.29273 0
M  V30 41419 C 4076.88 -0.0215207 -1.96188 0
M  V30 41420 O 4076.01 0.880479 -1.97678 0
M  V30 41421 C 4076.6 -2.43975 -2.35078 0
M  V30 41422 C 4075.16 -2.4161 -2.8862 0
M  V30 41423 C 4074.31 -2.24746 -1.62433 0
M  V30 41424 H 4077.26 -1.50299 -0.50949 0
M  V30 41425 H 4077.28 -2.12002 -3.15968 0
M  V30 41426 H 4076.79 -3.40436 -1.86347 0
M  V30 41427 H 4074.89 -1.48853 -3.41575 0
M  V30 41428 H 4075.01 -3.37271 -3.40272 0
M  V30 41429 H 4073.37 -1.72299 -1.87577 0
M  V30 41430 H 4074.15 -3.23207 -1.15724 0
M  V30 41431 N 4076.6 0.94594 -1.26054 0
M  V30 41432 C 4077.85 1.68601 -1.10709 0
M  V30 41433 C 4078.16 1.92441 0.350133 0
M  V30 41434 O 4079.37 2.64228 0.624178 0
M  V30 41435 C 4077.82 3.03577 -1.93311 0
M  V30 41436 C 4077.43 2.87502 -3.43579 0
M  V30 41437 C 4079.18 3.81307 -1.86561 0
M  V30 41438 C 4077.08 4.17921 -4.18445 0
M  V30 41439 H 4076.01 0.63233 -0.4107 0
M  V30 41440 H 4078.66 1.05237 -1.50324 0
M  V30 41441 H 4077.05 3.67894 -1.46526 0
M  V30 41442 H 4078.22 2.32063 -3.981 0
M  V30 41443 H 4076.53 2.23218 -3.51515 0
M  V30 41444 H 4079.13 4.7792 -2.39784 0
M  V30 41445 H 4079.47 4.07833 -0.835322 0
M  V30 41446 H 4080.01 3.23755 -2.31144 0
M  V30 41447 H 4076.75 3.9658 -5.21924 0
M  V30 41448 H 4076.27 4.73092 -3.68706 0
M  V30 41449 H 4077.95 4.86408 -4.26634 0
M  V30 41450 N 4078.08 1.07781 1.14983 0
M  V30 41451 C 4079.33 0.798593 1.85217 0
M  V30 41452 C 4079.64 -0.677903 1.83477 0
M  V30 41453 O 4080.85 -1.07205 2.49438 0
M  V30 41454 C 4079.3 1.37855 3.32452 0
M  V30 41455 C 4078.91 2.88637 3.42626 0
M  V30 41456 C 4080.65 1.17754 4.07841 0
M  V30 41457 C 4078.56 3.39802 4.84034 0
M  V30 41458 H 4077.49 0.295066 0.693867 0
M  V30 41459 H 4080.14 1.29843 1.29665 0
M  V30 41460 H 4078.52 0.806442 3.87702 0
M  V30 41461 H 4079.7 3.5193 2.97459 0
M  V30 41462 H 4078.01 3.07578 2.80686 0
M  V30 41463 H 4080.61 1.53453 5.12207 0
M  V30 41464 H 4080.95 0.116888 4.16136 0
M  V30 41465 H 4081.49 1.71624 3.58873 0
M  V30 41466 H 4078.22 4.45413 4.80924 0
M  V30 41467 H 4077.74 2.81266 5.29764 0
M  V30 41468 H 4079.42 3.36015 5.52904 0
M  V30 41469 N 4079.56 -1.31901 0.862549 0
M  V30 41470 C 4080.8 -1.96586 0.468881 0
M  V30 41471 C 4081.12 -1.68556 -0.980506 0
M  V30 41472 O 4080.39 -0.996982 -1.68633 0
M  V30 41473 H 4078.97 -0.727305 0.1704 0
M  V30 41474 H 4081.64 -1.60843 1.10071 0
M  V30 41475 H 4080.73 -3.0587 0.620469 0
M  V30 41476 N 4081.03 -0.621255 -1.44838 0
M  V30 41477 C 4081.97 0.12784 -2.28843 0
M  V30 41478 C 4082.98 0.818517 -1.40727 0
M  V30 41479 O 4084.17 0.681616 -1.64973 0
M  V30 41480 C 4081.27 1.20275 -3.16839 0
M  V30 41481 C 4080.44 0.596523 -4.33313 0
M  V30 41482 C 4079.5 1.5641 -5.02416 0
M  V30 41483 O 4078.53 1.08508 -5.58762 0
M  V30 41484 N 4079.73 2.89851 -5.02958 0
M  V30 41485 H 4082.49 -0.593045 -2.93774 0
M  V30 41486 H 4080.05 -0.461707 -1.55177 0
M  V30 41487 H 4082.05 1.85015 -3.59933 0
M  V30 41488 H 4080.62 1.82599 -2.53725 0
M  V30 41489 H 4079.84 -0.229272 -3.93533 0
M  V30 41490 H 4081.12 0.171971 -5.08509 0
M  V30 41491 H 4080.52 3.31359 -4.58495 0
M  V30 41492 H 4079.08 3.49978 -5.49872 0
M  V30 41493 N 4082.51 1.53405 -0.361211 0
M  V30 41494 C 4083.74 2.05311 0.230394 0
M  V30 41495 C 4084.15 1.23477 1.43353 0
M  V30 41496 O 4083.49 0.267335 1.81744 0
M  V30 41497 C 4083.56 3.52773 0.692179 0
M  V30 41498 C 4083.22 4.55301 -0.393677 0
M  V30 41499 C 4084.22 5.04844 -1.24213 0
M  V30 41500 C 4081.9 4.9925 -0.552668 0
M  V30 41501 C 4083.9 5.96933 -2.23496 0
M  V30 41502 C 4081.58 5.91146 -1.54887 0
M  V30 41503 C 4082.58 6.39877 -2.38845 0
M  V30 41504 O 4082.27 7.29961 -3.36766 0
M  V30 41505 H 4082 0.674495 0.0450891 0
M  V30 41506 H 4084.55 1.98797 -0.516622 0
M  V30 41507 H 4082.78 3.56811 1.49073 0
M  V30 41508 H 4084.47 3.87561 1.2063 0
M  V30 41509 H 4085.24 4.71641 -1.13047 0
M  V30 41510 H 4081.12 4.6091 0.0910388 0
M  V30 41511 H 4084.66 6.34892 -2.89065 0
M  V30 41512 H 4080.56 6.23763 -1.66102 0
M  V30 41513 H 4081.33 7.47946 -3.32444 0
M  V30 41514 N 4083.99 0.0902663 1.57341 0
M  V30 41515 C 4085.23 -0.578006 1.96057 0
M  V30 41516 C 4085.59 -1.65649 0.970795 0
M  V30 41517 O 4086.8 -2.38163 1.24627 0
M  V30 41518 C 4085.07 -1.12322 3.39291 0
M  V30 41519 S 4086.63 -1.80404 4 0
M  V30 41520 H 4083.44 -0.18875 0.685488 0
M  V30 41521 H 4086.05 0.168521 1.94772 0
M  V30 41522 H 4084.75 -0.326714 4.09097 0
M  V30 41523 H 4084.28 -1.90568 3.44162 0
M  V30 41524 H 4086.3 -3.08791 3.8841 0
M  V30 41525 N 4085.47 -1.56529 -0.183403 0
M  V30 41526 C 4086.72 -1.80945 -0.900182 0
M  V30 41527 C 4087.04 -0.665278 -1.833 0
M  V30 41528 O 4086.31 0.315663 -1.9334 0
M  V30 41529 H 4084.89 -0.667471 -0.335397 0
M  V30 41530 H 4087.55 -1.94009 -0.186112 0
M  V30 41531 H 4086.65 -2.74544 -1.48432 0
M  V30 41532 N 4086.95 0.451537 -1.50993 0
M  V30 41533 C 4087.89 1.56767 -1.71834 0
M  V30 41534 C 4088.89 1.59001 -0.584394 0
M  V30 41535 O 4090.09 1.62915 -0.765414 0
M  V30 41536 H 4086.47 0.52056 -0.542698 0
M  V30 41537 H 4088.44 1.36358 -2.65422 0
M  V30 41538 C 4087.19 2.94551 -1.84757 0
M  V30 41539 H 4086.51 2.93558 -2.7141 0
M  V30 41540 H 4087.95 3.72051 -2.03357 0
M  V30 41541 C 4086.41 3.31444 -0.603866 0
M  V30 41542 O 4086.94 4.00934 0.248029 0
M  V30 41543 N 4085.15 2.87061 -0.452119 0
M  V30 41544 H 4084.69 2.30684 -1.14642 0
M  V30 41545 H 4084.65 3.12109 0.378823 0
M  V30 41546 N 4088.42 1.409 0.706044 0
M  V30 41547 C 4089.65 1.43224 1.50006 0
M  V30 41548 C 4090.07 0.0362488 1.88065 0
M  V30 41549 O 4089.43 -0.958009 1.53922 0
M  V30 41550 C 4089.48 2.33756 2.74573 0
M  V30 41551 O 4088.58 1.78738 3.71654 0
M  V30 41552 H 4087.93 0.486509 0.451891 0
M  V30 41553 H 4090.46 1.85241 0.868739 0
M  V30 41554 H 4090.47 2.49272 3.22998 0
M  V30 41555 H 4089.14 3.35193 2.46208 0
M  V30 41556 H 4087.72 1.72618 3.30541 0
M  V30 41557 N 4089.9 -0.939242 1.26554 0
M  V30 41558 C 4090.85 -2.05956 1.08096 0
M  V30 41559 C 4091.84 -1.69398 0.00733257 0
M  V30 41560 O 4093.05 -1.7925 0.164163 0
M  V30 41561 H 4089.43 -0.674389 0.332722 0
M  V30 41562 H 4091.4 -2.18676 2.03036 0
M  V30 41563 C 4090.15 -3.39892 0.732732 0
M  V30 41564 H 4089.47 -3.685 1.55074 0
M  V30 41565 H 4090.91 -4.1909 0.643378 0
M  V30 41566 C 4089.37 -3.32175 -0.562242 0
M  V30 41567 O 4089.9 -3.6846 -1.6 0
M  V30 41568 N 4088.1 -2.85278 -0.553593 0
M  V30 41569 H 4087.65 -2.55948 0.29131 0
M  V30 41570 H 4087.61 -2.80498 -1.42015 0
M  V30 41571 N 4091.38 -1.08389 -1.14409 0
M  V30 41572 C 4092.79 -0.834509 -1.67011 0
M  V30 41573 C 4093.14 0.638769 -1.85511 0
M  V30 41574 O 4092.27 1.49336 -1.56614 0
M  V30 41575 C 4092.86 -1.5083 -3.03374 0
M  V30 41576 C 4091.42 -1.30616 -3.53011 0
M  V30 41577 C 4090.57 -1.57121 -2.28491 0
M  V30 41578 H 4093.52 -1.2445 -0.984772 0
M  V30 41579 H 4093.54 -0.935416 -3.68823 0
M  V30 41580 H 4093.05 -2.58055 -2.89878 0
M  V30 41581 H 4091.15 -0.254604 -3.71729 0
M  V30 41582 H 4091.27 -2.03367 -4.33796 0
M  V30 41583 H 4089.63 -0.992751 -2.34556 0
M  V30 41584 H 4090.41 -2.65551 -2.17572 0
M  V30 41585 N 4092.86 1.31442 -0.869532 0
M  V30 41586 C 4094.27 1.49401 -0.561395 0
M  V30 41587 C 4094.47 1.80055 0.904578 0
M  V30 41588 O 4093.53 1.87894 1.68678 0
M  V30 41589 C 4094.84 2.62809 -1.46123 0
M  V30 41590 C 4096.39 2.76693 -1.46322 0
M  V30 41591 C 4096.87 3.93197 -2.34862 0
M  V30 41592 N 4098.36 4.00483 -2.32739 0
M  V30 41593 C 4099.09 4.89901 -2.97967 0
M  V30 41594 N 4098.59 5.84224 -3.72363 0
M  V30 41595 N 4100.38 4.83143 -2.87278 0
M  V30 41596 H 4092.53 1.09813 -1.8181 0
M  V30 41597 H 4094.8 0.542577 -0.777376 0
M  V30 41598 H 4094.5 2.46932 -2.50435 0
M  V30 41599 H 4094.38 3.58938 -1.15945 0
M  V30 41600 H 4096.76 2.91984 -0.427685 0
M  V30 41601 H 4096.84 1.81232 -1.80524 0
M  V30 41602 H 4096.49 3.78663 -3.38492 0
M  V30 41603 H 4096.42 4.87965 -1.97985 0
M  V30 41604 H 4098.91 3.32998 -1.78663 0
M  V30 41605 H 4099.22 6.49182 -4.19264 0
M  V30 41606 H 4097.57 5.84204 -3.76472 0
M  V30 41607 H 4100.76 4.08431 -2.28696 0
M  V30 41608 H 4100.93 5.52625 -3.38393 0
M  V30 41609 N 4094.34 0.628927 1.44507 0
M  V30 41610 C 4095.56 0.139546 2.06429 0
M  V30 41611 C 4095.98 -1.18496 1.46983 0
M  V30 41612 O 4095.34 -1.72635 0.591886 0
M  V30 41613 C 4095.39 0.0162586 3.61496 0
M  V30 41614 O 4095.11 1.28838 4.18727 0
M  V30 41615 C 4096.61 -0.502077 4.40448 0
M  V30 41616 H 4093.83 0.0786596 0.666374 0
M  V30 41617 H 4096.37 0.862707 1.85412 0
M  V30 41618 H 4094.53 -0.657331 3.81783 0
M  V30 41619 H 4094.94 1.1318 5.12143 0
M  V30 41620 H 4096.42 -0.537361 5.49378 0
M  V30 41621 H 4096.89 -1.52869 4.11738 0
M  V30 41622 H 4097.5 0.138188 4.25075 0
M  V30 41623 N 4095.82 -1.53211 0.369342 0
M  V30 41624 C 4097.06 -2.00493 -0.220312 0
M  V30 41625 C 4097.38 -1.26061 -1.49559 0
M  V30 41626 O 4098.58 -1.63951 -2.16408 0
M  V30 41627 C 4097.04 -3.57161 -0.443155 0
M  V30 41628 C 4096.65 -4.40474 0.817712 0
M  V30 41629 C 4098.39 -4.12788 -0.99026 0
M  V30 41630 C 4096.3 -5.88702 0.564246 0
M  V30 41631 H 4095.23 -0.749067 -0.0861041 0
M  V30 41632 H 4097.88 -1.76874 0.488663 0
M  V30 41633 H 4096.26 -3.76949 -1.21348 0
M  V30 41634 H 4097.44 -4.32458 1.59112 0
M  V30 41635 H 4095.75 -3.95969 1.28831 0
M  V30 41636 H 4098.35 -5.21169 -1.19527 0
M  V30 41637 H 4098.69 -3.67619 -1.95351 0
M  V30 41638 H 4099.22 -3.96813 -0.280003 0
M  V30 41639 H 4095.96 -6.38155 1.49793 0
M  V30 41640 H 4095.48 -5.99557 -0.170597 0
M  V30 41641 H 4097.16 -6.46717 0.191186 0
M  V30 41642 N 4097.29 -0.0986092 -1.57291 0
M  V30 41643 C 4098.23 0.889146 -2.11251 0
M  V30 41644 C 4099.24 1.24369 -1.05054 0
M  V30 41645 O 4100.43 1.19619 -1.3249 0
M  V30 41646 C 4097.53 2.19719 -2.58025 0
M  V30 41647 C 4096.7 2.01745 -3.88095 0
M  V30 41648 C 4095.76 3.16094 -4.20679 0
M  V30 41649 O 4094.79 2.89903 -4.89842 0
M  V30 41650 N 4095.99 4.41963 -3.76363 0
M  V30 41651 H 4098.75 0.428268 -2.96624 0
M  V30 41652 H 4096.31 0.086397 -1.61669 0
M  V30 41653 H 4098.31 2.95173 -2.76866 0
M  V30 41654 H 4096.88 2.5722 -1.77642 0
M  V30 41655 H 4096.1 1.10601 -3.78366 0
M  V30 41656 H 4097.38 1.87017 -4.73183 0
M  V30 41657 H 4096.78 4.66122 -3.20541 0
M  V30 41658 H 4095.34 5.14354 -4.00353 0
M  V30 41659 N 4098.77 1.56624 0.175099 0
M  V30 41660 C 4100 1.86269 0.912066 0
M  V30 41661 C 4100.42 0.684516 1.75203 0
M  V30 41662 O 4099.78 -0.36647 1.77558 0
M  V30 41663 C 4099.83 3.143 1.76771 0
M  V30 41664 O 4098.93 2.96258 2.86889 0
M  V30 41665 H 4098.27 0.612784 0.255717 0
M  V30 41666 H 4100.8 2.03856 0.17438 0
M  V30 41667 H 4100.81 3.45608 2.16839 0
M  V30 41668 H 4099.49 3.99665 1.1507 0
M  V30 41669 H 4098.06 2.76295 2.50431 0
M  V30 41670 N 4100.25 -0.443523 1.5123 0
M  V30 41671 C 4101.5 -1.19111 1.63269 0
M  V30 41672 C 4101.82 -1.91866 0.348185 0
M  V30 41673 O 4101.09 -1.85299 -0.635691 0
M  V30 41674 H 4099.67 -0.442669 0.601709 0
M  V30 41675 H 4102.33 -0.509101 1.88133 0
M  V30 41676 H 4101.43 -1.92407 2.45736 0
M  V30 41677 N 4101.73 -1.41272 -0.698562 0
M  V30 41678 C 4102.95 -1.44017 -1.49244 0
M  V30 41679 C 4103.38 -0.0462219 -1.88043 0
M  V30 41680 O 4102.74 0.949833 -1.54428 0
M  V30 41681 C 4102.78 -2.35209 -2.7333 0
M  V30 41682 O 4101.89 -1.80706 -3.70701 0
M  V30 41683 H 4101.23 -0.488899 -0.449304 0
M  V30 41684 H 4103.76 -1.85699 -0.858903 0
M  V30 41685 H 4103.77 -2.50981 -3.21671 0
M  V30 41686 H 4102.44 -3.36494 -2.44427 0
M  V30 41687 H 4101.02 -1.74369 -3.29621 0
M  V30 41688 N 4103.21 0.932517 -1.27051 0
M  V30 41689 C 4104.15 2.0538 -1.09187 0
M  V30 41690 C 4105.15 1.69392 -0.0163161 0
M  V30 41691 O 4106.35 1.7916 -0.173667 0
M  V30 41692 H 4102.73 0.672615 -0.336294 0
M  V30 41693 H 4104.7 2.17596 -2.04193 0
M  V30 41694 C 4103.45 3.39498 -0.750747 0
M  V30 41695 H 4102.77 3.67672 -1.57026 0
M  V30 41696 H 4104.21 4.18743 -0.665595 0
M  V30 41697 C 4102.67 3.32469 0.544618 0
M  V30 41698 O 4103.2 3.69303 1.58044 0
M  V30 41699 N 4101.41 2.85568 0.538456 0
M  V30 41700 H 4100.95 2.55789 -0.304879 0
M  V30 41701 H 4100.91 2.81247 1.40525 0
M  V30 41702 N 4104.68 1.08995 1.13833 0
M  V30 41703 C 4105.62 0.683216 2.1878 0
M  V30 41704 C 4106.63 -0.27272 1.60499 0
M  V30 41705 O 4107.82 -0.0594506 1.78401 0
M  V30 41706 C 4104.92 -0.0146128 3.38897 0
M  V30 41707 C 4104.09 0.961741 4.26696 0
M  V30 41708 C 4103.15 0.298133 5.25355 0
M  V30 41709 O 4102.18 0.944401 5.61311 0
M  V30 41710 N 4103.38 -0.949544 5.72681 0
M  V30 41711 H 4106.14 1.58609 2.5429 0
M  V30 41712 H 4103.7 0.976815 1.29112 0
M  V30 41713 H 4105.7 -0.469653 4.01966 0
M  V30 41714 H 4104.27 -0.819669 3.01662 0
M  V30 41715 H 4103.49 1.59546 3.6047 0
M  V30 41716 H 4104.77 1.62314 4.82215 0
M  V30 41717 H 4104.17 -1.49424 5.45609 0
M  V30 41718 H 4102.73 -1.34798 6.37709 0
M  V30 41719 N 4106.16 -1.30979 0.87649 0
M  V30 41720 C 4107.09 -2.30817 0.352965 0
M  V30 41721 C 4108.07 -1.6063 -0.559647 0
M  V30 41722 O 4109.26 -1.88294 -0.475293 0
M  V30 41723 C 4106.39 -3.44492 -0.440767 0
M  V30 41724 C 4105.34 -4.26316 0.379328 0
M  V30 41725 C 4104.67 -5.31961 -0.540489 0
M  V30 41726 C 4105.97 -4.96642 1.6169 0
M  V30 41727 H 4107.66 -2.74854 1.18724 0
M  V30 41728 H 4105.21 -1.32137 0.572339 0
M  V30 41729 H 4107.16 -4.13393 -0.817588 0
M  V30 41730 H 4105.88 -2.99237 -1.30861 0
M  V30 41731 H 4104.54 -3.59091 0.73818 0
M  V30 41732 H 4104.19 -4.82956 -1.4058 0
M  V30 41733 H 4103.89 -5.876 0.00437462 0
M  V30 41734 H 4105.42 -6.0372 -0.914012 0
M  V30 41735 H 4106.83 -5.58105 1.31115 0
M  V30 41736 H 4105.23 -5.62107 2.10132 0
M  V30 41737 H 4106.3 -4.23254 2.36609 0
M  V30 41738 N 4107.64 -0.636582 -1.44171 0
M  V30 41739 C 4108.89 -0.143464 -2.02292 0
M  V30 41740 C 4109.22 1.23346 -1.49998 0
M  V30 41741 O 4108.49 1.81991 -0.68626 0
M  V30 41742 C 4108.78 -0.136088 -3.59843 0
M  V30 41743 C 4108.63 -1.54574 -4.22406 0
M  V30 41744 C 4109.95 0.536461 -4.36818 0
M  V30 41745 H 4107.07 -0.0536068 -0.735048 0
M  V30 41746 H 4109.71 -0.814096 -1.71675 0
M  V30 41747 H 4107.86 0.43498 -3.86057 0
M  V30 41748 H 4109.53 -2.16611 -4.0728 0
M  V30 41749 H 4107.77 -2.098 -3.79692 0
M  V30 41750 H 4108.45 -1.49257 -5.31438 0
M  V30 41751 H 4110.92 0.0507595 -4.16069 0
M  V30 41752 H 4109.8 0.51083 -5.46518 0
M  V30 41753 H 4110.06 1.60776 -4.11829 0
M  V30 41754 N 4109.12 1.53013 -0.377462 0
M  V30 41755 C 4110.36 2.01722 0.208803 0
M  V30 41756 C 4110.7 1.26388 1.47444 0
M  V30 41757 O 4109.97 0.360937 1.91122 0
M  V30 41758 C 4110.25 3.56768 0.488737 0
M  V30 41759 C 4110.11 4.42784 -0.791363 0
M  V30 41760 C 4111.43 4.20942 1.28436 0
M  V30 41761 H 4108.55 0.733234 0.0744153 0
M  V30 41762 H 4111.19 1.83174 -0.504697 0
M  V30 41763 H 4109.34 3.72703 1.09656 0
M  V30 41764 H 4111.01 4.38623 -1.42856 0
M  V30 41765 H 4109.25 4.10273 -1.40922 0
M  V30 41766 H 4109.92 5.4925 -0.550296 0
M  V30 41767 H 4112.4 4.08912 0.770075 0
M  V30 41768 H 4111.28 5.2943 1.44897 0
M  V30 41769 H 4111.54 3.7779 2.29625 0
M  V30 41770 N 4110.6 0.106949 1.57237 0
M  V30 41771 C 4111.82 -0.562003 1.99121 0
M  V30 41772 C 4112.24 -1.60985 0.986366 0
M  V30 41773 O 4111.6 -1.82486 -0.0224291 0
M  V30 41774 C 4111.65 -1.19903 3.41036 0
M  V30 41775 O 4111.37 -0.193081 4.37674 0
M  V30 41776 C 4112.87 -1.95246 3.97987 0
M  V30 41777 H 4110.09 -0.149761 0.654074 0
M  V30 41778 H 4112.63 0.189735 2.03618 0
M  V30 41779 H 4110.79 -1.90163 3.37516 0
M  V30 41780 H 4111.2 -0.654369 5.20402 0
M  V30 41781 H 4112.68 -2.35162 4.99403 0
M  V30 41782 H 4113.15 -2.82297 3.36459 0
M  V30 41783 H 4113.76 -1.29776 4.05016 0
M  V30 41784 N 4112.07 -1.56715 -0.166791 0
M  V30 41785 C 4113.32 -1.8225 -0.882683 0
M  V30 41786 C 4113.65 -0.684748 -1.82048 0
M  V30 41787 O 4112.9 0.327683 -1.92937 0
M  V30 41788 C 4113.2 -3.13985 -1.70729 0
M  V30 41789 C 4112.87 -4.41456 -0.918018 0
M  V30 41790 C 4111.53 -4.76078 -0.700203 0
M  V30 41791 C 4113.88 -5.19922 -0.364699 0
M  V30 41792 C 4111.21 -5.86643 0.0819581 0
M  V30 41793 C 4113.56 -6.31306 0.404397 0
M  V30 41794 C 4112.23 -6.64492 0.632971 0
M  V30 41795 H 4111.5 -0.666899 -0.322997 0
M  V30 41796 H 4114.14 -1.90932 -0.147367 0
M  V30 41797 H 4112.45 -3.00665 -2.51213 0
M  V30 41798 H 4114.15 -3.30953 -2.26432 0
M  V30 41799 H 4110.74 -4.14301 -1.09783 0
M  V30 41800 H 4114.92 -4.93565 -0.520307 0
M  V30 41801 H 4110.18 -6.10809 0.268745 0
M  V30 41802 H 4114.35 -6.91311 0.840381 0
M  V30 41803 H 4111.98 -7.50003 1.24092 0
M  V30 41804 N 4113.55 0.435497 -1.51463 0
M  V30 41805 C 4114.5 1.54936 -1.73487 0
M  V30 41806 C 4115.49 1.58372 -0.601225 0
M  V30 41807 O 4116.7 1.62094 -0.78265 0
M  V30 41808 H 4113.08 0.514775 -0.548189 0
M  V30 41809 H 4115.05 1.33536 -2.66854 0
M  V30 41810 C 4113.8 2.92575 -1.87871 0
M  V30 41811 H 4113.12 2.90663 -2.74509 0
M  V30 41812 H 4114.56 3.69873 -2.07291 0
M  V30 41813 C 4113.02 3.30785 -0.638986 0
M  V30 41814 O 4113.55 4.01174 0.20549 0
M  V30 41815 N 4111.75 2.86566 -0.482541 0
M  V30 41816 H 4111.3 2.29455 -1.17082 0
M  V30 41817 H 4111.26 3.12494 0.345698 0
M  V30 41818 N 4115.03 1.41641 0.69106 0
M  V30 41819 C 4116.26 1.44806 1.48478 0
M  V30 41820 C 4116.68 0.0561936 1.88016 0
M  V30 41821 O 4116.04 -0.94163 1.54929 0
M  V30 41822 C 4116.09 2.36655 2.72079 0
M  V30 41823 O 4115.19 1.8267 3.69737 0
M  V30 41824 H 4114.53 0.491274 0.446705 0
M  V30 41825 H 4117.06 1.86152 0.849043 0
M  V30 41826 H 4117.07 2.52683 3.20336 0
M  V30 41827 H 4115.75 3.37786 2.42639 0
M  V30 41828 H 4114.32 1.76114 3.28692 0
M  V30 41829 N 4116.51 -0.925766 1.27543 0
M  V30 41830 C 4117.79 -1.65208 1.04717 0
M  V30 41831 C 4118.17 -2.06931 -0.417456 0
M  V30 41832 O 4117.51 -1.80504 -1.40109 0
M  V30 41833 C 4117.72 -2.85268 2.01055 0
M  V30 41834 C 4119.07 -3.56567 2.30533 0
M  V30 41835 O 4120.1 -2.95398 1.99044 0
M  V30 41836 O 4118.95 -4.66778 2.84219 0
M  V30 41837 H 4116.05 -0.724195 0.399338 0
M  V30 41838 H 4118.59 -0.976132 1.38816 0
M  V30 41839 H 4117.37 -2.51442 2.99821 0
M  V30 41840 H 4116.99 -3.60582 1.67529 0
M  V30 41841 N 4117.99 -1.09597 -1.13253 0
M  V30 41842 C 4118.94 -0.706363 -2.16782 0
M  V30 41843 C 4119.92 0.280154 -1.58442 0
M  V30 41844 O 4121.11 0.090246 -1.7677 0
M  V30 41845 C 4118.24 -0.130393 -3.43052 0
M  V30 41846 C 4117.33 -1.14343 -4.08395 0
M  V30 41847 N 4117.72 -2.33115 -4.48877 0
M  V30 41848 C 4116.02 -0.98197 -4.35056 0
M  V30 41849 C 4116.72 -2.9757 -4.99827 0
M  V30 41850 N 4115.69 -2.25123 -4.94793 0
M  V30 41851 H 4119.5 -1.61062 -2.45838 0
M  V30 41852 H 4117.01 -0.972438 -1.30067 0
M  V30 41853 H 4119.01 0.166751 -4.16566 0
M  V30 41854 H 4117.67 0.768693 -3.1547 0
M  V30 41855 H 4118.68 -2.70696 -4.41525 0
M  V30 41856 H 4115.35 -0.137714 -4.17273 0
M  V30 41857 H 4116.74 -3.98551 -5.40931 0
M  V30 41858 N 4119.46 1.30512 -0.883424 0
M  V30 41859 C 4120.69 2.00899 -0.515221 0
M  V30 41860 C 4121.11 1.65794 0.888486 0
M  V30 41861 O 4120.47 0.87372 1.58858 0
M  V30 41862 C 4120.52 3.53832 -0.695353 0
M  V30 41863 O 4119.62 4.11583 0.259444 0
M  V30 41864 H 4118.97 0.632137 -0.203221 0
M  V30 41865 H 4121.5 1.66395 -1.19054 0
M  V30 41866 H 4121.51 4.03656 -0.593759 0
M  V30 41867 H 4120.18 3.78721 -1.71881 0
M  V30 41868 H 4118.76 3.72733 0.111675 0
M  V30 41869 N 4120.94 0.644219 1.43832 0
M  V30 41870 C 4121.87 -0.0394501 2.33467 0
M  V30 41871 C 4122.85 -0.821312 1.48958 0
M  V30 41872 O 4124.04 -0.784587 1.77645 0
M  V30 41873 C 4121.17 -1.01272 3.32207 0
M  V30 41874 C 4120.12 -0.341591 4.26635 0
M  V30 41875 C 4119.45 -1.42568 5.15343 0
M  V30 41876 C 4120.75 0.76039 5.16735 0
M  V30 41877 H 4122.44 0.709076 2.90882 0
M  V30 41878 H 4119.99 0.342437 1.39869 0
M  V30 41879 H 4121.94 -1.49984 3.93806 0
M  V30 41880 H 4120.67 -1.79229 2.73028 0
M  V30 41881 H 4119.32 0.125001 3.66387 0
M  V30 41882 H 4118.97 -2.19646 4.52509 0
M  V30 41883 H 4118.67 -0.981928 5.79337 0
M  V30 41884 H 4120.2 -1.91434 5.79815 0
M  V30 41885 H 4121.61 0.355814 5.72195 0
M  V30 41886 H 4120.01 1.12806 5.89402 0
M  V30 41887 H 4121.08 1.62213 4.56963 0
M  V30 41888 N 4122.42 -1.52811 0.385571 0
M  V30 41889 C 4123.35 -2.2398 -0.486394 0
M  V30 41890 C 4124.37 -1.26092 -1.02979 0
M  V30 41891 O 4125.55 -1.52191 -0.932753 0
M  V30 41892 C 4122.65 -2.93962 -1.6864 0
M  V30 41893 C 4121.83 -4.18526 -1.27102 0
M  V30 41894 C 4120.89 -4.7154 -2.3353 0
M  V30 41895 O 4119.91 -5.34722 -1.95092 0
M  V30 41896 N 4121.11 -4.51074 -3.65393 0
M  V30 41897 H 4123.88 -2.99446 0.123323 0
M  V30 41898 H 4121.44 -1.60509 0.21174 0
M  V30 41899 H 4123.43 -3.2633 -2.39354 0
M  V30 41900 H 4122 -2.21827 -2.20254 0
M  V30 41901 H 4121.22 -3.92237 -0.392914 0
M  V30 41902 H 4122.51 -4.99466 -0.970104 0
M  V30 41903 H 4121.91 -4.00633 -3.99386 0
M  V30 41904 H 4120.47 -4.87941 -4.32153 0
M  V30 41905 N 4123.9 -0.115287 -1.57178 0
M  V30 41906 C 4125.15 0.542537 -1.94682 0
M  V30 41907 C 4125.47 1.67452 -0.99924 0
M  V30 41908 O 4124.74 1.95823 -0.0548704 0
M  V30 41909 H 4123.32 0.203409 -0.718773 0
M  V30 41910 H 4125.98 -0.183357 -1.94036 0
M  V30 41911 H 4125.08 0.939546 -2.97622 0
M  V30 41912 N 4125.38 1.56801 0.158477 0
M  V30 41913 C 4126.63 1.82354 0.871281 0
M  V30 41914 C 4126.95 0.694356 1.82219 0
M  V30 41915 O 4126.22 -0.284864 1.93818 0
M  V30 41916 H 4124.8 0.672723 0.324736 0
M  V30 41917 H 4127.46 1.94281 0.155223 0
M  V30 41918 H 4126.55 2.7687 1.44046 0
M  V30 41919 N 4126.86 -0.427458 1.51692 0
M  V30 41920 C 4128.1 -1.17373 1.64524 0
M  V30 41921 C 4128.42 -1.91486 0.368516 0
M  V30 41922 O 4127.69 -1.85963 -0.616002 0
M  V30 41923 H 4126.27 -0.436262 0.60637 0
M  V30 41924 H 4128.94 -0.489119 1.88663 0
M  V30 41925 H 4128.03 -1.89789 2.47763 0
M  V30 41926 N 4128.33 -1.42005 -0.683539 0
M  V30 41927 C 4129.58 -1.42008 -1.44361 0
M  V30 41928 C 4129.91 -0.0334174 -1.94471 0
M  V30 41929 O 4129.16 0.95676 -1.70718 0
M  V30 41930 C 4129.46 -2.38388 -2.66282 0
M  V30 41931 C 4129.13 -3.84964 -2.34762 0
M  V30 41932 C 4127.79 -4.24892 -2.25877 0
M  V30 41933 C 4130.14 -4.77459 -2.09004 0
M  V30 41934 C 4127.47 -5.55306 -1.89347 0
M  V30 41935 C 4129.82 -6.08205 -1.7398 0
M  V30 41936 C 4128.49 -6.47141 -1.63599 0
M  V30 41937 H 4127.76 -0.519644 -0.528253 0
M  V30 41938 H 4130.4 -1.74887 -0.780187 0
M  V30 41939 H 4128.71 -1.98805 -3.37615 0
M  V30 41940 H 4130.41 -2.35658 -3.24448 0
M  V30 41941 H 4127 -3.53348 -2.42576 0
M  V30 41942 H 4131.18 -4.47406 -2.14807 0
M  V30 41943 H 4126.44 -5.84343 -1.79871 0
M  V30 41944 H 4130.61 -6.79369 -1.53072 0
M  V30 41945 H 4128.24 -7.48106 -1.35062 0
M  V30 41946 N 4129.81 0.918989 -1.28033 0
M  V30 41947 C 4131.04 1.69901 -1.17547 0
M  V30 41948 C 4131.45 1.87275 0.269188 0
M  V30 41949 O 4130.79 1.39579 1.1943 0
M  V30 41950 C 4130.85 3.11401 -1.79638 0
M  V30 41951 C 4130.52 3.17332 -3.28861 0
M  V30 41952 C 4131.52 2.98923 -4.25372 0
M  V30 41953 C 4129.2 3.40012 -3.69725 0
M  V30 41954 C 4131.19 3.03098 -5.60723 0
M  V30 41955 C 4128.88 3.4382 -5.05204 0
M  V30 41956 C 4129.88 3.25383 -6.00512 0
M  V30 41957 O 4129.57 3.28942 -7.33521 0
M  V30 41958 H 4129.3 0.538055 -0.409234 0
M  V30 41959 H 4131.85 1.15903 -1.69575 0
M  V30 41960 H 4130.08 3.66918 -1.22097 0
M  V30 41961 H 4131.77 3.71407 -1.63743 0
M  V30 41962 H 4132.54 2.81233 -3.95137 0
M  V30 41963 H 4128.42 3.53411 -2.96009 0
M  V30 41964 H 4131.96 2.88625 -6.35092 0
M  V30 41965 H 4127.86 3.61037 -5.35091 0
M  V30 41966 H 4128.63 3.45339 -7.42081 0
M  V30 41967 N 4131.29 1.10196 1.12671 0
M  V30 41968 C 4132.25 0.752012 2.16512 0
M  V30 41969 C 4133.25 -0.222324 1.59256 0
M  V30 41970 O 4134.44 0.000513364 1.742 0
M  V30 41971 C 4131.57 0.113481 3.40711 0
M  V30 41972 H 4132.77 1.67175 2.48983 0
M  V30 41973 H 4130.32 0.902162 1.27635 0
M  V30 41974 H 4131.06 -0.817107 3.13837 0
M  V30 41975 H 4130.84 0.814666 3.83543 0
M  V30 41976 H 4132.33 -0.115683 4.1744 0
M  V30 41977 N 4132.77 -1.30042 0.890333 0
M  V30 41978 C 4134 -2.00086 0.526601 0
M  V30 41979 C 4134.41 -1.66704 -0.88629 0
M  V30 41980 O 4133.77 -0.90704 -1.58364 0
M  V30 41981 C 4133.82 -3.54694 0.698164 0
M  V30 41982 O 4133.54 -3.86889 2.05544 0
M  V30 41983 C 4135.04 -4.42009 0.338135 0
M  V30 41984 H 4132.26 -0.639556 0.203001 0
M  V30 41985 H 4134.8 -1.658 1.19711 0
M  V30 41986 H 4132.96 -3.87327 0.0749612 0
M  V30 41987 H 4133.37 -4.81582 2.07796 0
M  V30 41988 H 4134.85 -5.49648 0.509053 0
M  V30 41989 H 4135.32 -4.33188 -0.724208 0
M  V30 41990 H 4135.93 -4.1483 0.937886 0
M  V30 41991 N 4134.25 -0.651838 -1.43488 0
M  V30 41992 C 4135.49 -0.173507 -2.02659 0
M  V30 41993 C 4135.85 1.19868 -1.50497 0
M  V30 41994 O 4135.14 1.78827 -0.687857 0
M  V30 41995 C 4135.33 -0.122948 -3.57188 0
M  V30 41996 C 4135.16 -1.48869 -4.24344 0
M  V30 41997 C 4133.93 -2.08073 -4.60471 0
M  V30 41998 C 4136.13 -2.42681 -4.53443 0
M  V30 41999 N 4134.11 -3.37667 -5.12693 0
M  V30 42000 C 4135.48 -3.56907 -5.06969 0
M  V30 42001 C 4137.54 -2.41501 -4.3541 0
M  V30 42002 C 4136.24 -4.70176 -5.44359 0
M  V30 42003 C 4138.27 -3.53849 -4.73862 0
M  V30 42004 C 4137.63 -4.668 -5.2752 0
M  V30 42005 H 4133.73 -0.107889 -0.774522 0
M  V30 42006 H 4136.31 -0.859841 -1.74685 0
M  V30 42007 H 4134.48 0.532725 -3.84729 0
M  V30 42008 H 4136.22 0.366127 -4.0304 0
M  V30 42009 H 4132.97 -1.60797 -4.45467 0
M  V30 42010 H 4133.39 -4.03979 -5.43258 0
M  V30 42011 H 4138.04 -1.55414 -3.932 0
M  V30 42012 H 4135.75 -5.56956 -5.85513 0
M  V30 42013 H 4139.34 -3.54135 -4.61605 0
M  V30 42014 H 4138.22 -5.52296 -5.56722 0
M  V30 42015 N 4135.72 1.52604 -0.39367 0
M  V30 42016 C 4136.67 2.28122 0.454206 0
M  V30 42017 C 4137.67 1.32195 1.05929 0
M  V30 42018 O 4138.87 1.49716 0.99926 0
M  V30 42019 H 4135.25 0.733622 0.165236 0
M  V30 42020 H 4137.22 2.97701 -0.204136 0
M  V30 42021 C 4135.97 3.10385 1.56704 0
M  V30 42022 H 4135.29 3.8406 1.11077 0
M  V30 42023 H 4136.73 3.66357 2.13444 0
M  V30 42024 C 4135.19 2.22971 2.52558 0
M  V30 42025 O 4135.72 1.85945 3.56072 0
M  V30 42026 N 4133.92 1.87045 2.22402 0
M  V30 42027 H 4133.47 2.17354 1.38257 0
M  V30 42028 H 4133.43 1.28848 2.86785 0
M  V30 42029 N 4137.2 0.12362 1.57114 0
M  V30 42030 C 4138.43 -0.540852 1.99706 0
M  V30 42031 C 4138.84 -1.5993 1.00339 0
M  V30 42032 O 4138.2 -1.825 -0.00307269 0
M  V30 42033 C 4138.25 -1.16279 3.42288 0
M  V30 42034 O 4137.97 -0.146648 4.37854 0
M  V30 42035 C 4139.47 -1.91014 4.00036 0
M  V30 42036 H 4136.69 -0.142815 0.655626 0
M  V30 42037 H 4139.24 0.211321 2.03405 0
M  V30 42038 H 4137.39 -1.86572 3.39514 0
M  V30 42039 H 4137.81 -0.599137 5.21067 0
M  V30 42040 H 4139.28 -2.29852 5.01869 0
M  V30 42041 H 4139.76 -2.78713 3.39435 0
M  V30 42042 H 4140.36 -1.25473 4.0637 0
M  V30 42043 N 4138.68 -1.56883 -0.15016 0
M  V30 42044 C 4139.61 -1.94625 -1.21053 0
M  V30 42045 C 4140.62 -0.841718 -1.39352 0
M  V30 42046 O 4141.81 -1.12014 -1.38979 0
M  V30 42047 C 4138.91 -2.2023 -2.57588 0
M  V30 42048 C 4138.09 -3.51508 -2.60309 0
M  V30 42049 C 4137.15 -3.65691 -3.7836 0
M  V30 42050 O 4136.17 -4.38114 -3.6338 0
M  V30 42051 N 4137.37 -3.02119 -4.95686 0
M  V30 42052 H 4140.14 -2.86188 -0.889749 0
M  V30 42053 H 4137.7 -1.58295 -0.339751 0
M  V30 42054 H 4139.69 -2.26963 -3.35067 0
M  V30 42055 H 4138.26 -1.34948 -2.81971 0
M  V30 42056 H 4137.48 -3.56245 -1.68769 0
M  V30 42057 H 4138.77 -4.37854 -2.59155 0
M  V30 42058 H 4138.17 -2.4319 -5.1076 0
M  V30 42059 H 4136.72 -3.14417 -5.70951 0
M  V30 42060 N 4140.16 0.419408 -1.51917 0
M  V30 42061 C 4141.39 1.18927 -1.69304 0
M  V30 42062 C 4141.8 1.84556 -0.398056 0
M  V30 42063 O 4141.16 1.71462 0.625053 0
M  V30 42064 C 4141.21 2.26004 -2.82143 0
M  V30 42065 O 4140.93 1.63056 -4.06625 0
M  V30 42066 C 4142.43 3.15948 -3.10952 0
M  V30 42067 H 4139.65 0.357771 -0.567663 0
M  V30 42068 H 4142.2 0.494772 -1.98424 0
M  V30 42069 H 4140.35 2.9114 -2.55571 0
M  V30 42070 H 4140.76 2.33963 -4.69427 0
M  V30 42071 H 4142.24 3.87176 -3.93445 0
M  V30 42072 H 4142.72 3.77734 -2.24084 0
M  V30 42073 H 4143.32 2.56494 -3.39251 0
M  V30 42074 N 4141.64 1.42366 0.675998 0
M  V30 42075 C 4142.57 1.48539 1.80162 0
M  V30 42076 C 4143.55 0.342079 1.66625 0
M  V30 42077 O 4144.73 0.556222 1.86064 0
M  V30 42078 C 4141.86 1.38592 3.18449 0
M  V30 42079 C 4140.82 2.50937 3.4672 0
M  V30 42080 C 4140.14 2.26048 4.84568 0
M  V30 42081 C 4141.44 3.93249 3.43733 0
M  V30 42082 H 4143.14 2.42748 1.75254 0
M  V30 42083 H 4140.68 1.16837 0.841735 0
M  V30 42084 H 4142.64 1.41518 3.96926 0
M  V30 42085 H 4141.36 0.40876 3.24032 0
M  V30 42086 H 4140.02 2.47325 2.70603 0
M  V30 42087 H 4139.67 1.26629 4.868 0
M  V30 42088 H 4139.37 3.01343 5.04447 0
M  V30 42089 H 4140.89 2.30722 5.65331 0
M  V30 42090 H 4142.3 3.9847 4.12182 0
M  V30 42091 H 4140.7 4.68386 3.75147 0
M  V30 42092 H 4141.77 4.20005 2.42329 0
M  V30 42093 N 4143.11 -0.912187 1.28518 0
M  V30 42094 C 4144.36 -1.6582 1.15535 0
M  V30 42095 C 4144.68 -1.92738 -0.296143 0
M  V30 42096 O 4143.95 -1.54464 -1.2049 0
M  V30 42097 H 4142.53 -0.614604 0.424584 0
M  V30 42098 H 4145.2 -1.09446 1.61269 0
M  V30 42099 H 4144.29 -2.6199 1.69611 0
M  V30 42100 N 4144.59 -1.10792 -1.12085 0
M  V30 42101 C 4145.83 -0.862471 -1.85313 0
M  V30 42102 C 4146.2 0.601055 -1.82349 0
M  V30 42103 O 4147.4 0.962999 -2.50958 0
M  V30 42104 C 4145.67 -1.40033 -3.28825 0
M  V30 42105 S 4147.23 -1.29086 -4.19383 0
M  V30 42106 H 4144.05 -0.311562 -0.639101 0
M  V30 42107 H 4146.65 -1.41409 -1.34995 0
M  V30 42108 H 4145.35 -2.45943 -3.28542 0
M  V30 42109 H 4144.88 -0.845449 -3.84208 0
M  V30 42110 H 4146.9 -0.25096 -4.95565 0
M  V30 42111 N 4146.07 1.29568 -0.897217 0
M  V30 42112 C 4147.32 1.95273 -0.520838 0
M  V30 42113 C 4147.64 1.71096 0.935471 0
M  V30 42114 O 4146.91 1.04134 1.6593 0
M  V30 42115 H 4145.49 0.722532 -0.189623 0
M  V30 42116 H 4148.15 1.57868 -1.14297 0
M  V30 42117 H 4147.25 3.04118 -0.701347 0
M  V30 42118 N 4147.55 0.659438 1.4314 0
M  V30 42119 C 4148.8 0.175023 2.01341 0
M  V30 42120 C 4149.12 -1.21747 1.52324 0
M  V30 42121 O 4148.39 -1.81449 0.738456 0
M  V30 42122 H 4146.97 0.0617144 0.744446 0
M  V30 42123 H 4149.63 0.852502 1.75267 0
M  V30 42124 H 4148.73 0.164434 3.11667 0
M  V30 42125 N 4149.03 -1.52393 0.401757 0
M  V30 42126 C 4150.28 -2.00915 -0.177735 0
M  V30 42127 C 4150.59 -1.29205 -1.46851 0
M  V30 42128 O 4151.79 -1.68505 -2.12881 0
M  V30 42129 C 4150.25 -3.58021 -0.367296 0
M  V30 42130 C 4149.86 -4.38641 0.910959 0
M  V30 42131 C 4151.6 -4.14796 -0.902479 0
M  V30 42132 C 4149.51 -5.87373 0.688992 0
M  V30 42133 H 4148.44 -0.750725 -0.0701959 0
M  V30 42134 H 4151.09 -1.75797 0.526071 0
M  V30 42135 H 4149.47 -3.79438 -1.13326 0
M  V30 42136 H 4150.65 -4.28986 1.6825 0
M  V30 42137 H 4148.96 -3.93147 1.37201 0
M  V30 42138 H 4151.56 -5.23587 -1.08446 0
M  V30 42139 H 4151.9 -3.7168 -1.87509 0
M  V30 42140 H 4152.43 -3.97318 -0.19577 0
M  V30 42141 H 4149.17 -6.34835 1.63295 0
M  V30 42142 H 4148.69 -5.99784 -0.0433835 0
M  V30 42143 H 4150.37 -6.46166 0.328321 0
M  V30 42144 N 4150.5 -0.131951 -1.57047 0
M  V30 42145 C 4151.75 0.522891 -1.95633 0
M  V30 42146 C 4152.08 1.65855 -1.016 0
M  V30 42147 O 4151.33 1.95654 -0.0423063 0
M  V30 42148 C 4151.63 1.08407 -3.40562 0
M  V30 42149 C 4151.3 0.0684292 -4.50848 0
M  V30 42150 C 4149.96 -0.21081 -4.80738 0
M  V30 42151 C 4152.31 -0.623026 -5.17463 0
M  V30 42152 C 4149.64 -1.18757 -5.74555 0
M  V30 42153 C 4151.99 -1.5885 -6.12331 0
M  V30 42154 C 4150.66 -1.87559 -6.40607 0
M  V30 42155 H 4149.93 0.191339 -0.71587 0
M  V30 42156 H 4152.57 -0.215598 -1.90282 0
M  V30 42157 H 4150.88 1.89959 -3.4267 0
M  V30 42158 H 4152.58 1.59907 -3.67737 0
M  V30 42159 H 4149.17 0.296255 -4.27575 0
M  V30 42160 H 4153.35 -0.420473 -4.94516 0
M  V30 42161 H 4148.61 -1.4166 -5.94762 0
M  V30 42162 H 4152.78 -2.12989 -6.6303 0
M  V30 42163 H 4150.41 -2.63399 -7.13109 0
M  V30 42164 N 4151.98 1.5696 0.141838 0
M  V30 42165 C 4152.93 1.95073 1.18028 0
M  V30 42166 C 4153.92 0.822653 1.3828 0
M  V30 42167 O 4155.11 1.08616 1.39755 0
M  V30 42168 C 4152.24 2.33925 2.51265 0
M  V30 42169 C 4151.32 3.53315 2.34584 0
M  V30 42170 N 4151.71 4.69696 1.87668 0
M  V30 42171 C 4150.01 3.585 2.65318 0
M  V30 42172 C 4150.71 5.51781 1.84154 0
M  V30 42173 N 4149.69 4.93632 2.27658 0
M  V30 42174 H 4153.49 2.82526 0.809724 0
M  V30 42175 H 4151.01 1.58587 0.34984 0
M  V30 42176 H 4153 2.59436 3.26341 0
M  V30 42177 H 4151.66 1.47826 2.89098 0
M  V30 42178 H 4152.67 4.93352 1.57556 0
M  V30 42179 H 4149.35 2.82954 3.06991 0
M  V30 42180 H 4150.74 6.55096 1.49329 0
M  V30 42181 N 4153.46 -0.411345 1.52137 0
M  V30 42182 C 4154.69 -1.18483 1.70225 0
M  V30 42183 C 4155.11 -1.83577 0.409998 0
M  V30 42184 O 4154.47 -1.69915 -0.632336 0
M  V30 42185 C 4154.52 -2.2253 2.83748 0
M  V30 42186 O 4153.62 -3.28621 2.49162 0
M  V30 42187 H 4152.96 -0.345968 0.566747 0
M  V30 42188 H 4155.49 -0.482491 1.9883 0
M  V30 42189 H 4155.5 -2.66895 3.08595 0
M  V30 42190 H 4154.18 -1.74534 3.77506 0
M  V30 42191 H 4152.75 -2.8955 2.34979 0
M  V30 42192 N 4154.94 -1.42722 -0.668439 0
M  V30 42193 C 4156.22 -1.34012 -1.42478 0
M  V30 42194 C 4156.6 0.019445 -2.11091 0
M  V30 42195 O 4155.94 1.03528 -2.03701 0
M  V30 42196 C 4156.15 -2.51277 -2.422 0
M  V30 42197 C 4157.5 -2.9368 -3.06655 0
M  V30 42198 O 4158.53 -2.51213 -2.52528 0
M  V30 42199 O 4157.39 -3.672 -4.04754 0
M  V30 42200 H 4154.48 -0.528829 -0.635822 0
M  V30 42201 H 4157.03 -1.54742 -0.696627 0
M  V30 42202 H 4155.8 -3.41885 -1.90343 0
M  V30 42203 H 4155.42 -2.32567 -3.22488 0
M  V30 42204 N 4156.42 0.905358 -1.29 0
M  V30 42205 C 4157.37 2.03018 -1.13519 0
M  V30 42206 C 4158.36 1.69319 -0.052243 0
M  V30 42207 O 4159.57 1.78752 -0.21163 0
M  V30 42208 H 4155.94 0.66533 -0.350486 0
M  V30 42209 H 4157.91 2.13216 -2.08762 0
M  V30 42210 C 4156.66 3.37829 -0.82259 0
M  V30 42211 H 4155.98 3.64259 -1.64789 0
M  V30 42212 H 4157.42 4.17237 -0.754266 0
M  V30 42213 C 4155.88 3.33549 0.473974 0
M  V30 42214 O 4156.41 3.72573 1.50175 0
M  V30 42215 N 4154.62 2.86646 0.477762 0
M  V30 42216 H 4154.17 2.55085 -0.359067 0
M  V30 42217 H 4154.12 2.84165 1.34528 0
M  V30 42218 N 4157.9 1.11385 1.11495 0
M  V30 42219 C 4159.14 0.860643 1.82859 0
M  V30 42220 C 4159.46 -0.615438 1.85033 0
M  V30 42221 O 4158.73 -1.44706 1.32049 0
M  V30 42222 H 4157.31 0.315404 0.677148 0
M  V30 42223 H 4159.98 1.40612 1.34961 0
M  V30 42224 H 4159.07 1.23232 2.86741 0
M  V30 42225 N 4159.37 -1.2909 0.904076 0
M  V30 42226 C 4160.6 -1.99516 0.547793 0
M  V30 42227 C 4161.02 -1.67635 -0.868559 0
M  V30 42228 O 4160.37 -0.923785 -1.57393 0
M  V30 42229 C 4160.42 -3.53934 0.735745 0
M  V30 42230 O 4160.15 -3.84688 2.09635 0
M  V30 42231 C 4161.65 -4.41625 0.384997 0
M  V30 42232 H 4158.87 -0.637367 0.209773 0
M  V30 42233 H 4161.41 -1.64521 1.21462 0
M  V30 42234 H 4159.57 -3.87226 0.116038 0
M  V30 42235 H 4159.98 -4.79351 2.12892 0
M  V30 42236 H 4161.45 -5.49077 0.567322 0
M  V30 42237 H 4161.93 -4.33932 -0.678222 0
M  V30 42238 H 4162.54 -4.13812 0.981831 0
M  V30 42239 N 4160.85 -0.66702 -1.42789 0
M  V30 42240 C 4162.1 -0.183322 -2.00865 0
M  V30 42241 C 4162.41 1.21463 -1.53317 0
M  V30 42242 O 4163.62 1.79428 -2.03759 0
M  V30 42243 C 4162.08 -0.276899 -3.58833 0
M  V30 42244 C 4161.68 -1.67841 -4.15371 0
M  V30 42245 C 4163.43 0.148486 -4.2424 0
M  V30 42246 C 4161.33 -1.72517 -5.65678 0
M  V30 42247 H 4160.26 -0.0647745 -0.751213 0
M  V30 42248 H 4162.92 -0.831069 -1.63602 0
M  V30 42249 H 4161.3 0.438603 -3.93564 0
M  V30 42250 H 4162.47 -2.42037 -3.92116 0
M  V30 42251 H 4160.79 -2.05097 -3.62387 0
M  V30 42252 H 4163.38 0.133587 -5.34533 0
M  V30 42253 H 4163.73 1.18238 -3.99156 0
M  V30 42254 H 4164.26 -0.515739 -3.94443 0
M  V30 42255 H 4161 -2.73863 -5.9555 0
M  V30 42256 H 4160.52 -1.02666 -5.90948 0
M  V30 42257 H 4162.2 -1.4751 -6.2996 0
M  V30 42258 N 4162.33 1.52178 -0.409833 0
M  V30 42259 C 4163.75 1.59484 -0.0607454 0
M  V30 42260 C 4163.95 1.42264 1.427 0
M  V30 42261 O 4163 1.24994 2.19392 0
M  V30 42262 C 4164.31 2.9551 -0.55629 0
M  V30 42263 C 4165.86 3.08745 -0.514327 0
M  V30 42264 C 4166.34 4.47252 -0.986392 0
M  V30 42265 N 4167.83 4.53494 -0.943242 0
M  V30 42266 C 4168.56 5.58938 -1.27968 0
M  V30 42267 N 4168.06 6.71931 -1.68762 0
M  V30 42268 N 4169.85 5.4915 -1.19961 0
M  V30 42269 H 4162 1.61619 -1.37815 0
M  V30 42270 H 4164.27 0.760347 -0.566195 0
M  V30 42271 H 4163.97 3.13394 -1.59616 0
M  V30 42272 H 4163.85 3.77185 0.0336827 0
M  V30 42273 H 4166.23 2.90545 0.516495 0
M  V30 42274 H 4166.31 2.28975 -1.14036 0
M  V30 42275 H 4165.96 4.66195 -2.01554 0
M  V30 42276 H 4165.89 5.2552 -0.337163 0
M  V30 42277 H 4168.38 3.72384 -0.643326 0
M  V30 42278 H 4168.69 7.48378 -1.92743 0
M  V30 42279 H 4167.04 6.7321 -1.72666 0
M  V30 42280 H 4170.23 4.59758 -0.879774 0
M  V30 42281 H 4170.4 6.3122 -1.46512 0
M  V30 42282 N 4163.81 0.140278 1.56974 0
M  V30 42283 C 4165.03 -0.522903 2.007 0
M  V30 42284 C 4165.46 -1.58064 1.01967 0
M  V30 42285 O 4164.82 -1.81299 -0.00557883 0
M  V30 42286 C 4164.86 -1.10647 3.43205 0
M  V30 42287 O 4163.97 -2.22153 3.4745 0
M  V30 42288 H 4163.31 -0.128579 0.651432 0
M  V30 42289 H 4165.84 0.235029 2.03246 0
M  V30 42290 H 4165.85 -1.4368 3.81864 0
M  V30 42291 H 4164.52 -0.331841 4.14574 0
M  V30 42292 H 4163.1 -1.904 3.20628 0
M  V30 42293 N 4165.29 -1.57033 -0.133512 0
M  V30 42294 C 4166.7 -1.73394 -0.692191 0
M  V30 42295 C 4167.05 -0.756767 -1.81018 0
M  V30 42296 O 4166.17 0.0736068 -2.16275 0
M  V30 42297 C 4166.77 -3.14403 -1.26239 0
M  V30 42298 C 4165.33 -3.32319 -1.76751 0
M  V30 42299 C 4164.47 -2.69298 -0.66135 0
M  V30 42300 H 4167.42 -1.58431 0.0922841 0
M  V30 42301 H 4167.45 -3.15149 -2.13216 0
M  V30 42302 H 4166.96 -3.855 -0.448482 0
M  V30 42303 H 4165.06 -2.66241 -2.60666 0
M  V30 42304 H 4165.17 -4.40376 -1.88694 0
M  V30 42305 H 4163.54 -2.30134 -1.09136 0
M  V30 42306 H 4164.32 -3.43009 0.141341 0
M  V30 42307 N 4166.76 0.403271 -1.52353 0
M  V30 42308 C 4167.71 1.49095 -1.72496 0
M  V30 42309 C 4168.7 1.50125 -0.578891 0
M  V30 42310 O 4169.89 1.56003 -0.836185 0
M  V30 42311 C 4167.02 2.86963 -1.88434 0
M  V30 42312 C 4166.1 2.90557 -3.08929 0
M  V30 42313 N 4166.5 2.63841 -4.31534 0
M  V30 42314 C 4164.79 3.21726 -3.08883 0
M  V30 42315 C 4165.49 2.74153 -5.13045 0
M  V30 42316 N 4164.47 3.07281 -4.48419 0
M  V30 42317 H 4168.27 1.27243 -2.64927 0
M  V30 42318 H 4165.79 0.611053 -1.50466 0
M  V30 42319 H 4167.78 3.65256 -2.00982 0
M  V30 42320 H 4166.44 3.09808 -0.972064 0
M  V30 42321 H 4167.45 2.38126 -4.59909 0
M  V30 42322 H 4164.13 3.50127 -2.27414 0
M  V30 42323 H 4165.52 2.57163 -6.20739 0
M  V30 42324 N 4168.24 1.43075 0.66086 0
M  V30 42325 C 4169.49 1.45497 1.42134 0
M  V30 42326 C 4169.84 0.0751936 1.92253 0
M  V30 42327 O 4169.14 -0.904943 1.68883 0
M  V30 42328 C 4169.33 2.42594 2.62456 0
M  V30 42329 C 4169.16 3.89877 2.24112 0
M  V30 42330 C 4167.93 4.58304 2.12803 0
M  V30 42331 C 4170.13 4.79922 1.84878 0
M  V30 42332 N 4168.11 5.90548 1.67709 0
M  V30 42333 C 4169.48 6.01379 1.50809 0
M  V30 42334 C 4171.53 4.6725 1.71993 0
M  V30 42335 C 4170.24 7.11573 1.05146 0
M  V30 42336 C 4172.26 5.7744 1.27736 0
M  V30 42337 C 4171.63 6.98019 0.945991 0
M  V30 42338 H 4167.72 0.587549 0.516053 0
M  V30 42339 H 4170.31 1.79201 0.761253 0
M  V30 42340 H 4168.48 2.10929 3.26134 0
M  V30 42341 H 4170.21 2.35504 3.2912 0
M  V30 42342 H 4166.97 4.12705 2.32318 0
M  V30 42343 H 4167.39 6.60726 1.47546 0
M  V30 42344 H 4172.03 3.74492 1.96254 0
M  V30 42345 H 4169.75 8.04167 0.796336 0
M  V30 42346 H 4173.34 5.69653 1.18267 0
M  V30 42347 H 4172.22 7.81834 0.608745 0
M  V30 42348 N 4169.72 -0.898504 1.29478 0
M  V30 42349 C 4171.13 -1.46438 1.15813 0
M  V30 42350 C 4171.48 -1.94648 -0.24627 0
M  V30 42351 O 4170.61 -1.83821 -1.14187 0
M  V30 42352 C 4171.2 -2.66158 2.09632 0
M  V30 42353 C 4169.76 -3.18877 1.99986 0
M  V30 42354 C 4168.91 -1.9157 2.0049 0
M  V30 42355 H 4171.86 -0.709729 1.41946 0
M  V30 42356 H 4171.88 -3.41931 1.66924 0
M  V30 42357 H 4171.39 -2.31039 3.11838 0
M  V30 42358 H 4169.49 -3.58686 1.00873 0
M  V30 42359 H 4169.61 -3.83094 2.87708 0
M  V30 42360 H 4167.97 -2.09325 1.45104 0
M  V30 42361 H 4168.75 -1.58726 3.04403 0
M  V30 42362 N 4171.2 -1.11974 -1.10903 0
M  V30 42363 C 4172.13 -0.740981 -2.16892 0
M  V30 42364 C 4173.14 0.23007 -1.61166 0
M  V30 42365 O 4174.33 0.0121299 -1.78496 0
M  V30 42366 C 4171.43 -0.0752449 -3.38816 0
M  V30 42367 C 4170.61 -1.07453 -4.23996 0
M  V30 42368 C 4169.66 -0.437317 -5.2438 0
M  V30 42369 O 4168.69 -1.09289 -5.58609 0
M  V30 42370 N 4169.89 0.797374 -5.74998 0
M  V30 42371 H 4172.66 -1.65295 -2.49995 0
M  V30 42372 H 4170.22 -1.0107 -1.26477 0
M  V30 42373 H 4172.21 0.362914 -4.0307 0
M  V30 42374 H 4170.78 0.739401 -3.0373 0
M  V30 42375 H 4170 -1.69047 -3.56113 0
M  V30 42376 H 4171.29 -1.75042 -4.77742 0
M  V30 42377 H 4170.69 1.34905 -5.49379 0
M  V30 42378 H 4169.24 1.17843 -6.41059 0
M  V30 42379 N 4172.68 1.28609 -0.910909 0
M  V30 42380 C 4173.62 2.29354 -0.387237 0
M  V30 42381 C 4174.62 1.61235 0.519574 0
M  V30 42382 O 4175.82 1.75473 0.401134 0
M  V30 42383 H 4172.2 0.744403 -0.10662 0
M  V30 42384 H 4174.17 2.70953 -1.25007 0
M  V30 42385 C 4172.92 3.45831 0.360054 0
M  V30 42386 H 4172.24 3.98448 -0.328508 0
M  V30 42387 H 4173.68 4.18329 0.691156 0
M  V30 42388 C 4172.14 2.98245 1.5669 0
M  V30 42389 O 4172.67 3.00475 2.66604 0
M  V30 42390 N 4170.88 2.5394 1.41291 0
M  V30 42391 H 4170.42 2.52324 0.518686 0
M  V30 42392 H 4170.38 2.22461 2.22168 0
M  V30 42393 N 4174.15 0.674583 1.42433 0
M  V30 42394 C 4175.4 0.196756 2.01542 0
M  V30 42395 C 4175.73 -1.19663 1.53333 0
M  V30 42396 O 4174.98 -1.81731 0.726098 0
M  V30 42397 C 4175.28 0.179758 3.56948 0
M  V30 42398 C 4174.95 1.51779 4.24587 0
M  V30 42399 C 4173.61 1.88415 4.42779 0
M  V30 42400 C 4175.96 2.39901 4.62706 0
M  V30 42401 C 4173.29 3.12798 4.96361 0
M  V30 42402 C 4175.64 3.63596 5.17668 0
M  V30 42403 C 4174.31 4.00402 5.34074 0
M  V30 42404 H 4173.58 0.0719982 0.737494 0
M  V30 42405 H 4176.22 0.869525 1.70621 0
M  V30 42406 H 4174.53 -0.57652 3.87535 0
M  V30 42407 H 4176.23 -0.207156 4.00465 0
M  V30 42408 H 4172.82 1.22279 4.10787 0
M  V30 42409 H 4177 2.12882 4.48325 0
M  V30 42410 H 4172.26 3.41335 5.07248 0
M  V30 42411 H 4176.43 4.32082 5.46149 0
M  V30 42412 H 4174.06 4.96859 5.75357 0
M  V30 42413 N 4175.63 -1.51958 0.417898 0
M  V30 42414 C 4177.04 -1.86634 -0.0497058 0
M  V30 42415 C 4177.39 -1.33618 -1.43668 0
M  V30 42416 O 4176.52 -0.679016 -2.05471 0
M  V30 42417 C 4177.11 -3.38661 -0.0969734 0
M  V30 42418 C 4175.67 -3.72943 -0.508935 0
M  V30 42419 C 4174.82 -2.75551 0.310956 0
M  V30 42420 H 4177.77 -1.4546 0.634591 0
M  V30 42421 H 4177.79 -3.69446 -0.910469 0
M  V30 42422 H 4177.3 -3.77217 0.912619 0
M  V30 42423 H 4175.41 -3.39969 -1.52485 0
M  V30 42424 H 4175.52 -4.78462 -0.247233 0
M  V30 42425 H 4173.88 -2.53678 -0.227973 0
M  V30 42426 H 4174.67 -3.16947 1.31906 0
M  V30 42427 N 4177.11 -0.1486 -1.56898 0
M  V30 42428 C 4178.02 0.803491 -2.20411 0
M  V30 42429 C 4179.04 1.2705 -1.18888 0
M  V30 42430 O 4180.21 1.32735 -1.51471 0
M  V30 42431 C 4177.28 2.02451 -2.81451 0
M  V30 42432 C 4176.34 1.60658 -3.98105 0
M  V30 42433 C 4175.57 2.7694 -4.56224 0
M  V30 42434 O 4175.79 3.93196 -4.13222 0
M  V30 42435 O 4174.73 2.5232 -5.4646 0
M  V30 42436 H 4178.55 0.292828 -3.02285 0
M  V30 42437 H 4176.14 0.0785037 -1.49194 0
M  V30 42438 H 4178.02 2.73905 -3.2024 0
M  V30 42439 H 4176.7 2.52467 -2.02589 0
M  V30 42440 H 4175.6 0.862223 -3.64028 0
M  V30 42441 H 4176.94 1.15357 -4.78491 0
M  V30 42442 N 4178.59 1.57102 0.125182 0
M  V30 42443 C 4179.54 2.00863 1.17289 0
M  V30 42444 C 4180.53 0.904536 1.43229 0
M  V30 42445 O 4181.74 1.08974 1.43264 0
M  V30 42446 H 4178.11 0.639713 0.395311 0
M  V30 42447 H 4180.08 2.88099 0.777257 0
M  V30 42448 C 4178.83 2.42366 2.49307 0
M  V30 42449 H 4178.15 3.26888 2.30182 0
M  V30 42450 H 4179.59 2.7679 3.21191 0
M  V30 42451 C 4178.05 1.28485 3.11437 0
M  V30 42452 O 4178.58 0.597443 3.97232 0
M  V30 42453 N 4176.79 1.04349 2.71219 0
M  V30 42454 H 4176.34 1.60426 2.01547 0
M  V30 42455 H 4176.29 0.283463 3.1312 0
M  V30 42456 N 4180.07 -0.395186 1.52565 0
M  V30 42457 C 4181.29 -1.16671 1.71472 0
M  V30 42458 C 4181.72 -1.83132 0.429446 0
M  V30 42459 O 4181.07 -1.70576 -0.614279 0
M  V30 42460 C 4181.12 -2.19508 2.86092 0
M  V30 42461 O 4180.23 -3.2596 2.52634 0
M  V30 42462 H 4179.57 -0.339937 0.570385 0
M  V30 42463 H 4182.1 -0.461376 1.9933 0
M  V30 42464 H 4182.11 -2.63607 3.11409 0
M  V30 42465 H 4180.78 -1.7052 3.79336 0
M  V30 42466 H 4179.36 -2.87042 2.38037 0
M  V30 42467 N 4181.54 -1.43423 -0.653263 0
M  V30 42468 C 4182.96 -1.26823 -0.968926 0
M  V30 42469 C 4183.16 -0.187918 -2.00622 0
M  V30 42470 O 4182.22 0.433666 -2.48748 0
M  V30 42471 C 4183.53 -2.63252 -1.45323 0
M  V30 42472 C 4185.08 -2.70783 -1.56988 0
M  V30 42473 C 4185.55 -4.0763 -2.0881 0
M  V30 42474 N 4187.04 -4.09695 -2.16112 0
M  V30 42475 C 4187.78 -5.12414 -2.57331 0
M  V30 42476 N 4187.27 -6.25507 -2.97847 0
M  V30 42477 N 4189.07 -4.99768 -2.5727 0
M  V30 42478 H 4181.22 -2.12374 0.0331305 0
M  V30 42479 H 4183.48 -0.946796 -0.0477601 0
M  V30 42480 H 4183.19 -3.43269 -0.765458 0
M  V30 42481 H 4183.06 -2.88644 -2.42826 0
M  V30 42482 H 4185.45 -1.91099 -2.24867 0
M  V30 42483 H 4185.53 -2.49157 -0.579184 0
M  V30 42484 H 4185.17 -4.87782 -1.41533 0
M  V30 42485 H 4185.1 -4.26621 -3.0871 0
M  V30 42486 H 4187.59 -3.28061 -1.87575 0
M  V30 42487 H 4187.91 -6.99717 -3.28048 0
M  V30 42488 H 4186.25 -6.2898 -2.95651 0
M  V30 42489 H 4189.44 -4.10482 -2.24994 0
M  V30 42490 H 4189.62 -5.7995 -2.89072 0
M  V30 42491 N 4183.02 0.891625 -1.29953 0
M  V30 42492 C 4184.26 1.65707 -1.19669 0
M  V30 42493 C 4184.63 1.90416 0.246134 0
M  V30 42494 O 4185.83 2.64622 0.472101 0
M  V30 42495 C 4184.1 2.9649 -1.99571 0
M  V30 42496 S 4185.66 3.87487 -2.05911 0
M  V30 42497 H 4182.48 0.568821 -0.426572 0
M  V30 42498 H 4185.08 1.05884 -1.64344 0
M  V30 42499 H 4183.78 2.76226 -3.03525 0
M  V30 42500 H 4183.31 3.6135 -1.55532 0
M  V30 42501 H 4185.33 4.81925 -1.18166 0
M  V30 42502 N 4184.5 1.12561 1.10308 0
M  V30 42503 C 4185.73 0.904933 1.86616 0
M  V30 42504 C 4186.15 -0.540565 1.80165 0
M  V30 42505 O 4185.51 -1.38279 1.17254 0
M  V30 42506 C 4185.56 1.38598 3.32901 0
M  V30 42507 O 4184.66 0.565297 4.08507 0
M  V30 42508 H 4184 0.325023 0.579013 0
M  V30 42509 H 4186.53 1.49803 1.39357 0
M  V30 42510 H 4186.54 1.38563 3.8375 0
M  V30 42511 H 4185.22 2.4385 3.36912 0
M  V30 42512 H 4183.79 0.632747 3.67492 0
M  V30 42513 N 4185.98 -1.28124 0.917717 0
M  V30 42514 C 4187.23 -1.95447 0.56321 0
M  V30 42515 C 4187.58 -1.70885 -0.884084 0
M  V30 42516 O 4186.87 -1.02158 -1.62093 0
M  V30 42517 C 4187.07 -3.48024 0.813275 0
M  V30 42518 C 4186.9 -3.8742 2.28332 0
M  V30 42519 C 4185.67 -4.11381 2.93418 0
M  V30 42520 C 4187.86 -3.97774 3.26006 0
M  V30 42521 N 4185.85 -4.3748 4.30679 0
M  V30 42522 C 4187.22 -4.28133 4.48444 0
M  V30 42523 C 4189.27 -3.80313 3.21351 0
M  V30 42524 C 4187.98 -4.42849 5.66813 0
M  V30 42525 C 4190 -3.96248 4.39023 0
M  V30 42526 C 4189.36 -4.26984 5.60236 0
M  V30 42527 H 4185.46 -0.738897 0.256037 0
M  V30 42528 H 4188.05 -1.54695 1.18227 0
M  V30 42529 H 4186.22 -3.87757 0.223455 0
M  V30 42530 H 4187.95 -4.0249 0.4224 0
M  V30 42531 H 4184.7 -4.05829 2.4413 0
M  V30 42532 H 4185.13 -4.54606 5.0166 0
M  V30 42533 H 4189.77 -3.55598 2.28713 0
M  V30 42534 H 4187.49 -4.66393 6.59926 0
M  V30 42535 H 4191.07 -3.84169 4.36928 0
M  V30 42536 H 4189.95 -4.39052 6.49771 0
M  V30 42537 N 4187.46 -0.682127 -1.42073 0
M  V30 42538 C 4188.69 -0.216065 -2.05769 0
M  V30 42539 C 4189.1 1.12959 -1.5128 0
M  V30 42540 O 4188.46 1.7032 -0.655551 0
M  V30 42541 C 4188.51 -0.150414 -3.61187 0
M  V30 42542 O 4188.23 -1.4429 -4.13657 0
M  V30 42543 C 4189.73 0.338262 -4.42008 0
M  V30 42544 H 4186.95 -0.103337 -0.662995 0
M  V30 42545 H 4189.49 -0.930927 -1.82082 0
M  V30 42546 H 4187.65 0.515182 -3.83959 0
M  V30 42547 H 4188.06 -1.3211 -5.0759 0
M  V30 42548 H 4189.54 0.333093 -5.50994 0
M  V30 42549 H 4190.01 1.37482 -4.17128 0
M  V30 42550 H 4190.62 -0.295857 -4.2427 0
M  V30 42551 N 4188.94 1.51735 -0.425951 0
M  V30 42552 C 4189.9 2.26037 0.379458 0
M  V30 42553 C 4190.9 1.29042 0.959417 0
M  V30 42554 O 4192.09 1.52848 0.835653 0
M  V30 42555 C 4189.22 3.04348 1.53575 0
M  V30 42556 H 4190.41 2.98668 -0.271567 0
M  V30 42557 H 4187.97 1.55273 -0.178847 0
M  V30 42558 H 4188.7 2.36107 2.22315 0
M  V30 42559 H 4188.49 3.75579 1.12619 0
M  V30 42560 H 4189.98 3.60662 2.10506 0
M  V30 42561 N 4190.41 0.156919 1.56817 0
M  V30 42562 C 4191.66 -0.491715 1.95615 0
M  V30 42563 C 4191.98 -1.65355 1.04484 0
M  V30 42564 O 4193.18 -2.36747 1.32902 0
M  V30 42565 C 4191.64 -0.926161 3.47779 0
M  V30 42566 C 4191.25 0.209288 4.47511 0
M  V30 42567 C 4192.99 -1.54403 3.95424 0
M  V30 42568 C 4190.9 -0.243983 5.90897 0
M  V30 42569 H 4189.83 -0.187468 0.730323 0
M  V30 42570 H 4192.48 0.242851 1.81886 0
M  V30 42571 H 4190.86 -1.71628 3.56875 0
M  V30 42572 H 4192.03 0.986405 4.50119 0
M  V30 42573 H 4190.35 0.73619 4.0984 0
M  V30 42574 H 4192.95 -1.89495 4.99996 0
M  V30 42575 H 4193.29 -2.43666 3.37539 0
M  V30 42576 H 4193.82 -0.818617 3.89286 0
M  V30 42577 H 4190.56 0.613521 6.52623 0
M  V30 42578 H 4190.08 -0.986765 5.91627 0
M  V30 42579 H 4191.76 -0.692687 6.43281 0
M  V30 42580 N 4191.89 -1.57166 -0.116849 0
M  V30 42581 C 4193.12 -1.89153 -0.838383 0
M  V30 42582 C 4193.53 -0.748392 -1.73334 0
M  V30 42583 O 4192.89 0.280687 -1.80329 0
M  V30 42584 C 4192.94 -3.20614 -1.67001 0
M  V30 42585 O 4192.66 -4.30526 -0.811082 0
M  V30 42586 C 4194.16 -3.66319 -2.49651 0
M  V30 42587 H 4191.38 -0.626266 -0.240898 0
M  V30 42588 H 4193.93 -2.04252 -0.100595 0
M  V30 42589 H 4192.08 -3.07177 -2.36053 0
M  V30 42590 H 4192.5 -5.05886 -1.3849 0
M  V30 42591 H 4193.97 -4.61058 -3.03529 0
M  V30 42592 H 4194.45 -2.93081 -3.27109 0
M  V30 42593 H 4195.05 -3.8255 -1.85837 0
M  V30 42594 N 4193.37 0.38709 -1.52772 0
M  V30 42595 C 4194.32 1.47257 -1.74067 0
M  V30 42596 C 4195.3 1.49503 -0.594781 0
M  V30 42597 O 4196.5 1.55107 -0.852684 0
M  V30 42598 C 4193.62 2.84948 -1.91467 0
M  V30 42599 C 4192.71 2.87264 -3.11994 0
M  V30 42600 N 4193.1 2.59249 -4.34308 0
M  V30 42601 C 4191.4 3.18431 -3.12278 0
M  V30 42602 C 4192.1 2.68697 -5.15924 0
M  V30 42603 N 4191.08 3.02508 -4.51653 0
M  V30 42604 H 4194.88 1.24426 -2.66262 0
M  V30 42605 H 4192.39 0.59506 -1.51105 0
M  V30 42606 H 4194.39 3.63104 -2.04845 0
M  V30 42607 H 4193.05 3.0876 -1.00487 0
M  V30 42608 H 4194.06 2.33235 -4.62409 0
M  V30 42609 H 4190.74 3.47696 -2.31114 0
M  V30 42610 H 4192.13 2.50565 -6.23431 0
M  V30 42611 N 4194.85 1.43768 0.645648 0
M  V30 42612 C 4195.79 1.49513 1.75825 0
M  V30 42613 C 4196.76 0.344137 1.62496 0
M  V30 42614 O 4197.95 0.552355 1.8263 0
M  V30 42615 C 4195.09 1.4314 3.14014 0
M  V30 42616 C 4194.2 2.68502 3.38424 0
M  V30 42617 C 4193.34 2.54064 4.66503 0
M  V30 42618 C 4192.38 3.74659 4.84042 0
M  V30 42619 N 4191.51 3.58985 6.03386 0
M  V30 42620 H 4196.35 2.44579 1.7025 0
M  V30 42621 H 4193.89 1.21399 0.830708 0
M  V30 42622 H 4195.85 1.37438 3.93912 0
M  V30 42623 H 4194.48 0.516505 3.18641 0
M  V30 42624 H 4193.53 2.84452 2.52569 0
M  V30 42625 H 4194.84 3.5806 3.47267 0
M  V30 42626 H 4194 2.46113 5.54539 0
M  V30 42627 H 4192.74 1.62043 4.59993 0
M  V30 42628 H 4191.74 3.83011 3.9444 0
M  V30 42629 H 4192.97 4.67698 4.92377 0
M  V30 42630 H 4190.91 2.69704 5.97993 0
M  V30 42631 H 4190.83 4.42149 6.13222 0
M  V30 42632 H 4192.1 3.54899 6.94022 0
M  V30 42633 N 4196.33 -0.884721 1.30424 0
M  V30 42634 C 4197.55 -1.67493 1.22315 0
M  V30 42635 C 4197.98 -1.86916 -0.21069 0
M  V30 42636 O 4197.33 -1.40029 -1.15159 0
M  V30 42637 C 4197.38 -3.02857 1.9573 0
M  V30 42638 O 4196.49 -3.91884 1.28456 0
M  V30 42639 H 4195.83 -0.511788 0.423047 0
M  V30 42640 H 4198.36 -1.10416 1.72248 0
M  V30 42641 H 4198.37 -3.52898 2.04761 0
M  V30 42642 H 4197.04 -2.88039 3.00011 0
M  V30 42643 H 4195.62 -3.50323 1.27781 0
M  V30 42644 N 4197.8 -1.13144 -1.09709 0
M  V30 42645 C 4198.75 -0.806156 -2.16263 0
M  V30 42646 C 4199.72 0.230447 -1.64494 0
M  V30 42647 O 4200.91 0.103342 -1.9052 0
M  V30 42648 C 4198.05 -0.275136 -3.44001 0
M  V30 42649 C 4197.16 -1.37045 -4.09686 0
M  V30 42650 C 4196.29 -0.798075 -5.25171 0
M  V30 42651 C 4195.33 -1.87199 -5.82772 0
M  V30 42652 N 4194.47 -1.31778 -6.89622 0
M  V30 42653 H 4199.31 -1.71888 -2.43431 0
M  V30 42654 H 4196.85 -0.858065 -1.19481 0
M  V30 42655 H 4198.8 0.0508511 -4.17169 0
M  V30 42656 H 4197.43 0.600723 -3.17161 0
M  V30 42657 H 4196.49 -1.81308 -3.34412 0
M  V30 42658 H 4197.8 -2.18223 -4.48531 0
M  V30 42659 H 4196.95 -0.4232 -6.05222 0
M  V30 42660 H 4195.69 0.0448139 -4.87679 0
M  V30 42661 H 4194.7 -2.25597 -5.01384 0
M  V30 42662 H 4195.92 -2.71823 -6.22325 0
M  V30 42663 H 4193.87 -0.496844 -6.54116 0
M  V30 42664 H 4193.78 -2.06607 -7.2722 0
M  V30 42665 H 4195.05 -0.970378 -7.73436 0
M  V30 42666 N 4199.28 1.27635 -0.924498 0
M  V30 42667 C 4200.23 2.24602 -0.392178 0
M  V30 42668 C 4201.22 1.52876 0.501756 0
M  V30 42669 O 4202.41 1.73709 0.339724 0
M  V30 42670 C 4199.54 3.4144 0.356842 0
M  V30 42671 C 4198.62 4.20474 -0.553426 0
M  V30 42672 N 4199.01 4.77371 -1.67183 0
M  V30 42673 C 4197.31 4.44578 -0.35583 0
M  V30 42674 C 4198.01 5.36937 -2.23772 0
M  V30 42675 N 4196.99 5.21692 -1.52768 0
M  V30 42676 H 4200.79 2.66173 -1.24616 0
M  V30 42677 H 4198.31 1.4253 -0.778398 0
M  V30 42678 H 4200.3 4.10004 0.75512 0
M  V30 42679 H 4198.96 3.01401 1.20779 0
M  V30 42680 H 4199.97 4.75416 -2.05426 0
M  V30 42681 H 4196.65 4.15016 0.454725 0
M  V30 42682 H 4198.04 5.9193 -3.17912 0
M  V30 42683 N 4200.76 0.689652 1.41709 0
M  V30 42684 C 4201.69 0.0348455 2.33474 0
M  V30 42685 C 4202.67 -0.773507 1.51495 0
M  V30 42686 O 4203.86 -0.727673 1.80052 0
M  V30 42687 C 4200.99 -0.906515 3.35261 0
M  V30 42688 C 4199.94 -0.205687 4.27505 0
M  V30 42689 C 4199.27 -1.261 5.19618 0
M  V30 42690 C 4200.57 0.9244 5.14055 0
M  V30 42691 H 4202.26 0.801259 2.88479 0
M  V30 42692 H 4199.81 0.386762 1.38709 0
M  V30 42693 H 4201.76 -1.37379 3.98378 0
M  V30 42694 H 4200.48 -1.70452 2.78592 0
M  V30 42695 H 4199.14 0.241501 3.65804 0
M  V30 42696 H 4198.79 -2.05139 4.59268 0
M  V30 42697 H 4198.49 -0.797119 5.82168 0
M  V30 42698 H 4200.01 -1.72891 5.85612 0
M  V30 42699 H 4201.43 0.537673 5.70773 0
M  V30 42700 H 4199.83 1.315 5.85515 0
M  V30 42701 H 4200.9 1.76668 4.51571 0
M  V30 42702 N 4202.24 -1.51507 0.433991 0
M  V30 42703 C 4203.15 -2.31413 -0.385382 0
M  V30 42704 C 4204.16 -1.40184 -1.03076 0
M  V30 42705 O 4205.34 -1.73256 -1.02685 0
M  V30 42706 C 4202.41 -3.13822 -1.47366 0
M  V30 42707 C 4201.47 -4.20826 -0.848764 0
M  V30 42708 C 4200.7 -4.99296 -1.88518 0
M  V30 42709 O 4200.92 -4.78359 -3.10691 0
M  V30 42710 O 4199.86 -5.83482 -1.47757 0
M  V30 42711 H 4203.68 -3.02525 0.266851 0
M  V30 42712 H 4201.27 -1.48101 0.196606 0
M  V30 42713 H 4203.15 -3.65065 -2.10489 0
M  V30 42714 H 4201.82 -2.45478 -2.11003 0
M  V30 42715 H 4200.73 -3.73669 -0.179574 0
M  V30 42716 H 4202.06 -4.91534 -0.255927 0
M  V30 42717 N 4203.72 -0.165233 -1.56731 0
M  V30 42718 C 4204.97 0.481334 -1.95873 0
M  V30 42719 C 4205.28 1.64799 -1.0536 0
M  V30 42720 O 4206.48 2.36039 -1.34156 0
M  V30 42721 C 4204.94 0.907705 -3.48265 0
M  V30 42722 C 4204.55 -0.233018 -4.47394 0
M  V30 42723 C 4206.29 1.52303 -3.96237 0
M  V30 42724 C 4204.2 0.212643 -5.91018 0
M  V30 42725 H 4203.13 0.183592 -0.731307 0
M  V30 42726 H 4205.78 -0.252493 -1.81755 0
M  V30 42727 H 4204.16 1.69733 -3.5778 0
M  V30 42728 H 4205.34 -1.01026 -4.49589 0
M  V30 42729 H 4203.65 -0.757915 -4.09444 0
M  V30 42730 H 4206.25 1.86841 -5.00994 0
M  V30 42731 H 4206.59 2.41873 -3.38826 0
M  V30 42732 H 4207.12 0.797961 -3.89715 0
M  V30 42733 H 4203.86 -0.648123 -6.52288 0
M  V30 42734 H 4203.38 0.955375 -5.92142 0
M  V30 42735 H 4205.06 0.658562 -6.4364 0
M  V30 42736 N 4205.19 1.57226 0.108512 0
M  V30 42737 C 4206.42 1.8997 0.832242 0
M  V30 42738 C 4206.84 0.758209 1.72142 0
M  V30 42739 O 4206.2 -0.290832 1.78952 0
M  V30 42740 C 4206.25 3.21515 1.63281 0
M  V30 42741 O 4205.35 3.08159 2.74065 0
M  V30 42742 H 4204.7 0.623079 0.229497 0
M  V30 42743 H 4207.23 2.04412 0.0877615 0
M  V30 42744 H 4207.24 3.54494 2.01986 0
M  V30 42745 H 4205.91 4.04185 0.980149 0
M  V30 42746 H 4204.49 2.86668 2.38487 0
M  V30 42747 N 4206.67 -0.378982 1.52975 0
M  V30 42748 C 4207.92 -1.12301 1.68507 0
M  V30 42749 C 4208.25 -1.89686 0.430045 0
M  V30 42750 O 4207.5 -1.86665 -0.587776 0
M  V30 42751 C 4207.8 -2.11959 2.87764 0
M  V30 42752 C 4207.47 -1.51156 4.24809 0
M  V30 42753 C 4206.13 -1.343 4.62079 0
M  V30 42754 C 4208.48 -1.07044 5.10089 0
M  V30 42755 C 4205.81 -0.718955 5.82278 0
M  V30 42756 C 4208.16 -0.460448 6.30922 0
M  V30 42757 C 4206.83 -0.279274 6.66916 0
M  V30 42758 H 4206.1 -0.410939 0.616612 0
M  V30 42759 H 4208.74 -0.40641 1.87138 0
M  V30 42760 H 4207.05 -2.89874 2.63591 0
M  V30 42761 H 4208.74 -2.69456 2.96976 0
M  V30 42762 H 4205.33 -1.65265 3.95456 0
M  V30 42763 H 4209.52 -1.18864 4.81856 0
M  V30 42764 H 4204.77 -0.566876 6.08766 0
M  V30 42765 H 4208.95 -0.110382 6.96313 0
M  V30 42766 H 4206.58 0.206361 7.5992 0
M  V30 42767 N 4208.15 -1.44108 -0.638015 0
M  V30 42768 C 4209.43 -1.37004 -1.39604 0
M  V30 42769 C 4209.81 -0.0253349 -2.11085 0
M  V30 42770 O 4209.16 0.991835 -2.05852 0
M  V30 42771 C 4209.37 -2.56358 -2.36816 0
M  V30 42772 C 4210.71 -3.00118 -3.00357 0
M  V30 42773 O 4211.74 -2.56513 -2.47142 0
M  V30 42774 O 4210.6 -3.75703 -3.96874 0
M  V30 42775 H 4207.69 -0.542197 -0.624461 0
M  V30 42776 H 4210.24 -1.56185 -0.663647 0
M  V30 42777 H 4209.01 -3.45845 -1.83048 0
M  V30 42778 H 4208.63 -2.39355 -3.17482 0
M  V30 42779 N 4209.63 0.877792 -1.30891 0
M  V30 42780 C 4210.58 2.00564 -1.17799 0
M  V30 42781 C 4211.57 1.69171 -0.0881464 0
M  V30 42782 O 4212.78 1.78262 -0.249498 0
M  V30 42783 H 4209.15 0.657746 -0.364519 0
M  V30 42784 H 4211.12 2.08739 -2.13238 0
M  V30 42785 C 4209.87 3.36009 -0.894064 0
M  V30 42786 H 4209.19 3.60681 -1.72479 0
M  V30 42787 H 4210.63 4.15543 -0.842599 0
M  V30 42788 C 4209.09 3.3448 0.403116 0
M  V30 42789 O 4209.62 3.75674 1.42238 0
M  V30 42790 N 4207.83 2.87595 0.416853 0
M  V30 42791 H 4207.38 2.54266 -0.413094 0
M  V30 42792 H 4207.33 2.86954 1.2847 0
M  V30 42793 N 4211.11 1.13725 1.09108 0
M  V30 42794 C 4212.05 0.813105 2.17925 0
M  V30 42795 C 4213.05 -0.205964 1.68143 0
M  V30 42796 O 4214.25 -0.0627815 1.7989 0
M  V30 42797 H 4210.63 0.245184 0.710907 0
M  V30 42798 H 4212.6 1.73894 2.42494 0
M  V30 42799 C 4211.35 0.29905 3.46412 0
M  V30 42800 H 4210.67 1.07454 3.85089 0
M  V30 42801 H 4212.11 0.110712 4.23855 0
M  V30 42802 C 4210.57 -0.97591 3.22456 0
M  V30 42803 O 4211.1 -2.05109 3.45388 0
M  V30 42804 N 4209.31 -0.908296 2.7604 0
M  V30 42805 H 4208.85 -0.0331926 2.57579 0
M  V30 42806 H 4208.81 -1.76194 2.6039 0
M  V30 42807 N 4212.58 -1.27143 0.931254 0
M  V30 42808 C 4213.83 -1.94207 0.573561 0
M  V30 42809 C 4214.16 -1.7316 -0.885767 0
M  V30 42810 O 4213.41 -1.05601 -1.64764 0
M  V30 42811 C 4213.71 -3.47142 0.850142 0
M  V30 42812 C 4213.38 -3.88315 2.29177 0
M  V30 42813 C 4212.04 -3.99267 2.68588 0
M  V30 42814 C 4214.39 -4.09119 3.2291 0
M  V30 42815 C 4211.72 -4.28413 4.00848 0
M  V30 42816 C 4214.07 -4.39751 4.54755 0
M  V30 42817 C 4212.74 -4.48916 4.93995 0
M  V30 42818 H 4212.01 -0.710655 0.209881 0
M  V30 42819 H 4214.65 -1.51146 1.17589 0
M  V30 42820 H 4212.96 -3.91452 0.165176 0
M  V30 42821 H 4214.66 -3.97178 0.552303 0
M  V30 42822 H 4211.25 -3.8033 1.97603 0
M  V30 42823 H 4215.43 -4.00095 2.93663 0
M  V30 42824 H 4210.69 -4.33718 4.30927 0
M  V30 42825 H 4214.86 -4.54795 5.27385 0
M  V30 42826 H 4212.49 -4.71254 5.96509 0
M  V30 42827 N 4214.06 -0.697157 -1.41342 0
M  V30 42828 C 4214.99 -0.0472267 -2.33452 0
M  V30 42829 C 4215.97 0.765462 -1.51904 0
M  V30 42830 O 4217.16 0.718114 -1.80435 0
M  V30 42831 C 4214.29 0.888722 -3.35737 0
M  V30 42832 C 4213.24 0.183013 -4.27609 0
M  V30 42833 C 4212.57 1.23343 -5.20279 0
M  V30 42834 C 4213.87 -0.951649 -5.13557 0
M  V30 42835 H 4215.56 -0.816546 -2.8805 0
M  V30 42836 H 4213.11 -0.394113 -1.38502 0
M  V30 42837 H 4215.06 1.35265 -3.99101 0
M  V30 42838 H 4213.79 1.68973 -2.79492 0
M  V30 42839 H 4212.45 -0.260897 -3.6567 0
M  V30 42840 H 4212.09 2.027 -4.6035 0
M  V30 42841 H 4211.79 0.766234 -5.82583 0
M  V30 42842 H 4213.32 1.69783 -5.8652 0
M  V30 42843 H 4214.73 -0.567935 -5.7048 0
M  V30 42844 H 4213.13 -1.34604 -5.84809 0
M  V30 42845 H 4214.2 -1.79061 -4.50628 0
M  V30 42846 N 4215.54 1.51274 -0.44202 0
M  V30 42847 C 4216.79 2.01316 0.124404 0
M  V30 42848 C 4217.1 1.33053 1.43374 0
M  V30 42849 O 4218.31 1.7409 2.08339 0
M  V30 42850 C 4216.77 3.58869 0.272244 0
M  V30 42851 C 4216.37 4.36071 -1.02694 0
M  V30 42852 C 4218.12 4.17043 0.792186 0
M  V30 42853 C 4216.02 5.8534 -0.844481 0
M  V30 42854 H 4214.95 0.752323 0.0502671 0
M  V30 42855 H 4217.61 1.74341 -0.572495 0
M  V30 42856 H 4215.99 3.82309 1.03226 0
M  V30 42857 H 4217.16 4.24374 -1.79564 0
M  V30 42858 H 4215.48 3.89371 -1.47576 0
M  V30 42859 H 4218.07 5.26278 0.945257 0
M  V30 42860 H 4218.42 3.76521 1.77589 0
M  V30 42861 H 4218.95 3.97697 0.0903593 0
M  V30 42862 H 4215.69 6.30282 -1.80069 0
M  V30 42863 H 4215.21 5.99688 -0.115654 0
M  V30 42864 H 4216.89 6.45069 -0.499525 0
M  V30 42865 N 4217.02 0.173543 1.56642 0
M  V30 42866 C 4218.43 -0.342805 1.83526 0
M  V30 42867 C 4218.78 -1.62906 1.09343 0
M  V30 42868 O 4217.91 -2.13597 0.347191 0
M  V30 42869 C 4218.5 -0.628739 3.32915 0
M  V30 42870 C 4217.06 -1.08952 3.60287 0
M  V30 42871 C 4216.21 -0.126572 2.77011 0
M  V30 42872 H 4219.16 0.397763 1.53634 0
M  V30 42873 H 4219.18 -1.48055 3.50514 0
M  V30 42874 H 4218.69 0.307594 3.86879 0
M  V30 42875 H 4216.79 -2.04088 3.11735 0
M  V30 42876 H 4216.91 -0.99714 4.68609 0
M  V30 42877 H 4215.27 -0.624362 2.46929 0
M  V30 42878 H 4216.05 0.803822 3.33757 0
M  V30 42879 N 4218.5 -1.57281 -0.100172 0
M  V30 42880 C 4219.72 -1.90408 -0.822156 0
M  V30 42881 C 4220.15 -0.767328 -1.71737 0
M  V30 42882 O 4219.51 0.281338 -1.79104 0
M  V30 42883 C 4219.55 -3.22376 -1.61574 0
M  V30 42884 O 4218.66 -3.09608 -2.72427 0
M  V30 42885 H 4218 -0.624287 -0.226189 0
M  V30 42886 H 4220.53 -2.04455 -0.0769198 0
M  V30 42887 H 4220.54 -3.5556 -2.00103 0
M  V30 42888 H 4219.21 -4.047 -0.9587 0
M  V30 42889 H 4217.79 -2.87929 -2.36963 0
M  V30 42890 N 4219.98 0.370864 -1.53174 0
M  V30 42891 C 4221.22 1.11186 -1.68766 0
M  V30 42892 C 4221.54 1.89987 -0.439331 0
M  V30 42893 O 4220.81 1.88121 0.546559 0
M  V30 42894 H 4219.39 0.413456 -0.622144 0
M  V30 42895 H 4222.06 0.418761 -1.90348 0
M  V30 42896 H 4221.15 1.80463 -2.54636 0
M  V30 42897 N 4221.45 1.44444 0.630363 0
M  V30 42898 C 4222.73 1.37743 1.38875 0
M  V30 42899 C 4223.11 0.0365289 2.11068 0
M  V30 42900 O 4222.46 -0.980904 2.06375 0
M  V30 42901 C 4222.67 2.5761 2.35453 0
M  V30 42902 C 4224.02 3.01707 2.98761 0
M  V30 42903 O 4225.04 2.5782 2.45779 0
M  V30 42904 O 4223.9 3.77803 3.94876 0
M  V30 42905 H 4220.99 0.545501 0.621577 0
M  V30 42906 H 4223.54 1.56535 0.655355 0
M  V30 42907 H 4222.31 3.46811 1.81212 0
M  V30 42908 H 4221.93 2.41035 3.16209 0
M  V30 42909 N 4222.93 -0.870838 1.31355 0
M  V30 42910 C 4224.18 -1.6206 1.20752 0
M  V30 42911 C 4224.5 -1.93583 -0.234675 0
M  V30 42912 O 4223.77 -1.58219 -1.15515 0
M  V30 42913 H 4222.35 -0.600785 0.443922 0
M  V30 42914 H 4225.01 -1.0426 1.64669 0
M  V30 42915 H 4224.11 -2.56461 1.7786 0
M  V30 42916 N 4224.41 -1.14302 -1.08503 0
M  V30 42917 C 4225.34 -0.786821 -2.15271 0
M  V30 42918 C 4226.35 0.195833 -1.61618 0
M  V30 42919 O 4227.54 -0.0257345 -1.78481 0
M  V30 42920 C 4224.64 -0.147096 -3.38581 0
M  V30 42921 C 4223.82 -1.16423 -4.21621 0
M  V30 42922 C 4222.88 -0.548447 -5.23334 0
M  V30 42923 O 4221.9 -1.21113 -5.56166 0
M  V30 42924 N 4223.1 0.675229 -5.7656 0
M  V30 42925 H 4225.87 -1.70561 -2.46433 0
M  V30 42926 H 4223.43 -1.0373 -1.24305 0
M  V30 42927 H 4225.42 0.277336 -4.03749 0
M  V30 42928 H 4223.99 0.674809 -3.0523 0
M  V30 42929 H 4223.21 -1.76563 -3.52447 0
M  V30 42930 H 4224.5 -1.85136 -4.73922 0
M  V30 42931 H 4223.9 1.23222 -5.52117 0
M  V30 42932 H 4222.45 1.04218 -6.43414 0
M  V30 42933 N 4225.89 1.26648 -0.937984 0
M  V30 42934 C 4227.13 1.95661 -0.591287 0
M  V30 42935 C 4227.49 1.71997 0.853285 0
M  V30 42936 O 4228.69 2.34787 1.30876 0
M  V30 42937 C 4226.96 3.45344 -0.920443 0
M  V30 42938 S 4228.52 4.33439 -0.683809 0
M  V30 42939 H 4225.34 0.676789 -0.217894 0
M  V30 42940 H 4227.94 1.53664 -1.20862 0
M  V30 42941 H 4226.65 3.60067 -1.96927 0
M  V30 42942 H 4226.18 3.9231 -0.29271 0
M  V30 42943 H 4228.19 4.94123 0.453519 0
M  V30 42944 N 4227.37 0.704643 1.4097 0
M  V30 42945 C 4228.3 0.00579927 2.29199 0
M  V30 42946 C 4229.31 -0.735077 1.4526 0
M  V30 42947 O 4230.5 -0.584273 1.68667 0
M  V30 42948 C 4227.6 -1.01598 3.23313 0
M  V30 42949 C 4226.77 -0.342875 4.36054 0
M  V30 42950 C 4225.83 -1.26852 5.10681 0
M  V30 42951 O 4224.86 -0.757456 5.64138 0
M  V30 42952 N 4226.06 -2.60034 5.19001 0
M  V30 42953 H 4228.82 0.763315 2.89816 0
M  V30 42954 H 4226.39 0.551394 1.52221 0
M  V30 42955 H 4228.38 -1.63715 3.70107 0
M  V30 42956 H 4226.95 -1.67495 2.6394 0
M  V30 42957 H 4226.17 0.458323 3.91527 0
M  V30 42958 H 4227.46 0.124797 5.08647 0
M  V30 42959 H 4226.85 -3.04064 4.77034 0
M  V30 42960 H 4225.41 -3.17323 5.69341 0
M  V30 42961 N 4228.84 -1.51038 0.450036 0
M  V30 42962 C 4229.79 -2.29651 -0.369227 0
M  V30 42963 C 4230.79 -1.36035 -1.00949 0
M  V30 42964 O 4231.99 -1.53321 -0.943005 0
M  V30 42965 H 4228.37 -0.739249 -0.137894 0
M  V30 42966 H 4230.34 -2.96738 0.314485 0
M  V30 42967 C 4229.09 -3.15987 -1.45077 0
M  V30 42968 H 4228.41 -3.87918 -0.967465 0
M  V30 42969 H 4229.85 -3.74027 -1.997 0
M  V30 42970 C 4228.31 -2.32191 -2.44108 0
M  V30 42971 O 4228.84 -1.99033 -3.48925 0
M  V30 42972 N 4227.05 -1.95171 -2.15306 0
M  V30 42973 H 4226.59 -2.22335 -1.30095 0
M  V30 42974 H 4226.55 -1.39403 -2.81805 0
M  V30 42975 N 4230.32 -0.181847 -1.56547 0
M  V30 42976 C 4231.55 0.469507 -2.02016 0
M  V30 42977 C 4231.97 1.55305 -1.06122 0
M  V30 42978 O 4231.33 1.8125 -0.0424914 0
M  V30 42979 C 4231.38 1.01509 -3.46018 0
M  V30 42980 O 4230.48 2.12863 -3.53218 0
M  V30 42981 H 4229.82 0.111262 -0.654612 0
M  V30 42982 H 4232.35 -0.288833 -2.02551 0
M  V30 42983 H 4232.36 1.33505 -3.85539 0
M  V30 42984 H 4231.04 0.221807 -4.15308 0
M  V30 42985 H 4229.62 1.81832 -3.25563 0
M  V30 42986 N 4231.8 1.57332 0.09183 0
M  V30 42987 C 4233.05 1.86254 0.794724 0
M  V30 42988 C 4233.38 0.770825 1.78574 0
M  V30 42989 O 4232.63 -0.235257 1.94281 0
M  V30 42990 C 4232.93 3.21773 1.55553 0
M  V30 42991 C 4232.6 4.45333 0.706348 0
M  V30 42992 C 4231.26 4.78877 0.472262 0
M  V30 42993 C 4233.61 5.2107 0.116222 0
M  V30 42994 C 4230.94 5.85584 -0.36176 0
M  V30 42995 C 4233.29 6.28658 -0.705141 0
M  V30 42996 C 4231.95 6.60715 -0.949288 0
M  V30 42997 H 4231.22 0.68155 0.29081 0
M  V30 42998 H 4233.87 1.91418 0.056103 0
M  V30 42999 H 4232.18 3.12308 2.36582 0
M  V30 43000 H 4233.87 3.41379 2.10384 0
M  V30 43001 H 4230.46 4.19067 0.898911 0
M  V30 43002 H 4234.65 4.95485 0.284228 0
M  V30 43003 H 4229.9 6.08831 -0.559864 0
M  V30 43004 H 4234.08 6.86514 -1.16926 0
M  V30 43005 H 4231.7 7.43229 -1.59734 0
M  V30 43006 N 4233.28 -0.362736 1.53369 0
M  V30 43007 C 4234.52 -1.10671 1.6994 0
M  V30 43008 C 4234.86 -1.88883 0.451335 0
M  V30 43009 O 4234.13 -1.8652 -0.551419 0
M  V30 43010 C 4234.42 -2.06362 2.95105 0
M  V30 43011 C 4234.27 -1.3174 4.30075 0
M  V30 43012 C 4235.59 -3.06446 3.15878 0
M  V30 43013 H 4232.71 -0.400957 0.618387 0
M  V30 43014 H 4235.35 -0.387232 1.86012 0
M  V30 43015 H 4233.5 -2.67715 2.81533 0
M  V30 43016 H 4235.17 -0.731494 4.55463 0
M  V30 43017 H 4233.41 -0.619272 4.29357 0
M  V30 43018 H 4234.08 -2.01794 5.13793 0
M  V30 43019 H 4236.56 -2.55198 3.28653 0
M  V30 43020 H 4235.44 -3.70621 4.04884 0
M  V30 43021 H 4235.7 -3.76774 2.31288 0
M  V30 43022 N 4234.76 -1.44777 -0.622694 0
M  V30 43023 C 4235.7 -1.52291 -1.73424 0
M  V30 43024 C 4236.67 -0.369945 -1.61928 0
M  V30 43025 O 4237.86 -0.58134 -1.81728 0
M  V30 43026 C 4235 -1.48117 -3.11697 0
M  V30 43027 C 4234.11 -2.73852 -3.34109 0
M  V30 43028 C 4233.25 -2.61453 -4.62402 0
M  V30 43029 C 4232.29 -3.82312 -4.78021 0
M  V30 43030 N 4231.42 -3.68539 -5.97598 0
M  V30 43031 H 4236.26 -2.47257 -1.66337 0
M  V30 43032 H 4233.8 -1.22705 -0.811289 0
M  V30 43033 H 4235.76 -1.43687 -3.91676 0
M  V30 43034 H 4234.39 -0.567132 -3.17779 0
M  V30 43035 H 4233.44 -2.88434 -2.48012 0
M  V30 43036 H 4234.75 -3.63539 -3.41527 0
M  V30 43037 H 4233.91 -2.54904 -5.50553 0
M  V30 43038 H 4232.64 -1.69341 -4.57357 0
M  V30 43039 H 4231.65 -3.89237 -3.88297 0
M  V30 43040 H 4232.87 -4.75472 -4.84874 0
M  V30 43041 H 4230.82 -2.79184 -5.93627 0
M  V30 43042 H 4230.74 -4.51848 -6.0611 0
M  V30 43043 H 4232.01 -3.65895 -6.88288 0
M  V30 43044 N 4236.23 0.863859 -1.31815 0
M  V30 43045 C 4237.48 1.61976 -1.22031 0
M  V30 43046 C 4237.81 1.92954 0.219627 0
M  V30 43047 O 4237.09 1.56548 1.15426 0
M  V30 43048 C 4237.37 2.94605 -2.07075 0
M  V30 43049 C 4237.22 2.70466 -3.59399 0
M  V30 43050 C 4238.54 3.95775 -1.92484 0
M  V30 43051 H 4235.66 0.587754 -0.444651 0
M  V30 43052 H 4238.3 0.998174 -1.61668 0
M  V30 43053 H 4236.45 3.47656 -1.73401 0
M  V30 43054 H 4238.13 2.24041 -4.03241 0
M  V30 43055 H 4236.37 2.04591 -3.82525 0
M  V30 43056 H 4237.04 3.64864 -4.1422 0
M  V30 43057 H 4239.52 3.51953 -2.21965 0
M  V30 43058 H 4238.39 4.86449 -2.54281 0
M  V30 43059 H 4238.65 4.33052 -0.889859 0
M  V30 43060 N 4237.71 1.14875 1.07895 0
M  V30 43061 C 4238.96 0.93153 1.80815 0
M  V30 43062 C 4239.31 -0.535921 1.84785 0
M  V30 43063 O 4238.61 -1.39206 1.31652 0
M  V30 43064 C 4238.8 1.47273 3.25646 0
M  V30 43065 C 4238.63 2.99127 3.35788 0
M  V30 43066 C 4237.4 3.67623 3.46672 0
M  V30 43067 C 4239.6 3.96954 3.27004 0
M  V30 43068 N 4237.58 5.0734 3.45658 0
M  V30 43069 C 4238.95 5.22955 3.33044 0
M  V30 43070 C 4241.01 3.89001 3.10777 0
M  V30 43071 C 4239.71 6.41931 3.24526 0
M  V30 43072 C 4241.73 5.0753 3.03591 0
M  V30 43073 C 4241.1 6.32402 3.10238 0
M  V30 43074 H 4237.2 0.394464 0.67522 0
M  V30 43075 H 4239.78 1.45981 1.28832 0
M  V30 43076 H 4237.95 0.971153 3.76063 0
M  V30 43077 H 4239.68 1.19489 3.86658 0
M  V30 43078 H 4236.44 3.18194 3.50784 0
M  V30 43079 H 4236.86 5.80294 3.48694 0
M  V30 43080 H 4241.5 2.93329 3.04496 0
M  V30 43081 H 4239.22 7.37842 3.29567 0
M  V30 43082 H 4242.81 5.03132 2.92147 0
M  V30 43083 H 4241.69 7.22578 3.04714 0
M  V30 43084 N 4239.19 -1.26148 0.944687 0
M  V30 43085 C 4240.15 -2.24504 0.461587 0
M  V30 43086 C 4241.15 -1.54965 -0.429249 0
M  V30 43087 O 4242.34 -1.72702 -0.227935 0
M  V30 43088 C 4239.48 -3.39257 -0.334303 0
M  V30 43089 H 4240.67 -2.68756 1.3308 0
M  V30 43090 H 4238.22 -1.38364 0.726992 0
M  V30 43091 H 4238.96 -3.00412 -1.22161 0
M  V30 43092 H 4238.74 -3.90915 0.304657 0
M  V30 43093 H 4240.23 -4.12318 -0.662109 0
M  V30 43094 N 4240.67 -0.712109 -1.40594 0
M  V30 43095 C 4241.92 -0.249628 -2.00552 0
M  V30 43096 C 4242.24 1.16009 -1.56738 0
M  V30 43097 O 4241.51 1.78583 -0.80529 0
M  V30 43098 H 4240.09 -0.0893015 -0.741643 0
M  V30 43099 H 4242.75 -0.916964 -1.71982 0
M  V30 43100 H 4241.85 -0.279993 -3.10842 0
M  V30 43101 N 4242.15 1.50797 -0.45804 0
M  V30 43102 C 4243.37 2.06661 0.0995016 0
M  V30 43103 C 4243.79 1.32334 1.3466 0
M  V30 43104 O 4243.15 0.388799 1.7831 0
M  V30 43105 C 4243.2 3.59271 0.400837 0
M  V30 43106 O 4242.92 4.30793 -0.796781 0
M  V30 43107 C 4244.42 4.31716 1.00678 0
M  V30 43108 H 4241.64 0.670999 -0.00126807 0
M  V30 43109 H 4244.18 1.94126 -0.643075 0
M  V30 43110 H 4242.34 3.71652 1.09333 0
M  V30 43111 H 4242.75 5.2178 -0.533488 0
M  V30 43112 H 4244.23 5.39513 1.16748 0
M  V30 43113 H 4244.7 3.91356 1.99342 0
M  V30 43114 H 4245.31 4.23832 0.353061 0
M  V30 43115 N 4243.63 0.190147 1.56449 0
M  V30 43116 C 4244.54 -0.74477 2.22464 0
M  V30 43117 C 4245.55 -1.23853 1.22215 0
M  V30 43118 O 4246.73 -1.28672 1.54937 0
M  V30 43119 C 4243.79 -1.94918 2.86719 0
M  V30 43120 C 4242.85 -1.50047 4.02224 0
M  V30 43121 C 4242.09 -2.64747 4.63406 0
M  V30 43122 O 4242.31 -3.82102 4.23502 0
M  V30 43123 O 4241.24 -2.37743 5.52957 0
M  V30 43124 H 4245.07 -0.21258 3.02955 0
M  V30 43125 H 4242.65 -0.0389201 1.49349 0
M  V30 43126 H 4244.54 -2.65319 3.2739 0
M  V30 43127 H 4243.21 -2.47007 2.09211 0
M  V30 43128 H 4242.12 -0.765404 3.66186 0
M  V30 43129 H 4243.45 -1.0263 4.81381 0
M  V30 43130 N 4245.1 -1.57379 -0.083485 0
M  V30 43131 C 4246.01 -2.06218 -1.11855 0
M  V30 43132 C 4247.03 -0.989358 -1.43135 0
M  V30 43133 O 4248.21 -1.3033 -1.53545 0
M  V30 43134 C 4245.27 -2.48659 -2.41598 0
M  V30 43135 C 4244.33 -3.70186 -2.17395 0
M  V30 43136 C 4243.56 -4.10594 -3.40952 0
M  V30 43137 O 4243.79 -3.50982 -4.49631 0
M  V30 43138 O 4242.72 -5.03468 -3.29854 0
M  V30 43139 H 4246.55 -2.94704 -0.73369 0
M  V30 43140 H 4244.13 -1.46422 -0.296808 0
M  V30 43141 H 4246.01 -2.76531 -3.17975 0
M  V30 43142 H 4244.69 -1.63306 -2.79487 0
M  V30 43143 H 4243.6 -3.47414 -1.3876 0
M  V30 43144 H 4244.93 -4.56355 -1.84393 0
M  V30 43145 N 4246.58 0.354597 -1.53559 0
M  V30 43146 C 4247.83 1.09769 -1.70525 0
M  V30 43147 C 4248.16 1.88641 -0.461345 0
M  V30 43148 O 4247.44 1.8681 0.54152 0
M  V30 43149 C 4247.72 2.04794 -2.96195 0
M  V30 43150 C 4247.57 1.29458 -4.30768 0
M  V30 43151 C 4248.89 3.04767 -3.17498 0
M  V30 43152 H 4246.01 0.397672 -0.620504 0
M  V30 43153 H 4248.65 0.377362 -1.86215 0
M  V30 43154 H 4246.8 2.66218 -2.82949 0
M  V30 43155 H 4248.47 0.707329 -4.55845 0
M  V30 43156 H 4246.72 0.596493 -4.29679 0
M  V30 43157 H 4247.39 1.99067 -5.14856 0
M  V30 43158 H 4249.86 2.53452 -3.30002 0
M  V30 43159 H 4248.74 3.68468 -4.06844 0
M  V30 43160 H 4249 3.75542 -2.33283 0
M  V30 43161 N 4248.06 1.45105 0.615008 0
M  V30 43162 C 4249.34 1.39208 1.37406 0
M  V30 43163 C 4249.72 0.0589134 2.11018 0
M  V30 43164 O 4249.06 -0.95896 2.07403 0
M  V30 43165 C 4249.27 2.60093 2.32708 0
M  V30 43166 C 4250.62 3.04859 2.95544 0
M  V30 43167 O 4251.65 2.60413 2.4303 0
M  V30 43168 O 4250.51 3.8197 3.90847 0
M  V30 43169 H 4247.6 0.552063 0.615756 0
M  V30 43170 H 4250.15 1.57221 0.638715 0
M  V30 43171 H 4248.92 3.48714 1.77523 0
M  V30 43172 H 4248.54 2.44375 3.13634 0
M  V30 43173 N 4249.54 -0.856857 1.32271 0
M  V30 43174 C 4250.48 -1.96525 1.21023 0
M  V30 43175 C 4251.45 -1.6584 0.092914 0
M  V30 43176 O 4252.64 -1.88907 0.268077 0
M  V30 43177 C 4249.78 -3.32136 0.937001 0
M  V30 43178 C 4248.89 -3.75333 2.1389 0
M  V30 43179 C 4248.03 -4.99725 1.80134 0
M  V30 43180 C 4247.07 -5.35407 2.96657 0
M  V30 43181 N 4246.2 -6.50977 2.63008 0
M  V30 43182 H 4251.04 -2.05477 2.15831 0
M  V30 43183 H 4248.58 -1.00573 1.07347 0
M  V30 43184 H 4250.54 -4.10236 0.75909 0
M  V30 43185 H 4249.17 -3.2279 0.0257197 0
M  V30 43186 H 4248.22 -2.92905 2.42716 0
M  V30 43187 H 4249.53 -3.97699 3.01059 0
M  V30 43188 H 4248.69 -5.85527 1.58881 0
M  V30 43189 H 4247.43 -4.79291 0.901746 0
M  V30 43190 H 4246.43 -4.48119 3.18543 0
M  V30 43191 H 4247.66 -5.578 3.87345 0
M  V30 43192 H 4245.6 -6.32064 1.75588 0
M  V30 43193 H 4245.52 -6.73351 3.43708 0
M  V30 43194 H 4246.79 -7.39937 2.45181 0
M  V30 43195 N 4251.02 -1.15446 -1.07285 0
M  V30 43196 C 4251.98 -0.854456 -2.12677 0
M  V30 43197 C 4252.98 0.146088 -1.60135 0
M  V30 43198 O 4254.17 -0.0836258 -1.73999 0
M  V30 43199 C 4251.3 -0.275909 -3.39782 0
M  V30 43200 H 4252.49 -1.78864 -2.40723 0
M  V30 43201 H 4250.05 -0.962031 -1.23185 0
M  V30 43202 H 4250.78 0.666441 -3.17378 0
M  V30 43203 H 4250.57 -0.996732 -3.7922 0
M  V30 43204 H 4252.06 -0.0836151 -4.17516 0
M  V30 43205 N 4252.49 1.25646 -0.951364 0
M  V30 43206 C 4253.42 2.28366 -0.486938 0
M  V30 43207 C 4254.4 1.6362 0.465043 0
M  V30 43208 O 4255.59 1.90745 0.364703 0
M  V30 43209 C 4252.72 3.46476 0.239168 0
M  V30 43210 C 4251.67 4.23379 -0.627237 0
M  V30 43211 C 4251 5.34208 0.22942 0
M  V30 43212 C 4252.3 4.8637 -1.90371 0
M  V30 43213 H 4253.99 2.67465 -1.34547 0
M  V30 43214 H 4251.54 1.28576 -0.648405 0
M  V30 43215 H 4253.49 4.17456 0.575178 0
M  V30 43216 H 4252.22 3.06358 1.13192 0
M  V30 43217 H 4250.88 3.54177 -0.946285 0
M  V30 43218 H 4250.52 4.9033 1.12183 0
M  V30 43219 H 4250.22 5.86575 -0.346955 0
M  V30 43220 H 4251.75 6.08022 0.560471 0
M  V30 43221 H 4253.16 5.49512 -1.63431 0
M  V30 43222 H 4251.56 5.489 -2.42547 0
M  V30 43223 H 4252.63 4.08739 -2.60883 0
M  V30 43224 N 4253.97 0.719555 1.40215 0
M  V30 43225 C 4254.9 0.084361 2.33348 0
M  V30 43226 C 4255.88 -0.741198 1.53102 0
M  V30 43227 O 4257.07 -0.689318 1.81555 0
M  V30 43228 C 4254.2 -0.835197 3.37108 0
M  V30 43229 C 4253.15 -0.114961 4.27846 0
M  V30 43230 C 4252.48 -1.1505 5.22176 0
M  V30 43231 C 4253.78 1.03323 5.11978 0
M  V30 43232 H 4255.47 0.862269 2.86715 0
M  V30 43233 H 4253.02 0.416098 1.37857 0
M  V30 43234 H 4254.97 -1.28898 4.01202 0
M  V30 43235 H 4253.69 -1.64505 2.82145 0
M  V30 43236 H 4252.35 0.319039 3.65209 0
M  V30 43237 H 4252 -1.95351 4.63516 0
M  V30 43238 H 4251.7 -0.673453 5.83728 0
M  V30 43239 H 4253.23 -1.6043 5.89147 0
M  V30 43240 H 4254.64 0.658622 5.69504 0
M  V30 43241 H 4253.04 1.43891 5.82594 0
M  V30 43242 H 4254.11 1.86207 4.47722 0
M  V30 43243 N 4255.45 -1.50552 0.466031 0
M  V30 43244 C 4256.41 -2.26964 -0.319395 0
M  V30 43245 C 4257.41 -1.3154 -0.924867 0
M  V30 43246 O 4258.6 -1.5501 -0.794835 0
M  V30 43247 C 4255.73 -3.08313 -1.45452 0
M  V30 43248 H 4256.93 -2.97843 0.350658 0
M  V30 43249 H 4254.48 -1.54745 0.219952 0
M  V30 43250 H 4255.22 -2.41918 -2.15977 0
M  V30 43251 H 4255 -3.78433 -1.02622 0
M  V30 43252 H 4256.49 -3.66116 -2.0087 0
M  V30 43253 N 4256.93 -0.198441 -1.56346 0
M  V30 43254 C 4258.16 0.444954 -2.02059 0
M  V30 43255 C 4258.57 1.54961 -1.07855 0
M  V30 43256 O 4257.93 1.82307 -0.0840038 0
M  V30 43257 C 4257.98 0.998159 -3.47446 0
M  V30 43258 O 4257.7 -0.0624246 -4.38056 0
M  V30 43259 C 4259.2 1.7171 -4.08694 0
M  V30 43260 H 4256.42 0.111372 -0.661693 0
M  V30 43261 H 4258.96 -0.308127 -2.02165 0
M  V30 43262 H 4257.12 1.70161 -3.48029 0
M  V30 43263 H 4257.53 0.349847 -5.23332 0
M  V30 43264 H 4259.01 2.05645 -5.12264 0
M  V30 43265 H 4259.48 2.622 -3.52346 0
M  V30 43266 H 4260.09 1.05942 -4.11894 0
M  V30 43267 N 4258.41 1.57421 0.0751377 0
M  V30 43268 C 4259.65 1.86716 0.773394 0
M  V30 43269 C 4259.98 0.78997 1.78282 0
M  V30 43270 O 4259.25 -0.181725 1.95055 0
M  V30 43271 H 4257.83 0.68899 0.288619 0
M  V30 43272 H 4260.49 1.94831 0.0520209 0
M  V30 43273 H 4259.58 2.84117 1.29167 0
M  V30 43274 N 4259.88 -0.346449 1.53745 0
M  V30 43275 C 4261.12 -1.09549 1.72564 0
M  V30 43276 C 4261.49 -1.85976 0.47717 0
M  V30 43277 O 4262.69 -2.63272 0.542341 0
M  V30 43278 C 4260.96 -2.01401 2.9525 0
M  V30 43279 S 4262.52 -2.83567 3.34866 0
M  V30 43280 H 4259.34 -0.370198 0.607021 0
M  V30 43281 H 4261.94 -0.374282 1.91884 0
M  V30 43282 H 4260.64 -1.4405 3.84289 0
M  V30 43283 H 4260.17 -2.77964 2.78387 0
M  V30 43284 H 4262.19 -4.03801 2.88374 0
M  V30 43285 N 4261.36 -1.45429 -0.607304 0
M  V30 43286 C 4262.61 -1.49165 -1.3636 0
M  V30 43287 C 4262.93 -0.134861 -1.94533 0
M  V30 43288 O 4262.2 0.835807 -1.77175 0
M  V30 43289 H 4260.78 -0.549323 -0.506215 0
M  V30 43290 H 4263.44 -1.81386 -0.713106 0
M  V30 43291 H 4262.54 -2.23062 -2.18288 0
M  V30 43292 N 4262.84 0.84983 -1.32724 0
M  V30 43293 C 4263.79 1.98021 -1.22027 0
M  V30 43294 C 4264.78 1.68945 -0.12401 0
M  V30 43295 O 4265.99 1.77693 -0.287254 0
M  V30 43296 H 4262.36 0.649866 -0.378389 0
M  V30 43297 H 4264.33 2.04169 -2.17618 0
M  V30 43298 C 4263.08 3.34037 -0.965135 0
M  V30 43299 H 4262.41 3.56942 -1.80091 0
M  V30 43300 H 4263.85 4.13663 -0.930552 0
M  V30 43301 C 4262.31 3.35259 0.332078 0
M  V30 43302 O 4262.84 3.78607 1.34238 0
M  V30 43303 N 4261.04 2.88414 0.355756 0
M  V30 43304 H 4260.59 2.53333 -0.466935 0
M  V30 43305 H 4260.55 2.89615 1.22355 0
M  V30 43306 N 4264.32 1.16013 1.06671 0
M  V30 43307 C 4265.56 0.940672 1.79664 0
M  V30 43308 C 4265.9 -0.53047 1.86815 0
M  V30 43309 O 4265.17 -1.39346 1.35695 0
M  V30 43310 C 4265.46 1.56413 3.24356 0
M  V30 43311 C 4265.31 3.10635 3.25309 0
M  V30 43312 C 4266.63 1.25564 4.21808 0
M  V30 43313 H 4263.75 0.343157 0.652236 0
M  V30 43314 H 4266.39 1.43285 1.24778 0
M  V30 43315 H 4264.54 1.1456 3.71225 0
M  V30 43316 H 4266.21 3.61443 2.8663 0
M  V30 43317 H 4264.45 3.44164 2.64071 0
M  V30 43318 H 4265.12 3.49375 4.27365 0
M  V30 43319 H 4267.6 1.61779 3.83362 0
M  V30 43320 H 4266.48 1.71794 5.21323 0
M  V30 43321 H 4266.74 0.173822 4.41758 0
M  V30 43322 N 4265.8 -1.25139 0.958014 0
M  V30 43323 C 4266.76 -2.24002 0.485372 0
M  V30 43324 C 4267.76 -1.55411 -0.412789 0
M  V30 43325 O 4268.95 -1.72934 -0.209604 0
M  V30 43326 C 4266.08 -3.39592 -0.298302 0
M  V30 43327 H 4267.27 -2.67329 1.35923 0
M  V30 43328 H 4264.83 -1.37585 0.741627 0
M  V30 43329 H 4265.56 -3.0169 -1.18968 0
M  V30 43330 H 4265.35 -3.9057 0.346101 0
M  V30 43331 H 4266.84 -4.12997 -0.61834 0
M  V30 43332 N 4267.27 -0.726981 -1.39831 0
M  V30 43333 C 4268.69 -0.342401 -1.83533 0
M  V30 43334 C 4269.04 1.12487 -1.60752 0
M  V30 43335 O 4268.16 1.86686 -1.09442 0
M  V30 43336 C 4268.76 -0.614684 -3.33177 0
M  V30 43337 C 4267.32 -0.283687 -3.75329 0
M  V30 43338 C 4266.46 -0.881343 -2.62921 0
M  V30 43339 H 4269.41 -0.925252 -1.28937 0
M  V30 43340 H 4269.43 0.116263 -3.80322 0
M  V30 43341 H 4268.95 -1.68265 -3.49726 0
M  V30 43342 H 4267.05 0.778762 -3.64371 0
M  V30 43343 H 4267.16 -0.760645 -4.73023 0
M  V30 43344 H 4265.52 -0.308548 -2.52824 0
M  V30 43345 H 4266.31 -1.9538 -2.82279 0
M  V30 43346 N 4268.75 1.50303 -0.474008 0
M  V30 43347 C 4270 2.01942 0.0798161 0
M  V30 43348 C 4270.32 1.35787 1.39953 0
M  V30 43349 O 4269.59 0.504175 1.89301 0
M  V30 43350 H 4268.17 0.746293 0.032487 0
M  V30 43351 H 4270.83 1.84604 -0.625096 0
M  V30 43352 H 4269.93 3.11257 0.229198 0
M  V30 43353 N 4270.23 0.20673 1.56238 0
M  V30 43354 C 4271.64 -0.303799 1.84212 0
M  V30 43355 C 4271.99 -1.6055 1.12774 0
M  V30 43356 O 4271.12 -2.12812 0.39242 0
M  V30 43357 C 4271.71 -0.557982 3.34174 0
M  V30 43358 C 4270.27 -1.01285 3.62517 0
M  V30 43359 C 4269.42 -0.0677857 2.77217 0
M  V30 43360 H 4272.37 0.430262 1.52756 0
M  V30 43361 H 4272.39 -1.40586 3.53576 0
M  V30 43362 H 4271.9 0.389588 3.8614 0
M  V30 43363 H 4270 -1.9743 3.15994 0
M  V30 43364 H 4270.12 -0.897517 4.70618 0
M  V30 43365 H 4268.48 -0.571845 2.48198 0
M  V30 43366 H 4269.26 0.874436 3.31977 0
M  V30 43367 N 4271.71 -1.57458 -0.0667882 0
M  V30 43368 C 4272.95 -1.87772 -0.766126 0
M  V30 43369 C 4273.29 -0.799675 -1.76971 0
M  V30 43370 O 4272.56 0.18952 -1.93574 0
M  V30 43371 C 4272.85 -3.28746 -1.46963 0
M  V30 43372 C 4272.7 -4.47209 -0.482117 0
M  V30 43373 C 4274.02 -3.68033 -2.41329 0
M  V30 43374 H 4271.14 -0.682942 -0.277054 0
M  V30 43375 H 4273.78 -1.89977 -0.0292417 0
M  V30 43376 H 4271.93 -3.26997 -2.09775 0
M  V30 43377 H 4273.6 -4.61084 0.141177 0
M  V30 43378 H 4271.84 -4.33329 0.202117 0
M  V30 43379 H 4272.51 -5.42643 -1.01208 0
M  V30 43380 H 4274.99 -3.70908 -1.88591 0
M  V30 43381 H 4273.87 -4.67551 -2.87554 0
M  V30 43382 H 4274.13 -2.98235 -3.26356 0
M  V30 43383 N 4273.19 0.33829 -1.53926 0
M  V30 43384 C 4274.44 1.07539 -1.70641 0
M  V30 43385 C 4274.75 1.89641 -0.47911 0
M  V30 43386 O 4275.96 2.6633 -0.527306 0
M  V30 43387 C 4274.41 1.96129 -3.01764 0
M  V30 43388 C 4274.02 1.19208 -4.31849 0
M  V30 43389 C 4275.76 2.69664 -3.27843 0
M  V30 43390 C 4273.67 2.06859 -5.54043 0
M  V30 43391 H 4272.6 0.405189 -0.635876 0
M  V30 43392 H 4275.25 0.334538 -1.80425 0
M  V30 43393 H 4273.63 2.74055 -2.8585 0
M  V30 43394 H 4274.81 0.461567 -4.58482 0
M  V30 43395 H 4273.12 0.57419 -4.12422 0
M  V30 43396 H 4275.72 3.35523 -4.16327 0
M  V30 43397 H 4276.06 3.36514 -2.4508 0
M  V30 43398 H 4276.6 1.98809 -3.44557 0
M  V30 43399 H 4273.33 1.44543 -6.39365 0
M  V30 43400 H 4272.85 2.77685 -5.31649 0
M  V30 43401 H 4274.53 2.6579 -5.89886 0
M  V30 43402 N 4274.67 1.45749 0.599583 0
M  V30 43403 C 4275.89 1.53723 1.3848 0
M  V30 43404 C 4276.31 0.172545 1.8801 0
M  V30 43405 O 4275.67 -0.827302 1.62671 0
M  V30 43406 C 4275.72 2.52823 2.58385 0
M  V30 43407 O 4275.44 3.83989 2.10912 0
M  V30 43408 C 4276.94 2.70574 3.51148 0
M  V30 43409 H 4274.16 0.520365 0.423628 0
M  V30 43410 H 4276.7 1.91008 0.730493 0
M  V30 43411 H 4274.86 2.18588 3.1984 0
M  V30 43412 H 4275.27 4.3778 2.88875 0
M  V30 43413 H 4276.75 3.43873 4.31805 0
M  V30 43414 H 4277.22 1.76887 4.02004 0
M  V30 43415 H 4277.83 3.05837 2.9554 0
M  V30 43416 N 4276.14 -0.84278 1.33173 0
M  V30 43417 C 4277.55 -1.41394 1.2192 0
M  V30 43418 C 4277.91 -1.95518 -0.163491 0
M  V30 43419 O 4277.03 -1.88499 -1.06288 0
M  V30 43420 C 4277.63 -2.57027 2.20732 0
M  V30 43421 C 4276.18 -3.10108 2.1333 0
M  V30 43422 C 4275.33 -1.82894 2.08435 0
M  V30 43423 H 4278.28 -0.648886 1.44828 0
M  V30 43424 H 4278.3 -3.34543 1.81276 0
M  V30 43425 H 4277.82 -2.17605 3.21356 0
M  V30 43426 H 4275.92 -3.54085 1.15995 0
M  V30 43427 H 4276.03 -3.70547 3.03697 0
M  V30 43428 H 4274.39 -2.02982 1.53852 0
M  V30 43429 H 4275.18 -1.45673 3.10861 0
M  V30 43430 N 4277.62 -1.16577 -1.06054 0
M  V30 43431 C 4278.85 -0.973571 -1.83129 0
M  V30 43432 C 4279.27 0.473326 -1.82047 0
M  V30 43433 O 4278.63 1.33832 -1.22306 0
M  V30 43434 C 4278.68 -1.50858 -3.27527 0
M  V30 43435 O 4277.78 -0.716522 -4.06128 0
M  V30 43436 H 4277.12 -0.346289 -0.566551 0
M  V30 43437 H 4279.65 -1.54872 -1.33701 0
M  V30 43438 H 4279.66 -1.5271 -3.78343 0
M  V30 43439 H 4278.34 -2.56186 -3.2763 0
M  V30 43440 H 4276.91 -0.768704 -3.64891 0
M  V30 43441 N 4279.1 1.2463 -0.964637 0
M  V30 43442 C 4280.05 2.27505 -0.484166 0
M  V30 43443 C 4281.04 1.63294 0.450721 0
M  V30 43444 O 4282.25 1.77017 0.326349 0
M  V30 43445 H 4278.62 0.739211 -0.138096 0
M  V30 43446 H 4280.59 2.65408 -1.36387 0
M  V30 43447 C 4279.34 3.47047 0.213052 0
M  V30 43448 H 4278.67 3.96696 -0.497208 0
M  V30 43449 H 4280.11 4.20884 0.513107 0
M  V30 43450 C 4278.56 3.04622 1.43899 0
M  V30 43451 O 4279.09 3.11512 2.5362 0
M  V30 43452 N 4277.3 2.59704 1.30393 0
M  V30 43453 H 4276.85 2.54297 0.4112 0
M  V30 43454 H 4276.81 2.31684 2.12533 0
M  V30 43455 N 4280.58 0.734386 1.39444 0
M  V30 43456 C 4281.81 0.292286 2.04825 0
M  V30 43457 C 4282.22 -1.07267 1.55368 0
M  V30 43458 O 4281.58 -1.67769 0.718312 0
M  V30 43459 C 4281.63 0.284363 3.6038 0
M  V30 43460 O 4281.35 1.59544 4.08016 0
M  V30 43461 C 4282.85 -0.17398 4.42958 0
M  V30 43462 H 4280.07 0.127873 0.658703 0
M  V30 43463 H 4282.61 0.997864 1.78502 0
M  V30 43464 H 4280.77 -0.372323 3.85607 0
M  V30 43465 H 4281.18 1.50858 5.02337 0
M  V30 43466 H 4282.66 -0.128365 5.51851 0
M  V30 43467 H 4283.13 -1.21906 4.21943 0
M  V30 43468 H 4283.74 0.453118 4.22879 0
M  V30 43469 N 4282.06 -1.50049 0.481972 0
M  V30 43470 C 4283.3 -2.02382 -0.0692423 0
M  V30 43471 C 4283.63 -1.36316 -1.38738 0
M  V30 43472 O 4282.89 -0.481507 -1.89684 0
M  V30 43473 C 4283.18 -3.56222 -0.289891 0
M  V30 43474 C 4282.85 -4.40824 0.94788 0
M  V30 43475 C 4281.51 -4.63664 1.28722 0
M  V30 43476 C 4283.86 -4.90171 1.77151 0
M  V30 43477 C 4281.19 -5.33094 2.45004 0
M  V30 43478 C 4283.54 -5.60879 2.9257 0
M  V30 43479 C 4282.21 -5.8197 3.26906 0
M  V30 43480 H 4281.48 -0.740567 -0.0253375 0
M  V30 43481 H 4284.13 -1.8055 0.638266 0
M  V30 43482 H 4282.43 -3.76628 -1.07975 0
M  V30 43483 H 4284.13 -3.9429 -0.730531 0
M  V30 43484 H 4280.72 -4.23275 0.673526 0
M  V30 43485 H 4284.9 -4.7237 1.52251 0
M  V30 43486 H 4280.16 -5.47629 2.71868 0
M  V30 43487 H 4284.33 -5.98095 3.56729 0
M  V30 43488 H 4281.96 -6.35546 4.17116 0
M  V30 43489 N 4283.53 -0.215012 -1.56126 0
M  V30 43490 C 4284.76 0.423498 -2.02519 0
M  V30 43491 C 4285.18 1.53808 -1.09492 0
M  V30 43492 O 4284.53 1.82207 -0.103335 0
M  V30 43493 C 4284.58 0.961252 -3.48486 0
M  V30 43494 O 4284.31 -0.108883 -4.37965 0
M  V30 43495 C 4285.81 1.67366 -4.10492 0
M  V30 43496 H 4283.03 0.104347 -0.662837 0
M  V30 43497 H 4285.57 -0.329552 -2.01827 0
M  V30 43498 H 4283.73 1.6646 -3.49814 0
M  V30 43499 H 4284.14 0.294321 -5.23674 0
M  V30 43500 H 4285.61 2.002 -5.14416 0
M  V30 43501 H 4286.09 2.58449 -3.55107 0
M  V30 43502 H 4286.7 1.01567 -4.12994 0
M  V30 43503 N 4285.01 1.57492 0.0584368 0
M  V30 43504 C 4285.97 2.03607 1.05247 0
M  V30 43505 C 4286.97 0.935232 1.30805 0
M  V30 43506 O 4288.16 1.19973 1.26301 0
M  V30 43507 C 4285.3 2.42808 2.39284 0
M  V30 43508 H 4286.49 2.92666 0.654727 0
M  V30 43509 H 4284.04 1.53305 0.304525 0
M  V30 43510 H 4284.78 1.56816 2.83865 0
M  V30 43511 H 4284.56 3.23151 2.22071 0
M  V30 43512 H 4286.05 2.79016 3.10709 0
M  V30 43513 N 4286.49 -0.330122 1.54104 0
M  V30 43514 C 4287.74 -1.07042 1.72249 0
M  V30 43515 C 4288.07 -1.87883 0.491298 0
M  V30 43516 O 4287.34 -1.87647 -0.511731 0
M  V30 43517 C 4287.63 -2.00056 2.99416 0
M  V30 43518 C 4287.48 -1.22588 4.32773 0
M  V30 43519 C 4288.8 -2.99677 3.22307 0
M  V30 43520 H 4285.92 -0.38775 0.626752 0
M  V30 43521 H 4288.56 -0.347689 1.86792 0
M  V30 43522 H 4286.71 -2.61683 2.87149 0
M  V30 43523 H 4288.38 -0.634719 4.56912 0
M  V30 43524 H 4286.62 -0.528059 4.30574 0
M  V30 43525 H 4287.3 -1.90851 5.17958 0
M  V30 43526 H 4289.77 -2.4817 3.33993 0
M  V30 43527 H 4288.65 -3.61949 4.12655 0
M  V30 43528 H 4288.91 -3.71783 2.39228 0
M  V30 43529 N 4287.97 -1.46065 -0.591845 0
M  V30 43530 C 4289.22 -1.50901 -1.35037 0
M  V30 43531 C 4289.54 -0.157026 -1.93865 0
M  V30 43532 O 4288.8 0.846253 -1.76457 0
M  V30 43533 C 4289.1 -2.5484 -2.50582 0
M  V30 43534 C 4288.76 -3.99115 -2.09804 0
M  V30 43535 C 4287.43 -4.38397 -1.98398 0
M  V30 43536 C 4289.78 -4.89784 -1.78216 0
M  V30 43537 C 4287.11 -5.66224 -1.53648 0
M  V30 43538 C 4289.46 -6.18039 -1.34948 0
M  V30 43539 C 4288.12 -6.56235 -1.22112 0
M  V30 43540 H 4287.39 -0.552187 -0.494137 0
M  V30 43541 H 4290.04 -1.79494 -0.667386 0
M  V30 43542 H 4288.34 -2.19874 -3.24288 0
M  V30 43543 H 4290.04 -2.55814 -3.08804 0
M  V30 43544 H 4286.63 -3.68059 -2.19614 0
M  V30 43545 H 4290.81 -4.60161 -1.85918 0
M  V30 43546 H 4286.07 -5.94599 -1.42345 0
M  V30 43547 H 4290.24 -6.87728 -1.09557 0
M  V30 43548 H 4287.87 -7.55181 -0.872116 0
M  V30 43549 N 4289.45 0.835705 -1.33618 0
M  V30 43550 C 4290.38 1.95293 -1.19971 0
M  V30 43551 C 4291.39 1.62281 -0.129902 0
M  V30 43552 O 4292.58 1.74395 -0.380612 0
M  V30 43553 C 4289.68 3.28872 -0.818333 0
M  V30 43554 C 4288.85 3.89996 -1.98045 0
M  V30 43555 C 4287.91 5.01934 -1.57953 0
M  V30 43556 O 4286.94 5.20912 -2.29432 0
M  V30 43557 N 4288.14 5.78459 -0.486339 0
M  V30 43558 H 4290.91 2.07536 -2.16215 0
M  V30 43559 H 4288.47 1.01161 -1.26405 0
M  V30 43560 H 4290.46 4.01186 -0.532163 0
M  V30 43561 H 4289.03 3.12554 0.053522 0
M  V30 43562 H 4288.25 3.10232 -2.43207 0
M  V30 43563 H 4289.54 4.27567 -2.75796 0
M  V30 43564 H 4288.93 5.65597 0.108169 0
M  V30 43565 H 4287.49 6.51282 -0.259853 0
M  V30 43566 N 4290.92 1.17138 1.05434 0
M  V30 43567 C 4292.15 0.983269 1.8261 0
M  V30 43568 C 4292.57 -0.463665 1.82296 0
M  V30 43569 O 4291.93 -1.33182 1.23014 0
M  V30 43570 C 4291.98 1.52593 3.26723 0
M  V30 43571 O 4291.08 0.73805 4.05742 0
M  V30 43572 H 4290.43 0.349289 0.564707 0
M  V30 43573 H 4292.96 1.55579 1.32878 0
M  V30 43574 H 4292.97 1.54714 3.77528 0
M  V30 43575 H 4291.64 2.5792 3.26267 0
M  V30 43576 H 4290.22 0.788044 3.64478 0
M  V30 43577 N 4292.4 -1.24116 0.971232 0
M  V30 43578 C 4293.33 -2.24494 0.462065 0
M  V30 43579 C 4294.35 -1.56988 -0.431115 0
M  V30 43580 O 4295.54 -1.76923 -0.236723 0
M  V30 43581 C 4292.64 -3.37069 -0.351854 0
M  V30 43582 C 4291.81 -4.34149 0.532263 0
M  V30 43583 C 4290.87 -5.25713 -0.226248 0
M  V30 43584 O 4289.89 -5.67923 0.381023 0
M  V30 43585 N 4291.1 -5.60386 -1.51483 0
M  V30 43586 H 4293.86 -2.68814 1.32511 0
M  V30 43587 H 4291.42 -1.38194 0.843455 0
M  V30 43588 H 4293.41 -3.95295 -0.867409 0
M  V30 43589 H 4291.98 -2.92006 -1.11585 0
M  V30 43590 H 4291.2 -3.7456 1.22875 0
M  V30 43591 H 4292.49 -4.95976 1.13512 0
M  V30 43592 H 4291.89 -5.28027 -2.02988 0
M  V30 43593 H 4290.45 -6.21126 -1.97601 0
M  V30 43594 N 4293.88 -0.741771 -1.39052 0
M  V30 43595 C 4294.79 -0.107987 -2.34351 0
M  V30 43596 C 4295.81 0.714192 -1.58667 0
M  V30 43597 O 4296.98 0.64109 -1.90924 0
M  V30 43598 C 4294.05 0.783488 -3.37731 0
M  V30 43599 C 4293.11 -0.0517147 -4.29269 0
M  V30 43600 C 4292.34 0.797306 -5.27711 0
M  V30 43601 O 4292.56 2.03579 -5.32834 0
M  V30 43602 O 4291.5 0.222372 -6.01489 0
M  V30 43603 H 4295.32 -0.894728 -2.90221 0
M  V30 43604 H 4292.91 -0.502518 -1.40695 0
M  V30 43605 H 4294.79 1.29335 -4.01061 0
M  V30 43606 H 4293.47 1.54893 -2.84236 0
M  V30 43607 H 4292.37 -0.607258 -3.69138 0
M  V30 43608 H 4293.71 -0.779531 -4.85988 0
M  V30 43609 N 4295.36 1.49792 -0.489923 0
M  V30 43610 C 4296.32 2.27443 0.283246 0
M  V30 43611 C 4297.32 1.32995 0.903823 0
M  V30 43612 O 4298.51 1.56255 0.770073 0
M  V30 43613 C 4295.64 3.10588 1.40528 0
M  V30 43614 H 4296.84 2.97247 -0.397998 0
M  V30 43615 H 4294.39 1.54375 -0.244543 0
M  V30 43616 H 4295.12 2.45323 2.12101 0
M  V30 43617 H 4294.91 3.80017 0.96588 0
M  V30 43618 H 4296.4 3.69265 1.9502 0
M  V30 43619 N 4296.84 0.223289 1.5601 0
M  V30 43620 C 4298.25 -0.284244 1.84524 0
M  V30 43621 C 4298.6 -1.59345 1.14471 0
M  V30 43622 O 4297.72 -2.12384 0.41497 0
M  V30 43623 C 4298.32 -0.522507 3.34747 0
M  V30 43624 C 4296.88 -0.974345 3.6357 0
M  V30 43625 C 4296.02 -0.0383793 2.77273 0
M  V30 43626 H 4298.98 0.446439 1.52291 0
M  V30 43627 H 4299 -1.36828 3.55047 0
M  V30 43628 H 4298.51 0.430521 3.85705 0
M  V30 43629 H 4296.61 -1.94067 3.1807 0
M  V30 43630 H 4296.72 -0.847551 4.71544 0
M  V30 43631 H 4295.09 -0.545488 2.4879 0
M  V30 43632 H 4295.87 0.909597 3.31031 0
M  V30 43633 N 4298.31 -1.5752 -0.0500839 0
M  V30 43634 C 4299.28 -2.04162 -1.04166 0
M  V30 43635 C 4300.28 -0.942155 -1.30308 0
M  V30 43636 O 4301.47 -1.20641 -1.25663 0
M  V30 43637 C 4298.6 -2.44074 -2.37993 0
M  V30 43638 H 4299.79 -2.93009 -0.639197 0
M  V30 43639 H 4297.35 -1.53464 -0.29639 0
M  V30 43640 H 4298.08 -1.58319 -2.83029 0
M  V30 43641 H 4297.87 -3.24324 -2.20355 0
M  V30 43642 H 4299.36 -2.8066 -3.09224 0
M  V30 43643 N 4299.79 0.321945 -1.54277 0
M  V30 43644 C 4300.72 1.41741 -1.80117 0
M  V30 43645 C 4301.74 1.47771 -0.683203 0
M  V30 43646 O 4302.93 1.50465 -0.960338 0
M  V30 43647 C 4300.03 2.80266 -1.90536 0
M  V30 43648 C 4299.2 2.97421 -3.20717 0
M  V30 43649 C 4298.26 4.16316 -3.21818 0
M  V30 43650 O 4297.28 4.09399 -3.9545 0
M  V30 43651 N 4298.49 5.25931 -2.45717 0
M  V30 43652 H 4301.25 1.19938 -2.74654 0
M  V30 43653 H 4298.81 0.511938 -1.53593 0
M  V30 43654 H 4300.8 3.58015 -1.88699 0
M  V30 43655 H 4299.37 2.95113 -1.03089 0
M  V30 43656 H 4298.59 2.06959 -3.35502 0
M  V30 43657 H 4299.88 3.05779 -4.06665 0
M  V30 43658 H 4299.28 5.34426 -1.85487 0
M  V30 43659 H 4297.84 6.02093 -2.49655 0
M  V30 43660 N 4301.27 1.46377 0.58409 0
M  V30 43661 C 4302.52 1.51316 1.3397 0
M  V30 43662 C 4302.84 0.165792 1.94294 0
M  V30 43663 O 4302.11 -0.807514 1.78483 0
M  V30 43664 H 4300.69 0.557306 0.497412 0
M  V30 43665 H 4303.35 1.82497 0.684159 0
M  V30 43666 H 4302.45 2.26507 2.14712 0
M  V30 43667 N 4302.75 -0.828607 1.34059 0
M  V30 43668 C 4304 -1.58449 1.26096 0
M  V30 43669 C 4304.32 -1.9375 -0.170589 0
M  V30 43670 O 4303.58 -1.5975 -1.13042 0
M  V30 43671 C 4303.88 -2.898 2.09166 0
M  V30 43672 C 4303.54 -2.73816 3.58239 0
M  V30 43673 C 4302.21 -2.69165 3.98878 0
M  V30 43674 C 4304.56 -2.57895 4.52924 0
M  V30 43675 C 4301.89 -2.46505 5.32402 0
M  V30 43676 C 4304.24 -2.36767 5.86621 0
M  V30 43677 C 4302.9 -2.30523 6.26431 0
M  V30 43678 H 4302.17 -0.579807 0.461416 0
M  V30 43679 H 4304.82 -0.959186 1.65746 0
M  V30 43680 H 4303.12 -3.56592 1.62325 0
M  V30 43681 H 4304.82 -3.4736 2.00355 0
M  V30 43682 H 4301.41 -2.78274 3.25978 0
M  V30 43683 H 4305.6 -2.60515 4.22428 0
M  V30 43684 H 4300.85 -2.40125 5.62272 0
M  V30 43685 H 4305.03 -2.23432 6.59584 0
M  V30 43686 H 4302.65 -2.12726 7.2983 0
M  V30 43687 N 4304.23 -1.17696 -1.04812 0
M  V30 43688 C 4305.45 -0.99294 -1.82086 0
M  V30 43689 C 4305.88 0.45399 -1.82539 0
M  V30 43690 O 4305.24 1.32527 -1.23718 0
M  V30 43691 C 4305.28 -1.54323 -3.25909 0
M  V30 43692 O 4304.39 -0.759557 -4.05345 0
M  V30 43693 H 4303.73 -0.352278 -0.562846 0
M  V30 43694 H 4306.26 -1.56281 -1.32051 0
M  V30 43695 H 4306.27 -1.56714 -3.76702 0
M  V30 43696 H 4304.94 -2.59647 -3.24894 0
M  V30 43697 H 4303.52 -0.807362 -3.64055 0
M  V30 43698 N 4305.71 1.23599 -0.977801 0
M  V30 43699 C 4306.67 2.23201 -0.520948 0
M  V30 43700 C 4307.67 1.56048 0.388012 0
M  V30 43701 O 4308.86 1.73246 0.182066 0
M  V30 43702 C 4305.99 3.40024 0.244238 0
M  V30 43703 H 4307.18 2.65133 -1.40159 0
M  V30 43704 H 4304.74 1.36388 -0.763421 0
M  V30 43705 H 4305.47 3.03545 1.14153 0
M  V30 43706 H 4305.26 3.89969 -0.408194 0
M  V30 43707 H 4306.75 4.13928 0.552557 0
M  V30 43708 N 4307.18 0.749135 1.38657 0
M  V30 43709 C 4308.41 0.312703 2.05029 0
M  V30 43710 C 4308.83 -1.04909 1.56127 0
M  V30 43711 O 4308.19 -1.66765 0.711266 0
M  V30 43712 C 4308.24 0.339721 3.58996 0
M  V30 43713 O 4307.34 -0.667816 4.06957 0
M  V30 43714 H 4306.68 0.139294 0.649225 0
M  V30 43715 H 4309.21 1.01901 1.77418 0
M  V30 43716 H 4309.22 0.18904 4.07562 0
M  V30 43717 H 4307.9 1.33332 3.93948 0
M  V30 43718 H 4306.48 -0.482112 3.6977 0
M  V30 43719 N 4308.66 -1.4953 0.49786 0
M  V30 43720 C 4309.91 -2.02444 -0.0477731 0
M  V30 43721 C 4310.24 -1.3778 -1.37284 0
M  V30 43722 O 4309.49 -0.501598 -1.89163 0
M  V30 43723 C 4309.79 -3.5651 -0.252093 0
M  V30 43724 C 4309.46 -4.39794 0.994582 0
M  V30 43725 C 4308.12 -4.62272 1.33632 0
M  V30 43726 C 4310.47 -4.88264 1.82339 0
M  V30 43727 C 4307.8 -5.30466 2.50645 0
M  V30 43728 C 4310.15 -5.57745 2.98503 0
M  V30 43729 C 4308.81 -5.7847 3.3306 0
M  V30 43730 H 4308.08 -0.740794 -0.0174814 0
M  V30 43731 H 4310.73 -1.79863 0.65738 0
M  V30 43732 H 4309.04 -3.77752 -1.03974 0
M  V30 43733 H 4310.73 -3.95042 -0.68867 0
M  V30 43734 H 4307.32 -4.22537 0.718382 0
M  V30 43735 H 4311.51 -4.70729 1.57252 0
M  V30 43736 H 4306.76 -5.44715 2.77661 0
M  V30 43737 H 4310.94 -5.94277 3.63053 0
M  V30 43738 H 4308.56 -6.31086 4.23833 0
M  V30 43739 N 4310.14 -0.23156 -1.5589 0
M  V30 43740 C 4311.39 0.398006 -1.98856 0
M  V30 43741 C 4311.72 1.587 -1.11928 0
M  V30 43742 O 4310.99 1.93673 -0.179189 0
M  V30 43743 C 4311.28 0.822832 -3.50573 0
M  V30 43744 C 4311.13 -0.370496 -4.48272 0
M  V30 43745 C 4312.45 1.6754 -4.06962 0
M  V30 43746 H 4309.57 0.143195 -0.722955 0
M  V30 43747 H 4312.21 -0.3298 -1.87116 0
M  V30 43748 H 4310.36 1.44297 -3.60709 0
M  V30 43749 H 4312.03 -1.00878 -4.50135 0
M  V30 43750 H 4310.27 -1.01624 -4.21729 0
M  V30 43751 H 4310.95 -0.0301528 -5.51992 0
M  V30 43752 H 4313.42 1.15207 -3.99833 0
M  V30 43753 H 4312.3 1.94153 -5.13416 0
M  V30 43754 H 4312.56 2.64211 -3.54465 0
M  V30 43755 N 4311.62 1.57545 0.0417295 0
M  V30 43756 C 4312.84 1.93329 0.750921 0
M  V30 43757 C 4313.27 0.830538 1.68771 0
M  V30 43758 O 4312.63 -0.214671 1.80025 0
M  V30 43759 C 4312.67 3.28151 1.49498 0
M  V30 43760 O 4311.78 3.19506 2.60749 0
M  V30 43761 H 4311.12 0.632252 0.202863 0
M  V30 43762 H 4313.65 2.046 0.000984504 0
M  V30 43763 H 4313.66 3.62742 1.86769 0
M  V30 43764 H 4312.33 4.07979 0.807838 0
M  V30 43765 H 4310.91 2.96525 2.26113 0
M  V30 43766 N 4313.1 -0.313759 1.54445 0
M  V30 43767 C 4314.51 -0.658682 1.45374 0
M  V30 43768 C 4314.71 -1.91247 0.634562 0
M  V30 43769 O 4313.77 -2.52127 0.13722 0
M  V30 43770 C 4315.08 -0.823557 2.89202 0
M  V30 43771 C 4316.63 -0.920267 2.99166 0
M  V30 43772 C 4317.1 -1.11724 4.44164 0
M  V30 43773 N 4318.59 -1.18374 4.47819 0
M  V30 43774 C 4319.33 -1.35421 5.57179 0
M  V30 43775 N 4318.83 -1.49448 6.76489 0
M  V30 43776 N 4320.62 -1.38208 5.44844 0
M  V30 43777 H 4312.77 0.510192 2.06181 0
M  V30 43778 H 4315.03 0.166525 0.93326 0
M  V30 43779 H 4314.74 0.0266415 3.5169 0
M  V30 43780 H 4314.61 -1.71644 3.35884 0
M  V30 43781 H 4317 -1.76096 2.368 0
M  V30 43782 H 4317.08 -0.00364479 2.558 0
M  V30 43783 H 4316.72 -0.281359 5.0712 0
M  V30 43784 H 4316.65 -2.04789 4.85149 0
M  V30 43785 H 4319.15 -1.08939 3.61857 0
M  V30 43786 H 4319.46 -1.62175 7.55592 0
M  V30 43787 H 4317.8 -1.46527 6.79378 0
M  V30 43788 H 4320.99 -1.26852 4.50584 0
M  V30 43789 H 4321.17 -1.5115 6.30125 0
M  V30 43790 N 4314.57 -1.46684 -0.576319 0
M  V30 43791 C 4315.81 -1.53889 -1.34527 0
M  V30 43792 C 4316.18 -0.188676 -1.91071 0
M  V30 43793 O 4317.38 -0.135492 -2.68458 0
M  V30 43794 C 4315.65 -2.61172 -2.43975 0
M  V30 43795 S 4317.21 -2.87827 -3.31212 0
M  V30 43796 H 4314.03 -0.543634 -0.458239 0
M  V30 43797 H 4316.63 -1.83956 -0.661852 0
M  V30 43798 H 4315.33 -3.579 -2.00838 0
M  V30 43799 H 4314.86 -2.32858 -3.17082 0
M  V30 43800 H 4316.88 -2.23583 -4.42973 0
M  V30 43801 N 4316.05 0.821486 -1.34497 0
M  V30 43802 C 4317.3 1.57467 -1.26683 0
M  V30 43803 C 4317.62 1.9432 0.162667 0
M  V30 43804 O 4316.89 1.62397 1.09563 0
M  V30 43805 H 4315.47 0.583895 -0.465914 0
M  V30 43806 H 4318.13 0.980761 -1.68425 0
M  V30 43807 H 4317.23 2.49683 -1.87256 0
M  V30 43808 N 4317.53 1.1825 1.04186 0
M  V30 43809 C 4318.76 1.00258 1.81557 0
M  V30 43810 C 4319.18 -0.444304 1.82777 0
M  V30 43811 O 4318.54 -1.31869 1.24419 0
M  V30 43812 C 4318.59 1.56049 3.25086 0
M  V30 43813 O 4317.69 0.781043 4.04936 0
M  V30 43814 H 4317.03 0.355258 0.56097 0
M  V30 43815 H 4319.56 1.56979 1.3122 0
M  V30 43816 H 4319.57 1.5871 3.75866 0
M  V30 43817 H 4318.25 2.61366 3.23513 0
M  V30 43818 H 4316.82 0.826657 3.63622 0
M  V30 43819 N 4319.01 -1.23079 0.984342 0
M  V30 43820 C 4319.96 -2.26706 0.520298 0
M  V30 43821 C 4320.95 -1.6399 -0.424686 0
M  V30 43822 O 4322.16 -1.77514 -0.298145 0
M  V30 43823 H 4318.53 -0.736921 0.149839 0
M  V30 43824 H 4320.5 -2.63204 1.40592 0
M  V30 43825 C 4319.25 -3.47342 -0.157813 0
M  V30 43826 H 4318.57 -3.95855 0.560256 0
M  V30 43827 H 4320.01 -4.21647 -0.446083 0
M  V30 43828 C 4318.47 -3.06873 -1.39035 0
M  V30 43829 O 4319 -3.15508 -2.48632 0
M  V30 43830 N 4317.21 -2.61745 -1.26245 0
M  V30 43831 H 4316.76 -2.54919 -0.370691 0
M  V30 43832 H 4316.71 -2.35035 -2.0882 0
M  V30 43833 N 4320.49 -0.756478 -1.38258 0
M  V30 43834 C 4321.73 -0.313926 -2.00052 0
M  V30 43835 C 4322.06 1.1052 -1.60049 0
M  V30 43836 O 4321.32 1.77189 -0.830817 0
M  V30 43837 C 4321.62 -0.387563 -3.55292 0
M  V30 43838 C 4321.28 -1.76275 -4.15016 0
M  V30 43839 C 4319.94 -2.13909 -4.31041 0
M  V30 43840 C 4322.3 -2.6647 -4.47932 0
M  V30 43841 C 4319.62 -3.41205 -4.7728 0
M  V30 43842 C 4321.98 -3.93159 -4.95589 0
M  V30 43843 C 4320.64 -4.30859 -5.09821 0
M  V30 43844 H 4319.91 -0.114874 -0.732042 0
M  V30 43845 H 4322.56 -0.967523 -1.65261 0
M  V30 43846 H 4320.86 0.349596 -3.90237 0
M  V30 43847 H 4322.56 -0.0266787 -4.00991 0
M  V30 43848 H 4319.15 -1.46021 -4.02959 0
M  V30 43849 H 4323.33 -2.38659 -4.3515 0
M  V30 43850 H 4318.59 -3.70329 -4.86484 0
M  V30 43851 H 4322.76 -4.63189 -5.20028 0
M  V30 43852 H 4320.39 -5.29558 -5.4541 0
M  V30 43853 N 4321.96 1.49264 -0.505783 0
M  V30 43854 C 4323.19 2.06873 0.0337037 0
M  V30 43855 C 4323.61 1.36551 1.30381 0
M  V30 43856 O 4322.96 0.445331 1.76983 0
M  V30 43857 C 4323.02 3.60364 0.286335 0
M  V30 43858 O 4322.74 4.2804 -0.933431 0
M  V30 43859 C 4324.24 4.34701 0.868926 0
M  V30 43860 H 4321.46 0.670619 -0.0226147 0
M  V30 43861 H 4324 1.91982 -0.704509 0
M  V30 43862 H 4322.16 3.74942 0.974539 0
M  V30 43863 H 4322.57 5.19818 -0.699218 0
M  V30 43864 H 4324.04 5.42954 0.995251 0
M  V30 43865 H 4324.52 3.975 1.86791 0
M  V30 43866 H 4325.13 4.24741 0.218043 0
M  V30 43867 N 4323.44 0.239823 1.55765 0
M  V30 43868 C 4324.69 -0.386117 1.98377 0
M  V30 43869 C 4325.01 -1.58982 1.12915 0
M  V30 43870 O 4324.28 -1.94768 0.210308 0
M  V30 43871 H 4322.86 -0.145648 0.732663 0
M  V30 43872 H 4325.52 0.336968 1.91965 0
M  V30 43873 H 4324.62 -0.700069 3.04147 0
M  V30 43874 N 4324.92 -1.57565 -0.0333739 0
M  V30 43875 C 4326.33 -1.77445 -0.580518 0
M  V30 43876 C 4326.68 -0.870355 -1.75839 0
M  V30 43877 O 4325.81 -0.0640849 -2.16305 0
M  V30 43878 C 4326.4 -3.21795 -1.05989 0
M  V30 43879 C 4324.96 -3.42887 -1.55259 0
M  V30 43880 C 4324.11 -2.72959 -0.488748 0
M  V30 43881 H 4327.06 -1.57524 0.192854 0
M  V30 43882 H 4327.08 -3.28071 -1.92742 0
M  V30 43883 H 4326.59 -3.87572 -0.202411 0
M  V30 43884 H 4324.69 -2.82279 -2.43206 0
M  V30 43885 H 4324.81 -4.51485 -1.60306 0
M  V30 43886 H 4323.17 -2.36608 -0.94279 0
M  V30 43887 H 4323.95 -3.41416 0.359196 0
M  V30 43888 N 4326.4 0.305564 -1.54609 0
M  V30 43889 C 4327.62 1.06476 -1.77982 0
M  V30 43890 C 4328.05 1.80317 -0.535487 0
M  V30 43891 O 4327.41 1.73868 0.513783 0
M  V30 43892 C 4327.45 2.02454 -2.98403 0
M  V30 43893 O 4326.56 3.10676 -2.71209 0
M  V30 43894 H 4325.9 0.306104 -0.589234 0
M  V30 43895 H 4328.43 0.344376 -2.01681 0
M  V30 43896 H 4328.44 2.45002 -3.26248 0
M  V30 43897 H 4327.11 1.48114 -3.88632 0
M  V30 43898 H 4325.69 2.72675 -2.54367 0
M  V30 43899 N 4327.88 1.46988 0.568532 0
M  V30 43900 C 4329.12 1.52728 1.32358 0
M  V30 43901 C 4329.45 0.186391 1.94107 0
M  V30 43902 O 4328.72 -0.788538 1.79329 0
M  V30 43903 H 4327.3 0.562551 0.491473 0
M  V30 43904 H 4329.96 1.83213 0.664764 0
M  V30 43905 H 4329.05 2.28771 2.12297 0
M  V30 43906 N 4329.35 -0.814342 1.3493 0
M  V30 43907 C 4330.58 -1.60023 1.30676 0
M  V30 43908 C 4330.99 -1.88822 -0.119519 0
M  V30 43909 O 4330.34 -1.48628 -1.0796 0
M  V30 43910 C 4330.4 -2.96141 2.03815 0
M  V30 43911 C 4330.06 -2.90195 3.53038 0
M  V30 43912 C 4331.06 -2.64175 4.47781 0
M  V30 43913 C 4328.74 -3.09557 3.95575 0
M  V30 43914 C 4330.74 -2.57582 5.83036 0
M  V30 43915 C 4328.42 -3.02587 5.30928 0
M  V30 43916 C 4329.42 -2.76634 6.2447 0
M  V30 43917 O 4329.11 -2.69612 7.5734 0
M  V30 43918 H 4328.84 -0.503834 0.450697 0
M  V30 43919 H 4331.4 -1.02061 1.78249 0
M  V30 43920 H 4329.63 -3.56056 1.50868 0
M  V30 43921 H 4331.32 -3.5722 1.92739 0
M  V30 43922 H 4332.08 -2.48944 4.16236 0
M  V30 43923 H 4327.96 -3.28771 3.23157 0
M  V30 43924 H 4331.5 -2.37244 6.56019 0
M  V30 43925 H 4327.4 -3.17374 5.62089 0
M  V30 43926 H 4328.17 -2.85277 7.67176 0
M  V30 43927 N 4330.83 -1.18801 -1.03557 0
M  V30 43928 C 4332.08 -0.980855 -1.76244 0
M  V30 43929 C 4332.39 0.489901 -1.89366 0
M  V30 43930 O 4333.6 0.815701 -2.58957 0
M  V30 43931 C 4332.06 -1.70598 -3.16898 0
M  V30 43932 C 4331.66 -3.21639 -3.11853 0
M  V30 43933 C 4333.41 -1.58182 -3.93927 0
M  V30 43934 C 4331.32 -3.86768 -4.47397 0
M  V30 43935 H 4330.25 -0.363367 -0.660667 0
M  V30 43936 H 4332.9 -1.42227 -1.15947 0
M  V30 43937 H 4331.28 -1.19235 -3.77623 0
M  V30 43938 H 4332.45 -3.80067 -2.60549 0
M  V30 43939 H 4330.77 -3.34253 -2.48322 0
M  V30 43940 H 4333.36 -2.04198 -4.94173 0
M  V30 43941 H 4333.71 -0.534894 -4.12849 0
M  V30 43942 H 4334.24 -2.06854 -3.39789 0
M  V30 43943 H 4330.98 -4.9153 -4.3368 0
M  V30 43944 H 4330.5 -3.33129 -4.98784 0
M  V30 43945 H 4332.18 -3.89928 -5.163 0
M  V30 43946 N 4332.31 1.22555 -0.990855 0
M  V30 43947 C 4333.56 1.9056 -0.661032 0
M  V30 43948 C 4333.87 1.78029 0.81024 0
M  V30 43949 O 4335.08 2.40932 1.25156 0
M  V30 43950 C 4333.54 3.41641 -1.13178 0
M  V30 43951 C 4333.14 3.62813 -2.62813 0
M  V30 43952 C 4334.89 4.15359 -0.876192 0
M  V30 43953 C 4332.79 5.07583 -3.03502 0
M  V30 43954 H 4331.72 0.713584 -0.243544 0
M  V30 43955 H 4334.38 1.38812 -1.20015 0
M  V30 43956 H 4332.76 3.9256 -0.520811 0
M  V30 43957 H 4333.93 3.22395 -3.29239 0
M  V30 43958 H 4332.25 3.02423 -2.86232 0
M  V30 43959 H 4334.84 5.22056 -1.15591 0
M  V30 43960 H 4335.19 4.15877 0.187687 0
M  V30 43961 H 4335.72 3.70461 -1.44926 0
M  V30 43962 H 4332.46 5.12204 -4.09057 0
M  V30 43963 H 4331.98 5.48911 -2.41778 0
M  V30 43964 H 4333.66 5.75992 -2.94689 0
M  V30 43965 N 4333.79 0.763799 1.37855 0
M  V30 43966 C 4335.01 0.334431 2.04686 0
M  V30 43967 C 4335.44 -1.03247 1.57231 0
M  V30 43968 O 4334.8 -1.66002 0.728913 0
M  V30 43969 C 4334.85 0.377778 3.58616 0
M  V30 43970 O 4333.95 -0.624615 4.07642 0
M  V30 43971 H 4333.29 0.146172 0.647711 0
M  V30 43972 H 4335.82 1.03777 1.76328 0
M  V30 43973 H 4335.83 0.232256 4.07338 0
M  V30 43974 H 4334.51 1.37503 3.92512 0
M  V30 43975 H 4333.08 -0.442866 3.70261 0
M  V30 43976 N 4335.27 -1.48993 0.513692 0
M  V30 43977 C 4336.68 -1.86572 0.0690869 0
M  V30 43978 C 4337.03 -1.42485 -1.3488 0
M  V30 43979 O 4336.15 -0.808314 -2.00737 0
M  V30 43980 C 4336.75 -3.38592 0.118599 0
M  V30 43981 C 4335.31 -3.75425 -0.270726 0
M  V30 43982 C 4334.46 -2.73016 0.485567 0
M  V30 43983 H 4337.41 -1.4113 0.725814 0
M  V30 43984 H 4337.43 -3.74489 -0.673672 0
M  V30 43985 H 4336.94 -3.7065 1.15067 0
M  V30 43986 H 4335.04 -3.48979 -1.30555 0
M  V30 43987 H 4335.15 -4.79065 0.0575514 0
M  V30 43988 H 4333.52 -2.54614 -0.0661822 0
M  V30 43989 H 4334.3 -3.07917 1.51796 0
M  V30 43990 N 4336.75 -0.248081 -1.55635 0
M  V30 43991 C 4337.69 0.6672 -2.22826 0
M  V30 43992 C 4338.69 1.17917 -1.21622 0
M  V30 43993 O 4339.89 1.13592 -1.39631 0
M  V30 43994 H 4336.27 0.233648 -0.714782 0
M  V30 43995 H 4338.24 0.0773694 -2.983 0
M  V30 43996 C 4336.99 1.85262 -2.94233 0
M  V30 43997 H 4336.31 1.46782 -3.7188 0
M  V30 43998 H 4337.75 2.47025 -3.44608 0
M  V30 43999 C 4336.21 2.7245 -1.98174 0
M  V30 44000 O 4336.74 3.72013 -1.51556 0
M  V30 44001 N 4334.95 2.39041 -1.6525 0
M  V30 44002 H 4334.49 1.58128 -2.03355 0
M  V30 44003 H 4334.45 2.97653 -1.01244 0
M  V30 44004 N 4338.22 1.5758 0.0250174 0
M  V30 44005 C 4339.45 1.93438 0.725622 0
M  V30 44006 C 4339.86 0.846592 1.69202 0
M  V30 44007 O 4339.2 -0.185365 1.82762 0
M  V30 44008 C 4339.27 3.25124 1.5341 0
M  V30 44009 C 4338.93 4.51099 0.73203 0
M  V30 44010 C 4339.93 5.19891 0.0305421 0
M  V30 44011 C 4337.61 4.97602 0.685377 0
M  V30 44012 C 4339.61 6.33468 -0.706856 0
M  V30 44013 C 4337.29 6.11075 -0.0557642 0
M  V30 44014 C 4338.29 6.78863 -0.750637 0
M  V30 44015 O 4337.98 7.90164 -1.47974 0
M  V30 44016 H 4337.71 0.642974 0.208712 0
M  V30 44017 H 4340.27 2.05395 -0.0146353 0
M  V30 44018 H 4338.5 3.09505 2.31826 0
M  V30 44019 H 4340.18 3.46278 2.11769 0
M  V30 44020 H 4340.95 4.84966 0.0575907 0
M  V30 44021 H 4336.83 4.44681 1.21574 0
M  V30 44022 H 4340.37 6.86314 -1.24977 0
M  V30 44023 H 4336.27 6.45444 -0.0847217 0
M  V30 44024 H 4337.04 8.06545 -1.39383 0
M  V30 44025 N 4339.7 -0.29736 1.54769 0
M  V30 44026 C 4341.11 -0.870111 1.65185 0
M  V30 44027 C 4341.46 -1.87952 0.562877 0
M  V30 44028 O 4340.59 -2.14312 -0.299875 0
M  V30 44029 C 4341.18 -1.58496 2.9944 0
M  V30 44030 C 4339.74 -2.10607 3.11964 0
M  V30 44031 C 4338.89 -0.939955 2.60883 0
M  V30 44032 H 4341.84 -0.0742735 1.58526 0
M  V30 44033 H 4341.86 -2.45072 2.91067 0
M  V30 44034 H 4341.37 -0.850048 3.78676 0
M  V30 44035 H 4339.47 -2.87134 2.37455 0
M  V30 44036 H 4339.59 -2.3381 4.18174 0
M  V30 44037 H 4337.95 -1.32654 2.17428 0
M  V30 44038 H 4338.73 -0.21894 3.42601 0
M  V30 44039 N 4341.18 -1.47287 -0.560729 0
M  V30 44040 C 4342.13 -1.5951 -1.66809 0
M  V30 44041 C 4343.1 -0.438291 -1.60213 0
M  V30 44042 O 4344.28 -0.657894 -1.79099 0
M  V30 44043 C 4341.42 -1.61204 -3.05135 0
M  V30 44044 C 4340.53 -2.87777 -3.22193 0
M  V30 44045 C 4339.67 -2.8083 -4.50897 0
M  V30 44046 C 4338.71 -4.02243 -4.61375 0
M  V30 44047 N 4337.85 -3.93553 -5.8143 0
M  V30 44048 H 4342.69 -2.54089 -1.557 0
M  V30 44049 H 4340.22 -1.26035 -0.758516 0
M  V30 44050 H 4342.18 -1.6017 -3.85229 0
M  V30 44051 H 4340.81 -0.701403 -3.15088 0
M  V30 44052 H 4339.86 -2.98694 -2.35555 0
M  V30 44053 H 4341.17 -3.77697 -3.25801 0
M  V30 44054 H 4340.33 -2.78025 -5.39247 0
M  V30 44055 H 4339.07 -1.88586 -4.49763 0
M  V30 44056 H 4338.07 -4.05356 -3.71438 0
M  V30 44057 H 4339.3 -4.95609 -4.64272 0
M  V30 44058 H 4337.24 -3.0411 -5.81251 0
M  V30 44059 H 4337.16 -4.77149 -5.864 0
M  V30 44060 H 4338.43 -3.94759 -6.7215 0
M  V30 44061 N 4342.66 0.807175 -1.3536 0
M  V30 44062 C 4343.59 1.92705 -1.24087 0
M  V30 44063 C 4344.6 1.61969 -0.164295 0
M  V30 44064 O 4345.79 1.73548 -0.417518 0
M  V30 44065 C 4342.89 3.27062 -0.887907 0
M  V30 44066 C 4342.06 3.85708 -2.06273 0
M  V30 44067 C 4341.12 4.9847 -1.68564 0
M  V30 44068 O 4340.15 5.15929 -2.4043 0
M  V30 44069 N 4341.35 5.77297 -0.608929 0
M  V30 44070 H 4344.12 2.02903 -2.20569 0
M  V30 44071 H 4341.68 0.984566 -1.28522 0
M  V30 44072 H 4343.67 3.99967 -0.617141 0
M  V30 44073 H 4342.24 3.12597 -0.0127874 0
M  V30 44074 H 4341.46 3.05004 -2.49733 0
M  V30 44075 H 4342.75 4.21621 -2.84804 0
M  V30 44076 H 4342.15 5.65699 -0.0118268 0
M  V30 44077 H 4340.7 6.50584 -0.397941 0
M  V30 44078 N 4344.14 1.19348 1.02926 0
M  V30 44079 C 4345.37 1.01964 1.79686 0
M  V30 44080 C 4345.77 -0.434746 1.84137 0
M  V30 44081 O 4345.12 -1.31375 1.28399 0
M  V30 44082 C 4345.18 1.51219 3.26149 0
M  V30 44083 C 4344.84 2.99323 3.45333 0
M  V30 44084 C 4345.84 3.97089 3.35584 0
M  V30 44085 C 4343.52 3.38007 3.7156 0
M  V30 44086 C 4345.52 5.31531 3.51786 0
M  V30 44087 C 4343.21 4.72609 3.87406 0
M  V30 44088 C 4344.2 5.6918 3.77522 0
M  V30 44089 O 4343.89 7.01344 3.92901 0
M  V30 44090 H 4343.62 0.359739 0.572332 0
M  V30 44091 H 4346.18 1.5859 1.30531 0
M  V30 44092 H 4344.41 0.889671 3.76327 0
M  V30 44093 H 4346.1 1.30049 3.84503 0
M  V30 44094 H 4346.86 3.68548 3.15274 0
M  V30 44095 H 4342.74 2.63391 3.78346 0
M  V30 44096 H 4346.29 6.06893 3.43986 0
M  V30 44097 H 4342.18 5.00846 4.07214 0
M  V30 44098 H 4342.95 7.08411 4.09994 0
M  V30 44099 N 4345.61 -1.22028 0.997341 0
M  V30 44100 C 4346.89 -1.86443 0.591483 0
M  V30 44101 C 4347.27 -1.89456 -0.93111 0
M  V30 44102 O 4346.62 -1.3883 -1.8149 0
M  V30 44103 C 4346.83 -3.27092 1.21703 0
M  V30 44104 C 4348.18 -4.0355 1.32034 0
M  V30 44105 O 4349.2 -3.36375 1.17176 0
M  V30 44106 O 4348.06 -5.23805 1.55856 0
M  V30 44107 H 4345.15 -0.802062 0.201559 0
M  V30 44108 H 4347.7 -1.29771 1.0935 0
M  V30 44109 H 4346.47 -3.19558 2.25829 0
M  V30 44110 H 4346.09 -3.91374 0.700879 0
M  V30 44111 N 4347.09 -0.771099 -1.37448 0
M  V30 44112 C 4348.04 -0.144722 -2.32149 0
M  V30 44113 C 4349.03 0.685701 -1.54902 0
M  V30 44114 O 4350.24 0.582835 -1.70303 0
M  V30 44115 H 4346.62 -0.0280128 -0.751478 0
M  V30 44116 H 4348.59 -0.959205 -2.82563 0
M  V30 44117 C 4347.34 0.720531 -3.40152 0
M  V30 44118 H 4346.66 0.0909081 -3.99697 0
M  V30 44119 H 4348.1 1.12579 -4.08781 0
M  V30 44120 C 4346.56 1.87085 -2.8018 0
M  V30 44121 O 4347.09 2.96628 -2.70878 0
M  V30 44122 N 4345.29 1.67127 -2.37733 0
M  V30 44123 H 4344.84 0.780286 -2.45498 0
M  V30 44124 H 4344.8 2.4426 -1.97951 0
M  V30 44125 N 4348.57 1.48719 -0.521586 0
M  V30 44126 C 4349.52 2.31151 0.259237 0
M  V30 44127 C 4350.51 1.40697 0.943438 0
M  V30 44128 O 4351.72 1.57646 0.86878 0
M  V30 44129 H 4348.09 0.744986 0.102467 0
M  V30 44130 H 4350.06 2.949 -0.455705 0
M  V30 44131 C 4348.81 3.22549 1.29835 0
M  V30 44132 H 4348.14 3.92092 0.781283 0
M  V30 44133 H 4349.58 3.83129 1.81627 0
M  V30 44134 C 4348.04 2.43573 2.32752 0
M  V30 44135 O 4348.57 2.15454 3.39032 0
M  V30 44136 N 4346.77 2.05221 2.05749 0
M  V30 44137 H 4346.32 2.28289 1.19339 0
M  V30 44138 H 4346.28 1.5269 2.74833 0
M  V30 44139 N 4350.05 0.256331 1.55501 0
M  V30 44140 C 4350.98 -0.680103 2.1783 0
M  V30 44141 C 4351.96 -1.166 1.13328 0
M  V30 44142 O 4353.14 -1.24241 1.41762 0
M  V30 44143 C 4350.27 -1.92536 2.78653 0
M  V30 44144 C 4349.32 -1.57654 3.96292 0
M  V30 44145 S 4350.15 -0.670968 5.3128 0
M  V30 44146 C 4351.31 -1.92502 5.95562 0
M  V30 44147 H 4351.54 -0.150452 2.96919 0
M  V30 44148 H 4349.07 0.0407141 1.54346 0
M  V30 44149 H 4351.03 -2.6402 3.1433 0
M  V30 44150 H 4349.69 -2.42614 1.99492 0
M  V30 44151 H 4348.88 -2.50265 4.37474 0
M  V30 44152 H 4348.49 -0.94205 3.61941 0
M  V30 44153 H 4350.78 -2.87119 6.13652 0
M  V30 44154 H 4351.72 -1.55653 6.90781 0
M  V30 44155 H 4352.13 -2.0814 5.24726 0
M  V30 44156 N 4351.53 -1.57591 -0.0166602 0
M  V30 44157 C 4352.47 -2.08466 -1.03173 0
M  V30 44158 C 4353.47 -1.00105 -1.36657 0
M  V30 44159 O 4354.67 -1.18584 -1.35417 0
M  V30 44160 H 4351.05 -0.665426 -0.350304 0
M  V30 44161 H 4353.02 -2.92769 -0.576945 0
M  V30 44162 C 4351.77 -2.58965 -2.32019 0
M  V30 44163 H 4351.09 -3.41969 -2.07117 0
M  V30 44164 H 4352.53 -2.98258 -3.0136 0
M  V30 44165 C 4350.99 -1.49634 -3.01846 0
M  V30 44166 O 4351.52 -0.869668 -3.92173 0
M  V30 44167 N 4349.73 -1.22785 -2.63386 0
M  V30 44168 H 4349.27 -1.73929 -1.90017 0
M  V30 44169 H 4349.23 -0.498491 -3.10423 0
M  V30 44170 N 4353 0.289148 -1.54925 0
M  V30 44171 C 4354.24 1.03069 -1.76511 0
M  V30 44172 C 4354.61 1.84077 -0.545865 0
M  V30 44173 O 4355.81 2.61078 -0.639679 0
M  V30 44174 C 4354.08 1.90305 -3.02521 0
M  V30 44175 S 4355.64 2.70943 -3.4516 0
M  V30 44176 H 4352.46 0.347414 -0.620342 0
M  V30 44177 H 4355.06 0.302808 -1.93141 0
M  V30 44178 H 4353.76 1.29688 -3.8937 0
M  V30 44179 H 4353.29 2.67441 -2.88512 0
M  V30 44180 H 4355.31 3.9282 -3.03162 0
M  V30 44181 N 4354.48 1.47583 0.55291 0
M  V30 44182 C 4355.71 1.58051 1.33519 0
M  V30 44183 C 4356.13 0.232271 1.87366 0
M  V30 44184 O 4355.48 -0.77513 1.65221 0
M  V30 44185 C 4355.53 2.60915 2.50211 0
M  V30 44186 O 4355.25 3.90505 1.98589 0
M  V30 44187 C 4356.76 2.81608 3.42362 0
M  V30 44188 H 4353.98 0.533579 0.406859 0
M  V30 44189 H 4356.52 1.93235 0.669355 0
M  V30 44190 H 4354.67 2.28653 3.12724 0
M  V30 44191 H 4355.09 4.46749 2.74801 0
M  V30 44192 H 4356.56 3.57436 4.20646 0
M  V30 44193 H 4357.04 1.89587 3.96173 0
M  V30 44194 H 4357.65 3.15084 2.85661 0
M  V30 44195 N 4355.96 -0.799985 1.35787 0
M  V30 44196 C 4357.19 -1.58628 1.32366 0
M  V30 44197 C 4357.6 -1.88938 -0.0994848 0
M  V30 44198 O 4356.94 -1.49765 -1.06378 0
M  V30 44199 C 4357 -2.93963 2.06945 0
M  V30 44200 C 4356.67 -2.86434 3.56096 0
M  V30 44201 C 4357.66 -2.59411 4.50557 0
M  V30 44202 C 4355.35 -3.05344 3.98836 0
M  V30 44203 C 4357.34 -2.51383 5.85735 0
M  V30 44204 C 4355.03 -2.96939 5.34107 0
M  V30 44205 C 4356.03 -2.69995 6.27369 0
M  V30 44206 O 4355.72 -2.61564 7.60157 0
M  V30 44207 H 4355.45 -0.499025 0.456015 0
M  V30 44208 H 4358 -1.00164 1.79322 0
M  V30 44209 H 4356.23 -3.54435 1.54636 0
M  V30 44210 H 4357.92 -3.55156 1.96517 0
M  V30 44211 H 4358.69 -2.44515 4.18853 0
M  V30 44212 H 4354.57 -3.25325 3.26626 0
M  V30 44213 H 4358.11 -2.30273 6.58498 0
M  V30 44214 H 4354.01 -3.11395 5.65423 0
M  V30 44215 H 4354.78 -2.77124 7.70159 0
M  V30 44216 N 4357.44 -1.19892 -1.02292 0
M  V30 44217 C 4358.68 -1.00671 -1.76049 0
M  V30 44218 C 4359.02 0.460769 -1.88655 0
M  V30 44219 O 4358.29 1.34214 -1.40773 0
M  V30 44220 C 4358.58 -1.68343 -3.18328 0
M  V30 44221 C 4358.43 -3.22494 -3.13556 0
M  V30 44222 C 4359.75 -1.41132 -4.16857 0
M  V30 44223 H 4356.87 -0.367128 -0.639051 0
M  V30 44224 H 4359.51 -1.47817 -1.19374 0
M  V30 44225 H 4357.66 -1.28259 -3.66718 0
M  V30 44226 H 4359.33 -3.71832 -2.73018 0
M  V30 44227 H 4357.57 -3.53728 -2.51115 0
M  V30 44228 H 4358.24 -3.64996 -4.14104 0
M  V30 44229 H 4360.72 -1.75896 -3.77094 0
M  V30 44230 H 4359.6 -1.91024 -5.14588 0
M  V30 44231 H 4359.86 -0.337657 -4.40809 0
M  V30 44232 N 4358.92 1.21498 -1.0038 0
M  V30 44233 C 4360.17 1.89849 -0.681206 0
M  V30 44234 C 4360.48 1.78879 0.791312 0
M  V30 44235 O 4361.68 2.42246 1.22594 0
M  V30 44236 C 4360.14 3.40422 -1.16796 0
M  V30 44237 C 4359.75 3.60005 -2.66647 0
M  V30 44238 C 4361.49 4.14406 -0.920197 0
M  V30 44239 C 4359.4 5.04335 -3.08868 0
M  V30 44240 H 4358.33 0.710961 -0.251098 0
M  V30 44241 H 4360.98 1.37531 -1.2148 0
M  V30 44242 H 4359.36 3.91986 -0.562418 0
M  V30 44243 H 4360.54 3.18885 -3.3264 0
M  V30 44244 H 4358.85 2.99371 -2.89424 0
M  V30 44245 H 4361.45 5.20801 -1.21122 0
M  V30 44246 H 4361.79 4.16052 0.143568 0
M  V30 44247 H 4362.32 3.68903 -1.48847 0
M  V30 44248 H 4359.06 5.07836 -4.14467 0
M  V30 44249 H 4358.58 5.46316 -2.47587 0
M  V30 44250 H 4360.26 5.72835 -3.00782 0
M  V30 44251 N 4360.39 0.778378 1.37037 0
M  V30 44252 C 4361.3 0.170083 2.33983 0
M  V30 44253 C 4362.32 -0.671874 1.60505 0
M  V30 44254 O 4363.5 -0.590245 1.92557 0
M  V30 44255 C 4360.56 -0.693669 3.3969 0
M  V30 44256 C 4359.62 0.16551 4.28981 0
M  V30 44257 C 4358.86 -0.657112 5.29639 0
M  V30 44258 O 4359.08 -1.8938 5.38044 0
M  V30 44259 O 4358.01 -0.0628197 6.01867 0
M  V30 44260 H 4361.84 0.971361 2.87747 0
M  V30 44261 H 4359.42 0.539645 1.39313 0
M  V30 44262 H 4361.31 -1.18656 4.0435 0
M  V30 44263 H 4359.98 -1.47302 2.88243 0
M  V30 44264 H 4358.89 0.704915 3.67399 0
M  V30 44265 H 4360.22 0.908108 4.8375 0
M  V30 44266 N 4361.87 -1.4844 0.529465 0
M  V30 44267 C 4362.84 -2.28114 -0.222844 0
M  V30 44268 C 4363.84 -1.35345 -0.868244 0
M  V30 44269 O 4365.03 -1.58241 -0.728375 0
M  V30 44270 C 4362.16 -3.14204 -1.32244 0
M  V30 44271 H 4363.35 -2.96088 0.476668 0
M  V30 44272 H 4360.9 -1.53672 0.285387 0
M  V30 44273 H 4361.64 -2.50861 -2.05522 0
M  V30 44274 H 4361.42 -3.82445 -0.864786 0
M  V30 44275 H 4362.91 -3.74306 -1.85161 0
M  V30 44276 N 4363.35 -0.264574 -1.55363 0
M  V30 44277 C 4364.3 0.643528 -2.23521 0
M  V30 44278 C 4365.29 1.1662 -1.22866 0
M  V30 44279 O 4366.5 1.12105 -1.40828 0
M  V30 44280 H 4362.87 0.226053 -0.71722 0
M  V30 44281 H 4364.85 0.0457263 -2.98365 0
M  V30 44282 C 4363.59 1.82131 -2.96182 0
M  V30 44283 H 4362.92 1.42829 -3.73416 0
M  V30 44284 H 4364.36 2.43356 -3.47209 0
M  V30 44285 C 4362.82 2.70332 -2.01052 0
M  V30 44286 O 4363.35 3.70384 -1.55493 0
M  V30 44287 N 4361.55 2.37275 -1.67776 0
M  V30 44288 H 4361.1 1.55963 -2.05021 0
M  V30 44289 H 4361.06 2.96562 -1.04395 0
M  V30 44290 N 4364.83 1.57598 0.00830251 0
M  V30 44291 C 4366.24 1.78347 0.552214 0
M  V30 44292 C 4366.59 0.89822 1.74432 0
M  V30 44293 O 4365.72 0.098489 2.16176 0
M  V30 44294 C 4366.31 3.2344 1.00856 0
M  V30 44295 C 4364.87 3.45314 1.49784 0
M  V30 44296 C 4364.02 2.73702 0.445261 0
M  V30 44297 H 4366.97 1.57197 -0.21789 0
M  V30 44298 H 4366.99 3.31096 1.87498 0
M  V30 44299 H 4366.5 3.87845 0.140726 0
M  V30 44300 H 4364.6 2.86113 2.38684 0
M  V30 44301 H 4364.72 4.53978 1.53103 0
M  V30 44302 H 4363.08 2.38078 0.905028 0
M  V30 44303 H 4363.86 3.40801 -0.413466 0
M  V30 44304 N 4366.31 -0.280928 1.55076 0
M  V30 44305 C 4367.24 -1.35141 1.90418 0
M  V30 44306 C 4368.22 -1.51918 0.765175 0
M  V30 44307 O 4369.4 -1.65093 1.02264 0
M  V30 44308 C 4366.53 -2.7123 2.16914 0
M  V30 44309 C 4365.49 -2.69194 3.32744 0
M  V30 44310 C 4364.81 -4.0876 3.44702 0
M  V30 44311 C 4366.11 -2.29161 4.69343 0
M  V30 44312 H 4367.81 -1.0581 2.80079 0
M  V30 44313 H 4365.35 -0.50756 1.34758 0
M  V30 44314 H 4367.31 -3.46222 2.40225 0
M  V30 44315 H 4366.03 -3.02127 1.24044 0
M  V30 44316 H 4364.69 -1.96658 3.09388 0
M  V30 44317 H 4364.34 -4.36866 2.49313 0
M  V30 44318 H 4364.04 -4.08294 4.22575 0
M  V30 44319 H 4365.56 -4.85503 3.70297 0
M  V30 44320 H 4366.98 -2.93874 4.92251 0
M  V30 44321 H 4365.37 -2.39872 5.50074 0
M  V30 44322 H 4366.44 -1.24289 4.68701 0
M  V30 44323 N 4367.79 -1.47874 -0.545076 0
M  V30 44324 C 4369.01 -1.59008 -1.33159 0
M  V30 44325 C 4369.44 -0.245037 -1.86497 0
M  V30 44326 O 4368.79 0.781008 -1.63615 0
M  V30 44327 C 4368.84 -2.62823 -2.46893 0
M  V30 44328 O 4367.95 -2.18936 -3.49487 0
M  V30 44329 H 4367.29 -0.533717 -0.395021 0
M  V30 44330 H 4369.82 -1.93748 -0.657483 0
M  V30 44331 H 4369.83 -2.83625 -2.93293 0
M  V30 44332 H 4368.5 -3.6048 -2.0743 0
M  V30 44333 H 4367.08 -2.08285 -3.09309 0
M  V30 44334 N 4369.26 0.792773 -1.36209 0
M  V30 44335 C 4370.51 1.5528 -1.30445 0
M  V30 44336 C 4370.84 1.93847 0.117037 0
M  V30 44337 O 4370.12 1.62446 1.06965 0
M  V30 44338 C 4370.4 2.83214 -2.22401 0
M  V30 44339 C 4370.25 2.51035 -3.73231 0
M  V30 44340 C 4371.57 3.85016 -2.13192 0
M  V30 44341 H 4368.69 0.563358 -0.475181 0
M  V30 44342 H 4371.33 0.911074 -1.66732 0
M  V30 44343 H 4369.48 3.37975 -1.91585 0
M  V30 44344 H 4371.16 2.02351 -4.1455 0
M  V30 44345 H 4369.4 1.84026 -3.92832 0
M  V30 44346 H 4370.07 3.42394 -4.32978 0
M  V30 44347 H 4372.55 3.39692 -2.40309 0
M  V30 44348 H 4371.42 4.72286 -2.79709 0
M  V30 44349 H 4371.68 4.27726 -1.11816 0
M  V30 44350 N 4370.74 1.20433 1.01654 0
M  V30 44351 C 4371.99 1.01603 1.75513 0
M  V30 44352 C 4372.32 -0.450758 1.88896 0
M  V30 44353 O 4371.6 -1.33465 1.41483 0
M  V30 44354 C 4371.88 1.70029 3.1743 0
M  V30 44355 C 4371.73 3.24153 3.11841 0
M  V30 44356 C 4373.05 1.43341 4.16103 0
M  V30 44357 H 4370.17 0.370512 0.637095 0
M  V30 44358 H 4372.81 1.48448 1.18588 0
M  V30 44359 H 4370.96 1.30202 3.66032 0
M  V30 44360 H 4372.63 3.73274 2.71042 0
M  V30 44361 H 4370.88 3.55055 2.49236 0
M  V30 44362 H 4371.55 3.67187 4.12162 0
M  V30 44363 H 4374.02 1.77893 3.76156 0
M  V30 44364 H 4372.9 1.9375 5.13568 0
M  V30 44365 H 4373.16 0.36103 4.40623 0
M  V30 44366 N 4372.22 -1.20963 1.01023 0
M  V30 44367 C 4373.15 -2.25783 0.59534 0
M  V30 44368 C 4374.13 -1.65652 -0.386448 0
M  V30 44369 O 4375.32 -1.92268 -0.273281 0
M  V30 44370 C 4372.45 -3.47222 -0.0735879 0
M  V30 44371 C 4371.4 -4.19904 0.828522 0
M  V30 44372 C 4370.73 -5.34694 0.0257182 0
M  V30 44373 C 4372.03 -4.76734 2.13359 0
M  V30 44374 H 4373.72 -2.60741 1.47155 0
M  V30 44375 H 4371.27 -1.25336 0.709012 0
M  V30 44376 H 4373.22 -4.19725 -0.375349 0
M  V30 44377 H 4371.94 -3.11409 -0.984464 0
M  V30 44378 H 4370.6 -3.49258 1.11419 0
M  V30 44379 H 4370.25 -4.95124 -0.88661 0
M  V30 44380 H 4369.95 -5.84251 0.626422 0
M  V30 44381 H 4371.47 -6.10004 -0.269737 0
M  V30 44382 H 4372.89 -5.41088 1.89463 0
M  V30 44383 H 4371.28 -5.36702 2.6846 0
M  V30 44384 H 4372.35 -3.95827 2.80088 0
M  V30 44385 N 4373.7 -0.785634 -1.36622 0
M  V30 44386 C 4374.63 -0.195598 -2.32679 0
M  V30 44387 C 4375.61 0.667307 -1.56464 0
M  V30 44388 O 4376.79 0.601911 -1.84637 0
M  V30 44389 C 4373.92 0.673407 -3.40709 0
M  V30 44390 C 4372.88 -0.0893007 -4.27907 0
M  V30 44391 C 4372.2 0.900053 -5.2707 0
M  V30 44392 C 4373.5 -1.27633 -5.06465 0
M  V30 44393 H 4375.2 -0.998083 -2.82274 0
M  V30 44394 H 4372.74 -0.481397 -1.35715 0
M  V30 44395 H 4374.7 1.09609 -4.06895 0
M  V30 44396 H 4373.42 1.50856 -2.89672 0
M  V30 44397 H 4372.08 -0.492922 -3.63271 0
M  V30 44398 H 4371.73 1.73013 -4.72309 0
M  V30 44399 H 4371.43 0.394182 -5.86276 0
M  V30 44400 H 4372.95 1.32139 -5.96131 0
M  V30 44401 H 4374.37 -0.929589 -5.65713 0
M  V30 44402 H 4372.76 -1.71523 -5.75065 0
M  V30 44403 H 4373.83 -2.07356 -4.38328 0
M  V30 44404 N 4375.18 1.48157 -0.53733 0
M  V30 44405 C 4376.4 2.06897 -0.0101846 0
M  V30 44406 C 4376.82 1.39286 1.27456 0
M  V30 44407 O 4376.18 0.482771 1.75999 0
M  V30 44408 C 4376.23 3.60891 0.209832 0
M  V30 44409 O 4375.95 4.25964 -1.02402 0
M  V30 44410 C 4377.45 4.36446 0.776525 0
M  V30 44411 H 4374.67 0.669988 -0.0368345 0
M  V30 44412 H 4377.21 1.90444 -0.745072 0
M  V30 44413 H 4375.37 3.76925 0.894789 0
M  V30 44414 H 4375.78 5.18218 -0.809322 0
M  V30 44415 H 4377.26 5.44943 0.879859 0
M  V30 44416 H 4377.73 4.01372 1.78317 0
M  V30 44417 H 4378.34 4.25108 0.1279 0
M  V30 44418 N 4376.65 0.272809 1.55221 0
M  V30 44419 C 4377.9 -0.344632 1.99546 0
M  V30 44420 C 4378.23 -1.56034 1.16119 0
M  V30 44421 O 4377.48 -1.94479 0.218289 0
M  V30 44422 C 4377.78 -0.773049 3.48939 0
M  V30 44423 C 4377.45 0.337763 4.49633 0
M  V30 44424 C 4376.11 0.642779 4.76888 0
M  V30 44425 C 4378.46 1.08639 5.09752 0
M  V30 44426 C 4375.79 1.70004 5.6153 0
M  V30 44427 C 4378.14 2.13335 5.95542 0
M  V30 44428 C 4376.81 2.44474 6.21119 0
M  V30 44429 H 4376.08 -0.12611 0.73019 0
M  V30 44430 H 4378.72 0.386041 1.87569 0
M  V30 44431 H 4377.03 -1.58336 3.58381 0
M  V30 44432 H 4378.73 -1.26149 3.80641 0
M  V30 44433 H 4375.32 0.0899087 4.28506 0
M  V30 44434 H 4379.5 0.863995 4.88722 0
M  V30 44435 H 4374.76 1.94634 5.79593 0
M  V30 44436 H 4378.93 2.71819 6.41161 0
M  V30 44437 H 4376.56 3.26533 6.86498 0
M  V30 44438 N 4378.13 -1.576 5.54043e-05 0
M  V30 44439 C 4379.38 -1.90853 -0.685796 0
M  V30 44440 C 4379.71 -0.874015 -1.7342 0
M  V30 44441 O 4378.99 0.107248 -1.94204 0
M  V30 44442 C 4379.27 -3.34683 -1.32888 0
M  V30 44443 C 4379.12 -4.48851 -0.292006 0
M  V30 44444 C 4380.44 -3.77937 -2.25503 0
M  V30 44445 H 4377.56 -0.694078 -0.247839 0
M  V30 44446 H 4380.2 -1.89931 0.0513605 0
M  V30 44447 H 4378.35 -3.356 -1.95717 0
M  V30 44448 H 4380.02 -4.6007 0.336612 0
M  V30 44449 H 4378.27 -4.32082 0.385724 0
M  V30 44450 H 4378.94 -5.46447 -0.781016 0
M  V30 44451 H 4381.41 -3.78573 -1.7269 0
M  V30 44452 H 4380.29 -4.79327 -2.67464 0
M  V30 44453 H 4380.55 -3.11809 -3.13413 0
M  V30 44454 N 4379.61 0.2727 -1.55223 0
M  V30 44455 C 4380.84 1.02676 -1.80201 0
M  V30 44456 C 4381.26 1.7914 -0.573614 0
M  V30 44457 O 4380.62 1.74918 0.476787 0
M  V30 44458 C 4380.67 1.96079 -3.02631 0
M  V30 44459 O 4379.77 3.04854 -2.77737 0
M  V30 44460 H 4379.11 0.293537 -0.595594 0
M  V30 44461 H 4381.64 0.301519 -2.02366 0
M  V30 44462 H 4381.65 2.38027 -3.31372 0
M  V30 44463 H 4380.33 1.39837 -3.91687 0
M  V30 44464 H 4378.9 2.67218 -2.60094 0
M  V30 44465 N 4381.09 1.48161 0.537226 0
M  V30 44466 C 4382.34 1.55809 1.29344 0
M  V30 44467 C 4382.66 0.22887 1.93149 0
M  V30 44468 O 4381.92 -0.780179 1.79476 0
M  V30 44469 C 4382.22 2.63964 2.40951 0
M  V30 44470 C 4381.88 4.06627 1.94847 0
M  V30 44471 C 4380.55 4.45458 1.8199 0
M  V30 44472 C 4382.9 4.96061 1.59916 0
M  V30 44473 C 4380.23 5.71536 1.32527 0
M  V30 44474 C 4382.58 6.22621 1.11917 0
M  V30 44475 C 4381.24 6.60315 0.976719 0
M  V30 44476 H 4380.51 0.570146 0.473302 0
M  V30 44477 H 4383.16 1.81848 0.600308 0
M  V30 44478 H 4381.46 2.31758 3.15904 0
M  V30 44479 H 4383.16 2.67099 2.99097 0
M  V30 44480 H 4379.75 3.75957 2.05802 0
M  V30 44481 H 4383.93 4.66744 1.68712 0
M  V30 44482 H 4379.19 5.99472 1.20179 0
M  V30 44483 H 4383.36 6.91321 0.839567 0
M  V30 44484 H 4380.99 7.57897 0.591235 0
M  V30 44485 N 4382.57 -0.785538 1.36627 0
M  V30 44486 C 4383.52 -1.88818 1.27796 0
M  V30 44487 C 4384.5 -1.60014 0.168635 0
M  V30 44488 O 4385.69 -1.72379 0.401797 0
M  V30 44489 C 4382.82 -3.26088 1.07339 0
M  V30 44490 C 4381.91 -3.60889 2.22755 0
M  V30 44491 N 4382.3 -3.6697 3.4809 0
M  V30 44492 C 4380.6 -3.90973 2.14606 0
M  V30 44493 C 4381.3 -3.98122 4.24115 0
M  V30 44494 N 4380.27 -4.13307 3.53099 0
M  V30 44495 H 4384.08 -1.91751 2.2273 0
M  V30 44496 H 4381.59 -0.981265 1.29402 0
M  V30 44497 H 4383.59 -4.04951 0.990984 0
M  V30 44498 H 4382.25 -3.24427 0.133091 0
M  V30 44499 H 4383.26 -3.49518 3.82175 0
M  V30 44500 H 4379.93 -3.97215 1.28554 0
M  V30 44501 H 4381.32 -4.09718 5.32523 0
M  V30 44502 N 4384.04 -1.20971 -1.01014 0
M  V30 44503 C 4384.97 -0.988347 -2.11551 0
M  V30 44504 C 4385.96 0.0849181 -1.69888 0
M  V30 44505 O 4387.14 -0.0738884 -1.94059 0
M  V30 44506 C 4384.27 -0.546649 -3.42971 0
M  V30 44507 C 4383.22 -1.56389 -3.98405 0
M  V30 44508 C 4382.55 -0.978604 -5.25669 0
M  V30 44509 C 4383.85 -2.94937 -4.31056 0
M  V30 44510 H 4385.54 -1.91284 -2.30327 0
M  V30 44511 H 4383.09 -0.921111 -1.10687 0
M  V30 44512 H 4385.04 -0.378987 -4.19692 0
M  V30 44513 H 4383.77 0.413484 -3.23972 0
M  V30 44514 H 4382.43 -1.71903 -3.23798 0
M  V30 44515 H 4382.07 -0.0103456 -5.02999 0
M  V30 44516 H 4381.77 -1.65804 -5.63722 0
M  V30 44517 H 4383.3 -0.822152 -6.0504 0
M  V30 44518 H 4384.71 -2.82897 -4.9864 0
M  V30 44519 H 4383.11 -3.59847 -4.8024 0
M  V30 44520 H 4384.18 -3.46172 -3.39548 0
M  V30 44521 N 4385.52 1.20426 -1.01663 0
M  V30 44522 C 4386.43 2.26888 -0.596563 0
M  V30 44523 C 4387.45 1.70109 0.365931 0
M  V30 44524 O 4388.62 2.00118 0.226872 0
M  V30 44525 C 4385.69 3.46651 0.058544 0
M  V30 44526 C 4384.75 4.18659 -0.949898 0
M  V30 44527 C 4383.98 5.32704 -0.325958 0
M  V30 44528 O 4384.21 5.63659 0.87431 0
M  V30 44529 O 4383.14 5.928 -1.0427 0
M  V30 44530 H 4386.97 2.65036 -1.48289 0
M  V30 44531 H 4384.55 1.27045 -0.786127 0
M  V30 44532 H 4386.43 4.19257 0.424417 0
M  V30 44533 H 4385.11 3.10378 0.919071 0
M  V30 44534 H 4384.02 3.48224 -1.36714 0
M  V30 44535 H 4385.35 4.58871 -1.78039 0
M  V30 44536 N 4387 0.792868 1.36203 0
M  V30 44537 C 4387.96 0.199539 2.2833 0
M  V30 44538 C 4388.96 -0.605137 1.48979 0
M  V30 44539 O 4390.15 -0.425626 1.6892 0
M  V30 44540 C 4387.29 -0.723406 3.33136 0
M  V30 44541 H 4388.48 1.01191 2.82313 0
M  V30 44542 H 4386.03 0.562536 1.45826 0
M  V30 44543 H 4386.77 -1.55998 2.84315 0
M  V30 44544 H 4386.55 -0.148298 3.91819 0
M  V30 44545 H 4388.04 -1.1333 4.01928 0
M  V30 44546 N 4388.48 -1.4787 0.54518 0
M  V30 44547 C 4389.89 -1.5829 0.204088 0
M  V30 44548 C 4390.09 -1.54534 -1.29312 0
M  V30 44549 O 4389.15 -1.44239 -2.07247 0
M  V30 44550 C 4390.46 -2.89301 0.820088 0
M  V30 44551 C 4392.01 -3.02861 0.790212 0
M  V30 44552 C 4392.49 -4.36555 1.38506 0
M  V30 44553 N 4393.98 -4.4316 1.34771 0
M  V30 44554 C 4394.71 -5.45147 1.77772 0
M  V30 44555 N 4394.21 -6.54008 2.28573 0
M  V30 44556 N 4396 -5.36119 1.68916 0
M  V30 44557 H 4388.15 -1.48555 1.51807 0
M  V30 44558 H 4390.42 -0.706283 0.632352 0
M  V30 44559 H 4390.12 -2.9775 1.87183 0
M  V30 44560 H 4390 -3.75956 0.306047 0
M  V30 44561 H 4392.38 -2.94015 -0.252809 0
M  V30 44562 H 4392.46 -2.17778 1.34188 0
M  V30 44563 H 4392.11 -4.46156 2.42709 0
M  V30 44564 H 4392.04 -5.2035 0.808937 0
M  V30 44565 H 4394.53 -3.65079 0.975983 0
M  V30 44566 H 4394.84 -7.27985 2.5934 0
M  V30 44567 H 4393.19 -6.5493 2.32576 0
M  V30 44568 H 4396.38 -4.4997 1.29014 0
M  V30 44569 H 4396.55 -6.15465 2.02747 0
M  V30 44570 N 4389.96 -0.281037 -1.55074 0
M  V30 44571 C 4391.18 0.340082 -2.04593 0
M  V30 44572 C 4391.61 1.48242 -1.15784 0
M  V30 44573 O 4390.96 1.80613 -0.157674 0
M  V30 44574 C 4391.01 0.79298 -3.51773 0
M  V30 44575 O 4390.12 1.89969 -3.66041 0
M  V30 44576 H 4389.46 0.0694057 -0.660363 0
M  V30 44577 H 4391.99 -0.417063 -2.00304 0
M  V30 44578 H 4392 1.08715 -3.93249 0
M  V30 44579 H 4390.67 -0.0427625 -4.15878 0
M  V30 44580 H 4389.25 1.60759 -3.36468 0
M  V30 44581 N 4391.44 1.57598 -0.00841331 0
M  V30 44582 C 4392.4 2.07887 0.965169 0
M  V30 44583 C 4393.4 0.989869 1.26721 0
M  V30 44584 O 4394.59 1.25222 1.21099 0
M  V30 44585 C 4391.72 2.52739 2.2877 0
M  V30 44586 H 4392.91 2.95179 0.530009 0
M  V30 44587 H 4390.47 1.54458 0.239229 0
M  V30 44588 H 4391.2 1.68715 2.76958 0
M  V30 44589 H 4390.99 3.32279 2.08166 0
M  V30 44590 H 4392.48 2.91943 2.98595 0
M  V30 44591 N 4392.91 -0.264465 1.55365 0
M  V30 44592 C 4394.16 -0.996398 1.76635 0
M  V30 44593 C 4394.49 -1.8563 0.570543 0
M  V30 44594 O 4393.77 -1.89649 -0.431683 0
M  V30 44595 C 4394.05 -1.87176 3.07631 0
M  V30 44596 C 4393.9 -1.04123 4.37583 0
M  V30 44597 C 4395.22 -2.85737 3.34727 0
M  V30 44598 H 4392.34 -0.360819 0.642634 0
M  V30 44599 H 4394.98 -0.268152 1.88098 0
M  V30 44600 H 4393.13 -2.49268 2.97989 0
M  V30 44601 H 4394.81 -0.440355 4.59193 0
M  V30 44602 H 4393.05 -0.344963 4.32426 0
M  V30 44603 H 4393.72 -1.68711 5.25586 0
M  V30 44604 H 4396.2 -2.33781 3.44218 0
M  V30 44605 H 4395.07 -3.44121 4.27635 0
M  V30 44606 H 4395.33 -3.61302 2.54781 0
M  V30 44607 N 4394.39 -1.48444 -0.529361 0
M  V30 44608 C 4395.62 -1.60155 -1.30988 0
M  V30 44609 C 4396.03 -0.26205 -1.86973 0
M  V30 44610 O 4395.39 0.748747 -1.66433 0
M  V30 44611 C 4395.44 -2.64863 -2.46028 0
M  V30 44612 O 4395.16 -3.93615 -1.92351 0
M  V30 44613 C 4396.66 -2.87019 -3.37839 0
M  V30 44614 H 4393.88 -0.539985 -0.398319 0
M  V30 44615 H 4396.43 -1.94276 -0.638529 0
M  V30 44616 H 4394.58 -2.33599 -3.09047 0
M  V30 44617 H 4395 -4.51064 -2.67659 0
M  V30 44618 H 4396.47 -3.64083 -4.14907 0
M  V30 44619 H 4396.95 -1.95866 -3.93107 0
M  V30 44620 H 4397.55 -3.19589 -2.80612 0
M  V30 44621 N 4395.87 0.778281 -1.37042 0
M  V30 44622 C 4397.12 1.53357 -1.31629 0
M  V30 44623 C 4397.44 1.94739 0.100763 0
M  V30 44624 O 4396.71 1.65801 1.04341 0
M  V30 44625 H 4395.29 0.568777 -0.484254 0
M  V30 44626 H 4397.95 0.926681 -1.7146 0
M  V30 44627 H 4397.05 2.43599 -1.95104 0
M  V30 44628 N 4397.35 1.21505 1.00371 0
M  V30 44629 C 4398.57 1.05984 1.78276 0
M  V30 44630 C 4399 -0.385929 1.84098 0
M  V30 44631 O 4398.36 -1.27844 1.28552 0
M  V30 44632 C 4398.4 1.66313 3.19957 0
M  V30 44633 O 4397.51 0.909475 4.02247 0
M  V30 44634 H 4396.85 0.372925 0.549384 0
M  V30 44635 H 4399.38 1.61074 1.2616 0
M  V30 44636 H 4399.39 1.70588 3.70626 0
M  V30 44637 H 4398.06 2.71526 3.15034 0
M  V30 44638 H 4396.64 0.941922 3.60808 0
M  V30 44639 N 4398.83 -1.19885 1.023 0
M  V30 44640 C 4400.07 -1.91123 0.724669 0
M  V30 44641 C 4400.43 -1.77467 -0.732773 0
M  V30 44642 O 4401.63 -2.43245 -1.14391 0
M  V30 44643 C 4399.9 -3.38183 1.15616 0
M  V30 44644 S 4401.46 -4.27699 0.980772 0
M  V30 44645 H 4398.28 -0.660171 0.263999 0
M  V30 44646 H 4400.88 -1.44973 1.3116 0
M  V30 44647 H 4399.58 -3.45645 2.21263 0
M  V30 44648 H 4399.12 -3.89361 0.562268 0
M  V30 44649 H 4401.13 -4.96073 -0.11205 0
M  V30 44650 N 4400.3 -0.80008 -1.35781 0
M  V30 44651 C 4401.55 -0.377972 -1.99247 0
M  V30 44652 C 4401.88 1.05046 -1.63337 0
M  V30 44653 O 4401.16 1.72765 -0.893446 0
M  V30 44654 C 4401.44 -0.554047 -3.55812 0
M  V30 44655 C 4401.29 -2.02694 -4.01541 0
M  V30 44656 C 4402.61 0.0243255 -4.40093 0
M  V30 44657 H 4399.73 -0.138807 -0.72381 0
M  V30 44658 H 4402.37 -1.0084 -1.61032 0
M  V30 44659 H 4400.52 -0.0173764 -3.88496 0
M  V30 44660 H 4402.2 -2.62549 -3.79296 0
M  V30 44661 H 4400.44 -2.52573 -3.52689 0
M  V30 44662 H 4401.11 -2.10105 -5.10451 0
M  V30 44663 H 4403.59 -0.433921 -4.13831 0
M  V30 44664 H 4402.46 -0.12883 -5.48749 0
M  V30 44665 H 4402.72 1.11743 -4.27745 0
M  V30 44666 N 4401.78 1.47579 -0.553014 0
M  V30 44667 C 4402.73 2.31649 0.210149 0
M  V30 44668 C 4403.72 1.42666 0.913382 0
M  V30 44669 O 4404.93 1.59453 0.835145 0
M  V30 44670 H 4401.3 0.746992 0.0866413 0
M  V30 44671 H 4403.28 2.93867 -0.518155 0
M  V30 44672 C 4402.02 3.25231 1.22964 0
M  V30 44673 H 4401.35 3.93661 0.697938 0
M  V30 44674 H 4402.79 3.86895 1.7346 0
M  V30 44675 C 4401.25 2.48456 2.27533 0
M  V30 44676 O 4401.78 2.22597 3.34385 0
M  V30 44677 N 4399.98 2.09539 2.0135 0
M  V30 44678 H 4399.53 2.30769 1.1447 0
M  V30 44679 H 4399.49 1.58485 2.71532 0
M  V30 44680 N 4403.26 0.289257 1.54923 0
M  V30 44681 C 4404.54 -0.375965 1.91953 0
M  V30 44682 C 4404.92 -1.72618 1.21517 0
M  V30 44683 O 4404.26 -2.25852 0.346846 0
M  V30 44684 C 4404.47 -0.502257 3.45367 0
M  V30 44685 C 4405.82 -0.778594 4.174 0
M  V30 44686 O 4406.85 -0.586524 3.51338 0
M  V30 44687 O 4405.71 -1.14679 5.34332 0
M  V30 44688 H 4402.8 -0.208138 0.80038 0
M  V30 44689 H 4405.35 0.336452 1.66331 0
M  V30 44690 H 4404.12 0.447392 3.88734 0
M  V30 44691 H 4403.74 -1.2636 3.76987 0
M  V30 44692 N 4404.74 -1.57591 0.016771 0
M  V30 44693 C 4405.99 -1.90908 -0.663218 0
M  V30 44694 C 4406.31 -0.892569 -1.73373 0
M  V30 44695 O 4405.58 0.0676934 -1.95783 0
M  V30 44696 H 4404.16 -0.704646 -0.247958 0
M  V30 44697 H 4406.82 -1.94802 0.0616594 0
M  V30 44698 H 4405.91 -2.91164 -1.12382 0
M  V30 44699 N 4406.22 0.256222 -1.55503 0
M  V30 44700 C 4407.46 0.987017 -1.7716 0
M  V30 44701 C 4407.8 1.85325 -0.58038 0
M  V30 44702 O 4407.07 1.89875 0.42162 0
M  V30 44703 C 4407.35 1.85542 -3.0862 0
M  V30 44704 C 4407.21 1.018 -4.38129 0
M  V30 44705 C 4408.53 2.83958 -3.36238 0
M  V30 44706 H 4405.64 0.357406 -0.644539 0
M  V30 44707 H 4408.29 0.258173 -1.88238 0
M  V30 44708 H 4406.44 2.47685 -2.99307 0
M  V30 44709 H 4408.11 0.415997 -4.5942 0
M  V30 44710 H 4406.35 0.322026 -4.32603 0
M  V30 44711 H 4407.02 1.65921 -5.26473 0
M  V30 44712 H 4409.5 2.31952 -3.45453 0
M  V30 44713 H 4408.37 3.41849 -4.29454 0
M  V30 44714 H 4408.64 3.59946 -2.56694 0
M  V30 44715 N 4407.69 1.48722 0.521481 0
M  V30 44716 C 4408.64 1.60275 1.6216 0
M  V30 44717 C 4409.63 0.459404 1.54202 0
M  V30 44718 O 4410.82 0.711298 1.62079 0
M  V30 44719 C 4407.95 1.65355 3.00853 0
M  V30 44720 C 4407.04 2.85198 3.13884 0
M  V30 44721 N 4407.43 4.0952 2.96863 0
M  V30 44722 C 4405.72 2.82707 3.44953 0
M  V30 44723 C 4406.43 4.8997 3.13534 0
M  V30 44724 N 4405.4 4.22946 3.41493 0
M  V30 44725 H 4409.2 2.54135 1.47623 0
M  V30 44726 H 4406.72 1.45212 0.727143 0
M  V30 44727 H 4408.71 1.71726 3.79889 0
M  V30 44728 H 4407.37 0.726169 3.16476 0
M  V30 44729 H 4408.39 4.39823 2.73452 0
M  V30 44730 H 4405.06 1.99262 3.6688 0
M  V30 44731 H 4406.45 5.98665 3.0504 0
M  V30 44732 N 4409.17 -0.771003 1.37453 0
M  V30 44733 C 4410.42 -1.52486 1.32026 0
M  V30 44734 C 4410.73 -1.9538 -0.092666 0
M  V30 44735 O 4411.94 -2.7016 -0.269408 0
M  V30 44736 C 4410.4 -2.75358 2.31746 0
M  V30 44737 C 4410 -2.39559 3.7857 0
M  V30 44738 C 4411.75 -3.53298 2.3533 0
M  V30 44739 C 4409.66 -3.58937 4.70019 0
M  V30 44740 H 4408.59 -0.572489 0.490686 0
M  V30 44741 H 4411.24 -0.844416 1.62917 0
M  V30 44742 H 4409.62 -3.45296 1.93873 0
M  V30 44743 H 4410.79 -1.774 4.25283 0
M  V30 44744 H 4409.11 -1.74791 3.77938 0
M  V30 44745 H 4411.7 -4.42028 3.00857 0
M  V30 44746 H 4412.05 -3.93212 1.36712 0
M  V30 44747 H 4412.58 -2.90358 2.71914 0
M  V30 44748 H 4409.32 -3.24105 5.69769 0
M  V30 44749 H 4408.84 -4.20199 4.2801 0
M  V30 44750 H 4410.52 -4.2574 4.8719 0
M  V30 44751 N 4410.65 -1.22035 -0.997255 0
M  V30 44752 C 4411.9 -1.03643 -1.73035 0
M  V30 44753 C 4412.21 0.429408 -1.90828 0
M  V30 44754 O 4413.42 0.732903 -2.61421 0
M  V30 44755 C 4411.87 -1.80593 -3.1131 0
M  V30 44756 C 4411.48 -3.31397 -3.01463 0
M  V30 44757 C 4413.23 -1.70635 -3.88695 0
M  V30 44758 C 4411.13 -4.00806 -4.34866 0
M  V30 44759 H 4410.06 -0.384202 -0.648772 0
M  V30 44760 H 4412.71 -1.45844 -1.11363 0
M  V30 44761 H 4411.1 -1.31188 -3.73638 0
M  V30 44762 H 4412.27 -3.88163 -2.48326 0
M  V30 44763 H 4410.59 -3.41984 -2.37563 0
M  V30 44764 H 4413.18 -2.19817 -4.87427 0
M  V30 44765 H 4413.53 -0.665968 -4.10939 0
M  V30 44766 H 4414.06 -2.17559 -3.33036 0
M  V30 44767 H 4410.8 -5.05079 -4.17823 0
M  V30 44768 H 4410.32 -3.48829 -4.87933 0
M  V30 44769 H 4412 -4.06156 -5.03633 0
M  V30 44770 N 4412.13 1.19341 -1.02934 0
M  V30 44771 C 4413.54 1.41066 -0.746495 0
M  V30 44772 C 4413.74 1.9008 0.668709 0
M  V30 44773 O 4412.8 2.07785 1.43463 0
M  V30 44774 C 4414.11 2.42135 -1.78301 0
M  V30 44775 C 4415.66 2.55881 -1.80261 0
M  V30 44776 C 4416.14 3.60204 -2.82872 0
M  V30 44777 N 4417.63 3.67701 -2.81692 0
M  V30 44778 C 4418.36 4.48116 -3.57743 0
M  V30 44779 N 4417.86 5.32232 -4.4351 0
M  V30 44780 N 4419.65 4.4277 -3.46282 0
M  V30 44781 H 4411.8 0.858468 -1.94278 0
M  V30 44782 H 4414.07 0.439512 -0.83996 0
M  V30 44783 H 4413.77 2.13145 -2.79753 0
M  V30 44784 H 4413.65 3.41317 -1.60569 0
M  V30 44785 H 4416.03 2.84194 -0.794856 0
M  V30 44786 H 4416.11 1.56851 -2.02068 0
M  V30 44787 H 4415.76 3.32634 -3.83819 0
M  V30 44788 H 4415.69 4.58886 -2.58323 0
M  V30 44789 H 4418.18 3.07626 -2.19487 0
M  V30 44790 H 4418.49 5.90712 -4.98277 0
M  V30 44791 H 4416.84 5.31691 -4.47582 0
M  V30 44792 H 4420.03 3.76098 -2.7869 0
M  V30 44793 H 4420.2 5.05201 -4.05803 0
M  V30 44794 N 4413.61 0.80727 1.35355 0
M  V30 44795 C 4414.85 0.387192 1.98356 0
M  V30 44796 C 4415.18 -1.04937 1.64357 0
M  V30 44797 O 4414.45 -1.72611 0.926399 0
M  V30 44798 H 4413.03 0.14018 0.733729 0
M  V30 44799 H 4415.69 1.03326 1.65257 0
M  V30 44800 H 4414.78 0.49346 3.08174 0
M  V30 44801 N 4415.08 -1.47283 0.560833 0
M  V30 44802 C 4416.31 -2.06555 0.0430364 0
M  V30 44803 C 4416.72 -1.41344 -1.25772 0
M  V30 44804 O 4416.07 -0.505244 -1.76615 0
M  V30 44805 C 4416.13 -3.58828 -0.219761 0
M  V30 44806 C 4415.79 -4.46101 0.992101 0
M  V30 44807 C 4416.79 -4.83993 1.8986 0
M  V30 44808 C 4414.47 -4.87563 1.20779 0
M  V30 44809 C 4416.47 -5.62149 3.00445 0
M  V30 44810 C 4414.15 -5.65483 2.31673 0
M  V30 44811 C 4415.15 -6.02687 3.21336 0
M  V30 44812 O 4414.84 -6.79037 4.30307 0
M  V30 44813 H 4414.57 -0.674536 0.0444705 0
M  V30 44814 H 4417.13 -1.90223 0.774885 0
M  V30 44815 H 4415.36 -3.73386 -1.00596 0
M  V30 44816 H 4417.05 -4.00106 -0.683381 0
M  V30 44817 H 4417.81 -4.52558 1.74403 0
M  V30 44818 H 4413.69 -4.58069 0.519054 0
M  V30 44819 H 4417.23 -5.91107 3.70456 0
M  V30 44820 H 4413.13 -5.96331 2.47102 0
M  V30 44821 H 4413.9 -6.97435 4.284 0
M  V30 44822 N 4416.56 -0.297469 -1.54767 0
M  V30 44823 C 4417.79 0.318363 -2.04942 0
M  V30 44824 C 4418.21 1.47005 -1.1735 0
M  V30 44825 O 4417.57 1.80436 -0.176821 0
M  V30 44826 C 4417.62 0.755625 -3.52594 0
M  V30 44827 O 4416.72 1.86076 -3.68035 0
M  V30 44828 H 4416.06 0.0623977 -0.661062 0
M  V30 44829 H 4418.59 -0.438285 -1.99851 0
M  V30 44830 H 4418.6 1.04538 -3.9438 0
M  V30 44831 H 4417.28 -0.0868695 -4.15809 0
M  V30 44832 H 4415.86 1.57182 -3.38154 0
M  V30 44833 N 4418.04 1.5758 -0.0251282 0
M  V30 44834 C 4419.29 1.91919 0.655346 0
M  V30 44835 C 4419.62 0.901494 1.72008 0
M  V30 44836 O 4418.89 -0.0763386 1.9435 0
M  V30 44837 C 4419.18 3.36755 1.27546 0
M  V30 44838 C 4419.03 4.49259 0.220561 0
M  V30 44839 C 4420.35 3.81477 2.19461 0
M  V30 44840 H 4417.47 0.697933 0.236765 0
M  V30 44841 H 4420.11 1.89825 -0.0815703 0
M  V30 44842 H 4418.26 3.38671 1.90353 0
M  V30 44843 H 4419.93 4.59476 -0.409762 0
M  V30 44844 H 4418.18 4.31413 -0.454416 0
M  V30 44845 H 4418.85 5.4762 0.693983 0
M  V30 44846 H 4421.32 3.81272 1.66645 0
M  V30 44847 H 4420.2 4.83521 2.59805 0
M  V30 44848 H 4420.46 3.16755 3.08413 0
M  V30 44849 N 4419.52 -0.247971 1.55637 0
M  V30 44850 C 4420.45 -1.33334 1.85195 0
M  V30 44851 C 4421.43 -1.46427 0.706958 0
M  V30 44852 O 4422.61 -1.62658 0.952601 0
M  V30 44853 C 4419.74 -2.70696 2.03571 0
M  V30 44854 C 4418.79 -2.74758 3.26206 0
M  V30 44855 S 4419.62 -2.31476 4.82886 0
M  V30 44856 C 4420.78 -3.70765 5.04266 0
M  V30 44857 H 4421.01 -1.08062 2.76965 0
M  V30 44858 H 4418.54 -0.4489 1.4773 0
M  V30 44859 H 4420.5 -3.4979 2.14842 0
M  V30 44860 H 4419.16 -2.93206 1.12645 0
M  V30 44861 H 4418.35 -3.75636 3.36026 0
M  V30 44862 H 4417.96 -2.03708 3.13655 0
M  V30 44863 H 4420.25 -4.66252 4.91543 0
M  V30 44864 H 4421.19 -3.65879 6.06249 0
M  V30 44865 H 4421.6 -3.63228 4.32117 0
M  V30 44866 N 4421 -1.48997 -0.513587 0
M  V30 44867 C 4422.22 -1.61796 -1.29756 0
M  V30 44868 C 4422.65 -0.284541 -1.85935 0
M  V30 44869 O 4422.01 0.746127 -1.65235 0
M  V30 44870 C 4422.05 -2.68001 -2.41263 0
M  V30 44871 O 4421.16 -2.263 -3.44764 0
M  V30 44872 H 4420.5 -0.541976 -0.383611 0
M  V30 44873 H 4423.03 -1.95099 -0.616239 0
M  V30 44874 H 4423.04 -2.89782 -2.87211 0
M  V30 44875 H 4421.71 -3.64799 -1.99737 0
M  V30 44876 H 4420.29 -2.14799 -3.04821 0
M  V30 44877 N 4422.48 0.763702 -1.3786 0
M  V30 44878 C 4423.7 1.55288 -1.36724 0
M  V30 44879 C 4424.12 1.88745 0.045477 0
M  V30 44880 O 4423.48 1.52043 1.00942 0
M  V30 44881 C 4423.53 2.85824 -2.2133 0
M  V30 44882 O 4423.25 2.53797 -3.57097 0
M  V30 44883 C 4424.75 3.80015 -2.28262 0
M  V30 44884 H 4421.97 0.480825 -0.468026 0
M  V30 44885 H 4424.51 0.945945 -1.81307 0
M  V30 44886 H 4422.67 3.4292 -1.80236 0
M  V30 44887 H 4423.08 3.37445 -4.01536 0
M  V30 44888 H 4424.56 4.68589 -2.91768 0
M  V30 44889 H 4425.03 4.19725 -1.29335 0
M  V30 44890 H 4425.64 3.28846 -2.69705 0
M  V30 44891 N 4423.95 1.22562 0.990769 0
M  V30 44892 C 4425.36 1.04796 1.54514 0
M  V30 44893 C 4425.72 -0.38793 1.92327 0
M  V30 44894 O 4424.84 -1.27322 1.7498 0
M  V30 44895 C 4425.44 1.8961 2.80773 0
M  V30 44896 C 4423.99 1.76135 3.32646 0
M  V30 44897 C 4423.14 1.85947 2.05716 0
M  V30 44898 H 4426.09 1.36376 0.811614 0
M  V30 44899 H 4426.11 1.41477 3.5322 0
M  V30 44900 H 4425.63 2.9411 2.53221 0
M  V30 44901 H 4423.73 0.743771 3.65101 0
M  V30 44902 H 4423.84 2.58927 4.03105 0
M  V30 44903 H 4422.2 1.29411 2.19374 0
M  V30 44904 H 4422.99 2.91982 1.80558 0
M  V30 44905 N 4425.43 -1.18793 1.03566 0
M  V30 44906 C 4426.68 -1.88648 0.736089 0
M  V30 44907 C 4427.01 -1.80044 -0.735826 0
M  V30 44908 O 4426.26 -1.19184 -1.55221 0
M  V30 44909 C 4426.56 -3.38688 1.14129 0
M  V30 44910 C 4426.23 -3.67495 2.61263 0
M  V30 44911 C 4424.89 -3.75067 3.0146 0
M  V30 44912 C 4427.24 -3.80281 3.56421 0
M  V30 44913 C 4424.57 -3.92899 4.35714 0
M  V30 44914 C 4426.92 -3.99628 4.90388 0
M  V30 44915 C 4425.58 -4.05434 5.30264 0
M  V30 44916 H 4424.85 -0.690311 0.269354 0
M  V30 44917 H 4427.5 -1.40636 1.29976 0
M  V30 44918 H 4425.81 -3.88643 0.496339 0
M  V30 44919 H 4427.5 -3.91069 0.886927 0
M  V30 44920 H 4424.09 -3.62215 2.29125 0
M  V30 44921 H 4428.28 -3.73767 3.26514 0
M  V30 44922 H 4423.53 -3.95636 4.66135 0
M  V30 44923 H 4427.71 -4.08463 5.64031 0
M  V30 44924 H 4425.33 -4.19004 6.34302 0
M  V30 44925 N 4426.91 -0.814437 -1.34925 0
M  V30 44926 C 4427.87 -0.235839 -2.27983 0
M  V30 44927 C 4428.87 0.581359 -1.49923 0
M  V30 44928 O 4430.06 0.398698 -1.69576 0
M  V30 44929 C 4427.19 0.670315 -3.34245 0
M  V30 44930 H 4428.39 -1.05669 -2.80667 0
M  V30 44931 H 4425.94 -0.585665 -1.44913 0
M  V30 44932 H 4426.68 1.51455 -2.86761 0
M  V30 44933 H 4426.46 0.0859444 -3.92006 0
M  V30 44934 H 4427.95 1.06921 -4.0368 0
M  V30 44935 N 4428.39 1.46984 -0.568636 0
M  V30 44936 C 4429.62 2.06829 -0.0540683 0
M  V30 44937 C 4430.03 1.41958 1.24473 0
M  V30 44938 O 4429.39 0.519995 1.74935 0
M  V30 44939 C 4429.44 3.61254 0.133235 0
M  V30 44940 O 4429.16 4.23696 -1.11414 0
M  V30 44941 C 4430.66 4.37995 0.683773 0
M  V30 44942 H 4427.88 0.669056 -0.0510376 0
M  V30 44943 H 4430.42 1.88821 -0.785301 0
M  V30 44944 H 4428.58 3.78738 0.814636 0
M  V30 44945 H 4428.99 5.16385 -0.919062 0
M  V30 44946 H 4430.47 5.46686 0.76407 0
M  V30 44947 H 4430.94 4.05064 1.69763 0
M  V30 44948 H 4431.55 4.25283 0.0376999 0
M  V30 44949 N 4429.87 0.305673 1.54607 0
M  V30 44950 C 4431.11 -0.302676 2.00529 0
M  V30 44951 C 4431.44 -1.53179 1.19372 0
M  V30 44952 O 4430.72 -1.92597 0.271389 0
M  V30 44953 C 4431 -0.654632 3.541 0
M  V30 44954 C 4430.86 0.58395 4.45993 0
M  V30 44955 C 4432.17 -1.47932 4.14493 0
M  V30 44956 H 4429.29 -0.108538 0.728964 0
M  V30 44957 H 4431.94 0.4187 1.85329 0
M  V30 44958 H 4430.09 -1.26922 3.67182 0
M  V30 44959 H 4431.76 1.22239 4.44809 0
M  V30 44960 H 4430 1.2163 4.164 0
M  V30 44961 H 4430.67 0.293481 5.51219 0
M  V30 44962 H 4433.15 -0.959988 4.04875 0
M  V30 44963 H 4432.02 -1.69436 5.22094 0
M  V30 44964 H 4432.28 -2.46998 3.66667 0
M  V30 44965 N 4431.34 -1.57564 0.0334847 0
M  V30 44966 C 4432.58 -1.93846 -0.648311 0
M  V30 44967 C 4432.95 -0.910446 -1.69041 0
M  V30 44968 O 4434.15 -1.1596 -2.42501 0
M  V30 44969 C 4432.42 -3.35021 -1.24481 0
M  V30 44970 S 4433.98 -3.93236 -1.94707 0
M  V30 44971 H 4430.8 -0.678238 -0.21334 0
M  V30 44972 H 4433.4 -1.95253 0.0981939 0
M  V30 44973 H 4432.1 -4.07654 -0.473985 0
M  V30 44974 H 4431.63 -3.37068 -2.02852 0
M  V30 44975 H 4433.65 -3.77025 -3.22593 0
M  V30 44976 N 4432.82 0.239714 -1.55766 0
M  V30 44977 C 4434.07 0.964829 -1.77582 0
M  V30 44978 C 4434.39 1.8558 -0.598764 0
M  V30 44979 O 4433.66 1.92076 0.385159 0
M  V30 44980 H 4432.24 0.359242 -0.654946 0
M  V30 44981 H 4434.9 0.255933 -1.93212 0
M  V30 44982 H 4434 1.58233 -2.69014 0
M  V30 44983 N 4434.3 1.49267 0.505678 0
M  V30 44984 C 4435.58 1.49017 1.26702 0
M  V30 44985 C 4435.96 0.215279 2.09999 0
M  V30 44986 O 4435.3 -0.802471 2.13945 0
M  V30 44987 C 4435.51 2.76638 2.12773 0
M  V30 44988 C 4436.86 3.25942 2.72116 0
M  V30 44989 O 4437.89 2.77723 2.23044 0
M  V30 44990 O 4436.75 4.09909 3.61437 0
M  V30 44991 H 4433.84 0.596217 0.573109 0
M  V30 44992 H 4436.39 1.61526 0.520333 0
M  V30 44993 H 4435.16 3.60921 1.51167 0
M  V30 44994 H 4434.78 2.66967 2.94643 0
M  V30 44995 N 4435.78 -0.756381 1.38263 0
M  V30 44996 C 4436.69 -1.90085 1.37495 0
M  V30 44997 C 4437.7 -1.71854 0.272426 0
M  V30 44998 O 4438.88 -1.94826 0.510387 0
M  V30 44999 C 4435.95 -3.25417 1.19603 0
M  V30 45000 C 4435.01 -3.56193 2.39635 0
M  V30 45001 C 4434.24 -4.85068 2.22588 0
M  V30 45002 O 4434.46 -5.57241 1.21812 0
M  V30 45003 O 4433.4 -5.15258 3.11116 0
M  V30 45004 H 4437.22 -1.93687 2.33921 0
M  V30 45005 H 4434.81 -0.901271 1.19153 0
M  V30 45006 H 4436.69 -4.06333 1.11675 0
M  V30 45007 H 4435.36 -3.22633 0.262599 0
M  V30 45008 H 4434.27 -2.75449 2.53138 0
M  V30 45009 H 4435.6 -3.63735 3.31599 0
M  V30 45010 N 4437.26 -1.23086 -0.984255 0
M  V30 45011 C 4438.19 -0.951859 -2.074 0
M  V30 45012 C 4439.17 0.108423 -1.62238 0
M  V30 45013 O 4440.35 -0.025013 -1.88483 0
M  V30 45014 C 4437.48 -0.43326 -3.35917 0
M  V30 45015 C 4436.52 -1.47955 -4.00014 0
M  V30 45016 S 4437.36 -3.05571 -4.39757 0
M  V30 45017 C 4438.51 -2.55371 -5.71433 0
M  V30 45018 H 4438.75 -1.87464 -2.30747 0
M  V30 45019 H 4436.28 -1.06288 -1.11992 0
M  V30 45020 H 4438.24 -0.14065 -4.10259 0
M  V30 45021 H 4436.9 0.468547 -3.10586 0
M  V30 45022 H 4436.09 -1.06675 -4.92581 0
M  V30 45023 H 4435.69 -1.72131 -3.32034 0
M  V30 45024 H 4437.99 -1.97151 -6.4818 0
M  V30 45025 H 4438.93 -3.46463 -6.17551 0
M  V30 45026 H 4439.34 -1.96358 -5.29248 0
M  V30 45027 N 4438.73 1.18243 -1.04194 0
M  V30 45028 C 4440.15 1.69911 -0.773757 0
M  V30 45029 C 4440.5 1.83087 0.705232 0
M  V30 45030 O 4439.62 1.51128 1.54885 0
M  V30 45031 C 4440.22 3.08614 -1.39795 0
M  V30 45032 C 4438.78 3.5749 -1.17805 0
M  V30 45033 C 4437.92 2.34007 -1.48781 0
M  V30 45034 H 4440.87 1.029 -1.20819 0
M  V30 45035 H 4440.89 3.71955 -0.801844 0
M  V30 45036 H 4440.41 2.98993 -2.47437 0
M  V30 45037 H 4438.51 3.72405 -0.120426 0
M  V30 45038 H 4438.62 4.40845 -1.87596 0
M  V30 45039 H 4436.98 2.37983 -0.907547 0
M  V30 45040 H 4437.77 2.27004 -2.57535 0
M  V30 45041 N 4440.21 0.821581 1.34491 0
M  V30 45042 C 4441.18 0.247927 2.27855 0
M  V30 45043 C 4442.18 -0.5734 1.50229 0
M  V30 45044 O 4443.37 -0.3897 1.69785 0
M  V30 45045 C 4440.5 -0.65258 3.34596 0
M  V30 45046 H 4441.69 1.07156 2.80103 0
M  V30 45047 H 4439.24 0.593342 1.446 0
M  V30 45048 H 4439.98 -1.49933 2.8756 0
M  V30 45049 H 4439.76 -0.0651542 3.92046 0
M  V30 45050 H 4441.25 -1.04779 4.04241 0
M  V30 45051 N 4441.69 -1.4668 0.576422 0
M  V30 45052 C 4443.1 -1.86111 0.148156 0
M  V30 45053 C 4443.45 -1.48077 -1.28715 0
M  V30 45054 O 4442.58 -0.892726 -1.97128 0
M  V30 45055 C 4443.17 -3.37785 0.262101 0
M  V30 45056 C 4441.73 -3.76236 -0.111252 0
M  V30 45057 C 4440.88 -2.70711 0.600925 0
M  V30 45058 H 4443.83 -1.37924 0.785019 0
M  V30 45059 H 4443.85 -3.77009 -0.514232 0
M  V30 45060 H 4443.36 -3.65436 1.30684 0
M  V30 45061 H 4441.46 -3.54202 -1.15636 0
M  V30 45062 H 4441.58 -4.7839 0.260688 0
M  V30 45063 H 4439.94 -2.54666 0.0418678 0
M  V30 45064 H 4440.72 -3.01202 1.64719 0
M  V30 45065 N 4443.17 -0.313868 -1.54443 0
M  V30 45066 C 4444.1 0.549375 -2.26945 0
M  V30 45067 C 4445.08 1.12736 -1.27376 0
M  V30 45068 O 4446.26 1.1543 -1.56171 0
M  V30 45069 C 4443.39 1.71512 -3.01995 0
M  V30 45070 C 4442.35 1.26689 -4.0882 0
M  V30 45071 C 4441.67 2.51882 -4.71656 0
M  V30 45072 C 4442.97 0.388779 -5.20851 0
M  V30 45073 H 4444.67 -0.0553714 -2.99349 0
M  V30 45074 H 4442.21 -0.0280713 -1.43973 0
M  V30 45075 H 4444.17 2.32523 -3.51441 0
M  V30 45076 H 4442.89 2.34631 -2.27192 0
M  V30 45077 H 4441.55 0.67977 -3.60243 0
M  V30 45078 H 4441.2 3.13343 -3.93479 0
M  V30 45079 H 4440.9 2.22586 -5.4381 0
M  V30 45080 H 4442.42 3.13672 -5.23872 0
M  V30 45081 H 4443.84 0.904908 -5.66113 0
M  V30 45082 H 4442.23 0.189029 -5.99802 0
M  V30 45083 H 4443.3 -0.582868 -4.81384 0
M  V30 45084 N 4444.65 1.57544 -0.0418402 0
M  V30 45085 C 4445.87 1.96627 0.643859 0
M  V30 45086 C 4446.29 0.918955 1.64926 0
M  V30 45087 O 4445.65 -0.0978683 1.82237 0
M  V30 45088 C 4445.7 3.35786 1.33903 0
M  V30 45089 O 4445.42 4.36502 0.373895 0
M  V30 45090 C 4446.92 3.89573 2.11536 0
M  V30 45091 H 4444.14 0.647322 0.176679 0
M  V30 45092 H 4446.68 2.04228 -0.105376 0
M  V30 45093 H 4444.84 3.29364 2.03956 0
M  V30 45094 H 4445.25 5.17251 0.868997 0
M  V30 45095 H 4446.73 4.89251 2.55611 0
M  V30 45096 H 4447.2 3.24499 2.95968 0
M  V30 45097 H 4447.81 3.99304 1.46413 0
M  V30 45098 N 4446.12 -0.23145 1.55891 0
M  V30 45099 C 4447.37 -0.955284 1.77644 0
M  V30 45100 C 4447.69 -1.8589 0.608612 0
M  V30 45101 O 4448.89 -2.62065 0.709522 0
M  V30 45102 C 4447.35 -1.74875 3.14558 0
M  V30 45103 C 4446.96 -0.89176 4.39035 0
M  V30 45104 C 4448.7 -2.46439 3.45641 0
M  V30 45105 C 4446.61 -1.68201 5.66977 0
M  V30 45106 H 4445.54 -0.360422 0.662278 0
M  V30 45107 H 4448.19 -0.209452 1.82301 0
M  V30 45108 H 4446.57 -2.53712 3.0405 0
M  V30 45109 H 4447.74 -0.144631 4.60573 0
M  V30 45110 H 4446.06 -0.288717 4.15398 0
M  V30 45111 H 4448.66 -3.06046 4.38452 0
M  V30 45112 H 4449 -3.18831 2.67679 0
M  V30 45113 H 4449.53 -1.74601 3.57434 0
M  V30 45114 H 4446.27 -1.00155 6.47803 0
M  V30 45115 H 4445.79 -2.40401 5.49516 0
M  V30 45116 H 4447.47 -2.24522 6.06794 0
M  V30 45117 N 4447.6 -1.49533 -0.497755 0
M  V30 45118 C 4448.57 -1.65921 -1.58123 0
M  V30 45119 C 4449.57 -0.530878 -1.51784 0
M  V30 45120 O 4450.76 -0.797397 -1.54878 0
M  V30 45121 C 4447.89 -1.65961 -2.97774 0
M  V30 45122 H 4449.08 -2.62561 -1.4492 0
M  V30 45123 H 4446.63 -1.38613 -0.722226 0
M  V30 45124 H 4447.37 -0.709176 -3.16451 0
M  V30 45125 H 4447.15 -2.47907 -3.03784 0
M  V30 45126 H 4448.64 -1.80686 -3.76487 0
M  V30 45127 N 4449.08 0.749038 -1.38662 0
M  V30 45128 C 4450.33 1.5053 -1.34852 0
M  V30 45129 C 4450.65 1.94909 0.059433 0
M  V30 45130 O 4449.92 1.67976 1.008 0
M  V30 45131 H 4448.5 0.558377 -0.49621 0
M  V30 45132 H 4451.16 0.890104 -1.73387 0
M  V30 45133 H 4450.26 2.39406 -2.00228 0
M  V30 45134 N 4450.56 1.23606 0.977714 0
M  V30 45135 C 4451.97 1.06429 1.53394 0
M  V30 45136 C 4452.32 -0.36751 1.92727 0
M  V30 45137 O 4451.45 -1.25459 1.76321 0
M  V30 45138 C 4452.04 1.92578 2.78746 0
M  V30 45139 C 4450.6 1.79654 3.30759 0
M  V30 45140 C 4449.75 1.88118 2.03732 0
M  V30 45141 H 4452.7 1.3723 0.797104 0
M  V30 45142 H 4452.72 1.45215 3.517 0
M  V30 45143 H 4452.23 2.96779 2.50087 0
M  V30 45144 H 4450.33 0.782453 3.64292 0
M  V30 45145 H 4450.45 2.63188 4.00336 0
M  V30 45146 H 4448.81 1.3173 2.17989 0
M  V30 45147 H 4449.59 2.93881 1.77451 0
M  V30 45148 N 4452.04 -1.17688 1.0482 0
M  V30 45149 C 4453.28 -1.88135 0.757176 0
M  V30 45150 C 4453.62 -1.80607 -0.713777 0
M  V30 45151 O 4452.89 -1.21151 -1.5216 0
M  V30 45152 C 4453.17 -3.38314 1.23352 0
M  V30 45153 C 4453.03 -3.54612 2.76713 0
M  V30 45154 C 4454.35 -4.32211 0.829567 0
M  V30 45155 H 4451.47 -0.683153 0.276534 0
M  V30 45156 H 4454.11 -1.3842 1.30154 0
M  V30 45157 H 4452.26 -3.80784 0.770419 0
M  V30 45158 H 4453.93 -3.21182 3.31119 0
M  V30 45159 H 4452.17 -2.97015 3.16172 0
M  V30 45160 H 4452.84 -4.60017 3.05104 0
M  V30 45161 H 4455.32 -3.97561 1.22819 0
M  V30 45162 H 4454.2 -5.35834 1.19052 0
M  V30 45163 H 4454.46 -4.41295 -0.266736 0
M  V30 45164 N 4453.52 -0.828702 -1.34053 0
M  V30 45165 C 4454.45 -0.269524 -2.31939 0
M  V30 45166 C 4455.43 0.617192 -1.58508 0
M  V30 45167 O 4456.61 0.542865 -1.86458 0
M  V30 45168 C 4453.74 0.564672 -3.42679 0
M  V30 45169 C 4452.7 -0.225391 -4.27406 0
M  V30 45170 C 4452.02 0.731914 -5.29667 0
M  V30 45171 C 4453.32 -1.43681 -5.02149 0
M  V30 45172 H 4455.02 -1.08738 -2.78956 0
M  V30 45173 H 4452.56 -0.52433 -1.34115 0
M  V30 45174 H 4454.51 0.966089 -4.10176 0
M  V30 45175 H 4453.24 1.41564 -2.94325 0
M  V30 45176 H 4451.9 -0.608244 -3.61519 0
M  V30 45177 H 4451.55 1.579 -4.77574 0
M  V30 45178 H 4451.25 0.207463 -5.87234 0
M  V30 45179 H 4452.77 1.13106 -6.00033 0
M  V30 45180 H 4454.18 -1.1091 -5.6247 0
M  V30 45181 H 4452.58 -1.89731 -5.69317 0
M  V30 45182 H 4453.65 -2.21197 -4.31509 0
M  V30 45183 N 4454.99 1.46373 -0.584193 0
M  V30 45184 C 4455.92 2.33104 0.135955 0
M  V30 45185 C 4456.9 1.45434 0.882204 0
M  V30 45186 O 4458.09 1.74249 0.857372 0
M  V30 45187 C 4455.22 3.27735 1.14922 0
M  V30 45188 C 4454.17 4.24857 0.517713 0
M  V30 45189 C 4453.5 5.09007 1.63755 0
M  V30 45190 C 4454.8 5.19438 -0.546068 0
M  V30 45191 H 4456.49 2.93565 -0.588189 0
M  V30 45192 H 4454.04 1.41165 -0.284308 0
M  V30 45193 H 4455.99 3.87267 1.66139 0
M  V30 45194 H 4454.72 2.65384 1.90366 0
M  V30 45195 H 4453.38 3.6659 0.0266072 0
M  V30 45196 H 4453.02 4.4304 2.38169 0
M  V30 45197 H 4452.72 5.74782 1.22065 0
M  V30 45198 H 4454.25 5.71403 2.15246 0
M  V30 45199 H 4455.66 5.73177 -0.118906 0
M  V30 45200 H 4454.06 5.93562 -0.883379 0
M  V30 45201 H 4455.13 4.6328 -1.43178 0
M  V30 45202 N 4456.47 0.322054 1.54274 0
M  V30 45203 C 4457.42 -0.560127 2.25755 0
M  V30 45204 C 4458.41 -1.1198 1.2711 0
M  V30 45205 O 4459.62 -1.06801 1.44891 0
M  V30 45206 H 4455.99 -0.199278 0.725115 0
M  V30 45207 H 4457.97 0.0650414 2.98329 0
M  V30 45208 C 4456.71 -1.71013 3.02737 0
M  V30 45209 H 4456.04 -1.28872 3.7846 0
M  V30 45210 H 4457.48 -2.30302 3.56002 0
M  V30 45211 C 4455.94 -2.62684 2.10947 0
M  V30 45212 O 4456.47 -3.64358 1.69133 0
M  V30 45213 N 4454.67 -2.30885 1.76467 0
M  V30 45214 H 4454.22 -1.48246 2.10668 0
M  V30 45215 H 4454.18 -2.92483 1.1533 0
M  V30 45216 N 4457.95 -1.5752 0.0501946 0
M  V30 45217 C 4459.2 -1.92652 -0.623806 0
M  V30 45218 C 4459.52 -0.928471 -1.70908 0
M  V30 45219 O 4458.78 0.0593837 -1.9561 0
M  V30 45220 C 4459.08 -3.34471 -1.25951 0
M  V30 45221 C 4458.74 -4.49884 -0.30253 0
M  V30 45222 C 4457.41 -4.81184 -0.0391944 0
M  V30 45223 C 4459.76 -5.20001 0.353388 0
M  V30 45224 C 4457.09 -5.79948 0.887512 0
M  V30 45225 C 4459.44 -6.19756 1.26828 0
M  V30 45226 C 4458.1 -6.49485 1.5403 0
M  V30 45227 H 4457.37 -0.704965 -0.228267 0
M  V30 45228 H 4460.02 -1.91146 0.116465 0
M  V30 45229 H 4458.32 -3.3234 -2.07503 0
M  V30 45230 H 4460.02 -3.58934 -1.78794 0
M  V30 45231 H 4456.61 -4.25459 -0.517959 0
M  V30 45232 H 4460.8 -4.96032 0.163029 0
M  V30 45233 H 4456.05 -6.01318 1.10574 0
M  V30 45234 H 4460.23 -6.73199 1.7826 0
M  V30 45235 H 4457.85 -7.25829 2.26001 0
M  V30 45236 N 4459.43 0.223179 -1.56012 0
M  V30 45237 C 4460.66 0.963349 -1.82765 0
M  V30 45238 C 4461.07 1.78513 -0.626867 0
M  V30 45239 O 4460.41 1.78975 0.413951 0
M  V30 45240 C 4460.47 1.93116 -3.03227 0
M  V30 45241 C 4460.13 1.29405 -4.38296 0
M  V30 45242 C 4461.13 0.684735 -5.15371 0
M  V30 45243 C 4458.82 1.3063 -4.85016 0
M  V30 45244 C 4460.81 0.0961731 -6.37327 0
M  V30 45245 C 4458.5 0.713896 -6.06916 0
M  V30 45246 C 4459.5 0.109883 -6.82912 0
M  V30 45247 O 4459.18 -0.473312 -8.02505 0
M  V30 45248 H 4458.92 0.287989 -0.611587 0
M  V30 45249 H 4461.47 0.244031 -2.03945 0
M  V30 45250 H 4459.7 2.68942 -2.77861 0
M  V30 45251 H 4461.39 2.53674 -3.16866 0
M  V30 45252 H 4462.15 0.667605 -4.80383 0
M  V30 45253 H 4458.03 1.76583 -4.2584 0
M  V30 45254 H 4461.58 -0.375902 -6.96586 0
M  V30 45255 H 4457.47 0.728434 -6.41377 0
M  V30 45256 H 4458.24 -0.367474 -8.17675 0
M  V30 45257 N 4460.91 1.49795 0.489818 0
M  V30 45258 C 4462.13 1.6384 1.27166 0
M  V30 45259 C 4462.56 0.314085 1.85459 0
M  V30 45260 O 4461.91 -0.719745 1.66401 0
M  V30 45261 C 4461.96 2.71806 2.36969 0
M  V30 45262 O 4461.07 2.31756 3.4112 0
M  V30 45263 H 4460.41 0.548011 0.37494 0
M  V30 45264 H 4462.94 1.96055 0.585122 0
M  V30 45265 H 4462.95 2.94315 2.82565 0
M  V30 45266 H 4461.62 3.6793 1.93908 0
M  V30 45267 H 4460.2 2.19621 3.01365 0
M  V30 45268 N 4462.38 -0.741673 1.39057 0
M  V30 45269 C 4463.33 -1.87697 1.37377 0
M  V30 45270 C 4464.33 -1.67426 0.257871 0
M  V30 45271 O 4465.53 -1.74849 0.42755 0
M  V30 45272 H 4461.91 -0.617742 0.428834 0
M  V30 45273 H 4463.88 -1.86231 2.33154 0
M  V30 45274 C 4462.63 -3.25311 1.22753 0
M  V30 45275 H 4461.95 -3.41502 2.07885 0
M  V30 45276 H 4463.39 -4.0496 1.25633 0
M  V30 45277 C 4461.85 -3.36838 -0.0646132 0
M  V30 45278 O 4462.38 -3.88077 -1.03727 0
M  V30 45279 N 4460.58 -2.90329 -0.125442 0
M  V30 45280 H 4460.13 -2.48821 0.666769 0
M  V30 45281 H 4460.09 -2.98422 -0.989534 0
M  V30 45282 N 4463.86 -1.24123 -0.971145 0
M  V30 45283 C 4464.77 -1.04754 -2.09913 0
M  V30 45284 C 4465.79 0.010655 -1.73997 0
M  V30 45285 O 4466.96 -0.186784 -2.00532 0
M  V30 45286 C 4464.03 -0.650948 -3.40534 0
M  V30 45287 C 4463.09 -1.78524 -3.9042 0
M  V30 45288 C 4462.32 -1.40747 -5.14807 0
M  V30 45289 O 4462.55 -0.29577 -5.69633 0
M  V30 45290 O 4461.48 -2.23188 -5.58991 0
M  V30 45291 H 4465.31 -1.99312 -2.29147 0
M  V30 45292 H 4462.89 -1.02911 -1.08303 0
M  V30 45293 H 4464.77 -0.441139 -4.19085 0
M  V30 45294 H 4463.45 0.265535 -3.22609 0
M  V30 45295 H 4462.35 -2.04977 -3.12946 0
M  V30 45296 H 4463.69 -2.68037 -4.12816 0
M  V30 45297 N 4465.34 1.17131 -1.05443 0
M  V30 45298 C 4466.27 2.20778 -0.615617 0
M  V30 45299 C 4467.29 1.59585 0.321945 0
M  V30 45300 O 4468.47 1.78134 0.114282 0
M  V30 45301 C 4465.57 3.38692 0.118819 0
M  V30 45302 C 4464.75 4.29451 -0.830075 0
M  V30 45303 C 4463.81 5.26023 -0.136443 0
M  V30 45304 O 4462.83 5.63949 -0.771348 0
M  V30 45305 N 4464.03 5.69491 1.1252 0
M  V30 45306 H 4466.8 2.59047 -1.50714 0
M  V30 45307 H 4464.36 1.32055 -0.93665 0
M  V30 45308 H 4466.35 4.00331 0.593038 0
M  V30 45309 H 4464.92 2.98999 0.912044 0
M  V30 45310 H 4464.14 3.65206 -1.48386 0
M  V30 45311 H 4465.43 4.86979 -1.47409 0
M  V30 45312 H 4464.83 5.40756 1.66131 0
M  V30 45313 H 4463.39 6.33262 1.54344 0
M  V30 45314 N 4466.82 0.835799 1.33612 0
M  V30 45315 C 4468.07 0.426358 1.97142 0
M  V30 45316 C 4468.38 -1.01906 1.66957 0
M  V30 45317 O 4469.59 -1.53303 2.24077 0
M  V30 45318 C 4468.04 0.711445 3.52798 0
M  V30 45319 C 4467.65 2.17133 3.91864 0
M  V30 45320 C 4469.39 0.368803 4.22895 0
M  V30 45321 C 4467.3 2.40063 5.40485 0
M  V30 45322 H 4466.23 0.155696 0.73775 0
M  V30 45323 H 4468.88 1.02395 1.52274 0
M  V30 45324 H 4467.26 0.0435158 3.95976 0
M  V30 45325 H 4468.44 2.87949 3.59753 0
M  V30 45326 H 4466.75 2.47665 3.3474 0
M  V30 45327 H 4469.35 0.517788 5.32187 0
M  V30 45328 H 4469.69 -0.687934 4.10577 0
M  V30 45329 H 4470.23 0.991837 3.85237 0
M  V30 45330 H 4466.97 3.4429 5.57803 0
M  V30 45331 H 4466.49 1.73805 5.74066 0
M  V30 45332 H 4468.16 2.23063 6.07332 0
M  V30 45333 N 4468.3 -1.46061 0.591947 0
M  V30 45334 C 4469.52 -2.06717 0.0869663 0
M  V30 45335 C 4469.94 -1.4392 -1.22198 0
M  V30 45336 O 4469.3 -0.547759 -1.74086 0
M  V30 45337 C 4469.35 -3.61421 -0.0757454 0
M  V30 45338 O 4469.07 -4.2187 1.1814 0
M  V30 45339 C 4470.57 -4.39027 -0.614005 0
M  V30 45340 H 4467.79 -0.66816 0.0616753 0
M  V30 45341 H 4470.33 -1.87548 0.815241 0
M  V30 45342 H 4468.49 -3.79986 -0.754279 0
M  V30 45343 H 4468.9 -5.14858 1.0011 0
M  V30 45344 H 4470.38 -5.47833 -0.677001 0
M  V30 45345 H 4470.85 -4.07714 -1.63298 0
M  V30 45346 H 4471.46 -4.25289 0.0299637 0
M  V30 45347 N 4469.77 -0.330231 -1.54101 0
M  V30 45348 C 4471.05 0.32494 -1.92882 0
M  V30 45349 C 4471.43 1.69335 -1.26051 0
M  V30 45350 O 4470.78 2.24853 -0.406605 0
M  V30 45351 C 4470.99 0.410512 -3.46577 0
M  V30 45352 C 4472.34 0.667654 -4.19318 0
M  V30 45353 O 4473.36 0.493166 -3.52769 0
M  V30 45354 O 4472.22 1.00472 -5.37185 0
M  V30 45355 H 4469.31 0.186845 -0.805617 0
M  V30 45356 H 4471.86 -0.380434 -1.65381 0
M  V30 45357 H 4470.63 -0.550301 -3.87411 0
M  V30 45358 H 4470.26 1.1632 -3.80204 0
M  V30 45359 N 4471.25 1.57491 -0.0585476 0
M  V30 45360 C 4472.5 1.9298 0.613581 0
M  V30 45361 C 4472.83 0.937521 1.70414 0
M  V30 45362 O 4472.08 -0.0490092 1.95639 0
M  V30 45363 C 4472.38 3.35134 1.24176 0
M  V30 45364 C 4472.05 4.50038 0.278668 0
M  V30 45365 C 4470.71 4.81198 0.0136755 0
M  V30 45366 C 4473.06 5.19806 -0.38096 0
M  V30 45367 C 4470.39 5.7947 -0.918255 0
M  V30 45368 C 4472.74 6.19075 -1.30113 0
M  V30 45369 C 4471.41 6.48659 -1.57472 0
M  V30 45370 H 4470.68 0.706165 0.224525 0
M  V30 45371 H 4473.32 1.91081 -0.1266 0
M  V30 45372 H 4471.63 3.33436 2.05737 0
M  V30 45373 H 4473.32 3.59877 1.76888 0
M  V30 45374 H 4469.91 4.25727 0.495389 0
M  V30 45375 H 4474.1 4.95939 -0.189332 0
M  V30 45376 H 4469.35 6.00723 -1.13762 0
M  V30 45377 H 4473.53 6.72244 -1.81828 0
M  V30 45378 H 4471.16 7.2462 -2.29847 0
M  V30 45379 N 4472.73 -0.214903 1.56128 0
M  V30 45380 C 4473.98 -0.936455 1.79095 0
M  V30 45381 C 4474.3 -1.84604 0.628213 0
M  V30 45382 O 4473.57 -1.92665 -0.354552 0
M  V30 45383 H 4472.15 -0.348777 0.660578 0
M  V30 45384 H 4474.81 -0.225162 1.93595 0
M  V30 45385 H 4473.91 -1.53933 2.71498 0
M  V30 45386 N 4474.21 -1.50053 -0.481867 0
M  V30 45387 C 4475.46 -1.60502 -1.23472 0
M  V30 45388 C 4475.78 -0.300398 -1.92166 0
M  V30 45389 O 4475.04 0.71303 -1.82248 0
M  V30 45390 C 4475.34 -2.72725 -2.30989 0
M  V30 45391 C 4475 -4.13578 -1.79621 0
M  V30 45392 C 4473.67 -4.51906 -1.65332 0
M  V30 45393 C 4476.02 -5.01654 -1.41394 0
M  V30 45394 C 4473.35 -5.76061 -1.11224 0
M  V30 45395 C 4475.7 -6.26346 -0.887318 0
M  V30 45396 C 4474.36 -6.63486 -0.730974 0
M  V30 45397 H 4473.63 -0.587319 -0.451815 0
M  V30 45398 H 4476.28 -1.8395 -0.532403 0
M  V30 45399 H 4474.58 -2.43323 -3.07085 0
M  V30 45400 H 4476.28 -2.78016 -2.88978 0
M  V30 45401 H 4472.87 -3.83336 -1.91707 0
M  V30 45402 H 4477.05 -4.72684 -1.51273 0
M  V30 45403 H 4472.31 -6.0352 -0.978473 0
M  V30 45404 H 4476.48 -6.9396 -0.58241 0
M  V30 45405 H 4474.11 -7.5957 -0.309539 0
M  V30 45406 N 4475.69 0.734288 -1.39449 0
M  V30 45407 C 4476.63 1.84831 -1.38225 0
M  V30 45408 C 4477.6 1.6433 -0.241848 0
M  V30 45409 O 4478.79 1.85727 -0.437068 0
M  V30 45410 C 4475.93 3.22351 -1.23223 0
M  V30 45411 C 4475.04 3.54552 -2.46814 0
M  V30 45412 C 4474.18 4.81478 -2.24394 0
M  V30 45413 C 4473.22 5.06524 -3.43657 0
M  V30 45414 N 4472.35 6.24654 -3.2055 0
M  V30 45415 H 4477.19 1.85211 -2.33454 0
M  V30 45416 H 4474.73 0.904998 -1.15966 0
M  V30 45417 H 4476.69 4.01736 -1.12536 0
M  V30 45418 H 4475.32 3.21247 -0.316234 0
M  V30 45419 H 4474.37 2.69863 -2.68101 0
M  V30 45420 H 4475.68 3.68979 -3.35643 0
M  V30 45421 H 4474.84 5.68844 -2.10953 0
M  V30 45422 H 4473.57 4.69226 -1.32961 0
M  V30 45423 H 4472.58 4.17619 -3.57595 0
M  V30 45424 H 4473.8 5.20661 -4.35992 0
M  V30 45425 H 4471.75 6.13688 -2.31781 0
M  V30 45426 H 4471.67 6.39671 -4.02936 0
M  V30 45427 H 4472.94 7.14857 -3.10804 0
M  V30 45428 N 4477.16 1.24636 0.964549 0
M  V30 45429 C 4478.41 1.08794 1.70792 0
M  V30 45430 C 4478.74 -0.372716 1.90895 0
M  V30 45431 O 4477.99 -1.29162 1.47022 0
M  V30 45432 C 4478.29 1.77641 3.10127 0
M  V30 45433 C 4477.96 3.27568 3.09855 0
M  V30 45434 C 4476.62 3.68471 3.09488 0
M  V30 45435 C 4478.97 4.234 3.03944 0
M  V30 45436 C 4476.3 5.03634 3.00947 0
M  V30 45437 C 4478.65 5.58575 2.96946 0
M  V30 45438 C 4477.32 5.9882 2.94909 0
M  V30 45439 H 4476.59 0.398106 0.624974 0
M  V30 45440 H 4479.23 1.54781 1.12762 0
M  V30 45441 H 4477.54 1.24058 3.71641 0
M  V30 45442 H 4479.24 1.62845 3.66446 0
M  V30 45443 H 4475.83 2.95017 3.10907 0
M  V30 45444 H 4480.01 3.92797 3.03355 0
M  V30 45445 H 4475.27 5.34008 2.97733 0
M  V30 45446 H 4479.44 6.32534 2.91332 0
M  V30 45447 H 4477.07 7.03515 2.88046 0
M  V30 45448 N 4478.64 -1.1657 1.06062 0
M  V30 45449 C 4479.87 -1.9149 0.796629 0
M  V30 45450 C 4480.29 -1.76776 -0.642806 0
M  V30 45451 O 4479.65 -1.09147 -1.44764 0
M  V30 45452 C 4479.7 -3.40288 1.19315 0
M  V30 45453 O 4478.8 -4.11073 0.330538 0
M  V30 45454 H 4478.14 -0.596668 0.291347 0
M  V30 45455 H 4480.67 -1.47703 1.4158 0
M  V30 45456 H 4480.68 -3.91053 1.1637 0
M  V30 45457 H 4479.36 -3.50318 2.24165 0
M  V30 45458 H 4477.94 -3.70512 0.421355 0
M  V30 45459 N 4480.12 -0.842873 -1.33167 0
M  V30 45460 C 4481.35 -0.453468 -2.01562 0
M  V30 45461 C 4481.76 0.951089 -1.63557 0
M  V30 45462 O 4481.1 1.63018 -0.846803 0
M  V30 45463 C 4481.16 -0.499138 -3.56018 0
M  V30 45464 C 4480.83 -1.86051 -4.17413 0
M  V30 45465 C 4481.83 -2.82431 -4.36496 0
M  V30 45466 C 4479.51 -2.15444 -4.5375 0
M  V30 45467 C 4481.5 -4.06364 -4.91067 0
M  V30 45468 C 4479.19 -3.39633 -5.08028 0
M  V30 45469 C 4480.19 -4.34909 -5.26634 0
M  V30 45470 O 4479.88 -5.569 -5.79757 0
M  V30 45471 H 4479.61 -0.177894 -0.652173 0
M  V30 45472 H 4482.16 -1.13814 -1.70984 0
M  V30 45473 H 4480.39 0.242332 -3.8594 0
M  V30 45474 H 4482.08 -0.126995 -4.05701 0
M  V30 45475 H 4482.85 -2.61024 -4.08768 0
M  V30 45476 H 4478.73 -1.42077 -4.3856 0
M  V30 45477 H 4482.27 -4.80739 -5.05505 0
M  V30 45478 H 4478.17 -3.60895 -5.35187 0
M  V30 45479 H 4478.94 -5.58695 -5.98166 0
M  V30 45480 N 4481.6 1.45745 -0.599685 0
M  V30 45481 C 4483.02 1.57423 -0.262696 0
M  V30 45482 C 4483.22 1.59226 1.23488 0
M  V30 45483 O 4482.27 1.51832 2.01751 0
M  V30 45484 C 4483.58 2.86058 -0.926896 0
M  V30 45485 C 4485.13 2.99719 -0.902072 0
M  V30 45486 C 4485.61 4.31113 -1.54613 0
M  V30 45487 N 4487.1 4.37853 -1.51126 0
M  V30 45488 C 4487.83 5.38173 -1.97882 0
M  V30 45489 N 4487.33 6.45074 -2.52689 0
M  V30 45490 N 4489.12 5.29481 -1.88697 0
M  V30 45491 H 4481.27 1.42818 -1.57216 0
M  V30 45492 H 4483.54 0.682327 -0.658129 0
M  V30 45493 H 4483.24 2.90598 -1.98105 0
M  V30 45494 H 4483.12 3.74561 -0.44537 0
M  V30 45495 H 4485.5 2.94751 0.143514 0
M  V30 45496 H 4485.58 2.12647 -1.42179 0
M  V30 45497 H 4485.23 4.3684 -2.59101 0
M  V30 45498 H 4485.16 5.16989 -1.0015 0
M  V30 45499 H 4487.65 3.61206 -1.11081 0
M  V30 45500 H 4487.96 7.17859 -2.8618 0
M  V30 45501 H 4486.31 6.45847 -2.56724 0
M  V30 45502 H 4489.5 4.44872 -1.45625 0
M  V30 45503 H 4489.67 6.07516 -2.2545 0
M  V30 45504 N 4483.08 0.338398 1.53924 0
M  V30 45505 C 4484.33 -0.260662 2.00009 0
M  V30 45506 C 4484.64 -1.52068 1.23023 0
M  V30 45507 O 4485.85 -2.19667 1.59558 0
M  V30 45508 C 4484.3 -0.515024 3.56196 0
M  V30 45509 C 4483.91 0.728801 4.42032 0
M  V30 45510 C 4485.65 -1.07323 4.10709 0
M  V30 45511 C 4483.56 0.445523 5.89719 0
M  V30 45512 H 4482.49 -0.101179 0.747181 0
M  V30 45513 H 4485.14 0.452928 1.77822 0
M  V30 45514 H 4483.52 -1.28918 3.74428 0
M  V30 45515 H 4484.7 1.50367 4.35576 0
M  V30 45516 H 4483.01 1.20827 3.98484 0
M  V30 45517 H 4485.61 -1.30004 5.18655 0
M  V30 45518 H 4485.95 -2.02718 3.63609 0
M  V30 45519 H 4486.49 -0.359894 3.96169 0
M  V30 45520 H 4483.22 1.36905 6.41044 0
M  V30 45521 H 4482.74 -0.291358 5.99092 0
M  V30 45522 H 4484.42 0.0608493 6.46971 0
M  V30 45523 N 4484.56 -1.57458 0.0668989 0
M  V30 45524 C 4485.8 -1.92479 -0.602879 0
M  V30 45525 C 4486.12 -0.948479 -1.71065 0
M  V30 45526 O 4487.32 -1.19133 -2.43966 0
M  V30 45527 C 4485.78 -3.41907 -1.12371 0
M  V30 45528 C 4485.39 -4.47975 -0.0472125 0
M  V30 45529 C 4487.13 -3.85938 -1.76784 0
M  V30 45530 C 4485.04 -5.88531 -0.581815 0
M  V30 45531 H 4483.97 -0.718395 -0.228965 0
M  V30 45532 H 4486.62 -1.82978 0.13834 0
M  V30 45533 H 4485 -3.46466 -1.91774 0
M  V30 45534 H 4486.18 -4.55027 0.727138 0
M  V30 45535 H 4484.49 -4.13382 0.500389 0
M  V30 45536 H 4487.09 -4.88329 -2.17804 0
M  V30 45537 H 4487.43 -3.23038 -2.62587 0
M  V30 45538 H 4487.96 -3.83962 -1.0401 0
M  V30 45539 H 4484.7 -6.55064 0.238951 0
M  V30 45540 H 4484.22 -5.85009 -1.3238 0
M  V30 45541 H 4485.9 -6.38262 -1.05977 0
M  V30 45542 N 4486.03 0.20662 -1.5624 0
M  V30 45543 C 4487.26 0.94941 -1.84394 0
M  V30 45544 C 4487.68 1.76546 -0.649078 0
M  V30 45545 O 4487.04 1.76783 0.402169 0
M  V30 45546 C 4487.09 1.83067 -3.10675 0
M  V30 45547 O 4486.19 2.92799 -2.90417 0
M  V30 45548 H 4485.53 0.268011 -0.607508 0
M  V30 45549 H 4488.06 0.215417 -2.03463 0
M  V30 45550 H 4488.07 2.23758 -3.41169 0
M  V30 45551 H 4486.75 1.23098 -3.97265 0
M  V30 45552 H 4485.33 2.55946 -2.71193 0
M  V30 45553 N 4487.51 1.50306 0.473902 0
M  V30 45554 C 4488.75 1.6279 1.23607 0
M  V30 45555 C 4489.12 0.319853 1.89317 0
M  V30 45556 O 4490.32 0.320106 2.66887 0
M  V30 45557 C 4488.59 2.77358 2.25404 0
M  V30 45558 S 4490.15 3.09959 3.10597 0
M  V30 45559 H 4486.96 0.57391 0.419701 0
M  V30 45560 H 4489.57 1.88078 0.533557 0
M  V30 45561 H 4488.27 3.70885 1.75706 0
M  V30 45562 H 4487.8 2.54148 3.00287 0
M  V30 45563 H 4489.82 2.53568 4.26518 0
M  V30 45564 N 4488.99 -0.726883 1.39836 0
M  V30 45565 C 4490.24 -1.48366 1.3723 0
M  V30 45566 C 4490.56 -1.94979 -0.0284171 0
M  V30 45567 O 4489.83 -1.69559 -0.981153 0
M  V30 45568 H 4488.41 -0.550412 0.50503 0
M  V30 45569 H 4491.07 -0.862407 1.74781 0
M  V30 45570 H 4490.17 -2.3619 2.04011 0
M  V30 45571 N 4490.47 -1.25146 -0.957926 0
M  V30 45572 C 4491.72 -1.09482 -1.69877 0
M  V30 45573 C 4492.04 0.365435 -1.91545 0
M  V30 45574 O 4491.31 1.2598 -1.5002 0
M  V30 45575 H 4489.89 -0.402151 -0.629511 0
M  V30 45576 H 4492.55 -1.57219 -1.15188 0
M  V30 45577 H 4491.64 -1.60056 -2.67934 0
M  V30 45578 N 4491.95 1.16006 -1.06679 0
M  V30 45579 C 4493.19 1.86906 -0.787011 0
M  V30 45580 C 4493.52 1.8172 0.684954 0
M  V30 45581 O 4492.8 1.23557 1.50213 0
M  V30 45582 C 4493.08 3.36309 -1.28719 0
M  V30 45583 C 4492.94 3.50165 -2.8232 0
M  V30 45584 C 4494.25 4.30836 -0.898223 0
M  V30 45585 H 4491.37 0.678667 -0.287367 0
M  V30 45586 H 4494.02 1.36332 -1.32339 0
M  V30 45587 H 4492.17 3.79511 -0.830901 0
M  V30 45588 H 4493.84 3.15874 -3.36186 0
M  V30 45589 H 4492.08 2.91947 -3.20857 0
M  V30 45590 H 4492.75 4.55105 -3.12384 0
M  V30 45591 H 4495.23 3.95557 -1.29128 0
M  V30 45592 H 4494.1 5.33872 -1.27562 0
M  V30 45593 H 4494.36 4.41663 0.196496 0
M  V30 45594 N 4493.42 0.849923 1.32718 0
M  V30 45595 C 4494.67 0.450992 1.97414 0
M  V30 45596 C 4495 -0.992317 1.67282 0
M  V30 45597 O 4494.25 -1.71045 0.950905 0
M  V30 45598 C 4494.55 0.631395 3.51779 0
M  V30 45599 C 4494.22 2.04446 4.01886 0
M  V30 45600 C 4492.88 2.43095 4.15281 0
M  V30 45601 C 4495.23 2.96694 4.28511 0
M  V30 45602 C 4492.56 3.73273 4.52641 0
M  V30 45603 C 4494.91 4.26366 4.67328 0
M  V30 45604 C 4493.58 4.64956 4.78929 0
M  V30 45605 H 4492.85 0.16503 0.722389 0
M  V30 45606 H 4495.49 1.07907 1.58203 0
M  V30 45607 H 4493.8 -0.0799389 3.91718 0
M  V30 45608 H 4495.5 0.30285 3.99855 0
M  V30 45609 H 4492.09 1.73433 3.91943 0
M  V30 45610 H 4496.27 2.68068 4.17676 0
M  V30 45611 H 4491.53 4.02962 4.59817 0
M  V30 45612 H 4495.7 4.97912 4.86884 0
M  V30 45613 H 4493.33 5.65872 5.07634 0
M  V30 45614 N 4494.9 -1.45425 0.607406 0
M  V30 45615 C 4495.85 -2.32269 -0.124029 0
M  V30 45616 C 4496.84 -1.45958 -0.859803 0
M  V30 45617 O 4498.05 -1.62443 -0.77539 0
M  V30 45618 H 4494.43 -0.749693 -0.0588575 0
M  V30 45619 H 4496.4 -2.91741 0.626865 0
M  V30 45620 C 4495.15 -3.2957 -1.10809 0
M  V30 45621 H 4494.47 -3.9598 -0.551353 0
M  V30 45622 H 4495.91 -3.93066 -1.58981 0
M  V30 45623 C 4494.37 -2.56729 -2.18155 0
M  V30 45624 O 4494.9 -2.34854 -3.25894 0
M  V30 45625 N 4493.1 -2.16868 -1.93434 0
M  V30 45626 H 4492.65 -2.34859 -1.05826 0
M  V30 45627 H 4492.61 -1.68454 -2.65463 0
M  V30 45628 N 4496.38 -0.346557 -1.53742 0
M  V30 45629 C 4497.63 0.249034 -2.00963 0
M  V30 45630 C 4497.96 1.50316 -1.23432 0
M  V30 45631 O 4497.21 1.93216 -0.310829 0
M  V30 45632 C 4497.51 0.605685 -3.5223 0
M  V30 45633 C 4497.18 -0.551904 -4.4751 0
M  V30 45634 C 4495.84 -0.869576 -4.73278 0
M  V30 45635 C 4498.19 -1.32836 -5.03988 0
M  V30 45636 C 4495.52 -1.96601 -5.52779 0
M  V30 45637 C 4497.87 -2.41506 -5.84686 0
M  V30 45638 C 4496.53 -2.7383 -6.08748 0
M  V30 45639 H 4495.8 0.0911279 -0.735375 0
M  V30 45640 H 4498.45 -0.475093 -1.85513 0
M  V30 45641 H 4496.76 1.41057 -3.65527 0
M  V30 45642 H 4498.45 1.07845 -3.86226 0
M  V30 45643 H 4495.04 -0.294252 -4.27589 0
M  V30 45644 H 4499.23 -1.09619 -4.84043 0
M  V30 45645 H 4494.48 -2.22065 -5.69646 0
M  V30 45646 H 4498.66 -3.021 -6.27462 0
M  V30 45647 H 4496.28 -3.58915 -6.70137 0
M  V30 45648 N 4497.86 1.5742 -0.0752483 0
M  V30 45649 C 4499.08 1.98366 0.605446 0
M  V30 45650 C 4499.51 0.95344 1.62145 0
M  V30 45651 O 4498.87 -0.0805416 1.81121 0
M  V30 45652 C 4498.91 3.38336 1.24744 0
M  V30 45653 O 4498.02 3.37967 2.3633 0
M  V30 45654 H 4497.36 0.645558 0.155405 0
M  V30 45655 H 4499.89 2.04044 -0.150785 0
M  V30 45656 H 4499.9 3.75596 1.59347 0
M  V30 45657 H 4498.57 4.12847 0.502984 0
M  V30 45658 H 4497.15 3.12481 2.03495 0
M  V30 45659 N 4499.34 -0.198331 1.56347 0
M  V30 45660 C 4500.56 -0.939617 1.84894 0
M  V30 45661 C 4500.99 -1.762 0.658431 0
M  V30 45662 O 4500.34 -1.76994 -0.392788 0
M  V30 45663 C 4500.39 -1.81417 3.11641 0
M  V30 45664 O 4499.5 -2.91255 2.91966 0
M  V30 45665 H 4498.84 -0.264786 0.608921 0
M  V30 45666 H 4501.37 -0.204624 2.03574 0
M  V30 45667 H 4501.38 -2.21946 3.42351 0
M  V30 45668 H 4500.05 -1.2099 3.97912 0
M  V30 45669 H 4498.63 -2.54505 2.72547 0
M  V30 45670 N 4500.81 -1.50555 -0.465925 0
M  V30 45671 C 4502.06 -1.61483 -1.21522 0
M  V30 45672 C 4502.38 -0.319664 -1.92362 0
M  V30 45673 O 4501.65 0.663129 -1.84335 0
M  V30 45674 H 4500.23 -0.595071 -0.451552 0
M  V30 45675 H 4502.9 -1.87357 -0.536974 0
M  V30 45676 H 4501.99 -2.42853 -1.96033 0
M  V30 45677 N 4502.29 0.719457 -1.4022 0
M  V30 45678 C 4503.54 1.47481 -1.37594 0
M  V30 45679 C 4503.85 1.9559 0.020088 0
M  V30 45680 O 4505.06 2.70974 0.168954 0
M  V30 45681 C 4503.52 2.66567 -2.41806 0
M  V30 45682 C 4503.12 2.25344 -3.872 0
M  V30 45683 C 4504.87 3.44321 -2.48281 0
M  V30 45684 C 4502.78 3.41245 -4.83017 0
M  V30 45685 H 4501.71 0.553883 -0.511595 0
M  V30 45686 H 4504.36 0.783369 -1.65938 0
M  V30 45687 H 4502.74 3.37862 -2.06555 0
M  V30 45688 H 4503.91 1.61494 -4.31574 0
M  V30 45689 H 4502.23 1.60644 -3.84165 0
M  V30 45690 H 4504.82 4.30557 -3.17056 0
M  V30 45691 H 4505.17 3.87867 -1.51212 0
M  V30 45692 H 4505.7 2.80066 -2.82503 0
M  V30 45693 H 4502.44 3.02735 -5.81405 0
M  V30 45694 H 4501.96 4.04024 -4.43311 0
M  V30 45695 H 4503.64 4.07365 -5.02655 0
M  V30 45696 N 4503.77 1.25652 0.951275 0
M  V30 45697 C 4505.02 1.09994 1.69069 0
M  V30 45698 C 4505.33 -0.358288 1.92291 0
M  V30 45699 O 4506.54 -0.635373 2.63961 0
M  V30 45700 C 4504.99 1.92023 3.04393 0
M  V30 45701 C 4504.6 3.42358 2.88955 0
M  V30 45702 C 4506.35 1.84943 3.82095 0
M  V30 45703 C 4504.25 4.1667 4.19691 0
M  V30 45704 H 4503.18 0.408016 0.634066 0
M  V30 45705 H 4505.83 1.49877 1.05873 0
M  V30 45706 H 4504.22 1.44965 3.68512 0
M  V30 45707 H 4505.39 3.97112 2.33748 0
M  V30 45708 H 4503.71 3.50565 2.24706 0
M  V30 45709 H 4506.3 2.37756 4.78932 0
M  V30 45710 H 4506.65 0.818026 4.08184 0
M  V30 45711 H 4507.18 2.29769 3.24732 0
M  V30 45712 H 4503.92 5.20238 3.98789 0
M  V30 45713 H 4503.44 3.66698 4.7465 0
M  V30 45714 H 4505.12 4.24568 4.88212 0
M  V30 45715 N 4505.25 -1.15438 1.07293 0
M  V30 45716 C 4506.48 -1.90094 0.816827 0
M  V30 45717 C 4506.89 -1.77982 -0.629904 0
M  V30 45718 O 4506.25 -1.13135 -1.43202 0
M  V30 45719 C 4506.3 -3.40462 1.21524 0
M  V30 45720 O 4506.02 -3.52222 2.6052 0
M  V30 45721 C 4507.52 -4.32142 0.98835 0
M  V30 45722 H 4504.74 -0.602484 0.295387 0
M  V30 45723 H 4507.29 -1.46265 1.42923 0
M  V30 45724 H 4505.44 -3.81956 0.647173 0
M  V30 45725 H 4505.85 -4.4554 2.76757 0
M  V30 45726 H 4507.33 -5.36068 1.31664 0
M  V30 45727 H 4507.81 -4.39135 -0.0753519 0
M  V30 45728 H 4508.41 -3.96389 1.54129 0
M  V30 45729 N 4506.73 -0.85695 -1.32265 0
M  V30 45730 C 4507.95 -0.47464 -2.01896 0
M  V30 45731 C 4508.38 0.921709 -1.6397 0
M  V30 45732 O 4507.73 1.60586 -0.841537 0
M  V30 45733 C 4507.78 -0.623923 -3.55161 0
M  V30 45734 O 4506.89 0.342315 -4.10977 0
M  V30 45735 H 4506.23 -0.190444 -0.636103 0
M  V30 45736 H 4508.76 -1.15678 -1.6876 0
M  V30 45737 H 4508.77 -0.512311 -4.04771 0
M  V30 45738 H 4507.44 -1.64216 -3.82107 0
M  V30 45739 H 4506.02 0.186749 -3.72432 0
M  V30 45740 N 4508.2 1.45101 -0.61511 0
M  V30 45741 C 4509.62 1.85653 -0.197448 0
M  V30 45742 C 4509.97 1.51438 1.24744 0
M  V30 45743 O 4509.09 0.944677 1.94692 0
M  V30 45744 C 4509.69 3.36971 -0.351566 0
M  V30 45745 C 4508.25 3.76398 0.0114607 0
M  V30 45746 C 4507.39 2.69022 -0.672488 0
M  V30 45747 H 4510.34 1.35795 -0.821311 0
M  V30 45748 H 4510.36 3.7824 0.414094 0
M  V30 45749 H 4509.88 3.61843 -1.40327 0
M  V30 45750 H 4507.98 3.57143 1.06205 0
M  V30 45751 H 4508.09 4.77531 -0.387433 0
M  V30 45752 H 4506.45 2.54465 -0.109373 0
M  V30 45753 H 4507.24 2.96729 -1.72647 0
M  V30 45754 N 4509.68 0.354705 1.53557 0
M  V30 45755 C 4510.65 -0.484487 2.24021 0
M  V30 45756 C 4511.65 -1.01857 1.24426 0
M  V30 45757 O 4512.84 -0.906045 1.48783 0
M  V30 45758 C 4509.97 -1.67605 2.96852 0
M  V30 45759 H 4511.16 0.131948 2.9961 0
M  V30 45760 H 4508.71 0.10622 1.55939 0
M  V30 45761 H 4509.45 -2.33087 2.25479 0
M  V30 45762 H 4509.23 -1.30016 3.69916 0
M  V30 45763 H 4510.72 -2.27101 3.50449 0
M  V30 45764 N 4511.16 -1.57378 0.0835957 0
M  V30 45765 C 4512.39 -1.97977 -0.590643 0
M  V30 45766 C 4512.8 -0.961141 -1.62968 0
M  V30 45767 O 4512.14 0.0590234 -1.83605 0
M  V30 45768 C 4512.2 -3.3492 -1.30648 0
M  V30 45769 C 4511.87 -4.5507 -0.419538 0
M  V30 45770 C 4512.87 -5.18866 0.327672 0
M  V30 45771 C 4510.55 -5.01141 -0.340961 0
M  V30 45772 C 4512.54 -6.27094 1.14156 0
M  V30 45773 C 4510.23 -6.09239 0.476588 0
M  V30 45774 C 4511.23 -6.72079 1.21651 0
M  V30 45775 O 4510.92 -7.78093 2.02055 0
M  V30 45776 H 4510.65 -0.655824 -0.163924 0
M  V30 45777 H 4513.2 -2.04806 0.156093 0
M  V30 45778 H 4511.43 -3.2474 -2.09954 0
M  V30 45779 H 4513.12 -3.60044 -1.87412 0
M  V30 45780 H 4513.89 -4.8421 0.276629 0
M  V30 45781 H 4509.77 -4.51999 -0.906521 0
M  V30 45782 H 4513.31 -6.76074 1.71959 0
M  V30 45783 H 4509.21 -6.43327 0.529153 0
M  V30 45784 H 4509.98 -7.95027 1.94614 0
M  V30 45785 N 4512.64 0.190037 -1.5645 0
M  V30 45786 C 4513.86 0.929799 -1.8539 0
M  V30 45787 C 4514.29 1.75848 -0.667766 0
M  V30 45788 O 4513.65 1.772 0.383396 0
M  V30 45789 C 4513.7 1.79762 -3.12599 0
M  V30 45790 O 4512.8 2.89703 -2.93507 0
M  V30 45791 H 4512.14 0.261553 -0.610316 0
M  V30 45792 H 4514.67 0.193825 -2.0368 0
M  V30 45793 H 4514.68 2.20127 -3.43523 0
M  V30 45794 H 4513.36 1.18878 -3.98548 0
M  V30 45795 H 4511.93 2.53056 -2.73893 0
M  V30 45796 N 4514.12 1.508 0.457934 0
M  V30 45797 C 4515.35 1.65982 1.23019 0
M  V30 45798 C 4515.76 0.347984 1.85972 0
M  V30 45799 O 4515.1 -0.68142 1.70594 0
M  V30 45800 C 4515.16 2.70317 2.37 0
M  V30 45801 C 4514.82 4.13507 1.9458 0
M  V30 45802 C 4515.82 4.98954 1.46084 0
M  V30 45803 C 4513.51 4.59497 2.02899 0
M  V30 45804 C 4515.5 6.28445 1.06467 0
M  V30 45805 C 4513.19 5.8899 1.62893 0
M  V30 45806 C 4514.19 6.7329 1.14757 0
M  V30 45807 O 4513.87 8.00365 0.753109 0
M  V30 45808 H 4513.61 0.560653 0.377682 0
M  V30 45809 H 4516.16 1.97859 0.551467 0
M  V30 45810 H 4514.39 2.3371 3.08085 0
M  V30 45811 H 4516.08 2.74585 2.98928 0
M  V30 45812 H 4516.84 4.64634 1.39068 0
M  V30 45813 H 4512.72 3.94018 2.39314 0
M  V30 45814 H 4516.27 6.94197 0.688243 0
M  V30 45815 H 4512.16 6.22828 1.69573 0
M  V30 45816 H 4512.93 8.13747 0.880794 0
M  V30 45817 N 4515.6 -0.71201 1.40599 0
M  V30 45818 C 4516.56 -1.8078 1.40894 0
M  V30 45819 C 4517.56 -1.57936 0.302158 0
M  V30 45820 O 4518.75 -1.64911 0.56124 0
M  V30 45821 C 4515.88 -3.18923 1.2042 0
M  V30 45822 H 4517.07 -1.81916 2.38425 0
M  V30 45823 H 4514.63 -0.918006 1.265 0
M  V30 45824 H 4515.36 -3.23436 0.236636 0
M  V30 45825 H 4515.15 -3.36904 2.00594 0
M  V30 45826 H 4516.64 -3.98944 1.23422 0
M  V30 45827 N 4517.07 -1.26155 -0.944598 0
M  V30 45828 C 4518.35 -1.02253 -1.66745 0
M  V30 45829 C 4518.73 0.448129 -2.06289 0
M  V30 45830 O 4518.08 1.42773 -1.78404 0
M  V30 45831 C 4518.29 -1.96798 -2.88221 0
M  V30 45832 C 4519.64 -2.25214 -3.5995 0
M  V30 45833 O 4520.66 -1.94637 -2.9832 0
M  V30 45834 O 4519.52 -2.77259 -4.70946 0
M  V30 45835 H 4516.61 -0.388543 -0.730043 0
M  V30 45836 H 4519.16 -1.37351 -0.996632 0
M  V30 45837 H 4517.93 -2.96055 -2.55865 0
M  V30 45838 H 4517.55 -1.62158 -3.6303 0
M  V30 45839 N 4518.55 1.14868 -1.07903 0
M  V30 45840 C 4519.78 1.89383 -0.825697 0
M  V30 45841 C 4520.19 1.78567 0.625343 0
M  V30 45842 O 4519.53 1.13923 1.44109 0
M  V30 45843 C 4519.59 3.40202 -1.16203 0
M  V30 45844 C 4519.26 3.74803 -2.6148 0
M  V30 45845 C 4520.26 3.75354 -3.59729 0
M  V30 45846 C 4517.94 4.04939 -2.97203 0
M  V30 45847 C 4519.93 4.05557 -4.91734 0
M  V30 45848 C 4517.62 4.34806 -4.29403 0
M  V30 45849 C 4518.62 4.35097 -5.26478 0
M  V30 45850 O 4518.31 4.64244 -6.56302 0
M  V30 45851 H 4518.04 0.606884 -0.297772 0
M  V30 45852 H 4520.59 1.46433 -1.44036 0
M  V30 45853 H 4518.82 3.83579 -0.490349 0
M  V30 45854 H 4520.51 3.96015 -0.890332 0
M  V30 45855 H 4521.28 3.52164 -3.33474 0
M  V30 45856 H 4517.16 4.03868 -2.22287 0
M  V30 45857 H 4520.7 4.05699 -5.67498 0
M  V30 45858 H 4516.6 4.57464 -4.55408 0
M  V30 45859 H 4517.37 4.81984 -6.61539 0
M  V30 45860 N 4520.03 0.863952 1.31809 0
M  V30 45861 C 4521.44 0.525283 1.79158 0
M  V30 45862 C 4521.79 -0.957458 1.71252 0
M  V30 45863 O 4520.92 -1.7473 1.27665 0
M  V30 45864 C 4521.51 0.946714 3.25304 0
M  V30 45865 C 4520.07 0.659798 3.70572 0
M  V30 45866 C 4519.22 1.14135 2.52722 0
M  V30 45867 H 4522.17 1.05026 1.18976 0
M  V30 45868 H 4522.19 0.2669 3.79563 0
M  V30 45869 H 4521.7 2.02591 3.31027 0
M  V30 45870 H 4519.8 -0.408285 3.70356 0
M  V30 45871 H 4519.92 1.23261 4.62973 0
M  V30 45872 H 4518.28 0.561303 2.48438 0
M  V30 45873 H 4519.06 2.22784 2.61194 0
M  V30 45874 N 4521.51 -1.44772 0.622796 0
M  V30 45875 C 4522.46 -2.32388 -0.0993866 0
M  V30 45876 C 4523.45 -1.46862 -0.844274 0
M  V30 45877 O 4524.66 -1.63256 -0.758117 0
M  V30 45878 H 4521.03 -0.750275 -0.0509027 0
M  V30 45879 H 4523 -2.9106 0.657772 0
M  V30 45880 C 4521.75 -3.30727 -1.07307 0
M  V30 45881 H 4521.07 -3.96542 -0.509323 0
M  V30 45882 H 4522.51 -3.9473 -1.54803 0
M  V30 45883 C 4520.97 -2.59029 -2.1542 0
M  V30 45884 O 4521.5 -2.38297 -3.23384 0
M  V30 45885 N 4519.71 -2.18907 -1.91123 0
M  V30 45886 H 4519.26 -2.35968 -1.03329 0
M  V30 45887 H 4519.21 -1.7126 -2.63662 0
M  V30 45888 N 4522.99 -0.362844 -1.53366 0
M  V30 45889 C 4524.26 0.283953 -1.93528 0
M  V30 45890 C 4524.64 1.66623 -1.29614 0
M  V30 45891 O 4523.99 2.2394 -0.454208 0
M  V30 45892 C 4524.2 0.336906 -3.4737 0
M  V30 45893 C 4525.55 0.57856 -4.2064 0
M  V30 45894 O 4526.57 0.418228 -3.53736 0
M  V30 45895 O 4525.43 0.890551 -5.39195 0
M  V30 45896 H 4522.53 0.169714 -0.809399 0
M  V30 45897 H 4525.07 -0.415428 -1.64537 0
M  V30 45898 H 4523.84 -0.632352 -3.86157 0
M  V30 45899 H 4523.47 1.08229 -3.82586 0
M  V30 45900 N 4524.46 1.57332 -0.0919406 0
M  V30 45901 C 4525.4 2.09502 0.904662 0
M  V30 45902 C 4526.38 1.00483 1.27835 0
M  V30 45903 O 4527.56 1.27959 1.38415 0
M  V30 45904 C 4524.69 2.56939 2.20681 0
M  V30 45905 C 4523.73 3.77586 1.9832 0
M  V30 45906 S 4524.57 5.21321 1.2241 0
M  V30 45907 C 4525.72 5.72106 2.53861 0
M  V30 45908 H 4525.95 2.93707 0.460819 0
M  V30 45909 H 4523.49 1.53923 0.121278 0
M  V30 45910 H 4525.45 2.84928 2.95511 0
M  V30 45911 H 4524.11 1.72966 2.62186 0
M  V30 45912 H 4523.3 4.08835 2.94737 0
M  V30 45913 H 4522.9 3.50074 1.31621 0
M  V30 45914 H 4525.19 5.8018 3.49854 0
M  V30 45915 H 4526.14 6.70662 2.27195 0
M  V30 45916 H 4526.54 5.00022 2.6199 0
M  V30 45917 N 4525.94 -0.181737 1.56549 0
M  V30 45918 C 4526.89 -1.22954 1.92006 0
M  V30 45919 C 4527.88 -1.40328 0.787195 0
M  V30 45920 O 4529.07 -1.42474 1.05024 0
M  V30 45921 C 4526.2 -2.57136 2.27455 0
M  V30 45922 C 4525.28 -2.43499 3.4723 0
M  V30 45923 N 4525.67 -1.99561 4.64768 0
M  V30 45924 C 4523.97 -2.74356 3.51632 0
M  V30 45925 C 4524.67 -1.98137 5.46916 0
M  V30 45926 N 4523.65 -2.40147 4.87679 0
M  V30 45927 H 4527.45 -0.881363 2.80373 0
M  V30 45928 H 4524.97 -0.390086 1.57645 0
M  V30 45929 H 4526.96 -3.32838 2.51047 0
M  V30 45930 H 4525.62 -2.92766 1.40421 0
M  V30 45931 H 4526.63 -1.7006 4.89183 0
M  V30 45932 H 4523.31 -3.14092 2.75049 0
M  V30 45933 H 4524.7 -1.65952 6.51083 0
M  V30 45934 N 4527.42 -1.51041 -0.44993 0
M  V30 45935 C 4528.66 -1.64736 -1.21001 0
M  V30 45936 C 4529.02 -0.349931 -1.88784 0
M  V30 45937 O 4530.23 -0.362525 -2.66344 0
M  V30 45938 C 4528.5 -2.80909 -2.20963 0
M  V30 45939 S 4530.06 -3.14861 -3.05627 0
M  V30 45940 H 4526.87 -0.580514 -0.410517 0
M  V30 45941 H 4529.48 -1.88903 -0.503568 0
M  V30 45942 H 4528.18 -3.73633 -1.69783 0
M  V30 45943 H 4527.71 -2.58893 -2.96206 0
M  V30 45944 H 4529.73 -2.60321 -4.2243 0
M  V30 45945 N 4528.9 0.704544 -1.40975 0
M  V30 45946 C 4529.83 1.83119 -1.44879 0
M  V30 45947 C 4530.81 1.6728 -0.308438 0
M  V30 45948 O 4531.99 1.87147 -0.518622 0
M  V30 45949 C 4529.12 3.21176 -1.32147 0
M  V30 45950 C 4528.08 3.51705 -2.439 0
M  V30 45951 C 4527.4 4.89024 -2.16239 0
M  V30 45952 C 4528.7 3.51586 -3.86244 0
M  V30 45953 H 4530.4 1.80109 -2.39168 0
M  V30 45954 H 4527.94 0.865104 -1.15117 0
M  V30 45955 H 4529.9 3.99697 -1.33493 0
M  V30 45956 H 4528.62 3.2479 -0.343393 0
M  V30 45957 H 4527.28 2.75531 -2.41823 0
M  V30 45958 H 4526.93 4.89252 -1.16795 0
M  V30 45959 H 4526.63 5.10416 -2.91118 0
M  V30 45960 H 4528.15 5.69865 -2.19285 0
M  V30 45961 H 4529.57 4.20127 -3.90085 0
M  V30 45962 H 4527.96 3.84507 -4.60732 0
M  V30 45963 H 4529.03 2.50742 -4.15038 0
M  V30 45964 N 4530.38 1.26654 0.937895 0
M  V30 45965 C 4531.61 1.15012 1.71627 0
M  V30 45966 C 4532.01 -0.29696 1.86855 0
M  V30 45967 O 4531.36 -1.21489 1.3779 0
M  V30 45968 C 4531.42 1.74995 3.14033 0
M  V30 45969 C 4531.08 3.24114 3.22179 0
M  V30 45970 C 4532.08 4.20887 3.05205 0
M  V30 45971 C 4529.77 3.64637 3.45464 0
M  V30 45972 C 4531.76 5.56162 3.11389 0
M  V30 45973 C 4529.45 5.00044 3.51282 0
M  V30 45974 C 4530.44 5.95616 3.34261 0
M  V30 45975 O 4530.13 7.28557 3.39795 0
M  V30 45976 H 4529.86 0.401202 0.544071 0
M  V30 45977 H 4532.42 1.67836 1.18407 0
M  V30 45978 H 4530.65 1.16637 3.68691 0
M  V30 45979 H 4532.34 1.58212 3.73797 0
M  V30 45980 H 4533.1 3.90919 2.87067 0
M  V30 45981 H 4528.98 2.9073 3.57766 0
M  V30 45982 H 4532.53 6.30737 2.98021 0
M  V30 45983 H 4528.42 5.29672 3.68941 0
M  V30 45984 H 4529.19 7.36872 3.56317 0
M  V30 45985 N 4531.85 -1.14294 1.08511 0
M  V30 45986 C 4533.08 -1.89216 0.836943 0
M  V30 45987 C 4533.5 -1.7864 -0.610991 0
M  V30 45988 O 4532.85 -1.14648 -1.41994 0
M  V30 45989 C 4532.91 -3.39154 1.25128 0
M  V30 45990 O 4532.63 -3.4944 2.64242 0
M  V30 45991 C 4534.13 -4.31069 1.03413 0
M  V30 45992 H 4531.35 -0.599318 0.30176 0
M  V30 45993 H 4533.89 -1.44741 1.44466 0
M  V30 45994 H 4532.05 -3.81248 0.687648 0
M  V30 45995 H 4532.46 -4.42579 2.81467 0
M  V30 45996 H 4533.93 -5.34641 1.37342 0
M  V30 45997 H 4534.41 -4.39191 -0.0287715 0
M  V30 45998 H 4535.02 -3.94732 1.58325 0
M  V30 45999 N 4533.33 -0.87093 -1.31349 0
M  V30 46000 C 4534.58 -0.478477 -1.95943 0
M  V30 46001 C 4534.89 0.974433 -1.696 0
M  V30 46002 O 4536.1 1.47308 -2.28063 0
M  V30 46003 C 4534.56 -0.804733 -3.50788 0
M  V30 46004 C 4534.16 -2.27447 -3.85969 0
M  V30 46005 C 4535.91 -0.480796 -4.21768 0
M  V30 46006 C 4533.82 -2.54309 -5.3393 0
M  V30 46007 H 4532.75 -0.175201 -0.733363 0
M  V30 46008 H 4535.4 -1.06397 -1.49506 0
M  V30 46009 H 4533.78 -0.148487 -3.95722 0
M  V30 46010 H 4534.95 -2.97386 -3.51992 0
M  V30 46011 H 4533.27 -2.56453 -3.28056 0
M  V30 46012 H 4535.86 -0.658706 -5.30627 0
M  V30 46013 H 4536.21 0.578835 -4.12256 0
M  V30 46014 H 4536.74 -1.09363 -3.82472 0
M  V30 46015 H 4533.48 -3.58958 -5.48479 0
M  V30 46016 H 4533 -1.88965 -5.69256 0
M  V30 46017 H 4534.68 -2.39087 -6.01204 0
M  V30 46018 N 4534.81 1.4444 -0.630465 0
M  V30 46019 C 4536.04 2.06414 -0.141743 0
M  V30 46020 C 4536.45 1.47109 1.1834 0
M  V30 46021 O 4535.81 0.593723 1.72572 0
M  V30 46022 C 4535.86 3.61494 -0.0201055 0
M  V30 46023 O 4535.58 4.1859 -1.29284 0
M  V30 46024 C 4537.08 4.40501 0.497389 0
M  V30 46025 H 4534.3 0.666289 -0.0793687 0
M  V30 46026 H 4536.85 1.8532 -0.864679 0
M  V30 46027 H 4535 3.81852 0.653268 0
M  V30 46028 H 4535.42 5.12022 -1.13725 0
M  V30 46029 H 4536.89 5.49435 0.531515 0
M  V30 46030 H 4537.37 4.119 1.5243 0
M  V30 46031 H 4537.97 4.2506 -0.142711 0
M  V30 46032 N 4536.29 0.370972 1.53172 0
M  V30 46033 C 4537.53 -0.217352 2.01632 0
M  V30 46034 C 4537.87 -1.47979 1.25762 0
M  V30 46035 O 4537.14 -1.91273 0.352832 0
M  V30 46036 C 4537.43 -0.503857 3.56558 0
M  V30 46037 C 4537.28 0.772586 4.43115 0
M  V30 46038 C 4538.6 -1.30219 4.20394 0
M  V30 46039 H 4535.72 -0.0775228 0.732911 0
M  V30 46040 H 4538.36 0.496927 1.83387 0
M  V30 46041 H 4536.51 -1.11235 3.72235 0
M  V30 46042 H 4538.18 1.40995 4.39224 0
M  V30 46043 H 4536.42 1.39181 4.10866 0
M  V30 46044 H 4537.09 0.527008 5.49479 0
M  V30 46045 H 4539.57 -0.787403 4.08582 0
M  V30 46046 H 4538.45 -1.4714 5.28811 0
M  V30 46047 H 4538.71 -2.31224 3.76813 0
M  V30 46048 N 4537.77 -1.57281 0.100283 0
M  V30 46049 C 4538.99 -1.99304 -0.573811 0
M  V30 46050 C 4539.42 -0.979116 -1.60608 0
M  V30 46051 O 4538.77 0.0517166 -1.81226 0
M  V30 46052 C 4538.82 -3.40278 -1.19346 0
M  V30 46053 O 4537.93 -3.41684 -2.30923 0
M  V30 46054 H 4537.27 -0.647949 -0.145115 0
M  V30 46055 H 4539.8 -2.03778 0.183228 0
M  V30 46056 H 4539.81 -3.78084 -1.53351 0
M  V30 46057 H 4538.48 -4.13595 -0.43724 0
M  V30 46058 H 4537.06 -3.15679 -1.98498 0
M  V30 46059 N 4539.25 0.173432 -1.56643 0
M  V30 46060 C 4540.52 0.917556 -1.72743 0
M  V30 46061 C 4540.9 2.00481 -0.661098 0
M  V30 46062 O 4540.25 2.26185 0.32445 0
M  V30 46063 C 4540.46 1.48422 -3.15867 0
M  V30 46064 C 4541.81 1.95796 -3.76761 0
M  V30 46065 O 4542.83 1.5822 -3.19131 0
M  V30 46066 O 4541.69 2.65008 -4.77947 0
M  V30 46067 H 4538.79 0.431747 -0.705353 0
M  V30 46068 H 4541.33 0.161428 -1.6893 0
M  V30 46069 H 4540.1 0.701579 -3.84959 0
M  V30 46070 H 4539.73 2.30459 -3.23997 0
M  V30 46071 N 4540.72 1.51278 0.441914 0
M  V30 46072 C 4542 1.54257 1.20267 0
M  V30 46073 C 4542.38 0.304153 2.08897 0
M  V30 46074 O 4541.73 -0.711008 2.17156 0
M  V30 46075 C 4541.94 2.85413 2.00849 0
M  V30 46076 C 4543.29 3.3719 2.58047 0
M  V30 46077 O 4544.31 2.86933 2.11064 0
M  V30 46078 O 4543.17 4.2487 3.43726 0
M  V30 46079 H 4540.26 0.619988 0.547306 0
M  V30 46080 H 4542.81 1.63587 0.451356 0
M  V30 46081 H 4541.58 3.67008 1.35723 0
M  V30 46082 H 4541.2 2.79223 2.83055 0
M  V30 46083 N 4542.2 -0.697058 1.41347 0
M  V30 46084 C 4543.15 -1.81101 1.43077 0
M  V30 46085 C 4544.12 -1.63631 0.285332 0
M  V30 46086 O 4545.3 -1.84502 0.486156 0
M  V30 46087 C 4542.44 -3.18971 1.31726 0
M  V30 46088 C 4541.56 -3.47883 2.56127 0
M  V30 46089 C 4540.69 -4.75359 2.37081 0
M  V30 46090 C 4539.73 -4.97234 3.56965 0
M  V30 46091 N 4538.87 -6.15935 3.36999 0
M  V30 46092 H 4543.71 -1.78956 2.38283 0
M  V30 46093 H 4541.24 -0.873933 1.18325 0
M  V30 46094 H 4543.2 -3.98611 1.23147 0
M  V30 46095 H 4541.83 -3.20296 0.401296 0
M  V30 46096 H 4540.88 -2.6266 2.75162 0
M  V30 46097 H 4542.2 -3.5995 3.45308 0
M  V30 46098 H 4541.35 -5.63051 2.25961 0
M  V30 46099 H 4540.09 -4.65536 1.45355 0
M  V30 46100 H 4539.09 -4.07991 3.68542 0
M  V30 46101 H 4540.32 -5.08918 4.49643 0
M  V30 46102 H 4538.27 -6.07327 2.47971 0
M  V30 46103 H 4538.18 -6.28763 4.19754 0
M  V30 46104 H 4539.45 -7.06366 3.29648 0
M  V30 46105 N 4543.68 -1.2715 -0.931165 0
M  V30 46106 C 4544.93 -1.13452 -1.68097 0
M  V30 46107 C 4545.26 0.31956 -1.91553 0
M  V30 46108 O 4544.53 1.23402 -1.50341 0
M  V30 46109 C 4544.82 -1.91492 -3.04963 0
M  V30 46110 C 4544.67 -3.44865 -2.8877 0
M  V30 46111 C 4545.99 -1.71665 -4.0524 0
M  V30 46112 H 4543.11 -0.41352 -0.610058 0
M  V30 46113 H 4545.75 -1.56265 -1.0808 0
M  V30 46114 H 4543.9 -1.55108 -3.56194 0
M  V30 46115 H 4545.57 -3.91059 -2.44684 0
M  V30 46116 H 4543.81 -3.71381 -2.24185 0
M  V30 46117 H 4544.49 -3.94708 -3.85888 0
M  V30 46118 H 4546.96 -2.03383 -3.63008 0
M  V30 46119 H 4545.84 -2.28669 -4.99001 0
M  V30 46120 H 4546.1 -0.663708 -4.3709 0
M  V30 46121 N 4545.16 1.13717 -1.09116 0
M  V30 46122 C 4546.41 1.84273 -0.820154 0
M  V30 46123 C 4546.72 1.84256 0.656444 0
M  V30 46124 O 4547.93 2.50672 1.04287 0
M  V30 46125 C 4546.38 3.3082 -1.41725 0
M  V30 46126 C 4545.99 3.39234 -2.92616 0
M  V30 46127 C 4547.73 4.06439 -1.22506 0
M  V30 46128 C 4545.64 4.80035 -3.45428 0
M  V30 46129 H 4544.57 0.690376 -0.303144 0
M  V30 46130 H 4547.22 1.28141 -1.31347 0
M  V30 46131 H 4545.6 3.86734 -0.851634 0
M  V30 46132 H 4546.78 2.93332 -3.55377 0
M  V30 46133 H 4545.09 2.77077 -3.10833 0
M  V30 46134 H 4547.69 5.10382 -1.5942 0
M  V30 46135 H 4548.03 4.15971 -0.165445 0
M  V30 46136 H 4548.57 3.56846 -1.75801 0
M  V30 46137 H 4545.3 4.75693 -4.50995 0
M  V30 46138 H 4544.82 5.26445 -2.87429 0
M  V30 46139 H 4546.5 5.48945 -3.42444 0
M  V30 46140 N 4546.64 0.877884 1.30885 0
M  V30 46141 C 4547.55 0.343177 2.32076 0
M  V30 46142 C 4548.56 -0.550964 1.65047 0
M  V30 46143 O 4549.74 -0.445785 1.96404 0
M  V30 46144 C 4546.8 -0.439784 3.43899 0
M  V30 46145 C 4545.86 0.483261 4.26571 0
M  V30 46146 C 4545.1 -0.262428 5.33054 0
M  V30 46147 O 4545.32 -1.48948 5.50609 0
M  V30 46148 O 4544.25 0.383804 6.00675 0
M  V30 46149 H 4548.08 1.18213 2.79749 0
M  V30 46150 H 4545.66 0.641497 1.34927 0
M  V30 46151 H 4547.55 -0.883359 4.12037 0
M  V30 46152 H 4546.22 -1.25515 2.98375 0
M  V30 46153 H 4545.13 0.975501 3.61158 0
M  V30 46154 H 4546.46 1.26444 4.75681 0
M  V30 46155 N 4548.11 -1.44104 0.638116 0
M  V30 46156 C 4549.04 -2.33448 -0.0493466 0
M  V30 46157 C 4550.02 -1.48608 -0.827619 0
M  V30 46158 O 4551.21 -1.77311 -0.79211 0
M  V30 46159 C 4548.34 -3.31775 -1.02679 0
M  V30 46160 C 4547.29 -4.26486 -0.359673 0
M  V30 46161 C 4546.62 -5.14734 -1.44751 0
M  V30 46162 C 4547.92 -5.17053 0.738478 0
M  V30 46163 H 4549.61 -2.9118 0.696739 0
M  V30 46164 H 4547.16 -1.40013 0.336505 0
M  V30 46165 H 4549.11 -3.93166 -1.51652 0
M  V30 46166 H 4547.84 -2.72266 -1.80385 0
M  V30 46167 H 4546.5 -3.66437 0.109469 0
M  V30 46168 H 4546.14 -4.51574 -2.21562 0
M  V30 46169 H 4545.84 -5.78916 -1.00648 0
M  V30 46170 H 4547.37 -5.78998 -1.9389 0
M  V30 46171 H 4548.78 -5.7234 0.331555 0
M  V30 46172 H 4547.18 -5.89875 1.10307 0
M  V30 46173 H 4548.25 -4.57646 1.60274 0
M  V30 46174 N 4549.59 -0.37909 -1.52973 0
M  V30 46175 C 4550.54 0.460969 -2.2615 0
M  V30 46176 C 4551.51 1.06633 -1.27352 0
M  V30 46177 O 4552.69 1.09628 -1.56161 0
M  V30 46178 C 4549.83 1.58772 -3.06408 0
M  V30 46179 C 4548.95 1.00621 -4.20118 0
M  V30 46180 C 4548.08 2.10317 -4.87791 0
M  V30 46181 C 4547.12 1.49703 -5.93511 0
M  V30 46182 N 4546.26 2.53287 -6.54821 0
M  V30 46183 H 4551.1 -0.169534 -2.97517 0
M  V30 46184 H 4548.63 -0.0954322 -1.4679 0
M  V30 46185 H 4550.59 2.25162 -3.51223 0
M  V30 46186 H 4549.22 2.18868 -2.37269 0
M  V30 46187 H 4548.27 0.232199 -3.79691 0
M  V30 46188 H 4549.59 0.523168 -4.96049 0
M  V30 46189 H 4548.74 2.845 -5.35859 0
M  V30 46190 H 4547.48 2.61978 -4.11362 0
M  V30 46191 H 4546.48 0.740406 -5.44792 0
M  V30 46192 H 4547.71 0.988496 -6.71867 0
M  V30 46193 H 4545.66 3.04136 -5.81238 0
M  V30 46194 H 4545.57 2.09708 -7.26332 0
M  V30 46195 H 4546.84 3.27131 -7.07535 0
M  V30 46196 N 4551.07 1.57225 -0.108623 0
M  V30 46197 C 4552.32 1.94835 0.551875 0
M  V30 46198 C 4552.64 0.991263 1.67345 0
M  V30 46199 O 4551.9 0.0132565 1.95696 0
M  V30 46200 C 4552.2 3.38915 1.13451 0
M  V30 46201 C 4551.86 4.50697 0.13535 0
M  V30 46202 C 4550.53 4.80998 -0.139421 0
M  V30 46203 C 4552.88 5.18331 -0.546139 0
M  V30 46204 C 4550.21 5.76255 -1.10214 0
M  V30 46205 C 4552.56 6.14622 -1.49742 0
M  V30 46206 C 4551.22 6.43321 -1.78029 0
M  V30 46207 H 4550.49 0.712951 0.201945 0
M  V30 46208 H 4553.14 1.90582 -0.187327 0
M  V30 46209 H 4551.44 3.39812 1.95025 0
M  V30 46210 H 4553.14 3.65323 1.65349 0
M  V30 46211 H 4549.73 4.27088 0.359696 0
M  V30 46212 H 4553.92 4.95085 -0.347016 0
M  V30 46213 H 4549.17 5.968 -1.32816 0
M  V30 46214 H 4553.35 6.66119 -2.03123 0
M  V30 46215 H 4550.97 7.16941 -2.52784 0
M  V30 46216 N 4552.55 -0.165123 1.56733 0
M  V30 46217 C 4553.77 -0.900187 1.86846 0
M  V30 46218 C 4554.2 -1.74763 0.695658 0
M  V30 46219 O 4553.56 -1.77787 -0.355157 0
M  V30 46220 C 4553.6 -1.74766 3.15419 0
M  V30 46221 O 4552.71 -2.84997 2.98078 0
M  V30 46222 H 4552.05 -0.25181 0.6144 0
M  V30 46223 H 4554.58 -0.161397 2.03962 0
M  V30 46224 H 4554.59 -2.14634 3.46981 0
M  V30 46225 H 4553.26 -1.12522 4.00389 0
M  V30 46226 H 4551.84 -2.48666 2.77884 0
M  V30 46227 N 4554.03 -1.5151 -0.433885 0
M  V30 46228 C 4555.3 -1.54892 -1.19448 0
M  V30 46229 C 4555.68 -0.315227 -2.08733 0
M  V30 46230 O 4555.03 0.699481 -2.1753 0
M  V30 46231 C 4555.24 -2.86474 -1.99332 0
M  V30 46232 C 4556.59 -3.38554 -2.56255 0
M  V30 46233 O 4557.61 -2.88048 -2.09539 0
M  V30 46234 O 4556.47 -4.26687 -3.41468 0
M  V30 46235 H 4553.57 -0.622882 -0.54401 0
M  V30 46236 H 4556.11 -1.63825 -0.442674 0
M  V30 46237 H 4554.88 -3.67723 -1.33775 0
M  V30 46238 H 4554.51 -2.8072 -2.8157 0
M  V30 46239 N 4555.5 0.689552 -1.41714 0
M  V30 46240 C 4556.75 1.44961 -1.41395 0
M  V30 46241 C 4557.08 1.94484 -0.0251733 0
M  V30 46242 O 4556.33 1.70311 0.963988 0
M  V30 46243 C 4556.63 2.6729 -2.37257 0
M  V30 46244 C 4556.3 2.36392 -3.83966 0
M  V30 46245 C 4554.96 2.27676 -4.23931 0
M  V30 46246 C 4557.31 2.11026 -4.76568 0
M  V30 46247 C 4554.64 1.91699 -5.54498 0
M  V30 46248 C 4556.99 1.76557 -6.07462 0
M  V30 46249 C 4555.66 1.66341 -6.46442 0
M  V30 46250 H 4554.93 0.530451 -0.5174 0
M  V30 46251 H 4557.57 0.787593 -1.74554 0
M  V30 46252 H 4555.88 3.38455 -1.97372 0
M  V30 46253 H 4557.58 3.25444 -2.3428 0
M  V30 46254 H 4554.17 2.44072 -3.52316 0
M  V30 46255 H 4558.35 2.16701 -4.46491 0
M  V30 46256 H 4553.61 1.82347 -5.83575 0
M  V30 46257 H 4557.78 1.55951 -6.78714 0
M  V30 46258 H 4555.41 1.38232 -7.47527 0
M  V30 46259 N 4556.98 1.27642 0.924409 0
M  V30 46260 C 4558.26 1.04892 1.65097 0
M  V30 46261 C 4558.64 -0.415254 2.06975 0
M  V30 46262 O 4557.99 -1.39917 1.80653 0
M  V30 46263 C 4558.2 2.01358 2.85054 0
M  V30 46264 C 4559.55 2.30912 3.56321 0
M  V30 46265 O 4560.57 1.99358 2.95186 0
M  V30 46266 O 4559.43 2.84716 4.66475 0
M  V30 46267 H 4556.52 0.400108 0.72377 0
M  V30 46268 H 4559.07 1.38919 0.974654 0
M  V30 46269 H 4557.84 3.00089 2.51123 0
M  V30 46270 H 4557.46 1.67913 3.60404 0
M  V30 46271 N 4558.46 -1.13137 1.09717 0
M  V30 46272 C 4559.71 -1.84754 0.836289 0
M  V30 46273 C 4560.04 -1.83472 -0.636533 0
M  V30 46274 O 4559.31 -1.27496 -1.46885 0
M  V30 46275 C 4559.6 -3.32778 1.3759 0
M  V30 46276 C 4559.45 -3.42557 2.91505 0
M  V30 46277 C 4560.77 -4.28303 1.01214 0
M  V30 46278 H 4557.89 -0.670809 0.30526 0
M  V30 46279 H 4560.53 -1.32775 1.35907 0
M  V30 46280 H 4558.68 -3.77174 0.93123 0
M  V30 46281 H 4560.35 -3.0685 3.44443 0
M  V30 46282 H 4558.6 -2.83338 3.28485 0
M  V30 46283 H 4559.27 -4.46663 3.2434 0
M  V30 46284 H 4561.74 -3.91994 1.3957 0
M  V30 46285 H 4560.62 -5.30302 1.41671 0
M  V30 46286 H 4560.88 -4.42029 -0.0793279 0
M  V30 46287 N 4559.94 -0.884812 -1.30418 0
M  V30 46288 C 4561.18 -0.50392 -1.9644 0
M  V30 46289 C 4561.52 0.944459 -1.69687 0
M  V30 46290 O 4560.79 1.66733 -1.00151 0
M  V30 46291 C 4561.08 -0.779208 -3.51568 0
M  V30 46292 C 4560.93 -2.2782 -3.87838 0
M  V30 46293 C 4562.25 -0.255607 -4.39357 0
M  V30 46294 H 4559.37 -0.184558 -0.713518 0
M  V30 46295 H 4562.01 -1.10877 -1.54293 0
M  V30 46296 H 4560.16 -0.26441 -3.87599 0
M  V30 46297 H 4561.83 -2.8614 -3.61831 0
M  V30 46298 H 4560.07 -2.74491 -3.35912 0
M  V30 46299 H 4560.74 -2.42143 -4.96055 0
M  V30 46300 H 4563.22 -0.696223 -4.10234 0
M  V30 46301 H 4562.1 -0.477553 -5.46819 0
M  V30 46302 H 4562.36 0.843141 -4.33986 0
M  V30 46303 N 4561.42 1.43763 -0.645749 0
M  V30 46304 C 4562.83 1.85192 -0.236784 0
M  V30 46305 C 4563.18 1.5405 1.21504 0
M  V30 46306 O 4562.3 0.985761 1.92644 0
M  V30 46307 C 4562.9 3.36149 -0.422964 0
M  V30 46308 C 4561.46 3.76338 -0.0683815 0
M  V30 46309 C 4560.6 2.67535 -0.7294 0
M  V30 46310 H 4563.56 1.34022 -0.84993 0
M  V30 46311 H 4563.58 3.79033 0.33377 0
M  V30 46312 H 4563.09 3.58785 -1.4797 0
M  V30 46313 H 4561.19 3.59316 0.986053 0
M  V30 46314 H 4561.3 4.76602 -0.488637 0
M  V30 46315 H 4559.67 2.54176 -0.163324 0
M  V30 46316 H 4560.45 2.93 -1.78902 0
M  V30 46317 N 4562.89 0.387197 1.5277 0
M  V30 46318 C 4564.12 -0.198335 2.06449 0
M  V30 46319 C 4564.54 -1.39914 1.25721 0
M  V30 46320 O 4563.9 -1.79098 0.28172 0
M  V30 46321 C 4563.95 -0.548768 3.564 0
M  V30 46322 O 4563.05 -1.64302 3.78258 0
M  V30 46323 H 4562.4 -0.0237498 0.663575 0
M  V30 46324 H 4564.93 0.554058 1.96955 0
M  V30 46325 H 4564.94 -0.813671 3.99804 0
M  V30 46326 H 4563.61 0.32915 4.14595 0
M  V30 46327 H 4562.19 -1.37199 3.46743 0
M  V30 46328 N 4564.37 -1.57165 0.116959 0
M  V30 46329 C 4565.6 -1.99475 -0.549313 0
M  V30 46330 C 4566.02 -0.996597 -1.60354 0
M  V30 46331 O 4565.37 0.010809 -1.82497 0
M  V30 46332 C 4565.42 -3.41792 -1.17729 0
M  V30 46333 O 4565.14 -4.37788 -0.165208 0
M  V30 46334 C 4566.65 -3.99222 -1.92708 0
M  V30 46335 H 4563.87 -0.655014 -0.145593 0
M  V30 46336 H 4566.41 -2.03493 0.202696 0
M  V30 46337 H 4564.56 -3.3872 -1.8801 0
M  V30 46338 H 4564.98 -5.20808 -0.62122 0
M  V30 46339 H 4566.45 -5.0089 -2.31977 0
M  V30 46340 H 4566.93 -3.3825 -2.80149 0
M  V30 46341 H 4567.54 -4.05834 -1.27195 0
M  V30 46342 N 4565.85 0.156809 -1.56818 0
M  V30 46343 C 4567.08 0.890266 -1.87321 0
M  V30 46344 C 4567.5 1.74392 -0.704916 0
M  V30 46345 O 4566.86 1.77973 0.345724 0
M  V30 46346 C 4566.91 1.73091 -3.16342 0
M  V30 46347 O 4566.01 2.83412 -2.99586 0
M  V30 46348 H 4565.35 0.248548 -0.615727 0
M  V30 46349 H 4567.88 0.150578 -2.04045 0
M  V30 46350 H 4567.89 2.12791 -3.48115 0
M  V30 46351 H 4566.57 1.10397 -4.0098 0
M  V30 46352 H 4565.14 2.47189 -2.79199 0
M  V30 46353 N 4567.33 1.51738 0.425844 0
M  V30 46354 C 4568.57 1.66641 1.18365 0
M  V30 46355 C 4568.93 0.379921 1.88204 0
M  V30 46356 O 4570.13 0.404852 2.65734 0
M  V30 46357 C 4568.4 2.84389 2.16466 0
M  V30 46358 S 4569.96 3.19684 3.00579 0
M  V30 46359 H 4566.78 0.586972 0.40123 0
M  V30 46360 H 4569.38 1.8968 0.473451 0
M  V30 46361 H 4568.09 3.76287 1.63817 0
M  V30 46362 H 4567.62 2.63572 2.9205 0
M  V30 46363 H 4569.63 2.67009 4.18235 0
M  V30 46364 N 4568.81 -0.682027 1.42078 0
M  V30 46365 C 4570.03 -1.47553 1.45749 0
M  V30 46366 C 4570.46 -1.87976 0.0681642 0
M  V30 46367 O 4569.82 -1.55526 -0.931746 0
M  V30 46368 C 4569.86 -2.70566 2.38382 0
M  V30 46369 O 4568.97 -3.68566 1.8502 0
M  V30 46370 H 4568.31 -0.443568 0.494109 0
M  V30 46371 H 4570.84 -0.837173 1.86688 0
M  V30 46372 H 4570.85 -3.18721 2.54718 0
M  V30 46373 H 4569.52 -2.40483 3.39324 0
M  V30 46374 H 4568.1 -3.27564 1.78204 0
M  V30 46375 N 4570.29 -1.2813 -0.917626 0
M  V30 46376 C 4571.24 -1.08368 -2.006 0
M  V30 46377 C 4572.22 -0.00853175 -1.60898 0
M  V30 46378 O 4573.41 -0.228228 -1.75522 0
M  V30 46379 C 4570.54 -0.743494 -3.35152 0
M  V30 46380 C 4569.63 -1.85729 -3.81268 0
M  V30 46381 N 4570.02 -3.09836 -3.99794 0
M  V30 46382 C 4568.32 -1.74626 -4.10392 0
M  V30 46383 C 4569.02 -3.82383 -4.38358 0
M  V30 46384 N 4567.99 -3.10208 -4.46399 0
M  V30 46385 H 4571.79 -2.02538 -2.12968 0
M  V30 46386 H 4569.31 -1.18993 -1.10519 0
M  V30 46387 H 4571.31 -0.583004 -4.12803 0
M  V30 46388 H 4569.97 0.190481 -3.24141 0
M  V30 46389 H 4570.98 -3.45489 -3.85821 0
M  V30 46390 H 4567.65 -0.883801 -4.08038 0
M  V30 46391 H 4569.04 -4.89098 -4.60687 0
M  V30 46392 N 4571.76 1.12553 -1.10316 0
M  V30 46393 C 4573.04 1.8036 -0.756941 0
M  V30 46394 C 4573.42 1.9707 0.756755 0
M  V30 46395 O 4572.77 1.54606 1.68253 0
M  V30 46396 C 4572.98 3.14807 -1.50658 0
M  V30 46397 C 4574.33 3.90023 -1.67831 0
M  V30 46398 O 4575.35 3.24459 -1.46985 0
M  V30 46399 O 4574.21 5.07645 -2.02383 0
M  V30 46400 H 4571.3 0.780657 -0.272953 0
M  V30 46401 H 4573.85 1.19399 -1.2059 0
M  V30 46402 H 4572.62 2.97928 -2.53683 0
M  V30 46403 H 4572.24 3.83474 -1.0504 0
M  V30 46404 N 4573.24 0.891716 1.29947 0
M  V30 46405 C 4574.47 0.527964 1.9974 0
M  V30 46406 C 4574.88 -0.889731 1.66974 0
M  V30 46407 O 4574.22 -1.59763 0.906723 0
M  V30 46408 C 4574.28 0.630928 3.5392 0
M  V30 46409 C 4573.95 2.01415 4.10221 0
M  V30 46410 C 4574.95 2.98437 4.25713 0
M  V30 46411 C 4572.63 2.32137 4.45441 0
M  V30 46412 C 4574.62 4.24309 4.75647 0
M  V30 46413 C 4572.31 3.58254 4.95073 0
M  V30 46414 C 4573.31 4.54155 5.1013 0
M  V30 46415 O 4573 5.78034 5.58688 0
M  V30 46416 H 4572.73 0.201976 0.645121 0
M  V30 46417 H 4575.28 1.20082 1.66642 0
M  V30 46418 H 4573.51 -0.0989257 3.86573 0
M  V30 46419 H 4575.2 0.277481 4.0495 0
M  V30 46420 H 4575.97 2.76015 3.98799 0
M  V30 46421 H 4571.85 1.58256 4.32985 0
M  V30 46422 H 4575.39 4.9917 4.87314 0
M  V30 46423 H 4571.29 3.80509 5.21424 0
M  V30 46424 H 4572.06 5.8051 5.77018 0
M  V30 46425 N 4574.72 -1.43419 0.653364 0
M  V30 46426 C 4575.65 -2.33487 -0.0245835 0
M  V30 46427 C 4576.63 -1.49478 -0.811811 0
M  V30 46428 O 4577.82 -1.78141 -0.773259 0
M  V30 46429 C 4574.95 -3.32845 -0.991543 0
M  V30 46430 C 4573.9 -4.26844 -0.314418 0
M  V30 46431 C 4573.23 -5.1624 -1.39283 0
M  V30 46432 C 4574.53 -5.16241 0.793277 0
M  V30 46433 H 4576.22 -2.90425 0.727583 0
M  V30 46434 H 4573.77 -1.39648 0.351336 0
M  V30 46435 H 4575.72 -3.94753 -1.47473 0
M  V30 46436 H 4574.44 -2.74164 -1.77487 0
M  V30 46437 H 4573.1 -3.663 0.148328 0
M  V30 46438 H 4572.75 -4.53899 -2.1676 0
M  V30 46439 H 4572.45 -5.79951 -0.945019 0
M  V30 46440 H 4573.97 -5.81022 -1.87739 0
M  V30 46441 H 4575.39 -5.71957 0.392241 0
M  V30 46442 H 4573.78 -5.88672 1.16557 0
M  V30 46443 H 4574.85 -4.55921 1.65119 0
M  V30 46444 N 4576.2 -0.395293 -1.52562 0
M  V30 46445 C 4577.16 0.424922 -2.25227 0
M  V30 46446 C 4578.16 0.985221 -1.27083 0
M  V30 46447 O 4579.35 0.866279 -1.51133 0
M  V30 46448 C 4576.48 1.59676 -3.01192 0
M  V30 46449 H 4577.68 -0.211338 -2.99154 0
M  V30 46450 H 4575.23 -0.147527 -1.55602 0
M  V30 46451 H 4575.96 2.27027 -2.3158 0
M  V30 46452 H 4575.75 1.20163 -3.73233 0
M  V30 46453 H 4577.24 2.1773 -3.56347 0
M  V30 46454 N 4577.68 1.57101 -0.125292 0
M  V30 46455 C 4578.92 1.94584 0.531026 0
M  V30 46456 C 4579.24 1.01132 1.67427 0
M  V30 46457 O 4580.44 1.28106 2.39377 0
M  V30 46458 C 4578.9 3.45842 0.996042 0
M  V30 46459 C 4578.51 4.47842 -0.119083 0
M  V30 46460 C 4580.25 3.92233 1.62338 0
M  V30 46461 C 4578.16 5.90285 0.362985 0
M  V30 46462 H 4577.09 0.726398 0.202144 0
M  V30 46463 H 4579.74 1.82338 -0.206156 0
M  V30 46464 H 4578.12 3.53345 1.78783 0
M  V30 46465 H 4579.3 4.52015 -0.895517 0
M  V30 46466 H 4577.61 4.11241 -0.653468 0
M  V30 46467 H 4580.21 4.96076 1.9953 0
M  V30 46468 H 4580.55 3.32561 2.50417 0
M  V30 46469 H 4581.08 3.87558 0.896882 0
M  V30 46470 H 4577.82 6.53726 -0.481909 0
M  V30 46471 H 4577.34 5.89519 1.10576 0
M  V30 46472 H 4579.02 6.41755 0.822152 0
M  V30 46473 N 4579.15 -0.14849 1.56899 0
M  V30 46474 C 4580.38 -0.875052 1.87153 0
M  V30 46475 C 4580.79 -1.75319 0.711324 0
M  V30 46476 O 4580.13 -1.80746 -0.328088 0
M  V30 46477 C 4580.2 -1.78429 3.12095 0
M  V30 46478 C 4579.86 -1.08346 4.43971 0
M  V30 46479 C 4580.86 -0.438065 5.18051 0
M  V30 46480 C 4578.54 -1.07341 4.90697 0
M  V30 46481 C 4580.54 0.208014 6.3706 0
M  V30 46482 C 4578.22 -0.423516 6.09631 0
M  V30 46483 C 4579.22 0.216069 6.82658 0
M  V30 46484 O 4578.91 0.855659 7.99333 0
M  V30 46485 H 4578.64 -0.258482 0.62463 0
M  V30 46486 H 4581.2 -0.146448 2.04877 0
M  V30 46487 H 4579.43 -2.55379 2.90376 0
M  V30 46488 H 4581.11 -2.38267 3.28609 0
M  V30 46489 H 4581.88 -0.437647 4.83021 0
M  V30 46490 H 4577.76 -1.56065 4.3378 0
M  V30 46491 H 4581.3 0.707824 6.94 0
M  V30 46492 H 4577.2 -0.421595 6.44122 0
M  V30 46493 H 4577.97 0.757178 8.1499 0
M  V30 46494 N 4580.63 -1.51961 -0.417791 0
M  V30 46495 C 4581.91 -1.56151 -1.17798 0
M  V30 46496 C 4582.29 -0.337348 -2.08387 0
M  V30 46497 O 4581.64 0.67637 -2.1826 0
M  V30 46498 C 4581.85 -2.88573 -1.96283 0
M  V30 46499 C 4583.19 -3.41252 -2.5265 0
M  V30 46500 O 4584.22 -2.90254 -2.06473 0
M  V30 46501 O 4583.08 -4.30285 -3.36923 0
M  V30 46502 H 4580.17 -0.628617 -0.537373 0
M  V30 46503 H 4582.72 -1.64285 -0.425273 0
M  V30 46504 H 4581.49 -3.69121 -1.29867 0
M  V30 46505 H 4581.11 -2.83691 -2.78577 0
M  V30 46506 N 4582.11 0.674483 -1.42438 0
M  V30 46507 C 4583.36 1.4317 -1.42642 0
M  V30 46508 C 4583.68 1.9495 -0.0439678 0
M  V30 46509 O 4582.95 1.73083 0.917546 0
M  V30 46510 H 4581.53 0.531289 -0.52511 0
M  V30 46511 H 4584.19 0.796943 -1.77862 0
M  V30 46512 H 4583.29 2.28456 -2.12637 0
M  V30 46513 N 4583.59 1.28615 0.910818 0
M  V30 46514 C 4584.55 1.1281 1.99516 0
M  V30 46515 C 4585.55 0.0668828 1.60661 0
M  V30 46516 O 4586.74 0.312908 1.71367 0
M  V30 46517 C 4583.87 0.722657 3.33152 0
M  V30 46518 H 4585.07 2.09116 2.14966 0
M  V30 46519 H 4582.62 1.11643 1.09387 0
M  V30 46520 H 4583.35 -0.241038 3.23403 0
M  V30 46521 H 4583.14 1.48929 3.62716 0
M  V30 46522 H 4584.63 0.634811 4.12747 0
M  V30 46523 N 4585.07 -1.11967 1.10911 0
M  V30 46524 C 4586.01 -2.19924 0.757381 0
M  V30 46525 C 4587.01 -1.67565 -0.248688 0
M  V30 46526 O 4588.21 -1.79672 -0.108542 0
M  V30 46527 H 4584.59 -0.716917 0.227012 0
M  V30 46528 H 4586.56 -2.46841 1.67666 0
M  V30 46529 C 4585.31 -3.4706 0.210793 0
M  V30 46530 H 4584.63 -3.87699 0.976186 0
M  V30 46531 H 4586.07 -4.24 0.00280745 0
M  V30 46532 C 4584.53 -3.19868 -1.05766 0
M  V30 46533 O 4585.06 -3.40057 -2.13833 0
M  V30 46534 N 4583.27 -2.7364 -0.978253 0
M  V30 46535 H 4582.81 -2.57411 -0.0987341 0
M  V30 46536 H 4582.77 -2.55822 -1.82764 0
M  V30 46537 N 4586.54 -0.898595 -1.29472 0
M  V30 46538 C 4587.77 -0.539331 -1.99747 0
M  V30 46539 C 4588.19 0.875658 -1.67265 0
M  V30 46540 O 4587.54 1.57783 -0.917105 0
M  V30 46541 C 4587.6 -0.720735 -3.54242 0
M  V30 46542 O 4587.32 -2.08003 -3.85573 0
M  V30 46543 C 4588.82 -0.366273 -4.41784 0
M  V30 46544 H 4586.04 -0.207069 -0.63825 0
M  V30 46545 H 4588.58 -1.20764 -1.65034 0
M  V30 46546 H 4586.74 -0.0996223 -3.87272 0
M  V30 46547 H 4587.15 -2.10858 -4.80249 0
M  V30 46548 H 4588.62 -0.544041 -5.49312 0
M  V30 46549 H 4589.1 0.69661 -4.3364 0
M  V30 46550 H 4589.71 -0.964281 -4.14224 0
M  V30 46551 N 4588.02 1.4307 -0.660961 0
M  V30 46552 C 4589.25 2.06583 -0.183877 0
M  V30 46553 C 4589.67 1.49261 1.14467 0
M  V30 46554 O 4589.03 0.605588 1.70887 0
M  V30 46555 C 4589.08 3.60418 -0.114561 0
M  V30 46556 O 4588.18 4.01984 0.920996 0
M  V30 46557 H 4587.52 0.656665 -0.0984224 0
M  V30 46558 H 4590.05 1.83443 -0.906071 0
M  V30 46559 H 4590.06 4.07946 0.066196 0
M  V30 46560 H 4588.74 4.01515 -1.08436 0
M  V30 46561 H 4587.32 3.66032 0.712402 0
M  V30 46562 N 4589.5 0.403378 1.5235 0
M  V30 46563 C 4590.78 -0.232543 1.94213 0
M  V30 46564 C 4591.16 -1.63128 1.33986 0
M  V30 46565 O 4590.51 -2.22657 0.513422 0
M  V30 46566 C 4590.72 -0.244688 3.48141 0
M  V30 46567 C 4592.06 -0.466831 4.22026 0
M  V30 46568 O 4593.09 -0.324294 3.54721 0
M  V30 46569 O 4591.95 -0.747279 5.41367 0
M  V30 46570 H 4589.04 -0.148195 0.813614 0
M  V30 46571 H 4591.59 0.458906 1.63377 0
M  V30 46572 H 4590.36 0.734513 3.84344 0
M  V30 46573 H 4589.98 -0.980476 3.85321 0
M  V30 46574 N 4590.98 -1.57033 0.133622 0
M  V30 46575 C 4592.39 -1.82594 -0.3894 0
M  V30 46576 C 4592.74 -1.05162 -1.65636 0
M  V30 46577 O 4591.87 -0.29272 -2.14411 0
M  V30 46578 C 4592.46 -3.31207 -0.713261 0
M  V30 46579 C 4591.02 -3.57397 -1.18086 0
M  V30 46580 C 4590.17 -2.76599 -0.197029 0
M  V30 46581 H 4593.12 -1.54597 0.358535 0
M  V30 46582 H 4593.14 -3.46633 -1.56927 0
M  V30 46583 H 4592.65 -3.87537 0.209036 0
M  V30 46584 H 4590.75 -3.0644 -2.11955 0
M  V30 46585 H 4590.86 -4.65919 -1.11608 0
M  V30 46586 H 4589.23 -2.4526 -0.687002 0
M  V30 46587 H 4590.01 -3.35694 0.718622 0
M  V30 46588 N 4592.46 0.140167 -1.56975 0
M  V30 46589 C 4593.39 1.17448 -2.01812 0
M  V30 46590 C 4594.37 1.44412 -0.898845 0
M  V30 46591 O 4595.55 1.55216 -1.16712 0
M  V30 46592 C 4592.68 2.50599 -2.40453 0
M  V30 46593 C 4591.64 2.38143 -3.55629 0
M  V30 46594 C 4590.96 3.76065 -3.80104 0
M  V30 46595 C 4592.26 1.85974 -4.88069 0
M  V30 46596 H 4593.96 0.801641 -2.88468 0
M  V30 46597 H 4591.5 0.384171 -1.38781 0
M  V30 46598 H 4593.46 3.23188 -2.70421 0
M  V30 46599 H 4592.18 2.89732 -1.50742 0
M  V30 46600 H 4590.84 1.68005 -3.25837 0
M  V30 46601 H 4590.49 4.12646 -2.87633 0
M  V30 46602 H 4590.19 3.6859 -4.57619 0
M  V30 46603 H 4591.71 4.50192 -4.12504 0
M  V30 46604 H 4593.12 2.48362 -5.1671 0
M  V30 46605 H 4591.52 1.89373 -5.69436 0
M  V30 46606 H 4592.59 0.815854 -4.77987 0
M  V30 46607 N 4593.93 1.52181 0.409726 0
M  V30 46608 C 4594.86 1.7844 1.50603 0
M  V30 46609 C 4595.85 0.635351 1.57789 0
M  V30 46610 O 4597.03 0.880884 1.73072 0
M  V30 46611 C 4594.16 1.93454 2.88432 0
M  V30 46612 C 4593.11 3.09048 2.96097 0
M  V30 46613 C 4592.44 3.09284 4.36174 0
M  V30 46614 C 4593.74 4.48517 2.67637 0
M  V30 46615 H 4595.43 2.70242 1.28879 0
M  V30 46616 H 4592.98 1.30038 0.618559 0
M  V30 46617 H 4594.93 2.10407 3.65112 0
M  V30 46618 H 4593.66 0.983238 3.11448 0
M  V30 46619 H 4592.32 2.91844 2.21861 0
M  V30 46620 H 4591.96 2.11877 4.56199 0
M  V30 46621 H 4591.66 3.86922 4.42227 0
M  V30 46622 H 4593.19 3.28366 5.1479 0
M  V30 46623 H 4594.6 4.65929 3.3404 0
M  V30 46624 H 4593 5.28069 2.85066 0
M  V30 46625 H 4594.07 4.56655 1.63079 0
M  V30 46626 N 4595.41 -0.666919 1.42793 0
M  V30 46627 C 4596.66 -1.42412 1.43399 0
M  V30 46628 C 4596.98 -1.94924 0.0543058 0
M  V30 46629 O 4596.25 -1.73568 -0.908354 0
M  V30 46630 H 4594.83 -0.528497 0.527921 0
M  V30 46631 H 4597.49 -0.7875 1.78282 0
M  V30 46632 H 4596.59 -2.27325 2.13845 0
M  V30 46633 N 4596.89 -1.29096 -0.903985 0
M  V30 46634 C 4597.84 -1.1386 -2.0076 0
M  V30 46635 C 4598.81 -0.0330668 -1.66067 0
M  V30 46636 O 4599.99 -0.1998 -1.89751 0
M  V30 46637 C 4597.13 -0.816654 -3.35298 0
M  V30 46638 C 4596.25 -2.0022 -3.828 0
M  V30 46639 C 4595.38 -1.62001 -5.05894 0
M  V30 46640 C 4594.42 -2.77162 -5.45754 0
M  V30 46641 N 4593.56 -2.39369 -6.60036 0
M  V30 46642 H 4598.4 -2.08283 -2.13125 0
M  V30 46643 H 4595.93 -1.03652 -1.04378 0
M  V30 46644 H 4597.89 -0.610702 -4.12706 0
M  V30 46645 H 4596.52 0.0906656 -3.22673 0
M  V30 46646 H 4595.57 -2.31998 -3.01465 0
M  V30 46647 H 4596.89 -2.86526 -4.08294 0
M  V30 46648 H 4596.04 -1.37669 -5.90874 0
M  V30 46649 H 4594.78 -0.728371 -4.8223 0
M  V30 46650 H 4593.78 -3.02181 -4.59311 0
M  V30 46651 H 4595.01 -3.66984 -5.71402 0
M  V30 46652 H 4592.95 -1.52687 -6.37983 0
M  V30 46653 H 4592.87 -3.19209 -6.85304 0
M  V30 46654 H 4594.14 -2.18346 -7.48295 0
M  V30 46655 N 4598.37 1.11377 -1.11503 0
M  V30 46656 C 4599.62 1.83129 -0.864296 0
M  V30 46657 C 4599.94 1.84685 0.610049 0
M  V30 46658 O 4599.2 1.29594 1.46642 0
M  V30 46659 C 4599.5 3.30021 -1.37189 0
M  V30 46660 C 4599.16 3.48624 -2.85958 0
M  V30 46661 C 4597.83 3.53409 -3.26581 0
M  V30 46662 C 4600.18 3.54824 -3.81771 0
M  V30 46663 C 4597.51 3.61951 -4.61745 0
M  V30 46664 C 4599.86 3.64897 -5.16753 0
M  V30 46665 C 4598.52 3.67942 -5.56933 0
M  V30 46666 H 4597.79 0.670116 -0.316268 0
M  V30 46667 H 4600.44 1.31349 -1.39355 0
M  V30 46668 H 4598.74 3.84301 -0.762888 0
M  V30 46669 H 4600.44 3.8403 -1.15422 0
M  V30 46670 H 4597.03 3.4557 -2.53533 0
M  V30 46671 H 4601.22 3.50387 -3.51487 0
M  V30 46672 H 4596.47 3.62586 -4.92282 0
M  V30 46673 H 4600.65 3.68637 -5.90829 0
M  V30 46674 H 4598.27 3.74313 -6.6166 0
M  V30 46675 N 4599.85 0.905449 1.28994 0
M  V30 46676 C 4601.09 0.541301 1.97102 0
M  V30 46677 C 4601.45 -0.896781 1.6977 0
M  V30 46678 O 4602.65 -1.36809 2.3138 0
M  V30 46679 C 4600.92 0.832256 3.47575 0
M  V30 46680 S 4602.48 0.57328 4.35039 0
M  V30 46681 H 4599.3 0.2006 0.682115 0
M  V30 46682 H 4601.9 1.16912 1.5669 0
M  V30 46683 H 4600.61 1.877 3.64962 0
M  V30 46684 H 4600.14 0.192774 3.92927 0
M  V30 46685 H 4602.15 -0.579123 4.92809 0
M  V30 46686 N 4601.33 -1.42718 0.668539 0
M  V30 46687 C 4602.57 -2.01225 0.187839 0
M  V30 46688 C 4602.89 -1.53097 -1.20774 0
M  V30 46689 O 4602.16 -0.749994 -1.80975 0
M  V30 46690 H 4600.74 -0.744038 0.0664533 0
M  V30 46691 H 4603.41 -1.7472 0.863644 0
M  V30 46692 H 4602.5 -3.11556 0.184275 0
M  V30 46693 N 4602.8 -0.411452 -1.52134 0
M  V30 46694 C 4604.03 0.165465 -2.06739 0
M  V30 46695 C 4604.45 1.37896 -1.27931 0
M  V30 46696 O 4603.81 1.78627 -0.310177 0
M  V30 46697 C 4603.86 0.491998 -3.57228 0
M  V30 46698 O 4602.96 1.58263 -3.80824 0
M  V30 46699 H 4602.3 0.0131899 -0.663869 0
M  V30 46700 H 4604.83 -0.585322 -1.96049 0
M  V30 46701 H 4604.84 0.749963 -4.01048 0
M  V30 46702 H 4603.52 -0.395067 -4.14019 0
M  V30 46703 H 4602.1 1.31665 -3.48882 0
M  V30 46704 N 4604.28 1.56959 -0.141948 0
M  V30 46705 C 4605.23 2.16504 0.799661 0
M  V30 46706 C 4606.2 1.09647 1.24767 0
M  V30 46707 O 4607.38 1.37665 1.3211 0
M  V30 46708 C 4604.52 2.78686 2.03539 0
M  V30 46709 C 4603.64 3.9992 1.63366 0
M  V30 46710 C 4602.77 4.50116 2.8208 0
M  V30 46711 C 4601.81 5.63827 2.38255 0
M  V30 46712 N 4600.95 6.08664 3.49961 0
M  V30 46713 H 4605.79 2.96633 0.285075 0
M  V30 46714 H 4603.32 1.46533 0.129002 0
M  V30 46715 H 4605.28 3.12879 2.75975 0
M  V30 46716 H 4603.91 2.01209 2.52418 0
M  V30 46717 H 4602.96 3.71738 0.807148 0
M  V30 46718 H 4604.28 4.82315 1.27175 0
M  V30 46719 H 4603.43 4.86338 3.62712 0
M  V30 46720 H 4602.17 3.66717 3.21512 0
M  V30 46721 H 4601.17 5.27186 1.56062 0
M  V30 46722 H 4602.4 6.49008 1.99915 0
M  V30 46723 H 4600.35 5.28201 3.89024 0
M  V30 46724 H 4600.26 6.85973 3.1777 0
M  V30 46725 H 4601.53 6.4953 4.30965 0
M  V30 46726 N 4605.76 -0.13184 1.57048 0
M  V30 46727 C 4607.18 -0.484978 1.52053 0
M  V30 46728 C 4607.38 -1.8256 0.852874 0
M  V30 46729 O 4606.43 -2.48815 0.429782 0
M  V30 46730 C 4607.74 -0.481305 2.96823 0
M  V30 46731 C 4609.29 -0.56576 3.07844 0
M  V30 46732 C 4609.77 -0.592602 4.5415 0
M  V30 46733 N 4611.26 -0.654403 4.58554 0
M  V30 46734 C 4611.99 -0.696408 5.69155 0
M  V30 46735 N 4611.49 -0.696836 6.89287 0
M  V30 46736 N 4613.28 -0.738443 5.57228 0
M  V30 46737 H 4605.43 0.746733 1.98841 0
M  V30 46738 H 4607.7 0.274031 0.90753 0
M  V30 46739 H 4607.4 0.435853 3.48989 0
M  V30 46740 H 4607.28 -1.31377 3.53581 0
M  V30 46741 H 4609.66 -1.47334 2.55689 0
M  V30 46742 H 4609.74 0.29415 2.54103 0
M  V30 46743 H 4609.39 0.310879 5.06948 0
M  V30 46744 H 4609.32 -1.46922 5.05689 0
M  V30 46745 H 4611.81 -0.660756 3.72079 0
M  V30 46746 H 4612.12 -0.731156 7.69333 0
M  V30 46747 H 4610.47 -0.664467 6.91816 0
M  V30 46748 H 4613.66 -0.735383 4.62288 0
M  V30 46749 H 4613.83 -0.767712 6.43436 0
M  V30 46750 N 4607.24 -1.52396 -0.40165 0
M  V30 46751 C 4608.65 -1.58903 -0.980146 0
M  V30 46752 C 4609 -0.434099 -1.91337 0
M  V30 46753 O 4608.12 0.444545 -2.11785 0
M  V30 46754 C 4608.72 -2.88 -1.78441 0
M  V30 46755 C 4607.28 -2.96961 -2.31281 0
M  V30 46756 C 4606.43 -2.53907 -1.11474 0
M  V30 46757 H 4609.38 -1.57657 -0.181625 0
M  V30 46758 H 4609.4 -2.73774 -2.6425 0
M  V30 46759 H 4608.91 -3.72039 -1.10493 0
M  V30 46760 H 4607.01 -2.17433 -3.02579 0
M  V30 46761 H 4607.12 -4.01353 -2.61635 0
M  V30 46762 H 4605.49 -2.0793 -1.47096 0
M  V30 46763 H 4606.27 -3.40327 -0.450809 0
M  V30 46764 N 4608.72 0.659337 -1.43145 0
M  V30 46765 C 4610.13 1.24036 -1.39542 0
M  V30 46766 C 4610.48 1.95963 -0.0964053 0
M  V30 46767 O 4609.6 2.00895 0.804368 0
M  V30 46768 C 4610.2 2.25592 -2.52772 0
M  V30 46769 C 4608.76 2.79186 -2.52453 0
M  V30 46770 C 4607.9 1.53735 -2.30783 0
M  V30 46771 H 4610.85 0.451738 -1.52135 0
M  V30 46772 H 4610.88 3.07644 -2.2391 0
M  V30 46773 H 4610.39 1.73214 -3.47302 0
M  V30 46774 H 4608.49 3.35643 -1.61785 0
M  V30 46775 H 4608.6 3.27148 -3.50016 0
M  V30 46776 H 4606.97 1.80862 -1.79334 0
M  V30 46777 H 4607.75 1.033 -3.2739 0
M  V30 46778 N 4610.19 1.29574 0.897126 0
M  V30 46779 C 4611.14 1.14809 2.02291 0
M  V30 46780 C 4612.14 0.0630232 1.69283 0
M  V30 46781 O 4613.34 0.223008 1.78613 0
M  V30 46782 H 4609.72 0.354715 0.663085 0
M  V30 46783 H 4611.69 2.10116 2.11882 0
M  V30 46784 C 4610.44 0.844085 3.37299 0
M  V30 46785 H 4609.76 1.67105 3.63202 0
M  V30 46786 H 4611.2 0.780818 4.16748 0
M  V30 46787 C 4609.66 -0.452726 3.33844 0
M  V30 46788 O 4610.19 -1.478 3.73521 0
M  V30 46789 N 4608.39 -0.4595 2.86944 0
M  V30 46790 H 4607.94 0.375302 2.54851 0
M  V30 46791 H 4607.9 -1.32716 2.85015 0
M  V30 46792 N 4611.67 -1.10784 1.12092 0
M  V30 46793 C 4612.92 -1.82939 0.87529 0
M  V30 46794 C 4613.25 -1.84781 -0.597473 0
M  V30 46795 O 4612.53 -1.30583 -1.44147 0
M  V30 46796 C 4612.81 -3.29784 1.44618 0
M  V30 46797 C 4612.66 -3.36296 2.98705 0
M  V30 46798 C 4613.98 -4.2606 1.10276 0
M  V30 46799 H 4611.1 -0.664184 0.31942 0
M  V30 46800 H 4613.74 -1.29862 1.38693 0
M  V30 46801 H 4611.89 -3.75114 1.01102 0
M  V30 46802 H 4613.56 -2.99474 3.50874 0
M  V30 46803 H 4611.81 -2.76306 3.34421 0
M  V30 46804 H 4612.48 -4.39682 3.33741 0
M  V30 46805 H 4614.95 -3.88945 1.47853 0
M  V30 46806 H 4613.83 -5.27178 1.52888 0
M  V30 46807 H 4614.09 -4.42098 0.0144508 0
M  V30 46808 N 4613.15 -0.912277 -1.28512 0
M  V30 46809 C 4614.1 -0.398034 -2.27342 0
M  V30 46810 C 4615.07 0.526711 -1.57528 0
M  V30 46811 O 4616.25 0.449226 -1.85436 0
M  V30 46812 C 4613.39 0.357142 -3.43247 0
M  V30 46813 C 4612.51 -0.599939 -4.27814 0
M  V30 46814 C 4611.64 0.173539 -5.30916 0
M  V30 46815 C 4610.68 -0.777252 -6.07145 0
M  V30 46816 N 4609.82 -0.0373866 -7.0209 0
M  V30 46817 H 4614.66 -1.24586 -2.70707 0
M  V30 46818 H 4612.19 -0.625658 -1.33131 0
M  V30 46819 H 4614.15 0.811157 -4.09238 0
M  V30 46820 H 4612.78 1.16933 -3.00876 0
M  V30 46821 H 4611.83 -1.17248 -3.6188 0
M  V30 46822 H 4613.15 -1.32721 -4.80819 0
M  V30 46823 H 4612.3 0.688182 -6.02784 0
M  V30 46824 H 4611.04 0.933873 -4.78675 0
M  V30 46825 H 4610.04 -1.30328 -5.3413 0
M  V30 46826 H 4611.27 -1.53712 -6.61475 0
M  V30 46827 H 4609.21 0.704984 -6.52201 0
M  V30 46828 H 4609.13 -0.704513 -7.5271 0
M  V30 46829 H 4610.4 0.457109 -7.78159 0
M  V30 46830 N 4614.63 1.42361 -0.676098 0
M  V30 46831 C 4615.85 2.06377 -0.205778 0
M  V30 46832 C 4616.28 1.50467 1.12878 0
M  V30 46833 O 4615.64 0.623679 1.70235 0
M  V30 46834 C 4615.68 3.60276 -0.152781 0
M  V30 46835 O 4614.79 4.02939 0.878308 0
M  V30 46836 H 4614.13 0.655584 -0.105382 0
M  V30 46837 H 4616.66 1.82472 -0.925477 0
M  V30 46838 H 4616.67 4.07994 0.0229241 0
M  V30 46839 H 4615.34 4.00342 -1.12689 0
M  V30 46840 H 4613.92 3.66767 0.673539 0
M  V30 46841 N 4616.11 0.419515 1.51914 0
M  V30 46842 C 4617.33 -0.154499 2.06824 0
M  V30 46843 C 4617.76 -1.37215 1.28661 0
M  V30 46844 O 4617.11 -1.7846 0.319646 0
M  V30 46845 C 4617.16 -0.473046 3.57484 0
M  V30 46846 O 4616.27 -1.56241 3.81658 0
M  V30 46847 H 4615.61 -0.00966906 0.66393 0
M  V30 46848 H 4618.14 0.59571 1.95736 0
M  V30 46849 H 4618.15 -0.728684 4.0144 0
M  V30 46850 H 4616.82 0.417018 4.13804 0
M  V30 46851 H 4615.4 -1.29813 3.49575 0
M  V30 46852 N 4617.58 -1.56882 0.15027 0
M  V30 46853 C 4618.53 -2.18217 -0.805236 0
M  V30 46854 C 4619.53 -1.1401 -1.25292 0
M  V30 46855 O 4620.73 -1.32254 -1.22102 0
M  V30 46856 H 4617.11 -0.698772 -0.277889 0
M  V30 46857 H 4619.08 -2.97232 -0.263757 0
M  V30 46858 C 4617.83 -2.82072 -2.03299 0
M  V30 46859 H 4617.15 -3.61974 -1.6975 0
M  V30 46860 H 4618.59 -3.28486 -2.68091 0
M  V30 46861 C 4617.05 -1.80749 -2.84309 0
M  V30 46862 O 4617.58 -1.27996 -3.80762 0
M  V30 46863 N 4615.79 -1.49978 -2.48907 0
M  V30 46864 H 4615.33 -1.93068 -1.70535 0
M  V30 46865 H 4615.29 -0.824324 -3.03401 0
M  V30 46866 N 4619.06 0.12351 -1.57115 0
M  V30 46867 C 4620.01 1.17075 -2.00988 0
M  V30 46868 C 4621 1.43133 -0.906059 0
M  V30 46869 O 4622.21 1.43148 -1.09126 0
M  V30 46870 H 4618.59 0.39463 -0.640134 0
M  V30 46871 H 4620.56 0.77419 -2.88182 0
M  V30 46872 C 4619.31 2.49049 -2.42631 0
M  V30 46873 H 4618.63 2.29834 -3.27133 0
M  V30 46874 H 4620.07 3.20896 -2.77131 0
M  V30 46875 C 4618.53 3.113 -1.28816 0
M  V30 46876 O 4619.06 3.97169 -0.60167 0
M  V30 46877 N 4617.26 2.71108 -1.04637 0
M  V30 46878 H 4616.81 2.01376 -1.60641 0
M  V30 46879 H 4616.77 3.13089 -0.286795 0
M  V30 46880 N 4620.54 1.52607 0.393562 0
M  V30 46881 C 4621.77 1.71596 1.16489 0
M  V30 46882 C 4622.19 0.431395 1.83086 0
M  V30 46883 O 4621.55 -0.612463 1.70642 0
M  V30 46884 C 4621.6 2.86326 2.19203 0
M  V30 46885 O 4620.7 2.52981 3.25691 0
M  V30 46886 H 4620.04 0.570746 0.33933 0
M  V30 46887 H 4622.57 1.99379 0.459254 0
M  V30 46888 H 4622.58 3.11689 2.63275 0
M  V30 46889 H 4621.26 3.79517 1.70117 0
M  V30 46890 H 4619.83 2.38342 2.86788 0
M  V30 46891 N 4622.02 -0.651737 1.43493 0
M  V30 46892 C 4622.95 -1.77663 1.43217 0
M  V30 46893 C 4623.93 -1.5993 0.293436 0
M  V30 46894 O 4625.11 -1.82094 0.487255 0
M  V30 46895 C 4622.24 -3.14982 1.24516 0
M  V30 46896 C 4621.29 -3.51412 2.41685 0
M  V30 46897 S 4622.12 -3.51219 4.04234 0
M  V30 46898 C 4623.28 -4.91192 3.87919 0
M  V30 46899 H 4623.51 -1.77627 2.38403 0
M  V30 46900 H 4621.04 -0.824512 1.30542 0
M  V30 46901 H 4623 -3.94233 1.14414 0
M  V30 46902 H 4621.66 -3.12579 0.308761 0
M  V30 46903 H 4620.85 -4.51283 2.24409 0
M  V30 46904 H 4620.46 -2.79577 2.48421 0
M  V30 46905 H 4622.75 -5.79889 3.50335 0
M  V30 46906 H 4623.69 -5.1352 4.87548 0
M  V30 46907 H 4624.1 -4.64797 3.2035 0
M  V30 46908 N 4623.5 -1.30048 -0.890242 0
M  V30 46909 C 4624.43 -1.18548 -2.01168 0
M  V30 46910 C 4625.41 -0.0773953 -1.69924 0
M  V30 46911 O 4626.59 -0.258518 -1.92472 0
M  V30 46912 C 4623.72 -0.871059 -3.36199 0
M  V30 46913 C 4622.68 -1.9365 -3.81685 0
M  V30 46914 C 4622 -1.47518 -5.13948 0
M  V30 46915 C 4623.3 -3.3468 -4.00982 0
M  V30 46916 H 4625 -2.12367 -2.11047 0
M  V30 46917 H 4622.54 -1.02242 -1.01403 0
M  V30 46918 H 4624.5 -0.777286 -4.14169 0
M  V30 46919 H 4623.22 0.102811 -3.26438 0
M  V30 46920 H 4621.88 -2.01982 -3.05939 0
M  V30 46921 H 4621.53 -0.489727 -5.0061 0
M  V30 46922 H 4621.23 -2.1878 -5.45352 0
M  V30 46923 H 4622.75 -1.3951 -5.94449 0
M  V30 46924 H 4624.16 -3.29137 -4.69406 0
M  V30 46925 H 4622.56 -4.03982 -4.43755 0
M  V30 46926 H 4623.63 -3.76959 -3.05008 0
M  V30 46927 N 4624.97 1.10188 -1.12678 0
M  V30 46928 C 4625.9 2.18649 -0.819439 0
M  V30 46929 C 4626.89 1.68699 0.217856 0
M  V30 46930 O 4628.07 1.94041 0.0784899 0
M  V30 46931 C 4625.2 3.46201 -0.276062 0
M  V30 46932 C 4624.15 4.0944 -1.24671 0
M  V30 46933 C 4623.48 5.31723 -0.563445 0
M  V30 46934 C 4624.78 4.52853 -2.60233 0
M  V30 46935 H 4626.47 2.44616 -1.72637 0
M  V30 46936 H 4624.02 1.17568 -0.831493 0
M  V30 46937 H 4625.97 4.21372 -0.0487631 0
M  V30 46938 H 4624.7 3.19733 0.666219 0
M  V30 46939 H 4623.36 3.36279 -1.45986 0
M  V30 46940 H 4623 5.01532 0.384059 0
M  V30 46941 H 4622.7 5.74987 -1.21095 0
M  V30 46942 H 4624.23 6.09623 -0.345244 0
M  V30 46943 H 4625.64 5.19286 -2.42931 0
M  V30 46944 H 4624.04 5.06975 -3.21086 0
M  V30 46945 H 4625.11 3.65645 -3.18484 0
M  V30 46946 N 4626.45 0.919079 1.28026 0
M  V30 46947 C 4627.7 0.555825 1.95034 0
M  V30 46948 C 4628.03 -0.899137 1.72131 0
M  V30 46949 O 4627.31 -1.6402 1.04536 0
M  V30 46950 C 4627.59 0.872147 3.49379 0
M  V30 46951 C 4627.44 2.38023 3.81661 0
M  V30 46952 C 4628.76 0.372005 4.38525 0
M  V30 46953 H 4625.88 0.203411 0.708374 0
M  V30 46954 H 4628.52 1.14929 1.51299 0
M  V30 46955 H 4626.67 0.367082 3.86762 0
M  V30 46956 H 4628.34 2.95632 3.54118 0
M  V30 46957 H 4626.59 2.83301 3.28517 0
M  V30 46958 H 4627.26 2.5521 4.89461 0
M  V30 46959 H 4629.73 0.804745 4.08244 0
M  V30 46960 H 4628.61 0.622364 5.4536 0
M  V30 46961 H 4628.87 -0.727781 4.36069 0
M  V30 46962 N 4627.93 -1.42001 0.683638 0
M  V30 46963 C 4629.18 -2.01412 0.209585 0
M  V30 46964 C 4629.51 -1.54092 -1.18684 0
M  V30 46965 O 4628.76 -0.737654 -1.81265 0
M  V30 46966 C 4629.06 -3.56826 0.202482 0
M  V30 46967 C 4628.73 -4.23612 1.54479 0
M  V30 46968 C 4627.39 -4.4157 1.9123 0
M  V30 46969 C 4629.74 -4.61169 2.42842 0
M  V30 46970 C 4627.07 -4.94359 3.15952 0
M  V30 46971 C 4629.42 -5.15343 3.66885 0
M  V30 46972 C 4628.08 -5.31513 4.03794 0
M  V30 46973 H 4627.35 -0.737021 0.0766927 0
M  V30 46974 H 4630 -1.70064 0.880372 0
M  V30 46975 H 4628.31 -3.87894 -0.551833 0
M  V30 46976 H 4630 -4.00588 -0.181653 0
M  V30 46977 H 4626.59 -4.1 1.24892 0
M  V30 46978 H 4630.78 -4.4696 2.15732 0
M  V30 46979 H 4626.03 -5.05064 3.44558 0
M  V30 46980 H 4630.21 -5.43386 4.35551 0
M  V30 46981 H 4627.83 -5.72182 5.00512 0
M  V30 46982 N 4629.41 -0.427565 -1.51689 0
M  V30 46983 C 4630.36 0.388787 -2.27502 0
M  V30 46984 C 4631.33 1.02527 -1.3068 0
M  V30 46985 O 4632.51 1.04604 -1.5957 0
M  V30 46986 C 4629.65 1.48943 -3.11304 0
M  V30 46987 C 4628.76 0.872046 -4.23107 0
M  V30 46988 C 4627.9 1.94692 -4.94235 0
M  V30 46989 C 4626.94 1.30745 -5.97973 0
M  V30 46990 N 4626.08 2.32326 -6.62547 0
M  V30 46991 H 4630.92 -0.264101 -2.96827 0
M  V30 46992 H 4628.45 -0.142084 -1.46412 0
M  V30 46993 H 4630.41 2.13874 -3.58209 0
M  V30 46994 H 4629.04 2.11209 -2.44112 0
M  V30 46995 H 4628.09 0.111286 -3.80237 0
M  V30 46996 H 4629.4 0.36509 -4.97462 0
M  V30 46997 H 4628.56 2.67308 -5.44639 0
M  V30 46998 H 4627.3 2.48758 -4.19489 0
M  V30 46999 H 4626.3 0.56671 -5.46871 0
M  V30 47000 H 4627.53 0.774246 -6.74672 0
M  V30 47001 H 4625.47 2.8549 -5.90619 0
M  V30 47002 H 4625.39 1.86495 -7.32636 0
M  V30 47003 H 4626.66 3.04455 -7.17584 0
M  V30 47004 N 4630.89 1.568 -0.158588 0
M  V30 47005 C 4632.12 2.00861 0.496232 0
M  V30 47006 C 4632.53 1.03876 1.57655 0
M  V30 47007 O 4631.89 0.0375806 1.82461 0
M  V30 47008 C 4631.94 3.44794 1.08626 0
M  V30 47009 O 4631.66 4.38073 0.0490782 0
M  V30 47010 C 4633.16 4.04191 1.82056 0
M  V30 47011 H 4630.38 0.658644 0.128175 0
M  V30 47012 H 4632.92 2.02884 -0.256577 0
M  V30 47013 H 4631.08 3.43586 1.78963 0
M  V30 47014 H 4631.49 5.22272 0.482919 0
M  V30 47015 H 4632.97 5.06864 2.18615 0
M  V30 47016 H 4633.44 3.45559 2.71082 0
M  V30 47017 H 4634.05 4.09064 1.1639 0
M  V30 47018 N 4632.37 -0.115176 1.57179 0
M  V30 47019 C 4633.64 -0.852811 1.7603 0
M  V30 47020 C 4634.02 -1.97889 0.735049 0
M  V30 47021 O 4633.37 -2.27233 -0.24028 0
M  V30 47022 C 4633.58 -1.36597 3.21158 0
M  V30 47023 C 4634.93 -1.81678 3.83768 0
M  V30 47024 O 4635.95 -1.46267 3.24784 0
M  V30 47025 O 4634.81 -2.47086 4.87453 0
M  V30 47026 H 4631.91 -0.405271 0.720891 0
M  V30 47027 H 4634.45 -0.0986189 1.69413 0
M  V30 47028 H 4633.22 -0.558221 3.87298 0
M  V30 47029 H 4632.85 -2.18275 3.32328 0
M  V30 47030 N 4633.84 -1.52813 -0.385464 0
M  V30 47031 C 4635.07 -1.72211 -1.15577 0
M  V30 47032 C 4635.49 -0.441098 -1.82855 0
M  V30 47033 O 4634.85 0.603405 -1.70964 0
M  V30 47034 C 4634.9 -2.87484 -2.17682 0
M  V30 47035 O 4634 -2.54704 -3.24345 0
M  V30 47036 H 4633.34 -0.572538 -0.336298 0
M  V30 47037 H 4635.87 -1.9962 -0.448674 0
M  V30 47038 H 4635.88 -3.13081 -2.61619 0
M  V30 47039 H 4634.56 -3.80414 -1.68101 0
M  V30 47040 H 4633.14 -2.3986 -2.8552 0
M  V30 47041 N 4635.32 0.644118 -1.43836 0
M  V30 47042 C 4636.57 1.4039 -1.45935 0
M  V30 47043 C 4636.9 1.94305 -0.0870341 0
M  V30 47044 O 4636.15 1.73291 0.909317 0
M  V30 47045 C 4636.45 2.59607 -2.4564 0
M  V30 47046 C 4636.12 2.24056 -3.91292 0
M  V30 47047 C 4634.78 2.14073 -4.30959 0
M  V30 47048 C 4637.13 1.95758 -4.83041 0
M  V30 47049 C 4634.46 1.73961 -5.60316 0
M  V30 47050 C 4636.81 1.57141 -6.12772 0
M  V30 47051 C 4635.47 1.4569 -6.51407 0
M  V30 47052 H 4634.74 0.513722 -0.534014 0
M  V30 47053 H 4637.39 0.731662 -1.76972 0
M  V30 47054 H 4635.7 3.32004 -2.0804 0
M  V30 47055 H 4637.39 3.17826 -2.44515 0
M  V30 47056 H 4633.98 2.3274 -3.59903 0
M  V30 47057 H 4638.17 2.02387 -4.53159 0
M  V30 47058 H 4633.42 1.63689 -5.89081 0
M  V30 47059 H 4637.6 1.34279 -6.83332 0
M  V30 47060 H 4635.22 1.1438 -7.51546 0
M  V30 47061 N 4636.8 1.30518 0.883332 0
M  V30 47062 C 4637.73 1.12853 1.99492 0
M  V30 47063 C 4638.74 0.0713143 1.62644 0
M  V30 47064 O 4639.93 0.317493 1.75654 0
M  V30 47065 C 4637.03 0.69924 3.31608 0
M  V30 47066 C 4636.21 1.83856 3.96882 0
M  V30 47067 C 4635.27 1.39755 5.07302 0
M  V30 47068 O 4634.29 2.10503 5.28845 0
M  V30 47069 N 4635.49 0.277483 5.79836 0
M  V30 47070 H 4638.26 2.08593 2.15196 0
M  V30 47071 H 4635.82 1.22676 1.05652 0
M  V30 47072 H 4637.81 0.387186 4.02844 0
M  V30 47073 H 4636.38 -0.166166 3.12158 0
M  V30 47074 H 4635.6 2.31864 3.18799 0
M  V30 47075 H 4636.89 2.60203 4.37232 0
M  V30 47076 H 4636.29 -0.312001 5.64839 0
M  V30 47077 H 4634.84 0.0248914 6.51795 0
M  V30 47078 N 4638.28 -1.09589 1.13261 0
M  V30 47079 C 4639.51 -1.85496 0.916443 0
M  V30 47080 C 4639.92 -1.81071 -0.534674 0
M  V30 47081 O 4639.28 -1.20567 -1.37003 0
M  V30 47082 C 4639.33 -3.33541 1.394 0
M  V30 47083 O 4639.05 -3.37918 2.78825 0
M  V30 47084 C 4640.55 -4.26295 1.21603 0
M  V30 47085 H 4637.77 -0.58598 0.326908 0
M  V30 47086 H 4640.31 -1.38483 1.50475 0
M  V30 47087 H 4638.47 -3.77989 0.84873 0
M  V30 47088 H 4638.88 -4.30243 2.99985 0
M  V30 47089 H 4640.36 -5.28335 1.59894 0
M  V30 47090 H 4640.83 -4.38917 0.15753 0
M  V30 47091 H 4641.44 -3.87662 1.74924 0
M  V30 47092 N 4639.76 -0.925856 -1.27537 0
M  V30 47093 C 4640.72 -0.428208 -2.25164 0
M  V30 47094 C 4641.72 0.452207 -1.5431 0
M  V30 47095 O 4642.91 0.253547 -1.72345 0
M  V30 47096 C 4640.04 0.38463 -3.38723 0
M  V30 47097 H 4641.23 -1.29076 -2.70702 0
M  V30 47098 H 4638.79 -0.706372 -1.39428 0
M  V30 47099 H 4639.52 1.26607 -2.98565 0
M  V30 47100 H 4639.31 -0.246592 -3.91324 0
M  V30 47101 H 4640.8 0.723245 -4.11289 0
M  V30 47102 N 4641.23 1.41636 -0.691159 0
M  V30 47103 C 4642.18 2.30788 -0.0230516 0
M  V30 47104 C 4643.15 1.46866 0.775859 0
M  V30 47105 O 4644.34 1.75663 0.744789 0
M  V30 47106 C 4641.48 3.32871 0.910549 0
M  V30 47107 C 4640.59 4.31875 0.103722 0
M  V30 47108 C 4639.72 5.21028 1.03456 0
M  V30 47109 C 4638.76 6.11703 0.220383 0
M  V30 47110 N 4637.9 6.93353 1.10479 0
M  V30 47111 H 4642.74 2.87363 -0.789079 0
M  V30 47112 H 4640.28 1.41533 -0.400844 0
M  V30 47113 H 4642.23 3.90601 1.46583 0
M  V30 47114 H 4640.86 2.77857 1.64302 0
M  V30 47115 H 4639.92 3.76129 -0.568417 0
M  V30 47116 H 4641.23 4.96001 -0.527678 0
M  V30 47117 H 4640.38 5.83571 1.65922 0
M  V30 47118 H 4639.12 4.57118 1.69983 0
M  V30 47119 H 4638.13 5.48213 -0.417379 0
M  V30 47120 H 4639.35 6.77666 -0.441022 0
M  V30 47121 H 4637.3 6.32056 1.75616 0
M  V30 47122 H 4637.21 7.54148 0.528859 0
M  V30 47123 H 4638.48 7.60368 1.7164 0
M  V30 47124 N 4642.71 0.435603 1.5146 0
M  V30 47125 C 4643.96 -0.131183 2.01674 0
M  V30 47126 C 4644.28 -1.43363 1.32182 0
M  V30 47127 O 4643.55 -1.90523 0.455836 0
M  V30 47128 H 4642.13 -0.0514692 0.745225 0
M  V30 47129 H 4644.79 0.577913 1.86135 0
M  V30 47130 H 4643.89 -0.308337 3.10573 0
M  V30 47131 N 4644.19 -1.56714 0.166901 0
M  V30 47132 C 4645.44 -1.97814 -0.473404 0
M  V30 47133 C 4645.79 -1.05101 -1.61157 0
M  V30 47134 O 4645.08 -0.0898214 -1.91389 0
M  V30 47135 C 4645.28 -3.42893 -1.00794 0
M  V30 47136 C 4645.11 -4.49634 0.0768973 0
M  V30 47137 C 4643.88 -5.02565 0.52507 0
M  V30 47138 C 4646.08 -5.0679 0.875683 0
M  V30 47139 N 4644.06 -5.92934 1.59068 0
M  V30 47140 C 4645.43 -5.93559 1.79132 0
M  V30 47141 C 4647.48 -4.89303 0.921255 0
M  V30 47142 C 4646.19 -6.64711 2.74866 0
M  V30 47143 C 4648.21 -5.61173 1.86652 0
M  V30 47144 C 4647.57 -6.47665 2.76964 0
M  V30 47145 H 4643.67 -0.769098 -0.141462 0
M  V30 47146 H 4646.26 -1.92873 0.266099 0
M  V30 47147 H 4644.43 -3.48388 -1.71698 0
M  V30 47148 H 4646.16 -3.71014 -1.61651 0
M  V30 47149 H 4642.92 -4.73439 0.123598 0
M  V30 47150 H 4643.34 -6.42824 2.12383 0
M  V30 47151 H 4647.98 -4.22135 0.237069 0
M  V30 47152 H 4645.7 -7.31095 3.44275 0
M  V30 47153 H 4649.29 -5.4963 1.90784 0
M  V30 47154 H 4648.17 -7.02301 3.48917 0
M  V30 47155 N 4645.67 0.106839 -1.57237 0
M  V30 47156 C 4646.62 1.13042 -2.01221 0
M  V30 47157 C 4647.59 1.40468 -0.886452 0
M  V30 47158 O 4648.77 1.52129 -1.15158 0
M  V30 47159 C 4645.91 2.44862 -2.4318 0
M  V30 47160 C 4645.02 2.24268 -3.69226 0
M  V30 47161 C 4644.16 3.49403 -4.00114 0
M  V30 47162 C 4643.2 3.2402 -5.19305 0
M  V30 47163 N 4642.33 4.4139 -5.46003 0
M  V30 47164 H 4647.17 0.748355 -2.8845 0
M  V30 47165 H 4644.71 0.358003 -1.42677 0
M  V30 47166 H 4646.67 3.21776 -2.65548 0
M  V30 47167 H 4645.3 2.80938 -1.58977 0
M  V30 47168 H 4644.35 1.38212 -3.54403 0
M  V30 47169 H 4645.66 2.01496 -4.5629 0
M  V30 47170 H 4644.82 4.34731 -4.23195 0
M  V30 47171 H 4643.56 3.75218 -3.11549 0
M  V30 47172 H 4642.56 2.37084 -4.96056 0
M  V30 47173 H 4643.79 2.99563 -6.09458 0
M  V30 47174 H 4641.73 4.67303 -4.60396 0
M  V30 47175 H 4641.65 4.21766 -6.27415 0
M  V30 47176 H 4642.92 5.27816 -5.73612 0
M  V30 47177 N 4647.15 1.53016 0.377354 0
M  V30 47178 C 4648.08 1.73387 1.48365 0
M  V30 47179 C 4649.06 0.581933 1.5183 0
M  V30 47180 O 4650.24 0.81313 1.7006 0
M  V30 47181 C 4647.37 1.80202 2.86784 0
M  V30 47182 C 4646.41 3.02067 3.01095 0
M  V30 47183 S 4647.25 4.6182 2.71077 0
M  V30 47184 C 4648.4 4.71467 4.11666 0
M  V30 47185 H 4648.64 2.6695 1.30862 0
M  V30 47186 H 4646.17 1.43455 0.570961 0
M  V30 47187 H 4648.13 1.84814 3.66543 0
M  V30 47188 H 4646.79 0.877114 3.01605 0
M  V30 47189 H 4645.98 3.0341 4.0244 0
M  V30 47190 H 4645.58 2.95506 2.29243 0
M  V30 47191 H 4647.88 4.50798 5.05754 0
M  V30 47192 H 4648.82 5.73502 4.15333 0
M  V30 47193 H 4649.23 4.00203 3.98118 0
M  V30 47194 N 4648.62 -0.636481 1.44176 0
M  V30 47195 C 4649.85 -1.42842 1.50369 0
M  V30 47196 C 4650.27 -1.87664 0.127933 0
M  V30 47197 O 4649.63 -1.58411 -0.881795 0
M  V30 47198 C 4649.68 -2.62845 2.4687 0
M  V30 47199 O 4648.78 -3.62494 1.96652 0
M  V30 47200 H 4648.13 -0.427624 0.50797 0
M  V30 47201 H 4650.66 -0.777355 1.89257 0
M  V30 47202 H 4650.67 -3.10456 2.64729 0
M  V30 47203 H 4649.34 -2.29566 3.46803 0
M  V30 47204 H 4647.92 -3.21728 1.88535 0
M  V30 47205 N 4650.1 -1.30985 -0.876398 0
M  V30 47206 C 4651.35 -1.20301 -1.62892 0
M  V30 47207 C 4651.68 0.240327 -1.9301 0
M  V30 47208 O 4650.93 1.18727 -1.55571 0
M  V30 47209 C 4651.23 -1.98583 -2.97153 0
M  V30 47210 C 4650.9 -3.48135 -2.86553 0
M  V30 47211 C 4649.56 -3.88915 -2.8337 0
M  V30 47212 C 4651.91 -4.43332 -2.74055 0
M  V30 47213 C 4649.24 -5.2317 -2.65538 0
M  V30 47214 C 4651.59 -5.77704 -2.57761 0
M  V30 47215 C 4650.26 -6.17713 -2.52957 0
M  V30 47216 H 4649.53 -0.440214 -0.596065 0
M  V30 47217 H 4652.17 -1.62181 -1.01832 0
M  V30 47218 H 4650.48 -1.49364 -3.62212 0
M  V30 47219 H 4652.17 -1.87702 -3.54357 0
M  V30 47220 H 4648.76 -3.15734 -2.89845 0
M  V30 47221 H 4652.95 -4.12762 -2.75575 0
M  V30 47222 H 4648.2 -5.5325 -2.60239 0
M  V30 47223 H 4652.38 -6.511 -2.47066 0
M  V30 47224 H 4650.01 -7.21687 -2.38898 0
M  V30 47225 N 4651.58 1.08987 -1.13841 0
M  V30 47226 C 4653 1.33309 -0.877552 0
M  V30 47227 C 4653.2 1.95589 0.484491 0
M  V30 47228 O 4652.25 2.20513 1.23005 0
M  V30 47229 C 4653.57 2.24038 -2.00568 0
M  V30 47230 C 4655.11 2.37535 -2.03829 0
M  V30 47231 C 4655.59 3.31603 -3.15917 0
M  V30 47232 N 4657.08 3.39178 -3.15457 0
M  V30 47233 C 4657.81 4.11978 -3.98826 0
M  V30 47234 N 4657.31 4.87536 -4.9222 0
M  V30 47235 N 4659.1 4.07748 -3.86908 0
M  V30 47236 H 4651.25 0.669385 -2.01576 0
M  V30 47237 H 4653.52 0.357451 -0.878028 0
M  V30 47238 H 4653.22 1.85511 -2.98795 0
M  V30 47239 H 4653.1 3.24459 -1.9237 0
M  V30 47240 H 4655.48 2.75324 -1.06211 0
M  V30 47241 H 4655.57 1.36877 -2.16098 0
M  V30 47242 H 4655.21 2.94536 -4.13776 0
M  V30 47243 H 4655.14 4.32175 -3.00885 0
M  V30 47244 H 4657.63 2.85306 -2.47809 0
M  V30 47245 H 4657.94 5.4053 -5.52311 0
M  V30 47246 H 4656.29 4.86609 -4.96222 0
M  V30 47247 H 4659.48 3.47822 -3.13269 0
M  V30 47248 H 4659.65 4.64222 -4.52108 0
M  V30 47249 N 4653.06 0.932607 1.27044 0
M  V30 47250 C 4653.99 0.392813 2.25809 0
M  V30 47251 C 4655 -0.479186 1.55588 0
M  V30 47252 O 4656.19 -0.291016 1.76112 0
M  V30 47253 C 4653.29 -0.455338 3.35827 0
M  V30 47254 C 4652.47 0.398508 4.35581 0
M  V30 47255 C 4651.52 -0.387801 5.24769 0
M  V30 47256 O 4650.55 0.206203 5.68826 0
M  V30 47257 N 4651.75 -1.68644 5.55463 0
M  V30 47258 H 4654.52 1.24182 2.72761 0
M  V30 47259 H 4652.08 0.800561 1.40722 0
M  V30 47260 H 4654.07 -0.988554 3.92441 0
M  V30 47261 H 4652.64 -1.20512 2.88437 0
M  V30 47262 H 4651.86 1.11299 3.78161 0
M  V30 47263 H 4653.15 0.982064 4.99232 0
M  V30 47264 H 4652.55 -2.19129 5.21535 0
M  V30 47265 H 4651.1 -2.16608 6.14755 0
M  V30 47266 N 4654.54 -1.41267 0.698661 0
M  V30 47267 C 4655.76 -2.05503 0.240064 0
M  V30 47268 C 4656.18 -1.52588 -1.11186 0
M  V30 47269 O 4655.54 -0.675383 -1.69543 0
M  V30 47270 C 4655.59 -3.60987 0.192556 0
M  V30 47271 O 4655.31 -4.11945 1.49108 0
M  V30 47272 C 4656.81 -4.42372 -0.286654 0
M  V30 47273 H 4654.03 -0.661744 0.111068 0
M  V30 47274 H 4656.57 -1.80984 0.952113 0
M  V30 47275 H 4654.73 -3.84534 -0.470337 0
M  V30 47276 H 4655.14 -5.06013 1.38025 0
M  V30 47277 H 4656.62 -5.51345 -0.268767 0
M  V30 47278 H 4657.09 -4.18704 -1.32604 0
M  V30 47279 H 4657.7 -4.23896 0.345351 0
M  V30 47280 N 4656.01 -0.44363 -1.51227 0
M  V30 47281 C 4656.94 0.355061 -2.30785 0
M  V30 47282 C 4657.93 1.01536 -1.36472 0
M  V30 47283 O 4659.11 1.01779 -1.65392 0
M  V30 47284 C 4656.24 1.45301 -3.15444 0
M  V30 47285 C 4655.19 0.915855 -4.18086 0
M  V30 47286 C 4654.52 2.11002 -4.91306 0
M  V30 47287 C 4655.82 -0.0540438 -5.22272 0
M  V30 47288 H 4657.51 -0.308872 -2.97803 0
M  V30 47289 H 4655.06 -0.149988 -1.43217 0
M  V30 47290 H 4657.01 2.01901 -3.69883 0
M  V30 47291 H 4655.74 2.14532 -2.46259 0
M  V30 47292 H 4654.4 0.372017 -3.64708 0
M  V30 47293 H 4654.04 2.78868 -4.18619 0
M  V30 47294 H 4653.74 1.75697 -5.60718 0
M  V30 47295 H 4655.27 2.68145 -5.48571 0
M  V30 47296 H 4656.68 0.421868 -5.71746 0
M  V30 47297 H 4655.08 -0.319986 -5.99246 0
M  V30 47298 H 4656.15 -0.988747 -4.74712 0
M  V30 47299 N 4657.49 1.56623 -0.175209 0
M  V30 47300 C 4658.74 1.96611 0.467816 0
M  V30 47301 C 4659.06 1.06244 1.63515 0
M  V30 47302 O 4658.33 0.129591 1.95471 0
M  V30 47303 H 4656.91 0.726014 0.175819 0
M  V30 47304 H 4659.57 1.93194 -0.257302 0
M  V30 47305 H 4658.67 3.00992 0.825236 0
M  V30 47306 N 4658.97 -0.0984986 1.57292 0
M  V30 47307 C 4660.38 -0.653395 1.74893 0
M  V30 47308 C 4660.73 -1.79287 0.796901 0
M  V30 47309 O 4659.86 -2.16385 -0.0254125 0
M  V30 47310 C 4660.45 -1.19205 3.17137 0
M  V30 47311 C 4659.01 -1.69304 3.36174 0
M  V30 47312 C 4658.16 -0.601199 2.70704 0
M  V30 47313 H 4661.11 0.127552 1.58187 0
M  V30 47314 H 4661.13 -2.06143 3.19821 0
M  V30 47315 H 4660.64 -0.362499 3.86403 0
M  V30 47316 H 4658.74 -2.5467 2.71981 0
M  V30 47317 H 4658.86 -1.78837 4.4447 0
M  V30 47318 H 4657.22 -1.03982 2.32508 0
M  V30 47319 H 4658 0.217712 3.42609 0
M  V30 47320 N 4660.45 -1.53214 -0.369234 0
M  V30 47321 C 4661.38 -1.75673 -1.47213 0
M  V30 47322 C 4662.39 -0.637439 -1.49802 0
M  V30 47323 O 4663.58 -0.913615 -1.53347 0
M  V30 47324 C 4660.68 -1.81828 -2.85993 0
M  V30 47325 C 4659.86 -3.1142 -3.07143 0
M  V30 47326 C 4658.92 -3.08864 -4.26016 0
M  V30 47327 O 4657.94 -3.82674 -4.21366 0
M  V30 47328 N 4659.14 -2.29428 -5.33238 0
M  V30 47329 H 4661.91 -2.70836 -1.28327 0
M  V30 47330 H 4659.47 -1.51946 -0.558927 0
M  V30 47331 H 4661.46 -1.77601 -3.63648 0
M  V30 47332 H 4660.03 -0.939649 -2.98143 0
M  V30 47333 H 4659.25 -3.28979 -2.17178 0
M  V30 47334 H 4660.54 -3.9707 -3.1814 0
M  V30 47335 H 4659.94 -1.68965 -5.39877 0
M  V30 47336 H 4658.49 -2.31023 -6.09485 0
M  V30 47337 N 4661.93 0.628826 -1.44511 0
M  V30 47338 C 4662.86 1.75395 -1.47544 0
M  V30 47339 C 4663.87 1.58573 -0.368562 0
M  V30 47340 O 4665.06 1.66845 -0.634434 0
M  V30 47341 C 4662.16 3.13146 -1.29588 0
M  V30 47342 C 4661.33 3.56404 -2.53564 0
M  V30 47343 C 4660.39 4.73041 -2.30474 0
M  V30 47344 O 4659.42 4.81236 -3.03974 0
M  V30 47345 N 4660.62 5.64898 -1.3368 0
M  V30 47346 H 4663.39 1.73264 -2.4454 0
M  V30 47347 H 4660.95 0.813463 -1.3998 0
M  V30 47348 H 4662.94 3.88898 -1.11985 0
M  V30 47349 H 4661.51 3.09906 -0.40948 0
M  V30 47350 H 4660.73 2.70837 -2.86428 0
M  V30 47351 H 4662.02 3.82059 -3.36018 0
M  V30 47352 H 4661.42 5.60973 -0.729801 0
M  V30 47353 H 4659.97 6.4027 -1.22054 0
M  V30 47354 N 4663.41 1.31448 0.869439 0
M  V30 47355 C 4664.65 1.20924 1.61931 0
M  V30 47356 C 4664.97 -0.232615 1.93608 0
M  V30 47357 O 4664.24 -1.15346 1.58342 0
M  V30 47358 H 4662.82 0.444561 0.600312 0
M  V30 47359 H 4665.49 1.6478 1.04084 0
M  V30 47360 H 4664.58 1.78133 2.56272 0
M  V30 47361 N 4664.88 -1.08381 1.14417 0
M  V30 47362 C 4666.12 -1.82377 0.922932 0
M  V30 47363 C 4666.49 -1.84227 -0.540777 0
M  V30 47364 O 4667.69 -2.53988 -0.879969 0
M  V30 47365 C 4665.96 -3.24043 1.50768 0
M  V30 47366 S 4667.52 -4.14912 1.42805 0
M  V30 47367 H 4664.34 -0.628512 0.332406 0
M  V30 47368 H 4666.94 -1.30273 1.45771 0
M  V30 47369 H 4665.64 -3.20279 2.56612 0
M  V30 47370 H 4665.17 -3.81221 0.971312 0
M  V30 47371 H 4667.19 -4.94472 0.413755 0
M  V30 47372 N 4666.36 -0.939331 -1.26548 0
M  V30 47373 C 4667.61 -0.584758 -1.93455 0
M  V30 47374 C 4667.93 0.878713 -1.74079 0
M  V30 47375 O 4667.2 1.62417 -1.09533 0
M  V30 47376 H 4665.78 -0.213276 -0.715907 0
M  V30 47377 H 4668.44 -1.19425 -1.54025 0
M  V30 47378 H 4667.54 -0.800955 -3.01647 0
M  V30 47379 N 4667.84 1.40895 -0.706143 0
M  V30 47380 C 4669.09 2.00656 -0.241125 0
M  V30 47381 C 4669.41 1.56245 1.16673 0
M  V30 47382 O 4668.68 0.797713 1.78923 0
M  V30 47383 H 4667.26 0.742015 -0.0861568 0
M  V30 47384 H 4669.92 1.72369 -0.909665 0
M  V30 47385 H 4669.02 3.10957 -0.266814 0
M  V30 47386 N 4669.32 0.451643 1.5099 0
M  V30 47387 C 4670.55 -0.108104 2.06317 0
M  V30 47388 C 4670.96 -1.3577 1.31769 0
M  V30 47389 O 4670.3 -1.79837 0.374757 0
M  V30 47390 C 4670.36 -0.481534 3.5626 0
M  V30 47391 C 4670.02 0.663273 4.52161 0
M  V30 47392 C 4671.02 1.53964 4.96579 0
M  V30 47393 C 4668.71 0.848074 4.95089 0
M  V30 47394 C 4670.7 2.58539 5.82612 0
M  V30 47395 C 4668.39 1.89707 5.80908 0
M  V30 47396 C 4669.39 2.7641 6.24569 0
M  V30 47397 O 4669.07 3.79507 7.08682 0
M  V30 47398 H 4668.81 -0.00496807 0.675982 0
M  V30 47399 H 4671.36 0.633727 1.95379 0
M  V30 47400 H 4669.59 -1.27628 3.65032 0
M  V30 47401 H 4671.28 -0.974095 3.94038 0
M  V30 47402 H 4672.04 1.40847 4.64098 0
M  V30 47403 H 4667.92 0.182742 4.60638 0
M  V30 47404 H 4671.47 3.26245 6.16612 0
M  V30 47405 H 4667.36 2.02839 6.12802 0
M  V30 47406 H 4668.13 3.7626 7.26891 0
M  V30 47407 N 4670.8 -1.56528 0.183513 0
M  V30 47408 C 4671.73 -2.21551 -0.737378 0
M  V30 47409 C 4672.71 -1.17494 -1.23001 0
M  V30 47410 O 4673.89 -1.45963 -1.28095 0
M  V30 47411 C 4671.02 -2.86582 -1.96184 0
M  V30 47412 C 4669.98 -3.96783 -1.60459 0
M  V30 47413 C 4669.3 -4.48922 -2.90471 0
M  V30 47414 C 4670.6 -5.1577 -0.823316 0
M  V30 47415 H 4672.3 -2.98762 -0.195348 0
M  V30 47416 H 4669.84 -1.43702 -0.0925181 0
M  V30 47417 H 4671.79 -3.30749 -2.61119 0
M  V30 47418 H 4670.52 -2.06758 -2.52821 0
M  V30 47419 H 4669.18 -3.5329 -0.978872 0
M  V30 47420 H 4668.83 -3.65875 -3.45174 0
M  V30 47421 H 4668.53 -5.23274 -2.67317 0
M  V30 47422 H 4670.05 -4.95783 -3.56415 0
M  V30 47423 H 4671.46 -5.56554 -1.37551 0
M  V30 47424 H 4669.86 -5.96116 -0.690341 0
M  V30 47425 H 4670.93 -4.84573 0.177953 0
M  V30 47426 N 4672.27 0.0901557 -1.57342 0
M  V30 47427 C 4673.5 0.806157 -1.90548 0
M  V30 47428 C 4673.92 1.72038 -0.777704 0
M  V30 47429 O 4673.27 1.80779 0.25004 0
M  V30 47430 C 4673.33 1.61535 -3.23402 0
M  V30 47431 O 4673.05 0.737892 -4.31841 0
M  V30 47432 C 4674.55 2.43397 -3.70503 0
M  V30 47433 H 4671.77 0.230234 -0.630265 0
M  V30 47434 H 4674.31 0.0659125 -2.04394 0
M  V30 47435 H 4672.47 2.30805 -3.11139 0
M  V30 47436 H 4672.88 1.29884 -5.08164 0
M  V30 47437 H 4674.35 2.9566 -4.66143 0
M  V30 47438 H 4674.83 3.22087 -2.98591 0
M  V30 47439 H 4675.44 1.79317 -3.85649 0
M  V30 47440 N 4673.75 1.53407 0.361103 0
M  V30 47441 C 4675 1.69471 1.10109 0
M  V30 47442 C 4675.32 0.451419 1.89703 0
M  V30 47443 O 4674.59 -0.534569 1.88465 0
M  V30 47444 H 4673.17 0.624764 0.409487 0
M  V30 47445 H 4675.83 1.90611 0.406632 0
M  V30 47446 H 4674.93 2.5578 1.78838 0
M  V30 47447 N 4675.23 -0.621153 1.44843 0
M  V30 47448 C 4676.46 -1.41239 1.51876 0
M  V30 47449 C 4676.88 -1.87518 0.14783 0
M  V30 47450 O 4676.24 -1.59337 -0.864944 0
M  V30 47451 C 4676.29 -2.60212 2.49644 0
M  V30 47452 O 4675.39 -3.60387 2.00486 0
M  V30 47453 H 4674.73 -0.422212 0.512477 0
M  V30 47454 H 4677.26 -0.757238 1.90071 0
M  V30 47455 H 4677.27 -3.0763 2.68007 0
M  V30 47456 H 4675.95 -2.25875 3.49218 0
M  V30 47457 H 4674.52 -3.19711 1.91936 0
M  V30 47458 N 4676.71 -1.31907 -0.862456 0
M  V30 47459 C 4677.66 -1.20132 -1.99176 0
M  V30 47460 C 4678.65 -0.107883 -1.69056 0
M  V30 47461 O 4679.86 -0.270285 -1.77959 0
M  V30 47462 H 4676.23 -0.372171 -0.653447 0
M  V30 47463 H 4678.2 -2.15659 -2.06237 0
M  V30 47464 C 4676.95 -0.933217 -3.34942 0
M  V30 47465 H 4676.27 -1.76676 -3.58644 0
M  V30 47466 H 4677.71 -0.891037 -4.14532 0
M  V30 47467 C 4676.17 0.364054 -3.34927 0
M  V30 47468 O 4676.7 1.37844 -3.77309 0
M  V30 47469 N 4674.91 0.383261 -2.88062 0
M  V30 47470 H 4674.46 -0.44274 -2.53767 0
M  V30 47471 H 4674.41 1.25113 -2.88434 0
M  V30 47472 N 4678.19 1.07773 -1.1499 0
M  V30 47473 C 4679.13 2.16961 -0.838482 0
M  V30 47474 C 4680.13 1.68372 0.186326 0
M  V30 47475 O 4681.33 1.79951 0.0417832 0
M  V30 47476 H 4677.71 0.707997 -0.253464 0
M  V30 47477 H 4679.68 2.40448 -1.76712 0
M  V30 47478 C 4678.43 3.46039 -0.339457 0
M  V30 47479 H 4677.75 3.83809 -1.11941 0
M  V30 47480 H 4679.19 4.23697 -0.16017 0
M  V30 47481 C 4677.65 3.23573 0.938212 0
M  V30 47482 O 4678.18 3.47759 2.01064 0
M  V30 47483 N 4676.39 2.77082 0.876019 0
M  V30 47484 H 4675.93 2.576 0.00312981 0
M  V30 47485 H 4675.89 2.62429 1.73143 0
M  V30 47486 N 4679.66 0.946029 1.26048 0
M  V30 47487 C 4680.89 0.613094 1.97608 0
M  V30 47488 C 4681.31 -0.812975 1.704 0
M  V30 47489 O 4680.66 -1.5427 0.975033 0
M  V30 47490 C 4680.72 0.851713 3.51323 0
M  V30 47491 O 4680.44 2.2217 3.77587 0
M  V30 47492 C 4681.94 0.529986 4.4012 0
M  V30 47493 H 4679.16 0.230615 0.630125 0
M  V30 47494 H 4681.7 1.26806 1.60439 0
M  V30 47495 H 4679.86 0.243287 3.86635 0
M  V30 47496 H 4680.27 2.28537 4.72092 0
M  V30 47497 H 4681.74 0.74754 5.46915 0
M  V30 47498 H 4682.22 -0.535187 4.35927 0
M  V30 47499 H 4682.83 1.11735 4.1036 0
M  V30 47500 N 4681.14 -1.40518 0.713605 0
M  V30 47501 C 4682.39 -2.00923 0.252261 0
M  V30 47502 C 4682.72 -1.56575 -1.15389 0
M  V30 47503 O 4681.97 -0.775938 -1.7966 0
M  V30 47504 C 4682.27 -3.56316 0.278125 0
M  V30 47505 C 4681.94 -4.2024 1.6343 0
M  V30 47506 C 4680.6 -4.37415 2.00553 0
M  V30 47507 C 4682.95 -4.55914 2.5257 0
M  V30 47508 C 4680.28 -4.87546 3.26367 0
M  V30 47509 C 4682.63 -5.07444 3.77734 0
M  V30 47510 C 4681.3 -5.22829 4.14978 0
M  V30 47511 H 4680.57 -0.735228 0.0923087 0
M  V30 47512 H 4683.21 -1.68158 0.916247 0
M  V30 47513 H 4681.52 -3.88978 -0.46943 0
M  V30 47514 H 4683.21 -4.00884 -0.096641 0
M  V30 47515 H 4679.8 -4.07259 1.3356 0
M  V30 47516 H 4683.99 -4.42283 2.25165 0
M  V30 47517 H 4679.24 -4.97642 3.55194 0
M  V30 47518 H 4683.42 -5.34025 4.46979 0
M  V30 47519 H 4681.05 -5.61436 5.12536 0
M  V30 47520 N 4682.62 -0.459644 -1.50748 0
M  V30 47521 C 4683.58 0.329013 -2.26826 0
M  V30 47522 C 4684.58 0.930435 -1.31147 0
M  V30 47523 O 4685.77 0.801399 -1.54671 0
M  V30 47524 C 4682.91 1.46757 -3.07693 0
M  V30 47525 H 4684.1 -0.338029 -2.97989 0
M  V30 47526 H 4681.65 -0.213391 -1.54836 0
M  V30 47527 H 4682.39 2.17001 -2.41 0
M  V30 47528 H 4682.17 1.04225 -3.77994 0
M  V30 47529 H 4683.66 2.0242 -3.65261 0
M  V30 47530 N 4684.1 1.56428 -0.191812 0
M  V30 47531 C 4685.32 2.02311 0.456634 0
M  V30 47532 C 4685.75 1.07109 1.54626 0
M  V30 47533 O 4685.11 0.0540314 1.81219 0
M  V30 47534 C 4685.15 3.46657 0.993037 0
M  V30 47535 O 4684.26 3.54567 2.10609 0
M  V30 47536 H 4683.6 0.655307 0.107091 0
M  V30 47537 H 4686.13 2.02363 -0.301725 0
M  V30 47538 H 4686.14 3.86382 1.31047 0
M  V30 47539 H 4684.81 4.15441 0.195358 0
M  V30 47540 H 4683.39 3.26715 1.79755 0
M  V30 47541 N 4685.58 -0.0818102 1.57388 0
M  V30 47542 C 4686.99 -0.634809 1.75576 0
M  V30 47543 C 4687.34 -1.78432 0.815872 0
M  V30 47544 O 4686.46 -2.164 -0.00246053 0
M  V30 47545 C 4687.06 -1.15834 3.18383 0
M  V30 47546 C 4685.62 -1.65729 3.37951 0
M  V30 47547 C 4684.76 -0.572453 2.71327 0
M  V30 47548 H 4687.72 0.144323 1.58042 0
M  V30 47549 H 4687.74 -2.02739 3.21989 0
M  V30 47550 H 4687.25 -0.321496 3.86766 0
M  V30 47551 H 4685.35 -2.51771 2.74667 0
M  V30 47552 H 4685.46 -1.74113 4.46342 0
M  V30 47553 H 4683.83 -1.0151 2.33597 0
M  V30 47554 H 4684.61 0.254038 3.42359 0
M  V30 47555 N 4687.06 -1.53597 -0.352963 0
M  V30 47556 C 4688.33 -1.61006 -1.11069 0
M  V30 47557 C 4688.71 -0.425429 -2.06769 0
M  V30 47558 O 4688.06 0.58319 -2.20932 0
M  V30 47559 C 4688.27 -2.96638 -1.83867 0
M  V30 47560 C 4689.62 -3.51661 -2.37949 0
M  V30 47561 O 4690.64 -2.9875 -1.93976 0
M  V30 47562 O 4689.5 -4.44188 -3.1837 0
M  V30 47563 H 4686.6 -0.650843 -0.510228 0
M  V30 47564 H 4689.14 -1.65941 -0.355212 0
M  V30 47565 H 4687.91 -3.74297 -1.14095 0
M  V30 47566 H 4687.54 -2.95251 -2.66294 0
M  V30 47567 N 4688.53 0.613463 -1.4517 0
M  V30 47568 C 4689.76 1.40431 -1.52623 0
M  V30 47569 C 4690.18 1.87437 -0.157773 0
M  V30 47570 O 4689.54 1.59794 0.856481 0
M  V30 47571 C 4689.59 2.58885 -2.5102 0
M  V30 47572 O 4688.69 3.59319 -2.02394 0
M  V30 47573 H 4688.03 0.419488 -0.514709 0
M  V30 47574 H 4690.56 0.747148 -1.9047 0
M  V30 47575 H 4690.57 3.06205 -2.69634 0
M  V30 47576 H 4689.25 2.2402 -3.50411 0
M  V30 47577 H 4687.83 3.18688 -1.93629 0
M  V30 47578 N 4690.01 1.32363 0.855449 0
M  V30 47579 C 4691.29 1.13496 1.59305 0
M  V30 47580 C 4691.67 -0.304957 2.08886 0
M  V30 47581 O 4691.02 -1.30144 1.87816 0
M  V30 47582 C 4691.23 2.16185 2.7398 0
M  V30 47583 C 4692.57 2.49475 3.4358 0
M  V30 47584 O 4693.6 2.14725 2.84204 0
M  V30 47585 O 4692.46 3.09042 4.50727 0
M  V30 47586 H 4689.55 0.437911 0.701543 0
M  V30 47587 H 4692.1 1.4389 0.899646 0
M  V30 47588 H 4690.87 3.12978 2.34862 0
M  V30 47589 H 4690.49 1.86781 3.50997 0
M  V30 47590 N 4691.49 -1.07162 1.1556 0
M  V30 47591 C 4692.71 -1.8405 0.956052 0
M  V30 47592 C 4693.14 -1.81587 -0.490675 0
M  V30 47593 O 4692.5 -1.21023 -1.34993 0
M  V30 47594 C 4692.55 -3.28952 1.47726 0
M  V30 47595 O 4691.65 -4.06793 0.677736 0
M  V30 47596 H 4690.99 -0.56983 0.340867 0
M  V30 47597 H 4693.52 -1.35173 1.53589 0
M  V30 47598 H 4693.53 -3.79783 1.49093 0
M  V30 47599 H 4692.21 -3.30059 2.53049 0
M  V30 47600 H 4690.78 -3.65608 0.73385 0
M  V30 47601 N 4692.97 -0.9527 -1.25544 0
M  V30 47602 C 4693.92 -0.462435 -2.27957 0
M  V30 47603 C 4694.91 0.466283 -1.62856 0
M  V30 47604 O 4696.12 0.343225 -1.76697 0
M  V30 47605 H 4692.49 -0.131036 -0.740495 0
M  V30 47606 H 4694.46 -1.33848 -2.66697 0
M  V30 47607 C 4693.21 0.246158 -3.46828 0
M  V30 47608 H 4692.53 -0.459332 -3.97153 0
M  V30 47609 H 4693.97 0.553245 -4.20375 0
M  V30 47610 C 4692.43 1.46799 -3.03235 0
M  V30 47611 O 4692.96 2.56581 -3.09078 0
M  V30 47612 N 4691.17 1.32865 -2.58448 0
M  V30 47613 H 4690.72 0.435447 -2.53893 0
M  V30 47614 H 4690.67 2.14734 -2.29645 0
M  V30 47615 N 4694.45 1.40138 -0.721047 0
M  V30 47616 C 4695.69 2.00389 -0.262393 0
M  V30 47617 C 4696.01 1.57474 1.15009 0
M  V30 47618 O 4695.28 0.816645 1.78067 0
M  V30 47619 H 4693.86 0.741059 -0.0940221 0
M  V30 47620 H 4696.53 1.71395 -0.927896 0
M  V30 47621 H 4695.62 3.10657 -0.29978 0
M  V30 47622 N 4695.92 0.467632 1.50502 0
M  V30 47623 C 4696.86 -0.374245 2.2511 0
M  V30 47624 C 4697.83 -0.999165 1.28279 0
M  V30 47625 O 4699.02 -1.03577 1.57493 0
M  V30 47626 C 4696.15 -1.52408 3.02472 0
M  V30 47627 C 4695.19 -1.01688 4.142 0
M  V30 47628 S 4696.02 0.065636 5.3546 0
M  V30 47629 C 4697.18 -1.08816 6.16368 0
M  V30 47630 H 4697.41 0.259087 2.96169 0
M  V30 47631 H 4694.95 0.252474 1.52322 0
M  V30 47632 H 4696.9 -2.1831 3.47636 0
M  V30 47633 H 4695.57 -2.12892 2.30946 0
M  V30 47634 H 4694.76 -1.87759 4.6772 0
M  V30 47635 H 4694.36 -0.435627 3.71454 0
M  V30 47636 H 4696.65 -2.00048 6.47292 0
M  V30 47637 H 4697.6 -0.59229 7.05619 0
M  V30 47638 H 4698 -1.34042 5.48355 0
M  V30 47639 N 4697.4 -1.56324 0.200105 0
M  V30 47640 C 4698.63 -2.01813 -0.442161 0
M  V30 47641 C 4699.04 -1.07938 -1.5539 0
M  V30 47642 O 4698.38 -0.077333 -1.83537 0
M  V30 47643 C 4698.44 -3.43688 -1.05445 0
M  V30 47644 C 4698.11 -4.56929 -0.0808227 0
M  V30 47645 C 4699.11 -5.15006 0.711652 0
M  V30 47646 C 4696.79 -5.0229 0.0317129 0
M  V30 47647 C 4698.78 -6.16899 1.60358 0
M  V30 47648 C 4696.47 -6.04025 0.927194 0
M  V30 47649 C 4697.47 -6.61204 1.71169 0
M  V30 47650 O 4697.16 -7.60962 2.59215 0
M  V30 47651 H 4696.89 -0.666177 -0.114825 0
M  V30 47652 H 4699.44 -2.03084 0.307583 0
M  V30 47653 H 4697.67 -3.39419 -1.85287 0
M  V30 47654 H 4699.36 -3.72954 -1.60188 0
M  V30 47655 H 4700.13 -4.80825 0.635042 0
M  V30 47656 H 4696.01 -4.57478 -0.568742 0
M  V30 47657 H 4699.55 -6.61456 2.21635 0
M  V30 47658 H 4695.45 -6.3763 1.0049 0
M  V30 47659 H 4696.22 -7.78401 2.53051 0
M  V30 47660 N 4698.88 0.0734624 -1.57429 0
M  V30 47661 C 4700.16 0.80584 -1.78229 0
M  V30 47662 C 4700.54 1.95871 -0.787258 0
M  V30 47663 O 4699.88 2.2779 0.179949 0
M  V30 47664 C 4700.09 1.28034 -3.24667 0
M  V30 47665 C 4701.44 1.71439 -3.8845 0
M  V30 47666 O 4702.47 1.37604 -3.28548 0
M  V30 47667 O 4701.33 2.34076 -4.93833 0
M  V30 47668 H 4698.42 0.386015 -0.731383 0
M  V30 47669 H 4700.97 0.0536673 -1.69615 0
M  V30 47670 H 4699.74 0.45534 -3.88642 0
M  V30 47671 H 4699.36 2.09388 -3.37998 0
M  V30 47672 N 4700.36 1.53782 0.344812 0
M  V30 47673 C 4701.3 1.81681 1.4234 0
M  V30 47674 C 4702.27 0.662429 1.52319 0
M  V30 47675 O 4703.46 0.906734 1.67878 0
M  V30 47676 C 4700.6 2.03097 2.79008 0
M  V30 47677 C 4699.71 3.30808 2.77831 0
M  V30 47678 C 4698.85 3.42299 4.06208 0
M  V30 47679 C 4697.89 4.63964 3.99254 0
M  V30 47680 N 4697.02 4.72495 5.19319 0
M  V30 47681 H 4701.86 2.73707 1.17848 0
M  V30 47682 H 4699.4 1.3557 0.570901 0
M  V30 47683 H 4701.36 2.13503 3.5843 0
M  V30 47684 H 4699.99 1.14385 3.01854 0
M  V30 47685 H 4699.04 3.2925 1.90521 0
M  V30 47686 H 4700.35 4.20324 2.68569 0
M  V30 47687 H 4699.51 3.5213 4.94054 0
M  V30 47688 H 4698.25 2.50837 4.18249 0
M  V30 47689 H 4697.25 4.54212 3.09793 0
M  V30 47690 H 4698.48 5.56789 3.88797 0
M  V30 47691 H 4696.42 3.83942 5.31906 0
M  V30 47692 H 4696.34 5.55945 5.1231 0
M  V30 47693 H 4697.61 4.86634 6.0894 0
M  V30 47694 N 4701.84 -0.605756 1.45494 0
M  V30 47695 C 4702.78 -1.73749 1.54642 0
M  V30 47696 C 4703.78 -1.64206 0.416277 0
M  V30 47697 O 4704.98 -1.69977 0.592259 0
M  V30 47698 H 4701.36 -0.574056 0.485761 0
M  V30 47699 H 4703.33 -1.6316 2.49843 0
M  V30 47700 C 4702.08 -3.1213 1.532 0
M  V30 47701 H 4701.4 -3.20133 2.39489 0
M  V30 47702 H 4702.84 -3.91142 1.63659 0
M  V30 47703 C 4701.3 -3.3592 0.256734 0
M  V30 47704 O 4701.83 -3.96197 -0.662659 0
M  V30 47705 N 4700.04 -2.90203 0.151853 0
M  V30 47706 H 4699.58 -2.41333 0.900895 0
M  V30 47707 H 4699.54 -3.06495 -0.700592 0
M  V30 47708 N 4703.31 -1.32814 -0.848417 0
M  V30 47709 C 4704.24 -1.24888 -1.97295 0
M  V30 47710 C 4705.23 -0.131416 -1.69592 0
M  V30 47711 O 4706.41 -0.31962 -1.91552 0
M  V30 47712 C 4703.54 -0.977577 -3.33258 0
M  V30 47713 C 4702.49 -2.05695 -3.75331 0
M  V30 47714 C 4701.82 -1.63795 -5.08995 0
M  V30 47715 C 4703.12 -3.47268 -3.90131 0
M  V30 47716 H 4704.81 -2.18974 -2.04184 0
M  V30 47717 H 4702.36 -1.05416 -0.980992 0
M  V30 47718 H 4704.31 -0.908658 -4.11487 0
M  V30 47719 H 4703.04 -0.00109483 -3.266 0
M  V30 47720 H 4701.7 -2.11613 -2.99358 0
M  V30 47721 H 4701.34 -0.648744 -4.98799 0
M  V30 47722 H 4701.04 -2.36019 -5.38116 0
M  V30 47723 H 4702.57 -1.58351 -5.8971 0
M  V30 47724 H 4703.98 -3.43904 -4.58697 0
M  V30 47725 H 4702.38 -4.17895 -4.30678 0
M  V30 47726 H 4703.45 -3.86472 -2.9286 0
M  V30 47727 N 4704.79 1.06547 -1.16127 0
M  V30 47728 C 4705.74 2.1606 -0.861447 0
M  V30 47729 C 4706.73 1.6856 0.168458 0
M  V30 47730 O 4707.94 1.79986 0.0226946 0
M  V30 47731 H 4704.32 0.705269 -0.260959 0
M  V30 47732 H 4706.29 2.3856 -1.79252 0
M  V30 47733 C 4705.04 3.45659 -0.37614 0
M  V30 47734 H 4704.36 3.826 -1.16005 0
M  V30 47735 H 4705.8 4.23504 -0.2051 0
M  V30 47736 C 4704.26 3.24549 0.90384 0
M  V30 47737 O 4704.79 3.49872 1.97365 0
M  V30 47738 N 4702.99 2.77995 0.846582 0
M  V30 47739 H 4702.54 2.57589 -0.0241923 0
M  V30 47740 H 4702.5 2.6425 1.7035 0
M  V30 47741 N 4706.27 0.959345 1.25037 0
M  V30 47742 C 4707.51 0.624412 1.94629 0
M  V30 47743 C 4707.87 -0.823969 1.73421 0
M  V30 47744 O 4709.08 -1.26872 2.36974 0
M  V30 47745 C 4707.35 0.978926 3.43732 0
M  V30 47746 S 4708.91 0.757279 4.32216 0
M  V30 47747 H 4705.72 0.22935 0.672993 0
M  V30 47748 H 4708.33 1.23452 1.51591 0
M  V30 47749 H 4707.03 2.0301 3.56672 0
M  V30 47750 H 4706.56 0.359255 3.91756 0
M  V30 47751 H 4708.58 -0.369585 4.94822 0
M  V30 47752 N 4707.75 -1.39754 0.728469 0
M  V30 47753 C 4708.99 -2.00941 0.273962 0
M  V30 47754 C 4709.33 -1.5766 -1.13389 0
M  V30 47755 O 4708.6 -0.802496 -1.77173 0
M  V30 47756 C 4708.89 -3.5821 0.368472 0
M  V30 47757 C 4708.74 -4.11528 1.81562 0
M  V30 47758 C 4710.06 -4.39373 -0.2529 0
M  V30 47759 H 4707.18 -0.730044 0.101022 0
M  V30 47760 H 4709.82 -1.66052 0.923395 0
M  V30 47761 H 4707.97 -3.88062 -0.184452 0
M  V30 47762 H 4709.64 -3.92422 2.42492 0
M  V30 47763 H 4707.88 -3.65333 2.33911 0
M  V30 47764 H 4708.55 -5.20675 1.83306 0
M  V30 47765 H 4711.03 -4.15527 0.21837 0
M  V30 47766 H 4709.91 -5.48677 -0.156392 0
M  V30 47767 H 4710.17 -4.21363 -1.33812 0
M  V30 47768 N 4709.23 -0.475607 -1.50252 0
M  V30 47769 C 4710.47 0.070036 -2.03279 0
M  V30 47770 C 4710.83 1.37002 -1.35086 0
M  V30 47771 O 4710.12 1.85768 -0.469118 0
M  V30 47772 C 4710.31 0.304989 -3.56096 0
M  V30 47773 C 4710.14 -0.97067 -4.39099 0
M  V30 47774 C 4708.91 -1.51526 -4.82046 0
M  V30 47775 C 4711.11 -1.86727 -4.79205 0
M  V30 47776 N 4709.09 -2.73947 -5.49387 0
M  V30 47777 C 4710.46 -2.93734 -5.46004 0
M  V30 47778 C 4712.52 -1.87711 -4.61161 0
M  V30 47779 C 4711.22 -4.0172 -5.96669 0
M  V30 47780 C 4713.25 -2.94655 -5.12769 0
M  V30 47781 C 4712.61 -4.00381 -5.79546 0
M  V30 47782 H 4708.71 -0.0145135 -0.781865 0
M  V30 47783 H 4711.29 -0.64482 -1.83712 0
M  V30 47784 H 4709.46 0.988887 -3.756 0
M  V30 47785 H 4711.2 0.845377 -3.95772 0
M  V30 47786 H 4707.95 -1.06383 -4.61497 0
M  V30 47787 H 4708.38 -3.3613 -5.87661 0
M  V30 47788 H 4713.02 -1.07288 -4.08961 0
M  V30 47789 H 4710.74 -4.82957 -6.47903 0
M  V30 47790 H 4714.32 -2.96406 -5.00635 0
M  V30 47791 H 4713.2 -4.81772 -6.18761 0
M  V30 47792 N 4710.7 1.56216 -0.208392 0
M  V30 47793 C 4711.95 1.97125 0.427135 0
M  V30 47794 C 4712.27 1.09864 1.61831 0
M  V30 47795 O 4713.47 1.40614 2.3225 0
M  V30 47796 C 4711.93 3.50636 0.811318 0
M  V30 47797 C 4711.54 4.46581 -0.356307 0
M  V30 47798 C 4713.28 4.00287 1.41318 0
M  V30 47799 C 4711.19 5.91379 0.0495773 0
M  V30 47800 H 4710.12 0.736092 0.163355 0
M  V30 47801 H 4712.77 1.80989 -0.30252 0
M  V30 47802 H 4711.15 3.62325 1.59802 0
M  V30 47803 H 4712.32 4.46632 -1.13386 0
M  V30 47804 H 4710.64 4.07198 -0.870539 0
M  V30 47805 H 4713.24 5.05956 1.72954 0
M  V30 47806 H 4713.58 3.45368 2.32437 0
M  V30 47807 H 4714.11 3.91767 0.690186 0
M  V30 47808 H 4710.85 6.50253 -0.827758 0
M  V30 47809 H 4710.37 5.94552 0.791717 0
M  V30 47810 H 4712.05 6.45211 0.480815 0
M  V30 47811 N 4712.18 -0.0651125 1.57465 0
M  V30 47812 C 4713.43 -0.76185 1.86758 0
M  V30 47813 C 4713.74 -1.78403 0.801988 0
M  V30 47814 O 4714.95 -2.53081 0.982974 0
M  V30 47815 C 4713.41 -1.40591 3.31304 0
M  V30 47816 C 4713.01 -0.421958 4.46008 0
M  V30 47817 C 4714.76 -2.08463 3.69789 0
M  V30 47818 C 4712.67 -1.07232 5.81597 0
M  V30 47819 H 4711.6 -0.288284 0.696713 0
M  V30 47820 H 4714.25 -0.0152795 1.83494 0
M  V30 47821 H 4712.63 -2.20097 3.29201 0
M  V30 47822 H 4713.8 0.343774 4.59516 0
M  V30 47823 H 4712.12 0.152673 4.1612 0
M  V30 47824 H 4714.71 -2.57909 4.68388 0
M  V30 47825 H 4715.06 -2.88701 2.99929 0
M  V30 47826 H 4715.59 -1.35779 3.7391 0
M  V30 47827 H 4712.33 -0.310112 6.54766 0
M  V30 47828 H 4711.85 -1.80875 5.71878 0
M  V30 47829 H 4713.53 -1.59021 6.27153 0
M  V30 47830 N 4713.66 -1.53962 -0.336652 0
M  V30 47831 C 4714.91 -1.70755 -1.07357 0
M  V30 47832 C 4715.22 -0.481128 -1.8959 0
M  V30 47833 O 4716.43 -0.53014 -2.66274 0
M  V30 47834 C 4714.88 -3.01972 -1.95808 0
M  V30 47835 C 4714.49 -4.31975 -1.18749 0
M  V30 47836 C 4716.24 -3.2813 -2.69315 0
M  V30 47837 C 4714.14 -5.54263 -2.06269 0
M  V30 47838 H 4713.07 -0.636306 -0.404512 0
M  V30 47839 H 4715.72 -1.8046 -0.332617 0
M  V30 47840 H 4714.11 -2.86141 -2.7375 0
M  V30 47841 H 4715.28 -4.58531 -0.456687 0
M  V30 47842 H 4713.6 -4.12483 -0.569801 0
M  V30 47843 H 4716.19 -4.16684 -3.3508 0
M  V30 47844 H 4716.54 -2.45438 -3.36253 0
M  V30 47845 H 4717.07 -3.44769 -1.98442 0
M  V30 47846 H 4713.81 -6.39519 -1.43862 0
M  V30 47847 H 4713.33 -5.31945 -2.77119 0
M  V30 47848 H 4715.01 -5.90168 -2.65162 0
M  V30 47849 N 4715.14 0.598031 -1.45813 0
M  V30 47850 C 4716.1 1.69012 -1.54814 0
M  V30 47851 C 4717.1 1.55035 -0.426706 0
M  V30 47852 O 4718.29 1.5993 -0.690513 0
M  V30 47853 C 4715.42 3.08345 -1.45382 0
M  V30 47854 H 4716.62 1.62394 -2.52127 0
M  V30 47855 H 4714.17 0.814579 -1.33395 0
M  V30 47856 H 4714.9 3.20532 -0.492906 0
M  V30 47857 H 4714.69 3.19899 -2.26732 0
M  V30 47858 H 4716.18 3.87875 -1.54734 0
M  V30 47859 N 4716.62 1.33262 0.841362 0
M  V30 47860 C 4718.03 1.22071 1.41265 0
M  V30 47861 C 4718.38 -0.161411 1.95535 0
M  V30 47862 O 4717.5 -1.06087 1.88612 0
M  V30 47863 C 4718.1 2.21005 2.56792 0
M  V30 47864 C 4716.66 2.1366 3.09881 0
M  V30 47865 C 4715.81 2.0863 1.82672 0
M  V30 47866 H 4718.76 1.44897 0.647345 0
M  V30 47867 H 4718.78 1.81632 3.3435 0
M  V30 47868 H 4718.29 3.21588 2.17263 0
M  V30 47869 H 4716.39 1.16372 3.53961 0
M  V30 47870 H 4716.5 3.04092 3.70223 0
M  V30 47871 H 4714.87 1.54068 2.02818 0
M  V30 47872 H 4715.65 3.11016 1.45342 0
M  V30 47873 N 4718.1 -1.0593 1.1669 0
M  V30 47874 C 4719.34 -1.79062 0.952093 0
M  V30 47875 C 4719.67 -1.87148 -0.518564 0
M  V30 47876 O 4718.95 -1.36579 -1.38479 0
M  V30 47877 C 4719.23 -3.23354 1.58475 0
M  V30 47878 C 4719.09 -3.23325 3.127 0
M  V30 47879 C 4720.4 -4.21 1.28247 0
M  V30 47880 H 4717.52 -0.650038 0.347303 0
M  V30 47881 H 4720.17 -1.23863 1.44076 0
M  V30 47882 H 4718.32 -3.70488 1.16921 0
M  V30 47883 H 4719.99 -2.84323 3.6326 0
M  V30 47884 H 4718.23 -2.61874 3.45839 0
M  V30 47885 H 4718.9 -4.25132 3.5209 0
M  V30 47886 H 4721.38 -3.82324 1.64217 0
M  V30 47887 H 4720.25 -5.20219 1.7511 0
M  V30 47888 H 4720.51 -4.41639 0.201946 0
M  V30 47889 N 4719.57 -0.965962 -1.24527 0
M  V30 47890 C 4720.52 -0.486586 -2.27454 0
M  V30 47891 C 4721.52 0.448983 -1.63342 0
M  V30 47892 O 4722.72 0.324465 -1.77051 0
M  V30 47893 H 4719.1 -0.138883 -0.739064 0
M  V30 47894 H 4721.07 -1.36669 -2.65262 0
M  V30 47895 C 4719.82 0.209359 -3.47069 0
M  V30 47896 H 4719.14 -0.501429 -3.96643 0
M  V30 47897 H 4720.58 0.508627 -4.20938 0
M  V30 47898 C 4719.04 1.43575 -3.04775 0
M  V30 47899 O 4719.57 2.53288 -3.11782 0
M  V30 47900 N 4717.77 1.30117 -2.59842 0
M  V30 47901 H 4717.32 0.408493 -2.54341 0
M  V30 47902 H 4717.28 2.12286 -2.3191 0
M  V30 47903 N 4721.05 1.39365 -0.73587 0
M  V30 47904 C 4722 2.30598 -0.0964635 0
M  V30 47905 C 4722.97 1.4926 0.728742 0
M  V30 47906 O 4724.15 1.77944 0.688526 0
M  V30 47907 C 4721.29 3.35599 0.804187 0
M  V30 47908 C 4720.41 4.31987 -0.0337279 0
M  V30 47909 C 4719.54 5.24056 0.868277 0
M  V30 47910 C 4718.58 6.12095 0.0256624 0
M  V30 47911 N 4717.72 6.96517 0.883648 0
M  V30 47912 H 4722.56 2.84707 -0.880102 0
M  V30 47913 H 4720.09 1.40186 -0.445669 0
M  V30 47914 H 4722.05 3.95067 1.34082 0
M  V30 47915 H 4720.68 2.82944 1.55379 0
M  V30 47916 H 4719.73 3.7413 -0.687792 0
M  V30 47917 H 4721.05 4.94071 -0.68521 0
M  V30 47918 H 4720.2 5.88554 1.47272 0
M  V30 47919 H 4718.94 4.62295 1.55354 0
M  V30 47920 H 4717.94 5.46608 -0.591578 0
M  V30 47921 H 4719.17 6.7592 -0.656393 0
M  V30 47922 H 4717.12 6.37323 1.55418 0
M  V30 47923 H 4717.03 7.55449 0.288665 0
M  V30 47924 H 4718.3 7.65444 1.47363 0
M  V30 47925 N 4722.53 0.483569 1.49998 0
M  V30 47926 C 4723.78 -0.0671879 2.02689 0
M  V30 47927 C 4724.11 -1.38242 1.36392 0
M  V30 47928 O 4723.38 -1.88129 0.493741 0
M  V30 47929 C 4723.67 -0.237983 3.59313 0
M  V30 47930 C 4723.52 1.09915 4.36164 0
M  V30 47931 C 4724.84 -0.986765 4.28895 0
M  V30 47932 H 4721.96 -0.0229437 0.736643 0
M  V30 47933 H 4724.6 0.63159 1.79195 0
M  V30 47934 H 4722.75 -0.833167 3.79461 0
M  V30 47935 H 4724.42 1.73187 4.27556 0
M  V30 47936 H 4722.66 1.69275 3.9941 0
M  V30 47937 H 4723.34 0.933146 5.44056 0
M  V30 47938 H 4725.81 -0.482157 4.13297 0
M  V30 47939 H 4724.69 -1.07509 5.38269 0
M  V30 47940 H 4724.95 -2.02636 3.92926 0
M  V30 47941 N 4724.01 -1.56103 0.216674 0
M  V30 47942 C 4725.26 -1.97349 -0.416675 0
M  V30 47943 C 4725.57 -1.10721 -1.61246 0
M  V30 47944 O 4726.78 -1.41844 -2.31501 0
M  V30 47945 C 4725.23 -3.51061 -0.792712 0
M  V30 47946 C 4724.84 -4.46386 0.379985 0
M  V30 47947 C 4726.58 -4.0103 -1.39194 0
M  V30 47948 C 4724.49 -5.91397 -0.0182144 0
M  V30 47949 H 4723.42 -0.736948 -0.159449 0
M  V30 47950 H 4726.07 -1.80826 0.312114 0
M  V30 47951 H 4724.45 -3.63167 -1.57878 0
M  V30 47952 H 4725.63 -4.46025 1.15753 0
M  V30 47953 H 4723.94 -4.06731 0.892121 0
M  V30 47954 H 4726.54 -5.06866 -1.70268 0
M  V30 47955 H 4726.88 -3.46595 -2.30602 0
M  V30 47956 H 4727.42 -3.92127 -0.6694 0
M  V30 47957 H 4724.15 -6.49804 0.86223 0
M  V30 47958 H 4723.67 -5.94963 -0.760175 0
M  V30 47959 H 4725.35 -6.45457 -0.446591 0
M  V30 47960 N 4725.49 0.0567608 -1.57498 0
M  V30 47961 C 4726.44 1.07307 -2.01169 0
M  V30 47962 C 4727.42 1.33629 -0.896218 0
M  V30 47963 O 4728.61 1.33678 -1.16014 0
M  V30 47964 C 4725.74 2.38249 -2.47169 0
M  V30 47965 C 4724.83 2.15137 -3.65482 0
M  V30 47966 N 4725.22 1.61997 -4.79156 0
M  V30 47967 C 4723.52 2.45546 -3.72322 0
M  V30 47968 C 4724.22 1.54049 -5.60931 0
M  V30 47969 N 4723.19 2.00634 -5.0522 0
M  V30 47970 H 4726.99 0.655777 -2.8649 0
M  V30 47971 H 4724.51 0.263579 -1.60247 0
M  V30 47972 H 4726.51 3.11836 -2.76702 0
M  V30 47973 H 4725.17 2.80682 -1.63242 0
M  V30 47974 H 4726.18 1.3065 -5.0115 0
M  V30 47975 H 4722.85 2.91242 -2.99139 0
M  V30 47976 H 4724.24 1.13689 -6.62212 0
M  V30 47977 N 4726.96 1.54139 0.328482 0
M  V30 47978 C 4727.89 1.86172 1.40933 0
M  V30 47979 C 4728.87 0.718098 1.54199 0
M  V30 47980 O 4730.06 0.971387 1.6816 0
M  V30 47981 C 4727.19 2.08471 2.77772 0
M  V30 47982 C 4726.14 3.24309 2.79299 0
M  V30 47983 C 4725.47 3.3197 4.19166 0
M  V30 47984 C 4726.77 4.62074 2.43485 0
M  V30 47985 H 4728.46 2.76693 1.14373 0
M  V30 47986 H 4726.01 1.33134 0.548759 0
M  V30 47987 H 4727.96 2.29465 3.53446 0
M  V30 47988 H 4726.69 1.14695 3.05798 0
M  V30 47989 H 4725.35 3.03194 2.06079 0
M  V30 47990 H 4724.99 2.35761 4.44326 0
M  V30 47991 H 4724.69 4.0982 4.21095 0
M  V30 47992 H 4726.22 3.55192 4.9666 0
M  V30 47993 H 4727.63 4.82981 3.08872 0
M  V30 47994 H 4726.03 5.42438 2.56674 0
M  V30 47995 H 4727.1 4.64657 1.38643 0
M  V30 47996 N 4728.44 -0.59029 1.46128 0
M  V30 47997 C 4729.67 -1.37498 1.54602 0
M  V30 47998 C 4730.08 -1.87896 0.184513 0
M  V30 47999 O 4729.44 -1.63195 -0.816927 0
M  V30 48000 C 4729.49 -2.5677 2.54463 0
M  V30 48001 O 4729.21 -2.08462 3.85325 0
M  V30 48002 C 4730.71 -3.49418 2.72804 0
M  V30 48003 H 4727.93 -0.420306 0.523052 0
M  V30 48004 H 4730.48 -0.718316 1.91469 0
M  V30 48005 H 4728.63 -3.18442 2.2062 0
M  V30 48006 H 4729.05 -2.86082 4.3961 0
M  V30 48007 H 4730.52 -4.29607 3.46615 0
M  V30 48008 H 4731 -4.0087 1.79443 0
M  V30 48009 H 4731.6 -2.93587 3.07712 0
M  V30 48010 N 4729.92 -1.33707 -0.834283 0
M  V30 48011 C 4731.17 -1.25423 -1.58982 0
M  V30 48012 C 4731.49 0.1788 -1.93676 0
M  V30 48013 O 4730.75 1.13718 -1.59269 0
M  V30 48014 C 4731.05 -2.07936 -2.90684 0
M  V30 48015 C 4730.71 -3.57075 -2.75333 0
M  V30 48016 C 4729.38 -3.97734 -2.70853 0
M  V30 48017 C 4731.73 -4.51826 -2.59812 0
M  V30 48018 C 4729.06 -5.31353 -2.48759 0
M  V30 48019 C 4731.41 -5.85612 -2.39251 0
M  V30 48020 C 4730.07 -6.25448 -2.33177 0
M  V30 48021 H 4729.34 -0.458954 -0.581758 0
M  V30 48022 H 4731.99 -1.65338 -0.966203 0
M  V30 48023 H 4730.29 -1.60812 -3.57277 0
M  V30 48024 H 4731.99 -1.98881 -3.48206 0
M  V30 48025 H 4728.58 -3.24795 -2.79654 0
M  V30 48026 H 4732.77 -4.2132 -2.62304 0
M  V30 48027 H 4728.02 -5.61249 -2.42506 0
M  V30 48028 H 4732.2 -6.58631 -2.26226 0
M  V30 48029 H 4729.82 -7.28922 -2.15818 0
M  V30 48030 N 4731.4 1.0531 -1.1725 0
M  V30 48031 C 4732.35 2.15134 -0.884314 0
M  V30 48032 C 4733.34 1.6873 0.15057 0
M  V30 48033 O 4734.55 1.8 0.00360345 0
M  V30 48034 H 4730.92 0.702462 -0.268425 0
M  V30 48035 H 4732.89 2.36646 -1.81773 0
M  V30 48036 C 4731.64 3.45241 -0.412781 0
M  V30 48037 H 4730.96 3.81348 -1.20056 0
M  V30 48038 H 4732.4 4.23262 -0.250007 0
M  V30 48039 C 4730.86 3.2549 0.869366 0
M  V30 48040 O 4731.39 3.51945 1.93643 0
M  V30 48041 N 4729.6 2.78878 0.817049 0
M  V30 48042 H 4729.15 2.57548 -0.0515116 0
M  V30 48043 H 4729.1 2.66042 1.67538 0
M  V30 48044 N 4732.88 0.972553 1.24013 0
M  V30 48045 C 4734.1 0.654872 1.96263 0
M  V30 48046 C 4734.52 -0.776648 1.72086 0
M  V30 48047 O 4733.88 -1.52167 1.00754 0
M  V30 48048 C 4733.93 0.926042 3.49438 0
M  V30 48049 O 4733.65 2.30129 3.7279 0
M  V30 48050 C 4735.15 0.623223 4.38897 0
M  V30 48051 H 4732.37 0.243929 0.625092 0
M  V30 48052 H 4734.91 1.3018 1.57713 0
M  V30 48053 H 4733.07 0.325243 3.86032 0
M  V30 48054 H 4733.48 2.38499 4.67139 0
M  V30 48055 H 4734.96 0.863381 5.45206 0
M  V30 48056 H 4735.43 -0.4426 4.36964 0
M  V30 48057 H 4736.04 1.20415 4.07898 0
M  V30 48058 N 4734.35 -1.38973 0.74325 0
M  V30 48059 C 4735.6 -2.00342 0.294823 0
M  V30 48060 C 4735.93 -1.58987 -1.12042 0
M  V30 48061 O 4735.18 -0.813872 -1.77974 0
M  V30 48062 C 4735.48 -3.55646 0.353642 0
M  V30 48063 C 4735.15 -4.16679 1.72307 0
M  V30 48064 C 4733.81 -4.33062 2.09787 0
M  V30 48065 C 4736.16 -4.50454 2.62184 0
M  V30 48066 C 4733.49 -4.80514 3.36635 0
M  V30 48067 C 4735.84 -4.99318 3.88413 0
M  V30 48068 C 4734.51 -5.13909 4.25974 0
M  V30 48069 H 4733.78 -0.733104 0.107883 0
M  V30 48070 H 4736.42 -1.66177 0.951709 0
M  V30 48071 H 4734.73 -3.89886 -0.386817 0
M  V30 48072 H 4736.43 -4.00998 -0.0115859 0
M  V30 48073 H 4733.02 -4.04334 1.42169 0
M  V30 48074 H 4737.2 -4.37408 2.34495 0
M  V30 48075 H 4732.46 -4.89995 3.6567 0
M  V30 48076 H 4736.63 -5.24424 4.58206 0
M  V30 48077 H 4734.26 -5.50438 5.2433 0
M  V30 48078 N 4735.83 -0.491517 -1.49739 0
M  V30 48079 C 4736.8 0.280826 -2.27473 0
M  V30 48080 C 4737.8 0.902407 -1.33091 0
M  V30 48081 O 4738.99 0.76841 -1.56336 0
M  V30 48082 C 4736.12 1.40198 -3.10737 0
M  V30 48083 H 4737.31 -0.401161 -2.97205 0
M  V30 48084 H 4734.86 -0.246186 -1.54349 0
M  V30 48085 H 4735.6 2.1184 -2.45549 0
M  V30 48086 H 4735.38 0.961836 -3.8012 0
M  V30 48087 H 4736.87 1.94627 -3.69473 0
M  V30 48088 N 4737.31 1.55986 -0.224949 0
M  V30 48089 C 4738.24 2.23428 0.678378 0
M  V30 48090 C 4739.22 1.20714 1.19842 0
M  V30 48091 O 4740.41 1.49308 1.2418 0
M  V30 48092 C 4737.54 2.91682 1.88517 0
M  V30 48093 C 4736.49 4.00898 1.49882 0
M  V30 48094 C 4735.82 4.56465 2.78467 0
M  V30 48095 C 4737.12 5.17772 0.686279 0
M  V30 48096 H 4738.81 2.99175 0.116068 0
M  V30 48097 H 4736.36 1.43897 0.0543854 0
M  V30 48098 H 4738.31 3.37556 2.52258 0
M  V30 48099 H 4737.03 2.13389 2.47251 0
M  V30 48100 H 4735.69 3.55761 0.88486 0
M  V30 48101 H 4735.34 3.74898 3.35352 0
M  V30 48102 H 4735.04 5.30177 2.53349 0
M  V30 48103 H 4736.56 5.05059 3.43144 0
M  V30 48104 H 4737.98 5.60005 1.22747 0
M  V30 48105 H 4736.38 5.97737 0.532049 0
M  V30 48106 H 4737.45 4.83931 -0.306366 0
M  V30 48107 N 4738.79 -0.0484076 1.57526 0
M  V30 48108 C 4739.7 -1.07233 2.08658 0
M  V30 48109 C 4740.71 -1.40896 1.021 0
M  V30 48110 O 4741.89 -1.50604 1.33718 0
M  V30 48111 C 4738.96 -2.35999 2.53979 0
M  V30 48112 C 4738.02 -2.09095 3.74937 0
M  V30 48113 C 4737.25 -3.31721 4.18087 0
M  V30 48114 O 4737.47 -4.41701 3.6091 0
M  V30 48115 O 4736.41 -3.18558 5.1069 0
M  V30 48116 H 4740.23 -0.667861 2.96266 0
M  V30 48117 H 4737.82 -0.264119 1.47047 0
M  V30 48118 H 4739.7 -3.11737 2.83546 0
M  V30 48119 H 4738.37 -2.7578 1.69491 0
M  V30 48120 H 4737.28 -1.30987 3.50419 0
M  V30 48121 H 4738.61 -1.74182 4.60349 0
M  V30 48122 N 4740.27 -1.54311 -0.320303 0
M  V30 48123 C 4741.23 -1.832 -1.37733 0
M  V30 48124 C 4742.23 -0.703957 -1.44572 0
M  V30 48125 O 4743.42 -0.972265 -1.44543 0
M  V30 48126 C 4740.55 -1.99496 -2.76431 0
M  V30 48127 H 4741.74 -2.77646 -1.1337 0
M  V30 48128 H 4739.3 -1.46078 -0.555961 0
M  V30 48129 H 4740.03 -1.07273 -3.06044 0
M  V30 48130 H 4739.82 -2.81584 -2.7286 0
M  V30 48131 H 4741.31 -2.23284 -3.52894 0
M  V30 48132 N 4741.74 0.582532 -1.46439 0
M  V30 48133 C 4742.71 1.67361 -1.56598 0
M  V30 48134 C 4743.71 1.54574 -0.443126 0
M  V30 48135 O 4744.9 1.59188 -0.707436 0
M  V30 48136 C 4742.03 3.06786 -1.48645 0
M  V30 48137 H 4743.22 1.59711 -2.53835 0
M  V30 48138 H 4740.78 0.800385 -1.34252 0
M  V30 48139 H 4741.51 3.19991 -0.526875 0
M  V30 48140 H 4741.3 3.17476 -2.30112 0
M  V30 48141 H 4742.79 3.86212 -1.5884 0
M  V30 48142 N 4743.22 1.34147 0.82718 0
M  V30 48143 C 4744.45 1.29481 1.62016 0
M  V30 48144 C 4744.87 -0.129226 1.87656 0
M  V30 48145 O 4744.23 -1.08962 1.44903 0
M  V30 48146 C 4744.28 2.08712 2.94061 0
M  V30 48147 O 4743.38 1.45372 3.85928 0
M  V30 48148 H 4742.72 0.444898 0.492912 0
M  V30 48149 H 4745.25 1.76886 1.02823 0
M  V30 48150 H 4745.26 2.1991 3.43662 0
M  V30 48151 H 4743.94 3.1225 2.74723 0
M  V30 48152 H 4742.52 1.42891 3.44437 0
M  V30 48153 N 4744.7 -1.04686 1.17807 0
M  V30 48154 C 4745.93 -1.81443 0.994293 0
M  V30 48155 C 4746.34 -1.83176 -0.457394 0
M  V30 48156 O 4745.7 -1.26269 -1.31766 0
M  V30 48157 C 4745.75 -3.27329 1.53421 0
M  V30 48158 O 4745.47 -3.25788 2.92906 0
M  V30 48159 C 4746.97 -4.20754 1.39574 0
M  V30 48160 H 4744.19 -0.571587 0.351467 0
M  V30 48161 H 4746.74 -1.31976 1.56213 0
M  V30 48162 H 4744.89 -3.74049 1.00828 0
M  V30 48163 H 4745.31 -4.17133 3.17963 0
M  V30 48164 H 4746.78 -5.21078 1.82159 0
M  V30 48165 H 4747.26 -4.37854 0.343548 0
M  V30 48166 H 4747.86 -3.79894 1.91209 0
M  V30 48167 N 4746.18 -0.979116 -1.23495 0
M  V30 48168 C 4747.6 -0.687526 -1.44032 0
M  V30 48169 C 4747.8 0.746735 -1.87153 0
M  V30 48170 O 4746.85 1.51932 -2.01675 0
M  V30 48171 C 4748.16 -1.68136 -2.49301 0
M  V30 48172 C 4749.71 -1.69526 -2.63116 0
M  V30 48173 C 4750.19 -2.67736 -3.71593 0
M  V30 48174 N 4751.68 -2.66247 -3.79034 0
M  V30 48175 C 4752.41 -3.38907 -4.62525 0
M  V30 48176 N 4751.91 -4.21123 -5.50116 0
M  V30 48177 N 4753.7 -3.27678 -4.5671 0
M  V30 48178 H 4745.85 -1.90562 -0.938068 0
M  V30 48179 H 4748.12 -0.821068 -0.473869 0
M  V30 48180 H 4747.82 -2.707 -2.24531 0
M  V30 48181 H 4747.7 -1.46318 -3.47665 0
M  V30 48182 H 4750.08 -0.676662 -2.87237 0
M  V30 48183 H 4750.16 -1.95409 -1.65072 0
M  V30 48184 H 4749.81 -3.69736 -3.4822 0
M  V30 48185 H 4749.74 -2.39127 -4.69176 0
M  V30 48186 H 4752.23 -2.06579 -3.16439 0
M  V30 48187 H 4752.54 -4.73424 -6.1081 0
M  V30 48188 H 4750.89 -4.25214 -5.49744 0
M  V30 48189 H 4754.08 -2.629 -3.873 0
M  V30 48190 H 4754.25 -3.84566 -5.21549 0
M  V30 48191 N 4747.66 1.38577 -0.75061 0
M  V30 48192 C 4748.59 2.29056 -0.0811519 0
M  V30 48193 C 4749.6 1.47598 0.686921 0
M  V30 48194 O 4750.79 1.70497 0.528503 0
M  V30 48195 C 4747.89 3.26478 0.909132 0
M  V30 48196 C 4747.06 4.36946 0.199324 0
M  V30 48197 C 4746.12 5.14576 1.09993 0
M  V30 48198 O 4745.15 5.66323 0.571571 0
M  V30 48199 N 4746.35 5.2727 2.4283 0
M  V30 48200 H 4749.12 2.8715 -0.858188 0
M  V30 48201 H 4746.68 1.50326 -0.601143 0
M  V30 48202 H 4748.67 3.7529 1.51458 0
M  V30 48203 H 4747.24 2.69304 1.58727 0
M  V30 48204 H 4746.46 3.89808 -0.586801 0
M  V30 48205 H 4747.75 5.07962 -0.291962 0
M  V30 48206 H 4747.15 4.86773 2.88216 0
M  V30 48207 H 4745.7 5.79466 2.98433 0
M  V30 48208 N 4749.14 0.499451 1.49477 0
M  V30 48209 C 4750.55 0.155316 1.58842 0
M  V30 48210 C 4750.75 -1.34003 1.50484 0
M  V30 48211 O 4749.81 -2.11584 1.37798 0
M  V30 48212 C 4751.12 0.730739 2.91686 0
M  V30 48213 C 4752.67 0.696707 3.05148 0
M  V30 48214 C 4753.14 1.25016 4.40607 0
M  V30 48215 N 4754.63 1.2108 4.47095 0
M  V30 48216 C 4755.37 1.60924 5.50355 0
M  V30 48217 N 4754.87 2.08354 6.60727 0
M  V30 48218 N 4756.66 1.5235 5.4106 0
M  V30 48219 H 4748.81 1.47167 1.53152 0
M  V30 48220 H 4751.07 0.610334 0.725394 0
M  V30 48221 H 4750.78 1.77939 3.03366 0
M  V30 48222 H 4750.65 0.190293 3.7672 0
M  V30 48223 H 4753.04 -0.343101 2.93099 0
M  V30 48224 H 4753.12 1.27428 2.21801 0
M  V30 48225 H 4752.76 2.28875 4.53408 0
M  V30 48226 H 4752.69 0.648544 5.22591 0
M  V30 48227 H 4755.19 0.863258 3.67908 0
M  V30 48228 H 4755.5 2.36831 7.35616 0
M  V30 48229 H 4753.84 2.12327 6.61772 0
M  V30 48230 H 4757.03 1.15116 4.53725 0
M  V30 48231 H 4757.21 1.83726 6.21409 0
M  V30 48232 N 4750.61 -1.55865 0.233218 0
M  V30 48233 C 4751.85 -2.00507 -0.397008 0
M  V30 48234 C 4752.22 -1.11765 -1.56117 0
M  V30 48235 O 4753.42 -1.45804 -2.2582 0
M  V30 48236 C 4751.69 -3.48112 -0.809478 0
M  V30 48237 S 4753.25 -4.1477 -1.43216 0
M  V30 48238 H 4750.07 -0.699832 -0.125522 0
M  V30 48239 H 4752.67 -1.92427 0.345244 0
M  V30 48240 H 4751.37 -4.10373 0.0473044 0
M  V30 48241 H 4750.9 -3.6009 -1.58425 0
M  V30 48242 H 4752.92 -4.14924 -2.72126 0
M  V30 48243 N 4752.09 0.0400529 -1.57549 0
M  V30 48244 C 4753.02 1.04376 -2.08873 0
M  V30 48245 C 4754 1.38403 -0.988866 0
M  V30 48246 O 4755.19 1.47479 -1.26347 0
M  V30 48247 C 4752.32 2.34799 -2.55903 0
M  V30 48248 C 4751.27 2.15044 -3.70054 0
M  V30 48249 C 4750.6 3.5113 -4.03251 0
M  V30 48250 C 4751.9 1.54558 -4.98908 0
M  V30 48251 H 4753.59 0.616563 -2.92983 0
M  V30 48252 H 4751.14 0.295134 -1.40943 0
M  V30 48253 H 4753.09 3.05336 -2.90427 0
M  V30 48254 H 4751.81 2.79559 -1.68862 0
M  V30 48255 H 4750.47 1.46942 -3.35862 0
M  V30 48256 H 4750.12 3.93518 -3.13293 0
M  V30 48257 H 4749.82 3.38741 -4.80134 0
M  V30 48258 H 4751.35 4.23047 -4.403 0
M  V30 48259 H 4752.76 2.14998 -5.31459 0
M  V30 48260 H 4751.16 1.52776 -5.80327 0
M  V30 48261 H 4752.23 0.510221 -4.82208 0
M  V30 48262 N 4753.57 1.54478 0.312115 0
M  V30 48263 C 4754.8 1.76951 1.06639 0
M  V30 48264 C 4755.21 0.523657 1.81809 0
M  V30 48265 O 4754.55 -0.515718 1.76312 0
M  V30 48266 C 4754.61 2.91676 2.10156 0
M  V30 48267 C 4754.28 4.3017 1.54281 0
M  V30 48268 C 4755.27 5.10607 0.978613 0
M  V30 48269 C 4752.96 4.76744 1.58179 0
M  V30 48270 C 4754.95 6.35732 0.460825 0
M  V30 48271 C 4752.64 6.01834 1.06013 0
M  V30 48272 C 4753.64 6.81163 0.500604 0
M  V30 48273 O 4753.33 8.03899 -0.0131784 0
M  V30 48274 H 4753.06 0.594099 0.322525 0
M  V30 48275 H 4755.61 2.02214 0.36037 0
M  V30 48276 H 4753.84 2.62011 2.84406 0
M  V30 48277 H 4755.53 3.01826 2.71396 0
M  V30 48278 H 4756.3 4.75774 0.941484 0
M  V30 48279 H 4752.18 4.15034 2.00669 0
M  V30 48280 H 4755.72 6.97596 0.0234441 0
M  V30 48281 H 4751.62 6.36156 1.09437 0
M  V30 48282 H 4752.38 8.18437 0.10117 0
M  V30 48283 N 4755.05 -0.574758 1.46746 0
M  V30 48284 C 4756.32 -1.33515 1.42944 0
M  V30 48285 C 4756.7 -2.10775 0.117083 0
M  V30 48286 O 4756.05 -2.09969 -0.9014 0
M  V30 48287 C 4756.26 -2.25446 2.66411 0
M  V30 48288 C 4757.61 -2.87024 3.12893 0
M  V30 48289 O 4758.63 -2.35756 2.67016 0
M  V30 48290 O 4757.49 -3.80165 3.92603 0
M  V30 48291 H 4754.59 -0.600298 0.568833 0
M  V30 48292 H 4757.13 -0.595115 1.58923 0
M  V30 48293 H 4755.91 -1.67839 3.53477 0
M  V30 48294 H 4755.53 -3.06776 2.52931 0
M  V30 48295 N 4756.53 -1.34584 -0.820054 0
M  V30 48296 C 4757.76 -1.29997 -1.60575 0
M  V30 48297 C 4758.16 0.127522 -1.8877 0
M  V30 48298 O 4757.51 1.08589 -1.48169 0
M  V30 48299 C 4757.57 -2.02558 -2.97003 0
M  V30 48300 C 4757.23 -3.51805 -2.91689 0
M  V30 48301 C 4758.23 -4.46657 -2.66071 0
M  V30 48302 C 4755.91 -3.94259 -3.11231 0
M  V30 48303 C 4757.91 -5.81938 -2.60051 0
M  V30 48304 C 4755.6 -5.2964 -3.04835 0
M  V30 48305 C 4756.59 -6.23292 -2.79278 0
M  V30 48306 O 4756.28 -7.56191 -2.7282 0
M  V30 48307 H 4756.01 -0.448557 -0.50574 0
M  V30 48308 H 4758.57 -1.77815 -1.02815 0
M  V30 48309 H 4756.8 -1.49358 -3.56692 0
M  V30 48310 H 4758.49 -1.91223 -3.58034 0
M  V30 48311 H 4759.25 -4.15177 -2.50706 0
M  V30 48312 H 4755.13 -3.21761 -3.30138 0
M  V30 48313 H 4758.68 -6.55007 -2.40023 0
M  V30 48314 H 4754.57 -5.60738 -3.19754 0
M  V30 48315 H 4755.34 -7.6596 -2.88526 0
M  V30 48316 N 4758 1.0406 -1.18361 0
M  V30 48317 C 4759.25 1.77524 -0.98046 0
M  V30 48318 C 4759.58 1.8795 0.488724 0
M  V30 48319 O 4758.86 1.38765 1.36289 0
M  V30 48320 C 4759.14 3.20792 -1.63599 0
M  V30 48321 C 4758.99 3.18309 -3.17804 0
M  V30 48322 C 4760.31 4.18906 -1.34929 0
M  V30 48323 H 4757.43 0.644431 -0.357601 0
M  V30 48324 H 4760.07 1.21555 -1.46029 0
M  V30 48325 H 4758.22 3.68581 -1.22801 0
M  V30 48326 H 4759.9 2.78508 -3.67738 0
M  V30 48327 H 4758.14 2.56339 -3.49961 0
M  V30 48328 H 4758.81 4.19476 -3.58808 0
M  V30 48329 H 4761.29 3.79664 -1.70279 0
M  V30 48330 H 4760.16 5.17367 -1.83364 0
M  V30 48331 H 4760.42 4.41261 -0.272182 0
M  V30 48332 N 4759.48 0.985651 1.22974 0
M  V30 48333 C 4760.43 0.529904 2.24634 0
M  V30 48334 C 4761.4 -0.433972 1.60331 0
M  V30 48335 O 4762.58 -0.340348 1.8774 0
M  V30 48336 C 4759.72 -0.156411 3.44745 0
M  V30 48337 C 4758.84 0.848346 4.23588 0
M  V30 48338 C 4757.97 0.136296 5.31025 0
M  V30 48339 C 4757.01 1.12991 6.01581 0
M  V30 48340 N 4756.15 0.446662 7.00678 0
M  V30 48341 H 4760.99 1.40157 2.62983 0
M  V30 48342 H 4758.52 0.702213 1.29257 0
M  V30 48343 H 4760.48 -0.571179 4.13272 0
M  V30 48344 H 4759.11 -0.991917 3.07182 0
M  V30 48345 H 4758.16 1.38147 3.54428 0
M  V30 48346 H 4759.48 1.60528 4.72263 0
M  V30 48347 H 4758.63 -0.335571 6.05771 0
M  V30 48348 H 4757.37 -0.653203 4.83306 0
M  V30 48349 H 4756.37 1.61248 5.25623 0
M  V30 48350 H 4757.6 1.92016 6.51388 0
M  V30 48351 H 4755.55 -0.323533 6.55202 0
M  V30 48352 H 4755.46 1.14217 7.47322 0
M  V30 48353 H 4756.73 -0.00264293 7.795 0
M  V30 48354 N 4760.96 -1.38177 0.757949 0
M  V30 48355 C 4761.89 -2.33026 0.148679 0
M  V30 48356 C 4762.87 -1.55088 -0.698695 0
M  V30 48357 O 4764.06 -1.83386 -0.638988 0
M  V30 48358 C 4761.19 -3.39283 -0.741915 0
M  V30 48359 C 4760.14 -4.28 0.00306992 0
M  V30 48360 C 4759.47 -5.2515 -1.00606 0
M  V30 48361 C 4760.77 -5.08934 1.17403 0
M  V30 48362 H 4762.46 -2.84228 0.941009 0
M  V30 48363 H 4760.01 -1.36657 0.453956 0
M  V30 48364 H 4761.96 -4.04604 -1.17785 0
M  V30 48365 H 4760.68 -2.86574 -1.56661 0
M  V30 48366 H 4759.34 -3.6419 0.419632 0
M  V30 48367 H 4758.99 -4.68727 -1.82494 0
M  V30 48368 H 4758.69 -5.85363 -0.512222 0
M  V30 48369 H 4760.21 -5.93347 -1.44122 0
M  V30 48370 H 4761.63 -5.67471 0.815423 0
M  V30 48371 H 4760.03 -5.78404 1.59902 0
M  V30 48372 H 4761.1 -4.42417 1.98483 0
M  V30 48373 N 4762.44 -0.507371 -1.4921 0
M  V30 48374 C 4763.67 0.0314565 -2.06576 0
M  V30 48375 C 4764.08 1.30786 -1.36718 0
M  V30 48376 O 4763.42 1.78322 -0.441244 0
M  V30 48377 C 4763.48 0.348978 -3.57802 0
M  V30 48378 C 4763.15 -0.830633 -4.49388 0
M  V30 48379 C 4764.14 -1.72288 -4.90523 0
M  V30 48380 C 4761.83 -1.03124 -4.916 0
M  V30 48381 C 4763.82 -2.79984 -5.72615 0
M  V30 48382 C 4761.51 -2.11136 -5.73467 0
M  V30 48383 C 4762.51 -2.994 -6.1388 0
M  V30 48384 O 4762.19 -4.05547 -6.94108 0
M  V30 48385 H 4761.93 -0.020124 -0.6757 0
M  V30 48386 H 4764.48 -0.705805 -1.92893 0
M  V30 48387 H 4762.71 1.13992 -3.69517 0
M  V30 48388 H 4764.4 0.827179 -3.97382 0
M  V30 48389 H 4765.17 -1.57974 -4.58551 0
M  V30 48390 H 4761.04 -0.353579 -4.59642 0
M  V30 48391 H 4764.59 -3.48906 -6.04078 0
M  V30 48392 H 4760.49 -2.25443 -6.04852 0
M  V30 48393 H 4761.25 -4.02978 -7.12426 0
M  V30 48394 N 4763.92 1.55739 -0.241481 0
M  V30 48395 C 4765.19 1.90706 0.434813 0
M  V30 48396 C 4765.57 1.16151 1.76273 0
M  V30 48397 O 4764.92 0.277231 2.26812 0
M  V30 48398 C 4765.13 3.43659 0.608222 0
M  V30 48399 C 4766.48 4.14809 0.906579 0
M  V30 48400 O 4767.5 3.49368 0.694285 0
M  V30 48401 O 4766.36 5.30553 1.31056 0
M  V30 48402 H 4763.46 0.793601 0.232652 0
M  V30 48403 H 4766 1.67287 -0.285145 0
M  V30 48404 H 4764.77 3.89926 -0.327642 0
M  V30 48405 H 4764.4 3.72923 1.37892 0
M  V30 48406 N 4765.39 -0.0316971 1.57568 0
M  V30 48407 C 4766.64 -0.721609 1.88778 0
M  V30 48408 C 4766.96 -1.76036 0.838834 0
M  V30 48409 O 4766.23 -1.95482 -0.127866 0
M  V30 48410 H 4764.81 -0.269509 0.696688 0
M  V30 48411 H 4767.48 0.00172731 1.949 0
M  V30 48412 H 4766.57 -1.21283 2.87571 0
M  V30 48413 N 4766.87 -1.54642 -0.303919 0
M  V30 48414 C 4768.15 -1.64458 -1.05891 0
M  V30 48415 C 4768.53 -0.490996 -2.05311 0
M  V30 48416 O 4767.88 0.512607 -2.22676 0
M  V30 48417 C 4768.09 -3.02337 -1.74336 0
M  V30 48418 C 4769.44 -3.59053 -2.2664 0
M  V30 48419 O 4770.46 -3.0477 -1.84373 0
M  V30 48420 O 4769.32 -4.54092 -3.04077 0
M  V30 48421 H 4766.41 -0.666746 -0.489264 0
M  V30 48422 H 4768.96 -1.66987 -0.302239 0
M  V30 48423 H 4767.73 -3.77737 -1.02129 0
M  V30 48424 H 4767.35 -3.03574 -2.56766 0
M  V30 48425 N 4768.35 0.566968 -1.47048 0
M  V30 48426 C 4769.58 1.35505 -1.57013 0
M  V30 48427 C 4770 1.8684 -0.217324 0
M  V30 48428 O 4769.36 1.62438 0.805211 0
M  V30 48429 C 4769.41 2.50768 -2.59129 0
M  V30 48430 O 4768.51 3.52698 -2.13723 0
M  V30 48431 H 4767.85 0.402901 -0.527794 0
M  V30 48432 H 4770.38 0.686173 -1.92751 0
M  V30 48433 H 4770.39 2.97471 -2.7924 0
M  V30 48434 H 4769.07 2.12758 -3.57361 0
M  V30 48435 H 4767.64 3.12367 -2.0367 0
M  V30 48436 N 4769.83 1.35017 0.812906 0
M  V30 48437 C 4770.74 1.29517 1.95608 0
M  V30 48438 C 4771.75 0.201131 1.72834 0
M  V30 48439 O 4772.93 0.42939 1.96769 0
M  V30 48440 C 4770 1.06045 3.30084 0
M  V30 48441 C 4769.06 2.24701 3.65798 0
M  V30 48442 C 4768.29 2.0234 4.93857 0
M  V30 48443 O 4768.51 0.986662 5.61802 0
M  V30 48444 O 4767.45 2.89544 5.27682 0
M  V30 48445 H 4771.27 2.25712 2.03194 0
M  V30 48446 H 4768.86 1.15324 0.94977 0
M  V30 48447 H 4770.74 0.947774 4.10603 0
M  V30 48448 H 4769.41 0.128965 3.23443 0
M  V30 48449 H 4768.32 2.41531 2.85681 0
M  V30 48450 H 4769.65 3.16274 3.77136 0
M  V30 48451 N 4771.31 -1.03431 1.18911 0
M  V30 48452 C 4772.25 -2.137 0.918428 0
M  V30 48453 C 4773.25 -1.68948 -0.123708 0
M  V30 48454 O 4774.45 -1.79983 0.0250334 0
M  V30 48455 H 4770.83 -0.698102 0.279566 0
M  V30 48456 H 4772.8 -2.33724 1.85514 0
M  V30 48457 C 4771.55 -3.44541 0.467653 0
M  V30 48458 H 4770.87 -3.7939 1.26108 0
M  V30 48459 H 4772.31 -4.22811 0.317312 0
M  V30 48460 C 4770.77 -3.26832 -0.817473 0
M  V30 48461 O 4771.3 -3.54981 -1.88019 0
M  V30 48462 N 4769.51 -2.80142 -0.772579 0
M  V30 48463 H 4769.05 -2.57434 0.0924788 0
M  V30 48464 H 4769.01 -2.68674 -1.63284 0
M  V30 48465 N 4772.78 -0.992159 -1.2245 0
M  V30 48466 C 4773.75 -0.546961 -2.22578 0
M  V30 48467 C 4774.75 0.369774 -1.56491 0
M  V30 48468 O 4775.94 0.161835 -1.73447 0
M  V30 48469 C 4773.07 0.204539 -3.40286 0
M  V30 48470 H 4774.26 -1.43244 -2.63479 0
M  V30 48471 H 4771.82 -0.779286 -1.35487 0
M  V30 48472 H 4772.55 1.10603 -3.04856 0
M  V30 48473 H 4772.34 -0.453677 -3.89467 0
M  V30 48474 H 4773.83 0.504212 -4.14545 0
M  V30 48475 N 4774.26 1.37773 -0.765266 0
M  V30 48476 C 4775.21 2.32209 -0.13488 0
M  V30 48477 C 4776.2 1.5461 0.692261 0
M  V30 48478 O 4777.41 1.70054 0.590049 0
M  V30 48479 H 4773.79 0.75159 -0.0248269 0
M  V30 48480 H 4775.76 2.82967 -0.947218 0
M  V30 48481 C 4774.51 3.39844 0.734944 0
M  V30 48482 H 4773.83 3.99655 0.107851 0
M  V30 48483 H 4775.27 4.083 1.14311 0
M  V30 48484 C 4773.73 2.79384 1.88271 0
M  V30 48485 O 4774.26 2.69618 2.97773 0
M  V30 48486 N 4772.46 2.37022 1.68134 0
M  V30 48487 H 4772.01 2.45165 0.790686 0
M  V30 48488 H 4771.97 1.96913 2.45097 0
M  V30 48489 N 4775.74 0.515277 1.48938 0
M  V30 48490 C 4776.67 -0.244546 2.32216 0
M  V30 48491 C 4777.65 -0.949087 1.41161 0
M  V30 48492 O 4778.84 -0.937723 1.7006 0
M  V30 48493 C 4775.97 -1.30085 3.22017 0
M  V30 48494 C 4774.92 -0.715338 4.2198 0
M  V30 48495 C 4774.25 -1.87321 5.00814 0
M  V30 48496 C 4775.55 0.303165 5.21419 0
M  V30 48497 H 4777.24 0.450605 2.9599 0
M  V30 48498 H 4774.79 0.218148 1.42338 0
M  V30 48499 H 4776.74 -1.84024 3.79095 0
M  V30 48500 H 4775.46 -2.02538 2.56214 0
M  V30 48501 H 4774.12 -0.197586 3.66067 0
M  V30 48502 H 4773.77 -2.58577 4.31447 0
M  V30 48503 H 4773.47 -1.48744 5.68462 0
M  V30 48504 H 4775 -2.41667 5.6074 0
M  V30 48505 H 4776.41 -0.148601 5.73107 0
M  V30 48506 H 4774.81 0.60553 5.97037 0
M  V30 48507 H 4775.88 1.21411 4.69454 0
M  V30 48508 N 4777.22 -1.55609 0.249737 0
M  V30 48509 C 4778.18 -2.20219 -0.635316 0
M  V30 48510 C 4779.18 -1.17231 -1.10062 0
M  V30 48511 O 4780.37 -1.42295 -1.00487 0
M  V30 48512 C 4777.5 -2.84801 -1.87353 0
M  V30 48513 H 4778.7 -2.99815 -0.0715698 0
M  V30 48514 H 4776.25 -1.563 0.000208181 0
M  V30 48515 H 4776.99 -2.0915 -2.47844 0
M  V30 48516 H 4776.77 -3.60246 -1.54807 0
M  V30 48517 H 4778.26 -3.34239 -2.50348 0
M  V30 48518 N 4778.7 0.0233405 -1.57583 0
M  V30 48519 C 4779.95 0.711588 -1.89158 0
M  V30 48520 C 4780.27 1.75588 -0.848158 0
M  V30 48521 O 4779.54 1.95547 0.117497 0
M  V30 48522 H 4778.12 0.265811 -0.698107 0
M  V30 48523 H 4780.78 -0.0120633 -1.94896 0
M  V30 48524 H 4779.87 1.19756 -2.8821 0
M  V30 48525 N 4780.18 1.54801 0.295713 0
M  V30 48526 C 4781.4 1.78331 1.04908 0
M  V30 48527 C 4781.82 0.545379 1.80751 0
M  V30 48528 O 4781.18 -0.484952 1.75939 0
M  V30 48529 C 4781.23 2.99425 2.0255 0
M  V30 48530 O 4780.95 4.18435 1.29783 0
M  V30 48531 C 4782.45 3.35385 2.89883 0
M  V30 48532 H 4779.67 0.594629 0.310897 0
M  V30 48533 H 4782.21 2.01764 0.333383 0
M  V30 48534 H 4780.37 2.78185 2.69614 0
M  V30 48535 H 4780.78 4.86743 1.95402 0
M  V30 48536 H 4782.26 4.23345 3.54236 0
M  V30 48537 H 4782.73 2.53774 3.58463 0
M  V30 48538 H 4783.34 3.58804 2.28342 0
M  V30 48539 N 4781.65 -0.559161 1.47347 0
M  V30 48540 C 4782.9 -1.31642 1.53872 0
M  V30 48541 C 4783.23 -1.93467 0.200172 0
M  V30 48542 O 4782.48 -1.78298 -0.806736 0
M  V30 48543 C 4782.78 -2.44844 2.60358 0
M  V30 48544 C 4782.45 -2.00862 4.0369 0
M  V30 48545 C 4781.11 -1.88583 4.42707 0
M  V30 48546 C 4783.46 -1.67262 4.93632 0
M  V30 48547 C 4780.79 -1.40997 5.69506 0
M  V30 48548 C 4783.14 -1.21148 6.20891 0
M  V30 48549 C 4781.81 -1.07464 6.58793 0
M  V30 48550 H 4781.08 -0.481714 0.563057 0
M  V30 48551 H 4783.72 -0.627237 1.80936 0
M  V30 48552 H 4782.03 -3.1931 2.27043 0
M  V30 48553 H 4783.73 -3.03029 2.6263 0
M  V30 48554 H 4780.32 -2.11361 3.7286 0
M  V30 48555 H 4784.5 -1.75622 4.64188 0
M  V30 48556 H 4779.76 -1.29065 5.97622 0
M  V30 48557 H 4783.93 -0.942102 6.89998 0
M  V30 48558 H 4781.56 -0.70368 7.56936 0
M  V30 48559 N 4783.13 -1.35446 -0.805734 0
M  V30 48560 C 4784.37 -1.30133 -1.57623 0
M  V30 48561 C 4784.74 0.122499 -1.91609 0
M  V30 48562 O 4785.94 0.300013 -2.6712 0
M  V30 48563 C 4784.21 -2.18324 -2.82966 0
M  V30 48564 S 4785.77 -2.30534 -3.73362 0
M  V30 48565 H 4782.58 -0.462458 -0.54005 0
M  V30 48566 H 4785.19 -1.70846 -0.95036 0
M  V30 48567 H 4783.89 -3.2075 -2.56022 0
M  V30 48568 H 4783.42 -1.7857 -3.50537 0
M  V30 48569 H 4785.44 -1.49079 -4.73276 0
M  V30 48570 N 4784.61 1.02799 -1.19458 0
M  V30 48571 C 4785.86 1.75865 -0.995784 0
M  V30 48572 C 4786.18 1.89139 0.474477 0
M  V30 48573 O 4785.45 1.42562 1.34361 0
M  V30 48574 H 4784.03 0.651498 -0.365458 0
M  V30 48575 H 4786.69 1.23999 -1.50367 0
M  V30 48576 H 4785.79 2.76656 -1.44456 0
M  V30 48577 N 4786.09 0.998639 1.21922 0
M  V30 48578 C 4787.31 0.696084 1.9537 0
M  V30 48579 C 4787.74 -0.733765 1.73198 0
M  V30 48580 O 4787.1 -1.50238 1.0148 0
M  V30 48581 C 4787.14 1.01478 3.46027 0
M  V30 48582 O 4786.25 0.11656 4.12235 0
M  V30 48583 H 4785.59 0.25996 0.610997 0
M  V30 48584 H 4788.12 1.33717 1.54858 0
M  V30 48585 H 4788.13 0.958994 3.96569 0
M  V30 48586 H 4786.8 2.05665 3.61489 0
M  V30 48587 H 4785.38 0.228324 3.722 0
M  V30 48588 N 4787.57 -1.37365 0.772562 0
M  V30 48589 C 4788.79 -2.03941 0.348659 0
M  V30 48590 C 4789.21 -1.58267 -1.02941 0
M  V30 48591 O 4788.57 -0.764305 -1.65725 0
M  V30 48592 C 4788.62 -3.59459 0.383637 0
M  V30 48593 O 4788.34 -4.03462 1.70735 0
M  V30 48594 C 4789.84 -4.4327 -0.0517594 0
M  V30 48595 H 4787.06 -0.654926 0.145989 0
M  V30 48596 H 4789.6 -1.75682 1.04671 0
M  V30 48597 H 4787.76 -3.86487 -0.265842 0
M  V30 48598 H 4788.17 -4.97985 1.64653 0
M  V30 48599 H 4789.65 -5.51995 0.0238673 0
M  V30 48600 H 4790.12 -4.25144 -1.10223 0
M  V30 48601 H 4790.73 -4.21469 0.569563 0
M  V30 48602 N 4789.04 -0.523168 -1.48663 0
M  V30 48603 C 4790.29 0.013425 -2.02796 0
M  V30 48604 C 4790.62 1.34577 -1.40009 0
M  V30 48605 O 4789.9 1.86754 -0.543447 0
M  V30 48606 C 4790.18 0.142634 -3.59817 0
M  V30 48607 C 4790.03 -1.2144 -4.33096 0
M  V30 48608 C 4791.35 0.872704 -4.31361 0
M  V30 48609 H 4788.47 0.00340483 -0.736992 0
M  V30 48610 H 4791.11 -0.678878 -1.77458 0
M  V30 48611 H 4789.26 0.732267 -3.81537 0
M  V30 48612 H 4790.94 -1.84462 -4.22814 0
M  V30 48613 H 4789.18 -1.79805 -3.94782 0
M  V30 48614 H 4789.85 -1.07706 -5.4139 0
M  V30 48615 H 4792.33 0.372409 -4.1443 0
M  V30 48616 H 4791.2 0.931995 -5.4093 0
M  V30 48617 H 4791.46 1.92147 -3.98161 0
M  V30 48618 N 4790.52 1.55474 -0.257986 0
M  V30 48619 C 4791.93 1.85111 0.24307 0
M  V30 48620 C 4792.28 1.17992 1.56756 0
M  V30 48621 O 4791.41 0.462176 2.11407 0
M  V30 48622 C 4792 3.35827 0.447811 0
M  V30 48623 C 4790.56 3.65651 0.893117 0
M  V30 48624 C 4789.71 2.7729 -0.023394 0
M  V30 48625 H 4792.66 1.51259 -0.480252 0
M  V30 48626 H 4792.68 3.58007 1.28886 0
M  V30 48627 H 4792.19 3.8465 -0.516331 0
M  V30 48628 H 4790.3 3.22314 1.86934 0
M  V30 48629 H 4790.41 4.73315 0.742302 0
M  V30 48630 H 4788.77 2.49943 0.489934 0
M  V30 48631 H 4789.56 3.28922 -0.98311 0
M  V30 48632 N 4792 -0.0149831 1.57593 0
M  V30 48633 C 4792.96 -0.995924 2.06432 0
M  V30 48634 C 4793.96 -1.28177 0.970948 0
M  V30 48635 O 4795.15 -1.22945 1.23411 0
M  V30 48636 C 4792.29 -2.32497 2.49315 0
M  V30 48637 H 4793.48 -0.57377 2.9436 0
M  V30 48638 H 4791.03 -0.262132 1.54086 0
M  V30 48639 H 4791.77 -2.79432 1.64585 0
M  V30 48640 H 4791.55 -2.13075 3.29152 0
M  V30 48641 H 4793.04 -3.02896 2.87478 0
M  V30 48642 N 4793.48 -1.54955 -0.2875 0
M  V30 48643 C 4794.89 -1.65735 -0.859575 0
M  V30 48644 C 4795.24 -0.574833 -1.8759 0
M  V30 48645 O 4794.37 0.286223 -2.14499 0
M  V30 48646 C 4794.96 -3.00443 -1.56586 0
M  V30 48647 C 4793.52 -3.13299 -2.08616 0
M  V30 48648 C 4792.67 -2.61477 -0.923324 0
M  V30 48649 H 4795.62 -1.5857 -0.064178 0
M  V30 48650 H 4795.64 -2.92622 -2.43214 0
M  V30 48651 H 4795.15 -3.7921 -0.825919 0
M  V30 48652 H 4793.25 -2.39278 -2.85616 0
M  V30 48653 H 4793.36 -4.19655 -2.31142 0
M  V30 48654 H 4791.73 -2.18268 -1.31267 0
M  V30 48655 H 4792.51 -3.42734 -0.19712 0
M  V30 48656 N 4794.96 0.551339 -1.47641 0
M  V30 48657 C 4796.2 1.30825 -1.54568 0
M  V30 48658 C 4796.53 1.93358 -0.210429 0
M  V30 48659 O 4795.79 1.78724 0.797269 0
M  V30 48660 C 4796.09 2.43459 -2.61653 0
M  V30 48661 C 4795.75 1.98718 -4.04749 0
M  V30 48662 C 4794.41 1.86233 -4.43701 0
M  V30 48663 C 4796.77 1.64642 -4.94512 0
M  V30 48664 C 4794.09 1.37975 -5.70245 0
M  V30 48665 C 4796.45 1.17853 -6.21525 0
M  V30 48666 C 4795.11 1.03968 -6.59353 0
M  V30 48667 H 4794.38 0.478721 -0.565603 0
M  V30 48668 H 4797.03 0.617633 -1.81266 0
M  V30 48669 H 4795.33 3.18101 -2.28733 0
M  V30 48670 H 4797.03 3.01632 -2.64233 0
M  V30 48671 H 4793.62 2.0938 -3.73976 0
M  V30 48672 H 4797.8 1.73158 -4.65113 0
M  V30 48673 H 4793.06 1.25894 -5.98298 0
M  V30 48674 H 4797.23 0.905497 -6.90488 0
M  V30 48675 H 4794.86 0.663528 -7.57299 0
M  V30 48676 N 4796.43 1.35872 0.79854 0
M  V30 48677 C 4797.68 1.28927 1.55115 0
M  V30 48678 C 4798 -0.132012 1.95154 0
M  V30 48679 O 4799.2 -0.323784 2.69562 0
M  V30 48680 C 4797.66 2.26151 2.79971 0
M  V30 48681 C 4797.27 3.73667 2.47138 0
M  V30 48682 C 4799.01 2.28165 3.57968 0
M  V30 48683 C 4796.92 4.62692 3.68334 0
M  V30 48684 H 4795.85 0.479052 0.582259 0
M  V30 48685 H 4798.5 1.61182 0.877069 0
M  V30 48686 H 4796.88 1.86877 3.49132 0
M  V30 48687 H 4798.05 4.21623 1.85933 0
M  V30 48688 H 4796.37 3.74339 1.8237 0
M  V30 48689 H 4798.97 2.91891 4.48 0
M  V30 48690 H 4799.31 1.28762 3.95886 0
M  V30 48691 H 4799.84 2.66009 2.95777 0
M  V30 48692 H 4796.58 5.63123 3.35518 0
M  V30 48693 H 4796.1 4.19457 4.28737 0
M  V30 48694 H 4797.78 4.78513 4.3547 0
M  V30 48695 N 4797.91 -1.02164 1.20001 0
M  V30 48696 C 4799.14 -1.79829 1.03325 0
M  V30 48697 C 4799.56 -1.83505 -0.413216 0
M  V30 48698 O 4798.92 -1.2664 -1.29739 0
M  V30 48699 C 4798.97 -3.22391 1.61545 0
M  V30 48700 O 4798.07 -4.03552 0.849661 0
M  V30 48701 H 4797.41 -0.554859 0.364729 0
M  V30 48702 H 4799.94 -1.28537 1.59184 0
M  V30 48703 H 4799.95 -3.73118 1.65067 0
M  V30 48704 H 4798.63 -3.1903 2.6682 0
M  V30 48705 H 4797.21 -3.62166 0.888256 0
M  V30 48706 N 4799.39 -1.00509 -1.21391 0
M  V30 48707 C 4800.62 -0.706435 -1.94998 0
M  V30 48708 C 4801.04 0.724569 -1.73585 0
M  V30 48709 O 4800.4 1.49698 -1.02275 0
M  V30 48710 C 4800.45 -1.03312 -3.45484 0
M  V30 48711 O 4799.55 -0.13842 -4.12168 0
M  V30 48712 H 4798.89 -0.263196 -0.609609 0
M  V30 48713 H 4801.42 -1.34536 -1.54147 0
M  V30 48714 H 4801.43 -0.980012 -3.96055 0
M  V30 48715 H 4800.11 -2.0758 -3.60394 0
M  V30 48716 H 4798.68 -0.248059 -3.72074 0
M  V30 48717 N 4800.87 1.36954 -0.779835 0
M  V30 48718 C 4802.12 1.99096 -0.347149 0
M  V30 48719 C 4802.44 1.6221 1.08227 0
M  V30 48720 O 4801.71 0.891434 1.74443 0
M  V30 48721 H 4800.29 0.736405 -0.125368 0
M  V30 48722 H 4802.95 1.67305 -0.999755 0
M  V30 48723 H 4802.05 3.09106 -0.431271 0
M  V30 48724 N 4802.35 0.531045 1.48384 0
M  V30 48725 C 4803.29 -0.244514 2.31311 0
M  V30 48726 C 4804.29 -0.93446 1.41295 0
M  V30 48727 O 4805.49 -0.858724 1.58196 0
M  V30 48728 H 4801.87 -0.0977209 0.745624 0
M  V30 48729 H 4803.84 0.474473 2.94604 0
M  V30 48730 C 4802.59 -1.27779 3.2337 0
M  V30 48731 H 4801.91 -0.756301 3.92581 0
M  V30 48732 H 4803.35 -1.79184 3.84277 0
M  V30 48733 C 4801.81 -2.31197 2.45051 0
M  V30 48734 O 4802.34 -3.37653 2.17608 0
M  V30 48735 N 4800.55 -2.04438 2.06527 0
M  V30 48736 H 4800.09 -1.17883 2.29044 0
M  V30 48737 H 4800.05 -2.73855 1.54437 0
M  V30 48738 N 4803.82 -1.55335 0.266227 0
M  V30 48739 C 4805.07 -1.99398 -0.353088 0
M  V30 48740 C 4805.4 -1.15457 -1.56525 0
M  V30 48741 O 4804.65 -0.210043 -1.9457 0
M  V30 48742 C 4804.95 -3.48609 -0.787834 0
M  V30 48743 C 4804.62 -4.49772 0.318699 0
M  V30 48744 C 4803.28 -4.77156 0.622558 0
M  V30 48745 C 4805.63 -5.10208 1.06477 0
M  V30 48746 C 4802.96 -5.62245 1.67622 0
M  V30 48747 C 4805.31 -5.96441 2.10809 0
M  V30 48748 C 4803.98 -6.2215 2.41839 0
M  V30 48749 H 4803.25 -0.729649 -0.129204 0
M  V30 48750 H 4805.89 -1.87731 0.378086 0
M  V30 48751 H 4804.2 -3.57707 -1.59854 0
M  V30 48752 H 4805.9 -3.80103 -1.27762 0
M  V30 48753 H 4802.49 -4.2854 0.0717431 0
M  V30 48754 H 4806.67 -4.89083 0.84327 0
M  V30 48755 H 4801.93 -5.80413 1.92175 0
M  V30 48756 H 4806.1 -6.42308 2.69098 0
M  V30 48757 H 4803.73 -6.87876 3.2362 0
M  V30 48758 N 4805.3 0.0066254 -1.57599 0
M  V30 48759 C 4806.23 0.999222 -2.1104 0
M  V30 48760 C 4807.21 1.36275 -1.018 0
M  V30 48761 O 4808.4 1.44766 -1.29447 0
M  V30 48762 C 4805.53 2.29318 -2.60826 0
M  V30 48763 C 4804.48 2.07146 -3.74532 0
M  V30 48764 C 4803.81 3.42498 -4.10608 0
M  V30 48765 C 4805.11 1.43941 -5.02074 0
M  V30 48766 H 4806.8 0.554279 -2.94225 0
M  V30 48767 H 4804.35 0.265172 -1.41537 0
M  V30 48768 H 4806.3 2.99107 -2.96839 0
M  V30 48769 H 4805.03 2.75914 -1.74754 0
M  V30 48770 H 4803.69 1.39785 -3.38904 0
M  V30 48771 H 4803.33 3.86784 -3.2157 0
M  V30 48772 H 4803.03 3.2848 -4.87211 0
M  V30 48773 H 4804.56 4.13612 -4.49174 0
M  V30 48774 H 4805.97 2.03677 -5.359 0
M  V30 48775 H 4804.37 1.40432 -5.83437 0
M  V30 48776 H 4805.44 0.407823 -4.83182 0
M  V30 48777 N 4806.78 1.55106 0.279278 0
M  V30 48778 C 4808.01 1.79434 1.0301 0
M  V30 48779 C 4808.42 0.56452 1.80163 0
M  V30 48780 O 4807.78 -0.466264 1.76443 0
M  V30 48781 C 4807.83 3.01557 1.99363 0
M  V30 48782 O 4807.55 4.19788 1.25338 0
M  V30 48783 C 4809.05 3.3844 2.86309 0
M  V30 48784 H 4806.27 0.597893 0.304573 0
M  V30 48785 H 4808.82 2.02106 0.311964 0
M  V30 48786 H 4806.97 2.81029 2.66649 0
M  V30 48787 H 4807.39 4.88788 1.90228 0
M  V30 48788 H 4808.86 4.27078 3.49726 0
M  V30 48789 H 4809.34 2.57562 3.55751 0
M  V30 48790 H 4809.94 3.61205 2.24524 0
M  V30 48791 N 4808.26 -0.543502 1.47932 0
M  V30 48792 C 4809.51 -1.30196 1.55489 0
M  V30 48793 C 4809.84 -1.92924 0.222269 0
M  V30 48794 O 4809.11 -1.78589 -0.770467 0
M  V30 48795 C 4809.4 -2.40164 2.68315 0
M  V30 48796 C 4809.25 -1.82215 4.11239 0
M  V30 48797 C 4810.57 -3.42015 2.76973 0
M  V30 48798 H 4807.69 -0.472016 0.566012 0
M  V30 48799 H 4810.33 -0.606851 1.80048 0
M  V30 48800 H 4808.48 -2.99455 2.47506 0
M  V30 48801 H 4810.15 -1.2708 4.43451 0
M  V30 48802 H 4808.39 -1.12817 4.18873 0
M  V30 48803 H 4809.07 -2.61776 4.85981 0
M  V30 48804 H 4811.54 -2.92662 2.95784 0
M  V30 48805 H 4810.42 -4.1637 3.57669 0
M  V30 48806 H 4810.68 -4.01724 1.84582 0
M  V30 48807 N 4809.74 -1.36293 -0.791323 0
M  V30 48808 C 4810.67 -1.26327 -1.91243 0
M  V30 48809 C 4811.68 -0.183187 -1.61766 0
M  V30 48810 O 4812.87 -0.437743 -1.73049 0
M  V30 48811 C 4809.97 -0.926016 -3.26003 0
M  V30 48812 C 4809.14 -2.1076 -3.83274 0
M  V30 48813 C 4808.2 -1.7437 -4.96469 0
M  V30 48814 O 4807.23 -2.46434 -5.13087 0
M  V30 48815 N 4808.43 -0.676261 -5.76547 0
M  V30 48816 H 4811.2 -2.22922 -2.00315 0
M  V30 48817 H 4808.76 -1.29662 -0.9695 0
M  V30 48818 H 4810.75 -0.663777 -3.99219 0
M  V30 48819 H 4809.32 -0.049268 -3.12561 0
M  V30 48820 H 4808.54 -2.53275 -3.02069 0
M  V30 48821 H 4809.83 -2.89705 -4.18269 0
M  V30 48822 H 4809.23 -0.0778456 -5.65646 0
M  V30 48823 H 4807.78 -0.47384 -6.50075 0
M  V30 48824 N 4811.22 1.01526 -1.20541 0
M  V30 48825 C 4812.46 1.75145 -1.01639 0
M  V30 48826 C 4812.79 1.89191 0.451333 0
M  V30 48827 O 4812.05 1.41556 1.35131 0
M  V30 48828 C 4812.34 3.17207 -1.64665 0
M  V30 48829 C 4812.01 3.23135 -3.14475 0
M  V30 48830 C 4810.67 3.2446 -3.55358 0
M  V30 48831 C 4813.02 3.21192 -4.10469 0
M  V30 48832 C 4810.35 3.21515 -4.9076 0
M  V30 48833 C 4812.7 3.19789 -5.45819 0
M  V30 48834 C 4811.37 3.19418 -5.86113 0
M  V30 48835 H 4810.64 0.640901 -0.371923 0
M  V30 48836 H 4813.29 1.19066 -1.49985 0
M  V30 48837 H 4811.59 3.76453 -1.08584 0
M  V30 48838 H 4813.29 3.72866 -1.47553 0
M  V30 48839 H 4809.88 3.2284 -2.81908 0
M  V30 48840 H 4814.06 3.19337 -3.79918 0
M  V30 48841 H 4809.32 3.1956 -5.2124 0
M  V30 48842 H 4813.49 3.17238 -6.19946 0
M  V30 48843 H 4811.12 3.1689 -6.91003 0
M  V30 48844 N 4812.69 1.01151 1.20856 0
M  V30 48845 C 4813.94 0.693281 1.89411 0
M  V30 48846 C 4814.26 -0.779906 1.79379 0
M  V30 48847 O 4815.46 -1.21049 2.43021 0
M  V30 48848 C 4813.92 1.18961 3.39671 0
M  V30 48849 C 4813.53 2.68934 3.583 0
M  V30 48850 C 4815.27 0.946565 4.13812 0
M  V30 48851 C 4813.18 3.12073 5.02359 0
M  V30 48852 H 4812.11 0.25562 0.709348 0
M  V30 48853 H 4814.76 1.22353 1.36755 0
M  V30 48854 H 4813.14 0.587366 3.9162 0
M  V30 48855 H 4814.31 3.34663 3.1676 0
M  V30 48856 H 4812.63 2.91324 2.97522 0
M  V30 48857 H 4815.23 1.24436 5.20019 0
M  V30 48858 H 4815.57 -0.117073 4.16135 0
M  V30 48859 H 4816.1 1.51193 3.67948 0
M  V30 48860 H 4812.84 4.17692 5.05187 0
M  V30 48861 H 4812.36 2.5106 5.44728 0
M  V30 48862 H 4814.04 3.04423 5.70908 0
M  V30 48863 N 4814.17 -1.36538 0.787088 0
M  V30 48864 C 4815.4 -2.04089 0.369124 0
M  V30 48865 C 4815.82 -1.58961 -1.00564 0
M  V30 48866 O 4815.18 -0.756984 -1.64741 0
M  V30 48867 C 4815.23 -3.57923 0.438592 0
M  V30 48868 O 4814.33 -4.08644 -0.555335 0
M  V30 48869 H 4813.67 -0.645137 0.157145 0
M  V30 48870 H 4816.2 -1.74541 1.06755 0
M  V30 48871 H 4816.21 -4.06886 0.301361 0
M  V30 48872 H 4814.89 -3.90122 1.44146 0
M  V30 48873 H 4813.46 -3.70959 -0.379957 0
M  V30 48874 N 4815.65 -0.538906 -1.481 0
M  V30 48875 C 4816.93 0.0567421 -1.95518 0
M  V30 48876 C 4817.31 1.50403 -1.48129 0
M  V30 48877 O 4816.65 2.1713 -0.711803 0
M  V30 48878 C 4816.86 -0.0697488 -3.4893 0
M  V30 48879 C 4818.21 0.0849709 -4.24515 0
M  V30 48880 O 4819.24 0.00360948 -3.562 0
M  V30 48881 O 4818.1 0.256833 -5.45896 0
M  V30 48882 H 4815.19 0.0743405 -0.823652 0
M  V30 48883 H 4817.74 -0.604136 -1.58582 0
M  V30 48884 H 4816.51 -1.07757 -3.7617 0
M  V30 48885 H 4816.13 0.629576 -3.92584 0
M  V30 48886 N 4817.13 1.55192 -0.274461 0
M  V30 48887 C 4818.06 2.25474 0.606953 0
M  V30 48888 C 4819.04 1.24465 1.15941 0
M  V30 48889 O 4820.22 1.53183 1.19367 0
M  V30 48890 C 4817.35 2.97532 1.79142 0
M  V30 48891 C 4816.31 4.05464 1.37052 0
M  V30 48892 C 4815.63 4.65093 2.63804 0
M  V30 48893 C 4816.93 5.19693 0.521206 0
M  V30 48894 H 4818.63 2.99393 0.0208291 0
M  V30 48895 H 4816.17 1.43997 0.00857803 0
M  V30 48896 H 4818.13 3.4541 2.41391 0
M  V30 48897 H 4816.85 2.21147 2.40337 0
M  V30 48898 H 4815.51 3.58396 0.771229 0
M  V30 48899 H 4815.16 3.85377 3.23255 0
M  V30 48900 H 4814.86 5.37969 2.36353 0
M  V30 48901 H 4816.38 5.1572 3.26903 0
M  V30 48902 H 4817.8 5.63627 1.04869 0
M  V30 48903 H 4816.19 5.99127 0.341614 0
M  V30 48904 H 4817.26 4.82712 -0.46017 0
M  V30 48905 N 4818.61 0.00173253 1.576 0
M  V30 48906 C 4819.83 -0.693691 1.94924 0
M  V30 48907 C 4820.25 -1.67211 0.876685 0
M  V30 48908 O 4819.61 -1.81929 -0.144215 0
M  V30 48909 C 4819.66 -1.42405 3.3227 0
M  V30 48910 O 4819.38 -0.484861 4.35409 0
M  V30 48911 C 4820.88 -2.21382 3.84064 0
M  V30 48912 H 4818.1 -0.193096 0.642616 0
M  V30 48913 H 4820.64 0.0533671 2.0443 0
M  V30 48914 H 4818.8 -2.12272 3.24067 0
M  V30 48915 H 4819.21 -1.00035 5.14872 0
M  V30 48916 H 4820.69 -2.67979 4.82588 0
M  V30 48917 H 4821.16 -3.04131 3.16861 0
M  V30 48918 H 4821.77 -1.56528 3.95448 0
M  V30 48919 N 4820.08 -1.55252 -0.271048 0
M  V30 48920 C 4821.01 -1.91275 -1.33926 0
M  V30 48921 C 4822 -0.774833 -1.51428 0
M  V30 48922 O 4823.18 -1.03313 -1.64439 0
M  V30 48923 C 4820.31 -2.18637 -2.69843 0
M  V30 48924 C 4819.26 -3.34451 -2.6707 0
M  V30 48925 C 4818.59 -3.47298 -4.06557 0
M  V30 48926 C 4819.89 -4.70792 -2.26168 0
M  V30 48927 H 4821.58 -2.80748 -1.04025 0
M  V30 48928 H 4819.13 -1.35079 -0.498969 0
M  V30 48929 H 4821.08 -2.42425 -3.44686 0
M  V30 48930 H 4819.81 -1.25965 -3.01331 0
M  V30 48931 H 4818.47 -3.10634 -1.94685 0
M  V30 48932 H 4818.11 -2.52089 -4.3527 0
M  V30 48933 H 4817.81 -4.25166 -4.05595 0
M  V30 48934 H 4819.34 -3.7338 -4.83135 0
M  V30 48935 H 4820.75 -4.94112 -2.90734 0
M  V30 48936 H 4819.15 -5.5159 -2.36365 0
M  V30 48937 H 4820.22 -4.69483 -1.21302 0
M  V30 48938 N 4821.56 0.535649 -1.48218 0
M  V30 48939 C 4822.47 1.66779 -1.64991 0
M  V30 48940 C 4823.49 1.65652 -0.532473 0
M  V30 48941 O 4824.66 1.84707 -0.802815 0
M  V30 48942 C 4821.73 3.03254 -1.68042 0
M  V30 48943 C 4820.79 3.1528 -2.91371 0
M  V30 48944 C 4820.02 4.45244 -2.94267 0
M  V30 48945 O 4820.25 5.32004 -2.05738 0
M  V30 48946 O 4819.18 4.61516 -3.86376 0
M  V30 48947 H 4823.01 1.55567 -2.60831 0
M  V30 48948 H 4820.59 0.708103 -1.31553 0
M  V30 48949 H 4822.47 3.8443 -1.72603 0
M  V30 48950 H 4821.15 3.14802 -0.753739 0
M  V30 48951 H 4820.06 2.3342 -2.92346 0
M  V30 48952 H 4821.39 3.08645 -3.83405 0
M  V30 48953 N 4823.04 1.36711 0.784084 0
M  V30 48954 C 4824.46 1.17241 1.0829 0
M  V30 48955 C 4824.66 0.000130232 2.015 0
M  V30 48956 O 4823.71 -0.6636 2.43624 0
M  V30 48957 C 4825.03 2.48563 1.69225 0
M  V30 48958 C 4826.57 2.54974 1.81541 0
M  V30 48959 C 4827.05 3.86396 2.4589 0
M  V30 48960 N 4828.54 3.87771 2.53353 0
M  V30 48961 C 4829.27 4.86202 3.03966 0
M  V30 48962 N 4828.77 5.95027 3.54845 0
M  V30 48963 N 4830.56 4.73617 3.02727 0
M  V30 48964 H 4822.71 2.11759 0.164936 0
M  V30 48965 H 4824.98 0.938225 0.135789 0
M  V30 48966 H 4824.68 3.34641 1.08204 0
M  V30 48967 H 4824.56 2.64758 2.68669 0
M  V30 48968 H 4826.94 1.69311 2.41698 0
M  V30 48969 H 4827.03 2.42675 0.808865 0
M  V30 48970 H 4826.67 4.72469 1.86376 0
M  V30 48971 H 4826.6 3.95994 3.47126 0
M  V30 48972 H 4829.09 3.09152 2.17332 0
M  V30 48973 H 4829.4 6.661 3.9183 0
M  V30 48974 H 4827.75 5.98689 3.52982 0
M  V30 48975 H 4830.94 3.87727 2.6227 0
M  V30 48976 H 4831.11 5.50485 3.41862 0
M  V30 48977 N 4824.52 -1.00885 1.21078 0
M  V30 48978 C 4825.43 -2.13035 0.9825 0
M  V30 48979 C 4826.44 -1.73882 -0.064155 0
M  V30 48980 O 4827.62 -2.01012 0.125031 0
M  V30 48981 C 4824.69 -3.42375 0.545924 0
M  V30 48982 C 4823.75 -3.95725 1.66434 0
M  V30 48983 C 4822.98 -5.18891 1.2485 0
M  V30 48984 O 4823.2 -5.70273 0.120465 0
M  V30 48985 O 4822.14 -5.6559 2.05893 0
M  V30 48986 H 4825.96 -2.35168 1.92171 0
M  V30 48987 H 4823.55 -1.11417 0.995324 0
M  V30 48988 H 4825.43 -4.20243 0.31206 0
M  V30 48989 H 4824.1 -3.2164 -0.364614 0
M  V30 48990 H 4823.01 -3.19101 1.95257 0
M  V30 48991 H 4824.34 -4.20863 2.55216 0
M  V30 48992 N 4826 -1.01791 -1.20318 0
M  V30 48993 C 4827.24 -0.706604 -1.89345 0
M  V30 48994 C 4827.57 0.766226 -1.79315 0
M  V30 48995 O 4826.84 1.55122 -1.19641 0
M  V30 48996 H 4825.42 -0.258373 -0.700894 0
M  V30 48997 H 4828.08 -1.28979 -1.46118 0
M  V30 48998 H 4827.17 -0.99117 -2.95943 0
M  V30 48999 N 4827.47 1.36119 -0.794317 0
M  V30 49000 C 4828.72 1.9911 -0.368975 0
M  V30 49001 C 4829.05 1.63036 1.06064 0
M  V30 49002 O 4828.3 0.879365 1.7483 0
M  V30 49003 C 4828.6 3.54089 -0.485394 0
M  V30 49004 C 4828.27 4.09997 -1.87653 0
M  V30 49005 C 4826.93 4.24978 -2.25715 0
M  V30 49006 C 4829.28 4.40413 -2.78721 0
M  V30 49007 C 4826.61 4.67689 -3.54237 0
M  V30 49008 C 4828.96 4.84558 -4.06677 0
M  V30 49009 C 4827.63 4.97745 -4.44754 0
M  V30 49010 H 4826.9 0.728595 -0.135018 0
M  V30 49011 H 4829.54 1.6253 -1.01273 0
M  V30 49012 H 4827.85 3.91053 0.241847 0
M  V30 49013 H 4829.55 4.00765 -0.13725 0
M  V30 49014 H 4826.14 3.98779 -1.57078 0
M  V30 49015 H 4830.32 4.28403 -2.50568 0
M  V30 49016 H 4825.58 4.76086 -3.83604 0
M  V30 49017 H 4829.75 5.07057 -4.77353 0
M  V30 49018 H 4827.38 5.30599 -5.44398 0
M  V30 49019 N 4828.95 0.546753 1.47812 0
M  V30 49020 C 4829.9 -0.219966 2.31558 0
M  V30 49021 C 4830.89 -0.919422 1.42278 0
M  V30 49022 O 4832.1 -0.841897 1.59098 0
M  V30 49023 H 4828.48 -0.0898071 0.746618 0
M  V30 49024 H 4830.45 0.505693 2.94084 0
M  V30 49025 C 4829.2 -1.24342 3.24707 0
M  V30 49026 H 4828.52 -0.71462 3.93361 0
M  V30 49027 H 4829.96 -1.75098 3.86156 0
M  V30 49028 C 4828.42 -2.28584 2.47489 0
M  V30 49029 O 4828.95 -3.35326 2.21177 0
M  V30 49030 N 4827.15 -2.02236 2.08683 0
M  V30 49031 H 4826.7 -1.15447 2.30282 0
M  V30 49032 H 4826.66 -2.72202 1.57333 0
M  V30 49033 N 4830.43 -1.55044 0.282687 0
M  V30 49034 C 4831.39 -2.21517 -0.588462 0
M  V30 49035 C 4832.39 -1.19539 -1.0755 0
M  V30 49036 O 4833.58 -1.44395 -0.974463 0
M  V30 49037 C 4830.72 -2.88711 -1.8127 0
M  V30 49038 H 4831.91 -2.99899 -0.00795854 0
M  V30 49039 H 4829.46 -1.56264 0.0333617 0
M  V30 49040 H 4830.2 -2.1436 -2.43352 0
M  V30 49041 H 4829.98 -3.63449 -1.47131 0
M  V30 49042 H 4831.47 -3.39474 -2.43202 0
M  V30 49043 N 4831.91 -0.0100904 -1.57597 0
M  V30 49044 C 4833.14 0.683344 -1.9529 0
M  V30 49045 C 4833.55 1.66744 -0.88554 0
M  V30 49046 O 4832.91 1.82003 0.134565 0
M  V30 49047 C 4832.96 1.40641 -3.3302 0
M  V30 49048 O 4832.68 0.461763 -4.3566 0
M  V30 49049 C 4834.18 2.19342 -3.85232 0
M  V30 49050 H 4831.4 0.189685 -0.643631 0
M  V30 49051 H 4833.95 -0.0642077 -2.04399 0
M  V30 49052 H 4832.1 2.10551 -3.25188 0
M  V30 49053 H 4832.51 0.973034 -5.15395 0
M  V30 49054 H 4833.99 2.65416 -4.84002 0
M  V30 49055 H 4834.47 3.02446 -3.1847 0
M  V30 49056 H 4835.07 1.54428 -3.96273 0
M  V30 49057 N 4833.39 1.55393 0.262811 0
M  V30 49058 C 4834.62 1.80254 1.00955 0
M  V30 49059 C 4835.02 0.581233 1.80051 0
M  V30 49060 O 4834.37 -0.459365 1.77864 0
M  V30 49061 C 4834.43 2.98214 2.0077 0
M  V30 49062 C 4834.09 4.34861 1.40517 0
M  V30 49063 C 4835.09 5.13462 0.815672 0
M  V30 49064 C 4832.78 4.81535 1.42931 0
M  V30 49065 C 4834.77 6.36876 0.258338 0
M  V30 49066 C 4832.46 6.04902 0.868122 0
M  V30 49067 C 4833.45 6.82411 0.283644 0
M  V30 49068 O 4833.14 8.0345 -0.268926 0
M  V30 49069 H 4832.87 0.604059 0.303461 0
M  V30 49070 H 4835.43 2.03258 0.295855 0
M  V30 49071 H 4833.66 2.70927 2.75927 0
M  V30 49072 H 4835.35 3.10308 2.61656 0
M  V30 49073 H 4836.11 4.78529 0.789643 0
M  V30 49074 H 4831.99 4.21208 1.87363 0
M  V30 49075 H 4835.54 6.97318 -0.198503 0
M  V30 49076 H 4831.43 6.39315 0.891425 0
M  V30 49077 H 4832.2 8.18345 -0.159261 0
M  V30 49078 N 4834.87 -0.527781 1.485 0
M  V30 49079 C 4836.09 -1.30817 1.60295 0
M  V30 49080 C 4836.51 -1.86945 0.26404 0
M  V30 49081 O 4835.87 -1.66513 -0.746975 0
M  V30 49082 C 4835.92 -2.45746 2.65124 0
M  V30 49083 O 4835.64 -1.91932 3.93819 0
M  V30 49084 C 4837.14 -3.37533 2.87379 0
M  V30 49085 H 4834.36 -0.397744 0.540408 0
M  V30 49086 H 4836.9 -0.636461 1.94344 0
M  V30 49087 H 4835.06 -3.08798 2.33928 0
M  V30 49088 H 4835.47 -2.67179 4.51349 0
M  V30 49089 H 4836.95 -4.14519 3.64524 0
M  V30 49090 H 4837.42 -3.92898 1.96284 0
M  V30 49091 H 4838.03 -2.80272 3.19887 0
M  V30 49092 N 4836.34 -1.37125 -0.776822 0
M  V30 49093 C 4837.59 -1.31378 -1.53045 0
M  V30 49094 C 4837.91 0.100948 -1.95339 0
M  V30 49095 O 4839.11 0.280858 -2.70043 0
M  V30 49096 C 4837.57 -2.30576 -2.76338 0
M  V30 49097 C 4837.18 -3.77551 -2.41162 0
M  V30 49098 C 4838.92 -2.33831 -3.54293 0
M  V30 49099 C 4836.83 -4.68493 -3.60926 0
M  V30 49100 H 4835.76 -0.488254 -0.574564 0
M  V30 49101 H 4838.41 -1.62557 -0.851315 0
M  V30 49102 H 4836.79 -1.92408 -3.46114 0
M  V30 49103 H 4837.96 -4.24527 -1.79201 0
M  V30 49104 H 4836.28 -3.77193 -1.76392 0
M  V30 49105 H 4838.88 -2.98981 -4.433 0
M  V30 49106 H 4839.22 -1.35044 -3.93788 0
M  V30 49107 H 4839.75 -2.7068 -2.91508 0
M  V30 49108 H 4836.49 -5.6839 -3.26517 0
M  V30 49109 H 4836.01 -4.26225 -4.2201 0
M  V30 49110 H 4837.69 -4.85381 -4.27802 0
M  V30 49111 N 4837.82 1.00242 -1.21611 0
M  V30 49112 C 4838.75 2.0879 -0.920965 0
M  V30 49113 C 4839.73 1.62059 0.132495 0
M  V30 49114 O 4840.92 1.885 0.00297033 0
M  V30 49115 C 4838.04 3.36524 -0.383345 0
M  V30 49116 C 4837.09 4.02167 -1.42001 0
M  V30 49117 S 4837.92 4.44245 -2.99009 0
M  V30 49118 C 4839.08 5.75162 -2.4686 0
M  V30 49119 H 4839.31 2.33505 -1.84018 0
M  V30 49120 H 4836.84 1.13558 -1.04613 0
M  V30 49121 H 4838.8 4.10423 -0.0797314 0
M  V30 49122 H 4837.46 3.09856 0.514602 0
M  V30 49123 H 4836.66 4.94111 -0.993509 0
M  V30 49124 H 4836.26 3.34553 -1.67183 0
M  V30 49125 H 4838.55 6.51036 -1.87507 0
M  V30 49126 H 4839.49 6.22626 -3.37257 0
M  V30 49127 H 4839.9 5.32105 -1.88479 0
M  V30 49128 N 4839.3 1.02428 1.19776 0
M  V30 49129 C 4840.58 0.632867 1.85079 0
M  V30 49130 C 4840.96 -0.888677 1.91483 0
M  V30 49131 O 4840.3 -1.78352 1.42838 0
M  V30 49132 C 4840.51 1.28959 3.243 0
M  V30 49133 C 4841.86 1.4099 4.00508 0
M  V30 49134 O 4842.89 1.2464 3.33682 0
M  V30 49135 O 4841.75 1.67485 5.20203 0
M  V30 49136 H 4838.84 0.219376 0.797373 0
M  V30 49137 H 4841.39 1.12214 1.27303 0
M  V30 49138 H 4840.16 2.32891 3.14448 0
M  V30 49139 H 4839.78 0.787885 3.89715 0
M  V30 49140 N 4840.78 -1.35696 0.801525 0
M  V30 49141 C 4841.71 -2.2768 0.154002 0
M  V30 49142 C 4842.69 -1.47834 -0.677038 0
M  V30 49143 O 4843.87 -1.77106 -0.645412 0
M  V30 49144 C 4841 -3.29433 -0.786871 0
M  V30 49145 C 4840.05 -4.26485 -0.0360948 0
M  V30 49146 S 4840.88 -5.19569 1.29648 0
M  V30 49147 C 4842.03 -6.24864 0.359925 0
M  V30 49148 H 4842.27 -2.82251 0.933899 0
M  V30 49149 H 4839.8 -1.42419 0.596333 0
M  V30 49150 H 4841.76 -3.88554 -1.32423 0
M  V30 49151 H 4840.42 -2.73751 -1.54011 0
M  V30 49152 H 4839.61 -4.98381 -0.750493 0
M  V30 49153 H 4839.21 -3.71507 0.431147 0
M  V30 49154 H 4841.51 -6.75959 -0.456716 0
M  V30 49155 H 4842.45 -7.00303 1.04793 0
M  V30 49156 H 4842.86 -5.64484 -0.0421289 0
M  V30 49157 N 4842.26 -0.554584 -1.4752 0
M  V30 49158 C 4843.67 -0.120512 -1.86311 0
M  V30 49159 C 4844.02 1.30899 -1.4615 0
M  V30 49160 O 4843.14 1.98431 -0.863364 0
M  V30 49161 C 4843.74 -0.211927 -3.38137 0
M  V30 49162 C 4842.3 0.167092 -3.76029 0
M  V30 49163 C 4841.44 -0.560672 -2.71573 0
M  V30 49164 H 4844.39 -0.764457 -1.39075 0
M  V30 49165 H 4844.42 0.570143 -3.76204 0
M  V30 49166 H 4843.93 -1.25244 -3.67336 0
M  V30 49167 H 4842.03 1.20882 -3.52446 0
M  V30 49168 H 4842.14 -0.189641 -4.78725 0
M  V30 49169 H 4840.51 -0.00405789 -2.547 0
M  V30 49170 H 4841.29 -1.60229 -3.03614 0
M  V30 49171 N 4843.73 1.54892 -0.290906 0
M  V30 49172 C 4844.97 2.01843 0.322317 0
M  V30 49173 C 4845.34 1.17483 1.51861 0
M  V30 49174 O 4846.54 1.54085 2.20253 0
M  V30 49175 C 4844.81 3.50877 0.679721 0
M  V30 49176 S 4846.37 4.198 1.27724 0
M  V30 49177 H 4843.19 0.704009 0.0994619 0
M  V30 49178 H 4845.79 1.91013 -0.416425 0
M  V30 49179 H 4844.49 4.09914 -0.199579 0
M  V30 49180 H 4844.02 3.65722 1.44952 0
M  V30 49181 H 4846.04 4.24738 2.56539 0
M  V30 49182 N 4845.21 0.018448 1.57589 0
M  V30 49183 C 4846.46 -0.661186 1.90978 0
M  V30 49184 C 4846.78 -1.73278 0.894414 0
M  V30 49185 O 4846.05 -1.9579 -0.0656099 0
M  V30 49186 H 4844.63 -0.247208 0.704909 0
M  V30 49187 H 4847.29 0.0637324 1.94796 0
M  V30 49188 H 4846.39 -1.12072 2.91284 0
M  V30 49189 N 4846.69 -1.5553 -0.254567 0
M  V30 49190 C 4847.94 -1.76654 -0.98173 0
M  V30 49191 C 4848.26 -0.581029 -1.86143 0
M  V30 49192 O 4847.53 0.40347 -1.917 0
M  V30 49193 H 4846.11 -0.651488 -0.365475 0
M  V30 49194 H 4848.77 -1.92959 -0.274358 0
M  V30 49195 H 4847.87 -2.67492 -1.60793 0
M  V30 49196 N 4848.17 0.519898 -1.48778 0
M  V30 49197 C 4849.4 1.29966 -1.60986 0
M  V30 49198 C 4849.81 1.86802 -0.27395 0
M  V30 49199 O 4849.17 1.66907 0.738134 0
M  V30 49200 C 4849.22 2.44337 -2.66424 0
M  V30 49201 O 4848.94 1.89841 -3.94832 0
M  V30 49202 C 4850.44 3.36004 -2.89165 0
M  V30 49203 H 4847.66 0.394872 -0.54251 0
M  V30 49204 H 4850.2 0.626145 -1.94678 0
M  V30 49205 H 4848.36 3.07553 -2.35563 0
M  V30 49206 H 4848.77 2.64782 -4.52759 0
M  V30 49207 H 4850.25 4.1258 -3.66717 0
M  V30 49208 H 4850.72 3.91852 -1.98365 0
M  V30 49209 H 4851.33 2.78571 -3.21369 0
M  V30 49210 N 4849.65 1.37535 0.769539 0
M  V30 49211 C 4850.88 1.35867 1.5564 0
M  V30 49212 C 4851.28 -0.0573734 1.89113 0
M  V30 49213 O 4850.63 -1.03015 1.52097 0
M  V30 49214 C 4850.69 2.13442 2.8928 0
M  V30 49215 C 4850.35 3.62388 2.78431 0
M  V30 49216 C 4851.35 4.56224 2.4931 0
M  V30 49217 C 4849.04 4.05539 2.96384 0
M  V30 49218 C 4851.03 5.91189 2.38273 0
M  V30 49219 C 4848.72 5.40589 2.84968 0
M  V30 49220 C 4849.71 6.33227 2.55953 0
M  V30 49221 O 4849.4 7.65795 2.44567 0
M  V30 49222 H 4849.13 0.467018 0.488743 0
M  V30 49223 H 4851.69 1.81508 0.961451 0
M  V30 49224 H 4849.92 1.62493 3.50903 0
M  V30 49225 H 4851.61 2.0438 3.5069 0
M  V30 49226 H 4852.37 4.24195 2.35124 0
M  V30 49227 H 4848.25 3.33792 3.17969 0
M  V30 49228 H 4851.8 6.63464 2.15548 0
M  V30 49229 H 4847.69 5.72219 2.98722 0
M  V30 49230 H 4848.46 7.76141 2.599 0
M  V30 49231 N 4851.12 -0.995956 1.22141 0
M  V30 49232 C 4852.07 -2.1067 0.98595 0
M  V30 49233 C 4853.07 -1.69256 -0.0698958 0
M  V30 49234 O 4854.27 -1.79812 0.0822808 0
M  V30 49235 H 4850.65 -0.688855 0.301634 0
M  V30 49236 H 4852.62 -2.27704 1.92856 0
M  V30 49237 C 4851.37 -3.42878 0.577029 0
M  V30 49238 H 4850.69 -3.75186 1.38114 0
M  V30 49239 H 4852.13 -4.21587 0.451666 0
M  V30 49240 C 4850.59 -3.29267 -0.71308 0
M  V30 49241 O 4851.12 -3.60783 -1.7663 0
M  V30 49242 N 4849.33 -2.82458 -0.683062 0
M  V30 49243 H 4848.87 -2.57009 0.174333 0
M  V30 49244 H 4848.83 -2.73733 -1.54654 0
M  V30 49245 N 4852.6 -1.03061 -1.19231 0
M  V30 49246 C 4853.57 -0.617495 -2.20725 0
M  V30 49247 C 4854.57 0.319801 -1.57588 0
M  V30 49248 O 4855.76 0.106572 -1.73874 0
M  V30 49249 C 4852.89 0.0961762 -3.40764 0
M  V30 49250 H 4854.08 -1.51554 -2.58789 0
M  V30 49251 H 4851.63 -0.821996 -1.3294 0
M  V30 49252 H 4852.37 1.00848 -3.08221 0
M  V30 49253 H 4852.15 -0.577353 -3.87826 0
M  V30 49254 H 4853.64 0.372073 -4.15939 0
M  V30 49255 N 4854.08 1.35269 -0.80871 0
M  V30 49256 C 4855.31 2.02945 -0.402608 0
M  V30 49257 C 4855.72 1.60941 0.987091 0
M  V30 49258 O 4855.08 0.807975 1.6364 0
M  V30 49259 C 4855.13 3.58315 -0.478806 0
M  V30 49260 O 4854.85 3.98793 -1.81372 0
M  V30 49261 C 4856.35 4.43251 -0.065784 0
M  V30 49262 H 4853.57 0.650825 -0.163302 0
M  V30 49263 H 4856.12 1.72845 -1.09292 0
M  V30 49264 H 4854.27 3.87056 0.163279 0
M  V30 49265 H 4854.69 4.93445 -1.77799 0
M  V30 49266 H 4856.16 5.51738 -0.170211 0
M  V30 49267 H 4856.64 4.27917 0.989128 0
M  V30 49268 H 4857.24 4.19811 -0.681108 0
M  V30 49269 N 4855.56 0.5624 1.47224 0
M  V30 49270 C 4856.8 0.0486008 2.03342 0
M  V30 49271 C 4857.16 -1.28893 1.42844 0
M  V30 49272 O 4856.45 -1.82717 0.576628 0
M  V30 49273 C 4856.65 -0.0968561 3.57269 0
M  V30 49274 C 4856.48 1.22503 4.32693 0
M  V30 49275 C 4855.25 1.79373 4.72391 0
M  V30 49276 C 4857.44 2.14348 4.67503 0
M  V30 49277 N 4855.43 3.05512 5.32481 0
M  V30 49278 C 4856.8 3.25068 5.2795 0
M  V30 49279 C 4858.85 2.14278 4.49432 0
M  V30 49280 C 4857.55 4.35824 5.72233 0
M  V30 49281 C 4859.58 3.2405 4.94718 0
M  V30 49282 C 4858.94 4.33489 5.55217 0
M  V30 49283 H 4855.04 0.0600738 0.779689 0
M  V30 49284 H 4857.63 0.750832 1.7964 0
M  V30 49285 H 4855.8 -0.768219 3.80727 0
M  V30 49286 H 4857.53 -0.613192 4.00028 0
M  V30 49287 H 4854.28 1.33109 4.5451 0
M  V30 49288 H 4854.71 3.6982 5.67064 0
M  V30 49289 H 4859.35 1.30949 4.0201 0
M  V30 49290 H 4857.07 5.1991 6.18643 0
M  V30 49291 H 4860.65 3.2509 4.82502 0
M  V30 49292 H 4859.53 5.17028 5.8962 0
M  V30 49293 N 4857.04 -1.54735 0.299116 0
M  V30 49294 C 4858.26 -2.04513 -0.313375 0
M  V30 49295 C 4858.68 -1.17649 -1.47663 0
M  V30 49296 O 4858.04 -0.201704 -1.81382 0
M  V30 49297 C 4858.09 -3.53173 -0.771418 0
M  V30 49298 O 4857.81 -4.36735 0.345533 0
M  V30 49299 C 4859.31 -4.18941 -1.44926 0
M  V30 49300 H 4856.53 -0.667509 -0.0683549 0
M  V30 49301 H 4859.07 -1.9975 0.438199 0
M  V30 49302 H 4857.23 -3.58303 -1.47302 0
M  V30 49303 H 4857.64 -5.24499 -0.0107376 0
M  V30 49304 H 4859.12 -5.24488 -1.72093 0
M  V30 49305 H 4859.59 -3.68562 -2.3887 0
M  V30 49306 H 4860.2 -4.17882 -0.790881 0
M  V30 49307 N 4858.51 -0.0268051 -1.57577 0
M  V30 49308 C 4859.93 0.51235 -1.79532 0
M  V30 49309 C 4860.28 1.72388 -0.936852 0
M  V30 49310 O 4859.4 2.15903 -0.146619 0
M  V30 49311 C 4860 0.936263 -3.25606 0
M  V30 49312 C 4858.56 1.42055 -3.48565 0
M  V30 49313 C 4857.7 0.384182 -2.74626 0
M  V30 49314 H 4860.65 -0.252852 -1.56673 0
M  V30 49315 H 4860.67 1.80076 -3.35191 0
M  V30 49316 H 4860.19 0.0542968 -3.88062 0
M  V30 49317 H 4858.29 2.32252 -2.91359 0
M  V30 49318 H 4858.4 1.42952 -4.57276 0
M  V30 49319 H 4856.76 0.85177 -2.40035 0
M  V30 49320 H 4857.55 -0.489279 -3.39795 0
M  V30 49321 N 4859.99 1.55663 0.246315 0
M  V30 49322 C 4860.92 1.86816 1.32788 0
M  V30 49323 C 4861.94 0.754464 1.44263 0
M  V30 49324 O 4863.13 1.03258 1.45602 0
M  V30 49325 C 4860.23 2.03979 2.70639 0
M  V30 49326 C 4859.4 3.34842 2.81424 0
M  V30 49327 C 4858.46 3.41741 4.00124 0
M  V30 49328 O 4857.48 4.14948 3.89624 0
M  V30 49329 N 4858.69 2.71076 5.1332 0
M  V30 49330 H 4861.45 2.80177 1.06399 0
M  V30 49331 H 4859.01 1.55907 0.436415 0
M  V30 49332 H 4861 2.05936 3.48385 0
M  V30 49333 H 4859.57 1.1736 2.89733 0
M  V30 49334 H 4858.79 3.45197 1.90349 0
M  V30 49335 H 4860.08 4.21095 2.85581 0
M  V30 49336 H 4859.48 2.11332 5.24743 0
M  V30 49337 H 4858.04 2.78725 5.89199 0
M  V30 49338 N 4861.47 -0.512001 1.49051 0
M  V30 49339 C 4862.42 -1.63563 1.65378 0
M  V30 49340 C 4863.41 -1.61226 0.519863 0
M  V30 49341 O 4864.62 -1.65867 0.699159 0
M  V30 49342 H 4860.99 -0.542001 0.521286 0
M  V30 49343 H 4862.96 -1.46941 2.59713 0
M  V30 49344 C 4861.71 -3.01755 1.72741 0
M  V30 49345 H 4861.04 -3.04254 2.59363 0
M  V30 49346 H 4862.48 -3.79942 1.88203 0
M  V30 49347 C 4860.94 -3.33608 0.469848 0
M  V30 49348 O 4861.47 -3.99609 -0.409351 0
M  V30 49349 N 4859.67 -2.8865 0.336104 0
M  V30 49350 H 4859.22 -2.35115 1.05255 0
M  V30 49351 H 4859.18 -3.1033 -0.504254 0
M  V30 49352 N 4862.95 -1.37941 -0.762235 0
M  V30 49353 C 4864.2 -1.32994 -1.51643 0
M  V30 49354 C 4864.51 0.0802235 -1.95435 0
M  V30 49355 O 4865.72 0.2522 -2.70326 0
M  V30 49356 C 4864.17 -2.33494 -2.73877 0
M  V30 49357 C 4863.78 -3.80088 -2.37144 0
M  V30 49358 C 4865.52 -2.37575 -3.51793 0
M  V30 49359 C 4863.43 -4.72295 -3.55937 0
M  V30 49360 H 4862.36 -0.494321 -0.569353 0
M  V30 49361 H 4865.01 -1.63451 -0.834026 0
M  V30 49362 H 4863.39 -1.96068 -3.44054 0
M  V30 49363 H 4864.57 -4.26404 -1.74689 0
M  V30 49364 H 4862.88 -3.79043 -1.72381 0
M  V30 49365 H 4865.48 -3.03666 -4.40104 0
M  V30 49366 H 4865.82 -1.39213 -3.92333 0
M  V30 49367 H 4866.36 -2.73757 -2.88621 0
M  V30 49368 H 4863.1 -5.71821 -3.2047 0
M  V30 49369 H 4862.62 -4.30677 -4.17465 0
M  V30 49370 H 4864.29 -4.89891 -4.2263 0
M  V30 49371 N 4864.43 0.989464 -1.22668 0
M  V30 49372 C 4865.65 1.77027 -1.08057 0
M  V30 49373 C 4866.08 1.84536 0.364418 0
M  V30 49374 O 4865.44 1.30035 1.26335 0
M  V30 49375 C 4865.48 3.17994 -1.70036 0
M  V30 49376 O 4864.59 4.01158 -0.956357 0
M  V30 49377 H 4863.93 0.544994 -0.379312 0
M  V30 49378 H 4866.46 1.24271 -1.62536 0
M  V30 49379 H 4866.47 3.6861 -1.74901 0
M  V30 49380 H 4865.14 3.11843 -2.75184 0
M  V30 49381 H 4863.72 3.59684 -0.983966 0
M  V30 49382 N 4865.91 1.03692 1.18683 0
M  V30 49383 C 4867.13 0.757887 1.93057 0
M  V30 49384 C 4867.56 -0.678292 1.75445 0
M  V30 49385 O 4866.91 -1.46934 1.06208 0
M  V30 49386 C 4866.96 1.12435 3.42623 0
M  V30 49387 O 4866.07 0.24765 4.11656 0
M  V30 49388 H 4865.41 0.279267 0.602417 0
M  V30 49389 H 4867.94 1.38576 1.50526 0
M  V30 49390 H 4867.95 1.08467 3.93318 0
M  V30 49391 H 4866.62 2.17062 3.54763 0
M  V30 49392 H 4865.2 0.346621 3.71286 0
M  V30 49393 N 4867.38 -1.34838 0.815872 0
M  V30 49394 C 4868.79 -1.80935 0.460353 0
M  V30 49395 C 4869.15 -1.67689 -1.01857 0
M  V30 49396 O 4868.27 -1.21283 -1.79219 0
M  V30 49397 C 4868.87 -3.28506 0.828824 0
M  V30 49398 C 4867.42 -3.7271 0.525775 0
M  V30 49399 C 4866.57 -2.56673 1.0495 0
M  V30 49400 H 4869.52 -1.22685 1.00668 0
M  V30 49401 H 4869.54 -3.80278 0.12989 0
M  V30 49402 H 4869.06 -3.38115 1.90525 0
M  V30 49403 H 4867.16 -3.68644 -0.541537 0
M  V30 49404 H 4867.27 -4.67115 1.0649 0
M  V30 49405 H 4865.63 -2.503 0.471374 0
M  V30 49406 H 4866.42 -2.69055 2.13223 0
M  V30 49407 N 4868.86 -0.570199 -1.46923 0
M  V30 49408 C 4869.81 0.1831 -2.31878 0
M  V30 49409 C 4870.8 0.89667 -1.43723 0
M  V30 49410 O 4872.01 0.816479 -1.60417 0
M  V30 49411 H 4868.38 0.0779177 -0.747952 0
M  V30 49412 H 4870.36 -0.552415 -2.93242 0
M  V30 49413 C 4869.1 1.1916 -3.26644 0
M  V30 49414 H 4868.43 0.651949 -3.94449 0
M  V30 49415 H 4869.87 1.68933 -3.88893 0
M  V30 49416 C 4868.33 2.24618 -2.51094 0
M  V30 49417 O 4868.86 3.31765 -2.26484 0
M  V30 49418 N 4867.06 1.98891 -2.11874 0
M  V30 49419 H 4866.61 1.11769 -2.32089 0
M  V30 49420 H 4866.57 2.69664 -1.61643 0
M  V30 49421 N 4870.34 1.54575 -0.307318 0
M  V30 49422 C 4871.56 2.05141 0.305307 0
M  V30 49423 C 4871.99 1.18284 1.46255 0
M  V30 49424 O 4871.35 0.188307 1.80319 0
M  V30 49425 C 4871.4 3.53068 0.733159 0
M  V30 49426 O 4870.5 3.69212 1.83728 0
M  V30 49427 H 4869.84 0.661446 0.0581872 0
M  V30 49428 H 4872.37 1.99567 -0.451001 0
M  V30 49429 H 4872.38 3.95038 1.02025 0
M  V30 49430 H 4871.06 4.15746 -0.113344 0
M  V30 49431 H 4869.63 3.39148 1.55025 0
M  V30 49432 N 4871.82 0.0351614 1.57561 0
M  V30 49433 C 4873.04 -0.655733 1.96761 0
M  V30 49434 C 4873.47 -1.64519 0.911866 0
M  V30 49435 O 4872.83 -1.80857 -0.12661 0
M  V30 49436 C 4872.87 -1.33314 3.35052 0
M  V30 49437 O 4871.98 -2.44855 3.31843 0
M  V30 49438 H 4871.32 -0.171784 0.641394 0
M  V30 49439 H 4873.85 0.0988087 2.04361 0
M  V30 49440 H 4873.86 -1.68854 3.71419 0
M  V30 49441 H 4872.53 -0.607888 4.11434 0
M  V30 49442 H 4871.11 -2.11382 3.07201 0
M  V30 49443 N 4873.3 -1.55792 -0.238056 0
M  V30 49444 C 4874.57 -1.68802 -0.988201 0
M  V30 49445 C 4874.95 -0.577633 -2.03043 0
M  V30 49446 O 4874.3 0.417701 -2.2465 0
M  V30 49447 C 4874.51 -3.09459 -1.61356 0
M  V30 49448 C 4875.86 -3.68343 -2.11208 0
M  V30 49449 O 4876.88 -3.12316 -1.71281 0
M  V30 49450 O 4875.74 -4.6658 -2.84544 0
M  V30 49451 H 4872.84 -0.686897 -0.460544 0
M  V30 49452 H 4875.38 -1.68118 -0.231143 0
M  V30 49453 H 4874.15 -3.81729 -0.860161 0
M  V30 49454 H 4873.78 -3.14191 -2.43659 0
M  V30 49455 N 4874.77 0.504089 -1.49321 0
M  V30 49456 C 4876.18 1.08567 -1.51889 0
M  V30 49457 C 4876.54 1.93841 -0.303323 0
M  V30 49458 O 4875.66 2.08282 0.587166 0
M  V30 49459 C 4876.26 1.97564 -2.75234 0
M  V30 49460 C 4874.81 2.5089 -2.8059 0
M  V30 49461 C 4873.96 1.28439 -2.45762 0
M  V30 49462 H 4876.91 0.288139 -1.56062 0
M  V30 49463 H 4876.93 2.8221 -2.55221 0
M  V30 49464 H 4876.45 1.35473 -3.63688 0
M  V30 49465 H 4874.55 3.16629 -1.96409 0
M  V30 49466 H 4874.66 2.88254 -3.82683 0
M  V30 49467 H 4873.02 1.60861 -1.97474 0
M  V30 49468 H 4873.81 0.680602 -3.36486 0
M  V30 49469 N 4876.25 1.38343 0.754909 0
M  V30 49470 C 4877.53 1.25 1.50447 0
M  V30 49471 C 4877.91 -0.14917 2.10572 0
M  V30 49472 O 4877.26 -1.15854 1.96952 0
M  V30 49473 C 4877.47 2.35913 2.57189 0
M  V30 49474 C 4878.81 2.74274 3.24128 0
M  V30 49475 O 4879.84 2.35215 2.67493 0
M  V30 49476 O 4878.7 3.41625 4.26561 0
M  V30 49477 H 4875.79 0.488743 0.667127 0
M  V30 49478 H 4878.34 1.50167 0.790433 0
M  V30 49479 H 4877.11 3.29537 2.10999 0
M  V30 49480 H 4876.73 2.12303 3.36175 0
M  V30 49481 N 4877.73 -0.982945 1.23191 0
M  V30 49482 C 4878.98 -1.72644 1.06404 0
M  V30 49483 C 4879.31 -1.90068 -0.398494 0
M  V30 49484 O 4878.58 -1.45109 -1.29513 0
M  V30 49485 C 4878.87 -3.12621 1.78718 0
M  V30 49486 C 4878.72 -3.02784 3.32629 0
M  V30 49487 C 4880.04 -4.11991 1.54762 0
M  V30 49488 H 4877.16 -0.626635 0.38794 0
M  V30 49489 H 4879.8 -1.1445 1.51662 0
M  V30 49490 H 4877.95 -3.62303 1.40246 0
M  V30 49491 H 4879.62 -2.60646 3.80607 0
M  V30 49492 H 4877.86 -2.3935 3.61793 0
M  V30 49493 H 4878.54 -4.0188 3.78414 0
M  V30 49494 H 4881.01 -3.71107 1.88199 0
M  V30 49495 H 4879.89 -5.0803 2.07839 0
M  V30 49496 H 4880.15 -4.3946 0.482403 0
M  V30 49497 N 4879.21 -1.0432 -1.18132 0
M  V30 49498 C 4880.62 -0.775565 -1.69829 0
M  V30 49499 C 4880.97 0.703284 -1.83162 0
M  V30 49500 O 4880.1 1.54724 -1.51293 0
M  V30 49501 C 4880.69 -1.40123 -3.08465 0
M  V30 49502 C 4879.25 -1.18185 -3.57364 0
M  V30 49503 C 4878.4 -1.4903 -2.33849 0
M  V30 49504 H 4881.35 -1.20929 -1.02771 0
M  V30 49505 H 4881.37 -0.805802 -3.7187 0
M  V30 49506 H 4880.88 -2.47755 -2.98729 0
M  V30 49507 H 4878.98 -0.124389 -3.72392 0
M  V30 49508 H 4879.09 -1.88065 -4.40645 0
M  V30 49509 H 4877.46 -0.910079 -2.37886 0
M  V30 49510 H 4878.24 -2.57776 -2.26729 0
M  V30 49511 N 4880.69 1.34403 -0.823012 0
M  V30 49512 C 4881.93 1.98283 -0.411126 0
M  V30 49513 C 4882.26 1.65249 1.02582 0
M  V30 49514 O 4881.52 0.916251 1.72926 0
M  V30 49515 C 4881.82 3.52979 -0.560392 0
M  V30 49516 C 4881.48 4.05924 -1.96307 0
M  V30 49517 C 4880.14 4.20095 -2.34678 0
M  V30 49518 C 4882.5 4.34402 -2.88 0
M  V30 49519 C 4879.82 4.6007 -3.64078 0
M  V30 49520 C 4882.18 4.75823 -4.16864 0
M  V30 49521 C 4880.84 4.88199 -4.55212 0
M  V30 49522 H 4880.11 0.725568 -0.150442 0
M  V30 49523 H 4882.76 1.60345 -1.04698 0
M  V30 49524 H 4881.06 3.91478 0.158844 0
M  V30 49525 H 4882.76 4.00384 -0.222227 0
M  V30 49526 H 4879.35 3.95357 -1.65501 0
M  V30 49527 H 4883.53 4.22992 -2.59599 0
M  V30 49528 H 4878.79 4.67842 -3.93616 0
M  V30 49529 H 4882.96 4.96817 -4.88002 0
M  V30 49530 H 4880.59 5.18932 -5.5553 0
M  V30 49531 N 4882.16 0.577983 1.46619 0
M  V30 49532 C 4883.39 0.0653264 2.07297 0
M  V30 49533 C 4883.81 -1.22823 1.42464 0
M  V30 49534 O 4883.17 -1.74073 0.506779 0
M  V30 49535 C 4883.22 -0.0919322 3.60483 0
M  V30 49536 O 4882.32 -1.14958 3.96053 0
M  V30 49537 H 4881.67 0.0606732 0.661222 0
M  V30 49538 H 4884.2 0.799581 1.88329 0
M  V30 49539 H 4884.21 -0.299598 4.06899 0
M  V30 49540 H 4882.88 0.852755 4.07064 0
M  V30 49541 H 4881.46 -0.920752 3.61354 0
M  V30 49542 N 4883.64 -1.54409 0.315511 0
M  V30 49543 C 4884.89 -1.996 -0.290325 0
M  V30 49544 C 4885.2 -1.20752 -1.53878 0
M  V30 49545 O 4886.41 -1.56279 -2.22011 0
M  V30 49546 C 4884.87 -3.55392 -0.567845 0
M  V30 49547 C 4884.47 -4.43065 0.6631 0
M  V30 49548 C 4886.22 -4.09071 -1.13408 0
M  V30 49549 C 4884.13 -5.90316 0.357929 0
M  V30 49550 H 4883.06 -0.745596 -0.112259 0
M  V30 49551 H 4885.71 -1.78475 0.42648 0
M  V30 49552 H 4884.09 -3.72473 -1.34463 0
M  V30 49553 H 4885.26 -4.3776 1.43884 0
M  V30 49554 H 4883.58 -4.00234 1.14898 0
M  V30 49555 H 4886.17 -5.16668 -1.37689 0
M  V30 49556 H 4886.52 -3.60559 -2.08093 0
M  V30 49557 H 4887.05 -3.95591 -0.418666 0
M  V30 49558 H 4883.79 -6.43006 1.27374 0
M  V30 49559 H 4883.31 -5.98593 -0.380262 0
M  V30 49560 H 4884.99 -6.4699 -0.0352009 0
M  V30 49561 N 4885.12 -0.0435168 -1.5754 0
M  V30 49562 C 4886.36 0.635955 -1.94255 0
M  V30 49563 C 4886.72 1.68458 -0.921191 0
M  V30 49564 O 4887.93 2.41757 -1.17502 0
M  V30 49565 C 4886.2 1.22345 -3.35807 0
M  V30 49566 S 4887.76 1.92199 -3.94468 0
M  V30 49567 H 4884.57 0.209017 -0.679583 0
M  V30 49568 H 4887.18 -0.110625 -1.95187 0
M  V30 49569 H 4885.88 0.448019 -4.07947 0
M  V30 49570 H 4885.41 2.00702 -3.38353 0
M  V30 49571 H 4887.43 3.20186 -3.79072 0
M  V30 49572 N 4886.6 1.55916 0.229791 0
M  V30 49573 C 4887.83 1.8262 0.972498 0
M  V30 49574 C 4888.24 0.621551 1.78276 0
M  V30 49575 O 4887.6 -0.409893 1.77837 0
M  V30 49576 C 4887.65 3.07747 1.89668 0
M  V30 49577 O 4887.37 4.23563 1.11919 0
M  V30 49578 C 4888.87 3.47378 2.75397 0
M  V30 49579 H 4886.09 0.60728 0.285397 0
M  V30 49580 H 4888.64 2.02997 0.247507 0
M  V30 49581 H 4886.79 2.8937 2.57573 0
M  V30 49582 H 4887.2 4.94592 1.74582 0
M  V30 49583 H 4888.68 4.37988 3.35962 0
M  V30 49584 H 4889.16 2.68749 3.47377 0
M  V30 49585 H 4889.76 3.68165 2.12919 0
M  V30 49586 N 4888.08 -0.496163 1.49586 0
M  V30 49587 C 4889.32 -1.24912 1.60526 0
M  V30 49588 C 4889.68 -1.90195 0.290419 0
M  V30 49589 O 4888.97 -1.77969 -0.70975 0
M  V30 49590 C 4889.16 -2.33581 2.70509 0
M  V30 49591 C 4888.99 -1.78954 4.1256 0
M  V30 49592 C 4887.76 -1.6004 4.79286 0
M  V30 49593 C 4889.96 -1.29865 4.97634 0
M  V30 49594 N 4887.94 -1.00393 6.05636 0
M  V30 49595 C 4889.31 -0.823841 6.14502 0
M  V30 49596 C 4891.37 -1.18484 4.83597 0
M  V30 49597 C 4890.07 -0.246468 7.18878 0
M  V30 49598 C 4892.1 -0.621427 5.88126 0
M  V30 49599 C 4891.46 -0.156869 7.04225 0
M  V30 49600 H 4887.56 -0.446874 0.641738 0
M  V30 49601 H 4890.14 -0.55539 1.86611 0
M  V30 49602 H 4888.31 -3.00409 2.46189 0
M  V30 49603 H 4890.05 -3.00619 2.70943 0
M  V30 49604 H 4886.8 -1.84547 4.36164 0
M  V30 49605 H 4887.23 -0.724837 6.73109 0
M  V30 49606 H 4891.87 -1.52998 3.94146 0
M  V30 49607 H 4889.59 0.110935 8.08024 0
M  V30 49608 H 4893.17 -0.536075 5.79325 0
M  V30 49609 H 4892.05 0.272285 7.83727 0
M  V30 49610 N 4889.55 -1.38742 -0.747561 0
M  V30 49611 C 4890.8 -1.3548 -1.50907 0
M  V30 49612 C 4891.13 0.0532411 -1.94127 0
M  V30 49613 O 4890.41 1.01566 -1.65875 0
M  V30 49614 C 4890.69 -2.31592 -2.75749 0
M  V30 49615 C 4890.54 -3.81283 -2.38628 0
M  V30 49616 C 4891.86 -2.25735 -3.77798 0
M  V30 49617 H 4888.98 -0.493446 -0.54743 0
M  V30 49618 H 4891.62 -1.69637 -0.855763 0
M  V30 49619 H 4889.77 -2.02594 -3.31494 0
M  V30 49620 H 4891.45 -4.20979 -1.88612 0
M  V30 49621 H 4889.69 -3.9867 -1.71011 0
M  V30 49622 H 4890.36 -4.44001 -3.27974 0
M  V30 49623 H 4892.84 -2.51348 -3.31607 0
M  V30 49624 H 4891.71 -2.95085 -4.62835 0
M  V30 49625 H 4891.97 -1.25818 -4.23819 0
M  V30 49626 N 4891.03 0.976398 -1.2371 0
M  V30 49627 C 4892.28 1.71251 -1.06565 0
M  V30 49628 C 4892.59 1.9153 0.396957 0
M  V30 49629 O 4893.8 2.62627 0.688426 0
M  V30 49630 C 4892.26 3.082 -1.85851 0
M  V30 49631 C 4891.86 2.95795 -3.36466 0
M  V30 49632 C 4893.61 3.85743 -1.77208 0
M  V30 49633 C 4891.52 4.28 -4.08129 0
M  V30 49634 H 4890.45 0.642157 -0.395158 0
M  V30 49635 H 4893.1 1.08872 -1.47713 0
M  V30 49636 H 4891.48 3.71358 -1.37511 0
M  V30 49637 H 4892.65 2.41702 -3.92322 0
M  V30 49638 H 4890.97 2.31724 -3.45967 0
M  V30 49639 H 4893.56 4.83625 -2.28058 0
M  V30 49640 H 4893.91 4.09749 -0.735621 0
M  V30 49641 H 4894.44 3.29295 -2.2318 0
M  V30 49642 H 4891.18 4.0919 -5.12098 0
M  V30 49643 H 4890.7 4.81942 -3.5706 0
M  V30 49644 H 4892.38 4.96667 -4.14646 0
M  V30 49645 N 4892.51 1.04945 1.17577 0
M  V30 49646 C 4893.79 0.671982 1.83695 0
M  V30 49647 C 4894.17 -0.847861 1.93325 0
M  V30 49648 O 4893.52 -1.75282 1.46589 0
M  V30 49649 C 4893.73 1.35809 3.21492 0
M  V30 49650 C 4895.07 1.49454 3.97428 0
M  V30 49651 O 4896.1 1.3169 3.30963 0
M  V30 49652 O 4894.96 1.78482 5.16533 0
M  V30 49653 H 4892.05 0.23624 0.79254 0
M  V30 49654 H 4894.6 1.14889 1.24895 0
M  V30 49655 H 4893.37 2.39509 3.09437 0
M  V30 49656 H 4892.99 0.870372 3.87957 0
M  V30 49657 N 4893.99 -1.33965 0.830128 0
M  V30 49658 C 4895.21 -2.02811 0.433867 0
M  V30 49659 C 4895.64 -1.6208 -0.954557 0
M  V30 49660 O 4895 -0.809012 -1.62249 0
M  V30 49661 C 4895.05 -3.56346 0.552241 0
M  V30 49662 O 4894.15 -4.10204 -0.425047 0
M  V30 49663 H 4893.49 -0.639811 0.17759 0
M  V30 49664 H 4896.02 -1.71056 1.12254 0
M  V30 49665 H 4896.03 -4.05721 0.430656 0
M  V30 49666 H 4894.71 -3.85338 1.56484 0
M  V30 49667 H 4893.28 -3.7198 -0.261747 0
M  V30 49668 N 4895.47 -0.585751 -1.4631 0
M  V30 49669 C 4896.88 -0.160004 -1.86013 0
M  V30 49670 C 4897.23 1.2777 -1.48894 0
M  V30 49671 O 4896.35 1.96555 -0.90526 0
M  V30 49672 C 4896.95 -0.283603 -3.37611 0
M  V30 49673 C 4895.51 0.0872933 -3.76299 0
M  V30 49674 C 4894.66 -0.61815 -2.70322 0
M  V30 49675 H 4897.61 -0.793785 -1.37422 0
M  V30 49676 H 4897.63 0.490216 -3.77329 0
M  V30 49677 H 4897.14 -1.33008 -3.64596 0
M  V30 49678 H 4895.24 1.13379 -3.54931 0
M  V30 49679 H 4895.35 -0.291143 -4.78215 0
M  V30 49680 H 4893.72 -0.0580826 -2.54634 0
M  V30 49681 H 4894.5 -1.66634 -3.00147 0
M  V30 49682 N 4896.95 1.5424 -0.323695 0
M  V30 49683 C 4898.36 1.85975 0.16434 0
M  V30 49684 C 4898.71 1.24534 1.5161 0
M  V30 49685 O 4897.83 0.551425 2.09256 0
M  V30 49686 C 4898.43 3.37425 0.304972 0
M  V30 49687 C 4896.99 3.6911 0.737228 0
M  V30 49688 C 4896.13 2.76941 -0.140981 0
M  V30 49689 H 4899.08 1.49086 -0.543974 0
M  V30 49690 H 4899.11 3.63151 1.13585 0
M  V30 49691 H 4898.62 3.82114 -0.67901 0
M  V30 49692 H 4896.72 3.29953 1.73095 0
M  V30 49693 H 4896.83 4.76037 0.540886 0
M  V30 49694 H 4895.2 2.51797 0.383483 0
M  V30 49695 H 4895.98 3.24457 -1.12173 0
M  V30 49696 N 4898.42 0.0518709 1.57515 0
M  V30 49697 C 4899.37 -0.931944 2.08084 0
M  V30 49698 C 4900.36 -1.27138 0.986143 0
M  V30 49699 O 4901.55 -1.25368 1.24947 0
M  V30 49700 C 4898.68 -2.20656 2.62994 0
M  V30 49701 C 4897.76 -1.89448 3.79434 0
M  V30 49702 N 4898.16 -1.28604 4.89178 0
M  V30 49703 C 4896.45 -2.19314 3.88352 0
M  V30 49704 C 4897.15 -1.15042 5.70211 0
M  V30 49705 N 4896.13 -1.65354 5.17841 0
M  V30 49706 H 4899.93 -0.456862 2.90327 0
M  V30 49707 H 4897.45 -0.152562 1.61682 0
M  V30 49708 H 4899.44 -2.92033 2.97527 0
M  V30 49709 H 4898.1 -2.6877 1.82189 0
M  V30 49710 H 4899.11 -0.958162 5.08959 0
M  V30 49711 H 4895.79 -2.69943 3.18491 0
M  V30 49712 H 4897.18 -0.678008 6.6847 0
M  V30 49713 N 4899.9 -1.56035 -0.221519 0
M  V30 49714 C 4900.83 -1.88905 -1.29799 0
M  V30 49715 C 4901.85 -0.777319 -1.43044 0
M  V30 49716 O 4903.04 -1.05562 -1.43941 0
M  V30 49717 C 4900.14 -2.08259 -2.6736 0
M  V30 49718 C 4899.31 -3.39277 -2.76062 0
M  V30 49719 C 4898.37 -3.48063 -3.94637 0
M  V30 49720 O 4897.39 -4.21094 -3.82974 0
M  V30 49721 N 4898.6 -2.79209 -5.08943 0
M  V30 49722 H 4901.36 -2.81835 -1.01928 0
M  V30 49723 H 4898.92 -1.56582 -0.411557 0
M  V30 49724 H 4900.91 -2.11453 -3.45065 0
M  V30 49725 H 4899.48 -1.21954 -2.8783 0
M  V30 49726 H 4898.7 -3.48181 -1.84833 0
M  V30 49727 H 4899.99 -4.25585 -2.78845 0
M  V30 49728 H 4899.39 -2.19654 -5.21314 0
M  V30 49729 H 4897.95 -2.88063 -5.8469 0
M  V30 49730 N 4901.38 0.488223 -1.49847 0
M  V30 49731 C 4902.31 1.60533 -1.6359 0
M  V30 49732 C 4903.32 1.54338 -0.518026 0
M  V30 49733 O 4904.51 1.60038 -0.790572 0
M  V30 49734 C 4901.61 2.99368 -1.58845 0
M  V30 49735 C 4900.79 3.30614 -2.8638 0
M  V30 49736 C 4899.85 4.4892 -2.74512 0
M  V30 49737 O 4898.87 4.50072 -3.48459 0
M  V30 49738 N 4900.07 5.49585 -1.86914 0
M  V30 49739 H 4902.84 1.49167 -2.59941 0
M  V30 49740 H 4900.4 0.676339 -1.47096 0
M  V30 49741 H 4902.39 3.76454 -1.48542 0
M  V30 49742 H 4900.96 3.04593 -0.702999 0
M  V30 49743 H 4900.18 2.42303 -3.10939 0
M  V30 49744 H 4901.47 3.48292 -3.70904 0
M  V30 49745 H 4900.87 5.51463 -1.26116 0
M  V30 49746 H 4899.42 6.25722 -1.82525 0
M  V30 49747 N 4902.86 1.39136 0.740193 0
M  V30 49748 C 4904.1 1.36278 1.50187 0
M  V30 49749 C 4904.44 -0.0429453 1.94153 0
M  V30 49750 O 4903.71 -1.00685 1.66411 0
M  V30 49751 C 4903.99 2.33051 2.74517 0
M  V30 49752 C 4903.85 3.82543 2.36603 0
M  V30 49753 C 4905.17 2.27736 3.76596 0
M  V30 49754 H 4902.29 0.496343 0.544805 0
M  V30 49755 H 4904.93 1.70088 0.846755 0
M  V30 49756 H 4903.08 2.04349 3.30415 0
M  V30 49757 H 4904.75 4.21973 1.86376 0
M  V30 49758 H 4902.99 3.99571 1.68895 0
M  V30 49759 H 4903.66 4.45734 3.25615 0
M  V30 49760 H 4906.14 2.53103 3.3027 0
M  V30 49761 H 4905.02 2.97536 4.61263 0
M  V30 49762 H 4905.28 1.28064 4.23145 0
M  V30 49763 N 4904.34 -0.969824 1.24226 0
M  V30 49764 C 4905.28 -2.06404 1.03277 0
M  V30 49765 C 4906.25 -1.66015 -0.0532416 0
M  V30 49766 O 4907.44 -1.90533 0.100963 0
M  V30 49767 C 4904.58 -3.39087 0.641381 0
M  V30 49768 C 4903.69 -3.92684 1.80065 0
M  V30 49769 C 4902.83 -5.13627 1.35504 0
M  V30 49770 C 4901.86 -5.59415 2.48439 0
M  V30 49771 N 4901 -6.71578 2.0476 0
M  V30 49772 H 4905.84 -2.23656 1.96931 0
M  V30 49773 H 4903.38 -1.09621 0.9809 0
M  V30 49774 H 4905.34 -4.15321 0.395497 0
M  V30 49775 H 4903.97 -3.21766 -0.258156 0
M  V30 49776 H 4903.02 -3.13109 2.16025 0
M  V30 49777 H 4904.33 -4.22627 2.64931 0
M  V30 49778 H 4903.48 -5.97227 1.06791 0
M  V30 49779 H 4902.22 -4.85363 0.476893 0
M  V30 49780 H 4901.23 -4.74388 2.77914 0
M  V30 49781 H 4902.45 -5.89693 3.36807 0
M  V30 49782 H 4900.4 -6.45053 1.19341 0
M  V30 49783 H 4900.32 -7.0096 2.8318 0
M  V30 49784 H 4901.58 -7.58627 1.79181 0
M  V30 49785 N 4905.81 -1.05567 -1.17018 0
M  V30 49786 C 4907.06 -0.763102 -1.86707 0
M  V30 49787 C 4907.38 0.712793 -1.8215 0
M  V30 49788 O 4908.58 1.11946 -2.47347 0
M  V30 49789 C 4907.04 -1.31485 -3.35022 0
M  V30 49790 C 4906.65 -2.82046 -3.48072 0
M  V30 49791 C 4908.39 -1.0995 -4.10014 0
M  V30 49792 C 4906.3 -3.30503 -4.9043 0
M  V30 49793 H 4905.23 -0.281771 -0.699372 0
M  V30 49794 H 4907.88 -1.27345 -1.3212 0
M  V30 49795 H 4906.26 -0.732308 -3.8917 0
M  V30 49796 H 4907.43 -3.46189 -3.04121 0
M  V30 49797 H 4905.75 -3.02166 -2.86504 0
M  V30 49798 H 4908.35 -1.4365 -5.15042 0
M  V30 49799 H 4908.69 -0.0374536 -4.16283 0
M  V30 49800 H 4909.22 -1.64745 -3.62083 0
M  V30 49801 H 4905.96 -4.36154 -4.89336 0
M  V30 49802 H 4905.48 -2.71105 -5.35035 0
M  V30 49803 H 4907.16 -3.25402 -5.59216 0
M  V30 49804 N 4907.29 1.33523 -0.837221 0
M  V30 49805 C 4908.52 2.02045 -0.445565 0
M  V30 49806 C 4908.93 1.62998 0.952731 0
M  V30 49807 O 4908.29 0.842503 1.61889 0
M  V30 49808 C 4908.34 3.57219 -0.554702 0
M  V30 49809 O 4908.06 3.94856 -1.8979 0
M  V30 49810 C 4909.56 4.43012 -0.159789 0
M  V30 49811 H 4906.78 0.647215 -0.17707 0
M  V30 49812 H 4909.33 1.70488 -1.12934 0
M  V30 49813 H 4907.48 3.87315 0.0811419 0
M  V30 49814 H 4907.9 4.89562 -1.88225 0
M  V30 49815 H 4909.37 5.51252 -0.287204 0
M  V30 49816 H 4909.85 4.29919 0.898138 0
M  V30 49817 H 4910.45 4.18272 -0.770002 0
M  V30 49818 N 4908.77 0.593501 1.45998 0
M  V30 49819 C 4910.02 0.0833467 2.02629 0
M  V30 49820 C 4910.35 -1.27744 1.4627 0
M  V30 49821 O 4909.62 -1.83948 0.63193 0
M  V30 49822 C 4909.91 0.0292022 3.60088 0
M  V30 49823 C 4909.76 1.41966 4.26809 0
M  V30 49824 C 4911.08 -0.665903 4.35033 0
M  V30 49825 H 4908.2 0.0317619 0.736315 0
M  V30 49826 H 4910.84 0.762773 1.74017 0
M  V30 49827 H 4908.99 -0.549397 3.84596 0
M  V30 49828 H 4910.66 2.04425 4.13531 0
M  V30 49829 H 4908.91 1.98436 3.85753 0
M  V30 49830 H 4909.58 1.33414 5.35635 0
M  V30 49831 H 4912.05 -0.174255 4.15735 0
M  V30 49832 H 4910.93 -0.672849 5.4476 0
M  V30 49833 H 4911.19 -1.72931 4.06875 0
M  V30 49834 N 4910.25 -1.54066 0.33187 0
M  V30 49835 C 4911.49 -2.01714 -0.261324 0
M  V30 49836 C 4911.85 -1.21572 -1.49124 0
M  V30 49837 O 4911.14 -0.291934 -1.89363 0
M  V30 49838 C 4911.34 -3.51636 -0.639268 0
M  V30 49839 C 4911.17 -4.46293 0.552478 0
M  V30 49840 C 4909.94 -4.94182 1.05417 0
M  V30 49841 C 4912.13 -4.94672 1.40728 0
M  V30 49842 N 4910.12 -5.72762 2.20946 0
M  V30 49843 C 4911.49 -5.71259 2.40963 0
M  V30 49844 C 4913.54 -4.768 1.43409 0
M  V30 49845 C 4912.24 -6.31877 3.43692 0
M  V30 49846 C 4914.27 -5.38259 2.45013 0
M  V30 49847 C 4913.63 -6.14704 3.43974 0
M  V30 49848 H 4909.73 -0.779753 -0.0592455 0
M  V30 49849 H 4912.32 -1.88972 0.468792 0
M  V30 49850 H 4910.49 -3.64607 -1.3385 0
M  V30 49851 H 4912.22 -3.86042 -1.21465 0
M  V30 49852 H 4908.97 -4.6947 0.624117 0
M  V30 49853 H 4909.4 -6.16727 2.79243 0
M  V30 49854 H 4914.04 -4.17253 0.682636 0
M  V30 49855 H 4911.76 -6.90539 4.19739 0
M  V30 49856 H 4915.34 -5.26343 2.47899 0
M  V30 49857 H 4914.22 -6.61415 4.21307 0
M  V30 49858 N 4911.73 -0.0602235 -1.57485 0
M  V30 49859 C 4912.69 0.896298 -2.10948 0
M  V30 49860 C 4913.69 1.23398 -1.031 0
M  V30 49861 O 4914.88 1.16917 -1.29136 0
M  V30 49862 C 4912.01 2.20337 -2.60124 0
M  V30 49863 H 4913.2 0.432673 -2.96762 0
M  V30 49864 H 4910.76 0.188317 -1.55161 0
M  V30 49865 H 4911.49 2.71262 -1.77729 0
M  V30 49866 H 4911.28 1.97129 -3.38944 0
M  V30 49867 H 4912.77 2.88835 -3.01603 0
M  V30 49868 N 4913.2 1.56151 0.213241 0
M  V30 49869 C 4914.13 1.96114 1.26735 0
M  V30 49870 C 4915.12 0.830501 1.48448 0
M  V30 49871 O 4916.3 1.09345 1.60491 0
M  V30 49872 C 4913.43 2.28501 2.61543 0
M  V30 49873 C 4912.38 3.44133 2.54473 0
M  V30 49874 C 4911.71 3.62148 3.93387 0
M  V30 49875 C 4913.01 4.78862 2.08539 0
M  V30 49876 H 4914.7 2.84415 0.935334 0
M  V30 49877 H 4912.25 1.36838 0.448492 0
M  V30 49878 H 4914.2 2.55051 3.35451 0
M  V30 49879 H 4912.93 1.37062 2.96448 0
M  V30 49880 H 4911.59 3.17646 1.83021 0
M  V30 49881 H 4911.23 2.6807 4.25614 0
M  V30 49882 H 4910.93 4.39927 3.89536 0
M  V30 49883 H 4912.46 3.91054 4.68944 0
M  V30 49884 H 4913.87 5.04562 2.72195 0
M  V30 49885 H 4912.27 5.59983 2.1573 0
M  V30 49886 H 4913.34 4.73661 1.03794 0
M  V30 49887 N 4914.68 -0.48027 1.50104 0
M  V30 49888 C 4915.61 -1.59664 1.64439 0
M  V30 49889 C 4916.63 -1.54061 0.526204 0
M  V30 49890 O 4917.82 -1.59617 0.799048 0
M  V30 49891 C 4914.92 -2.98522 1.60431 0
M  V30 49892 C 4914.09 -3.2909 2.88129 0
M  V30 49893 C 4913.15 -4.47458 2.76889 0
M  V30 49894 O 4912.17 -4.48218 3.50841 0
M  V30 49895 N 4913.38 -5.48586 1.89826 0
M  V30 49896 H 4916.14 -1.47786 2.60728 0
M  V30 49897 H 4913.7 -0.668528 1.47453 0
M  V30 49898 H 4915.69 -3.75661 1.50537 0
M  V30 49899 H 4914.26 -3.04216 0.719143 0
M  V30 49900 H 4913.48 -2.40651 3.12219 0
M  V30 49901 H 4914.77 -3.46321 3.72746 0
M  V30 49902 H 4914.17 -5.50786 1.29039 0
M  V30 49903 H 4912.73 -6.24745 1.85841 0
M  V30 49904 N 4916.16 -1.39527 -0.732804 0
M  V30 49905 C 4917.09 -1.4116 -1.86 0
M  V30 49906 C 4918.07 -0.274673 -1.67868 0
M  V30 49907 O 4919.26 -0.480811 -1.88154 0
M  V30 49908 C 4916.39 -1.2565 -3.23774 0
M  V30 49909 C 4915.34 -2.36765 -3.56548 0
M  V30 49910 C 4914.67 -2.06343 -4.93282 0
M  V30 49911 C 4915.97 -3.79082 -3.59297 0
M  V30 49912 H 4917.66 -2.3549 -1.84891 0
M  V30 49913 H 4915.21 -1.13351 -0.888122 0
M  V30 49914 H 4917.16 -1.25413 -4.02305 0
M  V30 49915 H 4915.88 -0.277886 -3.25416 0
M  V30 49916 H 4914.54 -2.36223 -2.80347 0
M  V30 49917 H 4914.19 -1.06914 -4.91506 0
M  V30 49918 H 4913.89 -2.80775 -5.16177 0
M  V30 49919 H 4915.41 -2.07759 -5.74168 0
M  V30 49920 H 4916.83 -3.81541 -4.27901 0
M  V30 49921 H 4915.23 -4.52892 -3.93712 0
M  V30 49922 H 4916.3 -4.09902 -2.59053 0
M  V30 49923 N 4917.64 0.963222 -1.24739 0
M  V30 49924 C 4918.87 1.74162 -1.11692 0
M  V30 49925 C 4919.28 1.85891 0.330122 0
M  V30 49926 O 4918.64 1.35046 1.22755 0
M  V30 49927 C 4918.69 3.15982 -1.75606 0
M  V30 49928 O 4918.41 3.04836 -3.14653 0
M  V30 49929 C 4919.91 4.1014 -1.68227 0
M  V30 49930 H 4917.13 0.546017 -0.390008 0
M  V30 49931 H 4919.68 1.20901 -1.64934 0
M  V30 49932 H 4917.83 3.66214 -1.26356 0
M  V30 49933 H 4918.24 3.94238 -3.45943 0
M  V30 49934 H 4919.72 5.07291 -2.17622 0
M  V30 49935 H 4920.2 4.34448 -0.644361 0
M  V30 49936 H 4920.8 3.65819 -2.16925 0
M  V30 49937 N 4919.12 1.06186 1.16457 0
M  V30 49938 C 4920.34 0.798667 1.91406 0
M  V30 49939 C 4920.77 -0.640925 1.76844 0
M  V30 49940 O 4920.12 -1.44648 1.09301 0
M  V30 49941 C 4920.17 1.19677 3.40161 0
M  V30 49942 O 4919.28 0.334913 4.11038 0
M  V30 49943 H 4918.62 0.291982 0.596358 0
M  V30 49944 H 4921.15 1.41737 1.47552 0
M  V30 49945 H 4921.16 1.16786 3.90928 0
M  V30 49946 H 4919.83 2.24538 3.50079 0
M  V30 49947 H 4918.41 0.425298 3.70467 0
M  V30 49948 N 4920.59 -1.33077 0.84429 0
M  V30 49949 C 4921.53 -2.27953 0.238751 0
M  V30 49950 C 4922.54 -1.5198 -0.583612 0
M  V30 49951 O 4923.73 -1.73732 -0.409796 0
M  V30 49952 C 4920.83 -3.31965 -0.682068 0
M  V30 49953 C 4920 -4.37281 0.102152 0
M  V30 49954 C 4919.06 -5.2093 -0.742838 0
M  V30 49955 O 4918.09 -5.68915 -0.180085 0
M  V30 49956 N 4919.29 -5.42746 -2.05931 0
M  V30 49957 H 4922.05 -2.80556 1.05396 0
M  V30 49958 H 4919.61 -1.45828 0.703271 0
M  V30 49959 H 4921.61 -3.84832 -1.25246 0
M  V30 49960 H 4920.18 -2.79599 -1.39798 0
M  V30 49961 H 4919.4 -3.8484 0.853937 0
M  V30 49962 H 4920.68 -5.04744 0.641192 0
M  V30 49963 H 4920.08 -5.05472 -2.53998 0
M  V30 49964 H 4918.64 -5.98648 -2.57806 0
M  V30 49965 N 4922.07 -0.601236 -1.45681 0
M  V30 49966 C 4923.35 -0.0262347 -1.95582 0
M  V30 49967 C 4923.73 1.43985 -1.54375 0
M  V30 49968 O 4923.08 2.13916 -0.803255 0
M  V30 49969 C 4923.29 -0.217679 -3.4832 0
M  V30 49970 C 4924.64 -0.0951568 -4.24493 0
M  V30 49971 O 4925.66 -0.14747 -3.55895 0
M  V30 49972 O 4924.52 0.0250689 -5.46494 0
M  V30 49973 H 4921.61 0.0393398 -0.826064 0
M  V30 49974 H 4924.16 -0.670853 -1.55877 0
M  V30 49975 H 4922.93 -1.23615 -3.71262 0
M  V30 49976 H 4922.55 0.462501 -3.94901 0
M  V30 49977 N 4923.55 1.53888 -0.340036 0
M  V30 49978 C 4924.79 2.02766 0.25794 0
M  V30 49979 C 4925.16 1.22254 1.48047 0
M  V30 49980 O 4926.36 1.61014 2.15239 0
M  V30 49981 C 4924.63 3.52862 0.567748 0
M  V30 49982 S 4926.19 4.23651 1.14304 0
M  V30 49983 H 4923 0.706817 0.077014 0
M  V30 49984 H 4925.61 1.89592 -0.476984 0
M  V30 49985 H 4924.31 4.09072 -0.329889 0
M  V30 49986 H 4923.84 3.70148 1.33243 0
M  V30 49987 H 4925.86 4.32684 2.42896 0
M  V30 49988 N 4925.03 0.0685745 1.57451 0
M  V30 49989 C 4926.26 -0.610393 1.97691 0
M  V30 49990 C 4926.67 -1.63343 0.946816 0
M  V30 49991 O 4926.03 -1.82377 -0.0669227 0
M  V30 49992 C 4926.08 -1.28184 3.38011 0
M  V30 49993 O 4925.8 -0.299753 4.37073 0
M  V30 49994 C 4927.3 -2.04893 3.93108 0
M  V30 49995 H 4924.52 -0.165666 0.650227 0
M  V30 49996 H 4927.07 0.140025 2.0402 0
M  V30 49997 H 4925.22 -1.98336 3.32778 0
M  V30 49998 H 4925.64 -0.781078 5.18652 0
M  V30 49999 H 4927.11 -2.4727 4.9352 0
M  V30 50000 H 4927.59 -2.90418 3.29475 0
M  V30 50001 H 4928.19 -1.39614 4.01731 0
M  V30 50002 N 4926.51 -1.56262 -0.204957 0
M  V30 50003 C 4927.44 -1.90271 -1.27788 0
M  V30 50004 C 4928.45 -0.792447 -1.42212 0
M  V30 50005 O 4929.64 -1.07082 -1.42813 0
M  V30 50006 C 4926.74 -2.11083 -2.65136 0
M  V30 50007 C 4925.91 -3.42186 -2.72448 0
M  V30 50008 C 4924.97 -3.52229 -3.90923 0
M  V30 50009 O 4924 -4.25132 -3.78486 0
M  V30 50010 N 4925.2 -2.84591 -5.05953 0
M  V30 50011 H 4927.97 -2.829 -0.989334 0
M  V30 50012 H 4925.53 -1.57009 -0.394926 0
M  V30 50013 H 4927.52 -2.15101 -3.42803 0
M  V30 50014 H 4926.09 -1.25 -2.8652 0
M  V30 50015 H 4925.31 -3.50122 -1.8113 0
M  V30 50016 H 4926.6 -4.28519 -2.74316 0
M  V30 50017 H 4926 -2.25171 -5.18955 0
M  V30 50018 H 4924.55 -2.94248 -5.81602 0
M  V30 50019 N 4927.99 0.472303 -1.50356 0
M  V30 50020 C 4928.93 1.5912 -1.69657 0
M  V30 50021 C 4929.93 1.59791 -0.562426 0
M  V30 50022 O 4931.13 1.63955 -0.74289 0
M  V30 50023 H 4927.51 0.52799 -0.535473 0
M  V30 50024 H 4929.48 1.40003 -2.63518 0
M  V30 50025 C 4928.23 2.97069 -1.8068 0
M  V30 50026 H 4927.55 2.97271 -2.67339 0
M  V30 50027 H 4928.99 3.74818 -1.9821 0
M  V30 50028 C 4927.45 3.32245 -0.558133 0
M  V30 50029 O 4927.98 4.00554 0.303258 0
M  V30 50030 N 4926.19 2.87657 -0.412516 0
M  V30 50031 H 4925.73 2.32242 -1.11452 0
M  V30 50032 H 4925.69 3.11558 0.421798 0
M  V30 50033 N 4929.46 1.39914 0.725394 0
M  V30 50034 C 4930.69 1.4075 1.51239 0
M  V30 50035 C 4931.1 0.00282054 1.892 0
M  V30 50036 O 4930.44 -0.981245 1.55297 0
M  V30 50037 C 4930.51 2.22537 2.82343 0
M  V30 50038 C 4930.17 3.71063 2.66761 0
M  V30 50039 C 4931.17 4.63925 2.3467 0
M  V30 50040 C 4928.85 4.14763 2.83332 0
M  V30 50041 C 4930.85 5.9847 2.19345 0
M  V30 50042 C 4928.53 5.49382 2.67625 0
M  V30 50043 C 4929.53 6.4105 2.35678 0
M  V30 50044 O 4929.22 7.73188 2.2008 0
M  V30 50045 H 4928.95 0.482331 0.473638 0
M  V30 50046 H 4931.51 1.84475 0.903219 0
M  V30 50047 H 4929.74 1.73575 3.45556 0
M  V30 50048 H 4931.42 2.15433 3.44011 0
M  V30 50049 H 4932.19 4.31461 2.2151 0
M  V30 50050 H 4928.07 3.43739 3.07188 0
M  V30 50051 H 4931.61 6.69986 1.94331 0
M  V30 50052 H 4927.51 5.81433 2.80367 0
M  V30 50053 H 4928.28 7.84016 2.35076 0
M  V30 50054 N 4930.94 -0.956593 1.25248 0
M  V30 50055 C 4931.87 -2.07054 1.07939 0
M  V30 50056 C 4932.85 -1.70096 -0.0109763 0
M  V30 50057 O 4934.04 -1.93555 0.158189 0
M  V30 50058 C 4931.17 -3.4027 0.695244 0
M  V30 50059 C 4930.12 -3.91229 1.73562 0
M  V30 50060 C 4929.45 -5.20917 1.20622 0
M  V30 50061 C 4930.75 -4.17826 3.13399 0
M  V30 50062 H 4932.44 -2.21793 2.01117 0
M  V30 50063 H 4929.99 -1.06577 0.968363 0
M  V30 50064 H 4931.94 -4.17648 0.561096 0
M  V30 50065 H 4930.66 -3.25463 -0.272241 0
M  V30 50066 H 4929.32 -3.16018 1.85818 0
M  V30 50067 H 4928.97 -5.02478 0.229023 0
M  V30 50068 H 4928.67 -5.55981 1.90156 0
M  V30 50069 H 4930.2 -6.00893 1.08443 0
M  V30 50070 H 4931.61 -4.85869 3.04309 0
M  V30 50071 H 4930.01 -4.64141 3.80386 0
M  V30 50072 H 4931.08 -3.24177 3.60607 0
M  V30 50073 N 4932.42 -1.06802 -1.15892 0
M  V30 50074 C 4933.35 -0.64134 -2.20044 0
M  V30 50075 C 4934.36 0.303299 -1.5995 0
M  V30 50076 O 4935.55 0.0934851 -1.78255 0
M  V30 50077 C 4932.65 0.0792837 -3.38807 0
M  V30 50078 C 4931.83 -0.880137 -4.28453 0
M  V30 50079 C 4930.89 -0.197823 -5.25828 0
M  V30 50080 O 4929.91 -0.837111 -5.63011 0
M  V30 50081 N 4931.11 1.05866 -5.70765 0
M  V30 50082 H 4933.88 -1.53727 -2.5727 0
M  V30 50083 H 4931.44 -0.951997 -1.30953 0
M  V30 50084 H 4933.43 0.546277 -4.00996 0
M  V30 50085 H 4932 0.877088 -3.00043 0
M  V30 50086 H 4931.22 -1.52638 -3.63449 0
M  V30 50087 H 4932.51 -1.53082 -4.85225 0
M  V30 50088 H 4931.91 1.59809 -5.42658 0
M  V30 50089 H 4930.46 1.46943 -6.3502 0
M  V30 50090 N 4933.9 1.32627 -0.851335 0
M  V30 50091 C 4934.83 2.31448 -0.308853 0
M  V30 50092 C 4935.81 1.59533 0.590199 0
M  V30 50093 O 4936.99 1.87353 0.511139 0
M  V30 50094 C 4934.12 3.43588 0.506428 0
M  V30 50095 C 4933.08 4.26962 -0.297903 0
M  V30 50096 C 4932.4 5.30833 0.641907 0
M  V30 50097 C 4933.7 4.99637 -1.52183 0
M  V30 50098 H 4935.4 2.7707 -1.13457 0
M  V30 50099 H 4932.94 1.33206 -0.547018 0
M  V30 50100 H 4934.9 4.11757 0.89633 0
M  V30 50101 H 4933.62 2.96685 1.36548 0
M  V30 50102 H 4932.28 3.60434 -0.669518 0
M  V30 50103 H 4931.93 4.80185 1.49771 0
M  V30 50104 H 4931.63 5.87501 0.107761 0
M  V30 50105 H 4933.15 6.01866 1.02906 0
M  V30 50106 H 4934.57 5.60506 -1.20441 0
M  V30 50107 H 4932.96 5.66015 -1.99367 0
M  V30 50108 H 4934.03 4.27693 -2.28489 0
M  V30 50109 N 4935.38 0.608953 1.4536 0
M  V30 50110 C 4936.31 -0.147237 2.28727 0
M  V30 50111 C 4937.32 -0.830419 1.40028 0
M  V30 50112 O 4938.51 -0.695579 1.6439 0
M  V30 50113 C 4935.61 -1.22957 3.15808 0
M  V30 50114 C 4934.78 -0.633239 4.32792 0
M  V30 50115 C 4933.84 -1.60664 5.01072 0
M  V30 50116 O 4932.87 -1.13241 5.57822 0
M  V30 50117 N 4934.07 -2.94105 5.00482 0
M  V30 50118 H 4936.83 0.568117 2.94266 0
M  V30 50119 H 4934.4 0.448534 1.55563 0
M  V30 50120 H 4936.39 -1.8806 3.58351 0
M  V30 50121 H 4934.96 -1.84743 2.52168 0
M  V30 50122 H 4934.18 0.1959 3.93713 0
M  V30 50123 H 4935.47 -0.215076 5.08345 0
M  V30 50124 H 4934.86 -3.35234 4.55669 0
M  V30 50125 H 4933.42 -3.54627 5.46885 0
M  V30 50126 N 4936.85 -1.53705 0.348193 0
M  V30 50127 C 4938.13 -1.93248 -0.302407 0
M  V30 50128 C 4938.51 -1.28018 -1.67853 0
M  V30 50129 O 4937.86 -0.432819 -2.24363 0
M  V30 50130 C 4938.07 -3.47033 -0.370037 0
M  V30 50131 C 4939.42 -4.20069 -0.618672 0
M  V30 50132 O 4940.44 -3.53321 -0.451963 0
M  V30 50133 O 4939.3 -5.38321 -0.941961 0
M  V30 50134 H 4936.39 -0.807742 -0.17743 0
M  V30 50135 H 4938.94 -1.64926 0.399708 0
M  V30 50136 H 4937.71 -3.86743 0.595476 0
M  V30 50137 H 4937.33 -3.81536 -1.11875 0
M  V30 50138 N 4938.33 -0.0769235 -1.57412 0
M  V30 50139 C 4939.56 0.603334 -1.9843 0
M  V30 50140 C 4939.98 1.62044 -0.955165 0
M  V30 50141 O 4939.34 1.81129 0.0786141 0
M  V30 50142 C 4939.39 1.24384 -3.38469 0
M  V30 50143 O 4938.49 2.3597 -3.38219 0
M  V30 50144 H 4937.83 0.154718 -0.645723 0
M  V30 50145 H 4940.36 -0.152957 -2.04027 0
M  V30 50146 H 4940.37 1.58947 -3.75766 0
M  V30 50147 H 4939.05 0.49859 -4.12901 0
M  V30 50148 H 4937.63 2.03162 -3.12697 0
M  V30 50149 N 4939.81 1.56368 0.196667 0
M  V30 50150 C 4941.22 1.70465 0.761485 0
M  V30 50151 C 4941.57 0.683226 1.8392 0
M  V30 50152 O 4940.7 -0.160677 2.15803 0
M  V30 50153 C 4941.29 3.09062 1.38803 0
M  V30 50154 C 4939.85 3.24929 1.89995 0
M  V30 50155 C 4939 2.66415 0.769305 0
M  V30 50156 H 4941.95 1.58675 -0.0283821 0
M  V30 50157 H 4941.97 3.06304 2.25739 0
M  V30 50158 H 4941.48 3.8338 0.603424 0
M  V30 50159 H 4939.58 2.55523 2.7118 0
M  V30 50160 H 4939.7 4.32417 2.06282 0
M  V30 50161 H 4938.06 2.2555 1.18318 0
M  V30 50162 H 4938.84 3.433 -0.00303842 0
M  V30 50163 N 4941.29 -0.464322 1.50605 0
M  V30 50164 C 4942.22 -1.57911 1.66123 0
M  V30 50165 C 4943.23 -1.53495 0.542514 0
M  V30 50166 O 4944.42 -1.5876 0.815933 0
M  V30 50167 C 4941.52 -2.96803 1.63588 0
M  V30 50168 C 4940.7 -3.26016 2.91603 0
M  V30 50169 C 4939.75 -4.44496 2.81619 0
M  V30 50170 O 4938.78 -4.44472 3.55575 0
M  V30 50171 N 4939.98 -5.46542 1.95633 0
M  V30 50172 H 4942.75 -1.45012 2.62281 0
M  V30 50173 H 4940.31 -0.652851 1.48154 0
M  V30 50174 H 4942.3 -3.74043 1.54512 0
M  V30 50175 H 4940.87 -3.03436 0.751368 0
M  V30 50176 H 4940.09 -2.37326 3.14754 0
M  V30 50177 H 4941.38 -3.42348 3.76398 0
M  V30 50178 H 4940.78 -5.49387 1.34874 0
M  V30 50179 H 4939.33 -6.22739 1.92457 0
M  V30 50180 N 4942.77 -1.40296 -0.717964 0
M  V30 50181 C 4944.01 -1.38172 -1.47489 0
M  V30 50182 C 4944.34 0.0160014 -1.94993 0
M  V30 50183 O 4943.61 0.970337 -1.7018 0
M  V30 50184 H 4942.19 -0.508525 -0.547185 0
M  V30 50185 H 4944.85 -1.75327 -0.85126 0
M  V30 50186 H 4943.94 -2.05511 -2.34887 0
M  V30 50187 N 4944.24 0.949938 -1.25754 0
M  V30 50188 C 4945.19 2.03293 -1.03228 0
M  V30 50189 C 4946.18 1.60867 0.0324186 0
M  V30 50190 O 4947.37 1.76046 -0.183485 0
M  V30 50191 C 4944.5 3.36936 -0.657959 0
M  V30 50192 C 4943.59 3.85872 -1.75966 0
M  V30 50193 N 4943.98 4.0755 -2.99561 0
M  V30 50194 C 4942.27 4.14703 -1.64125 0
M  V30 50195 C 4942.98 4.47948 -3.71103 0
M  V30 50196 N 4941.95 4.54149 -2.98747 0
M  V30 50197 H 4945.75 2.18054 -1.97053 0
M  V30 50198 H 4943.27 1.13512 -1.16142 0
M  V30 50199 H 4945.26 4.14153 -0.477759 0
M  V30 50200 H 4943.92 3.23551 0.272911 0
M  V30 50201 H 4944.94 3.94489 -3.35558 0
M  V30 50202 H 4941.61 4.10155 -0.779671 0
M  V30 50203 H 4943 4.72985 -4.77216 0
M  V30 50204 N 4945.72 1.07416 1.15324 0
M  V30 50205 C 4946.97 0.796139 1.85758 0
M  V30 50206 C 4947.29 -0.6798 1.82767 0
M  V30 50207 O 4946.56 -1.49237 1.26906 0
M  V30 50208 H 4945.14 0.291519 0.687769 0
M  V30 50209 H 4947.8 1.35804 1.39798 0
M  V30 50210 H 4946.9 1.13124 2.90877 0
M  V30 50211 N 4947.2 -1.32174 0.858357 0
M  V30 50212 C 4948.15 -2.30728 0.294523 0
M  V30 50213 C 4949.14 -1.59011 -0.584109 0
M  V30 50214 O 4950.35 -1.73715 -0.471501 0
M  V30 50215 H 4946.72 -0.748094 0.0765434 0
M  V30 50216 H 4948.69 -2.7577 1.1399 0
M  V30 50217 C 4947.44 -3.44099 -0.499087 0
M  V30 50218 H 4946.77 -3.99448 0.167719 0
M  V30 50219 H 4948.21 -4.15205 -0.859127 0
M  V30 50220 C 4946.67 -2.9169 -1.68578 0
M  V30 50221 O 4947.2 -2.89491 -2.78492 0
M  V30 50222 N 4945.4 -2.48041 -1.51406 0
M  V30 50223 H 4944.95 -2.5003 -0.619918 0
M  V30 50224 H 4944.91 -2.1333 -2.3095 0
M  V30 50225 N 4948.68 -0.616653 -1.45035 0
M  V30 50226 C 4949.9 -0.120265 -2.07051 0
M  V30 50227 C 4950.33 1.19003 -1.45671 0
M  V30 50228 O 4949.69 1.72668 -0.552753 0
M  V30 50229 C 4949.73 -0.00367578 -3.606 0
M  V30 50230 O 4948.84 1.04417 -3.98962 0
M  V30 50231 H 4948.18 -0.0781831 -0.659381 0
M  V30 50232 H 4950.71 -0.849232 -1.86143 0
M  V30 50233 H 4950.72 0.191611 -4.0755 0
M  V30 50234 H 4949.39 -0.960381 -4.0466 0
M  V30 50235 H 4947.97 0.824622 -3.63668 0
M  V30 50236 N 4950.16 1.53519 -0.356339 0
M  V30 50237 C 4951.57 1.59599 -0.00490877 0
M  V30 50238 C 4951.77 1.37184 1.4759 0
M  V30 50239 O 4950.83 1.17242 2.2363 0
M  V30 50240 C 4952.14 2.97275 -0.452558 0
M  V30 50241 C 4953.69 3.10356 -0.40599 0
M  V30 50242 C 4954.16 4.50429 -0.829307 0
M  V30 50243 N 4955.66 4.56517 -0.783998 0
M  V30 50244 C 4956.39 5.63073 -1.08334 0
M  V30 50245 N 4955.89 6.77424 -1.4515 0
M  V30 50246 N 4957.68 5.53011 -1.00674 0
M  V30 50247 H 4949.83 1.66342 -1.32076 0
M  V30 50248 H 4952.09 0.779691 -0.539245 0
M  V30 50249 H 4951.8 3.18787 -1.48553 0
M  V30 50250 H 4951.67 3.76836 0.165629 0
M  V30 50251 H 4954.06 2.8856 0.617833 0
M  V30 50252 H 4954.14 2.32824 -1.05955 0
M  V30 50253 H 4953.79 4.72962 -1.8512 0
M  V30 50254 H 4953.72 5.26377 -0.153091 0
M  V30 50255 H 4956.21 3.74407 -0.512644 0
M  V30 50256 H 4956.52 7.54664 -1.66442 0
M  V30 50257 H 4954.86 6.78839 -1.49007 0
M  V30 50258 H 4958.06 4.62555 -0.718378 0
M  V30 50259 H 4958.23 6.35959 -1.24337 0
M  V30 50260 N 4951.63 0.0852704 1.57369 0
M  V30 50261 C 4952.88 -0.580737 1.93994 0
M  V30 50262 C 4953.21 -1.68798 0.966311 0
M  V30 50263 O 4952.46 -1.95694 -0.0157961 0
M  V30 50264 C 4952.76 -1.1847 3.37194 0
M  V30 50265 C 4952.43 -0.202242 4.50446 0
M  V30 50266 C 4951.09 0.0680009 4.81152 0
M  V30 50267 C 4953.44 0.469132 5.19084 0
M  V30 50268 C 4950.77 1.01648 5.77828 0
M  V30 50269 C 4953.12 1.40602 6.16777 0
M  V30 50270 C 4951.79 1.68459 6.45893 0
M  V30 50271 H 4951.06 -0.212507 0.709875 0
M  V30 50272 H 4953.7 0.159014 1.90839 0
M  V30 50273 H 4952.01 -2.00048 3.3688 0
M  V30 50274 H 4953.71 -1.70754 3.62828 0
M  V30 50275 H 4950.3 -0.423058 4.26507 0
M  V30 50276 H 4954.48 0.273482 4.95546 0
M  V30 50277 H 4949.74 1.23941 5.98706 0
M  V30 50278 H 4953.91 1.93212 6.69061 0
M  V30 50279 H 4951.54 2.42113 7.20615 0
M  V30 50280 N 4953.11 -1.5647 -0.188372 0
M  V30 50281 C 4954.05 -1.91615 -1.25763 0
M  V30 50282 C 4955.06 -0.807486 -1.41363 0
M  V30 50283 O 4956.25 -1.08591 -1.41669 0
M  V30 50284 C 4953.35 -2.13884 -2.62882 0
M  V30 50285 C 4952.52 -3.45056 -2.68803 0
M  V30 50286 C 4951.58 -3.56356 -3.87165 0
M  V30 50287 O 4950.61 -4.29122 -3.73955 0
M  V30 50288 N 4951.81 -2.89941 -5.02906 0
M  V30 50289 H 4954.57 -2.83933 -0.959273 0
M  V30 50290 H 4952.13 -1.57419 -0.378251 0
M  V30 50291 H 4954.13 -2.18724 -3.40502 0
M  V30 50292 H 4952.7 -1.28032 -2.85178 0
M  V30 50293 H 4951.92 -3.52024 -1.77406 0
M  V30 50294 H 4953.2 -4.31404 -2.69755 0
M  V30 50295 H 4952.6 -2.30662 -5.16538 0
M  V30 50296 H 4951.16 -3.004 -5.78449 0
M  V30 50297 N 4954.59 0.456329 -1.50849 0
M  V30 50298 C 4955.84 1.2073 -1.62575 0
M  V30 50299 C 4956.17 1.91629 -0.332971 0
M  V30 50300 O 4955.42 1.83432 0.681994 0
M  V30 50301 C 4955.72 2.26326 -2.76606 0
M  V30 50302 C 4955.39 1.72575 -4.16568 0
M  V30 50303 C 4954.05 1.57638 -4.54647 0
M  V30 50304 C 4956.4 1.32859 -5.03982 0
M  V30 50305 C 4953.73 1.0143 -5.77866 0
M  V30 50306 C 4956.08 0.780879 -6.27762 0
M  V30 50307 C 4954.74 0.618254 -6.64631 0
M  V30 50308 H 4954.01 0.441782 -0.594903 0
M  V30 50309 H 4956.66 0.501104 -1.84827 0
M  V30 50310 H 4954.97 3.02911 -2.485 0
M  V30 50311 H 4956.66 2.84217 -2.82881 0
M  V30 50312 H 4953.25 1.85173 -3.86534 0
M  V30 50313 H 4957.44 1.43228 -4.75184 0
M  V30 50314 H 4952.69 0.875896 -6.05093 0
M  V30 50315 H 4956.87 0.464539 -6.94849 0
M  V30 50316 H 4954.49 0.180571 -7.59986 0
M  V30 50317 N 4956.07 1.40675 0.710514 0
M  V30 50318 C 4957.31 1.40682 1.48284 0
M  V30 50319 C 4957.67 0.00978679 1.91998 0
M  V30 50320 O 4958.87 -0.115287 2.68553 0
M  V30 50321 C 4957.15 2.37298 2.67253 0
M  V30 50322 S 4958.7 2.55707 3.56594 0
M  V30 50323 H 4955.52 0.498562 0.506909 0
M  V30 50324 H 4958.12 1.76987 0.83041 0
M  V30 50325 H 4956.83 3.37625 2.33318 0
M  V30 50326 H 4956.36 2.02294 3.37403 0
M  V30 50327 H 4958.37 1.81328 4.61882 0
M  V30 50328 N 4957.55 -0.943255 1.26256 0
M  V30 50329 C 4958.8 -1.68588 1.11457 0
M  V30 50330 C 4959.12 -1.91959 -0.343056 0
M  V30 50331 O 4958.39 -1.5148 -1.24221 0
M  V30 50332 H 4956.97 -0.624775 0.40947 0
M  V30 50333 H 4959.63 -1.13346 1.58552 0
M  V30 50334 H 4958.72 -2.66048 1.63172 0
M  V30 50335 N 4959.03 -1.08026 -1.14753 0
M  V30 50336 C 4960.44 -0.80712 -1.37687 0
M  V30 50337 C 4960.64 0.585436 -1.92808 0
M  V30 50338 O 4959.7 1.34293 -2.13826 0
M  V30 50339 C 4961.01 -1.88659 -2.34154 0
M  V30 50340 C 4962.56 -1.91215 -2.47802 0
M  V30 50341 C 4963.03 -2.98265 -3.47565 0
M  V30 50342 N 4964.52 -2.97412 -3.55106 0
M  V30 50343 C 4965.26 -3.76887 -4.32139 0
M  V30 50344 N 4964.76 -4.6623 -5.12446 0
M  V30 50345 N 4966.55 -3.65205 -4.27296 0
M  V30 50346 H 4958.7 -1.97827 -0.77319 0
M  V30 50347 H 4960.96 -0.858275 -0.402578 0
M  V30 50348 H 4960.67 -2.88756 -2.00781 0
M  V30 50349 H 4960.54 -1.75256 -3.34014 0
M  V30 50350 H 4962.93 -0.917663 -2.80469 0
M  V30 50351 H 4963.01 -2.08696 -1.47917 0
M  V30 50352 H 4962.65 -3.97918 -3.15632 0
M  V30 50353 H 4962.58 -2.7803 -4.47221 0
M  V30 50354 H 4965.08 -2.32654 -2.97793 0
M  V30 50355 H 4965.39 -5.23488 -5.6849 0
M  V30 50356 H 4963.73 -4.70275 -5.11729 0
M  V30 50357 H 4966.92 -2.94778 -3.63625 0
M  V30 50358 H 4967.1 -4.27384 -4.8708 0
M  V30 50359 N 4960.5 1.31717 -0.865354 0
M  V30 50360 C 4961.45 2.30568 -0.306755 0
M  V30 50361 C 4962.45 1.59319 0.575668 0
M  V30 50362 O 4963.65 1.73963 0.462282 0
M  V30 50363 H 4960.03 0.747678 -0.0805097 0
M  V30 50364 H 4962 2.75161 -1.15451 0
M  V30 50365 C 4960.75 3.44359 0.480831 0
M  V30 50366 H 4960.07 3.99353 -0.1889 0
M  V30 50367 H 4961.51 4.15655 0.837095 0
M  V30 50368 C 4959.97 2.9258 1.67029 0
M  V30 50369 O 4960.5 2.90964 2.76953 0
M  V30 50370 N 4958.7 2.48841 1.50089 0
M  V30 50371 H 4958.25 2.50355 0.60665 0
M  V30 50372 H 4958.21 2.14552 2.29815 0
M  V30 50373 N 4961.98 0.624336 1.44706 0
M  V30 50374 C 4962.94 -0.0748832 2.29078 0
M  V30 50375 C 4963.94 -0.778915 1.40675 0
M  V30 50376 O 4965.13 -0.624534 1.6262 0
M  V30 50377 C 4962.27 -1.11651 3.22097 0
M  V30 50378 H 4963.46 0.667116 2.92386 0
M  V30 50379 H 4961.01 0.384152 1.51506 0
M  V30 50380 H 4961.75 -1.88872 2.63624 0
M  V30 50381 H 4961.53 -0.615694 3.87236 0
M  V30 50382 H 4963.02 -1.60572 3.85495 0
M  V30 50383 N 4963.46 -1.53328 0.364476 0
M  V30 50384 C 4964.68 -2.06132 -0.22896 0
M  V30 50385 C 4965.11 -1.2363 -1.41764 0
M  V30 50386 O 4964.47 -0.255101 -1.79496 0
M  V30 50387 C 4964.52 -3.55546 -0.601615 0
M  V30 50388 O 4963.62 -3.75777 -1.69899 0
M  V30 50389 H 4962.96 -0.663149 -0.033598 0
M  V30 50390 H 4965.49 -1.97756 0.524759 0
M  V30 50391 H 4965.5 -3.98552 -0.872933 0
M  V30 50392 H 4964.18 -4.15038 0.267567 0
M  V30 50393 H 4962.75 -3.44668 -1.42331 0
M  V30 50394 N 4964.94 -0.0936148 -1.57322 0
M  V30 50395 C 4965.9 0.851352 -2.12802 0
M  V30 50396 C 4966.9 1.21183 -1.05694 0
M  V30 50397 O 4968.09 1.14151 -1.31587 0
M  V30 50398 C 4965.22 2.1477 -2.64739 0
M  V30 50399 H 4966.42 0.369628 -2.97613 0
M  V30 50400 H 4963.97 0.155363 -1.55526 0
M  V30 50401 H 4964.7 2.67431 -1.83443 0
M  V30 50402 H 4964.49 1.89895 -3.43049 0
M  V30 50403 H 4965.98 2.82373 -3.07661 0
M  V30 50404 N 4966.42 1.56568 0.180071 0
M  V30 50405 C 4967.66 1.81764 0.899433 0
M  V30 50406 C 4967.99 0.67008 1.82273 0
M  V30 50407 O 4967.27 -0.328508 1.91706 0
M  V30 50408 C 4967.55 3.17302 1.70269 0
M  V30 50409 C 4967.41 4.42572 0.803099 0
M  V30 50410 C 4968.72 3.49687 2.67221 0
M  V30 50411 H 4965.84 0.661204 0.325543 0
M  V30 50412 H 4968.49 1.89273 0.166054 0
M  V30 50413 H 4966.64 3.11031 2.32791 0
M  V30 50414 H 4968.31 4.60903 0.191423 0
M  V30 50415 H 4966.55 4.33659 0.110643 0
M  V30 50416 H 4967.22 5.3394 1.40045 0
M  V30 50417 H 4969.7 3.56355 2.14827 0
M  V30 50418 H 4968.57 4.45616 3.20496 0
M  V30 50419 H 4968.83 2.73944 3.46997 0
M  V30 50420 N 4967.89 -0.448323 1.51089 0
M  V30 50421 C 4969.31 -1.02855 1.55813 0
M  V30 50422 C 4969.66 -1.92582 0.375057 0
M  V30 50423 O 4968.78 -2.10318 -0.50946 0
M  V30 50424 C 4969.38 -1.87213 2.82377 0
M  V30 50425 C 4967.94 -2.40304 2.89709 0
M  V30 50426 C 4967.08 -1.19229 2.50359 0
M  V30 50427 H 4970.03 -0.230019 1.57024 0
M  V30 50428 H 4970.05 -2.72543 2.65519 0
M  V30 50429 H 4969.57 -1.21881 3.68465 0
M  V30 50430 H 4967.67 -3.09122 2.08025 0
M  V30 50431 H 4967.78 -2.73853 3.93118 0
M  V30 50432 H 4966.14 -1.53421 2.03308 0
M  V30 50433 H 4966.93 -0.555248 3.3878 0
M  V30 50434 N 4969.37 -1.4105 -0.703043 0
M  V30 50435 C 4970.62 -1.40212 -1.46521 0
M  V30 50436 C 4970.95 -0.0085459 -1.94198 0
M  V30 50437 O 4970.23 0.962377 -1.69022 0
M  V30 50438 C 4970.51 -2.40247 -2.68241 0
M  V30 50439 C 4970.36 -3.88681 -2.26377 0
M  V30 50440 C 4971.68 -2.3764 -3.70425 0
M  V30 50441 H 4968.8 -0.510613 -0.531454 0
M  V30 50442 H 4971.44 -1.72274 -0.801362 0
M  V30 50443 H 4969.59 -2.13037 -3.2488 0
M  V30 50444 H 4971.26 -4.26766 -1.75123 0
M  V30 50445 H 4969.51 -4.03909 -1.58241 0
M  V30 50446 H 4970.18 -4.54211 -3.13682 0
M  V30 50447 H 4972.65 -2.6177 -3.23443 0
M  V30 50448 H 4971.53 -3.09661 -4.53212 0
M  V30 50449 H 4971.79 -1.39238 -4.19601 0
M  V30 50450 N 4970.85 0.936546 -1.26754 0
M  V30 50451 C 4972.1 1.68327 -1.12572 0
M  V30 50452 C 4972.43 1.91678 0.330101 0
M  V30 50453 O 4971.68 1.49863 1.25855 0
M  V30 50454 C 4971.98 3.06093 -1.84505 0
M  V30 50455 C 4971.65 3.02481 -3.34389 0
M  V30 50456 C 4970.31 3.01204 -3.75273 0
M  V30 50457 C 4972.66 2.94438 -4.30065 0
M  V30 50458 C 4969.99 2.89654 -5.10213 0
M  V30 50459 C 4972.34 2.84429 -5.65051 0
M  V30 50460 C 4971 2.81497 -6.0524 0
M  V30 50461 H 4970.27 0.615951 -0.411929 0
M  V30 50462 H 4972.92 1.09286 -1.57254 0
M  V30 50463 H 4971.23 3.68785 -1.32305 0
M  V30 50464 H 4972.92 3.62727 -1.70967 0
M  V30 50465 H 4969.51 3.04258 -3.01869 0
M  V30 50466 H 4973.7 2.9453 -3.99457 0
M  V30 50467 H 4968.95 2.85764 -5.40508 0
M  V30 50468 H 4973.13 2.7717 -6.38866 0
M  V30 50469 H 4970.75 2.72304 -7.09757 0
M  V30 50470 N 4972.33 1.08633 1.14178 0
M  V30 50471 C 4973.56 0.837739 1.88853 0
M  V30 50472 C 4973.97 -0.613961 1.78961 0
M  V30 50473 O 4973.31 -1.4338 1.14838 0
M  V30 50474 C 4973.37 1.18367 3.39455 0
M  V30 50475 C 4973.04 2.63862 3.7313 0
M  V30 50476 C 4974.03 3.62112 3.73056 0
M  V30 50477 C 4971.72 2.99775 4.03039 0
M  V30 50478 C 4973.71 4.94306 4.02418 0
M  V30 50479 C 4971.4 4.32163 4.32063 0
M  V30 50480 C 4972.4 5.29238 4.31736 0
M  V30 50481 O 4972.08 6.59245 4.60056 0
M  V30 50482 H 4971.82 0.30163 0.604975 0
M  V30 50483 H 4974.37 1.44966 1.45513 0
M  V30 50484 H 4972.6 0.514763 3.83259 0
M  V30 50485 H 4974.29 0.91553 3.9544 0
M  V30 50486 H 4975.06 3.3571 3.50034 0
M  V30 50487 H 4970.93 2.24854 4.02445 0
M  V30 50488 H 4974.48 5.7007 4.02078 0
M  V30 50489 H 4970.38 4.58312 4.54555 0
M  V30 50490 H 4971.14 6.64595 4.77762 0
M  V30 50491 N 4973.81 -1.31256 0.872327 0
M  V30 50492 C 4975.03 -2.01328 0.49817 0
M  V30 50493 C 4975.46 -1.65034 -0.90251 0
M  V30 50494 O 4974.81 -0.860221 -1.59593 0
M  V30 50495 C 4974.86 -3.54409 0.66533 0
M  V30 50496 O 4973.97 -4.11348 -0.294329 0
M  V30 50497 H 4973.31 -0.633837 0.197855 0
M  V30 50498 H 4975.84 -1.67398 1.17639 0
M  V30 50499 H 4975.85 -4.04145 0.559515 0
M  V30 50500 H 4974.52 -3.80165 1.68664 0
M  V30 50501 H 4973.1 -3.72625 -0.143272 0
M  V30 50502 N 4975.28 -0.632002 -1.44373 0
M  V30 50503 C 4976.51 -0.142218 -2.06912 0
M  V30 50504 C 4976.93 1.17451 -1.46925 0
M  V30 50505 O 4976.29 1.72072 -0.571036 0
M  V30 50506 C 4976.34 -0.041922 -3.60576 0
M  V30 50507 O 4975.44 1.0018 -4.00047 0
M  V30 50508 H 4974.79 -0.0851723 -0.658515 0
M  V30 50509 H 4977.32 -0.868928 -1.85232 0
M  V30 50510 H 4977.33 0.148374 -4.0773 0
M  V30 50511 H 4976 -1.00325 -4.03618 0
M  V30 50512 H 4974.58 0.786003 -3.64522 0
M  V30 50513 N 4976.76 1.53132 -0.372602 0
M  V30 50514 C 4977.7 2.22329 0.514283 0
M  V30 50515 C 4978.67 1.2178 1.07743 0
M  V30 50516 O 4979.86 1.50708 1.13223 0
M  V30 50517 C 4976.98 2.92349 1.71025 0
M  V30 50518 C 4976.03 4.07031 1.27391 0
M  V30 50519 S 4976.86 5.34822 0.269338 0
M  V30 50520 C 4978.02 6.08357 1.47147 0
M  V30 50521 H 4978.25 2.97209 -0.0733728 0
M  V30 50522 H 4975.79 1.53602 -0.156727 0
M  V30 50523 H 4977.74 3.33304 2.39622 0
M  V30 50524 H 4976.4 2.17181 2.26917 0
M  V30 50525 H 4975.6 4.55064 2.1664 0
M  V30 50526 H 4975.2 3.68003 0.66706 0
M  V30 50527 H 4977.49 6.33515 2.40135 0
M  V30 50528 H 4978.43 7.00534 1.03238 0
M  V30 50529 H 4978.84 5.38899 1.68071 0
M  V30 50530 N 4978.24 0.101957 1.5727 0
M  V30 50531 C 4979.47 -0.571689 1.99365 0
M  V30 50532 C 4979.89 -1.60504 0.980824 0
M  V30 50533 O 4979.25 -1.81232 -0.049788 0
M  V30 50534 C 4979.3 -1.18984 3.40405 0
M  V30 50535 O 4978.4 -2.3056 3.4193 0
M  V30 50536 H 4977.74 -0.144426 0.648103 0
M  V30 50537 H 4980.27 0.185396 2.03758 0
M  V30 50538 H 4980.28 -1.52949 3.78247 0
M  V30 50539 H 4978.96 -0.432838 4.13642 0
M  V30 50540 H 4977.53 -1.98162 3.1589 0
M  V30 50541 N 4979.72 -1.56661 -0.171765 0
M  V30 50542 C 4980.95 -1.86104 -0.90405 0
M  V30 50543 C 4981.36 -0.687289 -1.75846 0
M  V30 50544 O 4980.72 0.343608 -1.79236 0
M  V30 50545 C 4980.77 -3.14574 -1.78116 0
M  V30 50546 O 4980.49 -4.27425 -0.961216 0
M  V30 50547 C 4981.99 -3.5736 -2.62315 0
M  V30 50548 H 4979.21 -0.617454 -0.262662 0
M  V30 50549 H 4981.76 -2.03775 -0.171996 0
M  V30 50550 H 4979.91 -2.9873 -2.46656 0
M  V30 50551 H 4980.32 -5.00731 -1.56105 0
M  V30 50552 H 4981.8 -4.50156 -3.19475 0
M  V30 50553 H 4982.28 -2.81457 -3.37163 0
M  V30 50554 H 4982.88 -3.75814 -1.99108 0
M  V30 50555 N 4981.2 0.440304 -1.51324 0
M  V30 50556 C 4982.16 1.51673 -1.71837 0
M  V30 50557 C 4983.16 1.49646 -0.588439 0
M  V30 50558 O 4984.35 1.51721 -0.855944 0
M  V30 50559 C 4981.48 2.91221 -1.77209 0
M  V30 50560 H 4982.67 1.3479 -2.67902 0
M  V30 50561 H 4980.23 0.668781 -1.41269 0
M  V30 50562 H 4980.96 3.13513 -0.829473 0
M  V30 50563 H 4980.75 2.94097 -2.59324 0
M  V30 50564 H 4982.24 3.69314 -1.94928 0
M  V30 50565 N 4982.68 1.41421 0.695553 0
M  V30 50566 C 4983.61 1.37686 1.81983 0
M  V30 50567 C 4984.59 0.244118 1.60757 0
M  V30 50568 O 4985.77 0.431029 1.83506 0
M  V30 50569 C 4982.9 1.14772 3.18662 0
M  V30 50570 C 4981.94 2.30765 3.58678 0
M  V30 50571 S 4982.78 3.93243 3.63484 0
M  V30 50572 C 4983.93 3.72631 5.02889 0
M  V30 50573 H 4984.17 2.32828 1.84874 0
M  V30 50574 H 4981.7 1.27945 0.864265 0
M  V30 50575 H 4983.66 1.02237 3.97565 0
M  V30 50576 H 4982.32 0.212495 3.1338 0
M  V30 50577 H 4981.51 2.10425 4.57971 0
M  V30 50578 H 4981.11 2.39706 2.87083 0
M  V30 50579 H 4983.4 3.32338 5.90388 0
M  V30 50580 H 4984.35 4.71526 5.2827 0
M  V30 50581 H 4984.76 3.05906 4.74428 0
M  V30 50582 N 4984.15 -0.929811 1.27249 0
M  V30 50583 C 4985.4 -1.67976 1.13631 0
M  V30 50584 C 4985.73 -1.91587 -0.317522 0
M  V30 50585 O 4985.01 -1.50472 -1.23242 0
M  V30 50586 C 4985.29 -3.04759 1.91817 0
M  V30 50587 C 4985.14 -2.88403 3.45172 0
M  V30 50588 C 4986.46 -4.05057 1.72096 0
M  V30 50589 H 4983.58 -0.609617 0.414169 0
M  V30 50590 H 4986.22 -1.07914 1.56379 0
M  V30 50591 H 4984.37 -3.56028 1.55487 0
M  V30 50592 H 4986.05 -2.44268 3.91319 0
M  V30 50593 H 4984.29 -2.23789 3.71619 0
M  V30 50594 H 4984.96 -3.85468 3.95118 0
M  V30 50595 H 4987.44 -3.62791 2.03769 0
M  V30 50596 H 4986.31 -4.98757 2.292 0
M  V30 50597 H 4986.57 -4.37019 0.668359 0
M  V30 50598 N 4985.63 -1.09237 -1.13601 0
M  V30 50599 C 4986.88 -0.822115 -1.84185 0
M  V30 50600 C 4987.19 0.654483 -1.84325 0
M  V30 50601 O 4988.4 1.0402 -2.50783 0
M  V30 50602 C 4986.86 -1.42077 -3.30669 0
M  V30 50603 C 4986.46 -2.92977 -3.38922 0
M  V30 50604 C 4988.21 -1.22938 -4.06308 0
M  V30 50605 C 4986.11 -3.45939 -4.79667 0
M  V30 50606 H 4985.04 -0.303879 -0.690053 0
M  V30 50607 H 4987.7 -1.31483 -1.28001 0
M  V30 50608 H 4986.08 -0.855749 -3.86643 0
M  V30 50609 H 4987.25 -3.55689 -2.92954 0
M  V30 50610 H 4985.57 -3.11128 -2.76746 0
M  V30 50611 H 4988.16 -1.59963 -5.10212 0
M  V30 50612 H 4988.51 -0.169872 -4.15953 0
M  V30 50613 H 4989.04 -1.76181 -3.56658 0
M  V30 50614 H 4985.78 -4.51501 -4.75213 0
M  V30 50615 H 4985.3 -2.87989 -5.26139 0
M  V30 50616 H 4986.98 -3.43028 -5.4858 0
M  V30 50617 N 4987.11 1.30792 -0.879276 0
M  V30 50618 C 4988.36 1.9636 -0.494855 0
M  V30 50619 C 4988.68 1.69451 0.954808 0
M  V30 50620 O 4987.94 0.98877 1.68884 0
M  V30 50621 C 4988.24 3.50285 -0.709599 0
M  V30 50622 C 4987.9 3.97233 -2.13347 0
M  V30 50623 C 4986.57 4.09763 -2.52285 0
M  V30 50624 C 4988.92 4.21796 -3.06166 0
M  V30 50625 C 4986.25 4.44214 -3.83263 0
M  V30 50626 C 4988.6 4.57714 -4.3667 0
M  V30 50627 C 4987.26 4.68453 -4.75509 0
M  V30 50628 H 4986.53 0.718534 -0.18108 0
M  V30 50629 H 4989.18 1.55761 -1.11404 0
M  V30 50630 H 4987.48 3.91799 -0.00733773 0
M  V30 50631 H 4989.18 3.99081 -0.391844 0
M  V30 50632 H 4985.77 3.87982 -1.8212 0
M  V30 50633 H 4989.96 4.11601 -2.77306 0
M  V30 50634 H 4985.21 4.50727 -4.13104 0
M  V30 50635 H 4989.39 4.75672 -5.08634 0
M  V30 50636 H 4987.01 4.94903 -5.7704 0
M  V30 50637 N 4988.59 0.639649 1.44036 0
M  V30 50638 C 4989.53 -0.0601647 2.30722 0
M  V30 50639 C 4990.5 -0.828301 1.43974 0
M  V30 50640 O 4991.69 -0.807633 1.72864 0
M  V30 50641 C 4988.83 -1.02996 3.29372 0
M  V30 50642 C 4987.94 -0.25935 4.31221 0
M  V30 50643 C 4987.08 -1.22172 5.1696 0
M  V30 50644 C 4986.12 -0.440764 6.10511 0
M  V30 50645 N 4985.25 -1.35403 6.8892 0
M  V30 50646 H 4990.09 0.684969 2.90021 0
M  V30 50647 H 4987.63 0.349559 1.42886 0
M  V30 50648 H 4989.59 -1.60569 3.85063 0
M  V30 50649 H 4988.22 -1.74212 2.71753 0
M  V30 50650 H 4987.27 0.43245 3.77934 0
M  V30 50651 H 4988.58 0.348522 4.97581 0
M  V30 50652 H 4987.74 -1.86852 5.7721 0
M  V30 50653 H 4986.48 -1.86352 4.50693 0
M  V30 50654 H 4985.48 0.219472 5.49362 0
M  V30 50655 H 4986.71 0.19643 6.78816 0
M  V30 50656 H 4984.65 -1.98288 6.25314 0
M  V30 50657 H 4984.57 -0.800393 7.51751 0
M  V30 50658 H 4985.84 -1.98941 7.53686 0
M  V30 50659 N 4990.07 -1.52932 0.380717 0
M  V30 50660 C 4991.29 -2.06364 -0.207084 0
M  V30 50661 C 4991.72 -1.25127 -1.40445 0
M  V30 50662 O 4991.07 -0.274125 -1.79216 0
M  V30 50663 C 4991.12 -3.56164 -0.563871 0
M  V30 50664 O 4990.23 -3.77558 -1.65904 0
M  V30 50665 H 4989.57 -0.663468 -0.0265626 0
M  V30 50666 H 4992.1 -1.97188 0.545704 0
M  V30 50667 H 4992.11 -3.99456 -0.830612 0
M  V30 50668 H 4990.78 -4.14731 0.311572 0
M  V30 50669 H 4989.36 -3.46159 -1.38667 0
M  V30 50670 N 4991.54 -0.110296 -1.57214 0
M  V30 50671 C 4992.79 0.548715 -1.94508 0
M  V30 50672 C 4993.11 1.67768 -0.993918 0
M  V30 50673 O 4992.38 1.9584 -0.0486529 0
M  V30 50674 H 4990.96 0.20569 -0.718123 0
M  V30 50675 H 4993.62 -0.177195 -1.94093 0
M  V30 50676 H 4992.72 0.948991 -2.97322 0
M  V30 50677 N 4993.02 1.5675 0.163455 0
M  V30 50678 C 4994.27 1.82707 0.880104 0
M  V30 50679 C 4994.6 0.689374 1.81552 0
M  V30 50680 O 4993.88 -0.308156 1.92043 0
M  V30 50681 C 4994.16 3.1909 1.66894 0
M  V30 50682 C 4994.01 4.43399 0.756114 0
M  V30 50683 C 4995.33 3.52502 2.63497 0
M  V30 50684 H 4992.45 0.664619 0.318512 0
M  V30 50685 H 4995.09 1.89438 0.14597 0
M  V30 50686 H 4993.24 3.13483 2.29479 0
M  V30 50687 H 4994.91 4.6108 0.142528 0
M  V30 50688 H 4993.16 4.33752 0.0646419 0
M  V30 50689 H 4993.83 5.35395 1.34374 0
M  V30 50690 H 4996.3 3.58613 2.11035 0
M  V30 50691 H 4995.18 4.4899 3.15751 0
M  V30 50692 H 4995.44 2.77609 3.44072 0
M  V30 50693 N 4994.5 -0.432272 1.51556 0
M  V30 50694 C 4995.75 -1.18303 1.64719 0
M  V30 50695 C 4996.08 -1.90744 0.364763 0
M  V30 50696 O 4995.35 -1.83812 -0.635871 0
M  V30 50697 C 4995.64 -2.196 2.85391 0
M  V30 50698 C 4995.49 -1.51209 4.23622 0
M  V30 50699 C 4996.81 -3.20527 3.0158 0
M  V30 50700 H 4993.93 -0.42873 0.599466 0
M  V30 50701 H 4996.57 -0.471624 1.84054 0
M  V30 50702 H 4994.72 -2.8027 2.69037 0
M  V30 50703 H 4996.39 -0.938358 4.51655 0
M  V30 50704 H 4994.63 -0.814351 4.26088 0
M  V30 50705 H 4995.31 -2.25006 5.0406 0
M  V30 50706 H 4997.78 -2.69915 3.16678 0
M  V30 50707 H 4996.66 -3.88692 3.87569 0
M  V30 50708 H 4996.92 -3.86925 2.13872 0
M  V30 50709 N 4995.98 -1.41788 -0.688044 0
M  V30 50710 C 4996.93 -1.44443 -1.82316 0
M  V30 50711 C 4997.92 -0.321602 -1.66319 0
M  V30 50712 O 4999.13 -0.493992 -1.73089 0
M  V30 50713 H 4995.5 -0.452106 -0.60092 0
M  V30 50714 H 4997.47 -2.40094 -1.77194 0
M  V30 50715 C 4996.22 -1.35083 -3.20387 0
M  V30 50716 H 4995.54 -2.20772 -3.33317 0
M  V30 50717 H 4996.98 -1.41002 -3.99868 0
M  V30 50718 C 4995.44 -0.0640311 -3.36839 0
M  V30 50719 O 4995.97 0.888357 -3.91754 0
M  V30 50720 N 4994.18 0.0145093 -2.90596 0
M  V30 50721 H 4993.73 -0.761278 -2.46094 0
M  V30 50722 H 4993.68 0.874882 -3.01982 0
M  V30 50723 N 4997.46 0.92305 -1.2774 0
M  V30 50724 C 4998.87 1.19982 -1.05245 0
M  V30 50725 C 4999.07 2.00392 0.211059 0
M  V30 50726 O 4998.13 2.35327 0.915283 0
M  V30 50727 C 4999.44 1.94344 -2.29458 0
M  V30 50728 C 5000.99 2.07264 -2.34543 0
M  V30 50729 C 5001.46 2.85033 -3.58497 0
M  V30 50730 N 5002.96 2.92599 -3.59082 0
M  V30 50731 C 5003.69 3.5325 -4.51666 0
M  V30 50732 N 5003.19 4.15254 -5.54559 0
M  V30 50733 N 5004.98 3.50698 -4.3928 0
M  V30 50734 H 4997.13 0.385968 -2.08864 0
M  V30 50735 H 4999.39 0.233375 -0.918825 0
M  V30 50736 H 4999.1 1.42681 -3.21458 0
M  V30 50737 H 4998.97 2.94939 -2.35141 0
M  V30 50738 H 5001.36 2.58112 -1.43046 0
M  V30 50739 H 5001.44 1.05875 -2.32861 0
M  V30 50740 H 5001.09 2.34868 -4.50333 0
M  V30 50741 H 5001.02 3.86717 -3.57431 0
M  V30 50742 H 5003.51 2.48537 -2.84672 0
M  V30 50743 H 5003.82 4.59485 -6.21364 0
M  V30 50744 H 5002.16 4.13786 -5.58396 0
M  V30 50745 H 5005.36 3.01463 -3.58103 0
M  V30 50746 H 5005.53 3.97675 -5.11624 0
M  V30 50747 N 4998.93 1.09838 1.1302 0
M  V30 50748 C 4999.88 0.73636 2.20637 0
M  V30 50749 C 5000.88 -0.264666 1.6732 0
M  V30 50750 O 5002.08 -0.125682 1.79561 0
M  V30 50751 H 4998.46 0.220161 0.71905 0
M  V30 50752 H 5000.43 1.65303 2.4843 0
M  V30 50753 C 4999.18 0.177666 3.47246 0
M  V30 50754 H 4998.5 0.939146 3.88613 0
M  V30 50755 H 4999.94 -0.0376517 4.23983 0
M  V30 50756 C 4998.4 -1.08813 3.18844 0
M  V30 50757 O 4998.93 -2.17068 3.38001 0
M  V30 50758 N 4997.14 -1.00432 2.72694 0
M  V30 50759 H 4996.68 -0.123292 2.57305 0
M  V30 50760 H 4996.64 -1.85197 2.54066 0
M  V30 50761 N 5000.41 -1.30324 0.8862 0
M  V30 50762 C 5001.64 -2.00788 0.519496 0
M  V30 50763 C 5002.06 -1.65982 -0.884955 0
M  V30 50764 O 5001.42 -0.877099 -1.58672 0
M  V30 50765 C 5001.47 -3.53683 0.702882 0
M  V30 50766 O 5000.57 -4.11637 -0.250683 0
M  V30 50767 H 4999.91 -0.631703 0.204566 0
M  V30 50768 H 5002.44 -1.66141 1.19408 0
M  V30 50769 H 5002.45 -4.03529 0.602349 0
M  V30 50770 H 5001.13 -3.78354 1.72687 0
M  V30 50771 H 4999.71 -3.72756 -0.103742 0
M  V30 50772 N 5001.89 -0.647279 -1.43694 0
M  V30 50773 C 5003.31 -0.314311 -1.56474 0
M  V30 50774 C 5003.51 1.18186 -1.632 0
M  V30 50775 O 5002.56 1.9665 -1.58383 0
M  V30 50776 C 5003.88 -1.02044 -2.82856 0
M  V30 50777 C 5005.42 -1.00013 -2.96591 0
M  V30 50778 C 5005.9 -1.68704 -4.25797 0
M  V30 50779 N 5007.39 -1.65439 -4.32648 0
M  V30 50780 C 5008.12 -2.15469 -5.31376 0
M  V30 50781 N 5007.62 -2.73761 -6.36417 0
M  V30 50782 N 5009.41 -2.06003 -5.2299 0
M  V30 50783 H 5001.56 -1.61826 -1.37572 0
M  V30 50784 H 5003.83 -0.680207 -0.66032 0
M  V30 50785 H 5003.53 -2.07552 -2.83928 0
M  V30 50786 H 5003.41 -0.568277 -3.72895 0
M  V30 50787 H 5005.79 0.0465282 -2.95063 0
M  V30 50788 H 5005.88 -1.49093 -2.07858 0
M  V30 50789 H 5005.52 -2.73323 -4.28085 0
M  V30 50790 H 5005.45 -1.17094 -5.13417 0
M  V30 50791 H 5007.94 -1.22896 -3.57358 0
M  V30 50792 H 5008.25 -3.09627 -7.08062 0
M  V30 50793 H 5006.6 -2.77819 -6.37057 0
M  V30 50794 H 5009.79 -1.60173 -4.39843 0
M  V30 50795 H 5009.96 -2.45302 -5.99776 0
M  V30 50796 N 5003.37 1.52728 -0.388822 0
M  V30 50797 C 5004.3 2.22862 0.490673 0
M  V30 50798 C 5005.28 1.22915 1.06445 0
M  V30 50799 O 5006.46 1.519 1.11618 0
M  V30 50800 C 5003.59 2.94147 1.67914 0
M  V30 50801 C 5002.64 4.08359 1.23066 0
M  V30 50802 S 5003.47 5.35078 0.212598 0
M  V30 50803 C 5004.63 6.09884 1.40686 0
M  V30 50804 H 5004.86 2.97115 -0.104892 0
M  V30 50805 H 5002.39 1.53428 -0.17301 0
M  V30 50806 H 5004.35 3.35827 2.36073 0
M  V30 50807 H 5003.01 2.19575 2.24601 0
M  V30 50808 H 5002.2 4.57336 2.11802 0
M  V30 50809 H 5001.81 3.6869 0.627991 0
M  V30 50810 H 5004.1 6.36027 2.33402 0
M  V30 50811 H 5005.04 7.01589 0.958024 0
M  V30 50812 H 5005.45 5.40652 1.62345 0
M  V30 50813 N 5004.85 0.118632 1.57153 0
M  V30 50814 C 5006.07 -0.550512 1.9996 0
M  V30 50815 C 5006.5 -1.59454 0.997793 0
M  V30 50816 O 5005.85 -1.81274 -0.0305632 0
M  V30 50817 C 5005.9 -1.15367 3.41647 0
M  V30 50818 O 5005.01 -2.2692 3.44356 0
M  V30 50819 H 5004.35 -0.137544 0.649598 0
M  V30 50820 H 5006.88 0.206997 2.0355 0
M  V30 50821 H 5006.89 -1.48928 3.79848 0
M  V30 50822 H 5005.56 -0.388942 4.14077 0
M  V30 50823 H 5004.14 -1.948 3.17974 0
M  V30 50824 N 5006.32 -1.56835 -0.15514 0
M  V30 50825 C 5007.57 -1.82901 -0.869115 0
M  V30 50826 C 5007.9 -0.698258 -1.81534 0
M  V30 50827 O 5007.15 0.313336 -1.93175 0
M  V30 50828 C 5007.45 -3.15245 -1.6839 0
M  V30 50829 C 5007.12 -4.42126 -0.885185 0
M  V30 50830 C 5005.78 -4.76586 -0.664803 0
M  V30 50831 C 5008.13 -5.20179 -0.326051 0
M  V30 50832 C 5005.46 -5.86566 0.125552 0
M  V30 50833 C 5007.81 -6.30988 0.451302 0
M  V30 50834 C 5006.48 -6.64003 0.682335 0
M  V30 50835 H 5005.75 -0.669281 -0.318032 0
M  V30 50836 H 5008.39 -1.91036 -0.133174 0
M  V30 50837 H 5006.7 -3.02523 -2.48972 0
M  V30 50838 H 5008.4 -3.32626 -2.23966 0
M  V30 50839 H 5004.99 -4.15106 -1.06701 0
M  V30 50840 H 5009.17 -4.93938 -0.483613 0
M  V30 50841 H 5004.43 -6.10592 0.31413 0
M  V30 50842 H 5008.6 -6.90667 0.891732 0
M  V30 50843 H 5006.23 -7.49061 1.29662 0
M  V30 50844 N 5007.8 0.424229 -1.51783 0
M  V30 50845 C 5009.03 1.19464 -1.68926 0
M  V30 50846 C 5009.45 1.84682 -0.392195 0
M  V30 50847 O 5008.8 1.71263 0.630494 0
M  V30 50848 C 5008.85 2.26899 -2.81424 0
M  V30 50849 O 5008.57 1.64347 -4.06106 0
M  V30 50850 C 5010.08 3.16934 -3.09948 0
M  V30 50851 H 5007.3 0.359571 -0.566524 0
M  V30 50852 H 5009.84 0.50107 -1.98266 0
M  V30 50853 H 5007.99 2.9195 -2.54645 0
M  V30 50854 H 5008.41 2.35452 -4.68682 0
M  V30 50855 H 5009.88 3.88423 -3.92214 0
M  V30 50856 H 5010.36 3.78443 -2.22884 0
M  V30 50857 H 5010.97 2.57569 -3.38435 0
M  V30 50858 N 5009.28 1.4215 0.680515 0
M  V30 50859 C 5010.51 1.4549 1.46684 0
M  V30 50860 C 5010.92 0.0630116 1.89095 0
M  V30 50861 O 5010.26 -0.931341 1.58341 0
M  V30 50862 C 5010.32 2.31407 2.7512 0
M  V30 50863 C 5009.99 3.79362 2.54821 0
M  V30 50864 C 5010.98 4.71156 2.19792 0
M  V30 50865 C 5008.67 4.23567 2.69993 0
M  V30 50866 C 5010.66 6.05146 2.00194 0
M  V30 50867 C 5008.35 5.57618 2.50011 0
M  V30 50868 C 5009.35 6.48223 2.15164 0
M  V30 50869 O 5009.04 7.79799 1.9537 0
M  V30 50870 H 5008.77 0.497155 0.458053 0
M  V30 50871 H 5011.32 1.87255 0.844073 0
M  V30 50872 H 5009.55 1.8448 3.39859 0
M  V30 50873 H 5011.24 2.26269 3.36983 0
M  V30 50874 H 5012.01 4.3829 2.07671 0
M  V30 50875 H 5007.89 3.53338 2.96097 0
M  V30 50876 H 5011.43 6.75829 1.72917 0
M  V30 50877 H 5007.33 5.90059 2.61727 0
M  V30 50878 H 5008.1 7.91098 2.10014 0
M  V30 50879 N 5010.76 -0.916262 1.28228 0
M  V30 50880 C 5011.69 -2.02299 1.07739 0
M  V30 50881 C 5012.7 -1.62773 0.0298993 0
M  V30 50882 O 5013.89 -1.76405 0.272688 0
M  V30 50883 C 5010.99 -3.3328 0.614621 0
M  V30 50884 C 5010.17 -4.01433 1.73696 0
M  V30 50885 C 5009.22 -5.10694 1.26799 0
M  V30 50886 O 5008.25 -5.34031 1.96976 0
M  V30 50887 N 5009.45 -5.80355 0.129828 0
M  V30 50888 H 5012.22 -2.20434 2.03049 0
M  V30 50889 H 5009.78 -1.0874 1.19947 0
M  V30 50890 H 5011.77 -4.03698 0.284539 0
M  V30 50891 H 5010.34 -3.11634 -0.245554 0
M  V30 50892 H 5009.56 -3.24596 2.23676 0
M  V30 50893 H 5010.85 -4.43713 2.48991 0
M  V30 50894 H 5010.25 -5.63862 -0.455648 0
M  V30 50895 H 5008.8 -6.51647 -0.140995 0
M  V30 50896 N 5012.24 -1.10435 -1.12436 0
M  V30 50897 C 5013.49 -0.841604 -1.83303 0
M  V30 50898 C 5013.8 0.634896 -1.85009 0
M  V30 50899 O 5015.01 1.01354 -2.51872 0
M  V30 50900 C 5013.46 -1.45577 -3.29144 0
M  V30 50901 C 5013.07 -2.96556 -3.35796 0
M  V30 50902 C 5014.81 -1.27241 -4.04982 0
M  V30 50903 C 5012.72 -3.51007 -4.75971 0
M  V30 50904 H 5011.65 -0.31118 -0.686792 0
M  V30 50905 H 5014.3 -1.32834 -1.266 0
M  V30 50906 H 5012.68 -0.89671 -3.85714 0
M  V30 50907 H 5013.86 -3.58776 -2.89165 0
M  V30 50908 H 5012.17 -3.14046 -2.73431 0
M  V30 50909 H 5014.77 -1.65366 -5.08486 0
M  V30 50910 H 5015.11 -0.21398 -4.1575 0
M  V30 50911 H 5015.65 -1.79954 -3.5477 0
M  V30 50912 H 5012.38 -4.56516 -4.70397 0
M  V30 50913 H 5011.9 -2.93553 -5.23055 0
M  V30 50914 H 5013.58 -3.48828 -5.44911 0
M  V30 50915 N 5013.72 1.29852 -0.893099 0
M  V30 50916 C 5014.68 2.26181 -0.370766 0
M  V30 50917 C 5015.68 1.5311 0.491331 0
M  V30 50918 O 5016.87 1.71644 0.297326 0
M  V30 50919 C 5014 3.37635 0.470708 0
M  V30 50920 H 5015.19 2.73899 -1.22145 0
M  V30 50921 H 5012.75 1.4118 -0.67066 0
M  V30 50922 H 5013.48 2.95246 1.34165 0
M  V30 50923 H 5013.27 3.91825 -0.146922 0
M  V30 50924 H 5014.76 4.09316 0.827681 0
M  V30 50925 N 5015.19 0.65489 1.43349 0
M  V30 50926 C 5016.47 0.0988057 1.9535 0
M  V30 50927 C 5016.85 -1.38156 1.59613 0
M  V30 50928 O 5016.2 -2.10787 0.882095 0
M  V30 50929 C 5016.41 0.346806 3.47273 0
M  V30 50930 C 5017.76 0.252639 4.23848 0
M  V30 50931 O 5018.78 0.279457 3.55102 0
M  V30 50932 O 5017.64 0.177776 5.46211 0
M  V30 50933 H 5014.73 -0.00865383 0.826955 0
M  V30 50934 H 5017.28 0.728243 1.5328 0
M  V30 50935 H 5016.05 1.37309 3.66418 0
M  V30 50936 H 5015.67 -0.315618 3.96345 0
M  V30 50937 N 5016.67 -1.5252 0.396917 0
M  V30 50938 C 5017.91 -2.03584 -0.182507 0
M  V30 50939 C 5018.28 -1.27665 -1.43407 0
M  V30 50940 O 5019.48 -1.68892 -2.09115 0
M  V30 50941 C 5017.75 -3.54726 -0.436394 0
M  V30 50942 S 5019.31 -4.27601 -0.985012 0
M  V30 50943 H 5016.12 -0.709188 -0.0507279 0
M  V30 50944 H 5018.73 -1.87691 0.547021 0
M  V30 50945 H 5017.43 -4.07566 0.481486 0
M  V30 50946 H 5016.96 -3.74839 -1.19413 0
M  V30 50947 H 5018.98 -4.41401 -2.2667 0
M  V30 50948 N 5018.15 -0.126964 -1.57088 0
M  V30 50949 C 5019.1 0.837542 -2.16998 0
M  V30 50950 C 5020.09 1.2697 -1.12138 0
M  V30 50951 O 5021.3 1.24052 -1.30427 0
M  V30 50952 H 5017.67 0.288231 -0.694569 0
M  V30 50953 H 5019.64 0.307853 -2.96808 0
M  V30 50954 C 5018.39 2.07464 -2.79023 0
M  V30 50955 H 5017.72 1.75105 -3.59414 0
M  V30 50956 H 5019.16 2.72938 -3.2447 0
M  V30 50957 C 5017.61 2.86961 -1.76508 0
M  V30 50958 O 5018.14 3.8262 -1.2233 0
M  V30 50959 N 5016.35 2.51106 -1.46267 0
M  V30 50960 H 5015.9 1.73383 -1.90516 0
M  V30 50961 H 5015.86 3.04591 -0.779193 0
M  V30 50962 N 5019.63 1.56915 0.14682 0
M  V30 50963 C 5021.04 1.51583 0.499465 0
M  V30 50964 C 5021.24 0.835415 1.83366 0
M  V30 50965 O 5020.3 0.40602 2.49214 0
M  V30 50966 C 5021.61 2.9635 0.509607 0
M  V30 50967 C 5023.16 3.0729 0.595109 0
M  V30 50968 C 5023.64 4.53564 0.635911 0
M  V30 50969 N 5025.13 4.57909 0.698129 0
M  V30 50970 C 5025.86 5.68465 0.750686 0
M  V30 50971 N 5025.36 6.8859 0.762578 0
M  V30 50972 N 5027.15 5.56498 0.791581 0
M  V30 50973 H 5019.3 1.99544 -0.727726 0
M  V30 50974 H 5021.56 0.910104 -0.265359 0
M  V30 50975 H 5021.27 3.49389 -0.402532 0
M  V30 50976 H 5021.14 3.52312 1.34745 0
M  V30 50977 H 5023.53 2.54271 1.49767 0
M  V30 50978 H 5023.61 2.54372 -0.269889 0
M  V30 50979 H 5023.26 5.07221 -0.262491 0
M  V30 50980 H 5023.19 5.04264 1.5174 0
M  V30 50981 H 5025.68 3.71431 0.696231 0
M  V30 50982 H 5025.99 7.68601 0.804534 0
M  V30 50983 H 5024.34 6.91151 0.730451 0
M  V30 50984 H 5027.53 4.61565 0.779462 0
M  V30 50985 H 5027.7 6.42674 0.829075 0
M  V30 50986 N 5021.11 -0.416173 1.52006 0
M  V30 50987 C 5022.38 -1.17632 1.56276 0
M  V30 50988 C 5022.76 -2.08351 0.339566 0
M  V30 50989 O 5022.11 -2.18332 -0.674047 0
M  V30 50990 C 5022.32 -1.95976 2.88781 0
M  V30 50991 C 5023.67 -2.52287 3.41521 0
M  V30 50992 O 5024.69 -2.06164 2.90474 0
M  V30 50993 O 5023.55 -3.36465 4.30643 0
M  V30 50994 H 5020.65 -0.536704 0.629188 0
M  V30 50995 H 5023.19 -0.423525 1.6433 0
M  V30 50996 H 5021.96 -1.29474 3.69259 0
M  V30 50997 H 5021.59 -2.78275 2.83987 0
M  V30 50998 N 5022.58 -1.42509 -0.672966 0
M  V30 50999 C 5023.81 -1.46266 -1.45911 0
M  V30 51000 C 5024.22 -0.0730389 -1.89059 0
M  V30 51001 O 5023.56 0.922931 -1.58832 0
M  V30 51002 C 5023.63 -2.32862 -2.73889 0
M  V30 51003 C 5023.29 -3.80708 -2.52806 0
M  V30 51004 C 5024.29 -4.72315 -2.1729 0
M  V30 51005 C 5021.97 -4.24993 -2.67743 0
M  V30 51006 C 5023.97 -6.06199 -1.96982 0
M  V30 51007 C 5021.65 -5.58936 -2.47051 0
M  V30 51008 C 5022.65 -6.49355 -2.11723 0
M  V30 51009 O 5022.34 -7.80824 -1.91232 0
M  V30 51010 H 5022.07 -0.499577 -0.45541 0
M  V30 51011 H 5024.63 -1.877 -0.83413 0
M  V30 51012 H 5022.86 -1.8628 -3.38875 0
M  V30 51013 H 5024.54 -2.28053 -3.35778 0
M  V30 51014 H 5025.31 -4.39385 -2.05344 0
M  V30 51015 H 5021.19 -3.54903 -2.94219 0
M  V30 51016 H 5024.73 -6.76737 -1.69331 0
M  V30 51017 H 5020.63 -5.91438 -2.58594 0
M  V30 51018 H 5021.4 -7.92201 -2.05815 0
M  V30 51019 N 5024.06 0.909449 -1.28712 0
M  V30 51020 C 5025.01 1.99906 -1.09643 0
M  V30 51021 C 5026 1.60889 -0.0187766 0
M  V30 51022 O 5027.19 1.75374 -0.2394 0
M  V30 51023 C 5024.32 3.34672 -0.76482 0
M  V30 51024 C 5023.4 3.80078 -1.88153 0
M  V30 51025 N 5023.79 3.97813 -3.12375 0
M  V30 51026 C 5022.09 4.09272 -1.77236 0
M  V30 51027 C 5022.79 4.35915 -3.85166 0
M  V30 51028 N 5021.77 4.44415 -3.13044 0
M  V30 51029 H 5025.57 2.11674 -2.0389 0
M  V30 51030 H 5023.08 1.09759 -1.19694 0
M  V30 51031 H 5025.08 4.12424 -0.609277 0
M  V30 51032 H 5023.74 3.24256 0.169838 0
M  V30 51033 H 5024.75 3.83614 -3.47938 0
M  V30 51034 H 5021.43 4.07467 -0.909764 0
M  V30 51035 H 5022.82 4.57563 -4.92022 0
M  V30 51036 N 5025.54 1.1103 1.11848 0
M  V30 51037 C 5026.49 0.764739 2.17762 0
M  V30 51038 C 5027.46 -0.261796 1.64024 0
M  V30 51039 O 5028.64 -0.139681 1.90288 0
M  V30 51040 C 5025.78 0.209438 3.44464 0
M  V30 51041 C 5024.89 1.29202 4.12227 0
M  V30 51042 C 5024.03 0.697708 5.26598 0
M  V30 51043 C 5023.07 1.76044 5.86238 0
M  V30 51044 N 5022.21 1.18594 6.92012 0
M  V30 51045 H 5027.05 1.67211 2.46667 0
M  V30 51046 H 5024.58 0.835107 1.21097 0
M  V30 51047 H 5026.54 -0.130453 4.16996 0
M  V30 51048 H 5025.17 -0.66114 3.15957 0
M  V30 51049 H 5024.22 1.74893 3.37811 0
M  V30 51050 H 5025.53 2.09623 4.52614 0
M  V30 51051 H 5024.69 0.307625 6.0592 0
M  V30 51052 H 5023.43 -0.137872 4.87505 0
M  V30 51053 H 5022.43 2.15988 5.05598 0
M  V30 51054 H 5023.66 2.59897 6.274 0
M  V30 51055 H 5021.6 0.371925 6.54945 0
M  V30 51056 H 5021.52 1.92691 7.31031 0
M  V30 51057 H 5022.79 0.822602 7.75147 0
M  V30 51058 N 5027.02 -1.29376 0.899973 0
M  V30 51059 C 5027.98 -2.25981 0.382756 0
M  V30 51060 C 5028.98 -1.53368 -0.483205 0
M  V30 51061 O 5030.17 -1.71799 -0.288219 0
M  V30 51062 C 5027.3 -3.3788 -0.452796 0
M  V30 51063 H 5028.5 -2.73247 1.23596 0
M  V30 51064 H 5026.05 -1.40823 0.678137 0
M  V30 51065 H 5026.78 -2.95954 -1.32597 0
M  V30 51066 H 5026.57 -3.91741 0.1677 0
M  V30 51067 H 5028.06 -4.09749 -0.805962 0
M  V30 51068 N 5028.5 -0.662483 -1.43 0
M  V30 51069 C 5029.74 -0.179662 -2.01701 0
M  V30 51070 C 5030.07 1.20959 -1.52313 0
M  V30 51071 O 5029.33 1.8234 -0.710664 0
M  V30 51072 C 5029.63 -0.149489 -3.57087 0
M  V30 51073 C 5029.29 -1.48173 -4.25858 0
M  V30 51074 C 5027.95 -1.84654 -4.44361 0
M  V30 51075 C 5030.31 -2.35969 -4.64723 0
M  V30 51076 C 5027.63 -3.08578 -4.98995 0
M  V30 51077 C 5029.99 -3.59195 -5.20732 0
M  V30 51078 C 5028.65 -3.95859 -5.37449 0
M  V30 51079 H 5027.92 -0.0657431 -0.738078 0
M  V30 51080 H 5030.57 -0.855029 -1.71352 0
M  V30 51081 H 5028.87 0.609355 -3.87032 0
M  V30 51082 H 5030.57 0.2411 -4.00275 0
M  V30 51083 H 5027.16 -1.18792 -4.11809 0
M  V30 51084 H 5031.34 -2.09073 -4.50113 0
M  V30 51085 H 5026.6 -3.37023 -5.10123 0
M  V30 51086 H 5030.77 -4.27436 -5.49792 0
M  V30 51087 H 5028.4 -4.91963 -5.79549 0
M  V30 51088 N 5029.97 1.52307 -0.404999 0
M  V30 51089 C 5031.22 2.01369 0.171789 0
M  V30 51090 C 5031.54 1.29266 1.45997 0
M  V30 51091 O 5030.81 0.417357 1.91403 0
M  V30 51092 H 5029.39 0.744037 0.0664732 0
M  V30 51093 H 5032.06 1.87261 -0.540294 0
M  V30 51094 H 5031.15 3.09889 0.370848 0
M  V30 51095 N 5031.45 0.135293 1.57018 0
M  V30 51096 C 5032.4 -0.826022 2.17439 0
M  V30 51097 C 5033.39 -1.26374 1.1281 0
M  V30 51098 O 5034.6 -1.23358 1.31083 0
M  V30 51099 H 5030.98 -0.284544 0.696088 0
M  V30 51100 H 5032.95 -0.292108 2.96967 0
M  V30 51101 C 5031.7 -2.05981 2.8012 0
M  V30 51102 H 5031.02 -1.73196 3.60337 0
M  V30 51103 H 5032.46 -2.71213 3.25913 0
M  V30 51104 C 5030.92 -2.86021 1.78027 0
M  V30 51105 O 5031.45 -3.81966 1.24357 0
M  V30 51106 N 5029.65 -2.50327 1.47596 0
M  V30 51107 H 5029.2 -1.7237 1.91432 0
M  V30 51108 H 5029.16 -3.04174 0.795335 0
M  V30 51109 N 5032.93 -1.5699 -0.138497 0
M  V30 51110 C 5033.86 -2.01937 -1.17234 0
M  V30 51111 C 5034.84 -0.900381 -1.44316 0
M  V30 51112 O 5036.03 -1.16878 -1.55091 0
M  V30 51113 C 5033.16 -2.4072 -2.50343 0
M  V30 51114 C 5032.11 -3.55882 -2.37764 0
M  V30 51115 C 5031.44 -3.80504 -3.7566 0
M  V30 51116 C 5032.74 -4.88266 -1.85455 0
M  V30 51117 H 5034.43 -2.88554 -0.798571 0
M  V30 51118 H 5031.98 -1.38822 -0.382694 0
M  V30 51119 H 5033.93 -2.70765 -3.229 0
M  V30 51120 H 5032.65 -1.5105 -2.89571 0
M  V30 51121 H 5031.31 -3.26016 -1.67658 0
M  V30 51122 H 5030.96 -2.88072 -4.12339 0
M  V30 51123 H 5030.66 -4.58011 -3.68103 0
M  V30 51124 H 5032.18 -4.12983 -4.49753 0
M  V30 51125 H 5033.6 -5.16974 -2.47812 0
M  V30 51126 H 5032 -5.69638 -1.88767 0
M  V30 51127 H 5033.07 -4.78074 -0.810767 0
M  V30 51128 N 5034.41 0.408106 -1.52224 0
M  V30 51129 C 5035.82 0.7468 -1.4105 0
M  V30 51130 C 5036.02 1.94786 -0.515798 0
M  V30 51131 O 5035.08 2.52494 0.0180269 0
M  V30 51132 C 5036.39 0.999778 -2.83593 0
M  V30 51133 C 5037.94 1.10243 -2.92943 0
M  V30 51134 C 5038.42 1.38816 -4.36456 0
M  V30 51135 N 5039.91 1.45679 -4.39695 0
M  V30 51136 C 5040.64 1.69416 -5.47801 0
M  V30 51137 N 5040.14 1.9075 -6.66023 0
M  V30 51138 N 5041.93 1.71439 -5.35318 0
M  V30 51139 H 5034.08 -0.382483 -2.08928 0
M  V30 51140 H 5036.35 -0.10884 -0.941731 0
M  V30 51141 H 5036.05 0.1896 -3.51189 0
M  V30 51142 H 5035.93 1.91967 -3.24698 0
M  V30 51143 H 5038.31 1.9032 -2.25527 0
M  V30 51144 H 5038.39 0.160883 -2.55294 0
M  V30 51145 H 5038.04 0.592564 -5.04431 0
M  V30 51146 H 5037.97 2.34225 -4.71642 0
M  V30 51147 H 5040.46 1.30977 -3.54476 0
M  V30 51148 H 5040.77 2.08316 -7.44194 0
M  V30 51149 H 5039.12 1.88013 -6.69086 0
M  V30 51150 H 5042.31 1.5431 -4.41934 0
M  V30 51151 H 5042.48 1.89599 -6.19642 0
M  V30 51152 N 5035.89 1.42864 0.665399 0
M  V30 51153 C 5037.11 1.47461 1.45842 0
M  V30 51154 C 5037.54 0.0900972 1.87884 0
M  V30 51155 O 5036.89 -0.913532 1.56602 0
M  V30 51156 C 5036.94 2.41524 2.67766 0
M  V30 51157 O 5036.05 1.89309 3.66382 0
M  V30 51158 H 5035.39 0.499252 0.437771 0
M  V30 51159 H 5037.92 1.87653 0.815328 0
M  V30 51160 H 5037.93 2.5842 3.15726 0
M  V30 51161 H 5036.6 3.42107 2.36507 0
M  V30 51162 H 5035.18 1.82014 3.25462 0
M  V30 51163 N 5037.36 -0.902611 1.29192 0
M  V30 51164 C 5038.78 -1.46805 1.15348 0
M  V30 51165 C 5039.13 -1.94569 -0.252449 0
M  V30 51166 O 5038.25 -1.83458 -1.1477 0
M  V30 51167 C 5038.85 -2.66822 2.08786 0
M  V30 51168 C 5037.41 -3.19511 1.98972 0
M  V30 51169 C 5036.55 -1.92205 1.99881 0
M  V30 51170 H 5039.5 -0.714232 1.4172 0
M  V30 51171 H 5039.52 -3.42459 1.65838 0
M  V30 51172 H 5039.04 -2.32028 3.11102 0
M  V30 51173 H 5037.14 -3.59004 0.997336 0
M  V30 51174 H 5037.25 -3.84005 2.8649 0
M  V30 51175 H 5035.61 -2.09784 1.44439 0
M  V30 51176 H 5036.4 -1.59692 3.03897 0
M  V30 51177 N 5038.84 -1.11622 -1.11258 0
M  V30 51178 C 5040.09 -0.864533 -1.82675 0
M  V30 51179 C 5040.41 0.611499 -1.85164 0
M  V30 51180 O 5039.68 1.44425 -1.32357 0
M  V30 51181 H 5038.26 -0.316844 -0.676475 0
M  V30 51182 H 5040.92 -1.40899 -1.34661 0
M  V30 51183 H 5040.02 -1.23842 -2.86478 0
M  V30 51184 N 5040.32 1.28897 -0.906821 0
M  V30 51185 C 5041.57 1.95917 -0.54662 0
M  V30 51186 C 5041.92 1.70129 0.89854 0
M  V30 51187 O 5041.21 1.0078 1.62954 0
M  V30 51188 C 5041.41 3.48701 -0.78374 0
M  V30 51189 C 5041.24 3.89342 -2.2504 0
M  V30 51190 C 5040.01 4.13854 -2.8992 0
M  V30 51191 C 5042.21 4.00524 -3.22622 0
M  V30 51192 N 5040.19 4.41116 -4.26954 0
M  V30 51193 C 5041.56 4.3192 -4.44798 0
M  V30 51194 C 5043.61 3.83024 -3.18115 0
M  V30 51195 C 5042.32 4.47639 -5.63038 0
M  V30 51196 C 5044.34 3.99956 -4.35648 0
M  V30 51197 C 5043.7 4.31718 -5.56596 0
M  V30 51198 H 5039.8 0.741041 -0.249763 0
M  V30 51199 H 5042.39 1.55692 -1.16911 0
M  V30 51200 H 5040.56 3.87932 -0.190573 0
M  V30 51201 H 5042.29 4.02833 -0.388262 0
M  V30 51202 H 5039.05 4.07885 -2.4068 0
M  V30 51203 H 5039.47 4.58843 -4.97787 0
M  V30 51204 H 5044.11 3.57525 -2.2569 0
M  V30 51205 H 5041.83 4.71972 -6.55948 0
M  V30 51206 H 5045.42 3.87859 -4.33655 0
M  V30 51207 H 5044.3 4.44545 -6.46026 0
M  V30 51208 N 5041.8 0.670057 1.42646 0
M  V30 51209 C 5043.21 0.268183 1.84764 0
M  V30 51210 C 5043.56 -1.18872 1.5609 0
M  V30 51211 O 5042.69 -1.90943 1.01832 0
M  V30 51212 C 5043.28 0.479958 3.35383 0
M  V30 51213 C 5041.84 0.132248 3.76168 0
M  V30 51214 C 5040.99 0.774704 2.66259 0
M  V30 51215 H 5043.94 0.872556 1.3256 0
M  V30 51216 H 5043.96 -0.269388 3.79545 0
M  V30 51217 H 5043.47 1.54039 3.56221 0
M  V30 51218 H 5041.57 -0.924924 3.60938 0
M  V30 51219 H 5041.69 0.569461 4.75704 0
M  V30 51220 H 5040.05 0.206443 2.53862 0
M  V30 51221 H 5040.83 1.83849 2.89921 0
M  V30 51222 N 5043.28 -1.5209 0.413071 0
M  V30 51223 C 5044.55 -1.94357 -0.220172 0
M  V30 51224 C 5044.93 -1.35022 -1.62272 0
M  V30 51225 O 5044.28 -0.527589 -2.22326 0
M  V30 51226 C 5044.49 -3.4829 -0.222516 0
M  V30 51227 C 5045.84 -4.22315 -0.43995 0
M  V30 51228 O 5046.86 -3.5492 -0.301701 0
M  V30 51229 O 5045.72 -5.41832 -0.712793 0
M  V30 51230 H 5042.82 -0.814541 -0.143011 0
M  V30 51231 H 5045.36 -1.63082 0.469299 0
M  V30 51232 H 5044.14 -3.83869 0.758971 0
M  V30 51233 H 5043.76 -3.85938 -0.955921 0
M  V30 51234 N 5044.76 -0.143618 -1.56944 0
M  V30 51235 C 5045.7 0.814479 -2.17874 0
M  V30 51236 C 5046.7 1.25774 -1.13478 0
M  V30 51237 O 5047.9 1.22661 -1.31735 0
M  V30 51238 H 5044.28 0.280848 -0.697587 0
M  V30 51239 H 5046.25 0.276355 -2.97118 0
M  V30 51240 C 5045 2.04493 -2.81208 0
M  V30 51241 H 5044.32 1.71283 -3.61251 0
M  V30 51242 H 5045.76 2.69481 -3.27347 0
M  V30 51243 C 5044.22 2.85073 -1.79542 0
M  V30 51244 O 5044.75 3.81301 -1.26381 0
M  V30 51245 N 5042.96 2.49541 -1.48922 0
M  V30 51246 H 5042.5 1.71352 -1.92344 0
M  V30 51247 H 5042.46 3.03748 -0.811455 0
M  V30 51248 N 5046.23 1.57062 0.130169 0
M  V30 51249 C 5047.46 1.88162 0.853151 0
M  V30 51250 C 5047.87 0.731736 1.74477 0
M  V30 51251 O 5047.21 -0.306972 1.81117 0
M  V30 51252 C 5047.28 3.14156 1.74774 0
M  V30 51253 C 5046.94 4.45205 1.03157 0
M  V30 51254 C 5047.94 5.18527 0.377576 0
M  V30 51255 C 5045.62 4.91916 1.01607 0
M  V30 51256 C 5047.62 6.36774 -0.282347 0
M  V30 51257 C 5045.3 6.10083 0.352341 0
M  V30 51258 C 5046.3 6.82359 -0.295723 0
M  V30 51259 O 5045.99 7.9828 -0.948886 0
M  V30 51260 H 5045.72 0.627604 0.251175 0
M  V30 51261 H 5048.28 2.05034 0.122528 0
M  V30 51262 H 5046.51 2.93337 2.51973 0
M  V30 51263 H 5048.19 3.31367 2.34416 0
M  V30 51264 H 5048.96 4.83499 0.381247 0
M  V30 51265 H 5044.84 4.35572 1.50992 0
M  V30 51266 H 5048.38 6.93126 -0.788769 0
M  V30 51267 H 5044.28 6.4457 0.346395 0
M  V30 51268 H 5045.05 8.14051 -0.85224 0
M  V30 51269 N 5047.71 -0.400028 1.52439 0
M  V30 51270 C 5048.99 -1.15968 1.57515 0
M  V30 51271 C 5049.37 -2.07979 0.361645 0
M  V30 51272 O 5048.72 -2.19035 -0.650852 0
M  V30 51273 C 5048.93 -1.92902 2.90844 0
M  V30 51274 C 5050.27 -2.4865 3.44178 0
M  V30 51275 O 5051.3 -2.03071 2.92644 0
M  V30 51276 O 5050.16 -3.31879 4.34188 0
M  V30 51277 H 5047.25 -0.53 0.634845 0
M  V30 51278 H 5049.8 -0.406072 1.6477 0
M  V30 51279 H 5048.57 -1.25551 3.70611 0
M  V30 51280 H 5048.19 -2.75247 2.86923 0
M  V30 51281 N 5049.19 -1.43215 -0.657814 0
M  V30 51282 C 5050.14 -1.48277 -1.79211 0
M  V30 51283 C 5051.13 -0.356809 -1.656 0
M  V30 51284 O 5052.34 -0.530595 -1.72002 0
M  V30 51285 H 5048.71 -0.46475 -0.591195 0
M  V30 51286 H 5050.68 -2.43798 -1.72061 0
M  V30 51287 C 5049.43 -1.41848 -3.1745 0
M  V30 51288 H 5048.76 -2.27792 -3.28559 0
M  V30 51289 H 5050.2 -1.49452 -3.96787 0
M  V30 51290 C 5048.65 -0.135465 -3.36628 0
M  V30 51291 O 5049.18 0.80506 -3.9355 0
M  V30 51292 N 5047.39 -0.0471338 -2.90562 0
M  V30 51293 H 5046.94 -0.813306 -2.44424 0
M  V30 51294 H 5046.9 0.81063 -3.0377 0
M  V30 51295 N 5050.67 0.895746 -1.29669 0
M  V30 51296 C 5051.94 1.62719 -1.08544 0
M  V30 51297 C 5052.32 2.07849 0.369046 0
M  V30 51298 O 5051.67 1.83725 1.35858 0
M  V30 51299 C 5051.88 2.80498 -2.07658 0
M  V30 51300 C 5053.23 3.51089 -2.38792 0
M  V30 51301 O 5054.25 2.90672 -2.05884 0
M  V30 51302 O 5053.11 4.60017 -2.95036 0
M  V30 51303 H 5050.21 0.714677 -0.416131 0
M  V30 51304 H 5052.75 0.943467 -1.41056 0
M  V30 51305 H 5051.53 2.44376 -3.05608 0
M  V30 51306 H 5051.15 3.56574 -1.75899 0
M  V30 51307 N 5052.15 1.1221 1.10665 0
M  V30 51308 C 5053.09 0.787793 2.16939 0
M  V30 51309 C 5054.06 -0.244385 1.64292 0
M  V30 51310 O 5055.25 -0.119491 1.90425 0
M  V30 51311 C 5052.39 0.245961 3.44222 0
M  V30 51312 C 5051.5 1.33567 4.10833 0
M  V30 51313 C 5050.64 0.753522 5.25828 0
M  V30 51314 C 5049.67 1.82252 5.84338 0
M  V30 51315 N 5048.81 1.25927 6.90715 0
M  V30 51316 H 5053.65 1.69818 2.4488 0
M  V30 51317 H 5051.19 0.847904 1.20204 0
M  V30 51318 H 5053.15 -0.0862173 4.17111 0
M  V30 51319 H 5051.78 -0.627591 3.1664 0
M  V30 51320 H 5050.83 1.78466 3.35937 0
M  V30 51321 H 5052.14 2.14412 4.50365 0
M  V30 51322 H 5051.29 0.371873 6.05559 0
M  V30 51323 H 5050.03 -0.0861583 4.87624 0
M  V30 51324 H 5049.04 2.21338 5.03279 0
M  V30 51325 H 5050.26 2.66537 6.24608 0
M  V30 51326 H 5048.21 0.44137 6.54514 0
M  V30 51327 H 5048.13 2.00434 7.28946 0
M  V30 51328 H 5049.39 0.904771 7.74231 0
M  V30 51329 N 5053.62 -1.28415 0.913644 0
M  V30 51330 C 5054.9 -1.89976 0.465686 0
M  V30 51331 C 5055.28 -1.82817 -1.05552 0
M  V30 51332 O 5054.63 -1.26403 -1.90353 0
M  V30 51333 C 5054.84 -3.34488 0.99593 0
M  V30 51334 C 5056.19 -4.11464 1.04796 0
M  V30 51335 O 5057.21 -3.43448 0.944566 0
M  V30 51336 O 5056.07 -5.33041 1.20536 0
M  V30 51337 H 5053.16 -0.813729 0.14756 0
M  V30 51338 H 5055.71 -1.36783 1.00442 0
M  V30 51339 H 5054.48 -3.33922 2.0399 0
M  V30 51340 H 5054.1 -3.9518 0.438016 0
M  V30 51341 N 5055.1 -0.677613 -1.42289 0
M  V30 51342 C 5056.34 -0.204966 -2.0337 0
M  V30 51343 C 5056.71 1.16738 -1.52434 0
M  V30 51344 O 5057.91 1.73485 -2.0532 0
M  V30 51345 C 5056.18 -0.240867 -3.56587 0
M  V30 51346 S 5057.74 0.160365 -4.38507 0
M  V30 51347 H 5054.55 -0.084018 -0.706018 0
M  V30 51348 H 5057.16 -0.891393 -1.73996 0
M  V30 51349 H 5055.86 -1.24197 -3.91156 0
M  V30 51350 H 5055.39 0.465302 -3.90639 0
M  V30 51351 H 5057.41 1.39298 -4.76246 0
M  V30 51352 N 5056.58 1.51869 -0.421131 0
M  V30 51353 C 5057.81 2.06357 0.149867 0
M  V30 51354 C 5058.22 1.29011 1.37847 0
M  V30 51355 O 5057.58 0.345202 1.79205 0
M  V30 51356 C 5057.63 3.58187 0.488328 0
M  V30 51357 O 5057.35 4.32608 -0.691493 0
M  V30 51358 C 5058.85 4.29133 1.11176 0
M  V30 51359 H 5056.07 0.67083 0.015095 0
M  V30 51360 H 5058.62 1.95636 -0.595545 0
M  V30 51361 H 5056.77 3.68875 1.18363 0
M  V30 51362 H 5057.19 5.22926 -0.40609 0
M  V30 51363 H 5058.66 5.36505 1.2987 0
M  V30 51364 H 5059.14 3.86378 2.08826 0
M  V30 51365 H 5059.74 4.22845 0.45631 0
M  V30 51366 N 5058.06 0.151939 1.56866 0
M  V30 51367 C 5059.3 -0.498673 1.96573 0
M  V30 51368 C 5059.64 -1.6419 1.03708 0
M  V30 51369 O 5058.91 -1.94334 0.0804115 0
M  V30 51370 C 5059.2 -1.00015 3.45932 0
M  V30 51371 C 5059.05 0.141925 4.49576 0
M  V30 51372 C 5060.37 -1.8803 3.97911 0
M  V30 51373 H 5057.49 -0.179795 0.714733 0
M  V30 51374 H 5060.13 0.234164 1.88552 0
M  V30 51375 H 5058.28 -1.62463 3.52899 0
M  V30 51376 H 5059.95 0.778429 4.54685 0
M  V30 51377 H 5058.19 0.80034 4.26353 0
M  V30 51378 H 5058.86 -0.250753 5.5143 0
M  V30 51379 H 5061.34 -1.35402 3.93453 0
M  V30 51380 H 5060.22 -2.20025 5.02872 0
M  V30 51381 H 5060.48 -2.81904 3.40562 0
M  V30 51382 N 5059.54 -1.57128 -0.121838 0
M  V30 51383 C 5060.76 -1.88886 -0.844385 0
M  V30 51384 C 5061.18 -0.742885 -1.7357 0
M  V30 51385 O 5060.54 0.286411 -1.80239 0
M  V30 51386 C 5060.59 -3.20082 -1.68018 0
M  V30 51387 O 5060.31 -4.30267 -0.824747 0
M  V30 51388 C 5061.81 -3.65524 -2.50813 0
M  V30 51389 H 5059.03 -0.625498 -0.242885 0
M  V30 51390 H 5061.57 -2.04219 -0.107079 0
M  V30 51391 H 5059.73 -3.06426 -2.37027 0
M  V30 51392 H 5060.14 -5.05444 -1.40096 0
M  V30 51393 H 5061.62 -4.60092 -3.04991 0
M  V30 51394 H 5062.09 -2.92041 -3.28038 0
M  V30 51395 H 5062.7 -3.81958 -1.87051 0
M  V30 51396 N 5061.01 0.391938 -1.52649 0
M  V30 51397 C 5061.94 1.48511 -1.80186 0
M  V30 51398 C 5062.93 1.57037 -0.653722 0
M  V30 51399 O 5064.11 1.72033 -0.901022 0
M  V30 51400 C 5061.24 2.86154 -1.96807 0
M  V30 51401 C 5060.19 2.9247 -3.12482 0
M  V30 51402 C 5059.52 4.32535 -3.14353 0
M  V30 51403 C 5060.82 2.62384 -4.5161 0
M  V30 51404 H 5062.51 1.25716 -2.71727 0
M  V30 51405 H 5060.06 0.603341 -1.30751 0
M  V30 51406 H 5062.01 3.62632 -2.14654 0
M  V30 51407 H 5060.74 3.1028 -1.01952 0
M  V30 51408 H 5059.4 2.1844 -2.94414 0
M  V30 51409 H 5059.04 4.53695 -2.17186 0
M  V30 51410 H 5058.74 4.37681 -3.92057 0
M  V30 51411 H 5060.27 5.10922 -3.34351 0
M  V30 51412 H 5061.68 3.2858 -4.69796 0
M  V30 51413 H 5060.08 2.78884 -5.3136 0
M  V30 51414 H 5061.15 1.57738 -4.58527 0
M  V30 51415 N 5062.49 1.43562 0.650209 0
M  V30 51416 C 5063.72 1.48784 1.43774 0
M  V30 51417 C 5064.14 0.106659 1.88498 0
M  V30 51418 O 5063.49 -0.88371 1.59677 0
M  V30 51419 C 5063.54 2.43628 2.67073 0
M  V30 51420 O 5063.26 3.76375 2.24217 0
M  V30 51421 C 5064.77 2.58122 3.604 0
M  V30 51422 H 5061.99 0.505225 0.441575 0
M  V30 51423 H 5064.53 1.88335 0.796874 0
M  V30 51424 H 5062.68 2.07264 3.27292 0
M  V30 51425 H 5063.1 4.27405 3.04015 0
M  V30 51426 H 5064.57 3.28554 4.43572 0
M  V30 51427 H 5065.05 1.62714 4.07947 0
M  V30 51428 H 5065.66 2.95309 3.0606 0
M  V30 51429 N 5063.97 -0.888857 1.30143 0
M  V30 51430 C 5064.93 -1.97572 1.16181 0
M  V30 51431 C 5065.93 -1.60524 0.0941424 0
M  V30 51432 O 5067.12 -1.70811 0.341949 0
M  V30 51433 C 5064.26 -3.31878 0.7791 0
M  V30 51434 H 5065.45 -2.11386 2.12735 0
M  V30 51435 H 5063 -1.07476 1.13484 0
M  V30 51436 H 5063.74 -3.23766 -0.186111 0
M  V30 51437 H 5063.52 -3.60136 1.55064 0
M  V30 51438 H 5065.01 -4.1161 0.704776 0
M  V30 51439 N 5065.45 -1.12795 -1.10068 0
M  V30 51440 C 5066.86 -0.899403 -1.63608 0
M  V30 51441 C 5067.21 0.565481 -1.87874 0
M  V30 51442 O 5066.34 1.43075 -1.62353 0
M  V30 51443 C 5066.93 -1.62618 -2.97222 0
M  V30 51444 C 5065.49 -1.44368 -3.47613 0
M  V30 51445 C 5064.64 -1.65966 -2.2215 0
M  V30 51446 H 5067.59 -1.28219 -0.935178 0
M  V30 51447 H 5067.61 -1.07943 -3.64868 0
M  V30 51448 H 5067.12 -2.69231 -2.79528 0
M  V30 51449 H 5065.22 -0.400278 -3.70444 0
M  V30 51450 H 5065.33 -2.20233 -4.25481 0
M  V30 51451 H 5063.7 -1.08403 -2.3048 0
M  V30 51452 H 5064.48 -2.73884 -2.06984 0
M  V30 51453 N 5066.93 1.27928 -0.920441 0
M  V30 51454 C 5067.86 2.26173 -0.371248 0
M  V30 51455 C 5068.87 1.55124 0.494011 0
M  V30 51456 O 5070.06 1.75826 0.307808 0
M  V30 51457 C 5067.16 3.35377 0.487363 0
M  V30 51458 C 5066.33 4.35941 -0.356925 0
M  V30 51459 C 5065.39 5.24375 0.437858 0
M  V30 51460 O 5064.42 5.68997 -0.151915 0
M  V30 51461 N 5065.62 5.53829 1.73937 0
M  V30 51462 H 5068.39 2.73934 -1.21574 0
M  V30 51463 H 5065.95 1.41479 -0.787096 0
M  V30 51464 H 5067.94 3.9148 1.02596 0
M  V30 51465 H 5066.51 2.87274 1.23259 0
M  V30 51466 H 5065.73 3.79206 -1.07686 0
M  V30 51467 H 5067.02 5.00147 -0.934382 0
M  V30 51468 H 5066.41 5.1942 2.24096 0
M  V30 51469 H 5064.97 6.12661 2.22464 0
M  V30 51470 N 5068.4 0.685149 1.41928 0
M  V30 51471 C 5069.35 0.00174162 2.326 0
M  V30 51472 C 5070.35 -0.779625 1.50394 0
M  V30 51473 O 5071.55 -0.686422 1.66398 0
M  V30 51474 H 5067.93 -0.0182351 0.751779 0
M  V30 51475 H 5069.9 0.783693 2.87925 0
M  V30 51476 C 5068.65 -0.928267 3.3508 0
M  V30 51477 H 5067.97 -0.336438 3.98382 0
M  V30 51478 H 5069.41 -1.37495 4.01087 0
M  V30 51479 C 5067.87 -2.03955 2.68149 0
M  V30 51480 O 5068.4 -3.12718 2.52131 0
M  V30 51481 N 5066.61 -1.81425 2.27009 0
M  V30 51482 H 5066.15 -0.929723 2.40237 0
M  V30 51483 H 5066.11 -2.55966 1.82561 0
M  V30 51484 N 5069.88 -1.51644 0.429179 0
M  V30 51485 C 5070.83 -2.2439 -0.404138 0
M  V30 51486 C 5071.82 -1.26297 -0.996888 0
M  V30 51487 O 5073.01 -1.51431 -0.916381 0
M  V30 51488 C 5070.14 -3.08344 -1.50928 0
M  V30 51489 C 5069.22 -4.1386 -0.926319 0
M  V30 51490 N 5069.61 -5.05749 -0.0717955 0
M  V30 51491 C 5067.91 -4.29699 -1.19476 0
M  V30 51492 C 5068.61 -5.81142 0.254733 0
M  V30 51493 N 5067.59 -5.42409 -0.359573 0
M  V30 51494 H 5071.39 -2.92793 0.2548 0
M  V30 51495 H 5068.91 -1.60605 0.240769 0
M  V30 51496 H 5070.9 -3.59029 -2.11905 0
M  V30 51497 H 5069.56 -2.41482 -2.17063 0
M  V30 51498 H 5070.57 -5.17065 0.294035 0
M  V30 51499 H 5067.25 -3.74066 -1.85421 0
M  V30 51500 H 5068.64 -6.65156 0.949598 0
M  V30 51501 N 5071.36 -0.160256 -1.56783 0
M  V30 51502 C 5072.59 0.494095 -2.00914 0
M  V30 51503 C 5073 1.57545 -1.04044 0
M  V30 51504 O 5072.36 1.82457 -0.0395223 0
M  V30 51505 C 5072.41 1.08259 -3.44909 0
M  V30 51506 O 5072.13 0.0444164 -4.38077 0
M  V30 51507 C 5073.63 1.81625 -4.04385 0
M  V30 51508 H 5070.85 0.127474 -0.65878 0
M  V30 51509 H 5073.4 -0.258736 -2.02857 0
M  V30 51510 H 5071.55 1.78597 -3.43776 0
M  V30 51511 H 5071.97 0.47736 -5.22323 0
M  V30 51512 H 5073.44 2.18076 -5.07097 0
M  V30 51513 H 5073.92 2.70715 -3.45847 0
M  V30 51514 H 5074.52 1.15955 -4.09188 0
M  V30 51515 N 5072.84 1.57191 0.113503 0
M  V30 51516 C 5074.09 1.84327 0.818919 0
M  V30 51517 C 5074.4 0.746748 1.80784 0
M  V30 51518 O 5075.61 0.904686 2.55984 0
M  V30 51519 C 5074.06 3.26824 1.50713 0
M  V30 51520 C 5073.67 4.445 0.558908 0
M  V30 51521 C 5075.42 3.63203 2.19735 0
M  V30 51522 C 5073.32 5.78025 1.25065 0
M  V30 51523 H 5072.25 0.687518 0.309572 0
M  V30 51524 H 5074.9 1.8336 0.0716977 0
M  V30 51525 H 5073.29 3.22277 2.30116 0
M  V30 51526 H 5074.46 4.60356 -0.202308 0
M  V30 51527 H 5072.77 4.16393 -0.0246413 0
M  V30 51528 H 5075.37 4.60236 2.7219 0
M  V30 51529 H 5075.71 2.90909 2.97788 0
M  V30 51530 H 5076.25 3.69558 1.47213 0
M  V30 51531 H 5072.99 6.53503 0.511309 0
M  V30 51532 H 5072.51 5.66045 1.98375 0
M  V30 51533 H 5074.19 6.21967 1.78231 0
M  V30 51534 N 5074.32 -0.383837 1.52854 0
M  V30 51535 C 5075.54 -1.15394 1.72334 0
M  V30 51536 C 5075.97 -1.82808 0.443044 0
M  V30 51537 O 5075.33 -1.71028 -0.601585 0
M  V30 51538 C 5075.37 -2.17375 2.87716 0
M  V30 51539 O 5074.48 -3.24073 2.55049 0
M  V30 51540 H 5073.82 -0.335689 0.572895 0
M  V30 51541 H 5076.35 -0.44655 1.99667 0
M  V30 51542 H 5076.36 -2.61285 3.13359 0
M  V30 51543 H 5075.03 -1.67697 3.80593 0
M  V30 51544 H 5073.61 -2.85265 2.40163 0
M  V30 51545 N 5075.8 -1.43905 -0.642587 0
M  V30 51546 C 5076.73 -1.52703 -1.76647 0
M  V30 51547 C 5077.71 -0.380875 -1.65781 0
M  V30 51548 O 5078.89 -0.599497 -1.84715 0
M  V30 51549 C 5076.02 -1.45986 -3.15127 0
M  V30 51550 C 5074.98 -2.58961 -3.40769 0
M  V30 51551 C 5074.3 -2.37296 -4.7916 0
M  V30 51552 C 5075.6 -4.01165 -3.34461 0
M  V30 51553 H 5077.3 -2.46772 -1.6954 0
M  V30 51554 H 5074.84 -1.18769 -0.814237 0
M  V30 51555 H 5076.79 -1.50744 -3.93515 0
M  V30 51556 H 5075.52 -0.484276 -3.2299 0
M  V30 51557 H 5074.18 -2.53574 -2.64756 0
M  V30 51558 H 5073.83 -1.37956 -4.83712 0
M  V30 51559 H 5073.53 -3.13034 -4.97276 0
M  V30 51560 H 5075.05 -2.43854 -5.59793 0
M  V30 51561 H 5076.46 -4.07982 -4.0277 0
M  V30 51562 H 5074.86 -4.77014 -3.64113 0
M  V30 51563 H 5075.93 -4.25547 -2.32461 0
M  V30 51564 N 5077.27 0.881943 -1.30612 0
M  V30 51565 C 5078.52 1.63401 -1.1961 0
M  V30 51566 C 5078.85 1.92906 0.248506 0
M  V30 51567 O 5078.1 1.55066 1.19386 0
M  V30 51568 C 5078.4 2.97992 -1.97321 0
M  V30 51569 C 5078.07 2.88027 -3.46917 0
M  V30 51570 C 5076.73 2.85016 -3.8771 0
M  V30 51571 C 5079.08 2.75932 -4.42166 0
M  V30 51572 C 5076.41 2.67753 -5.22039 0
M  V30 51573 C 5078.76 2.60208 -5.76606 0
M  V30 51574 C 5077.43 2.55573 -6.16635 0
M  V30 51575 H 5076.7 0.597925 -0.437683 0
M  V30 51576 H 5079.34 1.02518 -1.61748 0
M  V30 51577 H 5077.65 3.62842 -1.47828 0
M  V30 51578 H 5079.35 3.5515 -1.86198 0
M  V30 51579 H 5075.94 2.91181 -3.14502 0
M  V30 51580 H 5080.12 2.77322 -4.1159 0
M  V30 51581 H 5075.38 2.62582 -5.52142 0
M  V30 51582 H 5079.55 2.49824 -6.50047 0
M  V30 51583 H 5077.18 2.41956 -7.20667 0
M  V30 51584 N 5078.75 1.13378 1.09468 0
M  V30 51585 C 5080 0.895254 1.81635 0
M  V30 51586 C 5080.33 -0.578614 1.85694 0
M  V30 51587 O 5079.58 -1.44421 1.32064 0
M  V30 51588 C 5079.88 1.42771 3.27645 0
M  V30 51589 C 5079.55 2.91834 3.4372 0
M  V30 51590 C 5078.21 3.32533 3.47815 0
M  V30 51591 C 5080.56 3.87739 3.48293 0
M  V30 51592 C 5077.89 4.67822 3.54061 0
M  V30 51593 C 5080.24 5.22872 3.56073 0
M  V30 51594 C 5078.9 5.63098 3.58436 0
M  V30 51595 H 5078.17 0.327597 0.664651 0
M  V30 51596 H 5080.82 1.41564 1.28964 0
M  V30 51597 H 5079.13 0.828006 3.82951 0
M  V30 51598 H 5080.82 1.21923 3.82015 0
M  V30 51599 H 5077.41 2.59362 3.41217 0
M  V30 51600 H 5081.6 3.57383 3.4437 0
M  V30 51601 H 5076.85 4.98365 3.54178 0
M  V30 51602 H 5081.03 5.97001 3.58556 0
M  V30 51603 H 5078.65 6.67918 3.63029 0
M  V30 51604 N 5080.23 -1.27438 0.927213 0
M  V30 51605 C 5081.18 -2.24518 0.396957 0
M  V30 51606 C 5082.16 -1.52983 -0.498501 0
M  V30 51607 O 5083.36 -1.73781 -0.336026 0
M  V30 51608 C 5080.48 -3.41516 -0.349574 0
M  V30 51609 C 5079.57 -4.20355 0.562373 0
M  V30 51610 N 5079.96 -4.77014 1.68199 0
M  V30 51611 C 5078.26 -4.44502 0.365291 0
M  V30 51612 C 5078.96 -5.36459 2.24914 0
M  V30 51613 N 5077.94 -5.21366 1.53878 0
M  V30 51614 H 5081.74 -2.65907 1.25182 0
M  V30 51615 H 5079.25 -1.42364 0.78143 0
M  V30 51616 H 5081.25 -4.10164 -0.746392 0
M  V30 51617 H 5079.91 -3.01657 -1.20138 0
M  V30 51618 H 5080.92 -4.74978 2.06438 0
M  V30 51619 H 5077.6 -4.15112 -0.445891 0
M  V30 51620 H 5078.99 -5.91252 3.19171 0
M  V30 51621 N 5081.71 -0.692666 -1.41562 0
M  V30 51622 C 5082.93 -0.229849 -2.06122 0
M  V30 51623 C 5083.36 1.11114 -1.51774 0
M  V30 51624 O 5082.72 1.69495 -0.643504 0
M  V30 51625 C 5082.76 -0.194817 -3.60073 0
M  V30 51626 O 5081.87 0.831224 -4.03936 0
M  V30 51627 H 5081.21 -0.113025 -0.65431 0
M  V30 51628 H 5083.74 -0.946709 -1.8138 0
M  V30 51629 H 5083.75 -0.0246921 -4.07993 0
M  V30 51630 H 5082.42 -1.17353 -3.99 0
M  V30 51631 H 5081 0.63069 -3.67528 0
M  V30 51632 N 5083.19 1.51414 -0.437215 0
M  V30 51633 C 5084.12 2.30632 0.364841 0
M  V30 51634 C 5085.1 1.3604 1.02113 0
M  V30 51635 O 5086.28 1.64959 1.0248 0
M  V30 51636 C 5083.41 3.14825 1.46637 0
M  V30 51637 C 5082.37 4.17694 0.93357 0
M  V30 51638 C 5081.69 4.90408 2.13083 0
M  V30 51639 C 5082.99 5.2229 -0.0319037 0
M  V30 51640 H 5084.69 2.97931 -0.296245 0
M  V30 51641 H 5082.23 1.43279 -0.143915 0
M  V30 51642 H 5084.18 3.69024 2.03468 0
M  V30 51643 H 5082.91 2.45348 2.15574 0
M  V30 51644 H 5081.57 3.64547 0.387474 0
M  V30 51645 H 5081.22 4.17433 2.8064 0
M  V30 51646 H 5080.92 5.59968 1.78072 0
M  V30 51647 H 5082.44 5.4743 2.70468 0
M  V30 51648 H 5083.85 5.71562 0.446101 0
M  V30 51649 H 5082.25 5.99377 -0.294581 0
M  V30 51650 H 5083.32 4.75127 -0.968614 0
M  V30 51651 N 5084.66 0.168568 1.56696 0
M  V30 51652 C 5085.91 -0.476146 1.96411 0
M  V30 51653 C 5086.23 -1.63964 1.0555 0
M  V30 51654 O 5085.5 -1.95524 0.121304 0
M  V30 51655 H 5084.08 -0.178895 0.725262 0
M  V30 51656 H 5086.74 0.24911 1.93301 0
M  V30 51657 H 5085.84 -0.837988 3.0064 0
M  V30 51658 N 5086.14 -1.57249 -0.105165 0
M  V30 51659 C 5087.39 -1.84759 -0.809133 0
M  V30 51660 C 5087.7 -0.756325 -1.80386 0
M  V30 51661 O 5088.91 -0.918248 -2.555 0
M  V30 51662 C 5087.37 -3.27618 -1.48977 0
M  V30 51663 C 5086.97 -4.4479 -0.535328 0
M  V30 51664 C 5088.72 -3.64364 -2.17806 0
M  V30 51665 C 5086.63 -5.7868 -1.21998 0
M  V30 51666 H 5085.56 -0.68915 -0.305922 0
M  V30 51667 H 5088.21 -1.83395 -0.0619727 0
M  V30 51668 H 5086.59 -3.23493 -2.28404 0
M  V30 51669 H 5087.76 -4.60242 0.226719 0
M  V30 51670 H 5086.08 -4.16374 0.0467233 0
M  V30 51671 H 5088.67 -4.61673 -2.69745 0
M  V30 51672 H 5089.02 -2.92484 -2.96241 0
M  V30 51673 H 5089.55 -3.70334 -1.45251 0
M  V30 51674 H 5086.29 -6.53765 -0.476645 0
M  V30 51675 H 5085.81 -5.6709 -1.9537 0
M  V30 51676 H 5087.49 -6.22903 -1.7493 0
M  V30 51677 N 5087.62 0.375726 -1.53056 0
M  V30 51678 C 5088.53 1.48375 -1.8172 0
M  V30 51679 C 5089.55 1.59084 -0.704851 0
M  V30 51680 O 5090.72 1.7517 -0.993846 0
M  V30 51681 C 5087.79 2.8376 -1.99202 0
M  V30 51682 C 5086.85 2.82661 -3.23112 0
M  V30 51683 C 5086.08 4.11589 -3.3975 0
M  V30 51684 O 5086.3 5.07233 -2.60903 0
M  V30 51685 O 5085.24 4.18019 -4.33064 0
M  V30 51686 H 5089.06 1.27079 -2.75834 0
M  V30 51687 H 5086.65 0.564853 -1.3831 0
M  V30 51688 H 5088.53 3.63997 -2.12331 0
M  V30 51689 H 5087.21 3.05054 -1.08277 0
M  V30 51690 H 5086.11 2.01159 -3.15414 0
M  V30 51691 H 5087.45 2.6632 -4.13925 0
M  V30 51692 N 5089.1 1.44244 0.634946 0
M  V30 51693 C 5090.05 1.5111 1.76829 0
M  V30 51694 C 5091.04 0.383109 1.65011 0
M  V30 51695 O 5092.25 0.557892 1.71136 0
M  V30 51696 H 5088.62 0.474097 0.583726 0
M  V30 51697 H 5090.59 2.46505 1.68161 0
M  V30 51698 C 5089.34 1.46881 3.15153 0
M  V30 51699 H 5088.66 2.3299 3.24893 0
M  V30 51700 H 5090.1 1.55745 3.94359 0
M  V30 51701 C 5088.56 0.189003 3.36369 0
M  V30 51702 O 5089.09 -0.742348 3.94781 0
M  V30 51703 N 5087.3 0.0933537 2.9045 0
M  V30 51704 H 5086.85 0.852089 2.43099 0
M  V30 51705 H 5086.8 -0.762201 3.05021 0
M  V30 51706 N 5090.58 -0.875004 1.31078 0
M  V30 51707 C 5091.8 -1.66579 1.23556 0
M  V30 51708 C 5092.23 -1.87068 -0.196794 0
M  V30 51709 O 5091.58 -1.40881 -1.14115 0
M  V30 51710 C 5091.63 -3.01394 1.97975 0
M  V30 51711 O 5090.74 -3.90918 1.31365 0
M  V30 51712 H 5090.08 -0.50863 0.426839 0
M  V30 51713 H 5092.61 -1.09133 1.73064 0
M  V30 51714 H 5092.62 -3.51366 2.07378 0
M  V30 51715 H 5091.29 -2.85801 3.02143 0
M  V30 51716 H 5089.87 -3.49364 1.30381 0
M  V30 51717 N 5092.05 -1.13957 -1.08865 0
M  V30 51718 C 5093.3 -0.906215 -1.81427 0
M  V30 51719 C 5093.63 0.566024 -1.85768 0
M  V30 51720 O 5092.91 1.4191 -1.33011 0
M  V30 51721 C 5093.19 -1.50195 -3.27282 0
M  V30 51722 C 5093.04 -3.0437 -3.31178 0
M  V30 51723 C 5094.36 -1.17491 -4.24127 0
M  V30 51724 H 5091.48 -0.330647 -0.658666 0
M  V30 51725 H 5094.12 -1.40877 -1.2749 0
M  V30 51726 H 5092.27 -1.07455 -3.73344 0
M  V30 51727 H 5093.95 -3.55907 -2.93476 0
M  V30 51728 H 5092.19 -3.39062 -2.7059 0
M  V30 51729 H 5092.86 -3.41156 -4.33954 0
M  V30 51730 H 5095.34 -1.54434 -3.8638 0
M  V30 51731 H 5094.21 -1.61814 -5.24507 0
M  V30 51732 H 5094.47 -0.0894866 -4.42009 0
M  V30 51733 N 5093.53 1.26945 -0.933958 0
M  V30 51734 C 5094.44 2.30365 -0.443752 0
M  V30 51735 C 5095.46 1.67286 0.478686 0
M  V30 51736 O 5096.63 1.98157 0.359973 0
M  V30 51737 C 5093.7 3.45486 0.289853 0
M  V30 51738 C 5092.76 4.24067 -0.668263 0
M  V30 51739 C 5091.99 5.33691 0.0304262 0
M  V30 51740 O 5092.22 5.56565 1.24868 0
M  V30 51741 O 5091.15 5.98438 -0.644594 0
M  V30 51742 H 5094.98 2.74345 -1.30264 0
M  V30 51743 H 5092.56 1.3201 -0.699552 0
M  V30 51744 H 5094.44 4.15488 0.703384 0
M  V30 51745 H 5093.12 3.0355 1.12424 0
M  V30 51746 H 5092.03 3.56575 -1.1316 0
M  V30 51747 H 5093.36 4.69734 -1.47005 0
M  V30 51748 N 5095.01 0.700164 1.41193 0
M  V30 51749 C 5096.25 0.237294 2.03018 0
M  V30 51750 C 5096.61 -1.14298 1.54272 0
M  V30 51751 O 5097.82 -1.70197 2.08054 0
M  V30 51752 C 5096.09 0.297567 3.56159 0
M  V30 51753 S 5097.65 -0.0905825 4.38706 0
M  V30 51754 H 5094.46 0.0952395 0.704592 0
M  V30 51755 H 5097.07 0.918961 1.72555 0
M  V30 51756 H 5095.77 1.30404 3.89131 0
M  V30 51757 H 5095.3 -0.403096 3.91329 0
M  V30 51758 H 5097.32 -1.31704 4.78402 0
M  V30 51759 N 5096.49 -1.5118 0.445239 0
M  V30 51760 C 5097.9 -1.59299 0.0979514 0
M  V30 51761 C 5098.1 -1.45555 -1.39341 0
M  V30 51762 O 5097.16 -1.30081 -2.16414 0
M  V30 51763 C 5098.47 -2.94131 0.625108 0
M  V30 51764 C 5100.02 -3.07461 0.586245 0
M  V30 51765 C 5100.5 -4.44828 1.09051 0
M  V30 51766 N 5101.99 -4.51169 1.04883 0
M  V30 51767 C 5102.72 -5.55799 1.40979 0
M  V30 51768 N 5102.22 -6.67809 1.84399 0
M  V30 51769 N 5104.01 -5.46201 1.32745 0
M  V30 51770 H 5096.16 -1.58358 1.4155 0
M  V30 51771 H 5098.43 -0.746925 0.583786 0
M  V30 51772 H 5098.13 -3.09583 1.66887 0
M  V30 51773 H 5098.01 -3.77161 0.0543588 0
M  V30 51774 H 5100.39 -2.91671 -0.448543 0
M  V30 51775 H 5100.47 -2.26251 1.19349 0
M  V30 51776 H 5100.12 -4.61364 2.1238 0
M  V30 51777 H 5100.05 -5.24589 0.459724 0
M  V30 51778 H 5102.54 -3.70781 0.730062 0
M  V30 51779 H 5102.85 -7.43676 2.10158 0
M  V30 51780 H 5101.2 -6.68996 1.88332 0
M  V30 51781 H 5104.39 -4.5758 0.986839 0
M  V30 51782 H 5104.56 -6.27628 1.61204 0
M  V30 51783 N 5097.97 -0.176876 -1.56604 0
M  V30 51784 C 5098.91 0.768082 -2.19552 0
M  V30 51785 C 5099.91 1.23339 -1.16121 0
M  V30 51786 O 5101.11 1.1984 -1.34307 0
M  V30 51787 H 5097.49 0.265988 -0.703388 0
M  V30 51788 H 5099.46 0.21327 -2.97637 0
M  V30 51789 C 5098.21 1.98482 -2.85482 0
M  V30 51790 H 5097.53 1.63582 -3.64803 0
M  V30 51791 H 5098.97 2.62477 -3.32989 0
M  V30 51792 C 5097.43 2.812 -1.85548 0
M  V30 51793 O 5097.96 3.78535 -1.3444 0
M  V30 51794 N 5096.17 2.46326 -1.54182 0
M  V30 51795 H 5095.71 1.67234 -1.95935 0
M  V30 51796 H 5095.67 3.01958 -0.875702 0
M  V30 51797 N 5099.44 1.57302 0.0968247 0
M  V30 51798 C 5100.72 1.77013 0.83221 0
M  V30 51799 C 5101.1 0.758094 1.97018 0
M  V30 51800 O 5100.45 -0.213744 2.27498 0
M  V30 51801 C 5100.66 3.2273 1.32839 0
M  V30 51802 C 5102.01 3.85863 1.77187 0
M  V30 51803 O 5103.03 3.26469 1.42467 0
M  V30 51804 O 5101.89 4.90304 2.41381 0
M  V30 51805 H 5098.98 0.725572 0.39683 0
M  V30 51806 H 5101.53 1.69517 0.0788409 0
M  V30 51807 H 5100.3 3.87923 0.512984 0
M  V30 51808 H 5099.93 3.34852 2.14382 0
M  V30 51809 N 5100.92 -0.367603 1.53253 0
M  V30 51810 C 5102.17 -1.11046 1.69337 0
M  V30 51811 C 5102.5 -1.89361 0.44413 0
M  V30 51812 O 5101.75 -1.87096 -0.573888 0
M  V30 51813 C 5102.05 -2.09814 2.89331 0
M  V30 51814 C 5101.72 -1.47995 4.25921 0
M  V30 51815 C 5100.38 -1.30863 4.63064 0
M  V30 51816 C 5102.73 -1.0325 5.10871 0
M  V30 51817 C 5100.06 -0.675663 5.82796 0
M  V30 51818 C 5102.41 -0.413548 6.31247 0
M  V30 51819 C 5101.08 -0.229704 6.67105 0
M  V30 51820 H 5100.35 -0.406346 0.619648 0
M  V30 51821 H 5102.99 -0.392492 1.87435 0
M  V30 51822 H 5101.3 -2.87907 2.65738 0
M  V30 51823 H 5103 -2.67241 2.9897 0
M  V30 51824 H 5099.59 -1.62322 3.96673 0
M  V30 51825 H 5103.77 -1.1528 4.82726 0
M  V30 51826 H 5099.03 -0.521619 6.09171 0
M  V30 51827 H 5103.2 -0.058632 6.96375 0
M  V30 51828 H 5100.83 0.262829 7.59746 0
M  V30 51829 N 5102.4 -1.44578 -0.627288 0
M  V30 51830 C 5103.33 -1.54568 -1.75017 0
M  V30 51831 C 5104.31 -0.398436 -1.65368 0
M  V30 51832 O 5105.5 -0.619055 -1.84069 0
M  V30 51833 C 5102.63 -1.4932 -3.13561 0
M  V30 51834 C 5101.58 -2.6256 -3.38003 0
M  V30 51835 C 5100.91 -2.42365 -4.76617 0
M  V30 51836 C 5102.21 -4.04689 -3.30187 0
M  V30 51837 H 5103.9 -2.48556 -1.66913 0
M  V30 51838 H 5101.45 -1.19626 -0.801594 0
M  V30 51839 H 5103.4 -1.54909 -3.91894 0
M  V30 51840 H 5102.12 -0.518506 -3.22458 0
M  V30 51841 H 5100.78 -2.56367 -2.62052 0
M  V30 51842 H 5100.43 -1.43079 -4.82221 0
M  V30 51843 H 5100.13 -3.18291 -4.93928 0
M  V30 51844 H 5101.66 -2.49777 -5.57175 0
M  V30 51845 H 5103.07 -4.12231 -3.9842 0
M  V30 51846 H 5101.47 -4.80849 -3.59033 0
M  V30 51847 H 5102.54 -4.27988 -2.27934 0
M  V30 51848 N 5103.88 0.86804 -1.3154 0
M  V30 51849 C 5104.79 2.00796 -1.21318 0
M  V30 51850 C 5105.81 1.73517 -0.129492 0
M  V30 51851 O 5106.98 1.98377 -0.347658 0
M  V30 51852 C 5104.05 3.34187 -0.923052 0
M  V30 51853 C 5103.11 3.74776 -2.09383 0
M  V30 51854 C 5102.34 5.01801 -1.81745 0
M  V30 51855 O 5102.56 5.65401 -0.753512 0
M  V30 51856 O 5101.5 5.39203 -2.67476 0
M  V30 51857 H 5105.32 2.12353 -2.17117 0
M  V30 51858 H 5102.91 0.996645 -1.11298 0
M  V30 51859 H 5104.79 4.14171 -0.777179 0
M  V30 51860 H 5103.47 3.237 0.00488921 0
M  V30 51861 H 5102.37 2.95424 -2.29512 0
M  V30 51862 H 5103.71 3.89891 -3.00409 0
M  V30 51863 N 5105.36 1.14532 1.0826 0
M  V30 51864 C 5106.6 0.915823 1.80943 0
M  V30 51865 C 5106.94 -0.556164 1.86066 0
M  V30 51866 O 5106.21 -1.41203 1.33761 0
M  V30 51867 C 5106.49 1.51928 3.26481 0
M  V30 51868 C 5106.35 3.06122 3.29559 0
M  V30 51869 C 5107.67 1.19739 4.23498 0
M  V30 51870 H 5104.79 0.334136 0.656904 0
M  V30 51871 H 5107.43 1.41551 1.26741 0
M  V30 51872 H 5105.58 1.09433 3.72769 0
M  V30 51873 H 5107.25 3.57458 2.91584 0
M  V30 51874 H 5105.49 3.40493 2.68788 0
M  V30 51875 H 5106.16 3.43453 4.32139 0
M  V30 51876 H 5108.64 1.56481 3.85555 0
M  V30 51877 H 5107.52 1.64593 5.23641 0
M  V30 51878 H 5107.78 0.112926 4.41956 0
M  V30 51879 N 5106.84 -1.26448 0.940677 0
M  V30 51880 C 5108.25 -1.46078 0.64291 0
M  V30 51881 C 5108.45 -1.84768 -0.803933 0
M  V30 51882 O 5107.51 -1.96908 -1.58062 0
M  V30 51883 C 5108.82 -2.54353 1.6039 0
M  V30 51884 C 5110.37 -2.68205 1.61355 0
M  V30 51885 C 5110.84 -3.7965 2.56183 0
M  V30 51886 N 5112.33 -3.87042 2.54465 0
M  V30 51887 C 5113.07 -4.72728 3.24524 0
M  V30 51888 N 5112.57 -5.62806 4.04007 0
M  V30 51889 N 5114.36 -4.6657 3.13478 0
M  V30 51890 H 5106.51 -0.996223 1.87588 0
M  V30 51891 H 5108.77 -0.498893 0.806108 0
M  V30 51892 H 5108.48 -2.32749 2.63668 0
M  V30 51893 H 5108.35 -3.52 1.35558 0
M  V30 51894 H 5110.74 -2.89182 0.588015 0
M  V30 51895 H 5110.82 -1.71003 1.90241 0
M  V30 51896 H 5110.46 -3.59425 3.58854 0
M  V30 51897 H 5110.39 -4.76307 2.24587 0
M  V30 51898 H 5112.89 -3.22642 1.9675 0
M  V30 51899 H 5113.2 -6.25079 4.54418 0
M  V30 51900 H 5111.54 -5.62559 4.08108 0
M  V30 51901 H 5114.73 -3.95201 2.50866 0
M  V30 51902 H 5114.91 -5.33128 3.68346 0
M  V30 51903 N 5108.31 -0.707642 -1.4082 0
M  V30 51904 C 5109.26 -0.038746 -2.32568 0
M  V30 51905 C 5110.26 0.7556 -1.51615 0
M  V30 51906 O 5111.46 0.659862 -1.67469 0
M  V30 51907 H 5107.84 0.00627269 -0.751974 0
M  V30 51908 H 5109.81 -0.829401 -2.86642 0
M  V30 51909 C 5108.56 0.874841 -3.36514 0
M  V30 51910 H 5107.88 0.273016 -3.98867 0
M  V30 51911 H 5109.32 1.31097 -4.03224 0
M  V30 51912 C 5107.78 1.99663 -2.7136 0
M  V30 51913 O 5108.31 3.08667 -2.57075 0
M  V30 51914 N 5106.51 1.77791 -2.29867 0
M  V30 51915 H 5106.06 0.891385 -2.41686 0
M  V30 51916 H 5106.02 2.5303 -1.8661 0
M  V30 51917 N 5109.79 1.50942 -0.45325 0
M  V30 51918 C 5111.04 2.01813 0.107638 0
M  V30 51919 C 5111.36 1.33846 1.41811 0
M  V30 51920 O 5110.63 0.478039 1.89978 0
M  V30 51921 H 5109.21 0.745775 0.0427686 0
M  V30 51922 H 5111.87 1.85448 -0.599596 0
M  V30 51923 H 5110.97 3.10912 0.272071 0
M  V30 51924 N 5111.27 0.185179 1.56508 0
M  V30 51925 C 5112.49 -0.465207 2.02115 0
M  V30 51926 C 5112.92 -1.55079 1.06452 0
M  V30 51927 O 5112.28 -1.81241 0.0463489 0
M  V30 51928 C 5112.33 -1.00772 3.46233 0
M  V30 51929 O 5111.43 -2.12111 3.53671 0
M  V30 51930 H 5110.77 -0.109868 0.654847 0
M  V30 51931 H 5113.3 0.293144 2.02489 0
M  V30 51932 H 5113.31 -1.32684 3.85823 0
M  V30 51933 H 5111.99 -0.212967 4.15354 0
M  V30 51934 H 5110.56 -1.81139 3.2595 0
M  V30 51935 N 5112.75 -1.57351 -0.0884812 0
M  V30 51936 C 5113.7 -2.03546 -1.12569 0
M  V30 51937 C 5114.69 -0.937718 -1.41079 0
M  V30 51938 O 5115.9 -1.12288 -1.40682 0
M  V30 51939 H 5112.27 -0.648765 -0.380273 0
M  V30 51940 H 5114.24 -2.89835 -0.709804 0
M  V30 51941 C 5112.99 -2.48119 -2.43582 0
M  V30 51942 H 5112.31 -3.32172 -2.2249 0
M  V30 51943 H 5113.75 -2.84211 -3.14643 0
M  V30 51944 C 5112.21 -1.35719 -3.08354 0
M  V30 51945 O 5112.74 -0.689991 -3.9573 0
M  V30 51946 N 5110.95 -1.1065 -2.6871 0
M  V30 51947 H 5110.5 -1.65087 -1.97748 0
M  V30 51948 H 5110.45 -0.356465 -3.12373 0
M  V30 51949 N 5114.23 0.359471 -1.53446 0
M  V30 51950 C 5115.45 1.12637 -1.74148 0
M  V30 51951 C 5115.88 1.8208 -0.472071 0
M  V30 51952 O 5115.23 1.71964 0.5743 0
M  V30 51953 C 5115.28 2.12771 -2.91137 0
M  V30 51954 O 5114.39 3.19975 -2.60173 0
M  V30 51955 H 5113.73 0.326532 -0.578163 0
M  V30 51956 H 5116.26 0.414728 -2.00353 0
M  V30 51957 H 5116.27 2.56267 -3.17476 0
M  V30 51958 H 5114.94 1.6162 -3.83212 0
M  V30 51959 H 5113.52 2.81408 -2.44671 0
M  V30 51960 N 5115.7 1.44909 0.619611 0
M  V30 51961 C 5116.65 1.52977 1.75217 0
M  V30 51962 C 5117.65 0.400589 1.64595 0
M  V30 51963 O 5118.85 0.576012 1.70535 0
M  V30 51964 H 5115.23 0.480261 0.578665 0
M  V30 51965 H 5117.2 2.48274 1.65537 0
M  V30 51966 C 5115.95 1.50215 3.13577 0
M  V30 51967 H 5115.27 2.36423 3.22404 0
M  V30 51968 H 5116.71 1.59919 3.92685 0
M  V30 51969 C 5115.17 0.224668 3.3615 0
M  V30 51970 O 5115.7 -0.700435 3.95546 0
M  V30 51971 N 5113.91 0.124155 2.90335 0
M  V30 51972 H 5113.45 0.877825 2.42182 0
M  V30 51973 H 5113.41 -0.729806 3.05812 0
M  V30 51974 N 5117.18 -0.861052 1.31999 0
M  V30 51975 C 5118.41 -1.65259 1.25316 0
M  V30 51976 C 5118.83 -1.87266 -0.176942 0
M  V30 51977 O 5118.19 -1.42084 -1.12614 0
M  V30 51978 C 5118.24 -2.99277 2.01161 0
M  V30 51979 O 5117.34 -3.89503 1.35504 0
M  V30 51980 H 5116.68 -0.504074 0.432209 0
M  V30 51981 H 5119.21 -1.07291 1.74212 0
M  V30 51982 H 5119.22 -3.49147 2.11093 0
M  V30 51983 H 5117.9 -2.8258 3.05158 0
M  V30 51984 H 5116.48 -3.47962 1.34079 0
M  V30 51985 N 5118.66 -1.15105 -1.07651 0
M  V30 51986 C 5120.07 -0.933905 -1.61664 0
M  V30 51987 C 5120.42 0.525503 -1.89031 0
M  V30 51988 O 5119.55 1.39599 -1.65351 0
M  V30 51989 C 5120.14 -1.68886 -2.93705 0
M  V30 51990 C 5118.7 -1.51709 -3.44473 0
M  V30 51991 C 5117.85 -1.70641 -2.1858 0
M  V30 51992 H 5120.8 -1.30174 -0.907771 0
M  V30 51993 H 5120.82 -1.15658 -3.62496 0
M  V30 51994 H 5120.33 -2.751 -2.73755 0
M  V30 51995 H 5118.43 -0.478765 -3.69511 0
M  V30 51996 H 5118.55 -2.29209 -4.20714 0
M  V30 51997 H 5116.91 -1.13267 -2.28128 0
M  V30 51998 H 5117.69 -2.78213 -2.01127 0
M  V30 51999 N 5120.14 1.25947 -0.94737 0
M  V30 52000 C 5121.07 2.2852 -0.479685 0
M  V30 52001 C 5122.05 1.63471 0.470235 0
M  V30 52002 O 5123.23 1.90628 0.370757 0
M  V30 52003 C 5120.36 3.46398 0.250167 0
M  V30 52004 C 5119.32 4.23576 -0.613792 0
M  V30 52005 C 5118.64 5.34132 0.24638 0
M  V30 52006 C 5119.94 4.86972 -1.88826 0
M  V30 52007 H 5121.64 2.67891 -1.33697 0
M  V30 52008 H 5119.18 1.28781 -0.64432 0
M  V30 52009 H 5121.14 4.17271 0.588429 0
M  V30 52010 H 5119.86 3.05997 1.14164 0
M  V30 52011 H 5118.52 3.54475 -0.935035 0
M  V30 52012 H 5118.17 4.89972 1.13739 0
M  V30 52013 H 5117.87 5.86682 -0.32833 0
M  V30 52014 H 5119.39 6.07841 0.579772 0
M  V30 52015 H 5120.81 5.50028 -1.61686 0
M  V30 52016 H 5119.2 5.49667 -2.40804 0
M  V30 52017 H 5120.27 4.09566 -2.59584 0
M  V30 52018 N 5121.62 0.7151 1.40442 0
M  V30 52019 C 5122.55 0.0769519 2.33373 0
M  V30 52020 C 5123.53 -0.746055 1.52866 0
M  V30 52021 O 5124.71 -0.695078 1.81335 0
M  V30 52022 C 5121.84 -0.845896 3.36841 0
M  V30 52023 C 5120.8 -0.128544 4.27807 0
M  V30 52024 C 5120.12 -1.16707 5.21808 0
M  V30 52025 C 5121.42 1.01697 5.12304 0
M  V30 52026 H 5123.12 0.853162 2.86987 0
M  V30 52027 H 5120.66 0.411719 1.37989 0
M  V30 52028 H 5122.62 -1.30171 4.00791 0
M  V30 52029 H 5121.34 -1.654 2.81621 0
M  V30 52030 H 5120 0.307443 3.65309 0
M  V30 52031 H 5119.65 -1.96821 4.62893 0
M  V30 52032 H 5119.35 -0.691983 5.83511 0
M  V30 52033 H 5120.87 -1.623 5.88635 0
M  V30 52034 H 5122.28 0.640537 5.6971 0
M  V30 52035 H 5120.68 1.4204 5.83048 0
M  V30 52036 H 5121.75 1.84785 4.48311 0
M  V30 52037 N 5123.09 -1.50699 0.461248 0
M  V30 52038 C 5124.34 -2.01867 -0.0969341 0
M  V30 52039 C 5124.66 -1.34596 -1.41099 0
M  V30 52040 O 5123.93 -0.488108 -1.89722 0
M  V30 52041 H 5122.51 -0.745991 -0.0388129 0
M  V30 52042 H 5125.18 -1.85127 0.609423 0
M  V30 52043 H 5124.27 -3.11052 -0.255579 0
M  V30 52044 N 5124.57 -0.193476 -1.56408 0
M  V30 52045 C 5125.52 0.728047 -2.19016 0
M  V30 52046 C 5126.49 1.21094 -1.1369 0
M  V30 52047 O 5127.67 1.27512 -1.41934 0
M  V30 52048 C 5124.81 1.94267 -2.85227 0
M  V30 52049 C 5123.93 1.50129 -4.05074 0
M  V30 52050 C 5123.06 2.67129 -4.59147 0
M  V30 52051 C 5122.1 2.19589 -5.71355 0
M  V30 52052 N 5121.24 3.29761 -6.19841 0
M  V30 52053 H 5126.08 0.187394 -2.9741 0
M  V30 52054 H 5123.62 0.0807548 -1.46878 0
M  V30 52055 H 5125.57 2.65539 -3.21784 0
M  V30 52056 H 5124.2 2.45666 -2.09399 0
M  V30 52057 H 5123.26 0.684492 -3.74191 0
M  V30 52058 H 5124.57 1.11249 -4.86236 0
M  V30 52059 H 5123.72 3.46526 -4.98 0
M  V30 52060 H 5122.46 3.09281 -3.77089 0
M  V30 52061 H 5121.47 1.38645 -5.32032 0
M  V30 52062 H 5122.69 1.78469 -6.55229 0
M  V30 52063 H 5120.64 3.71447 -5.40706 0
M  V30 52064 H 5120.55 2.95045 -6.96049 0
M  V30 52065 H 5121.82 4.09377 -6.63348 0
M  V30 52066 N 5126.05 1.57396 0.0801353 0
M  V30 52067 C 5127.28 1.90781 0.792857 0
M  V30 52068 C 5127.69 0.786874 1.72061 0
M  V30 52069 O 5127.03 -0.249195 1.82002 0
M  V30 52070 C 5127.09 3.19558 1.64691 0
M  V30 52071 C 5126.76 4.48262 0.88941 0
M  V30 52072 C 5127.75 5.19466 0.21242 0
M  V30 52073 C 5125.44 4.949 0.859055 0
M  V30 52074 C 5127.43 6.35554 -0.484789 0
M  V30 52075 C 5125.12 6.10896 0.158069 0
M  V30 52076 C 5126.12 6.81073 -0.512661 0
M  V30 52077 O 5125.81 7.94857 -1.20237 0
M  V30 52078 H 5125.54 0.635278 0.231081 0
M  V30 52079 H 5128.09 2.0532 0.0572359 0
M  V30 52080 H 5126.32 3.01205 2.42513 0
M  V30 52081 H 5128.01 3.38657 2.23755 0
M  V30 52082 H 5128.78 4.84467 0.227232 0
M  V30 52083 H 5124.66 4.40155 1.37058 0
M  V30 52084 H 5128.2 6.90266 -1.00888 0
M  V30 52085 H 5124.1 6.45346 0.141154 0
M  V30 52086 H 5124.87 8.10928 -1.11079 0
M  V30 52087 N 5127.53 -0.351328 1.53634 0
M  V30 52088 C 5128.77 -1.10096 1.72215 0
M  V30 52089 C 5129.13 -1.86127 0.471263 0
M  V30 52090 O 5130.33 -2.63443 0.53398 0
M  V30 52091 C 5128.6 -2.02338 2.94609 0
M  V30 52092 S 5130.16 -2.84629 3.33964 0
M  V30 52093 H 5126.98 -0.372123 0.605843 0
M  V30 52094 H 5129.58 -0.380372 1.91764 0
M  V30 52095 H 5128.29 -1.45269 3.83829 0
M  V30 52096 H 5127.82 -2.78847 2.77503 0
M  V30 52097 H 5129.83 -4.04714 2.8709 0
M  V30 52098 N 5129.01 -1.45235 -0.611918 0
M  V30 52099 C 5130.25 -1.48732 -1.36833 0
M  V30 52100 C 5130.58 -0.128684 -1.94575 0
M  V30 52101 O 5129.85 0.841428 -1.76909 0
M  V30 52102 H 5128.43 -0.547713 -0.507957 0
M  V30 52103 H 5131.09 -1.81158 -0.718862 0
M  V30 52104 H 5130.18 -2.22368 -2.18995 0
M  V30 52105 N 5130.49 0.85404 -1.32453 0
M  V30 52106 C 5131.71 1.6407 -1.26051 0
M  V30 52107 C 5132.13 1.8802 0.17139 0
M  V30 52108 O 5131.49 1.44964 1.10868 0
M  V30 52109 C 5131.54 2.99963 -2.01754 0
M  V30 52110 O 5131.26 2.77072 -3.39356 0
M  V30 52111 C 5132.76 3.94407 -2.02382 0
M  V30 52112 H 5129.98 0.511 -0.43488 0
M  V30 52113 H 5132.52 1.06488 -1.74587 0
M  V30 52114 H 5130.68 3.54188 -1.56939 0
M  V30 52115 H 5131.09 3.63501 -3.78111 0
M  V30 52116 H 5132.57 4.87023 -2.59832 0
M  V30 52117 H 5133.04 4.27423 -1.01024 0
M  V30 52118 H 5133.65 3.46119 -2.47148 0
M  V30 52119 N 5131.96 1.15674 1.07039 0
M  V30 52120 C 5132.89 0.879424 2.16306 0
M  V30 52121 C 5133.87 -0.171251 1.69236 0
M  V30 52122 O 5135.06 -0.0249493 1.94184 0
M  V30 52123 C 5132.19 0.371429 3.45308 0
M  V30 52124 C 5131.14 1.35915 4.05846 0
M  V30 52125 C 5130.47 0.709864 5.29967 0
M  V30 52126 C 5131.77 2.72622 4.45505 0
M  V30 52127 H 5133.46 1.79317 2.39762 0
M  V30 52128 H 5131.01 0.863598 1.1523 0
M  V30 52129 H 5132.96 0.164946 4.21077 0
M  V30 52130 H 5131.69 -0.577793 3.21448 0
M  V30 52131 H 5130.35 1.55204 3.32125 0
M  V30 52132 H 5129.99 -0.245605 5.024 0
M  V30 52133 H 5129.69 1.36906 5.71429 0
M  V30 52134 H 5131.22 0.513229 6.08439 0
M  V30 52135 H 5132.63 2.57159 5.12389 0
M  V30 52136 H 5131.03 3.34945 4.97928 0
M  V30 52137 H 5132.1 3.28446 3.56723 0
M  V30 52138 N 5133.44 -1.25443 0.954036 0
M  V30 52139 C 5134.37 -2.28262 0.491797 0
M  V30 52140 C 5135.35 -1.63718 -0.46156 0
M  V30 52141 O 5136.54 -1.90822 -0.360643 0
M  V30 52142 C 5133.67 -3.46526 -0.231793 0
M  V30 52143 C 5132.62 -4.23244 0.636247 0
M  V30 52144 C 5131.95 -5.34255 -0.21805 0
M  V30 52145 C 5133.25 -4.85964 1.91406 0
M  V30 52146 H 5134.94 -2.67178 1.35116 0
M  V30 52147 H 5132.49 -1.28437 0.65114 0
M  V30 52148 H 5134.44 -4.17578 -0.566292 0
M  V30 52149 H 5133.16 -3.06598 -1.1254 0
M  V30 52150 H 5131.82 -3.53974 0.95382 0
M  V30 52151 H 5131.47 -4.90568 -1.11139 0
M  V30 52152 H 5131.17 -5.865 0.359438 0
M  V30 52153 H 5132.7 -6.0814 -0.547529 0
M  V30 52154 H 5134.11 -5.49163 1.646 0
M  V30 52155 H 5132.51 -5.48382 2.43715 0
M  V30 52156 H 5133.58 -4.08183 2.61753 0
M  V30 52157 N 5134.92 -0.722538 -1.40061 0
M  V30 52158 C 5136.33 -0.336572 -1.83641 0
M  V30 52159 C 5136.68 1.12996 -1.60394 0
M  V30 52160 O 5135.81 1.87032 -1.08848 0
M  V30 52161 C 5136.4 -0.604102 -3.33371 0
M  V30 52162 C 5134.96 -0.271769 -3.75418 0
M  V30 52163 C 5134.11 -0.872991 -2.632 0
M  V30 52164 H 5137.06 -0.921153 -1.2923 0
M  V30 52165 H 5137.08 0.128337 -3.80284 0
M  V30 52166 H 5136.59 -1.67154 -3.50259 0
M  V30 52167 H 5134.69 0.790327 -3.64122 0
M  V30 52168 H 5134.81 -0.745623 -4.73262 0
M  V30 52169 H 5133.17 -0.30052 -2.52921 0
M  V30 52170 H 5133.95 -1.94483 -2.82898 0
M  V30 52171 N 5136.4 1.50453 -0.469234 0
M  V30 52172 C 5137.35 2.30102 0.339952 0
M  V30 52173 C 5138.34 1.3731 0.992087 0
M  V30 52174 O 5139.55 1.5451 0.923404 0
M  V30 52175 H 5135.92 0.740945 0.128469 0
M  V30 52176 H 5137.89 2.96314 -0.352248 0
M  V30 52177 C 5136.64 3.17809 1.41041 0
M  V30 52178 H 5135.96 3.89118 0.917987 0
M  V30 52179 H 5137.4 3.76539 1.94921 0
M  V30 52180 C 5135.86 2.35281 2.41132 0
M  V30 52181 O 5136.39 2.0346 3.46362 0
M  V30 52182 N 5134.6 1.97897 2.12803 0
M  V30 52183 H 5134.15 2.23974 1.27253 0
M  V30 52184 H 5134.1 1.42981 2.80007 0
M  V30 52185 N 5137.88 0.201768 1.56303 0
M  V30 52186 C 5139.29 -0.309646 1.84114 0
M  V30 52187 C 5139.64 -1.60908 1.12264 0
M  V30 52188 O 5138.76 -2.12936 0.385661 0
M  V30 52189 C 5139.36 -0.568589 3.33995 0
M  V30 52190 C 5137.92 -1.02436 3.62193 0
M  V30 52191 C 5137.06 -0.0765867 2.77194 0
M  V30 52192 H 5140.01 0.42541 1.52892 0
M  V30 52193 H 5140.04 -1.41708 3.53127 0
M  V30 52194 H 5139.55 0.377326 3.86261 0
M  V30 52195 H 5137.65 -1.98432 3.15366 0
M  V30 52196 H 5137.76 -0.912454 4.70331 0
M  V30 52197 H 5136.13 -0.579722 2.48015 0
M  V30 52198 H 5136.91 0.863891 3.32253 0
M  V30 52199 N 5139.35 -1.57436 -0.071787 0
M  V30 52200 C 5140.6 -1.87528 -0.772083 0
M  V30 52201 C 5140.93 -0.794052 -1.77224 0
M  V30 52202 O 5140.21 0.195665 -1.93513 0
M  V30 52203 C 5140.49 -3.28278 -1.48006 0
M  V30 52204 C 5140.34 -4.47053 -0.496313 0
M  V30 52205 C 5141.66 -3.67265 -2.42497 0
M  V30 52206 H 5138.78 -0.682059 -0.279221 0
M  V30 52207 H 5141.42 -1.89967 -0.0352732 0
M  V30 52208 H 5139.57 -3.26329 -2.10812 0
M  V30 52209 H 5141.25 -4.61126 0.126538 0
M  V30 52210 H 5139.49 -4.33391 0.188358 0
M  V30 52211 H 5140.16 -5.42318 -1.0293 0
M  V30 52212 H 5142.64 -3.70307 -1.89768 0
M  V30 52213 H 5141.51 -4.66636 -2.89037 0
M  V30 52214 H 5141.77 -2.97197 -3.27301 0
M  V30 52215 N 5140.83 0.343176 -1.53818 0
M  V30 52216 C 5142.08 1.08338 -1.71082 0
M  V30 52217 C 5142.41 1.88631 -0.4742 0
M  V30 52218 O 5141.66 1.87986 0.544049 0
M  V30 52219 C 5141.96 2.05185 -2.92633 0
M  V30 52220 C 5141.63 1.412 -4.28221 0
M  V30 52221 C 5140.29 1.23479 -4.65087 0
M  V30 52222 C 5142.64 0.951093 -5.12449 0
M  V30 52223 C 5139.97 0.58286 -5.83798 0
M  V30 52224 C 5142.32 0.31307 -6.31825 0
M  V30 52225 C 5140.98 0.123544 -6.67386 0
M  V30 52226 H 5140.25 0.396436 -0.626035 0
M  V30 52227 H 5142.9 0.362623 -1.88035 0
M  V30 52228 H 5141.21 2.83643 -2.70285 0
M  V30 52229 H 5142.9 2.62451 -3.03184 0
M  V30 52230 H 5139.49 1.55991 -3.99205 0
M  V30 52231 H 5143.68 1.07585 -4.84499 0
M  V30 52232 H 5138.93 0.42464 -6.09924 0
M  V30 52233 H 5143.11 -0.0521627 -6.9638 0
M  V30 52234 H 5140.73 -0.383665 -7.59231 0
M  V30 52235 N 5142.31 1.45558 0.604207 0
M  V30 52236 C 5143.53 1.53514 1.39457 0
M  V30 52237 C 5143.96 0.169704 1.87333 0
M  V30 52238 O 5143.32 -0.846289 1.60336 0
M  V30 52239 C 5143.37 2.52663 2.57281 0
M  V30 52240 O 5142.47 2.04678 3.58023 0
M  V30 52241 H 5141.81 0.51737 0.416202 0
M  V30 52242 H 5144.34 1.90942 0.735005 0
M  V30 52243 H 5144.35 2.71579 3.04482 0
M  V30 52244 H 5143.03 3.5183 2.21784 0
M  V30 52245 H 5141.6 1.95654 3.17449 0
M  V30 52246 N 5143.79 -0.847003 1.32905 0
M  V30 52247 C 5144.72 -1.96304 1.18311 0
M  V30 52248 C 5145.73 -1.62385 0.116139 0
M  V30 52249 O 5146.92 -1.74711 0.365813 0
M  V30 52250 C 5144.02 -3.29554 0.790421 0
M  V30 52251 C 5143.19 -3.91661 1.94731 0
M  V30 52252 C 5142.25 -5.03255 1.53692 0
M  V30 52253 O 5141.28 -5.22839 2.25007 0
M  V30 52254 N 5142.48 -5.78851 0.437279 0
M  V30 52255 H 5145.25 -2.09361 2.14448 0
M  V30 52256 H 5142.81 -1.02229 1.25542 0
M  V30 52257 H 5144.8 -4.01623 0.498131 0
M  V30 52258 H 5143.37 -3.12498 -0.0800188 0
M  V30 52259 H 5142.59 -3.12283 2.40568 0
M  V30 52260 H 5143.88 -4.2989 2.72161 0
M  V30 52261 H 5143.28 -5.65485 -0.156117 0
M  V30 52262 H 5141.83 -6.51479 0.204628 0
M  V30 52263 N 5145.27 -1.1624 -1.06424 0
M  V30 52264 C 5146.21 -0.863745 -2.15968 0
M  V30 52265 C 5147.21 0.166664 -1.68578 0
M  V30 52266 O 5148.41 0.0207793 -1.79988 0
M  V30 52267 H 5144.79 -0.261709 -0.704991 0
M  V30 52268 H 5146.76 -1.79506 -2.3837 0
M  V30 52269 C 5145.51 -0.379818 -3.45619 0
M  V30 52270 H 5144.83 -1.16412 -3.82476 0
M  V30 52271 H 5146.27 -0.209607 -4.23482 0
M  V30 52272 C 5144.73 0.900385 -3.24645 0
M  V30 52273 O 5145.26 1.96992 -3.50081 0
M  V30 52274 N 5143.47 0.843623 -2.78085 0
M  V30 52275 H 5143.01 -0.0269334 -2.57586 0
M  V30 52276 H 5142.97 1.70069 -2.64431 0
M  V30 52277 N 5146.74 1.24935 -0.960675 0
M  V30 52278 C 5147.69 2.27658 -0.47694 0
M  V30 52279 C 5148.69 1.6315 0.455904 0
M  V30 52280 O 5149.89 1.76912 0.331967 0
M  V30 52281 H 5146.27 0.739646 -0.135749 0
M  V30 52282 H 5148.24 2.65839 -1.35543 0
M  V30 52283 C 5146.99 3.46977 0.224069 0
M  V30 52284 H 5146.31 3.96852 -0.484611 0
M  V30 52285 H 5147.75 4.20719 0.526467 0
M  V30 52286 C 5146.21 3.04164 1.44866 0
M  V30 52287 O 5146.74 3.10706 2.54607 0
M  V30 52288 N 5144.95 2.59288 1.31217 0
M  V30 52289 H 5144.49 2.54165 0.419271 0
M  V30 52290 H 5144.45 2.31008 2.13267 0
M  V30 52291 N 5148.22 0.729956 1.39676 0
M  V30 52292 C 5149.13 0.0881147 2.34434 0
M  V30 52293 C 5150.15 -0.727619 1.58056 0
M  V30 52294 O 5151.32 -0.657254 1.90374 0
M  V30 52295 C 5148.39 -0.812093 3.37055 0
M  V30 52296 C 5147.45 0.015319 4.29297 0
M  V30 52297 C 5146.68 -0.842017 5.27016 0
M  V30 52298 O 5146.91 -2.08089 5.31089 0
M  V30 52299 O 5145.84 -0.273359 6.01279 0
M  V30 52300 H 5149.67 0.870091 2.90969 0
M  V30 52301 H 5147.25 0.490572 1.41116 0
M  V30 52302 H 5149.13 -1.32731 3.99951 0
M  V30 52303 H 5147.81 -1.57297 2.82912 0
M  V30 52304 H 5146.72 0.575941 3.6964 0
M  V30 52305 H 5148.05 0.7383 4.86631 0
M  V30 52306 N 5149.7 -1.50202 0.477206 0
M  V30 52307 C 5150.63 -2.31518 -0.303565 0
M  V30 52308 C 5151.61 -1.387 -0.984704 0
M  V30 52309 O 5152.8 -1.67618 -0.980699 0
M  V30 52310 C 5149.93 -3.18602 -1.38238 0
M  V30 52311 C 5148.88 -4.20023 -0.822498 0
M  V30 52312 C 5148.21 -4.95885 -2.00006 0
M  V30 52313 C 5149.51 -5.22022 0.170369 0
M  V30 52314 H 5151.2 -2.97041 0.375132 0
M  V30 52315 H 5148.75 -1.42847 0.181853 0
M  V30 52316 H 5150.7 -3.74289 -1.93612 0
M  V30 52317 H 5149.42 -2.50977 -2.08993 0
M  V30 52318 H 5148.08 -3.65446 -0.290684 0
M  V30 52319 H 5147.73 -4.24727 -2.69474 0
M  V30 52320 H 5147.43 -5.64492 -1.63163 0
M  V30 52321 H 5148.95 -5.54408 -2.55859 0
M  V30 52322 H 5150.37 -5.72544 -0.294405 0
M  V30 52323 H 5148.77 -5.98385 0.453391 0
M  V30 52324 H 5149.84 -4.72392 1.09425 0
M  V30 52325 N 5151.18 -0.210054 -1.56194 0
M  V30 52326 C 5152.41 0.429302 -2.0209 0
M  V30 52327 C 5152.82 1.547 -1.08925 0
M  V30 52328 O 5152.16 1.83484 -0.089018 0
M  V30 52329 C 5152.22 1.03254 -3.44353 0
M  V30 52330 C 5151.89 0.0517266 -4.56971 0
M  V30 52331 C 5152.88 -0.74443 -5.14543 0
M  V30 52332 C 5150.57 -0.0636951 -5.0226 0
M  V30 52333 C 5152.56 -1.64283 -6.15865 0
M  V30 52334 C 5150.25 -0.965635 -6.03422 0
M  V30 52335 C 5151.25 -1.75375 -6.601 0
M  V30 52336 O 5150.93 -2.64055 -7.59296 0
M  V30 52337 H 5150.67 0.11058 -0.666894 0
M  V30 52338 H 5153.22 -0.320508 -2.02884 0
M  V30 52339 H 5151.45 1.83122 -3.40592 0
M  V30 52340 H 5153.14 1.5781 -3.73966 0
M  V30 52341 H 5153.91 -0.665645 -4.8041 0
M  V30 52342 H 5149.78 0.539601 -4.57831 0
M  V30 52343 H 5153.33 -2.25842 -6.60031 0
M  V30 52344 H 5149.23 -1.04548 -6.36977 0
M  V30 52345 H 5149.99 -2.58002 -7.76774 0
M  V30 52346 N 5152.66 1.57472 0.0634368 0
M  V30 52347 C 5153.59 2.073 1.07465 0
M  V30 52348 C 5154.57 0.968211 1.39856 0
M  V30 52349 O 5155.75 1.24144 1.49338 0
M  V30 52350 C 5152.88 2.5239 2.38572 0
M  V30 52351 C 5151.84 3.66821 2.20514 0
M  V30 52352 C 5151.16 3.97994 3.57078 0
M  V30 52353 C 5152.46 4.96558 1.61948 0
M  V30 52354 H 5154.16 2.92035 0.659989 0
M  V30 52355 H 5151.7 1.40489 0.316025 0
M  V30 52356 H 5153.66 2.85863 3.09614 0
M  V30 52357 H 5152.38 1.64694 2.82035 0
M  V30 52358 H 5151.04 3.33644 1.51912 0
M  V30 52359 H 5150.69 3.07417 3.98125 0
M  V30 52360 H 5150.39 4.75052 3.45831 0
M  V30 52361 H 5151.91 4.33971 4.29536 0
M  V30 52362 H 5153.32 5.28209 2.22864 0
M  V30 52363 H 5151.72 5.77995 1.61374 0
M  V30 52364 H 5152.79 4.81398 0.581749 0
M  V30 52365 N 5154.13 -0.335013 1.53998 0
M  V30 52366 C 5155.55 -0.678653 1.44452 0
M  V30 52367 C 5155.75 -1.92104 0.608146 0
M  V30 52368 O 5154.81 -2.52292 0.102462 0
M  V30 52369 C 5156.12 -0.863334 2.8804 0
M  V30 52370 C 5157.67 -0.961408 2.97869 0
M  V30 52371 C 5158.14 -1.17834 4.42582 0
M  V30 52372 N 5159.63 -1.24535 4.46145 0
M  V30 52373 C 5160.37 -1.43087 5.5526 0
M  V30 52374 N 5159.86 -1.58756 6.74365 0
M  V30 52375 N 5161.66 -1.45703 5.42888 0
M  V30 52376 H 5153.81 0.481729 2.06865 0
M  V30 52377 H 5156.07 0.153648 0.935466 0
M  V30 52378 H 5155.78 -0.0218275 3.51693 0
M  V30 52379 H 5155.65 -1.76256 3.33487 0
M  V30 52380 H 5158.04 -1.79343 2.34351 0
M  V30 52381 H 5158.12 -0.0388963 2.5577 0
M  V30 52382 H 5157.76 -0.351218 5.06684 0
M  V30 52383 H 5157.69 -2.11455 4.8228 0
M  V30 52384 H 5160.18 -1.13916 3.60322 0
M  V30 52385 H 5160.5 -1.72572 7.53285 0
M  V30 52386 H 5158.84 -1.55876 6.77294 0
M  V30 52387 H 5162.03 -1.33049 4.48793 0
M  V30 52388 H 5162.21 -1.59819 6.27982 0
M  V30 52389 N 5155.61 -1.45876 -0.596479 0
M  V30 52390 C 5156.86 -1.50472 -1.35516 0
M  V30 52391 C 5157.19 -0.15087 -1.93914 0
M  V30 52392 O 5156.44 0.851851 -1.76187 0
M  V30 52393 C 5156.74 -2.54043 -2.5139 0
M  V30 52394 C 5156.41 -3.98447 -2.1107 0
M  V30 52395 C 5155.07 -4.37765 -1.99789 0
M  V30 52396 C 5157.42 -4.89216 -1.79771 0
M  V30 52397 C 5154.75 -5.65733 -1.55445 0
M  V30 52398 C 5157.1 -6.17607 -1.3691 0
M  V30 52399 C 5155.77 -6.55844 -1.24195 0
M  V30 52400 H 5155.04 -0.550615 -0.495887 0
M  V30 52401 H 5157.68 -1.79282 -0.673082 0
M  V30 52402 H 5155.99 -2.18843 -3.24985 0
M  V30 52403 H 5157.68 -2.54833 -3.09615 0
M  V30 52404 H 5154.27 -3.6736 -2.20781 0
M  V30 52405 H 5158.46 -4.59568 -1.87379 0
M  V30 52406 H 5153.71 -5.94144 -1.44232 0
M  V30 52407 H 5157.89 -6.87377 -1.1174 0
M  V30 52408 H 5155.52 -7.549 -0.896088 0
M  V30 52409 N 5157.09 0.839943 -1.33352 0
M  V30 52410 C 5158.04 1.94968 -1.23516 0
M  V30 52411 C 5159.01 1.65708 -0.114025 0
M  V30 52412 O 5160.19 1.88551 -0.292111 0
M  V30 52413 C 5157.33 3.30916 -0.979221 0
M  V30 52414 C 5156.45 3.72579 -2.18652 0
M  V30 52415 C 5155.58 4.97391 -1.86483 0
M  V30 52416 C 5154.62 5.31586 -3.03451 0
M  V30 52417 N 5153.76 6.47575 -2.71277 0
M  V30 52418 H 5158.6 2.02712 -2.1843 0
M  V30 52419 H 5156.13 0.991979 -1.08619 0
M  V30 52420 H 5158.09 4.09236 -0.81127 0
M  V30 52421 H 5156.72 3.22731 -0.0668234 0
M  V30 52422 H 5155.77 2.8979 -2.46426 0
M  V30 52423 H 5157.09 3.93833 -3.06099 0
M  V30 52424 H 5156.24 5.83456 -1.66325 0
M  V30 52425 H 5154.98 4.78104 -0.962708 0
M  V30 52426 H 5153.98 4.44026 -3.24224 0
M  V30 52427 H 5155.21 5.52822 -3.94417 0
M  V30 52428 H 5153.15 6.29777 -1.83622 0
M  V30 52429 H 5153.07 6.68919 -3.52255 0
M  V30 52430 H 5154.34 7.36755 -2.54584 0
M  V30 52431 N 5158.57 1.16803 1.05806 0
M  V30 52432 C 5159.79 0.977467 1.82922 0
M  V30 52433 C 5160.22 -0.46945 1.82148 0
M  V30 52434 O 5159.58 -1.33572 1.2259 0
M  V30 52435 C 5159.62 1.51555 3.27206 0
M  V30 52436 O 5158.73 0.725164 4.05974 0
M  V30 52437 H 5158.07 0.347494 0.565813 0
M  V30 52438 H 5160.6 1.55156 1.33371 0
M  V30 52439 H 5160.61 1.53515 3.78017 0
M  V30 52440 H 5159.28 2.56883 3.27084 0
M  V30 52441 H 5157.86 0.776468 3.64726 0
M  V30 52442 N 5160.05 -1.24424 0.967287 0
M  V30 52443 C 5161.32 -1.8783 0.545842 0
M  V30 52444 C 5161.7 -1.87129 -0.977033 0
M  V30 52445 O 5161.05 -1.34363 -1.84821 0
M  V30 52446 C 5161.26 -3.29963 1.1369 0
M  V30 52447 C 5162.61 -4.06649 1.22154 0
M  V30 52448 O 5163.63 -3.39133 1.08938 0
M  V30 52449 O 5162.49 -5.27449 1.43036 0
M  V30 52450 H 5159.59 -0.806738 0.181941 0
M  V30 52451 H 5162.13 -1.32399 1.06153 0
M  V30 52452 H 5160.91 -3.24969 2.17969 0
M  V30 52453 H 5160.53 -3.92967 0.605232 0
M  V30 52454 N 5161.53 -0.737353 -1.39287 0
M  V30 52455 C 5162.75 -0.295309 -2.05287 0
M  V30 52456 C 5163.18 1.06229 -1.55232 0
M  V30 52457 O 5162.53 1.67362 -0.697102 0
M  V30 52458 C 5162.58 -0.309273 -3.59271 0
M  V30 52459 O 5161.69 0.702294 -4.06376 0
M  V30 52460 H 5161.03 -0.133785 -0.650383 0
M  V30 52461 H 5163.56 -1.00393 -1.78276 0
M  V30 52462 H 5163.57 -0.154479 -4.07707 0
M  V30 52463 H 5162.24 -1.29988 -3.95065 0
M  V30 52464 H 5160.82 0.513444 -3.69348 0
M  V30 52465 N 5163 1.49946 -0.485165 0
M  V30 52466 C 5164.25 2.02696 0.0650309 0
M  V30 52467 C 5164.58 1.36539 1.38097 0
M  V30 52468 O 5163.86 0.495743 1.88076 0
M  V30 52469 C 5164.14 3.59338 0.234159 0
M  V30 52470 C 5163.99 4.36046 -1.10379 0
M  V30 52471 C 5165.31 4.29 0.9822 0
M  V30 52472 H 5162.43 0.736667 0.0221598 0
M  V30 52473 H 5165.07 1.79128 -0.633496 0
M  V30 52474 H 5163.22 3.79549 0.829128 0
M  V30 52475 H 5164.9 4.27371 -1.73642 0
M  V30 52476 H 5163.14 3.9923 -1.697 0
M  V30 52477 H 5163.81 5.43956 -0.938935 0
M  V30 52478 H 5166.29 4.13348 0.477759 0
M  V30 52479 H 5165.16 5.38383 1.06936 0
M  V30 52480 H 5165.42 3.93142 2.02218 0
M  V30 52481 N 5164.48 0.218335 1.5608 0
M  V30 52482 C 5165.71 -0.419186 2.02609 0
M  V30 52483 C 5166.12 -1.53575 1.09819 0
M  V30 52484 O 5165.48 -1.82185 0.107213 0
M  V30 52485 C 5165.53 -0.953833 3.48689 0
M  V30 52486 O 5165.25 0.118204 4.37941 0
M  V30 52487 C 5166.75 -1.66492 4.10847 0
M  V30 52488 H 5163.97 -0.102936 0.663057 0
M  V30 52489 H 5166.52 0.333847 2.01757 0
M  V30 52490 H 5164.67 -1.65715 3.50167 0
M  V30 52491 H 5165.09 -0.283175 5.23735 0
M  V30 52492 H 5166.56 -1.99105 5.14841 0
M  V30 52493 H 5167.04 -2.57692 3.55656 0
M  V30 52494 H 5167.64 -1.00688 4.13209 0
M  V30 52495 N 5165.96 -1.57504 -0.0550848 0
M  V30 52496 C 5167.18 -1.92685 -0.767284 0
M  V30 52497 C 5167.61 -0.8162 -1.69469 0
M  V30 52498 O 5166.97 0.229926 -1.79836 0
M  V30 52499 C 5167.02 -3.26871 -1.52274 0
M  V30 52500 O 5166.12 -3.17284 -2.63448 0
M  V30 52501 H 5165.46 -0.630509 -0.208216 0
M  V30 52502 H 5167.99 -2.04592 -0.0183307 0
M  V30 52503 H 5168 -3.61145 -1.89837 0
M  V30 52504 H 5166.68 -4.07279 -0.842398 0
M  V30 52505 H 5165.25 -2.94597 -2.28619 0
M  V30 52506 N 5167.44 0.326842 -1.54174 0
M  V30 52507 C 5168.71 1.0832 -1.62868 0
M  V30 52508 C 5169.09 2.06017 -0.460463 0
M  V30 52509 O 5168.44 2.2189 0.545607 0
M  V30 52510 C 5168.65 1.78805 -2.99716 0
M  V30 52511 C 5170 2.31946 -3.55649 0
M  V30 52512 O 5171.02 1.88877 -3.02 0
M  V30 52513 O 5169.88 3.10785 -4.49528 0
M  V30 52514 H 5166.98 0.499108 -0.659409 0
M  V30 52515 H 5169.52 0.326995 -1.6652 0
M  V30 52516 H 5168.3 1.07725 -3.76179 0
M  V30 52517 H 5167.92 2.61244 -2.99728 0
M  V30 52518 N 5168.92 1.46191 0.588735 0
M  V30 52519 C 5170.33 1.31012 0.911478 0
M  V30 52520 C 5170.53 0.277088 1.99586 0
M  V30 52521 O 5169.59 -0.322444 2.50433 0
M  V30 52522 C 5170.9 2.69463 1.33454 0
M  V30 52523 C 5172.45 2.77507 1.44772 0
M  V30 52524 C 5172.92 4.16526 1.90447 0
M  V30 52525 N 5174.41 4.18914 1.9765 0
M  V30 52526 C 5175.15 5.23367 2.34253 0
M  V30 52527 N 5174.65 6.38152 2.69691 0
M  V30 52528 N 5176.44 5.10731 2.34756 0
M  V30 52529 H 5168.59 2.12016 -0.127689 0
M  V30 52530 H 5170.85 0.947984 0.00554267 0
M  V30 52531 H 5170.56 3.46338 0.611807 0
M  V30 52532 H 5170.43 2.99173 2.29729 0
M  V30 52533 H 5172.82 2.00925 2.16133 0
M  V30 52534 H 5172.9 2.51489 0.467635 0
M  V30 52535 H 5172.54 4.93601 1.19667 0
M  V30 52536 H 5172.47 4.39948 2.89402 0
M  V30 52537 H 5174.97 3.3609 1.72777 0
M  V30 52538 H 5175.28 7.13634 2.96557 0
M  V30 52539 H 5173.62 6.41524 2.67343 0
M  V30 52540 H 5176.81 4.20095 2.06488 0
M  V30 52541 H 5176.99 5.92249 2.62954 0
M  V30 52542 N 5170.39 -0.832859 1.33795 0
M  V30 52543 C 5171.64 -1.58535 1.25344 0
M  V30 52544 C 5171.96 -1.94175 -0.179136 0
M  V30 52545 O 5171.23 -1.61462 -1.10936 0
M  V30 52546 H 5169.81 -0.587824 0.460947 0
M  V30 52547 H 5172.47 -0.995005 1.67588 0
M  V30 52548 H 5171.57 -2.51262 1.85132 0
M  V30 52549 N 5171.87 -1.17362 -1.05185 0
M  V30 52550 C 5173.1 -0.985163 -1.81599 0
M  V30 52551 C 5173.51 0.469807 -1.83274 0
M  V30 52552 O 5172.85 1.33801 -1.25869 0
M  V30 52553 C 5172.91 -1.44967 -3.28975 0
M  V30 52554 C 5172.58 -2.92678 -3.50982 0
M  V30 52555 C 5173.58 -3.90612 -3.43101 0
M  V30 52556 C 5171.26 -3.30855 -3.77942 0
M  V30 52557 C 5173.25 -5.24721 -3.61865 0
M  V30 52558 C 5170.94 -4.6513 -3.96355 0
M  V30 52559 C 5171.94 -5.61872 -3.88315 0
M  V30 52560 O 5171.63 -6.93719 -4.06214 0
M  V30 52561 H 5171.36 -0.348751 -0.579093 0
M  V30 52562 H 5173.91 -1.56071 -1.33533 0
M  V30 52563 H 5172.14 -0.817692 -3.77956 0
M  V30 52564 H 5173.83 -1.22687 -3.86914 0
M  V30 52565 H 5174.6 -3.62464 -3.2225 0
M  V30 52566 H 5170.48 -2.56123 -3.83304 0
M  V30 52567 H 5174.02 -6.00218 -3.55506 0
M  V30 52568 H 5169.92 -4.92984 -4.16698 0
M  V30 52569 H 5170.69 -7.00458 -4.23439 0
M  V30 52570 N 5173.35 1.23909 -0.973872 0
M  V30 52571 C 5174.26 2.28837 -0.516816 0
M  V30 52572 C 5175.28 1.68724 0.425223 0
M  V30 52573 O 5176.45 1.99202 0.296749 0
M  V30 52574 C 5173.52 3.46234 0.179792 0
M  V30 52575 C 5172.58 4.21726 -0.802838 0
M  V30 52576 C 5171.81 5.33518 -0.139379 0
M  V30 52577 O 5172.03 5.60255 1.07098 0
M  V30 52578 O 5170.97 5.96085 -0.834656 0
M  V30 52579 H 5174.79 2.70062 -1.38926 0
M  V30 52580 H 5172.38 1.29718 -0.741196 0
M  V30 52581 H 5174.26 4.17516 0.570844 0
M  V30 52582 H 5172.94 3.06973 1.0271 0
M  V30 52583 H 5171.84 3.52794 -1.24447 0
M  V30 52584 H 5173.18 4.6482 -1.61875 0
M  V30 52585 N 5174.83 0.744729 1.38894 0
M  V30 52586 C 5176.08 0.293786 1.99549 0
M  V30 52587 C 5176.39 -1.12825 1.59781 0
M  V30 52588 O 5177.6 -1.67921 2.13342 0
M  V30 52589 C 5176.05 0.474314 3.56761 0
M  V30 52590 C 5175.66 1.90486 4.05486 0
M  V30 52591 C 5177.4 0.0856367 4.24414 0
M  V30 52592 C 5175.31 2.03442 5.55306 0
M  V30 52593 H 5174.24 0.106093 0.746499 0
M  V30 52594 H 5176.89 0.920004 1.58771 0
M  V30 52595 H 5175.27 -0.220953 3.95383 0
M  V30 52596 H 5176.45 2.63288 3.78175 0
M  V30 52597 H 5174.76 2.24764 3.50528 0
M  V30 52598 H 5177.36 0.161321 5.34457 0
M  V30 52599 H 5177.7 -0.960518 4.05068 0
M  V30 52600 H 5178.24 0.732423 3.90999 0
M  V30 52601 H 5174.98 3.06281 5.79545 0
M  V30 52602 H 5174.5 1.35091 5.84389 0
M  V30 52603 H 5176.17 1.82017 6.20869 0
M  V30 52604 N 5176.31 -1.49687 0.49311 0
M  V30 52605 C 5177.56 -2.01622 -0.0560024 0
M  V30 52606 C 5177.87 -1.37843 -1.38775 0
M  V30 52607 O 5179.07 -1.81061 -2.0231 0
M  V30 52608 C 5177.53 -3.59586 -0.150282 0
M  V30 52609 C 5177.14 -4.32334 1.17435 0
M  V30 52610 C 5178.88 -4.19491 -0.650179 0
M  V30 52611 C 5176.79 -5.82136 1.04267 0
M  V30 52612 H 5175.72 -0.753595 -0.0247032 0
M  V30 52613 H 5178.37 -1.72297 0.631339 0
M  V30 52614 H 5176.75 -3.85593 -0.901899 0
M  V30 52615 H 5177.93 -4.18035 1.93865 0
M  V30 52616 H 5176.24 -3.84138 1.60707 0
M  V30 52617 H 5178.84 -5.29184 -0.766086 0
M  V30 52618 H 5179.18 -3.82332 -1.64707 0
M  V30 52619 H 5179.71 -3.97775 0.0446769 0
M  V30 52620 H 5176.45 -6.23807 2.01358 0
M  V30 52621 H 5175.97 -5.9895 0.31913 0
M  V30 52622 H 5177.65 -6.43002 0.718183 0
M  V30 52623 N 5177.78 -0.226609 -1.55962 0
M  V30 52624 C 5179.03 0.397538 -1.99477 0
M  V30 52625 C 5179.39 1.57027 -1.11177 0
M  V30 52626 O 5178.68 1.90907 -0.162824 0
M  V30 52627 C 5178.87 0.876298 -3.46491 0
M  V30 52628 C 5178.7 -0.248502 -4.49013 0
M  V30 52629 C 5177.47 -0.716555 -5.00194 0
M  V30 52630 C 5179.67 -1.06853 -5.03078 0
M  V30 52631 N 5177.65 -1.81588 -5.86429 0
M  V30 52632 C 5179.02 -2.01662 -5.86287 0
M  V30 52633 C 5181.08 -1.10739 -4.85429 0
M  V30 52634 C 5179.78 -3.00043 -6.53733 0
M  V30 52635 C 5181.81 -2.07941 -5.53638 0
M  V30 52636 C 5181.17 -3.01489 -6.36619 0
M  V30 52637 H 5177.27 0.111997 -0.773938 0
M  V30 52638 H 5179.85 -0.33954 -1.91717 0
M  V30 52639 H 5178.02 1.58272 -3.54689 0
M  V30 52640 H 5179.75 1.47369 -3.76915 0
M  V30 52641 H 5176.51 -0.304256 -4.72622 0
M  V30 52642 H 5176.93 -2.3677 -6.34247 0
M  V30 52643 H 5181.58 -0.398057 -4.20922 0
M  V30 52644 H 5179.29 -3.71936 -7.17419 0
M  V30 52645 H 5182.88 -2.11628 -5.41945 0
M  V30 52646 H 5181.76 -3.75475 -6.88468 0
M  V30 52647 N 5179.26 1.57531 0.0467312 0
M  V30 52648 C 5180.49 1.92699 0.753303 0
M  V30 52649 C 5180.91 0.824852 1.69828 0
M  V30 52650 O 5180.26 -0.200091 1.814 0
M  V30 52651 C 5180.31 3.27733 1.52555 0
M  V30 52652 O 5180.03 4.33712 0.618522 0
M  V30 52653 C 5181.54 3.77074 2.33087 0
M  V30 52654 H 5178.76 0.636374 0.212765 0
M  V30 52655 H 5181.3 2.04498 0.00952172 0
M  V30 52656 H 5179.45 3.17386 2.22137 0
M  V30 52657 H 5179.87 5.11552 1.15821 0
M  V30 52658 H 5181.34 4.74119 2.82693 0
M  V30 52659 H 5181.82 3.07359 3.13731 0
M  V30 52660 H 5182.43 3.90448 1.68614 0
M  V30 52661 N 5180.74 -0.318661 1.54345 0
M  V30 52662 C 5181.97 -1.07981 1.77073 0
M  V30 52663 C 5182.39 -1.80764 0.52018 0
M  V30 52664 O 5181.75 -1.73426 -0.528505 0
M  V30 52665 C 5181.8 -2.04977 2.96676 0
M  V30 52666 O 5180.9 -3.12964 2.68565 0
M  V30 52667 H 5180.24 -0.311088 0.586617 0
M  V30 52668 H 5182.77 -0.361462 2.01382 0
M  V30 52669 H 5182.78 -2.4776 3.24159 0
M  V30 52670 H 5181.46 -1.51403 3.87363 0
M  V30 52671 H 5180.03 -2.74822 2.52046 0
M  V30 52672 N 5182.22 -1.46501 -0.580974 0
M  V30 52673 C 5183.44 -1.55713 -1.36997 0
M  V30 52674 C 5183.87 -0.199486 -1.87039 0
M  V30 52675 O 5183.23 0.820674 -1.61662 0
M  V30 52676 C 5183.27 -2.56725 -2.53229 0
M  V30 52677 O 5182.38 -2.10348 -3.54722 0
M  V30 52678 H 5181.72 -0.523926 -0.407919 0
M  V30 52679 H 5184.25 -1.92087 -0.704535 0
M  V30 52680 H 5184.26 -2.76388 -3.00122 0
M  V30 52681 H 5182.93 -3.55314 -2.16159 0
M  V30 52682 H 5181.51 -2.0068 -3.14296 0
M  V30 52683 N 5183.7 0.825752 -1.34235 0
M  V30 52684 C 5185.11 1.3983 -1.23711 0
M  V30 52685 C 5185.46 1.9571 0.13858 0
M  V30 52686 O 5184.58 1.89837 1.03879 0
M  V30 52687 C 5185.18 2.54195 -2.23987 0
M  V30 52688 C 5183.74 3.07366 -2.17262 0
M  V30 52689 C 5182.88 1.80224 -2.10747 0
M  V30 52690 H 5185.84 0.63039 -1.45643 0
M  V30 52691 H 5185.86 3.32208 -1.85522 0
M  V30 52692 H 5185.37 2.13495 -3.24101 0
M  V30 52693 H 5183.47 3.52579 -1.20495 0
M  V30 52694 H 5183.58 3.66649 -3.08391 0
M  V30 52695 H 5181.95 2.01006 -1.56424 0
M  V30 52696 H 5182.73 1.41702 -3.12691 0
M  V30 52697 N 5185.17 1.17918 1.04561 0
M  V30 52698 C 5186.4 0.996813 1.81875 0
M  V30 52699 C 5186.82 -0.450104 1.82635 0
M  V30 52700 O 5186.18 -1.32264 1.24 0
M  V30 52701 C 5186.23 1.55017 3.2558 0
M  V30 52702 O 5185.33 0.768182 4.05182 0
M  V30 52703 H 5184.68 0.353476 0.562095 0
M  V30 52704 H 5187.21 1.56562 1.31718 0
M  V30 52705 H 5187.22 1.57516 3.76368 0
M  V30 52706 H 5185.89 2.60338 3.24341 0
M  V30 52707 H 5184.47 0.815108 3.63882 0
M  V30 52708 N 5186.65 -1.23391 0.980429 0
M  V30 52709 C 5187.9 -1.91428 0.648046 0
M  V30 52710 C 5188.22 -1.76874 -0.821004 0
M  V30 52711 O 5187.49 -1.14814 -1.58728 0
M  V30 52712 H 5186.07 -0.708508 0.236698 0
M  V30 52713 H 5188.73 -1.50015 1.24425 0
M  V30 52714 H 5187.83 -2.98851 0.899697 0
M  V30 52715 N 5188.13 -0.752084 -1.38497 0
M  V30 52716 C 5189.37 -0.312479 -2.01997 0
M  V30 52717 C 5189.73 1.08494 -1.58408 0
M  V30 52718 O 5190.94 1.62358 -2.14228 0
M  V30 52719 C 5189.21 -0.429548 -3.54809 0
M  V30 52720 S 5190.77 -0.072303 -4.3874 0
M  V30 52721 H 5187.58 -0.121324 -0.700572 0
M  V30 52722 H 5190.19 -0.982371 -1.69026 0
M  V30 52723 H 5188.89 -1.44757 -3.84023 0
M  V30 52724 H 5188.42 0.257578 -3.92556 0
M  V30 52725 H 5190.44 1.13858 -4.82961 0
M  V30 52726 N 5189.61 1.49423 -0.501041 0
M  V30 52727 C 5190.86 2.02053 0.0433784 0
M  V30 52728 C 5191.18 1.3829 1.37481 0
M  V30 52729 O 5190.45 0.538237 1.88361 0
M  V30 52730 H 5189.03 0.746758 0.0190207 0
M  V30 52731 H 5191.69 1.83446 -0.658291 0
M  V30 52732 H 5190.79 3.1162 0.173019 0
M  V30 52733 N 5191.09 0.234877 1.5584 0
M  V30 52734 C 5192.34 -0.392413 1.98254 0
M  V30 52735 C 5192.66 -1.5934 1.12409 0
M  V30 52736 O 5191.93 -1.94834 0.204123 0
M  V30 52737 H 5190.51 -0.147973 0.732197 0
M  V30 52738 H 5193.17 0.330871 1.92071 0
M  V30 52739 H 5192.26 -0.709722 3.03923 0
M  V30 52740 N 5192.57 -1.57553 -0.0383763 0
M  V30 52741 C 5193.79 -1.93096 -0.743073 0
M  V30 52742 C 5194.21 -0.833846 -1.69388 0
M  V30 52743 O 5193.57 0.190468 -1.81503 0
M  V30 52744 C 5193.62 -3.28538 -1.50815 0
M  V30 52745 O 5193.34 -4.34034 -0.595513 0
M  V30 52746 C 5194.84 -3.78305 -2.31084 0
M  V30 52747 H 5192.06 -0.637493 -0.209387 0
M  V30 52748 H 5194.6 -2.045 0.00132343 0
M  V30 52749 H 5192.76 -3.1856 -2.20451 0
M  V30 52750 H 5193.17 -5.12159 -1.13106 0
M  V30 52751 H 5194.65 -4.75612 -2.80174 0
M  V30 52752 H 5195.12 -3.09019 -3.12096 0
M  V30 52753 H 5195.73 -3.91336 -1.66541 0
M  V30 52754 N 5194.04 0.310471 -1.54512 0
M  V30 52755 C 5194.97 1.38751 -1.87805 0
M  V30 52756 C 5195.95 1.53351 -0.736045 0
M  V30 52757 O 5197.14 1.67015 -0.990946 0
M  V30 52758 C 5194.27 2.7532 -2.11699 0
M  V30 52759 C 5193.22 2.75495 -3.27546 0
M  V30 52760 C 5192.55 4.15263 -3.36839 0
M  V30 52761 C 5193.85 2.38076 -4.64884 0
M  V30 52762 H 5195.54 1.11136 -2.78009 0
M  V30 52763 H 5193.09 0.533185 -1.33765 0
M  V30 52764 H 5195.04 3.50743 -2.33574 0
M  V30 52765 H 5193.77 3.04439 -1.18256 0
M  V30 52766 H 5192.43 2.02527 -3.05579 0
M  V30 52767 H 5192.07 4.41545 -2.4093 0
M  V30 52768 H 5191.77 4.16284 -4.14706 0
M  V30 52769 H 5193.3 4.92481 -3.60964 0
M  V30 52770 H 5194.71 3.03215 -4.86553 0
M  V30 52771 H 5193.11 2.50326 -5.45396 0
M  V30 52772 H 5194.18 1.33211 -4.66243 0
M  V30 52773 N 5195.52 1.46807 0.573196 0
M  V30 52774 C 5196.75 1.5597 1.35488 0
M  V30 52775 C 5197.16 0.203104 1.88107 0
M  V30 52776 O 5196.5 -0.811322 1.64813 0
M  V30 52777 C 5196.56 2.51177 2.57197 0
M  V30 52778 C 5196.23 3.97219 2.25979 0
M  V30 52779 C 5197.23 4.86161 1.84237 0
M  V30 52780 C 5194.91 4.42428 2.3783 0
M  V30 52781 C 5196.9 6.18328 1.54754 0
M  V30 52782 C 5194.59 5.74627 2.0796 0
M  V30 52783 C 5195.59 6.62398 1.66488 0
M  V30 52784 O 5195.28 7.92142 1.36988 0
M  V30 52785 H 5195.01 0.529763 0.419914 0
M  V30 52786 H 5197.56 1.93001 0.702846 0
M  V30 52787 H 5195.79 2.09182 3.25238 0
M  V30 52788 H 5197.48 2.50642 3.1927 0
M  V30 52789 H 5198.25 4.52487 1.74587 0
M  V30 52790 H 5194.13 3.74328 2.69072 0
M  V30 52791 H 5197.67 6.86794 1.2231 0
M  V30 52792 H 5193.57 6.07847 2.17237 0
M  V30 52793 H 5194.34 8.04497 1.50753 0
M  V30 52794 N 5197 -0.818622 1.34671 0
M  V30 52795 C 5198.25 -1.57197 1.27018 0
M  V30 52796 C 5198.57 -1.94355 -0.158531 0
M  V30 52797 O 5197.84 -1.6263 -1.09217 0
M  V30 52798 H 5196.42 -0.582902 0.467155 0
M  V30 52799 H 5199.08 -0.977174 1.68634 0
M  V30 52800 H 5198.18 -2.49284 1.87787 0
M  V30 52801 N 5198.48 -1.18471 -1.03934 0
M  V30 52802 C 5199.75 -0.890497 -1.74154 0
M  V30 52803 C 5200.13 0.606337 -2.02205 0
M  V30 52804 O 5199.48 1.56144 -1.66827 0
M  V30 52805 C 5199.69 -1.73916 -3.02579 0
M  V30 52806 C 5201.04 -1.967 -3.7629 0
M  V30 52807 O 5202.06 -1.7098 -3.12481 0
M  V30 52808 O 5200.92 -2.40004 -4.90979 0
M  V30 52809 H 5198.02 -0.330915 -0.757908 0
M  V30 52810 H 5200.56 -1.29231 -1.09988 0
M  V30 52811 H 5199.34 -2.75379 -2.77996 0
M  V30 52812 H 5198.96 -1.33594 -3.74484 0
M  V30 52813 N 5199.96 1.22869 -0.986959 0
M  V30 52814 C 5201.37 1.43591 -0.696683 0
M  V30 52815 C 5201.57 1.87624 0.734804 0
M  V30 52816 O 5200.63 2.02638 1.50645 0
M  V30 52817 C 5201.94 2.48225 -1.6972 0
M  V30 52818 C 5203.49 2.62031 -1.71198 0
M  V30 52819 C 5203.96 3.69881 -2.70097 0
M  V30 52820 N 5205.45 3.77331 -2.68655 0
M  V30 52821 C 5206.19 4.60358 -3.41845 0
M  V30 52822 N 5205.69 5.47423 -4.24617 0
M  V30 52823 N 5207.48 4.54614 -3.30579 0
M  V30 52824 H 5199.63 0.925915 -1.91156 0
M  V30 52825 H 5201.89 0.468631 -0.824069 0
M  V30 52826 H 5201.6 2.22803 -2.72125 0
M  V30 52827 H 5201.47 3.46726 -1.48529 0
M  V30 52828 H 5203.86 2.86801 -0.694938 0
M  V30 52829 H 5203.94 1.63825 -1.96456 0
M  V30 52830 H 5203.58 3.45859 -3.71946 0
M  V30 52831 H 5203.51 4.67644 -2.4211 0
M  V30 52832 H 5206.01 3.15117 -2.0859 0
M  V30 52833 H 5206.32 6.07783 -4.77304 0
M  V30 52834 H 5204.66 5.47025 -4.28706 0
M  V30 52835 H 5207.85 3.85618 -2.65361 0
M  V30 52836 H 5208.03 5.1909 -3.87879 0
M  V30 52837 N 5201.43 0.759419 1.38096 0
M  V30 52838 C 5202.68 0.317555 1.9959 0
M  V30 52839 C 5203 -1.10623 1.60585 0
M  V30 52840 O 5202.27 -1.75747 0.86544 0
M  V30 52841 H 5200.85 0.114422 0.738185 0
M  V30 52842 H 5203.51 0.974808 1.68771 0
M  V30 52843 H 5202.61 0.385336 3.09712 0
M  V30 52844 N 5202.91 -1.49156 0.508959 0
M  V30 52845 C 5204.14 -2.07376 -0.0314453 0
M  V30 52846 C 5204.56 -1.3658 -1.29335 0
M  V30 52847 O 5203.92 -0.425025 -1.76248 0
M  V30 52848 C 5203.97 -3.59662 -0.259991 0
M  V30 52849 O 5203.07 -3.9026 -1.33308 0
M  V30 52850 H 5202.41 -0.663333 0.0297623 0
M  V30 52851 H 5204.94 -1.91854 0.710859 0
M  V30 52852 H 5204.95 -4.05058 -0.489083 0
M  V30 52853 H 5203.63 -4.10599 0.661938 0
M  V30 52854 H 5202.2 -3.56665 -1.08831 0
M  V30 52855 N 5204.39 -0.243138 -1.55713 0
M  V30 52856 C 5205.64 0.38265 -1.98852 0
M  V30 52857 C 5205.97 1.58221 -1.13121 0
M  V30 52858 O 5205.22 1.9486 -0.181136 0
M  V30 52859 C 5205.52 0.839499 -3.47401 0
M  V30 52860 C 5205.19 -0.251895 -4.50196 0
M  V30 52861 C 5203.85 -0.551655 -4.78027 0
M  V30 52862 C 5206.2 -0.988908 -5.11732 0
M  V30 52863 C 5203.53 -1.59257 -5.64672 0
M  V30 52864 C 5205.88 -2.01931 -5.99505 0
M  V30 52865 C 5204.54 -2.32576 -6.25671 0
M  V30 52866 H 5203.81 0.140022 -0.72765 0
M  V30 52867 H 5206.46 -0.350176 -1.88271 0
M  V30 52868 H 5204.77 1.65146 -3.55294 0
M  V30 52869 H 5206.46 1.3339 -3.78164 0
M  V30 52870 H 5203.05 -0.00811808 -4.28599 0
M  V30 52871 H 5207.24 -0.770572 -4.90281 0
M  V30 52872 H 5202.49 -1.83537 -5.83201 0
M  V30 52873 H 5206.67 -2.59534 -6.46232 0
M  V30 52874 H 5204.29 -3.13373 -6.92605 0
M  V30 52875 N 5205.87 1.57571 0.0300203 0
M  V30 52876 C 5207.1 1.93487 0.732823 0
M  V30 52877 C 5207.51 0.842818 1.68944 0
M  V30 52878 O 5206.87 -0.18084 1.81602 0
M  V30 52879 C 5206.92 3.29333 1.4907 0
M  V30 52880 O 5206.64 4.34343 0.572486 0
M  V30 52881 C 5208.14 3.79525 2.29075 0
M  V30 52882 H 5205.36 0.638595 0.206004 0
M  V30 52883 H 5207.91 2.04496 -0.0121685 0
M  V30 52884 H 5206.06 3.19724 2.18758 0
M  V30 52885 H 5206.47 5.12752 1.10388 0
M  V30 52886 H 5207.95 4.77091 2.77648 0
M  V30 52887 H 5208.43 3.1067 3.10453 0
M  V30 52888 H 5209.03 3.92214 1.64463 0
M  V30 52889 N 5207.35 -0.302273 1.54674 0
M  V30 52890 C 5208.57 -1.06096 1.78209 0
M  V30 52891 C 5209 -1.80202 0.539323 0
M  V30 52892 O 5208.35 -1.73977 -0.510081 0
M  V30 52893 C 5208.4 -2.01819 2.98834 0
M  V30 52894 O 5207.51 -3.10098 2.71869 0
M  V30 52895 H 5206.85 -0.304849 0.589884 0
M  V30 52896 H 5209.38 -0.340082 2.01754 0
M  V30 52897 H 5209.39 -2.44308 3.26769 0
M  V30 52898 H 5208.06 -1.47286 3.88947 0
M  V30 52899 H 5206.64 -2.72133 2.54947 0
M  V30 52900 N 5208.82 -1.47109 -0.565403 0
M  V30 52901 C 5210.24 -1.4727 -1.14754 0
M  V30 52902 C 5210.59 -0.22291 -1.9493 0
M  V30 52903 O 5209.71 0.672789 -2.05676 0
M  V30 52904 C 5210.31 -2.6683 -2.08776 0
M  V30 52905 C 5208.87 -2.69976 -2.62278 0
M  V30 52906 C 5208.01 -2.40241 -1.38491 0
M  V30 52907 H 5210.96 -1.54737 -0.352425 0
M  V30 52908 H 5210.98 -2.43333 -2.92522 0
M  V30 52909 H 5210.5 -3.57775 -1.50395 0
M  V30 52910 H 5208.6 -1.83149 -3.2448 0
M  V30 52911 H 5208.71 -3.70436 -3.03832 0
M  V30 52912 H 5207.07 -1.90653 -1.68889 0
M  V30 52913 H 5207.86 -3.33384 -0.819157 0
M  V30 52914 N 5210.3 0.811468 -1.35103 0
M  V30 52915 C 5211.55 1.56521 -1.2785 0
M  V30 52916 C 5211.87 1.94436 0.148221 0
M  V30 52917 O 5211.14 1.63207 1.08353 0
M  V30 52918 H 5209.72 0.580416 -0.47024 0
M  V30 52919 H 5212.38 0.968217 -1.6915 0
M  V30 52920 H 5211.48 2.48285 -1.89106 0
M  V30 52921 N 5211.78 1.19021 1.03304 0
M  V30 52922 C 5213.01 1.01393 1.80008 0
M  V30 52923 C 5213.42 -0.44059 1.83998 0
M  V30 52924 O 5212.76 -1.31782 1.27981 0
M  V30 52925 C 5212.82 1.50183 3.26627 0
M  V30 52926 C 5212.49 2.98225 3.46282 0
M  V30 52927 C 5213.48 3.96021 3.36843 0
M  V30 52928 C 5211.17 3.36826 3.72631 0
M  V30 52929 C 5213.16 5.30412 3.53471 0
M  V30 52930 C 5210.85 4.71377 3.88905 0
M  V30 52931 C 5211.85 5.67979 3.79327 0
M  V30 52932 O 5211.54 7.00093 3.95126 0
M  V30 52933 H 5211.27 0.35792 0.573471 0
M  V30 52934 H 5213.82 1.58175 1.31034 0
M  V30 52935 H 5212.05 0.877718 3.76607 0
M  V30 52936 H 5213.74 1.28827 3.84913 0
M  V30 52937 H 5214.51 3.67545 3.16442 0
M  V30 52938 H 5210.39 2.62189 3.79181 0
M  V30 52939 H 5213.93 6.05798 3.45912 0
M  V30 52940 H 5209.83 4.99551 4.08802 0
M  V30 52941 H 5210.6 7.07106 4.12242 0
M  V30 52942 N 5213.26 -1.22344 0.993461 0
M  V30 52943 C 5214.67 -1.72891 0.704677 0
M  V30 52944 C 5215.02 -1.80097 -0.77842 0
M  V30 52945 O 5214.15 -1.44766 -1.60847 0
M  V30 52946 C 5214.74 -3.13996 1.27248 0
M  V30 52947 C 5213.3 -3.61946 1.03307 0
M  V30 52948 C 5212.45 -2.39811 1.39233 0
M  V30 52949 H 5215.4 -1.07684 1.16576 0
M  V30 52950 H 5215.42 -3.74884 0.651344 0
M  V30 52951 H 5214.93 -3.08718 2.3519 0
M  V30 52952 H 5213.03 -3.72588 -0.0297019 0
M  V30 52953 H 5213.14 -4.48045 1.69684 0
M  V30 52954 H 5211.51 -2.41446 0.810934 0
M  V30 52955 H 5212.29 -2.37195 2.48181 0
M  V30 52956 N 5214.74 -0.766732 -1.37692 0
M  V30 52957 C 5215.98 -0.328135 -1.99418 0
M  V30 52958 C 5216.31 1.0977 -1.6117 0
M  V30 52959 O 5215.58 1.75285 -0.874748 0
M  V30 52960 H 5214.16 -0.118336 -0.737567 0
M  V30 52961 H 5216.82 -0.983745 -1.68251 0
M  V30 52962 H 5215.91 -0.401755 -3.09503 0
M  V30 52963 N 5216.21 1.48884 -0.516862 0
M  V30 52964 C 5217.44 2.06892 0.018329 0
M  V30 52965 C 5217.86 1.37516 1.29363 0
M  V30 52966 O 5217.21 0.458471 1.76647 0
M  V30 52967 C 5217.27 3.60567 0.259547 0
M  V30 52968 O 5216.99 4.27335 -0.965216 0
M  V30 52969 C 5218.49 4.35334 0.836598 0
M  V30 52970 H 5215.71 0.670432 -0.0275978 0
M  V30 52971 H 5218.25 1.91453 -0.718757 0
M  V30 52972 H 5216.41 3.75656 0.946648 0
M  V30 52973 H 5216.82 5.19284 -0.737829 0
M  V30 52974 H 5218.29 5.43678 0.954874 0
M  V30 52975 H 5218.77 3.98877 1.83831 0
M  V30 52976 H 5219.38 4.24891 0.186472 0
M  V30 52977 N 5217.69 0.251393 1.55582 0
M  V30 52978 C 5218.92 -0.37557 2.03158 0
M  V30 52979 C 5219.33 -1.51757 1.12988 0
M  V30 52980 O 5218.67 -1.83184 0.137634 0
M  V30 52981 C 5218.74 -0.940879 3.46969 0
M  V30 52982 C 5218.4 0.0694493 4.56947 0
M  V30 52983 C 5219.4 0.88059 5.12388 0
M  V30 52984 C 5217.08 0.196838 5.01914 0
M  V30 52985 C 5219.08 1.80553 6.11293 0
M  V30 52986 C 5216.76 1.12528 6.0065 0
M  V30 52987 C 5217.76 1.92815 6.55219 0
M  V30 52988 O 5217.45 2.84094 7.52028 0
M  V30 52989 H 5217.18 -0.09286 0.669592 0
M  V30 52990 H 5219.73 0.374186 2.01963 0
M  V30 52991 H 5217.96 -1.74028 3.45328 0
M  V30 52992 H 5219.65 -1.4784 3.78019 0
M  V30 52993 H 5220.42 0.792784 4.78477 0
M  V30 52994 H 5216.3 -0.418025 4.59101 0
M  V30 52995 H 5219.84 2.43262 6.53811 0
M  V30 52996 H 5215.74 1.214 6.33981 0
M  V30 52997 H 5216.51 2.78506 7.6966 0
M  V30 52998 N 5219.17 -1.57585 -0.0216635 0
M  V30 52999 C 5220.58 -1.77872 -0.567315 0
M  V30 53000 C 5220.93 -0.883399 -1.75187 0
M  V30 53001 O 5220.06 -0.0801579 -2.16251 0
M  V30 53002 C 5220.65 -3.22573 -1.03595 0
M  V30 53003 C 5219.21 -3.44032 -1.52706 0
M  V30 53004 C 5218.36 -2.73315 -0.468449 0
M  V30 53005 H 5221.31 -1.57376 0.204555 0
M  V30 53006 H 5221.33 -3.29495 -1.90299 0
M  V30 53007 H 5220.84 -3.87712 -0.173602 0
M  V30 53008 H 5218.94 -2.84079 -2.41101 0
M  V30 53009 H 5219.06 -4.52664 -1.56946 0
M  V30 53010 H 5217.42 -2.37303 -0.92518 0
M  V30 53011 H 5218.2 -3.41139 0.384558 0
M  V30 53012 N 5220.65 0.294066 -1.54832 0
M  V30 53013 C 5221.6 1.38289 -1.87026 0
M  V30 53014 C 5222.59 1.52158 -0.744611 0
M  V30 53015 O 5223.8 1.54192 -0.928695 0
M  V30 53016 H 5220.17 0.462067 -0.593294 0
M  V30 53017 H 5222.14 1.08376 -2.78024 0
M  V30 53018 C 5220.89 2.74017 -2.14033 0
M  V30 53019 H 5220.22 2.6413 -3.00126 0
M  V30 53020 H 5221.66 3.49197 -2.40494 0
M  V30 53021 C 5220.11 3.23489 -0.941095 0
M  V30 53022 O 5220.64 4.01361 -0.165078 0
M  V30 53023 N 5218.85 2.809 -0.744566 0
M  V30 53024 H 5218.4 2.17689 -1.37729 0
M  V30 53025 H 5218.36 3.1435 0.0562547 0
M  V30 53026 N 5222.13 1.47406 0.557593 0
M  V30 53027 C 5223.08 1.60271 1.68571 0
M  V30 53028 C 5224.07 0.470039 1.62748 0
M  V30 53029 O 5225.28 0.647823 1.67938 0
M  V30 53030 H 5221.65 0.504372 0.557775 0
M  V30 53031 H 5223.62 2.55072 1.54858 0
M  V30 53032 C 5222.37 1.6338 3.06924 0
M  V30 53033 H 5221.69 2.49885 3.12086 0
M  V30 53034 H 5223.13 1.7643 3.85549 0
M  V30 53035 C 5221.59 0.367039 3.34895 0
M  V30 53036 O 5222.12 -0.53204 3.98161 0
M  V30 53037 N 5220.33 0.247184 2.89547 0
M  V30 53038 H 5219.88 0.979753 2.38241 0
M  V30 53039 H 5219.83 -0.599444 3.08633 0
M  V30 53040 N 5223.61 -0.804292 1.35532 0
M  V30 53041 C 5224.83 -1.59278 1.32053 0
M  V30 53042 C 5225.25 -1.88527 -0.10149 0
M  V30 53043 O 5224.61 -1.48979 -1.05411 0
M  V30 53044 C 5224.66 -2.92268 2.12748 0
M  V30 53045 O 5224.38 -2.64286 3.49406 0
M  V30 53046 C 5225.88 -3.86624 2.1688 0
M  V30 53047 H 5223.1 -0.494507 0.453546 0
M  V30 53048 H 5225.64 -0.999353 1.78419 0
M  V30 53049 H 5223.8 -3.48119 1.69976 0
M  V30 53050 H 5224.21 -3.49217 3.91341 0
M  V30 53051 H 5225.69 -4.77044 2.77729 0
M  V30 53052 H 5226.16 -4.2338 1.16818 0
M  V30 53053 H 5226.77 -3.36708 2.59823 0
M  V30 53054 N 5225.08 -1.19567 -1.02672 0
M  V30 53055 C 5226.31 -1.02346 -1.79468 0
M  V30 53056 C 5226.72 0.430826 -1.8423 0
M  V30 53057 O 5226.06 1.31101 -1.28678 0
M  V30 53058 C 5226.13 -1.51913 -3.25826 0
M  V30 53059 C 5225.79 -3.00057 -3.44695 0
M  V30 53060 C 5226.79 -3.97802 -3.34738 0
M  V30 53061 C 5224.47 -3.38797 -3.70839 0
M  V30 53062 C 5226.47 -5.32279 -3.50653 0
M  V30 53063 C 5224.15 -4.73433 -3.864 0
M  V30 53064 C 5225.15 -5.69983 -3.7631 0
M  V30 53065 O 5224.84 -7.02179 -3.91408 0
M  V30 53066 H 5224.57 -0.360956 -0.571565 0
M  V30 53067 H 5227.13 -1.58868 -1.30193 0
M  V30 53068 H 5225.36 -0.897678 -3.76136 0
M  V30 53069 H 5227.04 -1.30867 -3.84225 0
M  V30 53070 H 5227.81 -3.69218 -3.14489 0
M  V30 53071 H 5223.69 -2.64196 -3.77785 0
M  V30 53072 H 5227.23 -6.07624 -3.42694 0
M  V30 53073 H 5223.13 -5.01712 -4.06147 0
M  V30 53074 H 5223.9 -7.09282 -4.08486 0
M  V30 53075 N 5226.56 1.21816 -0.999936 0
M  V30 53076 C 5227.8 1.92471 -0.688064 0
M  V30 53077 C 5228.17 1.76036 0.766507 0
M  V30 53078 O 5229.37 2.41018 1.19012 0
M  V30 53079 C 5227.64 3.40328 -1.09141 0
M  V30 53080 S 5229.2 4.29493 -0.898973 0
M  V30 53081 H 5226.01 0.665089 -0.251353 0
M  V30 53082 H 5228.62 1.4745 -1.2837 0
M  V30 53083 H 5227.32 3.49805 -2.14627 0
M  V30 53084 H 5226.85 3.90363 -0.487862 0
M  V30 53085 H 5228.87 4.95769 0.206699 0
M  V30 53086 N 5228.04 0.774023 1.37283 0
M  V30 53087 C 5228.95 0.162654 2.34035 0
M  V30 53088 C 5229.97 -0.676966 1.60291 0
M  V30 53089 O 5231.14 -0.596355 1.92368 0
M  V30 53090 C 5228.21 -0.70445 3.39468 0
M  V30 53091 C 5227.27 0.151889 4.29031 0
M  V30 53092 C 5226.5 -0.673924 5.29428 0
M  V30 53093 O 5226.72 -1.91088 5.3744 0
M  V30 53094 O 5225.66 -0.0819282 6.01844 0
M  V30 53095 H 5229.48 0.96222 2.88054 0
M  V30 53096 H 5227.07 0.535219 1.39484 0
M  V30 53097 H 5228.95 -1.1994 4.03971 0
M  V30 53098 H 5227.63 -1.48217 2.87773 0
M  V30 53099 H 5226.53 0.693247 3.67621 0
M  V30 53100 H 5227.87 0.892745 4.84036 0
M  V30 53101 N 5229.52 -1.48607 0.52475 0
M  V30 53102 C 5230.76 -2.034 -0.00316429 0
M  V30 53103 C 5231.12 -1.39517 -1.32487 0
M  V30 53104 O 5230.41 -0.52994 -1.84125 0
M  V30 53105 C 5230.61 -3.56907 -0.187748 0
M  V30 53106 C 5230.43 -4.3567 1.11451 0
M  V30 53107 C 5229.2 -4.76803 1.67293 0
M  V30 53108 C 5231.4 -4.72807 2.02381 0
M  V30 53109 N 5229.38 -5.40083 2.91862 0
M  V30 53110 C 5230.76 -5.36051 3.11527 0
M  V30 53111 C 5232.81 -4.5474 2.02771 0
M  V30 53112 C 5231.51 -5.83139 4.2112 0
M  V30 53113 C 5233.54 -5.02804 3.11355 0
M  V30 53114 C 5232.9 -5.66069 4.19219 0
M  V30 53115 H 5229 -0.780965 0.0402117 0
M  V30 53116 H 5231.58 -1.81493 0.704872 0
M  V30 53117 H 5229.76 -3.78648 -0.864863 0
M  V30 53118 H 5231.49 -3.98337 -0.714798 0
M  V30 53119 H 5228.24 -4.5775 1.21499 0
M  V30 53120 H 5228.67 -5.76292 3.55269 0
M  V30 53121 H 5233.31 -4.05213 1.20675 0
M  V30 53122 H 5231.03 -6.31674 5.03997 0
M  V30 53123 H 5234.61 -4.90619 3.12705 0
M  V30 53124 H 5233.49 -6.02587 5.01855 0
M  V30 53125 N 5231 -0.25964 -1.55447 0
M  V30 53126 C 5232.24 0.362073 -1.99542 0
M  V30 53127 C 5232.57 1.56656 -1.14772 0
M  V30 53128 O 5231.85 1.93318 -0.214093 0
M  V30 53129 C 5232.13 0.759464 -3.52 0
M  V30 53130 C 5231.99 -0.451291 -4.4753 0
M  V30 53131 C 5233.3 1.60172 -4.09918 0
M  V30 53132 H 5230.42 0.130131 -0.72542 0
M  V30 53133 H 5233.07 -0.363496 -1.8649 0
M  V30 53134 H 5231.22 1.37767 -3.63253 0
M  V30 53135 H 5232.89 -1.0898 -4.48242 0
M  V30 53136 H 5231.13 -1.09214 -4.19827 0
M  V30 53137 H 5231.8 -0.129712 -5.51848 0
M  V30 53138 H 5234.28 1.07976 -4.01846 0
M  V30 53139 H 5233.15 1.84861 -5.16834 0
M  V30 53140 H 5233.41 2.57774 -3.59173 0
M  V30 53141 N 5232.47 1.57594 0.0133061 0
M  V30 53142 C 5233.4 2.10614 1.00816 0
M  V30 53143 C 5234.38 1.01221 1.36705 0
M  V30 53144 O 5235.57 1.28832 1.45313 0
M  V30 53145 C 5232.7 2.59852 2.30422 0
M  V30 53146 C 5231.65 3.73651 2.08732 0
M  V30 53147 C 5230.98 4.09153 3.44235 0
M  V30 53148 C 5232.28 5.01459 1.46068 0
M  V30 53149 H 5233.97 2.93987 0.566746 0
M  V30 53150 H 5231.52 1.41424 0.271169 0
M  V30 53151 H 5233.47 2.95568 3.00362 0
M  V30 53152 H 5232.2 1.73583 2.76652 0
M  V30 53153 H 5230.86 3.38308 1.41221 0
M  V30 53154 H 5230.5 3.19927 3.88144 0
M  V30 53155 H 5230.2 4.85814 3.30543 0
M  V30 53156 H 5231.73 4.47417 4.15513 0
M  V30 53157 H 5233.14 5.35032 2.05947 0
M  V30 53158 H 5231.54 5.82837 1.42904 0
M  V30 53159 H 5232.61 4.83005 0.428301 0
M  V30 53160 N 5233.95 -0.28585 1.54986 0
M  V30 53161 C 5235.2 -1.02065 1.75245 0
M  V30 53162 C 5235.53 -1.86398 0.544907 0
M  V30 53163 O 5234.81 -1.89036 -0.457778 0
M  V30 53164 C 5235.09 -1.91398 3.05023 0
M  V30 53165 C 5234.94 -1.10143 4.36106 0
M  V30 53166 C 5236.26 -2.90323 3.30757 0
M  V30 53167 H 5233.38 -0.369641 0.637601 0
M  V30 53168 H 5236.02 -0.294048 1.87711 0
M  V30 53169 H 5234.17 -2.53351 2.94526 0
M  V30 53170 H 5235.84 -0.503595 4.58543 0
M  V30 53171 H 5234.09 -0.404523 4.3191 0
M  V30 53172 H 5234.76 -1.75938 5.23211 0
M  V30 53173 H 5237.23 -2.38502 3.40963 0
M  V30 53174 H 5236.11 -3.49982 4.22852 0
M  V30 53175 H 5236.37 -3.64779 2.49778 0
M  V30 53176 N 5235.43 -1.477 -0.549768 0
M  V30 53177 C 5236.39 -1.60287 -1.63831 0
M  V30 53178 C 5237.39 -0.477448 -1.53548 0
M  V30 53179 O 5238.58 -0.742721 -1.57573 0
M  V30 53180 C 5235.72 -1.55441 -3.03399 0
M  V30 53181 H 5236.91 -2.5733 -1.54017 0
M  V30 53182 H 5234.46 -1.36001 -0.770281 0
M  V30 53183 H 5235.2 -0.598024 -3.18738 0
M  V30 53184 H 5234.98 -2.37127 -3.12271 0
M  V30 53185 H 5236.47 -1.67403 -3.82578 0
M  V30 53186 N 5236.91 0.797093 -1.35957 0
M  V30 53187 C 5238.32 1.37175 -1.26649 0
M  V30 53188 C 5238.67 1.9596 0.0970357 0
M  V30 53189 O 5237.8 1.91998 0.998288 0
M  V30 53190 C 5238.39 2.49387 -2.29329 0
M  V30 53191 C 5236.95 3.02689 -2.23733 0
M  V30 53192 C 5236.1 1.75714 -2.14523 0
M  V30 53193 H 5239.05 0.599356 -1.46947 0
M  V30 53194 H 5239.07 3.28198 -1.92527 0
M  V30 53195 H 5238.58 2.06572 -3.28557 0
M  V30 53196 H 5236.68 3.49943 -1.27947 0
M  V30 53197 H 5236.79 3.60025 -3.16099 0
M  V30 53198 H 5235.16 1.97643 -1.60653 0
M  V30 53199 H 5235.94 1.35038 -3.15626 0
M  V30 53200 N 5238.39 1.2011 1.02036 0
M  V30 53201 C 5239.35 0.948334 2.08661 0
M  V30 53202 C 5240.35 -0.0746188 1.60627 0
M  V30 53203 O 5241.54 0.161042 1.73454 0
M  V30 53204 C 5238.67 0.426973 3.38216 0
M  V30 53205 H 5239.86 1.89408 2.32518 0
M  V30 53206 H 5237.42 1.01594 1.18778 0
M  V30 53207 H 5238.15 -0.52442 3.20032 0
M  V30 53208 H 5237.94 1.16465 3.74404 0
M  V30 53209 H 5239.43 0.269493 4.1673 0
M  V30 53210 N 5239.86 -1.21284 1.00638 0
M  V30 53211 C 5241.11 -1.90011 0.688504 0
M  V30 53212 C 5241.43 -1.78576 -0.783302 0
M  V30 53213 O 5240.7 -1.18155 -1.56257 0
M  V30 53214 H 5239.28 -0.703328 0.251673 0
M  V30 53215 H 5241.95 -1.47342 1.27579 0
M  V30 53216 H 5241.04 -2.96875 0.962886 0
M  V30 53217 N 5241.34 -0.781292 -1.36871 0
M  V30 53218 C 5242.76 -0.462022 -1.52766 0
M  V30 53219 C 5242.96 1.02092 -1.73722 0
M  V30 53220 O 5242.01 1.80658 -1.76405 0
M  V30 53221 C 5243.33 -1.2854 -2.71842 0
M  V30 53222 C 5244.88 -1.27827 -2.85709 0
M  V30 53223 C 5245.35 -2.0852 -4.07779 0
M  V30 53224 N 5246.84 -2.05924 -4.14909 0
M  V30 53225 C 5247.58 -2.65136 -5.0842 0
M  V30 53226 N 5247.07 -3.33174 -6.07427 0
M  V30 53227 N 5248.87 -2.54914 -5.00974 0
M  V30 53228 H 5241.02 -1.74202 -1.21521 0
M  V30 53229 H 5243.28 -0.740048 -0.59248 0
M  V30 53230 H 5242.99 -2.3367 -2.62852 0
M  V30 53231 H 5242.86 -0.92111 -3.65781 0
M  V30 53232 H 5245.25 -0.23492 -2.94163 0
M  V30 53233 H 5245.33 -1.68226 -1.92701 0
M  V30 53234 H 5244.97 -3.12881 -4.00085 0
M  V30 53235 H 5244.9 -1.65496 -4.99918 0
M  V30 53236 H 5247.39 -1.56398 -3.44018 0
M  V30 53237 H 5247.71 -3.75705 -6.75326 0
M  V30 53238 H 5246.05 -3.37274 -6.07677 0
M  V30 53239 H 5249.24 -2.01367 -4.22574 0
M  V30 53240 H 5249.41 -3.01352 -5.73664 0
M  V30 53241 N 5242.82 1.48327 -0.532624 0
M  V30 53242 C 5243.75 2.32485 0.217429 0
M  V30 53243 C 5244.73 1.42259 0.932548 0
M  V30 53244 O 5245.92 1.71143 0.917813 0
M  V30 53245 C 5243.05 3.23514 1.26318 0
M  V30 53246 C 5242 4.22786 0.666042 0
M  V30 53247 C 5241.33 5.02966 1.81464 0
M  V30 53248 C 5242.63 5.2103 -0.363996 0
M  V30 53249 H 5244.32 2.95444 -0.485118 0
M  V30 53250 H 5241.87 1.42074 -0.234744 0
M  V30 53251 H 5243.82 3.81217 1.79587 0
M  V30 53252 H 5242.54 2.58561 1.99534 0
M  V30 53253 H 5241.2 3.66273 0.154851 0
M  V30 53254 H 5240.85 4.34436 2.53524 0
M  V30 53255 H 5240.55 5.70159 1.421 0
M  V30 53256 H 5242.07 5.63522 2.35106 0
M  V30 53257 H 5243.49 5.73242 0.0817064 0
M  V30 53258 H 5241.89 5.9629 -0.675166 0
M  V30 53259 H 5242.96 4.68005 -1.26882 0
M  V30 53260 N 5244.3 0.26788 1.55307 0
M  V30 53261 C 5245.54 -0.351486 1.99731 0
M  V30 53262 C 5245.88 -1.56045 1.15601 0
M  V30 53263 O 5245.15 -1.93202 0.224342 0
M  V30 53264 C 5245.44 -0.740786 3.52398 0
M  V30 53265 C 5245.29 0.475019 4.47285 0
M  V30 53266 C 5246.61 -1.57996 4.10762 0
M  V30 53267 H 5243.73 -0.126282 0.7261 0
M  V30 53268 H 5246.37 0.373381 1.86295 0
M  V30 53269 H 5244.52 -1.35839 3.63978 0
M  V30 53270 H 5246.19 1.11356 4.47658 0
M  V30 53271 H 5244.43 1.11439 4.19242 0
M  V30 53272 H 5245.1 0.158976 5.51771 0
M  V30 53273 H 5247.58 -1.05843 4.02413 0
M  V30 53274 H 5246.46 -1.82117 5.17807 0
M  V30 53275 H 5246.72 -2.55866 3.60535 0
M  V30 53276 N 5245.78 -1.57599 -0.00494828 0
M  V30 53277 C 5247 -1.94629 -0.701948 0
M  V30 53278 C 5247.42 -0.869588 -1.67582 0
M  V30 53279 O 5246.78 0.151926 -1.81867 0
M  V30 53280 C 5246.83 -3.31663 -1.43812 0
M  V30 53281 O 5246.55 -4.35199 -0.503314 0
M  V30 53282 C 5248.05 -3.83122 -2.23008 0
M  V30 53283 H 5245.27 -0.641791 -0.195818 0
M  V30 53284 H 5247.81 -2.04451 0.0447006 0
M  V30 53285 H 5245.97 -3.23164 -2.13644 0
M  V30 53286 H 5246.38 -5.14443 -1.02217 0
M  V30 53287 H 5247.86 -4.81448 -2.70023 0
M  V30 53288 H 5248.33 -3.15569 -3.05471 0
M  V30 53289 H 5248.94 -3.94781 -1.58203 0
M  V30 53290 N 5247.25 0.277627 -1.55135 0
M  V30 53291 C 5248.5 1.0076 -1.74729 0
M  V30 53292 C 5248.82 1.87615 -0.553158 0
M  V30 53293 O 5250.02 2.64056 -0.631411 0
M  V30 53294 C 5248.48 1.84136 -3.09228 0
M  V30 53295 C 5248.09 1.0217 -4.36194 0
M  V30 53296 C 5249.83 2.56592 -3.38173 0
M  V30 53297 C 5247.74 1.84958 -5.61733 0
M  V30 53298 H 5246.67 0.379925 -0.651286 0
M  V30 53299 H 5249.32 0.263479 -1.81599 0
M  V30 53300 H 5247.7 2.62626 -2.96384 0
M  V30 53301 H 5248.87 0.281298 -4.59941 0
M  V30 53302 H 5247.19 0.411909 -4.14358 0
M  V30 53303 H 5249.79 3.18927 -4.29173 0
M  V30 53304 H 5250.13 3.26637 -2.58096 0
M  V30 53305 H 5250.66 1.85135 -3.52094 0
M  V30 53306 H 5247.4 1.19342 -6.44545 0
M  V30 53307 H 5246.92 2.56609 -5.42137 0
M  V30 53308 H 5248.6 2.42437 -5.99861 0
M  V30 53309 N 5248.73 1.4799 0.541927 0
M  V30 53310 C 5249.68 1.62049 1.66861 0
M  V30 53311 C 5250.68 0.487274 1.62241 0
M  V30 53312 O 5251.88 0.665599 1.67242 0
M  V30 53313 H 5248.26 0.51026 0.552394 0
M  V30 53314 H 5250.23 2.567 1.52144 0
M  V30 53315 C 5248.98 1.66626 3.05174 0
M  V30 53316 H 5248.3 2.53181 3.09418 0
M  V30 53317 H 5249.74 1.8051 3.83656 0
M  V30 53318 C 5248.2 0.402538 3.34487 0
M  V30 53319 O 5248.73 -0.489779 3.98703 0
M  V30 53320 N 5246.93 0.27788 2.89268 0
M  V30 53321 H 5246.48 1.00497 2.37188 0
M  V30 53322 H 5246.44 -0.566676 3.09251 0
M  V30 53323 N 5250.21 -0.789872 1.36377 0
M  V30 53324 C 5251.46 -1.54773 1.30582 0
M  V30 53325 C 5251.79 -1.9416 -0.115027 0
M  V30 53326 O 5251.04 -1.62922 -1.0842 0
M  V30 53327 C 5251.34 -2.83691 2.1738 0
M  V30 53328 C 5251.01 -2.63444 3.65935 0
M  V30 53329 C 5249.67 -2.5763 4.06424 0
M  V30 53330 C 5252.02 -2.44817 4.60124 0
M  V30 53331 C 5249.35 -2.31155 5.39244 0
M  V30 53332 C 5251.7 -2.19868 5.93162 0
M  V30 53333 C 5250.36 -2.12487 6.32776 0
M  V30 53334 H 5249.63 -0.566354 0.477833 0
M  V30 53335 H 5252.28 -0.911321 1.68426 0
M  V30 53336 H 5250.59 -3.51796 1.72472 0
M  V30 53337 H 5252.28 -3.41479 2.10221 0
M  V30 53338 H 5248.87 -2.68824 3.33814 0
M  V30 53339 H 5253.06 -2.4831 4.29716 0
M  V30 53340 H 5248.31 -2.23922 5.68919 0
M  V30 53341 H 5252.49 -2.0445 6.65713 0
M  V30 53342 H 5250.11 -1.91735 7.35623 0
M  V30 53343 N 5251.69 -1.20649 -1.01398 0
M  V30 53344 C 5252.92 -1.04244 -1.78373 0
M  V30 53345 C 5253.33 0.411262 -1.84676 0
M  V30 53346 O 5252.67 1.29729 -1.30062 0
M  V30 53347 C 5252.73 -1.5536 -3.24197 0
M  V30 53348 C 5252.4 -3.03696 -3.41493 0
M  V30 53349 C 5253.39 -4.0133 -3.305 0
M  V30 53350 C 5251.08 -3.42711 -3.67225 0
M  V30 53351 C 5253.07 -5.35968 -3.44988 0
M  V30 53352 C 5250.76 -4.77504 -3.81357 0
M  V30 53353 C 5251.76 -5.73942 -3.70243 0
M  V30 53354 O 5251.45 -7.06291 -3.83938 0
M  V30 53355 H 5251.18 -0.366998 -0.567705 0
M  V30 53356 H 5253.73 -1.6024 -1.285 0
M  V30 53357 H 5251.96 -0.937522 -3.75163 0
M  V30 53358 H 5253.65 -1.34934 -3.82815 0
M  V30 53359 H 5254.42 -3.72533 -3.10555 0
M  V30 53360 H 5250.3 -2.68188 -3.74962 0
M  V30 53361 H 5253.84 -6.11224 -3.3623 0
M  V30 53362 H 5249.74 -5.05991 -4.00803 0
M  V30 53363 H 5250.5 -7.13575 -4.0094 0
M  V30 53364 N 5253.17 1.20748 -1.0128 0
M  V30 53365 C 5254.41 1.90018 -0.699954 0
M  V30 53366 C 5254.74 1.78607 0.770051 0
M  V30 53367 O 5254 1.16201 1.57467 0
M  V30 53368 C 5254.3 3.40804 -1.07645 0
M  V30 53369 C 5253.96 3.72414 -2.54202 0
M  V30 53370 C 5252.62 3.80752 -2.94247 0
M  V30 53371 C 5254.98 3.87013 -3.49099 0
M  V30 53372 C 5252.3 4.01143 -4.28137 0
M  V30 53373 C 5254.66 4.08913 -4.82672 0
M  V30 53374 C 5253.32 4.1548 -5.2243 0
M  V30 53375 H 5252.59 0.695326 -0.256131 0
M  V30 53376 H 5255.24 1.43091 -1.27268 0
M  V30 53377 H 5253.54 3.8952 -0.422081 0
M  V30 53378 H 5255.24 3.9269 -0.812135 0
M  V30 53379 H 5251.83 3.66521 -2.22171 0
M  V30 53380 H 5256.01 3.7993 -3.19322 0
M  V30 53381 H 5251.27 4.0446 -4.585 0
M  V30 53382 H 5255.44 4.19152 -5.56134 0
M  V30 53383 H 5253.07 4.31033 -6.26191 0
M  V30 53384 N 5254.65 0.78854 1.36454 0
M  V30 53385 C 5255.89 0.357122 1.98513 0
M  V30 53386 C 5256.21 -1.07685 1.63289 0
M  V30 53387 O 5257.41 -1.61049 2.18576 0
M  V30 53388 C 5255.87 0.587574 3.55071 0
M  V30 53389 C 5255.48 2.0329 3.99221 0
M  V30 53390 C 5257.22 0.220617 4.23926 0
M  V30 53391 C 5255.13 2.21006 5.48553 0
M  V30 53392 H 5254.06 0.129788 0.742746 0
M  V30 53393 H 5256.71 0.97005 1.55764 0
M  V30 53394 H 5255.09 -0.0950526 3.95886 0
M  V30 53395 H 5256.27 2.75186 3.69607 0
M  V30 53396 H 5254.58 2.35802 3.432 0
M  V30 53397 H 5257.18 0.331272 5.33673 0
M  V30 53398 H 5257.52 -0.831162 4.07918 0
M  V30 53399 H 5258.05 0.856446 3.88471 0
M  V30 53400 H 5254.79 3.24563 5.69508 0
M  V30 53401 H 5254.31 1.53614 5.79795 0
M  V30 53402 H 5255.99 2.01678 6.14764 0
M  V30 53403 N 5256.12 -1.48042 0.540482 0
M  V30 53404 C 5257.35 -2.07396 0.0125494 0
M  V30 53405 C 5257.77 -1.39292 -1.26409 0
M  V30 53406 O 5257.13 -0.462314 -1.75306 0
M  V30 53407 C 5257.18 -3.60132 -0.183643 0
M  V30 53408 O 5256.28 -3.93 -1.25 0
M  V30 53409 H 5255.62 -0.662552 0.0438259 0
M  V30 53410 H 5258.15 -1.90303 0.751394 0
M  V30 53411 H 5258.16 -4.06004 -0.403054 0
M  V30 53412 H 5256.84 -4.09102 0.748883 0
M  V30 53413 H 5255.42 -3.58894 -1.01242 0
M  V30 53414 N 5257.6 -0.276112 -1.55162 0
M  V30 53415 C 5258.85 0.341028 -1.98796 0
M  V30 53416 C 5259.16 1.56901 -1.16796 0
M  V30 53417 O 5260.37 2.25917 -1.50579 0
M  V30 53418 C 5258.83 0.658106 -3.53832 0
M  V30 53419 C 5258.43 -0.550128 -4.44609 0
M  V30 53420 C 5260.18 1.23782 -4.06052 0
M  V30 53421 C 5258.08 -0.207581 -5.91036 0
M  V30 53422 H 5257.01 0.131198 -0.742498 0
M  V30 53423 H 5259.67 -0.380921 -1.79503 0
M  V30 53424 H 5258.05 1.43898 -3.6893 0
M  V30 53425 H 5259.22 -1.32697 -4.4128 0
M  V30 53426 H 5257.54 -1.04675 -4.03029 0
M  V30 53427 H 5260.13 1.50793 -5.12997 0
M  V30 53428 H 5260.48 2.17202 -3.55147 0
M  V30 53429 H 5261.01 0.519206 -3.94397 0
M  V30 53430 H 5257.75 -1.10968 -6.46039 0
M  V30 53431 H 5257.27 0.532477 -5.97432 0
M  V30 53432 H 5258.95 0.199845 -6.46691 0
M  V30 53433 N 5259.08 1.576 -0.00340966 0
M  V30 53434 C 5260.36 1.81947 0.717951 0
M  V30 53435 C 5260.74 0.881856 1.91798 0
M  V30 53436 O 5260.08 -0.0686315 2.28397 0
M  V30 53437 C 5260.29 3.30525 1.12046 0
M  V30 53438 C 5261.64 3.9635 1.52289 0
M  V30 53439 O 5262.67 3.34868 1.21416 0
M  V30 53440 O 5261.53 5.04662 2.09711 0
M  V30 53441 H 5258.62 0.74934 0.349883 0
M  V30 53442 H 5261.17 1.69675 -0.029125 0
M  V30 53443 H 5259.94 3.904 0.265241 0
M  V30 53444 H 5259.56 3.47808 1.92653 0
M  V30 53445 N 5260.56 -0.269396 1.5528 0
M  V30 53446 C 5261.83 -1.02201 1.66776 0
M  V30 53447 C 5262.21 -2.04166 0.536607 0
M  V30 53448 O 5261.56 -2.23763 -0.462877 0
M  V30 53449 C 5261.77 -1.67558 3.06146 0
M  V30 53450 C 5263.12 -2.18586 3.64013 0
M  V30 53451 O 5264.14 -1.77539 3.08802 0
M  V30 53452 O 5263 -2.93887 4.60752 0
M  V30 53453 H 5260.1 -0.47429 0.677479 0
M  V30 53454 H 5262.64 -0.264967 1.67619 0
M  V30 53455 H 5261.42 -0.936895 3.79918 0
M  V30 53456 H 5261.04 -2.4994 3.09218 0
M  V30 53457 N 5262.04 -1.48275 -0.534071 0
M  V30 53458 C 5263.45 -1.49671 -1.11605 0
M  V30 53459 C 5263.8 -0.264207 -1.94413 0
M  V30 53460 O 5262.92 0.629011 -2.07057 0
M  V30 53461 C 5263.52 -2.71198 -2.03069 0
M  V30 53462 C 5262.08 -2.75479 -2.56493 0
M  V30 53463 C 5261.22 -2.43124 -1.33364 0
M  V30 53464 H 5264.17 -1.5545 -0.319524 0
M  V30 53465 H 5264.2 -2.49483 -2.87295 0
M  V30 53466 H 5263.71 -3.60884 -1.42773 0
M  V30 53467 H 5261.81 -1.8999 -3.20522 0
M  V30 53468 H 5261.92 -3.76798 -2.95906 0
M  V30 53469 H 5260.29 -1.94193 -1.64807 0
M  V30 53470 H 5261.07 -3.35046 -0.748257 0
M  V30 53471 N 5263.51 0.782628 -1.36794 0
M  V30 53472 C 5264.76 1.53774 -1.31141 0
M  V30 53473 C 5265.08 1.94707 0.106945 0
M  V30 53474 O 5264.35 1.65468 1.04867 0
M  V30 53475 H 5262.93 0.570311 -0.482446 0
M  V30 53476 H 5265.6 0.93212 -1.71165 0
M  V30 53477 H 5264.69 2.44218 -1.9433 0
M  V30 53478 N 5264.99 1.21185 1.00757 0
M  V30 53479 C 5266.27 0.936357 1.71732 0
M  V30 53480 C 5266.65 -0.552513 2.03741 0
M  V30 53481 O 5266 -1.51666 1.70909 0
M  V30 53482 C 5266.21 1.81878 2.97862 0
M  V30 53483 C 5267.56 2.06607 3.70943 0
M  V30 53484 O 5268.58 1.79205 3.07838 0
M  V30 53485 O 5267.44 2.52937 4.84443 0
M  V30 53486 H 5264.53 0.350893 0.748868 0
M  V30 53487 H 5267.08 1.32102 1.06523 0
M  V30 53488 H 5265.85 2.82653 2.70597 0
M  V30 53489 H 5265.47 1.43476 3.7081 0
M  V30 53490 N 5266.47 -1.20209 1.01919 0
M  V30 53491 C 5267.71 -1.91352 0.718597 0
M  V30 53492 C 5268.07 -1.77233 -0.738404 0
M  V30 53493 O 5269.28 -2.4288 -1.15163 0
M  V30 53494 C 5267.55 -3.38548 1.14541 0
M  V30 53495 S 5269.11 -4.28008 0.967188 0
M  V30 53496 H 5265.92 -0.661006 0.261902 0
M  V30 53497 H 5268.53 -1.45389 1.30699 0
M  V30 53498 H 5267.23 -3.46346 2.20165 0
M  V30 53499 H 5266.76 -3.89538 0.549903 0
M  V30 53500 H 5268.78 -4.96035 -0.1278 0
M  V30 53501 N 5267.95 -0.795765 -1.36034 0
M  V30 53502 C 5269.19 -0.371644 -1.99366 0
M  V30 53503 C 5269.53 1.05564 -1.63003 0
M  V30 53504 O 5268.8 1.73048 -0.887956 0
M  V30 53505 C 5269.09 -0.542747 -3.55986 0
M  V30 53506 C 5268.94 -2.01418 -4.02182 0
M  V30 53507 C 5270.26 0.038298 -4.40083 0
M  V30 53508 H 5267.38 -0.136509 -0.724247 0
M  V30 53509 H 5270.02 -1.00329 -1.61351 0
M  V30 53510 H 5268.17 -0.00504188 -3.885 0
M  V30 53511 H 5269.84 -2.61344 -3.80128 0
M  V30 53512 H 5268.08 -2.51452 -3.53489 0
M  V30 53513 H 5268.75 -2.08484 -5.11115 0
M  V30 53514 H 5271.23 -0.42078 -4.13967 0
M  V30 53515 H 5270.11 -0.111407 -5.48787 0
M  V30 53516 H 5270.37 1.13101 -4.27388 0
M  V30 53517 N 5269.43 1.47754 -0.548326 0
M  V30 53518 C 5270.36 2.27922 0.24169 0
M  V30 53519 C 5271.37 1.36475 0.88761 0
M  V30 53520 O 5272.56 1.61373 0.762959 0
M  V30 53521 C 5269.66 3.10454 1.35911 0
M  V30 53522 C 5268.83 4.29803 0.811657 0
M  V30 53523 C 5267.89 4.94 1.81246 0
M  V30 53524 O 5266.92 5.52662 1.3621 0
M  V30 53525 N 5268.12 4.87893 3.14548 0
M  V30 53526 H 5270.89 2.96364 -0.445952 0
M  V30 53527 H 5268.45 1.57284 -0.383825 0
M  V30 53528 H 5270.44 3.50268 2.02717 0
M  V30 53529 H 5269.01 2.44313 1.95012 0
M  V30 53530 H 5268.23 3.94186 -0.0329315 0
M  V30 53531 H 5269.52 5.07021 0.425094 0
M  V30 53532 H 5268.91 4.41418 3.5379 0
M  V30 53533 H 5267.47 5.31753 3.76937 0
M  V30 53534 N 5270.9 0.284337 1.55014 0
M  V30 53535 C 5271.85 -0.615012 2.24322 0
M  V30 53536 C 5272.85 -1.15046 1.24341 0
M  V30 53537 O 5274.05 -1.10303 1.42244 0
M  V30 53538 H 5270.43 -0.216901 0.72004 0
M  V30 53539 H 5272.4 -0.00772726 2.98399 0
M  V30 53540 C 5271.15 -1.78344 2.98477 0
M  V30 53541 H 5270.47 -1.38063 3.75205 0
M  V30 53542 H 5271.91 -2.38915 3.5028 0
M  V30 53543 C 5270.37 -2.6775 2.04479 0
M  V30 53544 O 5270.9 -3.68374 1.60198 0
M  V30 53545 N 5269.11 -2.35119 1.70784 0
M  V30 53546 H 5268.65 -1.53339 2.0699 0
M  V30 53547 H 5268.61 -2.95208 1.08163 0
M  V30 53548 N 5272.38 -1.57596 0.0117675 0
M  V30 53549 C 5273.61 -1.95079 -0.680277 0
M  V30 53550 C 5274.02 -0.885852 -1.6718 0
M  V30 53551 O 5273.36 0.142659 -1.83145 0
M  V30 53552 C 5273.43 -3.28616 -1.4578 0
M  V30 53553 C 5273.09 -4.52685 -0.626547 0
M  V30 53554 C 5274.09 -5.19821 0.0908051 0
M  V30 53555 C 5271.77 -4.99066 -0.569053 0
M  V30 53556 C 5273.77 -6.31646 0.854511 0
M  V30 53557 C 5271.45 -6.10778 0.19837 0
M  V30 53558 C 5272.45 -6.76926 0.908874 0
M  V30 53559 O 5272.14 -7.86495 1.66375 0
M  V30 53560 H 5271.87 -0.64767 -0.193649 0
M  V30 53561 H 5274.42 -2.05305 0.062569 0
M  V30 53562 H 5272.65 -3.14832 -2.24539 0
M  V30 53563 H 5274.34 -3.51126 -2.0363 0
M  V30 53564 H 5275.11 -4.84968 0.0556126 0
M  V30 53565 H 5270.99 -4.47397 -1.11162 0
M  V30 53566 H 5274.53 -6.8321 1.40961 0
M  V30 53567 H 5270.43 -6.45071 0.235341 0
M  V30 53568 H 5271.2 -8.03072 1.5817 0
M  V30 53569 N 5273.86 0.261157 -1.55421 0
M  V30 53570 C 5274.79 1.32705 -1.92124 0
M  V30 53571 C 5275.77 1.50931 -0.784459 0
M  V30 53572 O 5276.96 1.63777 -1.04358 0
M  V30 53573 C 5274.09 2.68445 -2.20351 0
M  V30 53574 C 5273.04 2.64935 -3.36145 0
M  V30 53575 C 5272.37 4.04337 -3.4988 0
M  V30 53576 C 5273.67 2.23166 -4.72223 0
M  V30 53577 H 5275.36 1.02235 -2.81404 0
M  V30 53578 H 5272.91 0.490358 -1.35394 0
M  V30 53579 H 5274.86 3.43135 -2.44615 0
M  V30 53580 H 5273.58 3.00523 -1.27881 0
M  V30 53581 H 5272.24 1.92703 -3.11867 0
M  V30 53582 H 5271.89 4.33656 -2.54856 0
M  V30 53583 H 5271.59 4.0288 -4.2774 0
M  V30 53584 H 5273.11 4.80748 -3.76449 0
M  V30 53585 H 5274.53 2.87582 -4.95953 0
M  V30 53586 H 5272.93 2.32848 -5.53084 0
M  V30 53587 H 5274 1.1831 -4.70245 0
M  V30 53588 N 5275.34 1.48556 0.526201 0
M  V30 53589 C 5276.57 1.60434 1.30647 0
M  V30 53590 C 5276.98 0.266029 1.86916 0
M  V30 53591 O 5276.34 -0.745203 1.66592 0
M  V30 53592 C 5276.39 2.65386 2.45464 0
M  V30 53593 O 5276.11 3.94023 1.91513 0
M  V30 53594 C 5277.61 2.87738 3.37227 0
M  V30 53595 H 5274.83 0.540831 0.397168 0
M  V30 53596 H 5277.38 1.94411 0.634392 0
M  V30 53597 H 5275.53 2.34257 3.08549 0
M  V30 53598 H 5275.94 4.51633 2.66699 0
M  V30 53599 H 5277.42 3.64965 4.14131 0
M  V30 53600 H 5277.9 1.96702 3.92689 0
M  V30 53601 H 5278.5 3.20186 2.79931 0
M  V30 53602 N 5276.82 -0.775363 1.37207 0
M  V30 53603 C 5277.75 -1.90253 1.35374 0
M  V30 53604 C 5278.73 -1.68633 0.222923 0
M  V30 53605 O 5279.91 -1.89543 0.422726 0
M  V30 53606 C 5277.04 -3.27484 1.15634 0
M  V30 53607 C 5276 -3.6366 2.25689 0
M  V30 53608 C 5275.32 -4.99393 1.91077 0
M  V30 53609 C 5276.62 -3.70784 3.67854 0
M  V30 53610 H 5278.32 -1.92045 2.29693 0
M  V30 53611 H 5275.86 -0.922558 1.10566 0
M  V30 53612 H 5277.82 -4.05972 1.12982 0
M  V30 53613 H 5276.54 -3.26116 0.177687 0
M  V30 53614 H 5275.2 -2.87478 2.2749 0
M  V30 53615 H 5274.85 -4.94561 0.917498 0
M  V30 53616 H 5274.55 -5.24567 2.6477 0
M  V30 53617 H 5276.07 -5.80285 1.90005 0
M  V30 53618 H 5277.48 -4.39431 3.68203 0
M  V30 53619 H 5275.88 -4.07452 4.40571 0
M  V30 53620 H 5276.95 -2.71535 4.01742 0
M  V30 53621 N 5278.3 -1.21718 -1.00112 0
M  V30 53622 C 5279.53 -1.0613 -1.77257 0
M  V30 53623 C 5279.93 0.391652 -1.85102 0
M  V30 53624 O 5279.28 1.28342 -1.3143 0
M  V30 53625 C 5279.34 -1.5879 -3.22531 0
M  V30 53626 C 5279 -3.07301 -3.38253 0
M  V30 53627 C 5280 -4.04813 -3.26225 0
M  V30 53628 C 5277.68 -3.46587 -3.6357 0
M  V30 53629 C 5279.68 -5.39597 -3.39284 0
M  V30 53630 C 5277.37 -4.81522 -3.76271 0
M  V30 53631 C 5278.36 -5.77836 -3.64135 0
M  V30 53632 O 5278.05 -7.10323 -3.76425 0
M  V30 53633 H 5277.78 -0.372998 -0.56378 0
M  V30 53634 H 5280.34 -1.61594 -1.26794 0
M  V30 53635 H 5278.57 -0.97726 -3.74148 0
M  V30 53636 H 5280.26 -1.38987 -3.81363 0
M  V30 53637 H 5281.02 -3.75806 -3.06586 0
M  V30 53638 H 5276.9 -2.7215 -3.72096 0
M  V30 53639 H 5280.45 -6.14756 -3.29728 0
M  V30 53640 H 5276.34 -5.10214 -3.95414 0
M  V30 53641 H 5277.11 -7.17787 -3.93349 0
M  V30 53642 N 5279.77 1.19667 -1.02555 0
M  V30 53643 C 5281.05 1.85011 -0.634836 0
M  V30 53644 C 5281.43 1.91577 0.886639 0
M  V30 53645 O 5280.78 1.43028 1.782 0
M  V30 53646 C 5280.99 3.24163 -1.29304 0
M  V30 53647 C 5282.34 4.00358 -1.41416 0
M  V30 53648 O 5283.36 3.33549 -1.24995 0
M  V30 53649 O 5282.22 5.20024 -1.68038 0
M  V30 53650 H 5279.31 0.797139 -0.220224 0
M  V30 53651 H 5281.86 1.27184 -1.12349 0
M  V30 53652 H 5280.63 3.142 -2.33226 0
M  V30 53653 H 5280.25 3.89631 -0.792032 0
M  V30 53654 N 5281.25 0.802969 1.3561 0
M  V30 53655 C 5282.5 0.380892 1.98478 0
M  V30 53656 C 5282.82 -1.05458 1.64023 0
M  V30 53657 O 5282.09 -1.72905 0.920914 0
M  V30 53658 H 5280.67 0.137849 0.734171 0
M  V30 53659 H 5283.33 1.02801 1.65584 0
M  V30 53660 H 5282.43 0.483674 3.08329 0
M  V30 53661 N 5282.73 -1.47461 0.556154 0
M  V30 53662 C 5284.14 -1.86298 0.122494 0
M  V30 53663 C 5284.49 -1.46289 -1.30744 0
M  V30 53664 O 5283.62 -0.865475 -1.98339 0
M  V30 53665 C 5284.21 -3.38114 0.215526 0
M  V30 53666 C 5282.77 -3.76047 -0.163091 0
M  V30 53667 C 5281.92 -2.71513 0.563561 0
M  V30 53668 H 5284.87 -1.38993 0.765937 0
M  V30 53669 H 5284.89 -3.76265 -0.566139 0
M  V30 53670 H 5284.4 -3.67202 1.25635 0
M  V30 53671 H 5282.5 -3.52575 -1.20507 0
M  V30 53672 H 5282.62 -4.78704 0.194736 0
M  V30 53673 H 5280.98 -2.54699 0.00676833 0
M  V30 53674 H 5281.76 -3.03443 1.60552 0
M  V30 53675 N 5284.21 -0.292554 -1.54861 0
M  V30 53676 C 5285.16 0.603107 -2.24645 0
M  V30 53677 C 5286.15 1.14385 -1.2495 0
M  V30 53678 O 5287.36 1.09547 -1.42827 0
M  V30 53679 H 5283.73 0.21308 -0.72118 0
M  V30 53680 H 5285.7 -0.00809768 -2.98399 0
M  V30 53681 C 5284.45 1.76759 -2.99419 0
M  V30 53682 H 5283.77 1.36071 -3.75932 0
M  V30 53683 H 5285.21 2.37054 -3.51542 0
M  V30 53684 C 5283.67 2.66662 -2.05896 0
M  V30 53685 O 5284.2 3.6752 -1.62149 0
M  V30 53686 N 5282.41 2.3421 -1.72029 0
M  V30 53687 H 5281.96 1.52239 -2.078 0
M  V30 53688 H 5281.91 2.94631 -1.09727 0
M  V30 53689 N 5285.69 1.57587 -0.020125 0
M  V30 53690 C 5286.65 2.08599 0.949693 0
M  V30 53691 C 5287.65 0.999259 1.25982 0
M  V30 53692 O 5288.84 1.26119 1.20165 0
M  V30 53693 C 5285.97 2.54432 2.26886 0
M  V30 53694 H 5287.16 2.95565 0.508058 0
M  V30 53695 H 5284.72 1.54632 0.227744 0
M  V30 53696 H 5285.45 1.70768 2.75697 0
M  V30 53697 H 5285.24 3.33817 2.05691 0
M  V30 53698 H 5286.73 2.94154 2.96417 0
M  V30 53699 N 5287.16 -0.252911 1.55557 0
M  V30 53700 C 5288.39 -1.00373 1.81494 0
M  V30 53701 C 5288.81 -1.78395 0.59638 0
M  V30 53702 O 5288.17 -1.75511 -0.454474 0
M  V30 53703 C 5288.22 -1.92209 3.05103 0
M  V30 53704 O 5287.32 -3.01292 2.81597 0
M  V30 53705 H 5286.66 -0.285928 0.599284 0
M  V30 53706 H 5289.19 -0.275724 2.02734 0
M  V30 53707 H 5289.2 -2.33788 3.34376 0
M  V30 53708 H 5287.88 -1.34838 3.93436 0
M  V30 53709 H 5286.46 -2.63885 2.63476 0
M  V30 53710 N 5288.64 -1.48833 -0.518315 0
M  V30 53711 C 5289.87 -1.61384 -1.30269 0
M  V30 53712 C 5290.29 -0.278636 -1.86025 0
M  V30 53713 O 5289.65 0.751369 -1.64997 0
M  V30 53714 C 5289.7 -2.67234 -2.42112 0
M  V30 53715 O 5288.8 -2.25204 -3.45481 0
M  V30 53716 H 5288.14 -0.540756 -0.38533 0
M  V30 53717 H 5290.67 -1.94902 -0.62243 0
M  V30 53718 H 5290.68 -2.88869 -2.8813 0
M  V30 53719 H 5289.36 -3.64163 -2.00894 0
M  V30 53720 H 5287.93 -2.1383 -3.05502 0
M  V30 53721 N 5290.12 0.768075 -1.37617 0
M  V30 53722 C 5291.53 1.34458 -1.2953 0
M  V30 53723 C 5291.88 1.96122 0.0554479 0
M  V30 53724 O 5291.01 1.94072 0.957337 0
M  V30 53725 C 5291.6 2.44466 -2.34567 0
M  V30 53726 C 5290.16 2.97875 -2.30103 0
M  V30 53727 C 5289.31 1.71124 -2.18202 0
M  V30 53728 H 5292.26 0.568051 -1.48185 0
M  V30 53729 H 5292.28 3.2404 -1.99445 0
M  V30 53730 H 5291.79 1.99556 -3.32865 0
M  V30 53731 H 5289.89 3.47151 -1.35341 0
M  V30 53732 H 5290.01 3.53239 -3.23665 0
M  V30 53733 H 5288.37 1.94191 -1.64809 0
M  V30 53734 H 5289.15 1.28312 -3.18419 0
M  V30 53735 N 5291.6 1.22247 0.994655 0
M  V30 53736 C 5292.82 1.07306 1.77483 0
M  V30 53737 C 5293.25 -0.372237 1.8438 0
M  V30 53738 O 5292.61 -1.26886 1.29498 0
M  V30 53739 C 5292.65 1.68686 3.18712 0
M  V30 53740 O 5291.76 0.939343 4.0156 0
M  V30 53741 H 5291.1 0.376998 0.546597 0
M  V30 53742 H 5293.63 1.62007 1.24959 0
M  V30 53743 H 5293.64 1.73337 3.69348 0
M  V30 53744 H 5292.31 2.7386 3.13007 0
M  V30 53745 H 5290.89 0.96871 3.60098 0
M  V30 53746 N 5293.08 -1.19122 1.03188 0
M  V30 53747 C 5294.3 -1.93376 0.749696 0
M  V30 53748 C 5294.73 -1.75156 -0.685723 0
M  V30 53749 O 5294.08 -1.05584 -1.47383 0
M  V30 53750 C 5294.13 -3.43097 1.10982 0
M  V30 53751 O 5293.24 -4.11757 0.230197 0
M  V30 53752 H 5292.58 -0.603595 0.27671 0
M  V30 53753 H 5295.11 -1.51112 1.37936 0
M  V30 53754 H 5295.12 -3.93774 1.06799 0
M  V30 53755 H 5293.79 -3.5568 2.15556 0
M  V30 53756 H 5292.37 -3.71429 0.330878 0
M  V30 53757 N 5294.55 -0.810149 -1.35183 0
M  V30 53758 C 5295.8 -0.391412 -1.98273 0
M  V30 53759 C 5296.12 1.04586 -1.6458 0
M  V30 53760 O 5295.39 1.72414 -0.930071 0
M  V30 53761 H 5293.97 -0.141741 -0.733429 0
M  V30 53762 H 5296.64 -1.03677 -1.65036 0
M  V30 53763 H 5295.73 -0.500018 -3.08069 0
M  V30 53764 N 5296.03 1.47164 -0.563966 0
M  V30 53765 C 5297.44 1.8623 -0.132372 0
M  V30 53766 C 5297.79 1.46981 1.29966 0
M  V30 53767 O 5296.92 0.875981 1.97878 0
M  V30 53768 C 5297.51 3.37995 -0.233454 0
M  V30 53769 C 5296.07 3.76128 0.143146 0
M  V30 53770 C 5295.22 2.7121 -0.577953 0
M  V30 53771 H 5298.17 1.38585 -0.773297 0
M  V30 53772 H 5298.19 3.7656 0.546177 0
M  V30 53773 H 5297.7 3.66531 -1.27581 0
M  V30 53774 H 5295.81 3.53209 1.18635 0
M  V30 53775 H 5295.92 4.78594 -0.22012 0
M  V30 53776 H 5294.28 2.54692 -0.0202755 0
M  V30 53777 H 5295.07 3.02588 -1.62159 0
M  V30 53778 N 5297.51 0.300763 1.54704 0
M  V30 53779 C 5298.74 -0.310747 2.0425 0
M  V30 53780 C 5299.15 -1.48086 1.17759 0
M  V30 53781 O 5298.49 -1.82653 0.195843 0
M  V30 53782 C 5298.55 -0.830017 3.49787 0
M  V30 53783 C 5298.22 0.214788 4.56495 0
M  V30 53784 C 5299.21 1.04316 5.09327 0
M  V30 53785 C 5296.9 0.356418 5.01034 0
M  V30 53786 C 5298.89 1.9991 6.05239 0
M  V30 53787 C 5296.58 1.31581 5.96766 0
M  V30 53788 C 5297.58 2.13563 6.48753 0
M  V30 53789 O 5297.27 3.07875 7.42609 0
M  V30 53790 H 5297 -0.0715105 0.672207 0
M  V30 53791 H 5299.55 0.43825 2.0067 0
M  V30 53792 H 5297.78 -1.62953 3.50689 0
M  V30 53793 H 5299.47 -1.35739 3.82531 0
M  V30 53794 H 5300.24 0.944606 4.75712 0
M  V30 53795 H 5296.12 -0.271754 4.60198 0
M  V30 53796 H 5299.66 2.63939 6.45741 0
M  V30 53797 H 5295.56 1.41508 6.29798 0
M  V30 53798 H 5296.33 3.02851 7.6041 0
M  V30 53799 N 5298.99 -1.57574 0.028482 0
M  V30 53800 C 5300.23 -1.93639 -0.654462 0
M  V30 53801 C 5300.59 -0.905075 -1.69329 0
M  V30 53802 O 5301.79 -1.1519 -2.42868 0
M  V30 53803 C 5300.06 -3.34624 -1.25544 0
M  V30 53804 S 5301.62 -3.92616 -1.95954 0
M  V30 53805 H 5298.44 -0.677557 -0.215492 0
M  V30 53806 H 5301.04 -1.95283 0.0919943 0
M  V30 53807 H 5299.75 -4.07501 -0.486925 0
M  V30 53808 H 5299.28 -3.36422 -2.03921 0
M  V30 53809 H 5301.29 -3.75999 -3.23788 0
M  V30 53810 N 5300.47 0.244658 -1.55689 0
M  V30 53811 C 5301.71 0.970462 -1.77275 0
M  V30 53812 C 5302.04 1.85769 -0.592869 0
M  V30 53813 O 5301.31 1.91953 0.391255 0
M  V30 53814 H 5299.89 0.361319 -0.653802 0
M  V30 53815 H 5302.55 0.262066 -1.9313 0
M  V30 53816 H 5301.64 1.59087 -2.6851 0
M  V30 53817 N 5301.94 1.49106 0.510415 0
M  V30 53818 C 5303.19 1.57804 1.26262 0
M  V30 53819 C 5303.51 0.262417 1.93226 0
M  V30 53820 O 5302.78 -0.71756 1.82285 0
M  V30 53821 H 5301.36 0.581403 0.469019 0
M  V30 53822 H 5304.03 1.8568 0.592358 0
M  V30 53823 H 5303.12 2.36926 2.03156 0
M  V30 53824 N 5303.42 -0.760766 1.38022 0
M  V30 53825 C 5304.7 -1.50975 1.24362 0
M  V30 53826 C 5305.08 -2.10507 -0.158095 0
M  V30 53827 O 5304.43 -1.96459 -1.16688 0
M  V30 53828 C 5304.64 -2.58187 2.34821 0
M  V30 53829 C 5305.99 -3.25288 2.72897 0
M  V30 53830 O 5307.01 -2.68488 2.34079 0
M  V30 53831 O 5305.87 -4.28006 3.39814 0
M  V30 53832 H 5302.96 -0.669193 0.485911 0
M  V30 53833 H 5305.51 -0.796791 1.49831 0
M  V30 53834 H 5304.28 -2.12394 3.2864 0
M  V30 53835 H 5303.9 -3.37072 2.10876 0
M  V30 53836 N 5304.9 -1.22773 -0.988158 0
M  V30 53837 C 5306.13 -1.08161 -1.76377 0
M  V30 53838 C 5306.54 0.367507 -1.85189 0
M  V30 53839 O 5305.9 1.25451 -1.32546 0
M  V30 53840 C 5305.95 -1.69204 -3.19456 0
M  V30 53841 O 5305.67 -3.08448 -3.11114 0
M  V30 53842 C 5307.17 -1.5993 -4.13446 0
M  V30 53843 H 5304.39 -0.378928 -0.553764 0
M  V30 53844 H 5306.94 -1.62464 -1.242 0
M  V30 53845 H 5305.09 -1.18952 -3.68686 0
M  V30 53846 H 5305.51 -3.3793 -4.01128 0
M  V30 53847 H 5306.98 -2.07357 -5.11573 0
M  V30 53848 H 5307.46 -0.556699 -4.35658 0
M  V30 53849 H 5308.06 -2.0951 -3.70116 0
M  V30 53850 N 5306.38 1.18573 -1.03818 0
M  V30 53851 C 5307.6 1.92976 -0.759941 0
M  V30 53852 C 5308.03 1.75517 0.676424 0
M  V30 53853 O 5307.39 1.06364 1.46821 0
M  V30 53854 C 5307.43 3.42503 -1.128 0
M  V30 53855 O 5306.54 4.11629 -0.252031 0
M  V30 53856 H 5305.88 0.602119 -0.279908 0
M  V30 53857 H 5308.41 1.50378 -1.38736 0
M  V30 53858 H 5308.42 3.93202 -1.08886 0
M  V30 53859 H 5307.1 3.54532 -2.17439 0
M  V30 53860 H 5305.67 3.71248 -0.350572 0
M  V30 53861 N 5307.86 0.817307 1.34751 0
M  V30 53862 C 5309.11 0.399149 1.97711 0
M  V30 53863 C 5309.42 -1.04197 1.65537 0
M  V30 53864 O 5310.63 -1.56376 2.21943 0
M  V30 53865 C 5309.08 0.662758 3.53745 0
M  V30 53866 C 5308.69 2.11713 3.94819 0
M  V30 53867 C 5310.43 0.310489 4.23363 0
M  V30 53868 C 5308.34 2.32592 5.43742 0
M  V30 53869 H 5307.27 0.145514 0.739825 0
M  V30 53870 H 5309.92 1.00287 1.53671 0
M  V30 53871 H 5308.3 -0.011058 3.95998 0
M  V30 53872 H 5309.48 2.82964 3.63687 0
M  V30 53873 H 5307.79 2.43029 3.38121 0
M  V30 53874 H 5310.39 0.444398 5.3285 0
M  V30 53875 H 5310.73 -0.74445 4.0959 0
M  V30 53876 H 5311.27 0.938654 3.86567 0
M  V30 53877 H 5308 3.36571 5.62495 0
M  V30 53878 H 5307.52 1.65878 5.76407 0
M  V30 53879 H 5309.2 2.14672 6.10348 0
M  V30 53880 N 5309.34 -1.46863 0.571763 0
M  V30 53881 C 5310.3 -2.28659 -0.157419 0
M  V30 53882 C 5311.3 -1.37776 -0.829124 0
M  V30 53883 O 5312.49 -1.60263 -0.682754 0
M  V30 53884 C 5309.62 -3.17863 -1.23191 0
M  V30 53885 H 5310.81 -2.94601 0.561274 0
M  V30 53886 H 5308.37 -1.52792 0.329283 0
M  V30 53887 H 5309.1 -2.56644 -1.98253 0
M  V30 53888 H 5308.89 -3.84765 -0.754896 0
M  V30 53889 H 5310.38 -3.79456 -1.74365 0
M  V30 53890 N 5310.81 -0.308963 -1.54542 0
M  V30 53891 C 5312.22 0.182078 -1.8581 0
M  V30 53892 C 5312.58 1.52792 -1.23082 0
M  V30 53893 O 5311.7 2.09773 -0.531432 0
M  V30 53894 C 5312.3 0.337156 -3.37118 0
M  V30 53895 C 5310.85 0.772416 -3.68389 0
M  V30 53896 C 5310 -0.114548 -2.77063 0
M  V30 53897 H 5312.95 -0.529723 -1.49598 0
M  V30 53898 H 5312.97 1.17045 -3.62051 0
M  V30 53899 H 5312.49 -0.642517 -3.82744 0
M  V30 53900 H 5310.59 1.76236 -3.28286 0
M  V30 53901 H 5310.7 0.586286 -4.75499 0
M  V30 53902 H 5309.06 0.407493 -2.51419 0
M  V30 53903 H 5309.85 -1.09072 -3.25512 0
M  V30 53904 N 5312.29 1.57557 -0.0368381 0
M  V30 53905 C 5313.54 1.92117 0.640117 0
M  V30 53906 C 5313.87 0.913948 1.71689 0
M  V30 53907 O 5313.12 -0.0759656 1.95553 0
M  V30 53908 C 5313.42 3.33391 1.28783 0
M  V30 53909 C 5313.09 4.49611 0.340661 0
M  V30 53910 C 5311.75 4.81134 0.0799883 0
M  V30 53911 C 5314.1 5.20282 -0.309289 0
M  V30 53912 C 5311.43 5.8068 -0.838311 0
M  V30 53913 C 5313.78 6.20809 -1.21569 0
M  V30 53914 C 5312.44 6.50768 -1.48518 0
M  V30 53915 H 5311.71 0.703004 0.234235 0
M  V30 53916 H 5314.36 1.91237 -0.100255 0
M  V30 53917 H 5312.67 3.30569 2.10313 0
M  V30 53918 H 5314.36 3.57406 1.8183 0
M  V30 53919 H 5310.95 4.25004 0.554012 0
M  V30 53920 H 5315.14 4.96153 -0.120969 0
M  V30 53921 H 5310.39 6.02234 -1.05472 0
M  V30 53922 H 5314.57 6.74686 -1.72546 0
M  V30 53923 H 5312.19 7.27719 -2.19839 0
M  V30 53924 N 5313.77 -0.236398 1.55817 0
M  V30 53925 C 5315.02 -0.964376 1.78403 0
M  V30 53926 C 5315.35 -1.84571 0.603933 0
M  V30 53927 O 5314.62 -1.90397 -0.397406 0
M  V30 53928 C 5314.91 -1.81597 3.10957 0
M  V30 53929 C 5314.76 -0.962129 4.39389 0
M  V30 53930 C 5316.08 -2.79653 3.39826 0
M  V30 53931 H 5313.2 -0.349169 0.649038 0
M  V30 53932 H 5315.84 -0.23418 1.88551 0
M  V30 53933 H 5313.99 -2.43853 3.02437 0
M  V30 53934 H 5315.66 -0.357458 4.59913 0
M  V30 53935 H 5313.9 -0.266909 4.32978 0
M  V30 53936 H 5314.58 -1.59203 5.28544 0
M  V30 53937 H 5317.05 -2.27534 3.48378 0
M  V30 53938 H 5315.93 -3.36352 4.33772 0
M  V30 53939 H 5316.19 -3.56647 2.61257 0
M  V30 53940 N 5315.25 -1.49374 -0.5025 0
M  V30 53941 C 5316.21 -1.65418 -1.58649 0
M  V30 53942 C 5317.21 -0.526056 -1.51952 0
M  V30 53943 O 5318.4 -0.792476 -1.5513 0
M  V30 53944 C 5315.53 -1.65015 -2.983 0
M  V30 53945 H 5316.73 -2.621 -1.45752 0
M  V30 53946 H 5314.28 -1.38383 -0.726624 0
M  V30 53947 H 5315.01 -0.699125 -3.16674 0
M  V30 53948 H 5314.8 -2.46941 -3.04569 0
M  V30 53949 H 5316.29 -1.7949 -3.77059 0
M  V30 53950 N 5316.73 0.753436 -1.38424 0
M  V30 53951 C 5317.95 1.54778 -1.38052 0
M  V30 53952 C 5318.38 1.8808 0.027571 0
M  V30 53953 O 5317.73 1.50583 1.00967 0
M  V30 53954 C 5317.78 2.82345 -2.24307 0
M  V30 53955 O 5316.89 3.77503 -1.66027 0
M  V30 53956 H 5316.23 0.468135 -0.470899 0
M  V30 53957 H 5318.76 0.93108 -1.82187 0
M  V30 53958 H 5318.77 3.31268 -2.38171 0
M  V30 53959 H 5317.44 2.57437 -3.26648 0
M  V30 53960 H 5316.02 3.36207 -1.61306 0
M  V30 53961 N 5318.2 1.23295 0.981634 0
M  V30 53962 C 5319.43 1.09182 1.76335 0
M  V30 53963 C 5319.85 -0.352661 1.84764 0
M  V30 53964 O 5319.21 -1.25505 1.30837 0
M  V30 53965 C 5319.26 1.72057 3.16905 0
M  V30 53966 O 5318.36 0.981881 4.00541 0
M  V30 53967 H 5317.7 0.382774 0.542568 0
M  V30 53968 H 5320.23 1.63324 1.23234 0
M  V30 53969 H 5320.24 1.77245 3.67489 0
M  V30 53970 H 5318.92 2.77165 3.10085 0
M  V30 53971 H 5317.5 1.00685 3.5905 0
M  V30 53972 N 5319.68 -1.1802 1.04446 0
M  V30 53973 C 5320.63 -2.23831 0.632636 0
M  V30 53974 C 5321.62 -1.65903 -0.34243 0
M  V30 53975 O 5322.83 -1.78779 -0.209307 0
M  V30 53976 H 5319.2 -0.728538 0.186379 0
M  V30 53977 H 5321.18 -2.55871 1.53534 0
M  V30 53978 C 5319.92 -3.47697 0.0154883 0
M  V30 53979 H 5319.25 -3.92571 0.756842 0
M  V30 53980 H 5320.69 -4.23346 -0.235392 0
M  V30 53981 C 5319.15 -3.13421 -1.23568 0
M  V30 53982 O 5319.68 -3.27507 -2.32599 0
M  V30 53983 N 5317.88 -2.67712 -1.13043 0
M  V30 53984 H 5317.43 -2.5645 -0.243186 0
M  V30 53985 H 5317.39 -2.4515 -1.96847 0
M  V30 53986 N 5321.16 -0.824441 -1.34316 0
M  V30 53987 C 5322.09 -0.204885 -2.28282 0
M  V30 53988 C 5323.11 0.606109 -1.51097 0
M  V30 53989 O 5324.29 0.435541 -1.73105 0
M  V30 53990 C 5321.39 0.731274 -3.30916 0
M  V30 53991 C 5320.57 -0.037226 -4.37384 0
M  V30 53992 C 5319.63 0.820089 -5.1977 0
M  V30 53993 O 5318.65 0.264521 -5.68585 0
M  V30 53994 N 5319.85 2.13965 -5.39629 0
M  V30 53995 H 5322.62 -1.0122 -2.8209 0
M  V30 53996 H 5320.18 -0.681545 -1.46856 0
M  V30 53997 H 5322.17 1.30945 -3.8293 0
M  V30 53998 H 5320.74 1.43933 -2.77492 0
M  V30 53999 H 5319.96 -0.796714 -3.86065 0
M  V30 54000 H 5321.25 -0.566192 -5.0564 0
M  V30 54001 H 5320.65 2.61474 -5.01645 0
M  V30 54002 H 5319.21 2.66664 -5.94755 0
M  V30 54003 N 5322.64 1.46557 -0.579543 0
M  V30 54004 C 5323.88 2.02699 -0.0640076 0
M  V30 54005 C 5324.22 1.45045 1.29134 0
M  V30 54006 O 5323.49 0.614349 1.84543 0
M  V30 54007 C 5323.78 3.601 0.00515959 0
M  V30 54008 C 5323.63 4.28144 -1.37887 0
M  V30 54009 C 5324.95 4.34378 0.707384 0
M  V30 54010 H 5322.07 0.736585 -0.0247344 0
M  V30 54011 H 5324.71 1.74737 -0.746133 0
M  V30 54012 H 5322.86 3.84054 0.586071 0
M  V30 54013 H 5324.53 4.15463 -2.0047 0
M  V30 54014 H 5322.77 3.87629 -1.94746 0
M  V30 54015 H 5323.44 5.36883 -1.28297 0
M  V30 54016 H 5325.92 4.1555 0.213918 0
M  V30 54017 H 5324.8 5.44094 0.724801 0
M  V30 54018 H 5325.06 4.05206 1.76806 0
M  V30 54019 N 5324.12 0.317154 1.54376 0
M  V30 54020 C 5325.36 -0.287339 2.00451 0
M  V30 54021 C 5325.69 -1.52644 1.20541 0
M  V30 54022 O 5324.95 -1.93774 0.273899 0
M  V30 54023 C 5325.25 -0.672793 3.5101 0
M  V30 54024 C 5324.91 0.466403 4.48481 0
M  V30 54025 C 5323.57 0.7791 4.74851 0
M  V30 54026 C 5325.93 1.23194 5.06431 0
M  V30 54027 C 5323.25 1.86017 5.5643 0
M  V30 54028 C 5325.61 2.30304 5.89188 0
M  V30 54029 C 5324.27 2.62163 6.13862 0
M  V30 54030 H 5323.54 -0.105145 0.733502 0
M  V30 54031 H 5326.19 0.439604 1.86386 0
M  V30 54032 H 5324.49 -1.48007 3.62769 0
M  V30 54033 H 5326.19 -1.15196 3.84098 0
M  V30 54034 H 5322.78 0.212599 4.28072 0
M  V30 54035 H 5326.96 1.00361 4.86047 0
M  V30 54036 H 5322.22 2.11154 5.7378 0
M  V30 54037 H 5326.39 2.9007 6.33113 0
M  V30 54038 H 5324.02 3.46061 6.76865 0
M  V30 54039 N 5325.59 -1.57535 0.0451932 0
M  V30 54040 C 5326.84 -1.9163 -0.629348 0
M  V30 54041 C 5327.16 -0.924815 -1.72356 0
M  V30 54042 O 5328.36 -1.1576 -2.45585 0
M  V30 54043 C 5326.82 -3.40326 -1.17072 0
M  V30 54044 C 5326.43 -4.47868 -0.108944 0
M  V30 54045 C 5328.17 -3.83465 -1.82085 0
M  V30 54046 C 5326.08 -5.87673 -0.662866 0
M  V30 54047 H 5325.01 -0.715171 -0.238843 0
M  V30 54048 H 5327.66 -1.83151 0.113111 0
M  V30 54049 H 5326.04 -3.4379 -1.96531 0
M  V30 54050 H 5327.21 -4.55986 0.664361 0
M  V30 54051 H 5325.53 -4.14033 0.443373 0
M  V30 54052 H 5328.13 -4.85281 -2.24513 0
M  V30 54053 H 5328.47 -3.19389 -2.67014 0
M  V30 54054 H 5329 -3.82492 -1.09292 0
M  V30 54055 H 5325.74 -6.55331 0.148654 0
M  V30 54056 H 5325.26 -5.83129 -1.40429 0
M  V30 54057 H 5326.94 -6.36741 -1.14763 0
M  V30 54058 N 5327.07 0.228132 -1.5594 0
M  V30 54059 C 5328.02 1.28267 -1.91876 0
M  V30 54060 C 5328.99 1.46903 -0.775154 0
M  V30 54061 O 5330.17 1.6058 -1.03047 0
M  V30 54062 C 5327.31 2.62937 -2.23514 0
M  V30 54063 C 5326.43 2.52153 -3.50774 0
M  V30 54064 C 5325.56 3.79302 -3.71891 0
M  V30 54065 C 5324.6 3.63214 -4.92689 0
M  V30 54066 N 5323.74 4.82297 -5.10229 0
M  V30 54067 H 5328.58 0.96921 -2.81798 0
M  V30 54068 H 5326.12 0.467282 -1.39481 0
M  V30 54069 H 5328.07 3.41351 -2.39866 0
M  V30 54070 H 5326.7 2.92392 -1.36772 0
M  V30 54071 H 5325.76 1.65209 -3.42652 0
M  V30 54072 H 5327.07 2.36183 -4.39339 0
M  V30 54073 H 5326.22 4.6616 -3.88304 0
M  V30 54074 H 5324.96 3.98191 -2.81595 0
M  V30 54075 H 5323.97 2.74741 -4.76233 0
M  V30 54076 H 5325.19 3.45803 -5.84463 0
M  V30 54077 H 5323.14 5.01511 -4.22874 0
M  V30 54078 H 5323.05 4.69029 -5.92915 0
M  V30 54079 H 5324.32 5.706 -5.31071 0
M  V30 54080 N 5328.55 1.49639 0.494571 0
M  V30 54081 C 5329.8 1.5945 1.24828 0
M  V30 54082 C 5330.13 0.284095 1.92414 0
M  V30 54083 O 5329.38 -0.728455 1.81637 0
M  V30 54084 C 5329.68 2.70757 2.33293 0
M  V30 54085 C 5329.35 4.12041 1.83121 0
M  V30 54086 C 5328.01 4.50488 1.69157 0
M  V30 54087 C 5330.36 5.00438 1.45642 0
M  V30 54088 C 5327.69 5.75097 1.16104 0
M  V30 54089 C 5330.04 6.25571 0.940388 0
M  V30 54090 C 5328.7 6.62842 0.787199 0
M  V30 54091 H 5327.97 0.583468 0.456779 0
M  V30 54092 H 5330.62 1.83492 0.547979 0
M  V30 54093 H 5328.93 2.40711 3.09137 0
M  V30 54094 H 5330.62 2.75556 2.91325 0
M  V30 54095 H 5327.21 3.81697 1.9495 0
M  V30 54096 H 5331.4 4.71385 1.55275 0
M  V30 54097 H 5326.65 6.02668 1.02961 0
M  V30 54098 H 5330.83 6.93442 0.641224 0
M  V30 54099 H 5328.45 7.5928 0.373925 0
M  V30 54100 N 5330.03 -0.746085 1.38821 0
M  V30 54101 C 5330.98 -1.8508 1.33152 0
M  V30 54102 C 5331.96 -1.59465 0.214395 0
M  V30 54103 O 5333.15 -1.71158 0.451003 0
M  V30 54104 C 5330.28 -3.2288 1.16634 0
M  V30 54105 C 5329.37 -3.54361 2.33 0
M  V30 54106 N 5329.76 -3.5685 3.58457 0
M  V30 54107 C 5328.06 -3.84666 2.25716 0
M  V30 54108 C 5328.76 -3.85812 4.35344 0
M  V30 54109 N 5327.74 -4.03024 3.64791 0
M  V30 54110 H 5331.54 -1.85293 2.28131 0
M  V30 54111 H 5329.05 -0.943801 1.3216 0
M  V30 54112 H 5331.05 -4.01946 1.10656 0
M  V30 54113 H 5329.71 -3.23913 0.225955 0
M  V30 54114 H 5330.72 -3.38429 3.92028 0
M  V30 54115 H 5327.4 -3.9337 1.39878 0
M  V30 54116 H 5328.79 -3.94298 5.44039 0
M  V30 54117 N 5331.51 -1.23814 -0.975081 0
M  V30 54118 C 5332.47 -1.02512 -2.04997 0
M  V30 54119 C 5333.47 0.0149518 -1.60793 0
M  V30 54120 O 5334.66 -0.225307 -1.72737 0
M  V30 54121 C 5331.79 -0.552205 -3.36398 0
M  V30 54122 H 5332.98 -1.97908 -2.25328 0
M  V30 54123 H 5330.54 -1.05933 -1.14926 0
M  V30 54124 H 5331.27 0.405281 -3.21758 0
M  V30 54125 H 5331.06 -1.3028 -3.69824 0
M  V30 54126 H 5332.55 -0.423974 -4.15442 0
M  V30 54127 N 5332.98 1.17465 -1.0507 0
M  V30 54128 C 5334.26 1.83623 -0.673937 0
M  V30 54129 C 5334.64 1.93415 0.845803 0
M  V30 54130 O 5333.99 1.46776 1.75126 0
M  V30 54131 C 5334.2 3.21347 -1.36151 0
M  V30 54132 C 5335.55 3.97268 -1.49877 0
M  V30 54133 O 5336.57 3.30822 -1.32042 0
M  V30 54134 O 5335.43 5.16343 -1.79031 0
M  V30 54135 H 5332.52 0.792288 -0.237083 0
M  V30 54136 H 5335.07 1.24772 -1.15022 0
M  V30 54137 H 5333.84 3.09182 -2.39838 0
M  V30 54138 H 5333.47 3.87864 -0.8745 0
M  V30 54139 N 5334.46 0.831553 1.33877 0
M  V30 54140 C 5335.69 0.436363 2.01939 0
M  V30 54141 C 5336.1 -0.964922 1.62745 0
M  V30 54142 O 5335.44 -1.6373 0.832952 0
M  V30 54143 C 5335.51 0.468937 3.56428 0
M  V30 54144 C 5335.17 1.82506 4.18976 0
M  V30 54145 C 5336.17 2.7872 4.38875 0
M  V30 54146 C 5333.85 2.1159 4.5556 0
M  V30 54147 C 5335.85 4.02186 4.94495 0
M  V30 54148 C 5333.53 3.35313 5.1089 0
M  V30 54149 C 5334.53 4.30428 5.30302 0
M  V30 54150 O 5334.22 5.51965 5.84457 0
M  V30 54151 H 5333.95 0.172358 0.653658 0
M  V30 54152 H 5336.5 1.1236 1.71943 0
M  V30 54153 H 5334.73 -0.275043 3.85721 0
M  V30 54154 H 5336.42 0.0925945 4.05794 0
M  V30 54155 H 5337.19 2.57549 4.10967 0
M  V30 54156 H 5333.07 1.38353 4.39749 0
M  V30 54157 H 5336.61 4.76436 5.09563 0
M  V30 54158 H 5332.51 3.56345 5.38227 0
M  V30 54159 H 5333.28 5.53603 6.02881 0
M  V30 54160 N 5335.94 -1.46248 0.587307 0
M  V30 54161 C 5336.9 -2.28813 -0.133158 0
M  V30 54162 C 5337.9 -1.38647 -0.814464 0
M  V30 54163 O 5339.09 -1.60978 -0.665718 0
M  V30 54164 C 5336.23 -3.19152 -1.19813 0
M  V30 54165 H 5337.42 -2.93989 0.592489 0
M  V30 54166 H 5334.97 -1.52434 0.34547 0
M  V30 54167 H 5335.71 -2.58732 -1.9552 0
M  V30 54168 H 5335.49 -3.85544 -0.714044 0
M  V30 54169 H 5336.98 -3.81284 -1.7033 0
M  V30 54170 N 5337.42 -0.325336 -1.54205 0
M  V30 54171 C 5338.84 0.0272475 -1.59577 0
M  V30 54172 C 5339.04 1.50324 -1.34182 0
M  V30 54173 O 5338.09 2.25947 -1.12713 0
M  V30 54174 C 5339.4 -0.392573 -2.98126 0
M  V30 54175 C 5340.95 -0.343378 -3.11111 0
M  V30 54176 C 5341.43 -0.738388 -4.52009 0
M  V30 54177 N 5342.92 -0.691862 -4.58004 0
M  V30 54178 C 5343.65 -0.969678 -5.65141 0
M  V30 54179 N 5343.15 -1.31472 -6.80211 0
M  V30 54180 N 5344.94 -0.895121 -5.54927 0
M  V30 54181 H 5337.09 -1.28698 -1.68969 0
M  V30 54182 H 5339.36 -0.523427 -0.790397 0
M  V30 54183 H 5339.06 -1.421 -3.21715 0
M  V30 54184 H 5338.94 0.241519 -3.76426 0
M  V30 54185 H 5341.32 0.675845 -2.87257 0
M  V30 54186 H 5341.4 -1.01243 -2.34912 0
M  V30 54187 H 5341.05 -1.75553 -4.76596 0
M  V30 54188 H 5340.98 -0.0470078 -5.26579 0
M  V30 54189 H 5343.47 -0.437107 -3.75364 0
M  V30 54190 H 5343.78 -1.51203 -7.57864 0
M  V30 54191 H 5342.13 -1.353 -6.81703 0
M  V30 54192 H 5345.32 -0.625039 -4.63908 0
M  V30 54193 H 5345.49 -1.11499 -6.38335 0
M  V30 54194 N 5338.9 1.57509 -0.0535471 0
M  V30 54195 C 5340.31 1.56697 0.303012 0
M  V30 54196 C 5340.51 1.06141 1.71278 0
M  V30 54197 O 5339.57 0.719076 2.42045 0
M  V30 54198 C 5340.88 3.00422 0.129312 0
M  V30 54199 C 5342.43 3.12359 0.200236 0
M  V30 54200 C 5342.91 4.57967 0.0550361 0
M  V30 54201 N 5344.4 4.63066 0.111236 0
M  V30 54202 C 5345.13 5.73395 0.0230328 0
M  V30 54203 N 5344.63 6.927 -0.117653 0
M  V30 54204 N 5346.42 5.62045 0.0787864 0
M  V30 54205 H 5338.57 1.88693 -0.975131 0
M  V30 54206 H 5340.83 0.869059 -0.378736 0
M  V30 54207 H 5340.54 3.41453 -0.842773 0
M  V30 54208 H 5340.41 3.66566 0.889347 0
M  V30 54209 H 5342.8 2.71225 1.1628 0
M  V30 54210 H 5342.88 2.48889 -0.590594 0
M  V30 54211 H 5342.53 4.99786 -0.904209 0
M  V30 54212 H 5342.46 5.19446 0.865041 0
M  V30 54213 H 5344.95 3.77264 0.219123 0
M  V30 54214 H 5345.26 7.72596 -0.177598 0
M  V30 54215 H 5343.61 6.94832 -0.15277 0
M  V30 54216 H 5346.8 4.67725 0.187269 0
M  V30 54217 H 5346.97 6.48 0.00658951 0
M  V30 54218 N 5340.38 -0.219858 1.56059 0
M  V30 54219 C 5341.79 -0.786706 1.69316 0
M  V30 54220 C 5342.14 -1.84914 0.655847 0
M  V30 54221 O 5341.26 -2.1554 -0.192696 0
M  V30 54222 C 5341.86 -1.43376 3.06967 0
M  V30 54223 C 5340.42 -1.94798 3.22073 0
M  V30 54224 C 5339.56 -0.80877 2.65244 0
M  V30 54225 H 5342.51 0.00482356 1.58699 0
M  V30 54226 H 5342.54 -2.30261 3.02919 0
M  V30 54227 H 5342.05 -0.660271 3.82442 0
M  V30 54228 H 5340.15 -2.74943 2.5147 0
M  V30 54229 H 5340.26 -2.12679 4.29307 0
M  V30 54230 H 5338.63 -1.21654 2.23769 0
M  V30 54231 H 5339.41 -0.0479251 3.43267 0
M  V30 54232 N 5341.85 -1.49899 -0.486629 0
M  V30 54233 C 5343.08 -1.64111 -1.26817 0
M  V30 54234 C 5343.5 -0.318032 -1.85392 0
M  V30 54235 O 5342.86 0.716202 -1.66554 0
M  V30 54236 C 5342.91 -2.72309 -2.3639 0
M  V30 54237 O 5342.01 -2.32481 -3.40626 0
M  V30 54238 H 5341.35 -0.548807 -0.373773 0
M  V30 54239 H 5343.88 -1.96179 -0.580948 0
M  V30 54240 H 5343.89 -2.94916 -2.81938 0
M  V30 54241 H 5342.57 -3.68342 -1.93125 0
M  V30 54242 H 5341.15 -2.20262 -3.00897 0
M  V30 54243 N 5343.33 0.738712 -1.39215 0
M  V30 54244 C 5344.29 1.83436 -1.37419 0
M  V30 54245 C 5345.29 1.58483 -0.271963 0
M  V30 54246 O 5346.48 1.65952 -0.529667 0
M  V30 54247 C 5343.62 3.21163 -1.14312 0
M  V30 54248 H 5344.81 1.86433 -2.3491 0
M  V30 54249 H 5342.36 0.94198 -1.24725 0
M  V30 54250 H 5343.1 3.23828 -0.17487 0
M  V30 54251 H 5342.88 3.40671 -1.94128 0
M  V30 54252 H 5344.37 4.01227 -1.15787 0
M  V30 54253 N 5344.81 1.24329 0.968501 0
M  V30 54254 C 5346.06 1.08251 1.71137 0
M  V30 54255 C 5346.38 -0.378775 1.90776 0
M  V30 54256 O 5345.64 -1.29628 1.46612 0
M  V30 54257 C 5345.94 1.76655 3.10689 0
M  V30 54258 C 5345.6 3.26583 3.10893 0
M  V30 54259 C 5344.27 3.67486 3.10656 0
M  V30 54260 C 5346.62 4.22432 3.05287 0
M  V30 54261 C 5343.95 5.02676 3.02545 0
M  V30 54262 C 5346.3 5.57629 2.98717 0
M  V30 54263 C 5344.96 5.9788 2.96809 0
M  V30 54264 H 5344.23 0.39612 0.626235 0
M  V30 54265 H 5346.88 1.54422 1.13253 0
M  V30 54266 H 5345.18 1.22877 3.72033 0
M  V30 54267 H 5346.88 1.61681 3.66961 0
M  V30 54268 H 5343.47 2.94028 3.11842 0
M  V30 54269 H 5347.66 3.91832 3.046 0
M  V30 54270 H 5342.91 5.3306 2.99427 0
M  V30 54271 H 5347.09 6.31605 2.93339 0
M  V30 54272 H 5344.71 7.02597 2.90278 0
M  V30 54273 N 5346.29 -1.16906 1.05692 0
M  V30 54274 C 5347.7 -1.39285 0.779216 0
M  V30 54275 C 5347.9 -1.91589 -0.624163 0
M  V30 54276 O 5346.96 -2.11077 -1.38574 0
M  V30 54277 C 5348.27 -2.37908 1.83903 0
M  V30 54278 C 5349.82 -2.51604 1.86184 0
M  V30 54279 C 5350.3 -3.53504 2.91202 0
M  V30 54280 N 5351.79 -3.61026 2.90197 0
M  V30 54281 C 5352.52 -4.39644 3.68104 0
M  V30 54282 N 5352.02 -5.21736 4.55811 0
M  V30 54283 N 5353.81 -4.34567 3.56522 0
M  V30 54284 H 5345.96 -0.812891 1.96229 0
M  V30 54285 H 5348.22 -0.419788 0.849989 0
M  V30 54286 H 5347.93 -2.06558 2.84652 0
M  V30 54287 H 5347.8 -3.37477 1.68491 0
M  V30 54288 H 5350.19 -2.82261 0.860969 0
M  V30 54289 H 5350.27 -1.52092 2.05674 0
M  V30 54290 H 5349.92 -3.23585 3.91478 0
M  V30 54291 H 5349.85 -4.52732 2.68963 0
M  V30 54292 H 5352.34 -3.0242 2.26607 0
M  V30 54293 H 5352.65 -5.78921 5.11928 0
M  V30 54294 H 5351 -5.211 4.5987 0
M  V30 54295 H 5354.19 -3.69491 2.87392 0
M  V30 54296 H 5354.36 -4.95592 4.17483 0
M  V30 54297 N 5347.77 -0.838641 -1.33434 0
M  V30 54298 C 5348.7 -0.286753 -2.31733 0
M  V30 54299 C 5349.68 0.605395 -1.58962 0
M  V30 54300 O 5350.86 0.528994 -1.86856 0
M  V30 54301 C 5347.99 0.53919 -3.43089 0
M  V30 54302 C 5346.95 -0.257147 -4.27227 0
M  V30 54303 C 5346.27 0.692531 -5.30196 0
M  V30 54304 C 5347.57 -1.47409 -5.01067 0
M  V30 54305 H 5349.27 -1.10808 -2.7814 0
M  V30 54306 H 5346.81 -0.534282 -1.33721 0
M  V30 54307 H 5348.76 0.93558 -4.10883 0
M  V30 54308 H 5347.49 1.39373 -2.95369 0
M  V30 54309 H 5346.15 -0.635094 -3.61057 0
M  V30 54310 H 5345.8 1.54346 -4.78734 0
M  V30 54311 H 5345.5 0.163817 -5.87372 0
M  V30 54312 H 5347.02 1.08644 -6.00857 0
M  V30 54313 H 5348.43 -1.15087 -5.6163 0
M  V30 54314 H 5346.83 -1.93957 -5.67891 0
M  V30 54315 H 5347.9 -2.24397 -4.29853 0
M  V30 54316 N 5349.24 1.45934 -0.595055 0
M  V30 54317 C 5350.47 2.06698 -0.0913657 0
M  V30 54318 C 5350.89 1.4418 1.21892 0
M  V30 54319 O 5350.24 0.551463 1.73969 0
M  V30 54320 C 5350.29 3.61436 0.068053 0
M  V30 54321 O 5350.02 4.21618 -1.19038 0
M  V30 54322 C 5351.52 4.39157 0.60466 0
M  V30 54323 H 5348.74 0.668027 -0.0630972 0
M  V30 54324 H 5351.28 1.87374 -0.819231 0
M  V30 54325 H 5349.44 3.80146 0.74619 0
M  V30 54326 H 5349.85 5.14643 -1.01205 0
M  V30 54327 H 5351.32 5.47976 0.665339 0
M  V30 54328 H 5351.8 4.0806 1.62429 0
M  V30 54329 H 5352.41 4.25282 -0.0390153 0
M  V30 54330 N 5350.72 0.33351 1.54031 0
M  V30 54331 C 5351.97 -0.259178 2.01742 0
M  V30 54332 C 5352.32 -1.48995 1.2173 0
M  V30 54333 O 5351.62 -1.89332 0.293949 0
M  V30 54334 C 5351.81 -0.635526 3.51704 0
M  V30 54335 C 5351.64 0.557227 4.46234 0
M  V30 54336 C 5350.41 1.05943 4.94069 0
M  V30 54337 C 5352.61 1.41255 4.94522 0
M  V30 54338 N 5350.59 2.21555 5.72527 0
M  V30 54339 C 5351.96 2.41571 5.71002 0
M  V30 54340 C 5354.02 1.43916 4.76647 0
M  V30 54341 C 5352.72 3.44365 6.3151 0
M  V30 54342 C 5354.74 2.45586 5.37998 0
M  V30 54343 C 5354.11 3.44628 6.14338 0
M  V30 54344 H 5350.21 -0.0584156 0.779815 0
M  V30 54345 H 5352.79 0.470803 1.88922 0
M  V30 54346 H 5350.96 -1.33462 3.6475 0
M  V30 54347 H 5352.69 -1.21054 3.86171 0
M  V30 54348 H 5349.45 0.629112 4.69403 0
M  V30 54349 H 5349.87 2.799 6.16429 0
M  V30 54350 H 5354.51 0.687076 4.1718 0
M  V30 54351 H 5352.23 4.20474 6.90092 0
M  V30 54352 H 5355.82 2.48459 5.26079 0
M  V30 54353 H 5354.7 4.2201 6.60967 0
M  V30 54354 N 5352.2 -1.57478 0.0618994 0
M  V30 54355 C 5353.48 -1.84487 -0.649928 0
M  V30 54356 C 5353.86 -0.952433 -1.88393 0
M  V30 54357 O 5353.21 -0.0161838 -2.28494 0
M  V30 54358 C 5353.42 -3.34456 -0.997016 0
M  V30 54359 C 5354.76 -4.01729 -1.37474 0
M  V30 54360 O 5355.79 -3.39144 -1.08904 0
M  V30 54361 O 5354.65 -5.12098 -1.90836 0
M  V30 54362 H 5351.74 -0.76181 -0.321831 0
M  V30 54363 H 5354.29 -1.6945 0.0920787 0
M  V30 54364 H 5353.06 -3.91115 -0.120164 0
M  V30 54365 H 5352.68 -3.54719 -1.79611 0
M  V30 54366 N 5353.68 0.211579 -1.56173 0
M  V30 54367 C 5354.9 0.955259 -1.84091 0
M  V30 54368 C 5355.33 1.76751 -0.643469 0
M  V30 54369 O 5354.69 1.76655 0.40778 0
M  V30 54370 C 5354.73 1.84053 -3.10092 0
M  V30 54371 O 5353.84 2.9372 -2.89486 0
M  V30 54372 H 5353.18 0.269939 -0.606654 0
M  V30 54373 H 5355.71 0.221876 -2.03393 0
M  V30 54374 H 5355.72 2.2484 -3.40457 0
M  V30 54375 H 5354.39 1.24359 -3.96872 0
M  V30 54376 H 5352.97 2.56806 -2.70379 0
M  V30 54377 O 5355.2 1.57506 0.356949 0
M  V30 54378 H 5355.89 1.65451 1.00726 0
M  V30 END ATOM
M  V30 BEGIN BOND
M  V30 END BOND
M  V30 END CTAB
M  END
$$$$
