drugbank_target|O60488 Long-chain-fatty-acid--CoA ligase 4 (DB00159; DB00197; DB00412)
 OpenBabel12092119453D

  0  0  0     0  0            999 V3000
M  V30 BEGIN CTAB
M  V30 COUNTS 11220 11334 0 0 0
M  V30 BEGIN ATOM
M  V30 1 H -0.908 1.98254 -0.117106 0
M  V30 2 N 0 1.576 0 0
M  V30 3 C 0.933 2.03868 1.02534 0
M  V30 4 C 1.911 0.928543 1.3348 0
M  V30 5 O 3.095 1.19667 1.45644 0
M  V30 6 C 0.222 2.43627 2.35294 0
M  V30 7 C -0.732 3.65373 2.2001 0
M  V30 8 S 0.101 5.13292 1.52614 0
M  V30 9 C 1.257 5.56322 2.86805 0
M  V30 10 H 1.49 2.90518 0.631377 0
M  V30 11 H -0.977 1.52953 0.210867 0
M  V30 12 H 0.981 2.67203 3.11629 0
M  V30 13 H -0.358 1.57376 2.7183 0
M  V30 14 H -1.165 3.90944 3.18086 0
M  V30 15 H -1.563 3.418 1.51819 0
M  V30 16 H 0.729 5.58782 3.83104 0
M  V30 17 H 1.672 6.56266 2.65933 0
M  V30 18 H 2.08 4.83886 2.90714 0
M  V30 19 N 1.4781 -0.272755 1.55222 0
M  V30 20 C 2.4251 -1.33716 1.88119 0
M  V30 21 C 3.3951 -1.49066 0.73271 0
M  V30 22 O 4.5801 -1.63469 0.984002 0
M  V30 23 C 1.7201 -2.69238 2.15882 0
M  V30 24 C 0.8331 -2.62108 3.43399 0
M  V30 25 C -0.0319 -3.89811 3.60861 0
M  V30 26 C -0.9929 -3.77193 4.8207 0
M  V30 27 N -1.8559 -4.9673 4.96189 0
M  V30 28 H 2.9841 -1.04962 2.78903 0
M  V30 29 H 0.5211 -0.507088 1.38083 0
M  V30 30 H 2.4791 -3.48089 2.29978 0
M  V30 31 H 1.1091 -2.96194 1.28331 0
M  V30 32 H 0.1611 -1.74967 3.37773 0
M  V30 33 H 1.4731 -2.48685 4.32386 0
M  V30 34 H 0.6271 -4.77103 3.74777 0
M  V30 35 H -0.6339 -4.06102 2.7006 0
M  V30 36 H -1.6289 -2.88284 4.68159 0
M  V30 37 H -0.4039 -3.62421 5.74307 0
M  V30 38 H -2.4579 -5.13431 4.08319 0
M  V30 39 H -2.5409 -4.85839 5.79221 0
M  V30 40 H -1.2729 -5.85594 5.1449 0
M  V30 41 N 2.9562 -1.48159 -0.537278 0
M  V30 42 C 3.8862 -1.65029 -1.6519 0
M  V30 43 C 4.8672 -0.499281 -1.62607 0
M  V30 44 O 6.0522 -0.730972 -1.79918 0
M  V30 45 C 3.1822 -1.68303 -3.03795 0
M  V30 46 C 2.1362 -2.8283 -3.21234 0
M  V30 47 C 1.4622 -2.71189 -4.60826 0
M  V30 48 C 2.7622 -4.24211 -3.04701 0
M  V30 49 H 4.4562 -2.58341 -1.51328 0
M  V30 50 H 2.0022 -1.24325 -0.726585 0
M  V30 51 H 3.9552 -1.78693 -3.81637 0
M  V30 52 H 2.6792 -0.715635 -3.18663 0
M  V30 53 H 1.3382 -2.71983 -2.45807 0
M  V30 54 H 0.9862 -1.72435 -4.7252 0
M  V30 55 H 0.6862 -3.48035 -4.7344 0
M  V30 56 H 2.2102 -2.83537 -5.40777 0
M  V30 57 H 3.6242 -4.3593 -3.72341 0
M  V30 58 H 2.0212 -5.01998 -3.28813 0
M  V30 59 H 3.0912 -4.41184 -2.01209 0
M  V30 60 N 4.4343 0.785586 -1.36625 0
M  V30 61 C 5.3813 1.89838 -1.31264 0
M  V30 62 C 6.3513 1.65115 -0.180633 0
M  V30 63 O 7.5363 1.87222 -0.36777 0
M  V30 64 C 4.6763 3.26706 -1.11163 0
M  V30 65 C 3.7893 3.63476 -2.33472 0
M  V30 66 C 2.9243 4.89481 -2.06353 0
M  V30 67 C 1.9633 5.18941 -3.24602 0
M  V30 68 N 1.1003 6.36131 -2.97123 0
M  V30 69 H 5.9403 1.93756 -2.26413 0
M  V30 70 H 3.4773 0.947454 -1.12524 0
M  V30 71 H 5.4353 4.05639 -0.975337 0
M  V30 72 H 4.0653 3.222 -0.196674 0
M  V30 73 H 3.1173 2.79636 -2.57891 0
M  V30 74 H 4.4293 3.81193 -3.21704 0
M  V30 75 H 3.5833 5.76288 -1.89675 0
M  V30 76 H 2.3223 4.73841 -1.15437 0
M  V30 77 H 1.3273 4.30615 -3.41834 0
M  V30 78 H 2.5523 5.36498 -4.16349 0
M  V30 79 H 0.4983 6.21875 -2.08823 0
M  V30 80 H 0.4153 6.54198 -3.78894 0
M  V30 81 H 1.6833 7.2591 -2.84033 0
M  V30 82 N 5.9124 1.20967 1.01018 0
M  V30 83 C 6.8424 0.988272 2.11555 0
M  V30 84 C 7.8234 -0.0849778 1.69888 0
M  V30 85 O 9.0084 0.0738202 1.9406 0
M  V30 86 C 6.1384 0.546528 3.42973 0
M  V30 87 C 5.0924 1.56375 3.9841 0
M  V30 88 C 4.4184 0.97842 5.25672 0
M  V30 89 C 5.7184 2.94922 4.31066 0
M  V30 90 H 7.4124 1.91276 2.30334 0
M  V30 91 H 4.9584 0.921073 1.1069 0
M  V30 92 H 6.9114 0.378839 4.19694 0
M  V30 93 H 5.6354 -0.413598 3.23971 0
M  V30 94 H 4.2944 1.71891 3.23804 0
M  V30 95 H 3.9424 0.0101688 5.02999 0
M  V30 96 H 3.6424 1.65784 5.63728 0
M  V30 97 H 5.1664 0.821939 6.05043 0
M  V30 98 H 6.5804 2.8288 4.9865 0
M  V30 99 H 4.9774 3.5983 4.80253 0
M  V30 100 H 6.0474 3.4616 3.39561 0
M  V30 101 N 7.3905 -1.2043 1.01659 0
M  V30 102 C 8.3385 -2.25249 0.580143 0
M  V30 103 C 9.3325 -1.65057 -0.381115 0
M  V30 104 O 10.5385 -1.78241 -0.251039 0
M  V30 105 H 6.9135 -0.732695 0.169299 0
M  V30 106 H 8.8845 -2.59389 1.47512 0
M  V30 107 C 7.6335 -3.47638 -0.065788 0
M  V30 108 H 6.9565 -3.94233 0.664874 0
M  V30 109 H 8.3965 -4.2268 -0.334282 0
M  V30 110 C 6.8555 -3.10447 -1.3086 0
M  V30 111 O 7.3855 -3.21981 -2.4019 0
M  V30 112 N 5.5915 -2.64996 -1.1927 0
M  V30 113 H 5.1385 -2.55811 -0.303064 0
M  V30 114 H 5.0965 -2.40482 -2.02523 0
M  V30 115 N 8.8686 -0.792821 -1.36206 0
M  V30 116 C 10.1146 -0.36733 -1.99446 0
M  V30 117 C 10.4476 1.05917 -1.62774 0
M  V30 118 O 9.7226 1.7324 -0.88421 0
M  V30 119 C 10.0056 -0.535044 -3.56103 0
M  V30 120 C 9.8586 -2.00548 -4.02617 0
M  V30 121 C 11.1776 0.0478191 -4.40074 0
M  V30 122 H 8.2966 -0.134941 -0.724541 0
M  V30 123 H 10.9386 -0.999794 -1.61568 0
M  V30 124 H 9.0886 0.00336329 -3.885 0
M  V30 125 H 10.7606 -2.60521 -3.80692 0
M  V30 126 H 9.0036 -2.50686 -3.54032 0
M  V30 127 H 9.6746 -2.07377 -5.11565 0
M  V30 128 H 12.1506 -0.411822 -4.14057 0
M  V30 129 H 11.0266 -0.0995336 -5.4881 0
M  V30 130 H 11.2876 1.14025 -4.27142 0
M  V30 131 N 10.3467 1.47872 -0.545128 0
M  V30 132 C 11.2767 2.32661 0.197793 0
M  V30 133 C 12.2577 1.43041 0.920504 0
M  V30 134 O 13.4427 1.71912 0.90333 0
M  V30 135 C 10.5727 3.24569 1.23582 0
M  V30 136 C 9.5267 4.23333 0.630323 0
M  V30 137 C 8.8527 5.0448 1.77211 0
M  V30 138 C 10.1527 5.20704 -0.407974 0
M  V30 139 H 11.8467 2.95024 -0.510045 0
M  V30 140 H 9.3927 1.4187 -0.246731 0
M  V30 141 H 11.3457 3.8272 1.76362 0
M  V30 142 H 10.0697 2.60236 1.97344 0
M  V30 143 H 8.7287 3.6639 0.123922 0
M  V30 144 H 8.3767 4.36561 2.49847 0
M  V30 145 H 8.0767 5.71339 1.37281 0
M  V30 146 H 9.6007 5.65487 2.3034 0
M  V30 147 H 11.0147 5.7329 0.033305 0
M  V30 148 H 9.4117 5.95699 -0.725486 0
M  V30 149 H 10.4817 4.66917 -1.30828 0
M  V30 150 N 11.8248 0.280983 1.55075 0
M  V30 151 C 13.0528 -0.337293 2.04132 0
M  V30 152 C 13.4678 -1.4903 1.15912 0
M  V30 153 O 12.8248 -1.81606 0.180459 0
M  V30 154 C 12.8758 -0.812706 3.52246 0
M  V30 155 O 12.5968 0.294387 4.3711 0
M  V30 156 C 14.0978 -1.4982 4.17216 0
M  V30 157 H 11.3178 -0.0761638 0.666663 0
M  V30 158 H 13.8618 0.414787 2.00249 0
M  V30 159 H 12.0168 -1.51486 3.56554 0
M  V30 160 H 12.4308 -0.0721325 5.2445 0
M  V30 161 H 13.9048 -1.7822 5.22438 0
M  V30 162 H 14.3818 -2.43168 3.65741 0
M  V30 163 H 14.9878 -0.839742 4.16927 0
M  V30 164 N 13.3029 -1.57598 0.00835791 0
M  V30 165 C 14.5519 -1.90107 -0.673968 0
M  V30 166 C 14.8649 -0.884275 -1.7447 0
M  V30 167 O 16.0709 -1.09987 -2.48224 0
M  V30 168 C 14.5269 -3.37497 -1.24995 0
M  V30 169 C 14.1349 -4.47491 -0.2136 0
M  V30 170 C 15.8789 -3.79104 -1.90999 0
M  V30 171 C 13.7859 -5.85963 -0.80005 0
M  V30 172 H 12.7159 -0.709393 -0.255495 0
M  V30 173 H 15.3669 -1.83365 0.0702693 0
M  V30 174 H 13.7489 -3.39102 -2.04513 0
M  V30 175 H 14.9229 -4.57414 0.557596 0
M  V30 176 H 13.2379 -4.14956 0.346474 0
M  V30 177 H 15.8349 -4.79901 -2.35795 0
M  V30 178 H 16.1779 -3.1306 -2.74407 0
M  V30 179 H 16.7109 -3.79833 -1.18203 0
M  V30 180 H 13.4499 -6.555 -0.00456708 0
M  V30 181 H 12.9699 -5.79687 -1.54021 0
M  V30 182 H 14.6489 -6.33884 -1.29615 0
M  V30 183 N 14.781 0.264519 -1.55364 0
M  V30 184 C 16.03 0.992812 -1.75574 0
M  V30 185 C 16.343 1.87142 -0.568979 0
M  V30 186 O 17.549 2.63513 -0.653682 0
M  V30 187 C 16.005 1.81519 -3.10771 0
M  V30 188 C 15.613 0.984839 -4.37041 0
M  V30 189 C 17.357 2.53727 -3.40327 0
M  V30 190 C 15.264 1.80209 -5.63275 0
M  V30 191 H 14.194 0.374412 -0.65447 0
M  V30 192 H 16.845 0.248138 -1.81815 0
M  V30 193 H 15.227 2.60115 -2.98591 0
M  V30 194 H 16.401 0.242455 -4.60162 0
M  V30 195 H 14.716 0.37691 -4.14691 0
M  V30 196 H 17.313 3.15292 -4.3185 0
M  V30 197 H 17.656 3.24447 -2.60845 0
M  V30 198 H 18.189 1.82156 -3.53644 0
M  V30 199 H 14.928 1.13896 -6.45529 0
M  V30 200 H 14.448 2.52022 -5.44284 0
M  V30 201 H 16.127 2.37364 -6.01887 0
M  V30 202 N 16.2591 1.48442 0.529413 0
M  V30 203 C 17.1891 1.65902 1.64313 0
M  V30 204 C 18.1701 0.507897 1.6234 0
M  V30 205 O 19.3551 0.740503 1.79528 0
M  V30 206 C 16.4851 1.69911 3.02898 0
M  V30 207 C 15.4391 2.8453 3.19729 0
M  V30 208 C 14.7651 2.73629 4.59381 0
M  V30 209 C 16.0651 4.25821 3.02447 0
M  V30 210 H 17.7591 2.5914 1.49955 0
M  V30 211 H 15.3051 1.24709 0.719982 0
M  V30 212 H 17.2581 1.80715 3.80684 0
M  V30 213 H 15.9821 0.732524 3.18279 0
M  V30 214 H 14.6411 2.73283 2.44361 0
M  V30 215 H 14.2891 1.74938 4.71599 0
M  V30 216 H 13.9891 3.50541 4.71588 0
M  V30 217 H 15.5131 2.86401 5.39265 0
M  V30 218 H 16.9271 4.37898 3.70024 0
M  V30 219 H 15.3241 5.03735 3.26146 0
M  V30 220 H 16.3941 4.42244 1.98867 0
M  V30 221 N 17.7372 -0.778329 1.37039 0
M  V30 222 C 18.6672 -1.90546 1.34962 0
M  V30 223 C 19.6482 -1.68681 0.219274 0
M  V30 224 O 20.8332 -1.89634 0.418624 0
M  V30 225 C 17.9632 -3.27734 1.14925 0
M  V30 226 C 16.9172 -3.64147 2.24902 0
M  V30 227 C 16.2432 -4.99806 1.89996 0
M  V30 228 C 17.5432 -3.71579 3.67051 0
M  V30 229 H 19.2372 -1.92541 2.29277 0
M  V30 230 H 16.7832 -0.924948 1.10366 0
M  V30 231 H 18.7362 -4.06215 1.12104 0
M  V30 232 H 17.4602 -3.26154 0.170631 0
M  V30 233 H 16.1192 -2.8797 2.26868 0
M  V30 234 H 15.7672 -4.94759 0.906796 0
M  V30 235 H 15.4672 -5.25139 2.63634 0
M  V30 236 H 16.9912 -5.80694 1.88749 0
M  V30 237 H 18.4052 -4.40227 3.67251 0
M  V30 238 H 16.8022 -4.08405 4.39688 0
M  V30 239 H 17.8722 -2.72404 4.01154 0
M  V30 240 N 19.2153 -1.21501 -1.00376 0
M  V30 241 C 20.6263 -1.03146 -1.55621 0
M  V30 242 C 20.9773 0.408375 -1.91903 0
M  V30 243 O 20.1023 1.29177 -1.73616 0
M  V30 244 C 20.6973 -1.86612 -2.82775 0
M  V30 245 C 19.2563 -1.72586 -3.34501 0
M  V30 246 C 18.4033 -1.83747 -2.07683 0
M  V30 247 H 21.3543 -1.35505 -0.826081 0
M  V30 248 H 21.3753 -1.3771 -3.54706 0
M  V30 249 H 20.8873 -2.91399 -2.56336 0
M  V30 250 H 18.9883 -0.704877 -3.65872 0
M  V30 251 H 19.1013 -2.54623 -4.05837 0
M  V30 252 H 17.4653 -1.27069 -2.20739 0
M  V30 253 H 18.2483 -2.90044 -1.83655 0
M  V30 254 N 20.6934 1.19889 -1.02296 0
M  V30 255 C 21.9394 1.89701 -0.717033 0
M  V30 256 C 22.2724 1.7905 0.751989 0
M  V30 257 O 21.5474 1.17891 1.547 0
M  V30 258 C 21.8304 3.40858 -1.16136 0
M  V30 259 C 21.6834 3.60411 -2.69117 0
M  V30 260 C 23.0024 4.33876 -0.737549 0
M  V30 261 H 20.1214 0.688874 -0.261957 0
M  V30 262 H 22.7634 1.41154 -1.27183 0
M  V30 263 H 20.9134 3.82335 -0.689342 0
M  V30 264 H 22.5854 3.28145 -3.2422 0
M  V30 265 H 20.8284 3.03665 -3.0979 0
M  V30 266 H 21.4994 4.66396 -2.95261 0
M  V30 267 H 23.9754 4.00081 -1.14344 0
M  V30 268 H 22.8514 5.38242 -1.0764 0
M  V30 269 H 23.1124 4.40628 0.360436 0
M  V30 270 N 22.1715 0.800033 1.35784 0
M  V30 271 C 23.1215 0.178654 2.27299 0
M  V30 272 C 24.1055 -0.643667 1.47464 0
M  V30 273 O 25.2975 -0.502 1.69732 0
M  V30 274 C 22.4265 -0.677194 3.36555 0
M  V30 275 C 21.5125 0.154497 4.23818 0
M  V30 276 N 21.9035 1.21427 4.91008 0
M  V30 277 C 20.2015 -0.0649462 4.45953 0
M  V30 278 C 20.9025 1.72147 5.55644 0
M  V30 279 N 19.8785 1.02897 5.33773 0
M  V30 280 H 23.6805 0.989637 2.76737 0
M  V30 281 H 21.1945 0.64054 1.49234 0
M  V30 282 H 23.1915 -1.13835 4.01058 0
M  V30 283 H 21.8515 -1.4866 2.8867 0
M  V30 284 H 22.8625 1.59684 4.92668 0
M  V30 285 H 19.5395 -0.844016 4.0888 0
M  V30 286 H 20.9295 2.60683 6.19269 0
M  V30 287 N 23.6496 -1.47581 0.552962 0
M  V30 288 C 24.5796 -2.32762 -0.185451 0
M  V30 289 C 25.5606 -1.43527 -0.912905 0
M  V30 290 O 26.7456 -1.72388 -0.894201 0
M  V30 291 C 23.8756 -3.25219 -1.21859 0
M  V30 292 C 22.8296 -4.23661 -0.607864 0
M  V30 293 C 22.1556 -5.05413 -1.74533 0
M  V30 294 C 23.4556 -5.20481 0.435582 0
M  V30 295 H 25.1496 -2.94749 0.525684 0
M  V30 296 H 22.6956 -1.41738 0.254251 0
M  V30 297 H 24.6486 -3.8365 -1.7433 0
M  V30 298 H 23.3726 -2.61279 -1.95961 0
M  V30 299 H 22.0316 -3.66451 -0.104489 0
M  V30 300 H 21.6796 -4.3788 -2.47529 0
M  V30 301 H 21.3796 -5.72059 -1.34249 0
M  V30 302 H 22.9036 -5.66701 -2.27338 0
M  V30 303 H 24.3176 -5.733 -0.00290157 0
M  V30 304 H 22.7146 -5.95305 0.757067 0
M  V30 305 H 23.7846 -4.66217 1.33303 0
M  V30 306 N 25.1277 -0.289203 -1.54924 0
M  V30 307 C 26.0577 0.58549 -2.2604 0
M  V30 308 C 27.0387 1.14753 -1.25562 0
M  V30 309 O 28.2237 1.17906 -1.54311 0
M  V30 310 C 25.3537 1.76305 -2.99222 0
M  V30 311 C 24.3077 1.33191 -4.06748 0
M  V30 312 C 23.6337 2.5937 -4.6758 0
M  V30 313 C 24.9337 0.471775 -5.20165 0
M  V30 314 H 26.6277 -0.00763532 -2.99399 0
M  V30 315 H 24.1737 -0.00511229 -1.43999 0
M  V30 316 H 26.1267 2.38097 -3.47689 0
M  V30 317 H 24.8507 2.38223 -2.23422 0
M  V30 318 H 23.5097 0.737121 -3.59113 0
M  V30 319 H 23.1577 3.19576 -3.88433 0
M  V30 320 H 22.8577 2.31228 -5.40192 0
M  V30 321 H 24.3817 3.21985 -5.18804 0
M  V30 322 H 25.7957 0.995056 -5.64599 0
M  V30 323 H 24.1927 0.284639 -5.99425 0
M  V30 324 H 25.2627 -0.506041 -4.82252 0
M  V30 325 N 26.6058 1.57591 -0.0167156 0
M  V30 326 C 27.8548 1.90461 0.663877 0
M  V30 327 C 28.1678 0.893515 1.73999 0
M  V30 328 O 29.3738 1.11302 2.47637 0
M  V30 329 C 27.8298 3.38155 1.23204 0
M  V30 330 C 27.4378 4.47597 0.189866 0
M  V30 331 C 29.1818 3.80111 1.88986 0
M  V30 332 C 27.0888 5.86379 0.768964 0
M  V30 333 H 26.0188 0.710738 0.251729 0
M  V30 334 H 28.6698 1.83326 -0.0799926 0
M  V30 335 H 27.0518 3.40182 2.02712 0
M  V30 336 H 28.2258 4.57112 -0.581846 0
M  V30 337 H 26.5408 4.14766 -0.368475 0
M  V30 338 H 29.1378 4.81145 2.33247 0
M  V30 339 H 29.4808 3.14511 2.72743 0
M  V30 340 H 30.0138 3.80454 1.16187 0
M  V30 341 H 26.7528 6.55493 -0.0301957 0
M  V30 342 H 26.2728 5.80496 1.50945 0
M  V30 343 H 27.9518 6.34563 1.26251 0
M  V30 344 N 28.0839 -0.256276 1.55502 0
M  V30 345 C 29.3119 -1.00342 1.8094 0
M  V30 346 C 29.7269 -1.79307 0.59114 0
M  V30 347 O 29.0839 -1.77114 -0.440081 0
M  V30 348 C 29.1349 -1.94875 3.04476 0
M  V30 349 O 28.8559 -1.19107 4.21598 0
M  V30 350 C 30.3569 -2.81266 3.42644 0
M  V30 351 H 27.5769 -0.295685 0.602338 0
M  V30 352 H 30.1209 -0.281998 2.02546 0
M  V30 353 H 28.2759 -2.62457 2.84947 0
M  V30 354 H 28.6899 -1.82969 4.91551 0
M  V30 355 H 30.1639 -3.43362 4.32211 0
M  V30 356 H 30.6409 -3.51897 2.62802 0
M  V30 357 H 31.2469 -2.1915 3.64491 0
M  V30 358 N 29.562 -1.4872 -0.521534 0
M  V30 359 C 30.811 -1.56419 -1.27341 0
M  V30 360 C 31.124 -0.246805 -1.94037 0
M  V30 361 O 32.33 -0.202122 -2.70747 0
M  V30 362 C 30.786 -2.75896 -2.31105 0
M  V30 363 C 30.394 -4.14311 -1.70441 0
M  V30 364 C 32.138 -2.92913 -3.07249 0
M  V30 365 C 30.045 -5.25038 -2.72194 0
M  V30 366 H 28.975 -0.582344 -0.478949 0
M  V30 367 H 31.626 -1.75071 -0.549779 0
M  V30 368 H 30.008 -2.50697 -3.06541 0
M  V30 369 H 31.182 -4.49564 -1.01136 0
M  V30 370 H 29.497 -4.02482 -1.06759 0
M  V30 371 H 32.094 -3.72805 -3.83302 0
M  V30 372 H 32.437 -2.02689 -3.63625 0
M  V30 373 H 32.97 -3.18054 -2.38928 0
M  V30 374 H 29.709 -6.17255 -2.20627 0
M  V30 375 H 29.229 -4.94263 -3.39801 0
M  V30 376 H 30.908 -5.53508 -3.35019 0
M  V30 377 N 31.0401 0.771051 -1.3745 0
M  V30 378 C 32.2701 1.55789 -1.35696 0
M  V30 379 C 32.6781 1.89107 0.0594523 0
M  V30 380 O 32.0211 1.51984 1.03183 0
M  V30 381 C 32.0831 2.89515 -2.13123 0
M  V30 382 C 31.7471 2.78829 -3.62082 0
M  V30 383 C 32.7441 2.49812 -4.5595 0
M  V30 384 C 30.4291 2.9683 -4.05213 0
M  V30 385 C 32.4231 2.38923 -5.90927 0
M  V30 386 C 30.1101 2.85562 -5.40276 0
M  V30 387 C 31.1081 2.56649 -6.32946 0
M  V30 388 O 30.7961 2.45408 -7.65526 0
M  V30 389 H 30.5281 0.489257 -0.466481 0
M  V30 390 H 33.0821 0.963446 -1.81403 0
M  V30 391 H 31.3121 3.51081 -1.62107 0
M  V30 392 H 33.0011 3.50915 -2.03994 0
M  V30 393 H 33.7671 2.3559 -4.23937 0
M  V30 394 H 29.6461 3.18335 -3.33442 0
M  V30 395 H 33.1901 2.16277 -6.63227 0
M  V30 396 H 29.0871 2.99351 -5.71891 0
M  V30 397 H 29.8551 2.60753 -7.75855 0
M  V30 398 N 32.5182 1.22032 0.997298 0
M  V30 399 C 33.7432 1.06921 1.77715 0
M  V30 400 C 34.1682 -0.376226 1.84299 0
M  V30 401 O 33.5262 -1.27165 1.29223 0
M  V30 402 C 33.5742 1.67996 3.19076 0
M  V30 403 O 32.6782 0.930653 4.01762 0
M  V30 404 H 32.0192 0.375814 0.547412 0
M  V30 405 H 34.5492 1.61737 1.25309 0
M  V30 406 H 34.5592 1.72538 3.69723 0
M  V30 407 H 33.2342 2.73182 3.13599 0
M  V30 408 H 31.8112 0.960917 3.60307 0
M  V30 409 N 33.9963 -1.19345 1.0293 0
M  V30 410 C 34.9593 -2.20793 0.615069 0
M  V30 411 C 35.9593 -1.57553 -0.321533 0
M  V30 412 O 37.1493 -1.73862 -0.108483 0
M  V30 413 C 34.2813 -3.40754 -0.0999222 0
M  V30 414 H 35.4743 -2.58955 1.51269 0
M  V30 415 H 33.0273 -1.3303 0.820534 0
M  V30 416 H 33.7623 -3.0811 -1.01187 0
M  V30 417 H 33.5473 -3.87889 0.57309 0
M  V30 418 H 35.0373 -4.15898 -0.376645 0
M  V30 419 N 35.4744 -0.807222 -1.35358 0
M  V30 420 C 36.4044 -0.232509 -2.3234 0
M  V30 421 C 37.3854 0.642386 -1.57504 0
M  V30 422 O 38.5704 0.572526 -1.85569 0
M  V30 423 C 35.7004 0.619238 -3.41735 0
M  V30 424 C 34.6544 -0.157215 -4.27711 0
M  V30 425 C 33.9804 0.816273 -5.28433 0
M  V30 426 C 35.2804 -1.35656 -5.04376 0
M  V30 427 H 36.9744 -1.04276 -2.80654 0
M  V30 428 H 34.5204 -0.50288 -1.34934 0
M  V30 429 H 36.4734 1.03137 -4.08584 0
M  V30 430 H 35.1974 1.46239 -2.92031 0
M  V30 431 H 33.8564 -0.550525 -3.62443 0
M  V30 432 H 33.5044 1.65494 -4.74996 0
M  V30 433 H 33.2044 0.301067 -5.86828 0
M  V30 434 H 34.7284 1.22659 -5.98153 0
M  V30 435 H 36.1424 -1.01927 -5.64166 0
M  V30 436 H 34.5394 -1.8063 -5.7227 0
M  V30 437 H 35.6094 -2.14288 -4.34981 0
M  V30 438 N 36.9525 1.47285 -0.560781 0
M  V30 439 C 38.2015 2.01668 -0.035895 0
M  V30 440 C 38.5145 1.44021 1.32353 0
M  V30 441 O 39.7205 1.90088 1.93853 0
M  V30 442 C 38.1765 3.59897 -0.0136659 0
M  V30 443 C 37.7845 4.26536 -1.37006 0
M  V30 444 C 39.5285 4.22017 0.458425 0
M  V30 445 C 37.4355 5.76782 -1.30675 0
M  V30 446 H 36.3655 0.753938 -0.00964879 0
M  V30 447 H 39.0165 1.69243 -0.709166 0
M  V30 448 H 37.3985 3.89301 0.725325 0
M  V30 449 H 38.5725 4.0877 -2.12705 0
M  V30 450 H 36.8875 3.76419 -1.78038 0
M  V30 451 H 39.4845 5.32124 0.524247 0
M  V30 452 H 39.8275 3.89437 1.4712 0
M  V30 453 H 40.3605 3.97159 -0.225818 0
M  V30 454 H 37.0995 6.13988 -2.29564 0
M  V30 455 H 36.6195 5.96875 -0.591622 0
M  V30 456 H 38.2985 6.39063 -1.01033 0
M  V30 457 N 38.4306 0.297415 1.54768 0
M  V30 458 C 39.6776 -0.312913 2.00068 0
M  V30 459 C 40.0056 -1.54171 1.18582 0
M  V30 460 O 39.2606 -1.94108 0.249133 0
M  V30 461 C 39.5596 -0.717561 3.50123 0
M  V30 462 C 39.2256 0.409095 4.4904 0
M  V30 463 C 37.8876 0.718399 4.75807 0
M  V30 464 C 40.2396 1.16717 5.07963 0
M  V30 465 C 37.5676 1.78896 5.5876 0
M  V30 466 C 39.9196 2.22762 5.92081 0
M  V30 467 C 38.5836 2.54303 6.1716 0
M  V30 468 H 37.8536 -0.114503 0.7321 0
M  V30 469 H 40.5006 0.415767 1.86932 0
M  V30 470 H 38.8056 -1.52627 3.60849 0
M  V30 471 H 40.5026 -1.20091 3.82595 0
M  V30 472 H 37.0926 0.157918 4.28309 0
M  V30 473 H 41.2766 0.941466 4.87289 0
M  V30 474 H 36.5326 2.0381 5.7643 0
M  V30 475 H 40.7066 2.81962 6.36765 0
M  V30 476 H 38.3336 3.3739 6.81229 0
M  V30 477 N 39.9087 -1.5758 0.0250728 0
M  V30 478 C 41.1577 -1.90811 -0.653767 0
M  V30 479 C 41.4707 -0.90273 -1.73523 0
M  V30 480 O 42.6767 -1.12614 -2.47043 0
M  V30 481 C 41.1327 -3.38804 -1.21409 0
M  V30 482 C 40.7407 -4.47692 -0.166126 0
M  V30 483 C 42.4847 -3.81108 -1.86967 0
M  V30 484 C 40.3917 -5.86779 -0.737856 0
M  V30 485 H 39.3217 -0.712063 -0.247956 0
M  V30 486 H 41.9727 -1.83281 0.0897137 0
M  V30 487 H 40.3547 -3.41252 -2.00905 0
M  V30 488 H 41.5287 -4.56797 0.606079 0
M  V30 489 H 39.8437 -4.14565 0.390466 0
M  V30 490 H 42.4407 -4.82375 -2.30692 0
M  V30 491 H 42.7837 -3.15953 -2.71071 0
M  V30 492 H 43.3167 -3.81065 -1.14167 0
M  V30 493 H 40.0557 -6.55468 0.0649577 0
M  V30 494 H 39.5757 -5.81288 -1.47864 0
M  V30 495 H 41.2547 -6.35223 -1.22884 0
M  V30 496 N 41.3868 0.248026 -1.55636 0
M  V30 497 C 42.7978 0.817177 -1.67866 0
M  V30 498 C 43.1488 1.86069 -0.622322 0
M  V30 499 O 42.2738 2.15157 0.231618 0
M  V30 500 C 42.8688 1.489 -3.04326 0
M  V30 501 C 41.4278 2.00587 -3.185 0
M  V30 502 C 40.5748 0.856573 -2.63739 0
M  V30 503 H 43.5258 0.0238579 -1.58682 0
M  V30 504 H 43.5468 2.35698 -2.98708 0
M  V30 505 H 43.0588 0.729279 -3.81186 0
M  V30 506 H 41.1598 2.79443 -2.4646 0
M  V30 507 H 41.2728 2.20402 -4.25393 0
M  V30 508 H 39.6368 1.25678 -2.21534 0
M  V30 509 H 40.4198 0.109953 -3.43124 0
M  V30 510 N 42.8649 1.48995 0.513639 0
M  V30 511 C 44.1109 1.59053 1.26783 0
M  V30 512 C 44.4659 0.268136 1.90522 0
M  V30 513 O 43.7589 -0.730534 1.77126 0
M  V30 514 C 43.9529 2.67756 2.36731 0
M  V30 515 C 43.7819 4.10437 1.83771 0
M  V30 516 C 42.5519 4.7738 1.65639 0
M  V30 517 C 44.7499 4.9608 1.35681 0
M  V30 518 N 42.7319 6.04419 1.07476 0
M  V30 519 C 44.1029 6.13496 0.895715 0
M  V30 520 C 46.1579 4.82177 1.24136 0
M  V30 521 C 44.8609 7.1854 0.3306 0
M  V30 522 C 46.8869 5.87358 0.690229 0
M  V30 523 C 46.2489 7.03993 0.239292 0
M  V30 524 H 42.3479 0.636463 0.454355 0
M  V30 525 H 44.9319 1.85948 0.577196 0
M  V30 526 H 43.1029 2.42655 3.03271 0
M  V30 527 H 44.8349 2.67406 3.0377 0
M  V30 528 H 41.5899 4.33974 1.8964 0
M  V30 529 H 42.0139 6.72214 0.803579 0
M  V30 530 H 46.6559 3.92329 1.57601 0
M  V30 531 H 44.3739 8.08098 -0.0163435 0
M  V30 532 H 47.9599 5.78658 0.603852 0
M  V30 533 H 46.8399 7.83992 -0.180526 0
M  V30 534 N 44.343 -0.763751 1.37857 0
M  V30 535 C 45.573 -1.55067 1.3652 0
M  V30 536 C 45.981 -1.89135 -0.0494227 0
M  V30 537 O 45.324 -1.52529 -1.02375 0
M  V30 538 C 45.386 -2.8838 2.14656 0
M  V30 539 C 45.05 -2.76905 3.63555 0
M  V30 540 C 46.047 -2.4739 4.57268 0
M  V30 541 C 43.732 -2.94676 4.06781 0
M  V30 542 C 45.726 -2.35786 5.92186 0
M  V30 543 C 43.413 -2.82692 5.41782 0
M  V30 544 C 44.411 -2.53289 6.34298 0
M  V30 545 O 44.099 -2.41345 7.66817 0
M  V30 546 H 43.831 -0.486776 0.469069 0
M  V30 547 H 46.385 -0.953812 1.81911 0
M  V30 548 H 44.615 -3.50217 1.63967 0
M  V30 549 H 46.304 -3.49828 2.05852 0
M  V30 550 H 47.07 -2.33339 4.2518 0
M  V30 551 H 42.949 -3.16563 3.35126 0
M  V30 552 H 46.493 -2.12757 6.64365 0
M  V30 553 H 42.39 -2.96314 5.7347 0
M  V30 554 H 43.158 -2.56634 7.77226 0
M  V30 555 N 45.8211 -1.22559 -0.990812 0
M  V30 556 C 47.0681 -1.05141 -1.73065 0
M  V30 557 C 47.3961 0.413191 -1.9006 0
M  V30 558 O 46.6511 1.32257 -1.44245 0
M  V30 559 C 46.9501 -1.71011 -3.13831 0
M  V30 560 C 46.6161 -3.20911 -3.16745 0
M  V30 561 C 45.2781 -3.61812 -3.17247 0
M  V30 562 C 47.6301 -4.16846 -3.12872 0
M  V30 563 C 44.9581 -4.97127 -3.1158 0
M  V30 564 C 47.3101 -5.5214 -3.08746 0
M  V30 565 C 45.9741 -5.92419 -3.07565 0
M  V30 566 H 45.2441 -0.384738 -0.633291 0
M  V30 567 H 47.8911 -1.5235 -1.16025 0
M  V30 568 H 46.1961 -1.16133 -3.74193 0
M  V30 569 H 47.8931 -1.55023 -3.69823 0
M  V30 570 H 44.4831 -2.88344 -3.17105 0
M  V30 571 H 48.6671 -3.86263 -3.11632 0
M  V30 572 H 43.9231 -5.27562 -3.09012 0
M  V30 573 H 48.0971 -6.26201 -3.04705 0
M  V30 574 H 45.7241 -6.97236 -3.02929 0
M  V30 575 N 47.2992 1.18797 -1.03562 0
M  V30 576 C 48.2292 2.24472 -0.643019 0
M  V30 577 C 49.2102 1.66433 0.351283 0
M  V30 578 O 50.3952 1.92803 0.232505 0
M  V30 579 C 47.5252 3.473 4.24935e-05 0
M  V30 580 C 46.4792 4.18055 -0.917257 0
M  V30 581 C 45.8052 5.34519 -0.138941 0
M  V30 582 C 47.1052 4.72109 -2.23407 0
M  V30 583 H 48.7992 2.57566 -1.52643 0
M  V30 584 H 46.3452 1.23806 -0.735394 0
M  V30 585 H 48.2982 4.20426 0.286383 0
M  V30 586 H 47.0222 3.13424 0.918299 0
M  V30 587 H 45.6812 3.46821 -1.1879 0
M  V30 588 H 45.3292 4.96891 0.781562 0
M  V30 589 H 45.0292 5.82794 -0.750005 0
M  V30 590 H 46.5532 6.10438 0.1405 0
M  V30 591 H 47.9672 5.36955 -2.00879 0
M  V30 592 H 46.3642 5.30897 -2.79765 0
M  V30 593 H 47.4342 3.89807 -2.88407 0
M  V30 594 N 48.7773 0.814389 1.34928 0
M  V30 595 C 50.0053 0.411136 2.02774 0
M  V30 596 C 50.4203 -0.980316 1.61354 0
M  V30 597 O 49.7773 -1.63299 0.814847 0
M  V30 598 C 49.8283 0.493865 3.58111 0
M  V30 599 O 49.5493 1.83047 3.98027 0
M  V30 600 C 51.0503 0.0844174 4.4322 0
M  V30 601 H 48.2703 0.166037 0.650133 0
M  V30 602 H 50.8143 1.10018 1.72384 0
M  V30 603 H 48.9693 -0.147006 3.87121 0
M  V30 604 H 49.3833 1.79872 4.92693 0
M  V30 605 H 50.8573 0.193404 5.51661 0
M  V30 606 H 51.3343 -0.97113 4.28329 0
M  V30 607 H 51.9403 0.69875 4.19521 0
M  V30 608 N 50.2554 -1.46986 0.568584 0
M  V30 609 C 51.2034 -2.31858 -0.185649 0
M  V30 610 C 52.1974 -1.43624 -0.898249 0
M  V30 611 O 53.4034 -1.60327 -0.818242 0
M  V30 612 H 49.7784 -0.747866 -0.0787399 0
M  V30 613 H 51.7494 -2.93303 0.549191 0
M  V30 614 C 50.4984 -3.26513 -1.19519 0
M  V30 615 H 49.8214 -3.94377 -0.656285 0
M  V30 616 H 51.2614 -3.88707 -1.6936 0
M  V30 617 C 49.7204 -2.50847 -2.24894 0
M  V30 618 O 50.2504 -2.26119 -3.32014 0
M  V30 619 N 48.4564 -2.11656 -1.99124 0
M  V30 620 H 48.0034 -2.31966 -1.12024 0
M  V30 621 H 47.9614 -1.61347 -2.69842 0
M  V30 622 N 51.7335 -0.305618 -1.54608 0
M  V30 623 C 52.6965 0.555591 -2.22364 0
M  V30 624 C 53.6965 1.05768 -1.21119 0
M  V30 625 O 54.8865 0.952972 -1.45822 0
M  V30 626 C 52.0185 1.76974 -2.91364 0
M  V30 627 H 53.2115 -0.0364572 -2.99878 0
M  V30 628 H 50.7645 -0.0565007 -1.56198 0
M  V30 629 H 51.4995 2.40151 -2.17941 0
M  V30 630 H 51.2845 1.41732 -3.65588 0
M  V30 631 H 52.7745 2.38148 -3.43038 0
M  V30 632 N 53.2116 1.57565 -0.0334293 0
M  V30 633 C 54.1586 2.10478 0.946981 0
M  V30 634 C 55.1286 1.00787 1.32027 0
M  V30 635 O 56.3136 1.28232 1.41284 0
M  V30 636 C 53.4536 2.63994 2.22263 0
M  V30 637 C 52.5666 3.87709 1.90541 0
M  V30 638 C 51.7016 4.29604 3.12433 0
M  V30 639 C 50.7406 5.46065 2.76549 0
M  V30 640 N 49.8776 5.83096 3.9108 0
M  V30 641 H 54.7176 2.93963 0.488846 0
M  V30 642 H 52.2546 1.45296 0.22969 0
M  V30 643 H 54.2126 2.93114 2.96884 0
M  V30 644 H 52.8426 1.83333 2.65685 0
M  V30 645 H 51.8946 3.65291 1.06144 0
M  V30 646 H 53.2066 4.72403 1.60116 0
M  V30 647 H 52.3606 4.60182 3.9537 0
M  V30 648 H 51.0996 3.43685 3.46023 0
M  V30 649 H 50.1046 5.15176 1.92026 0
M  V30 650 H 51.3296 6.33685 2.44171 0
M  V30 651 H 49.2756 5.00132 4.24504 0
M  V30 652 H 49.1926 6.6244 3.64293 0
M  V30 653 H 50.4606 6.18282 4.74708 0
M  V30 654 N 54.6897 -0.239769 1.55765 0
M  V30 655 C 55.6367 -1.29696 1.90913 0
M  V30 656 C 56.6067 -1.47478 0.764164 0
M  V30 657 O 57.7917 -1.61345 1.01845 0
M  V30 658 C 54.9317 -2.64598 2.21544 0
M  V30 659 C 54.0447 -2.54765 3.48882 0
M  V30 660 C 53.1797 -3.82069 3.69049 0
M  V30 661 C 52.2187 -3.66883 4.89963 0
M  V30 662 N 51.3557 -4.86094 5.06614 0
M  V30 663 H 56.1957 -0.990224 2.81067 0
M  V30 664 H 53.7327 -0.477684 1.39128 0
M  V30 665 H 55.6907 -3.43132 2.3731 0
M  V30 666 H 54.3207 -2.93405 1.34585 0
M  V30 667 H 53.3727 -1.67763 3.41409 0
M  V30 668 H 54.6847 -2.39457 4.37563 0
M  V30 669 H 53.8387 -4.69046 3.84812 0
M  V30 670 H 52.5777 -4.00282 2.78614 0
M  V30 671 H 51.5827 -2.78289 4.74168 0
M  V30 672 H 52.8077 -3.50157 5.81865 0
M  V30 673 H 50.7537 -5.04655 4.19117 0
M  V30 674 H 50.6707 -4.73443 5.89396 0
M  V30 675 H 51.9387 -5.74549 5.26795 0
M  V30 676 N 56.1678 -1.49265 -0.50573 0
M  V30 677 C 57.1148 -1.65585 -1.6078 0
M  V30 678 C 58.0848 -0.497396 -1.58478 0
M  V30 679 O 59.2698 -0.72385 -1.76536 0
M  V30 680 C 56.4098 -1.72408 -2.98948 0
M  V30 681 C 55.5228 -2.99525 -3.11301 0
M  V30 682 C 54.6578 -2.97356 -4.40174 0
M  V30 683 C 53.6968 -4.19074 -4.46143 0
M  V30 684 N 52.8338 -4.14841 -5.66437 0
M  V30 685 H 57.6738 -2.59688 -1.46172 0
M  V30 686 H 55.2108 -1.28761 -0.711261 0
M  V30 687 H 57.1688 -1.74344 -3.79025 0
M  V30 688 H 55.7988 -0.817753 -3.1227 0
M  V30 689 H 54.8508 -3.07222 -2.24318 0
M  V30 690 H 56.1628 -3.89518 -3.11572 0
M  V30 691 H 55.3168 -2.97829 -5.28567 0
M  V30 692 H 54.0558 -2.05133 -4.42461 0
M  V30 693 H 53.0608 -4.1885 -3.56153 0
M  V30 694 H 54.2858 -5.12483 -4.45575 0
M  V30 695 H 52.2318 -3.25453 -5.69575 0
M  V30 696 H 52.1488 -4.98564 -5.68304 0
M  V30 697 H 53.4168 -4.1941 -6.57051 0
M  V30 698 N 57.6459 0.756429 -1.3826 0
M  V30 699 C 58.5939 1.89149 -1.35372 0
M  V30 700 C 59.5879 1.67691 -0.24004 0
M  V30 701 O 60.7939 1.75294 -0.408919 0
M  V30 702 H 57.1689 0.622271 -0.422236 0
M  V30 703 H 59.1399 1.88701 -2.31159 0
M  V30 704 C 57.8889 3.26599 -1.19284 0
M  V30 705 H 57.2119 3.43695 -2.0424 0
M  V30 706 H 58.6519 4.06274 -1.21316 0
M  V30 707 C 57.1109 3.3675 0.100454 0
M  V30 708 O 57.6409 3.86951 1.07851 0
M  V30 709 N 55.8469 2.90179 0.15633 0
M  V30 710 H 55.3939 2.49517 -0.640253 0
M  V30 711 H 55.3519 2.97352 1.02123 0
M  V30 712 N 59.124 1.23083 0.984299 0
M  V30 713 C 60.087 1.00979 2.05757 0
M  V30 714 C 61.087 -0.0269573 1.60777 0
M  V30 715 O 62.277 0.212403 1.729 0
M  V30 716 C 59.409 0.527072 3.36801 0
M  V30 717 H 60.602 1.9622 2.26799 0
M  V30 718 H 58.155 1.05072 1.15714 0
M  V30 719 H 58.89 -0.429294 3.21446 0
M  V30 720 H 58.675 1.27515 3.70786 0
M  V30 721 H 60.165 0.392942 4.15747 0
M  V30 722 N 60.6021 -1.18246 1.0419 0
M  V30 723 C 61.5351 -2.20746 0.578474 0
M  V30 724 C 62.5131 -1.57912 -0.387624 0
M  V30 725 O 63.6971 -1.86071 -0.301634 0
M  V30 726 C 60.8241 -3.38346 -0.154762 0
M  V30 727 C 59.8701 -4.19587 0.764782 0
M  V30 728 S 60.7031 -4.86014 2.24835 0
M  V30 729 C 61.8591 -6.07012 1.526 0
M  V30 730 H 62.0921 -2.59715 1.44691 0
M  V30 731 H 59.6251 -1.287 0.85297 0
M  V30 732 H 61.5831 -4.065 -0.571641 0
M  V30 733 H 60.2441 -2.97786 -0.999105 0
M  V30 734 H 59.4371 -5.03611 0.197976 0
M  V30 735 H 59.0391 -3.56818 1.12057 0
M  V30 736 H 61.3311 -6.72523 0.819733 0
M  V30 737 H 62.2741 -6.68202 2.34333 0
M  V30 738 H 62.6821 -5.55249 1.01779 0
M  V30 739 N 62.0802 -0.821533 -1.34494 0
M  V30 740 C 63.0432 -0.247847 -2.27856 0
M  V30 741 C 64.0432 0.573453 -1.50227 0
M  V30 742 O 65.2332 0.389759 -1.69784 0
M  V30 743 C 62.3652 0.652698 -3.34593 0
M  V30 744 H 63.5582 -1.07146 -2.80107 0
M  V30 745 H 61.1112 -0.593291 -1.44602 0
M  V30 746 H 61.8462 1.49943 -2.87555 0
M  V30 747 H 61.6312 0.065292 -3.92046 0
M  V30 748 H 63.1212 1.04793 -4.04238 0
M  V30 749 N 63.5583 1.46682 -0.576371 0
M  V30 750 C 64.5053 2.30241 0.160499 0
M  V30 751 C 65.4753 1.40233 0.890162 0
M  V30 752 O 66.6603 1.69186 0.882084 0
M  V30 753 C 63.8003 3.24578 1.1723 0
M  V30 754 C 62.9133 4.29684 0.446736 0
M  V30 755 C 62.0483 5.11154 1.44551 0
M  V30 756 C 61.0873 6.08015 0.70599 0
M  V30 757 N 60.2243 6.82376 1.65251 0
M  V30 758 H 65.0643 2.92727 -0.558127 0
M  V30 759 H 62.6013 1.44272 -0.287056 0
M  V30 760 H 64.5593 3.77711 1.77172 0
M  V30 761 H 63.1893 2.63916 1.85872 0
M  V30 762 H 62.2413 3.79458 -0.267594 0
M  V30 763 H 63.5533 4.98626 -0.131686 0
M  V30 764 H 62.7073 5.68533 2.11791 0
M  V30 765 H 61.4463 4.42158 2.05786 0
M  V30 766 H 60.4513 5.49796 0.0197725 0
M  V30 767 H 61.6763 6.79028 0.09912 0
M  V30 768 H 59.6223 6.16094 2.25308 0
M  V30 769 H 59.5393 7.47556 1.12673 0
M  V30 770 H 60.8073 7.44316 2.31546 0
M  V30 771 N 65.0364 0.313813 1.54444 0
M  V30 772 C 66.4524 -0.0391619 1.59552 0
M  V30 773 C 66.6524 -1.51322 1.33056 0
M  V30 774 O 65.7084 -2.26782 1.11022 0
M  V30 775 C 67.0214 0.370302 2.98411 0
M  V30 776 C 68.5694 0.320139 3.11358 0
M  V30 777 C 69.0444 0.704617 4.52547 0
M  V30 778 N 70.5354 0.657645 4.58508 0
M  V30 779 C 71.2704 0.927453 5.6585 0
M  V30 780 N 70.7664 1.26389 6.81174 0
M  V30 781 N 72.5594 0.853662 5.5558 0
M  V30 782 H 64.7104 1.27433 1.69925 0
M  V30 783 H 66.9734 0.517511 0.794284 0
M  V30 784 H 66.6794 1.39694 3.22767 0
M  V30 785 H 66.5534 -0.269619 3.76235 0
M  V30 786 H 68.9404 -0.697275 2.86744 0
M  V30 787 H 69.0214 0.99486 2.35661 0
M  V30 788 H 68.6654 1.7199 4.77893 0
M  V30 789 H 68.5954 0.00768843 5.26599 0
M  V30 790 H 71.0864 0.409067 3.75679 0
M  V30 791 H 71.3994 1.4554 7.58972 0
M  V30 792 H 69.7444 1.30206 6.82694 0
M  V30 793 H 72.9354 0.590383 4.64362 0
M  V30 794 H 73.1084 1.0673 6.3915 0
M  V30 795 N 66.5145 -1.57545 0.0417849 0
M  V30 796 C 67.7635 -1.91494 -0.633492 0
M  V30 797 C 68.0765 -0.921084 -1.72556 0
M  V30 798 O 69.2825 -1.15228 -2.45835 0
M  V30 799 C 67.7385 -3.40072 -1.17808 0
M  V30 800 C 67.3465 -4.47843 -0.118633 0
M  V30 801 C 69.0905 -3.8307 -1.82915 0
M  V30 802 C 66.9975 -5.87529 -0.675578 0
M  V30 803 H 65.9275 -0.714653 -0.24039 0
M  V30 804 H 68.5785 -1.83175 0.109148 0
M  V30 805 H 66.9605 -3.43364 -1.97274 0
M  V30 806 H 68.1345 -4.56128 0.654494 0
M  V30 807 H 66.4495 -4.14128 0.434414 0
M  V30 808 H 69.0465 -4.84794 -2.25563 0
M  V30 809 H 69.3895 -3.1881 -2.67705 0
M  V30 810 H 69.9225 -3.82255 -1.10119 0
M  V30 811 H 66.6615 -6.55362 0.134475 0
M  V30 812 H 66.1815 -5.82824 -1.4169 0
M  V30 813 H 67.8605 -6.36491 -1.1614 0
M  V30 814 N 67.9926 0.231505 -1.5589 0
M  V30 815 C 68.9396 1.28682 -1.91598 0
M  V30 816 C 69.9096 1.47071 -0.771974 0
M  V30 817 O 71.0946 1.60802 -1.027 0
M  V30 818 C 68.2346 2.6342 -2.22944 0
M  V30 819 C 67.3476 2.52912 -3.50228 0
M  V30 820 C 66.4826 3.80106 -3.7107 0
M  V30 821 C 65.5216 3.64279 -4.91902 0
M  V30 822 N 64.6586 4.834 -5.09184 0
M  V30 823 H 69.4986 0.975305 -2.81588 0
M  V30 824 H 67.0356 0.470299 -1.39379 0
M  V30 825 H 68.9936 3.41869 -2.39126 0
M  V30 826 H 67.6236 2.92687 -1.36139 0
M  V30 827 H 66.6756 1.6595 -3.42294 0
M  V30 828 H 67.9876 2.37133 -4.38827 0
M  V30 829 H 67.1416 4.66999 -3.87295 0
M  V30 830 H 65.8806 3.98799 -2.80733 0
M  V30 831 H 64.8856 2.7577 -4.75637 0
M  V30 832 H 66.1106 3.47067 -5.83714 0
M  V30 833 H 64.0566 5.02425 -4.21788 0
M  V30 834 H 63.9736 4.70311 -5.91898 0
M  V30 835 H 65.2416 5.71747 -5.29835 0
M  V30 836 N 69.4707 1.49531 0.497807 0
M  V30 837 C 70.4337 1.65916 1.58128 0
M  V30 838 C 71.4337 0.530825 1.51786 0
M  V30 839 O 72.6237 0.797342 1.54881 0
M  V30 840 C 69.7557 1.65951 2.9778 0
M  V30 841 H 70.9487 2.62556 1.44929 0
M  V30 842 H 68.5017 1.38611 0.722275 0
M  V30 843 H 69.2367 0.709065 3.16453 0
M  V30 844 H 69.0217 2.47897 3.03792 0
M  V30 845 H 70.5117 1.80673 3.76493 0
M  V30 846 N 70.9488 -0.749086 1.3866 0
M  V30 847 C 71.8958 -1.86291 1.36251 0
M  V30 848 C 72.8658 -1.64578 0.224347 0
M  V30 849 O 74.0508 -1.86181 0.417279 0
M  V30 850 C 71.1908 -3.23644 1.19786 0
M  V30 851 C 70.3038 -3.57158 2.43027 0
M  V30 852 C 69.4388 -4.83838 2.19258 0
M  V30 853 C 68.4778 -5.10152 3.38247 0
M  V30 854 N 67.6148 -6.28029 3.13884 0
M  V30 855 H 72.4548 -1.87685 2.3147 0
M  V30 856 H 69.9918 -0.917287 1.14997 0
M  V30 857 H 71.9498 -4.0291 1.08254 0
M  V30 858 H 70.5798 -3.21566 0.282031 0
M  V30 859 H 69.6318 -2.72701 2.65214 0
M  V30 860 H 70.9438 -3.7253 3.31697 0
M  V30 861 H 70.0978 -5.71057 2.04888 0
M  V30 862 H 68.8368 -4.70614 1.2796 0
M  V30 863 H 67.8418 -4.21401 3.53131 0
M  V30 864 H 69.0668 -5.25271 4.30427 0
M  V30 865 H 67.0128 -6.1612 2.25238 0
M  V30 866 H 66.9298 -6.43922 3.96106 0
M  V30 867 H 68.1978 -7.18124 3.03179 0
M  V30 868 N 72.4269 -1.23603 -0.977757 0
M  V30 869 C 73.8379 -1.06424 -1.53398 0
M  V30 870 C 74.1889 0.367578 -1.92726 0
M  V30 871 O 73.3139 1.25465 -1.76316 0
M  V30 872 C 73.9089 -1.92568 -2.78753 0
M  V30 873 C 72.4679 -1.79642 -3.30765 0
M  V30 874 C 71.6149 -1.88111 -2.03739 0
M  V30 875 H 74.5659 -1.37227 -0.797152 0
M  V30 876 H 74.5869 -1.45203 -3.51705 0
M  V30 877 H 74.0989 -2.96771 -2.50098 0
M  V30 878 H 72.1999 -0.782325 -3.64294 0
M  V30 879 H 72.3129 -2.63174 -4.00345 0
M  V30 880 H 70.6769 -1.31723 -2.17994 0
M  V30 881 H 71.4599 -2.93875 -1.77461 0
M  V30 882 N 73.905 1.17692 -1.04816 0
M  V30 883 C 75.133 1.91786 -0.776254 0
M  V30 884 C 75.548 1.76604 0.667577 0
M  V30 885 O 74.905 1.10067 1.45573 0
M  V30 886 C 74.956 3.42967 -1.14263 0
M  V30 887 O 74.677 3.57678 -2.52978 0
M  V30 888 C 76.178 4.34144 -0.896311 0
M  V30 889 H 73.398 0.608624 -0.282519 0
M  V30 890 H 75.942 1.49268 -1.39783 0
M  V30 891 H 74.097 3.83245 -0.565874 0
M  V30 892 H 74.511 4.51319 -2.67229 0
M  V30 893 H 75.985 5.38744 -1.20244 0
M  V30 894 H 76.462 4.38876 0.168636 0
M  V30 895 H 77.068 3.99574 -1.45672 0
M  V30 896 N 75.3831 0.828654 1.34056 0
M  V30 897 C 76.6081 0.431637 2.02859 0
M  V30 898 C 77.0331 -0.956339 1.61975 0
M  V30 899 O 76.3911 -1.62338 0.807228 0
M  V30 900 C 76.4391 0.548323 3.56407 0
M  V30 901 O 75.5431 -0.429556 4.10157 0
M  V30 902 H 74.8841 0.176886 0.640006 0
M  V30 903 H 77.4141 1.12066 1.71179 0
M  V30 904 H 77.4241 0.426196 4.05768 0
M  V30 905 H 76.0991 1.5606 3.8551 0
M  V30 906 H 74.6761 -0.265836 3.71951 0
M  V30 907 N 76.8612 -1.46375 0.584142 0
M  V30 908 C 78.1382 -1.956 0.0033388 0
M  V30 909 C 78.5182 -1.52679 -1.45782 0
M  V30 910 O 77.8662 -0.77816 -2.14842 0
M  V30 911 C 78.0762 -3.48551 0.176891 0
M  V30 912 C 79.4242 -4.24576 0.0454609 0
M  V30 913 O 80.4482 -3.56043 0.105801 0
M  V30 914 O 79.3072 -5.46427 -0.0890376 0
M  V30 915 H 76.4012 -0.825547 -0.0490066 0
M  V30 916 H 78.9472 -1.56652 0.65256 0
M  V30 917 H 77.7192 -3.72683 1.1926 0
M  V30 918 H 77.3422 -3.94332 -0.508695 0
M  V30 919 N 78.3393 -0.321999 -1.54275 0
M  V30 920 C 79.2863 0.544664 -2.24281 0
M  V30 921 C 80.2563 1.1129 -1.23303 0
M  V30 922 O 81.4413 1.15354 -1.51981 0
M  V30 923 C 78.5813 1.70045 -3.00298 0
M  V30 924 C 77.6943 1.16159 -4.1609 0
M  V30 925 C 76.8293 2.28293 -4.79641 0
M  V30 926 C 75.8683 1.71648 -5.8754 0
M  V30 927 N 75.0053 2.77438 -6.44959 0
M  V30 928 H 79.8453 -0.0588907 -2.97942 0
M  V30 929 H 77.3823 -0.0408345 -1.47043 0
M  V30 930 H 79.3403 2.38054 -3.42616 0
M  V30 931 H 77.9703 2.27531 -2.28975 0
M  V30 932 H 77.0223 0.373092 -3.78566 0
M  V30 933 H 78.3343 0.707087 -4.93763 0
M  V30 934 H 77.4883 3.0421 -5.2492 0
M  V30 935 H 76.2273 2.77079 -4.01346 0
M  V30 936 H 75.2323 0.942282 -5.41665 0
M  V30 937 H 76.4573 1.23741 -6.67731 0
M  V30 938 H 74.4033 3.25519 -5.69538 0
M  V30 939 H 74.3203 2.36547 -7.1804 0
M  V30 940 H 75.5883 3.53189 -6.94894 0
M  V30 941 N 79.8174 1.5752 -0.0501392 0
M  V30 942 C 81.2284 1.80271 0.485705 0
M  V30 943 C 81.5794 0.96228 1.70981 0
M  V30 944 O 80.7044 0.178578 2.15662 0
M  V30 945 C 81.2994 3.26957 0.887938 0
M  V30 946 C 79.8584 3.5063 1.36877 0
M  V30 947 C 79.0054 2.75165 0.343468 0
M  V30 948 H 81.9564 1.56281 -0.276028 0
M  V30 949 H 81.9774 3.37821 1.75093 0
M  V30 950 H 81.4894 3.881 -0.0031809 0
M  V30 951 H 79.5904 2.94766 2.27911 0
M  V30 952 H 79.7034 4.59343 1.36164 0
M  V30 953 H 78.0674 2.4127 0.816128 0
M  V30 954 H 78.8504 3.39034 -0.539548 0
M  V30 955 N 81.2955 -0.223234 1.56011 0
M  V30 956 C 82.5435 -0.946003 1.78592 0
M  V30 957 C 82.8645 -1.84936 0.618349 0
M  V30 958 O 82.1345 -1.92473 -0.364833 0
M  V30 959 H 80.7145 -0.352298 0.658707 0
M  V30 960 H 83.3765 -0.235494 1.93472 0
M  V30 961 H 82.4725 -1.55381 2.70672 0
M  V30 962 N 82.7736 -1.49793 -0.48987 0
M  V30 963 C 83.9986 -1.63836 -1.27172 0
M  V30 964 C 84.4236 -0.31402 -1.8546 0
M  V30 965 O 83.7816 0.719803 -1.66399 0
M  V30 966 C 83.8296 -2.71797 -2.36978 0
M  V30 967 O 82.9336 -2.31744 -3.41128 0
M  V30 968 H 82.2746 -0.547997 -0.37496 0
M  V30 969 H 84.8046 -1.96053 -0.585191 0
M  V30 970 H 84.8146 -2.94305 -2.82575 0
M  V30 971 H 83.4896 -3.67923 -1.93921 0
M  V30 972 H 82.0666 -2.1961 -3.01373 0
M  V30 973 N 84.2517 0.741722 -1.39055 0
M  V30 974 C 85.6627 1.31966 -1.32068 0
M  V30 975 C 86.0137 1.96192 0.0180797 0
M  V30 976 O 85.1387 1.95861 0.920196 0
M  V30 977 C 85.7337 2.39954 -2.39181 0
M  V30 978 C 84.2927 2.93438 -2.35735 0
M  V30 979 C 83.4397 1.66936 -2.21422 0
M  V30 980 H 86.3907 0.539721 -1.4924 0
M  V30 981 H 86.4117 3.20182 -2.05581 0
M  V30 982 H 85.9237 1.9318 -3.36605 0
M  V30 983 H 84.0247 3.4451 -1.41929 0
M  V30 984 H 84.1377 3.4701 -3.30335 0
M  V30 985 H 82.5017 1.91016 -1.68478 0
M  V30 986 H 83.2847 1.22224 -3.20806 0
M  V30 987 N 85.7298 1.2412 0.971189 0
M  V30 988 C 86.9598 1.10415 1.7462 0
M  V30 989 C 87.3678 -0.346462 1.86001 0
M  V30 990 O 86.7108 -1.25104 1.34517 0
M  V30 991 C 86.7728 1.66596 3.18568 0
M  V30 992 C 86.4368 3.15446 3.3067 0
M  V30 993 C 87.4338 4.12636 3.16271 0
M  V30 994 C 85.1188 3.55337 3.55022 0
M  V30 995 C 87.1128 5.47699 3.26044 0
M  V30 996 C 84.7998 4.90542 3.64434 0
M  V30 997 C 85.7978 5.86532 3.49956 0
M  V30 998 O 85.4858 7.19279 3.59017 0
M  V30 999 H 85.2178 0.386616 0.55453 0
M  V30 1000 H 87.7718 1.64633 1.22821 0
M  V30 1001 H 86.0018 1.06808 3.71657 0
M  V30 1002 H 87.6908 1.48232 3.77865 0
M  V30 1003 H 88.4568 3.8316 2.97344 0
M  V30 1004 H 84.3358 2.8113 3.65359 0
M  V30 1005 H 87.8798 6.22603 3.14661 0
M  V30 1006 H 83.7768 5.19691 3.82873 0
M  V30 1007 H 84.5448 7.27153 3.75754 0
M  V30 1008 N 87.2079 -1.17134 1.05439 0
M  V30 1009 C 88.6239 -1.39454 0.776201 0
M  V30 1010 C 88.8239 -1.91454 -0.628307 0
M  V30 1011 O 87.8799 -2.10777 -1.39031 0
M  V30 1012 C 89.1929 -2.38305 1.83388 0
M  V30 1013 C 90.7409 -2.52006 1.85639 0
M  V30 1014 C 91.2159 -3.54133 2.90437 0
M  V30 1015 N 92.7069 -3.61653 2.89415 0
M  V30 1016 C 93.4419 -4.4044 3.67152 0
M  V30 1017 N 92.9379 -5.22721 4.54681 0
M  V30 1018 N 94.7309 -4.35337 3.55581 0
M  V30 1019 H 86.8819 -0.817134 1.96053 0
M  V30 1020 H 89.1449 -0.421626 0.849079 0
M  V30 1021 H 88.8509 -2.07173 2.84204 0
M  V30 1022 H 88.7249 -3.37841 1.67761 0
M  V30 1023 H 91.1119 -2.82447 0.85486 0
M  V30 1024 H 91.1929 -1.52537 2.05344 0
M  V30 1025 H 90.8369 -3.24431 3.90777 0
M  V30 1026 H 90.7669 -4.53313 2.67983 0
M  V30 1027 H 93.2579 -3.02909 2.25952 0
M  V30 1028 H 93.5709 -5.80027 5.10674 0
M  V30 1029 H 91.9159 -5.22093 4.58741 0
M  V30 1030 H 95.1069 -3.70112 2.86592 0
M  V30 1031 H 95.2799 -4.96494 4.1641 0
M  V30 1032 N 88.686 -0.835752 -1.33615 0
M  V30 1033 C 89.911 -0.442389 -2.02627 0
M  V30 1034 C 90.336 0.947735 -1.62479 0
M  V30 1035 O 89.694 1.61907 -0.815826 0
M  V30 1036 C 89.742 -0.567216 -3.56111 0
M  V30 1037 O 88.846 0.407799 -4.10379 0
M  V30 1038 H 88.187 -0.180278 -0.639059 0
M  V30 1039 H 90.717 -1.12972 -1.70583 0
M  V30 1040 H 90.727 -0.447708 -4.05536 0
M  V30 1041 H 89.402 -1.58103 -3.84677 0
M  V30 1042 H 87.979 0.246107 -3.72087 0
M  V30 1043 N 90.1641 1.46063 -0.591896 0
M  V30 1044 C 91.4101 2.02638 -0.0811191 0
M  V30 1045 C 91.7431 1.4613 1.27905 0
M  V30 1046 O 91.0181 0.629908 1.84017 0
M  V30 1047 C 91.3011 3.60091 -0.0252436 0
M  V30 1048 C 91.1541 4.26965 -1.41496 0
M  V30 1049 C 92.4731 4.3496 0.670685 0
M  V30 1050 H 89.5921 0.73635 -0.0309524 0
M  V30 1051 H 92.2341 1.741 -0.760859 0
M  V30 1052 H 90.3841 3.84535 0.553624 0
M  V30 1053 H 92.0561 4.13756 -2.0397 0
M  V30 1054 H 90.2991 3.85971 -1.98011 0
M  V30 1055 H 90.9701 5.35781 -1.32825 0
M  V30 1056 H 93.4461 4.15716 0.178825 0
M  V30 1057 H 92.3221 5.44686 0.678837 0
M  V30 1058 H 92.5831 4.06685 1.73379 0
M  V30 1059 N 91.6422 0.330177 1.54103 0
M  V30 1060 C 92.8702 -0.272179 2.05102 0
M  V30 1061 C 93.2852 -1.45267 1.20595 0
M  V30 1062 O 92.6422 -1.8094 0.238144 0
M  V30 1063 C 92.6932 -0.70023 3.54653 0
M  V30 1064 O 92.4142 0.433301 4.35952 0
M  V30 1065 C 93.9152 -1.3647 4.21771 0
M  V30 1066 H 91.1352 -0.0549159 0.668749 0
M  V30 1067 H 93.6792 0.478285 1.98828 0
M  V30 1068 H 91.8342 -1.40066 3.61193 0
M  V30 1069 H 92.2482 0.0947539 5.24414 0
M  V30 1070 H 93.7222 -1.61509 5.27843 0
M  V30 1071 H 94.1992 -2.31409 3.73292 0
M  V30 1072 H 94.8052 -0.706675 4.19388 0
M  V30 1073 N 93.1203 -1.57491 0.0584922 0
M  V30 1074 C 94.0703 -2.08474 -0.923188 0
M  V30 1075 C 95.0543 -0.991479 -1.26722 0
M  V30 1076 O 96.2463 -1.25473 -1.24842 0
M  V30 1077 C 93.3753 -2.6392 -2.19548 0
M  V30 1078 C 92.4613 -3.80227 -1.87852 0
M  V30 1079 N 92.8523 -4.89714 -1.26546 0
M  V30 1080 C 91.1503 -3.89271 -2.17679 0
M  V30 1081 C 91.8513 -5.70689 -1.12644 0
M  V30 1082 N 90.8273 -5.18531 -1.63176 0
M  V30 1083 H 94.6293 -2.90517 -0.444653 0
M  V30 1084 H 92.1433 -1.61745 -0.145764 0
M  V30 1085 H 94.1403 -2.98752 -2.9078 0
M  V30 1086 H 92.8003 -1.83318 -2.68001 0
M  V30 1087 H 93.8113 -5.09358 -0.936757 0
M  V30 1088 H 90.4883 -3.19623 -2.68602 0
M  V30 1089 H 91.8783 -6.6875 -0.6499 0
M  V30 1090 N 94.5984 0.214957 -1.56127 0
M  V30 1091 C 95.8454 0.938372 -1.79446 0
M  V30 1092 C 96.1734 1.8407 -0.628378 0
M  V30 1093 O 95.4284 1.91837 0.386925 0
M  V30 1094 C 95.7274 1.80314 -3.0858 0
M  V30 1095 C 95.3934 1.05349 -4.3842 0
M  V30 1096 C 94.0554 0.846435 -4.73697 0
M  V30 1097 C 96.4074 0.524588 -5.18553 0
M  V30 1098 C 93.7354 0.098683 -5.86617 0
M  V30 1099 C 96.0874 -0.209853 -6.32252 0
M  V30 1100 C 94.7514 -0.428102 -6.66126 0
M  V30 1101 H 94.0214 0.343375 -0.656639 0
M  V30 1102 H 96.6684 0.206077 -1.90388 0
M  V30 1103 H 94.9734 2.6035 -2.92789 0
M  V30 1104 H 96.6704 2.36513 -3.23825 0
M  V30 1105 H 93.2604 1.22486 -4.10725 0
M  V30 1106 H 97.4444 0.672008 -4.91729 0
M  V30 1107 H 92.7004 -0.0805753 -6.11347 0
M  V30 1108 H 96.8744 -0.627157 -6.9357 0
M  V30 1109 H 94.5014 -1.00944 -7.53468 0
M  V30 1110 N 96.0765 1.50051 0.48192 0
M  V30 1111 C 97.3535 1.51009 1.2432 0
M  V30 1112 C 97.7335 0.248587 2.09631 0
M  V30 1113 O 97.0815 -0.768409 2.15192 0
M  V30 1114 C 97.2915 2.79981 2.08355 0
M  V30 1115 C 98.6395 3.3022 2.66908 0
M  V30 1116 O 99.6635 2.81228 2.18607 0
M  V30 1117 O 98.5225 4.15595 3.54884 0
M  V30 1118 H 95.6165 0.605239 0.563573 0
M  V30 1119 H 98.1625 1.62332 0.494627 0
M  V30 1120 H 96.9345 3.63275 1.45419 0
M  V30 1121 H 96.5575 2.7161 2.90368 0
M  V30 1122 N 97.5546 -0.734337 1.39446 0
M  V30 1123 C 98.7796 -1.52866 1.40167 0
M  V30 1124 C 99.2046 -1.881 -0.00171513 0
M  V30 1125 O 98.5626 -1.51957 -0.988879 0
M  V30 1126 C 98.6106 -2.79235 2.28167 0
M  V30 1127 O 97.7146 -3.75185 1.71201 0
M  V30 1128 H 97.0556 -0.461618 0.477289 0
M  V30 1129 H 99.5856 -0.905949 1.8345 0
M  V30 1130 H 99.5956 -3.27963 2.42702 0
M  V30 1131 H 98.2706 -2.52923 3.30156 0
M  V30 1132 H 96.8476 -3.33958 1.65912 0
M  V30 1133 N 99.0327 -1.24633 -0.964593 0
M  V30 1134 C 99.9627 -1.06611 -2.07741 0
M  V30 1135 C 100.944 0.0218666 -1.70086 0
M  V30 1136 O 102.129 -0.145793 -1.93652 0
M  V30 1137 C 99.2587 -0.673444 -3.40708 0
M  V30 1138 C 98.2127 -1.71054 -3.92332 0
M  V30 1139 C 97.5387 -1.17285 -5.21678 0
M  V30 1140 C 98.8387 -3.10718 -4.19824 0
M  V30 1141 H 100.533 -1.99693 -2.23076 0
M  V30 1142 H 98.0787 -0.96152 -1.07195 0
M  V30 1143 H 100.032 -0.534345 -4.17998 0
M  V30 1144 H 98.7557 0.293073 -3.25282 0
M  V30 1145 H 97.4147 -1.83791 -3.17201 0
M  V30 1146 H 97.0627 -0.196847 -5.02615 0
M  V30 1147 H 96.7627 -1.86592 -5.57187 0
M  V30 1148 H 98.2867 -1.04593 -6.01575 0
M  V30 1149 H 99.7007 -3.01192 -4.87808 0
M  V30 1150 H 98.0977 -3.77406 -4.66567 0
M  V30 1151 H 99.1677 -3.58524 -3.26479 0
M  V30 1152 N 100.511 1.16574 -1.06058 0
M  V30 1153 C 101.474 2.19085 -0.673392 0
M  V30 1154 C 102.474 1.5835 0.279648 0
M  V30 1155 O 103.664 1.74088 0.0623488 0
M  V30 1156 C 100.796 3.40899 0.00954234 0
M  V30 1157 H 101.989 2.54853 -1.58081 0
M  V30 1158 H 99.5418 1.30808 -0.855516 0
M  V30 1159 H 100.277 3.10684 0.929826 0
M  V30 1160 H 100.062 3.86233 -0.67573 0
M  V30 1161 H 101.552 4.1675 0.266245 0
M  V30 1162 N 101.989 0.842826 1.3317 0
M  V30 1163 C 103.235 0.441099 1.97945 0
M  V30 1164 C 103.568 -0.998024 1.66593 0
M  V30 1165 O 102.843 -1.69839 0.947898 0
M  V30 1166 C 103.126 0.666841 3.53872 0
M  V30 1167 C 102.979 2.15352 3.94897 0
M  V30 1168 C 104.298 0.115544 4.39948 0
M  V30 1169 H 101.417 0.161739 0.719034 0
M  V30 1170 H 104.059 1.05907 1.57746 0
M  V30 1171 H 102.209 0.140828 3.88245 0
M  V30 1172 H 103.881 2.7447 3.70761 0
M  V30 1173 H 102.124 2.63653 3.44484 0
M  V30 1174 H 102.795 2.26221 5.03516 0
M  V30 1175 H 105.271 0.565213 4.12243 0
M  V30 1176 H 104.147 0.303152 5.48062 0
M  V30 1177 H 104.408 -0.980935 4.3108 0
M  V30 1178 N 103.467 -1.45747 0.599634 0
M  V30 1179 C 104.716 -2.01502 0.0893511 0
M  V30 1180 C 105.029 -1.4748 -1.28488 0
M  V30 1181 O 106.235 -1.95161 -1.88745 0
M  V30 1182 C 104.691 -3.59735 0.109082 0
M  V30 1183 C 104.299 -4.22754 1.48267 0
M  V30 1184 C 106.043 -4.23085 -0.346374 0
M  V30 1185 C 103.95 -5.73115 1.45921 0
M  V30 1186 H 102.88 -0.753417 0.0296347 0
M  V30 1187 H 105.531 -1.67303 0.753788 0
M  V30 1188 H 103.913 -3.91087 -0.621854 0
M  V30 1189 H 105.087 -4.02987 2.23468 0
M  V30 1190 H 103.402 -3.71567 1.87955 0
M  V30 1191 H 105.999 -5.33327 -0.38298 0
M  V30 1192 H 106.342 -3.93201 -1.36743 0
M  V30 1193 H 106.875 -3.9642 0.331038 0
M  V30 1194 H 103.614 -6.07685 2.45762 0
M  V30 1195 H 103.134 -5.95097 0.749665 0
M  V30 1196 H 104.813 -6.3616 1.17941 0
M  V30 1197 N 104.945 -0.338344 -1.53925 0
M  V30 1198 C 106.222 0.314774 -1.93051 0
M  V30 1199 C 106.602 1.68669 -1.26941 0
M  V30 1200 O 105.95 2.24636 -0.418445 0
M  V30 1201 C 106.16 0.392249 -3.46789 0
M  V30 1202 C 107.508 0.645554 -4.19664 0
M  V30 1203 O 108.532 0.474575 -3.53024 0
M  V30 1204 O 107.391 0.976408 -5.37707 0
M  V30 1205 H 104.485 0.182598 -0.80659 0
M  V30 1206 H 107.031 -0.389141 -1.65178 0
M  V30 1207 H 105.803 -0.570702 -3.87116 0
M  V30 1208 H 105.426 1.14316 -3.80812 0
M  V30 1209 N 106.423 1.57458 -0.0668435 0
M  V30 1210 C 107.672 1.92477 0.602947 0
M  V30 1211 C 107.985 0.948419 1.71068 0
M  V30 1212 O 109.191 1.19124 2.43971 0
M  V30 1213 C 107.647 3.41903 1.12383 0
M  V30 1214 C 107.255 4.47975 0.04737 0
M  V30 1215 C 108.999 3.85931 1.76797 0
M  V30 1216 C 106.906 5.88529 0.582022 0
M  V30 1217 H 105.836 0.718387 0.22899 0
M  V30 1218 H 108.487 1.82978 -0.138276 0
M  V30 1219 H 106.869 3.46459 1.91787 0
M  V30 1220 H 108.043 4.55029 -0.726978 0
M  V30 1221 H 106.358 4.13384 -0.500243 0
M  V30 1222 H 108.955 4.88322 2.17821 0
M  V30 1223 H 109.298 3.23029 2.62599 0
M  V30 1224 H 109.831 3.83958 1.04024 0
M  V30 1225 H 106.57 6.55065 -0.238721 0
M  V30 1226 H 106.09 5.85004 1.324 0
M  V30 1227 H 107.769 6.38258 1.05999 0
M  V30 1228 N 107.901 -0.206675 1.56239 0
M  V30 1229 C 109.312 -0.772383 1.69974 0
M  V30 1230 C 109.663 -1.84353 0.671436 0
M  V30 1231 O 108.788 -2.15695 -0.174491 0
M  V30 1232 C 109.383 -1.40779 3.08167 0
M  V30 1233 C 107.942 -1.92072 3.23706 0
M  V30 1234 C 107.089 -0.786347 2.65917 0
M  V30 1235 H 110.04 0.0182223 1.5869 0
M  V30 1236 H 110.061 -2.27696 3.04852 0
M  V30 1237 H 109.573 -0.627958 3.82986 0
M  V30 1238 H 107.674 -2.7281 2.53782 0
M  V30 1239 H 107.787 -2.09046 4.31087 0
M  V30 1240 H 106.151 -1.1976 2.24788 0
M  V30 1241 H 106.934 -0.0189416 3.43295 0
M  V30 1242 N 109.379 -1.50304 -0.473955 0
M  V30 1243 C 110.627 -1.60832 -1.22382 0
M  V30 1244 C 110.948 -0.30939 -1.9253 0
M  V30 1245 O 110.218 0.67296 -1.83978 0
M  V30 1246 H 108.798 -0.592652 -0.454723 0
M  V30 1247 H 111.46 -1.87068 -0.546968 0
M  V30 1248 H 110.556 -2.41803 -1.97327 0
M  V30 1249 N 110.857 0.726932 -1.39834 0
M  V30 1250 C 111.82 1.82269 -1.38962 0
M  V30 1251 C 112.82 1.58248 -0.285334 0
M  V30 1252 O 114.01 1.65499 -0.54366 0
M  V30 1253 C 111.142 3.20186 -1.17019 0
M  V30 1254 H 112.335 1.84443 -2.36476 0
M  V30 1255 H 109.888 0.931416 -1.25516 0
M  V30 1256 H 110.623 3.23669 -0.202204 0
M  V30 1257 H 110.408 3.3902 -1.96998 0
M  V30 1258 H 111.898 4.00235 -1.1917 0
M  V30 1259 N 112.336 1.25143 0.95797 0
M  V30 1260 C 113.613 1.00472 1.67823 0
M  V30 1261 C 113.993 -0.470056 2.058 0
M  V30 1262 O 113.341 -1.44663 1.76875 0
M  V30 1263 C 113.551 1.9372 2.90299 0
M  V30 1264 C 114.899 2.21371 3.62326 0
M  V30 1265 O 115.923 1.91451 3.00375 0
M  V30 1266 O 114.782 2.72231 4.7387 0
M  V30 1267 H 111.876 0.380752 0.734137 0
M  V30 1268 H 114.422 1.36283 1.01119 0
M  V30 1269 H 113.194 2.93316 2.59001 0
M  V30 1270 H 112.817 1.58286 3.64735 0
M  V30 1271 N 113.814 -1.1601 1.06675 0
M  V30 1272 C 115.042 -1.90527 0.806667 0
M  V30 1273 C 115.457 -1.77643 -0.639396 0
M  V30 1274 O 114.814 -1.12369 -1.43803 0
M  V30 1275 C 114.865 -3.41106 1.19705 0
M  V30 1276 O 114.586 -3.53608 2.58636 0
M  V30 1277 C 116.087 -4.32663 0.965266 0
M  V30 1278 H 113.307 -0.604053 0.292166 0
M  V30 1279 H 115.851 -1.47026 1.4214 0
M  V30 1280 H 114.006 -3.82296 0.626774 0
M  V30 1281 H 114.42 -4.47011 2.74375 0
M  V30 1282 H 115.894 -5.36763 1.288 0
M  V30 1283 H 116.371 -4.39089 -0.0987936 0
M  V30 1284 H 116.977 -3.97206 1.52011 0
M  V30 1285 N 115.292 -0.849877 -1.32721 0
M  V30 1286 C 116.222 -0.306308 -2.31482 0
M  V30 1287 C 117.203 0.591952 -1.59468 0
M  V30 1288 O 118.388 0.513199 -1.87296 0
M  V30 1289 C 115.518 0.510204 -3.43532 0
M  V30 1290 C 114.472 -0.293209 -4.26994 0
M  V30 1291 C 113.798 0.647743 -5.30762 0
M  V30 1292 C 115.098 -1.51634 -4.99804 0
M  V30 1293 H 116.792 -1.13153 -2.77195 0
M  V30 1294 H 114.338 -0.545553 -1.33266 0
M  V30 1295 H 116.291 0.900856 -4.11658 0
M  V30 1296 H 115.015 1.36874 -2.96535 0
M  V30 1297 H 113.674 -0.665555 -3.60508 0
M  V30 1298 H 113.322 1.50299 -4.8002 0
M  V30 1299 H 113.022 0.11422 -5.87489 0
M  V30 1300 H 114.546 1.03567 -6.01753 0
M  V30 1301 H 115.96 -1.19824 -5.60638 0
M  V30 1302 H 114.357 -1.98745 -5.66234 0
M  V30 1303 H 115.427 -2.28018 -4.27943 0
M  V30 1304 N 116.77 1.45427 -0.607355 0
M  V30 1305 C 118.047 1.9557 -0.0344566 0
M  V30 1306 C 118.427 1.54979 1.43334 0
M  V30 1307 O 117.775 0.812241 2.13576 0
M  V30 1308 C 117.985 3.48226 -0.232321 0
M  V30 1309 C 119.333 4.2445 -0.113001 0
M  V30 1310 O 120.357 3.55829 -0.162431 0
M  V30 1311 O 119.216 5.465 0.00209442 0
M  V30 1312 H 116.31 0.826222 0.0358667 0
M  V30 1313 H 118.856 1.55594 -0.6774 0
M  V30 1314 H 117.628 3.70739 -1.25174 0
M  V30 1315 H 117.251 3.95092 0.445896 0
M  V30 1316 N 118.248 0.346503 1.53744 0
M  V30 1317 C 119.195 -0.508914 2.25119 0
M  V30 1318 C 120.165 -1.09315 1.25058 0
M  V30 1319 O 121.35 -1.12921 1.53797 0
M  V30 1320 C 118.49 -1.65246 3.02965 0
M  V30 1321 C 117.603 -1.09525 4.17886 0
M  V30 1322 C 116.738 -2.20634 4.83212 0
M  V30 1323 C 115.777 -1.62279 5.90196 0
M  V30 1324 N 114.914 -2.67143 6.49291 0
M  V30 1325 H 119.754 0.106283 2.9781 0
M  V30 1326 H 117.291 0.0642227 1.4696 0
M  V30 1327 H 119.249 -2.32574 3.4636 0
M  V30 1328 H 117.879 -2.2386 2.32565 0
M  V30 1329 H 116.931 -0.312818 3.79112 0
M  V30 1330 H 118.243 -0.628444 4.94825 0
M  V30 1331 H 117.397 -2.95821 5.29693 0
M  V30 1332 H 116.136 -2.70659 4.05703 0
M  V30 1333 H 115.141 -0.855989 5.43096 0
M  V30 1334 H 116.366 -1.13102 6.69615 0
M  V30 1335 H 114.312 -3.16417 5.74645 0
M  V30 1336 H 114.229 -2.25093 7.21713 0
M  V30 1337 H 115.497 -3.4209 7.00425 0
M  V30 1338 N 119.726 -1.57421 0.075193 0
M  V30 1339 C 120.656 -2.15942 -0.888324 0
M  V30 1340 C 121.637 -1.08737 -1.30806 0
M  V30 1341 O 122.822 -1.36787 -1.37851 0
M  V30 1342 C 119.952 -2.72379 -2.1547 0
M  V30 1343 C 118.906 -3.8478 -1.87425 0
M  V30 1344 C 118.232 -4.27834 -3.20721 0
M  V30 1345 C 119.532 -5.08869 -1.17684 0
M  V30 1346 H 121.226 -2.96705 -0.400799 0
M  V30 1347 H 118.772 -1.42723 -0.191342 0
M  V30 1348 H 120.725 -3.11965 -2.83295 0
M  V30 1349 H 119.449 -1.88841 -2.6647 0
M  V30 1350 H 118.108 -3.45703 -1.22004 0
M  V30 1351 H 117.756 -3.41214 -3.6957 0
M  V30 1352 H 117.456 -5.03605 -3.02746 0
M  V30 1353 H 118.98 -4.70039 -3.89738 0
M  V30 1354 H 120.394 -5.4575 -1.75584 0
M  V30 1355 H 118.791 -5.8994 -1.09956 0
M  V30 1356 H 119.861 -4.84648 -0.156453 0
M  V30 1357 N 121.204 0.198386 -1.56346 0
M  V30 1358 C 122.451 0.919286 -1.80431 0
M  V30 1359 C 122.779 1.83393 -0.647866 0
M  V30 1360 O 122.034 1.92236 0.366556 0
M  V30 1361 C 122.333 1.77031 -3.10475 0
M  V30 1362 C 121.999 1.00693 -4.39513 0
M  V30 1363 C 120.661 0.796145 -4.74568 0
M  V30 1364 C 123.013 0.469559 -5.19081 0
M  V30 1365 C 120.341 0.0364588 -5.86689 0
M  V30 1366 C 122.693 -0.2769 -6.31994 0
M  V30 1367 C 121.357 -0.49873 -6.65634 0
M  V30 1368 H 120.627 0.336391 -0.660244 0
M  V30 1369 H 123.274 0.185872 -1.90596 0
M  V30 1370 H 121.579 2.5723 -2.95533 0
M  V30 1371 H 123.276 2.33065 -3.26315 0
M  V30 1372 H 119.866 1.18122 -4.12001 0
M  V30 1373 H 124.05 0.619816 -4.92414 0
M  V30 1374 H 119.306 -0.145412 -6.11227 0
M  V30 1375 H 123.48 -0.700684 -6.92866 0
M  V30 1376 H 121.107 -1.0893 -7.52355 0
M  V30 1377 N 122.682 1.50554 0.465978 0
M  V30 1378 C 123.959 1.5232 1.22712 0
M  V30 1379 C 124.339 0.270807 2.09356 0
M  V30 1380 O 123.687 -0.745541 2.15995 0
M  V30 1381 C 123.897 2.82175 2.05374 0
M  V30 1382 C 125.245 3.33033 2.6339 0
M  V30 1383 O 126.269 2.83531 2.15612 0
M  V30 1384 O 125.128 4.19336 3.50456 0
M  V30 1385 H 122.222 0.611183 0.557122 0
M  V30 1386 H 124.768 1.62847 0.477381 0
M  V30 1387 H 123.54 3.64797 1.41558 0
M  V30 1388 H 123.163 2.74675 2.87471 0
M  V30 1389 N 124.16 -0.719506 1.40217 0
M  V30 1390 C 125.11 -1.8251 1.36653 0
M  V30 1391 C 126.094 -1.59028 0.244732 0
M  V30 1392 O 127.286 -1.70268 0.483524 0
M  V30 1393 C 124.415 -3.20599 1.22763 0
M  V30 1394 C 123.501 -3.49858 2.39708 0
M  V30 1395 N 123.892 -3.49957 3.6519 0
M  V30 1396 C 122.19 -3.80297 2.33002 0
M  V30 1397 C 122.891 -3.77449 4.42614 0
M  V30 1398 N 121.867 -3.96002 3.72402 0
M  V30 1399 H 125.669 -1.80914 2.31619 0
M  V30 1400 H 123.183 -0.918455 1.33933 0
M  V30 1401 H 125.18 -3.99766 1.18292 0
M  V30 1402 H 123.84 -3.23424 0.287614 0
M  V30 1403 H 124.851 -3.309 3.98404 0
M  V30 1404 H 121.528 -3.90635 1.47346 0
M  V30 1405 H 122.918 -3.83863 5.51451 0
M  V30 1406 N 125.638 -1.25649 -0.95132 0
M  V30 1407 C 126.601 -1.06399 -2.03007 0
M  V30 1408 C 127.601 -0.0156794 -1.60792 0
M  V30 1409 O 128.791 -0.25817 -1.72276 0
M  V30 1410 C 125.923 -0.616184 -3.35285 0
M  V30 1411 H 127.116 -2.02164 -2.21517 0
M  V30 1412 H 124.669 -1.08103 -1.12887 0
M  V30 1413 H 125.404 0.343917 -3.22471 0
M  V30 1414 H 125.189 -1.37301 -3.67275 0
M  V30 1415 H 126.679 -0.503032 -4.14559 0
M  V30 1416 N 127.117 1.15442 -1.07289 0
M  V30 1417 C 128.363 1.86489 -0.796846 0
M  V30 1418 C 128.696 1.82078 0.675371 0
M  V30 1419 O 127.971 1.24346 1.4956 0
M  V30 1420 C 128.254 3.35626 -1.30489 0
M  V30 1421 C 128.107 3.48673 -2.84161 0
M  V30 1422 C 129.426 4.30357 -0.920907 0
M  V30 1423 H 126.545 0.677144 -0.290939 0
M  V30 1424 H 129.187 1.35633 -1.33056 0
M  V30 1425 H 127.337 3.79068 -0.850883 0
M  V30 1426 H 129.009 3.14099 -3.37846 0
M  V30 1427 H 127.252 2.90253 -3.22391 0
M  V30 1428 H 127.923 4.53453 -3.14777 0
M  V30 1429 H 130.399 3.94871 -1.3121 0
M  V30 1430 H 129.275 5.33193 -1.30372 0
M  V30 1431 H 129.536 4.4176 0.173226 0
M  V30 1432 N 128.595 0.856903 1.32268 0
M  V30 1433 C 129.82 0.474569 2.01897 0
M  V30 1434 C 130.245 -0.921766 1.63967 0
M  V30 1435 O 129.603 -1.60589 0.84148 0
M  V30 1436 C 129.651 0.623799 3.55164 0
M  V30 1437 O 128.755 -0.342459 4.10976 0
M  V30 1438 H 128.096 0.190422 0.63611 0
M  V30 1439 H 130.626 1.15672 1.68764 0
M  V30 1440 H 130.636 0.512169 4.04773 0
M  V30 1441 H 129.311 1.64202 3.82113 0
M  V30 1442 H 127.888 -0.18688 3.72431 0
M  V30 1443 N 130.073 -1.45103 0.615059 0
M  V30 1444 C 131.02 -2.30586 -0.0993978 0
M  V30 1445 C 131.99 -1.42544 -0.852669 0
M  V30 1446 O 133.175 -1.71465 -0.836917 0
M  V30 1447 C 130.315 -3.27572 -1.08583 0
M  V30 1448 C 129.428 -4.30717 -0.332656 0
M  V30 1449 C 128.563 -5.14807 -1.30947 0
M  V30 1450 C 127.602 -6.09673 -0.544538 0
M  V30 1451 N 126.739 -6.86517 -1.47101 0
M  V30 1452 H 131.579 -2.91144 0.635542 0
M  V30 1453 H 129.116 -1.4346 0.325206 0
M  V30 1454 H 131.074 -3.82276 -1.67095 0
M  V30 1455 H 129.704 -2.68751 -1.78809 0
M  V30 1456 H 128.756 -3.78615 0.368107 0
M  V30 1457 H 130.068 -4.98102 0.263842 0
M  V30 1458 H 129.222 -5.73948 -1.96643 0
M  V30 1459 H 127.961 -4.47458 -1.9399 0
M  V30 1460 H 126.966 -5.49656 0.126003 0
M  V30 1461 H 128.191 -6.79052 0.080947 0
M  V30 1462 H 126.137 -6.21851 -2.08895 0
M  V30 1463 H 126.054 -7.50281 -0.928137 0
M  V30 1464 H 127.322 -7.50194 -2.11731 0
M  V30 1465 N 131.551 -0.354651 -1.53558 0
M  V30 1466 C 132.798 0.238443 -2.01091 0
M  V30 1467 C 133.126 1.49663 -1.24222 0
M  V30 1468 O 132.381 1.93049 -0.321003 0
M  V30 1469 C 132.68 0.587121 -3.52545 0
M  V30 1470 C 132.346 -0.575472 -4.47213 0
M  V30 1471 C 131.008 -0.894497 -4.72813 0
M  V30 1472 C 133.36 -1.35489 -5.03281 0
M  V30 1473 C 130.688 -1.99511 -5.51736 0
M  V30 1474 C 133.04 -2.44583 -5.83405 0
M  V30 1475 C 131.704 -2.77033 -6.07296 0
M  V30 1476 H 130.974 0.0872526 -0.735845 0
M  V30 1477 H 133.621 -0.484859 -1.8526 0
M  V30 1478 H 131.926 1.39129 -3.66265 0
M  V30 1479 H 133.623 1.05809 -3.86789 0
M  V30 1480 H 130.213 -0.316774 -4.27428 0
M  V30 1481 H 134.397 -1.12167 -4.83459 0
M  V30 1482 H 129.653 -2.25063 -5.68469 0
M  V30 1483 H 133.827 -3.05401 -6.25862 0
M  V30 1484 H 131.454 -3.6244 -6.68237 0
M  V30 1485 N 133.029 1.57378 -0.0835403 0
M  V30 1486 C 134.277 1.93547 0.581718 0
M  V30 1487 C 134.598 0.96524 1.69435 0
M  V30 1488 O 133.868 0.0153369 1.95894 0
M  V30 1489 H 132.448 0.714521 0.217874 0
M  V30 1490 H 135.11 1.94366 -0.144158 0
M  V30 1491 H 134.206 2.95665 0.999423 0
M  V30 1492 N 134.507 -0.190092 1.56449 0
M  V30 1493 C 135.454 -1.23557 1.94942 0
M  V30 1494 C 136.424 -1.44972 0.810696 0
M  V30 1495 O 137.609 -1.58023 1.06927 0
M  V30 1496 C 134.749 -2.57416 2.2985 0
M  V30 1497 C 133.862 -2.43537 3.5681 0
M  V30 1498 C 132.997 -3.70134 3.81017 0
M  V30 1499 C 132.036 -3.51109 5.01387 0
M  V30 1500 N 131.173 -4.6973 5.21822 0
M  V30 1501 H 136.013 -0.900304 2.84075 0
M  V30 1502 H 133.55 -0.43318 1.40577 0
M  V30 1503 H 135.508 -3.35409 2.48106 0
M  V30 1504 H 134.138 -2.88975 1.43852 0
M  V30 1505 H 133.19 -1.56816 3.46573 0
M  V30 1506 H 134.502 -2.25415 4.4496 0
M  V30 1507 H 133.656 -4.56566 3.9954 0
M  V30 1508 H 132.395 -3.91215 2.91207 0
M  V30 1509 H 131.4 -2.63063 4.82782 0
M  V30 1510 H 132.625 -3.31468 5.9271 0
M  V30 1511 H 130.571 -4.91065 4.34961 0
M  V30 1512 H 130.488 -4.54452 6.0416 0
M  V30 1513 H 131.756 -5.57499 5.44808 0
M  V30 1514 N 135.985 -1.50799 -0.457987 0
M  V30 1515 C 136.932 -1.70617 -1.5543 0
M  V30 1516 C 137.902 -0.547562 -1.56815 0
M  V30 1517 O 139.087 -0.779647 -1.74144 0
M  V30 1518 C 136.227 -1.81831 -2.93311 0
M  V30 1519 C 135.34 -3.09278 -3.01615 0
M  V30 1520 C 134.475 -3.11209 -4.30491 0
M  V30 1521 C 133.514 -4.33055 -4.32585 0
M  V30 1522 N 132.651 -4.32652 -5.52952 0
M  V30 1523 H 137.491 -2.64207 -1.37836 0
M  V30 1524 H 135.028 -1.30959 -0.669937 0
M  V30 1525 H 136.986 -1.86314 -3.73287 0
M  V30 1526 H 135.616 -0.916685 -3.0951 0
M  V30 1527 H 134.668 -3.14203 -2.1443 0
M  V30 1528 H 135.98 -3.99233 -2.99022 0
M  V30 1529 H 135.134 -3.14494 -5.18824 0
M  V30 1530 H 133.873 -2.19106 -4.35711 0
M  V30 1531 H 132.878 -4.29969 -3.42647 0
M  V30 1532 H 134.103 -5.264 -4.29046 0
M  V30 1533 H 132.049 -3.43409 -5.58933 0
M  V30 1534 H 131.966 -5.16392 -5.52155 0
M  V30 1535 H 133.234 -4.40101 -6.43375 0
M  V30 1536 N 137.463 0.71206 -1.40597 0
M  V30 1537 C 138.74 1.46536 -1.29563 0
M  V30 1538 C 139.12 2.10931 0.0844217 0
M  V30 1539 O 138.468 2.00418 1.0975 0
M  V30 1540 C 138.678 2.49821 -2.43701 0
M  V30 1541 C 140.026 3.15551 -2.841 0
M  V30 1542 O 141.05 2.60142 -2.4332 0
M  V30 1543 O 139.909 4.15867 -3.54566 0
M  V30 1544 H 137.003 0.651801 -0.509004 0
M  V30 1545 H 139.549 0.743935 -1.52524 0
M  V30 1546 H 138.321 2.00778 -3.35863 0
M  V30 1547 H 137.944 3.29495 -2.22528 0
M  V30 1548 N 138.941 1.26152 0.944643 0
M  V30 1549 C 140.166 1.14363 1.7302 0
M  V30 1550 C 140.591 -0.29772 1.85729 0
M  V30 1551 O 139.949 -1.2157 1.34501 0
M  V30 1552 C 139.997 1.81378 3.11664 0
M  V30 1553 O 139.101 1.10022 3.97453 0
M  V30 1554 H 138.442 0.398694 0.53098 0
M  V30 1555 H 140.972 1.66906 1.18337 0
M  V30 1556 H 140.982 1.88064 3.62072 0
M  V30 1557 H 139.657 2.86237 3.0173 0
M  V30 1558 H 138.234 1.11287 3.55907 0
M  V30 1559 N 140.419 -1.14872 1.07899 0
M  V30 1560 C 141.349 -2.2193 0.725887 0
M  V30 1561 C 142.33 -1.67622 -0.28927 0
M  V30 1562 O 143.515 -1.93533 -0.160787 0
M  V30 1563 C 140.645 -3.47061 0.128856 0
M  V30 1564 C 139.599 -4.14363 1.07178 0
M  V30 1565 C 138.925 -5.33636 0.337229 0
M  V30 1566 C 140.225 -4.63492 2.40775 0
M  V30 1567 H 141.919 -2.51724 1.62097 0
M  V30 1568 H 139.465 -1.20991 0.780838 0
M  V30 1569 H 141.418 -4.21199 -0.130147 0
M  V30 1570 H 140.142 -3.16617 -0.80134 0
M  V30 1571 H 138.801 -3.42173 1.3158 0
M  V30 1572 H 138.449 -4.99449 -0.596606 0
M  V30 1573 H 138.149 -5.79609 0.965788 0
M  V30 1574 H 139.673 -6.10539 0.0861567 0
M  V30 1575 H 141.087 -5.2913 2.20669 0
M  V30 1576 H 139.484 -5.20148 2.99276 0
M  V30 1577 H 140.554 -3.78834 3.02676 0
M  V30 1578 N 141.898 -0.863906 -1.31812 0
M  V30 1579 C 143.146 -0.470904 -1.96537 0
M  V30 1580 C 143.467 0.978771 -1.68657 0
M  V30 1581 O 142.737 1.6853 -0.998717 0
M  V30 1582 H 141.317 -0.171148 -0.72713 0
M  V30 1583 H 143.979 -1.10236 -1.60729 0
M  V30 1584 H 143.075 -0.623616 -3.05806 0
M  V30 1585 N 143.376 1.44774 -0.622745 0
M  V30 1586 C 144.604 2.06487 -0.130722 0
M  V30 1587 C 145.019 1.46476 1.19123 0
M  V30 1588 O 144.376 0.584502 1.72887 0
M  V30 1589 C 144.427 3.615 -0.000807207 0
M  V30 1590 O 144.148 4.19274 -1.27048 0
M  V30 1591 C 145.649 4.40229 0.520898 0
M  V30 1592 H 142.869 0.666704 -0.0758106 0
M  V30 1593 H 145.413 1.85779 -0.854774 0
M  V30 1594 H 143.568 3.81498 0.673643 0
M  V30 1595 H 143.982 5.12622 -1.1099 0
M  V30 1596 H 145.456 5.49144 0.560838 0
M  V30 1597 H 145.933 4.1108 1.54627 0
M  V30 1598 H 146.539 4.25131 -0.120018 0
M  V30 1599 N 144.854 0.36279 1.53368 0
M  V30 1600 C 146.27 0.0116182 1.59596 0
M  V30 1601 C 146.47 -1.47012 1.37803 0
M  V30 1602 O 145.526 -2.23136 1.18181 0
M  V30 1603 C 146.839 0.465052 2.97082 0
M  V30 1604 C 148.387 0.419033 3.10182 0
M  V30 1605 C 148.862 0.848235 4.50077 0
M  V30 1606 N 150.353 0.803183 4.56183 0
M  V30 1607 C 151.088 1.107 5.62613 0
M  V30 1608 N 150.584 1.47996 6.76808 0
M  V30 1609 N 152.377 1.02998 5.52583 0
M  V30 1610 H 144.528 1.32775 1.65785 0
M  V30 1611 H 146.791 0.542518 0.777417 0
M  V30 1612 H 146.497 1.49892 3.18159 0
M  V30 1613 H 146.371 -0.149786 3.76902 0
M  V30 1614 H 148.758 -0.605696 2.88817 0
M  V30 1615 H 148.839 1.06933 2.32377 0
M  V30 1616 H 148.483 1.87107 4.7218 0
M  V30 1617 H 148.413 0.175218 5.26308 0
M  V30 1618 H 150.904 0.52838 3.74188 0
M  V30 1619 H 151.217 1.69613 7.53957 0
M  V30 1620 H 149.562 1.51859 6.78206 0
M  V30 1621 H 152.753 0.737817 4.62249 0
M  V30 1622 H 152.926 1.2701 6.35431 0
M  V30 1623 N 146.332 -1.57332 0.0918853 0
M  V30 1624 C 147.242 -2.17368 -0.882505 0
M  V30 1625 C 148.258 -1.14226 -1.31257 0
M  V30 1626 O 149.434 -1.46582 -1.38115 0
M  V30 1627 C 146.499 -2.73962 -2.12476 0
M  V30 1628 C 145.56 -3.92048 -1.7492 0
M  V30 1629 C 144.793 -4.45933 -2.93223 0
M  V30 1630 O 145.016 -3.98764 -4.07852 0
M  V30 1631 O 143.95 -5.36999 -2.71875 0
M  V30 1632 H 147.776 -3.01031 -0.40172 0
M  V30 1633 H 145.361 -1.48813 -0.132291 0
M  V30 1634 H 147.243 -3.10147 -2.85283 0
M  V30 1635 H 145.918 -1.93347 -2.59613 0
M  V30 1636 H 144.825 -3.6068 -0.993025 0
M  V30 1637 H 146.158 -4.74017 -1.32548 0
M  V30 1638 N 147.81 0.181792 -1.56548 0
M  V30 1639 C 149.059 0.898348 -1.8059 0
M  V30 1640 C 149.372 1.83862 -0.667379 0
M  V30 1641 O 150.578 2.59678 -0.792446 0
M  V30 1642 C 149.034 1.64791 -3.19956 0
M  V30 1643 C 148.642 0.751789 -4.41647 0
M  V30 1644 C 150.386 2.35331 -3.53298 0
M  V30 1645 C 148.293 1.50098 -5.72035 0
M  V30 1646 H 147.223 0.339194 -0.673397 0
M  V30 1647 H 149.874 0.151413 -1.82874 0
M  V30 1648 H 148.256 2.43921 -3.11959 0
M  V30 1649 H 149.43 -0.0018076 -4.608 0
M  V30 1650 H 147.745 0.156562 -4.16106 0
M  V30 1651 H 150.342 2.91958 -4.47956 0
M  V30 1652 H 150.685 3.10164 -2.77676 0
M  V30 1653 H 151.218 1.63154 -3.62803 0
M  V30 1654 H 147.957 0.795175 -6.50659 0
M  V30 1655 H 147.477 2.22817 -5.56878 0
M  V30 1656 H 149.156 2.05125 -6.13622 0
M  V30 1657 N 149.288 1.51039 0.449983 0
M  V30 1658 C 150.218 1.74379 1.55288 0
M  V30 1659 C 151.199 0.593236 1.5942 0
M  V30 1660 O 152.384 0.834625 1.7535 0
M  V30 1661 C 149.514 1.85728 2.93466 0
M  V30 1662 C 148.468 3.01078 3.04197 0
M  V30 1663 C 147.794 2.97595 4.44231 0
M  V30 1664 C 149.094 4.41254 2.7945 0
M  V30 1665 H 150.788 2.66725 1.36008 0
M  V30 1666 H 148.334 1.2835 0.652864 0
M  V30 1667 H 150.287 2.0064 3.70569 0
M  V30 1668 H 149.011 0.900207 3.13949 0
M  V30 1669 H 147.67 2.85851 2.29531 0
M  V30 1670 H 147.318 1.99691 4.61663 0
M  V30 1671 H 147.018 3.75046 4.52343 0
M  V30 1672 H 148.542 3.14583 5.23326 0
M  V30 1673 H 149.956 4.56897 3.46292 0
M  V30 1674 H 148.353 5.20315 2.98985 0
M  V30 1675 H 149.423 4.52164 1.75144 0
M  V30 1676 N 150.766 -0.704594 1.40972 0
M  V30 1677 C 151.991 -1.49858 1.43378 0
M  V30 1678 C 152.416 -1.88061 0.038184 0
M  V30 1679 O 151.774 -1.5402 -0.956425 0
M  V30 1680 C 151.822 -2.74333 2.34038 0
M  V30 1681 O 150.926 -3.7147 1.7912 0
M  V30 1682 H 150.267 -0.45139 0.486974 0
M  V30 1683 H 152.797 -0.866832 1.8533 0
M  V30 1684 H 152.807 -3.22741 2.49604 0
M  V30 1685 H 151.482 -2.45863 3.35446 0
M  V30 1686 H 150.059 -3.30363 1.72958 0
M  V30 1687 N 152.244 -1.26651 -0.937939 0
M  V30 1688 C 153.154 -1.10276 -2.07066 0
M  V30 1689 C 154.17 -0.0354197 -1.73964 0
M  V30 1690 O 155.346 -0.239816 -1.99967 0
M  V30 1691 C 152.411 -0.740887 -3.38691 0
M  V30 1692 C 151.472 -1.88799 -3.85556 0
M  V30 1693 C 150.705 -1.54329 -5.10899 0
M  V30 1694 O 150.928 -0.446494 -5.6865 0
M  V30 1695 O 149.862 -2.37911 -5.52885 0
M  V30 1696 H 153.688 -2.05309 -2.23789 0
M  V30 1697 H 151.273 -1.05743 -1.0554 0
M  V30 1698 H 153.155 -0.55195 -4.1777 0
M  V30 1699 H 151.83 0.180022 -3.23199 0
M  V30 1700 H 150.737 -2.13191 -3.07409 0
M  V30 1701 H 152.07 -2.78874 -4.05574 0
M  V30 1702 N 153.722 1.14298 -1.08507 0
M  V30 1703 C 154.632 2.23027 -0.727753 0
M  V30 1704 C 155.648 1.71952 0.26619 0
M  V30 1705 O 156.824 2.011 0.109882 0
M  V30 1706 C 153.889 3.46403 -0.143541 0
M  V30 1707 C 152.95 4.12413 -1.19223 0
M  V30 1708 C 152.183 5.29899 -0.635798 0
M  V30 1709 O 152.406 5.67796 0.544393 0
M  V30 1710 O 151.34 5.85717 -1.38634 0
M  V30 1711 H 155.166 2.55945 -1.63481 0
M  V30 1712 H 152.751 1.22248 -0.858817 0
M  V30 1713 H 154.633 4.21018 0.179404 0
M  V30 1714 H 153.308 3.15206 0.736659 0
M  V30 1715 H 152.215 3.39667 -1.56772 0
M  V30 1716 H 153.548 4.47718 -2.04474 0
M  V30 1717 N 155.201 0.870884 1.31352 0
M  V30 1718 C 156.149 0.316445 2.30437 0
M  V30 1719 C 157.143 -0.568965 1.59559 0
M  V30 1720 O 158.349 -0.454964 1.74155 0
M  V30 1721 H 154.724 0.0836521 0.747333 0
M  V30 1722 H 156.695 1.16606 2.74673 0
M  V30 1723 C 155.444 -0.46635 3.44558 0
M  V30 1724 H 154.767 0.205687 3.99271 0
M  V30 1725 H 156.207 -0.819614 4.16003 0
M  V30 1726 C 154.666 -1.65797 2.9328 0
M  V30 1727 O 155.196 -2.75728 2.92125 0
M  V30 1728 N 153.402 -1.49041 2.4947 0
M  V30 1729 H 152.949 -0.59612 2.50608 0
M  V30 1730 H 152.907 -2.28911 2.15516 0
M  V30 1731 N 156.679 -1.44442 0.630414 0
M  V30 1732 C 157.589 -2.34476 -0.0761693 0
M  V30 1733 C 158.605 -1.52576 -0.836449 0
M  V30 1734 O 159.781 -1.85307 -0.788874 0
M  V30 1735 C 156.846 -3.30545 -1.04599 0
M  V30 1736 C 155.907 -4.28352 -0.28516 0
M  V30 1737 C 155.14 -5.19831 -1.20878 0
M  V30 1738 O 155.363 -5.15223 -2.44747 0
M  V30 1739 O 154.297 -5.97892 -0.693491 0
M  V30 1740 H 158.123 -2.96345 0.664324 0
M  V30 1741 H 155.708 -1.44203 0.39061 0
M  V30 1742 H 157.59 -3.89681 -1.60396 0
M  V30 1743 H 156.265 -2.7121 -1.76711 0
M  V30 1744 H 155.172 -3.72764 0.315837 0
M  V30 1745 H 156.505 -4.90605 0.395924 0
M  V30 1746 N 158.157 -0.370918 -1.53173 0
M  V30 1747 C 159.09 0.516727 -2.22273 0
M  V30 1748 C 160.068 1.07877 -1.21661 0
M  V30 1749 O 161.252 1.13389 -1.50583 0
M  V30 1750 C 158.379 1.71346 -2.92161 0
M  V30 1751 C 157.425 1.27838 -4.0689 0
M  V30 1752 S 158.258 0.275217 -5.34792 0
M  V30 1753 C 159.414 1.47816 -6.08195 0
M  V30 1754 H 159.647 -0.0701054 -2.97217 0
M  V30 1755 H 157.18 -0.155038 -1.5362 0
M  V30 1756 H 159.138 2.39988 -3.3304 0
M  V30 1757 H 157.799 2.27156 -2.16931 0
M  V30 1758 H 156.992 2.17141 -4.54825 0
M  V30 1759 H 156.594 0.671105 -3.6793 0
M  V30 1760 H 158.886 2.40831 -6.33251 0
M  V30 1761 H 159.829 1.04008 -7.0042 0
M  V30 1762 H 160.237 1.68663 -5.38714 0
M  V30 1763 N 159.635 1.57281 -0.100228 0
M  V30 1764 C 160.567 2.11342 0.886972 0
M  V30 1765 C 161.58 1.05182 1.24261 0
M  V30 1766 O 162.769 1.32613 1.19483 0
M  V30 1767 C 159.869 2.5825 2.19454 0
M  V30 1768 C 159.042 3.88302 2.01346 0
M  V30 1769 C 158.101 4.21004 3.15661 0
M  V30 1770 O 157.127 4.9014 2.89398 0
M  V30 1771 N 158.329 3.76818 4.41575 0
M  V30 1772 H 161.094 2.96668 0.425216 0
M  V30 1773 H 158.655 1.61678 0.0847334 0
M  V30 1774 H 160.647 2.7717 2.94888 0
M  V30 1775 H 159.217 1.77907 2.57037 0
M  V30 1776 H 158.437 3.7848 1.10212 0
M  V30 1777 H 159.725 4.73375 1.8653 0
M  V30 1778 H 159.123 3.2102 4.65792 0
M  V30 1779 H 157.68 4.00882 5.13942 0
M  V30 1780 N 161.113 -0.173488 1.56642 0
M  V30 1781 C 162.524 -0.736155 1.71574 0
M  V30 1782 C 162.875 -1.82888 0.710389 0
M  V30 1783 O 162 -2.16017 -0.1287 0
M  V30 1784 C 162.595 -1.34211 3.11083 0
M  V30 1785 C 161.154 -1.85162 3.27707 0
M  V30 1786 C 160.301 -0.729765 2.67525 0
M  V30 1787 H 163.252 0.0518786 1.58615 0
M  V30 1788 H 163.273 -2.21178 3.09613 0
M  V30 1789 H 162.785 -0.546579 3.84232 0
M  V30 1790 H 160.886 -2.67366 2.59512 0
M  V30 1791 H 160.999 -1.99855 4.35425 0
M  V30 1792 H 159.363 -1.14965 2.27278 0
M  V30 1793 H 160.146 0.0538806 3.43258 0
M  V30 1794 N 162.591 -1.51276 -0.441967 0
M  V30 1795 C 163.539 -1.72823 -1.55676 0
M  V30 1796 C 164.533 -0.59445 -1.58627 0
M  V30 1797 O 165.739 -0.775715 -1.62427 0
M  V30 1798 H 162.114 -0.545983 -0.517113 0
M  V30 1799 H 164.085 -2.6628 -1.34675 0
M  V30 1800 C 162.834 -1.86619 -2.93375 0
M  V30 1801 H 162.157 -2.73264 -2.91834 0
M  V30 1802 H 163.597 -2.05709 -3.70756 0
M  V30 1803 C 162.056 -0.624842 -3.31055 0
M  V30 1804 O 162.586 0.222636 -4.01083 0
M  V30 1805 N 160.792 -0.470288 -2.86769 0
M  V30 1806 H 160.339 -1.161 -2.29953 0
M  V30 1807 H 160.297 0.359051 -3.12343 0
M  V30 1808 N 164.069 0.697108 -1.41344 0
M  V30 1809 C 165.317 1.45426 -1.40341 0
M  V30 1810 C 165.638 1.94996 -0.0128787 0
M  V30 1811 O 164.908 1.71599 0.945027 0
M  V30 1812 H 163.488 0.539594 -0.516573 0
M  V30 1813 H 166.15 0.825201 -1.76569 0
M  V30 1814 H 165.246 2.31817 -2.08967 0
M  V30 1815 N 165.547 1.27147 0.931209 0
M  V30 1816 C 166.494 1.09568 2.03134 0
M  V30 1817 C 167.464 -0.00222433 1.661 0
M  V30 1818 O 168.649 0.159439 1.90133 0
M  V30 1819 C 165.789 0.745231 3.36957 0
M  V30 1820 C 164.902 1.92041 3.86968 0
M  V30 1821 C 164.037 1.51216 5.09222 0
M  V30 1822 C 163.076 2.65504 5.5152 0
M  V30 1823 N 162.213 2.25291 6.64972 0
M  V30 1824 H 167.053 2.03708 2.17502 0
M  V30 1825 H 164.59 1.01411 1.06556 0
M  V30 1826 H 166.548 0.522878 4.1391 0
M  V30 1827 H 165.178 -0.159202 3.22407 0
M  V30 1828 H 164.23 2.25541 3.06326 0
M  V30 1829 H 165.542 2.77787 4.1429 0
M  V30 1830 H 164.696 1.25084 5.93666 0
M  V30 1831 H 163.435 0.625749 4.83669 0
M  V30 1832 H 162.44 2.92354 4.65628 0
M  V30 1833 H 163.665 3.54761 5.7907 0
M  V30 1834 H 161.611 1.39098 6.41083 0
M  V30 1835 H 161.528 3.04577 6.91931 0
M  V30 1836 H 162.796 2.02398 7.52765 0
M  V30 1837 N 167.025 -1.13721 1.09112 0
M  V30 1838 C 168.271 -1.85198 0.826414 0
M  V30 1839 C 168.604 -1.83129 -0.646319 0
M  V30 1840 O 167.879 -1.2671 -1.47563 0
M  V30 1841 C 168.162 -3.33507 1.35812 0
M  V30 1842 C 168.015 -3.44108 2.89672 0
M  V30 1843 C 169.334 -4.28838 0.989256 0
M  V30 1844 H 166.453 -0.67243 0.301675 0
M  V30 1845 H 169.095 -1.33499 1.35197 0
M  V30 1846 H 167.245 -3.77666 0.911082 0
M  V30 1847 H 168.917 -3.08684 3.428 0
M  V30 1848 H 167.16 -2.85087 3.26967 0
M  V30 1849 H 167.831 -4.48388 3.21951 0
M  V30 1850 H 170.307 -3.92734 1.37475 0
M  V30 1851 H 169.183 -5.31051 1.38838 0
M  V30 1852 H 169.444 -4.4198 -0.102924 0
M  V30 1853 N 168.503 -0.877838 -1.30888 0
M  V30 1854 C 169.75 -0.492696 -1.96415 0
M  V30 1855 C 170.078 0.956671 -1.69346 0
M  V30 1856 O 169.333 1.68993 -0.986913 0
M  V30 1857 C 169.632 -0.705748 -3.50363 0
M  V30 1858 C 169.298 -2.1291 -3.97467 0
M  V30 1859 C 167.96 -2.51834 -4.1004 0
M  V30 1860 C 170.312 -3.05702 -4.22132 0
M  V30 1861 C 167.64 -3.82775 -4.44635 0
M  V30 1862 C 169.992 -4.36166 -4.58194 0
M  V30 1863 C 168.656 -4.74993 -4.68975 0
M  V30 1864 H 167.926 -0.18029 -0.718733 0
M  V30 1865 H 170.573 -1.11233 -1.55883 0
M  V30 1866 H 168.878 -0.00303058 -3.918 0
M  V30 1867 H 170.575 -0.387456 -3.99124 0
M  V30 1868 H 167.165 -1.81694 -3.88182 0
M  V30 1869 H 171.349 -2.76853 -4.11906 0
M  V30 1870 H 166.605 -4.12609 -4.51181 0
M  V30 1871 H 170.779 -5.08111 -4.76231 0
M  V30 1872 H 168.406 -5.76495 -4.95537 0
M  V30 1873 N 169.982 1.44106 -0.638065 0
M  V30 1874 C 170.929 2.30715 0.062701 0
M  V30 1875 C 171.899 1.43882 0.829883 0
M  V30 1876 O 173.084 1.72775 0.809532 0
M  V30 1877 C 170.224 3.29258 1.03358 0
M  V30 1878 C 169.337 4.31192 0.26409 0
M  V30 1879 C 168.472 5.16825 1.22741 0
M  V30 1880 C 167.511 6.10462 0.447475 0
M  V30 1881 N 166.648 6.8877 1.36161 0
M  V30 1882 H 171.488 2.90096 -0.681781 0
M  V30 1883 H 169.025 1.42925 -0.347988 0
M  V30 1884 H 170.983 3.84886 1.60992 0
M  V30 1885 H 169.613 2.71562 1.74511 0
M  V30 1886 H 168.665 3.77981 -0.428295 0
M  V30 1887 H 169.977 4.97619 -0.343052 0
M  V30 1888 H 169.131 5.77004 1.87487 0
M  V30 1889 H 167.87 4.50488 1.86847 0
M  V30 1890 H 166.875 5.49386 -0.213433 0
M  V30 1891 H 168.1 6.78837 -0.188968 0
M  V30 1892 H 166.046 6.25096 1.98975 0
M  V30 1893 H 165.963 7.51663 0.808656 0
M  V30 1894 H 167.231 7.53467 1.99769 0
M  V30 1895 N 171.46 0.379036 1.52974 0
M  V30 1896 C 172.407 -0.461048 2.26148 0
M  V30 1897 C 173.377 -1.06637 1.27349 0
M  V30 1898 O 174.562 -1.09633 1.56157 0
M  V30 1899 C 171.702 -1.58782 3.06402 0
M  V30 1900 C 170.815 -1.00636 4.20115 0
M  V30 1901 C 169.95 -2.10334 4.87784 0
M  V30 1902 C 168.989 -1.49724 5.93506 0
M  V30 1903 N 168.126 -2.5331 6.54812 0
M  V30 1904 H 172.966 0.169429 2.97518 0
M  V30 1905 H 170.503 0.0953806 1.4679 0
M  V30 1906 H 172.461 -2.25174 3.51215 0
M  V30 1907 H 171.091 -2.18876 2.37261 0
M  V30 1908 H 170.143 -0.232332 3.7969 0
M  V30 1909 H 171.455 -0.523343 4.96047 0
M  V30 1910 H 170.609 -2.84519 5.35849 0
M  V30 1911 H 169.348 -2.61992 4.11353 0
M  V30 1912 H 168.353 -0.740598 5.44789 0
M  V30 1913 H 169.578 -0.988732 6.71864 0
M  V30 1914 H 167.524 -3.04156 5.81227 0
M  V30 1915 H 167.441 -2.09734 7.26325 0
M  V30 1916 H 168.709 -3.27155 7.07524 0
M  V30 1917 N 172.938 -1.57226 0.108567 0
M  V30 1918 C 173.868 -2.17778 -0.84232 0
M  V30 1919 C 174.849 -1.11487 -1.2847 0
M  V30 1920 O 176.034 -1.39681 -1.34918 0
M  V30 1921 C 173.164 -2.76888 -2.09644 0
M  V30 1922 C 172.118 -3.88669 -1.79221 0
M  V30 1923 C 171.444 -4.34541 -3.11574 0
M  V30 1924 C 172.744 -5.11251 -1.06864 0
M  V30 1925 H 174.438 -2.97489 -0.337774 0
M  V30 1926 H 171.984 -1.43097 -0.161025 0
M  V30 1927 H 173.937 -3.17904 -2.76614 0
M  V30 1928 H 172.661 -1.94451 -2.62405 0
M  V30 1929 H 171.32 -3.48213 -1.14644 0
M  V30 1930 H 170.968 -3.48977 -3.62249 0
M  V30 1931 H 170.668 -5.09914 -2.91996 0
M  V30 1932 H 172.192 -4.782 -3.7968 0
M  V30 1933 H 173.606 -5.49352 -1.63968 0
M  V30 1934 H 172.003 -5.9214 -0.974178 0
M  V30 1935 H 173.073 -4.8487 -0.0536168 0
M  V30 1936 N 174.416 0.165178 -1.56732 0
M  V30 1937 C 175.665 0.879143 -1.81532 0
M  V30 1938 C 175.978 1.83144 -0.686842 0
M  V30 1939 O 177.184 2.58823 -0.819944 0
M  V30 1940 C 175.64 1.61388 -3.21686 0
M  V30 1941 C 175.248 0.704904 -4.4242 0
M  V30 1942 C 176.992 2.3157 -3.55774 0
M  V30 1943 C 174.899 1.44022 -5.73595 0
M  V30 1944 H 173.829 0.332033 -0.676957 0
M  V30 1945 H 176.48 0.132008 -1.83025 0
M  V30 1946 H 174.862 2.40599 -3.14529 0
M  V30 1947 H 176.036 -0.0506815 -4.60772 0
M  V30 1948 H 174.351 0.112419 -4.16248 0
M  V30 1949 H 176.948 2.8719 -4.51028 0
M  V30 1950 H 177.291 3.07201 -2.8095 0
M  V30 1951 H 177.824 1.59297 -3.64513 0
M  V30 1952 H 174.563 0.72612 -6.51466 0
M  V30 1953 H 174.083 2.16898 -5.5921 0
M  V30 1954 H 175.762 1.98606 -6.15764 0
M  V30 1955 N 175.894 1.51508 0.433938 0
M  V30 1956 C 176.824 1.76016 1.53429 0
M  V30 1957 C 177.805 0.610112 1.58782 0
M  V30 1958 O 178.99 0.853177 1.74455 0
M  V30 1959 C 176.12 1.88831 2.9148 0
M  V30 1960 C 175.074 3.04288 3.00987 0
M  V30 1961 C 174.4 3.0229 4.4105 0
M  V30 1962 C 175.7 4.44193 2.74754 0
M  V30 1963 H 177.394 2.68152 1.33171 0
M  V30 1964 H 174.94 1.29035 0.639214 0
M  V30 1965 H 176.893 2.04559 3.6842 0
M  V30 1966 H 175.617 0.933455 3.12976 0
M  V30 1967 H 174.276 2.8827 2.26486 0
M  V30 1968 H 173.924 2.04576 4.59519 0
M  V30 1969 H 173.624 3.79822 4.4834 0
M  V30 1970 H 175.148 3.20116 5.1996 0
M  V30 1971 H 176.562 4.60544 3.41426 0
M  V30 1972 H 174.959 5.23457 2.9345 0
M  V30 1973 H 176.029 4.53996 1.70339 0
M  V30 1974 N 177.372 -0.689602 1.41712 0
M  V30 1975 C 178.62 -1.4468 1.4111 0
M  V30 1976 C 178.941 -1.94986 0.0232196 0
M  V30 1977 O 178.211 -1.72097 -0.935913 0
M  V30 1978 H 176.791 -0.536847 0.519427 0
M  V30 1979 H 179.453 -0.815825 1.77004 0
M  V30 1980 H 178.549 -2.30706 2.10193 0
M  V30 1981 N 178.85 -1.27639 -0.924453 0
M  V30 1982 C 179.798 -1.10485 -2.04685 0
M  V30 1983 C 180.792 -0.0270421 -1.69378 0
M  V30 1984 O 181.998 -0.185008 -1.79047 0
M  V30 1985 H 178.373 -0.340546 -0.670472 0
M  V30 1986 H 180.344 -2.05566 -2.16298 0
M  V30 1987 C 179.093 -0.772229 -3.39016 0
M  V30 1988 H 178.416 -1.59351 -3.66671 0
M  V30 1989 H 179.856 -0.692097 -4.18313 0
M  V30 1990 C 178.315 0.523554 -3.32807 0
M  V30 1991 O 178.845 1.55702 -3.70297 0
M  V30 1992 N 177.051 0.520363 -2.85903 0
M  V30 1993 H 176.598 -0.32107 -2.55591 0
M  V30 1994 H 176.556 1.38742 -2.82131 0
M  V30 1995 N 180.328 1.1314 -1.09713 0
M  V30 1996 C 181.558 1.88048 -0.855656 0
M  V30 1997 C 181.966 1.79537 0.596919 0
M  V30 1998 O 181.309 1.16196 1.42282 0
M  V30 1999 C 181.371 3.38314 -1.21589 0
M  V30 2000 C 181.035 3.70605 -2.67397 0
M  V30 2001 C 182.032 3.69596 -3.65643 0
M  V30 2002 C 179.717 4.0017 -3.03593 0
M  V30 2003 C 181.711 3.977 -4.9811 0
M  V30 2004 C 179.398 4.27935 -4.36251 0
M  V30 2005 C 180.396 4.26685 -5.33318 0
M  V30 2006 O 180.084 4.53767 -6.63589 0
M  V30 2007 H 179.816 0.60208 -0.307368 0
M  V30 2008 H 182.37 1.44128 -1.46343 0
M  V30 2009 H 180.6 3.82752 -0.551177 0
M  V30 2010 H 182.289 3.94552 -0.953083 0
M  V30 2011 H 183.055 3.46826 -3.39023 0
M  V30 2012 H 178.934 4.00289 -2.2867 0
M  V30 2013 H 182.478 3.9664 -5.73866 0
M  V30 2014 H 178.375 4.50178 -4.62613 0
M  V30 2015 H 179.143 4.71422 -6.69107 0
M  V30 2016 N 181.806 0.884767 1.30421 0
M  V30 2017 C 182.753 0.349642 2.28136 0
M  V30 2018 C 183.723 -0.560061 1.56373 0
M  V30 2019 O 184.908 -0.488524 1.8444 0
M  V30 2020 C 182.048 -0.42999 3.42411 0
M  V30 2021 C 181.161 0.508907 4.28992 0
M  V30 2022 C 180.296 -0.286301 5.30428 0
M  V30 2023 C 179.335 0.648079 6.08659 0
M  V30 2024 N 178.472 -0.111792 7.02011 0
M  V30 2025 H 183.312 1.18807 2.73293 0
M  V30 2026 H 180.849 0.597231 1.3443 0
M  V30 2027 H 182.807 -0.897923 4.07423 0
M  V30 2028 H 181.437 -1.23299 2.98324 0
M  V30 2029 H 180.489 1.09533 3.64289 0
M  V30 2030 H 181.801 1.22475 4.8353 0
M  V30 2031 H 180.955 -0.816098 6.01186 0
M  V30 2032 H 179.694 -1.03536 4.76583 0
M  V30 2033 H 178.699 1.18951 5.36778 0
M  V30 2034 H 179.924 1.39623 6.64592 0
M  V30 2035 H 177.87 -0.843395 6.50556 0
M  V30 2036 H 177.787 0.544429 7.54037 0
M  V30 2037 H 179.055 -0.622339 7.77012 0
M  V30 2038 N 183.284 -1.43765 0.645699 0
M  V30 2039 C 184.53 -2.02731 0.164844 0
M  V30 2040 C 184.885 -1.49983 -1.2051 0
M  V30 2041 O 184.178 -0.680208 -1.79119 0
M  V30 2042 C 184.372 -3.57238 0.107679 0
M  V30 2043 C 184.201 -4.24977 1.47054 0
M  V30 2044 C 182.971 -4.61356 2.06103 0
M  V30 2045 C 185.169 -4.54476 2.40741 0
M  V30 2046 N 183.151 -5.14132 3.35473 0
M  V30 2047 C 184.522 -5.08489 3.54737 0
M  V30 2048 C 186.577 -4.36438 2.39637 0
M  V30 2049 C 185.28 -5.46364 4.67845 0
M  V30 2050 C 187.306 -4.7537 3.5182 0
M  V30 2051 C 186.668 -5.2951 4.64541 0
M  V30 2052 H 182.767 -0.774976 0.104578 0
M  V30 2053 H 185.351 -1.75051 0.852367 0
M  V30 2054 H 183.522 -3.84498 -0.549165 0
M  V30 2055 H 185.254 -4.0288 -0.383351 0
M  V30 2056 H 182.009 -4.46151 1.58892 0
M  V30 2057 H 182.433 -5.4498 4.01654 0
M  V30 2058 H 187.075 -3.93861 1.53731 0
M  V30 2059 H 184.793 -5.87888 5.54448 0
M  V30 2060 H 188.379 -4.63115 3.52159 0
M  V30 2061 H 187.259 -5.59077 5.49911 0
M  V30 2062 N 184.763 -0.387143 -1.52771 0
M  V30 2063 C 185.696 0.493123 -2.22808 0
M  V30 2064 C 186.674 1.0658 -1.22798 0
M  V30 2065 O 187.858 1.11785 -1.51777 0
M  V30 2066 C 184.985 1.68238 -2.93962 0
M  V30 2067 C 184.031 1.23515 -4.08223 0
M  V30 2068 S 184.864 0.21848 -5.35054 0
M  V30 2069 C 186.02 1.41357 -6.09729 0
M  V30 2070 H 186.253 -0.101625 -2.97126 0
M  V30 2071 H 183.786 -0.171323 -1.53447 0
M  V30 2072 H 185.744 2.36443 -3.35567 0
M  V30 2073 H 184.405 2.24842 -2.19328 0
M  V30 2074 H 183.598 2.12304 -4.57103 0
M  V30 2075 H 183.2 0.632044 -3.68621 0
M  V30 2076 H 185.492 2.34101 -6.3577 0
M  V30 2077 H 186.435 0.965736 -7.01484 0
M  V30 2078 H 186.843 1.6294 -5.40473 0
M  V30 2079 N 186.241 1.57166 -0.116904 0
M  V30 2080 C 187.189 2.16457 0.851418 0
M  V30 2081 C 188.183 1.11323 1.27686 0
M  V30 2082 O 189.389 1.2963 1.24884 0
M  V30 2083 H 185.764 0.69271 0.292672 0
M  V30 2084 H 187.735 2.96605 0.32685 0
M  V30 2085 C 186.484 2.77689 2.09246 0
M  V30 2086 H 185.807 3.58285 1.77402 0
M  V30 2087 H 187.247 3.22716 2.7501 0
M  V30 2088 C 185.706 1.74667 2.88085 0
M  V30 2089 O 186.236 1.19877 3.83396 0
M  V30 2090 N 184.442 1.44656 2.52038 0
M  V30 2091 H 183.989 1.89402 1.74599 0
M  V30 2092 H 183.947 0.759675 3.05084 0
M  V30 2093 N 187.719 -0.156864 1.56817 0
M  V30 2094 C 188.949 -0.885031 1.86684 0
M  V30 2095 C 189.357 -1.75696 0.701954 0
M  V30 2096 O 188.7 -1.80569 -0.337732 0
M  V30 2097 C 188.762 -1.80092 3.11138 0
M  V30 2098 C 188.426 -1.10714 4.43386 0
M  V30 2099 C 189.423 -0.465714 5.1781 0
M  V30 2100 C 187.108 -1.09959 4.90117 0
M  V30 2101 C 189.102 0.174002 6.37162 0
M  V30 2102 C 186.789 -0.456055 6.09396 0
M  V30 2103 C 187.787 0.179622 6.82764 0
M  V30 2104 O 187.475 0.812975 7.99779 0
M  V30 2105 H 187.207 -0.261813 0.623242 0
M  V30 2106 H 189.761 -0.157383 2.04796 0
M  V30 2107 H 187.991 -2.56926 2.89009 0
M  V30 2108 H 189.68 -2.40018 3.27332 0
M  V30 2109 H 190.446 -0.463427 4.82781 0
M  V30 2110 H 186.325 -1.58378 4.3294 0
M  V30 2111 H 189.869 0.670765 6.94368 0
M  V30 2112 H 185.766 -0.455975 6.43888 0
M  V30 2113 H 186.534 0.71366 8.15383 0
M  V30 2114 N 189.197 -1.51736 -0.425897 0
M  V30 2115 C 190.127 -1.76827 -1.52494 0
M  V30 2116 C 191.108 -0.618524 -1.58456 0
M  V30 2117 O 192.293 -0.862416 -1.74 0
M  V30 2118 C 189.423 -1.90374 -2.90474 0
M  V30 2119 C 188.377 -3.0588 -2.99369 0
M  V30 2120 C 187.703 -3.04625 -4.3944 0
M  V30 2121 C 189.003 -4.45644 -2.72394 0
M  V30 2122 H 190.697 -2.68855 -1.31748 0
M  V30 2123 H 188.243 -1.29372 -0.632362 0
M  V30 2124 H 190.196 -2.0651 -3.6733 0
M  V30 2125 H 188.92 -0.95004 -3.12477 0
M  V30 2126 H 187.579 -2.89467 -2.24954 0
M  V30 2127 H 187.227 -2.0701 -4.58428 0
M  V30 2128 H 186.927 -3.82195 -4.46319 0
M  V30 2129 H 188.451 -3.22869 -5.18255 0
M  V30 2130 H 189.865 -4.62348 -3.38979 0
M  V30 2131 H 188.262 -5.25006 -2.9067 0
M  V30 2132 H 189.332 -4.54893 -1.67929 0
M  V30 2133 N 190.675 0.682077 -1.42076 0
M  V30 2134 C 191.585 1.82535 -1.47371 0
M  V30 2135 C 192.601 1.7017 -0.363079 0
M  V30 2136 O 193.777 1.91848 -0.612875 0
M  V30 2137 C 190.842 3.18624 -1.36674 0
M  V30 2138 C 189.903 3.42999 -2.58167 0
M  V30 2139 C 189.136 4.72595 -2.4797 0
M  V30 2140 O 189.359 5.50006 -1.5116 0
M  V30 2141 O 188.293 4.98054 -3.37974 0
M  V30 2142 H 192.119 1.81023 -2.43853 0
M  V30 2143 H 189.704 0.836887 -1.2376 0
M  V30 2144 H 191.586 3.99847 -1.33043 0
M  V30 2145 H 190.261 3.20789 -0.433138 0
M  V30 2146 H 189.168 2.61653 -2.67373 0
M  V30 2147 H 190.501 3.45659 -3.50401 0
M  V30 2148 N 192.153 1.28127 0.917671 0
M  V30 2149 C 193.399 1.15223 1.66888 0
M  V30 2150 C 193.732 -0.299293 1.9188 0
M  V30 2151 O 193.007 -1.21805 1.51637 0
M  V30 2152 C 193.29 1.94706 3.02922 0
M  V30 2153 C 193.143 3.47898 2.85109 0
M  V30 2154 C 194.462 1.75939 4.03402 0
M  V30 2155 H 191.581 0.419946 0.605652 0
M  V30 2156 H 194.223 1.57398 1.06423 0
M  V30 2157 H 192.373 1.58864 3.54534 0
M  V30 2158 H 194.045 3.93624 2.40537 0
M  V30 2159 H 192.288 3.7373 2.20246 0
M  V30 2160 H 192.959 3.98765 3.81694 0
M  V30 2161 H 195.435 2.07209 3.60837 0
M  V30 2162 H 194.311 2.33931 4.96556 0
M  V30 2163 H 194.572 0.709877 4.36364 0
M  V30 2164 N 193.631 -1.12557 1.10312 0
M  V30 2165 C 194.579 -2.20325 0.745629 0
M  V30 2166 C 195.573 -1.67429 -0.25763 0
M  V30 2167 O 196.779 -1.79612 -0.118132 0
M  V30 2168 H 193.154 -0.718118 0.223182 0
M  V30 2169 H 195.125 -2.47733 1.66346 0
M  V30 2170 C 193.874 -3.47168 0.192262 0
M  V30 2171 H 193.197 -3.88215 0.955475 0
M  V30 2172 H 194.637 -4.23995 -0.0198274 0
M  V30 2173 C 193.096 -3.19298 -1.07472 0
M  V30 2174 O 193.626 -3.3891 -2.15645 0
M  V30 2175 N 191.832 -2.73113 -0.992847 0
M  V30 2176 H 191.379 -2.57354 -0.112474 0
M  V30 2177 H 191.337 -2.54842 -1.84127 0
M  V30 2178 N 195.109 -0.891671 -1.2995 0
M  V30 2179 C 196.525 -0.58662 -1.48428 0
M  V30 2180 C 196.725 0.873951 -1.81561 0
M  V30 2181 O 195.781 1.65471 -1.90724 0
M  V30 2182 C 197.094 -1.50553 -2.60296 0
M  V30 2183 C 198.642 -1.50988 -2.74175 0
M  V30 2184 C 199.117 -2.41488 -3.89163 0
M  V30 2185 N 200.608 -2.39489 -3.96483 0
M  V30 2186 C 201.343 -3.06223 -4.84784 0
M  V30 2187 N 200.839 -3.82206 -5.77833 0
M  V30 2188 N 202.632 -2.95421 -4.78208 0
M  V30 2189 H 194.783 -1.83644 -1.06718 0
M  V30 2190 H 197.046 -0.786455 -0.529332 0
M  V30 2191 H 196.752 -2.54581 -2.42654 0
M  V30 2192 H 196.626 -1.22008 -3.56923 0
M  V30 2193 H 199.013 -0.47708 -2.91218 0
M  V30 2194 H 199.094 -1.83567 -1.78148 0
M  V30 2195 H 198.738 -3.44857 -3.72876 0
M  V30 2196 H 198.668 -2.06222 -4.84541 0
M  V30 2197 H 201.159 -1.84278 -3.29924 0
M  V30 2198 H 201.472 -4.302 -6.41988 0
M  V30 2199 H 199.817 -3.86313 -5.77743 0
M  V30 2200 H 203.008 -2.35581 -4.04499 0
M  V30 2201 H 203.181 -3.47704 -5.46814 0
M  V30 2202 N 196.587 1.43421 -0.653314 0
M  V30 2203 C 198.003 1.56341 -0.320886 0
M  V30 2204 C 198.203 1.63696 1.17499 0
M  V30 2205 O 197.259 1.59208 1.95982 0
M  V30 2206 C 198.572 2.82424 -1.03233 0
M  V30 2207 C 200.12 2.96168 -1.01259 0
M  V30 2208 C 200.595 4.25084 -1.70492 0
M  V30 2209 N 202.086 4.31948 -1.67257 0
M  V30 2210 C 202.821 5.30466 -2.17701 0
M  V30 2211 N 202.317 6.35261 -2.76434 0
M  V30 2212 N 204.11 5.2212 -2.082 0
M  V30 2213 H 196.261 1.3689 -1.62403 0
M  V30 2214 H 198.524 0.657455 -0.682977 0
M  V30 2215 H 198.23 2.83053 -2.08744 0
M  V30 2216 H 198.104 3.72653 -0.583948 0
M  V30 2217 H 200.491 2.9508 0.0341235 0
M  V30 2218 H 200.572 2.07229 -1.49966 0
M  V30 2219 H 200.216 4.26932 -2.7512 0
M  V30 2220 H 200.146 5.1292 -1.19251 0
M  V30 2221 H 202.637 3.56838 -1.24398 0
M  V30 2222 H 202.95 7.06754 -3.12601 0
M  V30 2223 H 201.295 6.35884 -2.80495 0
M  V30 2224 H 204.486 4.39166 -1.62021 0
M  V30 2225 H 204.659 5.98739 -2.47822 0
M  V30 2226 N 198.065 0.39524 1.52563 0
M  V30 2227 C 199.311 -0.185318 2.01952 0
M  V30 2228 C 199.644 -1.45964 1.28095 0
M  V30 2229 O 198.919 -1.90689 0.38315 0
M  V30 2230 C 199.202 -0.447193 3.57312 0
M  V30 2231 C 199.055 0.842828 4.41833 0
M  V30 2232 C 200.374 -1.23529 4.22408 0
M  V30 2233 H 197.493 -0.0658788 0.73405 0
M  V30 2234 H 200.135 0.525975 1.82575 0
M  V30 2235 H 198.285 -1.05312 3.73954 0
M  V30 2236 H 199.957 1.4795 4.36931 0
M  V30 2237 H 198.2 1.45686 4.08605 0
M  V30 2238 H 198.871 0.614165 5.48573 0
M  V30 2239 H 201.347 -0.722445 4.0978 0
M  V30 2240 H 200.223 -1.38727 5.3108 0
M  V30 2241 H 200.484 -2.25213 3.80436 0
M  V30 2242 N 199.544 -1.57102 0.125237 0
M  V30 2243 C 200.492 -2.16905 -0.839927 0
M  V30 2244 C 201.486 -1.11998 -1.27094 0
M  V30 2245 O 202.692 -1.3029 -1.24195 0
M  V30 2246 H 199.067 -0.694252 -0.288995 0
M  V30 2247 H 201.038 -2.96774 -0.311115 0
M  V30 2248 C 199.787 -2.78795 -2.07771 0
M  V30 2249 H 199.11 -3.59221 -1.755 0
M  V30 2250 H 200.55 -3.2417 -2.73295 0
M  V30 2251 C 199.009 -1.76193 -2.87155 0
M  V30 2252 O 199.539 -1.21909 -3.82755 0
M  V30 2253 N 197.745 -1.45991 -2.51267 0
M  V30 2254 H 197.292 -1.90325 -1.73592 0
M  V30 2255 H 197.25 -0.775844 -3.04677 0
M  V30 2256 N 201.022 0.148545 -1.56898 0
M  V30 2257 C 201.97 1.20265 -1.99096 0
M  V30 2258 C 202.964 1.44559 -0.883123 0
M  V30 2259 O 204.17 1.4487 -1.0683 0
M  V30 2260 H 200.545 0.404786 -0.63376 0
M  V30 2261 H 202.516 0.82004 -2.86911 0
M  V30 2262 C 201.265 2.52886 -2.3863 0
M  V30 2263 H 200.588 2.35021 -3.23427 0
M  V30 2264 H 202.028 3.25274 -2.7198 0
M  V30 2265 C 200.487 3.13315 -1.23837 0
M  V30 2266 O 201.017 3.98077 -0.538268 0
M  V30 2267 N 199.223 2.72742 -1.00301 0
M  V30 2268 H 198.77 2.03912 -1.5741 0
M  V30 2269 H 198.728 3.13507 -0.236838 0
M  V30 2270 N 202.5 1.5196 0.417844 0
M  V30 2271 C 203.747 1.65591 1.16559 0
M  V30 2272 C 204.075 0.381565 1.90721 0
M  V30 2273 O 203.33 -0.635156 1.85106 0
M  V30 2274 C 203.629 2.82269 2.19223 0
M  V30 2275 C 203.295 4.20819 1.61933 0
M  V30 2276 C 201.957 4.58506 1.46033 0
M  V30 2277 C 204.309 5.07196 1.20008 0
M  V30 2278 C 201.637 5.80257 0.867113 0
M  V30 2279 C 203.989 6.29544 0.621086 0
M  V30 2280 C 202.653 6.65987 0.449144 0
M  V30 2281 H 201.923 0.605939 0.42652 0
M  V30 2282 H 204.57 1.86041 0.45397 0
M  V30 2283 H 202.875 2.56118 2.96498 0
M  V30 2284 H 204.572 2.90012 2.76936 0
M  V30 2285 H 201.162 3.91116 1.7529 0
M  V30 2286 H 205.346 4.7867 1.31105 0
M  V30 2287 H 200.602 6.07124 0.721833 0
M  V30 2288 H 204.776 6.95805 0.287798 0
M  V30 2289 H 202.403 7.60199 -0.012632 0
M  V30 2290 N 203.978 -0.674533 1.42435 0
M  V30 2291 C 205.226 -1.43175 1.42637 0
M  V30 2292 C 205.547 -1.94951 0.0438992 0
M  V30 2293 O 204.817 -1.7308 -0.917607 0
M  V30 2294 H 203.397 -0.531307 0.525092 0
M  V30 2295 H 206.059 -0.797006 1.77859 0
M  V30 2296 H 205.155 -2.28463 2.12629 0
M  V30 2297 N 205.456 -1.28612 -0.910864 0
M  V30 2298 C 206.681 -1.1891 -1.69927 0
M  V30 2299 C 207.106 0.248372 -1.86453 0
M  V30 2300 O 206.464 1.17961 -1.37676 0
M  V30 2301 C 206.512 -1.89578 -3.06745 0
M  V30 2302 O 205.616 -1.20521 -3.94396 0
M  V30 2303 H 204.957 -0.412632 -0.520222 0
M  V30 2304 H 207.487 -1.69985 -1.1387 0
M  V30 2305 H 207.497 -1.97597 -3.56958 0
M  V30 2306 H 206.172 -2.94136 -2.94035 0
M  V30 2307 H 204.749 -1.20684 -3.52831 0
M  V30 2308 N 206.934 1.1197 -1.10907 0
M  V30 2309 C 208.182 1.83225 -0.852819 0
M  V30 2310 C 208.503 1.84769 0.623341 0
M  V30 2311 O 207.773 1.3143 1.45269 0
M  V30 2312 H 206.353 0.67849 -0.312507 0
M  V30 2313 H 209.015 1.3556 -1.40033 0
M  V30 2314 H 208.111 2.87265 -1.22005 0
M  V30 2315 N 208.412 0.89855 1.29475 0
M  V30 2316 C 209.342 0.39201 2.30186 0
M  V30 2317 C 210.323 -0.532359 1.61555 0
M  V30 2318 O 211.508 -0.443331 1.89072 0
M  V30 2319 C 208.638 -0.382353 3.45189 0
M  V30 2320 C 207.592 0.451483 4.25612 0
M  V30 2321 C 206.918 -0.450307 5.328 0
M  V30 2322 C 208.218 1.70079 4.93832 0
M  V30 2323 H 209.912 1.23362 2.72804 0
M  V30 2324 H 207.458 0.594638 1.31149 0
M  V30 2325 H 209.411 -0.747451 4.14718 0
M  V30 2326 H 208.135 -1.25774 3.01411 0
M  V30 2327 H 206.794 0.798897 3.57789 0
M  V30 2328 H 206.442 -1.32379 4.85268 0
M  V30 2329 H 206.142 0.103902 5.87508 0
M  V30 2330 H 207.666 -0.811623 6.05182 0
M  V30 2331 H 209.08 1.40549 5.55805 0
M  V30 2332 H 207.477 2.19623 5.58467 0
M  V30 2333 H 208.547 2.43744 4.19186 0
M  V30 2334 N 209.89 -1.43072 0.660911 0
M  V30 2335 C 211.118 -2.06067 0.185422 0
M  V30 2336 C 211.533 -1.49582 -1.15198 0
M  V30 2337 O 210.89 -0.630134 -1.71276 0
M  V30 2338 C 210.941 -3.61371 0.0966523 0
M  V30 2339 O 210.662 -4.15758 1.38119 0
M  V30 2340 C 212.163 -4.41455 -0.403996 0
M  V30 2341 H 209.383 -0.664459 0.0934604 0
M  V30 2342 H 211.927 -1.83447 0.90373 0
M  V30 2343 H 210.082 -3.8315 -0.572259 0
M  V30 2344 H 210.496 -5.09499 1.24542 0
M  V30 2345 H 211.97 -5.50437 -0.415045 0
M  V30 2346 H 212.447 -4.15036 -1.43674 0
M  V30 2347 H 213.053 -4.24663 0.232691 0
M  V30 2348 N 211.368 -0.403325 -1.52352 0
M  V30 2349 C 212.331 0.413051 -2.25447 0
M  V30 2350 C 213.331 0.978513 -1.276 0
M  V30 2351 O 214.521 0.858305 -1.51587 0
M  V30 2352 C 211.653 1.58087 -3.02029 0
M  V30 2353 H 212.846 -0.227094 -2.99039 0
M  V30 2354 H 210.399 -0.155722 -1.55522 0
M  V30 2355 H 211.134 2.25804 -2.32772 0
M  V30 2356 H 210.919 1.18195 -3.73861 0
M  V30 2357 H 212.409 2.1585 -3.57489 0
M  V30 2358 N 212.846 1.57033 -0.133567 0
M  V30 2359 C 213.776 2.1909 0.807567 0
M  V30 2360 C 214.757 1.13517 1.26681 0
M  V30 2361 O 215.942 1.41809 1.32679 0
M  V30 2362 C 213.072 2.80188 2.05212 0
M  V30 2363 C 212.026 3.91471 1.73015 0
M  V30 2364 C 211.352 4.39443 3.04622 0
M  V30 2365 C 212.652 5.12886 0.987168 0
M  V30 2366 H 214.346 2.97988 0.290403 0
M  V30 2367 H 211.892 1.43335 0.138239 0
M  V30 2368 H 213.845 3.22264 2.71521 0
M  V30 2369 H 212.569 1.98601 2.59278 0
M  V30 2370 H 211.228 3.49993 1.0909 0
M  V30 2371 H 210.876 3.54695 3.56651 0
M  V30 2372 H 210.576 5.14495 2.83847 0
M  V30 2373 H 212.1 4.8418 3.72024 0
M  V30 2374 H 213.514 5.51891 1.55208 0
M  V30 2375 H 211.911 5.93615 0.87985 0
M  V30 2376 H 212.981 4.84894 -0.0235286 0
M  V30 2377 N 214.325 -0.140222 1.56975 0
M  V30 2378 C 215.573 -0.850005 1.83356 0
M  V30 2379 C 215.894 -1.81399 0.71551 0
M  V30 2380 O 215.164 -1.94136 -0.262294 0
M  V30 2381 H 213.744 -0.316886 0.676456 0
M  V30 2382 H 216.406 -0.132608 1.94448 0
M  V30 2383 H 215.502 -1.40814 2.78528 0
M  V30 2384 N 215.803 -1.52179 -0.40978 0
M  V30 2385 C 216.733 -1.78435 -1.5061 0
M  V30 2386 C 217.714 -0.635295 -1.57791 0
M  V30 2387 O 218.899 -0.880823 -1.73076 0
M  V30 2388 C 216.029 -1.93444 -2.88439 0
M  V30 2389 C 214.983 -3.09038 -2.96108 0
M  V30 2390 C 214.309 -3.09268 -4.36185 0
M  V30 2391 C 215.609 -4.48508 -2.67652 0
M  V30 2392 H 217.303 -2.70237 -1.28889 0
M  V30 2393 H 214.849 -1.30036 -0.618605 0
M  V30 2394 H 216.802 -2.10394 -3.65119 0
M  V30 2395 H 215.526 -0.983129 -3.11452 0
M  V30 2396 H 214.185 -2.91837 -2.21872 0
M  V30 2397 H 213.833 -2.11861 -4.56206 0
M  V30 2398 H 213.533 -3.86907 -4.42241 0
M  V30 2399 H 215.057 -3.28348 -5.14801 0
M  V30 2400 H 216.471 -4.65918 -3.34056 0
M  V30 2401 H 214.868 -5.28059 -2.85085 0
M  V30 2402 H 215.938 -4.56649 -1.63095 0
M  V30 2403 N 217.281 0.66697 -1.42791 0
M  V30 2404 C 218.228 1.7803 -1.4688 0
M  V30 2405 C 219.198 1.6299 -0.319919 0
M  V30 2406 O 220.383 1.83432 -0.525118 0
M  V30 2407 C 217.523 3.1611 -1.38451 0
M  V30 2408 C 216.636 3.42381 -2.63437 0
M  V30 2409 C 215.771 4.70232 -2.47094 0
M  V30 2410 C 214.81 4.89564 -3.67415 0
M  V30 2411 N 213.947 6.08661 -3.49966 0
M  V30 2412 H 218.787 1.7387 -2.42019 0
M  V30 2413 H 216.324 0.84868 -1.20149 0
M  V30 2414 H 218.282 3.95914 -1.31561 0
M  V30 2415 H 216.912 3.19374 -0.469033 0
M  V30 2416 H 215.964 2.56774 -2.80662 0
M  V30 2417 H 217.276 3.52557 -3.52853 0
M  V30 2418 H 216.43 5.5814 -2.37834 0
M  V30 2419 H 215.169 4.62353 -1.5518 0
M  V30 2420 H 214.174 4.00096 -3.77099 0
M  V30 2421 H 215.399 4.99282 -4.6032 0
M  V30 2422 H 213.345 6.0194 -2.60776 0
M  V30 2423 H 213.262 6.19733 -4.32975 0
M  V30 2424 H 214.53 6.99226 -3.44532 0
M  V30 2425 N 218.759 1.29093 0.90403 0
M  V30 2426 C 220.17 1.15186 1.46932 0
M  V30 2427 C 220.521 -0.254587 1.94541 0
M  V30 2428 O 219.646 -1.14972 1.83332 0
M  V30 2429 C 220.241 2.08492 2.67051 0
M  V30 2430 C 218.8 1.98621 3.19729 0
M  V30 2431 C 217.947 1.9967 1.92425 0
M  V30 2432 H 220.898 1.41641 0.715789 0
M  V30 2433 H 220.919 1.65461 3.42641 0
M  V30 2434 H 220.431 3.10847 2.3237 0
M  V30 2435 H 218.532 0.993389 3.59114 0
M  V30 2436 H 218.645 2.86068 3.8432 0
M  V30 2437 H 217.009 1.44208 2.09943 0
M  V30 2438 H 217.792 3.03721 1.60026 0
M  V30 2439 N 220.237 -1.11381 1.11499 0
M  V30 2440 C 221.184 -2.17439 0.773887 0
M  V30 2441 C 222.154 -1.64132 -0.254899 0
M  V30 2442 O 223.339 -1.90345 -0.13168 0
M  V30 2443 C 220.479 -3.44373 0.223917 0
M  V30 2444 C 219.592 -4.1168 1.30934 0
M  V30 2445 C 218.727 -5.263 0.71984 0
M  V30 2446 C 217.766 -5.85493 1.78507 0
M  V30 2447 N 216.903 -6.91507 1.21502 0
M  V30 2448 H 221.743 -2.45962 1.68246 0
M  V30 2449 H 219.28 -1.20744 0.840191 0
M  V30 2450 H 221.238 -4.17047 -0.112921 0
M  V30 2451 H 219.868 -3.16232 -0.647851 0
M  V30 2452 H 218.92 -3.37073 1.76312 0
M  V30 2453 H 220.232 -4.51729 2.11524 0
M  V30 2454 H 219.386 -6.05785 0.333094 0
M  V30 2455 H 218.125 -4.87559 -0.117377 0
M  V30 2456 H 217.13 -5.04686 2.18111 0
M  V30 2457 H 218.355 -6.26301 2.62533 0
M  V30 2458 H 216.301 -6.54783 0.399455 0
M  V30 2459 H 216.218 -7.30214 1.95763 0
M  V30 2460 H 217.486 -7.74795 0.855181 0
M  V30 2461 N 221.715 -0.905404 -1.28997 0
M  V30 2462 C 222.663 -0.377431 -2.29517 0
M  V30 2463 C 223.657 0.526461 -1.61012 0
M  V30 2464 O 224.863 0.40863 -1.753 0
M  V30 2465 H 221.238 -0.103437 -0.744852 0
M  V30 2466 H 223.209 -1.23848 -2.71485 0
M  V30 2467 C 221.958 0.374833 -3.45674 0
M  V30 2468 H 221.281 -0.311474 -3.98585 0
M  V30 2469 H 222.721 0.70903 -4.1803 0
M  V30 2470 C 221.18 1.57963 -2.97572 0
M  V30 2471 O 221.71 2.67886 -2.99333 0
M  V30 2472 N 219.916 1.42375 -2.53333 0
M  V30 2473 H 219.463 0.529466 -2.521 0
M  V30 2474 H 219.421 2.23117 -2.21509 0
M  V30 2475 N 223.193 1.4272 -0.668489 0
M  V30 2476 C 224.421 2.05966 -0.196348 0
M  V30 2477 C 224.836 1.50191 1.14403 0
M  V30 2478 O 224.193 0.639208 1.7094 0
M  V30 2479 C 224.244 3.61314 -0.115815 0
M  V30 2480 O 223.965 4.1502 -1.40322 0
M  V30 2481 C 225.466 4.41663 0.380579 0
M  V30 2482 H 222.686 0.663954 -0.0969829 0
M  V30 2483 H 225.23 1.82966 -0.913446 0
M  V30 2484 H 223.385 3.83448 0.551931 0
M  V30 2485 H 223.799 5.08832 -1.27243 0
M  V30 2486 H 225.273 5.5065 0.385848 0
M  V30 2487 H 225.75 4.15792 1.41471 0
M  V30 2488 H 226.356 4.24534 -0.255209 0
M  V30 2489 N 224.671 0.411399 1.52136 0
M  V30 2490 C 225.92 -0.165009 2.01024 0
M  V30 2491 C 226.233 -1.4603 1.30133 0
M  V30 2492 O 227.439 -2.1181 1.69849 0
M  V30 2493 C 225.895 -0.344618 3.58246 0
M  V30 2494 C 225.503 0.938716 4.38055 0
M  V30 2495 C 227.247 -0.876195 4.15359 0
M  V30 2496 C 225.154 0.726172 5.86925 0
M  V30 2497 H 224.084 -0.0654407 0.751155 0
M  V30 2498 H 226.735 0.537192 1.75461 0
M  V30 2499 H 225.117 -1.10921 3.80148 0
M  V30 2500 H 226.291 1.70963 4.27912 0
M  V30 2501 H 224.606 1.39688 3.92271 0
M  V30 2502 H 227.203 -1.05128 5.24263 0
M  V30 2503 H 227.546 -1.85152 3.7286 0
M  V30 2504 H 228.079 -0.170607 3.97434 0
M  V30 2505 H 224.818 1.67312 6.33788 0
M  V30 2506 H 224.338 -0.00540283 5.998 0
M  V30 2507 H 226.017 0.369231 6.45946 0
M  V30 2508 N 226.149 -1.5696 0.141893 0
M  V30 2509 C 227.112 -2.15316 -0.785587 0
M  V30 2510 C 228.112 -1.09366 -1.1788 0
M  V30 2511 O 229.302 -1.35031 -1.10056 0
M  V30 2512 C 226.434 -2.71211 -2.06537 0
M  V30 2513 H 227.627 -2.98608 -0.278041 0
M  V30 2514 H 225.18 -1.5593 -0.107519 0
M  V30 2515 H 225.915 -1.91571 -2.6167 0
M  V30 2516 H 225.7 -3.4872 -1.79268 0
M  V30 2517 H 227.19 -3.16189 -2.72789 0
M  V30 2518 N 227.627 0.131896 -1.57047 0
M  V30 2519 C 228.876 0.84044 -1.83356 0
M  V30 2520 C 229.189 1.81646 -0.725535 0
M  V30 2521 O 230.395 2.57025 -0.874659 0
M  V30 2522 C 228.851 1.54528 -3.25037 0
M  V30 2523 C 228.459 0.610902 -4.43815 0
M  V30 2524 C 230.203 2.23972 -3.60606 0
M  V30 2525 C 228.11 1.31823 -5.76521 0
M  V30 2526 H 227.04 0.317599 -0.683847 0
M  V30 2527 H 229.691 0.0931561 -1.83263 0
M  V30 2528 H 228.073 2.33873 -3.19561 0
M  V30 2529 H 229.247 -0.148407 -4.60561 0
M  V30 2530 H 227.562 0.0241016 -4.16393 0
M  V30 2531 H 230.159 2.77558 -4.57018 0
M  V30 2532 H 230.502 3.01173 -2.87403 0
M  V30 2533 H 231.035 1.51529 -3.6781 0
M  V30 2534 H 227.774 0.587771 -6.52859 0
M  V30 2535 H 227.294 2.04987 -5.63685 0
M  V30 2536 H 228.973 1.855 -6.19838 0
M  V30 2537 N 229.106 1.52395 0.401703 0
M  V30 2538 C 230.353 1.66817 1.14796 0
M  V30 2539 C 230.681 0.401772 1.90305 0
M  V30 2540 O 229.936 -0.615487 1.85769 0
M  V30 2541 C 230.235 2.84578 2.16217 0
M  V30 2542 C 229.901 4.22513 1.5746 0
M  V30 2543 C 228.563 4.60029 1.41161 0
M  V30 2544 C 230.915 5.0844 1.14622 0
M  V30 2545 C 228.243 5.81144 0.80552 0
M  V30 2546 C 230.595 6.30167 0.55428 0
M  V30 2547 C 229.259 6.66426 0.378482 0
M  V30 2548 H 228.529 0.610428 0.420069 0
M  V30 2549 H 231.176 1.86512 0.434212 0
M  V30 2550 H 229.481 2.59248 2.93764 0
M  V30 2551 H 231.178 2.92933 2.73845 0
M  V30 2552 H 227.768 3.92953 1.71132 0
M  V30 2553 H 231.952 4.80034 1.26021 0
M  V30 2554 H 227.208 6.07855 0.657399 0
M  V30 2555 H 231.382 6.96071 0.213983 0
M  V30 2556 H 229.009 7.60143 -0.0932606 0
M  V30 2557 N 230.584 -0.659388 1.43143 0
M  V30 2558 C 231.824 -1.43121 1.45931 0
M  V30 2559 C 232.188 -1.91838 0.0789298 0
M  V30 2560 O 233.389 -2.68794 -0.018491 0
M  V30 2561 C 231.66 -2.58534 2.46769 0
M  V30 2562 S 233.219 -3.47154 2.68384 0
M  V30 2563 H 230.037 -0.488624 0.516496 0
M  V30 2564 H 232.639 -0.766128 1.79863 0
M  V30 2565 H 231.343 -2.21007 3.45809 0
M  V30 2566 H 230.874 -3.29898 2.14315 0
M  V30 2567 H 232.889 -4.55051 1.97845 0
M  V30 2568 N 232.062 -1.29571 -0.897171 0
M  V30 2569 C 232.972 -1.16808 -2.03453 0
M  V30 2570 C 233.988 -0.0907471 -1.73763 0
M  V30 2571 O 235.164 -0.303312 -1.99103 0
M  V30 2572 C 232.229 -0.848264 -3.36163 0
M  V30 2573 C 231.29 -2.0097 -3.79354 0
M  V30 2574 C 230.523 -1.70505 -5.05731 0
M  V30 2575 O 230.746 -0.62718 -5.66941 0
M  V30 2576 O 229.68 -2.5538 -5.45036 0
M  V30 2577 H 233.506 -2.12325 -2.17144 0
M  V30 2578 H 231.091 -1.09047 -1.02123 0
M  V30 2579 H 232.973 -0.684581 -4.15802 0
M  V30 2580 H 231.648 0.0771071 -3.23608 0
M  V30 2581 H 230.555 -2.22863 -3.00471 0
M  V30 2582 H 231.888 -2.91636 -3.96496 0
M  V30 2583 N 233.54 1.10788 -1.12088 0
M  V30 2584 C 234.768 1.86461 -0.896651 0
M  V30 2585 C 235.183 1.80492 0.553912 0
M  V30 2586 O 234.54 1.19102 1.38278 0
M  V30 2587 C 234.591 3.35006 -1.35843 0
M  V30 2588 O 234.312 3.40866 -2.75213 0
M  V30 2589 C 235.813 4.27565 -1.1706 0
M  V30 2590 H 233.033 0.589425 -0.320654 0
M  V30 2591 H 235.577 1.40076 -1.48993 0
M  V30 2592 H 233.732 3.7887 -0.808458 0
M  V30 2593 H 234.146 4.33411 -2.9539 0
M  V30 2594 H 235.62 5.30007 -1.54263 0
M  V30 2595 H 236.097 4.3906 -0.110814 0
M  V30 2596 H 236.703 3.89501 -1.70789 0
M  V30 2597 N 235.018 0.912232 1.28515 0
M  V30 2598 C 236.434 0.610159 1.47476 0
M  V30 2599 C 236.634 -0.844955 1.82928 0
M  V30 2600 O 235.69 -1.62416 1.93332 0
M  V30 2601 C 237.003 1.54675 2.57868 0
M  V30 2602 C 238.551 1.55331 2.71738 0
M  V30 2603 C 239.026 2.47649 3.85272 0
M  V30 2604 N 240.517 2.45767 3.92623 0
M  V30 2605 C 241.252 3.13896 4.79851 0
M  V30 2606 N 240.748 3.9135 5.71679 0
M  V30 2607 N 242.541 3.02991 4.73448 0
M  V30 2608 H 234.692 1.85318 1.03783 0
M  V30 2609 H 236.955 0.794777 0.516753 0
M  V30 2610 H 236.661 2.5841 2.38574 0
M  V30 2611 H 236.535 1.27671 3.54937 0
M  V30 2612 H 238.922 0.52335 2.90422 0
M  V30 2613 H 239.003 1.86378 1.75205 0
M  V30 2614 H 238.647 3.50745 3.67342 0
M  V30 2615 H 238.577 2.13904 4.81199 0
M  V30 2616 H 241.068 1.89503 3.26951 0
M  V30 2617 H 241.381 4.40359 6.35062 0
M  V30 2618 H 239.726 3.95455 5.71524 0
M  V30 2619 H 242.917 2.41987 4.007 0
M  V30 2620 H 243.09 3.5636 5.41213 0
M  V30 2621 N 236.496 -1.42363 0.676048 0
M  V30 2622 C 237.459 -2.29199 0.00766941 0
M  V30 2623 C 238.459 -1.43389 -0.727745 0
M  V30 2624 O 239.649 -1.64764 -0.56556 0
M  V30 2625 C 236.781 -3.2591 -0.999785 0
M  V30 2626 H 237.974 -2.89794 0.771988 0
M  V30 2627 H 235.527 -1.50024 0.438468 0
M  V30 2628 H 236.262 -2.70256 -1.79255 0
M  V30 2629 H 236.047 -3.89202 -0.475829 0
M  V30 2630 H 237.537 -3.91028 -1.46583 0
M  V30 2631 N 237.974 -0.419461 -1.51915 0
M  V30 2632 C 238.884 0.407528 -2.31033 0
M  V30 2633 C 239.9 1.04413 -1.3919 0
M  V30 2634 O 241.076 1.0434 -1.72265 0
M  V30 2635 C 238.141 1.50365 -3.12396 0
M  V30 2636 C 237.202 0.889029 -4.19994 0
M  V30 2637 C 236.435 1.93291 -4.97468 0
M  V30 2638 O 236.658 3.15259 -4.75361 0
M  V30 2639 O 235.592 1.53339 -5.8204 0
M  V30 2640 H 239.418 -0.237865 -3.02767 0
M  V30 2641 H 237.003 -0.182413 -1.48282 0
M  V30 2642 H 238.885 2.13975 -3.63032 0
M  V30 2643 H 237.56 2.13345 -2.43445 0
M  V30 2644 H 236.467 0.215353 -3.7348 0
M  V30 2645 H 237.8 0.302991 -4.91267 0
M  V30 2646 N 239.452 1.56882 -0.150215 0
M  V30 2647 C 240.698 1.97299 0.494427 0
M  V30 2648 C 241.053 1.0338 1.62266 0
M  V30 2649 O 240.346 0.0694497 1.91474 0
M  V30 2650 C 240.54 3.41801 1.04437 0
M  V30 2651 C 240.369 4.49691 -0.0290451 0
M  V30 2652 C 239.139 5.03095 -0.47156 0
M  V30 2653 C 241.337 5.07693 -0.821703 0
M  V30 2654 N 239.319 5.94593 -1.52749 0
M  V30 2655 C 240.69 5.95431 -1.72805 0
M  V30 2656 C 242.745 4.90256 -0.869134 0
M  V30 2657 C 241.448 6.67599 -2.67777 0
M  V30 2658 C 243.474 5.63127 -1.8067 0
M  V30 2659 C 242.836 6.50576 -2.70057 0
M  V30 2660 H 238.935 0.76755 0.149639 0
M  V30 2661 H 241.519 1.93145 -0.24556 0
M  V30 2662 H 239.69 3.46541 1.75396 0
M  V30 2663 H 241.422 3.69272 1.6559 0
M  V30 2664 H 238.177 4.73543 -0.0732101 0
M  V30 2665 H 238.601 6.45047 -2.05531 0
M  V30 2666 H 243.243 4.22363 -0.192134 0
M  V30 2667 H 240.961 7.34717 -3.36476 0
M  V30 2668 H 244.547 5.51629 -1.84924 0
M  V30 2669 H 243.427 7.05974 -3.41424 0
M  V30 2670 N 240.93 -0.123565 1.57115 0
M  V30 2671 C 241.863 -1.18202 1.95201 0
M  V30 2672 C 242.841 -1.40349 0.821031 0
M  V30 2673 O 244.025 -1.54578 1.07879 0
M  V30 2674 C 241.152 -2.53671 2.24429 0
M  V30 2675 C 240.198 -2.4798 3.46999 0
M  V30 2676 S 241.031 -1.92389 4.99747 0
M  V30 2677 C 242.187 -3.2954 5.32123 0
M  V30 2678 H 242.42 -0.857212 2.84674 0
M  V30 2679 H 239.953 -0.33014 1.50829 0
M  V30 2680 H 241.911 -3.3162 2.41947 0
M  V30 2681 H 240.572 -2.83332 1.35579 0
M  V30 2682 H 239.765 -3.47758 3.64801 0
M  V30 2683 H 239.367 -1.7815 3.28844 0
M  V30 2684 H 241.659 -4.25736 5.27025 0
M  V30 2685 H 242.602 -3.16569 6.33395 0
M  V30 2686 H 243.01 -3.27758 4.59603 0
M  V30 2687 N 242.408 -1.52605 -0.393616 0
M  V30 2688 C 243.657 -1.66649 -1.13627 0
M  V30 2689 C 243.97 -0.410364 -1.91247 0
M  V30 2690 O 245.176 -0.430854 -2.68059 0
M  V30 2691 C 243.632 -2.9449 -2.06891 0
M  V30 2692 C 243.24 -4.27266 -1.34714 0
M  V30 2693 C 244.984 -3.17899 -2.81319 0
M  V30 2694 C 242.891 -5.46217 -2.26717 0
M  V30 2695 H 241.821 -0.62084 -0.427871 0
M  V30 2696 H 244.472 -1.791 -0.399428 0
M  V30 2697 H 242.854 -2.75774 -2.84191 0
M  V30 2698 H 244.028 -4.56518 -0.626714 0
M  V30 2699 H 242.343 -4.10081 -0.722643 0
M  V30 2700 H 244.94 -4.03949 -3.50328 0
M  V30 2701 H 245.283 -2.32777 -3.45139 0
M  V30 2702 H 245.816 -3.37159 -2.11113 0
M  V30 2703 H 242.555 -6.33733 -1.67521 0
M  V30 2704 H 242.075 -5.21283 -2.96689 0
M  V30 2705 H 243.754 -5.7991 -2.86903 0
M  V30 2706 N 243.887 0.651787 -1.4349 0
M  V30 2707 C 244.85 1.74647 -1.48429 0
M  V30 2708 C 245.85 1.56513 -0.368817 0
M  V30 2709 O 247.04 1.62385 -0.630623 0
M  V30 2710 C 244.172 3.13533 -1.33827 0
M  V30 2711 H 245.365 1.71649 -2.4592 0
M  V30 2712 H 242.918 0.863573 -1.30277 0
M  V30 2713 H 243.653 3.22142 -0.37349 0
M  V30 2714 H 243.438 3.28101 -2.14691 0
M  V30 2715 H 244.928 3.93356 -1.40218 0
M  V30 2716 N 245.365 1.30045 0.890287 0
M  V30 2717 C 246.328 1.15963 1.977 0
M  V30 2718 C 247.328 0.0923777 1.60534 0
M  V30 2719 O 248.518 0.340071 1.70848 0
M  V30 2720 C 245.65 0.775451 3.31963 0
M  V30 2721 H 246.843 2.12502 2.11619 0
M  V30 2722 H 244.396 1.13366 1.07601 0
M  V30 2723 H 245.131 -0.189671 3.23745 0
M  V30 2724 H 244.916 1.54668 3.60306 0
M  V30 2725 H 246.406 0.700251 4.11687 0
M  V30 2726 N 246.843 -1.10192 1.12674 0
M  V30 2727 C 247.775 -2.16418 0.754701 0
M  V30 2728 C 248.788 -1.61309 -0.21986 0
M  V30 2729 O 249.977 -1.785 -0.000826841 0
M  V30 2730 C 247.077 -3.38762 0.096698 0
M  V30 2731 C 246.25 -4.23307 1.10136 0
M  V30 2732 C 245.309 -5.24092 0.470513 0
M  V30 2733 O 244.335 -5.57906 1.12824 0
M  V30 2734 N 245.537 -5.75491 -0.760948 0
M  V30 2735 H 248.302 -2.48943 1.66875 0
M  V30 2736 H 245.863 -1.25834 1.01869 0
M  V30 2737 H 247.855 -4.03291 -0.337384 0
M  V30 2738 H 246.425 -3.04192 -0.720153 0
M  V30 2739 H 245.645 -3.55036 1.71299 0
M  V30 2740 H 246.933 -4.76624 1.78064 0
M  V30 2741 H 246.331 -5.50222 -1.31424 0
M  V30 2742 H 244.888 -6.41792 -1.13781 0
M  V30 2743 N 248.321 -0.919034 -1.28029 0
M  V30 2744 C 249.549 -0.570971 -1.98866 0
M  V30 2745 C 249.964 0.848996 -1.68634 0
M  V30 2746 O 249.321 1.56307 -0.942036 0
M  V30 2747 C 249.372 -0.776876 -3.53054 0
M  V30 2748 O 249.093 -2.14097 -3.82222 0
M  V30 2749 C 250.594 -0.436356 -4.41147 0
M  V30 2750 H 247.814 -0.217175 -0.634883 0
M  V30 2751 H 250.358 -1.23368 -1.63097 0
M  V30 2752 H 248.513 -0.161085 -3.87065 0
M  V30 2753 H 248.927 -2.18455 -4.76841 0
M  V30 2754 H 250.401 -0.63117 -5.4838 0
M  V30 2755 H 250.878 0.627686 -4.34692 0
M  V30 2756 H 251.484 -1.02991 -4.12641 0
M  V30 2757 N 249.799 1.42003 -0.683588 0
M  V30 2758 C 251.039 2.03282 -0.213513 0
M  V30 2759 C 251.403 1.52924 1.16097 0
M  V30 2760 O 252.604 2.06048 1.7262 0
M  V30 2761 C 250.875 3.56483 -0.255856 0
M  V30 2762 S 252.434 4.3857 0.14193 0
M  V30 2763 H 249.252 0.705659 -0.0869853 0
M  V30 2764 H 251.854 1.73619 -0.8987 0
M  V30 2765 H 250.558 3.90631 -1.25841 0
M  V30 2766 H 250.089 3.90831 0.448875 0
M  V30 2767 H 252.104 4.76828 1.37295 0
M  V30 2768 N 251.277 0.427512 1.51691 0
M  V30 2769 C 252.524 -0.142229 2.02 0
M  V30 2770 C 252.852 -1.43566 1.31221 0
M  V30 2771 O 252.107 -1.91298 0.412744 0
M  V30 2772 C 252.406 -0.418249 3.54944 0
M  V30 2773 C 252.072 0.788187 4.43958 0
M  V30 2774 C 250.734 1.11906 4.68007 0
M  V30 2775 C 253.086 1.59347 4.96244 0
M  V30 2776 C 250.414 2.25608 5.41588 0
M  V30 2777 C 252.766 2.7214 5.71072 0
M  V30 2778 C 251.43 3.05692 5.93387 0
M  V30 2779 H 250.7 -0.0520451 0.73917 0
M  V30 2780 H 253.347 0.572697 1.82736 0
M  V30 2781 H 251.652 -1.21496 3.72486 0
M  V30 2782 H 253.349 -0.872339 3.91397 0
M  V30 2783 H 249.939 0.520344 4.2543 0
M  V30 2784 H 254.123 1.35106 4.77556 0
M  V30 2785 H 249.379 2.51929 5.57083 0
M  V30 2786 H 253.553 3.34914 6.10578 0
M  V30 2787 H 251.18 3.9391 6.50184 0
M  V30 2788 N 252.755 -1.56801 0.158532 0
M  V30 2789 C 253.702 -2.17337 -0.776729 0
M  V30 2790 C 254.672 -1.1096 -1.23601 0
M  V30 2791 O 255.857 -1.39054 -1.30647 0
M  V30 2792 C 252.997 -2.80822 -2.00582 0
M  V30 2793 C 252.11 -4.01624 -1.59129 0
M  V30 2794 C 251.245 -4.53072 -2.77306 0
M  V30 2795 C 250.284 -5.66314 -2.32282 0
M  V30 2796 N 249.421 -6.12329 -3.43508 0
M  V30 2797 H 254.261 -2.96918 -0.253701 0
M  V30 2798 H 251.798 -1.46661 -0.113504 0
M  V30 2799 H 253.756 -3.15779 -2.72652 0
M  V30 2800 H 252.386 -2.03866 -2.50277 0
M  V30 2801 H 251.438 -3.72571 -0.767806 0
M  V30 2802 H 252.75 -4.83633 -1.2207 0
M  V30 2803 H 251.904 -4.90145 -3.57551 0
M  V30 2804 H 250.643 -3.70095 -3.17617 0
M  V30 2805 H 249.648 -5.28806 -1.5048 0
M  V30 2806 H 250.873 -6.51085 -1.93043 0
M  V30 2807 H 248.819 -5.32284 -3.83418 0
M  V30 2808 H 248.736 -6.89293 -3.105 0
M  V30 2809 H 250.004 -6.5405 -4.24075 0
M  V30 2810 N 254.233 0.115231 -1.57178 0
M  V30 2811 C 255.463 0.835224 -1.88964 0
M  V30 2812 C 255.871 1.73774 -0.74829 0
M  V30 2813 O 255.214 1.81401 0.289739 0
M  V30 2814 C 255.276 1.7178 -3.15804 0
M  V30 2815 C 254.94 0.989198 -4.46166 0
M  V30 2816 C 255.937 0.328263 -5.18863 0
M  V30 2817 C 253.622 0.969256 -4.9286 0
M  V30 2818 C 255.616 -0.342873 -6.36477 0
M  V30 2819 C 253.303 0.294324 -6.10391 0
M  V30 2820 C 254.301 -0.360582 -6.82048 0
M  V30 2821 O 253.989 -1.02474 -7.97342 0
M  V30 2822 H 253.721 0.245197 -0.629964 0
M  V30 2823 H 256.275 0.10303 -2.05141 0
M  V30 2824 H 254.505 2.49173 -2.95719 0
M  V30 2825 H 256.194 2.31255 -3.33581 0
M  V30 2826 H 256.96 0.335263 -4.8384 0
M  V30 2827 H 252.839 1.46844 -4.36987 0
M  V30 2828 H 256.383 -0.854629 -6.92345 0
M  V30 2829 H 252.28 0.285099 -6.4487 0
M  V30 2830 H 253.048 -0.929594 -8.13204 0
M  V30 2831 N 255.711 1.52812 0.385517 0
M  V30 2832 C 256.659 1.78482 1.49155 0
M  V30 2833 C 257.653 0.652914 1.56312 0
M  V30 2834 O 258.859 0.835464 1.59436 0
M  V30 2835 H 255.234 0.5648 0.496493 0
M  V30 2836 H 257.205 2.71095 1.24699 0
M  V30 2837 C 255.954 1.97378 2.86247 0
M  V30 2838 H 255.277 2.83907 2.81491 0
M  V30 2839 H 256.717 2.19327 3.62866 0
M  V30 2840 C 255.176 0.74728 3.28508 0
M  V30 2841 O 255.706 -0.0736232 4.01633 0
M  V30 2842 N 253.912 0.576396 2.84826 0
M  V30 2843 H 253.459 1.24555 2.25486 0
M  V30 2844 H 253.417 -0.24288 3.1346 0
M  V30 2845 N 257.189 -0.644168 1.43834 0
M  V30 2846 C 258.436 -1.40395 1.4593 0
M  V30 2847 C 258.764 -1.94305 0.0869658 0
M  V30 2848 O 258.019 -1.73288 -0.909378 0
M  V30 2849 C 258.318 -2.59615 2.45631 0
M  V30 2850 C 257.984 -2.2407 3.91284 0
M  V30 2851 C 256.646 -2.14089 4.30952 0
M  V30 2852 C 258.998 -1.95775 4.83034 0
M  V30 2853 C 256.326 -1.73981 5.6031 0
M  V30 2854 C 258.678 -1.57163 6.12766 0
M  V30 2855 C 257.342 -1.45713 6.51402 0
M  V30 2856 H 256.612 -0.513741 0.533995 0
M  V30 2857 H 259.259 -0.731724 1.76969 0
M  V30 2858 H 257.564 -3.32011 2.08028 0
M  V30 2859 H 259.261 -3.17834 2.44504 0
M  V30 2860 H 255.851 -2.32753 3.59895 0
M  V30 2861 H 260.035 -2.02403 4.53152 0
M  V30 2862 H 255.291 -1.63709 5.89075 0
M  V30 2863 H 259.465 -1.34303 6.83327 0
M  V30 2864 H 257.092 -1.14406 7.51542 0
M  V30 2865 N 258.668 -1.30515 -0.883378 0
M  V30 2866 C 260.079 -1.17509 -1.45081 0
M  V30 2867 C 260.43 0.223605 -1.94922 0
M  V30 2868 O 259.555 1.12041 -1.85137 0
M  V30 2869 C 260.15 -2.12715 -2.63701 0
M  V30 2870 C 258.709 -2.03682 -3.16529 0
M  V30 2871 C 257.856 -2.02706 -1.89224 0
M  V30 2872 H 260.807 -1.42762 -0.693165 0
M  V30 2873 H 260.828 -1.70891 -3.39965 0
M  V30 2874 H 260.34 -3.14505 -2.27395 0
M  V30 2875 H 258.441 -1.05039 -3.57488 0
M  V30 2876 H 258.554 -2.92146 -3.7972 0
M  V30 2877 H 256.918 -1.4753 -2.07622 0
M  V30 2878 H 257.701 -3.06229 -1.55174 0
M  V30 2879 N 260.146 1.09593 -1.13257 0
M  V30 2880 C 261.076 2.18214 -0.830946 0
M  V30 2881 C 262.057 1.68812 0.208966 0
M  V30 2882 O 263.242 1.9408 0.0682666 0
M  V30 2883 C 260.372 3.46051 -0.294296 0
M  V30 2884 C 259.326 4.08778 -1.26826 0
M  V30 2885 C 258.652 5.31419 -0.591449 0
M  V30 2886 C 259.952 4.51476 -2.62615 0
M  V30 2887 H 261.646 2.43703 -1.73923 0
M  V30 2888 H 259.192 1.17128 -0.837675 0
M  V30 2889 H 261.145 4.2134 -0.0709606 0
M  V30 2890 H 259.869 3.20079 0.649366 0
M  V30 2891 H 258.528 3.35505 -1.47756 0
M  V30 2892 H 258.176 5.01727 0.357633 0
M  V30 2893 H 257.876 5.74341 -1.24123 0
M  V30 2894 H 259.4 6.09433 -0.377355 0
M  V30 2895 H 260.814 5.17999 -2.45663 0
M  V30 2896 H 259.211 5.05277 -3.23752 0
M  V30 2897 H 260.281 3.63962 -3.20406 0
M  V30 2898 N 261.624 0.925811 1.2754 0
M  V30 2899 C 262.87 0.566092 1.94739 0
M  V30 2900 C 263.203 -0.890057 1.72603 0
M  V30 2901 O 262.478 -1.63467 1.05399 0
M  V30 2902 C 262.761 0.89054 3.48915 0
M  V30 2903 C 262.614 2.4003 3.80402 0
M  V30 2904 C 263.933 0.395101 4.38323 0
M  V30 2905 H 261.052 0.20714 0.707292 0
M  V30 2906 H 263.694 1.15725 1.50691 0
M  V30 2907 H 261.844 0.387452 3.86563 0
M  V30 2908 H 263.516 2.97494 3.52555 0
M  V30 2909 H 261.759 2.85028 3.2702 0
M  V30 2910 H 262.43 2.57785 4.8811 0
M  V30 2911 H 264.906 0.826241 4.07814 0
M  V30 2912 H 263.782 0.651086 5.45025 0
M  V30 2913 H 264.043 -0.704798 4.36446 0
M  V30 2914 N 263.102 -1.41638 0.69111 0
M  V30 2915 C 264.33 -2.05628 0.22909 0
M  V30 2916 C 264.745 -1.51992 -1.11999 0
M  V30 2917 O 264.102 -0.666322 -1.69901 0
M  V30 2918 C 264.153 -3.61084 0.173283 0
M  V30 2919 O 263.874 -4.12735 1.46907 0
M  V30 2920 C 265.375 -4.42213 -0.310266 0
M  V30 2921 H 262.595 -0.662327 0.107534 0
M  V30 2922 H 265.139 -1.81489 0.942438 0
M  V30 2923 H 263.294 -3.84278 -0.490858 0
M  V30 2924 H 263.708 -5.06743 1.35322 0
M  V30 2925 H 265.182 -5.51194 -0.298196 0
M  V30 2926 H 265.659 -4.1799 -1.34838 0
M  V30 2927 H 266.265 -4.24074 0.322716 0
M  V30 2928 N 264.58 -0.43555 -1.51462 0
M  V30 2929 C 265.51 0.367376 -2.30592 0
M  V30 2930 C 266.491 1.02263 -1.35928 0
M  V30 2931 O 267.676 1.02661 -1.64847 0
M  V30 2932 C 264.806 1.46983 -3.14664 0
M  V30 2933 C 263.76 0.938161 -4.17591 0
M  V30 2934 C 263.086 2.13622 -4.90173 0
M  V30 2935 C 264.386 -0.0261621 -5.22293 0
M  V30 2936 H 266.08 -0.292969 -2.97963 0
M  V30 2937 H 263.626 -0.14234 -1.43295 0
M  V30 2938 H 265.579 2.03873 -3.688 0
M  V30 2939 H 264.303 2.15843 -2.4511 0
M  V30 2940 H 262.962 0.391481 -3.64504 0
M  V30 2941 H 262.61 2.81098 -4.17124 0
M  V30 2942 H 262.31 1.78688 -5.59772 0
M  V30 2943 H 263.834 2.7107 -5.47132 0
M  V30 2944 H 265.248 0.452384 -5.71512 0
M  V30 2945 H 263.645 -0.287992 -5.99409 0
M  V30 2946 H 264.715 -0.963391 -4.75233 0
M  V30 2947 N 266.058 1.56714 -0.166846 0
M  V30 2948 C 267.288 2.00828 0.48494 0
M  V30 2949 C 267.696 1.04612 1.57648 0
M  V30 2950 O 267.039 0.0383201 1.8366 0
M  V30 2951 C 267.101 3.4137 1.12723 0
M  V30 2952 C 266.765 4.56654 0.177886 0
M  V30 2953 C 267.762 5.16402 -0.60207 0
M  V30 2954 C 265.447 5.02244 0.0750139 0
M  V30 2955 C 267.441 6.20167 -1.47215 0
M  V30 2956 C 265.128 6.05859 -0.798649 0
M  V30 2957 C 266.126 6.64691 -1.57082 0
M  V30 2958 O 265.814 7.66297 -2.42989 0
M  V30 2959 H 265.546 0.663587 0.128953 0
M  V30 2960 H 268.1 2.03692 -0.264365 0
M  V30 2961 H 266.33 3.35406 1.92457 0
M  V30 2962 H 268.019 3.69466 1.68076 0
M  V30 2963 H 268.785 4.82065 -0.53274 0
M  V30 2964 H 264.664 4.56167 0.665812 0
M  V30 2965 H 268.208 6.66016 -2.07531 0
M  V30 2966 H 264.105 6.39621 -0.869199 0
M  V30 2967 H 264.873 7.83601 -2.36455 0
M  V30 2968 N 267.536 -0.106894 1.57237 0
M  V30 2969 C 268.499 -1.11466 2.0027 0
M  V30 2970 C 269.499 -1.33623 0.894519 0
M  V30 2971 O 270.689 -1.29935 1.16028 0
M  V30 2972 C 267.821 -2.46646 2.35327 0
M  V30 2973 H 269.014 -0.744516 2.90512 0
M  V30 2974 H 266.567 -0.351576 1.52295 0
M  V30 2975 H 267.302 -2.88558 1.48003 0
M  V30 2976 H 267.087 -2.31915 3.16161 0
M  V30 2977 H 268.577 -3.19151 2.69318 0
M  V30 2978 N 269.014 -1.53014 -0.377408 0
M  V30 2979 C 270.242 -1.72515 -1.14219 0
M  V30 2980 C 270.657 -0.448735 -1.8339 0
M  V30 2981 O 270.014 0.577592 -1.73119 0
M  V30 2982 C 270.065 -2.8826 -2.18148 0
M  V30 2983 O 269.786 -4.10962 -1.51795 0
M  V30 2984 C 271.287 -3.19536 -3.07264 0
M  V30 2985 H 268.507 -0.577301 -0.342001 0
M  V30 2986 H 271.051 -1.99712 -0.439935 0
M  V30 2987 H 269.206 -2.63492 -2.83991 0
M  V30 2988 H 269.62 -4.75693 -2.20945 0
M  V30 2989 H 271.094 -4.03959 -3.76193 0
M  V30 2990 H 271.571 -2.34403 -3.71419 0
M  V30 2991 H 272.177 -3.46186 -2.47053 0
M  V30 2992 N 270.492 0.636531 -1.44174 0
M  V30 2993 C 271.422 1.76003 -1.53444 0
M  V30 2994 C 272.403 1.65619 -0.387841 0
M  V30 2995 O 273.588 1.84461 -0.607257 0
M  V30 2996 C 270.718 3.14511 -1.4731 0
M  V30 2997 C 269.672 3.39677 -2.60391 0
M  V30 2998 C 268.998 4.78159 -2.39308 0
M  V30 2999 C 270.298 3.32772 -4.02567 0
M  V30 3000 H 271.992 1.68501 -2.47483 0
M  V30 3001 H 269.538 0.809237 -1.19111 0
M  V30 3002 H 271.491 3.92878 -1.52397 0
M  V30 3003 H 270.215 3.22783 -0.49785 0
M  V30 3004 H 268.874 2.63688 -2.54684 0
M  V30 3005 H 268.522 4.83128 -1.39988 0
M  V30 3006 H 268.222 4.95956 -3.15122 0
M  V30 3007 H 269.746 5.58762 -2.46205 0
M  V30 3008 H 271.16 4.01051 -4.09672 0
M  V30 3009 H 269.557 3.62104 -4.7854 0
M  V30 3010 H 270.627 2.30669 -4.2652 0
M  V30 3011 N 271.97 1.30982 0.876444 0
M  V30 3012 C 273.218 1.20058 1.62575 0
M  V30 3013 C 273.539 -0.242947 1.93481 0
M  V30 3014 O 272.809 -1.1619 1.57724 0
M  V30 3015 H 271.389 0.44135 0.602677 0
M  V30 3016 H 274.051 1.64222 1.04962 0
M  V30 3017 H 273.147 1.76762 2.57219 0
M  V30 3018 N 273.449 -1.08991 1.13837 0
M  V30 3019 C 274.396 -2.15748 0.819835 0
M  V30 3020 C 275.366 -1.64636 -0.220026 0
M  V30 3021 O 276.551 -1.90582 -0.0912757 0
M  V30 3022 C 273.691 -3.4382 0.296913 0
M  V30 3023 C 272.804 -4.0881 1.39636 0
M  V30 3024 C 271.939 -5.24655 0.831314 0
M  V30 3025 C 270.978 -5.81575 1.90886 0
M  V30 3026 N 270.115 -6.88774 1.36142 0
M  V30 3027 H 274.955 -2.42338 1.73426 0
M  V30 3028 H 272.492 -1.18935 0.865613 0
M  V30 3029 H 274.45 -4.17193 -0.0244339 0
M  V30 3030 H 273.08 -3.17535 -0.580628 0
M  V30 3031 H 272.132 -3.33258 1.83422 0
M  V30 3032 H 273.444 -4.47141 2.21058 0
M  V30 3033 H 272.598 -6.04942 0.461515 0
M  V30 3034 H 271.337 -4.87698 -0.013932 0
M  V30 3035 H 270.342 -4.99946 2.28767 0
M  V30 3036 H 271.567 -6.20592 2.75758 0
M  V30 3037 H 269.513 -6.53788 0.538254 0
M  V30 3038 H 269.43 -7.25898 2.11208 0
M  V30 3039 H 270.698 -7.72806 1.01933 0
M  V30 3040 N 274.927 -0.932562 -1.27047 0
M  V30 3041 C 275.837 -0.441219 -2.30414 0
M  V30 3042 C 276.853 0.480525 -1.67233 0
M  V30 3043 O 278.029 0.362151 -1.98117 0
M  V30 3044 C 275.094 0.293651 -3.45454 0
M  V30 3045 C 274.155 -0.663601 -4.2414 0
M  V30 3046 C 273.388 0.0362932 -5.33688 0
M  V30 3047 O 273.611 1.2548 -5.56427 0
M  V30 3048 O 272.545 -0.638015 -5.98509 0
M  V30 3049 H 276.371 -1.29962 -2.74488 0
M  V30 3050 H 273.956 -0.6981 -1.32087 0
M  V30 3051 H 275.838 0.707951 -4.15411 0
M  V30 3052 H 274.513 1.12758 -3.03426 0
M  V30 3053 H 273.42 -1.12768 -3.56699 0
M  V30 3054 H 274.753 -1.46489 -4.69896 0
M  V30 3055 N 276.405 1.4127 -0.698611 0
M  V30 3056 C 277.368 2.29158 -0.044132 0
M  V30 3057 C 278.368 1.44529 0.704841 0
M  V30 3058 O 279.558 1.65643 0.539276 0
M  V30 3059 C 276.69 3.27459 0.947809 0
M  V30 3060 H 277.883 2.88529 -0.817994 0
M  V30 3061 H 275.436 1.49307 -0.46228 0
M  V30 3062 H 276.171 2.73073 1.74933 0
M  V30 3063 H 275.956 3.8991 0.41385 0
M  V30 3064 H 277.446 3.93311 1.40344 0
M  V30 3065 N 277.883 0.443576 1.51229 0
M  V30 3066 C 279.129 -0.120975 2.02439 0
M  V30 3067 C 279.462 -1.41815 1.32674 0
M  V30 3068 O 278.737 -1.89373 0.443622 0
M  V30 3069 C 279.02 -0.333291 3.58554 0
M  V30 3070 C 278.873 0.982968 4.38928 0
M  V30 3071 C 280.192 -1.10028 4.26124 0
M  V30 3072 H 277.311 -0.0424923 0.735774 0
M  V30 3073 H 279.953 0.583794 1.80809 0
M  V30 3074 H 278.103 -0.933614 3.77115 0
M  V30 3075 H 279.775 1.61775 4.32003 0
M  V30 3076 H 278.018 1.58611 4.03763 0
M  V30 3077 H 278.689 0.788379 5.46341 0
M  V30 3078 H 281.165 -0.591711 4.11871 0
M  V30 3079 H 280.041 -1.21761 5.35225 0
M  V30 3080 H 280.302 -2.12996 3.87408 0
M  V30 3081 N 279.361 -1.56624 0.175154 0
M  V30 3082 C 280.607 -1.9729 -0.469506 0
M  V30 3083 C 280.94 -1.06128 -1.62636 0
M  V30 3084 O 280.215 -0.109183 -1.94193 0
M  V30 3085 C 280.498 -3.47375 -0.948804 0
M  V30 3086 C 280.351 -4.49317 0.208491 0
M  V30 3087 C 281.67 -4.00652 -1.82116 0
M  V30 3088 H 278.789 -0.717317 -0.16919 0
M  V30 3089 H 281.431 -1.88184 0.262062 0
M  V30 3090 H 279.581 -3.55267 -1.57219 0
M  V30 3091 H 281.253 -4.53482 0.845682 0
M  V30 3092 H 279.496 -4.25121 0.863395 0
M  V30 3093 H 280.167 -5.51741 -0.169059 0
M  V30 3094 H 282.643 -3.95416 -1.2956 0
M  V30 3095 H 281.519 -5.06075 -2.12554 0
M  V30 3096 H 281.78 -3.44699 -2.7683 0
M  V30 3097 N 280.839 0.0985539 -1.57292 0
M  V30 3098 C 281.789 1.1261 -1.9825 0
M  V30 3099 C 282.773 1.35961 -0.860426 0
M  V30 3100 O 283.965 1.36711 -1.12424 0
M  V30 3101 C 281.094 2.44727 -2.40757 0
M  V30 3102 C 280.18 2.24764 -3.59642 0
M  V30 3103 N 280.571 1.74661 -4.74687 0
M  V30 3104 C 278.869 2.55344 -3.65672 0
M  V30 3105 C 279.57 1.68887 -5.56644 0
M  V30 3106 N 278.546 2.13976 -4.99715 0
M  V30 3107 H 282.348 0.731604 -2.84648 0
M  V30 3108 H 279.862 0.306029 -1.59491 0
M  V30 3109 H 281.859 3.19072 -2.68326 0
M  V30 3110 H 280.519 2.84917 -1.55733 0
M  V30 3111 H 281.53 1.43908 -4.97505 0
M  V30 3112 H 278.207 2.99081 -2.91302 0
M  V30 3113 H 279.597 1.3123 -6.5896 0
M  V30 3114 N 282.317 1.53212 0.369288 0
M  V30 3115 C 283.565 1.68881 1.11012 0
M  V30 3116 C 283.886 0.441285 1.89941 0
M  V30 3117 O 283.156 -0.544623 1.88177 0
M  V30 3118 H 281.736 0.622569 0.412816 0
M  V30 3119 H 284.398 1.90391 0.416802 0
M  V30 3120 H 283.494 2.54822 1.80201 0
M  V30 3121 N 283.795 -0.628877 1.44509 0
M  V30 3122 C 284.725 -1.75187 1.54376 0
M  V30 3123 C 285.706 -1.65411 0.396618 0
M  V30 3124 O 286.891 -1.84137 0.617031 0
M  V30 3125 C 284.021 -3.13725 1.48976 0
M  V30 3126 C 282.975 -3.38291 2.62189 0
M  V30 3127 C 282.301 -4.76883 2.41841 0
M  V30 3128 C 283.601 -3.30632 4.04326 0
M  V30 3129 H 285.295 -1.67187 2.48373 0
M  V30 3130 H 282.841 -0.802909 1.19538 0
M  V30 3131 H 284.794 -3.92064 1.54478 0
M  V30 3132 H 283.518 -3.22515 0.514961 0
M  V30 3133 H 282.177 -2.62334 2.56079 0
M  V30 3134 H 281.825 -4.82378 1.42548 0
M  V30 3135 H 281.525 -4.94278 3.17747 0
M  V30 3136 H 283.049 -5.57449 2.49165 0
M  V30 3137 H 284.463 -3.98873 4.11793 0
M  V30 3138 H 282.86 -3.59561 4.80454 0
M  V30 3139 H 283.93 -2.28404 4.27738 0
M  V30 3140 N 285.273 -1.31445 -0.869486 0
M  V30 3141 C 286.221 -1.19067 -1.99814 0
M  V30 3142 C 287.215 -0.0988569 -1.69111 0
M  V30 3143 O 288.421 -0.260781 -1.78101 0
M  V30 3144 H 284.796 -0.368677 -0.655425 0
M  V30 3145 H 286.767 -2.14555 -2.07385 0
M  V30 3146 C 285.516 -0.915323 -3.35436 0
M  V30 3147 H 284.839 -1.74759 -3.59582 0
M  V30 3148 H 286.279 -0.868895 -4.15001 0
M  V30 3149 C 284.738 0.381928 -3.34728 0
M  V30 3150 O 285.268 1.39857 -3.76567 0
M  V30 3151 N 283.474 0.398633 -2.87853 0
M  V30 3152 H 283.021 -0.429186 -2.54 0
M  V30 3153 H 282.979 1.26651 -2.87762 0
M  V30 3154 N 286.751 1.08385 -1.14413 0
M  V30 3155 C 287.661 2.18856 -0.844951 0
M  V30 3156 C 288.677 1.73121 0.174668 0
M  V30 3157 O 289.853 2.014 0.00312857 0
M  V30 3158 C 286.918 3.45155 -0.32696 0
M  V30 3159 C 285.979 4.05513 -1.40916 0
M  V30 3160 C 285.212 5.25784 -0.915793 0
M  V30 3161 O 285.435 5.69884 0.242651 0
M  V30 3162 O 284.369 5.77545 -1.69487 0
M  V30 3163 H 288.195 2.46919 -1.76818 0
M  V30 3164 H 285.78 1.17524 -0.922411 0
M  V30 3165 H 287.662 4.21377 -0.0440211 0
M  V30 3166 H 286.337 3.18668 0.568539 0
M  V30 3167 H 285.244 3.30879 -1.74556 0
M  V30 3168 H 286.577 4.3625 -2.27919 0
M  V30 3169 N 288.23 0.939286 1.26551 0
M  V30 3170 C 289.455 0.602008 1.98471 0
M  V30 3171 C 289.88 -0.815624 1.69497 0
M  V30 3172 O 289.238 -1.54912 0.941905 0
M  V30 3173 C 289.286 0.848407 3.50477 0
M  V30 3174 O 288.39 -0.0804009 4.12322 0
M  V30 3175 H 287.731 0.23049 0.622712 0
M  V30 3176 H 290.261 1.2617 1.61066 0
M  V30 3177 H 290.271 0.768553 4.00696 0
M  V30 3178 H 288.946 1.88171 3.70897 0
M  V30 3179 H 287.523 0.0503508 3.72866 0
M  V30 3180 N 289.708 -1.40897 0.706093 0
M  V30 3181 C 290.618 -2.3455 0.0482286 0
M  V30 3182 C 291.634 -1.56796 -0.754396 0
M  V30 3183 O 292.81 -1.89228 -0.689538 0
M  V30 3184 C 289.875 -3.35625 -0.869303 0
M  V30 3185 C 288.936 -4.29261 -0.0576994 0
M  V30 3186 C 288.169 -5.25508 -0.931531 0
M  V30 3187 O 288.392 -5.27472 -2.17092 0
M  V30 3188 O 287.326 -6.00727 -0.375587 0
M  V30 3189 H 291.152 -2.92407 0.820476 0
M  V30 3190 H 288.737 -1.4193 0.4665 0
M  V30 3191 H 290.619 -3.97635 -1.39514 0
M  V30 3192 H 289.294 -2.80196 -1.62086 0
M  V30 3193 H 288.201 -3.70566 0.512988 0
M  V30 3194 H 289.534 -4.87817 0.655426 0
M  V30 3195 N 291.186 -0.45159 -1.50991 0
M  V30 3196 C 292.149 0.341117 -2.26647 0
M  V30 3197 C 293.149 0.937422 -1.30649 0
M  V30 3198 O 294.339 0.809644 -1.54241 0
M  V30 3199 C 291.471 1.48398 -3.06905 0
M  V30 3200 H 292.664 -0.322117 -2.98165 0
M  V30 3201 H 290.217 -0.205122 -1.54948 0
M  V30 3202 H 290.952 2.18284 -2.39838 0
M  V30 3203 H 290.737 1.06241 -3.77432 0
M  V30 3204 H 292.227 2.04367 -3.64176 0
M  V30 3205 N 292.664 1.56529 -0.183458 0
M  V30 3206 C 293.889 2.02064 0.467428 0
M  V30 3207 C 294.314 1.06282 1.55196 0
M  V30 3208 O 293.672 0.0443565 1.81246 0
M  V30 3209 C 293.72 3.46122 1.01153 0
M  V30 3210 O 292.824 3.53437 2.12499 0
M  V30 3211 H 292.165 0.654726 0.110588 0
M  V30 3212 H 294.695 2.02521 -0.290917 0
M  V30 3213 H 294.705 3.85676 1.33108 0
M  V30 3214 H 293.38 4.15331 0.217533 0
M  V30 3215 H 291.957 3.2575 1.81497 0
M  V30 3216 N 294.142 -0.090211 1.57342 0
M  V30 3217 C 295.372 -0.805055 1.90269 0
M  V30 3218 C 295.78 -1.72561 0.775842 0
M  V30 3219 O 295.123 -1.81839 -0.260843 0
M  V30 3220 C 295.185 -1.66734 3.18497 0
M  V30 3221 C 294.849 -0.918092 4.47683 0
M  V30 3222 C 295.846 -0.245674 5.19319 0
M  V30 3223 C 293.531 -0.890724 4.94339 0
M  V30 3224 C 295.525 0.444088 6.35851 0
M  V30 3225 C 293.212 -0.197179 6.10782 0
M  V30 3226 C 294.21 0.469044 6.81388 0
M  V30 3227 O 293.898 1.15146 7.95611 0
M  V30 3228 H 293.63 -0.235143 0.633785 0
M  V30 3229 H 296.184 -0.0703805 2.05279 0
M  V30 3230 H 294.414 -2.44437 2.99646 0
M  V30 3231 H 296.103 -2.25919 3.37217 0
M  V30 3232 H 296.869 -0.258246 4.84312 0
M  V30 3233 H 292.748 -1.39873 4.39268 0
M  V30 3234 H 296.292 0.964667 6.90898 0
M  V30 3235 H 292.189 -0.18247 6.45242 0
M  V30 3236 H 292.957 1.05885 8.11622 0
M  V30 3237 N 295.62 -1.53406 -0.361157 0
M  V30 3238 C 296.55 -1.83136 -1.44857 0
M  V30 3239 C 297.531 -0.685174 -1.5569 0
M  V30 3240 O 298.716 -0.93544 -1.70186 0
M  V30 3241 C 295.846 -2.02522 -2.82138 0
M  V30 3242 C 294.8 -3.18302 -2.86126 0
M  V30 3243 C 294.126 -3.22989 -4.26125 0
M  V30 3244 C 295.426 -4.56796 -2.53248 0
M  V30 3245 H 297.12 -2.74201 -1.20226 0
M  V30 3246 H 294.666 -1.31938 -0.576922 0
M  V30 3247 H 296.619 -2.21904 -3.58241 0
M  V30 3248 H 295.343 -1.08172 -3.08166 0
M  V30 3249 H 294.002 -2.98747 -2.12475 0
M  V30 3250 H 293.65 -2.26267 -4.49235 0
M  V30 3251 H 293.35 -4.00781 -4.29708 0
M  V30 3252 H 294.874 -3.44559 -5.04094 0
M  V30 3253 H 296.288 -4.7631 -3.19064 0
M  V30 3254 H 294.685 -5.36862 -2.68141 0
M  V30 3255 H 295.755 -4.61606 -1.48484 0
M  V30 3256 N 297.098 0.621204 -1.44841 0
M  V30 3257 C 298.347 1.37658 -1.47422 0
M  V30 3258 C 298.66 1.95264 -0.114629 0
M  V30 3259 O 299.866 2.71494 -0.0180199 0
M  V30 3260 C 298.322 2.49285 -2.59586 0
M  V30 3261 C 297.93 1.98149 -4.01797 0
M  V30 3262 C 299.674 3.26409 -2.71399 0
M  V30 3263 C 297.581 3.07178 -5.05367 0
M  V30 3264 H 296.511 0.517344 -0.548517 0
M  V30 3265 H 299.162 0.667257 -1.70938 0
M  V30 3266 H 297.544 3.22839 -2.29328 0
M  V30 3267 H 298.718 1.31395 -4.41669 0
M  V30 3268 H 297.033 1.33812 -3.94314 0
M  V30 3269 H 299.63 4.07706 -3.45948 0
M  V30 3270 H 299.973 3.76535 -1.77559 0
M  V30 3271 H 300.506 2.5995 -3.01116 0
M  V30 3272 H 297.245 2.61985 -6.00869 0
M  V30 3273 H 296.765 3.72542 -4.70077 0
M  V30 3274 H 298.444 3.71789 -5.29511 0
M  V30 3275 N 298.576 1.31904 0.862503 0
M  V30 3276 C 299.804 1.24998 1.64873 0
M  V30 3277 C 300.219 -0.183425 1.87907 0
M  V30 3278 O 299.576 -1.11794 1.44251 0
M  V30 3279 C 299.627 1.99829 3.01248 0
M  V30 3280 O 299.348 3.37575 2.79239 0
M  V30 3281 C 300.849 1.99852 3.95694 0
M  V30 3282 H 298.069 0.431599 0.513773 0
M  V30 3283 H 300.613 1.73901 1.07604 0
M  V30 3284 H 298.768 1.54668 3.55185 0
M  V30 3285 H 299.182 3.75776 3.65914 0
M  V30 3286 H 300.656 2.56709 4.88676 0
M  V30 3287 H 301.133 0.982852 4.28062 0
M  V30 3288 H 301.739 2.44926 3.47694 0
M  V30 3289 N 300.054 -1.07777 1.14986 0
M  V30 3290 C 301.279 -1.84558 0.946213 0
M  V30 3291 C 301.704 -1.81323 -0.500362 0
M  V30 3292 O 301.062 -1.20301 -1.35637 0
M  V30 3293 C 301.11 -3.29736 1.45968 0
M  V30 3294 O 300.214 -4.07149 0.65601 0
M  V30 3295 H 299.555 -0.571641 0.33782 0
M  V30 3296 H 302.085 -1.35991 1.52865 0
M  V30 3297 H 302.095 -3.80574 1.47063 0
M  V30 3298 H 300.77 -3.31406 2.51283 0
M  V30 3299 H 299.347 -3.65994 0.714322 0
M  V30 3300 N 301.532 -0.945985 -1.26051 0
M  V30 3301 C 302.778 -0.597002 -1.93814 0
M  V30 3302 C 303.111 0.862484 -1.73997 0
M  V30 3303 O 302.386 1.61769 -1.07986 0
M  V30 3304 C 302.669 -0.945937 -3.47454 0
M  V30 3305 C 302.522 -2.46052 -3.76535 0
M  V30 3306 C 303.841 -0.464785 -4.37639 0
M  V30 3307 H 300.96 -0.218366 -0.703907 0
M  V30 3308 H 303.602 -1.18107 -1.48831 0
M  V30 3309 H 301.752 -0.448902 -3.85898 0
M  V30 3310 H 303.424 -3.03065 -3.47778 0
M  V30 3311 H 301.667 -2.90194 -3.22444 0
M  V30 3312 H 302.338 -2.65517 -4.83947 0
M  V30 3313 H 304.814 -0.891016 -4.06448 0
M  V30 3314 H 303.69 -0.737712 -5.4392 0
M  V30 3315 H 303.951 0.635274 -4.37512 0
M  V30 3316 N 303.011 1.40521 -0.713556 0
M  V30 3317 C 303.921 2.34522 -0.0606667 0
M  V30 3318 C 304.937 1.57193 0.74607 0
M  V30 3319 O 306.113 1.89591 0.679493 0
M  V30 3320 C 303.178 3.36081 0.851491 0
M  V30 3321 C 302.239 4.29286 0.0349339 0
M  V30 3322 C 301.472 5.25994 0.903649 0
M  V30 3323 O 301.695 5.28616 2.14292 0
M  V30 3324 O 300.629 6.00918 0.343723 0
M  V30 3325 H 304.455 2.91968 -0.835972 0
M  V30 3326 H 302.04 1.41681 -0.47402 0
M  V30 3327 H 303.922 3.98369 1.37404 0
M  V30 3328 H 302.597 2.81052 1.60598 0
M  V30 3329 H 301.504 3.70289 -0.532633 0
M  V30 3330 H 302.837 4.87462 -0.681287 0
M  V30 3331 N 304.489 0.459591 1.5075 0
M  V30 3332 C 305.419 -0.330644 2.31147 0
M  V30 3333 C 306.4 -1.00087 1.37538 0
M  V30 3334 O 307.585 -1.00025 1.66459 0
M  V30 3335 C 304.715 -1.41958 3.16962 0
M  V30 3336 C 303.669 -0.871608 4.19031 0
M  V30 3337 C 302.995 -2.05797 4.9351 0
M  V30 3338 C 304.295 0.109251 5.22186 0
M  V30 3339 H 305.989 0.340336 2.97459 0
M  V30 3340 H 303.535 0.165119 1.4305 0
M  V30 3341 H 305.488 -1.9798 3.71997 0
M  V30 3342 H 304.212 -2.11917 2.48513 0
M  V30 3343 H 302.871 -0.333442 3.6508 0
M  V30 3344 H 302.519 -2.74427 4.21544 0
M  V30 3345 H 302.219 -1.6976 5.62544 0
M  V30 3346 H 303.743 -2.62331 5.51375 0
M  V30 3347 H 305.157 -0.361405 5.7216 0
M  V30 3348 H 303.554 0.383316 5.98875 0
M  V30 3349 H 304.624 1.03887 4.73641 0
M  V30 3350 N 305.967 -1.56429 0.191757 0
M  V30 3351 C 306.897 -2.21937 -0.725696 0
M  V30 3352 C 307.878 -1.1814 -1.2238 0
M  V30 3353 O 309.063 -1.46636 -1.27325 0
M  V30 3354 C 306.193 -2.87611 -1.94672 0
M  V30 3355 C 305.147 -3.97623 -1.58366 0
M  V30 3356 C 304.473 -4.50446 -2.88102 0
M  V30 3357 C 305.773 -5.16197 -0.796133 0
M  V30 3358 H 307.467 -2.98861 -0.179606 0
M  V30 3359 H 305.013 -1.43749 -0.0849464 0
M  V30 3360 H 306.966 -3.3212 -2.59373 0
M  V30 3361 H 305.69 -2.08087 -2.51728 0
M  V30 3362 H 304.349 -3.53801 -0.960247 0
M  V30 3363 H 303.997 -3.67688 -3.43241 0
M  V30 3364 H 303.697 -5.24675 -2.64556 0
M  V30 3365 H 305.221 -4.97654 -3.53798 0
M  V30 3366 H 306.635 -5.57271 -1.34618 0
M  V30 3367 H 305.032 -5.96471 -0.658928 0
M  V30 3368 H 306.102 -4.84473 0.203478 0
M  V30 3369 N 307.445 0.0818655 -1.57387 0
M  V30 3370 C 308.355 1.11642 -2.06333 0
M  V30 3371 C 309.371 1.43033 -0.99083 0
M  V30 3372 O 310.547 1.53411 -1.30488 0
M  V30 3373 C 307.612 2.41342 -2.48907 0
M  V30 3374 C 306.673 2.17014 -3.7041 0
M  V30 3375 C 305.906 3.4053 -4.10944 0
M  V30 3376 O 306.129 4.4927 -3.51444 0
M  V30 3377 O 305.063 3.29336 -5.03807 0
M  V30 3378 H 308.889 0.730657 -2.9478 0
M  V30 3379 H 306.474 0.295301 -1.46452 0
M  V30 3380 H 308.356 3.17691 -2.76858 0
M  V30 3381 H 307.031 2.79319 -1.63593 0
M  V30 3382 H 305.938 1.38403 -3.47556 0
M  V30 3383 H 307.271 1.83923 -4.56545 0
M  V30 3384 N 308.923 1.53595 0.353017 0
M  V30 3385 C 310.148 1.7462 1.11904 0
M  V30 3386 C 310.573 0.479721 1.8188 0
M  V30 3387 O 309.931 -0.567066 1.72204 0
M  V30 3388 C 309.979 2.92029 2.11545 0
M  V30 3389 O 309.083 2.61516 3.18878 0
M  V30 3390 H 308.424 0.579531 0.324099 0
M  V30 3391 H 310.954 2.00525 0.406301 0
M  V30 3392 H 310.964 3.18551 2.5493 0
M  V30 3393 H 309.639 3.83888 1.60008 0
M  V30 3394 H 308.216 2.45852 2.80377 0
M  V30 3395 N 310.401 -0.613514 1.45168 0
M  V30 3396 C 311.348 -1.72456 1.53387 0
M  V30 3397 C 312.318 -1.6169 0.380191 0
M  V30 3398 O 313.503 -1.81356 0.592836 0
M  V30 3399 C 310.643 -3.10753 1.50088 0
M  V30 3400 C 309.756 -3.32368 2.75963 0
M  V30 3401 C 308.891 -4.60737 2.64376 0
M  V30 3402 C 307.93 -4.7559 3.85332 0
M  V30 3403 N 307.067 -5.95253 3.72315 0
M  V30 3404 H 311.907 -1.64768 2.48305 0
M  V30 3405 H 309.444 -0.803503 1.23216 0
M  V30 3406 H 311.402 -3.90758 1.46164 0
M  V30 3407 H 310.032 -3.17413 0.587243 0
M  V30 3408 H 309.084 -2.4618 2.89999 0
M  V30 3409 H 310.396 -3.39218 3.65695 0
M  V30 3410 H 309.55 -5.48928 2.58385 0
M  V30 3411 H 308.289 -4.56275 1.72233 0
M  V30 3412 H 307.294 -3.85824 3.91688 0
M  V30 3413 H 308.519 -4.81854 4.78533 0
M  V30 3414 H 306.465 -5.91847 2.82937 0
M  V30 3415 H 306.382 -6.03236 4.55677 0
M  V30 3416 H 307.65 -6.85958 3.70246 0
M  V30 3417 N 311.879 -1.3236 -0.855495 0
M  V30 3418 C 312.809 -1.23833 -1.97958 0
M  V30 3419 C 313.79 -0.122361 -1.69659 0
M  V30 3420 O 314.975 -0.30939 -1.9172 0
M  V30 3421 C 312.105 -0.959772 -3.33775 0
M  V30 3422 C 311.059 -2.03689 -3.76424 0
M  V30 3423 C 310.385 -1.61075 -5.09862 0
M  V30 3424 C 311.685 -3.4518 -3.9198 0
M  V30 3425 H 313.379 -2.1788 -2.0535 0
M  V30 3426 H 310.925 -1.04891 -0.986605 0
M  V30 3427 H 312.878 -0.886678 -4.11966 0
M  V30 3428 H 311.602 0.0163404 -3.26596 0
M  V30 3429 H 310.261 -2.10012 -3.00484 0
M  V30 3430 H 309.909 -0.622107 -4.99138 0
M  V30 3431 H 309.609 -2.33143 -5.39368 0
M  V30 3432 H 311.133 -1.55201 -5.90546 0
M  V30 3433 H 312.547 -3.4145 -4.60526 0
M  V30 3434 H 310.944 -4.1559 -4.32903 0
M  V30 3435 H 312.014 -3.84903 -2.94919 0
M  V30 3436 N 313.357 1.07166 -1.15556 0
M  V30 3437 C 314.304 2.14417 -0.854055 0
M  V30 3438 C 315.274 1.64965 0.193806 0
M  V30 3439 O 316.459 1.90703 0.0609443 0
M  V30 3440 C 313.599 3.43304 -0.351574 0
M  V30 3441 C 312.712 4.06537 -1.46123 0
M  V30 3442 C 311.847 5.23266 -0.914677 0
M  V30 3443 C 310.886 5.78464 -2.00114 0
M  V30 3444 N 310.023 6.86521 -1.47083 0
M  V30 3445 H 314.863 2.39548 -1.77259 0
M  V30 3446 H 312.4 1.17543 -0.884425 0
M  V30 3447 H 314.358 4.17179 -0.0419409 0
M  V30 3448 H 312.988 3.18419 0.530037 0
M  V30 3449 H 312.04 3.30297 -1.88701 0
M  V30 3450 H 313.352 4.43567 -2.28144 0
M  V30 3451 H 312.506 6.04131 -0.557698 0
M  V30 3452 H 311.245 4.87658 -0.0636583 0
M  V30 3453 H 310.25 4.96243 -2.36692 0
M  V30 3454 H 311.475 6.16126 -2.85597 0
M  V30 3455 H 309.421 6.52849 -0.642198 0
M  V30 3456 H 309.338 7.22446 -2.22729 0
M  V30 3457 H 310.606 7.71087 -1.14215 0
M  V30 3458 N 314.835 0.952656 1.25548 0
M  V30 3459 C 316.063 0.623496 1.97282 0
M  V30 3460 C 316.478 -0.803987 1.70826 0
M  V30 3461 O 315.835 -1.53755 0.983147 0
M  V30 3462 C 315.886 0.870209 3.5087 0
M  V30 3463 O 315.607 2.24156 3.76412 0
M  V30 3464 C 317.108 0.553164 4.39835 0
M  V30 3465 H 314.328 0.233931 0.628902 0
M  V30 3466 H 316.872 1.27649 1.59768 0
M  V30 3467 H 315.027 0.263652 3.86502 0
M  V30 3468 H 315.441 2.31021 4.70882 0
M  V30 3469 H 316.915 0.776342 5.46513 0
M  V30 3470 H 317.392 -0.512215 4.36203 0
M  V30 3471 H 317.998 1.13896 4.09766 0
M  V30 3472 N 316.313 -1.40141 0.720998 0
M  V30 3473 C 317.276 -2.29058 0.0805834 0
M  V30 3474 C 318.276 -1.45632 -0.681758 0
M  V30 3475 O 319.466 -1.6648 -0.512856 0
M  V30 3476 C 316.598 -3.28925 -0.895593 0
M  V30 3477 H 317.791 -2.87191 0.863793 0
M  V30 3478 H 315.344 -1.48553 0.485975 0
M  V30 3479 H 316.079 -2.75822 -1.70566 0
M  V30 3480 H 315.864 -3.90519 -0.351766 0
M  V30 3481 H 317.354 -3.95494 -1.34069 0
M  V30 3482 N 317.792 -0.46758 -1.50504 0
M  V30 3483 C 318.722 0.318381 -2.31319 0
M  V30 3484 C 319.703 0.993564 -1.38066 0
M  V30 3485 O 320.888 0.991411 -1.66987 0
M  V30 3486 C 318.018 1.40275 -3.17711 0
M  V30 3487 C 316.972 0.849373 -4.19487 0
M  V30 3488 C 316.298 2.03177 -4.94594 0
M  V30 3489 C 317.598 -0.136942 -5.2212 0
M  V30 3490 H 319.292 -0.356106 -2.97275 0
M  V30 3491 H 316.838 -0.172703 -1.42961 0
M  V30 3492 H 318.791 1.96004 -3.73042 0
M  V30 3493 H 317.515 2.10596 -2.49634 0
M  V30 3494 H 316.174 0.314076 -3.65252 0
M  V30 3495 H 315.822 2.72187 -4.22993 0
M  V30 3496 H 315.522 1.66774 -5.63436 0
M  V30 3497 H 317.046 2.59403 -5.52759 0
M  V30 3498 H 318.46 0.331056 -5.72343 0
M  V30 3499 H 316.857 -0.41507 -5.98663 0
M  V30 3500 H 317.927 -1.06398 -4.73083 0
M  V30 3501 N 319.27 1.56325 -0.20005 0
M  V30 3502 C 320.2 2.22318 0.713916 0
M  V30 3503 C 321.181 1.18788 1.21752 0
M  V30 3504 O 322.366 1.47309 1.26545 0
M  V30 3505 C 319.496 2.88639 1.93144 0
M  V30 3506 C 318.45 3.98457 1.56255 0
M  V30 3507 C 317.776 4.51967 2.85709 0
M  V30 3508 C 319.076 5.16612 0.768747 0
M  V30 3509 H 320.77 2.98952 0.163755 0
M  V30 3510 H 318.316 1.43792 0.0773219 0
M  V30 3511 H 320.269 3.33491 2.57608 0
M  V30 3512 H 318.993 2.09419 2.50621 0
M  V30 3513 H 317.652 3.54305 0.941471 0
M  V30 3514 H 317.3 3.69503 3.41287 0
M  V30 3515 H 317 5.26071 2.6177 0
M  V30 3516 H 318.524 4.99523 3.51154 0
M  V30 3517 H 319.938 5.57977 1.3166 0
M  V30 3518 H 318.335 5.96812 0.627286 0
M  V30 3519 H 319.405 4.84358 -0.229168 0
M  V30 3520 N 320.748 -0.0735177 1.57428 0
M  V30 3521 C 322.025 -0.805903 1.78226 0
M  V30 3522 C 322.405 -1.95874 0.787189 0
M  V30 3523 O 321.753 -2.2779 -0.180029 0
M  V30 3524 C 321.963 -1.28045 3.24662 0
M  V30 3525 C 323.311 -1.71453 3.88444 0
M  V30 3526 O 324.335 -1.37616 3.28543 0
M  V30 3527 O 323.194 -2.34093 4.93825 0
M  V30 3528 H 320.288 -0.386041 0.73137 0
M  V30 3529 H 322.834 -0.0537269 1.69615 0
M  V30 3530 H 321.606 -0.455476 3.8864 0
M  V30 3531 H 321.229 -2.094 3.37991 0
M  V30 3532 N 322.226 -1.5378 -0.344866 0
M  V30 3533 C 323.475 -1.7018 -1.08267 0
M  V30 3534 C 323.788 -0.471 -1.89845 0
M  V30 3535 O 324.994 -0.515917 -2.66553 0
M  V30 3536 C 323.45 -3.00923 -1.97417 0
M  V30 3537 C 323.058 -4.31335 -1.21053 0
M  V30 3538 C 324.802 -3.26688 -2.71063 0
M  V30 3539 C 322.709 -5.53153 -2.09225 0
M  V30 3540 H 321.639 -0.634138 -0.407903 0
M  V30 3541 H 324.29 -1.8028 -0.342246 0
M  V30 3542 H 322.672 -2.84676 -2.75274 0
M  V30 3543 H 323.846 -4.58281 -0.481159 0
M  V30 3544 H 322.161 -4.12173 -0.591813 0
M  V30 3545 H 324.758 -4.1489 -3.37299 0
M  V30 3546 H 325.101 -2.43639 -3.37558 0
M  V30 3547 H 325.634 -3.43705 -2.0028 0
M  V30 3548 H 322.373 -6.38741 -1.47274 0
M  V30 3549 H 321.893 -5.30458 -2.79955 0
M  V30 3550 H 323.572 -5.88744 -2.68308 0
M  V30 3551 N 323.704 0.605807 -1.45491 0
M  V30 3552 C 324.929 1.39625 -1.53361 0
M  V30 3553 C 325.354 1.87351 -0.167645 0
M  V30 3554 O 324.712 1.60243 0.848051 0
M  V30 3555 C 324.76 2.57559 -2.5238 0
M  V30 3556 O 323.864 3.58248 -2.04285 0
M  V30 3557 H 323.205 0.416771 -0.516912 0
M  V30 3558 H 325.735 0.737103 -1.90861 0
M  V30 3559 H 325.745 3.0478 -2.71244 0
M  V30 3560 H 324.42 2.22171 -3.51586 0
M  V30 3561 H 322.997 3.17664 -1.95305 0
M  V30 3562 N 325.182 1.32811 0.848464 0
M  V30 3563 C 326.422 1.25046 1.61687 0
M  V30 3564 C 326.786 -0.183464 1.91121 0
M  V30 3565 O 327.987 -0.384937 2.66029 0
M  V30 3566 C 326.258 2.09201 2.89775 0
M  V30 3567 S 327.817 2.18526 3.80515 0
M  V30 3568 H 324.635 0.445023 0.554505 0
M  V30 3569 H 327.237 1.67733 1.00429 0
M  V30 3570 H 325.941 3.12433 2.66108 0
M  V30 3571 H 325.472 1.67315 3.56047 0
M  V30 3572 H 327.487 1.3393 4.77784 0
M  V30 3573 N 326.66 -1.06551 1.16123 0
M  V30 3574 C 327.906 -1.79567 0.94252 0
M  V30 3575 C 328.239 -1.86869 -0.528547 0
M  V30 3576 O 327.514 -1.35838 -1.39206 0
M  V30 3577 C 327.797 -3.24195 1.56747 0
M  V30 3578 C 327.65 -3.24989 3.10969 0
M  V30 3579 C 328.969 -4.21678 1.25998 0
M  V30 3580 H 326.088 -0.651883 0.343828 0
M  V30 3581 H 328.73 -1.2463 1.43413 0
M  V30 3582 H 326.88 -3.71107 1.14942 0
M  V30 3583 H 328.552 -2.86258 3.61737 0
M  V30 3584 H 326.795 -2.63716 3.44436 0
M  V30 3585 H 327.466 -4.27005 3.49815 0
M  V30 3586 H 329.942 -3.83196 1.62174 0
M  V30 3587 H 328.818 -5.21146 1.7233 0
M  V30 3588 H 329.079 -4.4174 0.178367 0
M  V30 3589 N 328.138 -0.959301 -1.25041 0
M  V30 3590 C 329.085 -0.482057 -2.2571 0
M  V30 3591 C 330.055 0.467939 -1.59372 0
M  V30 3592 O 331.24 0.380159 -1.86974 0
M  V30 3593 C 328.38 0.229623 -3.44335 0
M  V30 3594 C 327.493 -0.758156 -4.25295 0
M  V30 3595 C 326.628 -0.0234403 -5.31195 0
M  V30 3596 C 325.667 -1.00184 -6.03846 0
M  V30 3597 N 324.804 -0.29769 -7.01469 0
M  V30 3598 H 329.644 -1.34538 -2.65901 0
M  V30 3599 H 327.181 -0.674592 -1.3072 0
M  V30 3600 H 329.139 0.658856 -4.11965 0
M  V30 3601 H 327.769 1.05696 -3.05005 0
M  V30 3602 H 326.821 -1.30586 -3.57284 0
M  V30 3603 H 328.133 -1.50458 -4.75567 0
M  V30 3604 H 327.287 0.464201 -6.04922 0
M  V30 3605 H 326.026 0.755741 -4.81809 0
M  V30 3606 H 325.031 -1.50044 -5.2893 0
M  V30 3607 H 326.256 -1.78133 -6.55321 0
M  V30 3608 H 324.202 0.462668 -6.54366 0
M  V30 3609 H 324.119 -0.983128 -7.4958 0
M  V30 3610 H 325.387 0.16826 -7.79318 0
M  V30 3611 N 329.616 1.39756 -0.72842 0
M  V30 3612 C 330.566 2.2792 -0.0603424 0
M  V30 3613 C 331.55 1.43922 0.719399 0
M  V30 3614 O 332.742 1.66895 0.589489 0
M  V30 3615 C 329.871 3.32582 0.851104 0
M  V30 3616 C 328.957 4.24049 0.0658641 0
M  V30 3617 N 329.348 4.96653 -0.957578 0
M  V30 3618 C 327.646 4.45013 0.296509 0
M  V30 3619 C 328.347 5.63836 -1.43052 0
M  V30 3620 N 327.323 5.38397 -0.750315 0
M  V30 3621 H 331.125 2.81504 -0.84455 0
M  V30 3622 H 328.639 1.5236 -0.562155 0
M  V30 3623 H 330.636 3.94603 1.34514 0
M  V30 3624 H 329.296 2.80558 1.63454 0
M  V30 3625 H 330.307 5.00297 -1.33877 0
M  V30 3626 H 326.984 4.03943 1.05527 0
M  V30 3627 H 328.374 6.31974 -2.28163 0
M  V30 3628 N 331.094 0.475555 1.50254 0
M  V30 3629 C 332.343 -0.0795996 2.01543 0
M  V30 3630 C 332.656 -1.4038 1.36209 0
M  V30 3631 O 333.862 -2.04415 1.7868 0
M  V30 3632 C 332.318 -0.192363 3.59386 0
M  V30 3633 C 331.926 1.12367 4.33679 0
M  V30 3634 C 333.67 -0.699238 4.18701 0
M  V30 3635 C 331.577 0.974453 5.83317 0
M  V30 3636 H 330.507 -0.0335228 0.753254 0
M  V30 3637 H 333.158 0.611128 1.73025 0
M  V30 3638 H 331.54 -0.946974 3.84511 0
M  V30 3639 H 332.714 1.88958 4.20276 0
M  V30 3640 H 331.029 1.562 3.85993 0
M  V30 3641 H 333.626 -0.827978 5.28251 0
M  V30 3642 H 333.969 -1.69171 3.80377 0
M  V30 3643 H 334.502 -0.00188807 3.978 0
M  V30 3644 H 331.241 1.94042 6.26121 0
M  V30 3645 H 330.761 0.248998 5.99283 0
M  V30 3646 H 332.44 0.642867 6.43798 0
M  V30 3647 N 332.573 -1.56217 0.208337 0
M  V30 3648 C 333.822 -1.97124 -0.427204 0
M  V30 3649 C 334.135 -1.09859 -1.61835 0
M  V30 3650 O 335.341 -1.40606 -2.32255 0
M  V30 3651 C 333.797 -3.50633 -0.811442 0
M  V30 3652 C 333.405 -4.46582 0.35615 0
M  V30 3653 C 335.149 -4.00282 -1.41332 0
M  V30 3654 C 333.056 -5.91379 -0.0497852 0
M  V30 3655 H 331.986 -0.736086 -0.163381 0
M  V30 3656 H 334.637 -1.8099 0.302456 0
M  V30 3657 H 333.019 -3.62319 -1.59815 0
M  V30 3658 H 334.193 -4.46636 1.1337 0
M  V30 3659 H 332.508 -4.07202 0.870396 0
M  V30 3660 H 335.105 -5.0595 -1.72972 0
M  V30 3661 H 335.448 -3.45359 -2.32449 0
M  V30 3662 H 335.981 -3.91764 -0.690323 0
M  V30 3663 H 332.72 -6.50255 0.827529 0
M  V30 3664 H 332.24 -5.94549 -0.791926 0
M  V30 3665 H 333.919 -6.45209 -0.481042 0
M  V30 3666 N 334.051 0.0651679 -1.57465 0
M  V30 3667 C 335.281 0.774683 -1.91526 0
M  V30 3668 C 335.689 1.71305 -0.803196 0
M  V30 3669 O 335.032 1.82231 0.231881 0
M  V30 3670 C 335.094 1.61645 -3.21109 0
M  V30 3671 C 334.758 0.846753 -4.49087 0
M  V30 3672 C 335.755 0.163024 -5.19644 0
M  V30 3673 C 333.44 0.811966 -4.95694 0
M  V30 3674 C 335.434 -0.54519 -6.35064 0
M  V30 3675 C 333.121 0.0999836 -6.11018 0
M  V30 3676 C 334.119 -0.577388 -6.80555 0
M  V30 3677 O 333.807 -1.27789 -7.93678 0
M  V30 3678 H 333.539 0.225031 -0.637446 0
M  V30 3679 H 336.093 0.0377134 -2.05365 0
M  V30 3680 H 334.323 2.39638 -3.03497 0
M  V30 3681 H 336.012 2.20525 -3.40769 0
M  V30 3682 H 336.778 0.181163 -4.84662 0
M  V30 3683 H 332.657 1.32867 -4.41438 0
M  V30 3684 H 336.201 -1.07446 -6.89276 0
M  V30 3685 H 332.098 0.0797945 -6.45451 0
M  V30 3686 H 332.866 -1.18784 -8.09835 0
M  V30 3687 N 335.529 1.53961 0.336706 0
M  V30 3688 C 336.775 1.7179 1.07777 0
M  V30 3689 C 337.108 0.483263 1.88091 0
M  V30 3690 O 336.383 -0.519747 1.87427 0
M  V30 3691 C 336.666 2.98558 2.01334 0
M  V30 3692 C 336.519 4.32245 1.24437 0
M  V30 3693 C 337.838 3.21023 3.01052 0
M  V30 3694 H 334.957 0.625089 0.390426 0
M  V30 3695 H 337.599 1.86641 0.35567 0
M  V30 3696 H 335.749 2.86028 2.62908 0
M  V30 3697 H 337.421 4.56637 0.654243 0
M  V30 3698 H 335.664 4.30344 0.546458 0
M  V30 3699 H 336.335 5.17137 1.93063 0
M  V30 3700 H 338.811 3.32929 2.49595 0
M  V30 3701 H 337.687 4.11104 3.6371 0
M  V30 3702 H 337.948 2.37637 3.72802 0
M  V30 3703 N 337.007 -0.598083 1.45811 0
M  V30 3704 C 338.284 -1.35777 1.40797 0
M  V30 3705 C 338.664 -2.10935 0.083462 0
M  V30 3706 O 338.012 -2.08505 -0.934763 0
M  V30 3707 C 338.222 -2.29666 2.62783 0
M  V30 3708 C 339.57 -2.91977 3.08277 0
M  V30 3709 O 340.594 -2.39984 2.63223 0
M  V30 3710 O 339.453 -3.86376 3.86491 0
M  V30 3711 H 336.547 -0.609291 0.55919 0
M  V30 3712 H 339.093 -0.620379 1.57954 0
M  V30 3713 H 337.865 -1.73454 3.50756 0
M  V30 3714 H 337.488 -3.1077 2.48008 0
M  V30 3715 N 338.485 -1.33259 -0.841409 0
M  V30 3716 C 339.433 -1.23279 -1.97244 0
M  V30 3717 C 340.427 -0.134706 -1.68864 0
M  V30 3718 O 341.633 -0.298501 -1.77508 0
M  V30 3719 H 338.008 -0.382497 -0.647457 0
M  V30 3720 H 339.979 -2.18906 -2.02787 0
M  V30 3721 C 338.728 -0.986268 -3.33419 0
M  V30 3722 H 338.051 -1.82347 -3.55794 0
M  V30 3723 H 339.491 -0.956728 -4.13065 0
M  V30 3724 C 337.95 0.310842 -3.35463 0
M  V30 3725 O 338.48 1.31838 -3.79449 0
M  V30 3726 N 336.686 0.337485 -2.88634 0
M  V30 3727 H 336.233 -0.482967 -2.53032 0
M  V30 3728 H 336.191 1.20518 -2.90384 0
M  V30 3729 N 339.963 1.05934 -1.16686 0
M  V30 3730 C 340.91 2.13499 -0.876748 0
M  V30 3731 C 341.88 1.65162 0.176299 0
M  V30 3732 O 343.065 1.90757 0.0407143 0
M  V30 3733 C 340.205 3.42912 -0.387967 0
M  V30 3734 C 339.318 4.04964 -1.50426 0
M  V30 3735 C 338.453 5.22266 -0.970125 0
M  V30 3736 C 337.492 5.76309 -2.06238 0
M  V30 3737 N 336.629 6.84922 -1.54356 0
M  V30 3738 H 341.469 2.37654 -1.7979 0
M  V30 3739 H 339.006 1.16598 -0.896843 0
M  V30 3740 H 340.964 4.17111 -0.086186 0
M  V30 3741 H 339.594 3.18963 0.496235 0
M  V30 3742 H 338.646 3.28277 -1.92193 0
M  V30 3743 H 339.958 4.41122 -2.32836 0
M  V30 3744 H 339.112 6.03506 -0.621743 0
M  V30 3745 H 337.851 4.87564 -0.115377 0
M  V30 3746 H 336.856 4.93704 -2.41942 0
M  V30 3747 H 338.081 6.13062 -2.92115 0
M  V30 3748 H 336.027 6.52131 -0.711406 0
M  V30 3749 H 335.944 7.20043 -2.30379 0
M  V30 3750 H 337.212 7.69832 -1.22387 0
M  V30 3751 N 341.441 0.965919 1.2453 0
M  V30 3752 C 342.404 0.499547 2.2369 0
M  V30 3753 C 343.404 -0.40294 1.5567 0
M  V30 3754 O 344.594 -0.19865 1.73064 0
M  V30 3755 C 341.726 -0.276792 3.39774 0
M  V30 3756 H 342.919 1.37613 2.66463 0
M  V30 3757 H 340.472 0.750324 1.37112 0
M  V30 3758 H 341.207 -1.17055 3.02438 0
M  V30 3759 H 340.992 0.370826 3.90343 0
M  V30 3760 H 342.482 -0.592175 4.1338 0
M  V30 3761 N 342.919 -1.39368 0.735821 0
M  V30 3762 C 344.168 -1.99733 0.281004 0
M  V30 3763 C 344.481 -1.59055 -1.13846 0
M  V30 3764 O 345.687 -2.12262 -1.69284 0
M  V30 3765 C 344.143 -3.57057 0.451462 0
M  V30 3766 C 343.751 -4.06697 1.87886 0
M  V30 3767 C 345.495 -4.2446 0.0584616 0
M  V30 3768 C 343.402 -5.56598 1.99883 0
M  V30 3769 H 342.332 -0.747163 0.101311 0
M  V30 3770 H 344.983 -1.59357 0.909819 0
M  V30 3771 H 343.365 -3.95234 -0.246263 0
M  V30 3772 H 344.539 -3.79853 2.60861 0
M  V30 3773 H 342.854 -3.5196 2.22515 0
M  V30 3774 H 345.451 -5.34549 0.127099 0
M  V30 3775 H 345.794 -4.04444 -0.986433 0
M  V30 3776 H 346.327 -3.9146 0.707374 0
M  V30 3777 H 343.066 -5.81494 3.02564 0
M  V30 3778 H 342.586 -5.85242 1.31346 0
M  V30 3779 H 344.265 -6.22022 1.78039 0
M  V30 3780 N 344.397 -0.483516 -1.5 0
M  V30 3781 C 345.345 0.318061 -2.30415 0
M  V30 3782 C 346.339 0.978988 -1.38247 0
M  V30 3783 O 347.545 0.908673 -1.55381 0
M  V30 3784 H 343.92 0.121419 -0.742133 0
M  V30 3785 H 345.891 -0.380403 -2.95965 0
M  V30 3786 C 344.64 1.38013 -3.19136 0
M  V30 3787 H 343.963 0.880952 -3.89973 0
M  V30 3788 H 345.403 1.91332 -3.78375 0
M  V30 3789 C 343.862 2.38884 -2.37563 0
M  V30 3790 O 344.392 3.44412 -2.06744 0
M  V30 3791 N 342.598 2.10912 -1.99911 0
M  V30 3792 H 342.145 1.25118 -2.25174 0
M  V30 3793 H 342.103 2.78635 -1.45636 0
M  V30 3794 N 345.875 1.56104 -0.216619 0
M  V30 3795 C 346.822 2.2007 0.695531 0
M  V30 3796 C 347.792 1.15471 1.19397 0
M  V30 3797 O 348.977 1.43807 1.25396 0
M  V30 3798 C 346.117 2.88073 1.90021 0
M  V30 3799 C 345.23 4.07253 1.44113 0
M  V30 3800 C 344.365 4.63052 2.603 0
M  V30 3801 C 343.404 5.74545 2.11103 0
M  V30 3802 N 342.541 6.24656 3.20545 0
M  V30 3803 H 347.381 2.97655 0.143327 0
M  V30 3804 H 344.918 1.46982 0.0589934 0
M  V30 3805 H 346.876 3.25681 2.60745 0
M  V30 3806 H 345.506 2.13015 2.42538 0
M  V30 3807 H 344.558 3.75164 0.628999 0
M  V30 3808 H 345.87 4.8783 1.04036 0
M  V30 3809 H 345.024 5.03078 3.39113 0
M  V30 3810 H 343.763 3.81628 3.03663 0
M  V30 3811 H 342.768 5.34027 1.3075 0
M  V30 3812 H 343.993 6.57801 1.68746 0
M  V30 3813 H 341.939 5.46148 3.63399 0
M  V30 3814 H 341.856 7.00343 2.84704 0
M  V30 3815 H 343.124 6.69338 3.99508 0
M  V30 3816 N 347.353 -0.0568162 1.57498 0
M  V30 3817 C 348.316 -1.05038 2.03715 0
M  V30 3818 C 349.316 -1.30709 0.936577 0
M  V30 3819 O 350.506 -1.26178 1.20103 0
M  V30 3820 C 347.638 -2.39034 2.43055 0
M  V30 3821 H 348.831 -0.651715 2.92733 0
M  V30 3822 H 346.384 -0.302947 1.53336 0
M  V30 3823 H 347.119 -2.83703 1.57108 0
M  V30 3824 H 346.904 -2.21739 3.2338 0
M  V30 3825 H 348.394 -3.10421 2.79336 0
M  V30 3826 N 348.832 -1.54138 -0.328536 0
M  V30 3827 C 349.742 -1.86192 -1.42723 0
M  V30 3828 C 350.758 -0.753382 -1.56844 0
M  V30 3829 O 351.934 -1.04718 -1.72035 0
M  V30 3830 C 348.999 -2.07824 -2.77507 0
M  V30 3831 C 348.06 -3.31641 -2.72603 0
M  V30 3832 C 347.293 -3.52232 -4.00959 0
M  V30 3833 O 347.516 -2.7636 -4.9898 0
M  V30 3834 O 346.45 -4.45699 -4.0452 0
M  V30 3835 H 350.276 -2.79608 -1.18547 0
M  V30 3836 H 347.861 -1.3998 -0.522104 0
M  V30 3837 H 349.743 -2.23411 -3.57303 0
M  V30 3838 H 348.418 -1.17596 -3.01584 0
M  V30 3839 H 347.325 -3.21444 -1.91376 0
M  V30 3840 H 348.658 -4.2191 -2.53481 0
M  V30 3841 N 350.31 0.590341 -1.46126 0
M  V30 3842 C 351.54 1.37304 -1.54373 0
M  V30 3843 C 351.948 1.88332 -0.181071 0
M  V30 3844 O 351.291 1.63852 0.830559 0
M  V30 3845 C 351.353 2.6012 -2.48149 0
M  V30 3846 C 351.017 2.30613 -3.94546 0
M  V30 3847 C 352.014 1.89915 -4.83971 0
M  V30 3848 C 349.699 2.42993 -4.39613 0
M  V30 3849 C 351.693 1.61981 -6.16475 0
M  V30 3850 C 349.38 2.14672 -5.72153 0
M  V30 3851 C 350.378 1.7423 -6.60404 0
M  V30 3852 O 350.066 1.46251 -7.90485 0
M  V30 3853 H 349.798 0.426086 -0.524811 0
M  V30 3854 H 352.352 0.72539 -1.92165 0
M  V30 3855 H 350.582 3.27664 -2.05361 0
M  V30 3856 H 352.271 3.22182 -2.46887 0
M  V30 3857 H 353.037 1.79872 -4.50412 0
M  V30 3858 H 348.916 2.73435 -3.71153 0
M  V30 3859 H 352.46 1.30341 -6.85315 0
M  V30 3860 H 348.357 2.24337 -6.05263 0
M  V30 3861 H 349.125 1.6016 -8.02677 0
M  V30 3862 N 351.788 1.33704 0.83433 0
M  V30 3863 C 353.199 1.22813 1.4062 0
M  V30 3864 C 353.55 -0.151107 1.95617 0
M  V30 3865 O 352.675 -1.05092 1.89168 0
M  V30 3866 C 353.27 2.22355 2.55624 0
M  V30 3867 C 351.829 2.1529 3.08751 0
M  V30 3868 C 350.976 2.09589 1.8157 0
M  V30 3869 H 353.927 1.45236 0.639702 0
M  V30 3870 H 353.948 1.83391 3.33389 0
M  V30 3871 H 353.46 3.22728 2.15566 0
M  V30 3872 H 351.561 1.18235 3.53343 0
M  V30 3873 H 351.674 3.06038 3.68616 0
M  V30 3874 H 350.038 1.55134 2.02004 0
M  V30 3875 H 350.821 3.11777 1.43701 0
M  V30 3876 N 353.266 -1.05314 1.17247 0
M  V30 3877 C 354.176 -2.16538 0.90268 0
M  V30 3878 C 355.192 -1.73523 -0.128707 0
M  V30 3879 O 356.368 -2.01337 0.0502701 0
M  V30 3880 C 353.433 -3.44167 0.418356 0
M  V30 3881 C 352.494 -4.01635 1.51618 0
M  V30 3882 C 351.727 -5.23171 1.05487 0
M  V30 3883 O 351.95 -5.70327 -0.0914715 0
M  V30 3884 O 350.884 -5.72848 1.8474 0
M  V30 3885 H 354.71 -2.42145 1.83302 0
M  V30 3886 H 352.295 -1.15037 0.953246 0
M  V30 3887 H 354.177 -4.21112 0.155726 0
M  V30 3888 H 352.852 -3.20063 -0.48385 0
M  V30 3889 H 351.759 -3.26135 1.83268 0
M  V30 3890 H 353.092 -4.30053 2.39405 0
M  V30 3891 N 354.744 -0.972509 -1.24016 0
M  V30 3892 C 355.992 -0.635776 -1.91839 0
M  V30 3893 C 356.313 0.832312 -1.76345 0
M  V30 3894 O 355.583 1.5946 -1.13795 0
M  V30 3895 H 354.163 -0.232157 -0.710009 0
M  V30 3896 H 356.825 -1.23462 -1.50809 0
M  V30 3897 H 355.921 -0.880545 -2.99421 0
M  V30 3898 N 356.222 1.38976 -0.743202 0
M  V30 3899 C 357.469 2.00343 -0.294752 0
M  V30 3900 C 357.797 1.58983 1.12047 0
M  V30 3901 O 357.052 0.813809 1.77977 0
M  V30 3902 C 357.351 3.55647 -0.353517 0
M  V30 3903 C 357.017 4.16685 -1.72292 0
M  V30 3904 C 355.679 4.3307 -2.09771 0
M  V30 3905 C 358.031 4.50464 -2.62168 0
M  V30 3906 C 355.359 4.80526 -3.36618 0
M  V30 3907 C 357.711 4.99332 -3.88395 0
M  V30 3908 C 356.375 5.13924 -4.25956 0
M  V30 3909 H 355.645 0.733108 -0.107857 0
M  V30 3910 H 358.292 1.6618 -0.951651 0
M  V30 3911 H 356.597 3.89884 0.386954 0
M  V30 3912 H 358.294 4.00998 0.0117269 0
M  V30 3913 H 354.884 4.04339 -1.42155 0
M  V30 3914 H 359.068 4.37416 -2.3448 0
M  V30 3915 H 354.324 4.90008 -3.65653 0
M  V30 3916 H 358.498 5.2444 -4.58187 0
M  V30 3917 H 356.125 5.50457 -5.2431 0
M  V30 3918 N 357.7 0.491464 1.49741 0
M  V30 3919 C 358.61 -0.296835 2.32715 0
M  V30 3920 C 359.626 -0.976536 1.44013 0
M  V30 3921 O 360.802 -0.960023 1.77047 0
M  V30 3922 C 357.867 -1.35288 3.19215 0
M  V30 3923 C 356.928 -0.687632 4.23757 0
M  V30 3924 C 356.161 -1.69336 5.06123 0
M  V30 3925 O 356.384 -2.92219 4.89861 0
M  V30 3926 O 355.318 -1.25394 5.88693 0
M  V30 3927 H 359.144 0.382048 3.01287 0
M  V30 3928 H 356.729 0.252953 1.47243 0
M  V30 3929 H 358.611 -1.96411 3.72828 0
M  V30 3930 H 357.286 -2.01487 2.53347 0
M  V30 3931 H 356.193 -0.0369159 3.74082 0
M  V30 3932 H 357.526 -0.0682566 4.92153 0
M  V30 3933 N 359.178 -1.55987 0.224894 0
M  V30 3934 C 360.427 -1.97566 -0.406273 0
M  V30 3935 C 360.74 -1.11569 -1.6066 0
M  V30 3936 O 361.946 -1.43062 -2.3075 0
M  V30 3937 C 360.402 -3.51474 -0.774207 0
M  V30 3938 C 360.01 -4.46179 0.403496 0
M  V30 3939 C 361.754 -4.01758 -1.37079 0
M  V30 3940 C 359.661 -5.91399 0.0129412 0
M  V30 3941 H 358.591 -0.737777 -0.155565 0
M  V30 3942 H 361.242 -1.80659 0.321635 0
M  V30 3943 H 359.624 -3.63994 -1.55963 0
M  V30 3944 H 360.798 -4.45409 1.18101 0
M  V30 3945 H 359.113 -4.06255 0.913536 0
M  V30 3946 H 361.71 -5.07756 -1.67596 0
M  V30 3947 H 362.053 -3.47805 -2.28773 0
M  V30 3948 H 362.586 -3.92475 -0.648733 0
M  V30 3949 H 359.325 -6.49341 0.896451 0
M  V30 3950 H 358.845 -5.95356 -0.728821 0
M  V30 3951 H 360.524 -6.45683 -0.412582 0
M  V30 3952 N 360.656 0.0484629 -1.57525 0
M  V30 3953 C 361.606 1.06246 -2.01732 0
M  V30 3954 C 362.59 1.33155 -0.903245 0
M  V30 3955 O 363.782 1.33065 -1.16717 0
M  V30 3956 C 360.911 2.36943 -2.48421 0
M  V30 3957 C 359.997 2.13208 -3.6661 0
M  V30 3958 N 360.388 1.5947 -4.80003 0
M  V30 3959 C 358.686 2.43581 -3.7361 0
M  V30 3960 C 359.387 1.51092 -5.61735 0
M  V30 3961 N 358.363 1.9797 -5.0627 0
M  V30 3962 H 362.165 0.640675 -2.86832 0
M  V30 3963 H 359.679 0.255134 -1.60383 0
M  V30 3964 H 361.676 3.10374 -2.78341 0
M  V30 3965 H 360.336 2.79818 -1.64718 0
M  V30 3966 H 361.347 1.28008 -5.01831 0
M  V30 3967 H 358.024 2.89662 -3.00669 0
M  V30 3968 H 359.414 1.10199 -6.62801 0
M  V30 3969 N 362.134 1.5431 0.320358 0
M  V30 3970 C 363.359 1.76954 1.08175 0
M  V30 3971 C 363.784 0.518193 1.80821 0
M  V30 3972 O 363.142 -0.530411 1.73368 0
M  V30 3973 C 363.19 2.96451 2.05303 0
M  V30 3974 O 362.294 2.68221 3.13259 0
M  V30 3975 H 361.635 0.586275 0.311733 0
M  V30 3976 H 364.165 2.01342 0.363676 0
M  V30 3977 H 364.175 3.23887 2.48116 0
M  V30 3978 H 362.85 3.87196 1.51829 0
M  V30 3979 H 361.427 2.51744 2.75099 0
M  V30 3980 N 363.613 -0.582584 1.46437 0
M  V30 3981 C 364.546 -1.70633 1.51524 0
M  V30 3982 C 365.524 -1.58349 0.369351 0
M  V30 3983 O 366.708 -1.79563 0.573516 0
M  V30 3984 C 363.835 -3.08687 1.39392 0
M  V30 3985 C 362.881 -3.3949 2.58164 0
M  V30 3986 S 363.714 -3.31548 4.20519 0
M  V30 3987 C 364.87 -4.72139 4.10896 0
M  V30 3988 H 365.103 -1.66058 2.46601 0
M  V30 3989 H 362.636 -0.761337 1.34324 0
M  V30 3990 H 364.594 -3.8833 1.33079 0
M  V30 3991 H 363.255 -3.10751 0.457436 0
M  V30 3992 H 362.448 -4.40071 2.45669 0
M  V30 3993 H 362.05 -2.67415 2.61468 0
M  V30 3994 H 364.342 -5.62527 3.77584 0
M  V30 3995 H 365.285 -4.89692 5.11476 0
M  V30 3996 H 365.693 -4.48995 3.42146 0
M  V30 3997 N 365.091 -1.34144 -0.827227 0
M  V30 3998 C 366.023 -1.21206 -1.9453 0
M  V30 3999 C 367.036 -0.140176 -1.62195 0
M  V30 4000 O 368.225 -0.391647 -1.7415 0
M  V30 4001 C 365.325 -0.839141 -3.28347 0
M  V30 4002 C 364.498 -2.0051 -3.88734 0
M  V30 4003 C 363.557 -1.61128 -5.00923 0
M  V30 4004 O 362.583 -2.32726 -5.19449 0
M  V30 4005 N 363.785 -0.522958 -5.7814 0
M  V30 4006 H 366.55 -2.17525 -2.06162 0
M  V30 4007 H 364.111 -1.27043 -1.00358 0
M  V30 4008 H 366.103 -0.557556 -4.00841 0
M  V30 4009 H 364.673 0.0337293 -3.12582 0
M  V30 4010 H 363.893 -2.45166 -3.08686 0
M  V30 4011 H 365.181 -2.78498 -4.25812 0
M  V30 4012 H 364.579 0.0723518 -5.65654 0
M  V30 4013 H 363.136 -0.301089 -6.51104 0
M  V30 4014 N 366.569 1.04691 -1.17803 0
M  V30 4015 C 367.794 1.81984 -0.994813 0
M  V30 4016 C 368.219 1.82586 0.452112 0
M  V30 4017 O 367.577 1.23854 1.324 0
M  V30 4018 C 367.625 3.2575 -1.54659 0
M  V30 4019 O 366.729 4.05267 -0.763728 0
M  V30 4020 H 366.07 0.562483 -0.352857 0
M  V30 4021 H 368.6 1.3189 -1.56417 0
M  V30 4022 H 368.61 3.76541 -1.57102 0
M  V30 4023 H 367.285 3.24627 -2.59981 0
M  V30 4024 H 365.862 3.63972 -0.811108 0
M  V30 4025 N 368.047 0.979072 1.23499 0
M  V30 4026 C 369.293 0.648178 1.92163 0
M  V30 4027 C 369.626 -0.816049 1.76222 0
M  V30 4028 O 368.901 -1.58849 1.12237 0
M  V30 4029 C 369.184 1.03773 3.44824 0
M  V30 4030 C 369.037 2.55948 3.69879 0
M  V30 4031 C 370.356 0.580653 4.36253 0
M  V30 4032 H 367.475 0.236952 0.69787 0
M  V30 4033 H 370.117 1.22012 1.45647 0
M  V30 4034 H 368.267 0.551058 3.84572 0
M  V30 4035 H 369.939 3.12179 3.3962 0
M  V30 4036 H 368.182 2.98641 3.14636 0
M  V30 4037 H 368.853 2.78255 4.76737 0
M  V30 4038 H 371.329 0.998465 4.03943 0
M  V30 4039 H 370.205 0.881663 5.41773 0
M  V30 4040 H 370.466 -0.519052 4.39042 0
M  V30 4041 N 369.525 -1.3858 0.750561 0
M  V30 4042 C 370.435 -2.34278 0.122825 0
M  V30 4043 C 371.451 -1.59116 -0.704131 0
M  V30 4044 O 372.627 -1.91326 -0.628987 0
M  V30 4045 C 369.692 -3.38221 -0.762086 0
M  V30 4046 C 368.753 -4.29227 0.078896 0
M  V30 4047 C 367.986 -5.28205 -0.763874 0
M  V30 4048 O 368.209 -5.34112 -2.00201 0
M  V30 4049 O 367.143 -6.01618 -0.18428 0
M  V30 4050 H 370.969 -2.89649 0.913088 0
M  V30 4051 H 368.554 -1.40374 0.511417 0
M  V30 4052 H 370.436 -4.01872 -1.26793 0
M  V30 4053 H 369.111 -2.85211 -1.5309 0
M  V30 4054 H 368.018 -3.68747 0.630621 0
M  V30 4055 H 369.351 -4.85484 0.810289 0
M  V30 4056 N 371.003 -0.499398 -1.49478 0
M  V30 4057 C 371.913 0.284489 -2.32869 0
M  V30 4058 C 372.929 0.968885 -1.44529 0
M  V30 4059 O 374.105 0.95062 -1.77553 0
M  V30 4060 C 371.17 1.33594 -3.19928 0
M  V30 4061 C 370.231 0.665149 -4.24116 0
M  V30 4062 C 369.464 1.6665 -5.07014 0
M  V30 4063 O 369.687 2.89618 -4.91404 0
M  V30 4064 O 368.621 1.22271 -5.8935 0
M  V30 4065 H 372.447 -0.39802 -3.01081 0
M  V30 4066 H 370.032 -0.260758 -1.47107 0
M  V30 4067 H 371.914 1.94431 -3.73864 0
M  V30 4068 H 370.589 2.0014 -2.54412 0
M  V30 4069 H 369.496 0.0170769 -3.74096 0
M  V30 4070 H 370.829 0.0421555 -4.92182 0
M  V30 4071 N 372.481 1.55866 -0.233164 0
M  V30 4072 C 373.411 2.23783 0.666599 0
M  V30 4073 C 374.392 1.21343 1.19205 0
M  V30 4074 O 375.577 1.4996 1.23392 0
M  V30 4075 C 372.707 2.92671 1.86978 0
M  V30 4076 C 371.661 4.01682 1.47768 0
M  V30 4077 C 370.987 4.57926 2.76058 0
M  V30 4078 C 372.287 5.18126 0.658993 0
M  V30 4079 H 373.981 2.99232 0.100306 0
M  V30 4080 H 371.527 1.43924 0.046804 0
M  V30 4081 H 373.48 3.3888 2.50476 0
M  V30 4082 H 372.204 2.14688 2.46123 0
M  V30 4083 H 370.863 3.56222 0.866106 0
M  V30 4084 H 370.511 3.76659 3.33372 0
M  V30 4085 H 370.211 5.31505 2.50552 0
M  V30 4086 H 371.735 5.06859 3.40479 0
M  V30 4087 H 373.149 5.60644 1.19795 0
M  V30 4088 H 371.546 5.98009 0.500552 0
M  V30 4089 H 372.616 4.83763 -0.331856 0
M  V30 4090 N 373.959 -0.0401083 1.57549 0
M  V30 4091 C 375.207 -0.731677 1.8839 0
M  V30 4092 C 375.528 -1.76481 0.829425 0
M  V30 4093 O 374.798 -1.95411 -0.1383 0
M  V30 4094 H 373.378 -0.273225 0.695239 0
M  V30 4095 H 376.04 -0.00867725 1.94898 0
M  V30 4096 H 375.136 -1.22816 2.86919 0
M  V30 4097 N 375.437 -1.54477 -0.31217 0
M  V30 4098 C 376.662 -1.77526 -1.07235 0
M  V30 4099 C 377.087 -0.527775 -1.80544 0
M  V30 4100 O 376.445 0.52121 -1.73646 0
M  V30 4101 C 376.493 -2.97535 -2.03728 0
M  V30 4102 O 375.597 -2.69878 -3.11833 0
M  V30 4103 H 374.938 -0.58792 -0.30862 0
M  V30 4104 H 377.468 -2.01532 -0.352993 0
M  V30 4105 H 377.478 -3.25198 -2.46395 0
M  V30 4106 H 376.153 -3.87996 -1.49774 0
M  V30 4107 H 374.73 -2.53199 -2.7376 0
M  V30 4108 N 376.915 0.57481 -1.46744 0
M  V30 4109 C 377.863 1.70435 -1.58286 0
M  V30 4110 C 378.857 1.63287 -0.450956 0
M  V30 4111 O 380.063 1.68685 -0.628121 0
M  V30 4112 H 376.438 0.56364 -0.497809 0
M  V30 4113 H 378.409 1.57833 -2.53242 0
M  V30 4114 C 377.158 3.08815 -1.59776 0
M  V30 4115 H 376.481 3.1499 -2.46214 0
M  V30 4116 H 377.921 3.87588 -1.71905 0
M  V30 4117 C 376.38 3.35301 -0.327812 0
M  V30 4118 O 376.91 3.97511 0.57861 0
M  V30 4119 N 375.116 2.89816 -0.213274 0
M  V30 4120 H 374.663 2.39371 -0.951798 0
M  V30 4121 H 374.621 3.0791 0.63553 0
M  V30 4122 N 378.394 1.34581 0.820102 0
M  V30 4123 C 379.805 1.24298 1.39309 0
M  V30 4124 C 380.156 -0.130351 1.95767 0
M  V30 4125 O 379.281 -1.0308 1.90272 0
M  V30 4126 C 379.876 2.25054 2.53251 0
M  V30 4127 C 378.435 2.18552 3.0645 0
M  V30 4128 C 377.582 2.11503 1.79337 0
M  V30 4129 H 380.533 1.45906 0.624262 0
M  V30 4130 H 380.554 1.86917 3.31425 0
M  V30 4131 H 380.066 3.24996 2.1213 0
M  V30 4132 H 378.167 1.21976 3.52069 0
M  V30 4133 H 378.28 3.0993 3.65349 0
M  V30 4134 H 376.644 1.57268 2.00347 0
M  V30 4135 H 377.427 3.13284 1.40386 0
M  V30 4136 N 379.872 -1.04064 1.18357 0
M  V30 4137 C 380.782 -2.15569 0.925596 0
M  V30 4138 C 381.798 -1.7365 -0.110295 0
M  V30 4139 O 382.974 -2.01273 0.0716218 0
M  V30 4140 C 380.039 -3.43704 0.454836 0
M  V30 4141 C 379.1 -4.00004 1.55869 0
M  V30 4142 C 378.333 -5.22023 1.1103 0
M  V30 4143 O 378.556 -5.70392 -0.0309756 0
M  V30 4144 O 377.49 -5.70856 1.90805 0
M  V30 4145 H 381.316 -2.40187 1.8586 0
M  V30 4146 H 378.901 -1.1402 0.965394 0
M  V30 4147 H 380.783 -4.20923 0.200382 0
M  V30 4148 H 379.458 -3.20559 -0.449876 0
M  V30 4149 H 378.365 -3.24172 1.86716 0
M  V30 4150 H 379.698 -4.2749 2.43953 0
M  V30 4151 N 381.35 -0.985608 -1.22978 0
M  V30 4152 C 382.298 -0.522631 -2.26652 0
M  V30 4153 C 383.292 0.422998 -1.64034 0
M  V30 4154 O 384.498 0.296319 -1.77544 0
M  V30 4155 H 380.873 -0.150597 -0.736766 0
M  V30 4156 H 382.844 -1.40863 -2.63059 0
M  V30 4157 C 381.593 0.154238 -3.47358 0
M  V30 4158 H 380.916 -0.564329 -3.95797 0
M  V30 4159 H 382.356 0.441744 -4.21693 0
M  V30 4160 C 380.815 1.38719 -3.07016 0
M  V30 4161 O 381.345 2.48307 -3.15764 0
M  V30 4162 N 379.551 1.25975 -2.61875 0
M  V30 4163 H 379.098 0.368068 -2.54957 0
M  V30 4164 H 379.056 2.08578 -2.3525 0
M  V30 4165 N 382.828 1.3818 -0.7579 0
M  V30 4166 C 383.758 2.33027 -0.148597 0
M  V30 4167 C 384.739 1.55085 0.69875 0
M  V30 4168 O 385.924 1.83384 0.639053 0
M  V30 4169 C 383.054 3.3928 0.742034 0
M  V30 4170 C 382.008 4.28 -0.00291946 0
M  V30 4171 C 381.334 5.25146 1.00625 0
M  V30 4172 C 382.634 5.08938 -1.17385 0
M  V30 4173 H 384.328 2.84231 -0.940909 0
M  V30 4174 H 381.874 1.36659 -0.453908 0
M  V30 4175 H 383.827 4.046 1.17799 0
M  V30 4176 H 382.551 2.86569 1.56671 0
M  V30 4177 H 381.21 3.64192 -0.419504 0
M  V30 4178 H 380.858 4.68721 1.8251 0
M  V30 4179 H 380.558 5.85361 0.512428 0
M  V30 4180 H 382.082 5.93342 1.44143 0
M  V30 4181 H 383.496 5.67474 -0.815224 0
M  V30 4182 H 381.893 5.7841 -1.59882 0
M  V30 4183 H 382.963 4.42424 -1.98468 0
M  V30 4184 N 384.306 0.507319 1.49211 0
M  V30 4185 C 385.554 -0.0348839 2.0207 0
M  V30 4186 C 385.875 -1.36898 1.38866 0
M  V30 4187 O 385.145 -1.88133 0.546151 0
M  V30 4188 H 383.725 -0.0158812 0.746831 0
M  V30 4189 H 386.387 0.665998 1.83168 0
M  V30 4190 H 385.483 -0.159917 3.1169 0
M  V30 4191 N 385.784 -1.5574 0.241426 0
M  V30 4192 C 387.033 -1.97986 -0.385295 0
M  V30 4193 C 387.346 -1.13267 -1.59468 0
M  V30 4194 O 388.552 -1.45501 -2.2922 0
M  V30 4195 C 387.008 -3.52275 -0.736884 0
M  V30 4196 C 386.616 -4.45726 0.450796 0
M  V30 4197 C 388.36 -4.03189 -1.3281 0
M  V30 4198 C 386.267 -5.91352 0.0756662 0
M  V30 4199 H 385.197 -0.739386 -0.147731 0
M  V30 4200 H 387.848 -1.80308 0.340779 0
M  V30 4201 H 386.23 -3.65628 -1.52094 0
M  V30 4202 H 387.404 -4.44131 1.22819 0
M  V30 4203 H 385.719 -4.05264 0.956573 0
M  V30 4204 H 388.316 -5.09505 -1.62201 0
M  V30 4205 H 388.659 -3.50212 -2.25071 0
M  V30 4206 H 389.192 -3.93141 -0.607069 0
M  V30 4207 H 385.931 -6.48354 0.965272 0
M  V30 4208 H 385.451 -5.96095 -0.665635 0
M  V30 4209 H 387.13 -6.46084 -0.344075 0
M  V30 4210 N 387.262 0.0317525 -1.57568 0
M  V30 4211 C 388.673 0.578692 -1.77505 0
M  V30 4212 C 389.024 1.75749 -0.872164 0
M  V30 4213 O 388.149 2.16298 -0.0663106 0
M  V30 4214 C 388.744 1.05658 -3.21904 0
M  V30 4215 C 387.303 1.54906 -3.43047 0
M  V30 4216 C 386.45 0.485939 -2.73009 0
M  V30 4217 H 389.401 -0.194475 -1.57504 0
M  V30 4218 H 389.422 1.92404 -3.28269 0
M  V30 4219 H 388.934 0.198422 -3.87592 0
M  V30 4220 H 387.035 2.42915 -2.82529 0
M  V30 4221 H 387.148 1.59841 -4.5165 0
M  V30 4222 H 385.512 0.940354 -2.36705 0
M  V30 4223 H 386.295 -0.362709 -3.41379 0
M  V30 4224 N 388.74 1.54641 0.303973 0
M  V30 4225 C 390.151 1.64811 0.877163 0
M  V30 4226 C 390.502 0.554838 1.88191 0
M  V30 4227 O 389.627 -0.309033 2.14182 0
M  V30 4228 C 390.222 2.9876 1.59775 0
M  V30 4229 C 388.781 3.11061 2.11938 0
M  V30 4230 C 387.928 2.60479 0.951097 0
M  V30 4231 H 390.879 1.58493 0.0810486 0
M  V30 4232 H 390.9 2.90017 2.46314 0
M  V30 4233 H 390.412 3.7831 0.866226 0
M  V30 4234 H 388.513 2.36225 2.88146 0
M  V30 4235 H 388.626 4.17171 2.35595 0
M  V30 4236 H 386.99 2.16859 1.33583 0
M  V30 4237 H 387.773 3.42504 0.233581 0
M  V30 4238 N 390.218 -0.567019 1.47046 0
M  V30 4239 C 391.443 -1.3551 1.57009 0
M  V30 4240 C 391.868 -1.86841 0.217259 0
M  V30 4241 O 391.226 -1.62435 -0.805268 0
M  V30 4242 C 391.274 -2.50777 2.5912 0
M  V30 4243 O 390.378 -3.52706 2.13711 0
M  V30 4244 H 389.719 -0.402919 0.52778 0
M  V30 4245 H 392.249 -0.686241 1.92748 0
M  V30 4246 H 392.259 -2.97481 2.79229 0
M  V30 4247 H 390.934 -2.12771 3.57353 0
M  V30 4248 H 389.511 -3.12374 2.03659 0
M  V30 4249 N 391.696 -1.35014 -0.812953 0
M  V30 4250 C 393.112 -1.14914 -1.10757 0
M  V30 4251 C 393.312 0.0426818 -2.01455 0
M  V30 4252 O 392.368 0.715212 -2.42159 0
M  V30 4253 C 393.681 -2.44911 -1.74468 0
M  V30 4254 C 395.229 -2.5106 -1.86917 0
M  V30 4255 C 395.704 -3.81085 -2.54044 0
M  V30 4256 N 397.195 -3.82301 -2.61535 0
M  V30 4257 C 397.93 -4.79634 -3.14227 0
M  V30 4258 N 397.426 -5.87353 -3.67407 0
M  V30 4259 N 399.219 -4.67078 -3.12721 0
M  V30 4260 H 391.37 -2.1136 -0.20989 0
M  V30 4261 H 393.633 -0.935128 -0.155692 0
M  V30 4262 H 393.339 -3.32267 -1.15289 0
M  V30 4263 H 393.213 -2.58989 -2.74234 0
M  V30 4264 H 395.6 -1.64137 -2.45241 0
M  V30 4265 H 395.681 -2.40901 -0.860242 0
M  V30 4266 H 395.325 -4.68402 -1.96372 0
M  V30 4267 H 395.255 -3.88529 -3.55461 0
M  V30 4268 H 397.746 -3.04465 -2.23851 0
M  V30 4269 H 398.059 -6.57624 -4.05894 0
M  V30 4270 H 396.404 -5.91054 -3.65623 0
M  V30 4271 H 399.595 -3.82067 -2.70449 0
M  V30 4272 H 399.768 -5.43098 -3.53481 0
M  V30 4273 N 393.175 1.03435 -1.18907 0
M  V30 4274 C 394.586 1.58195 -0.991523 0
M  V30 4275 C 394.937 1.90801 0.457081 0
M  V30 4276 O 394.062 1.70272 1.33553 0
M  V30 4277 C 394.657 2.87432 -1.79355 0
M  V30 4278 C 393.216 3.38785 -1.64017 0
M  V30 4279 C 392.363 2.12292 -1.78402 0
M  V30 4280 H 395.314 0.860299 -1.33359 0
M  V30 4281 H 395.335 3.58096 -1.28638 0
M  V30 4282 H 394.847 2.63669 -2.84781 0
M  V30 4283 H 392.948 3.67547 -0.611536 0
M  V30 4284 H 393.061 4.12186 -2.44212 0
M  V30 4285 H 391.425 2.23901 -1.2141 0
M  V30 4286 H 392.208 1.90977 -2.85277 0
M  V30 4287 N 394.653 0.992116 1.22453 0
M  V30 4288 C 395.881 0.685944 1.95198 0
M  V30 4289 C 396.296 -0.749233 1.73297 0
M  V30 4290 O 395.653 -1.50549 1.03156 0
M  V30 4291 C 395.704 0.981395 3.47924 0
M  V30 4292 O 395.425 2.36018 3.6909 0
M  V30 4293 C 396.926 0.692815 4.37853 0
M  V30 4294 H 394.146 0.253821 0.621141 0
M  V30 4295 H 396.69 1.32668 1.55626 0
M  V30 4296 H 394.845 0.386481 3.85467 0
M  V30 4297 H 395.259 2.45884 4.63294 0
M  V30 4298 H 396.733 0.949818 5.43767 0
M  V30 4299 H 397.21 -0.373181 4.37612 0
M  V30 4300 H 397.816 1.26874 4.05935 0
M  V30 4301 N 396.131 -1.37776 0.765217 0
M  V30 4302 C 397.542 -1.82521 0.392819 0
M  V30 4303 C 397.893 -1.63789 -1.08017 0
M  V30 4304 O 397.018 -1.14542 -1.83601 0
M  V30 4305 C 397.613 -3.31358 0.706214 0
M  V30 4306 C 396.172 -3.74406 0.386952 0
M  V30 4307 C 395.319 -2.60394 0.953422 0
M  V30 4308 H 398.27 -1.2634 0.960412 0
M  V30 4309 H 398.291 -3.80498 -0.0114706 0
M  V30 4310 H 397.803 -3.44959 1.77833 0
M  V30 4311 H 395.904 -3.66377 -0.678112 0
M  V30 4312 H 396.017 -4.70749 0.890636 0
M  V30 4313 H 394.381 -2.51878 0.378064 0
M  V30 4314 H 395.164 -2.76791 2.03081 0
M  V30 4315 N 397.609 -0.515225 -1.4894 0
M  V30 4316 C 398.834 0.022727 -2.07388 0
M  V30 4317 C 399.259 1.2876 -1.37122 0
M  V30 4318 O 398.617 1.76067 -0.432431 0
M  V30 4319 C 398.665 0.244869 -3.59768 0
M  V30 4320 O 397.769 1.31667 -3.90817 0
M  V30 4321 H 397.11 -0.0325506 -0.663202 0
M  V30 4322 H 399.64 -0.718918 -1.91553 0
M  V30 4323 H 399.65 0.47205 -4.0526 0
M  V30 4324 H 398.325 -0.679194 -4.10317 0
M  V30 4325 H 396.902 1.07331 -3.5712 0
M  V30 4326 N 399.087 1.5561 -0.249682 0
M  V30 4327 C 400.364 1.90932 0.424761 0
M  V30 4328 C 400.744 1.17078 1.75658 0
M  V30 4329 O 400.092 0.289176 2.26663 0
M  V30 4330 C 400.302 3.43975 0.590109 0
M  V30 4331 C 401.65 4.15281 0.884714 0
M  V30 4332 O 402.674 3.49729 0.67587 0
M  V30 4333 O 401.533 5.31236 1.28259 0
M  V30 4334 H 398.627 0.794815 0.228468 0
M  V30 4335 H 401.173 1.67135 -0.293954 0
M  V30 4336 H 399.945 3.89748 -0.34818 0
M  V30 4337 H 399.568 3.73644 1.35926 0
M  V30 4338 N 400.565 -0.0233959 1.57583 0
M  V30 4339 C 401.498 -1.05549 2.02323 0
M  V30 4340 C 402.476 -1.34843 0.908626 0
M  V30 4341 O 403.66 -1.47404 1.17491 0
M  V30 4342 C 400.787 -2.38885 2.40108 0
M  V30 4343 C 399.833 -2.2541 3.62067 0
M  V30 4344 S 400.666 -1.60217 5.1097 0
M  V30 4345 C 401.822 -2.95032 5.52003 0
M  V30 4346 H 402.055 -0.674435 2.89549 0
M  V30 4347 H 399.588 -0.23355 1.52623 0
M  V30 4348 H 401.546 -3.15562 2.62547 0
M  V30 4349 H 400.207 -2.74137 1.53323 0
M  V30 4350 H 399.4 -3.23854 3.86179 0
M  V30 4351 H 399.002 -1.56876 3.39508 0
M  V30 4352 H 401.294 -3.91357 5.53033 0
M  V30 4353 H 402.237 -2.75646 6.52246 0
M  V30 4354 H 402.645 -2.97865 4.79517 0
M  V30 4355 N 402.043 -1.548 -0.295768 0
M  V30 4356 C 403.006 -1.85363 -1.34808 0
M  V30 4357 C 404.006 -0.726817 -1.43436 0
M  V30 4358 O 405.196 -0.995088 -1.42981 0
M  V30 4359 C 402.328 -2.03859 -2.73229 0
M  V30 4360 H 403.521 -2.7941 -1.08949 0
M  V30 4361 H 401.074 -1.46942 -0.532702 0
M  V30 4362 H 401.809 -1.12117 -3.04303 0
M  V30 4363 H 401.594 -2.8588 -2.68356 0
M  V30 4364 H 403.084 -2.28857 -3.49305 0
M  V30 4365 N 403.521 0.559213 -1.47345 0
M  V30 4366 C 404.77 1.31281 -1.53128 0
M  V30 4367 C 405.083 1.94602 -0.197344 0
M  V30 4368 O 406.289 2.71173 -0.133154 0
M  V30 4369 C 404.745 2.38051 -2.69925 0
M  V30 4370 C 404.353 1.8093 -4.0984 0
M  V30 4371 C 406.097 3.14604 -2.84999 0
M  V30 4372 C 404.004 2.85468 -5.1794 0
M  V30 4373 H 402.934 0.493614 -0.569966 0
M  V30 4374 H 405.585 0.594155 -1.73615 0
M  V30 4375 H 403.967 3.12822 -2.42814 0
M  V30 4376 H 405.141 1.12544 -4.46845 0
M  V30 4377 H 403.456 1.16967 -3.99634 0
M  V30 4378 H 406.053 3.92666 -3.62929 0
M  V30 4379 H 406.396 3.68665 -1.93369 0
M  V30 4380 H 406.929 2.46945 -3.1187 0
M  V30 4381 H 403.668 2.36264 -6.1144 0
M  V30 4382 H 403.188 3.52269 -4.85455 0
M  V30 4383 H 404.867 3.48996 -5.44803 0
M  V30 4384 N 404.999 1.35443 0.805782 0
M  V30 4385 C 406.245 1.28952 1.56522 0
M  V30 4386 C 406.578 -0.135597 1.93726 0
M  V30 4387 O 405.853 -1.08516 1.61414 0
M  V30 4388 C 406.136 2.19678 2.85331 0
M  V30 4389 C 405.989 3.7081 2.54598 0
M  V30 4390 C 407.308 2.09495 3.8704 0
M  V30 4391 H 404.427 0.469764 0.567883 0
M  V30 4392 H 407.069 1.65851 0.927001 0
M  V30 4393 H 405.219 1.8834 3.39795 0
M  V30 4394 H 406.891 4.12593 2.06312 0
M  V30 4395 H 405.134 3.91051 1.8778 0
M  V30 4396 H 405.805 4.29679 3.46525 0
M  V30 4397 H 408.281 2.37045 3.41978 0
M  V30 4398 H 407.157 2.75173 4.74943 0
M  V30 4399 H 407.418 1.07714 4.28777 0
M  V30 4400 N 406.477 -1.02803 1.19454 0
M  V30 4401 C 407.41 -2.107 0.876396 0
M  V30 4402 C 408.388 -1.61741 -0.166897 0
M  V30 4403 O 409.572 -1.88451 -0.0430195 0
M  V30 4404 C 406.699 -3.37262 0.311758 0
M  V30 4405 C 405.745 -4.05093 1.33424 0
M  V30 4406 S 406.578 -4.50498 2.89503 0
M  V30 4407 C 407.734 -5.80277 2.34584 0
M  V30 4408 H 407.967 -2.37362 1.79016 0
M  V30 4409 H 405.5 -1.15755 1.02177 0
M  V30 4410 H 407.458 -4.10499 -0.00748752 0
M  V30 4411 H 406.119 -3.08693 -0.58032 0
M  V30 4412 H 405.312 -4.9611 0.888302 0
M  V30 4413 H 404.914 -3.3803 1.60037 0
M  V30 4414 H 407.206 -6.54873 1.73633 0
M  V30 4415 H 408.149 -6.29651 3.23952 0
M  V30 4416 H 408.557 -5.3599 1.77131 0
M  V30 4417 N 407.956 -0.998596 -1.21925 0
M  V30 4418 C 409.186 -0.695276 -1.94549 0
M  V30 4419 C 409.594 0.745079 -1.73911 0
M  V30 4420 O 408.937 1.51507 -1.03881 0
M  V30 4421 C 408.999 -0.928485 -3.47303 0
M  V30 4422 C 408.663 -2.35443 -3.91683 0
M  V30 4423 C 409.66 -3.33428 -3.98901 0
M  V30 4424 C 407.345 -2.69038 -4.24174 0
M  V30 4425 C 409.339 -4.63079 -4.37992 0
M  V30 4426 C 407.026 -3.98906 -4.62944 0
M  V30 4427 C 408.024 -4.95738 -4.69822 0
M  V30 4428 O 407.712 -6.23285 -5.07711 0
M  V30 4429 H 407.444 -0.255902 -0.625692 0
M  V30 4430 H 409.998 -1.33767 -1.5587 0
M  V30 4431 H 408.228 -0.228917 -3.86022 0
M  V30 4432 H 409.917 -0.619539 -4.01144 0
M  V30 4433 H 410.683 -3.08807 -3.73983 0
M  V30 4434 H 406.562 -1.94367 -4.18022 0
M  V30 4435 H 410.106 -5.38658 -4.43275 0
M  V30 4436 H 406.003 -4.23314 -4.87314 0
M  V30 4437 H 406.771 -6.27306 -5.25766 0
M  V30 4438 N 409.434 1.37368 -0.772513 0
M  V30 4439 C 410.662 2.03942 -0.348588 0
M  V30 4440 C 411.077 1.58264 1.02947 0
M  V30 4441 O 410.434 0.764246 1.65727 0
M  V30 4442 C 410.485 3.5946 -0.38351 0
M  V30 4443 O 410.206 4.03468 -1.70721 0
M  V30 4444 C 411.707 4.4327 0.0519152 0
M  V30 4445 H 408.927 0.654931 -0.145966 0
M  V30 4446 H 411.471 1.75686 -1.04665 0
M  V30 4447 H 409.626 3.86486 0.265978 0
M  V30 4448 H 410.04 4.97991 -1.64636 0
M  V30 4449 H 411.514 5.51995 -0.0236733 0
M  V30 4450 H 411.991 4.2514 1.10238 0
M  V30 4451 H 412.597 4.21471 -0.569415 0
M  V30 4452 N 410.912 0.523116 1.48665 0
M  V30 4453 C 412.137 -0.0117284 2.07397 0
M  V30 4454 C 412.562 -1.28031 1.37803 0
M  V30 4455 O 411.92 -1.75836 0.441762 0
M  V30 4456 C 411.968 -0.225786 3.59892 0
M  V30 4457 O 411.072 -1.29592 3.91509 0
M  V30 4458 H 410.413 0.0360673 0.66302 0
M  V30 4459 H 412.943 0.729066 1.9117 0
M  V30 4460 H 412.953 -0.450552 4.05505 0
M  V30 4461 H 411.628 0.700944 4.09951 0
M  V30 4462 H 410.205 -1.05436 3.57684 0
M  V30 4463 N 412.39 -1.55475 0.257931 0
M  V30 4464 C 413.638 -1.98813 -0.363009 0
M  V30 4465 C 413.959 -1.14757 -1.57657 0
M  V30 4466 O 413.229 -0.232956 -1.9451 0
M  V30 4467 H 411.809 -0.734308 -0.137113 0
M  V30 4468 H 414.471 -1.9156 0.359281 0
M  V30 4469 H 413.567 -3.04941 -0.664634 0
M  V30 4470 N 413.868 0.0150385 -1.57593 0
M  V30 4471 C 415.093 0.718067 -1.94573 0
M  V30 4472 C 415.518 1.6734 -0.859005 0
M  V30 4473 O 414.876 1.80362 0.184147 0
M  V30 4474 C 414.924 1.43918 -3.30636 0
M  V30 4475 O 414.028 2.55299 -3.23876 0
M  V30 4476 H 413.369 0.192125 -0.635597 0
M  V30 4477 H 415.899 -0.0336708 -2.04572 0
M  V30 4478 H 415.909 1.80598 -3.65853 0
M  V30 4479 H 414.584 0.738619 -4.09289 0
M  V30 4480 H 413.161 2.21058 -3.00312 0
M  V30 4481 N 415.346 1.54954 0.287554 0
M  V30 4482 C 416.574 1.78881 1.03967 0
M  V30 4483 C 416.989 0.554894 1.80462 0
M  V30 4484 O 416.346 -0.475676 1.76192 0
M  V30 4485 C 416.397 3.00488 2.0097 0
M  V30 4486 O 416.118 4.19113 1.27577 0
M  V30 4487 C 417.619 3.36907 2.88112 0
M  V30 4488 H 414.839 0.596259 0.307761 0
M  V30 4489 H 417.383 2.01937 0.322749 0
M  V30 4490 H 415.538 2.79601 2.68145 0
M  V30 4491 H 415.952 4.87765 1.92835 0
M  V30 4492 H 417.426 4.25205 3.52001 0
M  V30 4493 H 417.903 2.55659 3.57121 0
M  V30 4494 H 418.509 3.60001 2.26449 0
M  V30 4495 N 416.824 -0.551391 1.4764 0
M  V30 4496 C 418.072 -1.30572 1.54258 0
M  V30 4497 C 418.393 -1.93877 0.208963 0
M  V30 4498 O 417.663 -1.80234 -0.767619 0
M  V30 4499 H 416.243 -0.484894 0.568231 0
M  V30 4500 H 418.905 -0.643402 1.83974 0
M  V30 4501 H 418.001 -2.09621 2.31226 0
M  V30 4502 N 418.302 -1.35869 -0.798587 0
M  V30 4503 C 419.718 -1.16082 -1.09532 0
M  V30 4504 C 419.918 0.0213124 -2.01489 0
M  V30 4505 O 418.974 0.689488 -2.42904 0
M  V30 4506 C 420.287 -2.46748 -1.7186 0
M  V30 4507 C 421.835 -2.53028 -1.84244 0
M  V30 4508 C 422.31 -3.83758 -2.49988 0
M  V30 4509 N 423.801 -3.85053 -2.57465 0
M  V30 4510 C 424.536 -4.8294 -3.09122 0
M  V30 4511 N 424.032 -5.91217 -3.61157 0
M  V30 4512 N 425.825 -4.70369 -3.0775 0
M  V30 4513 H 417.976 -2.11571 -0.187461 0
M  V30 4514 H 420.239 -0.936726 -0.145765 0
M  V30 4515 H 419.945 -3.33471 -1.11759 0
M  V30 4516 H 419.819 -2.61883 -2.71472 0
M  V30 4517 H 422.206 -1.66729 -2.43486 0
M  V30 4518 H 422.287 -2.418 -0.834643 0
M  V30 4519 H 421.931 -4.70459 -1.91393 0
M  V30 4520 H 421.861 -3.92278 -3.5132 0
M  V30 4521 H 424.352 -3.06822 -2.20609 0
M  V30 4522 H 424.665 -6.61892 -3.98896 0
M  V30 4523 H 423.01 -5.94899 -3.59333 0
M  V30 4524 H 426.201 -3.84914 -2.66381 0
M  V30 4525 H 426.374 -5.46816 -3.47701 0
M  V30 4526 N 419.78 1.02168 -1.19998 0
M  V30 4527 C 421.191 1.57135 -1.00825 0
M  V30 4528 C 421.542 1.91276 0.436818 0
M  V30 4529 O 420.667 1.71679 1.3174 0
M  V30 4530 C 421.262 2.85514 -1.82393 0
M  V30 4531 C 419.821 3.37027 -1.67601 0
M  V30 4532 C 418.968 2.10388 -1.80644 0
M  V30 4533 H 421.919 0.846106 -1.34264 0
M  V30 4534 H 421.94 3.56711 -1.32429 0
M  V30 4535 H 421.452 2.60634 -2.87561 0
M  V30 4536 H 419.553 3.66878 -0.650485 0
M  V30 4537 H 419.666 4.09572 -2.4857 0
M  V30 4538 H 418.03 2.22601 -1.23778 0
M  V30 4539 H 418.813 1.8794 -2.87286 0
M  V30 4540 N 421.258 1.00505 1.21394 0
M  V30 4541 C 422.205 0.565496 2.23765 0
M  V30 4542 C 423.175 -0.408466 1.60999 0
M  V30 4543 O 424.36 -0.310503 1.88257 0
M  V30 4544 C 421.5 -0.101667 3.4495 0
M  V30 4545 C 420.613 0.915479 4.22188 0
M  V30 4546 C 419.748 0.220574 5.30742 0
M  V30 4547 C 418.787 1.22527 5.99711 0
M  V30 4548 N 417.924 0.557831 6.9988 0
M  V30 4549 H 422.764 1.44314 2.60725 0
M  V30 4550 H 420.301 0.722643 1.28126 0
M  V30 4551 H 422.259 -0.505504 4.14126 0
M  V30 4552 H 420.889 -0.94303 3.08718 0
M  V30 4553 H 419.941 1.43756 3.52191 0
M  V30 4554 H 421.253 1.68005 4.69655 0
M  V30 4555 H 420.407 -0.239368 6.06228 0
M  V30 4556 H 419.146 -0.576401 4.84282 0
M  V30 4557 H 418.151 1.69571 5.22997 0
M  V30 4558 H 419.376 2.02332 6.48258 0
M  V30 4559 H 417.322 -0.219486 6.55633 0
M  V30 4560 H 417.239 1.26065 7.45415 0
M  V30 4561 H 418.507 0.121095 7.79406 0
M  V30 4562 N 422.737 -1.36956 0.779787 0
M  V30 4563 C 423.985 -1.99097 0.347079 0
M  V30 4564 C 424.306 -1.62206 -1.08232 0
M  V30 4565 O 423.576 -0.891373 -1.74446 0
M  V30 4566 H 422.156 -0.736409 0.125342 0
M  V30 4567 H 424.818 -1.67308 0.999696 0
M  V30 4568 H 423.914 -3.09107 0.431162 0
M  V30 4569 N 424.215 -0.530993 -1.48385 0
M  V30 4570 C 425.461 0.00274135 -2.028 0
M  V30 4571 C 425.794 1.33838 -1.40716 0
M  V30 4572 O 425.069 1.86465 -0.553277 0
M  V30 4573 C 425.352 0.123676 -3.59888 0
M  V30 4574 C 425.205 -1.2372 -4.3245 0
M  V30 4575 C 426.524 0.849967 -4.31814 0
M  V30 4576 H 423.643 -0.000477758 -0.737 0
M  V30 4577 H 426.285 -0.688217 -1.77098 0
M  V30 4578 H 424.435 0.712157 -3.81917 0
M  V30 4579 H 426.107 -1.86687 -4.21836 0
M  V30 4580 H 424.35 -1.81882 -3.93829 0
M  V30 4581 H 425.021 -1.10557 -5.40815 0
M  V30 4582 H 427.497 0.350572 -4.14621 0
M  V30 4583 H 426.373 0.903486 -5.41413 0
M  V30 4584 H 426.634 1.90047 -3.99167 0
M  V30 4585 N 425.693 1.55336 -0.266172 0
M  V30 4586 C 426.626 2.18256 0.666296 0
M  V30 4587 C 427.604 1.14064 1.1588 0
M  V30 4588 O 428.788 1.42546 1.23341 0
M  V30 4589 C 425.915 2.79867 1.90768 0
M  V30 4590 C 424.961 3.97283 1.55141 0
M  V30 4591 S 425.794 5.31694 0.637313 0
M  V30 4592 C 426.95 5.96769 1.88727 0
M  V30 4593 H 427.183 2.97008 0.131647 0
M  V30 4594 H 424.716 1.54317 -0.0504869 0
M  V30 4595 H 426.674 3.15996 2.62025 0
M  V30 4596 H 425.335 2.01025 2.41346 0
M  V30 4597 H 424.528 4.3905 2.4749 0
M  V30 4598 H 424.13 3.6253 0.919113 0
M  V30 4599 H 426.422 6.15458 2.83227 0
M  V30 4600 H 427.365 6.91752 1.51276 0
M  V30 4601 H 427.773 5.26034 2.04814 0
M  V30 4602 N 427.171 -0.0066808 1.57599 0
M  V30 4603 C 428.104 -1.03397 2.03431 0
M  V30 4604 C 429.082 -1.33872 0.922877 0
M  V30 4605 O 430.266 -1.4615 1.19048 0
M  V30 4606 C 427.393 -2.36325 2.42628 0
M  V30 4607 C 426.439 -2.21557 3.64438 0
M  V30 4608 S 427.272 -1.54789 5.12641 0
M  V30 4609 C 428.428 -2.8916 5.55101 0
M  V30 4610 H 428.661 -0.643687 2.90248 0
M  V30 4611 H 426.194 -0.217349 1.52863 0
M  V30 4612 H 428.152 -3.12759 2.65879 0
M  V30 4613 H 426.813 -2.72495 1.56222 0
M  V30 4614 H 426.006 -3.1974 3.89592 0
M  V30 4615 H 425.608 -1.53267 3.41153 0
M  V30 4616 H 427.9 -3.8547 5.57153 0
M  V30 4617 H 428.843 -2.68713 6.55133 0
M  V30 4618 H 429.251 -2.92762 4.82649 0
M  V30 4619 N 428.649 -1.55105 -0.279332 0
M  V30 4620 C 429.599 -1.83937 -1.34727 0
M  V30 4621 C 430.583 -0.69785 -1.44979 0
M  V30 4622 O 431.775 -0.95904 -1.48766 0
M  V30 4623 C 428.904 -2.1092 -2.70864 0
M  V30 4624 C 427.99 -3.31314 -2.64748 0
M  V30 4625 N 428.381 -4.51371 -2.2825 0
M  V30 4626 C 426.679 -3.33777 -2.95819 0
M  V30 4627 C 427.38 -5.33447 -2.31969 0
M  V30 4628 N 426.356 -4.71697 -2.7019 0
M  V30 4629 H 430.158 -2.74309 -1.05506 0
M  V30 4630 H 427.672 -1.54896 -0.487959 0
M  V30 4631 H 429.669 -2.2973 -3.47893 0
M  V30 4632 H 428.329 -1.21828 -3.00979 0
M  V30 4633 H 429.34 -4.77584 -2.00335 0
M  V30 4634 H 426.017 -2.54858 -3.30687 0
M  V30 4635 H 427.407 -6.39424 -2.06365 0
M  V30 4636 N 430.127 0.543554 -1.4793 0
M  V30 4637 C 431.077 1.64527 -1.57844 0
M  V30 4638 C 432.061 1.54869 -0.436408 0
M  V30 4639 O 433.253 1.63119 -0.687101 0
M  V30 4640 C 430.382 3.03281 -1.6086 0
M  V30 4641 C 429.468 3.18093 -2.80495 0
M  V30 4642 N 429.859 3.02923 -4.05057 0
M  V30 4643 C 428.157 3.49121 -2.77543 0
M  V30 4644 C 428.858 3.20791 -4.85251 0
M  V30 4645 N 427.834 3.47749 -4.17818 0
M  V30 4646 H 431.636 1.51388 -2.5191 0
M  V30 4647 H 429.15 0.748671 -1.44113 0
M  V30 4648 H 431.147 3.82403 -1.66054 0
M  V30 4649 H 429.807 3.17521 -0.678996 0
M  V30 4650 H 430.818 2.79966 -4.35705 0
M  V30 4651 H 427.495 3.69804 -1.93781 0
M  V30 4652 H 428.885 3.13915 -5.9406 0
M  V30 4653 N 431.605 1.3629 0.791371 0
M  V30 4654 C 432.83 1.33726 1.58531 0
M  V30 4655 C 433.255 -0.0794933 1.87932 0
M  V30 4656 O 432.613 -1.05087 1.47738 0
M  V30 4657 C 432.661 2.16425 2.88431 0
M  V30 4658 O 431.765 1.5554 3.81944 0
M  V30 4659 H 431.106 0.457793 0.480959 0
M  V30 4660 H 433.636 1.79547 0.981031 0
M  V30 4661 H 433.646 2.28933 3.37718 0
M  V30 4662 H 432.321 3.19415 2.66359 0
M  V30 4663 H 430.898 1.51961 3.40532 0
M  V30 4664 N 433.083 -1.0153 1.20538 0
M  V30 4665 C 434.031 -2.12215 0.952235 0
M  V30 4666 C 435.025 -1.69123 -0.0968735 0
M  V30 4667 O 436.231 -1.7992 0.0536006 0
M  V30 4668 H 432.606 -0.693576 0.290613 0
M  V30 4669 H 434.577 -2.3075 1.89201 0
M  V30 4670 C 433.326 -3.43755 0.522287 0
M  V30 4671 H 432.649 -3.7734 1.32115 0
M  V30 4672 H 434.089 -4.22254 0.384389 0
M  V30 4673 C 432.548 -3.28088 -0.765489 0
M  V30 4674 O 433.078 -3.57921 -1.8236 0
M  V30 4675 N 431.284 -2.81333 -0.728011 0
M  V30 4676 H 430.831 -2.57255 0.133332 0
M  V30 4677 H 430.789 -2.71232 -1.58999 0
M  V30 4678 N 434.561 -1.01147 -1.20859 0
M  V30 4679 C 435.491 -0.597663 -2.25722 0
M  V30 4680 C 436.472 0.384744 -1.65692 0
M  V30 4681 O 437.657 0.271303 -1.92296 0
M  V30 4682 C 434.787 0.0700149 -3.47229 0
M  V30 4683 C 433.741 -0.832843 -4.19819 0
M  V30 4684 C 433.067 -0.0312202 -5.34691 0
M  V30 4685 C 434.367 -2.1385 -4.76514 0
M  V30 4686 H 436.061 -1.47423 -2.60589 0
M  V30 4687 H 433.607 -0.710301 -1.25263 0
M  V30 4688 H 435.56 0.37103 -4.19763 0
M  V30 4689 H 434.284 0.981259 -3.11511 0
M  V30 4690 H 432.943 -1.11778 -3.49144 0
M  V30 4691 H 432.591 0.881515 -4.95215 0
M  V30 4692 H 432.291 -0.632434 -5.84187 0
M  V30 4693 H 433.815 0.26346 -6.10031 0
M  V30 4694 H 435.229 -1.9002 -5.40893 0
M  V30 4695 H 433.626 -2.69012 -5.36426 0
M  V30 4696 H 434.696 -2.80495 -3.95538 0
M  V30 4697 N 436.039 1.36541 -0.78704 0
M  V30 4698 C 437.288 1.98552 -0.35494 0
M  V30 4699 C 437.601 1.63171 1.07864 0
M  V30 4700 O 438.807 2.18399 1.61289 0
M  V30 4701 C 437.263 3.55136 -0.583671 0
M  V30 4702 C 436.871 3.99444 -2.02851 0
M  V30 4703 C 438.615 4.2395 -0.215957 0
M  V30 4704 C 436.522 5.48796 -2.20403 0
M  V30 4705 H 435.452 0.742888 -0.128972 0
M  V30 4706 H 438.103 1.5587 -0.968337 0
M  V30 4707 H 436.485 3.95875 0.0994046 0
M  V30 4708 H 437.659 3.6991 -2.74779 0
M  V30 4709 H 435.974 3.43459 -2.35425 0
M  V30 4710 H 438.571 5.33709 -0.325405 0
M  V30 4711 H 438.914 4.07827 0.835646 0
M  V30 4712 H 439.447 3.88565 -0.852175 0
M  V30 4713 H 436.186 5.69864 -3.23937 0
M  V30 4714 H 435.706 5.79964 -1.52977 0
M  V30 4715 H 437.385 6.14986 -2.01002 0
M  V30 4716 N 437.518 0.538854 1.48102 0
M  V30 4717 C 438.481 -0.208395 2.28251 0
M  V30 4718 C 439.481 -0.859656 1.35892 0
M  V30 4719 O 440.671 -0.71834 1.58699 0
M  V30 4720 C 437.803 -1.30252 3.15035 0
M  V30 4721 H 438.996 0.495407 2.9578 0
M  V30 4722 H 436.549 0.295112 1.53489 0
M  V30 4723 H 437.284 -2.0393 2.52157 0
M  V30 4724 H 437.069 -0.840551 3.82985 0
M  V30 4725 H 438.559 -1.82787 3.75471 0
M  V30 4726 N 438.996 -1.55193 0.274407 0
M  V30 4727 C 440.244 -1.99187 -0.341902 0
M  V30 4728 C 440.565 -1.16422 -1.56431 0
M  V30 4729 O 439.835 -0.253573 -1.94252 0
M  V30 4730 H 438.415 -0.735721 -0.129317 0
M  V30 4731 H 441.077 -1.91168 0.379578 0
M  V30 4732 H 440.173 -3.05629 -0.632253 0
M  V30 4733 N 440.474 -0.00167713 -1.576 0
M  V30 4734 C 441.407 1.02317 -2.03977 0
M  V30 4735 C 442.385 1.33381 -0.929963 0
M  V30 4736 O 443.569 1.45517 -1.19822 0
M  V30 4737 C 440.696 2.35035 -2.43878 0
M  V30 4738 C 439.742 2.19621 -3.65607 0
M  V30 4739 S 440.575 1.52068 -5.13455 0
M  V30 4740 C 441.731 2.86212 -5.56627 0
M  V30 4741 H 441.964 0.628285 -2.90585 0
M  V30 4742 H 439.497 0.209239 -1.52976 0
M  V30 4743 H 441.455 3.11345 -2.67534 0
M  V30 4744 H 440.116 2.71663 -1.57665 0
M  V30 4745 H 439.309 3.1767 -3.91282 0
M  V30 4746 H 438.911 1.51455 -3.41961 0
M  V30 4747 H 441.203 3.82509 -5.59189 0
M  V30 4748 H 442.146 2.65235 -6.56549 0
M  V30 4749 H 442.554 2.90199 -4.84195 0
M  V30 4750 N 441.952 1.55251 0.271103 0
M  V30 4751 C 443.18 1.79974 1.02064 0
M  V30 4752 C 443.595 0.574003 1.79863 0
M  V30 4753 O 442.952 -0.456962 1.76686 0
M  V30 4754 C 443.003 3.02603 1.97772 0
M  V30 4755 O 442.724 4.20443 1.23124 0
M  V30 4756 C 444.225 3.39944 2.84522 0
M  V30 4757 H 441.445 0.599489 0.301419 0
M  V30 4758 H 443.989 2.02268 0.301313 0
M  V30 4759 H 442.144 2.8243 2.65165 0
M  V30 4760 H 442.558 4.89783 1.87651 0
M  V30 4761 H 444.032 4.28915 3.47471 0
M  V30 4762 H 444.509 2.59432 3.54389 0
M  V30 4763 H 445.115 3.62383 2.22618 0
M  V30 4764 N 443.43 -0.535701 1.48216 0
M  V30 4765 C 444.678 -1.28928 1.55634 0
M  V30 4766 C 444.999 -1.93645 0.229514 0
M  V30 4767 O 444.269 -1.81038 -0.74846 0
M  V30 4768 H 442.849 -0.47884 0.573342 0
M  V30 4769 H 445.511 -0.623853 1.84646 0
M  V30 4770 H 444.607 -2.07157 2.33436 0
M  V30 4771 N 444.908 -1.36708 -0.784132 0
M  V30 4772 C 445.84 -1.27333 -1.90575 0
M  V30 4773 C 446.853 -0.191706 -1.61667 0
M  V30 4774 O 448.042 -0.446854 -1.72816 0
M  V30 4775 C 445.142 -0.943177 -3.25511 0
M  V30 4776 C 444.315 -2.12776 -3.82158 0
M  V30 4777 C 443.374 -1.76983 -4.95544 0
M  V30 4778 O 442.4 -2.49134 -5.11782 0
M  V30 4779 N 443.602 -0.706624 -5.76183 0
M  V30 4780 H 446.367 -2.23974 -1.99138 0
M  V30 4781 H 443.928 -1.30171 -0.962656 0
M  V30 4782 H 445.92 -0.684799 -3.98864 0
M  V30 4783 H 444.49 -0.0657333 -3.12531 0
M  V30 4784 H 443.71 -2.54863 -3.0073 0
M  V30 4785 H 444.998 -2.91904 -4.16737 0
M  V30 4786 H 444.396 -0.107643 -5.65598 0
M  V30 4787 H 442.953 -0.50808 -6.49817 0
M  V30 4788 N 446.386 1.0089 -1.21074 0
M  V30 4789 C 447.626 1.76142 -1.03699 0
M  V30 4790 C 447.99 1.87292 0.422587 0
M  V30 4791 O 449.191 2.59068 0.716752 0
M  V30 4792 C 447.462 3.13805 -1.7106 0
M  V30 4793 S 449.021 4.04996 -1.68889 0
M  V30 4794 H 445.839 0.606113 -0.371683 0
M  V30 4795 H 448.441 1.20744 -1.53756 0
M  V30 4796 H 447.145 3.0332 -2.76451 0
M  V30 4797 H 446.676 3.74276 -1.21166 0
M  V30 4798 H 448.691 4.90842 -0.727211 0
M  V30 4799 N 447.864 1.01787 1.20321 0
M  V30 4800 C 448.774 0.598898 2.26827 0
M  V30 4801 C 449.79 -0.36418 1.70146 0
M  V30 4802 O 450.966 -0.224812 2.00141 0
M  V30 4803 C 448.031 -0.0549769 3.46656 0
M  V30 4804 C 447.092 0.954205 4.18561 0
M  V30 4805 C 446.325 0.331439 5.3267 0
M  V30 4806 O 446.548 -0.86851 5.63749 0
M  V30 4807 O 445.482 1.0488 5.92692 0
M  V30 4808 H 449.308 1.48562 2.64883 0
M  V30 4809 H 446.893 0.787434 1.26964 0
M  V30 4810 H 448.775 -0.420102 4.19301 0
M  V30 4811 H 447.45 -0.915876 3.10473 0
M  V30 4812 H 446.357 1.37072 3.48083 0
M  V30 4813 H 447.69 1.78511 4.58688 0
M  V30 4814 N 449.342 -1.36122 0.79427 0
M  V30 4815 C 450.758 -1.5232 0.476525 0
M  V30 4816 C 450.958 -1.74685 -1.00436 0
M  V30 4817 O 450.014 -1.78115 -1.78973 0
M  V30 4818 C 451.327 -2.70607 1.31119 0
M  V30 4819 C 452.875 -2.8448 1.30537 0
M  V30 4820 C 453.35 -4.05778 2.12387 0
M  V30 4821 N 454.841 -4.12933 2.09859 0
M  V30 4822 C 455.576 -5.05876 2.69957 0
M  V30 4823 N 455.072 -6.04232 3.38934 0
M  V30 4824 N 456.865 -4.98528 2.59665 0
M  V30 4825 H 449.016 -1.1986 1.75349 0
M  V30 4826 H 451.279 -0.585418 0.745647 0
M  V30 4827 H 450.985 -2.60619 2.36158 0
M  V30 4828 H 450.859 -3.64888 0.955843 0
M  V30 4829 H 453.246 -2.93927 0.262876 0
M  V30 4830 H 453.327 -1.91093 1.70051 0
M  V30 4831 H 452.971 -3.97092 3.1667 0
M  V30 4832 H 452.901 -4.98323 1.70242 0
M  V30 4833 H 455.392 -3.42515 1.59662 0
M  V30 4834 H 455.705 -6.71724 3.82109 0
M  V30 4835 H 454.05 -6.04443 3.43036 0
M  V30 4836 H 457.241 -4.20641 2.05375 0
M  V30 4837 H 457.414 -5.70773 3.06793 0
M  V30 4838 N 450.82 -0.546701 -1.47814 0
M  V30 4839 C 452.069 -0.0166497 -2.01693 0
M  V30 4840 C 452.382 1.33721 -1.42752 0
M  V30 4841 O 453.588 1.95658 -1.8823 0
M  V30 4842 C 452.044 0.0206769 -3.59894 0
M  V30 4843 C 451.652 -1.3293 -4.27824 0
M  V30 4844 C 453.396 0.498674 -4.21561 0
M  V30 4845 C 451.303 -1.25165 -5.78003 0
M  V30 4846 H 450.233 -0.0024541 -0.753996 0
M  V30 4847 H 452.884 -0.692984 -1.69912 0
M  V30 4848 H 451.266 0.76244 -3.88591 0
M  V30 4849 H 452.44 -2.08795 -4.10781 0
M  V30 4850 H 450.755 -1.74438 -3.78101 0
M  V30 4851 H 453.352 0.575 -5.31599 0
M  V30 4852 H 453.695 1.5083 -3.88016 0
M  V30 4853 H 454.228 -0.18791 -3.97356 0
M  V30 4854 H 450.967 -2.23695 -6.1615 0
M  V30 4855 H 450.487 -0.53464 -5.97412 0
M  V30 4856 H 452.166 -0.949299 -6.39998 0
M  V30 4857 N 452.299 1.55045 -0.282633 0
M  V30 4858 C 453.71 1.85473 0.213655 0
M  V30 4859 C 454.061 1.20465 1.54863 0
M  V30 4860 O 453.186 0.495676 2.10647 0
M  V30 4861 C 453.781 3.36496 0.394445 0
M  V30 4862 C 452.34 3.67022 0.834961 0
M  V30 4863 C 451.487 2.77218 -0.0674081 0
M  V30 4864 H 454.438 1.50478 -0.504202 0
M  V30 4865 H 454.459 3.60007 1.23186 0
M  V30 4866 H 453.971 3.83782 -0.577326 0
M  V30 4867 H 452.072 3.25241 1.81794 0
M  V30 4868 H 452.185 4.74433 0.667075 0
M  V30 4869 H 450.549 2.5069 0.450196 0
M  V30 4870 H 451.332 3.2732 -1.0352 0
M  V30 4871 N 453.777 0.010035 1.57597 0
M  V30 4872 C 455.025 -0.671371 1.90623 0
M  V30 4873 C 455.346 -1.73753 0.885151 0
M  V30 4874 O 454.616 -1.95752 -0.0760611 0
M  V30 4875 H 453.196 -0.250968 0.703579 0
M  V30 4876 H 455.858 0.0533325 1.94827 0
M  V30 4877 H 454.954 -1.13626 2.90681 0
M  V30 4878 N 455.255 -1.55392 -0.262866 0
M  V30 4879 C 456.185 -1.91978 -1.32917 0
M  V30 4880 C 457.166 -0.7828 -1.51017 0
M  V30 4881 O 458.351 -1.04178 -1.63892 0
M  V30 4882 C 455.481 -2.20055 -2.68687 0
M  V30 4883 C 454.435 -3.35854 -2.65304 0
M  V30 4884 C 453.761 -3.49435 -4.04721 0
M  V30 4885 C 455.061 -4.71977 -2.23685 0
M  V30 4886 H 456.755 -2.81292 -1.02544 0
M  V30 4887 H 454.301 -1.3534 -0.491846 0
M  V30 4888 H 456.254 -2.44237 -3.43404 0
M  V30 4889 H 454.978 -1.27551 -3.00663 0
M  V30 4890 H 453.637 -3.11655 -1.93045 0
M  V30 4891 H 453.285 -2.54379 -4.33936 0
M  V30 4892 H 452.985 -4.27297 -4.0335 0
M  V30 4893 H 454.509 -3.7592 -4.81161 0
M  V30 4894 H 455.923 -4.95637 -2.88127 0
M  V30 4895 H 454.32 -5.52828 -2.33456 0
M  V30 4896 H 455.39 -4.70115 -1.18827 0
M  V30 4897 N 456.733 0.527833 -1.48498 0
M  V30 4898 C 457.981 1.28101 -1.56316 0
M  V30 4899 C 458.302 1.9352 -0.239781 0
M  V30 4900 O 457.572 1.81433 0.738849 0
M  V30 4901 H 456.152 0.475793 -0.575873 0
M  V30 4902 H 458.814 0.614052 -1.84974 0
M  V30 4903 H 457.91 2.05916 -2.34532 0
M  V30 4904 N 458.211 1.37122 0.776871 0
M  V30 4905 C 459.622 1.28667 1.35284 0
M  V30 4906 C 459.973 -0.0680035 1.96082 0
M  V30 4907 O 459.098 -0.969743 1.93455 0
M  V30 4908 C 459.693 2.32997 2.45963 0
M  V30 4909 C 458.252 2.28191 2.99342 0
M  V30 4910 C 457.399 2.17101 1.72517 0
M  V30 4911 H 460.35 1.47819 0.577527 0
M  V30 4912 H 460.371 1.97366 3.2531 0
M  V30 4913 H 459.883 3.3158 2.01684 0
M  V30 4914 H 457.984 1.33115 3.4801 0
M  V30 4915 H 458.097 3.21397 3.55304 0
M  V30 4916 H 456.461 1.63562 1.95242 0
M  V30 4917 H 457.244 3.17591 1.30348 0
M  V30 4918 N 459.689 -1.00246 1.21608 0
M  V30 4919 C 460.636 -2.09073 0.977613 0
M  V30 4920 C 461.606 -1.65815 -0.097297 0
M  V30 4921 O 462.791 -1.90734 0.0503445 0
M  V30 4922 C 459.931 -3.40671 0.551133 0
M  V30 4923 C 459.044 -3.97326 1.69576 0
M  V30 4924 C 458.179 -5.17043 1.2182 0
M  V30 4925 C 457.218 -5.65813 2.335 0
M  V30 4926 N 456.355 -6.76778 1.86859 0
M  V30 4927 H 461.195 -2.28806 1.90924 0
M  V30 4928 H 458.732 -1.12186 0.951452 0
M  V30 4929 H 460.69 -4.16225 0.285097 0
M  V30 4930 H 459.32 -3.20967 -0.343489 0
M  V30 4931 H 458.372 -3.18734 2.07637 0
M  V30 4932 H 459.684 -4.29511 2.53617 0
M  V30 4933 H 458.838 -5.99852 0.908975 0
M  V30 4934 H 457.577 -4.86458 0.347869 0
M  V30 4935 H 456.582 -4.81599 2.65222 0
M  V30 4936 H 457.807 -5.98427 3.21033 0
M  V30 4937 H 455.753 -6.47994 1.02174 0
M  V30 4938 H 455.67 -7.08231 2.64471 0
M  V30 4939 H 456.938 -7.63116 1.58978 0
M  V30 4940 N 461.167 -1.02423 -1.1978 0
M  V30 4941 C 462.444 -0.632802 -1.85081 0
M  V30 4942 C 462.824 0.888745 -1.9148 0
M  V30 4943 O 462.172 1.78357 -1.42832 0
M  V30 4944 C 462.382 -1.28947 -3.24305 0
M  V30 4945 C 463.73 -1.40976 -4.00513 0
M  V30 4946 O 464.754 -1.24628 -3.33686 0
M  V30 4947 O 463.613 -1.67467 -5.20209 0
M  V30 4948 H 460.707 -0.219348 -0.79738 0
M  V30 4949 H 463.253 -1.12209 -1.27307 0
M  V30 4950 H 462.025 -2.3288 -3.14456 0
M  V30 4951 H 461.648 -0.787748 -3.89718 0
M  V30 4952 N 462.645 1.35699 -0.801477 0
M  V30 4953 C 463.873 2.03157 -0.391768 0
M  V30 4954 C 464.288 1.60412 0.995668 0
M  V30 4955 O 463.645 0.799228 1.64069 0
M  V30 4956 C 463.696 3.58566 -0.459671 0
M  V30 4957 O 463.417 3.99756 -1.7924 0
M  V30 4958 C 464.918 4.4328 -0.0421205 0
M  V30 4959 H 462.138 0.651688 -0.159825 0
M  V30 4960 H 464.682 1.73426 -1.08368 0
M  V30 4961 H 462.837 3.86963 0.183939 0
M  V30 4962 H 463.251 4.94387 -1.75162 0
M  V30 4963 H 464.725 5.51821 -0.140754 0
M  V30 4964 H 465.202 4.27383 1.01196 0
M  V30 4965 H 465.808 4.20168 -0.658687 0
M  V30 4966 N 464.123 0.554532 1.47522 0
M  V30 4967 C 465.353 0.0342074 2.06572 0
M  V30 4968 C 465.761 -1.26375 1.40805 0
M  V30 4969 O 465.104 -1.7683 0.49769 0
M  V30 4970 C 465.166 -0.235096 3.5873 0
M  V30 4971 C 464.83 0.973024 4.46521 0
M  V30 4972 C 465.827 1.8779 4.848 0
M  V30 4973 C 463.512 1.18694 4.88075 0
M  V30 4974 C 465.506 2.98039 5.63428 0
M  V30 4975 C 463.193 2.29254 5.66468 0
M  V30 4976 C 464.191 3.18757 6.04055 0
M  V30 4977 O 463.879 4.27401 6.8087 0
M  V30 4978 H 463.611 0.041587 0.67472 0
M  V30 4979 H 466.165 0.766748 1.90552 0
M  V30 4980 H 464.395 -1.02191 3.72953 0
M  V30 4981 H 466.084 -0.700477 3.9981 0
M  V30 4982 H 466.85 1.72467 4.53299 0
M  V30 4983 H 462.729 0.49947 4.58286 0
M  V30 4984 H 466.273 3.67926 5.92685 0
M  V30 4985 H 462.17 2.4455 5.97382 0
M  V30 4986 H 462.938 4.25415 6.9926 0
M  V30 4987 N 465.601 -1.54893 0.290851 0
M  V30 4988 C 466.85 -1.99111 -0.322113 0
M  V30 4989 C 467.163 -1.18283 -1.55784 0
M  V30 4990 O 468.369 -1.5272 -2.24475 0
M  V30 4991 C 466.825 -3.54442 -0.624438 0
M  V30 4992 C 466.433 -4.44066 0.592373 0
M  V30 4993 C 468.177 -4.07211 -1.19916 0
M  V30 4994 C 466.084 -5.90812 0.263762 0
M  V30 4995 H 465.014 -0.743712 -0.124133 0
M  V30 4996 H 467.665 -1.79132 0.39797 0
M  V30 4997 H 466.047 -3.70281 -1.40384 0
M  V30 4998 H 467.221 -4.39999 1.36886 0
M  V30 4999 H 465.536 -4.02015 1.08502 0
M  V30 5000 H 468.133 -5.14407 -1.45909 0
M  V30 5001 H 468.476 -3.57196 -2.13815 0
M  V30 5002 H 469.009 -3.94873 -0.481687 0
M  V30 5003 H 465.748 -6.44955 1.17105 0
M  V30 5004 H 465.268 -5.97911 -0.475655 0
M  V30 5005 H 466.947 -6.46852 -0.138354 0
M  V30 5006 N 467.08 -0.0183926 -1.57589 0
M  V30 5007 C 468.328 0.661253 -1.90976 0
M  V30 5008 C 468.649 1.73281 -0.894353 0
M  V30 5009 O 467.919 1.9579 0.0656788 0
M  V30 5010 H 466.499 0.247233 -0.704901 0
M  V30 5011 H 469.161 -0.0636639 -1.94796 0
M  V30 5012 H 468.257 1.12083 -2.9128 0
M  V30 5013 N 468.558 1.5553 0.254621 0
M  V30 5014 C 469.788 1.80784 1.00004 0
M  V30 5015 C 470.196 0.59071 1.79742 0
M  V30 5016 O 469.539 -0.449988 1.78103 0
M  V30 5017 C 469.601 2.99268 1.99196 0
M  V30 5018 C 469.265 4.35595 1.38224 0
M  V30 5019 C 470.262 5.13884 0.788611 0
M  V30 5020 C 467.947 4.82281 1.40393 0
M  V30 5021 C 469.941 6.37004 0.224783 0
M  V30 5022 C 467.628 6.05351 0.836243 0
M  V30 5023 C 468.626 6.82551 0.24769 0
M  V30 5024 O 468.314 8.03297 -0.311249 0
M  V30 5025 H 468.046 0.60565 0.300274 0
M  V30 5026 H 470.6 2.03411 0.285143 0
M  V30 5027 H 468.83 2.72377 2.74496 0
M  V30 5028 H 470.519 3.11682 2.60018 0
M  V30 5029 H 471.285 4.78938 0.764423 0
M  V30 5030 H 467.164 4.22189 1.85142 0
M  V30 5031 H 470.708 6.97203 -0.235235 0
M  V30 5032 H 466.605 6.39776 0.857733 0
M  V30 5033 H 467.373 8.1825 -0.20237 0
M  V30 5034 N 470.036 -0.519951 1.48776 0
M  V30 5035 C 470.966 -1.63253 1.66945 0
M  V30 5036 C 471.947 -1.62014 0.518224 0
M  V30 5037 O 473.132 -1.79053 0.751919 0
M  V30 5038 C 470.262 -3.0181 1.71836 0
M  V30 5039 C 469.216 -3.17911 2.8656 0
M  V30 5040 C 468.542 -4.5763 2.76548 0
M  V30 5041 C 469.842 -2.99729 4.27738 0
M  V30 5042 H 471.536 -1.48302 2.6009 0
M  V30 5043 H 469.082 -0.712026 1.25165 0
M  V30 5044 H 471.035 -3.79525 1.83135 0
M  V30 5045 H 469.759 -3.17806 0.752775 0
M  V30 5046 H 468.418 -2.42616 2.74833 0
M  V30 5047 H 468.066 -4.70476 1.77937 0
M  V30 5048 H 467.766 -4.69346 3.53536 0
M  V30 5049 H 469.29 -5.37431 2.89828 0
M  V30 5050 H 470.704 -3.67228 4.40246 0
M  V30 5051 H 469.101 -3.22932 5.05801 0
M  V30 5052 H 470.171 -1.96047 4.43502 0
M  V30 5053 N 471.514 -1.37532 -0.769588 0
M  V30 5054 C 472.925 -1.29382 -1.346 0
M  V30 5055 C 473.276 0.0576039 -1.96115 0
M  V30 5056 O 472.401 0.95947 -1.93967 0
M  V30 5057 C 472.996 -2.34298 -2.44724 0
M  V30 5058 C 471.555 -2.29776 -2.98128 0
M  V30 5059 C 470.702 -2.18013 -1.71364 0
M  V30 5060 H 473.653 -1.48123 -0.56968 0
M  V30 5061 H 473.674 -1.99089 -3.24259 0
M  V30 5062 H 473.186 -3.32645 -1.99922 0
M  V30 5063 H 471.287 -1.34959 -3.47299 0
M  V30 5064 H 471.4 -3.23276 -3.53595 0
M  V30 5065 H 469.764 -1.64595 -1.94372 0
M  V30 5066 H 470.547 -3.18278 -1.28662 0
M  V30 5067 N 472.992 0.995999 -1.22138 0
M  V30 5068 C 473.922 2.10387 -1.01289 0
M  V30 5069 C 474.903 1.69975 0.0651454 0
M  V30 5070 O 476.088 1.9396 -0.0964628 0
M  V30 5071 C 473.218 3.42312 -0.586517 0
M  V30 5072 C 472.172 3.96558 -1.61014 0
M  V30 5073 C 471.498 5.24494 -1.0397 0
M  V30 5074 C 472.798 4.27595 -2.99933 0
M  V30 5075 H 474.492 2.28086 -1.93951 0
M  V30 5076 H 472.038 1.09607 -0.933928 0
M  V30 5077 H 473.991 4.19223 -0.427793 0
M  V30 5078 H 472.715 3.24431 0.375761 0
M  V30 5079 H 471.374 3.21776 -1.75658 0
M  V30 5080 H 471.022 5.02953 -0.0688703 0
M  V30 5081 H 470.722 5.61755 -1.72352 0
M  V30 5082 H 472.246 6.04042 -0.892494 0
M  V30 5083 H 473.66 4.95315 -2.8868 0
M  V30 5084 H 472.057 4.76021 -3.6541 0
M  V30 5085 H 473.127 3.35498 -3.50099 0
M  V30 5086 N 474.47 1.03057 1.19235 0
M  V30 5087 C 475.433 0.617418 2.20727 0
M  V30 5088 C 476.433 -0.319856 1.57587 0
M  V30 5089 O 477.623 -0.106633 1.73873 0
M  V30 5090 C 474.755 -0.096296 3.40764 0
M  V30 5091 H 475.948 1.51544 2.58794 0
M  V30 5092 H 473.501 0.821949 1.32942 0
M  V30 5093 H 474.236 -1.00859 3.08217 0
M  V30 5094 H 474.021 0.577217 3.87828 0
M  V30 5095 H 475.511 -0.372219 4.15938 0
M  V30 5096 N 475.948 -1.35272 0.808662 0
M  V30 5097 C 476.898 -2.27181 0.193124 0
M  V30 5098 C 477.882 -1.47871 -0.634265 0
M  V30 5099 O 479.074 -1.70048 -0.491182 0
M  V30 5100 C 476.203 -3.36979 -0.655751 0
M  V30 5101 C 475.289 -4.23712 0.181481 0
M  V30 5102 N 475.68 -4.90225 1.24551 0
M  V30 5103 C 473.978 -4.45985 -0.0365493 0
M  V30 5104 C 474.679 -5.54537 1.75682 0
M  V30 5105 N 473.655 -5.33107 1.06294 0
M  V30 5106 H 477.457 -2.76101 1.00724 0
M  V30 5107 H 474.971 -1.48823 0.650029 0
M  V30 5108 H 476.968 -4.01774 -1.11279 0
M  V30 5109 H 475.628 -2.89611 -1.46819 0
M  V30 5110 H 476.639 -4.91641 1.62818 0
M  V30 5111 H 473.316 -4.09409 -0.817964 0
M  V30 5112 H 474.706 -6.17597 2.64621 0
M  V30 5113 N 477.426 -0.562348 -1.47226 0
M  V30 5114 C 478.672 -0.0402761 -2.0276 0
M  V30 5115 C 479.005 1.30823 -1.43523 0
M  V30 5116 O 478.28 1.85249 -0.592705 0
M  V30 5117 C 478.563 0.047311 -3.60069 0
M  V30 5118 C 478.416 -1.32865 -4.29729 0
M  V30 5119 C 479.735 0.758182 -4.3352 0
M  V30 5120 H 476.854 -0.0161105 -0.736824 0
M  V30 5121 H 479.496 -0.725628 -1.75598 0
M  V30 5122 H 477.646 0.630986 -3.83342 0
M  V30 5123 H 479.318 -1.95593 -4.17781 0
M  V30 5124 H 477.561 -1.90195 -3.89882 0
M  V30 5125 H 478.232 -1.22004 -5.38349 0
M  V30 5126 H 480.708 0.262546 -4.15271 0
M  V30 5127 H 479.584 0.78844 -5.43208 0
M  V30 5128 H 479.845 1.81537 -4.03109 0
M  V30 5129 N 478.904 1.54736 -0.299062 0
M  V30 5130 C 479.834 2.26409 0.571085 0
M  V30 5131 C 480.815 1.2629 1.13951 0
M  V30 5132 O 482 1.55059 1.16921 0
M  V30 5133 C 479.13 3.00338 1.74396 0
M  V30 5134 C 478.084 4.07588 1.30599 0
M  V30 5135 C 477.41 4.69222 2.56387 0
M  V30 5136 C 478.71 5.20455 0.438645 0
M  V30 5137 H 480.404 2.99388 -0.0266991 0
M  V30 5138 H 477.95 1.43993 -0.0142812 0
M  V30 5139 H 479.903 3.49198 2.35878 0
M  V30 5140 H 478.627 2.24934 2.36796 0
M  V30 5141 H 477.286 3.59575 0.71424 0
M  V30 5142 H 476.934 3.9046 3.17097 0
M  V30 5143 H 476.634 5.41653 2.27784 0
M  V30 5144 H 478.158 5.20844 3.18675 0
M  V30 5145 H 479.572 5.65221 0.959085 0
M  V30 5146 H 477.969 5.99594 0.246466 0
M  V30 5147 H 479.039 4.8192 -0.536738 0
M  V30 5148 N 480.382 0.0267497 1.57577 0
M  V30 5149 C 481.292 -0.971633 2.13533 0
M  V30 5150 C 482.308 -1.35868 1.08701 0
M  V30 5151 O 483.484 -1.44058 1.40746 0
M  V30 5152 C 480.549 -2.23622 2.64941 0
M  V30 5153 C 479.61 -1.90982 3.8448 0
M  V30 5154 C 478.843 -3.11411 4.33427 0
M  V30 5155 O 479.066 -4.23992 3.81558 0
M  V30 5156 O 478 -2.93848 5.25297 0
M  V30 5157 H 481.826 -0.525853 2.99113 0
M  V30 5158 H 479.411 -0.193712 1.48139 0
M  V30 5159 H 481.293 -2.97864 2.98086 0
M  V30 5160 H 479.968 -2.67386 1.82446 0
M  V30 5161 H 478.875 -1.14132 3.56265 0
M  V30 5162 H 480.208 -1.52036 4.6813 0
M  V30 5163 N 481.861 -1.55662 -0.24637 0
M  V30 5164 C 482.791 -1.93377 -1.30873 0
M  V30 5165 C 483.772 -0.798773 -1.50179 0
M  V30 5166 O 484.957 -1.0591 -1.62778 0
M  V30 5167 C 482.087 -2.22893 -2.66338 0
M  V30 5168 C 481.041 -3.38649 -2.61727 0
M  V30 5169 C 480.367 -3.53708 -4.00992 0
M  V30 5170 C 481.667 -4.74323 -2.18666 0
M  V30 5171 H 483.361 -2.82363 -0.995552 0
M  V30 5172 H 480.907 -1.35854 -0.477464 0
M  V30 5173 H 482.86 -2.47866 -3.40794 0
M  V30 5174 H 481.584 -1.30733 -2.99293 0
M  V30 5175 H 480.243 -3.13685 -1.89729 0
M  V30 5176 H 479.891 -2.58967 -4.31214 0
M  V30 5177 H 479.591 -4.31551 -3.98795 0
M  V30 5178 H 481.115 -3.81003 -4.77147 0
M  V30 5179 H 482.529 -4.98665 -2.82854 0
M  V30 5180 H 480.926 -5.55273 -2.27579 0
M  V30 5181 H 481.996 -4.71349 -1.13834 0
M  V30 5182 N 483.339 0.512053 -1.4905 0
M  V30 5183 C 484.567 1.29116 -1.61669 0
M  V30 5184 C 484.982 1.86655 -0.283787 0
M  V30 5185 O 484.339 1.67293 0.729331 0
M  V30 5186 C 484.39 2.4293 -2.67707 0
M  V30 5187 O 484.111 1.87758 -3.95826 0
M  V30 5188 C 485.612 3.34476 -2.90931 0
M  V30 5189 H 482.832 0.392009 -0.544583 0
M  V30 5190 H 485.376 0.615881 -1.95006 0
M  V30 5191 H 483.531 3.06308 -2.37179 0
M  V30 5192 H 483.945 2.62393 -4.54148 0
M  V30 5193 H 485.419 4.10642 -3.68886 0
M  V30 5194 H 485.896 3.90801 -2.00427 0
M  V30 5195 H 486.502 2.76874 -3.22832 0
M  V30 5196 N 484.817 1.37938 0.762283 0
M  V30 5197 C 485.78 1.34279 1.85747 0
M  V30 5198 C 486.78 0.244969 1.58923 0
M  V30 5199 O 487.97 0.501365 1.66829 0
M  V30 5200 C 485.102 1.08833 3.23061 0
M  V30 5201 H 486.295 2.31705 1.90401 0
M  V30 5202 H 483.848 1.23105 0.963057 0
M  V30 5203 H 484.583 0.119767 3.24079 0
M  V30 5204 H 484.368 1.88306 3.43923 0
M  V30 5205 H 485.858 1.08946 4.03138 0
M  V30 5206 N 486.295 -0.989507 1.22664 0
M  V30 5207 C 487.205 -2.11449 1.01619 0
M  V30 5208 C 488.221 -1.73962 -0.036545 0
M  V30 5209 O 489.397 -2.00788 0.156924 0
M  V30 5210 C 486.462 -3.41465 0.600204 0
M  V30 5211 C 485.523 -3.93033 1.72695 0
M  V30 5212 C 484.756 -5.16844 1.33071 0
M  V30 5213 O 484.979 -5.7001 0.210975 0
M  V30 5214 O 483.913 -5.6225 2.14845 0
M  V30 5215 H 487.739 -2.32088 1.9588 0
M  V30 5216 H 485.324 -1.09823 1.01289 0
M  V30 5217 H 487.206 -4.19695 0.37873 0
M  V30 5218 H 485.881 -3.22178 -0.313511 0
M  V30 5219 H 484.788 -3.15961 2.00298 0
M  V30 5220 H 486.121 -4.16758 2.61865 0
M  V30 5221 N 487.773 -1.03688 -1.18687 0
M  V30 5222 C 489.022 -0.733235 -1.879 0
M  V30 5223 C 489.335 0.741745 -1.8099 0
M  V30 5224 O 490.541 1.15875 -2.4553 0
M  V30 5225 C 488.997 -1.26127 -3.37076 0
M  V30 5226 C 488.605 -2.76461 -3.52524 0
M  V30 5227 C 490.349 -1.03398 -4.11715 0
M  V30 5228 C 488.256 -3.22642 -4.95637 0
M  V30 5229 H 487.186 -0.270584 -0.703776 0
M  V30 5230 H 489.837 -1.25222 -1.34133 0
M  V30 5231 H 488.219 -0.670165 -3.90288 0
M  V30 5232 H 489.393 -3.41296 -3.09602 0
M  V30 5233 H 487.708 -2.97559 -2.91286 0
M  V30 5234 H 490.305 -1.3542 -5.17267 0
M  V30 5235 H 490.648 0.0289246 -4.1629 0
M  V30 5236 H 491.181 -1.5895 -3.64664 0
M  V30 5237 H 487.92 -4.28296 -4.96228 0
M  V30 5238 H 487.44 -2.62539 -5.39289 0
M  V30 5239 H 489.119 -3.16444 -5.64333 0
M  V30 5240 N 489.251 1.34841 -0.815825 0
M  V30 5241 C 490.476 2.03261 -0.41226 0
M  V30 5242 C 490.901 1.61055 0.971751 0
M  V30 5243 O 490.259 0.7917 1.63101 0
M  V30 5244 C 490.307 3.56914 -0.514289 0
M  V30 5245 O 489.411 4.09728 0.468675 0
M  V30 5246 H 488.752 0.641664 -0.170771 0
M  V30 5247 H 491.282 1.72241 -1.10427 0
M  V30 5248 H 491.292 4.06156 -0.387457 0
M  V30 5249 H 489.967 3.86982 -1.52375 0
M  V30 5250 H 488.544 3.71681 0.301316 0
M  V30 5251 N 490.729 0.570148 1.46925 0
M  V30 5252 C 491.969 0.0534743 2.0433 0
M  V30 5253 C 492.333 -1.27729 1.4335 0
M  V30 5254 O 493.534 -1.88244 1.91879 0
M  V30 5255 C 491.805 -0.0244296 3.57392 0
M  V30 5256 S 493.364 -0.485351 4.36108 0
M  V30 5257 H 490.182 0.0313908 0.710307 0
M  V30 5258 H 492.784 0.759808 1.80131 0
M  V30 5259 H 491.488 0.948261 3.99295 0
M  V30 5260 H 491.019 -0.753922 3.86108 0
M  V30 5261 H 493.034 -1.74258 4.64595 0
M  V30 5262 N 492.207 -1.54576 0.307264 0
M  V30 5263 C 493.454 -2.00263 -0.300167 0
M  V30 5264 C 493.782 -1.19561 -1.53413 0
M  V30 5265 O 493.037 -0.261487 -1.93945 0
M  V30 5266 C 493.336 -3.50572 -0.695253 0
M  V30 5267 C 493.002 -4.48771 0.437679 0
M  V30 5268 C 491.664 -4.7534 0.748681 0
M  V30 5269 C 494.016 -5.0721 1.19949 0
M  V30 5270 C 491.344 -5.5761 1.8245 0
M  V30 5271 C 493.696 -5.90651 2.26527 0
M  V30 5272 C 492.36 -6.15528 2.58227 0
M  V30 5273 H 491.63 -0.732814 -0.109839 0
M  V30 5274 H 494.277 -1.86664 0.427661 0
M  V30 5275 H 492.582 -3.61814 -1.50326 0
M  V30 5276 H 494.279 -3.83352 -1.17653 0
M  V30 5277 H 490.869 -4.282 0.185187 0
M  V30 5278 H 495.053 -4.86679 0.972474 0
M  V30 5279 H 490.309 -5.75121 2.07476 0
M  V30 5280 H 494.483 -6.34957 2.86011 0
M  V30 5281 H 492.11 -6.79066 3.4172 0
M  V30 5282 N 493.685 -0.035106 -1.57561 0
M  V30 5283 C 494.913 0.652258 -1.9635 0
M  V30 5284 C 495.328 1.65317 -0.911897 0
M  V30 5285 O 494.685 1.82194 0.105657 0
M  V30 5286 C 494.736 1.35337 -3.35211 0
M  V30 5287 O 494.457 0.392548 -4.36338 0
M  V30 5288 C 495.958 2.13199 -3.88666 0
M  V30 5289 H 493.178 0.179444 -0.646561 0
M  V30 5290 H 495.722 -0.0966459 -2.04271 0
M  V30 5291 H 493.877 2.05362 -3.28489 0
M  V30 5292 H 494.291 0.891097 -5.16875 0
M  V30 5293 H 495.765 2.577 -4.88154 0
M  V30 5294 H 496.242 2.97353 -3.23231 0
M  V30 5295 H 496.848 1.48118 -3.98674 0
M  V30 5296 N 495.163 1.55791 0.238111 0
M  V30 5297 C 496.393 1.81834 0.980809 0
M  V30 5298 C 496.801 0.609741 1.79106 0
M  V30 5299 O 496.144 -0.431073 1.78571 0
M  V30 5300 C 496.206 3.01363 1.96011 0
M  V30 5301 C 495.87 4.37037 1.33597 0
M  V30 5302 C 496.867 5.14692 0.734063 0
M  V30 5303 C 494.552 4.83743 1.3527 0
M  V30 5304 C 496.546 6.37206 0.157208 0
M  V30 5305 C 494.233 6.06204 0.77199 0
M  V30 5306 C 495.231 6.82775 0.175282 0
M  V30 5307 O 494.919 8.02922 -0.396432 0
M  V30 5308 H 494.651 0.6088 0.293834 0
M  V30 5309 H 497.205 2.03702 0.263552 0
M  V30 5310 H 495.435 2.75273 2.71591 0
M  V30 5311 H 497.124 3.14422 2.56697 0
M  V30 5312 H 497.89 4.79722 0.713582 0
M  V30 5313 H 493.769 4.24129 1.80653 0
M  V30 5314 H 497.313 6.96915 -0.30917 0
M  V30 5315 H 493.21 6.4065 0.789828 0
M  V30 5316 H 493.978 8.17989 -0.289145 0
M  V30 5317 N 496.642 -0.504142 1.49319 0
M  V30 5318 C 497.89 -1.25598 1.58334 0
M  V30 5319 C 498.211 -1.93114 0.270538 0
M  V30 5320 O 497.481 -1.82585 -0.709891 0
M  V30 5321 H 496.061 -0.466571 0.58337 0
M  V30 5322 H 498.723 -0.584547 1.85928 0
M  V30 5323 H 497.819 -2.02159 2.37778 0
M  V30 5324 N 498.12 -1.38341 -0.754957 0
M  V30 5325 C 499.36 -1.35888 -1.52689 0
M  V30 5326 C 499.724 0.0513682 -1.91931 0
M  V30 5327 O 500.925 0.200761 -2.68049 0
M  V30 5328 C 499.196 -2.28666 -2.74676 0
M  V30 5329 S 500.755 -2.4422 -3.64558 0
M  V30 5330 H 497.573 -0.482165 -0.522531 0
M  V30 5331 H 500.175 -1.74253 -0.886358 0
M  V30 5332 H 498.879 -3.30023 -2.43953 0
M  V30 5333 H 498.41 -1.91445 -3.43675 0
M  V30 5334 H 500.425 -1.66525 -4.67423 0
M  V30 5335 N 499.598 0.982988 -1.23187 0
M  V30 5336 C 501.014 1.2487 -0.993967 0
M  V30 5337 C 501.214 1.99155 0.306498 0
M  V30 5338 O 500.27 2.30688 1.0266 0
M  V30 5339 C 501.583 2.05078 -2.19917 0
M  V30 5340 C 503.131 2.18227 -2.2438 0
M  V30 5341 C 503.606 3.01825 -3.44479 0
M  V30 5342 N 505.097 3.09411 -3.44702 0
M  V30 5343 C 505.832 3.74412 -4.34285 0
M  V30 5344 N 505.328 4.41259 -5.341 0
M  V30 5345 N 507.121 3.71273 -4.22035 0
M  V30 5346 H 499.272 0.485253 -2.06783 0
M  V30 5347 H 501.535 0.276979 -0.906635 0
M  V30 5348 H 501.241 1.57867 -3.14279 0
M  V30 5349 H 501.115 3.05829 -2.2079 0
M  V30 5350 H 503.502 2.64648 -1.30559 0
M  V30 5351 H 503.583 1.16873 -2.2754 0
M  V30 5352 H 503.227 2.56102 -4.38605 0
M  V30 5353 H 503.157 4.03342 -3.38559 0
M  V30 5354 H 505.648 2.61845 -2.7248 0
M  V30 5355 H 505.961 4.88629 -5.98717 0
M  V30 5356 H 504.306 4.39975 -5.38002 0
M  V30 5357 H 507.497 3.18217 -3.43301 0
M  V30 5358 H 507.67 4.21649 -4.92053 0
M  V30 5359 N 501.076 1.04316 1.18135 0
M  V30 5360 C 502.325 0.74319 1.87509 0
M  V30 5361 C 502.638 -0.732136 1.81381 0
M  V30 5362 O 503.844 -1.14572 2.46141 0
M  V30 5363 C 502.3 1.27913 3.36402 0
M  V30 5364 C 501.908 2.78326 3.51053 0
M  V30 5365 C 503.652 1.0558 4.11161 0
M  V30 5366 C 501.559 3.25266 4.93919 0
M  V30 5367 H 500.489 0.274313 0.702331 0
M  V30 5368 H 503.14 1.25931 1.33467 0
M  V30 5369 H 501.522 0.690853 3.89927 0
M  V30 5370 H 502.696 3.42933 3.07788 0
M  V30 5371 H 501.011 2.991 2.89704 0
M  V30 5372 H 503.608 1.38161 5.16542 0
M  V30 5373 H 503.951 -0.00684729 4.16299 0
M  V30 5374 H 504.484 1.60882 3.63816 0
M  V30 5375 H 501.223 4.30922 4.9395 0
M  V30 5376 H 500.743 2.65396 5.3789 0
M  V30 5377 H 502.422 3.19433 5.62647 0
M  V30 5378 N 502.554 -1.34406 0.822964 0
M  V30 5379 C 503.802 -1.97892 0.410245 0
M  V30 5380 C 504.123 -1.65567 -1.03017 0
M  V30 5381 O 503.393 -0.94642 -1.71522 0
M  V30 5382 H 501.973 -0.732049 0.148707 0
M  V30 5383 H 504.635 -1.64043 1.05242 0
M  V30 5384 H 503.731 -3.07579 0.529284 0
M  V30 5385 N 504.032 -0.577932 -1.46621 0
M  V30 5386 C 505.262 -0.0670668 -2.06491 0
M  V30 5387 C 505.67 1.24119 -1.42798 0
M  V30 5388 O 505.013 1.76016 -0.525759 0
M  V30 5389 C 505.075 0.177995 -3.59059 0
M  V30 5390 C 504.739 -1.04394 -4.44917 0
M  V30 5391 C 505.736 -1.95479 -4.81751 0
M  V30 5392 C 503.421 -1.26444 -4.86125 0
M  V30 5393 C 505.415 -3.06965 -5.58615 0
M  V30 5394 C 503.102 -2.38237 -5.62749 0
M  V30 5395 C 504.1 -3.28327 -5.98908 0
M  V30 5396 O 503.788 -4.38179 -6.73984 0
M  V30 5397 H 503.52 -0.0523159 -0.673973 0
M  V30 5398 H 506.074 -0.796966 -1.89308 0
M  V30 5399 H 504.304 0.962451 -3.74531 0
M  V30 5400 H 505.993 0.636782 -4.00874 0
M  V30 5401 H 506.759 -1.79657 -4.50498 0
M  V30 5402 H 502.638 -0.572316 -4.57434 0
M  V30 5403 H 506.182 -3.77309 -5.86757 0
M  V30 5404 H 502.079 -2.54023 -5.93416 0
M  V30 5405 H 502.847 -4.36486 -6.92403 0
M  V30 5406 N 505.51 1.54411 -0.315457 0
M  V30 5407 C 506.735 2.05299 0.294496 0
M  V30 5408 C 507.16 1.19052 1.4563 0
M  V30 5409 O 506.518 0.197804 1.80218 0
M  V30 5410 C 506.566 3.5345 0.714549 0
M  V30 5411 O 505.67 3.70175 1.81781 0
M  V30 5412 H 505.011 0.661743 0.0547019 0
M  V30 5413 H 507.541 1.99327 -0.461508 0
M  V30 5414 H 507.551 3.9557 0.999426 0
M  V30 5415 H 506.226 4.1568 -0.135244 0
M  V30 5416 H 504.803 3.3996 1.53236 0
M  V30 5417 N 506.988 0.0434614 1.5754 0
M  V30 5418 C 508.213 -0.645358 1.97104 0
M  V30 5419 C 508.638 -1.64037 0.920521 0
M  V30 5420 O 507.996 -1.80922 -0.11708 0
M  V30 5421 C 508.044 -1.31547 3.35749 0
M  V30 5422 O 507.148 -2.43103 3.33129 0
M  V30 5423 H 506.489 -0.168403 0.64229 0
M  V30 5424 H 509.019 0.109573 2.04306 0
M  V30 5425 H 509.029 -1.66895 3.72304 0
M  V30 5426 H 507.704 -0.586205 4.11748 0
M  V30 5427 H 506.281 -2.0976 3.0831 0
M  V30 5428 N 508.466 -1.55915 -0.229846 0
M  V30 5429 C 509.877 -1.68809 -0.797531 0
M  V30 5430 C 510.228 -0.643995 -1.8533 0
M  V30 5431 O 509.353 0.206492 -2.15413 0
M  V30 5432 C 509.948 -3.06043 -1.45338 0
M  V30 5433 C 508.507 -3.20819 -1.96856 0
M  V30 5434 C 507.654 -2.6472 -0.825736 0
M  V30 5435 H 510.605 -1.58699 -0.00533733 0
M  V30 5436 H 510.626 -3.01438 -2.32196 0
M  V30 5437 H 510.138 -3.82012 -0.684743 0
M  V30 5438 H 508.239 -2.49704 -2.76548 0
M  V30 5439 H 508.352 -4.27937 -2.15423 0
M  V30 5440 H 506.716 -2.22985 -1.23084 0
M  V30 5441 H 507.499 -3.43229 -0.0699019 0
M  V30 5442 N 509.944 0.496216 -1.49584 0
M  V30 5443 C 510.874 1.60576 -1.69521 0
M  V30 5444 C 511.855 1.61169 -0.543933 0
M  V30 5445 O 513.04 1.77834 -0.78031 0
M  V30 5446 C 510.17 2.99038 -1.76616 0
M  V30 5447 C 509.124 3.13312 -2.91581 0
M  V30 5448 C 508.45 4.53172 -2.83794 0
M  V30 5449 C 509.75 2.92886 -4.32452 0
M  V30 5450 H 511.444 1.44146 -2.62416 0
M  V30 5451 H 508.99 0.692024 -1.26282 0
M  V30 5452 H 510.943 3.76564 -1.8915 0
M  V30 5453 H 509.667 3.16568 -0.80324 0
M  V30 5454 H 508.326 2.38213 -2.78658 0
M  V30 5455 H 507.974 4.67585 -1.854 0
M  V30 5456 H 507.674 4.63662 -3.60958 0
M  V30 5457 H 509.198 5.32752 -2.98342 0
M  V30 5458 H 510.612 3.60178 -4.46032 0
M  V30 5459 H 509.009 3.14844 -5.10875 0
M  V30 5460 H 510.079 1.88966 -4.46565 0
M  V30 5461 N 511.423 1.38739 0.74761 0
M  V30 5462 C 512.651 1.38521 1.53686 0
M  V30 5463 C 513.066 -0.0235129 1.88785 0
M  V30 5464 O 512.423 -0.991662 1.53207 0
M  V30 5465 C 512.474 2.24641 2.83229 0
M  V30 5466 O 512.195 3.60026 2.49625 0
M  V30 5467 C 513.696 2.32669 3.77333 0
M  V30 5468 H 510.916 0.473589 0.475347 0
M  V30 5469 H 513.46 1.82395 0.924786 0
M  V30 5470 H 511.615 1.84213 3.40799 0
M  V30 5471 H 512.029 4.05435 3.3275 0
M  V30 5472 H 513.503 2.97201 4.65162 0
M  V30 5473 H 513.98 1.3421 4.18192 0
M  V30 5474 H 514.586 2.73512 3.25685 0
M  V30 5475 N 512.901 -0.976442 1.23707 0
M  V30 5476 C 513.831 -2.08749 1.04624 0
M  V30 5477 C 514.812 -1.70057 -0.0380956 0
M  V30 5478 O 515.997 -1.93782 0.127308 0
M  V30 5479 C 513.127 -3.41335 0.640902 0
M  V30 5480 C 512.081 -3.93947 1.67302 0
M  V30 5481 C 511.407 -5.22774 1.12301 0
M  V30 5482 C 512.707 -4.22769 3.06697 0
M  V30 5483 H 514.401 -2.24972 1.97555 0
M  V30 5484 H 511.947 -1.08108 0.951247 0
M  V30 5485 H 513.9 -4.18489 0.494434 0
M  V30 5486 H 512.624 -3.24988 -0.324099 0
M  V30 5487 H 511.283 -3.18941 1.80755 0
M  V30 5488 H 510.931 -5.0278 0.148877 0
M  V30 5489 H 510.631 -5.58942 1.81267 0
M  V30 5490 H 512.155 -6.02546 0.988479 0
M  V30 5491 H 513.569 -4.90659 2.96524 0
M  V30 5492 H 511.966 -4.70147 3.72937 0
M  V30 5493 H 513.036 -3.29885 3.55392 0
M  V30 5494 N 514.379 -1.04941 -1.1758 0
M  V30 5495 C 515.604 -0.778253 -1.92245 0
M  V30 5496 C 516.029 0.659707 -1.76152 0
M  V30 5497 O 515.387 1.45803 -1.07755 0
M  V30 5498 C 515.435 -1.16051 -3.41416 0
M  V30 5499 O 514.539 -0.291153 -4.11371 0
M  V30 5500 H 513.88 -0.285619 -0.599431 0
M  V30 5501 H 516.41 -1.40159 -1.49052 0
M  V30 5502 H 516.42 -1.12619 -3.92149 0
M  V30 5503 H 515.095 -2.208 -3.52449 0
M  V30 5504 H 513.672 -0.385851 -3.70898 0
M  V30 5505 N 515.857 1.33968 -0.830081 0
M  V30 5506 C 517.134 1.92554 -0.343858 0
M  V30 5507 C 517.514 1.7573 1.16971 0
M  V30 5508 O 516.862 1.14035 1.98011 0
M  V30 5509 C 517.072 3.40147 -0.781073 0
M  V30 5510 C 518.42 4.17299 -0.78402 0
M  V30 5511 O 519.444 3.48762 -0.724112 0
M  V30 5512 O 518.303 5.39631 -0.863739 0
M  V30 5513 H 515.397 0.821469 -0.0954827 0
M  V30 5514 H 517.943 1.42897 -0.915348 0
M  V30 5515 H 516.715 3.46225 -1.82329 0
M  V30 5516 H 516.338 3.97166 -0.18567 0
M  V30 5517 N 517.335 0.585699 1.46312 0
M  V30 5518 C 518.267 -0.183687 2.28463 0
M  V30 5519 C 519.28 -0.85264 1.38686 0
M  V30 5520 O 520.469 -0.721701 1.6326 0
M  V30 5521 C 517.569 -1.27977 3.13808 0
M  V30 5522 C 516.742 -0.702164 4.31727 0
M  V30 5523 C 515.801 -1.68633 4.98447 0
M  V30 5524 O 514.827 -1.22121 5.55945 0
M  V30 5525 N 516.029 -3.02047 4.95729 0
M  V30 5526 H 518.794 0.521127 2.95134 0
M  V30 5527 H 516.355 0.423673 1.56258 0
M  V30 5528 H 518.347 -1.9375 3.55307 0
M  V30 5529 H 516.917 -1.8874 2.4919 0
M  V30 5530 H 516.137 0.1331 3.93975 0
M  V30 5531 H 517.425 -0.296101 5.07938 0
M  V30 5532 H 516.823 -3.42457 4.50266 0
M  V30 5533 H 515.38 -3.63301 5.41161 0
M  V30 5534 N 518.813 -1.54241 0.323641 0
M  V30 5535 C 520.038 -2.05452 -0.283605 0
M  V30 5536 C 520.463 -1.19823 -1.44997 0
M  V30 5537 O 519.821 -0.207358 -1.8011 0
M  V30 5538 C 519.869 -3.53823 -0.695795 0
M  V30 5539 O 518.973 -3.71134 -1.79815 0
M  V30 5540 H 518.314 -0.662024 -0.0511917 0
M  V30 5541 H 520.844 -1.99079 0.472073 0
M  V30 5542 H 520.854 -3.96094 -0.978434 0
M  V30 5543 H 519.529 -4.15602 0.157287 0
M  V30 5544 H 518.106 -3.40768 -1.51431 0
M  V30 5545 N 520.291 -0.0518155 -1.57515 0
M  V30 5546 C 521.516 0.634896 -1.97443 0
M  V30 5547 C 521.941 1.63546 -0.929207 0
M  V30 5548 O 521.299 1.80981 0.107484 0
M  V30 5549 C 521.347 1.29765 -3.36442 0
M  V30 5550 O 520.451 2.41333 -3.34413 0
M  V30 5551 H 519.792 0.164994 -0.643174 0
M  V30 5552 H 522.322 -0.120407 -2.04245 0
M  V30 5553 H 522.332 1.64918 -3.73184 0
M  V30 5554 H 521.007 0.564361 -4.12053 0
M  V30 5555 H 519.584 2.08122 -3.09418 0
M  V30 5556 N 521.769 1.56035 0.221574 0
M  V30 5557 C 522.716 1.92413 1.27459 0
M  V30 5558 C 523.686 0.781323 1.46576 0
M  V30 5559 O 524.871 1.03721 1.60145 0
M  V30 5560 C 522.011 2.24617 2.61995 0
M  V30 5561 C 521.124 3.51831 2.50677 0
M  V30 5562 C 520.259 3.73482 3.77736 0
M  V30 5563 C 519.298 4.94211 3.6114 0
M  V30 5564 N 518.435 5.12252 4.80148 0
M  V30 5565 H 523.275 2.82203 0.957355 0
M  V30 5566 H 520.812 1.39676 0.461415 0
M  V30 5567 H 522.77 2.41298 3.40339 0
M  V30 5568 H 521.4 1.38 2.91815 0
M  V30 5569 H 520.452 3.43343 1.63767 0
M  V30 5570 H 521.764 4.40328 2.34334 0
M  V30 5571 H 520.918 3.9026 4.64523 0
M  V30 5572 H 519.657 2.83266 3.97003 0
M  V30 5573 H 518.662 4.77384 2.72736 0
M  V30 5574 H 519.887 5.85912 3.43343 0
M  V30 5575 H 517.833 4.24978 4.99729 0
M  V30 5576 H 517.75 5.94881 4.66532 0
M  V30 5577 H 519.018 5.33465 5.68362 0
M  V30 5578 N 523.247 -0.488276 1.49845 0
M  V30 5579 C 524.496 -1.23826 1.59217 0
M  V30 5580 C 524.809 -1.93439 0.289966 0
M  V30 5581 O 526.015 -2.70229 0.262382 0
M  V30 5582 C 524.471 -2.24902 2.80976 0
M  V30 5583 C 524.079 -1.6117 4.18005 0
M  V30 5584 C 525.823 -3.00648 2.99685 0
M  V30 5585 C 523.73 -2.60431 5.3097 0
M  V30 5586 H 522.66 -0.465858 0.592868 0
M  V30 5587 H 525.311 -0.510645 1.76252 0
M  V30 5588 H 523.693 -3.0088 2.57463 0
M  V30 5589 H 524.867 -0.910968 4.51706 0
M  V30 5590 H 523.182 -0.97767 4.0476 0
M  V30 5591 H 525.779 -3.74903 3.81251 0
M  V30 5592 H 526.122 -3.5902 2.10738 0
M  V30 5593 H 526.655 -2.31784 3.23297 0
M  V30 5594 H 523.394 -2.06823 6.22017 0
M  V30 5595 H 522.914 -3.28707 5.01709 0
M  V30 5596 H 524.593 -3.22606 5.60834 0
M  V30 5597 N 524.725 -1.39134 -0.740242 0
M  V30 5598 C 525.672 -1.37434 -1.8542 0
M  V30 5599 C 526.642 -0.234822 -1.64432 0
M  V30 5600 O 527.827 -0.429125 -1.85912 0
M  V30 5601 C 524.967 -1.21844 -3.22875 0
M  V30 5602 C 524.08 -2.45296 -3.55603 0
M  V30 5603 C 523.215 -2.22334 -4.82432 0
M  V30 5604 C 522.254 -3.41488 -5.07988 0
M  V30 5605 N 521.391 -3.17877 -6.26018 0
M  V30 5606 H 526.231 -2.3266 -1.86207 0
M  V30 5607 H 523.768 -1.15578 -0.909946 0
M  V30 5608 H 525.726 -1.10818 -4.02213 0
M  V30 5609 H 524.356 -0.3025 -3.21379 0
M  V30 5610 H 523.408 -2.66945 -2.71006 0
M  V30 5611 H 524.72 -3.34063 -3.7041 0
M  V30 5612 H 523.874 -2.0852 -5.69741 0
M  V30 5613 H 522.613 -1.30954 -4.6979 0
M  V30 5614 H 521.618 -3.55807 -4.19144 0
M  V30 5615 H 522.843 -4.33763 -5.22519 0
M  V30 5616 H 520.789 -2.29156 -6.14673 0
M  V30 5617 H 520.706 -4.00198 -6.41387 0
M  V30 5618 H 521.974 -3.07746 -7.16179 0
M  V30 5619 N 526.204 0.969867 -1.24223 0
M  V30 5620 C 527.151 2.06407 -1.0327 0
M  V30 5621 C 528.121 1.66014 0.0533 0
M  V30 5622 O 529.306 1.90533 -0.100896 0
M  V30 5623 C 526.446 3.3909 -0.641262 0
M  V30 5624 C 525.559 3.9269 -1.80051 0
M  V30 5625 C 524.694 5.13631 -1.35486 0
M  V30 5626 C 523.733 5.59423 -2.48419 0
M  V30 5627 N 522.87 6.71586 -2.04737 0
M  V30 5628 H 527.71 2.23663 -1.96923 0
M  V30 5629 H 525.247 1.09624 -0.980862 0
M  V30 5630 H 527.205 4.15323 -0.395351 0
M  V30 5631 H 525.835 3.21765 0.258269 0
M  V30 5632 H 524.887 3.13116 -2.16014 0
M  V30 5633 H 526.199 4.22636 -2.64916 0
M  V30 5634 H 525.353 5.97231 -1.0677 0
M  V30 5635 H 524.092 4.85364 -0.476722 0
M  V30 5636 H 523.097 4.74398 -2.77897 0
M  V30 5637 H 524.322 5.89705 -3.36786 0
M  V30 5638 H 522.268 6.45058 -1.19318 0
M  V30 5639 H 522.185 7.0097 -2.83156 0
M  V30 5640 H 523.453 7.58633 -1.79154 0
M  V30 5641 N 527.682 1.05563 1.17022 0
M  V30 5642 C 528.93 0.76642 1.87004 0
M  V30 5643 C 529.251 -0.708854 1.8166 0
M  V30 5644 O 528.521 -1.51242 1.2451 0
M  V30 5645 H 527.101 0.280516 0.692329 0
M  V30 5646 H 529.763 1.33557 1.41945 0
M  V30 5647 H 528.859 1.08472 2.92644 0
M  V30 5648 N 529.16 -1.33526 0.837174 0
M  V30 5649 C 530.385 -2.0258 0.444545 0
M  V30 5650 C 530.81 -1.6258 -0.946006 0
M  V30 5651 O 530.168 -0.817548 -1.6182 0
M  V30 5652 C 530.216 -3.5605 0.571006 0
M  V30 5653 O 529.32 -4.10422 -0.403431 0
M  V30 5654 H 528.661 -0.638866 0.180958 0
M  V30 5655 H 531.191 -1.70462 1.13154 0
M  V30 5656 H 531.201 -4.05488 0.452024 0
M  V30 5657 H 529.876 -3.84509 1.58512 0
M  V30 5658 H 528.453 -3.72113 -0.242147 0
M  V30 5659 N 530.638 -0.59345 -1.46 0
M  V30 5660 C 531.585 0.133618 -2.30413 0
M  V30 5661 C 532.555 0.873736 -1.41262 0
M  V30 5662 O 533.74 0.862279 -1.70204 0
M  V30 5663 C 530.88 1.13434 -3.25924 0
M  V30 5664 C 529.993 0.39656 -4.30176 0
M  V30 5665 C 529.128 1.38575 -5.12806 0
M  V30 5666 C 528.167 0.634984 -6.08797 0
M  V30 5667 N 527.304 1.57276 -6.84258 0
M  V30 5668 H 532.144 -0.592252 -2.92055 0
M  V30 5669 H 529.681 -0.303874 -1.43927 0
M  V30 5670 H 531.639 1.72752 -3.79753 0
M  V30 5671 H 530.269 1.82779 -2.66067 0
M  V30 5672 H 529.321 -0.311861 -3.79119 0
M  V30 5673 H 530.633 -0.189869 -4.98438 0
M  V30 5674 H 529.787 2.05141 -5.70966 0
M  V30 5675 H 528.526 2.00611 -4.44529 0
M  V30 5676 H 527.531 -0.0443925 -5.49782 0
M  V30 5677 H 528.756 0.0198678 -6.79097 0
M  V30 5678 H 526.702 2.18103 -6.18682 0
M  V30 5679 H 526.619 1.03941 -7.48821 0
M  V30 5680 H 527.887 2.22844 -7.46968 0
M  V30 5681 N 532.116 1.54067 -0.331816 0
M  V30 5682 C 533.364 2.00319 0.267739 0
M  V30 5683 C 533.685 1.22148 1.52003 0
M  V30 5684 O 532.955 0.325494 1.93177 0
M  V30 5685 H 531.535 0.740014 0.101922 0
M  V30 5686 H 534.197 1.89628 -0.450267 0
M  V30 5687 H 533.293 3.07765 0.518385 0
M  V30 5688 N 533.594 0.0601682 1.57485 0
M  V30 5689 C 534.871 -0.651956 1.84415 0
M  V30 5690 C 535.251 -1.88498 0.950361 0
M  V30 5691 O 534.599 -2.28496 0.0136719 0
M  V30 5692 C 534.809 -1.00069 3.34346 0
M  V30 5693 C 536.157 -1.37915 4.01578 0
M  V30 5694 O 537.181 -1.09277 3.39024 0
M  V30 5695 O 536.04 -1.91399 5.11887 0
M  V30 5696 H 533.134 -0.322668 0.761455 0
M  V30 5697 H 535.68 0.0902159 1.6946 0
M  V30 5698 H 534.452 -0.124463 3.91102 0
M  V30 5699 H 534.075 -1.80001 3.54521 0
M  V30 5700 N 535.072 -1.5615 -0.213296 0
M  V30 5701 C 536.312 -1.81325 -0.943435 0
M  V30 5702 C 536.676 -0.634934 -1.81198 0
M  V30 5703 O 537.877 -0.766166 -2.5765 0
M  V30 5704 C 536.148 -3.11437 -1.75334 0
M  V30 5705 S 537.707 -3.57955 -2.53799 0
M  V30 5706 H 534.525 -0.636538 -0.316766 0
M  V30 5707 H 537.127 -1.94387 -0.208313 0
M  V30 5708 H 535.831 -3.95228 -1.10556 0
M  V30 5709 H 535.362 -3.01204 -2.53061 0
M  V30 5710 H 537.377 -3.21947 -3.77577 0
M  V30 5711 N 536.55 0.480323 -1.50102 0
M  V30 5712 C 537.778 1.25657 -1.64371 0
M  V30 5713 C 538.193 1.86011 -0.323316 0
M  V30 5714 O 537.55 1.68803 0.693682 0
M  V30 5715 C 537.601 2.37197 -2.728 0
M  V30 5716 O 537.322 1.7932 -3.9972 0
M  V30 5717 C 538.823 3.2823 -2.9796 0
M  V30 5718 H 536.043 0.380369 -0.552775 0
M  V30 5719 H 538.587 0.574379 -1.96268 0
M  V30 5720 H 536.742 3.01208 -2.43623 0
M  V30 5721 H 537.156 2.52701 -4.59611 0
M  V30 5722 H 538.63 4.02725 -3.77513 0
M  V30 5723 H 539.107 3.86462 -2.08671 0
M  V30 5724 H 539.713 2.69964 -3.28633 0
M  V30 5725 N 538.028 1.39524 0.732853 0
M  V30 5726 C 539.274 1.37068 1.49467 0
M  V30 5727 C 539.607 -0.0327166 1.94172 0
M  V30 5728 O 538.882 -0.998071 1.66939 0
M  V30 5729 C 539.165 2.34494 2.73285 0
M  V30 5730 C 539.018 3.83784 2.34585 0
M  V30 5731 C 540.337 2.29717 3.75391 0
M  V30 5732 H 537.456 0.499206 0.542183 0
M  V30 5733 H 540.098 1.70532 0.837783 0
M  V30 5734 H 538.248 2.06087 3.29333 0
M  V30 5735 H 539.92 4.22949 1.84151 0
M  V30 5736 H 538.163 4.00455 1.66787 0
M  V30 5737 H 538.834 4.47444 3.23262 0
M  V30 5738 H 541.31 2.54839 3.28932 0
M  V30 5739 H 540.186 2.99962 4.59689 0
M  V30 5740 H 540.447 1.30291 4.22465 0
M  V30 5741 N 539.506 -0.963266 1.24736 0
M  V30 5742 C 540.436 -2.07628 1.06832 0
M  V30 5743 C 541.417 -1.70088 -0.0200566 0
M  V30 5744 O 542.602 -1.93636 0.147854 0
M  V30 5745 C 539.732 -3.40636 0.677069 0
M  V30 5746 C 538.686 -3.9215 1.71471 0
M  V30 5747 C 538.012 -5.21553 1.1784 0
M  V30 5748 C 539.312 -4.19493 3.11164 0
M  V30 5749 H 541.006 -2.22864 1.9993 0
M  V30 5750 H 538.552 -1.07093 0.96266 0
M  V30 5751 H 540.505 -4.17941 0.538792 0
M  V30 5752 H 539.229 -3.25313 -0.289612 0
M  V30 5753 H 537.888 -3.17005 1.84128 0
M  V30 5754 H 537.536 -5.02593 0.202195 0
M  V30 5755 H 537.236 -5.56988 1.87185 0
M  V30 5756 H 538.76 -6.01463 1.05233 0
M  V30 5757 H 540.174 -4.87487 3.01711 0
M  V30 5758 H 538.571 -4.66165 3.77902 0
M  V30 5759 H 539.641 -3.26097 3.58871 0
M  V30 5760 N 540.985 -1.06182 -1.16461 0
M  V30 5761 C 541.932 -0.671613 -2.20812 0
M  V30 5762 C 542.902 0.331186 -1.62765 0
M  V30 5763 O 544.087 0.22033 -1.89524 0
M  V30 5764 C 541.227 -0.063029 -3.45042 0
M  V30 5765 C 540.34 -1.11587 -4.1734 0
M  V30 5766 C 539.475 -0.473546 -5.29085 0
M  V30 5767 C 538.514 -1.51 -5.93182 0
M  V30 5768 N 537.651 -0.891118 -6.96422 0
M  V30 5769 H 542.491 -1.56589 -2.53542 0
M  V30 5770 H 540.028 -0.782951 -1.24532 0
M  V30 5771 H 541.986 0.307344 -4.16066 0
M  V30 5772 H 540.616 0.794663 -3.12866 0
M  V30 5773 H 539.668 -1.60396 -3.44931 0
M  V30 5774 H 540.98 -1.90221 -4.61104 0
M  V30 5775 H 540.134 -0.0501432 -6.06679 0
M  V30 5776 H 538.873 0.344687 -4.8648 0
M  V30 5777 H 537.878 -1.94331 -5.14311 0
M  V30 5778 H 539.103 -2.33031 -6.37866 0
M  V30 5779 H 537.049 -0.0935753 -6.55933 0
M  V30 5780 H 536.966 -1.61486 -7.38551 0
M  V30 5781 H 538.234 -0.492822 -7.77941 0
M  V30 5782 N 542.463 1.3308 -0.844243 0
M  V30 5783 C 543.874 1.7992 -0.498566 0
M  V30 5784 C 544.225 1.69808 0.982834 0
M  V30 5785 O 543.35 1.25051 1.7661 0
M  V30 5786 C 543.945 3.26677 -0.898204 0
M  V30 5787 C 542.504 3.71513 -0.604583 0
M  V30 5788 C 541.651 2.54393 -1.10362 0
M  V30 5789 H 544.602 1.20526 -1.03244 0
M  V30 5790 H 544.623 3.79918 -0.21039 0
M  V30 5791 H 544.135 3.34004 -1.97643 0
M  V30 5792 H 542.236 3.69708 0.46335 0
M  V30 5793 H 542.349 4.64755 -1.16358 0
M  V30 5794 H 540.713 2.49246 -0.524273 0
M  V30 5795 H 541.496 2.6448 -2.18873 0
M  V30 5796 N 543.941 0.601185 1.45683 0
M  V30 5797 C 545.169 0.100054 2.06658 0
M  V30 5798 C 545.584 -1.21285 1.44691 0
M  V30 5799 O 544.941 -1.73735 0.558772 0
M  V30 5800 C 544.992 -0.0528579 3.61461 0
M  V30 5801 O 544.713 1.20809 4.21114 0
M  V30 5802 C 546.214 -0.586193 4.39407 0
M  V30 5803 H 543.434 0.065905 0.667756 0
M  V30 5804 H 545.978 0.827101 1.87028 0
M  V30 5805 H 544.133 -0.730203 3.80456 0
M  V30 5806 H 544.547 1.03368 5.14213 0
M  V30 5807 H 546.021 -0.642297 5.4825 0
M  V30 5808 H 546.498 -1.60713 4.0874 0
M  V30 5809 H 547.104 0.0568935 4.25262 0
M  V30 5810 N 545.419 -1.53889 0.339982 0
M  V30 5811 C 546.349 -2.27843 -0.510856 0
M  V30 5812 C 547.33 -1.29267 -1.10563 0
M  V30 5813 O 548.515 -1.58104 -1.12768 0
M  V30 5814 C 545.645 -3.04857 -1.66372 0
M  V30 5815 C 544.599 -4.10907 -1.19746 0
M  V30 5816 C 543.925 -4.75855 -2.43857 0
M  V30 5817 C 545.225 -5.21435 -0.300501 0
M  V30 5818 H 546.919 -2.99212 0.106067 0
M  V30 5819 H 544.465 -1.43904 0.0524533 0
M  V30 5820 H 546.418 -3.5533 -2.26537 0
M  V30 5821 H 545.142 -2.31133 -2.30749 0
M  V30 5822 H 543.801 -3.61342 -0.618654 0
M  V30 5823 H 543.449 -3.9873 -3.06633 0
M  V30 5824 H 543.149 -5.47502 -2.13343 0
M  V30 5825 H 544.673 -5.2911 -3.04754 0
M  V30 5826 H 546.087 -5.67565 -0.80889 0
M  V30 5827 H 544.484 -6.00036 -0.0874076 0
M  V30 5828 H 545.554 -4.80328 0.664321 0
M  V30 5829 N 546.897 -0.0685191 -1.57451 0
M  V30 5830 C 547.83 0.935736 -2.08133 0
M  V30 5831 C 548.808 1.29317 -0.985698 0
M  V30 5832 O 549.992 1.40304 -1.25886 0
M  V30 5833 C 547.119 2.2448 -2.53627 0
M  V30 5834 C 546.165 2.03917 -3.74593 0
M  V30 5835 S 546.998 1.30154 -5.19442 0
M  V30 5836 C 548.154 2.62346 -5.68265 0
M  V30 5837 H 548.387 0.504473 -2.92989 0
M  V30 5838 H 545.92 0.144169 -1.53725 0
M  V30 5839 H 547.878 2.99718 -2.80499 0
M  V30 5840 H 546.539 2.64731 -1.69045 0
M  V30 5841 H 545.732 3.00788 -4.04404 0
M  V30 5842 H 545.334 1.36815 -3.48077 0
M  V30 5843 H 547.626 3.58448 -5.7491 0
M  V30 5844 H 548.569 2.3715 -6.67207 0
M  V30 5845 H 548.977 2.69401 -4.96068 0
M  V30 5846 N 548.375 1.56261 0.205012 0
M  V30 5847 C 549.338 1.92908 1.23771 0
M  V30 5848 C 550.338 0.809208 1.38955 0
M  V30 5849 O 551.528 1.07676 1.36936 0
M  V30 5850 C 548.66 2.19442 2.60879 0
M  V30 5851 H 549.853 2.85287 0.924728 0
M  V30 5852 H 547.406 1.49798 0.446125 0
M  V30 5853 H 548.141 1.29668 2.97248 0
M  V30 5854 H 547.926 3.0104 2.51232 0
M  V30 5855 H 549.416 2.48833 3.35368 0
M  V30 5856 N 549.853 -0.472356 1.50355 0
M  V30 5857 C 550.816 -1.5529 1.68576 0
M  V30 5858 C 551.816 -1.50863 0.556511 0
M  V30 5859 O 553.006 -1.53505 0.823516 0
M  V30 5860 C 550.138 -2.94921 1.70981 0
M  V30 5861 H 551.331 -1.40451 2.64978 0
M  V30 5862 H 548.884 -0.698645 1.39816 0
M  V30 5863 H 549.619 -3.15204 0.762675 0
M  V30 5864 H 549.404 -2.99541 2.53017 0
M  V30 5865 H 550.894 -3.73372 1.87037 0
M  V30 5866 N 551.331 -1.39911 -0.725443 0
M  V30 5867 C 552.577 -1.37858 -1.48738 0
M  V30 5868 C 552.91 0.0224187 -1.94187 0
M  V30 5869 O 552.185 0.989204 -1.67466 0
M  V30 5870 C 552.468 -2.3594 -2.72038 0
M  V30 5871 C 552.321 -3.85023 -2.32546 0
M  V30 5872 C 553.64 -2.31704 -3.74167 0
M  V30 5873 H 550.759 -0.502074 -0.539528 0
M  V30 5874 H 553.401 -1.70974 -0.828728 0
M  V30 5875 H 551.551 -2.0783 -3.28236 0
M  V30 5876 H 553.223 -4.2392 -1.81905 0
M  V30 5877 H 551.466 -4.01334 -1.64661 0
M  V30 5878 H 552.137 -4.49152 -3.20884 0
M  V30 5879 H 554.613 -2.5658 -3.27576 0
M  V30 5880 H 553.489 -3.02395 -4.58092 0
M  V30 5881 H 553.75 -1.3253 -4.21768 0
M  V30 5882 N 552.809 0.956637 -1.25245 0
M  V30 5883 C 554.22 1.51569 -1.09012 0
M  V30 5884 C 554.571 1.93322 0.334813 0
M  V30 5885 O 553.696 1.78421 1.22454 0
M  V30 5886 C 554.291 2.75444 -1.97271 0
M  V30 5887 C 552.85 3.27669 -1.8523 0
M  V30 5888 C 551.997 2.00517 -1.91542 0
M  V30 5889 H 554.948 0.773746 -1.3856 0
M  V30 5890 H 554.969 3.4919 -1.51151 0
M  V30 5891 H 554.481 2.45024 -3.00973 0
M  V30 5892 H 552.582 3.62914 -0.844045 0
M  V30 5893 H 552.695 3.9582 -2.69932 0
M  V30 5894 H 551.059 2.15727 -1.35404 0
M  V30 5895 H 551.842 1.72448 -2.96844 0
M  V30 5896 N 554.287 1.06798 1.15896 0
M  V30 5897 C 555.197 0.694564 2.24083 0
M  V30 5898 C 556.213 -0.291687 1.71538 0
M  V30 5899 O 557.389 -0.139723 2.00915 0
M  V30 5900 C 554.454 0.0921014 3.46578 0
M  V30 5901 C 553.515 1.13087 4.14137 0
M  V30 5902 C 552.748 0.557064 5.30785 0
M  V30 5903 O 552.971 -0.628623 5.66925 0
M  V30 5904 O 551.905 1.29924 5.8771 0
M  V30 5905 H 555.731 1.59663 2.58344 0
M  V30 5906 H 553.316 0.840575 1.2351 0
M  V30 5907 H 555.198 -0.241884 4.20705 0
M  V30 5908 H 553.873 -0.78337 3.14078 0
M  V30 5909 H 552.78 1.51712 3.41957 0
M  V30 5910 H 554.113 1.97805 4.50704 0
M  V30 5911 N 555.766 -1.3263 0.851289 0
M  V30 5912 C 557.015 -1.96633 0.449267 0
M  V30 5913 C 557.328 -1.68131 -0.999562 0
M  V30 5914 O 558.534 -2.25845 -1.50685 0
M  V30 5915 C 556.99 -3.51946 0.752446 0
M  V30 5916 C 556.598 -3.89311 2.21678 0
M  V30 5917 C 558.342 -4.22437 0.417983 0
M  V30 5918 C 556.249 -5.37655 2.46336 0
M  V30 5919 H 555.179 -0.735888 0.164269 0
M  V30 5920 H 557.83 -1.51073 1.0416 0
M  V30 5921 H 556.212 -3.95899 0.0895858 0
M  V30 5922 H 557.386 -3.56378 2.92115 0
M  V30 5923 H 555.701 -3.31836 2.51543 0
M  V30 5924 H 558.298 -5.31549 0.579674 0
M  V30 5925 H 558.641 -4.11349 -0.640115 0
M  V30 5926 H 559.174 -3.84057 1.03659 0
M  V30 5927 H 555.913 -5.5376 3.50757 0
M  V30 5928 H 555.433 -5.72005 1.80473 0
M  V30 5929 H 557.112 -6.04695 2.30115 0
M  V30 5930 N 557.244 -0.608902 -1.45362 0
M  V30 5931 C 558.177 0.158059 -2.27652 0
M  V30 5932 C 559.155 0.872397 -1.37215 0
M  V30 5933 O 560.339 0.881002 -1.66645 0
M  V30 5934 C 557.466 1.22896 -3.15617 0
M  V30 5935 C 556.512 0.617607 -4.22005 0
M  V30 5936 S 557.345 -0.575518 -5.32398 0
M  V30 5937 C 558.501 0.495938 -6.23932 0
M  V30 5938 H 558.734 -0.540095 -2.92353 0
M  V30 5939 H 556.267 -0.396456 -1.49223 0
M  V30 5940 H 558.225 1.84195 -3.66855 0
M  V30 5941 H 556.886 1.89919 -2.50179 0
M  V30 5942 H 556.079 1.42341 -4.83482 0
M  V30 5943 H 555.681 0.0797273 -3.73915 0
M  V30 5944 H 557.973 1.37465 -6.63408 0
M  V30 5945 H 558.916 -0.0827108 -7.08052 0
M  V30 5946 H 559.324 0.811856 -5.58631 0
M  V30 5947 N 558.722 1.53707 -0.348139 0
M  V30 5948 C 559.999 1.93247 0.302475 0
M  V30 5949 C 560.379 1.28012 1.67857 0
M  V30 5950 O 559.727 0.43274 2.24365 0
M  V30 5951 C 559.937 3.47031 0.370159 0
M  V30 5952 C 561.285 4.20066 0.61882 0
M  V30 5953 O 562.309 3.53319 0.452087 0
M  V30 5954 O 561.168 5.38318 0.94215 0
M  V30 5955 H 558.262 0.807736 0.177458 0
M  V30 5956 H 560.808 1.64927 -0.399651 0
M  V30 5957 H 559.58 3.86745 -0.59534 0
M  V30 5958 H 559.203 3.81532 1.11888 0
M  V30 5959 N 560.2 0.0768682 1.57412 0
M  V30 5960 C 561.616 -0.279772 1.57129 0
M  V30 5961 C 561.816 -1.69688 1.08666 0
M  V30 5962 O 560.872 -2.40953 0.754843 0
M  V30 5963 C 562.185 -0.0848055 3.0058 0
M  V30 5964 C 563.733 -0.153954 3.12621 0
M  V30 5965 C 564.208 0.0127946 4.57998 0
M  V30 5966 N 565.699 -0.0426435 4.6318 0
M  V30 5967 C 566.434 0.0618892 5.73367 0
M  V30 5968 N 565.93 0.220229 6.9245 0
M  V30 5969 N 567.723 0.00446072 5.621 0
M  V30 5970 H 559.874 1.00297 1.87228 0
M  V30 5971 H 562.137 0.391565 0.863354 0
M  V30 5972 H 561.843 0.89325 3.40168 0
M  V30 5973 H 561.717 -0.834961 3.67843 0
M  V30 5974 H 564.104 -1.1225 2.72917 0
M  V30 5975 H 564.185 0.627389 2.47987 0
M  V30 5976 H 563.829 0.978128 4.98392 0
M  V30 5977 H 563.759 -0.788016 5.20671 0
M  V30 5978 H 566.25 -0.163226 3.77547 0
M  V30 5979 H 566.563 0.291999 7.72248 0
M  V30 5980 H 564.908 0.255658 6.9453 0
M  V30 5981 H 568.099 -0.117979 4.67951 0
M  V30 5982 H 568.272 0.0893796 6.47938 0
M  V30 5983 N 561.678 -1.56367 -0.196722 0
M  V30 5984 C 562.927 -1.79724 -0.915539 0
M  V30 5985 C 563.24 -0.649804 -1.84491 0
M  V30 5986 O 564.446 -0.767631 -2.60422 0
M  V30 5987 C 562.902 -3.18369 -1.67836 0
M  V30 5988 C 562.51 -4.4091 -0.793897 0
M  V30 5989 C 564.254 -3.51037 -2.38691 0
M  V30 5990 C 562.161 -5.70577 -1.55549 0
M  V30 5991 H 561.091 -0.67013 -0.345604 0
M  V30 5992 H 563.742 -1.82721 -0.168856 0
M  V30 5993 H 562.124 -3.09617 -2.46887 0
M  V30 5994 H 563.298 -4.60781 -0.042163 0
M  V30 5995 H 561.613 -4.15937 -0.19626 0
M  V30 5996 H 564.21 -4.4515 -2.96219 0
M  V30 5997 H 564.553 -2.74704 -3.12799 0
M  V30 5998 H 565.086 -3.61229 -1.66608 0
M  V30 5999 H 561.825 -6.49871 -0.857226 0
M  V30 6000 H 561.345 -5.54726 -2.2812 0
M  V30 6001 H 563.024 -6.11637 -2.10971 0
M  V30 6002 N 563.156 0.464375 -1.50603 0
M  V30 6003 C 564.386 1.23727 -1.65454 0
M  V30 6004 C 564.794 1.86119 -0.340032 0
M  V30 6005 O 564.137 1.70301 0.688706 0
M  V30 6006 C 564.199 2.38153 -2.69301 0
M  V30 6007 C 563.863 1.96345 -4.12671 0
M  V30 6008 C 564.86 1.48215 -4.98326 0
M  V30 6009 C 562.545 2.04861 -4.58625 0
M  V30 6010 C 564.539 1.09152 -6.27985 0
M  V30 6011 C 562.226 1.65409 -5.88288 0
M  V30 6012 C 563.224 1.17634 -6.72794 0
M  V30 6013 O 562.912 0.787312 -8.00035 0
M  V30 6014 H 562.644 0.380075 -0.559034 0
M  V30 6015 H 565.198 0.559919 -1.97621 0
M  V30 6016 H 563.428 3.09081 -2.32392 0
M  V30 6017 H 565.117 3.00099 -2.73304 0
M  V30 6018 H 565.883 1.41052 -4.64036 0
M  V30 6019 H 561.762 2.40996 -3.92991 0
M  V30 6020 H 565.306 0.717909 -6.93896 0
M  V30 6021 H 561.203 1.72233 -6.22098 0
M  V30 6022 H 561.971 0.915567 -8.13363 0
M  V30 6023 N 564.634 1.40294 0.718013 0
M  V30 6024 C 565.581 1.40367 1.8321 0
M  V30 6025 C 566.551 0.260952 1.64037 0
M  V30 6026 O 567.736 0.458648 1.85205 0
M  V30 6027 C 564.876 1.26965 3.20895 0
M  V30 6028 C 563.989 2.50922 3.51656 0
M  V30 6029 C 563.124 2.29981 4.78834 0
M  V30 6030 C 562.163 3.49527 5.02491 0
M  V30 6031 N 561.3 3.27796 6.20882 0
M  V30 6032 H 566.14 2.35593 1.82482 0
M  V30 6033 H 563.677 1.17012 0.891444 0
M  V30 6034 H 565.635 1.17202 4.00399 0
M  V30 6035 H 564.265 0.353591 3.20858 0
M  V30 6036 H 563.317 2.71223 2.66725 0
M  V30 6037 H 564.629 3.39913 3.65048 0
M  V30 6038 H 563.783 2.17558 5.66351 0
M  V30 6039 H 562.522 1.38411 4.67647 0
M  V30 6040 H 561.527 3.6243 4.1343 0
M  V30 6041 H 562.752 4.42021 5.15553 0
M  V30 6042 H 560.698 2.38906 6.1095 0
M  V30 6043 H 560.615 4.10351 6.34939 0
M  V30 6044 H 561.883 3.19101 7.11193 0
M  V30 6045 N 566.112 -0.949982 1.2575 0
M  V30 6046 C 567.06 -2.06869 1.06339 0
M  V30 6047 C 568.054 -1.69399 -0.00708901 0
M  V30 6048 O 569.26 -1.79383 0.148897 0
M  V30 6049 H 565.635 -0.677197 0.326969 0
M  V30 6050 H 567.606 -2.20396 2.01167 0
M  V30 6051 C 566.355 -3.40503 0.703769 0
M  V30 6052 H 565.678 -3.69807 1.51931 0
M  V30 6053 H 567.118 -4.19623 0.607677 0
M  V30 6054 C 565.577 -3.31685 -0.5905 0
M  V30 6055 O 566.107 -3.67085 -1.63131 0
M  V30 6056 N 564.313 -2.84797 -0.577859 0
M  V30 6057 H 563.86 -2.56186 0.26951 0
M  V30 6058 H 563.818 -2.79279 -1.44398 0
M  V30 6059 N 567.59 -1.07411 -1.15328 0
M  V30 6060 C 568.836 -0.798831 -1.86404 0
M  V30 6061 C 569.169 0.673433 -1.8215 0
M  V30 6062 O 568.444 1.49428 -1.24505 0
M  V30 6063 C 568.727 -1.30846 -3.35487 0
M  V30 6064 C 568.58 -2.84532 -3.4837 0
M  V30 6065 C 569.899 -0.925486 -4.30259 0
M  V30 6066 H 567.018 -0.291659 -0.676834 0
M  V30 6067 H 569.66 -1.332 -1.35491 0
M  V30 6068 H 567.81 -0.854916 -3.78977 0
M  V30 6069 H 569.482 -3.3818 -3.13739 0
M  V30 6070 H 567.725 -3.22699 -2.8991 0
M  V30 6071 H 568.396 -3.15259 -4.53118 0
M  V30 6072 H 570.872 -1.3163 -3.94731 0
M  V30 6073 H 569.748 -1.3094 -5.33053 0
M  V30 6074 H 570.009 0.168525 -4.41779 0
M  V30 6075 N 569.068 1.32177 -0.85831 0
M  V30 6076 C 570.001 2.26823 -0.25035 0
M  V30 6077 C 570.979 1.50571 0.61378 0
M  V30 6078 O 572.163 1.79682 0.569777 0
M  V30 6079 C 569.29 3.32472 0.646556 0
M  V30 6080 C 568.336 4.26255 -0.144675 0
M  V30 6081 S 569.169 5.13608 -1.5155 0
M  V30 6082 C 570.325 6.22778 -0.624408 0
M  V30 6083 H 570.558 2.7804 -1.05267 0
M  V30 6084 H 568.091 1.39764 -0.656152 0
M  V30 6085 H 570.049 3.93817 1.15837 0
M  V30 6086 H 568.71 2.80031 1.42272 0
M  V30 6087 H 567.903 5.01114 0.538613 0
M  V30 6088 H 567.505 3.69346 -0.588198 0
M  V30 6089 H 569.797 6.77287 0.169846 0
M  V30 6090 H 570.74 6.95233 -1.34376 0
M  V30 6091 H 571.148 5.64156 -0.197128 0
M  V30 6092 N 570.547 0.616602 1.45037 0
M  V30 6093 C 571.772 0.120192 2.07051 0
M  V30 6094 C 572.197 -1.19008 1.45666 0
M  V30 6095 O 571.555 -1.7267 0.552692 0
M  V30 6096 C 571.603 0.00354901 3.606 0
M  V30 6097 O 570.707 -1.04431 3.98958 0
M  V30 6098 H 570.048 0.0781599 0.659384 0
M  V30 6099 H 572.578 0.849167 1.86146 0
M  V30 6100 H 572.588 -0.191754 4.07549 0
M  V30 6101 H 571.263 0.960239 4.04663 0
M  V30 6102 H 569.84 -0.824749 3.63665 0
M  V30 6103 N 572.025 -1.5352 0.356285 0
M  V30 6104 C 572.972 -2.25439 -0.494569 0
M  V30 6105 C 573.942 -1.25752 -1.08516 0
M  V30 6106 O 575.127 -1.54513 -1.1194 0
M  V30 6107 C 572.267 -3.04011 -1.63313 0
M  V30 6108 C 571.38 -4.18574 -1.06862 0
M  V30 6109 C 570.515 -4.84607 -2.17552 0
M  V30 6110 C 569.554 -5.91218 -1.58518 0
M  V30 6111 N 568.691 -6.50979 -2.63003 0
M  V30 6112 H 573.531 -2.97737 0.125244 0
M  V30 6113 H 571.068 -1.46916 0.0735789 0
M  V30 6114 H 573.026 -3.47834 -2.30363 0
M  V30 6115 H 571.656 -2.33986 -2.22374 0
M  V30 6116 H 570.708 -3.79303 -0.288672 0
M  V30 6117 H 572.02 -4.95215 -0.596924 0
M  V30 6118 H 571.174 -5.31566 -2.92442 0
M  V30 6119 H 569.913 -4.07418 -2.6807 0
M  V30 6120 H 568.918 -5.4363 -0.821391 0
M  V30 6121 H 570.143 -6.70322 -1.08836 0
M  V30 6122 H 568.089 -5.76648 -3.12751 0
M  V30 6123 H 568.006 -7.23131 -2.20493 0
M  V30 6124 H 569.274 -7.02589 -3.37623 0
M  V30 6125 N 573.503 -0.0852151 -1.57369 0
M  V30 6126 C 574.749 0.581666 -1.94279 0
M  V30 6127 C 575.082 1.68444 -0.966446 0
M  V30 6128 O 574.357 1.945 0.00215277 0
M  V30 6129 C 574.64 1.14609 -3.41375 0
M  V30 6130 C 574.493 0.0490414 -4.49773 0
M  V30 6131 C 575.812 2.04751 -3.8957 0
M  V30 6132 H 572.931 0.209972 -0.706456 0
M  V30 6133 H 575.573 -0.153915 -1.89376 0
M  V30 6134 H 573.723 1.77297 -3.45685 0
M  V30 6135 H 575.395 -0.584721 -4.57579 0
M  V30 6136 H 573.638 -0.618638 -4.29366 0
M  V30 6137 H 574.309 0.484601 -5.49869 0
M  V30 6138 H 576.785 1.51981 -3.87351 0
M  V30 6139 H 575.661 2.41173 -4.93079 0
M  V30 6140 H 575.922 2.96107 -3.28288 0
M  V30 6141 N 574.981 1.5647 0.188427 0
M  V30 6142 C 575.913 1.91611 1.25769 0
M  V30 6143 C 576.926 0.807436 1.41366 0
M  V30 6144 O 578.115 1.08586 1.41673 0
M  V30 6145 C 575.215 2.13874 2.6289 0
M  V30 6146 C 574.388 3.45047 2.68815 0
M  V30 6147 C 573.447 3.56342 3.87178 0
M  V30 6148 O 572.473 4.29109 3.73971 0
M  V30 6149 N 573.675 2.89924 5.02916 0
M  V30 6150 H 576.44 2.8393 0.959373 0
M  V30 6151 H 574.001 1.57418 0.378306 0
M  V30 6152 H 575.993 2.18713 3.4051 0
M  V30 6153 H 574.563 1.28022 2.85183 0
M  V30 6154 H 573.783 3.52017 1.77419 0
M  V30 6155 H 575.071 4.31395 2.6977 0
M  V30 6156 H 574.469 2.30644 5.16546 0
M  V30 6157 H 573.026 3.0038 5.78459 0
M  V30 6158 N 576.459 -0.456382 1.50847 0
M  V30 6159 C 577.369 -1.57805 1.73594 0
M  V30 6160 C 578.385 -1.62599 0.619476 0
M  V30 6161 O 579.561 -1.80195 0.899532 0
M  V30 6162 C 576.626 -2.93926 1.8387 0
M  V30 6163 C 575.687 -2.99402 3.07663 0
M  V30 6164 C 574.92 -4.29031 3.1744 0
M  V30 6165 O 575.143 -5.20358 2.33631 0
M  V30 6166 O 574.077 -4.40401 4.10281 0
M  V30 6167 H 577.903 -1.41531 2.68705 0
M  V30 6168 H 575.488 -0.637422 1.3512 0
M  V30 6169 H 577.37 -3.74747 1.92725 0
M  V30 6170 H 576.045 -3.10368 0.91944 0
M  V30 6171 H 574.952 -2.17606 3.043 0
M  V30 6172 H 576.285 -2.87901 3.99216 0
M  V30 6173 N 577.937 -1.40673 -0.710563 0
M  V30 6174 C 578.87 -1.35742 -1.83438 0
M  V30 6175 C 579.848 -0.226997 -1.61008 0
M  V30 6176 O 581.032 -0.411477 -1.83954 0
M  V30 6177 C 578.159 -1.11374 -3.19865 0
M  V30 6178 C 577.205 -2.26935 -3.61113 0
M  V30 6179 S 578.038 -3.89352 -3.67648 0
M  V30 6180 C 579.194 -3.67258 -5.06826 0
M  V30 6181 H 579.427 -2.30848 -1.87341 0
M  V30 6182 H 576.96 -1.27018 -0.877831 0
M  V30 6183 H 578.918 -0.980004 -3.9863 0
M  V30 6184 H 577.579 -0.179135 -3.13589 0
M  V30 6185 H 576.772 -2.0554 -4.60184 0
M  V30 6186 H 576.374 -2.36638 -2.89618 0
M  V30 6187 H 578.666 -3.26036 -5.93891 0
M  V30 6188 H 579.609 -4.65878 -5.33257 0
M  V30 6189 H 580.017 -3.0084 -4.77656 0
M  V30 6190 N 579.415 0.9433 -1.26252 0
M  V30 6191 C 580.363 2.06302 -1.07434 0
M  V30 6192 C 581.357 1.694 -0.00189471 0
M  V30 6193 O 582.563 1.79302 -0.158408 0
M  V30 6194 H 578.938 0.675453 -0.330556 0
M  V30 6195 H 580.909 2.19326 -2.02333 0
M  V30 6196 C 579.658 3.40125 -0.721817 0
M  V30 6197 H 578.981 3.68996 -1.5389 0
M  V30 6198 H 580.421 4.19295 -0.629922 0
M  V30 6199 C 578.88 3.31993 0.572902 0
M  V30 6200 O 579.41 3.67945 1.61182 0
M  V30 6201 N 577.616 2.85099 0.562748 0
M  V30 6202 H 577.163 2.5604 -0.283092 0
M  V30 6203 H 577.121 2.80041 1.42915 0
M  V30 6204 N 580.893 1.08022 1.14757 0
M  V30 6205 C 582.123 0.827646 1.89298 0
M  V30 6206 C 582.531 -0.623506 1.78631 0
M  V30 6207 O 581.874 -1.43991 1.14071 0
M  V30 6208 C 581.936 1.16553 3.40082 0
M  V30 6209 C 581.6 2.61866 3.74533 0
M  V30 6210 C 582.597 3.60116 3.74984 0
M  V30 6211 C 580.282 2.97619 4.04633 0
M  V30 6212 C 582.276 4.92151 4.05051 0
M  V30 6213 C 579.963 4.2985 4.34364 0
M  V30 6214 C 580.961 5.26926 4.34555 0
M  V30 6215 O 580.649 6.5678 4.63568 0
M  V30 6216 H 580.381 0.298396 0.606577 0
M  V30 6217 H 582.935 1.44187 1.46285 0
M  V30 6218 H 581.165 0.494296 3.83528 0
M  V30 6219 H 582.854 0.894407 3.95923 0
M  V30 6220 H 583.62 3.33837 3.51821 0
M  V30 6221 H 579.499 2.22702 4.03639 0
M  V30 6222 H 583.043 5.67915 4.05115 0
M  V30 6223 H 578.94 4.55879 4.56995 0
M  V30 6224 H 579.708 6.62035 4.81303 0
M  V30 6225 N 582.371 -1.3172 0.865308 0
M  V30 6226 C 583.62 -1.96145 0.470098 0
M  V30 6227 C 583.933 -1.69182 -0.981674 0
M  V30 6228 O 585.139 -2.27431 -1.48281 0
M  V30 6229 C 583.595 -3.51129 0.789732 0
M  V30 6230 C 583.203 -3.86938 2.25795 0
M  V30 6231 C 584.947 -4.2197 0.462765 0
M  V30 6232 C 582.854 -5.35012 2.52024 0
M  V30 6233 H 581.784 -0.734105 0.172065 0
M  V30 6234 H 584.435 -1.49959 1.05757 0
M  V30 6235 H 582.817 -3.95781 0.131571 0
M  V30 6236 H 583.991 -3.5326 2.95879 0
M  V30 6237 H 582.306 -3.29149 2.55049 0
M  V30 6238 H 584.903 -5.30904 0.636019 0
M  V30 6239 H 585.246 -4.12005 -0.59645 0
M  V30 6240 H 585.779 -3.82936 1.07727 0
M  V30 6241 H 582.518 -5.50008 3.56611 0
M  V30 6242 H 582.038 -5.70058 1.8653 0
M  V30 6243 H 583.717 -6.0222 2.36515 0
M  V30 6244 N 583.85 -0.624285 -1.44708 0
M  V30 6245 C 584.782 0.12305 -2.28869 0
M  V30 6246 C 585.795 0.81557 -1.40898 0
M  V30 6247 O 586.984 0.678162 -1.65116 0
M  V30 6248 C 584.084 1.19612 -3.1709 0
M  V30 6249 C 583.257 0.587452 -4.33437 0
M  V30 6250 C 582.316 1.55358 -5.02743 0
M  V30 6251 O 581.341 1.07338 -5.58988 0
M  V30 6252 N 582.543 2.88798 -5.03563 0
M  V30 6253 H 585.308 -0.599193 -2.93649 0
M  V30 6254 H 582.87 -0.464954 -1.5508 0
M  V30 6255 H 584.861 1.84261 -3.60319 0
M  V30 6256 H 583.432 1.82067 -2.54107 0
M  V30 6257 H 582.652 -0.237509 -3.93484 0
M  V30 6258 H 583.94 0.161326 -5.08544 0
M  V30 6259 H 583.338 3.30399 -4.59188 0
M  V30 6260 H 581.894 3.48826 -5.50603 0
M  V30 6261 N 585.328 1.53329 -0.364422 0
M  V30 6262 C 586.275 2.25698 0.482607 0
M  V30 6263 C 587.245 1.26325 1.07848 0
M  V30 6264 O 588.43 1.55104 1.11119 0
M  V30 6265 C 585.57 3.04873 1.61699 0
M  V30 6266 C 584.683 4.19135 1.0464 0
M  V30 6267 C 583.818 4.85754 2.14979 0
M  V30 6268 C 582.857 5.9205 1.5538 0
M  V30 6269 N 581.994 6.52365 2.59547 0
M  V30 6270 H 586.834 2.97666 -0.141032 0
M  V30 6271 H 584.371 1.46875 -0.0813692 0
M  V30 6272 H 586.329 3.49051 2.28516 0
M  V30 6273 H 584.959 2.35162 2.2113 0
M  V30 6274 H 584.011 3.79451 0.268553 0
M  V30 6275 H 585.323 4.95525 0.570653 0
M  V30 6276 H 584.477 5.3311 2.89619 0
M  V30 6277 H 583.216 4.08834 2.65906 0
M  V30 6278 H 582.221 5.44058 0.792549 0
M  V30 6279 H 583.446 6.7089 1.0528 0
M  V30 6280 H 581.392 5.78298 3.09689 0
M  V30 6281 H 581.309 7.2429 2.16655 0
M  V30 6282 H 582.577 7.0437 3.33892 0
M  V30 6283 N 586.806 0.0935595 1.57322 0
M  V30 6284 C 588.034 -0.578934 1.98635 0
M  V30 6285 C 588.449 -1.61819 0.972626 0
M  V30 6286 O 587.806 -1.82461 -0.0379638 0
M  V30 6287 C 587.857 -1.22802 3.40003 0
M  V30 6288 O 587.578 -0.230334 4.37494 0
M  V30 6289 C 589.079 -1.98627 3.96311 0
M  V30 6290 H 586.299 -0.155324 0.652775 0
M  V30 6291 H 588.843 0.172393 2.03772 0
M  V30 6292 H 586.998 -1.93029 3.35885 0
M  V30 6293 H 587.412 -0.698649 5.19826 0
M  V30 6294 H 588.886 -2.39405 4.97382 0
M  V30 6295 H 589.363 -2.85151 3.34044 0
M  V30 6296 H 589.969 -1.3322 4.03897 0
M  V30 6297 N 588.284 -1.56567 -0.180126 0
M  V30 6298 C 589.214 -1.98753 -1.22553 0
M  V30 6299 C 590.195 -0.86175 -1.46656 0
M  V30 6300 O 591.38 -1.12719 -1.58139 0
M  V30 6301 C 588.51 -2.33988 -2.56645 0
M  V30 6302 C 587.464 -3.49445 -2.47128 0
M  V30 6303 C 586.79 -3.70397 -3.8563 0
M  V30 6304 C 588.09 -4.83171 -1.98352 0
M  V30 6305 H 589.784 -2.86332 -0.874896 0
M  V30 6306 H 587.33 -1.37757 -0.419414 0
M  V30 6307 H 589.283 -2.62097 -3.29974 0
M  V30 6308 H 588.007 -1.43309 -2.93479 0
M  V30 6309 H 586.666 -3.2145 -1.76254 0
M  V30 6310 H 586.314 -2.77023 -4.19842 0
M  V30 6311 H 586.014 -4.48077 -3.80132 0
M  V30 6312 H 587.538 -4.00897 -4.60558 0
M  V30 6313 H 588.952 -5.10213 -2.61449 0
M  V30 6314 H 587.349 -5.64425 -2.03823 0
M  V30 6315 H 588.419 -4.75753 -0.937402 0
M  V30 6316 N 589.762 0.448376 -1.51087 0
M  V30 6317 C 591.009 1.19872 -1.63209 0
M  V30 6318 C 591.337 1.91451 -0.343062 0
M  V30 6319 O 590.592 1.83789 0.672321 0
M  V30 6320 C 590.891 2.24866 -2.77795 0
M  V30 6321 C 590.557 1.70378 -4.17471 0
M  V30 6322 C 589.219 1.55241 -4.55471 0
M  V30 6323 C 591.571 1.30203 -5.04675 0
M  V30 6324 C 588.899 0.983844 -5.78392 0
M  V30 6325 C 591.251 0.747798 -6.28165 0
M  V30 6326 C 589.915 0.583233 -6.64947 0
M  V30 6327 H 589.185 0.438642 -0.597222 0
M  V30 6328 H 591.832 0.49136 -1.85089 0
M  V30 6329 H 590.137 3.01598 -2.50092 0
M  V30 6330 H 591.834 2.82723 -2.84374 0
M  V30 6331 H 588.424 1.83134 -3.87505 0
M  V30 6332 H 592.608 1.40723 -4.75932 0
M  V30 6333 H 587.864 0.844007 -6.05546 0
M  V30 6334 H 592.038 0.427927 -6.95084 0
M  V30 6335 H 589.665 0.140532 -7.6007 0
M  V30 6336 N 591.24 1.41047 0.703093 0
M  V30 6337 C 592.187 1.42302 1.81711 0
M  V30 6338 C 593.157 0.278336 1.63751 0
M  V30 6339 O 594.342 0.478266 1.84709 0
M  V30 6340 C 591.482 1.30362 3.19531 0
M  V30 6341 C 590.595 2.54638 3.48975 0
M  V30 6342 C 589.73 2.35047 4.76368 0
M  V30 6343 C 588.769 3.54837 4.98756 0
M  V30 6344 N 587.906 3.34363 6.1737 0
M  V30 6345 H 592.746 2.37516 1.79973 0
M  V30 6346 H 590.283 1.1795 0.878983 0
M  V30 6347 H 592.241 1.21443 3.99134 0
M  V30 6348 H 590.871 0.387602 3.20464 0
M  V30 6349 H 589.923 2.74037 2.63833 0
M  V30 6350 H 591.235 3.43766 3.61423 0
M  V30 6351 H 590.389 2.23552 5.64012 0
M  V30 6352 H 589.128 1.43363 4.66153 0
M  V30 6353 H 588.133 3.66795 4.09563 0
M  V30 6354 H 589.358 4.47464 5.10835 0
M  V30 6355 H 587.304 2.45373 6.08382 0
M  V30 6356 H 587.221 4.17063 6.30551 0
M  V30 6357 H 588.489 3.26626 7.07768 0
M  V30 6358 N 592.718 -0.936591 1.26751 0
M  V30 6359 C 593.967 -1.67778 1.11953 0
M  V30 6360 C 594.28 -1.92694 -0.33589 0
M  V30 6361 O 595.486 -2.64682 -0.604618 0
M  V30 6362 C 593.942 -3.02138 1.95551 0
M  V30 6363 C 593.55 -2.84953 3.45696 0
M  V30 6364 C 595.294 -3.79917 1.89377 0
M  V30 6365 C 593.201 -4.14814 4.21525 0
M  V30 6366 H 592.131 -0.629275 0.415366 0
M  V30 6367 H 594.782 -1.04122 1.51099 0
M  V30 6368 H 593.164 -3.668 1.49243 0
M  V30 6369 H 594.338 -2.29112 3.99805 0
M  V30 6370 H 592.653 -2.20612 3.53156 0
M  V30 6371 H 595.25 -4.76134 2.43312 0
M  V30 6372 H 595.593 -4.07204 0.865464 0
M  V30 6373 H 596.126 -3.22037 2.33532 0
M  V30 6374 H 592.865 -3.92709 5.24843 0
M  V30 6375 H 592.385 -4.70352 3.72195 0
M  V30 6376 H 594.064 -4.83239 4.3022 0
M  V30 6377 N 594.196 -1.08629 -1.14182 0
M  V30 6378 C 595.444 -0.815731 -1.84906 0
M  V30 6379 C 595.765 0.660441 -1.83475 0
M  V30 6380 O 595.035 1.47888 -1.28476 0
M  V30 6381 H 593.615 -0.298773 -0.684648 0
M  V30 6382 H 596.277 -1.37274 -1.38354 0
M  V30 6383 H 595.373 -1.16193 -2.89665 0
M  V30 6384 N 595.674 1.31259 -0.872281 0
M  V30 6385 C 596.904 2.00504 -0.498183 0
M  V30 6386 C 597.312 1.65632 0.914479 0
M  V30 6387 O 596.655 0.882849 1.61095 0
M  V30 6388 C 596.717 3.5482 -0.578194 0
M  V30 6389 C 596.381 4.13172 -1.95289 0
M  V30 6390 C 597.378 4.30107 -2.92069 0
M  V30 6391 C 595.063 4.48846 -2.25483 0
M  V30 6392 C 597.057 4.81908 -4.17185 0
M  V30 6393 C 594.744 5.00349 -3.50847 0
M  V30 6394 C 595.742 5.16831 -4.46514 0
M  V30 6395 O 595.43 5.67228 -5.69656 0
M  V30 6396 H 595.162 0.648055 -0.192354 0
M  V30 6397 H 597.716 1.6841 -1.17589 0
M  V30 6398 H 595.946 3.86383 0.156438 0
M  V30 6399 H 597.635 4.05318 -0.217192 0
M  V30 6400 H 598.401 4.02862 -2.7005 0
M  V30 6401 H 594.28 4.35292 -1.51795 0
M  V30 6402 H 597.824 4.94688 -4.91863 0
M  V30 6403 H 593.721 5.27028 -3.72708 0
M  V30 6404 H 594.489 5.85592 -5.7186 0
M  V30 6405 N 597.152 0.631951 1.44375 0
M  V30 6406 C 598.429 0.067646 1.95483 0
M  V30 6407 C 598.809 -1.40683 1.57389 0
M  V30 6408 O 598.157 -2.12167 0.848375 0
M  V30 6409 C 598.367 0.291392 3.47781 0
M  V30 6410 C 599.715 0.185028 4.24197 0
M  V30 6411 O 600.739 0.222803 3.55503 0
M  V30 6412 O 599.598 0.0906642 5.46425 0
M  V30 6413 H 596.692 -0.0218379 0.826712 0
M  V30 6414 H 599.238 0.703711 1.54421 0
M  V30 6415 H 598.01 1.31449 3.68561 0
M  V30 6416 H 597.633 -0.378772 3.95792 0
M  V30 6417 N 598.631 -1.53133 0.372548 0
M  V30 6418 C 599.861 -2.05476 -0.215202 0
M  V30 6419 C 600.269 -1.24534 -1.42436 0
M  V30 6420 O 599.612 -0.280771 -1.81542 0
M  V30 6421 C 599.674 -3.53276 -0.666068 0
M  V30 6422 C 599.338 -4.54998 0.427342 0
M  V30 6423 C 600.335 -5.03911 1.27944 0
M  V30 6424 C 598.02 -4.98828 0.589579 0
M  V30 6425 C 600.014 -5.95263 2.27905 0
M  V30 6426 C 597.701 -5.89984 1.59255 0
M  V30 6427 C 598.699 -6.38093 2.43571 0
M  V30 6428 O 598.387 -7.27451 3.42156 0
M  V30 6429 H 598.119 -0.67481 -0.040099 0
M  V30 6430 H 600.673 -1.98409 0.531312 0
M  V30 6431 H 598.903 -3.57904 -1.4643 0
M  V30 6432 H 600.592 -3.88442 -1.1776 0
M  V30 6433 H 601.358 -4.70792 1.16532 0
M  V30 6434 H 597.237 -4.60965 -0.0569456 0
M  V30 6435 H 600.781 -6.32736 2.93753 0
M  V30 6436 H 596.678 -6.22518 1.70711 0
M  V30 6437 H 597.446 -7.45467 3.37967 0
M  V30 6438 N 600.109 -0.101901 -1.5727 0
M  V30 6439 C 601.056 0.854577 -2.14396 0
M  V30 6440 C 602.026 1.27521 -1.06432 0
M  V30 6441 O 603.211 1.35575 -1.34253 0
M  V30 6442 C 600.351 2.10576 -2.73408 0
M  V30 6443 C 599.464 1.73504 -3.95626 0
M  V30 6444 C 598.599 2.9346 -4.42781 0
M  V30 6445 C 597.638 2.52547 -5.57572 0
M  V30 6446 N 596.775 3.65359 -5.99547 0
M  V30 6447 H 601.615 0.360578 -2.9581 0
M  V30 6448 H 599.152 0.166303 -1.46157 0
M  V30 6449 H 601.11 2.83859 -3.05745 0
M  V30 6450 H 599.74 2.57463 -1.94711 0
M  V30 6451 H 598.792 0.901622 -3.6956 0
M  V30 6452 H 600.104 1.39426 -4.78917 0
M  V30 6453 H 599.258 3.74988 -4.76937 0
M  V30 6454 H 597.997 3.30753 -3.58404 0
M  V30 6455 H 597.002 1.69446 -5.23037 0
M  V30 6456 H 598.227 2.1639 -6.43702 0
M  V30 6457 H 596.173 4.02358 -5.18116 0
M  V30 6458 H 596.09 3.35148 -6.77652 0
M  V30 6459 H 597.358 4.47378 -6.38336 0
M  V30 6460 N 601.587 1.56661 0.17182 0
M  V30 6461 C 602.517 1.99401 1.21498 0
M  V30 6462 C 603.498 0.869516 1.46197 0
M  V30 6463 O 604.683 1.13556 1.57539 0
M  V30 6464 C 601.813 2.35346 2.55401 0
M  V30 6465 C 600.767 3.5075 2.45272 0
M  V30 6466 C 600.093 3.72437 3.8366 0
M  V30 6467 C 601.393 4.84216 1.95787 0
M  V30 6468 H 603.087 2.86792 0.859699 0
M  V30 6469 H 600.633 1.37977 0.412103 0
M  V30 6470 H 602.586 2.63843 3.2858 0
M  V30 6471 H 601.31 1.44864 2.92715 0
M  V30 6472 H 599.969 3.2238 1.74547 0
M  V30 6473 H 599.617 2.79246 4.18367 0
M  V30 6474 H 599.317 4.50087 3.77751 0
M  V30 6475 H 600.841 4.03334 4.58426 0
M  V30 6476 H 602.255 5.11592 2.5874 0
M  V30 6477 H 600.652 5.65498 2.00827 0
M  V30 6478 H 601.722 4.76243 0.912159 0
M  V30 6479 N 603.065 -0.440357 1.51323 0
M  V30 6480 C 603.975 -1.55955 1.75258 0
M  V30 6481 C 604.991 -1.61933 0.636687 0
M  V30 6482 O 606.167 -1.79231 0.918593 0
M  V30 6483 C 603.232 -2.9196 1.86977 0
M  V30 6484 C 602.293 -2.96122 3.10822 0
M  V30 6485 C 601.526 -4.2564 3.21973 0
M  V30 6486 O 601.749 -5.17851 2.39137 0
M  V30 6487 O 600.683 -4.36025 4.14929 0
M  V30 6488 H 604.509 -1.38673 2.70191 0
M  V30 6489 H 602.094 -0.623055 1.35788 0
M  V30 6490 H 603.976 -3.72682 1.96688 0
M  V30 6491 H 602.651 -3.09375 0.952307 0
M  V30 6492 H 601.558 -2.14366 3.06591 0
M  V30 6493 H 602.891 -2.83651 4.02247 0
M  V30 6494 N 604.543 -1.41418 -0.695603 0
M  V30 6495 C 605.475 -1.39195 -1.82092 0
M  V30 6496 C 606.488 -0.294132 -1.60121 0
M  V30 6497 O 607.677 -0.555854 -1.69625 0
M  V30 6498 C 604.777 -1.14828 -3.18854 0
M  V30 6499 C 603.95 -2.36649 -3.67853 0
M  V30 6500 C 603.009 -2.08139 -4.83285 0
M  V30 6501 O 602.035 -2.81177 -4.94902 0
M  V30 6502 N 603.237 -1.07162 -5.70523 0
M  V30 6503 H 606.002 -2.36185 -1.84491 0
M  V30 6504 H 603.563 -1.3603 -0.877923 0
M  V30 6505 H 605.555 -0.937075 -3.93702 0
M  V30 6506 H 604.125 -0.264358 -3.1148 0
M  V30 6507 H 603.345 -2.73472 -2.83913 0
M  V30 6508 H 604.633 -3.17816 -3.97329 0
M  V30 6509 H 604.031 -0.467124 -5.63768 0
M  V30 6510 H 602.588 -0.920311 -6.4527 0
M  V30 6511 N 606.021 0.929856 -1.27246 0
M  V30 6512 C 607.27 1.67182 -1.12842 0
M  V30 6513 C 607.583 1.9287 0.325666 0
M  V30 6514 O 608.789 2.64999 0.590572 0
M  V30 6515 C 607.245 3.01097 -1.97151 0
M  V30 6516 C 606.853 2.83115 -3.47203 0
M  V30 6517 C 608.597 3.78907 -1.91389 0
M  V30 6518 C 606.504 4.12573 -4.23719 0
M  V30 6519 H 605.434 0.627064 -0.418697 0
M  V30 6520 H 608.085 1.0332 -1.51649 0
M  V30 6521 H 606.467 3.66004 -1.51186 0
M  V30 6522 H 607.641 2.26989 -4.01015 0
M  V30 6523 H 605.956 2.18736 -3.54321 0
M  V30 6524 H 608.553 4.74837 -2.45834 0
M  V30 6525 H 608.896 4.0674 -0.887047 0
M  V30 6526 H 609.429 3.20794 -2.35237 0
M  V30 6527 H 606.168 3.8992 -5.26918 0
M  V30 6528 H 605.688 4.68371 -3.74685 0
M  V30 6529 H 607.367 4.8095 -4.32777 0
M  V30 6530 N 607.499 1.09233 1.13605 0
M  V30 6531 C 608.446 0.729921 2.18954 0
M  V30 6532 C 609.416 -0.287916 1.63586 0
M  V30 6533 O 610.601 -0.170003 1.90041 0
M  V30 6534 C 607.741 0.154489 3.44754 0
M  V30 6535 C 606.854 1.22613 4.14234 0
M  V30 6536 C 605.989 0.613657 5.27644 0
M  V30 6537 C 605.028 1.66674 5.8897 0
M  V30 6538 N 604.165 1.07545 6.93814 0
M  V30 6539 H 609.005 1.63257 2.49302 0
M  V30 6540 H 606.542 0.815693 1.22413 0
M  V30 6541 H 608.5 -0.196923 4.16735 0
M  V30 6542 H 607.13 -0.711433 3.14863 0
M  V30 6543 H 606.182 1.69485 3.40557 0
M  V30 6544 H 607.494 2.0238 4.55899 0
M  V30 6545 H 606.648 0.210976 6.06333 0
M  V30 6546 H 605.387 -0.215584 4.87223 0
M  V30 6547 H 604.392 2.07899 5.08978 0
M  V30 6548 H 605.617 2.49861 6.31464 0
M  V30 6549 H 603.563 0.267451 6.55455 0
M  V30 6550 H 603.48 1.81011 7.3401 0
M  V30 6551 H 604.748 0.698906 7.7636 0
M  V30 6552 N 608.977 -1.30795 0.87923 0
M  V30 6553 C 609.924 -2.28282 0.339968 0
M  V30 6554 C 610.894 -1.56134 -0.566685 0
M  V30 6555 O 612.079 -1.84231 -0.496338 0
M  V30 6556 C 609.219 -3.42225 -0.444501 0
M  V30 6557 C 608.332 -4.29204 0.490717 0
M  V30 6558 C 607.467 -5.30302 -0.308784 0
M  V30 6559 C 606.506 -6.08929 0.622272 0
M  V30 6560 N 605.643 -7.01957 -0.14155 0
M  V30 6561 H 610.483 -2.73794 1.17647 0
M  V30 6562 H 608.02 -1.34682 0.591527 0
M  V30 6563 H 609.978 -4.07038 -0.915186 0
M  V30 6564 H 608.608 -2.97799 -1.24562 0
M  V30 6565 H 607.66 -3.6475 1.07988 0
M  V30 6566 H 608.972 -4.84045 1.20425 0
M  V30 6567 H 608.126 -6.00835 -0.841575 0
M  V30 6568 H 606.865 -4.7614 -1.05556 0
M  V30 6569 H 605.87 -5.37278 1.16674 0
M  V30 6570 H 607.095 -6.65178 1.36804 0
M  V30 6571 H 605.041 -6.50192 -0.870966 0
M  V30 6572 H 604.958 -7.54261 0.51246 0
M  V30 6573 H 606.226 -7.76741 -0.655271 0
M  V30 6574 N 610.455 -0.639598 -1.44038 0
M  V30 6575 C 611.703 -0.147188 -2.01563 0
M  V30 6576 C 612.024 1.2384 -1.50628 0
M  V30 6577 O 611.294 1.82452 -0.713316 0
M  V30 6578 H 609.874 -0.0514231 -0.745228 0
M  V30 6579 H 612.536 -0.828205 -1.76428 0
M  V30 6580 H 611.632 -0.121358 -3.11864 0
M  V30 6581 N 611.933 1.52934 -0.380664 0
M  V30 6582 C 613.163 2.05587 0.204302 0
M  V30 6583 C 613.571 1.25288 1.41773 0
M  V30 6584 O 612.914 0.290394 1.8139 0
M  V30 6585 C 612.976 3.53624 0.647324 0
M  V30 6586 C 612.64 4.54765 -0.451465 0
M  V30 6587 C 613.637 5.03226 -1.30614 0
M  V30 6588 C 611.322 4.98508 -0.616025 0
M  V30 6589 C 613.316 5.94046 -2.31058 0
M  V30 6590 C 611.003 5.89131 -1.62381 0
M  V30 6591 C 612.001 6.36792 -2.46952 0
M  V30 6592 O 611.689 7.25626 -3.46009 0
M  V30 6593 H 611.421 0.675013 0.0365198 0
M  V30 6594 H 613.975 1.98125 -0.541827 0
M  V30 6595 H 612.205 3.58676 1.44529 0
M  V30 6596 H 613.894 3.89061 1.15698 0
M  V30 6597 H 614.66 4.70167 -1.19027 0
M  V30 6598 H 610.539 4.60989 0.0324987 0
M  V30 6599 H 614.083 6.3117 -2.97104 0
M  V30 6600 H 609.98 6.21603 -1.7401 0
M  V30 6601 H 610.748 7.43664 -3.41916 0
M  V30 6602 N 613.412 0.11024 1.57214 0
M  V30 6603 C 614.689 -0.592956 1.86396 0
M  V30 6604 C 615.069 -1.85379 1.00985 0
M  V30 6605 O 614.417 -2.28337 0.0863592 0
M  V30 6606 C 614.627 -0.893816 3.3736 0
M  V30 6607 C 615.975 -1.25069 4.05762 0
M  V30 6608 O 616.999 -0.984356 3.42329 0
M  V30 6609 O 615.858 -1.75017 5.17718 0
M  V30 6610 H 612.952 -0.29828 0.771335 0
M  V30 6611 H 615.498 0.144083 1.69087 0
M  V30 6612 H 614.27 2.6031e-05 3.913 0
M  V30 6613 H 613.893 -1.68631 3.60068 0
M  V30 6614 N 614.89 -1.56749 -0.16351 0
M  V30 6615 C 615.853 -1.96121 -1.18613 0
M  V30 6616 C 616.853 -0.845765 -1.36761 0
M  V30 6617 O 618.043 -1.11268 -1.34033 0
M  V30 6618 C 615.175 -2.26282 -2.54969 0
M  V30 6619 H 616.368 -2.87639 -0.848764 0
M  V30 6620 H 613.921 -1.50928 -0.406251 0
M  V30 6621 H 614.656 -1.37504 -2.93706 0
M  V30 6622 H 614.441 -3.07595 -2.43162 0
M  V30 6623 H 615.931 -2.57638 -3.28653 0
M  V30 6624 N 616.368 0.432326 -1.51554 0
M  V30 6625 C 617.779 1.01202 -1.56892 0
M  V30 6626 C 618.13 1.92175 -0.395394 0
M  V30 6627 O 617.255 2.10844 0.487198 0
M  V30 6628 C 617.85 1.84217 -2.8434 0
M  V30 6629 C 616.409 2.37228 -2.92233 0
M  V30 6630 C 615.556 1.16576 -2.51606 0
M  V30 6631 H 618.507 0.213407 -1.57259 0
M  V30 6632 H 618.528 2.69721 -2.68385 0
M  V30 6633 H 618.04 1.17979 -3.69733 0
M  V30 6634 H 616.141 3.06905 -2.11282 0
M  V30 6635 H 616.254 2.69682 -3.95991 0
M  V30 6636 H 614.618 1.51263 -2.04919 0
M  V30 6637 H 615.401 0.519404 -3.39348 0
M  V30 6638 N 617.846 1.41785 0.688094 0
M  V30 6639 C 618.776 1.47 1.8142 0
M  V30 6640 C 619.757 0.327881 1.6691 0
M  V30 6641 O 620.942 0.540362 1.86531 0
M  V30 6642 C 618.072 1.35876 3.19617 0
M  V30 6643 C 617.026 2.47976 3.48844 0
M  V30 6644 C 616.352 2.21915 4.86475 0
M  V30 6645 C 617.652 3.90309 3.47068 0
M  V30 6646 H 619.346 2.41247 1.77314 0
M  V30 6647 H 616.892 1.16116 0.851651 0
M  V30 6648 H 618.845 1.38134 3.98117 0
M  V30 6649 H 617.569 0.38116 3.24368 0
M  V30 6650 H 616.228 2.45013 2.72698 0
M  V30 6651 H 615.876 1.2248 4.8786 0
M  V30 6652 H 615.576 2.97037 5.06994 0
M  V30 6653 H 617.1 2.25901 5.67275 0
M  V30 6654 H 618.514 3.94947 4.1556 0
M  V30 6655 H 616.911 4.65175 3.7912 0
M  V30 6656 H 617.981 4.17927 2.45896 0
M  V30 6657 N 619.324 -0.923095 1.27737 0
M  V30 6658 C 620.564 -1.6858 1.15586 0
M  V30 6659 C 620.928 -1.89758 -0.292562 0
M  V30 6660 O 622.129 -2.6339 -0.536583 0
M  V30 6661 C 620.4 -3.01275 1.92271 0
M  V30 6662 S 621.959 -3.924 1.96387 0
M  V30 6663 H 618.777 -0.579069 0.412554 0
M  V30 6664 H 621.379 -1.09866 1.61709 0
M  V30 6665 H 620.083 -2.83556 2.96689 0
M  V30 6666 H 619.614 -3.6504 1.46661 0
M  V30 6667 H 621.629 -4.84667 1.06361 0
M  V30 6668 N 620.802 -1.09834 -1.13024 0
M  V30 6669 C 621.75 -0.736283 -2.20639 0
M  V30 6670 C 622.744 0.264725 -1.67319 0
M  V30 6671 O 623.95 0.125745 -1.7956 0
M  V30 6672 H 620.325 -0.220136 -0.719058 0
M  V30 6673 H 622.296 -1.65295 -2.48436 0
M  V30 6674 C 621.045 -0.177544 -3.47246 0
M  V30 6675 H 620.368 -0.939009 -3.88616 0
M  V30 6676 H 621.808 0.0378007 -4.23983 0
M  V30 6677 C 620.267 1.08824 -3.1884 0
M  V30 6678 O 620.797 2.1708 -3.37993 0
M  V30 6679 N 619.003 1.00442 -2.7269 0
M  V30 6680 H 618.55 0.123383 -2.57304 0
M  V30 6681 H 618.508 1.85206 -2.5406 0
M  V30 6682 N 622.28 1.30327 -0.886154 0
M  V30 6683 C 623.21 2.30549 -0.370028 0
M  V30 6684 C 624.191 1.61039 0.547751 0
M  V30 6685 O 625.376 1.8864 0.461353 0
M  V30 6686 C 622.506 3.44808 0.415275 0
M  V30 6687 C 621.46 4.26024 -0.41085 0
M  V30 6688 C 620.786 5.32347 0.501128 0
M  V30 6689 C 622.086 4.95433 -1.65359 0
M  V30 6690 H 623.78 2.73969 -1.20754 0
M  V30 6691 H 621.326 1.3171 -0.582097 0
M  V30 6692 H 623.279 4.13986 0.78699 0
M  V30 6693 H 622.003 3.00197 1.28644 0
M  V30 6694 H 620.662 3.58535 -0.764719 0
M  V30 6695 H 620.31 4.83982 1.37004 0
M  V30 6696 H 620.01 5.87581 -0.0478356 0
M  V30 6697 H 621.534 6.0438 0.869333 0
M  V30 6698 H 622.948 5.5712 -1.35239 0
M  V30 6699 H 621.345 5.60537 -2.14284 0
M  V30 6700 H 622.415 4.21493 -2.39733 0
M  V30 6701 N 623.758 0.647228 1.43697 0
M  V30 6702 C 624.688 -0.0345631 2.33474 0
M  V30 6703 C 625.669 -0.818193 1.4913 0
M  V30 6704 O 626.854 -0.780867 1.77809 0
M  V30 6705 C 623.984 -1.00576 3.32418 0
M  V30 6706 C 622.938 -0.33266 4.26705 0
M  V30 6707 C 622.264 -1.41489 5.1564 0
M  V30 6708 C 623.564 0.771204 5.16575 0
M  V30 6709 H 625.258 0.715163 2.90733 0
M  V30 6710 H 622.804 0.345364 1.39797 0
M  V30 6711 H 624.757 -1.49159 3.94119 0
M  V30 6712 H 623.481 -1.78657 2.73403 0
M  V30 6713 H 622.14 0.13267 3.6636 0
M  V30 6714 H 621.788 -2.18698 4.52968 0
M  V30 6715 H 621.488 -0.969799 5.79542 0
M  V30 6716 H 623.012 -1.9022 5.80214 0
M  V30 6717 H 624.426 0.36779 5.72119 0
M  V30 6718 H 622.823 1.1404 5.89165 0
M  V30 6719 H 623.893 1.63169 4.56622 0
M  V30 6720 N 625.236 -1.5273 0.388769 0
M  V30 6721 C 626.166 -2.29353 -0.438111 0
M  V30 6722 C 627.147 -1.32719 -1.06394 0
M  V30 6723 O 628.332 -1.61612 -1.07681 0
M  V30 6724 C 625.462 -3.09995 -1.56589 0
M  V30 6725 C 624.416 -4.14509 -1.06613 0
M  V30 6726 C 623.742 -4.83372 -2.28594 0
M  V30 6727 C 625.042 -5.22127 -0.134459 0
M  V30 6728 H 626.736 -2.98723 0.201206 0
M  V30 6729 H 624.282 -1.43665 0.0982089 0
M  V30 6730 H 626.235 -3.62357 -2.15118 0
M  V30 6731 H 624.959 -2.38357 -2.23279 0
M  V30 6732 H 623.618 -3.63128 -0.503383 0
M  V30 6733 H 623.266 -4.08283 -2.93792 0
M  V30 6734 H 622.966 -5.54012 -1.95817 0
M  V30 6735 H 624.49 -5.38538 -2.87766 0
M  V30 6736 H 625.904 -5.69851 -0.627914 0
M  V30 6737 H 624.301 -6.00011 0.103534 0
M  V30 6738 H 625.371 -4.77971 0.816798 0
M  V30 6739 N 626.714 -0.118576 -1.57153 0
M  V30 6740 C 627.961 0.539526 -1.9518 0
M  V30 6741 C 628.289 1.66714 -1.00184 0
M  V30 6742 O 627.544 1.95683 -0.0256482 0
M  V30 6743 C 627.843 1.11303 -3.39627 0
M  V30 6744 C 627.509 0.106809 -4.50773 0
M  V30 6745 C 626.171 -0.169876 -4.809 0
M  V30 6746 C 628.523 -0.57895 -5.17975 0
M  V30 6747 C 625.851 -1.13861 -5.75545 0
M  V30 6748 C 628.203 -1.53631 -6.13661 0
M  V30 6749 C 626.867 -1.82099 -6.42181 0
M  V30 6750 H 626.137 0.197427 -0.714215 0
M  V30 6751 H 628.784 -0.199391 -1.90459 0
M  V30 6752 H 627.089 1.92869 -3.4104 0
M  V30 6753 H 628.786 1.63032 -3.66363 0
M  V30 6754 H 625.376 0.332645 -4.27307 0
M  V30 6755 H 629.56 -0.378359 -4.94856 0
M  V30 6756 H 624.816 -1.36592 -5.95947 0
M  V30 6757 H 628.99 -2.07337 -6.64819 0
M  V30 6758 H 626.617 -2.57319 -7.15326 0
M  V30 6759 N 628.193 1.56834 0.155195 0
M  V30 6760 C 629.14 1.97646 1.19184 0
M  V30 6761 C 630.11 0.842788 1.4313 0
M  V30 6762 O 631.295 1.1042 1.55602 0
M  V30 6763 C 628.435 2.35527 2.52232 0
M  V30 6764 C 627.548 3.62147 2.35529 0
M  V30 6765 C 626.683 3.89167 3.61555 0
M  V30 6766 C 625.722 5.09084 3.39853 0
M  V30 6767 N 624.859 5.32156 4.5799 0
M  V30 6768 H 629.699 2.8601 0.836802 0
M  V30 6769 H 627.236 1.41507 0.401758 0
M  V30 6770 H 629.194 2.55516 3.29799 0
M  V30 6771 H 627.824 1.50253 2.85699 0
M  V30 6772 H 626.876 3.4998 1.49057 0
M  V30 6773 H 628.188 4.49871 2.15448 0
M  V30 6774 H 627.342 4.09611 4.47553 0
M  V30 6775 H 626.081 2.9985 3.84632 0
M  V30 6776 H 625.086 4.88522 2.52243 0
M  V30 6777 H 626.311 5.99947 3.18183 0
M  V30 6778 H 624.257 4.45791 4.81255 0
M  V30 6779 H 624.174 6.14133 4.40882 0
M  V30 6780 H 625.442 5.57091 5.45225 0
M  V30 6781 N 629.671 -0.424282 1.51781 0
M  V30 6782 C 630.618 -1.51591 1.74037 0
M  V30 6783 C 631.588 -1.55556 0.582358 0
M  V30 6784 O 632.773 -1.72364 0.818245 0
M  V30 6785 C 629.913 -2.89188 1.8832 0
M  V30 6786 C 629.026 -2.9465 3.1592 0
M  V30 6787 C 628.161 -4.23452 3.20721 0
M  V30 6788 C 627.2 -4.22831 4.42584 0
M  V30 6789 N 626.337 -5.43178 4.44862 0
M  V30 6790 H 631.177 -1.31917 2.67212 0
M  V30 6791 H 628.714 -0.640599 1.32419 0
M  V30 6792 H 630.672 -3.69044 1.94583 0
M  V30 6793 H 629.302 -3.07392 0.985402 0
M  V30 6794 H 628.354 -2.07378 3.18902 0
M  V30 6795 H 629.666 -2.90055 4.05795 0
M  V30 6796 H 628.82 -5.1169 3.25973 0
M  V30 6797 H 627.559 -4.30722 2.28757 0
M  V30 6798 H 626.564 -3.32984 4.37495 0
M  V30 6799 H 627.789 -4.17213 5.35826 0
M  V30 6800 H 625.735 -5.51145 3.55775 0
M  V30 6801 H 625.652 -5.40515 5.28563 0
M  V30 6802 H 626.92 -6.33412 4.54324 0
M  V30 6803 N 631.149 -1.42148 -0.680565 0
M  V30 6804 C 632.395 -1.42521 -1.44277 0
M  V30 6805 C 632.728 -0.0393718 -1.9416 0
M  V30 6806 O 632.003 0.935425 -1.70529 0
M  V30 6807 C 632.286 -2.44475 -2.64394 0
M  V30 6808 C 632.139 -3.92226 -2.20179 0
M  V30 6809 C 633.458 -2.43491 -3.66606 0
M  V30 6810 H 630.577 -0.518985 -0.523282 0
M  V30 6811 H 633.219 -1.73524 -0.773914 0
M  V30 6812 H 631.369 -2.18168 -3.21458 0
M  V30 6813 H 633.041 -4.29493 -1.68327 0
M  V30 6814 H 631.284 -4.0637 -1.5181 0
M  V30 6815 H 631.955 -4.59133 -3.06433 0
M  V30 6816 H 634.431 -2.66872 -3.19247 0
M  V30 6817 H 633.307 -3.16816 -4.4824 0
M  V30 6818 H 633.568 -1.45881 -4.17338 0
M  V30 6819 N 632.627 0.916307 -1.28225 0
M  V30 6820 C 633.574 2.01841 -1.11932 0
M  V30 6821 C 634.544 1.66091 -0.0171604 0
M  V30 6822 O 635.729 1.89934 -0.181617 0
M  V30 6823 C 632.869 3.36065 -0.784504 0
M  V30 6824 C 631.982 3.847 -1.96544 0
M  V30 6825 C 631.117 5.07423 -1.57149 0
M  V30 6826 C 630.156 5.48384 -2.71922 0
M  V30 6827 N 629.293 6.62298 -2.33037 0
M  V30 6828 H 634.133 2.1511 -2.06232 0
M  V30 6829 H 631.67 1.05366 -1.02647 0
M  V30 6830 H 633.628 4.13272 -0.571148 0
M  V30 6831 H 632.258 3.22571 0.121565 0
M  V30 6832 H 631.31 3.03673 -2.291 0
M  V30 6833 H 632.622 4.1102 -2.82603 0
M  V30 6834 H 631.776 5.92165 -1.32004 0
M  V30 6835 H 630.515 4.82906 -0.682153 0
M  V30 6836 H 629.52 4.62184 -2.97768 0
M  V30 6837 H 630.745 5.7489 -3.61494 0
M  V30 6838 H 628.691 6.39416 -1.4657 0
M  V30 6839 H 628.608 6.8833 -3.12631 0
M  V30 6840 H 629.876 7.50352 -2.11169 0
M  V30 6841 N 634.105 1.10431 1.1244 0
M  V30 6842 C 635.068 0.756542 2.16354 0
M  V30 6843 C 636.068 -0.21899 1.59302 0
M  V30 6844 O 637.258 0.00415969 1.742 0
M  V30 6845 C 634.39 0.120612 3.40687 0
M  V30 6846 H 635.583 1.67696 2.48632 0
M  V30 6847 H 633.136 0.904832 1.27446 0
M  V30 6848 H 633.871 -0.810536 3.14008 0
M  V30 6849 H 633.656 0.822693 3.83372 0
M  V30 6850 H 635.146 -0.106945 4.17463 0
M  V30 6851 N 635.583 -1.29855 0.893053 0
M  V30 6852 C 636.513 -2.3035 0.382249 0
M  V30 6853 C 637.494 -1.61328 -0.539203 0
M  V30 6854 O 638.679 -1.88882 -0.451342 0
M  V30 6855 C 635.809 -3.45024 -0.396983 0
M  V30 6856 C 634.763 -4.258 0.433437 0
M  V30 6857 C 634.089 -5.32605 -0.472889 0
M  V30 6858 C 635.389 -4.94549 1.67984 0
M  V30 6859 H 637.083 -2.73325 1.22205 0
M  V30 6860 H 634.629 -1.314 0.589073 0
M  V30 6861 H 636.582 -4.14398 -0.765024 0
M  V30 6862 H 635.306 -3.00875 -1.2705 0
M  V30 6863 H 633.965 -3.58125 0.783723 0
M  V30 6864 H 633.613 -4.84702 -1.34435 0
M  V30 6865 H 633.313 -5.87547 0.0789958 0
M  V30 6866 H 634.837 -6.04832 -0.837269 0
M  V30 6867 H 636.251 -5.56395 1.38192 0
M  V30 6868 H 634.648 -5.59393 2.17254 0
M  V30 6869 H 635.718 -4.20215 2.41965 0
M  V30 6870 N 637.061 -0.65484 -1.43351 0
M  V30 6871 C 637.991 0.0221809 -2.33489 0
M  V30 6872 C 638.972 0.810272 -1.49561 0
M  V30 6873 O 640.157 0.771426 -1.78221 0
M  V30 6874 C 637.287 0.988117 -3.32947 0
M  V30 6875 C 636.241 0.310026 -4.26876 0
M  V30 6876 C 635.567 1.38752 -5.16384 0
M  V30 6877 C 636.867 -0.798589 -5.16159 0
M  V30 6878 H 638.561 -0.730571 -2.9035 0
M  V30 6879 H 636.107 -0.352773 -1.39612 0
M  V30 6880 H 638.06 1.47067 -3.94904 0
M  V30 6881 H 636.784 1.77205 -2.74346 0
M  V30 6882 H 635.443 -0.152097 -3.66284 0
M  V30 6883 H 635.091 2.16293 -4.54121 0
M  V30 6884 H 634.791 0.939051 -5.80048 0
M  V30 6885 H 636.315 1.87141 -5.81215 0
M  V30 6886 H 637.729 -0.398126 -5.71916 0
M  V30 6887 H 636.126 -1.17163 -5.88552 0
M  V30 6888 H 637.196 -1.65588 -4.55751 0
M  V30 6889 N 638.539 1.52521 -0.396863 0
M  V30 6890 C 639.787 2.01274 0.182536 0
M  V30 6891 C 640.108 1.28485 1.46685 0
M  V30 6892 O 639.378 0.407134 1.91623 0
M  V30 6893 H 637.958 0.743671 0.0704442 0
M  V30 6894 H 640.62 1.87547 -0.530289 0
M  V30 6895 H 639.716 3.09687 0.387385 0
M  V30 6896 N 640.017 0.126909 1.57088 0
M  V30 6897 C 641.265 -0.528123 1.95078 0
M  V30 6898 C 641.586 -1.66708 1.0116 0
M  V30 6899 O 640.856 -1.95777 0.0693527 0
M  V30 6900 H 639.436 -0.198087 0.720257 0
M  V30 6901 H 642.098 0.197703 1.93895 0
M  V30 6902 H 641.194 -0.917507 2.98309 0
M  V30 6903 N 641.495 -1.56914 -0.146875 0
M  V30 6904 C 642.443 -1.99224 -1.20053 0
M  V30 6905 C 643.437 -0.884661 -1.44465 0
M  V30 6906 O 644.643 -1.06984 -1.44756 0
M  V30 6907 H 641.018 -0.634191 -0.404112 0
M  V30 6908 H 642.989 -2.86998 -0.816987 0
M  V30 6909 C 641.738 -2.38899 -2.52632 0
M  V30 6910 H 641.061 -3.23677 -2.34677 0
M  V30 6911 H 642.501 -2.72326 -3.24984 0
M  V30 6912 C 640.96 -1.2417 -3.13183 0
M  V30 6913 O 641.49 -0.542503 -3.9802 0
M  V30 6914 N 639.696 -1.00592 -2.72635 0
M  V30 6915 H 639.243 -1.57627 -2.03744 0
M  V30 6916 H 639.201 -0.240174 -3.13481 0
M  V30 6917 N 642.974 0.416227 -1.52004 0
M  V30 6918 C 644.22 1.16555 -1.6596 0
M  V30 6919 C 644.553 1.90347 -0.384906 0
M  V30 6920 O 643.828 1.84474 0.616405 0
M  V30 6921 C 644.111 2.1657 -2.87696 0
M  V30 6922 C 643.964 1.46722 -4.25197 0
M  V30 6923 C 645.283 3.17321 -3.04951 0
M  V30 6924 H 642.402 0.422369 -0.603965 0
M  V30 6925 H 645.044 0.452141 -1.84542 0
M  V30 6926 H 643.194 2.77411 -2.71985 0
M  V30 6927 H 644.866 0.89056 -4.52622 0
M  V30 6928 H 643.109 0.769263 -4.26925 0
M  V30 6929 H 643.78 2.19665 -5.0641 0
M  V30 6930 H 646.256 2.66552 -3.19514 0
M  V30 6931 H 645.132 3.84573 -3.91656 0
M  V30 6932 H 645.393 3.84643 -2.17951 0
M  V30 6933 N 644.452 1.42507 0.673017 0
M  V30 6934 C 645.868 1.25472 0.986355 0
M  V30 6935 C 646.068 0.160181 2.00862 0
M  V30 6936 O 645.124 -0.467993 2.48125 0
M  V30 6937 C 646.437 2.61219 1.48947 0
M  V30 6938 C 647.985 2.68589 1.60715 0
M  V30 6939 C 648.46 4.04707 2.14422 0
M  V30 6940 N 649.951 4.0667 2.21752 0
M  V30 6941 C 650.686 5.0881 2.64386 0
M  V30 6942 N 650.182 6.21332 3.0646 0
M  V30 6943 N 651.975 4.96166 2.64151 0
M  V30 6944 H 644.126 2.124 -0.00378532 0
M  V30 6945 H 646.389 0.946046 0.0608367 0
M  V30 6946 H 646.095 3.42179 0.812812 0
M  V30 6947 H 645.969 2.85261 2.46791 0
M  V30 6948 H 648.356 1.87974 2.27486 0
M  V30 6949 H 648.437 2.48333 0.613552 0
M  V30 6950 H 648.081 4.8578 1.48258 0
M  V30 6951 H 648.011 4.22315 3.14575 0
M  V30 6952 H 650.502 3.25438 1.92089 0
M  V30 6953 H 650.815 6.95118 3.37684 0
M  V30 6954 H 649.16 6.24835 3.04313 0
M  V30 6955 H 652.351 4.07334 2.30644 0
M  V30 6956 H 652.524 5.759 2.97057 0
M  V30 6957 N 645.93 -0.909495 1.28709 0
M  V30 6958 C 646.863 -2.01388 1.07323 0
M  V30 6959 C 647.841 -1.62596 -0.0119757 0
M  V30 6960 O 649.025 -1.88003 0.136796 0
M  V30 6961 C 646.152 -3.32755 0.631797 0
M  V30 6962 C 645.198 -3.90532 1.71428 0
M  V30 6963 S 646.031 -4.20853 3.31124 0
M  V30 6964 C 647.187 -5.55276 2.88825 0
M  V30 6965 H 647.42 -2.19219 2.00824 0
M  V30 6966 H 644.953 -1.05489 1.12745 0
M  V30 6967 H 646.911 -4.08702 0.38381 0
M  V30 6968 H 645.572 -3.12818 -0.283451 0
M  V30 6969 H 644.765 -4.85385 1.35712 0
M  V30 6970 H 644.367 -3.21237 1.91528 0
M  V30 6971 H 646.659 -6.35341 2.3526 0
M  V30 6972 H 647.602 -5.95907 3.82492 0
M  V30 6973 H 648.01 -5.16666 2.27412 0
M  V30 6974 N 647.408 -1.11026 -1.11852 0
M  V30 6975 C 648.341 -0.708501 -2.16923 0
M  V30 6976 C 649.319 0.293196 -1.59935 0
M  V30 6977 O 650.503 0.190641 -1.87533 0
M  V30 6978 C 647.63 -0.0463705 -3.38668 0
M  V30 6979 C 646.676 -1.01252 -4.14307 0
M  V30 6980 S 647.509 -2.53291 -4.71809 0
M  V30 6981 C 648.665 -1.88366 -5.96883 0
M  V30 6982 H 648.898 -1.59854 -2.50667 0
M  V30 6983 H 646.431 -0.927869 -1.2341 0
M  V30 6984 H 648.389 0.329314 -4.09177 0
M  V30 6985 H 647.05 0.820562 -3.03192 0
M  V30 6986 H 646.243 -0.496596 -5.01548 0
M  V30 6987 H 645.845 -1.33042 -3.49537 0
M  V30 6988 H 648.137 -1.21753 -6.6647 0
M  V30 6989 H 649.08 -2.73588 -6.53112 0
M  V30 6990 H 649.488 -1.34562 -5.48227 0
M  V30 6991 N 648.886 1.2938 -0.899927 0
M  V30 6992 C 649.816 2.30144 -0.39446 0
M  V30 6993 C 650.797 1.61611 0.530639 0
M  V30 6994 O 651.982 1.89119 0.441319 0
M  V30 6995 C 649.112 3.45229 0.37868 0
M  V30 6996 C 648.066 4.25564 -0.456012 0
M  V30 6997 C 647.392 5.32848 0.444637 0
M  V30 6998 C 648.692 4.93651 -1.70605 0
M  V30 6999 H 650.386 2.72673 -1.23653 0
M  V30 7000 H 647.932 1.31086 -0.596034 0
M  V30 7001 H 649.885 4.14797 0.743037 0
M  V30 7002 H 648.609 3.01545 1.25453 0
M  V30 7003 H 647.268 3.57704 -0.802704 0
M  V30 7004 H 646.916 4.85408 1.31863 0
M  V30 7005 H 646.616 5.87497 -0.110154 0
M  V30 7006 H 648.14 6.05268 0.805182 0
M  V30 7007 H 649.554 5.55655 -1.41141 0
M  V30 7008 H 647.951 5.58233 -2.20217 0
M  V30 7009 H 649.021 4.18926 -2.4419 0
M  V30 7010 N 650.364 0.662433 1.43002 0
M  V30 7011 C 651.589 0.186003 2.06564 0
M  V30 7012 C 652.014 -1.14314 1.49379 0
M  V30 7013 O 651.372 -1.70824 0.607346 0
M  V30 7014 C 651.42 0.118269 3.60406 0
M  V30 7015 O 650.524 -0.916859 4.02079 0
M  V30 7016 H 649.865 0.0990981 0.656563 0
M  V30 7017 H 652.395 0.907958 1.8335 0
M  V30 7018 H 652.405 -0.0619981 4.07953 0
M  V30 7019 H 651.08 1.08849 4.01403 0
M  V30 7020 H 649.657 -0.708635 3.66105 0
M  V30 7021 N 651.842 -1.52309 0.404946 0
M  V30 7022 C 653.09 -2.01368 -0.17186 0
M  V30 7023 C 653.411 -1.29261 -1.46002 0
M  V30 7024 O 652.681 -0.41729 -1.91404 0
M  V30 7025 H 651.261 -0.744034 -0.0664993 0
M  V30 7026 H 653.923 -1.87263 0.540228 0
M  V30 7027 H 653.019 -3.09888 -0.370957 0
M  V30 7028 N 653.32 -0.135238 -1.57019 0
M  V30 7029 C 654.568 0.51777 -1.95355 0
M  V30 7030 C 654.889 1.6617 -1.02042 0
M  V30 7031 O 654.159 1.95738 -0.0797343 0
M  V30 7032 H 652.739 0.194264 -0.721298 0
M  V30 7033 H 655.401 -0.207983 -1.93787 0
M  V30 7034 H 654.497 0.901675 -2.98791 0
M  V30 7035 N 654.798 1.5699 0.138552 0
M  V30 7036 C 655.761 1.97984 1.15478 0
M  V30 7037 C 656.761 0.867416 1.35398 0
M  V30 7038 O 657.951 1.13387 1.32246 0
M  V30 7039 C 655.083 2.3031 2.51337 0
M  V30 7040 H 656.276 2.88953 0.802896 0
M  V30 7041 H 653.829 1.51555 0.382189 0
M  V30 7042 H 654.564 1.42159 2.91481 0
M  V30 7043 H 654.349 3.11425 2.38237 0
M  V30 7044 H 655.839 2.62834 3.24512 0
M  V30 7045 N 656.276 -0.40816 1.52223 0
M  V30 7046 C 657.687 -0.986929 1.58482 0
M  V30 7047 C 658.038 -1.91521 0.425917 0
M  V30 7048 O 657.163 -2.11593 -0.453593 0
M  V30 7049 C 657.758 -1.7967 2.87235 0
M  V30 7050 C 656.317 -2.32549 2.9597 0
M  V30 7051 C 655.464 -1.12558 2.53428 0
M  V30 7052 H 658.415 -0.188362 1.57578 0
M  V30 7053 H 658.436 -2.65417 2.72642 0
M  V30 7054 H 657.948 -1.12082 3.71563 0
M  V30 7055 H 656.049 -3.03505 2.16137 0
M  V30 7056 H 656.162 -2.63348 4.00231 0
M  V30 7057 H 654.526 -1.47984 2.07299 0
M  V30 7058 H 655.309 -0.465351 3.40131 0
M  V30 7059 N 657.755 -1.42862 -0.66545 0
M  V30 7060 C 658.685 -1.49867 -1.79059 0
M  V30 7061 C 659.666 -0.354394 -1.66367 0
M  V30 7062 O 660.851 -0.569969 -1.85647 0
M  V30 7063 C 657.981 -1.40943 -3.17415 0
M  V30 7064 C 656.935 -2.53495 -3.44854 0
M  V30 7065 C 656.261 -2.29626 -4.82883 0
M  V30 7066 C 657.561 -3.95781 -3.40815 0
M  V30 7067 H 659.255 -2.44037 -1.73453 0
M  V30 7068 H 656.801 -1.17456 -0.833071 0
M  V30 7069 H 658.754 -1.4445 -3.95869 0
M  V30 7070 H 657.478 -0.432716 -3.23721 0
M  V30 7071 H 656.137 -2.4932 -2.68766 0
M  V30 7072 H 655.785 -1.30226 -4.8585 0
M  V30 7073 H 655.485 -3.05065 -5.02204 0
M  V30 7074 H 657.009 -2.34897 -5.63609 0
M  V30 7075 H 658.423 -4.01508 -4.09224 0
M  V30 7076 H 656.82 -4.71148 -3.71672 0
M  V30 7077 H 657.89 -4.21786 -2.39216 0
M  V30 7078 N 659.233 0.902656 -1.29189 0
M  V30 7079 C 660.458 1.69167 -1.19989 0
M  V30 7080 C 660.883 1.86607 0.236495 0
M  V30 7081 O 660.241 1.38425 1.17082 0
M  V30 7082 C 660.289 3.05532 -1.91527 0
M  V30 7083 O 659.393 3.93621 -1.2303 0
M  V30 7084 H 658.734 0.517584 -0.415936 0
M  V30 7085 H 661.264 1.12785 -1.70706 0
M  V30 7086 H 661.274 3.55693 -1.99866 0
M  V30 7087 H 659.949 2.92156 -2.96003 0
M  V30 7088 H 658.526 3.52055 -1.22928 0
M  V30 7089 N 660.711 1.11618 1.11262 0
M  V30 7090 C 662.122 0.881942 1.64556 0
M  V30 7091 C 662.473 -0.585442 1.87262 0
M  V30 7092 O 661.598 -1.44795 1.60821 0
M  V30 7093 C 662.193 1.59446 2.98935 0
M  V30 7094 C 660.752 1.40661 3.4913 0
M  V30 7095 C 659.899 1.63593 2.23903 0
M  V30 7096 H 662.85 1.27217 0.94877 0
M  V30 7097 H 662.871 1.04054 3.65996 0
M  V30 7098 H 662.383 2.66241 2.82378 0
M  V30 7099 H 660.484 0.360835 3.70849 0
M  V30 7100 H 660.597 2.15693 4.27801 0
M  V30 7101 H 658.961 1.05944 2.3162 0
M  V30 7102 H 659.744 2.71666 2.09886 0
M  V30 7103 N 662.189 -1.289 0.906776 0
M  V30 7104 C 663.121 -2.26556 0.347159 0
M  V30 7105 C 664.134 -1.54589 -0.51049 0
M  V30 7106 O 665.323 -1.75489 -0.326501 0
M  V30 7107 C 662.423 -3.3484 -0.523024 0
M  V30 7108 C 661.596 -4.36296 0.310515 0
M  V30 7109 C 660.655 -5.23879 -0.493634 0
M  V30 7110 O 659.681 -5.69127 0.0913569 0
M  V30 7111 N 660.883 -5.51946 -1.7982 0
M  V30 7112 H 663.648 -2.75212 1.18652 0
M  V30 7113 H 661.209 -1.42309 0.771996 0
M  V30 7114 H 663.201 -3.90366 -1.06756 0
M  V30 7115 H 661.771 -2.85946 -1.26309 0
M  V30 7116 H 660.991 -3.80331 1.03644 0
M  V30 7117 H 662.279 -5.01113 0.881106 0
M  V30 7118 H 661.677 -5.17006 -2.2961 0
M  V30 7119 H 660.234 -6.10258 -2.28971 0
M  V30 7120 N 663.667 -0.670007 -1.42649 0
M  V30 7121 C 664.895 -0.19854 -2.05945 0
M  V30 7122 C 665.31 1.14243 -1.50313 0
M  V30 7123 O 664.667 1.70872 -0.641027 0
M  V30 7124 C 664.718 -0.11966 -3.61302 0
M  V30 7125 O 664.439 -1.40764 -4.1487 0
M  V30 7126 C 665.94 0.375878 -4.41704 0
M  V30 7127 H 663.16 -0.0976894 -0.663851 0
M  V30 7128 H 665.704 -0.915392 -1.82868 0
M  V30 7129 H 663.859 0.547851 -3.83507 0
M  V30 7130 H 664.273 -1.27784 -5.08696 0
M  V30 7131 H 665.747 0.379988 -5.50691 0
M  V30 7132 H 666.224 1.41028 -4.15942 0
M  V30 7133 H 666.83 -0.259727 -4.24506 0
M  V30 7134 N 665.145 1.52092 -0.413018 0
M  V30 7135 C 666.095 2.23947 0.427993 0
M  V30 7136 C 667.079 1.25229 1.01027 0
M  V30 7137 O 668.271 1.50448 0.932444 0
M  V30 7138 C 665.4 3.0672 1.542 0
M  V30 7139 C 664.486 4.12851 0.970307 0
M  V30 7140 N 664.877 5.05644 0.125611 0
M  V30 7141 C 663.175 4.28404 1.24042 0
M  V30 7142 C 663.876 5.8138 -0.192876 0
M  V30 7143 N 662.852 5.41996 0.417273 0
M  V30 7144 H 666.654 2.93048 -0.223628 0
M  V30 7145 H 664.168 1.60852 -0.223664 0
M  V30 7146 H 666.165 3.56754 2.15714 0
M  V30 7147 H 664.825 2.39159 2.19621 0
M  V30 7148 H 665.836 5.17348 -0.238995 0
M  V30 7149 H 662.513 3.72071 1.89391 0
M  V30 7150 H 663.903 6.66129 -0.878762 0
M  V30 7151 N 666.623 0.143563 1.56945 0
M  V30 7152 C 668.039 -0.212877 1.58174 0
M  V30 7153 C 668.239 -1.64926 1.15766 0
M  V30 7154 O 667.295 -2.37535 0.856361 0
M  V30 7155 C 668.608 0.0427573 3.0067 0
M  V30 7156 C 670.156 -0.0212221 3.12993 0
M  V30 7157 C 670.631 0.207036 4.57532 0
M  V30 7158 N 672.122 0.153845 4.62944 0
M  V30 7159 C 672.857 0.305018 5.72588 0
M  V30 7160 N 672.353 0.513722 6.90893 0
M  V30 7161 N 674.146 0.242862 5.61575 0
M  V30 7162 H 666.297 1.08148 1.82805 0
M  V30 7163 H 668.56 0.427831 0.84597 0
M  V30 7164 H 668.266 1.03672 3.36073 0
M  V30 7165 H 668.14 -0.678195 3.71053 0
M  V30 7166 H 670.527 -1.00574 2.77433 0
M  V30 7167 H 670.608 0.732004 2.45103 0
M  V30 7168 H 670.252 1.18863 4.93795 0
M  V30 7169 H 670.182 -0.566473 5.23544 0
M  V30 7170 H 672.673 -0.00294866 3.779 0
M  V30 7171 H 672.986 0.619273 7.70315 0
M  V30 7172 H 671.331 0.550001 6.9282 0
M  V30 7173 H 674.522 0.0806015 4.68031 0
M  V30 7174 H 674.695 0.364112 6.46976 0
M  V30 7175 N 668.101 -1.57061 -0.130224 0
M  V30 7176 C 669.348 -1.84257 -0.839972 0
M  V30 7177 C 669.676 -0.726986 -1.80403 0
M  V30 7178 O 668.931 0.282632 -1.93648 0
M  V30 7179 C 669.23 -3.17878 -1.63365 0
M  V30 7180 C 668.896 -4.43475 -0.814891 0
M  V30 7181 C 667.558 -4.77581 -0.589066 0
M  V30 7182 C 669.91 -5.20631 -0.243437 0
M  V30 7183 C 667.238 -5.86292 0.218648 0
M  V30 7184 C 669.59 -6.30192 0.551408 0
M  V30 7185 C 668.254 -6.62837 0.787653 0
M  V30 7186 H 667.524 -0.674245 -0.307367 0
M  V30 7187 H 670.171 -1.91224 -0.102832 0
M  V30 7188 H 668.476 -3.06437 -2.44138 0
M  V30 7189 H 670.173 -3.3614 -2.18658 0
M  V30 7190 H 666.763 -4.16747 -1.00098 0
M  V30 7191 H 670.947 -4.94644 -0.405145 0
M  V30 7192 H 666.203 -6.10017 0.411016 0
M  V30 7193 H 670.377 -6.89165 1.00126 0
M  V30 7194 H 668.004 -7.46908 1.41537 0
M  V30 7195 N 669.579 0.400081 -1.52437 0
M  V30 7196 C 670.512 1.50929 -1.7116 0
M  V30 7197 C 671.49 1.52679 -0.559275 0
M  V30 7198 O 672.674 1.71251 -0.787735 0
M  V30 7199 C 669.801 2.89433 -1.75915 0
M  V30 7200 C 668.847 3.05556 -2.97553 0
M  V30 7201 S 669.68 2.77919 -4.57735 0
M  V30 7202 C 670.836 4.18636 -4.6529 0
M  V30 7203 H 671.069 1.3482 -2.64973 0
M  V30 7204 H 668.602 0.592245 -1.4259 0
M  V30 7205 H 670.56 3.69253 -1.7934 0
M  V30 7206 H 669.221 3.02877 -0.832137 0
M  V30 7207 H 668.414 4.0691 -2.97388 0
M  V30 7208 H 668.016 2.33615 -2.92062 0
M  V30 7209 H 670.308 5.12406 -4.43223 0
M  V30 7210 H 671.251 4.23821 -5.67258 0
M  V30 7211 H 671.659 4.04029 -3.94234 0
M  V30 7212 N 671.057 1.43213 0.657864 0
M  V30 7213 C 672.005 1.48271 1.79216 0
M  V30 7214 C 672.999 0.35675 1.65601 0
M  V30 7215 O 674.205 0.530535 1.72004 0
M  V30 7216 H 670.58 0.464729 0.591211 0
M  V30 7217 H 672.551 2.43792 1.7207 0
M  V30 7218 C 671.3 1.41837 3.17455 0
M  V30 7219 H 670.623 2.27781 3.28567 0
M  V30 7220 H 672.063 1.49438 3.96793 0
M  V30 7221 C 670.522 0.135347 3.36628 0
M  V30 7222 O 671.052 -0.805199 3.93547 0
M  V30 7223 N 669.258 0.0470316 2.90562 0
M  V30 7224 H 668.805 0.813221 2.44427 0
M  V30 7225 H 668.763 -0.810737 3.03767 0
M  V30 7226 N 672.536 -0.895792 1.29666 0
M  V30 7227 C 673.782 -1.64908 1.18039 0
M  V30 7228 C 674.115 -1.9236 -0.266682 0
M  V30 7229 O 673.39 -1.53682 -1.19214 0
M  V30 7230 C 673.673 -2.99574 1.99819 0
M  V30 7231 C 673.526 -2.79163 3.52687 0
M  V30 7232 C 674.845 -4.00358 1.82761 0
M  V30 7233 H 671.964 -0.598437 0.430165 0
M  V30 7234 H 674.606 -1.03736 1.59182 0
M  V30 7235 H 672.756 -3.51786 1.64859 0
M  V30 7236 H 674.428 -2.33821 3.9765 0
M  V30 7237 H 672.671 -2.13871 3.77414 0
M  V30 7238 H 673.342 -3.74871 4.05186 0
M  V30 7239 H 675.818 -3.57268 2.13304 0
M  V30 7240 H 674.694 -4.92514 2.42325 0
M  V30 7241 H 674.955 -4.35096 0.783839 0
M  V30 7242 N 674.014 -1.12206 -1.10668 0
M  V30 7243 C 675.254 -0.885935 -1.84202 0
M  V30 7244 C 675.618 0.577849 -1.83098 0
M  V30 7245 O 676.819 0.931051 -2.5216 0
M  V30 7246 C 675.09 -1.44197 -3.2702 0
M  V30 7247 S 676.649 -1.34402 -4.1771 0
M  V30 7248 H 673.467 -0.319653 -0.635093 0
M  V30 7249 H 676.069 -1.43112 -1.33189 0
M  V30 7250 H 674.773 -2.50096 -3.25392 0
M  V30 7251 H 674.304 -0.894173 -3.83103 0
M  V30 7252 H 676.319 -0.313873 -4.95206 0
M  V30 7253 N 675.492 1.28418 -0.913599 0
M  V30 7254 C 676.739 1.94981 -0.546674 0
M  V30 7255 C 677.067 1.7192 0.909606 0
M  V30 7256 O 676.322 1.03314 1.66207 0
M  V30 7257 C 676.621 3.48283 -0.802099 0
M  V30 7258 C 676.287 3.91444 -2.2379 0
M  V30 7259 C 674.949 4.02939 -2.63046 0
M  V30 7260 C 677.301 4.13542 -3.17227 0
M  V30 7261 C 674.629 4.3391 -3.94891 0
M  V30 7262 C 676.981 4.45992 -4.48636 0
M  V30 7263 C 675.645 4.55698 -4.87746 0
M  V30 7264 H 674.915 0.713487 -0.200042 0
M  V30 7265 H 677.562 1.52756 -1.15489 0
M  V30 7266 H 675.867 3.91643 -0.111076 0
M  V30 7267 H 677.564 3.97903 -0.497375 0
M  V30 7268 H 674.154 3.83024 -1.9233 0
M  V30 7269 H 678.338 4.04114 -2.88107 0
M  V30 7270 H 673.594 4.39631 -4.24894 0
M  V30 7271 H 677.768 4.62038 -5.21051 0
M  V30 7272 H 675.395 4.79451 -5.89942 0
M  V30 7273 N 676.97 0.677563 1.42291 0
M  V30 7274 C 678.21 0.204894 2.0337 0
M  V30 7275 C 678.574 -1.16744 1.5243 0
M  V30 7276 O 679.775 -1.73492 2.05314 0
M  V30 7277 C 678.046 0.240742 3.56588 0
M  V30 7278 S 679.605 -0.16052 4.38506 0
M  V30 7279 H 676.423 0.0839932 0.706021 0
M  V30 7280 H 679.025 0.891332 1.73999 0
M  V30 7281 H 677.729 1.24184 3.91161 0
M  V30 7282 H 677.26 -0.465439 3.90637 0
M  V30 7283 H 679.275 -1.39315 4.76241 0
M  V30 7284 N 678.448 -1.51871 0.421078 0
M  V30 7285 C 679.688 -2.03848 -0.150167 0
M  V30 7286 C 680.052 -1.29925 -1.41363 0
M  V30 7287 O 681.253 -1.7219 -2.06408 0
M  V30 7288 C 679.524 -3.55374 -0.38003 0
M  V30 7289 S 681.083 -4.29111 -0.917011 0
M  V30 7290 H 677.901 -0.709904 -0.0394639 0
M  V30 7291 H 680.503 -1.86799 0.576746 0
M  V30 7292 H 679.207 -4.0675 0.546122 0
M  V30 7293 H 678.738 -3.76687 -1.13448 0
M  V30 7294 H 680.753 -4.44944 -2.19635 0
M  V30 7295 N 679.926 -0.151884 -1.56866 0
M  V30 7296 C 681.337 0.368128 -1.83035 0
M  V30 7297 C 681.688 1.64402 -1.07082 0
M  V30 7298 O 680.813 2.14056 -0.317647 0
M  V30 7299 C 681.408 0.674676 -3.32014 0
M  V30 7300 C 679.967 1.13919 -3.58747 0
M  V30 7301 C 679.114 0.164833 -2.7681 0
M  V30 7302 H 682.065 -0.376499 -1.54169 0
M  V30 7303 H 682.086 1.52883 -3.48435 0
M  V30 7304 H 681.598 -0.254113 -3.87267 0
M  V30 7305 H 679.699 2.08375 -3.08886 0
M  V30 7306 H 679.812 1.06179 -4.67186 0
M  V30 7307 H 678.176 0.658419 -2.46043 0
M  V30 7308 H 678.959 -0.757633 -3.34836 0
M  V30 7309 N 681.404 1.57128 0.121893 0
M  V30 7310 C 682.653 1.83888 0.828748 0
M  V30 7311 C 682.966 0.737087 1.81181 0
M  V30 7312 O 684.172 0.891007 2.56463 0
M  V30 7313 C 682.628 3.26014 1.52455 0
M  V30 7314 C 682.236 4.44195 0.58263 0
M  V30 7315 C 683.98 3.62025 2.21671 0
M  V30 7316 C 681.887 5.77349 1.28149 0
M  V30 7317 H 680.817 0.685856 0.313238 0
M  V30 7318 H 683.468 1.83319 0.0814851 0
M  V30 7319 H 681.85 3.21044 2.31834 0
M  V30 7320 H 683.024 4.60457 -0.177729 0
M  V30 7321 H 681.339 4.164 -0.00241228 0
M  V30 7322 H 683.936 4.58776 2.74643 0
M  V30 7323 H 684.279 2.89315 2.99337 0
M  V30 7324 H 684.812 3.68767 1.49184 0
M  V30 7325 H 681.551 6.53221 0.546189 0
M  V30 7326 H 681.071 5.64978 2.01394 0
M  V30 7327 H 682.75 6.21006 1.81549 0
M  V30 7328 N 682.882 -0.391992 1.52647 0
M  V30 7329 C 684.13 -1.13507 1.67214 0
M  V30 7330 C 684.451 -1.90575 0.41304 0
M  V30 7331 O 683.721 -1.87348 -0.572498 0
M  V30 7332 H 682.301 -0.422013 0.616372 0
M  V30 7333 H 684.963 -0.44502 1.89751 0
M  V30 7334 H 684.059 -1.83964 2.52118 0
M  V30 7335 N 684.36 -1.4356 -0.65026 0
M  V30 7336 C 685.292 -1.44918 -1.77571 0
M  V30 7337 C 686.305 -0.344925 -1.59104 0
M  V30 7338 O 687.494 -0.609537 -1.6777 0
M  V30 7339 C 684.594 -1.24914 -3.15039 0
M  V30 7340 C 683.767 -2.48232 -3.60138 0
M  V30 7341 C 682.826 -2.23409 -4.76419 0
M  V30 7342 O 681.852 -2.9678 -4.85706 0
M  V30 7343 N 683.054 -1.25259 -5.66825 0
M  V30 7344 H 685.819 -2.41935 -1.76883 0
M  V30 7345 H 683.38 -1.38754 -0.834202 0
M  V30 7346 H 685.372 -1.06185 -3.90521 0
M  V30 7347 H 683.942 -0.363319 -3.10481 0
M  V30 7348 H 683.162 -2.82366 -2.75069 0
M  V30 7349 H 684.45 -3.30296 -3.87017 0
M  V30 7350 H 683.848 -0.646246 -5.61997 0
M  V30 7351 H 682.405 -1.12513 -6.42016 0
M  V30 7352 N 685.838 0.888903 -1.30139 0
M  V30 7353 C 687.086 1.63713 -1.18501 0
M  V30 7354 C 687.407 1.9324 0.261399 0
M  V30 7355 O 686.677 1.56608 1.17689 0
M  V30 7356 H 685.257 0.606861 -0.435579 0
M  V30 7357 H 687.919 1.06525 -1.63213 0
M  V30 7358 H 687.015 2.58894 -1.743 0
M  V30 7359 N 687.317 1.12792 1.10072 0
M  V30 7360 C 688.547 0.907189 1.85617 0
M  V30 7361 C 688.955 -0.547181 1.81115 0
M  V30 7362 O 688.298 -1.39024 1.20075 0
M  V30 7363 C 688.36 1.30872 3.34832 0
M  V30 7364 C 688.024 2.77516 3.6309 0
M  V30 7365 C 689.021 3.75696 3.59373 0
M  V30 7366 C 686.706 3.14513 3.91646 0
M  V30 7367 C 688.7 5.08888 3.83812 0
M  V30 7368 C 686.387 4.47886 4.15742 0
M  V30 7369 C 687.385 5.44882 4.11816 0
M  V30 7370 O 687.073 6.7585 4.35295 0
M  V30 7371 H 686.805 0.323855 0.593375 0
M  V30 7372 H 689.359 1.50262 1.40038 0
M  V30 7373 H 687.589 0.656518 3.81086 0
M  V30 7374 H 689.278 1.06153 3.91773 0
M  V30 7375 H 690.044 3.48458 3.37345 0
M  V30 7376 H 685.923 2.39622 3.93831 0
M  V30 7377 H 689.467 5.84586 3.80663 0
M  V30 7378 H 685.364 4.74851 4.37249 0
M  V30 7379 H 686.132 6.81853 4.52791 0
M  V30 7380 N 688.795 -1.27931 0.920396 0
M  V30 7381 C 690.043 -1.94304 0.555906 0
M  V30 7382 C 690.364 -1.72753 -0.904519 0
M  V30 7383 O 689.634 -1.07104 -1.64029 0
M  V30 7384 H 688.214 -0.719001 0.202599 0
M  V30 7385 H 690.876 -1.55785 1.1712 0
M  V30 7386 H 689.972 -3.02806 0.755981 0
M  V30 7387 N 690.273 -0.685099 -1.4193 0
M  V30 7388 C 691.203 -0.0273506 -2.33484 0
M  V30 7389 C 692.184 0.778366 -1.51246 0
M  V30 7390 O 693.369 0.733449 -1.79817 0
M  V30 7391 C 690.499 0.917272 -3.34968 0
M  V30 7392 C 689.453 0.21941 -4.27437 0
M  V30 7393 C 688.779 1.27768 -5.1921 0
M  V30 7394 C 690.079 -0.907894 -5.14349 0
M  V30 7395 H 691.773 -0.791994 -2.88735 0
M  V30 7396 H 689.319 -0.382308 -1.38832 0
M  V30 7397 H 691.272 1.38657 -3.97935 0
M  V30 7398 H 689.996 1.71346 -2.78043 0
M  V30 7399 H 688.655 -0.229757 -3.65879 0
M  V30 7400 H 688.303 2.06612 -4.58607 0
M  V30 7401 H 688.003 0.815803 -5.81909 0
M  V30 7402 H 689.527 1.7477 -5.85054 0
M  V30 7403 H 690.941 -0.519348 -5.70943 0
M  V30 7404 H 689.338 -1.2962 -5.85934 0
M  V30 7405 H 690.408 -1.75218 -4.52136 0
M  V30 7406 N 691.751 1.51645 -0.429126 0
M  V30 7407 C 692.979 2.06433 0.138994 0
M  V30 7408 C 693.394 1.29735 1.37165 0
M  V30 7409 O 692.751 0.354638 1.79021 0
M  V30 7410 C 692.802 3.58439 0.469452 0
M  V30 7411 O 692.523 4.32238 -0.714273 0
M  V30 7412 C 694.024 4.29712 1.08914 0
M  V30 7413 H 691.244 0.6709 0.0115608 0
M  V30 7414 H 693.788 1.9532 -0.605843 0
M  V30 7415 H 691.943 3.69494 1.16419 0
M  V30 7416 H 692.357 5.22704 -0.433633 0
M  V30 7417 H 693.831 5.37182 1.27042 0
M  V30 7418 H 694.308 3.87473 2.06788 0
M  V30 7419 H 694.914 4.2308 0.434028 0
M  V30 7420 N 693.229 0.160201 1.56784 0
M  V30 7421 C 694.139 -0.787167 2.21 0
M  V30 7422 C 695.155 -1.26167 1.19825 0
M  V30 7423 O 696.331 -1.31611 1.52448 0
M  V30 7424 C 693.396 -2.00364 2.8294 0
M  V30 7425 C 692.457 -1.5771 3.99282 0
M  V30 7426 C 691.69 -2.73558 4.58259 0
M  V30 7427 O 691.913 -3.90129 4.16119 0
M  V30 7428 O 690.847 -2.48271 5.48311 0
M  V30 7429 H 694.673 -0.270462 3.02493 0
M  V30 7430 H 692.258 -0.0674666 1.49248 0
M  V30 7431 H 694.14 -2.71529 3.22257 0
M  V30 7432 H 692.815 -2.50961 2.04451 0
M  V30 7433 H 691.722 -0.835274 3.64656 0
M  V30 7434 H 693.055 -1.11815 4.79331 0
M  V30 7435 N 694.707 -1.5719 -0.113559 0
M  V30 7436 C 695.932 -1.89702 -0.838336 0
M  V30 7437 C 696.357 -0.752679 -1.72384 0
M  V30 7438 O 695.715 0.296575 -1.78858 0
M  V30 7439 C 695.763 -3.20989 -1.64312 0
M  V30 7440 O 694.867 -3.07278 -2.75053 0
M  V30 7441 H 694.208 -0.622339 -0.231496 0
M  V30 7442 H 696.738 -2.04382 -0.0943228 0
M  V30 7443 H 696.748 -3.53843 -2.03123 0
M  V30 7444 H 695.423 -4.03869 -0.993119 0
M  V30 7445 H 694 -2.85901 -2.39406 0
M  V30 7446 N 696.185 0.383891 -1.52853 0
M  V30 7447 C 697.425 1.13731 -1.69837 0
M  V30 7448 C 697.789 1.87086 -0.431611 0
M  V30 7449 O 698.99 2.64518 -0.477886 0
M  V30 7450 C 697.261 2.08551 -2.90243 0
M  V30 7451 S 698.82 2.9166 -3.27841 0
M  V30 7452 H 695.638 0.384911 -0.5978 0
M  V30 7453 H 698.24 0.42103 -1.90913 0
M  V30 7454 H 696.944 1.53392 -3.80656 0
M  V30 7455 H 696.475 2.8468 -2.71516 0
M  V30 7456 H 698.49 4.10723 -2.78426 0
M  V30 7457 N 697.663 1.43903 0.642637 0
M  V30 7458 C 698.911 1.45791 1.39962 0
M  V30 7459 C 699.232 0.0873144 1.94804 0
M  V30 7460 O 698.502 -0.878825 1.75081 0
M  V30 7461 H 697.082 0.536797 0.519479 0
M  V30 7462 H 699.744 1.7959 0.757189 0
M  V30 7463 H 698.84 2.17665 2.2367 0
M  V30 7464 N 699.141 -0.881989 1.30609 0
M  V30 7465 C 700.104 -1.96957 1.1722 0
M  V30 7466 C 701.104 -1.60472 0.102598 0
M  V30 7467 O 702.294 -1.70628 0.350943 0
M  V30 7468 C 699.426 -3.31463 0.796572 0
M  V30 7469 H 700.619 -2.10262 2.13846 0
M  V30 7470 H 698.172 -1.06877 1.14048 0
M  V30 7471 H 698.907 -3.23859 -0.169053 0
M  V30 7472 H 698.692 -3.59314 1.56959 0
M  V30 7473 H 700.182 -4.11233 0.72645 0
M  V30 7474 N 700.619 -1.13374 -1.09472 0
M  V30 7475 C 701.867 -0.893422 -1.8128 0
M  V30 7476 C 702.188 0.582029 -1.86111 0
M  V30 7477 O 701.458 1.42305 -1.34633 0
M  V30 7478 H 700.038 -0.327543 -0.67136 0
M  V30 7479 H 702.7 -1.43018 -1.32408 0
M  V30 7480 H 701.796 -1.28374 -2.84476 0
M  V30 7481 N 702.098 1.27442 -0.927168 0
M  V30 7482 C 703.326 1.98498 -0.583622 0
M  V30 7483 C 703.741 1.69171 0.838241 0
M  V30 7484 O 703.098 0.951969 1.55704 0
M  V30 7485 C 703.149 3.52552 -0.799341 0
M  V30 7486 O 702.87 3.80851 -2.16527 0
M  V30 7487 C 704.371 4.4086 -0.464436 0
M  V30 7488 H 701.591 0.633487 -0.221213 0
M  V30 7489 H 704.135 1.62308 -1.24404 0
M  V30 7490 H 702.29 3.86955 -0.185728 0
M  V30 7491 H 702.704 4.75441 -2.21487 0
M  V30 7492 H 704.178 5.47967 -0.666075 0
M  V30 7493 H 704.655 4.35082 0.599995 0
M  V30 7494 H 705.261 4.11977 -1.05617 0
M  V30 7495 N 703.576 0.692616 1.41565 0
M  V30 7496 C 704.822 0.222664 2.01574 0
M  V30 7497 C 705.155 -1.1737 1.54719 0
M  V30 7498 O 704.43 -1.79161 0.757084 0
M  V30 7499 C 704.713 0.277064 3.59033 0
M  V30 7500 C 704.566 1.71016 4.16021 0
M  V30 7501 C 705.885 -0.36479 4.38586 0
M  V30 7502 H 703.004 0.0823839 0.732381 0
M  V30 7503 H 705.646 0.880778 1.68352 0
M  V30 7504 H 703.796 -0.283288 3.87466 0
M  V30 7505 H 705.468 2.32413 3.98475 0
M  V30 7506 H 703.711 2.24525 3.71175 0
M  V30 7507 H 704.382 1.69978 5.25178 0
M  V30 7508 H 706.858 0.112404 4.15948 0
M  V30 7509 H 705.734 -0.296169 5.481 0
M  V30 7510 H 705.995 -1.44506 4.17816 0
M  V30 7511 N 705.054 -1.51416 0.437162 0
M  V30 7512 C 706.282 -2.06503 -0.128045 0
M  V30 7513 C 706.697 -1.30461 -1.36475 0
M  V30 7514 O 706.054 -0.364127 -1.78831 0
M  V30 7515 C 706.105 -3.58683 -0.450437 0
M  V30 7516 O 705.826 -4.31853 0.737186 0
M  V30 7517 C 707.327 -4.30284 -1.06633 0
M  V30 7518 H 704.547 -0.670952 -0.00800269 0
M  V30 7519 H 707.091 -1.94996 0.616193 0
M  V30 7520 H 705.246 -3.70106 -1.14457 0
M  V30 7521 H 705.66 -5.22467 0.461347 0
M  V30 7522 H 707.134 -5.37848 -1.24191 0
M  V30 7523 H 707.611 -3.88564 -2.0473 0
M  V30 7524 H 708.217 -4.23304 -0.411585 0
M  V30 7525 N 706.532 -0.168513 -1.56696 0
M  V30 7526 C 707.442 0.775435 -2.21414 0
M  V30 7527 C 708.458 1.25529 -1.20492 0
M  V30 7528 O 709.634 1.30801 -1.53144 0
M  V30 7529 C 706.699 1.9886 -2.83999 0
M  V30 7530 C 705.76 1.5559 -4.00113 0
M  V30 7531 C 704.993 2.71124 -4.59704 0
M  V30 7532 O 705.216 3.87917 -4.18182 0
M  V30 7533 O 704.15 2.4536 -5.4962 0
M  V30 7534 H 707.976 0.254416 -3.02632 0
M  V30 7535 H 705.561 0.0595507 -1.49281 0
M  V30 7536 H 707.443 2.69816 -3.23693 0
M  V30 7537 H 706.118 2.49874 -2.05779 0
M  V30 7538 H 705.025 0.815924 -3.65094 0
M  V30 7539 H 706.358 1.09271 -4.79917 0
M  V30 7540 N 708.01 1.57248 0.105221 0
M  V30 7541 C 709.256 1.85845 0.811753 0
M  V30 7542 C 709.589 0.756219 1.78871 0
M  V30 7543 O 708.864 -0.236736 1.93054 0
M  V30 7544 C 709.147 3.25059 1.54947 0
M  V30 7545 C 709 4.45898 0.591185 0
M  V30 7546 C 710.319 3.6203 2.50245 0
M  V30 7547 H 707.438 0.675973 0.293649 0
M  V30 7548 H 710.08 1.89849 0.0756269 0
M  V30 7549 H 708.23 3.21776 2.17698 0
M  V30 7550 H 709.902 4.61291 -0.0285352 0
M  V30 7551 H 708.145 4.33693 -0.0962343 0
M  V30 7552 H 708.816 5.40009 1.1443 0
M  V30 7553 H 711.292 3.66192 1.97593 0
M  V30 7554 H 710.168 4.60389 2.98886 0
M  V30 7555 H 710.429 2.90176 3.33542 0
M  V30 7556 N 709.488 -0.375779 1.53054 0
M  V30 7557 C 710.716 -1.14036 1.72637 0
M  V30 7558 C 711.131 -1.83342 0.450687 0
M  V30 7559 O 710.488 -1.7318 -0.575749 0
M  V30 7560 C 710.539 -2.17841 2.88492 0
M  V30 7561 O 710.26 -1.51358 4.11123 0
M  V30 7562 C 711.761 -3.06924 3.19863 0
M  V30 7563 H 708.981 -0.341386 0.577665 0
M  V30 7564 H 711.525 -0.437809 1.99759 0
M  V30 7565 H 709.68 -2.8371 2.63794 0
M  V30 7566 H 710.094 -2.20439 4.75928 0
M  V30 7567 H 711.568 -3.75763 4.04359 0
M  V30 7568 H 712.045 -3.71169 2.34798 0
M  V30 7569 H 712.651 -2.46684 3.46449 0
M  V30 7570 N 710.966 -1.44241 -0.634997 0
M  V30 7571 C 712.243 -1.37296 -1.39317 0
M  V30 7572 C 712.623 -0.0297532 -2.11079 0
M  V30 7573 O 711.971 0.987524 -2.06059 0
M  V30 7574 C 712.181 -2.56853 -2.36279 0
M  V30 7575 C 713.529 -3.00747 -2.99728 0
M  V30 7576 O 714.553 -2.5703 -2.46605 0
M  V30 7577 O 713.412 -3.76533 -3.96087 0
M  V30 7578 H 710.506 -0.543503 -0.623325 0
M  V30 7579 H 713.052 -1.56324 -0.660376 0
M  V30 7580 H 711.824 -3.46228 -1.82324 0
M  V30 7581 H 711.447 -2.40019 -3.16981 0
M  V30 7582 N 712.444 0.87505 -1.31075 0
M  V30 7583 C 713.674 1.65818 -1.2324 0
M  V30 7584 C 714.082 1.8808 0.205536 0
M  V30 7585 O 713.425 1.43548 1.14628 0
M  V30 7586 C 713.487 3.05131 -1.90093 0
M  V30 7587 C 713.151 3.05999 -3.39432 0
M  V30 7588 C 714.148 2.84328 -4.35263 0
M  V30 7589 C 711.833 3.27281 -3.81041 0
M  V30 7590 C 713.827 2.83912 -5.70678 0
M  V30 7591 C 711.514 3.26493 -5.16571 0
M  V30 7592 C 712.512 3.04834 -6.112 0
M  V30 7593 O 712.2 3.03882 -7.44252 0
M  V30 7594 H 711.932 0.52387 -0.427242 0
M  V30 7595 H 714.486 1.10086 -1.73408 0
M  V30 7596 H 712.716 3.62568 -1.34468 0
M  V30 7597 H 714.405 3.65641 -1.76242 0
M  V30 7598 H 715.171 2.67673 -4.04445 0
M  V30 7599 H 711.05 3.43171 -3.07822 0
M  V30 7600 H 714.594 2.66925 -6.44513 0
M  V30 7601 H 710.491 3.42687 -5.47025 0
M  V30 7602 H 711.259 3.19979 -7.53363 0
M  V30 7603 N 713.922 1.13953 1.08869 0
M  V30 7604 C 715.15 0.92817 1.84912 0
M  V30 7605 C 715.565 -0.523197 1.81406 0
M  V30 7606 O 714.922 -1.36237 1.21432 0
M  V30 7607 C 714.973 1.41509 3.32652 0
M  V30 7608 O 714.694 2.80959 3.36145 0
M  V30 7609 C 716.195 1.243 4.25517 0
M  V30 7610 H 713.415 0.330612 0.583898 0
M  V30 7611 H 715.959 1.51349 1.37527 0
M  V30 7612 H 714.114 0.872648 3.77444 0
M  V30 7613 H 714.528 3.02704 4.28335 0
M  V30 7614 H 716.002 1.63237 5.27312 0
M  V30 7615 H 716.479 0.18532 4.38809 0
M  V30 7616 H 717.085 1.77375 3.86546 0
M  V30 7617 N 715.4 -1.26948 0.933913 0
M  V30 7618 C 716.628 -1.98186 0.59414 0
M  V30 7619 C 717.043 -1.69614 -0.829257 0
M  V30 7620 O 716.4 -0.960213 -1.55197 0
M  V30 7621 C 716.451 -3.52123 0.818026 0
M  V30 7622 O 716.172 -3.79698 2.18543 0
M  V30 7623 C 717.673 -4.40608 0.48781 0
M  V30 7624 H 714.893 -0.632305 0.224569 0
M  V30 7625 H 717.437 -1.61646 1.25263 0
M  V30 7626 H 715.592 -3.86851 0.206246 0
M  V30 7627 H 716.006 -4.7426 2.24005 0
M  V30 7628 H 717.48 -5.47606 0.695126 0
M  V30 7629 H 717.957 -4.35394 -0.576913 0
M  V30 7630 H 718.563 -4.11411 1.078 0
M  V30 7631 N 716.879 -0.700114 -1.41195 0
M  V30 7632 C 718.127 -0.232546 -2.00758 0
M  V30 7633 C 718.448 1.1734 -1.55745 0
M  V30 7634 O 717.718 1.79262 -0.790058 0
M  V30 7635 H 716.298 -0.0829845 -0.742376 0
M  V30 7636 H 718.96 -0.902289 -1.72756 0
M  V30 7637 H 718.056 -0.253521 -3.11069 0
M  V30 7638 N 718.357 1.51182 -0.445186 0
M  V30 7639 C 719.773 1.59299 -0.0978954 0
M  V30 7640 C 719.973 1.4555 1.39346 0
M  V30 7641 O 719.029 1.30073 2.16419 0
M  V30 7642 C 720.342 2.94133 -0.625005 0
M  V30 7643 C 721.89 3.07463 -0.586137 0
M  V30 7644 C 722.365 4.44832 -1.09035 0
M  V30 7645 N 723.856 4.51173 -1.04867 0
M  V30 7646 C 724.591 5.55804 -1.40959 0
M  V30 7647 N 724.087 6.67816 -1.84375 0
M  V30 7648 N 725.88 5.46205 -1.32726 0
M  V30 7649 H 718.031 1.58363 -1.41544 0
M  V30 7650 H 720.294 0.746946 -0.58376 0
M  V30 7651 H 720 3.09589 -1.66876 0
M  V30 7652 H 719.874 3.77161 -0.0542262 0
M  V30 7653 H 722.261 2.9167 0.448646 0
M  V30 7654 H 722.342 2.26255 -1.19341 0
M  V30 7655 H 721.986 4.61372 -2.12364 0
M  V30 7656 H 721.916 5.24591 -0.459539 0
M  V30 7657 H 724.407 3.70783 -0.729932 0
M  V30 7658 H 724.72 7.43683 -2.10131 0
M  V30 7659 H 723.065 6.69003 -1.88308 0
M  V30 7660 H 726.256 4.57583 -0.986678 0
M  V30 7661 H 726.429 6.27634 -1.61182 0
M  V30 7662 N 719.835 0.176821 1.56605 0
M  V30 7663 C 721.081 -0.467406 1.9734 0
M  V30 7664 C 721.414 -1.62523 1.06301 0
M  V30 7665 O 720.689 -1.94182 0.11125 0
M  V30 7666 C 720.972 -0.945106 3.47476 0
M  V30 7667 C 720.825 0.213273 4.49294 0
M  V30 7668 C 722.144 -1.8169 4.00845 0
M  V30 7669 H 719.263 -0.168426 0.717497 0
M  V30 7670 H 721.905 0.264065 1.88156 0
M  V30 7671 H 720.055 -1.56841 3.55434 0
M  V30 7672 H 721.727 0.850508 4.53392 0
M  V30 7673 H 719.97 0.867918 4.25029 0
M  V30 7674 H 720.641 -0.163187 5.51759 0
M  V30 7675 H 723.117 -1.29139 3.95553 0
M  V30 7676 H 721.993 -2.12015 5.06301 0
M  V30 7677 H 722.254 -2.76463 3.44994 0
M  V30 7678 N 721.313 -1.57302 -0.09688 0
M  V30 7679 C 722.561 -1.8563 -0.799117 0
M  V30 7680 C 722.882 -0.765263 -1.79356 0
M  V30 7681 O 722.152 0.208657 -1.94786 0
M  V30 7682 H 720.732 -0.684937 -0.298111 0
M  V30 7683 H 723.394 -1.9474 -0.0789341 0
M  V30 7684 H 722.49 -2.82305 -1.3308 0
M  V30 7685 N 722.791 0.367657 -1.53252 0
M  V30 7686 C 723.754 1.43308 -1.78873 0
M  V30 7687 C 724.754 1.46671 -0.659115 0
M  V30 7688 O 725.944 1.47468 -0.927306 0
M  V30 7689 C 723.076 2.82442 -1.90892 0
M  V30 7690 H 724.269 1.21864 -2.74024 0
M  V30 7691 H 721.822 0.600668 -1.44297 0
M  V30 7692 H 722.557 3.09202 -0.978 0
M  V30 7693 H 722.342 2.81399 -2.73051 0
M  V30 7694 H 723.832 3.59601 -2.12314 0
M  V30 7695 N 724.269 1.44576 0.627338 0
M  V30 7696 C 725.68 1.42266 1.20902 0
M  V30 7697 C 726.031 0.139964 1.957 0
M  V30 7698 O 725.156 -0.759489 2.02634 0
M  V30 7699 C 725.751 2.57727 2.19914 0
M  V30 7700 C 724.31 2.58599 2.73502 0
M  V30 7701 C 723.457 2.34145 1.48564 0
M  V30 7702 H 726.408 1.53102 0.417791 0
M  V30 7703 H 726.429 2.30697 3.02588 0
M  V30 7704 H 725.941 3.51068 1.65447 0
M  V30 7705 H 724.042 1.6921 3.31962 0
M  V30 7706 H 724.155 3.57205 3.19282 0
M  V30 7707 H 722.519 1.83313 1.76829 0
M  V30 7708 H 723.302 3.29606 0.959935 0
M  V30 7709 N 725.747 -0.868086 1.31537 0
M  V30 7710 C 726.677 -1.99131 1.21939 0
M  V30 7711 C 727.658 -1.69768 0.106166 0
M  V30 7712 O 728.843 -1.92006 0.291081 0
M  V30 7713 C 725.973 -3.34676 0.927879 0
M  V30 7714 C 724.927 -3.7835 2.00088 0
M  V30 7715 C 724.253 -5.11375 1.56203 0
M  V30 7716 C 725.553 -3.95256 3.41424 0
M  V30 7717 H 727.247 -2.07419 2.15911 0
M  V30 7718 H 724.793 -0.996569 1.03945 0
M  V30 7719 H 726.746 -4.12793 0.847327 0
M  V30 7720 H 725.47 -3.26565 -0.0475042 0
M  V30 7721 H 724.129 -3.02474 2.07135 0
M  V30 7722 H 723.777 -4.99709 0.57445 0
M  V30 7723 H 723.477 -5.41568 2.27985 0
M  V30 7724 H 725.001 -5.92001 1.49558 0
M  V30 7725 H 726.415 -4.63764 3.3704 0
M  V30 7726 H 724.812 -4.36849 4.1144 0
M  V30 7727 H 725.882 -2.98579 3.82072 0
M  V30 7728 N 727.225 -1.14528 -1.08264 0
M  V30 7729 C 728.474 -0.908992 -1.80056 0
M  V30 7730 C 728.787 0.565859 -1.87236 0
M  V30 7731 O 729.993 0.919454 -2.55457 0
M  V30 7732 C 728.449 -1.57681 -3.23519 0
M  V30 7733 C 728.057 -3.08803 -3.24569 0
M  V30 7734 C 729.801 -1.4217 -3.99985 0
M  V30 7735 C 727.708 -3.68414 -4.62629 0
M  V30 7736 H 726.638 -0.336432 -0.674781 0
M  V30 7737 H 729.289 -1.37437 -1.21587 0
M  V30 7738 H 727.671 -1.03911 -3.82124 0
M  V30 7739 H 728.845 -3.69252 -2.75663 0
M  V30 7740 H 727.16 -3.23968 -2.61598 0
M  V30 7741 H 729.757 -1.84106 -5.02005 0
M  V30 7742 H 730.1 -0.367989 -4.1467 0
M  V30 7743 H 730.633 -1.92984 -3.47853 0
M  V30 7744 H 727.372 -4.73644 -4.53147 0
M  V30 7745 H 726.892 -3.12746 -5.11811 0
M  V30 7746 H 728.571 -3.68793 -5.31602 0
M  V30 7747 N 728.703 1.26451 -0.940633 0
M  V30 7748 C 729.943 1.95537 -0.595381 0
M  V30 7749 C 730.307 1.72175 0.849683 0
M  V30 7750 O 731.508 2.3506 1.30384 0
M  V30 7751 C 729.779 3.45151 -0.927669 0
M  V30 7752 S 731.338 4.33295 -0.69288 0
M  V30 7753 H 728.156 0.676331 -0.219311 0
M  V30 7754 H 730.758 1.53411 -1.21183 0
M  V30 7755 H 729.462 3.59654 -1.9768 0
M  V30 7756 H 728.993 3.92247 -0.300921 0
M  V30 7757 H 731.008 4.94217 0.443175 0
M  V30 7758 N 730.181 0.707592 1.40822 0
M  V30 7759 C 731.421 0.247986 2.0289 0
M  V30 7760 C 731.785 -1.13484 1.54872 0
M  V30 7761 O 732.986 -1.69098 2.08948 0
M  V30 7762 C 731.257 0.316326 3.55997 0
M  V30 7763 S 732.816 -0.0674698 4.38748 0
M  V30 7764 H 729.634 0.09895 0.704081 0
M  V30 7765 H 732.236 0.928039 1.72069 0
M  V30 7766 H 730.94 1.32453 3.88438 0
M  V30 7767 H 730.471 -0.382474 3.91536 0
M  V30 7768 H 732.486 -1.29182 4.79089 0
M  V30 7769 N 731.66 -1.50943 0.453197 0
M  V30 7770 C 732.57 -2.31884 -0.355963 0
M  V30 7771 C 733.586 -1.41481 -1.01287 0
M  V30 7772 O 734.762 -1.74546 -1.00477 0
M  V30 7773 C 731.827 -3.15668 -1.43369 0
M  V30 7774 C 730.888 -4.2187 -0.795253 0
M  V30 7775 C 730.121 -5.0165 -1.82162 0
M  V30 7776 O 730.344 -4.82266 -3.04592 0
M  V30 7777 O 729.278 -5.85311 -1.40336 0
M  V30 7778 H 733.104 -3.02162 0.305248 0
M  V30 7779 H 730.689 -1.47839 0.215398 0
M  V30 7780 H 732.571 -3.67709 -2.05836 0
M  V30 7781 H 731.246 -2.48137 -2.07869 0
M  V30 7782 H 730.153 -3.73867 -0.132106 0
M  V30 7783 H 731.486 -4.9182 -0.193484 0
M  V30 7784 N 733.138 -0.185124 -1.56509 0
M  V30 7785 C 734.387 0.456421 -1.96468 0
M  V30 7786 C 734.7 1.63448 -1.07444 0
M  V30 7787 O 735.906 2.34316 -1.37143 0
M  V30 7788 C 734.362 0.863404 -3.4939 0
M  V30 7789 C 733.97 -0.289815 -4.47062 0
M  V30 7790 C 735.714 1.47259 -3.98139 0
M  V30 7791 C 733.621 0.137571 -5.9124 0
M  V30 7792 H 732.551 0.17429 -0.733579 0
M  V30 7793 H 735.202 -0.275554 -1.81419 0
M  V30 7794 H 733.584 1.65176 -3.59907 0
M  V30 7795 H 734.758 -1.06728 -4.4827 0
M  V30 7796 H 733.073 -0.809851 -4.08449 0
M  V30 7797 H 735.67 1.80463 -5.03326 0
M  V30 7798 H 736.013 2.3755 -3.41871 0
M  V30 7799 H 736.546 0.748405 -3.90696 0
M  V30 7800 H 733.285 -0.730907 -6.51412 0
M  V30 7801 H 732.805 0.8801 -5.93308 0
M  V30 7802 H 734.484 0.576771 -6.44424 0
M  V30 7803 N 734.616 1.57351 0.0885366 0
M  V30 7804 C 735.563 2.02523 1.10693 0
M  V30 7805 C 736.533 0.902736 1.39427 0
M  V30 7806 O 737.718 1.16921 1.50779 0
M  V30 7807 C 734.858 2.46013 2.42016 0
M  V30 7808 C 733.971 3.7181 2.19957 0
M  V30 7809 C 733.106 4.04152 3.44724 0
M  V30 7810 C 732.145 5.2304 3.17956 0
M  V30 7811 N 731.282 5.51102 4.35007 0
M  V30 7812 H 736.122 2.89302 0.714742 0
M  V30 7813 H 733.659 1.43084 0.341378 0
M  V30 7814 H 735.617 2.69274 3.18665 0
M  V30 7815 H 734.247 1.62235 2.79069 0
M  V30 7816 H 733.299 3.55987 1.34079 0
M  V30 7817 H 734.611 4.58604 1.96173 0
M  V30 7818 H 733.765 4.28225 4.29777 0
M  V30 7819 H 732.504 3.15893 3.71568 0
M  V30 7820 H 731.509 4.98781 2.31296 0
M  V30 7821 H 732.734 6.12902 2.92451 0
M  V30 7822 H 730.68 4.65802 4.61914 0
M  V30 7823 H 730.597 6.3228 4.14437 0
M  V30 7824 H 731.865 5.79714 5.21106 0
M  V30 7825 N 736.094 -0.359525 1.53444 0
M  V30 7826 C 737.024 -1.44662 1.8329 0
M  V30 7827 C 738.005 -1.55617 0.68683 0
M  V30 7828 O 739.19 -1.70086 0.93725 0
M  V30 7829 C 736.32 -2.81923 2.02822 0
M  V30 7830 C 735.274 -2.85787 3.18606 0
M  V30 7831 C 734.6 -4.25781 3.23442 0
M  V30 7832 C 735.9 -2.52762 4.57065 0
M  V30 7833 H 737.594 -1.19934 2.74329 0
M  V30 7834 H 735.14 -0.575517 1.31999 0
M  V30 7835 H 737.093 -3.58005 2.22285 0
M  V30 7836 H 735.817 -3.08051 1.085 0
M  V30 7837 H 734.476 -2.12157 2.98973 0
M  V30 7838 H 734.124 -4.48994 2.26745 0
M  V30 7839 H 733.824 -4.29281 4.01238 0
M  V30 7840 H 735.348 -5.03727 3.45096 0
M  V30 7841 H 736.762 -3.18557 4.76649 0
M  V30 7842 H 735.159 -2.67569 5.37147 0
M  V30 7843 H 736.229 -1.47993 4.61764 0
M  V30 7844 N 737.572 -1.44907 -0.619662 0
M  V30 7845 C 738.519 -1.52654 -1.73105 0
M  V30 7846 C 739.489 -0.373334 -1.6185 0
M  V30 7847 O 740.674 -0.585143 -1.81606 0
M  V30 7848 C 737.814 -1.48769 -3.11387 0
M  V30 7849 C 736.927 -2.74551 -3.33535 0
M  V30 7850 C 736.062 -2.62421 -4.61854 0
M  V30 7851 C 735.101 -3.83312 -4.77219 0
M  V30 7852 N 734.238 -3.69789 -5.96826 0
M  V30 7853 H 739.078 -2.47605 -1.65819 0
M  V30 7854 H 736.615 -1.22875 -0.808719 0
M  V30 7855 H 738.573 -1.44507 -3.91374 0
M  V30 7856 H 737.203 -0.573783 -3.1766 0
M  V30 7857 H 736.255 -2.88953 -2.47408 0
M  V30 7858 H 737.567 -3.64253 -3.40765 0
M  V30 7859 H 736.721 -2.56056 -5.50019 0
M  V30 7860 H 735.46 -1.70298 -4.57001 0
M  V30 7861 H 734.465 -3.90049 -3.87481 0
M  V30 7862 H 735.69 -4.76486 -4.83878 0
M  V30 7863 H 733.636 -2.80426 -5.93041 0
M  V30 7864 H 733.553 -4.53116 -6.05163 0
M  V30 7865 H 734.821 -3.67335 -6.87521 0
M  V30 7866 N 739.05 0.861098 -1.31996 0
M  V30 7867 C 740.327 1.59788 -1.12814 0
M  V30 7868 C 740.707 2.08753 0.313882 0
M  V30 7869 O 740.055 1.87258 1.30946 0
M  V30 7870 C 740.265 2.74901 -2.15012 0
M  V30 7871 C 741.613 3.44643 -2.48004 0
M  V30 7872 O 742.637 2.85119 -2.13508 0
M  V30 7873 O 741.496 4.52044 -3.07113 0
M  V30 7874 H 738.59 0.703408 -0.434909 0
M  V30 7875 H 741.136 0.905788 -1.43505 0
M  V30 7876 H 739.908 2.36198 -3.11971 0
M  V30 7877 H 739.531 3.51792 -1.85279 0
M  V30 7878 N 740.528 1.15101 1.07655 0
M  V30 7879 C 741.774 0.935313 1.8062 0
M  V30 7880 C 742.129 -0.532052 1.84897 0
M  V30 7881 O 741.422 -1.3893 1.31943 0
M  V30 7882 C 741.616 1.47954 3.25337 0
M  V30 7883 C 741.445 2.99829 3.35161 0
M  V30 7884 C 740.215 3.68348 3.45902 0
M  V30 7885 C 742.413 3.97638 3.26173 0
M  V30 7886 N 740.395 5.08062 3.44596 0
M  V30 7887 C 741.766 5.23651 3.31949 0
M  V30 7888 C 743.821 3.89651 3.09962 0
M  V30 7889 C 742.524 6.42609 3.23182 0
M  V30 7890 C 744.55 5.08164 3.02528 0
M  V30 7891 C 743.912 6.3305 3.08913 0
M  V30 7892 H 740.011 0.395876 0.674393 0
M  V30 7893 H 742.595 1.4625 1.28526 0
M  V30 7894 H 740.766 0.979022 3.75859 0
M  V30 7895 H 742.498 1.20298 3.86407 0
M  V30 7896 H 739.253 3.18928 3.50117 0
M  V30 7897 H 739.677 5.81023 3.47479 0
M  V30 7898 H 744.319 2.93966 3.03881 0
M  V30 7899 H 742.037 7.38531 3.28022 0
M  V30 7900 H 745.623 5.03742 2.91093 0
M  V30 7901 H 744.503 7.23214 3.03201 0
M  V30 7902 N 742.006 -1.2595 0.947325 0
M  V30 7903 C 742.938 -2.25336 0.41906 0
M  V30 7904 C 743.951 -1.56135 -0.461051 0
M  V30 7905 O 745.14 -1.76438 -0.270505 0
M  V30 7906 C 742.24 -3.36334 -0.416233 0
M  V30 7907 C 741.413 -4.35088 0.449162 0
M  V30 7908 C 740.472 -5.25185 -0.326716 0
M  V30 7909 O 739.498 -5.68548 0.272374 0
M  V30 7910 N 740.7 -5.57388 -1.6217 0
M  V30 7911 H 743.465 -2.71298 1.27348 0
M  V30 7912 H 741.026 -1.39781 0.81688 0
M  V30 7913 H 743.018 -3.93564 -0.942826 0
M  V30 7914 H 741.588 -2.89819 -1.17148 0
M  V30 7915 H 740.808 -3.76841 1.15692 0
M  V30 7916 H 742.096 -4.98056 1.04008 0
M  V30 7917 H 741.494 -5.2405 -2.13046 0
M  V30 7918 H 740.051 -6.17234 -2.0944 0
M  V30 7919 N 743.484 -0.715051 -1.40445 0
M  V30 7920 C 744.394 -0.0631624 -2.34515 0
M  V30 7921 C 745.41 0.744397 -1.57273 0
M  V30 7922 O 746.586 0.677475 -1.89663 0
M  V30 7923 C 743.651 0.847915 -3.36172 0
M  V30 7924 C 742.712 0.0303655 -4.29289 0
M  V30 7925 C 741.945 0.898051 -5.2609 0
M  V30 7926 O 742.168 2.13729 -5.28844 0
M  V30 7927 O 741.102 0.337328 -6.00954 0
M  V30 7928 H 744.928 -0.839078 -2.91879 0
M  V30 7929 H 742.513 -0.475527 -1.4163 0
M  V30 7930 H 744.395 1.3698 -3.98515 0
M  V30 7931 H 743.07 1.60299 -2.81222 0
M  V30 7932 H 741.977 -0.536573 -3.70232 0
M  V30 7933 H 743.31 -0.686474 -4.87389 0
M  V30 7934 N 744.962 1.50701 -0.461195 0
M  V30 7935 C 746.21 2.01867 0.0970051 0
M  V30 7936 C 746.531 1.34591 1.41104 0
M  V30 7937 O 745.801 0.488041 1.89723 0
M  V30 7938 H 744.381 0.74599 0.0388392 0
M  V30 7939 H 747.043 1.85129 -0.609357 0
M  V30 7940 H 746.139 3.11051 0.255688 0
M  V30 7941 N 746.441 0.193421 1.56409 0
M  V30 7942 C 747.689 -0.444908 1.97142 0
M  V30 7943 C 748.01 -1.62268 1.08139 0
M  V30 7944 O 747.28 -1.95307 0.152326 0
M  V30 7945 H 745.86 -0.16736 0.728011 0
M  V30 7946 H 748.522 0.279763 1.92882 0
M  V30 7947 H 747.618 -0.790159 3.01932 0
M  V30 7948 N 747.919 -1.57396 -0.0801906 0
M  V30 7949 C 749.149 -1.90778 -0.792924 0
M  V30 7950 C 749.557 -0.786814 -1.72064 0
M  V30 7951 O 748.9 0.249259 -1.82001 0
M  V30 7952 C 748.962 -3.19552 -1.64702 0
M  V30 7953 C 748.626 -4.48259 -0.889567 0
M  V30 7954 C 749.623 -5.19465 -0.212602 0
M  V30 7955 C 747.308 -4.94896 -0.859229 0
M  V30 7956 C 749.302 -6.35555 0.484566 0
M  V30 7957 C 746.989 -6.10895 -0.158284 0
M  V30 7958 C 747.987 -6.81075 0.512421 0
M  V30 7959 O 747.675 -7.94862 1.20209 0
M  V30 7960 H 747.407 -0.63527 -0.231103 0
M  V30 7961 H 749.961 -2.0532 -0.0573081 0
M  V30 7962 H 748.191 -3.01196 -2.42524 0
M  V30 7963 H 749.88 -3.38649 -2.23767 0
M  V30 7964 H 750.646 -4.84467 -0.227403 0
M  V30 7965 H 746.525 -4.4015 -1.37073 0
M  V30 7966 H 750.069 -6.9027 1.00864 0
M  V30 7967 H 745.966 -6.45345 -0.141381 0
M  V30 7968 H 746.734 -8.10932 1.11051 0
M  V30 7969 N 749.397 0.351382 -1.53633 0
M  V30 7970 C 750.625 1.11275 -1.74429 0
M  V30 7971 C 751.04 1.82602 -0.479798 0
M  V30 7972 O 750.397 1.74074 0.548125 0
M  V30 7973 C 750.448 2.13223 -2.91921 0
M  V30 7974 O 750.169 1.44798 -4.13479 0
M  V30 7975 C 751.67 3.01797 -3.24706 0
M  V30 7976 H 748.89 0.332153 -0.583023 0
M  V30 7977 H 751.434 0.405974 -2.0043 0
M  V30 7978 H 749.589 2.79477 -2.68274 0
M  V30 7979 H 750.003 2.12839 -4.79374 0
M  V30 7980 H 751.477 3.69282 -4.10286 0
M  V30 7981 H 751.954 3.67387 -2.40673 0
M  V30 7982 H 752.56 2.41141 -3.5033 0
M  V30 7983 N 750.875 1.45233 0.611969 0
M  V30 7984 C 752.124 1.48296 1.36716 0
M  V30 7985 C 752.437 0.12706 1.95187 0
M  V30 7986 O 753.643 0.0353066 2.71477 0
M  V30 7987 C 752.099 2.61168 2.47627 0
M  V30 7988 C 751.707 4.03051 1.95587 0
M  V30 7989 C 753.451 2.73472 3.24674 0
M  V30 7990 C 751.358 5.07312 3.03954 0
M  V30 7991 H 750.288 0.5518 0.513841 0
M  V30 7992 H 752.939 1.7136 0.656359 0
M  V30 7993 H 751.321 2.31379 3.21372 0
M  V30 7994 H 752.495 4.42497 1.2858 0
M  V30 7995 H 750.81 3.95158 1.31298 0
M  V30 7996 H 753.407 3.48537 4.05494 0
M  V30 7997 H 753.75 1.79953 3.75397 0
M  V30 7998 H 754.283 3.02765 2.58028 0
M  V30 7999 H 751.022 6.02525 2.58154 0
M  V30 8000 H 750.542 4.7244 3.69541 0
M  V30 8001 H 752.221 5.31867 3.6841 0
M  V30 8002 N 752.353 -0.854086 1.3245 0
M  V30 8003 C 753.301 -1.98411 1.21391 0
M  V30 8004 C 754.295 -1.68984 0.118586 0
M  V30 8005 O 755.501 -1.77784 0.281549 0
M  V30 8006 H 751.876 -0.651077 0.376301 0
M  V30 8007 H 753.847 -2.04867 2.16961 0
M  V30 8008 C 752.596 -3.34345 0.954407 0
M  V30 8009 H 751.919 -3.57518 1.78944 0
M  V30 8010 H 753.359 -4.13959 0.917269 0
M  V30 8011 C 751.818 -3.35151 -0.342838 0
M  V30 8012 O 752.348 -3.78174 -1.35452 0
M  V30 8013 N 750.554 -2.88298 -0.365012 0
M  V30 8014 H 750.101 -2.53481 0.4588 0
M  V30 8015 H 750.059 -2.8922 -1.23284 0
M  V30 8016 N 753.831 -1.1567 -1.07043 0
M  V30 8017 C 755.108 -0.843948 -1.76456 0
M  V30 8018 C 755.488 0.659806 -2.00524 0
M  V30 8019 O 754.836 1.60518 -1.62623 0
M  V30 8020 C 755.046 -1.65822 -3.0709 0
M  V30 8021 C 756.394 -1.8664 -3.8138 0
M  V30 8022 O 757.418 -1.62624 -3.1691 0
M  V30 8023 O 756.277 -2.26884 -4.97178 0
M  V30 8024 H 753.371 -0.310677 -0.766426 0
M  V30 8025 H 755.917 -1.26266 -1.1338 0
M  V30 8026 H 754.689 -2.67902 -2.85209 0
M  V30 8027 H 754.312 -1.23605 -3.77899 0
M  V30 8028 N 755.309 1.25446 -0.953992 0
M  V30 8029 C 756.256 2.25912 -0.472485 0
M  V30 8030 C 757.226 1.59173 0.47469 0
M  V30 8031 O 758.411 1.86812 0.388082 0
M  V30 8032 C 755.551 3.44235 0.244218 0
M  V30 8033 C 754.664 4.25613 -0.740121 0
M  V30 8034 C 753.799 5.312 -0.000922267 0
M  V30 8035 C 752.838 6.04265 -0.976236 0
M  V30 8036 N 751.975 7.01589 -0.267952 0
M  V30 8037 H 756.815 2.66469 -1.3341 0
M  V30 8038 H 754.352 1.31005 -0.669045 0
M  V30 8039 H 756.31 4.11682 0.676314 0
M  V30 8040 H 754.94 3.04554 1.06988 0
M  V30 8041 H 753.992 3.57834 -1.2907 0
M  V30 8042 H 755.304 4.762 -1.48441 0
M  V30 8043 H 754.458 6.04719 0.48984 0
M  V30 8044 H 753.197 4.81484 0.776159 0
M  V30 8045 H 752.202 5.29561 -1.478 0
M  V30 8046 H 753.427 6.5607 -1.75354 0
M  V30 8047 H 751.373 6.54164 0.490403 0
M  V30 8048 H 751.29 7.4999 -0.951344 0
M  V30 8049 H 752.558 7.7924 0.201294 0
M  V30 8050 N 756.787 0.722489 1.40064 0
M  V30 8051 C 758.198 0.336507 1.83642 0
M  V30 8052 C 758.549 -1.13002 1.6039 0
M  V30 8053 O 757.674 -1.87036 1.08842 0
M  V30 8054 C 758.269 0.603985 3.33373 0
M  V30 8055 C 756.828 0.271637 3.75419 0
M  V30 8056 C 755.975 0.872898 2.63203 0
M  V30 8057 H 758.926 0.921108 1.29233 0
M  V30 8058 H 758.947 -0.128471 3.80283 0
M  V30 8059 H 758.459 1.67141 3.50265 0
M  V30 8060 H 756.56 -0.790455 3.64119 0
M  V30 8061 H 756.673 0.745457 4.73265 0
M  V30 8062 H 755.037 0.300431 2.52922 0
M  V30 8063 H 755.82 1.94473 2.82905 0
M  V30 8064 N 758.265 -1.50454 0.469181 0
M  V30 8065 C 759.213 -2.30101 -0.340033 0
M  V30 8066 C 760.207 -1.37306 -0.992135 0
M  V30 8067 O 761.413 -1.54506 -0.923458 0
M  V30 8068 H 757.788 -0.740941 -0.128495 0
M  V30 8069 H 759.759 -2.96315 0.352144 0
M  V30 8070 C 758.508 -3.17804 -1.41052 0
M  V30 8071 H 757.831 -3.89115 -0.918124 0
M  V30 8072 H 759.271 -3.76533 -1.94934 0
M  V30 8073 C 757.73 -2.35272 -2.4114 0
M  V30 8074 O 758.26 -2.03448 -3.4637 0
M  V30 8075 N 756.466 -1.97889 -2.1281 0
M  V30 8076 H 756.013 -2.2397 -1.27261 0
M  V30 8077 H 755.971 -1.42971 -2.80012 0
M  V30 8078 N 759.743 -0.201713 -1.56304 0
M  V30 8079 C 761.154 0.309711 -1.84113 0
M  V30 8080 C 761.505 1.60912 -1.12258 0
M  V30 8081 O 760.63 2.12937 -0.385587 0
M  V30 8082 C 761.225 0.568706 -3.33993 0
M  V30 8083 C 759.784 1.02448 -3.6219 0
M  V30 8084 C 758.931 0.0766842 -2.77194 0
M  V30 8085 H 761.882 -0.425356 -1.52893 0
M  V30 8086 H 761.903 1.41721 -3.53122 0
M  V30 8087 H 761.415 -0.37719 -3.86263 0
M  V30 8088 H 759.516 1.98443 -3.15359 0
M  V30 8089 H 759.629 0.912619 -4.70328 0
M  V30 8090 H 757.993 0.579809 -2.48013 0
M  V30 8091 H 758.776 -0.863774 -3.32256 0
M  V30 8092 N 761.222 1.57436 0.0718424 0
M  V30 8093 C 762.638 1.53792 0.426628 0
M  V30 8094 C 762.838 0.921887 1.79174 0
M  V30 8095 O 761.894 0.524374 2.46995 0
M  V30 8096 C 763.207 2.98443 0.367739 0
M  V30 8097 C 764.755 3.09778 0.447928 0
M  V30 8098 C 765.23 4.5608 0.418946 0
M  V30 8099 N 766.721 4.60716 0.479022 0
M  V30 8100 C 767.456 5.71397 0.47881 0
M  V30 8101 N 766.952 6.91443 0.433417 0
M  V30 8102 N 768.745 5.59639 0.525364 0
M  V30 8103 H 760.896 1.95848 -0.822033 0
M  V30 8104 H 763.159 0.896418 -0.308447 0
M  V30 8105 H 762.865 3.47072 -0.56865 0
M  V30 8106 H 762.739 3.58335 1.17795 0
M  V30 8107 H 765.126 2.61122 1.37474 0
M  V30 8108 H 765.207 2.52796 -0.390857 0
M  V30 8109 H 764.851 5.05393 -0.504016 0
M  V30 8110 H 764.781 5.10925 1.27526 0
M  V30 8111 H 767.272 3.74328 0.518355 0
M  V30 8112 H 767.585 7.71562 0.43718 0
M  V30 8113 H 765.93 6.93847 0.400106 0
M  V30 8114 H 769.121 4.64756 0.558519 0
M  V30 8115 H 769.294 6.45896 0.52173 0
M  V30 8116 N 762.7 -0.34323 1.53817 0
M  V30 8117 C 763.948 -1.0813 1.70741 0
M  V30 8118 C 764.269 -1.89165 0.473461 0
M  V30 8119 O 763.539 -1.89075 -0.512605 0
M  V30 8120 H 762.119 -0.40219 0.629486 0
M  V30 8121 H 764.781 -0.384426 1.91071 0
M  V30 8122 H 763.877 -1.7585 2.57843 0
M  V30 8123 N 764.178 -1.45556 -0.604258 0
M  V30 8124 C 765.088 -1.57025 -1.74299 0
M  V30 8125 C 766.104 -0.45456 -1.67958 0
M  V30 8126 O 767.28 -0.715711 -1.88254 0
M  V30 8127 C 764.345 -1.53702 -3.10768 0
M  V30 8128 C 763.406 -2.76335 -3.28538 0
M  V30 8129 C 762.639 -2.73161 -4.58496 0
M  V30 8130 O 762.862 -1.80678 -5.41028 0
M  V30 8131 O 761.796 -3.64409 -4.79051 0
M  V30 8132 H 765.622 -2.53284 -1.67573 0
M  V30 8133 H 763.207 -1.28104 -0.768745 0
M  V30 8134 H 765.089 -1.54468 -3.92068 0
M  V30 8135 H 763.764 -0.605957 -3.17978 0
M  V30 8136 H 762.671 -2.8113 -2.46813 0
M  V30 8137 H 764.004 -3.68578 -3.26207 0
M  V30 8138 N 765.656 0.84705 -1.32902 0
M  V30 8139 C 766.905 1.59667 -1.23245 0
M  V30 8140 C 767.218 1.94551 0.202349 0
M  V30 8141 O 768.424 2.68218 0.420847 0
M  V30 8142 C 766.88 2.8795 -2.15901 0
M  V30 8143 C 766.488 2.60461 -3.64505 0
M  V30 8144 C 768.232 3.65968 -2.15098 0
M  V30 8145 C 766.139 3.84791 -4.49099 0
M  V30 8146 H 765.069 0.599167 -0.457728 0
M  V30 8147 H 767.72 0.934662 -1.57912 0
M  V30 8148 H 766.102 3.55648 -1.74157 0
M  V30 8149 H 767.276 2.01026 -4.14639 0
M  V30 8150 H 765.591 1.9576 -3.67515 0
M  V30 8151 H 768.188 4.58241 -2.75534 0
M  V30 8152 H 768.531 4.00275 -1.14392 0
M  V30 8153 H 769.064 3.05184 -2.55162 0
M  V30 8154 H 765.803 3.55621 -5.50649 0
M  V30 8155 H 765.323 4.43594 -4.03713 0
M  V30 8156 H 767.002 4.52454 -4.62487 0
M  V30 8157 N 767.134 1.16236 1.06428 0
M  V30 8158 C 768.38 0.944431 1.79467 0
M  V30 8159 C 768.713 -0.526558 1.86925 0
M  V30 8160 O 767.988 -1.39061 1.35986 0
M  V30 8161 C 768.271 1.57092 3.24028 0
M  V30 8162 C 768.124 3.11315 3.24658 0
M  V30 8163 C 769.443 1.26447 4.21544 0
M  V30 8164 H 766.562 0.344521 0.651517 0
M  V30 8165 H 769.204 1.43545 1.24478 0
M  V30 8166 H 767.354 1.15337 3.70985 0
M  V30 8167 H 769.026 3.62042 2.85873 0
M  V30 8168 H 767.269 3.44716 2.6335 0
M  V30 8169 H 767.94 3.50269 4.26633 0
M  V30 8170 H 770.416 1.62581 3.83023 0
M  V30 8171 H 769.292 1.72885 5.20963 0
M  V30 8172 H 769.553 0.183068 4.41721 0
M  V30 8173 N 768.612 -1.24939 0.960631 0
M  V30 8174 C 769.861 -1.92118 0.614298 0
M  V30 8175 C 770.174 -1.75998 -0.853474 0
M  V30 8176 O 771.38 -2.37804 -1.31003 0
M  V30 8177 C 769.836 -3.44303 1.04801 0
M  V30 8178 C 769.444 -3.69123 2.53875 0
M  V30 8179 C 771.188 -4.17375 0.774497 0
M  V30 8180 C 769.095 -5.14843 2.91016 0
M  V30 8181 H 768.025 -0.719319 0.226045 0
M  V30 8182 H 770.676 -1.41701 1.16589 0
M  V30 8183 H 769.058 -3.93715 0.42479 0
M  V30 8184 H 770.232 -3.30339 3.21267 0
M  V30 8185 H 768.547 -3.09323 2.78762 0
M  V30 8186 H 771.144 -5.24723 1.02808 0
M  V30 8187 H 771.487 -4.15294 -0.289192 0
M  V30 8188 H 772.02 -3.7389 1.35835 0
M  V30 8189 H 768.759 -5.2204 3.96427 0
M  V30 8190 H 768.279 -5.54652 2.28302 0
M  V30 8191 H 769.958 -5.83017 2.80535 0
M  V30 8192 N 770.09 -0.729906 -1.39679 0
M  V30 8193 C 771.338 -0.275077 -2.00219 0
M  V30 8194 C 771.659 1.1401 -1.58199 0
M  V30 8195 O 770.929 1.77546 -0.827904 0
M  V30 8196 H 769.509 -0.0987127 -0.740449 0
M  V30 8197 H 772.171 -0.93873 -1.70804 0
M  V30 8198 H 771.267 -0.319446 -3.10461 0
M  V30 8199 N 771.568 1.50203 -0.477153 0
M  V30 8200 C 772.816 2.01959 0.0755889 0
M  V30 8201 C 773.137 1.3608 1.39668 0
M  V30 8202 O 772.407 0.508136 1.89195 0
M  V30 8203 H 770.987 0.74636 0.0309248 0
M  V30 8204 H 773.649 1.84473 -0.628959 0
M  V30 8205 H 772.745 3.11305 0.222683 0
M  V30 8206 N 773.046 0.209999 1.56195 0
M  V30 8207 C 773.978 -0.736967 2.17029 0
M  V30 8208 C 774.991 -1.16599 1.13616 0
M  V30 8209 O 776.18 -1.09914 1.40646 0
M  V30 8210 C 773.28 -2.00852 2.72969 0
M  V30 8211 C 772.453 -1.73691 4.01435 0
M  V30 8212 C 771.512 -2.85439 4.42053 0
M  V30 8213 O 770.538 -2.54405 5.09183 0
M  V30 8214 N 771.74 -4.14135 4.06783 0
M  V30 8215 H 774.505 -0.216656 2.98916 0
M  V30 8216 H 772.066 0.0285672 1.61875 0
M  V30 8217 H 774.058 -2.74778 2.97118 0
M  V30 8218 H 772.628 -2.43963 1.95451 0
M  V30 8219 H 771.848 -0.834676 3.85262 0
M  V30 8220 H 773.136 -1.52961 4.85263 0
M  V30 8221 H 772.534 -4.42196 3.52816 0
M  V30 8222 H 771.091 -4.84642 4.35851 0
M  V30 8223 N 774.524 -1.57472 -0.0634922 0
M  V30 8224 C 775.472 -2.05307 -1.09323 0
M  V30 8225 C 776.466 -0.959995 -1.39572 0
M  V30 8226 O 777.672 -1.14507 -1.38882 0
M  V30 8227 H 774.047 -0.65472 -0.369927 0
M  V30 8228 H 776.018 -2.90925 -0.663707 0
M  V30 8229 C 774.767 -2.51954 -2.39613 0
M  V30 8230 H 774.09 -3.35662 -2.1719 0
M  V30 8231 H 775.53 -2.89169 -3.10092 0
M  V30 8232 C 773.989 -1.40596 -3.06161 0
M  V30 8233 O 774.519 -0.752722 -3.94585 0
M  V30 8234 N 772.725 -1.14902 -2.66919 0
M  V30 8235 H 772.272 -1.68205 -1.95102 0
M  V30 8236 H 772.23 -0.406006 -3.11767 0
M  V30 8237 N 776.003 0.335068 -1.53997 0
M  V30 8238 C 777.252 1.07182 -1.70865 0
M  V30 8239 C 777.565 1.89541 -0.483078 0
M  V30 8240 O 778.771 2.66219 -0.532879 0
M  V30 8241 C 777.227 1.95497 -3.02174 0
M  V30 8242 C 776.835 1.18304 -4.32097 0
M  V30 8243 C 778.579 2.68978 -3.28407 0
M  V30 8244 C 776.486 2.05699 -5.54474 0
M  V30 8245 H 775.416 0.403857 -0.636722 0
M  V30 8246 H 778.067 0.33076 -1.80494 0
M  V30 8247 H 776.449 2.73456 -2.86423 0
M  V30 8248 H 777.623 0.451969 -4.58578 0
M  V30 8249 H 775.938 0.565556 -4.12541 0
M  V30 8250 H 778.535 3.34651 -4.17029 0
M  V30 8251 H 778.878 3.36 -2.45784 0
M  V30 8252 H 779.411 1.98087 -3.44973 0
M  V30 8253 H 776.15 1.43204 -6.39666 0
M  V30 8254 H 775.67 2.76572 -5.32229 0
M  V30 8255 H 777.349 2.64554 -5.90441 0
M  V30 8256 N 777.481 1.45874 0.596531 0
M  V30 8257 C 778.706 1.54247 1.38646 0
M  V30 8258 C 779.131 0.179571 1.87241 0
M  V30 8259 O 778.489 -0.837831 1.6078 0
M  V30 8260 C 778.537 2.54015 2.55946 0
M  V30 8261 O 777.641 2.06561 3.5694 0
M  V30 8262 H 776.982 0.519555 0.413471 0
M  V30 8263 H 779.512 1.91327 0.724936 0
M  V30 8264 H 779.522 2.73179 3.03047 0
M  V30 8265 H 778.197 3.52994 2.19928 0
M  V30 8266 H 776.774 1.97324 3.16414 0
M  V30 8267 N 778.959 -0.83999 1.33349 0
M  V30 8268 C 779.892 -1.95415 1.17848 0
M  V30 8269 C 780.87 -1.6243 0.0742296 0
M  V30 8270 O 782.054 -1.87014 0.23626 0
M  V30 8271 C 779.181 -3.28938 0.807295 0
M  V30 8272 C 778.227 -3.80895 1.91888 0
M  V30 8273 S 779.06 -4.02709 3.52967 0
M  V30 8274 C 780.216 -5.39185 3.17853 0
M  V30 8275 H 780.449 -2.08265 2.12162 0
M  V30 8276 H 777.982 -0.993643 1.18178 0
M  V30 8277 H 779.94 -4.06093 0.599914 0
M  V30 8278 H 778.601 -3.13881 -0.117234 0
M  V30 8279 H 777.794 -4.77508 1.6125 0
M  V30 8280 H 777.396 -3.10633 2.08286 0
M  V30 8281 H 779.688 -6.21978 2.68608 0
M  V30 8282 H 780.631 -5.74795 4.13542 0
M  V30 8283 H 781.039 -5.03885 2.5448 0
M  V30 8284 N 780.437 -1.16799 -1.0581 0
M  V30 8285 C 781.685 -0.950642 -1.78346 0
M  V30 8286 C 782.006 0.522524 -1.87869 0
M  V30 8287 O 781.276 1.3795 -1.39092 0
M  V30 8288 H 779.856 -0.348736 -0.6606 0
M  V30 8289 H 782.518 -1.47158 -1.27791 0
M  V30 8290 H 781.614 -1.37359 -2.80248 0
M  V30 8291 N 781.915 1.24427 -0.967243 0
M  V30 8292 C 783.145 1.96256 -0.64554 0
M  V30 8293 C 783.553 1.71959 0.789098 0
M  V30 8294 O 782.896 0.999913 1.54102 0
M  V30 8295 C 782.958 3.49553 -0.839798 0
M  V30 8296 C 782.622 3.97548 -2.25399 0
M  V30 8297 C 783.619 4.07257 -3.23168 0
M  V30 8298 C 781.304 4.30884 -2.58156 0
M  V30 8299 C 783.298 4.49635 -4.51782 0
M  V30 8300 C 780.985 4.72946 -3.86996 0
M  V30 8301 C 781.983 4.82286 -4.83621 0
M  V30 8302 O 781.671 5.23409 -6.10162 0
M  V30 8303 H 781.403 0.632002 -0.239895 0
M  V30 8304 H 783.957 1.59224 -1.29757 0
M  V30 8305 H 782.187 3.86479 -0.130603 0
M  V30 8306 H 783.876 4.02591 -0.517249 0
M  V30 8307 H 784.642 3.8172 -2.9919 0
M  V30 8308 H 780.521 4.22833 -1.83666 0
M  V30 8309 H 784.065 4.5684 -5.27203 0
M  V30 8310 H 779.962 4.9793 -4.10775 0
M  V30 8311 H 780.73 5.4156 -6.13722 0
M  V30 8312 N 783.393 0.737304 1.3929 0
M  V30 8313 C 784.64 0.286257 2.00467 0
M  V30 8314 C 784.968 -1.1272 1.58507 0
M  V30 8315 O 784.223 -1.7832 0.806257 0
M  V30 8316 C 784.522 0.338438 3.55794 0
M  V30 8317 C 784.188 1.70524 4.17411 0
M  V30 8318 C 782.85 2.07934 4.33955 0
M  V30 8319 C 785.202 2.60256 4.51571 0
M  V30 8320 C 782.53 3.34578 4.81948 0
M  V30 8321 C 784.882 3.86275 5.00974 0
M  V30 8322 C 783.546 4.23774 5.15725 0
M  V30 8323 H 782.816 0.104749 0.733559 0
M  V30 8324 H 785.463 0.944598 1.66582 0
M  V30 8325 H 783.768 -0.403478 3.89717 0
M  V30 8326 H 785.465 -0.0287255 4.0099 0
M  V30 8327 H 782.055 1.40439 4.04938 0
M  V30 8328 H 786.239 2.32624 4.38406 0
M  V30 8329 H 781.495 3.63572 4.91554 0
M  V30 8330 H 785.669 4.5596 5.26378 0
M  V30 8331 H 783.296 5.21972 5.52674 0
M  V30 8332 N 784.871 -1.49948 0.485112 0
M  V30 8333 C 785.818 -2.28819 -0.301729 0
M  V30 8334 C 786.788 -1.34496 -0.974683 0
M  V30 8335 O 787.973 -1.63444 -0.984418 0
M  V30 8336 C 785.113 -3.16758 -1.36961 0
M  V30 8337 C 784.226 -4.26125 -0.710027 0
M  V30 8338 C 783.361 -5.01302 -1.75699 0
M  V30 8339 C 782.4 -6.02525 -1.07841 0
M  V30 8340 N 781.537 -6.70927 -2.06886 0
M  V30 8341 H 786.377 -2.95604 0.377127 0
M  V30 8342 H 783.914 -1.45764 0.197826 0
M  V30 8343 H 785.872 -3.66106 -2.00056 0
M  V30 8344 H 784.502 -2.51991 -2.01744 0
M  V30 8345 H 783.554 -3.80385 0.0338278 0
M  V30 8346 H 784.866 -4.98493 -0.175079 0
M  V30 8347 H 784.02 -5.54438 -2.46339 0
M  V30 8348 H 782.759 -4.28672 -2.32577 0
M  V30 8349 H 781.764 -5.48635 -0.357706 0
M  V30 8350 H 782.989 -6.77134 -0.516345 0
M  V30 8351 H 780.935 -6.01079 -2.62755 0
M  V30 8352 H 780.852 -7.39216 -1.58414 0
M  V30 8353 H 782.12 -7.28675 -2.76863 0
M  V30 8354 N 786.349 -0.21828 -1.56081 0
M  V30 8355 C 787.297 0.709679 -2.21509 0
M  V30 8356 C 788.291 1.20221 -1.19346 0
M  V30 8357 O 789.497 1.16241 -1.37433 0
M  V30 8358 H 785.872 0.247271 -0.710184 0
M  V30 8359 H 787.843 0.134386 -2.98097 0
M  V30 8360 C 786.592 1.90853 -2.90638 0
M  V30 8361 H 785.915 1.53865 -3.69006 0
M  V30 8362 H 787.355 2.53568 -3.39822 0
M  V30 8363 C 785.814 2.76189 -1.92929 0
M  V30 8364 O 786.344 3.74842 -1.44416 0
M  V30 8365 N 784.55 2.42157 -1.6065 0
M  V30 8366 H 784.097 1.61987 -2.00294 0
M  V30 8367 H 784.055 2.99534 -0.955347 0
M  V30 8368 N 787.827 1.57504 0.0551401 0
M  V30 8369 C 788.737 2.08198 1.08124 0
M  V30 8370 C 789.753 1.01496 1.41331 0
M  V30 8371 O 790.929 1.33073 1.51174 0
M  V30 8372 C 787.994 2.52968 2.37083 0
M  V30 8373 C 787.055 3.7404 2.10696 0
M  V30 8374 C 786.288 4.16665 3.33505 0
M  V30 8375 O 786.511 3.59019 4.4324 0
M  V30 8376 O 785.445 5.09324 3.20737 0
M  V30 8377 H 789.271 2.95977 0.680518 0
M  V30 8378 H 786.856 1.46933 0.270401 0
M  V30 8379 H 788.738 2.82211 3.12946 0
M  V30 8380 H 787.413 1.6831 2.76502 0
M  V30 8381 H 786.32 3.49855 1.32484 0
M  V30 8382 H 787.653 4.59601 1.76148 0
M  V30 8383 N 789.305 -0.326896 1.54172 0
M  V30 8384 C 790.215 -1.42525 1.86343 0
M  V30 8385 C 791.231 -1.56764 0.75505 0
M  V30 8386 O 792.407 -1.71924 1.04901 0
M  V30 8387 C 789.472 -2.77286 2.08119 0
M  V30 8388 C 788.533 -2.7225 3.31931 0
M  V30 8389 C 787.766 -4.00584 3.52659 0
M  V30 8390 O 787.989 -4.98686 2.76891 0
M  V30 8391 O 786.923 -4.04045 4.46129 0
M  V30 8392 H 790.749 -1.18249 2.79734 0
M  V30 8393 H 788.334 -0.520614 1.40036 0
M  V30 8394 H 790.216 -3.57065 2.23791 0
M  V30 8395 H 788.891 -3.01459 1.17917 0
M  V30 8396 H 787.798 -1.91033 3.21647 0
M  V30 8397 H 789.131 -2.53032 4.2218 0
M  V30 8398 N 790.784 -1.46188 -0.588786 0
M  V30 8399 C 791.731 -1.56292 -1.69828 0
M  V30 8400 C 792.701 -0.407581 -1.61022 0
M  V30 8401 O 793.886 -0.623532 -1.80324 0
M  V30 8402 C 791.026 -1.55341 -3.08161 0
M  V30 8403 C 790.139 -2.81564 -3.27636 0
M  V30 8404 C 789.274 -2.72158 -4.56183 0
M  V30 8405 C 788.313 -3.93348 -4.68981 0
M  V30 8406 N 787.45 -3.82365 -5.88848 0
M  V30 8407 H 792.29 -2.51066 -1.6053 0
M  V30 8408 H 789.827 -1.24562 -0.782474 0
M  V30 8409 H 791.785 -1.52776 -3.88221 0
M  V30 8410 H 790.415 -0.641034 -3.16371 0
M  V30 8411 H 789.467 -2.94136 -2.41223 0
M  V30 8412 H 790.779 -3.714 -3.32962 0
M  V30 8413 H 789.933 -2.67665 -5.44464 0
M  V30 8414 H 788.672 -1.79953 -4.53286 0
M  V30 8415 H 787.677 -3.98181 -3.7912 0
M  V30 8416 H 788.902 -4.86643 -4.73662 0
M  V30 8417 H 786.848 -2.92942 -5.86959 0
M  V30 8418 H 786.765 -4.65851 -5.95415 0
M  V30 8419 H 788.033 -3.81836 -6.79575 0
M  V30 8420 N 792.262 0.832906 -1.33792 0
M  V30 8421 C 793.49 1.62048 -1.28639 0
M  V30 8422 C 793.905 1.88269 0.141522 0
M  V30 8423 O 793.262 1.46706 1.08553 0
M  V30 8424 C 793.313 2.96722 -2.0649 0
M  V30 8425 O 793.034 2.7165 -3.43712 0
M  V30 8426 C 794.535 3.91144 -2.08617 0
M  V30 8427 H 791.755 0.504032 -0.442937 0
M  V30 8428 H 794.299 1.03704 -1.76255 0
M  V30 8429 H 792.454 3.51652 -1.62541 0
M  V30 8430 H 792.868 3.57453 -3.83833 0
M  V30 8431 H 794.342 4.82837 -2.67531 0
M  V30 8432 H 794.819 4.25766 -1.07796 0
M  V30 8433 H 795.425 3.42152 -2.52611 0
M  V30 8434 N 793.74 1.17359 1.05189 0
M  V30 8435 C 794.703 0.892604 2.11105 0
M  V30 8436 C 795.703 -0.117236 1.60372 0
M  V30 8437 O 796.893 0.114936 1.7382 0
M  V30 8438 C 794.025 0.337032 3.3923 0
M  V30 8439 H 795.218 1.83169 2.37464 0
M  V30 8440 H 792.771 0.984051 1.21434 0
M  V30 8441 H 793.506 -0.609198 3.18527 0
M  V30 8442 H 793.291 1.06484 3.77364 0
M  V30 8443 H 794.781 0.158763 4.17298 0
M  V30 8444 N 795.218 -1.23913 0.973828 0
M  V30 8445 C 796.128 -2.28838 0.516735 0
M  V30 8446 C 797.144 -1.68723 -0.425282 0
M  V30 8447 O 798.32 -1.99201 -0.296819 0
M  V30 8448 C 795.385 -3.46233 -0.179914 0
M  V30 8449 C 794.446 -4.21729 0.80269 0
M  V30 8450 C 793.679 -5.33518 0.139191 0
M  V30 8451 O 793.902 -5.60252 -1.07118 0
M  V30 8452 O 792.836 -5.96088 0.834447 0
M  V30 8453 H 796.662 -2.70067 1.38916 0
M  V30 8454 H 794.247 -1.2972 0.74115 0
M  V30 8455 H 796.129 -4.17514 -0.570991 0
M  V30 8456 H 794.804 -3.06969 -1.02721 0
M  V30 8457 H 793.711 -3.52799 1.24434 0
M  V30 8458 H 795.044 -4.64825 1.61859 0
M  V30 8459 N 796.696 -0.74468 -1.38897 0
M  V30 8460 C 797.973 -0.222773 -1.94327 0
M  V30 8461 C 798.353 1.27731 -1.68071 0
M  V30 8462 O 797.701 2.04754 -1.01429 0
M  V30 8463 C 797.911 -0.566836 -3.44366 0
M  V30 8464 C 799.259 -0.521531 -4.21385 0
M  V30 8465 O 800.283 -0.504599 -3.52608 0
M  V30 8466 O 799.142 -0.524595 -5.43976 0
M  V30 8467 H 796.236 -0.0439259 -0.825833 0
M  V30 8468 H 798.782 -0.824197 -1.48341 0
M  V30 8469 H 797.554 -1.60321 -3.56949 0
M  V30 8470 H 797.177 0.0630577 -3.9755 0
M  V30 8471 N 798.174 1.49689 -0.493057 0
M  V30 8472 C 799.404 2.06536 0.0512397 0
M  V30 8473 C 799.812 1.35459 1.32089 0
M  V30 8474 O 799.155 0.424145 1.78736 0
M  V30 8475 C 799.217 3.57452 0.383231 0
M  V30 8476 C 798.881 4.50163 -0.787555 0
M  V30 8477 C 799.878 4.92151 -1.67582 0
M  V30 8478 C 797.563 4.92565 -0.984109 0
M  V30 8479 C 799.557 5.7527 -2.74487 0
M  V30 8480 C 797.244 5.75463 -2.05634 0
M  V30 8481 C 798.242 6.16719 -2.93507 0
M  V30 8482 O 797.93 6.97961 -3.98881 0
M  V30 8483 H 797.662 0.675862 -0.0136516 0
M  V30 8484 H 800.216 1.9356 -0.687298 0
M  V30 8485 H 798.446 3.68408 1.17526 0
M  V30 8486 H 800.135 3.96572 0.8652 0
M  V30 8487 H 800.901 4.60043 -1.53575 0
M  V30 8488 H 796.78 4.5996 -0.309541 0
M  V30 8489 H 800.324 6.07392 -3.43104 0
M  V30 8490 H 796.221 6.06983 -2.19639 0
M  V30 8491 H 796.989 7.16253 -3.96137 0
M  V30 8492 N 799.652 0.226554 1.55963 0
M  V30 8493 C 800.877 -0.411527 2.03276 0
M  V30 8494 C 801.302 -1.52206 1.10521 0
M  V30 8495 O 800.66 -1.81054 0.0943217 0
M  V30 8496 C 800.708 -0.915694 3.4878 0
M  V30 8497 O 799.812 -2.02672 3.59163 0
M  V30 8498 H 799.153 -0.0924907 0.657527 0
M  V30 8499 H 801.683 0.346656 2.01642 0
M  V30 8500 H 801.693 -1.22421 3.892 0
M  V30 8501 H 800.368 -0.102915 4.15773 0
M  V30 8502 H 798.945 -1.72445 3.30632 0
M  V30 8503 N 801.13 -1.57531 -0.0467866 0
M  V30 8504 C 802.376 -1.8873 -0.742218 0
M  V30 8505 C 802.709 -0.822084 -1.75941 0
M  V30 8506 O 801.984 0.164922 -1.938 0
M  V30 8507 C 802.267 -3.30586 -1.42776 0
M  V30 8508 C 802.12 -4.47785 -0.425285 0
M  V30 8509 C 803.439 -3.71068 -2.36636 0
M  V30 8510 H 800.558 -0.686406 -0.268359 0
M  V30 8511 H 803.2 -1.89999 -0.00511341 0
M  V30 8512 H 801.35 -3.29634 -2.05605 0
M  V30 8513 H 803.022 -4.60867 0.199721 0
M  V30 8514 H 801.265 -4.33037 0.25713 0
M  V30 8515 H 801.936 -5.43884 -0.943086 0
M  V30 8516 H 804.412 -3.73273 -1.83866 0
M  V30 8517 H 803.288 -4.71165 -2.81593 0
M  V30 8518 H 803.549 -3.02355 -3.22542 0
M  V30 8519 N 802.608 0.318715 -1.54344 0
M  V30 8520 C 803.885 1.07461 -1.63437 0
M  V30 8521 C 804.265 2.05771 -0.47131 0
M  V30 8522 O 803.613 2.22175 0.53391 0
M  V30 8523 C 803.823 1.77224 -3.00654 0
M  V30 8524 C 805.171 2.30069 -3.56866 0
M  V30 8525 O 806.195 1.87284 -3.0299 0
M  V30 8526 O 805.054 3.08412 -4.51159 0
M  V30 8527 H 802.148 0.495627 -0.66203 0
M  V30 8528 H 804.694 0.318218 -1.6669 0
M  V30 8529 H 803.466 1.05742 -3.76742 0
M  V30 8530 H 803.089 2.59662 -3.01101 0
M  V30 8531 N 804.086 1.46499 0.581025 0
M  V30 8532 C 804.996 1.59778 1.71779 0
M  V30 8533 C 806.012 0.481223 1.67213 0
M  V30 8534 O 807.188 0.74557 1.87091 0
M  V30 8535 C 804.253 1.58626 3.08283 0
M  V30 8536 C 803.314 2.81527 3.241 0
M  V30 8537 C 802.547 2.80421 4.54092 0
M  V30 8538 O 802.77 1.89262 5.38085 0
M  V30 8539 O 801.704 3.71984 4.73193 0
M  V30 8540 H 805.53 2.55918 1.63523 0
M  V30 8541 H 803.115 1.29311 0.748267 0
M  V30 8542 H 804.997 1.60686 3.89561 0
M  V30 8543 H 803.672 0.656467 3.16973 0
M  V30 8544 H 802.579 2.85021 2.42309 0
M  V30 8545 H 803.912 3.73721 3.20302 0
M  V30 8546 N 805.565 -0.825799 1.34232 0
M  V30 8547 C 806.513 -1.95792 1.25572 0
M  V30 8548 C 807.507 -1.68695 0.154404 0
M  V30 8549 O 808.713 -1.77147 0.319196 0
M  V30 8550 H 805.088 -0.642949 0.390027 0
M  V30 8551 H 807.059 -2.00219 2.21258 0
M  V30 8552 C 805.808 -3.32245 1.02511 0
M  V30 8553 H 805.131 -3.53642 1.86487 0
M  V30 8554 H 806.571 -4.1192 1.00487 0
M  V30 8555 C 805.03 -3.35803 -0.27167 0
M  V30 8556 O 805.56 -3.80962 -1.274 0
M  V30 8557 N 803.766 -2.89008 -0.303778 0
M  V30 8558 H 803.313 -2.52451 0.512464 0
M  V30 8559 H 803.271 -2.9177 -1.17121 0
M  V30 8560 N 807.043 -1.17915 -1.04565 0
M  V30 8561 C 808.291 -0.969505 -1.77327 0
M  V30 8562 C 808.612 0.502569 -1.88412 0
M  V30 8563 O 807.882 1.36467 -1.40547 0
M  V30 8564 H 806.462 -0.355723 -0.656864 0
M  V30 8565 H 809.124 -1.48506 -1.26223 0
M  V30 8566 H 808.22 -1.40324 -2.78775 0
M  V30 8567 N 808.521 1.23394 -0.980386 0
M  V30 8568 C 809.453 2.24146 -0.478657 0
M  V30 8569 C 810.466 1.57303 0.419492 0
M  V30 8570 O 811.655 1.77094 0.223631 0
M  V30 8571 C 808.755 3.3732 0.326913 0
M  V30 8572 C 807.928 4.33744 -0.56436 0
M  V30 8573 C 806.987 5.25866 0.187358 0
M  V30 8574 O 806.013 5.67626 -0.423019 0
M  V30 8575 N 807.215 5.61492 1.47335 0
M  V30 8576 H 809.98 2.67826 -1.34496 0
M  V30 8577 H 807.541 1.37566 -0.853653 0
M  V30 8578 H 809.533 3.95926 0.838148 0
M  V30 8579 H 808.103 2.92823 1.09422 0
M  V30 8580 H 807.323 3.73641 -1.25642 0
M  V30 8581 H 808.611 4.95123 -1.17177 0
M  V30 8582 H 808.009 5.29514 1.99077 0
M  V30 8583 H 806.566 6.2257 1.93002 0
M  V30 8584 N 809.999 0.752036 1.385 0
M  V30 8585 C 811.415 0.42946 1.53713 0
M  V30 8586 C 811.615 -1.0576 1.71514 0
M  V30 8587 O 810.671 -1.84366 1.72527 0
M  V30 8588 C 811.984 1.22735 2.74511 0
M  V30 8589 C 813.532 1.21727 2.8836 0
M  V30 8590 C 814.007 1.99809 4.12117 0
M  V30 8591 N 815.498 1.97062 4.19191 0
M  V30 8592 C 816.233 2.54274 5.13938 0
M  V30 8593 N 815.729 3.20193 6.14368 0
M  V30 8594 N 817.522 2.44212 5.06277 0
M  V30 8595 H 809.673 1.71581 1.25195 0
M  V30 8596 H 811.936 0.727293 0.60807 0
M  V30 8597 H 811.642 2.28032 2.67758 0
M  V30 8598 H 811.516 0.843186 3.67655 0
M  V30 8599 H 813.903 0.172367 2.94596 0
M  V30 8600 H 813.984 1.64094 1.96232 0
M  V30 8601 H 813.628 3.0431 4.06642 0
M  V30 8602 H 813.558 1.54837 5.03322 0
M  V30 8603 H 816.049 1.49054 3.47263 0
M  V30 8604 H 816.362 3.61272 6.83156 0
M  V30 8605 H 814.707 3.24287 6.14705 0
M  V30 8606 H 817.898 1.92343 4.26757 0
M  V30 8607 H 818.071 2.89096 5.79937 0
M  V30 8608 N 811.477 -1.49425 0.500989 0
M  V30 8609 C 812.723 -2.03369 -0.0355945 0
M  V30 8610 C 813.078 -1.37387 -1.34694 0
M  V30 8611 O 812.371 -0.500516 -1.84947 0
M  V30 8612 C 812.565 -3.56562 -0.24463 0
M  V30 8613 C 812.394 -4.37392 1.04491 0
M  V30 8614 C 811.164 -4.7941 1.59669 0
M  V30 8615 C 813.362 -4.75974 1.94817 0
M  V30 8616 N 811.344 -5.44668 2.83214 0
M  V30 8617 C 812.715 -5.4095 3.0294 0
M  V30 8618 C 814.77 -4.57915 1.95495 0
M  V30 8619 C 813.473 -5.89779 4.11768 0
M  V30 8620 C 815.499 -5.07705 3.03298 0
M  V30 8621 C 814.861 -5.72682 4.1014 0
M  V30 8622 H 810.96 -0.781507 0.0277547 0
M  V30 8623 H 813.544 -1.82594 0.675844 0
M  V30 8624 H 811.715 -3.77221 -0.925126 0
M  V30 8625 H 813.447 -3.97147 -0.778219 0
M  V30 8626 H 810.202 -4.59629 1.14185 0
M  V30 8627 H 810.626 -5.81884 3.46035 0
M  V30 8628 H 815.268 -4.07085 1.14199 0
M  V30 8629 H 812.986 -6.3963 4.93862 0
M  V30 8630 H 816.572 -4.95542 3.04843 0
M  V30 8631 H 815.452 -6.10512 4.92184 0
M  V30 8632 N 812.955 -0.234822 -1.55841 0
M  V30 8633 C 814.202 0.39326 -1.98645 0
M  V30 8634 C 814.53 1.58823 -1.12274 0
M  V30 8635 O 813.785 1.94954 -0.170731 0
M  V30 8636 C 814.084 0.858032 -3.46947 0
M  V30 8637 C 813.75 -0.227858 -4.50324 0
M  V30 8638 C 812.412 -0.526128 -4.78315 0
M  V30 8639 C 814.764 -0.961576 -5.12253 0
M  V30 8640 C 812.092 -1.5624 -5.65514 0
M  V30 8641 C 814.444 -1.98728 -6.00575 0
M  V30 8642 C 813.108 -2.29233 -6.26904 0
M  V30 8643 H 812.378 0.143904 -0.726892 0
M  V30 8644 H 815.025 -0.34012 -1.88455 0
M  V30 8645 H 813.33 1.67041 -3.54408 0
M  V30 8646 H 815.027 1.35407 -3.77447 0
M  V30 8647 H 811.617 0.0147624 -4.28597 0
M  V30 8648 H 815.801 -0.744388 -4.90686 0
M  V30 8649 H 811.057 -1.80422 -5.84173 0
M  V30 8650 H 815.231 -2.5608 -6.47608 0
M  V30 8651 H 812.858 -3.09671 -6.94268 0
M  V30 8652 N 814.433 1.57553 0.0384317 0
M  V30 8653 C 815.673 1.90687 0.736069 0
M  V30 8654 C 816.037 0.832381 1.73019 0
M  V30 8655 O 817.238 1.04777 2.47538 0
M  V30 8656 C 815.509 3.28994 1.39635 0
M  V30 8657 S 817.068 3.83944 2.12444 0
M  V30 8658 H 813.886 0.667799 0.244059 0
M  V30 8659 H 816.488 1.95498 -0.00901643 0
M  V30 8660 H 815.192 4.05067 0.659465 0
M  V30 8661 H 814.723 3.27463 2.18018 0
M  V30 8662 H 816.738 3.61916 3.39457 0
M  V30 8663 N 815.911 -0.310526 1.54511 0
M  V30 8664 C 817.139 -1.06611 1.77318 0
M  V30 8665 C 817.554 -1.81265 0.528043 0
M  V30 8666 O 816.911 -1.75466 -0.50178 0
M  V30 8667 C 816.962 -2.05409 2.97472 0
M  V30 8668 O 816.683 -1.33785 4.17173 0
M  V30 8669 C 818.184 -2.93082 3.32593 0
M  V30 8670 H 815.404 -0.316578 0.591624 0
M  V30 8671 H 817.948 -0.352691 2.01436 0
M  V30 8672 H 816.103 -2.72266 2.7559 0
M  V30 8673 H 816.517 -2.00055 4.84849 0
M  V30 8674 H 817.991 -3.58274 4.19933 0
M  V30 8675 H 818.468 -3.60877 2.50329 0
M  V30 8676 H 819.074 -2.31768 3.566 0
M  V30 8677 N 817.389 -1.46805 -0.573248 0
M  V30 8678 C 818.637 -1.52302 -1.32847 0
M  V30 8679 C 818.958 -0.180159 -1.94166 0
M  V30 8680 O 818.228 0.794291 -1.79075 0
M  V30 8681 H 816.808 -0.56097 -0.493276 0
M  V30 8682 H 819.47 -1.82998 -0.670642 0
M  V30 8683 H 818.566 -2.28089 -2.13031 0
M  V30 8684 N 818.867 0.818669 -1.34668 0
M  V30 8685 C 820.144 1.56118 -1.17841 0
M  V30 8686 C 820.524 2.09646 0.24731 0
M  V30 8687 O 819.872 1.91329 1.24922 0
M  V30 8688 C 820.082 2.67922 -2.23649 0
M  V30 8689 C 821.43 3.36579 -2.58843 0
M  V30 8690 O 822.454 2.78182 -2.22471 0
M  V30 8691 O 821.313 4.42045 -3.21339 0
M  V30 8692 H 818.407 0.689216 -0.457067 0
M  V30 8693 H 820.953 0.859674 -1.46314 0
M  V30 8694 H 819.725 2.26153 -3.19328 0
M  V30 8695 H 819.348 3.45719 -1.96377 0
M  V30 8696 N 820.346 1.18468 1.03938 0
M  V30 8697 C 821.595 0.975193 1.76558 0
M  V30 8698 C 821.908 -0.495978 1.89207 0
M  V30 8699 O 823.114 -0.824009 2.58694 0
M  V30 8700 C 821.57 1.69579 3.17444 0
M  V30 8701 C 821.178 3.20636 3.12884 0
M  V30 8702 C 822.922 1.56917 3.94433 0
M  V30 8703 C 820.829 3.8533 4.48636 0
M  V30 8704 H 819.759 0.361244 0.66183 0
M  V30 8705 H 822.41 1.41854 1.16403 0
M  V30 8706 H 820.792 1.18022 3.78004 0
M  V30 8707 H 821.966 3.79228 2.61768 0
M  V30 8708 H 820.281 3.33454 2.49394 0
M  V30 8709 H 822.878 2.02611 4.94826 0
M  V30 8710 H 823.221 0.521638 4.13019 0
M  V30 8711 H 823.754 2.05762 3.40451 0
M  V30 8712 H 820.493 4.90136 4.35255 0
M  V30 8713 H 820.013 3.31526 4.99851 0
M  V30 8714 H 821.692 3.88269 5.17549 0
M  V30 8715 N 821.824 -1.22873 0.986916 0
M  V30 8716 C 823.072 -1.91084 0.658121 0
M  V30 8717 C 823.393 -1.77304 -0.811675 0
M  V30 8718 O 822.663 -1.15649 -1.58121 0
M  V30 8719 H 821.243 -0.707251 0.240427 0
M  V30 8720 H 823.905 -1.49357 1.25213 0
M  V30 8721 H 823.001 -2.98373 0.915428 0
M  V30 8722 N 823.302 -0.75937 -1.38099 0
M  V30 8723 C 824.212 -0.13774 -2.34195 0
M  V30 8724 C 825.228 0.693985 -1.59561 0
M  V30 8725 O 826.404 0.616792 -1.91723 0
M  V30 8726 C 823.469 0.740535 -3.38699 0
M  V30 8727 C 822.53 -0.106225 -4.29169 0
M  V30 8728 C 821.763 0.730225 -5.28681 0
M  V30 8729 O 821.986 1.96796 -5.35376 0
M  V30 8730 O 820.92 0.145969 -6.01723 0
M  V30 8731 H 824.746 -0.931512 -2.89061 0
M  V30 8732 H 822.331 -0.520345 -1.40046 0
M  V30 8733 H 824.213 1.24232 -4.02672 0
M  V30 8734 H 822.888 1.51271 -2.8618 0
M  V30 8735 H 821.795 -0.654088 -3.68337 0
M  V30 8736 H 823.128 -0.841186 -4.84959 0
M  V30 8737 N 824.78 1.49157 -0.508906 0
M  V30 8738 C 826.027 2.02473 0.0327983 0
M  V30 8739 C 826.355 1.38792 1.36261 0
M  V30 8740 O 825.61 0.515576 1.88786 0
M  V30 8741 C 825.909 3.56687 0.225717 0
M  V30 8742 C 825.575 4.39046 -1.02708 0
M  V30 8743 C 824.237 4.61271 -1.37048 0
M  V30 8744 C 826.589 4.86902 -1.85946 0
M  V30 8745 C 823.917 5.28598 -2.54562 0
M  V30 8746 C 826.269 5.55521 -3.0262 0
M  V30 8747 C 824.933 5.7599 -3.3733 0
M  V30 8748 H 824.203 0.740903 0.0120017 0
M  V30 8749 H 826.85 1.79372 -0.670665 0
M  V30 8750 H 825.155 3.78511 1.01177 0
M  V30 8751 H 826.852 3.95541 0.659433 0
M  V30 8752 H 823.442 4.21994 -0.749615 0
M  V30 8753 H 827.626 4.69553 -1.6073 0
M  V30 8754 H 822.882 5.42646 -2.81682 0
M  V30 8755 H 827.056 5.91576 -3.67438 0
M  V30 8756 H 824.683 6.27934 -4.2849 0
M  V30 8757 N 826.258 0.243083 1.55714 0
M  V30 8758 C 827.208 -0.671915 2.17875 0
M  V30 8759 C 828.192 -1.14199 1.13347 0
M  V30 8760 O 829.384 -1.09239 1.39269 0
M  V30 8761 C 826.513 -1.87027 2.87881 0
M  V30 8762 C 825.599 -1.41888 3.99661 0
M  V30 8763 N 825.99 -0.681465 5.01188 0
M  V30 8764 C 824.288 -1.70447 4.12145 0
M  V30 8765 C 824.989 -0.448285 5.7997 0
M  V30 8766 N 823.965 -1.01137 5.34109 0
M  V30 8767 H 827.767 -0.100321 2.93729 0
M  V30 8768 H 825.281 0.0452371 1.62337 0
M  V30 8769 H 827.278 -2.53674 3.3084 0
M  V30 8770 H 825.938 -2.44613 2.13529 0
M  V30 8771 H 826.949 -0.331959 5.16835 0
M  V30 8772 H 823.626 -2.29198 3.48962 0
M  V30 8773 H 825.016 0.140141 6.71754 0
M  V30 8774 N 827.736 -1.57571 -0.0300757 0
M  V30 8775 C 829.147 -1.77567 -0.576802 0
M  V30 8776 C 829.498 -0.874034 -1.75656 0
M  V30 8777 O 828.623 -0.0686124 -2.16291 0
M  V30 8778 C 829.218 -3.22016 -1.05315 0
M  V30 8779 C 827.777 -3.43212 -1.5454 0
M  V30 8780 C 826.924 -2.73061 -0.483033 0
M  V30 8781 H 829.875 -1.57483 0.196151 0
M  V30 8782 H 829.896 -3.28474 -1.92055 0
M  V30 8783 H 829.408 -3.87613 -0.194298 0
M  V30 8784 H 827.509 -2.82788 -2.42615 0
M  V30 8785 H 827.622 -4.5182 -1.5936 0
M  V30 8786 H 825.986 -2.36805 -0.937835 0
M  V30 8787 H 826.769 -3.4134 0.366341 0
M  V30 8788 N 829.214 0.302327 -1.54673 0
M  V30 8789 C 830.491 1.05721 -1.64567 0
M  V30 8790 C 830.871 2.0526 -0.493108 0
M  V30 8791 O 830.219 2.22729 0.510315 0
M  V30 8792 C 830.429 1.74025 -3.02517 0
M  V30 8793 C 831.777 2.26271 -3.59286 0
M  V30 8794 O 832.801 1.8406 -3.0496 0
M  V30 8795 O 831.66 3.0361 -4.54404 0
M  V30 8796 H 828.754 0.488577 -0.667249 0
M  V30 8797 H 831.3 0.300521 -1.67018 0
M  V30 8798 H 830.072 1.0174 -3.77842 0
M  V30 8799 H 829.695 2.56454 -3.03838 0
M  V30 8800 N 830.692 1.47107 0.565454 0
M  V30 8801 C 831.94 1.53005 1.32038 0
M  V30 8802 C 832.261 0.190453 1.94068 0
M  V30 8803 O 831.531 -0.784783 1.79494 0
M  V30 8804 H 830.111 0.563578 0.490294 0
M  V30 8805 H 832.773 1.83351 0.660928 0
M  V30 8806 H 831.869 2.29215 2.11818 0
M  V30 8807 N 832.17 -0.811516 1.35101 0
M  V30 8808 C 833.41 -1.58177 1.29458 0
M  V30 8809 C 833.774 -1.91555 -0.130688 0
M  V30 8810 O 834.975 -2.6699 -0.311428 0
M  V30 8811 C 833.246 -2.83896 2.17112 0
M  V30 8812 S 834.805 -3.74344 2.28936 0
M  V30 8813 H 831.623 -0.542021 0.460146 0
M  V30 8814 H 834.225 -0.957653 1.70438 0
M  V30 8815 H 832.929 -2.57391 3.19653 0
M  V30 8816 H 832.46 -3.51297 1.7707 0
M  V30 8817 H 834.475 -4.73909 1.47054 0
M  V30 8818 N 833.648 -1.19017 -1.03309 0
M  V30 8819 C 834.578 -0.94772 -2.13402 0
M  V30 8820 C 835.559 0.117383 -1.69694 0
M  V30 8821 O 836.744 -0.0367733 -1.94165 0
M  V30 8822 C 833.874 -0.480977 -3.43953 0
M  V30 8823 C 832.828 -1.48743 -4.01322 0
M  V30 8824 C 832.154 -0.877924 -5.27443 0
M  V30 8825 C 833.454 -2.86642 -4.36616 0
M  V30 8826 H 835.148 -1.86846 -2.33942 0
M  V30 8827 H 832.694 -0.899781 -1.12427 0
M  V30 8828 H 834.647 -0.298677 -4.2034 0
M  V30 8829 H 833.371 0.475348 -3.23122 0
M  V30 8830 H 832.03 -1.65681 -3.27025 0
M  V30 8831 H 831.678 0.0858232 -5.02927 0
M  V30 8832 H 831.378 -1.54996 -5.66789 0
M  V30 8833 H 832.902 -0.706326 -6.06501 0
M  V30 8834 H 834.316 -2.73312 -5.03958 0
M  V30 8835 H 832.713 -3.50599 -4.87032 0
M  V30 8836 H 833.783 -3.39617 -3.46105 0
M  V30 8837 N 835.127 1.22348 -0.993418 0
M  V30 8838 C 836.059 2.23626 -0.502404 0
M  V30 8839 C 837.072 1.57739 0.402784 0
M  V30 8840 O 838.261 1.77321 0.204835 0
M  V30 8841 C 835.361 3.37647 0.291118 0
M  V30 8842 C 834.534 4.33121 -0.610332 0
M  V30 8843 C 833.593 5.26035 0.131572 0
M  V30 8844 O 832.619 5.67145 -0.483199 0
M  V30 8845 N 833.821 5.63023 1.41371 0
M  V30 8846 H 836.586 2.66385 -1.37329 0
M  V30 8847 H 834.147 1.36653 -0.868196 0
M  V30 8848 H 836.139 3.96792 0.796107 0
M  V30 8849 H 834.709 2.93967 1.0631 0
M  V30 8850 H 833.929 3.72287 -1.29598 0
M  V30 8851 H 835.217 4.93853 -1.22422 0
M  V30 8852 H 834.615 5.31596 1.93449 0
M  V30 8853 H 833.172 6.24582 1.86388 0
M  V30 8854 N 836.605 0.766683 1.37694 0
M  V30 8855 C 837.854 0.325425 1.99057 0
M  V30 8856 C 838.167 -1.10275 1.61551 0
M  V30 8857 O 839.373 -1.64513 2.1598 0
M  V30 8858 C 837.829 0.530886 3.55963 0
M  V30 8859 C 837.437 1.96899 4.02411 0
M  V30 8860 C 839.181 0.152997 4.24224 0
M  V30 8861 C 837.088 2.12232 5.52007 0
M  V30 8862 H 836.018 0.117929 0.744721 0
M  V30 8863 H 838.669 0.945091 1.5729 0
M  V30 8864 H 837.051 -0.158162 3.95684 0
M  V30 8865 H 838.225 2.69258 3.73948 0
M  V30 8866 H 836.54 2.303 3.46916 0
M  V30 8867 H 839.137 0.24614 5.34133 0
M  V30 8868 H 839.48 -0.896096 4.06541 0
M  V30 8869 H 840.013 0.794398 3.89787 0
M  V30 8870 H 836.752 3.15442 5.7461 0
M  V30 8871 H 836.272 1.4435 5.82171 0
M  V30 8872 H 837.951 1.9185 6.17902 0
M  V30 8873 N 838.083 -1.48885 0.516809 0
M  V30 8874 C 839.332 -2.01686 -0.0239899 0
M  V30 8875 C 839.645 -1.40029 -1.3657 0
M  V30 8876 O 840.851 -1.84249 -1.9941 0
M  V30 8877 C 839.307 -3.59779 -0.0931825 0
M  V30 8878 C 838.915 -4.30416 1.24283 0
M  V30 8879 C 840.659 -4.20471 -0.583507 0
M  V30 8880 C 838.566 -5.80408 1.13494 0
M  V30 8881 H 837.496 -0.753892 -0.0127376 0
M  V30 8882 H 840.147 -1.71273 0.65861 0
M  V30 8883 H 838.529 -3.86976 -0.840577 0
M  V30 8884 H 839.703 -4.14905 2.00476 0
M  V30 8885 H 838.018 -3.81539 1.66785 0
M  V30 8886 H 840.615 -5.30333 -0.681987 0
M  V30 8887 H 840.958 -3.84898 -1.58617 0
M  V30 8888 H 841.491 -3.97654 0.107814 0
M  V30 8889 H 838.23 -6.20532 2.11235 0
M  V30 8890 H 837.75 -5.98368 0.414167 0
M  V30 8891 H 839.429 -6.41781 0.820162 0
M  V30 8892 N 839.561 -0.251338 -1.55583 0
M  V30 8893 C 840.838 0.422729 -1.90977 0
M  V30 8894 C 841.218 1.75534 -1.17265 0
M  V30 8895 O 840.566 2.26632 -0.291588 0
M  V30 8896 C 840.776 0.586448 -3.44037 0
M  V30 8897 C 842.124 0.880294 -4.15375 0
M  V30 8898 O 843.148 0.672148 -3.49801 0
M  V30 8899 O 842.007 1.27694 -5.31372 0
M  V30 8900 H 839.101 0.227622 -0.795058 0
M  V30 8901 H 841.647 -0.295733 -1.67103 0
M  V30 8902 H 840.419 -0.352327 -3.89711 0
M  V30 8903 H 840.042 1.35528 -3.73789 0
M  V30 8904 N 841.039 1.57585 0.0217189 0
M  V30 8905 C 842.455 1.55072 0.377484 0
M  V30 8906 C 842.655 0.978423 1.76151 0
M  V30 8907 O 841.711 0.602688 2.45202 0
M  V30 8908 C 843.024 2.99462 0.272605 0
M  V30 8909 C 844.572 3.11047 0.349148 0
M  V30 8910 C 845.047 4.57182 0.273636 0
M  V30 8911 N 846.538 4.62007 0.332206 0
M  V30 8912 C 847.273 5.72631 0.296782 0
M  V30 8913 N 846.769 6.92472 0.21322 0
M  V30 8914 N 848.562 5.61028 0.347053 0
M  V30 8915 H 840.713 1.93133 -0.883925 0
M  V30 8916 H 842.976 0.886151 -0.33681 0
M  V30 8917 H 842.682 3.45088 -0.67878 0
M  V30 8918 H 842.556 3.61901 1.06335 0
M  V30 8919 H 844.943 2.65364 1.29097 0
M  V30 8920 H 845.024 2.51425 -0.471085 0
M  V30 8921 H 844.668 5.03534 -0.664548 0
M  V30 8922 H 844.598 5.14724 1.11207 0
M  V30 8923 H 847.089 3.75788 0.399003 0
M  V30 8924 H 847.402 7.72563 0.191492 0
M  V30 8925 H 845.747 6.94769 0.179161 0
M  V30 8926 H 848.938 4.66298 0.410378 0
M  V30 8927 H 849.111 6.47229 0.315979 0
M  V30 8928 N 842.517 -0.29412 1.54831 0
M  V30 8929 C 843.464 -1.36296 1.86258 0
M  V30 8930 C 844.434 -1.50061 0.712097 0
M  V30 8931 O 845.619 -1.64809 0.961381 0
M  V30 8932 C 842.759 -2.72187 2.12151 0
M  V30 8933 C 841.872 -2.66816 3.39755 0
M  V30 8934 C 841.007 -3.94747 3.55455 0
M  V30 8935 C 840.046 -3.838 4.76827 0
M  V30 8936 N 839.183 -5.03521 4.89296 0
M  V30 8937 H 844.023 -1.08796 2.7743 0
M  V30 8938 H 841.56 -0.526069 1.37371 0
M  V30 8939 H 843.518 -3.51225 2.25159 0
M  V30 8940 H 842.148 -2.97934 1.24237 0
M  V30 8941 H 841.2 -1.79605 3.3533 0
M  V30 8942 H 842.512 -2.5462 4.28917 0
M  V30 8943 H 841.666 -4.82223 3.68166 0
M  V30 8944 H 840.405 -4.09785 2.64438 0
M  V30 8945 H 839.41 -2.94708 4.64141 0
M  V30 8946 H 840.635 -3.70301 5.69258 0
M  V30 8947 H 838.581 -5.1901 4.01204 0
M  V30 8948 H 838.498 -4.93775 5.72471 0
M  V30 8949 H 839.766 -5.92629 5.06371 0
M  V30 8950 N 843.995 -1.47404 -0.557645 0
M  V30 8951 C 844.942 -1.59859 -1.66475 0
M  V30 8952 C 845.912 -0.441644 -1.60121 0
M  V30 8953 O 847.097 -0.661641 -1.78961 0
M  V30 8954 C 844.237 -1.61843 -3.04797 0
M  V30 8955 C 843.35 -2.8845 -3.2159 0
M  V30 8956 C 842.485 -2.81773 -4.50308 0
M  V30 8957 C 841.524 -4.03208 -4.60532 0
M  V30 8958 N 840.661 -3.94769 -5.80604 0
M  V30 8959 H 845.501 -2.54415 -1.55168 0
M  V30 8960 H 843.038 -1.26194 -0.755876 0
M  V30 8961 H 844.996 -1.60976 -3.84893 0
M  V30 8962 H 843.626 -0.707997 -3.1494 0
M  V30 8963 H 842.678 -2.99186 -2.34929 0
M  V30 8964 H 843.99 -3.78379 -3.25009 0
M  V30 8965 H 843.144 -2.79153 -5.38663 0
M  V30 8966 H 841.883 -1.89527 -4.49367 0
M  V30 8967 H 840.888 -4.06133 -3.70589 0
M  V30 8968 H 842.113 -4.9658 -4.63233 0
M  V30 8969 H 840.059 -3.05326 -5.80613 0
M  V30 8970 H 839.976 -4.78375 -5.854 0
M  V30 8971 H 841.244 -3.96165 -6.71322 0
M  V30 8972 N 845.473 0.80434 -1.35529 0
M  V30 8973 C 846.75 1.5486 -1.1949 0
M  V30 8974 C 847.13 2.09897 0.22506 0
M  V30 8975 O 846.478 1.92643 1.22886 0
M  V30 8976 C 846.688 2.65535 -2.26478 0
M  V30 8977 C 848.036 3.33814 -2.62399 0
M  V30 8978 O 849.06 2.75807 -2.25409 0
M  V30 8979 O 847.919 4.38612 -3.26009 0
M  V30 8980 H 845.013 0.68433 -0.464351 0
M  V30 8981 H 847.559 0.844107 -1.47217 0
M  V30 8982 H 846.331 2.22754 -3.21709 0
M  V30 8983 H 845.954 3.43617 -2.00033 0
M  V30 8984 N 846.951 1.19563 1.02676 0
M  V30 8985 C 847.881 0.959024 2.12897 0
M  V30 8986 C 848.862 -0.108382 1.69754 0
M  V30 8987 O 850.047 0.0470698 1.94143 0
M  V30 8988 C 847.177 0.499211 3.43693 0
M  V30 8989 C 846.131 1.5087 4.00528 0
M  V30 8990 C 845.457 0.905884 5.2697 0
M  V30 8991 C 846.757 2.88954 4.3509 0
M  V30 8992 H 848.451 1.88084 2.32948 0
M  V30 8993 H 845.997 0.905731 1.11949 0
M  V30 8994 H 847.95 0.320965 4.20176 0
M  V30 8995 H 846.674 -0.458205 3.2337 0
M  V30 8996 H 845.333 1.67413 3.26142 0
M  V30 8997 H 844.981 -0.0591506 5.02965 0
M  V30 8998 H 844.681 1.58 5.65959 0
M  V30 8999 H 846.205 0.73848 6.06118 0
M  V30 9000 H 847.619 2.75981 5.02501 0
M  V30 9001 H 846.016 3.53177 4.85166 0
M  V30 9002 H 847.086 3.41447 3.44299 0
M  V30 9003 N 848.429 -1.21819 0.999893 0
M  V30 9004 C 849.675 -1.91035 0.680701 0
M  V30 9005 C 850.008 -1.77582 -0.786021 0
M  V30 9006 O 849.283 -1.14917 -1.56921 0
M  V30 9007 C 849.566 -3.43013 1.0961 0
M  V30 9008 C 849.419 -3.65481 2.6219 0
M  V30 9009 C 850.738 -4.35204 0.654616 0
M  V30 9010 H 847.857 -0.693748 0.248763 0
M  V30 9011 H 850.499 -1.43555 1.24466 0
M  V30 9012 H 848.649 -3.83581 0.616253 0
M  V30 9013 H 850.321 -3.34273 3.17899 0
M  V30 9014 H 848.564 -3.09522 3.03938 0
M  V30 9015 H 849.235 -4.71945 2.86307 0
M  V30 9016 H 851.711 -4.0219 1.06688 0
M  V30 9017 H 850.587 -5.40198 0.973492 0
M  V30 9018 H 850.848 -4.3986 -0.444458 0
M  V30 9019 N 849.908 -0.773975 -1.37286 0
M  V30 9020 C 850.855 -0.159938 -2.30245 0
M  V30 9021 C 851.825 0.687356 -1.51211 0
M  V30 9022 O 853.01 0.639255 -1.79773 0
M  V30 9023 C 850.15 0.711452 -3.37687 0
M  V30 9024 C 849.263 -0.152692 -4.3173 0
M  V30 9025 C 848.398 0.723613 -5.26248 0
M  V30 9026 C 847.437 -0.14293 -6.11933 0
M  V30 9027 N 846.574 0.691479 -6.98687 0
M  V30 9028 H 851.414 -0.958182 -2.82175 0
M  V30 9029 H 848.951 -0.48411 -1.38906 0
M  V30 9030 H 850.909 1.2315 -3.9861 0
M  V30 9031 H 849.539 1.47528 -2.87116 0
M  V30 9032 H 848.591 -0.790574 -3.72094 0
M  V30 9033 H 849.903 -0.821027 -4.91997 0
M  V30 9034 H 849.057 1.31006 -5.92387 0
M  V30 9035 H 847.796 1.42562 -4.66398 0
M  V30 9036 H 846.801 -0.7419 -5.44771 0
M  V30 9037 H 848.026 -0.842305 -6.73856 0
M  V30 9038 H 845.972 1.37806 -6.41362 0
M  V30 9039 H 845.889 0.0804911 -7.55957 0
M  V30 9040 H 847.157 1.26225 -7.69212 0
M  V30 9041 N 851.386 1.48609 -0.524698 0
M  V30 9042 C 852.316 2.32366 0.229837 0
M  V30 9043 C 853.297 1.41759 0.940129 0
M  V30 9044 O 854.482 1.7065 0.926936 0
M  V30 9045 C 851.612 3.22835 1.28043 0
M  V30 9046 C 850.566 4.22424 0.688603 0
M  V30 9047 C 849.892 5.0199 1.84146 0
M  V30 9048 C 851.192 5.21217 -0.336176 0
M  V30 9049 H 852.886 2.95698 -0.469339 0
M  V30 9050 H 850.432 1.42197 -0.227156 0
M  V30 9051 H 852.385 3.80253 1.8162 0
M  V30 9052 H 851.109 2.57492 2.00912 0
M  V30 9053 H 849.768 3.66185 0.174402 0
M  V30 9054 H 849.416 4.33076 2.5584 0
M  V30 9055 H 849.116 5.69392 1.45142 0
M  V30 9056 H 850.64 5.62259 2.38111 0
M  V30 9057 H 852.054 5.7319 0.112307 0
M  V30 9058 H 850.451 5.96642 -0.643324 0
M  V30 9059 H 851.521 4.68676 -1.24381 0
M  V30 9060 N 852.864 0.259585 1.55447 0
M  V30 9061 C 853.796 -0.667548 2.19263 0
M  V30 9062 C 854.809 -1.12925 1.17268 0
M  V30 9063 O 855.998 -1.05384 1.44071 0
M  V30 9064 C 853.098 -1.92066 2.7922 0
M  V30 9065 C 852.271 -1.60832 4.06758 0
M  V30 9066 C 851.33 -2.71231 4.50911 0
M  V30 9067 O 850.356 -2.38077 5.17019 0
M  V30 9068 N 851.558 -4.00984 4.19752 0
M  V30 9069 H 854.323 -0.121449 2.99454 0
M  V30 9070 H 851.884 0.0800519 1.61702 0
M  V30 9071 H 853.876 -2.65186 3.0571 0
M  V30 9072 H 852.446 -2.37621 2.03113 0
M  V30 9073 H 851.666 -0.711685 3.87722 0
M  V30 9074 H 852.954 -1.37445 4.89884 0
M  V30 9075 H 852.352 -4.30748 3.66706 0
M  V30 9076 H 850.909 -4.7053 4.51048 0
M  V30 9077 N 854.342 -1.57594 -0.0133615 0
M  V30 9078 C 855.305 -2.06534 -0.993799 0
M  V30 9079 C 856.305 -0.972267 -1.28077 0
M  V30 9080 O 857.495 -1.23537 -1.22818 0
M  V30 9081 C 854.627 -2.49554 -2.3224 0
M  V30 9082 H 855.82 -2.94419 -0.570741 0
M  V30 9083 H 853.373 -1.54113 -0.260546 0
M  V30 9084 H 854.108 -1.64872 -2.79263 0
M  V30 9085 H 853.893 -3.29371 -2.12737 0
M  V30 9086 H 855.383 -2.8779 -3.026 0
M  V30 9087 N 855.82 0.285905 -1.54985 0
M  V30 9088 C 857.068 1.01718 -1.74636 0
M  V30 9089 C 857.389 1.87277 -0.543342 0
M  V30 9090 O 856.659 1.90847 0.442078 0
M  V30 9091 H 855.239 0.378549 -0.643979 0
M  V30 9092 H 857.901 0.313247 -1.92366 0
M  V30 9093 H 856.997 1.66159 -2.64192 0
M  V30 9094 N 857.298 1.47698 0.54982 0
M  V30 9095 C 858.208 1.63386 1.68351 0
M  V30 9096 C 859.224 0.516583 1.66155 0
M  V30 9097 O 860.4 0.785088 1.85468 0
M  V30 9098 C 857.465 1.6513 3.04849 0
M  V30 9099 C 856.526 2.88338 3.18056 0
M  V30 9100 C 855.759 2.8999 4.48042 0
M  V30 9101 O 855.982 2.00633 5.3395 0
M  V30 9102 O 854.916 3.81938 4.65196 0
M  V30 9103 H 858.742 2.59329 1.58057 0
M  V30 9104 H 856.327 1.30869 0.72067 0
M  V30 9105 H 858.209 1.68913 3.86065 0
M  V30 9106 H 856.884 0.723555 3.1551 0
M  V30 9107 H 855.791 2.90097 2.36209 0
M  V30 9108 H 857.124 3.80431 3.12302 0
M  V30 9109 N 858.776 -0.797141 1.35954 0
M  V30 9110 C 860.006 -1.5835 1.32698 0
M  V30 9111 C 860.414 -1.88959 -0.0955298 0
M  V30 9112 O 859.757 -1.49987 -1.06064 0
M  V30 9113 C 859.819 -2.93529 2.0756 0
M  V30 9114 C 859.483 -2.85688 3.56695 0
M  V30 9115 C 860.48 -2.58467 4.51099 0
M  V30 9116 C 858.165 -3.04508 3.99475 0
M  V30 9117 C 860.159 -2.50157 5.8626 0
M  V30 9118 C 857.846 -2.9582 5.34728 0
M  V30 9119 C 858.844 -2.68681 6.27933 0
M  V30 9120 O 858.532 -2.59973 7.60703 0
M  V30 9121 H 858.264 -0.49807 0.457059 0
M  V30 9122 H 860.818 -0.997889 1.79531 0
M  V30 9123 H 859.048 -3.54111 1.55378 0
M  V30 9124 H 860.737 -3.54744 1.9726 0
M  V30 9125 H 861.503 -2.43638 4.19363 0
M  V30 9126 H 857.382 -3.24641 3.27306 0
M  V30 9127 H 860.926 -2.28894 6.58979 0
M  V30 9128 H 856.823 -3.10211 5.66074 0
M  V30 9129 H 857.591 -2.75511 7.70737 0
M  V30 9130 N 860.254 -1.20106 -1.0204 0
M  V30 9131 C 861.5 -1.01039 -1.75838 0
M  V30 9132 C 861.833 0.456819 -1.88751 0
M  V30 9133 O 861.108 1.33919 -1.41053 0
M  V30 9134 C 861.391 -1.69009 -3.17975 0
M  V30 9135 C 861.244 -3.2315 -3.1288 0
M  V30 9136 C 862.563 -1.42005 -4.16561 0
M  V30 9137 H 859.682 -0.368465 -0.638281 0
M  V30 9138 H 862.324 -1.48066 -1.19064 0
M  V30 9139 H 860.474 -1.29026 -3.66449 0
M  V30 9140 H 862.146 -3.72402 -2.72239 0
M  V30 9141 H 860.389 -3.54253 -2.50374 0
M  V30 9142 H 861.06 -3.65862 -4.13339 0
M  V30 9143 H 863.536 -1.76685 -3.76725 0
M  V30 9144 H 862.412 -1.92101 -5.14187 0
M  V30 9145 H 862.673 -0.346884 -4.40737 0
M  V30 9146 N 861.732 1.21287 -1.00634 0
M  V30 9147 C 862.957 1.94925 -0.708441 0
M  V30 9148 C 863.382 1.73659 0.722783 0
M  V30 9149 O 862.74 1.02429 1.49593 0
M  V30 9150 C 862.788 3.45377 -1.03667 0
M  V30 9151 O 861.892 4.12153 -0.142661 0
M  V30 9152 H 861.233 0.609338 -0.263824 0
M  V30 9153 H 863.763 1.54008 -1.34695 0
M  V30 9154 H 863.773 3.95954 -0.984086 0
M  V30 9155 H 862.448 3.6018 -2.0795 0
M  V30 9156 H 861.025 3.72048 -0.251888 0
M  V30 9157 N 863.21 0.781244 1.36873 0
M  V30 9158 C 864.14 0.188128 2.32741 0
M  V30 9159 C 865.121 -0.672326 1.56249 0
M  V30 9160 O 866.306 -0.607835 1.84442 0
M  V30 9161 C 863.436 -0.684341 3.40491 0
M  V30 9162 C 862.39 0.0755641 4.27933 0
M  V30 9163 C 861.716 -0.916968 5.26779 0
M  V30 9164 C 863.016 1.26006 5.06873 0
M  V30 9165 H 864.71 0.989016 2.82593 0
M  V30 9166 H 862.256 0.477038 1.35869 0
M  V30 9167 H 864.209 -1.10915 4.06541 0
M  V30 9168 H 862.933 -1.51785 2.89187 0
M  V30 9169 H 861.592 0.481258 3.63427 0
M  V30 9170 H 861.24 -1.74528 4.71751 0
M  V30 9171 H 860.94 -0.413 5.86147 0
M  V30 9172 H 862.464 -1.34052 5.95703 0
M  V30 9173 H 863.878 0.911425 5.66009 0
M  V30 9174 H 862.275 1.69676 5.75613 0
M  V30 9175 H 863.345 2.05948 4.38991 0
M  V30 9176 N 864.689 -1.48329 0.532571 0
M  V30 9177 C 865.937 -2.021 -0.000581206 0
M  V30 9178 C 866.258 -1.4117 -1.34522 0
M  V30 9179 O 865.528 -0.578005 -1.87179 0
M  V30 9180 H 864.108 -0.746993 -0.00320281 0
M  V30 9181 H 866.77 -1.82011 0.696991 0
M  V30 9182 H 865.866 -3.11917 -0.106991 0
M  V30 9183 N 866.167 -0.267825 -1.55308 0
M  V30 9184 C 867.114 0.6228 -2.22238 0
M  V30 9185 C 868.084 1.15536 -1.19334 0
M  V30 9186 O 869.269 1.206 -1.47852 0
M  V30 9187 C 866.409 1.80447 -2.94164 0
M  V30 9188 C 865.522 1.30646 -4.11771 0
M  V30 9189 C 864.657 2.44935 -4.7136 0
M  V30 9190 C 863.696 1.92099 -5.81175 0
M  V30 9191 N 862.833 2.99834 -6.34857 0
M  V30 9192 H 867.673 0.0453874 -2.97965 0
M  V30 9193 H 865.21 0.0106371 -1.47096 0
M  V30 9194 H 867.168 2.49896 -3.34078 0
M  V30 9195 H 865.798 2.35403 -2.20874 0
M  V30 9196 H 864.85 0.505314 -3.77029 0
M  V30 9197 H 866.162 0.879409 -4.90987 0
M  V30 9198 H 865.316 3.2239 -5.13955 0
M  V30 9199 H 864.055 2.90951 -3.91406 0
M  V30 9200 H 863.06 1.13122 -5.38037 0
M  V30 9201 H 864.285 1.47027 -6.62993 0
M  V30 9202 H 862.231 3.45246 -5.578 0
M  V30 9203 H 862.148 2.61524 -7.09324 0
M  V30 9204 H 863.416 3.77286 -6.82111 0
M  V30 9205 N 867.645 1.57599 0.00500368 0
M  V30 9206 C 868.891 1.90631 0.691919 0
M  V30 9207 C 869.224 0.868443 1.737 0
M  V30 9208 O 868.499 -0.113482 1.94169 0
M  V30 9209 C 868.782 3.34255 1.33961 0
M  V30 9210 C 868.635 4.48755 0.306413 0
M  V30 9211 C 869.954 3.77211 2.26715 0
M  V30 9212 H 867.073 0.693279 0.250066 0
M  V30 9213 H 869.715 1.89946 -0.0452634 0
M  V30 9214 H 867.865 3.3497 1.96793 0
M  V30 9215 H 869.537 4.60176 -0.321841 0
M  V30 9216 H 867.78 4.32203 -0.371852 0
M  V30 9217 H 868.451 5.46193 0.798554 0
M  V30 9218 H 870.927 3.78017 1.73904 0
M  V30 9219 H 869.803 4.78466 2.69002 0
M  V30 9220 H 870.064 3.10801 3.14413 0
M  V30 9221 N 869.123 -0.277682 1.55134 0
M  V30 9222 C 870.033 -1.36524 1.90783 0
M  V30 9223 C 871.049 -1.54283 0.804542 0
M  V30 9224 O 872.225 -1.68499 1.10318 0
M  V30 9225 C 869.29 -2.70524 2.16835 0
M  V30 9226 C 868.351 -2.61552 3.40424 0
M  V30 9227 C 867.584 -3.89162 3.65224 0
M  V30 9228 O 867.807 -4.89624 2.92616 0
M  V30 9229 O 866.741 -3.89647 4.58758 0
M  V30 9230 H 870.567 -1.0929 2.83354 0
M  V30 9231 H 868.152 -0.475799 1.41621 0
M  V30 9232 H 870.034 -3.49765 2.35038 0
M  V30 9233 H 868.709 -2.97555 1.27448 0
M  V30 9234 H 867.616 -1.80704 3.27562 0
M  V30 9235 H 868.949 -2.39472 4.30016 0
M  V30 9236 N 870.601 -1.47988 -0.541979 0
M  V30 9237 C 871.564 -1.61148 -1.62984 0
M  V30 9238 C 872.564 -0.48553 -1.53295 0
M  V30 9239 O 873.754 -0.751012 -1.5718 0
M  V30 9240 C 870.886 -1.57038 -3.02576 0
M  V30 9241 H 872.079 -2.58138 -1.52659 0
M  V30 9242 H 869.632 -1.36405 -0.763106 0
M  V30 9243 H 870.367 -0.614807 -3.18419 0
M  V30 9244 H 870.152 -2.38769 -3.11018 0
M  V30 9245 H 871.642 -1.69416 -3.81691 0
M  V30 9246 N 872.079 0.78992 -1.36375 0
M  V30 9247 C 873.042 1.88414 -1.30509 0
M  V30 9248 C 874.042 1.59384 -0.2129 0
M  V30 9249 O 875.232 1.67805 -0.467651 0
M  V30 9250 C 872.364 3.25188 -1.02302 0
M  V30 9251 H 873.557 1.95031 -2.27822 0
M  V30 9252 H 871.11 0.987664 -1.2114 0
M  V30 9253 H 871.845 3.24254 -0.0544486 0
M  V30 9254 H 871.63 3.47647 -1.81338 0
M  V30 9255 H 873.12 4.05252 -1.00801 0
M  V30 9256 N 873.557 1.20646 1.01402 0
M  V30 9257 C 874.487 0.98155 2.11867 0
M  V30 9258 C 875.468 -0.0903712 1.6986 0
M  V30 9259 O 876.653 0.0676586 1.94082 0
M  V30 9260 C 873.783 0.535636 3.43145 0
M  V30 9261 C 872.737 1.55109 3.98905 0
M  V30 9262 C 872.063 0.961725 5.2598 0
M  V30 9263 C 873.363 2.93552 4.32001 0
M  V30 9264 H 875.057 1.90544 2.3094 0
M  V30 9265 H 872.603 0.917554 1.10982 0
M  V30 9266 H 874.556 0.365512 4.19812 0
M  V30 9267 H 873.28 -0.423882 3.23838 0
M  V30 9268 H 871.939 1.70862 3.24348 0
M  V30 9269 H 871.587 -0.00580108 5.03 0
M  V30 9270 H 871.287 1.63993 5.64252 0
M  V30 9271 H 872.811 0.802726 6.053 0
M  V30 9272 H 874.225 2.81295 4.99546 0
M  V30 9273 H 872.622 3.58303 4.81393 0
M  V30 9274 H 873.692 3.4508 3.40658 0
M  V30 9275 N 875.035 -1.20752 1.01276 0
M  V30 9276 C 875.982 -2.234 0.579732 0
M  V30 9277 C 876.952 -1.61256 -0.398206 0
M  V30 9278 O 878.137 -1.8845 -0.29851 0
M  V30 9279 C 875.277 -3.45008 -0.0797006 0
M  V30 9280 C 874.39 -4.21597 0.942343 0
M  V30 9281 C 873.525 -5.30591 0.254364 0
M  V30 9282 C 872.564 -5.98919 1.26343 0
M  V30 9283 N 871.701 -6.99511 0.602384 0
M  V30 9284 H 876.541 -2.59801 1.45971 0
M  V30 9285 H 874.078 -1.27663 0.730787 0
M  V30 9286 H 876.036 -4.1444 -0.479125 0
M  V30 9287 H 874.666 -3.09312 -0.923354 0
M  V30 9288 H 873.718 -3.51268 1.45996 0
M  V30 9289 H 875.03 -4.68576 1.70992 0
M  V30 9290 H 874.184 -6.06368 -0.200763 0
M  V30 9291 H 872.923 -4.84639 -0.545553 0
M  V30 9292 H 871.928 -5.21906 1.72898 0
M  V30 9293 H 873.153 -6.46957 2.06456 0
M  V30 9294 H 871.099 -6.55759 -0.177734 0
M  V30 9295 H 871.016 -7.44597 1.30809 0
M  V30 9296 H 872.284 -7.79313 0.17072 0
M  V30 9297 N 876.513 -0.788492 -1.36457 0
M  V30 9298 C 877.461 -0.174192 -2.31947 0
M  V30 9299 C 878.455 0.665974 -1.5576 0
M  V30 9300 O 879.661 0.561161 -1.71029 0
M  V30 9301 H 876.036 -0.0375538 -0.751062 0
M  V30 9302 H 878.007 -0.995011 -2.81322 0
M  V30 9303 C 876.756 0.677276 -3.4104 0
M  V30 9304 H 876.079 0.0401418 -3.9978 0
M  V30 9305 H 877.519 1.07379 -4.10178 0
M  V30 9306 C 875.978 1.83512 -2.82533 0
M  V30 9307 O 876.508 2.93164 -2.74623 0
M  V30 9308 N 874.714 1.64095 -2.39836 0
M  V30 9309 H 874.261 0.749046 -2.46469 0
M  V30 9310 H 874.219 2.41726 -2.01037 0
M  V30 9311 N 877.991 1.48044 -0.54043 0
M  V30 9312 C 879.231 2.04396 -0.012296 0
M  V30 9313 C 879.595 1.40748 1.30591 0
M  V30 9314 O 880.796 1.88048 1.92072 0
M  V30 9315 C 879.067 3.5727 0.0964302 0
M  V30 9316 S 880.626 4.35041 0.573117 0
M  V30 9317 H 877.444 0.710795 -0.0170735 0
M  V30 9318 H 880.046 1.81625 -0.723362 0
M  V30 9319 H 878.75 4.01124 -0.86762 0
M  V30 9320 H 878.281 3.84511 0.83156 0
M  V30 9321 H 880.296 4.6099 1.83583 0
M  V30 9322 N 879.47 0.276058 1.55163 0
M  V30 9323 C 880.881 -0.221516 1.85381 0
M  V30 9324 C 881.232 -1.55372 1.19808 0
M  V30 9325 O 880.357 -2.10855 0.486742 0
M  V30 9326 C 880.952 -0.408706 3.36326 0
M  V30 9327 C 879.511 -0.850512 3.66665 0
M  V30 9328 C 878.658 0.055656 2.77244 0
M  V30 9329 H 881.609 0.497819 1.5069 0
M  V30 9330 H 881.63 -1.24711 3.59482 0
M  V30 9331 H 881.142 0.561052 3.84023 0
M  V30 9332 H 879.243 -1.83171 3.24468 0
M  V30 9333 H 879.356 -0.687181 4.74146 0
M  V30 9334 H 877.72 -0.460819 2.50497 0
M  V30 9335 H 878.503 1.02131 3.27756 0
M  V30 9336 N 880.948 -1.576 0.00335426 0
M  V30 9337 C 881.878 -2.11668 -0.985839 0
M  V30 9338 C 882.859 -1.02661 -1.35627 0
M  V30 9339 O 884.044 -1.30361 -1.43943 0
M  V30 9340 C 881.174 -2.62273 -2.27662 0
M  V30 9341 C 880.128 -3.75837 -2.0477 0
M  V30 9342 C 879.454 -4.12769 -3.39891 0
M  V30 9343 C 880.754 -5.02975 -1.40759 0
M  V30 9344 H 882.448 -2.9457 -0.535637 0
M  V30 9345 H 879.994 -1.41702 -0.256204 0
M  V30 9346 H 881.947 -2.98727 -2.97221 0
M  V30 9347 H 880.671 -1.76498 -2.74802 0
M  V30 9348 H 879.33 -3.39782 -1.37636 0
M  V30 9349 H 878.978 -3.24013 -3.8474 0
M  V30 9350 H 878.678 -4.89281 -3.25389 0
M  V30 9351 H 880.202 -4.51784 -4.1076 0
M  V30 9352 H 881.616 -5.37179 -2.00279 0
M  V30 9353 H 880.013 -5.84315 -1.36734 0
M  V30 9354 H 881.083 -4.83431 -0.377218 0
M  V30 9355 N 882.426 0.269451 -1.5528 0
M  V30 9356 C 883.675 0.998381 -1.75258 0
M  V30 9357 C 883.988 1.87321 -0.563034 0
M  V30 9358 O 885.194 2.63719 -0.645313 0
M  V30 9359 C 883.65 1.82505 -3.10193 0
M  V30 9360 C 883.258 0.99871 -4.36726 0
M  V30 9361 C 885.002 2.54807 -3.3952 0
M  V30 9362 C 882.909 1.81997 -5.627 0
M  V30 9363 H 881.839 0.376488 -0.653278 0
M  V30 9364 H 884.49 0.253909 -1.81735 0
M  V30 9365 H 882.872 2.61061 -2.97763 0
M  V30 9366 H 884.046 0.257064 -4.60082 0
M  V30 9367 H 882.361 0.390074 -4.14569 0
M  V30 9368 H 884.958 3.16662 -4.30847 0
M  V30 9369 H 885.301 3.25273 -2.59813 0
M  V30 9370 H 885.834 1.83278 -3.53064 0
M  V30 9371 H 882.573 1.15945 -6.45164 0
M  V30 9372 H 882.093 2.53749 -5.43481 0
M  V30 9373 H 883.772 2.39274 -6.0113 0
M  V30 9374 N 883.904 1.48273 0.534124 0
M  V30 9375 C 885.181 1.46567 1.29528 0
M  V30 9376 C 885.561 0.17509 2.10373 0
M  V30 9377 O 884.909 -0.843228 2.12372 0
M  V30 9378 C 885.119 2.72519 2.18023 0
M  V30 9379 C 886.467 3.2068 2.78298 0
M  V30 9380 O 887.491 2.73408 2.28313 0
M  V30 9381 O 886.35 4.02924 3.69208 0
M  V30 9382 H 883.444 0.585151 0.584403 0
M  V30 9383 H 885.99 1.60502 0.551119 0
M  V30 9384 H 884.762 3.57965 1.5804 0
M  V30 9385 H 884.385 2.61285 2.99693 0
M  V30 9386 N 885.382 -0.782676 1.36792 0
M  V30 9387 C 886.33 -1.91698 1.31737 0
M  V30 9388 C 887.324 -1.68118 0.207994 0
M  V30 9389 O 888.53 -1.76042 0.375393 0
M  V30 9390 H 884.905 -0.630215 0.410284 0
M  V30 9391 H 886.876 -1.93078 2.27516 0
M  V30 9392 C 885.625 -3.28816 1.13029 0
M  V30 9393 H 884.948 -3.4753 1.97643 0
M  V30 9394 H 886.388 -4.08515 1.13541 0
M  V30 9395 C 884.847 -3.36497 -0.1647 0
M  V30 9396 O 885.377 -3.84822 -1.15216 0
M  V30 9397 N 883.583 -2.89828 -0.211678 0
M  V30 9398 H 883.13 -2.50693 0.59252 0
M  V30 9399 H 883.088 -2.95349 -1.07779 0
M  V30 9400 N 886.86 -1.21182 -1.00761 0
M  V30 9401 C 888.109 -1.02166 -1.73911 0
M  V30 9402 C 888.422 0.445638 -1.90456 0
M  V30 9403 O 889.628 0.755132 -2.60787 0
M  V30 9404 C 888.084 -1.77936 -3.12837 0
M  V30 9405 C 887.692 -3.28819 -3.04273 0
M  V30 9406 C 889.436 -1.67319 -3.90134 0
M  V30 9407 C 887.343 -3.97089 -4.38262 0
M  V30 9408 H 886.273 -0.378665 -0.652019 0
M  V30 9409 H 888.924 -1.44891 -1.12601 0
M  V30 9410 H 887.306 -1.28003 -3.74742 0
M  V30 9411 H 888.48 -3.86035 -2.51622 0
M  V30 9412 H 886.795 -3.39949 -2.40465 0
M  V30 9413 H 889.392 -2.15659 -4.8928 0
M  V30 9414 H 889.735 -0.630959 -4.11491 0
M  V30 9415 H 890.268 -2.14716 -3.34876 0
M  V30 9416 H 887.007 -5.01503 -4.22107 0
M  V30 9417 H 886.527 -3.44662 -4.90885 0
M  V30 9418 H 888.206 -4.01854 -5.07072 0
M  V30 9419 N 888.338 1.20213 -1.01915 0
M  V30 9420 C 889.578 1.91354 -0.71853 0
M  V30 9421 C 889.942 1.77231 0.738466 0
M  V30 9422 O 891.143 2.42876 1.15172 0
M  V30 9423 C 889.414 3.38552 -1.14529 0
M  V30 9424 S 890.973 4.28011 -0.967037 0
M  V30 9425 H 887.791 0.661015 -0.261879 0
M  V30 9426 H 890.393 1.45394 -1.30694 0
M  V30 9427 H 889.097 3.46354 -2.20153 0
M  V30 9428 H 888.628 3.8954 -0.549766 0
M  V30 9429 H 890.643 4.96035 0.127974 0
M  V30 9430 N 889.816 0.795718 1.36037 0
M  V30 9431 C 890.779 0.204318 2.28287 0
M  V30 9432 C 891.779 -0.602017 1.49105 0
M  V30 9433 O 892.969 -0.422089 1.69009 0
M  V30 9434 C 890.101 -0.716431 3.33287 0
M  V30 9435 H 891.294 1.01781 2.821 0
M  V30 9436 H 888.847 0.565588 1.45708 0
M  V30 9437 H 889.582 -1.55403 2.84641 0
M  V30 9438 H 889.367 -0.140096 3.9185 0
M  V30 9439 H 890.857 -1.12488 4.02164 0
M  V30 9440 N 891.294 -1.47756 0.548274 0
M  V30 9441 C 892.541 -2.02489 0.0208955 0
M  V30 9442 C 892.869 -1.42356 -1.32533 0
M  V30 9443 O 892.124 -0.565448 -1.87353 0
M  V30 9444 C 892.423 -3.5716 -0.131069 0
M  V30 9445 C 892.089 -4.36169 1.14313 0
M  V30 9446 C 890.751 -4.57476 1.4923 0
M  V30 9447 C 893.103 -4.81801 1.9879 0
M  V30 9448 C 890.431 -5.21662 2.68487 0
M  V30 9449 C 892.783 -5.47303 3.17242 0
M  V30 9450 C 891.447 -5.66844 3.52483 0
M  V30 9451 H 890.717 -0.740961 0.00764621 0
M  V30 9452 H 893.364 -1.77531 0.717987 0
M  V30 9453 H 891.669 -3.8106 -0.911063 0
M  V30 9454 H 893.366 -3.9715 -0.55433 0
M  V30 9455 H 889.956 -4.19858 0.861235 0
M  V30 9456 H 894.14 -4.65126 1.73123 0
M  V30 9457 H 889.396 -5.34987 2.95971 0
M  V30 9458 H 893.57 -5.81626 3.82994 0
M  V30 9459 H 891.197 -6.16352 4.44988 0
M  V30 9460 N 892.772 -0.284283 -1.55015 0
M  V30 9461 C 893.735 0.586182 -2.21577 0
M  V30 9462 C 894.735 1.07427 -1.1965 0
M  V30 9463 O 895.925 0.972977 -1.44495 0
M  V30 9464 C 893.057 1.80973 -2.88897 0
M  V30 9465 H 894.25 0.00487253 -2.999 0
M  V30 9466 H 891.803 -0.0349696 -1.56261 0
M  V30 9467 H 892.538 2.43131 -2.14611 0
M  V30 9468 H 892.323 1.46757 -3.636 0
M  V30 9469 H 893.813 2.42853 -3.39724 0
M  V30 9470 N 894.251 1.57596 -0.0117121 0
M  V30 9471 C 895.198 2.09153 0.975897 0
M  V30 9472 C 896.168 0.989579 1.33404 0
M  V30 9473 O 897.353 1.26273 1.43038 0
M  V30 9474 C 894.493 2.60906 2.2588 0
M  V30 9475 C 893.606 3.85046 1.95866 0
M  V30 9476 C 892.741 4.25257 3.18323 0
M  V30 9477 C 891.78 5.42202 2.84049 0
M  V30 9478 N 890.917 5.77651 3.99079 0
M  V30 9479 H 895.757 2.93261 0.52931 0
M  V30 9480 H 893.294 1.44965 0.249691 0
M  V30 9481 H 895.252 2.88995 3.00895 0
M  V30 9482 H 893.882 1.79654 2.68187 0
M  V30 9483 H 892.934 3.63794 1.11168 0
M  V30 9484 H 894.246 4.70151 1.66611 0
M  V30 9485 H 893.4 4.5469 4.01674 0
M  V30 9486 H 892.139 3.38884 3.50726 0
M  V30 9487 H 891.144 5.1248 1.99107 0
M  V30 9488 H 892.369 6.3026 2.52881 0
M  V30 9489 H 890.315 4.94235 4.31356 0
M  V30 9490 H 890.232 6.57356 3.73388 0
M  V30 9491 H 891.5 6.11681 4.83183 0
M  V30 9492 N 895.729 -0.261212 1.5542 0
M  V30 9493 C 896.954 -1.01341 1.80955 0
M  V30 9494 C 897.379 -1.78711 0.586849 0
M  V30 9495 O 896.737 -1.75266 -0.463837 0
M  V30 9496 C 896.785 -1.93835 3.04073 0
M  V30 9497 O 895.889 -3.02791 2.79985 0
M  V30 9498 H 895.23 -0.289123 0.597749 0
M  V30 9499 H 897.76 -0.286543 2.02584 0
M  V30 9500 H 897.77 -2.3557 3.33123 0
M  V30 9501 H 896.445 -1.36936 3.9271 0
M  V30 9502 H 895.022 -2.65287 2.62063 0
M  V30 9503 N 897.207 -1.48554 -0.526253 0
M  V30 9504 C 898.484 -1.47252 -1.28748 0
M  V30 9505 C 898.864 -0.186245 -2.10277 0
M  V30 9506 O 898.212 0.831954 -2.12816 0
M  V30 9507 C 898.422 -2.73672 -2.16575 0
M  V30 9508 C 899.77 -3.22151 -2.76593 0
M  V30 9509 O 900.794 -2.74614 -2.2686 0
M  V30 9510 O 899.653 -4.04877 -3.67066 0
M  V30 9511 H 896.747 -0.588242 -0.581292 0
M  V30 9512 H 899.293 -1.60792 -0.5426 0
M  V30 9513 H 898.065 -3.58798 -1.56139 0
M  V30 9514 H 897.688 -2.6287 -2.98304 0
M  V30 9515 N 898.685 0.775411 -1.37205 0
M  V30 9516 C 899.617 1.89761 -1.28544 0
M  V30 9517 C 900.63 1.61542 -0.201996 0
M  V30 9518 O 901.819 1.72528 -0.457848 0
M  V30 9519 C 898.919 3.24904 -0.963885 0
M  V30 9520 C 898.092 3.80796 -2.15205 0
M  V30 9521 C 897.151 4.94407 -1.80135 0
M  V30 9522 O 896.177 5.10185 -2.52388 0
M  V30 9523 N 897.379 5.75722 -0.743298 0
M  V30 9524 H 900.144 1.97708 -2.25237 0
M  V30 9525 H 897.705 0.954348 -1.30782 0
M  V30 9526 H 899.697 3.9842 -0.710182 0
M  V30 9527 H 898.267 3.12483 -0.085632 0
M  V30 9528 H 897.487 2.99101 -2.56773 0
M  V30 9529 H 898.775 4.1487 -2.94552 0
M  V30 9530 H 898.173 5.65518 -0.143655 0
M  V30 9531 H 896.73 6.4948 -0.549446 0
M  V30 9532 N 900.163 1.21714 1.00117 0
M  V30 9533 C 901.388 1.06357 1.78054 0
M  V30 9534 C 901.813 -0.382075 1.84179 0
M  V30 9535 O 901.171 -1.27575 1.28819 0
M  V30 9536 C 901.219 1.66982 3.19608 0
M  V30 9537 O 900.323 0.917892 4.02055 0
M  V30 9538 H 899.664 0.374074 0.548602 0
M  V30 9539 H 902.194 1.61338 1.25822 0
M  V30 9540 H 902.204 1.71363 3.70268 0
M  V30 9541 H 900.879 2.72185 3.14465 0
M  V30 9542 H 899.456 0.949473 3.6061 0
M  V30 9543 N 901.641 -1.19671 1.02551 0
M  V30 9544 C 902.871 -1.92952 0.738441 0
M  V30 9545 C 903.279 -1.75528 -0.706155 0
M  V30 9546 O 902.622 -1.0723 -1.49156 0
M  V30 9547 C 902.684 -3.45149 1.00562 0
M  V30 9548 C 902.348 -3.86341 2.44109 0
M  V30 9549 C 903.345 -3.91374 3.42231 0
M  V30 9550 C 901.03 -4.18076 2.7842 0
M  V30 9551 C 903.024 -4.27568 4.7272 0
M  V30 9552 C 900.711 -4.53943 4.0912 0
M  V30 9553 C 901.709 -4.58663 5.06081 0
M  V30 9554 O 901.397 -4.93701 6.3444 0
M  V30 9555 H 901.129 -0.619836 0.269776 0
M  V30 9556 H 903.683 -1.52852 1.37206 0
M  V30 9557 H 901.913 -3.85416 0.314849 0
M  V30 9558 H 903.602 -3.99664 0.708742 0
M  V30 9559 H 904.368 -3.67011 3.17061 0
M  V30 9560 H 900.247 -4.13589 2.03631 0
M  V30 9561 H 903.791 -4.31166 5.48399 0
M  V30 9562 H 899.688 -4.77764 4.34064 0
M  V30 9563 H 900.456 -5.11662 6.38862 0
M  V30 9564 N 903.119 -0.802921 -1.35613 0
M  V30 9565 C 904.365 -0.382141 -1.99167 0
M  V30 9566 C 904.698 1.04704 -1.63556 0
M  V30 9567 O 903.973 1.72578 -0.89706 0
M  V30 9568 C 904.256 -0.561493 -3.55695 0
M  V30 9569 C 904.109 -2.03534 -4.01116 0
M  V30 9570 C 905.428 0.0151135 -4.40097 0
M  V30 9571 H 902.547 -0.140322 -0.723518 0
M  V30 9572 H 905.189 -1.01177 -1.6082 0
M  V30 9573 H 903.339 -0.0255083 -3.88492 0
M  V30 9574 H 905.011 -2.63343 -3.78746 0
M  V30 9575 H 903.254 -2.5331 -3.52159 0
M  V30 9576 H 903.925 -2.11173 -5.1001 0
M  V30 9577 H 906.401 -0.442582 -4.1374 0
M  V30 9578 H 905.277 -0.140316 -5.48721 0
M  V30 9579 H 905.538 1.10848 -4.27978 0
M  V30 9580 N 904.597 1.47463 -0.556102 0
M  V30 9581 C 905.846 2.01678 -0.029492 0
M  V30 9582 C 906.159 1.436 1.32809 0
M  V30 9583 O 907.365 1.89472 1.94455 0
M  V30 9584 C 905.821 3.599 -0.00223937 0
M  V30 9585 C 905.429 4.26969 -1.35651 0
M  V30 9586 C 907.173 4.2187 0.471822 0
M  V30 9587 C 905.08 5.77194 -1.28843 0
M  V30 9588 H 904.01 0.753965 -0.00725504 0
M  V30 9589 H 906.661 1.69467 -0.703789 0
M  V30 9590 H 905.043 3.89068 0.737682 0
M  V30 9591 H 906.217 4.09444 -2.11406 0
M  V30 9592 H 904.532 3.76983 -1.76842 0
M  V30 9593 H 907.129 5.31955 0.541139 0
M  V30 9594 H 907.472 3.88968 1.48356 0
M  V30 9595 H 908.005 3.97228 -0.213207 0
M  V30 9596 H 904.744 6.14713 -2.27613 0
M  V30 9597 H 904.264 5.9706 -0.572668 0
M  V30 9598 H 905.943 6.3938 -0.990031 0
M  V30 9599 N 906.075 0.2925 1.54862 0
M  V30 9600 C 907.3 -0.32494 2.04839 0
M  V30 9601 C 907.725 -1.47381 1.16877 0
M  V30 9602 O 907.083 -1.80492 0.171028 0
M  V30 9603 C 907.131 -0.76694 3.5235 0
M  V30 9604 O 906.235 -1.87256 3.67436 0
M  V30 9605 H 905.576 -0.0645195 0.660858 0
M  V30 9606 H 908.106 0.431867 1.9999 0
M  V30 9607 H 908.116 -1.05804 3.94043 0
M  V30 9608 H 906.791 0.0735212 4.15835 0
M  V30 9609 H 905.368 -1.58266 3.37648 0
M  V30 9610 N 907.553 -1.57587 0.0200696 0
M  V30 9611 C 908.8 -1.91424 -0.660525 0
M  V30 9612 C 909.128 -0.895626 -1.72652 0
M  V30 9613 O 908.383 0.096771 -1.95461 0
M  V30 9614 C 908.682 -3.32002 -1.32323 0
M  V30 9615 C 908.348 -4.49223 -0.388487 0
M  V30 9616 C 907.01 -4.81021 -0.131184 0
M  V30 9617 C 909.362 -5.20581 0.253906 0
M  V30 9618 C 906.69 -5.81539 0.776471 0
M  V30 9619 C 909.042 -6.22067 1.14956 0
M  V30 9620 C 907.706 -6.52311 1.41584 0
M  V30 9621 H 906.976 -0.700472 -0.241703 0
M  V30 9622 H 909.623 -1.91333 0.0798991 0
M  V30 9623 H 907.928 -3.28312 -2.13819 0
M  V30 9624 H 909.625 -3.5545 -1.85623 0
M  V30 9625 H 906.215 -4.24391 -0.599207 0
M  V30 9626 H 910.399 -4.96253 0.068164 0
M  V30 9627 H 905.655 -6.03322 0.990575 0
M  V30 9628 H 909.829 -6.76484 1.65357 0
M  V30 9629 H 907.456 -7.30017 2.12083 0
M  V30 9630 N 909.032 0.252966 -1.55557 0
M  V30 9631 C 910.278 0.983306 -1.77367 0
M  V30 9632 C 910.611 1.85203 -0.584258 0
M  V30 9633 O 909.886 1.89963 0.417644 0
M  V30 9634 C 910.169 1.84896 -3.09007 0
M  V30 9635 C 910.022 1.00883 -4.38341 0
M  V30 9636 C 911.341 2.83254 -3.36831 0
M  V30 9637 H 908.46 0.356056 -0.645286 0
M  V30 9638 H 911.102 0.254232 -1.88291 0
M  V30 9639 H 909.252 2.47058 -2.99825 0
M  V30 9640 H 910.924 0.40638 -4.59507 0
M  V30 9641 H 909.167 0.31297 -4.3267 0
M  V30 9642 H 909.838 1.64818 -5.2682 0
M  V30 9643 H 912.314 2.31228 -3.45937 0
M  V30 9644 H 911.19 3.40949 -4.30169 0
M  V30 9645 H 911.451 3.59407 -2.57447 0
M  V30 9646 N 910.51 1.48831 0.518367 0
M  V30 9647 C 911.756 1.57672 1.27543 0
M  V30 9648 C 912.089 0.254915 1.9252 0
M  V30 9649 O 911.364 -0.740107 1.79868 0
M  V30 9650 C 911.647 2.72345 2.35585 0
M  V30 9651 C 911.5 4.14267 1.75224 0
M  V30 9652 C 912.819 2.82726 3.37274 0
M  V30 9653 H 909.938 0.573926 0.462361 0
M  V30 9654 H 912.58 1.8105 0.576267 0
M  V30 9655 H 910.73 2.52543 2.95219 0
M  V30 9656 H 912.402 4.45539 1.19551 0
M  V30 9657 H 910.645 4.20724 1.05706 0
M  V30 9658 H 911.316 4.90345 2.53507 0
M  V30 9659 H 913.792 3.00699 2.8761 0
M  V30 9660 H 912.668 3.6467 4.10252 0
M  V30 9661 H 912.929 1.9136 3.9854 0
M  V30 9662 N 911.988 -0.768124 1.37614 0
M  V30 9663 C 913.399 -1.34462 1.29525 0
M  V30 9664 C 913.75 -1.96121 -0.0555168 0
M  V30 9665 O 912.875 -1.94069 -0.957406 0
M  V30 9666 C 913.47 -2.44475 2.34558 0
M  V30 9667 C 912.029 -2.97883 2.30093 0
M  V30 9668 C 911.176 -1.71131 2.18196 0
M  V30 9669 H 914.127 -0.568103 1.48183 0
M  V30 9670 H 914.148 -3.24047 1.99434 0
M  V30 9671 H 913.66 -1.99568 3.32858 0
M  V30 9672 H 911.761 -3.47156 1.35328 0
M  V30 9673 H 911.874 -3.53251 3.23652 0
M  V30 9674 H 910.238 -1.94197 1.64802 0
M  V30 9675 H 911.021 -1.28323 3.18415 0
M  V30 9676 N 913.466 -1.22244 -0.994698 0
M  V30 9677 C 914.414 -0.988118 -2.10568 0
M  V30 9678 C 915.408 0.0681541 -1.69263 0
M  V30 9679 O 916.614 -0.0841311 -1.79803 0
M  V30 9680 H 912.989 -0.302343 -0.688544 0
M  V30 9681 H 914.96 -1.93091 -2.27505 0
M  V30 9682 C 913.709 -0.580557 -3.42819 0
M  V30 9683 H 913.032 -1.385 -3.75044 0
M  V30 9684 H 914.472 -0.456004 -4.21541 0
M  V30 9685 C 912.931 0.709692 -3.2934 0
M  V30 9686 O 913.461 1.76259 -3.60965 0
M  V30 9687 N 911.667 0.680155 -2.82528 0
M  V30 9688 H 911.214 -0.176977 -2.56991 0
M  V30 9689 H 911.172 1.54372 -2.73892 0
M  V30 9690 N 914.944 1.19125 -1.03184 0
M  V30 9691 C 915.876 2.21914 -0.573294 0
M  V30 9692 C 916.889 1.5894 0.352397 0
M  V30 9693 O 918.078 1.77883 0.148318 0
M  V30 9694 C 915.178 3.38403 0.18355 0
M  V30 9695 C 914.351 4.3096 -0.747817 0
M  V30 9696 C 913.41 5.26188 -0.0358489 0
M  V30 9697 O 912.436 5.65321 -0.663388 0
M  V30 9698 N 913.638 5.67235 1.23387 0
M  V30 9699 H 916.403 2.61881 -1.45734 0
M  V30 9700 H 913.964 1.33821 -0.911231 0
M  V30 9701 H 915.956 3.99124 0.669468 0
M  V30 9702 H 914.526 2.97201 0.969043 0
M  V30 9703 H 913.746 3.67976 -1.41377 0
M  V30 9704 H 915.034 4.89708 -1.38071 0
M  V30 9705 H 914.432 5.37481 1.76439 0
M  V30 9706 H 912.989 6.30196 1.66423 0
M  V30 9707 N 916.422 0.810101 1.35185 0
M  V30 9708 C 917.369 0.220927 2.2974 0
M  V30 9709 C 918.339 -0.647024 1.5298 0
M  V30 9710 O 919.524 -0.591367 1.81404 0
M  V30 9711 C 916.664 -0.62167 3.39454 0
M  V30 9712 C 915.777 0.267104 4.31173 0
M  V30 9713 C 914.912 -0.583833 5.27982 0
M  V30 9714 C 913.951 0.305123 6.11339 0
M  V30 9715 N 913.088 -0.505992 7.00274 0
M  V30 9716 H 917.928 1.03266 2.79536 0
M  V30 9717 H 915.465 0.520768 1.37573 0
M  V30 9718 H 917.423 -1.12539 4.01735 0
M  V30 9719 H 916.053 -1.39863 2.90926 0
M  V30 9720 H 915.105 0.88895 3.69867 0
M  V30 9721 H 916.417 0.951182 4.89647 0
M  V30 9722 H 915.571 -1.15254 5.95652 0
M  V30 9723 H 914.31 -1.30146 4.70014 0
M  V30 9724 H 913.315 0.886075 5.42613 0
M  V30 9725 H 914.54 1.02067 6.71386 0
M  V30 9726 H 912.486 -1.20753 6.4479 0
M  V30 9727 H 912.403 0.119966 7.55905 0
M  V30 9728 H 913.671 -1.05787 7.72288 0
M  V30 9729 N 917.9 -1.47166 0.563914 0
M  V30 9730 C 919.316 -1.58018 0.224173 0
M  V30 9731 C 919.516 -1.56163 -1.27339 0
M  V30 9732 O 918.572 -1.4686 -2.05398 0
M  V30 9733 C 919.885 -2.88236 0.856762 0
M  V30 9734 C 921.433 -3.01833 0.82861 0
M  V30 9735 C 921.908 -4.34761 1.44039 0
M  V30 9736 N 923.399 -4.41413 1.40388 0
M  V30 9737 C 924.134 -5.42845 1.84681 0
M  V30 9738 N 923.63 -6.51052 2.3686 0
M  V30 9739 N 925.423 -5.33931 1.75711 0
M  V30 9740 H 917.574 -1.46615 1.53681 0
M  V30 9741 H 919.837 -0.698195 0.64127 0
M  V30 9742 H 919.543 -2.95349 1.90949 0
M  V30 9743 H 919.417 -3.75537 0.353766 0
M  V30 9744 H 921.804 -2.94312 -0.215451 0
M  V30 9745 H 921.885 -2.16056 1.36943 0
M  V30 9746 H 921.529 -4.43037 2.48355 0
M  V30 9747 H 921.459 -5.1928 0.874953 0
M  V30 9748 H 923.95 -3.63811 1.02227 0
M  V30 9749 H 924.263 -7.24633 2.68564 0
M  V30 9750 H 922.608 -6.51924 2.40875 0
M  V30 9751 H 925.799 -4.48295 1.34718 0
M  V30 9752 H 925.972 -6.12841 2.10547 0
M  V30 9753 N 919.378 -0.300708 -1.54705 0
M  V30 9754 C 920.308 0.568675 -2.26469 0
M  V30 9755 C 921.289 1.13817 -1.26411 0
M  V30 9756 O 922.474 1.16756 -1.55183 0
M  V30 9757 C 919.604 1.74077 -3.00524 0
M  V30 9758 C 918.558 1.30165 -4.07727 0
M  V30 9759 C 917.884 2.55888 -4.69495 0
M  V30 9760 C 919.184 0.433106 -5.20501 0
M  V30 9761 H 920.878 -0.0298851 -2.99385 0
M  V30 9762 H 918.424 -0.0158135 -1.43991 0
M  V30 9763 H 920.377 2.35506 -3.49449 0
M  V30 9764 H 919.101 2.36556 -2.25186 0
M  V30 9765 H 917.76 0.710414 -3.59651 0
M  V30 9766 H 917.408 3.16681 -3.90797 0
M  V30 9767 H 917.108 2.27207 -5.41895 0
M  V30 9768 H 918.632 3.18121 -5.21183 0
M  V30 9769 H 920.046 0.95307 -5.65322 0
M  V30 9770 H 918.443 0.240085 -5.9962 0
M  V30 9771 H 919.513 -0.541866 -4.81863 0
M  V30 9772 N 920.856 1.57574 -0.0284266 0
M  V30 9773 C 922.084 1.96071 0.660575 0
M  V30 9774 C 922.499 0.904881 1.65703 0
M  V30 9775 O 921.856 -0.113379 1.82147 0
M  V30 9776 C 921.907 3.34634 1.36756 0
M  V30 9777 O 921.628 4.36167 0.411041 0
M  V30 9778 C 923.129 3.87758 2.14845 0
M  V30 9779 H 920.349 0.645794 0.182183 0
M  V30 9780 H 922.893 2.04311 -0.0879858 0
M  V30 9781 H 921.048 3.27616 2.06753 0
M  V30 9782 H 921.462 5.16493 0.913 0
M  V30 9783 H 922.936 4.87058 2.59767 0
M  V30 9784 H 923.413 3.21967 2.9872 0
M  V30 9785 H 924.019 3.98043 1.49807 0
M  V30 9786 N 922.334 -0.244713 1.55689 0
M  V30 9787 C 923.264 -1.30667 1.93516 0
M  V30 9788 C 924.245 -1.50094 0.800371 0
M  V30 9789 O 925.43 -1.62665 1.06083 0
M  V30 9790 C 922.56 -2.66101 2.23176 0
M  V30 9791 C 921.514 -2.61366 3.38927 0
M  V30 9792 C 920.84 -4.00616 3.54134 0
M  V30 9793 C 922.14 -2.18161 4.74555 0
M  V30 9794 H 923.834 -0.992546 2.82469 0
M  V30 9795 H 921.38 -0.476018 1.35905 0
M  V30 9796 H 923.333 -3.4053 2.48228 0
M  V30 9797 H 922.057 -2.99154 1.31051 0
M  V30 9798 H 920.716 -1.89395 3.13887 0
M  V30 9799 H 920.364 -4.30938 2.59426 0
M  V30 9800 H 920.064 -3.98335 4.31975 0
M  V30 9801 H 921.588 -4.76741 3.8151 0
M  V30 9802 H 923.002 -2.82323 4.98965 0
M  V30 9803 H 921.399 -2.26988 5.55515 0
M  V30 9804 H 922.469 -1.13333 4.7147 0
M  V30 9805 N 923.813 -1.49104 -0.510467 0
M  V30 9806 C 924.743 -1.67981 -1.62187 0
M  V30 9807 C 925.724 -0.528529 -1.6168 0
M  V30 9808 O 926.909 -0.763305 -1.7857 0
M  V30 9809 C 924.039 -1.73755 -3.0071 0
M  V30 9810 C 922.993 -2.88579 -3.1608 0
M  V30 9811 C 922.319 -2.79457 -4.5586 0
M  V30 9812 C 923.619 -4.29638 -2.97 0
M  V30 9813 H 925.313 -2.61029 -1.46643 0
M  V30 9814 H 922.859 -1.25615 -0.704042 0
M  V30 9815 H 924.812 -1.85548 -3.78352 0
M  V30 9816 H 923.536 -0.772996 -3.17321 0
M  V30 9817 H 922.195 -2.76372 -2.40861 0
M  V30 9818 H 921.843 -1.80929 -4.69333 0
M  V30 9819 H 921.543 -3.56518 -4.67086 0
M  V30 9820 H 923.067 -2.93245 -5.35574 0
M  V30 9821 H 924.481 -4.42575 -3.64418 0
M  V30 9822 H 922.878 -5.07847 -3.19704 0
M  V30 9823 H 923.948 -4.44741 -1.93219 0
M  V30 9824 N 925.291 0.760815 -1.38019 0
M  V30 9825 C 926.254 1.85604 -1.34476 0
M  V30 9826 C 927.254 1.58897 -0.24666 0
M  V30 9827 O 928.444 1.66776 -0.50314 0
M  V30 9828 C 925.576 3.22945 -1.09176 0
M  V30 9829 H 926.769 1.90155 -2.31908 0
M  V30 9830 H 924.322 0.961746 -1.23208 0
M  V30 9831 H 925.057 3.24066 -0.123216 0
M  V30 9832 H 924.842 3.43723 -1.88672 0
M  V30 9833 H 926.332 4.03022 -1.09375 0
M  V30 9834 N 926.769 1.22769 0.988202 0
M  V30 9835 C 927.701 0.959757 2.08138 0
M  V30 9836 C 928.714 -0.0633787 1.62677 0
M  V30 9837 O 929.903 0.171203 1.77677 0
M  V30 9838 C 927.003 0.422724 3.36253 0
M  V30 9839 C 926.176 1.50419 4.10722 0
M  V30 9840 C 925.235 0.973407 5.17118 0
M  V30 9841 O 924.261 1.66066 5.44436 0
M  V30 9842 N 925.463 -0.202787 5.80146 0
M  V30 9843 H 928.228 1.9009 2.31702 0
M  V30 9844 H 925.789 1.13522 1.15431 0
M  V30 9845 H 927.781 0.0528514 4.04665 0
M  V30 9846 H 926.351 -0.423642 3.09716 0
M  V30 9847 H 925.571 2.04718 3.36874 0
M  V30 9848 H 926.859 2.23169 4.57245 0
M  V30 9849 H 926.257 -0.777856 5.60327 0
M  V30 9850 H 924.814 -0.513998 6.4977 0
M  V30 9851 N 928.247 -1.18576 1.03814 0
M  V30 9852 C 929.179 -2.21607 0.585055 0
M  V30 9853 C 930.192 -1.59125 -0.343963 0
M  V30 9854 O 931.381 -1.77959 -0.138882 0
M  V30 9855 C 928.481 -3.38495 -0.165602 0
M  V30 9856 C 927.654 -4.30557 0.770662 0
M  V30 9857 C 926.713 -5.26161 0.0637534 0
M  V30 9858 O 925.739 -5.64961 0.693359 0
M  V30 9859 N 926.941 -5.67882 -1.20377 0
M  V30 9860 H 929.706 -2.61104 1.47121 0
M  V30 9861 H 927.267 -1.33336 0.918316 0
M  V30 9862 H 929.259 -3.99474 -0.648292 0
M  V30 9863 H 927.829 -2.97711 -0.953268 0
M  V30 9864 H 927.049 -3.67221 1.43326 0
M  V30 9865 H 928.337 -4.88969 1.40667 0
M  V30 9866 H 927.735 -5.38409 -1.73586 0
M  V30 9867 H 926.292 -6.31069 -1.63079 0
M  V30 9868 N 929.725 -0.817259 -1.34754 0
M  V30 9869 C 930.672 -0.233108 -2.2962 0
M  V30 9870 C 931.642 0.638902 -1.53321 0
M  V30 9871 O 932.827 0.581739 -1.81715 0
M  V30 9872 C 929.967 0.603659 -3.39779 0
M  V30 9873 C 929.08 -0.289967 -4.31026 0
M  V30 9874 C 928.215 0.555825 -5.28284 0
M  V30 9875 C 927.254 -0.337539 -6.11169 0
M  V30 9876 N 926.391 0.468847 -7.00533 0
M  V30 9877 H 931.231 -1.04747 -2.78984 0
M  V30 9878 H 928.768 -0.528056 -1.37295 0
M  V30 9879 H 930.726 1.10407 -4.02326 0
M  V30 9880 H 929.356 1.38319 -2.91664 0
M  V30 9881 H 928.408 -0.908552 -3.69391 0
M  V30 9882 H 929.72 -0.977136 -4.89135 0
M  V30 9883 H 928.874 1.12094 -5.96255 0
M  V30 9884 H 927.613 1.27652 -4.70698 0
M  V30 9885 H 926.618 -0.914839 -5.42135 0
M  V30 9886 H 927.843 -1.05626 -6.70835 0
M  V30 9887 H 925.789 1.17332 -6.45422 0
M  V30 9888 H 925.706 -0.160052 -7.55831 0
M  V30 9889 H 926.974 1.01689 -7.72839 0
M  V30 9890 N 931.203 1.46865 -0.571711 0
M  V30 9891 C 932.451 2.0203 -0.0530022 0
M  V30 9892 C 932.772 1.44687 1.30731 0
M  V30 9893 O 932.042 0.627429 1.85581 0
M  V30 9894 H 930.622 0.746815 -0.0166035 0
M  V30 9895 H 933.284 1.80099 -0.745003 0
M  V30 9896 H 932.38 3.12091 0.0242538 0
M  V30 9897 N 932.681 0.308908 1.54543 0
M  V30 9898 C 933.927 -0.298478 2.00592 0
M  V30 9899 C 934.26 -1.52929 1.19692 0
M  V30 9900 O 933.535 -1.9254 0.27542 0
M  V30 9901 C 933.818 -0.647218 3.54236 0
M  V30 9902 C 933.671 0.593284 4.4587 0
M  V30 9903 C 934.99 -1.47064 4.14801 0
M  V30 9904 H 932.109 -0.107012 0.72919 0
M  V30 9905 H 934.751 0.422578 1.85241 0
M  V30 9906 H 932.901 -1.26153 3.67447 0
M  V30 9907 H 934.573 1.2317 4.44552 0
M  V30 9908 H 932.816 1.22501 4.16144 0
M  V30 9909 H 933.487 0.305018 5.51157 0
M  V30 9910 H 935.963 -0.951511 4.05075 0
M  V30 9911 H 934.839 -1.68343 5.22448 0
M  V30 9912 H 935.1 -2.4623 3.67183 0
M  V30 9913 N 934.159 -1.57557 0.0367827 0
M  V30 9914 C 935.069 -2.14148 -0.958017 0
M  V30 9915 C 936.085 -1.09564 -1.35173 0
M  V30 9916 O 937.261 -1.4166 -1.43158 0
M  V30 9917 C 934.326 -2.6636 -2.21931 0
M  V30 9918 C 933.387 -3.85688 -1.8853 0
M  V30 9919 C 932.62 -4.35401 -3.08645 0
M  V30 9920 O 932.843 -3.8425 -4.21554 0
M  V30 9921 O 931.777 -5.27158 -2.90497 0
M  V30 9922 H 935.603 -2.99442 -0.506797 0
M  V30 9923 H 933.188 -1.48259 -0.184275 0
M  V30 9924 H 935.07 -2.99976 -2.9596 0
M  V30 9925 H 933.745 -1.84145 -2.66219 0
M  V30 9926 H 932.652 -3.56985 -1.11861 0
M  V30 9927 H 933.985 -4.69089 -1.49052 0
M  V30 9928 N 935.637 0.236453 -1.55816 0
M  V30 9929 C 936.885 0.96111 -1.77784 0
M  V30 9930 C 937.206 1.85454 -0.602648 0
M  V30 9931 O 936.476 1.92157 0.381137 0
M  V30 9932 H 935.056 0.35787 -0.655697 0
M  V30 9933 H 937.718 0.251888 -1.93265 0
M  V30 9934 H 936.814 1.5767 -2.69345 0
M  V30 9935 N 937.115 1.49373 0.502552 0
M  V30 9936 C 938.343 1.62488 1.28084 0
M  V30 9937 C 938.758 0.295667 1.86471 0
M  V30 9938 O 938.115 -0.718664 1.67754 0
M  V30 9939 C 938.166 2.69249 2.4122 0
M  V30 9940 O 937.887 3.97014 1.85234 0
M  V30 9941 C 939.388 2.93054 3.32617 0
M  V30 9942 H 936.608 0.547068 0.388533 0
M  V30 9943 H 939.152 1.95394 0.603452 0
M  V30 9944 H 937.307 2.39125 3.04792 0
M  V30 9945 H 937.721 4.55809 2.59496 0
M  V30 9946 H 939.195 3.71493 4.08285 0
M  V30 9947 H 939.672 2.02911 3.89517 0
M  V30 9948 H 940.278 3.24589 2.74813 0
M  V30 9949 N 938.594 -0.753485 1.38421 0
M  V30 9950 C 939.84 -1.51391 1.35839 0
M  V30 9951 C 940.195 -1.92331 -0.0513518 0
M  V30 9952 O 939.488 -1.62568 -1.01401 0
M  V30 9953 C 939.682 -2.77836 2.24816 0
M  V30 9954 C 939.511 -2.49257 3.74301 0
M  V30 9955 C 938.281 -2.42471 4.43324 0
M  V30 9956 C 940.479 -2.16027 4.6673 0
M  V30 9957 N 938.461 -2.06168 5.78246 0
M  V30 9958 C 939.832 -1.90016 5.90164 0
M  V30 9959 C 941.887 -2.02337 4.54933 0
M  V30 9960 C 940.59 -1.51696 7.03122 0
M  V30 9961 C 942.616 -1.65419 5.67794 0
M  V30 9962 C 941.978 -1.40281 6.9029 0
M  V30 9963 H 938.077 -0.553561 0.552354 0
M  V30 9964 H 940.661 -0.877409 1.73809 0
M  V30 9965 H 938.832 -3.39295 1.89034 0
M  V30 9966 H 940.564 -3.43889 2.13359 0
M  V30 9967 H 937.319 -2.58946 3.9654 0
M  V30 9968 H 937.743 -1.90662 6.49598 0
M  V30 9969 H 942.385 -2.20447 3.60781 0
M  V30 9970 H 940.103 -1.32325 7.97192 0
M  V30 9971 H 943.689 -1.55459 5.60646 0
M  V30 9972 H 942.569 -1.12139 7.76141 0
M  V30 9973 N 940.072 -1.23292 -0.981677 0
M  V30 9974 C 941.318 -1.06582 -1.72535 0
M  V30 9975 C 941.651 0.396538 -1.90108 0
M  V30 9976 O 940.926 1.29363 -1.45243 0
M  V30 9977 C 941.209 -1.7904 -3.12437 0
M  V30 9978 C 941.062 -3.32941 -3.02441 0
M  V30 9979 C 942.381 -1.55185 -4.11832 0
M  V30 9980 H 939.5 -0.388585 -0.626236 0
M  V30 9981 H 942.142 -1.51779 -1.14293 0
M  V30 9982 H 940.292 -1.40619 -3.62158 0
M  V30 9983 H 941.964 -3.80875 -2.60254 0
M  V30 9984 H 940.207 -3.62039 -2.38977 0
M  V30 9985 H 940.878 -3.78827 -4.0149 0
M  V30 9986 H 943.354 -1.88581 -3.70913 0
M  V30 9987 H 942.23 -2.08362 -5.07815 0
M  V30 9988 H 942.491 -0.486925 -4.3941 0
M  V30 9989 N 941.55 1.18024 -1.04442 0
M  V30 9990 C 942.827 1.8398 -0.664125 0
M  V30 9991 C 943.207 1.92961 0.856116 0
M  V30 9992 O 942.555 1.45839 1.75907 0
M  V30 9993 C 942.765 3.22069 -1.34433 0
M  V30 9994 C 944.113 3.98063 -1.47754 0
M  V30 9995 O 945.137 3.31523 -1.30274 0
M  V30 9996 O 943.996 5.17291 -1.76272 0
M  V30 9997 H 941.09 0.793543 -0.23285 0
M  V30 9998 H 943.636 1.25385 -1.14354 0
M  V30 9999 H 942.408 3.10458 -2.38184 0
M  V30 10000 H 942.031 3.88325 -0.853782 0
M  V30 10001 N 943.028 0.824394 1.34319 0
M  V30 10002 C 944.277 0.40956 1.97498 0
M  V30 10003 C 944.59 -1.03323 1.66083 0
M  V30 10004 O 945.796 -1.55205 2.22764 0
M  V30 10005 C 944.252 0.681384 3.53391 0
M  V30 10006 C 943.86 2.1379 3.93698 0
M  V30 10007 C 945.604 0.332788 4.23194 0
M  V30 10008 C 943.511 2.35453 5.42509 0
M  V30 10009 H 942.441 0.149409 0.739049 0
M  V30 10010 H 945.092 1.01095 1.5314 0
M  V30 10011 H 943.474 0.00980375 3.95999 0
M  V30 10012 H 944.648 2.84876 3.62191 0
M  V30 10013 H 942.963 2.44807 3.36836 0
M  V30 10014 H 945.56 0.472463 5.32609 0
M  V30 10015 H 945.903 -0.722862 4.09976 0
M  V30 10016 H 946.436 0.959005 3.86067 0
M  V30 10017 H 943.175 3.39529 5.60714 0
M  V30 10018 H 942.695 1.68912 5.75525 0
M  V30 10019 H 944.374 2.17885 6.09209 0
M  V30 10020 N 944.506 -1.46559 0.579492 0
M  V30 10021 C 945.746 -2.04292 0.0664837 0
M  V30 10022 C 946.11 -1.44161 -1.26814 0
M  V30 10023 O 947.311 -1.93074 -1.87018 0
M  V30 10024 C 945.582 -3.574 -0.00167254 0
M  V30 10025 S 947.141 -4.36408 -0.457572 0
M  V30 10026 H 943.959 -0.710092 0.035913 0
M  V30 10027 H 946.561 -1.79644 0.771263 0
M  V30 10028 H 945.265 -3.98683 0.973666 0
M  V30 10029 H 944.796 -3.8658 -0.729321 0
M  V30 10030 H 946.811 -4.65695 -1.71296 0
M  V30 10031 N 945.984 -0.3171 -1.54377 0
M  V30 10032 C 946.932 0.567371 -2.25574 0
M  V30 10033 C 947.926 1.12387 -1.2675 0
M  V30 10034 O 949.132 1.07266 -1.44548 0
M  V30 10035 H 945.507 0.201605 -0.724472 0
M  V30 10036 H 947.478 -0.0554644 -2.98348 0
M  V30 10037 C 946.227 1.71984 -3.02187 0
M  V30 10038 H 945.55 1.30086 -3.78044 0
M  V30 10039 H 946.99 2.31443 -3.5526 0
M  V30 10040 C 945.449 2.6336 -2.10103 0
M  V30 10041 O 945.979 3.64899 -1.67962 0
M  V30 10042 N 944.185 2.3145 -1.75725 0
M  V30 10043 H 943.732 1.48921 -2.10191 0
M  V30 10044 H 943.69 2.92852 -1.14391 0
M  V30 10045 N 947.462 1.57535 -0.0451378 0
M  V30 10046 C 948.41 2.12351 0.949205 0
M  V30 10047 C 949.404 1.05386 1.32628 0
M  V30 10048 O 950.61 1.23802 1.30664 0
M  V30 10049 H 946.985 0.678648 0.323945 0
M  V30 10050 H 948.956 2.94806 0.461718 0
M  V30 10051 C 947.705 2.67862 2.21687 0
M  V30 10052 H 947.028 3.49826 1.93551 0
M  V30 10053 H 948.468 3.09844 2.89435 0
M  V30 10054 C 946.927 1.61353 2.95748 0
M  V30 10055 O 947.457 1.02276 3.88462 0
M  V30 10056 N 945.663 1.33017 2.5837 0
M  V30 10057 H 945.21 1.81246 1.83051 0
M  V30 10058 H 945.168 0.619812 3.0823 0
M  V30 10059 N 948.94 -0.228186 1.55939 0
M  V30 10060 C 950.351 -0.795734 1.68893 0
M  V30 10061 C 950.702 -1.85261 0.645967 0
M  V30 10062 O 949.827 -2.15434 -0.2042 0
M  V30 10063 C 950.422 -1.45013 3.06197 0
M  V30 10064 C 948.981 -1.96514 3.21028 0
M  V30 10065 C 948.128 -0.822918 2.64808 0
M  V30 10066 H 951.079 -0.0036485 1.587 0
M  V30 10067 H 951.1 -2.31875 3.01685 0
M  V30 10068 H 950.612 -0.680678 3.82084 0
M  V30 10069 H 948.713 -2.76282 2.49998 0
M  V30 10070 H 948.826 -2.14967 4.28166 0
M  V30 10071 H 947.19 -1.22846 2.23116 0
M  V30 10072 H 947.973 -0.0662493 3.43236 0
M  V30 10073 N 950.418 -1.49637 -0.494624 0
M  V30 10074 C 951.381 -1.66252 -1.57775 0
M  V30 10075 C 952.381 -0.534054 -1.51672 0
M  V30 10076 O 953.571 -0.800637 -1.54711 0
M  V30 10077 C 950.703 -1.66584 -2.97426 0
M  V30 10078 H 951.896 -2.62864 -1.4437 0
M  V30 10079 H 949.449 -1.38764 -0.719323 0
M  V30 10080 H 950.184 -0.715798 -3.16302 0
M  V30 10081 H 949.969 -2.48543 -3.03264 0
M  V30 10082 H 951.459 -1.81474 -3.76108 0
M  V30 10083 N 951.896 0.746133 -1.38819 0
M  V30 10084 C 952.829 1.86833 -1.31029 0
M  V30 10085 C 953.807 1.61533 -0.185948 0
M  V30 10086 O 954.991 1.84942 -0.364529 0
M  V30 10087 C 952.118 3.22596 -1.03198 0
M  V30 10088 C 951.164 3.66772 -2.17671 0
M  V30 10089 S 951.997 3.77438 -3.7987 0
M  V30 10090 C 953.153 5.16008 -3.54241 0
M  V30 10091 H 953.386 1.93155 -2.26005 0
M  V30 10092 H 950.919 0.909872 -1.24742 0
M  V30 10093 H 952.877 4.00995 -0.878237 0
M  V30 10094 H 951.538 3.13943 -0.0992704 0
M  V30 10095 H 950.731 4.65266 -1.93762 0
M  V30 10096 H 950.333 2.95547 -2.2919 0
M  V30 10097 H 952.625 6.01996 -3.10816 0
M  V30 10098 H 953.568 5.44941 -4.52156 0
M  V30 10099 H 953.976 4.85158 -2.88587 0
M  V30 10100 N 953.375 1.23811 0.975125 0
M  V30 10101 C 954.285 1.0408 2.10249 0
M  V30 10102 C 955.301 -0.0162404 1.73992 0
M  V30 10103 O 956.477 0.180346 2.00591 0
M  V30 10104 C 953.542 0.640013 3.40741 0
M  V30 10105 C 952.603 1.7727 3.90991 0
M  V30 10106 C 951.836 1.39094 5.15256 0
M  V30 10107 O 952.059 0.277483 5.69725 0
M  V30 10108 O 950.993 2.21392 5.59704 0
M  V30 10109 H 954.819 1.98575 2.29786 0
M  V30 10110 H 952.404 1.02563 1.08633 0
M  V30 10111 H 954.286 0.427684 4.19224 0
M  V30 10112 H 952.961 -0.27589 3.22522 0
M  V30 10113 H 951.868 2.03971 3.13602 0
M  V30 10114 H 953.201 2.66711 4.13674 0
M  V30 10115 N 954.853 -1.17469 1.05066 0
M  V30 10116 C 955.816 -2.19648 0.654793 0
M  V30 10117 C 956.816 -1.58107 -0.293063 0
M  V30 10118 O 958.006 -1.74029 -0.077106 0
M  V30 10119 C 955.138 -3.40878 -0.0384437 0
M  V30 10120 H 956.331 -2.56184 1.55915 0
M  V30 10121 H 953.884 -1.31528 0.844396 0
M  V30 10122 H 954.619 -3.09885 -0.956133 0
M  V30 10123 H 954.404 -3.86792 0.642961 0
M  V30 10124 H 955.894 -4.1651 -0.301568 0
M  V30 10125 N 956.331 -0.831506 -1.3388 0
M  V30 10126 C 957.241 -0.261688 -2.33136 0
M  V30 10127 C 958.257 0.608429 -1.63016 0
M  V30 10128 O 959.433 0.514297 -1.94723 0
M  V30 10129 C 956.498 0.559957 -3.42148 0
M  V30 10130 C 955.559 -0.333569 -4.28002 0
M  V30 10131 C 954.792 0.448956 -5.31808 0
M  V30 10132 O 955.015 1.6814 -5.45055 0
M  V30 10133 O 953.949 -0.173197 -6.01651 0
M  V30 10134 H 957.775 -1.08343 -2.83717 0
M  V30 10135 H 955.36 -0.593849 -1.3709 0
M  V30 10136 H 957.242 1.02712 -4.08691 0
M  V30 10137 H 955.917 1.35888 -2.93796 0
M  V30 10138 H 954.824 -0.848416 -3.64352 0
M  V30 10139 H 956.157 -1.09707 -4.79818 0
M  V30 10140 N 957.809 1.4625 -0.587256 0
M  V30 10141 C 959.058 2.01571 -0.0722643 0
M  V30 10142 C 959.371 1.46385 1.29733 0
M  V30 10143 O 960.577 1.93554 1.90392 0
M  V30 10144 C 959.033 3.59814 -0.078579 0
M  V30 10145 C 958.641 4.23996 -1.44678 0
M  V30 10146 C 960.385 4.22776 0.382231 0
M  V30 10147 C 958.292 5.74332 -1.41057 0
M  V30 10148 H 957.222 0.753642 -0.0232461 0
M  V30 10149 H 959.873 1.67936 -0.739577 0
M  V30 10150 H 958.255 3.90546 0.654988 0
M  V30 10151 H 959.429 4.04867 -2.20043 0
M  V30 10152 H 957.744 3.73147 -1.84799 0
M  V30 10153 H 960.341 5.32983 0.428182 0
M  V30 10154 H 960.684 3.92027 1.40072 0
M  V30 10155 H 961.217 3.96687 -0.297417 0
M  V30 10156 H 957.956 6.09747 -2.40601 0
M  V30 10157 H 957.476 5.95711 -0.699185 0
M  V30 10158 H 959.155 6.37137 -1.12543 0
M  V30 10159 N 959.287 0.325282 1.54207 0
M  V30 10160 C 960.217 -0.532574 2.27345 0
M  V30 10161 C 961.198 -1.11791 1.28206 0
M  V30 10162 O 962.383 -1.14272 1.57021 0
M  V30 10163 C 959.513 -1.69274 3.03255 0
M  V30 10164 C 958.467 -1.23662 4.09746 0
M  V30 10165 C 957.793 -2.48386 4.73506 0
M  V30 10166 C 959.093 -0.350244 5.21124 0
M  V30 10167 H 960.787 0.0775108 2.993 0
M  V30 10168 H 958.333 0.0387193 1.43948 0
M  V30 10169 H 960.286 -2.29917 3.53152 0
M  V30 10170 H 959.01 -2.32944 2.28921 0
M  V30 10171 H 957.669 -0.653106 3.60735 0
M  V30 10172 H 957.317 -3.10424 3.95786 0
M  V30 10173 H 957.017 -2.18558 5.45441 0
M  V30 10174 H 958.541 -3.09789 5.26178 0
M  V30 10175 H 959.955 -0.863011 5.66767 0
M  V30 10176 H 958.352 -0.14466 5.99926 0
M  V30 10177 H 959.422 0.618457 4.8094 0
M  V30 10178 N 960.765 -1.57509 0.0534917 0
M  V30 10179 C 961.712 -2.11667 -0.920101 0
M  V30 10180 C 962.682 -1.0246 -1.30733 0
M  V30 10181 O 963.867 -1.30021 -1.39639 0
M  V30 10182 C 961.007 -2.66803 -2.18883 0
M  V30 10183 C 960.12 -3.90104 -1.85588 0
M  V30 10184 C 959.255 -4.33547 -3.06937 0
M  V30 10185 C 958.294 -5.49542 -2.69573 0
M  V30 10186 N 957.431 -5.88029 -3.83623 0
M  V30 10187 H 962.271 -2.94562 -0.451371 0
M  V30 10188 H 959.808 -1.45576 -0.211168 0
M  V30 10189 H 961.766 -2.96871 -2.93127 0
M  V30 10190 H 960.396 -1.86702 -2.63329 0
M  V30 10191 H 959.448 -3.66613 -1.01484 0
M  V30 10192 H 960.76 -4.74404 -1.54087 0
M  V30 10193 H 959.914 -4.6518 -3.89477 0
M  V30 10194 H 958.653 -3.48064 -3.41618 0
M  V30 10195 H 957.658 -5.17579 -1.8545 0
M  V30 10196 H 958.883 -6.36743 -2.36082 0
M  V30 10197 H 956.829 -5.05498 -4.181 0
M  V30 10198 H 956.746 -6.67025 -3.55828 0
M  V30 10199 H 958.014 -6.24277 -4.66796 0
M  V30 10200 N 962.243 0.219913 -1.56058 0
M  V30 10201 C 963.153 1.29349 -1.95719 0
M  V30 10202 C 964.169 1.5119 -0.861248 0
M  V30 10203 O 965.345 1.64289 -1.16495 0
M  V30 10204 C 962.41 2.6229 -2.26726 0
M  V30 10205 C 961.471 2.48738 -3.49897 0
M  V30 10206 C 960.704 3.75339 -3.79416 0
M  V30 10207 O 960.927 4.78427 -3.10586 0
M  V30 10208 O 959.861 3.72352 -4.72903 0
M  V30 10209 H 963.687 0.986979 -2.87215 0
M  V30 10210 H 961.272 0.42291 -1.43289 0
M  V30 10211 H 963.154 3.408 -2.47857 0
M  V30 10212 H 961.829 2.92619 -1.38404 0
M  V30 10213 H 960.736 1.68422 -3.34043 0
M  V30 10214 H 962.069 2.23347 -4.38608 0
M  V30 10215 N 963.721 1.49897 0.486681 0
M  V30 10216 C 964.97 1.59349 1.23656 0
M  V30 10217 C 965.283 0.292024 1.93408 0
M  V30 10218 O 966.489 0.265258 2.70201 0
M  V30 10219 C 964.945 2.81215 2.24602 0
M  V30 10220 C 964.553 4.18177 1.60725 0
M  V30 10221 C 966.297 3.00004 3.00329 0
M  V30 10222 C 964.204 5.31247 2.59866 0
M  V30 10223 H 963.134 0.593363 0.465227 0
M  V30 10224 H 965.785 1.76306 0.508769 0
M  V30 10225 H 964.167 2.57783 3.00606 0
M  V30 10226 H 965.341 4.51802 0.90616 0
M  V30 10227 H 963.656 4.04864 0.973362 0
M  V30 10228 H 966.253 3.81649 3.74497 0
M  V30 10229 H 966.596 2.1112 3.58795 0
M  V30 10230 H 967.129 3.23544 2.3144 0
M  V30 10231 H 963.868 6.22236 2.06161 0
M  V30 10232 H 963.388 5.02059 3.28172 0
M  V30 10233 H 965.067 5.61177 3.22009 0
M  V30 10234 N 965.199 -0.738761 1.39212 0
M  V30 10235 C 966.615 -1.04381 1.20734 0
M  V30 10236 C 966.815 -2.01391 0.0663082 0
M  V30 10237 O 965.871 -2.45672 -0.583229 0
M  V30 10238 C 967.184 -1.6097 2.53987 0
M  V30 10239 C 968.732 -1.73069 2.60799 0
M  V30 10240 C 969.207 -2.33067 3.94264 0
M  V30 10241 N 970.698 -2.40481 3.95883 0
M  V30 10242 C 971.433 -2.87834 4.95923 0
M  V30 10243 N 970.929 -3.35111 6.0636 0
M  V30 10244 N 972.722 -2.87009 4.83304 0
M  V30 10245 H 964.873 -0.0952996 2.12186 0
M  V30 10246 H 967.136 -0.104902 0.942178 0
M  V30 10247 H 966.842 -0.971548 3.38015 0
M  V30 10248 H 966.716 -2.59829 2.73439 0
M  V30 10249 H 969.103 -2.36007 1.77157 0
M  V30 10250 H 969.184 -0.728728 2.452 0
M  V30 10251 H 968.828 -1.70758 4.78335 0
M  V30 10252 H 968.758 -3.33933 4.07181 0
M  V30 10253 H 971.249 -2.07061 3.16123 0
M  V30 10254 H 971.562 -3.69742 6.78609 0
M  V30 10255 H 969.907 -3.33129 6.09959 0
M  V30 10256 H 973.098 -2.49395 3.96131 0
M  V30 10257 H 973.271 -3.23598 5.61416 0
M  V30 10258 N 966.677 -1.24326 -0.968545 0
M  V30 10259 C 967.587 -1.05194 -2.09694 0
M  V30 10260 C 968.603 0.00701291 -1.73999 0
M  V30 10261 O 969.779 -0.190981 -2.00492 0
M  V30 10262 C 966.844 -0.658075 -3.40397 0
M  V30 10263 C 965.905 -1.79341 -3.90045 0
M  V30 10264 C 965.138 -1.41824 -5.14511 0
M  V30 10265 O 965.361 -0.307693 -5.69569 0
M  V30 10266 O 964.295 -2.24358 -5.58522 0
M  V30 10267 H 968.121 -1.99791 -2.2873 0
M  V30 10268 H 965.706 -1.03138 -1.08088 0
M  V30 10269 H 967.588 -0.449911 -4.18991 0
M  V30 10270 H 966.263 0.258782 -3.22664 0
M  V30 10271 H 965.17 -2.05632 -3.12516 0
M  V30 10272 H 966.503 -2.68901 -4.12254 0
M  V30 10273 N 968.156 1.1691 -1.05688 0
M  V30 10274 C 969.119 2.19297 -0.666433 0
M  V30 10275 C 970.119 1.5826 0.284674 0
M  V30 10276 O 971.309 1.74068 0.0678757 0
M  V30 10277 C 968.441 3.40894 0.0203656 0
M  V30 10278 H 969.634 2.55354 -1.57272 0
M  V30 10279 H 967.187 1.31078 -0.851359 0
M  V30 10280 H 967.922 3.10388 0.939686 0
M  V30 10281 H 967.707 3.86446 -0.663464 0
M  V30 10282 H 969.197 4.16664 0.279475 0
M  V30 10283 N 969.634 0.838594 1.33437 0
M  V30 10284 C 970.597 0.276843 2.27522 0
M  V30 10285 C 971.597 -0.554275 1.50945 0
M  V30 10286 O 972.787 -0.368107 1.70266 0
M  V30 10287 C 969.919 -0.610036 3.35397 0
M  V30 10288 H 971.112 1.10705 2.78719 0
M  V30 10289 H 968.665 0.611657 1.43835 0
M  V30 10290 H 969.4 -1.46269 2.89441 0
M  V30 10291 H 969.185 -0.0153615 3.92097 0
M  V30 10292 H 970.675 -0.996368 4.05539 0
M  V30 10293 N 971.112 -1.45937 0.595003 0
M  V30 10294 C 972.06 -2.32155 -0.143798 0
M  V30 10295 C 973.054 -1.45221 -0.872198 0
M  V30 10296 O 974.26 -1.61777 -0.789191 0
M  V30 10297 H 970.635 -0.749165 -0.0652377 0
M  V30 10298 H 972.606 -2.92264 0.602005 0
M  V30 10299 C 971.355 -3.28615 -1.13611 0
M  V30 10300 H 970.678 -3.95496 -0.585044 0
M  V30 10301 H 972.118 -3.91699 -1.62321 0
M  V30 10302 C 970.577 -2.54863 -2.20333 0
M  V30 10303 O 971.107 -2.32071 -3.27881 0
M  V30 10304 N 969.313 -2.15213 -1.95274 0
M  V30 10305 H 968.86 -2.33949 -1.07822 0
M  V30 10306 H 968.818 -1.66188 -2.66888 0
M  V30 10307 N 972.59 -0.333456 -1.54032 0
M  V30 10308 C 973.553 0.515392 -2.2333 0
M  V30 10309 C 974.553 1.03566 -1.23007 0
M  V30 10310 O 975.743 0.926514 -1.47517 0
M  V30 10311 C 972.875 1.7169 -2.94508 0
M  V30 10312 H 974.068 -0.0905407 -2.99763 0
M  V30 10313 H 971.621 -0.0846651 -1.56071 0
M  V30 10314 H 972.356 2.3618 -2.22237 0
M  V30 10315 H 972.141 1.35115 -3.68085 0
M  V30 10316 H 973.631 2.31922 -3.47278 0
M  V30 10317 N 974.068 1.57479 -0.061844 0
M  V30 10318 C 975.001 2.07734 0.94455 0
M  V30 10319 C 975.979 0.980207 1.29733 0
M  V30 10320 O 977.163 1.2529 1.40836 0
M  V30 10321 C 974.29 2.52673 2.25553 0
M  V30 10322 C 973.336 3.73725 2.05503 0
M  V30 10323 S 974.169 5.18886 1.32354 0
M  V30 10324 C 975.325 5.67148 2.64753 0
M  V30 10325 H 975.558 2.92772 0.516888 0
M  V30 10326 H 973.091 1.53663 0.150684 0
M  V30 10327 H 975.049 2.79226 3.00904 0
M  V30 10328 H 973.71 1.67921 2.65445 0
M  V30 10329 H 972.903 4.03125 3.025 0
M  V30 10330 H 972.505 3.47494 1.3829 0
M  V30 10331 H 974.797 5.73385 3.60882 0
M  V30 10332 H 975.74 6.66196 2.39976 0
M  V30 10333 H 976.148 4.94921 2.71502 0
M  V30 10334 N 975.546 -0.211634 1.56173 0
M  V30 10335 C 976.493 -1.26231 1.93221 0
M  V30 10336 C 977.463 -1.46076 0.790641 0
M  V30 10337 O 978.648 -1.59482 1.04739 0
M  V30 10338 C 975.788 -2.60559 2.26281 0
M  V30 10339 C 974.901 -2.48431 3.5342 0
M  V30 10340 C 974.036 -3.7535 3.7588 0
M  V30 10341 C 973.075 -3.57985 4.96501 0
M  V30 10342 N 972.212 -4.76877 5.15299 0
M  V30 10343 H 977.052 -0.939367 2.82807 0
M  V30 10344 H 974.589 -0.452511 1.39967 0
M  V30 10345 H 976.547 -3.38796 2.43461 0
M  V30 10346 H 975.177 -2.9093 1.39855 0
M  V30 10347 H 974.229 -1.61577 3.44379 0
M  V30 10348 H 975.541 -2.31526 4.41811 0
M  V30 10349 H 974.695 -4.62029 3.9321 0
M  V30 10350 H 973.434 -3.95191 2.85788 0
M  V30 10351 H 972.439 -2.69691 4.79111 0
M  V30 10352 H 973.664 -3.39605 5.88086 0
M  V30 10353 H 971.61 -4.97013 4.28152 0
M  V30 10354 H 971.527 -4.62735 5.9784 0
M  V30 10355 H 972.795 -5.64954 5.37073 0
M  V30 10356 N 977.024 -1.50153 -0.478725 0
M  V30 10357 C 977.954 -1.71384 -1.58587 0
M  V30 10358 C 978.935 -0.562705 -1.60523 0
M  V30 10359 O 980.12 -0.80101 -1.76911 0
M  V30 10360 C 977.25 -1.80094 -2.96957 0
M  V30 10361 C 976.204 -2.95218 -3.09888 0
M  V30 10362 C 975.53 -2.89063 -4.49829 0
M  V30 10363 C 976.83 -4.35841 -2.8782 0
M  V30 10364 H 978.524 -2.64081 -1.41073 0
M  V30 10365 H 976.07 -1.27081 -0.677239 0
M  V30 10366 H 978.023 -1.93531 -3.74331 0
M  V30 10367 H 976.747 -0.840131 -3.1561 0
M  V30 10368 H 975.406 -2.81419 -2.34944 0
M  V30 10369 H 975.054 -1.90844 -4.6539 0
M  V30 10370 H 974.754 -3.66345 -4.59418 0
M  V30 10371 H 976.278 -3.04539 -5.29234 0
M  V30 10372 H 977.692 -4.50205 -3.54948 0
M  V30 10373 H 976.089 -5.14515 -3.0886 0
M  V30 10374 H 977.159 -4.48739 -1.83742 0
M  V30 10375 N 978.502 0.731368 -1.39602 0
M  V30 10376 C 979.412 1.87579 -1.40894 0
M  V30 10377 C 980.428 1.71336 -0.303319 0
M  V30 10378 O 981.604 1.93875 -0.545377 0
M  V30 10379 C 978.669 3.23211 -1.25442 0
M  V30 10380 C 977.73 3.51822 -2.46008 0
M  V30 10381 C 976.963 4.80982 -2.31284 0
M  V30 10382 O 977.186 5.54958 -1.31824 0
M  V30 10383 O 976.12 5.09574 -3.20341 0
M  V30 10384 H 979.946 1.89444 -2.3737 0
M  V30 10385 H 977.531 0.879675 -1.20756 0
M  V30 10386 H 979.413 4.04257 -1.18972 0
M  V30 10387 H 978.088 3.22108 -0.320637 0
M  V30 10388 H 976.995 2.70847 -2.58055 0
M  V30 10389 H 978.328 3.57707 -3.38093 0
M  V30 10390 N 979.98 1.24838 0.961938 0
M  V30 10391 C 981.396 1.01502 1.23165 0
M  V30 10392 C 981.596 -0.272651 1.99647 0
M  V30 10393 O 980.652 -0.987297 2.32398 0
M  V30 10394 C 981.965 2.23366 2.01316 0
M  V30 10395 C 983.513 2.28051 2.14387 0
M  V30 10396 C 983.988 3.49552 2.95935 0
M  V30 10397 N 985.479 3.49904 3.03515 0
M  V30 10398 C 986.214 4.40577 3.66987 0
M  V30 10399 N 985.71 5.41512 4.3213 0
M  V30 10400 N 987.503 4.28275 3.64056 0
M  V30 10401 H 979.654 2.07576 0.450086 0
M  V30 10402 H 981.917 0.911205 0.261551 0
M  V30 10403 H 981.623 3.16913 1.5251 0
M  V30 10404 H 981.497 2.25949 3.02038 0
M  V30 10405 H 983.884 1.35032 2.62393 0
M  V30 10406 H 983.965 2.29491 1.12994 0
M  V30 10407 H 983.609 4.42889 2.4862 0
M  V30 10408 H 983.539 3.45357 3.97538 0
M  V30 10409 H 986.03 2.76885 2.57183 0
M  V30 10410 H 986.343 6.06924 4.78396 0
M  V30 10411 H 984.688 5.45393 4.3078 0
M  V30 10412 H 987.879 3.48653 3.12344 0
M  V30 10413 H 988.052 4.99138 4.13237 0
M  V30 10414 N 981.458 -1.16348 1.06306 0
M  V30 10415 C 982.705 -1.86881 0.779852 0
M  V30 10416 C 983.033 -1.8171 -0.693668 0
M  V30 10417 O 982.288 -1.22769 -1.52401 0
M  V30 10418 C 982.587 -3.35936 1.21991 0
M  V30 10419 C 982.253 -3.61307 2.69756 0
M  V30 10420 C 980.915 -3.6794 3.10119 0
M  V30 10421 C 983.267 -3.71871 3.65187 0
M  V30 10422 C 980.595 -3.82639 4.44752 0
M  V30 10423 C 982.947 -3.88091 4.99568 0
M  V30 10424 C 981.611 -3.92967 5.39568 0
M  V30 10425 H 980.881 -0.683847 0.285368 0
M  V30 10426 H 983.528 -1.37569 1.33218 0
M  V30 10427 H 981.833 -3.87381 0.586774 0
M  V30 10428 H 983.53 -3.88895 0.977821 0
M  V30 10429 H 980.12 -3.56777 2.37504 0
M  V30 10430 H 984.304 -3.66057 3.35136 0
M  V30 10431 H 979.56 -3.84666 4.75228 0
M  V30 10432 H 983.734 -3.95207 5.73397 0
M  V30 10433 H 981.361 -4.04109 6.43895 0
M  V30 10434 N 982.937 -0.845659 -1.3299 0
M  V30 10435 C 983.847 -0.2864 -2.32845 0
M  V30 10436 C 984.863 0.591105 -1.63652 0
M  V30 10437 O 986.039 0.493615 -1.95257 0
M  V30 10438 C 983.104 0.523636 -3.42723 0
M  V30 10439 C 982.165 -0.378945 -4.27624 0
M  V30 10440 C 981.398 0.392526 -5.32255 0
M  V30 10441 O 981.621 1.6235 -5.46808 0
M  V30 10442 O 980.555 -0.237 -6.01433 0
M  V30 10443 H 984.381 -1.11346 -2.82552 0
M  V30 10444 H 981.966 -0.608356 -1.36453 0
M  V30 10445 H 983.848 0.983718 -4.09757 0
M  V30 10446 H 982.523 1.32764 -2.95221 0
M  V30 10447 H 981.43 -0.887012 -3.63432 0
M  V30 10448 H 982.763 -1.1479 -4.78627 0
M  V30 10449 N 984.415 1.45619 -0.602734 0
M  V30 10450 C 985.664 2.01483 -0.0936395 0
M  V30 10451 C 985.977 1.47753 1.28173 0
M  V30 10452 O 987.183 1.95562 1.88329 0
M  V30 10453 C 985.639 3.59711 -0.116738 0
M  V30 10454 C 985.247 4.22437 -1.49166 0
M  V30 10455 C 986.991 4.23157 0.337368 0
M  V30 10456 C 984.898 5.72803 -1.47141 0
M  V30 10457 H 983.828 0.753353 -0.0312382 0
M  V30 10458 H 986.479 1.67142 -0.757347 0
M  V30 10459 H 984.861 3.91218 0.613529 0
M  V30 10460 H 986.035 4.02511 -2.24325 0
M  V30 10461 H 984.35 3.71166 -1.88746 0
M  V30 10462 H 986.947 5.33407 0.371628 0
M  V30 10463 H 987.29 3.93491 1.35906 0
M  V30 10464 H 987.823 3.96349 -0.339474 0
M  V30 10465 H 984.562 6.07161 -2.47055 0
M  V30 10466 H 984.082 5.94936 -0.762329 0
M  V30 10467 H 985.761 6.35907 -1.19294 0
M  V30 10468 N 985.893 0.34162 1.53853 0
M  V30 10469 C 987.304 -0.14269 1.86154 0
M  V30 10470 C 987.655 -1.50151 1.2629 0
M  V30 10471 O 986.78 -2.08601 0.575735 0
M  V30 10472 C 987.375 -0.265691 3.37757 0
M  V30 10473 C 985.934 -0.694231 3.69942 0
M  V30 10474 C 985.081 0.173195 2.76759 0
M  V30 10475 H 988.032 0.561284 1.48443 0
M  V30 10476 H 988.053 -1.09352 3.64448 0
M  V30 10477 H 987.565 0.723424 3.81298 0
M  V30 10478 H 985.666 -1.69244 3.31945 0
M  V30 10479 H 985.779 -0.485461 4.76634 0
M  V30 10480 H 984.143 -0.35416 2.52226 0
M  V30 10481 H 984.926 1.15941 3.23129 0
M  V30 10482 N 987.371 -1.57444 0.0701946 0
M  V30 10483 C 988.62 -1.92605 -0.598849 0
M  V30 10484 C 988.933 -0.952058 -1.70866 0
M  V30 10485 O 990.139 -1.19643 -2.43716 0
M  V30 10486 C 988.595 -3.42142 -1.11655 0
M  V30 10487 C 988.203 -4.47984 -0.0378355 0
M  V30 10488 C 989.947 -3.86307 -1.75975 0
M  V30 10489 C 987.854 -5.88652 -0.569495 0
M  V30 10490 H 986.784 -0.718873 -0.22746 0
M  V30 10491 H 989.435 -1.82948 0.14217 0
M  V30 10492 H 987.817 -3.46866 -1.91049 0
M  V30 10493 H 988.991 -4.54874 0.736661 0
M  V30 10494 H 987.306 -4.13277 0.50904 0
M  V30 10495 H 989.903 -4.88784 -2.16782 0
M  V30 10496 H 990.246 -3.23587 -2.61911 0
M  V30 10497 H 990.779 -3.84179 -1.03206 0
M  V30 10498 H 987.518 -6.55013 0.252662 0
M  V30 10499 H 987.038 -5.85285 -1.31155 0
M  V30 10500 H 988.717 -6.38482 -1.04641 0
M  V30 10501 N 988.849 0.203349 -1.56283 0
M  V30 10502 C 989.796 1.25205 -1.93888 0
M  V30 10503 C 990.766 1.45654 -0.798376 0
M  V30 10504 O 991.951 1.58924 -1.05583 0
M  V30 10505 C 989.091 2.59355 -2.27659 0
M  V30 10506 C 988.204 2.46553 -3.54733 0
M  V30 10507 C 987.339 3.73351 -3.77865 0
M  V30 10508 C 986.378 3.55347 -4.98392 0
M  V30 10509 N 985.515 4.74137 -5.17821 0
M  V30 10510 H 990.355 0.924356 -2.83301 0
M  V30 10511 H 987.892 0.445082 -1.40205 0
M  V30 10512 H 989.85 3.375 -2.45254 0
M  V30 10513 H 988.48 2.90184 -1.41396 0
M  V30 10514 H 987.532 1.59749 -3.45231 0
M  V30 10515 H 988.844 2.2918 -4.43033 0
M  V30 10516 H 987.998 4.59937 -3.95655 0
M  V30 10517 H 986.737 3.9367 -2.8788 0
M  V30 10518 H 985.742 2.67146 -4.80534 0
M  V30 10519 H 986.967 3.36482 -5.89879 0
M  V30 10520 H 984.913 4.94735 -4.30782 0
M  V30 10521 H 984.83 4.59558 -6.00285 0
M  V30 10522 H 986.098 5.62098 -5.40061 0
M  V30 10523 N 990.327 1.50405 0.470755 0
M  V30 10524 C 991.573 1.6165 1.22462 0
M  V30 10525 C 991.906 0.316034 1.91611 0
M  V30 10526 O 991.181 -0.682509 1.82132 0
M  V30 10527 C 991.464 2.79702 2.26801 0
M  V30 10528 C 991.317 4.19631 1.61955 0
M  V30 10529 C 992.636 2.93313 3.28109 0
M  V30 10530 H 989.755 0.588345 0.443868 0
M  V30 10531 H 992.397 1.82792 0.518376 0
M  V30 10532 H 990.547 2.61807 2.87036 0
M  V30 10533 H 992.219 4.49117 1.05316 0
M  V30 10534 H 990.462 4.23874 0.922674 0
M  V30 10535 H 991.133 4.98162 2.37779 0
M  V30 10536 H 993.609 3.09697 2.77897 0
M  V30 10537 H 992.485 3.77537 3.98443 0
M  V30 10538 H 992.746 2.03942 3.9225 0
M  V30 10539 N 991.805 -0.723954 1.39988 0
M  V30 10540 C 993.221 -1.03095 1.21834 0
M  V30 10541 C 993.421 -2.01309 0.0876647 0
M  V30 10542 O 992.477 -2.46277 -0.55714 0
M  V30 10543 C 993.79 -1.58267 2.5568 0
M  V30 10544 C 995.338 -1.70293 2.6262 0
M  V30 10545 C 995.813 -2.28872 3.96713 0
M  V30 10546 N 997.304 -2.36269 3.98411 0
M  V30 10547 C 998.039 -2.82557 4.98948 0
M  V30 10548 N 997.535 -3.28661 6.0988 0
M  V30 10549 N 999.328 -2.81866 4.86321 0
M  V30 10550 H 991.479 -0.0727891 2.12275 0
M  V30 10551 H 993.742 -0.0949029 0.943238 0
M  V30 10552 H 993.448 -0.935642 3.39026 0
M  V30 10553 H 993.322 -2.56914 2.76179 0
M  V30 10554 H 995.709 -2.34115 1.7965 0
M  V30 10555 H 995.79 -0.70268 2.45959 0
M  V30 10556 H 995.434 -1.65675 4.80119 0
M  V30 10557 H 995.364 -3.29595 4.107 0
M  V30 10558 H 997.855 -2.03697 3.18302 0
M  V30 10559 H 998.168 -3.62524 6.82493 0
M  V30 10560 H 996.513 -3.26641 6.13458 0
M  V30 10561 H 999.704 -2.45179 3.98754 0
M  V30 10562 H 999.877 -3.17626 5.64817 0
M  V30 10563 N 993.283 -1.25346 -0.955304 0
M  V30 10564 C 994.213 -1.08152 -2.06943 0
M  V30 10565 C 995.194 0.00922598 -1.70097 0
M  V30 10566 O 996.379 -0.160181 -1.93538 0
M  V30 10567 C 993.509 -0.698745 -3.40198 0
M  V30 10568 C 992.463 -1.73965 -3.9105 0
M  V30 10569 C 991.789 -1.21158 -5.20792 0
M  V30 10570 C 993.089 -3.13829 -4.17503 0
M  V30 10571 H 994.783 -2.01345 -2.21586 0
M  V30 10572 H 992.329 -0.969459 -1.06478 0
M  V30 10573 H 994.282 -0.565394 -4.1759 0
M  V30 10574 H 993.006 0.268892 -3.25491 0
M  V30 10575 H 991.665 -1.86143 -3.15827 0
M  V30 10576 H 991.313 -0.234193 -5.02455 0
M  V30 10577 H 991.013 -1.90728 -5.55785 0
M  V30 10578 H 992.537 -1.09061 -6.00781 0
M  V30 10579 H 993.951 -3.04809 -4.85556 0
M  V30 10580 H 992.348 -3.80863 -4.63749 0
M  V30 10581 H 993.418 -3.6094 -3.23806 0
M  V30 10582 N 994.761 1.15782 -1.06922 0
M  V30 10583 C 995.986 1.90896 -0.810771 0
M  V30 10584 C 996.411 1.77246 0.629714 0
M  V30 10585 O 995.769 1.10215 1.43953 0
M  V30 10586 C 995.817 3.39397 -1.21829 0
M  V30 10587 O 994.921 4.10818 -0.360934 0
M  V30 10588 H 994.262 0.594497 -0.295752 0
M  V30 10589 H 996.792 1.46652 -1.42669 0
M  V30 10590 H 996.802 3.90181 -1.19259 0
M  V30 10591 H 995.477 3.4865 -2.2675 0
M  V30 10592 H 994.054 3.7019 -0.448748 0
M  V30 10593 N 996.239 0.8527 1.3254 0
M  V30 10594 C 997.65 0.510012 1.79599 0
M  V30 10595 C 998.001 -0.972002 1.70431 0
M  V30 10596 O 997.126 -1.7581 1.26173 0
M  V30 10597 C 997.721 0.918986 3.26098 0
M  V30 10598 C 996.28 0.628227 3.7112 0
M  V30 10599 C 995.427 1.11979 2.53685 0
M  V30 10600 H 998.378 1.04009 1.19866 0
M  V30 10601 H 998.399 0.234577 3.79776 0
M  V30 10602 H 997.911 1.99765 3.32739 0
M  V30 10603 H 996.012 -0.4398 3.69995 0
M  V30 10604 H 996.125 1.19315 4.64005 0
M  V30 10605 H 994.489 0.540133 2.48907 0
M  V30 10606 H 995.272 2.20552 2.63081 0
M  V30 10607 N 997.718 -1.45297 0.610449 0
M  V30 10608 C 998.628 -2.34349 -0.108475 0
M  V30 10609 C 999.644 -1.51409 -0.857397 0
M  V30 10610 O 1000.82 -1.84202 -0.814337 0
M  V30 10611 C 997.885 -3.29072 -1.09144 0
M  V30 10612 C 996.946 -4.27918 -0.344165 0
M  V30 10613 C 996.179 -5.18116 -1.28031 0
M  V30 10614 O 996.402 -5.11802 -2.51824 0
M  V30 10615 O 995.336 -5.96879 -0.775821 0
M  V30 10616 H 999.162 -2.97232 0.623421 0
M  V30 10617 H 996.747 -1.44728 0.3707 0
M  V30 10618 H 998.629 -3.87433 -1.65751 0
M  V30 10619 H 997.304 -2.68749 -1.80431 0
M  V30 10620 H 996.211 -3.73164 0.264437 0
M  V30 10621 H 997.544 -4.91104 0.328275 0
M  V30 10622 N 999.196 -0.349774 -1.5367 0
M  V30 10623 C 1000.61 0.132815 -1.86227 0
M  V30 10624 C 1000.96 1.49479 -1.27084 0
M  V30 10625 O 1000.08 2.08292 -0.58679 0
M  V30 10626 C 1000.68 0.247775 -3.37893 0
M  V30 10627 C 999.237 0.674603 -3.70305 0
M  V30 10628 C 998.384 -0.187869 -2.76663 0
M  V30 10629 H 1001.33 -0.569148 -1.48143 0
M  V30 10630 H 1001.36 1.07418 -3.65023 0
M  V30 10631 H 1000.87 -0.743635 -3.80909 0
M  V30 10632 H 998.969 1.67481 -3.32837 0
M  V30 10633 H 999.082 0.460177 -4.76885 0
M  V30 10634 H 997.446 0.340779 -2.5241 0
M  V30 10635 H 998.229 -1.17653 -3.2251 0
M  V30 10636 N 1000.67 1.57404 -0.0785433 0
M  V30 10637 C 1001.92 1.9484 0.583853 0
M  V30 10638 C 1002.27 0.958758 1.6681 0
M  V30 10639 O 1001.57 -0.0179065 1.91592 0
M  V30 10640 C 1001.76 3.36684 1.1991 0
M  V30 10641 C 1001.59 4.49356 0.175978 0
M  V30 10642 C 1000.36 5.04721 -0.241733 0
M  V30 10643 C 1002.56 5.10911 -0.589415 0
M  V30 10644 N 1000.54 6.00938 -1.25485 0
M  V30 10645 C 1001.91 6.0269 -1.45483 0
M  V30 10646 C 1003.97 4.93708 -0.644746 0
M  V30 10647 C 1002.67 6.79111 -2.37066 0
M  V30 10648 C 1004.7 5.70778 -1.54812 0
M  V30 10649 C 1004.06 6.6221 -2.40119 0
M  V30 10650 H 1000.16 0.75993 0.184472 0
M  V30 10651 H 1002.74 1.94064 -0.157259 0
M  V30 10652 H 1000.91 3.38186 1.91011 0
M  V30 10653 H 1002.64 3.6134 1.82251 0
M  V30 10654 H 999.399 4.73385 0.142732 0
M  V30 10655 H 999.823 6.53746 -1.75912 0
M  V30 10656 H 1004.46 4.228 0.000601434 0
M  V30 10657 H 1002.18 7.49292 -3.02634 0
M  V30 10658 H 1005.77 5.59485 -1.59586 0
M  V30 10659 H 1004.65 7.20804 -3.08887 0
M  V30 10660 N 1002.15 -0.195058 1.56388 0
M  V30 10661 C 1003.38 -0.931642 1.84738 0
M  V30 10662 C 1003.79 -1.76849 0.661046 0
M  V30 10663 O 1003.15 -1.78705 -0.370241 0
M  V30 10664 C 1003.2 -1.82777 3.11889 0
M  V30 10665 O 1002.92 -1.02471 4.25948 0
M  V30 10666 C 1004.42 -2.67603 3.53417 0
M  V30 10667 H 1001.64 -0.271821 0.613477 0
M  V30 10668 H 1004.19 -0.202299 2.03497 0
M  V30 10669 H 1002.34 -2.51074 2.95027 0
M  V30 10670 H 1002.76 -1.63539 4.98353 0
M  V30 10671 H 1004.23 -3.26138 4.45352 0
M  V30 10672 H 1004.71 -3.41314 2.76408 0
M  V30 10673 H 1005.31 -2.04678 3.7281 0
M  V30 10674 N 1003.63 -1.50653 -0.462772 0
M  V30 10675 C 1005.04 -1.54821 -1.04342 0
M  V30 10676 C 1005.39 -0.356595 -1.92932 0
M  V30 10677 O 1004.52 0.529579 -2.0982 0
M  V30 10678 C 1005.11 -2.80571 -1.89909 0
M  V30 10679 C 1003.67 -2.87394 -2.43067 0
M  V30 10680 C 1002.82 -2.49206 -1.21621 0
M  V30 10681 H 1005.77 -1.56797 -0.245048 0
M  V30 10682 H 1005.79 -2.62897 -2.75074 0
M  V30 10683 H 1005.3 -3.67281 -1.25405 0
M  V30 10684 H 1003.4 -2.05055 -3.111 0
M  V30 10685 H 1003.52 -3.90477 -2.77605 0
M  V30 10686 H 1001.88 -2.01829 -1.55361 0
M  V30 10687 H 1002.66 -3.38233 -0.587669 0
M  V30 10688 N 1005.11 0.71652 -1.4037 0
M  V30 10689 C 1006.02 1.86074 -1.42876 0
M  V30 10690 C 1007.03 1.71005 -0.321475 0
M  V30 10691 O 1008.21 1.93286 -0.565909 0
M  V30 10692 C 1005.28 3.21862 -1.28863 0
M  V30 10693 C 1004.34 3.49193 -2.49726 0
M  V30 10694 C 1003.57 4.78502 -2.36372 0
M  V30 10695 O 1003.79 5.53529 -1.37703 0
M  V30 10696 O 1002.73 5.06147 -3.25728 0
M  V30 10697 H 1006.55 1.86916 -2.39366 0
M  V30 10698 H 1004.14 0.866818 -1.21683 0
M  V30 10699 H 1006.02 4.02972 -1.23253 0
M  V30 10700 H 1004.69 3.2175 -0.354783 0
M  V30 10701 H 1003.6 2.68095 -2.60913 0
M  V30 10702 H 1004.93 3.54101 -3.41868 0
M  V30 10703 N 1006.59 1.25851 0.948643 0
M  V30 10704 C 1007.81 1.13711 1.72851 0
M  V30 10705 C 1008.23 -0.308471 1.86263 0
M  V30 10706 O 1007.59 -1.21175 1.36465 0
M  V30 10707 C 1007.64 1.79271 3.13918 0
M  V30 10708 O 1007.36 3.18179 3.01154 0
M  V30 10709 C 1008.86 1.72988 4.08154 0
M  V30 10710 H 1006.08 0.396334 0.541443 0
M  V30 10711 H 1008.62 1.66329 1.18974 0
M  V30 10712 H 1006.78 1.30609 3.64719 0
M  V30 10713 H 1007.19 3.50507 3.90186 0
M  V30 10714 H 1008.67 2.2351 5.04725 0
M  V30 10715 H 1009.14 0.694866 4.33668 0
M  V30 10716 H 1009.75 2.21166 3.63271 0
M  V30 10717 N 1008.06 -1.15214 1.07534 0
M  V30 10718 C 1009.31 -1.85676 0.79805 0
M  V30 10719 C 1009.63 -1.82837 -0.677919 0
M  V30 10720 O 1008.9 -1.27059 -1.49107 0
M  V30 10721 H 1007.48 -0.687468 0.292227 0
M  V30 10722 H 1010.15 -1.39658 1.35947 0
M  V30 10723 H 1009.24 -2.9076 1.13423 0
M  V30 10724 N 1009.54 -0.859717 -1.32086 0
M  V30 10725 C 1010.47 -0.323502 -2.31248 0
M  V30 10726 C 1011.45 0.580085 -1.59903 0
M  V30 10727 O 1012.64 0.499265 -1.87673 0
M  V30 10728 C 1009.77 0.484661 -3.43902 0
M  V30 10729 C 1008.72 -0.324933 -4.26765 0
M  V30 10730 C 1008.05 0.608281 -5.31229 0
M  V30 10731 C 1009.35 -1.55344 -4.98664 0
M  V30 10732 H 1011.04 -1.15209 -2.76346 0
M  V30 10733 H 1008.59 -0.555442 -1.32856 0
M  V30 10734 H 1010.54 0.870238 -4.12316 0
M  V30 10735 H 1009.27 1.34666 -2.97544 0
M  V30 10736 H 1007.92 -0.692328 -3.60003 0
M  V30 10737 H 1007.57 1.46727 -4.81124 0
M  V30 10738 H 1007.27 0.0705571 -5.87558 0
M  V30 10739 H 1008.8 0.990925 -6.02506 0
M  V30 10740 H 1010.21 -1.23987 -5.59732 0
M  V30 10741 H 1008.61 -2.02947 -5.64741 0
M  V30 10742 H 1009.68 -2.31192 -4.26237 0
M  V30 10743 N 1011.02 1.44971 -0.618145 0
M  V30 10744 C 1012.27 2.02458 -0.117656 0
M  V30 10745 C 1012.6 1.48413 1.25248 0
M  V30 10746 O 1011.87 0.662997 1.82851 0
M  V30 10747 C 1012.16 3.59987 -0.0901897 0
M  V30 10748 C 1012.01 4.24343 -1.49175 0
M  V30 10749 C 1013.33 4.36099 0.592121 0
M  V30 10750 H 1010.45 0.735672 -0.0442291 0
M  V30 10751 H 1013.09 1.727 -0.792138 0
M  V30 10752 H 1011.24 3.85471 0.484175 0
M  V30 10753 H 1012.91 4.10009 -2.114 0
M  V30 10754 H 1011.16 3.82337 -2.04941 0
M  V30 10755 H 1011.83 5.33298 -1.42468 0
M  V30 10756 H 1014.3 4.1597 0.103813 0
M  V30 10757 H 1013.18 5.45822 0.580481 0
M  V30 10758 H 1013.44 4.09746 1.66015 0
M  V30 10759 N 1012.5 0.357919 1.53482 0
M  V30 10760 C 1013.73 -0.23514 2.05559 0
M  V30 10761 C 1014.14 -1.43068 1.23195 0
M  V30 10762 O 1013.5 -1.80481 0.270741 0
M  V30 10763 C 1013.55 -0.636147 3.55859 0
M  V30 10764 O 1013.27 0.511864 4.35099 0
M  V30 10765 C 1014.77 -1.28841 4.24164 0
M  V30 10766 H 1011.99 -0.0428446 0.669631 0
M  V30 10767 H 1014.54 0.51407 1.97933 0
M  V30 10768 H 1012.69 -1.33528 3.63661 0
M  V30 10769 H 1013.1 0.189328 5.24158 0
M  V30 10770 H 1014.58 -1.51962 5.30671 0
M  V30 10771 H 1015.06 -2.24638 3.77405 0
M  V30 10772 H 1015.66 -0.630914 4.20594 0
M  V30 10773 N 1013.98 -1.5736 0.0868897 0
M  V30 10774 C 1015.25 -1.85495 -0.620561 0
M  V30 10775 C 1015.63 -0.982218 -1.86857 0
M  V30 10776 O 1014.98 -0.0524529 -2.2844 0
M  V30 10777 C 1015.19 -3.35996 -0.943798 0
M  V30 10778 C 1016.54 -4.03861 -1.31079 0
M  V30 10779 O 1017.56 -3.4083 -1.03507 0
M  V30 10780 O 1016.42 -5.15062 -1.82683 0
M  V30 10781 H 1013.52 -0.766822 -0.309697 0
M  V30 10782 H 1016.06 -1.69282 0.118966 0
M  V30 10783 H 1014.83 -3.91257 -0.0580628 0
M  V30 10784 H 1014.46 -3.57525 -1.73958 0
M  V30 10785 N 1015.45 0.186762 -1.56489 0
M  V30 10786 C 1016.42 1.21511 -1.94339 0
M  V30 10787 C 1017.42 1.38001 -0.82537 0
M  V30 10788 O 1018.61 1.3567 -1.09266 0
M  V30 10789 C 1015.74 2.583 -2.22472 0
M  V30 10790 H 1016.93 0.891371 -2.86347 0
M  V30 10791 H 1014.49 0.428612 -1.50308 0
M  V30 10792 H 1015.22 2.95715 -1.33129 0
M  V30 10793 H 1015.01 2.47701 -3.03951 0
M  V30 10794 H 1016.5 3.32441 -2.5273 0
M  V30 10795 N 1016.93 1.50896 0.454776 0
M  V30 10796 C 1018.18 1.62699 1.20562 0
M  V30 10797 C 1018.51 0.334943 1.91594 0
M  V30 10798 O 1017.76 -0.680106 1.83502 0
M  V30 10799 C 1018.06 2.76839 2.26042 0
M  V30 10800 C 1017.73 4.16745 1.72147 0
M  V30 10801 C 1016.39 4.54809 1.5717 0
M  V30 10802 C 1018.74 5.04118 1.32341 0
M  V30 10803 C 1016.07 5.7797 1.00835 0
M  V30 10804 C 1018.42 6.27842 0.774419 0
M  V30 10805 C 1017.09 6.64694 0.611415 0
M  V30 10806 H 1016.36 0.595358 0.441169 0
M  V30 10807 H 1019 1.84879 0.499202 0
M  V30 10808 H 1017.31 2.48812 3.02655 0
M  V30 10809 H 1019 2.83173 2.83926 0
M  V30 10810 H 1015.59 3.86725 1.84775 0
M  V30 10811 H 1019.78 4.75331 1.42739 0
M  V30 10812 H 1015.03 6.05183 0.869669 0
M  V30 10813 H 1019.21 6.94896 0.457389 0
M  V30 10814 H 1016.84 7.60004 0.172751 0
M  V30 10815 N 1018.41 -0.709066 1.40748 0
M  V30 10816 C 1019.36 -1.82312 1.4153 0
M  V30 10817 C 1020.33 -1.63868 0.271392 0
M  V30 10818 O 1021.51 -1.8491 0.470431 0
M  V30 10819 C 1018.65 -3.2008 1.29006 0
M  V30 10820 C 1017.77 -3.50051 2.53156 0
M  V30 10821 C 1016.9 -4.7736 2.33025 0
M  V30 10822 C 1015.94 -5.00255 3.52719 0
M  V30 10823 N 1015.08 -6.18782 3.31743 0
M  V30 10824 H 1019.92 -1.80978 2.36751 0
M  V30 10825 H 1017.45 -0.883975 1.17577 0
M  V30 10826 H 1019.41 -3.99645 1.19749 0
M  V30 10827 H 1018.04 -3.20626 0.374014 0
M  V30 10828 H 1017.09 -2.64993 2.72916 0
M  V30 10829 H 1018.41 -3.62877 3.42231 0
M  V30 10830 H 1017.56 -5.64954 2.21159 0
M  V30 10831 H 1016.3 -4.66756 1.41386 0
M  V30 10832 H 1015.3 -4.11114 3.65055 0
M  V30 10833 H 1016.53 -5.12728 4.45295 0
M  V30 10834 H 1014.47 -6.09416 2.42791 0
M  V30 10835 H 1014.39 -6.32313 4.14386 0
M  V30 10836 H 1015.66 -7.09146 3.23623 0
M  V30 10837 N 1019.89 -1.26353 -0.941956 0
M  V30 10838 C 1020.82 -1.10341 -2.05784 0
M  V30 10839 C 1021.8 -0.00881565 -1.70098 0
M  V30 10840 O 1022.99 -0.180699 -1.93357 0
M  V30 10841 C 1020.12 -0.734788 -3.39438 0
M  V30 10842 C 1019.07 -1.78103 -3.89183 0
M  V30 10843 C 1018.4 -1.26675 -5.19478 0
M  V30 10844 C 1019.7 -3.1824 -4.14151 0
M  V30 10845 H 1021.39 -2.03684 -2.19438 0
M  V30 10846 H 1018.94 -0.980698 -1.05443 0
M  V30 10847 H 1020.89 -0.609653 -4.16967 0
M  V30 10848 H 1019.61 0.234354 -3.25758 0
M  V30 10849 H 1018.27 -1.89482 -3.13835 0
M  V30 10850 H 1017.92 -0.287472 -5.02178 0
M  V30 10851 H 1017.62 -1.96612 -5.53731 0
M  V30 10852 H 1019.14 -1.15427 -5.99591 0
M  V30 10853 H 1020.56 -3.09942 -4.82296 0
M  V30 10854 H 1018.95 -3.8576 -4.59684 0
M  V30 10855 H 1020.02 -3.64354 -3.19959 0
M  V30 10856 N 1021.37 1.14642 -1.08144 0
M  V30 10857 C 1022.31 2.1964 -0.708995 0
M  V30 10858 C 1023.28 1.63303 0.303512 0
M  V30 10859 O 1024.47 1.8987 0.18813 0
M  V30 10860 C 1021.61 3.44886 -0.121585 0
M  V30 10861 C 1020.72 4.15386 -1.18654 0
M  V30 10862 C 1019.86 5.28205 -0.56328 0
M  V30 10863 C 1018.9 5.90534 -1.61046 0
M  V30 10864 N 1018.03 6.94809 -1.00919 0
M  V30 10865 H 1022.87 2.50848 -1.6087 0
M  V30 10866 H 1020.41 1.23185 -0.803975 0
M  V30 10867 H 1022.37 4.16528 0.23668 0
M  V30 10868 H 1021 3.14169 0.741445 0
M  V30 10869 H 1020.05 3.42159 -1.66227 0
M  V30 10870 H 1021.36 4.57809 -1.9802 0
M  V30 10871 H 1020.52 6.06507 -0.153109 0
M  V30 10872 H 1019.26 4.86995 0.262066 0
M  V30 10873 H 1018.26 5.10938 -2.03033 0
M  V30 10874 H 1019.49 6.33819 -2.43824 0
M  V30 10875 H 1017.43 6.5568 -0.204894 0
M  V30 10876 H 1017.35 7.35704 -1.73999 0
M  V30 10877 H 1018.62 7.76992 -0.624792 0
M  V30 10878 N 1022.85 0.866709 1.31628 0
M  V30 10879 C 1024.26 0.558188 1.49521 0
M  V30 10880 C 1024.46 -0.90844 1.7986 0
M  V30 10881 O 1023.52 -1.6908 1.87531 0
M  V30 10882 C 1024.83 1.45559 2.63122 0
M  V30 10883 C 1026.38 1.45728 2.77006 0
M  V30 10884 C 1026.85 2.34017 3.937 0
M  V30 10885 N 1028.34 2.31879 4.00982 0
M  V30 10886 C 1029.08 2.96915 4.90539 0
M  V30 10887 N 1028.58 3.71109 5.85021 0
M  V30 10888 N 1030.37 2.86241 4.83759 0
M  V30 10889 H 1022.52 1.81574 1.10203 0
M  V30 10890 H 1024.78 0.77621 0.544244 0
M  V30 10891 H 1024.49 2.49904 2.47469 0
M  V30 10892 H 1024.36 1.15174 3.59186 0
M  V30 10893 H 1026.75 0.421419 2.92075 0
M  V30 10894 H 1026.83 1.80134 1.81619 0
M  V30 10895 H 1026.47 3.37678 3.79389 0
M  V30 10896 H 1026.4 1.96937 4.88388 0
M  V30 10897 H 1028.9 1.77948 3.33381 0
M  V30 10898 H 1029.21 4.1787 6.5008 0
M  V30 10899 H 1027.55 3.75217 5.8501 0
M  V30 10900 H 1030.74 2.27819 4.08921 0
M  V30 10901 H 1030.92 3.37206 5.5335 0
M  V30 10902 N 1024.32 -1.44642 0.625825 0
M  V30 10903 C 1025.27 -2.30653 -0.082259 0
M  V30 10904 C 1026.24 -1.43174 -0.842052 0
M  V30 10905 O 1027.43 -1.72082 -0.824151 0
M  V30 10906 C 1024.57 -3.2837 -1.06146 0
M  V30 10907 C 1023.68 -4.30953 -0.300638 0
M  V30 10908 C 1022.81 -5.15766 -1.27118 0
M  V30 10909 C 1021.85 -6.10061 -0.499215 0
M  V30 10910 N 1020.99 -6.87591 -1.41995 0
M  V30 10911 H 1025.83 -2.90664 0.657161 0
M  V30 10912 H 1023.37 -1.43215 0.335859 0
M  V30 10913 H 1025.32 -3.83507 -1.6425 0
M  V30 10914 H 1023.95 -2.70072 -1.76807 0
M  V30 10915 H 1023.01 -3.78331 0.396234 0
M  V30 10916 H 1024.32 -4.97892 0.300851 0
M  V30 10917 H 1023.47 -5.75394 -1.92372 0
M  V30 10918 H 1022.21 -4.48888 -1.9066 0
M  V30 10919 H 1021.22 -5.49547 0.166848 0
M  V30 10920 H 1022.44 -6.78973 0.131409 0
M  V30 10921 H 1020.39 -6.23387 -2.04267 0
M  V30 10922 H 1020.3 -7.5095 -0.872354 0
M  V30 10923 H 1021.57 -7.51746 -2.0615 0
M  V30 10924 N 1025.8 -0.366053 -1.5329 0
M  V30 10925 C 1026.71 0.488111 -2.29466 0
M  V30 10926 C 1027.73 1.09219 -1.35452 0
M  V30 10927 O 1028.9 1.10303 -1.68509 0
M  V30 10928 C 1025.97 1.61202 -3.06944 0
M  V30 10929 C 1025.03 1.03543 -4.16626 0
M  V30 10930 C 1024.26 2.10578 -4.904 0
M  V30 10931 O 1024.49 3.31697 -4.6404 0
M  V30 10932 O 1023.42 1.73609 -5.76319 0
M  V30 10933 H 1027.25 -0.131789 -3.03414 0
M  V30 10934 H 1024.83 -0.130421 -1.4883 0
M  V30 10935 H 1026.71 2.26546 -3.55324 0
M  V30 10936 H 1025.39 2.21732 -2.35832 0
M  V30 10937 H 1024.29 0.345892 -3.72498 0
M  V30 10938 H 1025.63 0.474687 -4.89906 0
M  V30 10939 N 1027.28 1.57312 -0.0952337 0
M  V30 10940 C 1028.21 2.17056 0.860753 0
M  V30 10941 C 1029.19 1.10394 1.29411 0
M  V30 10942 O 1030.38 1.38532 1.36098 0
M  V30 10943 C 1027.51 2.751 2.11984 0
M  V30 10944 C 1026.46 3.87136 1.8251 0
M  V30 10945 C 1025.79 4.31883 3.15247 0
M  V30 10946 C 1027.09 5.10326 1.11194 0
M  V30 10947 H 1028.78 2.97192 0.362983 0
M  V30 10948 H 1026.33 1.42955 0.173151 0
M  V30 10949 H 1028.28 3.15547 2.79299 0
M  V30 10950 H 1027 1.92219 2.64044 0
M  V30 10951 H 1025.66 3.47229 1.17592 0
M  V30 10952 H 1025.31 3.45893 3.65195 0
M  V30 10953 H 1025.01 5.0742 2.96309 0
M  V30 10954 H 1026.53 4.74964 3.83721 0
M  V30 10955 H 1027.95 5.47942 1.6862 0
M  V30 10956 H 1026.34 5.91293 1.02435 0
M  V30 10957 H 1027.41 4.84807 0.0947227 0
M  V30 10958 N 1028.76 -0.17846 1.56586 0
M  V30 10959 C 1030.17 -0.529957 1.50544 0
M  V30 10960 C 1030.37 -1.85015 0.798237 0
M  V30 10961 O 1029.43 -2.49983 0.355639 0
M  V30 10962 C 1030.74 -0.569314 2.95261 0
M  V30 10963 C 1032.29 -0.657008 3.06027 0
M  V30 10964 C 1032.77 -0.727323 4.52188 0
M  V30 10965 N 1034.26 -0.790406 4.56406 0
M  V30 10966 C 1034.99 -0.865265 5.66834 0
M  V30 10967 N 1034.49 -0.901398 6.86911 0
M  V30 10968 N 1036.28 -0.903736 5.54787 0
M  V30 10969 H 1028.43 0.687304 2.00972 0
M  V30 10970 H 1030.69 0.246936 0.915274 0
M  V30 10971 H 1030.4 0.331934 3.5013 0
M  V30 10972 H 1030.27 -1.41828 3.4952 0
M  V30 10973 H 1032.66 -1.54868 2.51197 0
M  V30 10974 H 1032.74 0.218495 2.54865 0
M  V30 10975 H 1032.39 0.160067 5.07648 0
M  V30 10976 H 1032.32 -1.61887 5.01099 0
M  V30 10977 H 1034.81 -0.771054 3.6995 0
M  V30 10978 H 1035.12 -0.959494 7.6682 0
M  V30 10979 H 1033.47 -0.869795 6.89536 0
M  V30 10980 H 1036.66 -0.872459 4.59898 0
M  V30 10981 H 1036.83 -0.958615 6.4087 0
M  V30 10982 N 1030.24 -1.51135 -0.446768 0
M  V30 10983 C 1031.18 -1.72328 -1.56224 0
M  V30 10984 C 1032.18 -0.589411 -1.58815 0
M  V30 10985 O 1033.38 -0.770554 -1.62673 0
M  V30 10986 H 1029.76 -0.544339 -0.518844 0
M  V30 10987 H 1031.73 -2.65851 -1.3552 0
M  V30 10988 C 1030.48 -1.85686 -2.93966 0
M  V30 10989 H 1029.8 -2.72336 -2.927 0
M  V30 10990 H 1031.24 -2.0453 -3.71407 0
M  V30 10991 C 1029.7 -0.614328 -3.31252 0
M  V30 10992 O 1030.23 0.235369 -4.0101 0
M  V30 10993 N 1028.44 -0.461181 -2.86917 0
M  V30 10994 H 1027.98 -1.15369 -2.30321 0
M  V30 10995 H 1027.94 0.368966 -3.12227 0
M  V30 10996 N 1031.71 0.701592 -1.41122 0
M  V30 10997 C 1032.66 1.80755 -1.38966 0
M  V30 10998 C 1033.65 1.58703 -0.264964 0
M  V30 10999 O 1034.84 1.69638 -0.505168 0
M  V30 11000 C 1031.97 3.1901 -1.26836 0
M  V30 11001 C 1031.05 3.46777 -2.44144 0
M  V30 11002 N 1031.45 3.45278 -3.69617 0
M  V30 11003 C 1029.74 3.77299 -2.37826 0
M  V30 11004 C 1030.44 3.71782 -4.47385 0
M  V30 11005 N 1029.42 3.91228 -3.77415 0
M  V30 11006 H 1033.22 1.7795 -2.33904 0
M  V30 11007 H 1030.74 0.901325 -1.35092 0
M  V30 11008 H 1032.73 3.98227 -1.23373 0
M  V30 11009 H 1031.39 3.23031 -0.328777 0
M  V30 11010 H 1032.4 3.258 -4.02585 0
M  V30 11011 H 1029.08 3.88727 -1.52309 0
M  V30 11012 H 1030.47 3.7681 -5.56295 0
M  V30 11013 N 1033.19 1.2685 0.935242 0
M  V30 11014 C 1034.42 1.15371 1.71386 0
M  V30 11015 C 1034.83 -0.293048 1.86917 0
M  V30 11016 O 1034.17 -1.212 1.38044 0
M  V30 11017 C 1034.23 1.75652 3.13666 0
M  V30 11018 C 1033.9 3.24788 3.215 0
M  V30 11019 C 1034.9 4.21525 3.04323 0
M  V30 11020 C 1032.58 3.65359 3.447 0
M  V30 11021 C 1034.57 5.56812 3.10224 0
M  V30 11022 C 1032.26 5.00778 3.50235 0
M  V30 11023 C 1033.26 5.96314 3.33014 0
M  V30 11024 O 1032.95 7.29266 3.38269 0
M  V30 11025 H 1032.68 0.40234 0.54323 0
M  V30 11026 H 1035.23 1.68083 1.18056 0
M  V30 11027 H 1033.46 1.17408 3.68446 0
M  V30 11028 H 1035.15 1.58994 3.73465 0
M  V30 11029 H 1035.92 3.91519 2.86249 0
M  V30 11030 H 1031.8 2.91479 3.57157 0
M  V30 11031 H 1035.34 6.3136 2.967 0
M  V30 11032 H 1031.24 5.30444 3.67831 0
M  V30 11033 H 1032.01 7.37616 3.54774 0
M  V30 11034 N 1034.67 -1.14067 1.0875 0
M  V30 11035 C 1035.6 -2.21385 0.74236 0
M  V30 11036 C 1036.58 -1.67833 -0.276805 0
M  V30 11037 O 1037.77 -1.93647 -0.1464 0
M  V30 11038 C 1034.9 -3.46956 0.154644 0
M  V30 11039 C 1033.85 -4.13555 1.10255 0
M  V30 11040 C 1033.18 -5.3337 0.376877 0
M  V30 11041 C 1034.48 -4.6169 2.44213 0
M  V30 11042 H 1036.17 -2.50512 1.63964 0
M  V30 11043 H 1033.72 -1.20408 0.789807 0
M  V30 11044 H 1035.67 -4.21284 -0.0988419 0
M  V30 11045 H 1034.39 -3.17203 -0.777789 0
M  V30 11046 H 1033.05 -3.41186 1.34119 0
M  V30 11047 H 1032.7 -4.99879 -0.559472 0
M  V30 11048 H 1032.4 -5.78875 1.00884 0
M  V30 11049 H 1033.92 -6.10458 0.131527 0
M  V30 11050 H 1035.34 -5.27475 2.24595 0
M  V30 11051 H 1033.74 -5.17909 3.03134 0
M  V30 11052 H 1034.81 -3.76574 3.05483 0
M  V30 11053 N 1036.15 -0.873678 -1.31166 0
M  V30 11054 C 1037.1 -0.330288 -2.28424 0
M  V30 11055 C 1038.07 0.573299 -1.55893 0
M  V30 11056 O 1039.25 0.504143 -1.84019 0
M  V30 11057 C 1036.39 0.459004 -3.42034 0
M  V30 11058 C 1035.5 -0.472519 -4.29408 0
M  V30 11059 C 1034.64 0.331261 -5.30166 0
M  V30 11060 C 1033.68 -0.596453 -6.09187 0
M  V30 11061 N 1032.81 0.171305 -7.01891 0
M  V30 11062 H 1037.65 -1.16485 -2.7429 0
M  V30 11063 H 1035.19 -0.585813 -1.34932 0
M  V30 11064 H 1037.15 0.932432 -4.06647 0
M  V30 11065 H 1035.78 1.25824 -2.97268 0
M  V30 11066 H 1034.83 -1.06441 -3.65205 0
M  V30 11067 H 1036.14 -1.18372 -4.84551 0
M  V30 11068 H 1035.3 0.867038 -6.00473 0
M  V30 11069 H 1034.04 1.07573 -4.75688 0
M  V30 11070 H 1033.04 -1.14395 -5.37767 0
M  V30 11071 H 1034.27 -1.33983 -6.65752 0
M  V30 11072 H 1032.21 0.89852 -6.49817 0
M  V30 11073 H 1032.13 -0.480481 -7.54472 0
M  V30 11074 H 1033.4 0.688192 -7.76456 0
M  V30 11075 N 1037.63 1.44308 -0.633487 0
M  V30 11076 C 1038.9 1.95476 -0.0697262 0
M  V30 11077 C 1039.28 1.57539 1.40516 0
M  V30 11078 O 1038.63 0.850632 2.12077 0
M  V30 11079 C 1038.84 3.4775 -0.295093 0
M  V30 11080 C 1040.19 4.24177 -0.189542 0
M  V30 11081 O 1041.21 3.55479 -0.226586 0
M  V30 11082 O 1040.07 5.46415 -0.096479 0
M  V30 11083 H 1037.17 0.826734 0.0209582 0
M  V30 11084 H 1039.71 1.54347 -0.705354 0
M  V30 11085 H 1038.48 3.6842 -1.31841 0
M  V30 11086 H 1038.11 3.95832 0.37456 0
M  V30 11087 N 1039.1 0.374177 1.53094 0
M  V30 11088 C 1040.35 -0.213981 2.00562 0
M  V30 11089 C 1040.67 -1.4916 1.26533 0
M  V30 11090 O 1041.87 -2.15889 1.64634 0
M  V30 11091 C 1040.33 -0.431876 3.57299 0
M  V30 11092 C 1039.94 0.831615 4.40214 0
M  V30 11093 C 1041.68 -0.977222 4.13099 0
M  V30 11094 C 1039.59 0.582831 5.88521 0
M  V30 11095 H 1038.52 -0.0837386 0.749336 0
M  V30 11096 H 1041.17 0.494245 1.76719 0
M  V30 11097 H 1039.55 -1.20158 3.7733 0
M  V30 11098 H 1040.72 1.60477 4.31953 0
M  V30 11099 H 1039.04 1.30081 3.9556 0
M  V30 11100 H 1041.64 -1.17881 5.21544 0
M  V30 11101 H 1041.98 -1.94189 3.68234 0
M  V30 11102 H 1042.51 -0.267473 3.969 0
M  V30 11103 H 1039.25 1.51807 6.37679 0
M  V30 11104 H 1038.77 -0.151666 5.99608 0
M  V30 11105 H 1040.45 0.211604 6.46654 0
M  V30 11106 N 1040.58 -1.57259 0.103575 0
M  V30 11107 C 1041.49 -2.18018 -0.866327 0
M  V30 11108 C 1042.51 -1.15198 -1.30404 0
M  V30 11109 O 1043.68 -1.47605 -1.37021 0
M  V30 11110 C 1040.75 -2.75533 -2.10434 0
M  V30 11111 C 1039.81 -3.93337 -1.72002 0
M  V30 11112 C 1039.04 -4.481 -2.89901 0
M  V30 11113 O 1039.27 -4.01784 -4.04877 0
M  V30 11114 O 1038.2 -5.39004 -2.67877 0
M  V30 11115 H 1042.03 -3.01322 -0.379338 0
M  V30 11116 H 1039.61 -1.48907 -0.121228 0
M  V30 11117 H 1041.49 -3.12259 -2.8297 0
M  V30 11118 H 1040.17 -1.9527 -2.58169 0
M  V30 11119 H 1039.08 -3.61408 -0.966193 0
M  V30 11120 H 1040.41 -4.74989 -1.29022 0
M  V30 11121 N 1042.06 0.170153 -1.56679 0
M  V30 11122 C 1043.48 0.521966 -1.50823 0
M  V30 11123 C 1043.68 1.84589 -0.808037 0
M  V30 11124 O 1042.73 2.49791 -0.368891 0
M  V30 11125 C 1044.05 0.553648 -2.95559 0
M  V30 11126 C 1045.59 0.640769 -3.06371 0
M  V30 11127 C 1046.07 0.703332 -4.52567 0
M  V30 11128 N 1047.56 0.76619 -4.56819 0
M  V30 11129 C 1048.29 0.835192 -5.67285 0
M  V30 11130 N 1047.79 0.864957 -6.87379 0
M  V30 11131 N 1049.58 0.874302 -5.55259 0
M  V30 11132 H 1041.73 -0.697952 -2.00605 0
M  V30 11133 H 1044 -0.251787 -0.913952 0
M  V30 11134 H 1043.7 -0.350498 -3.49949 0
M  V30 11135 H 1043.58 1.39973 -3.50268 0
M  V30 11136 H 1045.96 1.53534 -2.52015 0
M  V30 11137 H 1046.05 -0.232008 -2.54746 0
M  V30 11138 H 1045.69 -0.186986 -5.07556 0
M  V30 11139 H 1045.62 1.59227 -5.0195 0
M  V30 11140 H 1048.11 0.751424 -3.70354 0
M  V30 11141 H 1048.42 0.918814 -7.67318 0
M  V30 11142 H 1046.77 0.833215 -6.89987 0
M  V30 11143 H 1049.96 0.848057 -4.60354 0
M  V30 11144 H 1050.13 0.924615 -6.4137 0
M  V30 11145 N 1043.54 1.5137 0.438746 0
M  V30 11146 C 1044.47 1.67264 1.55236 0
M  V30 11147 C 1045.45 0.520238 1.54053 0
M  V30 11148 O 1046.63 0.743897 1.73201 0
M  V30 11149 C 1043.76 1.68492 2.93816 0
M  V30 11150 C 1042.81 2.8968 3.1303 0
M  V30 11151 S 1043.64 4.50514 2.89478 0
M  V30 11152 C 1044.8 4.54485 4.30342 0
M  V30 11153 H 1045.03 2.61456 1.4152 0
M  V30 11154 H 1042.56 1.41036 0.628341 0
M  V30 11155 H 1044.52 1.69884 3.73697 0
M  V30 11156 H 1043.18 0.754787 3.04896 0
M  V30 11157 H 1042.37 2.86936 4.14347 0
M  V30 11158 H 1041.98 2.86022 2.40972 0
M  V30 11159 H 1044.27 4.30039 5.2352 0
M  V30 11160 H 1045.21 5.56288 4.3812 0
M  V30 11161 H 1045.62 3.83824 4.13931 0
M  V30 11162 N 1045.02 -0.694098 1.41492 0
M  V30 11163 C 1046.25 -1.48071 1.44078 0
M  V30 11164 C 1046.65 -1.89147 0.0448984 0
M  V30 11165 O 1046 -1.57441 -0.946464 0
M  V30 11166 C 1046.06 -2.77324 2.28761 0
M  V30 11167 C 1045.72 -2.58443 3.76904 0
M  V30 11168 C 1046.72 -2.24294 4.69029 0
M  V30 11169 C 1044.41 -2.74037 4.20962 0
M  V30 11170 C 1046.4 -2.0598 6.03201 0
M  V30 11171 C 1044.09 -2.5534 5.55198 0
M  V30 11172 C 1045.08 -2.21362 6.46133 0
M  V30 11173 O 1044.77 -2.02829 7.77892 0
M  V30 11174 H 1044.5 -0.462794 0.492745 0
M  V30 11175 H 1047.06 -0.861968 1.86438 0
M  V30 11176 H 1045.29 -3.4161 1.81217 0
M  V30 11177 H 1046.98 -3.39134 2.23031 0
M  V30 11178 H 1047.74 -2.11859 4.36281 0
M  V30 11179 H 1043.62 -2.99467 3.50486 0
M  V30 11180 H 1047.17 -1.79382 6.74142 0
M  V30 11181 H 1043.06 -2.67366 5.87525 0
M  V30 11182 H 1043.83 -2.17581 7.89051 0
M  V30 11183 N 1046.49 -1.27344 -0.928501 0
M  V30 11184 C 1047.74 -1.13411 -1.67279 0
M  V30 11185 C 1048.06 0.320698 -1.92345 0
M  V30 11186 O 1047.33 1.2245 -1.52915 0
M  V30 11187 H 1045.91 -0.416712 -0.619968 0
M  V30 11188 H 1048.58 -1.5986 -1.11493 0
M  V30 11189 H 1047.67 -1.66256 -2.64131 0
M  V30 11190 N 1047.97 1.13488 -1.09353 0
M  V30 11191 C 1049.22 1.84383 -0.827488 0
M  V30 11192 C 1049.54 1.83892 0.648745 0
M  V30 11193 O 1048.81 1.29415 1.47066 0
M  V30 11194 H 1047.39 0.682732 -0.303127 0
M  V30 11195 H 1050.05 1.37477 -1.38152 0
M  V30 11196 H 1049.15 2.88919 -1.18035 0
M  V30 11197 N 1049.45 0.880621 1.30701 0
M  V30 11198 C 1050.4 0.342397 2.28246 0
M  V30 11199 C 1051.37 -0.565023 1.56194 0
M  V30 11200 O 1052.55 -0.494377 1.84284 0
M  V30 11201 C 1049.69 -0.440859 3.42272 0
M  V30 11202 C 1048.81 0.495284 4.29151 0
M  V30 11203 C 1047.94 -0.303141 5.30334 0
M  V30 11204 C 1046.98 0.628751 6.08862 0
M  V30 11205 N 1046.12 -0.13408 7.01972 0
M  V30 11206 H 1050.96 1.17938 2.73669 0
M  V30 11207 H 1048.49 0.59296 1.34619 0
M  V30 11208 H 1050.45 -0.910854 4.07135 0
M  V30 11209 H 1049.08 -1.24245 2.97931 0
M  V30 11210 H 1048.13 1.08376 3.64635 0
M  V30 11211 H 1049.45 1.2094 4.83916 0
M  V30 11212 H 1048.6 -0.835181 6.00924 0
M  V30 11213 H 1047.34 -1.05049 4.76252 0
M  V30 11214 H 1046.34 1.17246 5.37153 0
M  V30 11215 H 1047.57 1.37512 6.65032 0
M  V30 11216 H 1045.52 -0.864046 6.50285 0
M  V30 11217 H 1045.43 0.520486 7.54206 0
M  V30 11218 H 1046.7 -0.647005 7.7681 0
M  V30 11219 O 1050.97 -1.41364 0.780922 0
M  V30 11220 H 1051.66 -1.90546 0.348111 0
M  V30 END ATOM
M  V30 BEGIN BOND
M  V30 END BOND
M  V30 END CTAB
M  END
$$$$
