drugbank_target|O60513 Beta-1,4-galactosyltransferase 4 (DB00141)
 OpenBabel12092120083D

  0  0  0     0  0            999 V3000
M  V30 BEGIN CTAB
M  V30 COUNTS 5652 5724 0 0 0
M  V30 BEGIN ATOM
M  V30 1 H -0.908 1.98254 -0.117106 0
M  V30 2 N 0 1.576 0 0
M  V30 3 C 0.933 2.03868 1.02534 0
M  V30 4 C 1.911 0.928543 1.3348 0
M  V30 5 O 3.095 1.19667 1.45644 0
M  V30 6 C 0.222 2.43627 2.35294 0
M  V30 7 C -0.732 3.65373 2.2001 0
M  V30 8 S 0.101 5.13292 1.52614 0
M  V30 9 C 1.257 5.56322 2.86805 0
M  V30 10 H 1.49 2.90518 0.631377 0
M  V30 11 H -0.977 1.52953 0.210867 0
M  V30 12 H 0.981 2.67203 3.11629 0
M  V30 13 H -0.358 1.57376 2.7183 0
M  V30 14 H -1.165 3.90944 3.18086 0
M  V30 15 H -1.563 3.418 1.51819 0
M  V30 16 H 0.729 5.58782 3.83104 0
M  V30 17 H 1.672 6.56266 2.65933 0
M  V30 18 H 2.08 4.83886 2.90714 0
M  V30 19 N 1.4781 -0.272755 1.55222 0
M  V30 20 C 2.7261 -1.00234 1.75492 0
M  V30 21 C 3.0471 -1.8681 0.5592 0
M  V30 22 O 2.3171 -1.91215 -0.425882 0
M  V30 23 H 0.8971 -0.373076 0.647166 0
M  V30 24 H 3.5591 -0.296926 1.92625 0
M  V30 25 H 2.6551 -1.63913 2.65592 0
M  V30 26 N 2.9562 -1.48159 -0.537278 0
M  V30 27 C 4.2032 -1.55804 -1.29349 0
M  V30 28 C 4.5312 -0.228802 -1.9315 0
M  V30 29 O 3.7862 0.780242 -1.79473 0
M  V30 30 C 4.0852 -2.63956 -2.40961 0
M  V30 31 C 3.7512 -4.0662 -1.94861 0
M  V30 32 C 2.4132 -4.45452 -1.82006 0
M  V30 33 C 4.7652 -4.96055 -1.59933 0
M  V30 34 C 2.0932 -5.71531 -1.32547 0
M  V30 35 C 4.4452 -6.22617 -1.11939 0
M  V30 36 C 3.1092 -6.60312 -0.976951 0
M  V30 37 H 2.3792 -0.570129 -0.473322 0
M  V30 38 H 5.0262 -1.81845 -0.600372 0
M  V30 39 H 3.3312 -2.31747 -3.15912 0
M  V30 40 H 5.0282 -2.67089 -2.99107 0
M  V30 41 H 1.6182 -3.75949 -2.05815 0
M  V30 42 H 5.8022 -4.66738 -1.68728 0
M  V30 43 H 1.0582 -5.99468 -1.202 0
M  V30 44 H 5.2322 -6.91318 -0.839811 0
M  V30 45 H 2.8592 -7.57895 -0.591501 0
M  V30 46 N 4.4343 0.785586 -1.36625 0
M  V30 47 C 5.3823 1.91978 -1.31329 0
M  V30 48 C 6.3763 1.68162 -0.204416 0
M  V30 49 O 7.5823 1.76122 -0.371645 0
M  V30 50 H 3.9573 0.631087 -0.408942 0
M  V30 51 H 5.9283 1.93562 -2.27104 0
M  V30 52 C 4.6773 3.29055 -1.12329 0
M  V30 53 H 4.0003 3.4795 -1.96903 0
M  V30 54 H 5.4403 4.08756 -1.12671 0
M  V30 55 C 3.8993 3.36461 0.171861 0
M  V30 56 O 4.4293 3.84576 1.16035 0
M  V30 57 N 2.6353 2.89782 0.217846 0
M  V30 58 H 2.1823 2.50819 -0.587183 0
M  V30 59 H 2.1403 2.95119 1.08408 0
M  V30 60 N 5.9124 1.20967 1.01018 0
M  V30 61 C 6.8424 0.988272 2.11555 0
M  V30 62 C 7.8234 -0.0849778 1.69888 0
M  V30 63 O 9.0084 0.0738202 1.9406 0
M  V30 64 C 6.1384 0.546528 3.42973 0
M  V30 65 C 5.0924 1.56375 3.9841 0
M  V30 66 C 4.4184 0.97842 5.25672 0
M  V30 67 C 5.7184 2.94922 4.31066 0
M  V30 68 H 7.4124 1.91276 2.30334 0
M  V30 69 H 4.9584 0.921073 1.1069 0
M  V30 70 H 6.9114 0.378839 4.19694 0
M  V30 71 H 5.6354 -0.413598 3.23971 0
M  V30 72 H 4.2944 1.71891 3.23804 0
M  V30 73 H 3.9424 0.0101688 5.02999 0
M  V30 74 H 3.6424 1.65784 5.63728 0
M  V30 75 H 5.1664 0.821939 6.05043 0
M  V30 76 H 6.5804 2.8288 4.9865 0
M  V30 77 H 4.9774 3.5983 4.80253 0
M  V30 78 H 6.0474 3.4616 3.39561 0
M  V30 79 N 7.3905 -1.2043 1.01659 0
M  V30 80 C 8.6185 -1.93777 0.725132 0
M  V30 81 C 9.0335 -1.74772 -0.714166 0
M  V30 82 O 8.3905 -1.06169 -1.4844 0
M  V30 83 C 8.4415 -3.45876 1.05129 0
M  V30 84 O 8.1625 -3.6426 2.43406 0
M  V30 85 C 9.6635 -4.36368 0.780891 0
M  V30 86 H 6.8835 -0.615901 0.266284 0
M  V30 87 H 9.4275 -1.52922 1.35776 0
M  V30 88 H 7.5825 -3.8461 0.464065 0
M  V30 89 H 7.9965 -4.58246 2.55169 0
M  V30 90 H 9.4705 -5.41743 1.05918 0
M  V30 91 H 9.9475 -4.38275 -0.284937 0
M  V30 92 H 10.5535 -4.03296 1.35027 0
M  V30 93 N 8.8686 -0.792821 -1.36206 0
M  V30 94 C 10.1156 -0.366786 -1.99151 0
M  V30 95 C 10.4436 1.06243 -1.62919 0
M  V30 96 O 9.6986 1.74927 -0.877442 0
M  V30 97 C 9.9976 -0.481501 -3.54142 0
M  V30 98 C 9.6636 -1.87202 -4.10203 0
M  V30 99 C 8.3256 -2.25248 -4.25226 0
M  V30 100 C 10.6776 -2.78237 -4.40719 0
M  V30 101 C 8.0056 -3.53723 -4.68078 0
M  V30 102 C 10.3576 -4.06144 -4.85005 0
M  V30 103 C 9.0216 -4.44207 -4.98234 0
M  V30 104 H 8.2916 -0.134217 -0.728743 0
M  V30 105 H 10.9386 -1.01094 -1.62641 0
M  V30 106 H 9.2436 0.246146 -3.91026 0
M  V30 107 H 10.9406 -0.132844 -4.0078 0
M  V30 108 H 7.5306 -1.56639 -3.98951 0
M  V30 109 H 11.7146 -2.50097 -4.28679 0
M  V30 110 H 6.9706 -3.8308 -4.76508 0
M  V30 111 H 11.1446 -4.76796 -5.07581 0
M  V30 112 H 8.7716 -5.43814 -5.31197 0
M  V30 113 N 10.3467 1.47872 -0.545128 0
M  V30 114 C 11.2967 2.26842 0.229456 0
M  V30 115 C 12.2807 1.33626 0.896267 0
M  V30 116 O 13.4727 1.58063 0.79657 0
M  V30 117 C 10.6017 3.19089 1.26638 0
M  V30 118 C 9.6877 4.19783 0.603598 0
M  V30 119 N 10.0787 5.0479 -0.319405 0
M  V30 120 C 8.3767 4.3765 0.858989 0
M  V30 121 C 9.0777 5.77433 -0.703241 0
M  V30 122 N 8.0537 5.43566 -0.0608309 0
M  V30 123 H 11.8557 2.89947 -0.480391 0
M  V30 124 H 9.3697 1.58263 -0.364209 0
M  V30 125 H 11.3667 3.74337 1.83515 0
M  V30 126 H 10.0267 2.5754 1.97745 0
M  V30 127 H 11.0377 5.13244 -0.692889 0
M  V30 128 H 7.7147 3.87281 1.55948 0
M  V30 129 H 9.1047 6.55824 -1.46098 0
M  V30 130 N 11.8248 0.280983 1.55075 0
M  V30 131 C 12.7548 -0.597469 2.25727 0
M  V30 132 C 13.7358 -1.15417 1.24952 0
M  V30 133 O 14.9208 -1.18722 1.53684 0
M  V30 134 C 12.0508 -1.7789 2.98283 0
M  V30 135 C 11.0048 -1.35347 4.06036 0
M  V30 136 C 10.3308 -2.61846 4.66198 0
M  V30 137 C 11.6308 -0.499354 5.19907 0
M  V30 138 H 13.3248 -0.00824265 2.99399 0
M  V30 139 H 10.8708 -0.0025244 1.44 0
M  V30 140 H 12.8238 -2.39937 3.46422 0
M  V30 141 H 11.5478 -2.39405 2.22155 0
M  V30 142 H 10.2068 -0.756156 3.58717 0
M  V30 143 H 9.8548 -3.21632 3.86732 0
M  V30 144 H 9.5548 -2.3409 5.38958 0
M  V30 145 H 11.0788 -3.24732 5.1709 0
M  V30 146 H 12.4928 -1.02498 5.64063 0
M  V30 147 H 10.8898 -0.316424 5.99265 0
M  V30 148 H 11.9598 0.480459 4.82514 0
M  V30 149 N 13.3029 -1.57598 0.00835791 0
M  V30 150 C 14.5279 -1.95617 -0.689103 0
M  V30 151 C 14.9529 -0.883753 -1.66046 0
M  V30 152 O 14.3109 0.157352 -1.80616 0
M  V30 153 C 14.3589 -3.32736 -1.38994 0
M  V30 154 O 13.4629 -3.27631 -2.50463 0
M  V30 155 H 12.8039 -0.638379 -0.182668 0
M  V30 156 H 15.3339 -2.045 0.064036 0
M  V30 157 H 15.3439 -3.68494 -1.75147 0
M  V30 158 H 14.0189 -4.1034 -0.677778 0
M  V30 159 H 12.5959 -3.03561 -2.16576 0
M  V30 160 N 14.781 0.264519 -1.55364 0
M  V30 161 C 16.011 1.01153 -1.80143 0
M  V30 162 C 16.419 1.80115 -0.579253 0
M  V30 163 O 15.762 1.77813 0.46132 0
M  V30 164 C 15.824 2.01098 -2.97993 0
M  V30 165 C 15.488 1.40995 -4.34706 0
M  V30 166 C 16.485 0.821316 -5.13372 0
M  V30 167 C 14.17 1.43461 -4.81378 0
M  V30 168 C 16.164 0.265339 -6.36847 0
M  V30 169 C 13.851 0.874771 -6.04807 0
M  V30 170 C 14.849 0.291146 -6.82379 0
M  V30 171 O 14.537 -0.260093 -8.03479 0
M  V30 172 H 14.269 0.304125 -0.603725 0
M  V30 173 H 16.823 0.298089 -2.03225 0
M  V30 174 H 15.053 2.76224 -2.70623 0
M  V30 175 H 16.742 2.61997 -3.1002 0
M  V30 176 H 17.508 0.794903 -4.78442 0
M  V30 177 H 13.387 1.87826 -4.21002 0
M  V30 178 H 16.931 -0.190837 -6.97339 0
M  V30 179 H 12.828 0.898452 -6.39217 0
M  V30 180 H 13.596 -0.150265 -8.18362 0
M  V30 181 N 16.2591 1.48442 0.529413 0
M  V30 182 C 17.2061 1.63007 1.63394 0
M  V30 183 C 18.1761 0.47212 1.59249 0
M  V30 184 O 19.3611 0.695673 1.77666 0
M  V30 185 C 16.5011 1.6763 3.01653 0
M  V30 186 C 15.6141 2.94535 3.16027 0
M  V30 187 C 14.7491 2.90316 4.44849 0
M  V30 188 C 13.7881 4.11923 4.52754 0
M  V30 189 N 12.9251 4.05777 5.72965 0
M  V30 190 H 17.7651 2.5733 1.50285 0
M  V30 191 H 15.3021 1.27613 0.731656 0
M  V30 192 H 17.2601 1.68292 3.81751 0
M  V30 193 H 15.8901 0.76797 3.13532 0
M  V30 194 H 14.9421 3.03615 2.29177 0
M  V30 195 H 16.2541 3.84512 3.17729 0
M  V30 196 H 15.4081 2.89382 5.33238 0
M  V30 197 H 14.1471 1.98068 4.45668 0
M  V30 198 H 13.1521 4.13131 3.62771 0
M  V30 199 H 14.3771 5.0533 4.53672 0
M  V30 200 H 12.3231 3.16351 5.74681 0
M  V30 201 H 12.2401 4.8946 5.76164 0
M  V30 202 H 13.5081 4.08904 6.6364 0
M  V30 203 N 17.7372 -0.778329 1.37039 0
M  V30 204 C 18.9842 -1.53665 1.31884 0
M  V30 205 C 19.3122 -1.9425 -0.0986303 0
M  V30 206 O 18.5672 -1.63832 -1.07041 0
M  V30 207 C 18.8662 -2.81845 2.19768 0
M  V30 208 C 18.5322 -2.60345 3.68146 0
M  V30 209 C 17.1942 -2.5419 4.08584 0
M  V30 210 C 19.5462 -2.40923 4.62175 0
M  V30 211 C 16.8742 -2.26594 5.41177 0
M  V30 212 C 19.2262 -2.14852 5.94997 0
M  V30 213 C 17.8902 -2.07137 6.34547 0
M  V30 214 H 17.1602 -0.562299 0.482598 0
M  V30 215 H 19.8072 -0.897069 1.69189 0
M  V30 216 H 18.1122 -3.50328 1.75436 0
M  V30 217 H 19.8092 -3.39692 2.13097 0
M  V30 218 H 16.3992 -2.65996 3.36072 0
M  V30 219 H 20.5832 -2.44673 4.31797 0
M  V30 220 H 15.8392 -2.19111 5.70789 0
M  V30 221 H 20.0132 -1.98822 6.67415 0
M  V30 222 H 17.6402 -1.85518 7.37216 0
M  V30 223 N 19.2153 -1.21501 -1.00376 0
M  V30 224 C 20.6313 -0.972629 -1.26539 0
M  V30 225 C 20.8313 0.340257 -1.98606 0
M  V30 226 O 19.8873 1.06561 -2.28913 0
M  V30 227 C 21.2003 -2.16404 -2.08781 0
M  V30 228 C 22.7483 -2.20643 -2.22004 0
M  V30 229 C 23.2233 -3.39306 -3.07629 0
M  V30 230 N 24.7143 -3.39401 -3.15217 0
M  V30 231 C 25.4493 -4.27867 -3.81729 0
M  V30 232 N 24.9453 -5.26533 -4.5026 0
M  V30 233 N 26.7383 -4.15672 -3.78382 0
M  V30 234 H 18.8893 -2.05929 -0.520281 0
M  V30 235 H 21.1523 -0.901803 -0.292328 0
M  V30 236 H 20.8583 -3.11554 -1.63178 0
M  V30 237 H 20.7323 -2.15567 -3.09533 0
M  V30 238 H 23.1193 -1.26048 -2.66825 0
M  V30 239 H 23.2003 -2.25523 -1.20718 0
M  V30 240 H 22.8443 -4.34195 -2.63509 0
M  V30 241 H 22.7743 -3.31665 -4.09031 0
M  V30 242 H 25.2653 -2.67997 -2.66432 0
M  V30 243 H 25.5783 -5.90337 -4.98721 0
M  V30 244 H 23.9233 -5.30457 -4.49044 0
M  V30 245 H 27.1143 -3.3785 -3.23998 0
M  V30 246 H 27.2873 -4.84825 -4.2994 0
M  V30 247 N 20.6934 1.19889 -1.02296 0
M  V30 248 C 21.6234 2.25141 -0.619174 0
M  V30 249 C 22.6044 1.66051 0.368915 0
M  V30 250 O 23.7894 1.92546 0.252941 0
M  V30 251 C 20.9194 3.4728 0.0368783 0
M  V30 252 C 19.8734 4.19005 -0.872865 0
M  V30 253 C 19.1994 5.34637 -0.0822402 0
M  V30 254 C 20.4994 4.74452 -2.18387 0
M  V30 255 H 22.1934 2.59171 -1.49903 0
M  V30 256 H 19.7394 1.24579 -0.722222 0
M  V30 257 H 21.6924 4.20098 0.330958 0
M  V30 258 H 20.4164 3.12433 0.95149 0
M  V30 259 H 19.0754 3.48061 -1.15105 0
M  V30 260 H 18.7234 4.96034 0.83422 0
M  V30 261 H 18.4234 5.83557 -0.688149 0
M  V30 262 H 19.9474 6.10255 0.205238 0
M  V30 263 H 21.3614 5.39055 -1.95172 0
M  V30 264 H 19.7584 5.33834 -2.74119 0
M  V30 265 H 20.8284 3.92844 -2.84257 0
M  V30 266 N 22.1715 0.800033 1.35784 0
M  V30 267 C 23.1015 0.220184 2.3246 0
M  V30 268 C 24.0825 -0.65073 1.57161 0
M  V30 269 O 25.2675 -0.582359 1.85263 0
M  V30 270 C 22.3975 -0.637353 3.41402 0
M  V30 271 C 21.3515 0.134531 4.27789 0
M  V30 272 C 20.6775 -0.844285 5.27992 0
M  V30 273 C 21.9775 1.32979 5.05088 0
M  V30 274 H 23.6715 1.02787 2.81203 0
M  V30 275 H 21.2175 0.495717 1.35199 0
M  V30 276 H 23.1705 -1.05302 4.08031 0
M  V30 277 H 21.8945 -1.47785 2.91251 0
M  V30 278 H 20.5535 0.531296 3.6273 0
M  V30 279 H 20.2015 -1.68011 4.74111 0
M  V30 280 H 19.9015 -0.332184 5.8666 0
M  V30 281 H 21.4255 -1.2583 5.97494 0
M  V30 282 H 22.8395 0.98934 5.64699 0
M  V30 283 H 21.2365 1.77593 5.7322 0
M  V30 284 H 22.3065 2.11978 4.36111 0
M  V30 285 N 23.6496 -1.47581 0.552962 0
M  V30 286 C 24.5796 -2.32762 -0.185451 0
M  V30 287 C 25.5606 -1.43527 -0.912905 0
M  V30 288 O 26.7456 -1.72388 -0.894201 0
M  V30 289 C 23.8756 -3.25219 -1.21859 0
M  V30 290 C 22.8296 -4.23661 -0.607864 0
M  V30 291 C 22.1556 -5.05413 -1.74533 0
M  V30 292 C 23.4556 -5.20481 0.435582 0
M  V30 293 H 25.1496 -2.94749 0.525684 0
M  V30 294 H 22.6956 -1.41738 0.254251 0
M  V30 295 H 24.6486 -3.8365 -1.7433 0
M  V30 296 H 23.3726 -2.61279 -1.95961 0
M  V30 297 H 22.0316 -3.66451 -0.104489 0
M  V30 298 H 21.6796 -4.3788 -2.47529 0
M  V30 299 H 21.3796 -5.72059 -1.34249 0
M  V30 300 H 22.9036 -5.66701 -2.27338 0
M  V30 301 H 24.3176 -5.733 -0.00290157 0
M  V30 302 H 22.7146 -5.95305 0.757067 0
M  V30 303 H 23.7846 -4.66217 1.33303 0
M  V30 304 N 25.1277 -0.289203 -1.54924 0
M  V30 305 C 26.0577 0.58549 -2.2604 0
M  V30 306 C 27.0387 1.14753 -1.25562 0
M  V30 307 O 28.2237 1.17906 -1.54311 0
M  V30 308 C 25.3537 1.76305 -2.99222 0
M  V30 309 C 24.3077 1.33191 -4.06748 0
M  V30 310 C 23.6337 2.5937 -4.6758 0
M  V30 311 C 24.9337 0.471775 -5.20165 0
M  V30 312 H 26.6277 -0.00763532 -2.99399 0
M  V30 313 H 24.1737 -0.00511229 -1.43999 0
M  V30 314 H 26.1267 2.38097 -3.47689 0
M  V30 315 H 24.8507 2.38223 -2.23422 0
M  V30 316 H 23.5097 0.737121 -3.59113 0
M  V30 317 H 23.1577 3.19576 -3.88433 0
M  V30 318 H 22.8577 2.31228 -5.40192 0
M  V30 319 H 24.3817 3.21985 -5.18804 0
M  V30 320 H 25.7957 0.995056 -5.64599 0
M  V30 321 H 24.1927 0.284639 -5.99425 0
M  V30 322 H 25.2627 -0.506041 -4.82252 0
M  V30 323 N 26.6058 1.57591 -0.0167156 0
M  V30 324 C 27.5358 2.12496 0.967858 0
M  V30 325 C 28.5168 1.03807 1.34752 0
M  V30 326 O 29.7018 1.31577 1.42833 0
M  V30 327 C 26.8318 2.64194 2.25431 0
M  V30 328 C 25.7858 3.77559 2.01576 0
M  V30 329 C 25.1118 4.15636 3.36379 0
M  V30 330 C 26.4118 5.04151 1.36489 0
M  V30 331 H 28.1058 2.95013 0.510643 0
M  V30 332 H 25.6518 1.41915 0.244181 0
M  V30 333 H 27.6048 3.01236 2.94678 0
M  V30 334 H 26.3288 1.78821 2.73296 0
M  V30 335 H 24.9878 3.40937 1.34751 0
M  V30 336 H 24.6358 3.27263 3.81979 0
M  V30 337 H 24.3358 4.92022 3.21229 0
M  V30 338 H 25.8598 4.5525 4.06915 0
M  V30 339 H 27.2738 5.38857 1.95718 0
M  V30 340 H 25.6708 5.85453 1.31776 0
M  V30 341 H 26.7408 4.83733 0.336219 0
M  V30 342 N 28.0839 -0.256276 1.55502 0
M  V30 343 C 29.3119 -1.00342 1.8094 0
M  V30 344 C 29.7269 -1.79307 0.59114 0
M  V30 345 O 29.0839 -1.77114 -0.440081 0
M  V30 346 C 29.1349 -1.94875 3.04476 0
M  V30 347 O 28.8559 -1.19107 4.21598 0
M  V30 348 C 30.3569 -2.81266 3.42644 0
M  V30 349 H 27.5769 -0.295685 0.602338 0
M  V30 350 H 30.1209 -0.281998 2.02546 0
M  V30 351 H 28.2759 -2.62457 2.84947 0
M  V30 352 H 28.6899 -1.82969 4.91551 0
M  V30 353 H 30.1639 -3.43362 4.32211 0
M  V30 354 H 30.6409 -3.51897 2.62802 0
M  V30 355 H 31.2469 -2.1915 3.64491 0
M  V30 356 N 29.562 -1.4872 -0.521534 0
M  V30 357 C 30.492 -1.66771 -1.63431 0
M  V30 358 C 31.473 -0.516499 -1.62069 0
M  V30 359 O 32.658 -0.750013 -1.79132 0
M  V30 360 C 29.788 -1.71515 -3.01993 0
M  V30 361 C 28.742 -2.86222 -3.18216 0
M  V30 362 C 28.068 -2.76061 -4.57924 0
M  V30 363 C 29.368 -4.27419 -3.00184 0
M  V30 364 H 31.062 -2.59932 -1.48579 0
M  V30 365 H 28.608 -1.25089 -0.713358 0
M  V30 366 H 30.561 -1.82731 -3.7972 0
M  V30 367 H 29.285 -0.749393 -3.17886 0
M  V30 368 H 27.944 -2.74575 -2.42908 0
M  V30 369 H 27.592 -1.77437 -4.70665 0
M  V30 370 H 27.292 -3.53037 -4.69722 0
M  V30 371 H 28.816 -2.89256 -5.37739 0
M  V30 372 H 30.23 -4.39855 -3.67697 0
M  V30 373 H 28.627 -5.05458 -3.2347 0
M  V30 374 H 29.697 -4.43293 -1.96518 0
M  V30 375 N 31.0401 0.771051 -1.3745 0
M  V30 376 C 32.2801 1.54264 -1.34096 0
M  V30 377 C 32.6441 1.91858 0.0737639 0
M  V30 378 O 33.8451 2.67797 0.23203 0
M  V30 379 C 32.1161 2.77326 -2.25445 0
M  V30 380 S 33.6751 3.67383 -2.39948 0
M  V30 381 H 30.4931 0.528122 -0.476034 0
M  V30 382 H 33.0951 0.906633 -1.73206 0
M  V30 383 H 31.7991 2.47788 -3.27153 0
M  V30 384 H 31.3301 3.45886 -1.87421 0
M  V30 385 H 33.3451 4.69334 -1.61059 0
M  V30 386 N 32.5182 1.22032 0.997298 0
M  V30 387 C 33.4482 1.01065 2.10495 0
M  V30 388 C 34.4292 -0.0669542 1.69968 0
M  V30 389 O 35.6142 0.0943987 1.9397 0
M  V30 390 C 32.7442 0.582874 3.42374 0
M  V30 391 C 31.6982 1.60592 3.96729 0
M  V30 392 C 31.0242 1.03412 5.24605 0
M  V30 393 C 32.3242 2.99478 4.27914 0
M  V30 394 H 34.0182 1.93708 2.28292 0
M  V30 395 H 31.5642 0.932761 1.09707 0
M  V30 396 H 33.5172 0.423332 4.19268 0
M  V30 397 H 32.2412 -0.379213 3.24391 0
M  V30 398 H 30.9002 1.75316 3.21963 0
M  V30 399 H 30.5482 0.063518 5.0296 0
M  V30 400 H 30.2482 1.71754 5.61938 0
M  V30 401 H 31.7722 0.886066 6.04137 0
M  V30 402 H 33.1862 2.88153 4.95622 0
M  V30 403 H 31.5832 3.64903 4.76409 0
M  V30 404 H 32.6532 3.49742 3.3587 0
M  V30 405 N 33.9963 -1.19345 1.0293 0
M  V30 406 C 35.2243 -1.92997 0.745644 0
M  V30 407 C 35.6393 -1.75519 -0.695589 0
M  V30 408 O 34.9963 -1.07737 -1.47306 0
M  V30 409 C 35.0473 -3.44741 1.08792 0
M  V30 410 O 34.7683 -3.61658 2.47256 0
M  V30 411 C 36.2693 -4.35515 0.827129 0
M  V30 412 H 33.4893 -0.613042 0.272801 0
M  V30 413 H 36.0333 -1.51473 1.3739 0
M  V30 414 H 34.1883 -3.84097 0.504832 0
M  V30 415 H 34.6023 -4.55514 2.60015 0
M  V30 416 H 36.0763 -5.40589 1.11658 0
M  V30 417 H 36.5533 -4.38552 -0.238436 0
M  V30 418 H 37.1593 -4.01841 1.39297 0
M  V30 419 N 35.4744 -0.807222 -1.35358 0
M  V30 420 C 36.7204 -0.388463 -1.99045 0
M  V30 421 C 37.0534 1.04184 -1.63888 0
M  V30 422 O 36.3284 1.72292 -0.902535 0
M  V30 423 C 36.6114 -0.572783 -3.55515 0
M  V30 424 C 36.4644 -2.04807 -4.00468 0
M  V30 425 C 37.7834 0.00114064 -4.401 0
M  V30 426 H 34.9024 -0.142619 -0.723069 0
M  V30 427 H 37.5444 -1.01687 -1.60498 0
M  V30 428 H 35.6944 -0.0378425 -3.88482 0
M  V30 429 H 37.3664 -2.64544 -3.77908 0
M  V30 430 H 35.6094 -2.54427 -3.51353 0
M  V30 431 H 36.2804 -2.12792 -5.09337 0
M  V30 432 H 38.7564 -0.455716 -4.13597 0
M  V30 433 H 37.6324 -0.157737 -5.48673 0
M  V30 434 H 37.8934 1.09488 -4.28328 0
M  V30 435 N 36.9525 1.47285 -0.560781 0
M  V30 436 C 38.1985 2.02764 -0.0381184 0
M  V30 437 C 38.5315 1.43384 1.30976 0
M  V30 438 O 37.8065 0.590733 1.85312 0
M  V30 439 C 38.0895 3.60064 0.0511427 0
M  V30 440 C 37.9425 4.2987 -1.32408 0
M  V30 441 C 39.2615 4.33439 0.762795 0
M  V30 442 H 36.3805 0.736841 -0.0153264 0
M  V30 443 H 39.0225 1.75675 -0.723759 0
M  V30 444 H 37.1725 3.83274 0.635065 0
M  V30 445 H 38.8445 4.17989 -1.95148 0
M  V30 446 H 37.0875 3.90085 -1.8978 0
M  V30 447 H 37.7585 5.38478 -1.21431 0
M  V30 448 H 40.2345 4.15243 0.266965 0
M  V30 449 H 39.1105 5.43124 0.794221 0
M  V30 450 H 39.3715 4.02915 1.81966 0
M  V30 451 N 38.4306 0.297415 1.54768 0
M  V30 452 C 39.6786 -0.312295 1.99673 0
M  V30 453 C 39.9996 -1.54686 1.18732 0
M  V30 454 O 39.2696 -1.93854 0.282382 0
M  V30 455 H 37.8496 -0.118381 0.73756 0
M  V30 456 H 40.5116 0.407915 1.90583 0
M  V30 457 H 39.6076 -0.586813 3.06534 0
M  V30 458 N 39.9087 -1.5758 0.0250728 0
M  V30 459 C 41.1547 -1.92746 -0.649648 0
M  V30 460 C 41.5097 -0.901588 -1.69968 0
M  V30 461 O 40.8027 0.0829251 -1.9142 0
M  V30 462 C 40.9967 -3.32421 -1.31268 0
M  V30 463 C 40.8257 -4.48499 -0.328394 0
M  V30 464 C 39.5957 -5.05251 0.070284 0
M  V30 465 C 41.7937 -5.12618 0.415665 0
M  V30 466 N 39.7757 -6.04851 1.05016 0
M  V30 467 C 41.1467 -6.0728 1.24943 0
M  V30 468 C 43.2017 -4.95612 0.476803 0
M  V30 469 C 41.9047 -6.86766 2.1388 0
M  V30 470 C 43.9307 -5.75703 1.3535 0
M  V30 471 C 43.2927 -6.69978 2.17504 0
M  V30 472 H 39.3917 -0.753231 -0.210159 0
M  V30 473 H 41.9757 -1.94486 0.0912999 0
M  V30 474 H 40.1467 -3.31508 -2.02379 0
M  V30 475 H 41.8787 -3.54946 -1.94411 0
M  V30 476 H 38.6337 -4.72628 -0.303323 0
M  V30 477 H 39.0577 -6.5934 1.53622 0
M  V30 478 H 43.6997 -4.22554 -0.144105 0
M  V30 479 H 41.4177 -7.59132 2.77027 0
M  V30 480 H 45.0037 -5.64579 1.40504 0
M  V30 481 H 43.8837 -7.30873 2.84244 0
M  V30 482 N 41.3868 0.248026 -1.55636 0
M  V30 483 C 42.3498 1.29044 -1.89421 0
M  V30 484 C 43.3498 1.41134 -0.770581 0
M  V30 485 O 44.5398 1.39854 -1.03858 0
M  V30 486 C 41.6718 2.66831 -2.12165 0
M  V30 487 H 42.8648 1.00305 -2.82629 0
M  V30 488 H 40.4178 0.487265 -1.48511 0
M  V30 489 H 41.1528 3.00711 -1.21422 0
M  V30 490 H 40.9378 2.59438 -2.93997 0
M  V30 491 H 42.4278 3.42103 -2.3949 0
M  V30 492 N 42.8649 1.48995 0.513639 0
M  V30 493 C 44.0929 1.61531 1.29288 0
M  V30 494 C 44.5079 0.281801 1.86685 0
M  V30 495 O 43.8649 -0.731111 1.67215 0
M  V30 496 C 43.9159 2.67449 2.43215 0
M  V30 497 O 43.6369 3.95626 1.88179 0
M  V30 498 C 45.1379 2.90575 3.34785 0
M  V30 499 H 42.3579 0.544165 0.392588 0
M  V30 500 H 44.9019 1.9494 0.617956 0
M  V30 501 H 43.0569 2.36853 3.0656 0
M  V30 502 H 43.4709 4.53868 2.62876 0
M  V30 503 H 44.9449 3.68449 4.11035 0
M  V30 504 H 45.4219 2.00011 3.91015 0
M  V30 505 H 46.0279 3.22538 2.77218 0
M  V30 506 N 44.343 -0.763751 1.37857 0
M  V30 507 C 45.568 -1.55805 1.36893 0
M  V30 508 C 45.993 -1.88054 -0.0416135 0
M  V30 509 O 45.351 -1.49825 -1.02089 0
M  V30 510 C 45.399 -2.84012 2.22192 0
M  V30 511 O 44.503 -3.78732 1.63204 0
M  V30 512 H 43.844 -0.471638 0.46739 0
M  V30 513 H 46.374 -0.944657 1.81487 0
M  V30 514 H 46.384 -3.33037 2.35691 0
M  V30 515 H 45.059 -2.59869 3.24716 0
M  V30 516 H 43.636 -3.37402 1.58791 0
M  V30 517 N 45.8211 -1.22559 -0.990812 0
M  V30 518 C 46.7691 -0.994798 -2.10253 0
M  V30 519 C 47.7631 0.0627798 -1.69284 0
M  V30 520 O 48.9691 -0.0898392 -1.79776 0
M  V30 521 H 45.3441 -0.304527 -0.687581 0
M  V30 522 H 47.3151 -1.93812 -2.26891 0
M  V30 523 C 46.0641 -0.591439 -3.42633 0
M  V30 524 H 45.3871 -1.3969 -3.74602 0
M  V30 525 H 46.8271 -0.469385 -4.21394 0
M  V30 526 C 45.2861 0.699232 -3.29564 0
M  V30 527 O 45.8161 1.75112 -3.61523 0
M  V30 528 N 44.0221 0.671182 -2.82743 0
M  V30 529 H 43.5691 -0.185136 -2.56934 0
M  V30 530 H 43.5271 1.53502 -2.7438 0
M  V30 531 N 47.2992 1.18797 -1.03562 0
M  V30 532 C 48.5292 1.92319 -0.754773 0
M  V30 533 C 48.9372 1.7612 0.691248 0
M  V30 534 O 48.2802 1.08491 1.48241 0
M  V30 535 C 48.3422 3.44284 -1.03484 0
M  V30 536 C 48.0062 3.84258 -2.47376 0
M  V30 537 C 49.0032 3.88459 -3.45537 0
M  V30 538 C 46.6882 4.15701 -2.81954 0
M  V30 539 C 48.6822 4.23545 -4.76328 0
M  V30 540 C 46.3692 4.50458 -4.12954 0
M  V30 541 C 47.3672 4.54356 -5.09951 0
M  V30 542 O 47.0552 4.88305 -6.38603 0
M  V30 543 H 46.7872 0.617527 -0.275021 0
M  V30 544 H 49.3412 1.51683 -1.38497 0
M  V30 545 H 47.5712 3.85135 -0.347513 0
M  V30 546 H 49.2602 3.99049 -0.7426 0
M  V30 547 H 50.0262 3.6431 -3.20162 0
M  V30 548 H 45.9052 4.11847 -2.0713 0
M  V30 549 H 49.4492 4.26502 -5.52035 0
M  V30 550 H 45.3462 4.74067 -4.38099 0
M  V30 551 H 46.1142 5.06227 -6.43177 0
M  V30 552 N 48.7773 0.814389 1.34928 0
M  V30 553 C 50.0243 0.398423 1.98542 0
M  V30 554 C 50.3523 -1.03638 1.64589 0
M  V30 555 O 49.6073 -1.73509 0.90516 0
M  V30 556 C 49.9063 0.537781 3.53331 0
M  V30 557 C 49.5723 1.93704 4.07172 0
M  V30 558 C 48.2343 2.31984 4.21589 0
M  V30 559 C 50.5863 2.85213 4.36237 0
M  V30 560 C 47.9143 3.61125 4.62391 0
M  V30 561 C 50.2663 4.13809 4.78482 0
M  V30 562 C 48.9303 4.52077 4.91104 0
M  V30 563 H 48.2003 0.145793 0.726516 0
M  V30 564 H 50.8473 1.03669 1.61012 0
M  V30 565 H 49.1523 -0.183906 3.91368 0
M  V30 566 H 50.8493 0.196588 4.00518 0
M  V30 567 H 47.4393 1.62966 3.96409 0
M  V30 568 H 51.6233 2.56885 4.24645 0
M  V30 569 H 46.8793 3.90612 4.70353 0
M  V30 570 H 51.0533 4.84811 4.99932 0
M  V30 571 H 48.6803 5.52196 5.22478 0
M  V30 572 N 50.2554 -1.46986 0.568584 0
M  V30 573 C 51.5014 -2.02741 0.0488709 0
M  V30 574 C 51.8344 -1.44077 -1.30214 0
M  V30 575 O 51.1094 -0.600552 -1.84996 0
M  V30 576 C 51.3924 -3.60086 -0.032047 0
M  V30 577 C 51.2454 -4.29162 1.34686 0
M  V30 578 C 52.5644 -4.33838 -0.739798 0
M  V30 579 H 49.6834 -0.736749 0.0192338 0
M  V30 580 H 52.3254 -1.75289 0.733065 0
M  V30 581 H 50.4754 -3.83606 -0.61473 0
M  V30 582 H 52.1474 -4.16948 1.97362 0
M  V30 583 H 50.3904 -3.89073 1.91846 0
M  V30 584 H 51.0614 -5.37826 1.24285 0
M  V30 585 H 53.5374 -4.15378 -0.244939 0
M  V30 586 H 52.4134 -5.43537 -0.765406 0
M  V30 587 H 52.6744 -4.03875 -1.79827 0
M  V30 588 N 51.7335 -0.305618 -1.54608 0
M  V30 589 C 52.9815 0.301701 -1.99835 0
M  V30 590 C 53.3025 1.54054 -1.19551 0
M  V30 591 O 52.5725 1.93702 -0.292658 0
M  V30 592 H 51.1525 0.114468 -0.738178 0
M  V30 593 H 53.8145 -0.418016 -1.90364 0
M  V30 594 H 52.9105 0.570548 -3.06841 0
M  V30 595 N 53.2116 1.57565 -0.0334293 0
M  V30 596 C 54.1746 2.09393 0.932048 0
M  V30 597 C 55.1746 1.00986 1.25134 0
M  V30 598 O 56.3646 1.27129 1.19096 0
M  V30 599 C 53.4966 2.56338 2.2473 0
M  V30 600 H 54.6896 2.95984 0.483085 0
M  V30 601 H 52.2426 1.54819 0.21468 0
M  V30 602 H 52.9776 1.7309 2.74245 0
M  V30 603 H 52.7626 3.35542 2.02865 0
M  V30 604 H 54.2526 2.96646 2.93923 0
M  V30 605 N 54.6897 -0.239769 1.55765 0
M  V30 606 C 55.9387 -0.964754 1.77131 0
M  V30 607 C 56.2517 -1.86213 0.59868 0
M  V30 608 O 57.4577 -2.6244 0.695522 0
M  V30 609 C 55.9137 -1.76552 3.1362 0
M  V30 610 C 55.5217 -0.915185 4.38553 0
M  V30 611 C 57.2657 -2.48281 3.44321 0
M  V30 612 C 55.1727 -1.71225 5.66071 0
M  V30 613 H 54.1027 -0.363953 0.660344 0
M  V30 614 H 56.7537 -0.219181 1.82186 0
M  V30 615 H 55.1357 -2.55331 3.02691 0
M  V30 616 H 56.3097 -0.169217 4.60489 0
M  V30 617 H 54.6247 -0.310889 4.15238 0
M  V30 618 H 57.2217 -3.08382 4.36812 0
M  V30 619 H 57.5647 -3.20256 2.65973 0
M  V30 620 H 58.0977 -1.76507 3.56497 0
M  V30 621 H 54.8367 -1.03612 6.4726 0
M  V30 622 H 54.3567 -2.43331 5.48224 0
M  V30 623 H 56.0357 -2.27758 6.05587 0
M  V30 624 N 56.1678 -1.49265 -0.50573 0
M  V30 625 C 57.0998 -1.617 -1.62437 0
M  V30 626 C 58.1128 -0.499924 -1.54934 0
M  V30 627 O 59.3018 -0.771785 -1.60953 0
M  V30 628 C 56.4018 -1.5533 -3.01207 0
M  V30 629 C 55.5748 -2.8249 -3.33943 0
M  V30 630 C 54.6338 -2.69238 -4.52103 0
M  V30 631 O 53.6598 -3.43167 -4.5412 0
M  V30 632 N 54.8618 -1.80468 -5.51735 0
M  V30 633 H 57.6268 -2.58177 -1.52199 0
M  V30 634 H 55.1878 -1.46294 -0.693511 0
M  V30 635 H 57.1798 -1.44125 -3.78167 0
M  V30 636 H 55.7498 -0.667297 -3.05395 0
M  V30 637 H 54.9698 -3.08081 -2.45926 0
M  V30 638 H 56.2578 -3.66802 -3.5261 0
M  V30 639 H 55.6558 -1.19653 -5.52901 0
M  V30 640 H 54.2128 -1.75188 -6.27816 0
M  V30 641 N 57.6459 0.756429 -1.3826 0
M  V30 642 C 58.5559 1.9009 -1.37488 0
M  V30 643 C 59.5719 1.71855 -0.272366 0
M  V30 644 O 60.7479 1.94827 -0.510318 0
M  V30 645 C 57.8129 3.25421 -1.19592 0
M  V30 646 C 56.8739 3.56202 -2.39622 0
M  V30 647 C 56.1069 4.85075 -2.2257 0
M  V30 648 O 56.3299 5.57246 -1.21793 0
M  V30 649 O 55.2639 5.15269 -3.11098 0
M  V30 650 H 59.0899 1.93695 -2.33914 0
M  V30 651 H 56.6749 0.901313 -1.1915 0
M  V30 652 H 58.5569 4.06337 -1.11661 0
M  V30 653 H 57.2319 3.22634 -0.262486 0
M  V30 654 H 56.1389 2.75458 -2.53128 0
M  V30 655 H 57.4719 3.63747 -3.31586 0
M  V30 656 N 59.124 1.23083 0.984299 0
M  V30 657 C 60.373 1.05466 1.71929 0
M  V30 658 C 60.686 -0.409211 1.91272 0
M  V30 659 O 61.892 -0.705226 2.62181 0
M  V30 660 C 60.348 1.83874 3.09384 0
M  V30 661 C 59.956 3.34566 2.97943 0
M  V30 662 C 61.7 1.74734 3.8687 0
M  V30 663 C 59.607 4.05381 4.30605 0
M  V30 664 H 58.537 0.391039 0.644674 0
M  V30 665 H 61.188 1.47013 1.09815 0
M  V30 666 H 59.57 1.35131 3.72231 0
M  V30 667 H 60.744 3.90767 2.44209 0
M  V30 668 H 59.059 3.44476 2.33934 0
M  V30 669 H 61.656 2.24957 4.85076 0
M  V30 670 H 61.999 0.709372 4.10212 0
M  V30 671 H 62.532 2.21067 3.30717 0
M  V30 672 H 59.271 5.09467 4.1246 0
M  V30 673 H 58.791 3.53967 4.84218 0
M  V30 674 H 60.47 4.11458 4.99311 0
M  V30 675 N 60.6021 -1.18246 1.0419 0
M  V30 676 C 62.0131 -1.69914 0.773698 0
M  V30 677 C 62.3641 -1.83085 -0.705297 0
M  V30 678 O 61.4891 -1.51123 -1.5489 0
M  V30 679 C 62.0841 -3.08619 1.39784 0
M  V30 680 C 60.6431 -3.57494 1.17792 0
M  V30 681 C 59.7901 -2.34013 1.48773 0
M  V30 682 H 62.7411 -1.02904 1.20816 0
M  V30 683 H 62.7621 -3.71958 0.801714 0
M  V30 684 H 62.2741 -2.99001 2.47426 0
M  V30 685 H 60.3751 -3.72406 0.120295 0
M  V30 686 H 60.4881 -4.40852 1.87581 0
M  V30 687 H 58.8521 -2.37986 0.907463 0
M  V30 688 H 59.6351 -2.27013 2.57527 0
M  V30 689 N 62.0802 -0.821533 -1.34494 0
M  V30 690 C 63.0272 -0.240397 -2.29545 0
M  V30 691 C 63.9972 0.634031 -1.53523 0
M  V30 692 O 65.1822 0.575966 -1.81899 0
M  V30 693 C 62.3222 0.592869 -3.39969 0
M  V30 694 C 61.4352 -0.30365 -4.30932 0
M  V30 695 C 60.5702 0.539049 -5.28458 0
M  V30 696 C 59.6092 -0.356942 -6.11058 0
M  V30 697 N 58.7462 0.446603 -7.00678 0
M  V30 698 H 63.5862 -1.05632 -2.7865 0
M  V30 699 H 61.1232 -0.532413 -1.37127 0
M  V30 700 H 63.0812 1.09129 -4.02675 0
M  V30 701 H 61.7112 1.37392 -2.92102 0
M  V30 702 H 60.7632 -0.920276 -3.691 0
M  V30 703 H 62.0752 -0.992661 -4.88823 0
M  V30 704 H 61.2292 1.102 -5.96608 0
M  V30 705 H 59.9682 1.26157 -4.71101 0
M  V30 706 H 58.9732 -0.932047 -5.41842 0
M  V30 707 H 60.1982 -1.07755 -6.70497 0
M  V30 708 H 58.1442 1.15282 -6.45791 0
M  V30 709 H 58.0612 -0.184048 -7.55776 0
M  V30 710 H 59.3292 0.992352 -7.73158 0
M  V30 711 N 63.5583 1.46682 -0.576371 0
M  V30 712 C 64.5213 2.28707 0.150239 0
M  V30 713 C 65.5213 1.38035 0.824794 0
M  V30 714 O 66.7113 1.60476 0.677719 0
M  V30 715 C 63.8433 3.18248 1.22192 0
M  V30 716 H 65.0363 2.94423 -0.570521 0
M  V30 717 H 62.5893 1.52688 -0.334078 0
M  V30 718 H 63.3243 2.57265 1.97447 0
M  V30 719 H 63.1093 3.85 0.742812 0
M  V30 720 H 64.5993 3.80001 1.73172 0
M  V30 721 N 65.0364 0.313813 1.54444 0
M  V30 722 C 65.9834 -0.55655 2.23989 0
M  V30 723 C 66.9534 -1.11943 1.22711 0
M  V30 724 O 68.1384 -1.16158 1.51367 0
M  V30 725 C 65.2784 -1.71635 2.99392 0
M  V30 726 C 64.3914 -1.18364 4.15468 0
M  V30 727 C 63.5264 -2.30834 4.78424 0
M  V30 728 C 62.5654 -1.74762 5.86622 0
M  V30 729 N 61.7024 -2.80855 6.43479 0
M  V30 730 H 66.5424 0.0430893 2.97969 0
M  V30 731 H 64.0794 0.0330359 1.47063 0
M  V30 732 H 66.0374 -2.39868 3.41349 0
M  V30 733 H 64.6674 -2.28742 2.27765 0
M  V30 734 H 63.7194 -0.393163 3.78363 0
M  V30 735 H 65.0314 -0.733262 4.93381 0
M  V30 736 H 64.1854 -3.0699 5.23299 0
M  V30 737 H 62.9244 -2.79204 3.99871 0
M  V30 738 H 61.9294 -0.970995 5.41158 0
M  V30 739 H 63.1544 -1.2728 6.67066 0
M  V30 740 H 61.1004 -3.28535 5.67804 0
M  V30 741 H 61.0174 -2.40351 7.16776 0
M  V30 742 H 62.2854 -3.5687 6.93011 0
M  V30 743 N 66.5145 -1.57545 0.0417849 0
M  V30 744 C 67.4245 -2.14451 -0.951213 0
M  V30 745 C 68.4405 -1.09992 -1.34825 0
M  V30 746 O 69.6165 -1.42114 -1.42708 0
M  V30 747 C 66.6815 -2.67063 -2.21084 0
M  V30 748 C 65.7425 -3.86284 -1.87304 0
M  V30 749 C 64.9755 -4.36378 -3.07261 0
M  V30 750 O 65.1985 -3.85587 -4.20332 0
M  V30 751 O 64.1325 -5.28077 -2.88822 0
M  V30 752 H 67.9585 -2.99601 -0.497287 0
M  V30 753 H 65.5435 -1.48317 -0.179567 0
M  V30 754 H 67.4255 -3.00914 -2.95006 0
M  V30 755 H 66.1005 -1.84989 -2.65633 0
M  V30 756 H 65.0075 -3.57338 -1.10727 0
M  V30 757 H 66.3405 -4.6956 -1.47562 0
M  V30 758 N 67.9926 0.231505 -1.5589 0
M  V30 759 C 69.2396 0.957352 -1.78441 0
M  V30 760 C 69.5676 1.84726 -0.60882 0
M  V30 761 O 68.8226 1.91416 0.40725 0
M  V30 762 C 69.1216 1.83577 -3.0665 0
M  V30 763 C 68.7876 1.09993 -4.37278 0
M  V30 764 C 67.4496 0.896629 -4.72773 0
M  V30 765 C 69.8016 0.579558 -5.17968 0
M  V30 766 C 67.1296 0.160896 -5.86479 0
M  V30 767 C 69.4816 -0.142783 -6.32439 0
M  V30 768 C 68.1456 -0.357427 -6.66542 0
M  V30 769 H 67.4156 0.35032 -0.65296 0
M  V30 770 H 70.0626 0.226259 -1.90159 0
M  V30 771 H 68.3676 2.63441 -2.90011 0
M  V30 772 H 70.0646 2.39934 -3.21298 0
M  V30 773 H 66.6546 1.26835 -4.09403 0
M  V30 774 H 70.8386 0.724125 -4.90989 0
M  V30 775 H 66.0946 -0.0157293 -6.11398 0
M  V30 776 H 70.2686 -0.553559 -6.94196 0
M  V30 777 H 67.8956 -0.929466 -7.54497 0
M  V30 778 N 69.4707 1.49531 0.497807 0
M  V30 779 C 70.4037 1.61043 1.6168 0
M  V30 780 C 71.3817 0.459386 1.55976 0
M  V30 781 O 72.5657 0.675358 1.75986 0
M  V30 782 C 69.6927 1.56833 3.00202 0
M  V30 783 C 68.7387 2.77173 3.24156 0
M  V30 784 S 69.5717 4.38808 3.06933 0
M  V30 785 C 70.7277 4.37248 4.47845 0
M  V30 786 H 70.9607 2.55702 1.51671 0
M  V30 787 H 68.4937 1.38462 0.683201 0
M  V30 788 H 70.4517 1.55089 3.80076 0
M  V30 789 H 69.1127 0.634561 3.07623 0
M  V30 790 H 68.3057 2.70456 4.25288 0
M  V30 791 H 67.9077 2.76346 2.5201 0
M  V30 792 H 70.1997 4.09164 5.39992 0
M  V30 793 H 71.1427 5.38668 4.59612 0
M  V30 794 H 71.5507 3.67286 4.28674 0
M  V30 795 N 70.9488 -0.749086 1.3866 0
M  V30 796 C 71.9118 -1.84457 1.36045 0
M  V30 797 C 72.9118 -1.58682 0.260122 0
M  V30 798 O 74.1018 -1.66343 0.517261 0
M  V30 799 C 71.2338 -3.22008 1.11911 0
M  V30 800 H 72.4268 -1.88182 2.33512 0
M  V30 801 H 69.9798 -0.951266 1.24019 0
M  V30 802 H 70.7148 -3.2395 0.150686 0
M  V30 803 H 70.4998 -3.42111 1.91579 0
M  V30 804 H 71.9898 -4.0208 1.12788 0
M  V30 805 N 72.4269 -1.23603 -0.977757 0
M  V30 806 C 73.3749 -1.01704 -2.09187 0
M  V30 807 C 74.3689 0.0448214 -1.69341 0
M  V30 808 O 75.5749 -0.108902 -1.7967 0
M  V30 809 H 71.9499 -0.311803 -0.684312 0
M  V30 810 H 73.9209 -1.96207 -2.24823 0
M  V30 811 C 72.6699 -0.627746 -3.41986 0
M  V30 812 H 71.9929 -1.43656 -3.73099 0
M  V30 813 H 73.4329 -0.514053 -4.20872 0
M  V30 814 C 71.8919 0.664238 -3.30287 0
M  V30 815 O 72.4219 1.71268 -3.6336 0
M  V30 816 N 70.6279 0.641156 -2.83439 0
M  V30 817 H 70.1749 -0.212376 -2.56723 0
M  V30 818 H 70.1329 1.50583 -2.75993 0
M  V30 819 N 73.905 1.17692 -1.04816 0
M  V30 820 C 75.152 1.87859 -0.75599 0
M  V30 821 C 75.48 1.80812 0.716752 0
M  V30 822 O 74.735 1.20819 1.53952 0
M  V30 823 C 75.034 3.37462 -1.17703 0
M  V30 824 C 74.7 3.64713 -2.65133 0
M  V30 825 C 73.362 3.71859 -3.05408 0
M  V30 826 C 75.714 3.76492 -3.60421 0
M  V30 827 C 73.042 3.88271 -4.39843 0
M  V30 828 C 75.394 3.94421 -4.94585 0
M  V30 829 C 74.058 3.99806 -5.3452 0
M  V30 830 H 73.328 0.687425 -0.276636 0
M  V30 831 H 75.975 1.39255 -1.31455 0
M  V30 832 H 74.28 3.88097 -0.537395 0
M  V30 833 H 75.977 3.90109 -0.928218 0
M  V30 834 H 72.567 3.59772 -2.32942 0
M  V30 835 H 76.751 3.70295 -3.30447 0
M  V30 836 H 72.007 3.90687 -4.70291 0
M  V30 837 H 76.181 4.02477 -5.68318 0
M  V30 838 H 73.808 4.12276 -6.38696 0
M  V30 839 N 75.3831 0.828654 1.34056 0
M  V30 840 C 76.3331 0.226828 2.26869 0
M  V30 841 C 77.3171 -0.612243 1.48796 0
M  V30 842 O 78.5091 -0.465884 1.70759 0
M  V30 843 C 75.6381 -0.605654 3.37915 0
M  V30 844 C 74.7241 0.244361 4.23395 0
M  V30 845 N 75.1151 1.31815 4.88322 0
M  V30 846 C 73.4131 0.0296616 4.4599 0
M  V30 847 C 74.1141 1.83895 5.51867 0
M  V30 848 N 73.0901 1.14196 5.3147 0
M  V30 849 H 76.8921 1.04811 2.74576 0
M  V30 850 H 74.4061 0.67205 1.47842 0
M  V30 851 H 76.4031 -1.05302 4.03382 0
M  V30 852 H 75.0631 -1.42504 2.91758 0
M  V30 853 H 76.0741 1.70099 4.8917 0
M  V30 854 H 72.7511 -0.757097 4.10578 0
M  V30 855 H 74.1411 2.7376 6.136 0
M  V30 856 N 76.8612 -1.46375 0.584142 0
M  V30 857 C 77.8082 -2.30323 -0.148286 0
M  V30 858 C 78.7782 -1.40703 -0.882713 0
M  V30 859 O 79.9632 -1.69651 -0.873099 0
M  V30 860 C 77.1032 -3.25196 -1.15507 0
M  V30 861 C 76.2162 -4.29915 -0.423943 0
M  V30 862 C 75.3512 -5.11914 -1.41838 0
M  V30 863 C 74.3902 -6.08381 -0.673736 0
M  V30 864 N 73.5272 -6.83242 -1.6163 0
M  V30 865 H 78.3672 -2.92427 0.573644 0
M  V30 866 H 75.9042 -1.44118 0.294703 0
M  V30 867 H 77.8622 -3.78646 -1.75166 0
M  V30 868 H 76.4922 -2.64898 -1.8447 0
M  V30 869 H 75.5442 -3.7931 0.287714 0
M  V30 870 H 76.8562 -4.98549 0.158128 0
M  V30 871 H 76.0102 -5.69648 -2.08773 0
M  V30 872 H 74.7492 -4.43243 -2.03438 0
M  V30 873 H 73.7542 -5.49799 0.00938483 0
M  V30 874 H 74.9792 -6.79071 -0.0631082 0
M  V30 875 H 72.9252 -6.1728 -2.22038 0
M  V30 876 H 72.8422 -7.48144 -1.08707 0
M  V30 877 H 74.1102 -7.45534 -2.27596 0
M  V30 878 N 78.3393 -0.321999 -1.54275 0
M  V30 879 C 79.5673 0.283052 -2.04955 0
M  V30 880 C 79.9823 1.45904 -1.19823 0
M  V30 881 O 79.3393 1.81063 -0.228545 0
M  V30 882 C 79.3903 0.719028 -3.54277 0
M  V30 883 O 79.1113 -0.410175 -4.36176 0
M  V30 884 C 80.6123 1.38705 -4.21041 0
M  V30 885 H 77.8323 0.0584616 -0.668448 0
M  V30 886 H 80.3763 -0.467734 -1.99079 0
M  V30 887 H 78.5313 1.41979 -3.60445 0
M  V30 888 H 78.9453 -0.0669416 -5.24457 0
M  V30 889 H 80.4193 1.64306 -5.2698 0
M  V30 890 H 80.8963 2.33385 -3.72059 0
M  V30 891 H 81.5023 0.728906 -4.19007 0
M  V30 892 N 79.8174 1.5752 -0.0501392 0
M  V30 893 C 80.7474 2.14502 0.922566 0
M  V30 894 C 81.7284 1.06642 1.3252 0
M  V30 895 O 82.9134 1.34577 1.4001 0
M  V30 896 C 80.0434 2.68916 2.19776 0
M  V30 897 C 78.9974 3.8175 1.93523 0
M  V30 898 C 78.3234 4.22677 3.27487 0
M  V30 899 C 79.6234 5.06932 1.25765 0
M  V30 900 H 81.3174 2.9603 0.447952 0
M  V30 901 H 78.8634 1.42401 0.214024 0
M  V30 902 H 80.8164 3.07419 2.88222 0
M  V30 903 H 79.5404 1.84578 2.69441 0
M  V30 904 H 78.1994 3.43718 1.27489 0
M  V30 905 H 77.8474 3.35291 3.74952 0
M  V30 906 H 77.5474 4.98725 3.1072 0
M  V30 907 H 79.0714 4.63779 3.97166 0
M  V30 908 H 80.4854 5.42888 1.84244 0
M  V30 909 H 78.8824 5.88116 1.19328 0
M  V30 910 H 79.9524 4.84337 0.233536 0
M  V30 911 N 81.2955 -0.223234 1.56011 0
M  V30 912 C 82.5445 -0.945912 1.78144 0
M  V30 913 C 82.8575 -1.85567 0.618396 0
M  V30 914 O 84.0635 -2.61688 0.723318 0
M  V30 915 C 82.5195 -1.73216 3.15475 0
M  V30 916 C 82.1275 -0.868619 4.39499 0
M  V30 917 C 83.8715 -2.44615 3.46935 0
M  V30 918 C 81.7785 -1.65212 5.67855 0
M  V30 919 H 80.7085 -0.356929 0.664167 0
M  V30 920 H 83.3595 -0.199845 1.82409 0
M  V30 921 H 81.7415 -2.52107 3.05382 0
M  V30 922 H 82.9155 -0.120366 4.60643 0
M  V30 923 H 81.2305 -0.26683 4.15544 0
M  V30 924 H 83.8275 -3.03732 4.40058 0
M  V30 925 H 84.1705 -3.17417 2.69355 0
M  V30 926 H 84.7035 -1.72715 3.58349 0
M  V30 927 H 81.4425 -0.967407 6.48322 0
M  V30 928 H 80.9625 -2.37503 5.50774 0
M  V30 929 H 82.6415 -2.21322 6.07968 0
M  V30 930 N 82.7736 -1.49793 -0.48987 0
M  V30 931 C 83.7036 -1.70201 -1.59856 0
M  V30 932 C 84.6846 -0.55076 -1.60937 0
M  V30 933 O 85.8696 -0.787841 -1.77501 0
M  V30 934 C 82.9996 -1.77882 -2.98287 0
M  V30 935 C 81.9536 -2.92907 -3.12073 0
M  V30 936 C 81.2796 -2.85712 -4.51965 0
M  V30 937 C 82.5796 -4.3369 -2.91051 0
M  V30 938 H 84.2736 -2.63025 -1.43032 0
M  V30 939 H 81.8196 -1.26574 -0.686664 0
M  V30 940 H 83.7726 -1.90744 -3.75759 0
M  V30 941 H 82.4966 -0.816653 -3.16225 0
M  V30 942 H 81.1556 -2.79665 -2.37029 0
M  V30 943 H 80.8036 -1.8738 -4.66795 0
M  V30 944 H 80.5036 -3.62921 -4.62128 0
M  V30 945 H 82.0276 -3.00598 -5.31482 0
M  V30 946 H 83.4416 -4.47555 -3.58284 0
M  V30 947 H 81.8386 -5.12205 -3.12675 0
M  V30 948 H 82.9086 -4.47362 -1.87071 0
M  V30 949 N 84.2517 0.741722 -1.39055 0
M  V30 950 C 85.4997 1.49818 -1.35643 0
M  V30 951 C 85.8207 1.94938 0.0491642 0
M  V30 952 O 85.0907 1.68505 0.999141 0
M  V30 953 H 83.6707 0.555755 -0.499144 0
M  V30 954 H 86.3327 0.880957 -1.73854 0
M  V30 955 H 85.4287 2.38348 -2.01486 0
M  V30 956 N 85.7298 1.2412 0.971189 0
M  V30 957 C 86.6768 1.0305 2.06517 0
M  V30 958 C 87.6468 -0.0550666 1.66009 0
M  V30 959 O 88.8318 0.0988688 1.90544 0
M  V30 960 C 85.9718 0.637653 3.39158 0
M  V30 961 C 85.0848 1.79633 3.92882 0
M  V30 962 C 84.2198 1.34939 5.13775 0
M  V30 963 C 83.2588 2.47823 5.59687 0
M  V30 964 N 82.3958 2.04022 6.71803 0
M  V30 965 H 87.2358 1.96685 2.23873 0
M  V30 966 H 84.7728 0.979694 1.09729 0
M  V30 967 H 86.7308 0.390931 4.15364 0
M  V30 968 H 85.3608 -0.261693 3.21737 0
M  V30 969 H 84.4128 2.15681 3.13346 0
M  V30 970 H 85.7248 2.64466 4.22918 0
M  V30 971 H 84.8788 1.06134 5.97345 0
M  V30 972 H 83.6178 0.471557 4.85415 0
M  V30 973 H 82.6228 2.77392 4.74693 0
M  V30 974 H 83.8478 3.36158 5.90063 0
M  V30 975 H 81.7938 1.18632 6.45184 0
M  V30 976 H 81.7108 2.82409 7.01271 0
M  V30 977 H 82.9788 1.78347 7.58823 0
M  V30 978 N 87.2079 -1.17134 1.05439 0
M  V30 979 C 88.4559 -1.87085 0.764429 0
M  V30 980 C 88.7769 -1.81584 -0.710787 0
M  V30 981 O 88.0469 -1.24349 -1.51374 0
M  V30 982 H 86.6269 -0.692627 0.279779 0
M  V30 983 H 89.2889 -1.42087 1.33406 0
M  V30 984 H 88.3849 -2.92759 1.0816 0
M  V30 985 N 88.686 -0.835752 -1.33615 0
M  V30 986 C 89.633 -0.26473 -2.29277 0
M  V30 987 C 90.603 0.617712 -1.54187 0
M  V30 988 O 91.788 0.556641 -1.825 0
M  V30 989 C 88.928 0.556777 -3.40579 0
M  V30 990 C 88.041 -0.349339 -4.30585 0
M  V30 991 C 87.176 0.482969 -5.29 0
M  V30 992 C 86.215 -0.421732 -6.10645 0
M  V30 993 N 85.352 0.372262 -7.01112 0
M  V30 994 H 90.192 -1.08582 -2.77514 0
M  V30 995 H 87.729 -0.546927 -1.36554 0
M  V30 996 H 89.687 1.04852 -4.03809 0
M  V30 997 H 88.317 1.34286 -2.93542 0
M  V30 998 H 87.369 -0.959372 -3.68104 0
M  V30 999 H 88.681 -1.04445 -4.87742 0
M  V30 1000 H 87.835 1.03866 -5.97743 0
M  V30 1001 H 86.574 1.21153 -4.72412 0
M  V30 1002 H 85.579 -0.989464 -5.40823 0
M  V30 1003 H 86.804 -1.14861 -6.69316 0
M  V30 1004 H 84.75 1.08426 -6.46977 0
M  V30 1005 H 84.667 -0.264198 -7.55538 0
M  V30 1006 H 85.935 0.910293 -7.74167 0
M  V30 1007 N 90.1641 1.46063 -0.591896 0
M  V30 1008 C 91.3921 2.06717 -0.0868936 0
M  V30 1009 C 91.8071 1.43916 1.22203 0
M  V30 1010 O 91.1641 0.547698 1.74088 0
M  V30 1011 C 91.2151 3.6142 0.0758725 0
M  V30 1012 O 90.9361 4.21874 -1.18126 0
M  V30 1013 C 92.4371 4.39025 0.61416 0
M  V30 1014 H 89.6571 0.668162 -0.0616518 0
M  V30 1015 H 92.2011 1.8755 -0.815175 0
M  V30 1016 H 90.3561 3.79983 0.754413 0
M  V30 1017 H 90.7701 5.14861 -1.00092 0
M  V30 1018 H 92.2441 5.4783 0.677193 0
M  V30 1019 H 92.7211 4.07708 1.63312 0
M  V30 1020 H 93.3271 4.2529 -0.0298142 0
M  V30 1021 N 91.6422 0.330177 1.54103 0
M  V30 1022 C 92.5722 -0.525353 2.27513 0
M  V30 1023 C 93.5532 -1.11383 1.2856 0
M  V30 1024 O 94.7382 -1.13773 1.57383 0
M  V30 1025 C 91.8682 -1.6831 3.03791 0
M  V30 1026 C 90.8222 -1.2236 4.10137 0
M  V30 1027 C 90.1482 -2.46882 4.74293 0
M  V30 1028 C 91.4482 -0.333697 5.21233 0
M  V30 1029 H 93.1422 0.087013 2.99274 0
M  V30 1030 H 90.6882 0.0432893 1.43935 0
M  V30 1031 H 92.6412 -2.28795 3.5388 0
M  V30 1032 H 91.3652 -2.32216 2.29659 0
M  V30 1033 H 90.0242 -0.64165 3.60941 0
M  V30 1034 H 89.6722 -3.09165 3.96769 0
M  V30 1035 H 89.3722 -2.16825 5.46133 0
M  V30 1036 H 90.8962 -3.08117 5.27159 0
M  V30 1037 H 92.3102 -0.845013 5.67038 0
M  V30 1038 H 90.7072 -0.125612 5.99969 0
M  V30 1039 H 91.7772 0.633724 4.80741 0
M  V30 1040 N 93.1203 -1.57491 0.0584922 0
M  V30 1041 C 94.3483 -1.97296 -0.623037 0
M  V30 1042 C 94.7633 -0.936338 -1.63946 0
M  V30 1043 O 94.1203 0.0785981 -1.82331 0
M  V30 1044 C 94.1713 -3.37183 -1.30345 0
M  V30 1045 O 93.8923 -4.36872 -0.32773 0
M  V30 1046 C 95.3933 -3.91788 -2.07406 0
M  V30 1047 H 92.6133 -0.649153 -0.169826 0
M  V30 1048 H 95.1573 -2.04106 0.12696 0
M  V30 1049 H 93.3123 -3.31502 -2.00463 0
M  V30 1050 H 93.7263 -5.18141 -0.814269 0
M  V30 1051 H 95.2003 -4.91926 -2.50425 0
M  V30 1052 H 95.6773 -3.27609 -2.92521 0
M  V30 1053 H 96.2833 -4.00829 -1.42184 0
M  V30 1054 N 94.5984 0.214957 -1.56127 0
M  V30 1055 C 95.5464 1.28601 -1.93816 0
M  V30 1056 C 96.5404 1.48175 -0.821016 0
M  V30 1057 O 97.7464 1.49271 -1.0059 0
M  V30 1058 H 94.1214 0.431302 -0.616022 0
M  V30 1059 H 96.0924 0.940991 -2.83175 0
M  V30 1060 C 94.8414 2.62779 -2.27689 0
M  V30 1061 H 94.1644 2.48527 -3.13168 0
M  V30 1062 H 95.6044 3.36517 -2.57939 0
M  V30 1063 C 94.0634 3.18285 -1.10436 0
M  V30 1064 O 94.5934 4.00002 -0.368945 0
M  V30 1065 N 92.7994 2.7675 -0.886433 0
M  V30 1066 H 92.3464 2.10404 -1.48619 0
M  V30 1067 H 92.3044 3.14229 -0.103656 0
M  V30 1068 N 96.0765 1.50051 0.48192 0
M  V30 1069 C 96.9865 1.7089 1.60728 0
M  V30 1070 C 98.0025 0.591788 1.63627 0
M  V30 1071 O 99.1785 0.868817 1.81696 0
M  V30 1072 C 96.2435 1.78855 2.97005 0
M  V30 1073 C 95.3045 3.02537 3.04581 0
M  V30 1074 C 94.5375 3.10112 4.34357 0
M  V30 1075 O 94.7605 2.24765 5.24249 0
M  V30 1076 O 93.6945 4.02747 4.47301 0
M  V30 1077 H 97.5205 2.66264 1.46072 0
M  V30 1078 H 95.1055 1.34018 0.660264 0
M  V30 1079 H 96.9875 1.86336 3.77964 0
M  V30 1080 H 95.6625 0.866628 3.11883 0
M  V30 1081 H 94.5695 3.00563 2.22739 0
M  V30 1082 H 95.9025 3.94272 2.94636 0
M  V30 1083 N 97.5546 -0.734337 1.39446 0
M  V30 1084 C 98.5176 -1.83004 1.37994 0
M  V30 1085 C 99.5176 -1.58397 0.276938 0
M  V30 1086 O 100.708 -1.65785 0.534875 0
M  V30 1087 C 97.8396 -3.20802 1.1532 0
M  V30 1088 H 99.0326 -1.85694 2.35494 0
M  V30 1089 H 96.5856 -0.938059 1.25021 0
M  V30 1090 H 97.3206 -3.23772 0.185036 0
M  V30 1091 H 97.1056 -3.4006 1.95197 0
M  V30 1092 H 98.5956 -4.00862 1.17046 0
M  V30 1093 N 99.0327 -1.24633 -0.964593 0
M  V30 1094 C 100.258 -1.11596 -1.74818 0
M  V30 1095 C 100.683 0.32723 -1.85232 0
M  V30 1096 O 100.041 1.23695 -1.32549 0
M  V30 1097 C 100.089 -1.76397 -3.1451 0
M  V30 1098 O 99.1927 -1.03685 -3.99153 0
M  V30 1099 H 98.5337 -0.390196 -0.537255 0
M  V30 1100 H 101.064 -1.65002 -1.20977 0
M  V30 1101 H 101.074 -1.8228 -3.65018 0
M  V30 1102 H 99.7487 -2.81401 -3.06246 0
M  V30 1103 H 98.3257 -1.05611 -3.57632 0
M  V30 1104 N 100.511 1.16574 -1.06058 0
M  V30 1105 C 101.739 1.90952 -0.796552 0
M  V30 1106 C 102.154 1.77302 0.648808 0
M  V30 1107 O 101.511 1.11605 1.44397 0
M  V30 1108 C 101.562 3.41736 -1.17894 0
M  V30 1109 O 101.283 3.54975 -2.56758 0
M  V30 1110 C 102.784 4.33169 -0.942308 0
M  V30 1111 H 100.004 0.605594 -0.288959 0
M  V30 1112 H 102.548 1.47777 -1.41358 0
M  V30 1113 H 100.703 3.82623 -0.606491 0
M  V30 1114 H 101.117 4.4846 -2.72 0
M  V30 1115 H 102.591 5.37439 -1.25952 0
M  V30 1116 H 103.068 4.3903 0.122078 0
M  V30 1117 H 103.674 3.98007 -1.49902 0
M  V30 1118 N 101.989 0.842826 1.3317 0
M  V30 1119 C 102.936 0.276885 2.29133 0
M  V30 1120 C 103.906 -0.609527 1.54512 0
M  V30 1121 O 105.091 -0.546955 1.82792 0
M  V30 1122 C 102.231 -0.538707 3.40869 0
M  V30 1123 C 101.344 0.372169 4.30394 0
M  V30 1124 C 100.479 -0.454908 5.29249 0
M  V30 1125 C 99.5179 0.45411 6.10413 0
M  V30 1126 N 98.6549 -0.335075 7.013 0
M  V30 1127 H 103.495 1.10052 2.76934 0
M  V30 1128 H 101.032 0.554161 1.36262 0
M  V30 1129 H 102.99 -1.02709 4.0436 0
M  V30 1130 H 101.62 -1.32727 2.9425 0
M  V30 1131 H 100.672 0.97888 3.6759 0
M  V30 1132 H 101.984 1.0703 4.87182 0
M  V30 1133 H 101.138 -1.00695 5.98285 0
M  V30 1134 H 99.8769 -1.18646 4.73048 0
M  V30 1135 H 98.8819 1.01813 5.40291 0
M  V30 1136 H 100.107 1.18409 6.68697 0
M  V30 1137 H 98.0529 -1.04994 6.47543 0
M  V30 1138 H 97.9699 0.304262 7.55387 0
M  V30 1139 H 99.2379 -0.869224 7.74638 0
M  V30 1140 N 103.467 -1.45747 0.599634 0
M  V30 1141 C 104.414 -2.30467 -0.123849 0
M  V30 1142 C 105.384 -1.41632 -0.86774 0
M  V30 1143 O 106.569 -1.70568 -0.855056 0
M  V30 1144 C 103.709 -3.26402 -1.12051 0
M  V30 1145 C 102.822 -4.3034 -0.37832 0
M  V30 1146 C 101.957 -5.13389 -1.364 0
M  V30 1147 C 100.996 -6.09061 -0.609171 0
M  V30 1148 N 100.133 -6.84918 -1.54374 0
M  V30 1149 H 104.973 -2.91802 0.604627 0
M  V30 1150 H 102.51 -1.43797 0.309972 0
M  V30 1151 H 104.468 -3.80482 -1.7114 0
M  V30 1152 H 103.098 -2.66839 -1.8165 0
M  V30 1153 H 102.15 -3.78984 0.327929 0
M  V30 1154 H 103.462 -4.98354 0.210997 0
M  V30 1155 H 102.616 -5.7183 -2.02719 0
M  V30 1156 H 101.355 -4.45376 -1.98725 0
M  V30 1157 H 100.36 -5.49758 0.0676979 0
M  V30 1158 H 101.585 -6.79099 0.00891991 0
M  V30 1159 H 99.531 -6.19601 -2.15478 0
M  V30 1160 H 99.448 -7.49254 -1.00766 0
M  V30 1161 H 100.716 -7.47906 -2.19676 0
M  V30 1162 N 104.945 -0.338344 -1.53925 0
M  V30 1163 C 106.191 0.260143 -2.01125 0
M  V30 1164 C 106.524 1.50617 -1.22589 0
M  V30 1165 O 105.799 1.91979 -0.312113 0
M  V30 1166 C 106.082 0.579499 -3.55407 0
M  V30 1167 C 105.935 -0.678264 -4.44657 0
M  V30 1168 C 107.254 1.39122 -4.17532 0
M  V30 1169 H 104.373 0.0930772 -0.731099 0
M  V30 1170 H 107.015 -0.457852 -1.84401 0
M  V30 1171 H 105.165 1.19118 -3.69788 0
M  V30 1172 H 106.837 -1.31631 -4.42121 0
M  V30 1173 H 105.08 -1.3042 -4.13731 0
M  V30 1174 H 105.751 -0.410143 -5.50474 0
M  V30 1175 H 108.227 0.874035 -4.06817 0
M  V30 1176 H 107.103 1.58342 -5.25565 0
M  V30 1177 H 107.364 2.39178 -3.71815 0
M  V30 1178 N 106.423 1.57458 -0.0668435 0
M  V30 1179 C 107.333 2.15937 0.916975 0
M  V30 1180 C 108.349 1.12123 1.33058 0
M  V30 1181 O 109.525 1.44366 1.40429 0
M  V30 1182 C 106.59 2.70547 2.16807 0
M  V30 1183 C 105.651 3.89215 1.81135 0
M  V30 1184 C 104.884 4.41211 3.0028 0
M  V30 1185 O 105.107 3.92225 4.14144 0
M  V30 1186 O 104.041 5.32605 2.80384 0
M  V30 1187 H 107.867 3.00354 0.449561 0
M  V30 1188 H 105.452 1.48584 0.155949 0
M  V30 1189 H 107.334 3.0557 2.90181 0
M  V30 1190 H 106.009 1.89192 2.62656 0
M  V30 1191 H 104.916 3.59054 1.05028 0
M  V30 1192 H 106.249 4.71848 1.40073 0
M  V30 1193 N 107.901 -0.206675 1.56239 0
M  V30 1194 C 108.831 -1.25909 1.96645 0
M  V30 1195 C 109.812 -1.48097 0.836734 0
M  V30 1196 O 110.997 -1.6003 1.10019 0
M  V30 1197 C 108.127 -2.6058 2.29599 0
M  V30 1198 C 107.081 -2.53024 3.452 0
M  V30 1199 C 106.407 -3.91861 3.63798 0
M  V30 1200 C 107.707 -2.06524 4.79734 0
M  V30 1201 H 109.401 -0.923369 2.84806 0
M  V30 1202 H 106.947 -0.442735 1.37025 0
M  V30 1203 H 108.9 -3.34375 2.56459 0
M  V30 1204 H 107.624 -2.95869 1.38307 0
M  V30 1205 H 106.283 -1.81684 3.18412 0
M  V30 1206 H 105.931 -4.24483 2.69857 0
M  V30 1207 H 105.631 -3.87683 4.4156 0
M  V30 1208 H 107.155 -4.67296 3.93022 0
M  V30 1209 H 108.569 -2.70072 5.05702 0
M  V30 1210 H 106.966 -2.13374 5.60885 0
M  V30 1211 H 108.036 -1.01802 4.74093 0
M  V30 1212 N 109.379 -1.50304 -0.473955 0
M  V30 1213 C 110.656 -1.51667 -1.23518 0
M  V30 1214 C 111.036 -0.259701 -2.09496 0
M  V30 1215 O 110.384 0.756986 -2.15597 0
M  V30 1216 C 110.594 -2.81082 -2.06868 0
M  V30 1217 C 111.942 -3.31631 -2.65153 0
M  V30 1218 O 112.966 -2.82384 -2.17113 0
M  V30 1219 O 111.825 -4.17471 -3.52675 0
M  V30 1220 H 108.919 -0.60822 -0.560355 0
M  V30 1221 H 111.465 -1.62592 -0.486011 0
M  V30 1222 H 110.237 -3.64041 -1.4349 0
M  V30 1223 H 109.86 -2.73146 -2.88924 0
M  V30 1224 N 110.857 0.726932 -1.39834 0
M  V30 1225 C 111.805 1.86235 -1.39353 0
M  V30 1226 C 112.799 1.67144 -0.275555 0
M  V30 1227 O 114.005 1.74387 -0.44601 0
M  V30 1228 H 110.38 0.613174 -0.43534 0
M  V30 1229 H 112.351 1.83756 -2.35109 0
M  V30 1230 C 111.1 3.23995 -1.26185 0
M  V30 1231 H 110.423 3.39285 -2.11484 0
M  V30 1232 H 111.863 4.03609 -1.29907 0
M  V30 1233 C 110.322 3.36888 0.0290018 0
M  V30 1234 O 110.852 3.89152 0.99619 0
M  V30 1235 N 109.058 2.90446 0.0947437 0
M  V30 1236 H 108.605 2.48102 -0.693035 0
M  V30 1237 H 108.563 2.99451 0.957932 0
M  V30 1238 N 112.336 1.25143 0.95797 0
M  V30 1239 C 113.576 1.10893 1.71703 0
M  V30 1240 C 113.94 -0.34478 1.88879 0
M  V30 1241 O 115.141 -0.609014 2.6181 0
M  V30 1242 C 113.412 1.83889 3.06463 0
M  V30 1243 S 114.971 1.85491 3.97666 0
M  V30 1244 H 111.789 0.396428 0.590226 0
M  V30 1245 H 114.391 1.58618 1.14283 0
M  V30 1246 H 113.095 2.88756 2.9163 0
M  V30 1247 H 112.626 1.36538 3.68946 0
M  V30 1248 H 114.641 0.929553 4.87415 0
M  V30 1249 N 113.814 -1.1601 1.06675 0
M  V30 1250 C 115.225 -1.68235 0.809565 0
M  V30 1251 C 115.576 -1.8454 -0.666303 0
M  V30 1252 O 114.701 -1.54374 -1.5165 0
M  V30 1253 C 115.296 -3.05585 1.46299 0
M  V30 1254 C 113.855 -3.54915 1.25349 0
M  V30 1255 C 113.002 -2.30804 1.53703 0
M  V30 1256 H 115.953 -1.00318 1.22971 0
M  V30 1257 H 115.974 -3.70174 0.880431 0
M  V30 1258 H 115.486 -2.93686 2.53713 0
M  V30 1259 H 113.587 -3.72067 0.199261 0
M  V30 1260 H 113.7 -4.36774 1.9689 0
M  V30 1261 H 112.064 -2.36007 0.957739 0
M  V30 1262 H 112.847 -2.21499 2.62284 0
M  V30 1263 N 115.292 -0.849877 -1.32721 0
M  V30 1264 C 116.517 -0.463856 -2.02146 0
M  V30 1265 C 116.942 0.930449 -1.63476 0
M  V30 1266 O 116.3 1.61033 -0.832952 0
M  V30 1267 C 116.348 -0.604955 -3.55489 0
M  V30 1268 O 115.452 0.36425 -4.10788 0
M  V30 1269 H 114.793 -0.187046 -0.637111 0
M  V30 1270 H 117.323 -1.14775 -1.69375 0
M  V30 1271 H 117.333 -0.490696 -4.05038 0
M  V30 1272 H 116.008 -1.62174 -3.82978 0
M  V30 1273 H 114.585 0.206628 -3.72327 0
M  V30 1274 N 116.77 1.45427 -0.607355 0
M  V30 1275 C 118.016 2.0254 -0.102607 0
M  V30 1276 C 118.349 1.47478 1.26348 0
M  V30 1277 O 117.624 0.64939 1.83339 0
M  V30 1278 C 117.907 3.60044 -0.0634347 0
M  V30 1279 C 117.76 4.2544 -1.46017 0
M  V30 1280 C 119.079 4.35646 0.624514 0
M  V30 1281 H 116.198 0.73598 -0.0387607 0
M  V30 1282 H 118.84 1.73284 -0.779282 0
M  V30 1283 H 116.99 3.85101 0.512808 0
M  V30 1284 H 118.662 4.11569 -2.08347 0
M  V30 1285 H 116.905 3.83849 -2.02094 0
M  V30 1286 H 117.576 5.34342 -1.385 0
M  V30 1287 H 120.052 4.15882 0.134723 0
M  V30 1288 H 118.928 5.45376 0.621028 0
M  V30 1289 H 119.189 4.08501 1.69055 0
M  V30 1290 N 118.248 0.346503 1.53744 0
M  V30 1291 C 119.473 -0.253074 2.0585 0
M  V30 1292 C 119.898 -1.43202 1.21962 0
M  V30 1293 O 119.256 -1.79783 0.234073 0
M  V30 1294 C 119.304 -0.643193 3.54817 0
M  V30 1295 O 118.408 -1.74286 3.73762 0
M  V30 1296 H 117.749 -0.0413583 0.662711 0
M  V30 1297 H 120.279 0.501574 1.98357 0
M  V30 1298 H 120.289 -0.919526 3.97503 0
M  V30 1299 H 118.964 0.218966 4.15323 0
M  V30 1300 H 117.541 -1.46356 3.42979 0
M  V30 1301 N 119.726 -1.57421 0.075193 0
M  V30 1302 C 121.137 -1.81021 -0.456964 0
M  V30 1303 C 121.488 -0.98936 -1.69429 0
M  V30 1304 O 120.613 -0.212865 -2.15351 0
M  V30 1305 C 121.208 -3.28329 -0.83581 0
M  V30 1306 C 119.767 -3.52764 -1.31281 0
M  V30 1307 C 118.914 -2.75676 -0.299648 0
M  V30 1308 H 121.865 -1.55822 0.300856 0
M  V30 1309 H 121.886 -3.40564 -1.69696 0
M  V30 1310 H 121.398 -3.88046 0.0649238 0
M  V30 1311 H 119.499 -2.98355 -2.23193 0
M  V30 1312 H 119.612 -4.61451 -1.28839 0
M  V30 1313 H 117.976 -2.42538 -0.777641 0
M  V30 1314 H 118.759 -3.38132 0.593417 0
M  V30 1315 N 121.204 0.198386 -1.56346 0
M  V30 1316 C 122.434 0.934215 -1.84271 0
M  V30 1317 C 122.842 1.77496 -0.655125 0
M  V30 1318 O 122.185 1.7961 0.385488 0
M  V30 1319 C 122.247 1.88278 -3.06254 0
M  V30 1320 C 121.911 1.22431 -4.40295 0
M  V30 1321 C 122.908 0.602839 -5.16393 0
M  V30 1322 C 120.593 1.22915 -4.87029 0
M  V30 1323 C 122.587 -0.0050083 -6.374 0
M  V30 1324 C 120.274 0.617465 -6.07973 0
M  V30 1325 C 121.272 0.00146341 -6.83 0
M  V30 1326 O 120.96 -0.600642 -8.01653 0
M  V30 1327 H 120.692 0.278245 -0.616081 0
M  V30 1328 H 123.246 0.211626 -2.04307 0
M  V30 1329 H 121.476 2.64498 -2.82095 0
M  V30 1330 H 123.165 2.48612 -3.20853 0
M  V30 1331 H 123.931 0.591265 -4.81382 0
M  V30 1332 H 119.81 1.69801 -4.28589 0
M  V30 1333 H 123.354 -0.48643 -6.95902 0
M  V30 1334 H 119.251 0.62653 -6.42452 0
M  V30 1335 H 120.019 -0.497225 -8.16988 0
M  V30 1336 N 122.682 1.50554 0.465978 0
M  V30 1337 C 123.612 1.72722 1.57128 0
M  V30 1338 C 124.593 0.576294 1.6004 0
M  V30 1339 O 125.778 0.81598 1.76225 0
M  V30 1340 C 122.908 1.82605 2.95419 0
M  V30 1341 C 121.862 2.97835 3.07373 0
M  V30 1342 C 121.188 2.92867 4.47363 0
M  V30 1343 C 122.488 4.38265 2.84114 0
M  V30 1344 H 124.182 2.65267 1.38829 0
M  V30 1345 H 121.728 1.2765 0.666441 0
M  V30 1346 H 123.681 1.96698 3.72677 0
M  V30 1347 H 122.405 0.866858 3.14886 0
M  V30 1348 H 121.064 2.83401 2.3255 0
M  V30 1349 H 120.712 1.94783 4.63755 0
M  V30 1350 H 120.412 3.70227 4.56296 0
M  V30 1351 H 121.936 3.09015 5.26633 0
M  V30 1352 H 123.35 4.53198 3.51118 0
M  V30 1353 H 121.747 5.17115 3.04487 0
M  V30 1354 H 122.817 4.50281 1.7993 0
M  V30 1355 N 124.16 -0.719506 1.40217 0
M  V30 1356 C 125.576 -1.02707 1.22161 0
M  V30 1357 C 125.776 -2.0128 0.0940557 0
M  V30 1358 O 124.832 -2.46452 -0.549318 0
M  V30 1359 C 126.145 -1.57454 2.56181 0
M  V30 1360 C 127.693 -1.69458 2.63159 0
M  V30 1361 C 128.168 -2.27611 3.97438 0
M  V30 1362 N 129.659 -2.35002 3.99159 0
M  V30 1363 C 130.394 -2.80972 4.99842 0
M  V30 1364 N 129.89 -3.26723 6.10921 0
M  V30 1365 N 131.683 -2.80321 4.87213 0
M  V30 1366 H 123.834 -0.0660492 2.12297 0
M  V30 1367 H 126.097 -0.0919077 0.943534 0
M  V30 1368 H 125.803 -0.924873 3.39321 0
M  V30 1369 H 125.677 -2.56036 2.76993 0
M  V30 1370 H 128.064 -2.33543 1.80393 0
M  V30 1371 H 128.145 -0.694867 2.46181 0
M  V30 1372 H 127.789 -1.6415 4.80643 0
M  V30 1373 H 127.719 -3.2829 4.11744 0
M  V30 1374 H 130.21 -2.02685 3.18947 0
M  V30 1375 H 130.523 -3.60355 6.8364 0
M  V30 1376 H 128.868 -3.24692 6.14492 0
M  V30 1377 H 132.059 -2.43912 3.9953 0
M  V30 1378 H 132.232 -3.15831 5.65822 0
M  V30 1379 N 125.638 -1.25649 -0.95132 0
M  V30 1380 C 126.886 -1.10375 -1.69298 0
M  V30 1381 C 127.207 0.355339 -1.91735 0
M  V30 1382 O 126.477 1.25188 -1.50681 0
M  V30 1383 H 125.057 -0.405461 -0.627384 0
M  V30 1384 H 127.719 -1.57823 -1.14358 0
M  V30 1385 H 126.815 -1.61465 -2.67087 0
M  V30 1386 N 127.117 1.15442 -1.07289 0
M  V30 1387 C 128.049 2.19773 -0.650585 0
M  V30 1388 C 129.062 1.60076 0.296572 0
M  V30 1389 O 130.251 1.78293 0.0859905 0
M  V30 1390 C 127.351 3.38838 0.0650398 0
M  V30 1391 C 126.524 4.2808 -0.898141 0
M  V30 1392 C 125.583 5.2574 -0.219926 0
M  V30 1393 O 124.609 5.62654 -0.860773 0
M  V30 1394 N 125.811 5.71205 1.03466 0
M  V30 1395 H 128.576 2.56622 -1.54808 0
M  V30 1396 H 126.137 1.30551 -0.957494 0
M  V30 1397 H 128.129 4.01222 0.529415 0
M  V30 1398 H 126.699 3.00409 0.864466 0
M  V30 1399 H 125.919 3.62804 -1.54165 0
M  V30 1400 H 127.207 4.84577 -1.5512 0
M  V30 1401 H 126.605 5.43325 1.57526 0
M  V30 1402 H 125.162 6.35633 1.44272 0
M  V30 1403 N 128.595 0.856903 1.32268 0
M  V30 1404 C 129.82 0.474569 2.01897 0
M  V30 1405 C 130.245 -0.921766 1.63967 0
M  V30 1406 O 129.603 -1.60589 0.84148 0
M  V30 1407 C 129.651 0.623799 3.55164 0
M  V30 1408 O 128.755 -0.342459 4.10976 0
M  V30 1409 H 128.096 0.190422 0.63611 0
M  V30 1410 H 130.626 1.15672 1.68764 0
M  V30 1411 H 130.636 0.512169 4.04773 0
M  V30 1412 H 129.311 1.64202 3.82113 0
M  V30 1413 H 127.888 -0.18688 3.72431 0
M  V30 1414 N 130.073 -1.45103 0.615059 0
M  V30 1415 C 131.02 -2.30586 -0.0993978 0
M  V30 1416 C 131.99 -1.42544 -0.852669 0
M  V30 1417 O 133.175 -1.71465 -0.836917 0
M  V30 1418 C 130.315 -3.27572 -1.08583 0
M  V30 1419 C 129.428 -4.30717 -0.332656 0
M  V30 1420 C 128.563 -5.14807 -1.30947 0
M  V30 1421 C 127.602 -6.09673 -0.544538 0
M  V30 1422 N 126.739 -6.86517 -1.47101 0
M  V30 1423 H 131.579 -2.91144 0.635542 0
M  V30 1424 H 129.116 -1.4346 0.325206 0
M  V30 1425 H 131.074 -3.82276 -1.67095 0
M  V30 1426 H 129.704 -2.68751 -1.78809 0
M  V30 1427 H 128.756 -3.78615 0.368107 0
M  V30 1428 H 130.068 -4.98102 0.263842 0
M  V30 1429 H 129.222 -5.73948 -1.96643 0
M  V30 1430 H 127.961 -4.47458 -1.9399 0
M  V30 1431 H 126.966 -5.49656 0.126003 0
M  V30 1432 H 128.191 -6.79052 0.080947 0
M  V30 1433 H 126.137 -6.21851 -2.08895 0
M  V30 1434 H 126.054 -7.50281 -0.928137 0
M  V30 1435 H 127.322 -7.50194 -2.11731 0
M  V30 1436 N 131.551 -0.354651 -1.53558 0
M  V30 1437 C 132.481 0.489091 -2.2832 0
M  V30 1438 C 133.462 1.09324 -1.30316 0
M  V30 1439 O 134.647 1.11255 -1.59173 0
M  V30 1440 C 131.777 1.63456 -3.0643 0
M  V30 1441 C 130.731 1.1582 -4.12031 0
M  V30 1442 C 130.057 2.39305 -4.7816 0
M  V30 1443 C 131.357 0.250731 -5.21698 0
M  V30 1444 H 133.051 -0.134614 -2.99097 0
M  V30 1445 H 130.597 -0.0661826 -1.43848 0
M  V30 1446 H 132.55 2.23136 -3.57475 0
M  V30 1447 H 131.274 2.28533 -2.33325 0
M  V30 1448 H 129.933 0.584146 -3.61916 0
M  V30 1449 H 129.581 3.02814 -4.01637 0
M  V30 1450 H 129.281 2.08109 -5.49513 0
M  V30 1451 H 130.805 2.99691 -5.31994 0
M  V30 1452 H 132.219 0.754695 -5.68311 0
M  V30 1453 H 130.616 0.0301468 -6.00092 0
M  V30 1454 H 131.686 -0.710125 -4.79672 0
M  V30 1455 N 133.029 1.57378 -0.0835403 0
M  V30 1456 C 134.278 1.93106 0.582498 0
M  V30 1457 C 134.591 0.96651 1.70053 0
M  V30 1458 O 135.797 1.21705 2.42693 0
M  V30 1459 C 134.253 3.43076 1.08751 0
M  V30 1460 C 133.861 4.48 -0.000146404 0
M  V30 1461 C 135.605 3.87785 1.72694 0
M  V30 1462 C 133.512 5.89113 0.519568 0
M  V30 1463 H 132.442 0.720775 0.221358 0
M  V30 1464 H 135.093 1.82821 -0.157675 0
M  V30 1465 H 133.475 3.48474 1.88101 0
M  V30 1466 H 134.649 4.54233 -0.775199 0
M  V30 1467 H 132.964 4.1283 -0.54406 0
M  V30 1468 H 135.561 4.90604 2.1263 0
M  V30 1469 H 135.904 3.25796 2.59158 0
M  V30 1470 H 136.437 3.8504 0.999457 0
M  V30 1471 H 133.176 6.54775 -0.308186 0
M  V30 1472 H 132.696 5.86376 1.26188 0
M  V30 1473 H 134.375 6.39346 0.992237 0
M  V30 1474 N 134.507 -0.190092 1.56449 0
M  V30 1475 C 135.754 -0.909705 1.80916 0
M  V30 1476 C 136.082 -1.83047 0.657583 0
M  V30 1477 O 135.337 -1.92428 -0.356356 0
M  V30 1478 C 135.636 -1.75382 3.1141 0
M  V30 1479 C 135.302 -0.983606 4.40041 0
M  V30 1480 C 133.964 -0.770967 4.74984 0
M  V30 1481 C 136.316 -0.442024 5.19322 0
M  V30 1482 C 133.644 -0.0053448 5.867 0
M  V30 1483 C 135.996 0.310412 6.31838 0
M  V30 1484 C 134.66 0.534023 6.6536 0
M  V30 1485 H 133.93 -0.332885 0.662019 0
M  V30 1486 H 136.577 -0.175762 1.90692 0
M  V30 1487 H 134.882 -2.55659 2.96893 0
M  V30 1488 H 136.579 -2.31331 3.27547 0
M  V30 1489 H 133.169 -1.15936 4.12622 0
M  V30 1490 H 137.353 -0.593693 4.92736 0
M  V30 1491 H 132.609 0.177825 6.11141 0
M  V30 1492 H 136.783 0.737419 6.92485 0
M  V30 1493 H 134.41 1.12918 7.51767 0
M  V30 1494 N 135.985 -1.50799 -0.457987 0
M  V30 1495 C 136.932 -1.70617 -1.5543 0
M  V30 1496 C 137.902 -0.547562 -1.56815 0
M  V30 1497 O 139.087 -0.779647 -1.74144 0
M  V30 1498 C 136.227 -1.81831 -2.93311 0
M  V30 1499 C 135.34 -3.09278 -3.01615 0
M  V30 1500 C 134.475 -3.11209 -4.30491 0
M  V30 1501 C 133.514 -4.33055 -4.32585 0
M  V30 1502 N 132.651 -4.32652 -5.52952 0
M  V30 1503 H 137.491 -2.64207 -1.37836 0
M  V30 1504 H 135.028 -1.30959 -0.669937 0
M  V30 1505 H 136.986 -1.86314 -3.73287 0
M  V30 1506 H 135.616 -0.916685 -3.0951 0
M  V30 1507 H 134.668 -3.14203 -2.1443 0
M  V30 1508 H 135.98 -3.99233 -2.99022 0
M  V30 1509 H 135.134 -3.14494 -5.18824 0
M  V30 1510 H 133.873 -2.19106 -4.35711 0
M  V30 1511 H 132.878 -4.29969 -3.42647 0
M  V30 1512 H 134.103 -5.264 -4.29046 0
M  V30 1513 H 132.049 -3.43409 -5.58933 0
M  V30 1514 H 131.966 -5.16392 -5.52155 0
M  V30 1515 H 133.234 -4.40101 -6.43375 0
M  V30 1516 N 137.463 0.71206 -1.40597 0
M  V30 1517 C 138.874 1.29135 -1.34837 0
M  V30 1518 C 139.225 1.96186 -0.0235395 0
M  V30 1519 O 138.35 1.97768 0.878444 0
M  V30 1520 C 138.945 2.34827 -2.44217 0
M  V30 1521 C 137.504 2.88371 -2.41907 0
M  V30 1522 C 136.651 1.62202 -2.24913 0
M  V30 1523 H 139.602 0.507944 -1.50352 0
M  V30 1524 H 139.623 3.15749 -2.12327 0
M  V30 1525 H 139.135 1.85996 -3.40627 0
M  V30 1526 H 137.236 3.41422 -1.49204 0
M  V30 1527 H 137.349 3.39925 -3.37621 0
M  V30 1528 H 135.713 1.874 -1.72492 0
M  V30 1529 H 136.496 1.15391 -3.23326 0
M  V30 1530 N 138.941 1.26152 0.944643 0
M  V30 1531 C 140.218 1.02247 1.66748 0
M  V30 1532 C 140.598 -0.448202 2.06287 0
M  V30 1533 O 139.946 -1.42779 1.78399 0
M  V30 1534 C 140.156 1.96788 2.88228 0
M  V30 1535 C 141.504 2.25201 3.59958 0
M  V30 1536 O 142.528 1.94626 2.98327 0
M  V30 1537 O 141.387 2.77242 4.70956 0
M  V30 1538 H 138.481 0.388517 0.730057 0
M  V30 1539 H 141.027 1.37348 0.99668 0
M  V30 1540 H 139.799 2.96047 2.55875 0
M  V30 1541 H 139.422 1.62145 3.63035 0
M  V30 1542 N 140.419 -1.14872 1.07899 0
M  V30 1543 C 141.349 -2.2193 0.725887 0
M  V30 1544 C 142.33 -1.67622 -0.28927 0
M  V30 1545 O 143.515 -1.93533 -0.160787 0
M  V30 1546 C 140.645 -3.47061 0.128856 0
M  V30 1547 C 139.599 -4.14363 1.07178 0
M  V30 1548 C 138.925 -5.33636 0.337229 0
M  V30 1549 C 140.225 -4.63492 2.40775 0
M  V30 1550 H 141.919 -2.51724 1.62097 0
M  V30 1551 H 139.465 -1.20991 0.780838 0
M  V30 1552 H 141.418 -4.21199 -0.130147 0
M  V30 1553 H 140.142 -3.16617 -0.80134 0
M  V30 1554 H 138.801 -3.42173 1.3158 0
M  V30 1555 H 138.449 -4.99449 -0.596606 0
M  V30 1556 H 138.149 -5.79609 0.965788 0
M  V30 1557 H 139.673 -6.10539 0.0861567 0
M  V30 1558 H 141.087 -5.2913 2.20669 0
M  V30 1559 H 139.484 -5.20148 2.99276 0
M  V30 1560 H 140.554 -3.78834 3.02676 0
M  V30 1561 N 141.898 -0.863906 -1.31812 0
M  V30 1562 C 143.126 -0.486111 -2.01108 0
M  V30 1563 C 143.541 0.919755 -1.64882 0
M  V30 1564 O 142.898 1.60162 -0.874893 0
M  V30 1565 C 142.949 -0.626435 -3.56031 0
M  V30 1566 O 142.67 -1.97693 -3.90959 0
M  V30 1567 C 144.171 -0.248857 -4.42601 0
M  V30 1568 H 141.391 -0.190052 -0.643523 0
M  V30 1569 H 143.935 -1.1634 -1.68182 0
M  V30 1570 H 142.09 0.00322717 -3.874 0
M  V30 1571 H 142.504 -1.98034 -4.85678 0
M  V30 1572 H 143.978 -0.398016 -5.50563 0
M  V30 1573 H 144.455 0.811489 -4.31638 0
M  V30 1574 H 145.061 -0.853971 -4.16638 0
M  V30 1575 N 143.376 1.44774 -0.622745 0
M  V30 1576 C 144.306 2.33382 0.0741861 0
M  V30 1577 C 145.287 1.47719 0.843387 0
M  V30 1578 O 146.472 1.76458 0.810934 0
M  V30 1579 C 143.602 3.30663 1.06204 0
M  V30 1580 C 142.556 4.26079 0.405037 0
M  V30 1581 C 141.882 5.13165 1.5022 0
M  V30 1582 C 143.182 5.1781 -0.683414 0
M  V30 1583 H 144.876 2.91905 -0.665713 0
M  V30 1584 H 142.422 1.40363 -0.321587 0
M  V30 1585 H 144.375 3.9153 1.55827 0
M  V30 1586 H 143.099 2.70331 1.83272 0
M  V30 1587 H 141.758 3.66532 -0.0704683 0
M  V30 1588 H 141.406 4.49191 2.26355 0
M  V30 1589 H 141.106 5.77812 1.06803 0
M  V30 1590 H 142.63 5.76902 2.00041 0
M  V30 1591 H 144.044 5.72661 -0.270631 0
M  V30 1592 H 142.441 5.91015 -1.04023 0
M  V30 1593 H 143.511 4.59326 -1.55395 0
M  V30 1594 N 144.854 0.36279 1.53368 0
M  V30 1595 C 145.764 -0.492994 2.29362 0
M  V30 1596 C 146.78 -1.09507 1.35219 0
M  V30 1597 O 147.956 -1.10662 1.68273 0
M  V30 1598 C 145.021 -1.61855 3.066 0
M  V30 1599 C 144.082 -1.04429 4.16405 0
M  V30 1600 C 143.315 -2.11621 4.89951 0
M  V30 1601 O 143.538 -3.32684 4.63333 0
M  V30 1602 O 142.472 -1.74835 5.75948 0
M  V30 1603 H 146.298 0.125331 3.03441 0
M  V30 1604 H 143.883 0.127253 1.48857 0
M  V30 1605 H 145.765 -2.27302 3.54841 0
M  V30 1606 H 144.44 -2.22233 2.3536 0
M  V30 1607 H 143.347 -0.353819 3.72423 0
M  V30 1608 H 144.68 -0.485113 4.89804 0
M  V30 1609 N 146.332 -1.57332 0.0918853 0
M  V30 1610 C 147.242 -2.17368 -0.882505 0
M  V30 1611 C 148.258 -1.14226 -1.31257 0
M  V30 1612 O 149.434 -1.46582 -1.38115 0
M  V30 1613 C 146.499 -2.73962 -2.12476 0
M  V30 1614 C 145.56 -3.92048 -1.7492 0
M  V30 1615 C 144.793 -4.45933 -2.93223 0
M  V30 1616 O 145.016 -3.98764 -4.07852 0
M  V30 1617 O 143.95 -5.36999 -2.71875 0
M  V30 1618 H 147.776 -3.01031 -0.40172 0
M  V30 1619 H 145.361 -1.48813 -0.132291 0
M  V30 1620 H 147.243 -3.10147 -2.85283 0
M  V30 1621 H 145.918 -1.93347 -2.59613 0
M  V30 1622 H 144.825 -3.6068 -0.993025 0
M  V30 1623 H 146.158 -4.74017 -1.32548 0
M  V30 1624 N 147.81 0.181792 -1.56548 0
M  V30 1625 C 149.056 0.901431 -1.81665 0
M  V30 1626 C 149.389 1.82347 -0.668075 0
M  V30 1627 O 148.664 1.91669 0.330615 0
M  V30 1628 C 148.947 1.70618 -3.17115 0
M  V30 1629 C 148.8 0.807964 -4.42484 0
M  V30 1630 C 150.119 2.67605 -3.49393 0
M  V30 1631 H 147.238 0.32627 -0.660846 0
M  V30 1632 H 149.88 0.168134 -1.89255 0
M  V30 1633 H 148.03 2.33133 -3.10775 0
M  V30 1634 H 149.702 0.19649 -4.60881 0
M  V30 1635 H 147.945 0.115411 -4.33646 0
M  V30 1636 H 148.616 1.40632 -5.33785 0
M  V30 1637 H 151.092 2.15218 -3.56118 0
M  V30 1638 H 149.968 3.20985 -4.45264 0
M  V30 1639 H 150.229 3.47298 -2.73563 0
M  V30 1640 N 149.288 1.51039 0.449983 0
M  V30 1641 C 150.22 1.67617 1.56324 0
M  V30 1642 C 151.233 0.557083 1.52972 0
M  V30 1643 O 152.422 0.830989 1.57977 0
M  V30 1644 C 149.522 1.66402 2.95235 0
M  V30 1645 C 148.695 2.9469 3.23229 0
M  V30 1646 C 147.754 2.85832 4.41799 0
M  V30 1647 O 146.78 3.59785 4.41071 0
M  V30 1648 N 147.982 2.00821 5.44657 0
M  V30 1649 H 150.747 2.63648 1.42512 0
M  V30 1650 H 148.308 1.48767 0.638737 0
M  V30 1651 H 150.3 1.58062 3.72557 0
M  V30 1652 H 148.87 0.780182 3.02708 0
M  V30 1653 H 148.09 3.16996 2.34323 0
M  V30 1654 H 149.378 3.79636 3.38754 0
M  V30 1655 H 148.776 1.40091 5.48079 0
M  V30 1656 H 147.333 1.98368 6.20881 0
M  V30 1657 N 150.766 -0.704594 1.40972 0
M  V30 1658 C 151.729 -1.80035 1.41845 0
M  V30 1659 C 152.729 -1.57774 0.310474 0
M  V30 1660 O 153.919 -1.64613 0.56992 0
M  V30 1661 C 151.051 -3.18284 1.22098 0
M  V30 1662 H 152.244 -1.80658 2.3938 0
M  V30 1663 H 149.797 -0.911329 1.26982 0
M  V30 1664 H 150.532 -3.23306 0.253672 0
M  V30 1665 H 150.317 -3.35843 2.02366 0
M  V30 1666 H 151.807 -3.98289 1.25522 0
M  V30 1667 N 152.244 -1.26651 -0.937939 0
M  V30 1668 C 153.154 -1.10276 -2.07066 0
M  V30 1669 C 154.17 -0.0354197 -1.73964 0
M  V30 1670 O 155.346 -0.239816 -1.99967 0
M  V30 1671 C 152.411 -0.740887 -3.38691 0
M  V30 1672 C 151.472 -1.88799 -3.85556 0
M  V30 1673 C 150.705 -1.54329 -5.10899 0
M  V30 1674 O 150.928 -0.446494 -5.6865 0
M  V30 1675 O 149.862 -2.37911 -5.52885 0
M  V30 1676 H 153.688 -2.05309 -2.23789 0
M  V30 1677 H 151.273 -1.05743 -1.0554 0
M  V30 1678 H 153.155 -0.55195 -4.1777 0
M  V30 1679 H 151.83 0.180022 -3.23199 0
M  V30 1680 H 150.737 -2.13191 -3.07409 0
M  V30 1681 H 152.07 -2.78874 -4.05574 0
M  V30 1682 N 153.722 1.14298 -1.08507 0
M  V30 1683 C 154.67 2.21483 -0.710483 0
M  V30 1684 C 155.664 1.66998 0.284234 0
M  V30 1685 O 156.87 1.79401 0.146692 0
M  V30 1686 H 153.245 0.721578 -0.211729 0
M  V30 1687 H 155.216 2.50348 -1.62384 0
M  V30 1688 C 153.965 3.4743 -0.137007 0
M  V30 1689 H 153.288 3.89686 -0.893592 0
M  V30 1690 H 154.728 4.2391 0.0872789 0
M  V30 1691 C 153.187 3.17548 1.12538 0
M  V30 1692 O 153.717 3.35437 2.21009 0
M  V30 1693 N 151.923 2.71499 1.03617 0
M  V30 1694 H 151.47 2.57143 0.153403 0
M  V30 1695 H 151.428 2.51881 1.88158 0
M  V30 1696 N 155.201 0.870884 1.31352 0
M  V30 1697 C 156.612 0.534714 1.78879 0
M  V30 1698 C 156.963 -0.948423 1.71754 0
M  V30 1699 O 156.088 -1.74055 1.28584 0
M  V30 1700 C 156.683 0.963839 3.24801 0
M  V30 1701 C 155.242 0.679311 3.70219 0
M  V30 1702 C 154.389 1.15465 2.52117 0
M  V30 1703 H 157.34 1.05651 1.18421 0
M  V30 1704 H 157.361 0.286892 3.79417 0
M  V30 1705 H 156.873 2.04332 3.29955 0
M  V30 1706 H 154.974 -0.388769 3.70566 0
M  V30 1707 H 155.087 1.25698 4.62317 0
M  V30 1708 H 153.451 0.574383 2.48139 0
M  V30 1709 H 154.234 2.24157 2.60016 0
M  V30 1710 N 156.679 -1.44442 0.630414 0
M  V30 1711 C 157.626 -2.30678 -0.0749355 0
M  V30 1712 C 158.596 -1.4344 -0.837502 0
M  V30 1713 O 159.781 -1.72343 -0.818684 0
M  V30 1714 C 156.921 -3.28706 -1.05103 0
M  V30 1715 C 156.034 -4.31046 -0.286954 0
M  V30 1716 C 155.169 -5.16167 -1.2548 0
M  V30 1717 C 154.208 -6.10216 -0.479843 0
M  V30 1718 N 153.345 -6.88039 -1.39811 0
M  V30 1719 H 158.185 -2.90454 0.666386 0
M  V30 1720 H 155.722 -1.43107 0.340404 0
M  V30 1721 H 157.68 -3.84027 -1.63031 0
M  V30 1722 H 156.31 -2.70632 -1.75949 0
M  V30 1723 H 155.362 -3.78203 0.408243 0
M  V30 1724 H 156.674 -4.97794 0.316657 0
M  V30 1725 H 155.828 -5.76002 -1.90544 0
M  V30 1726 H 154.567 -4.49491 -1.89233 0
M  V30 1727 H 153.572 -5.49491 0.184295 0
M  V30 1728 H 154.797 -6.78928 0.152965 0
M  V30 1729 H 152.743 -6.24032 -2.02287 0
M  V30 1730 H 152.66 -7.51223 -0.848508 0
M  V30 1731 H 153.928 -7.52397 -2.03762 0
M  V30 1732 N 158.157 -0.370918 -1.53173 0
M  V30 1733 C 159.403 0.217423 -2.01631 0
M  V30 1734 C 159.736 1.47983 -1.25756 0
M  V30 1735 O 159.011 1.91274 -0.352764 0
M  V30 1736 C 159.294 0.503982 -3.56556 0
M  V30 1737 C 159.147 -0.77243 -4.43118 0
M  V30 1738 C 160.466 1.30234 -4.20389 0
M  V30 1739 H 157.585 0.0775486 -0.732909 0
M  V30 1740 H 160.227 -0.496863 -1.83388 0
M  V30 1741 H 158.377 1.11248 -3.72231 0
M  V30 1742 H 160.049 -1.4098 -4.39229 0
M  V30 1743 H 158.292 -1.39167 -4.10871 0
M  V30 1744 H 158.963 -0.526815 -5.4948 0
M  V30 1745 H 161.439 0.787546 -4.08579 0
M  V30 1746 H 160.315 1.47158 -5.28806 0
M  V30 1747 H 160.576 2.31237 -3.76805 0
M  V30 1748 N 159.635 1.57281 -0.100228 0
M  V30 1749 C 160.86 1.99302 0.573881 0
M  V30 1750 C 161.285 0.979059 1.60611 0
M  V30 1751 O 160.643 -0.0517803 1.81226 0
M  V30 1752 C 160.691 3.40274 1.19358 0
M  V30 1753 O 159.795 3.41676 2.30935 0
M  V30 1754 H 159.136 0.647944 0.145138 0
M  V30 1755 H 161.666 2.03779 -0.183156 0
M  V30 1756 H 161.676 3.78078 1.53365 0
M  V30 1757 H 160.351 4.13594 0.437385 0
M  V30 1758 H 158.928 3.15672 1.98509 0
M  V30 1759 N 161.113 -0.173488 1.56642 0
M  V30 1760 C 162.529 -0.525174 1.50712 0
M  V30 1761 C 162.729 -1.8476 0.804107 0
M  V30 1762 O 161.785 -2.49869 0.363574 0
M  V30 1763 C 163.098 -0.559937 2.95441 0
M  V30 1764 C 164.646 -0.647288 3.06234 0
M  V30 1765 C 165.121 -0.712963 4.52417 0
M  V30 1766 N 166.612 -0.775911 4.56655 0
M  V30 1767 C 167.347 -0.847264 5.67106 0
M  V30 1768 N 166.843 -0.879585 6.87194 0
M  V30 1769 N 168.636 -0.886117 5.55071 0
M  V30 1770 H 160.787 0.693681 2.00753 0
M  V30 1771 H 163.05 0.249841 0.914485 0
M  V30 1772 H 162.756 0.343049 3.50023 0
M  V30 1773 H 162.63 -1.40718 3.49969 0
M  V30 1774 H 165.017 -1.5407 2.51687 0
M  V30 1775 H 165.098 0.226586 2.54794 0
M  V30 1776 H 164.742 0.176183 5.07594 0
M  V30 1777 H 164.672 -1.60295 5.0161 0
M  V30 1778 H 167.163 -0.759304 3.70193 0
M  V30 1779 H 167.476 -0.935144 7.67121 0
M  V30 1780 H 165.821 -0.847898 6.89808 0
M  V30 1781 H 169.012 -0.857853 4.60172 0
M  V30 1782 H 169.185 -0.938263 6.41171 0
M  V30 1783 N 162.591 -1.51276 -0.441967 0
M  V30 1784 C 163.839 -1.63392 -1.18943 0
M  V30 1785 C 164.16 -0.350159 -1.9183 0
M  V30 1786 O 163.43 0.633784 -1.85364 0
M  V30 1787 H 162.01 -0.602164 -0.442049 0
M  V30 1788 H 164.672 -1.88186 -0.507165 0
M  V30 1789 H 163.768 -2.45934 -1.92154 0
M  V30 1790 N 164.069 0.697108 -1.41344 0
M  V30 1791 C 165.485 1.00751 -1.2378 0
M  V30 1792 C 165.685 2.01105 -0.126066 0
M  V30 1793 O 164.741 2.47295 0.51004 0
M  V30 1794 C 166.054 1.53359 -2.58653 0
M  V30 1795 C 167.602 1.6525 -2.65822 0
M  V30 1796 C 168.077 2.2126 -4.01009 0
M  V30 1797 N 169.568 2.28622 -4.02847 0
M  V30 1798 C 170.303 2.72984 -5.04249 0
M  V30 1799 N 169.799 3.16962 -6.16041 0
M  V30 1800 N 171.592 2.72534 -4.91611 0
M  V30 1801 H 163.743 0.0322662 -2.12375 0
M  V30 1802 H 166.006 0.0768853 -0.944877 0
M  V30 1803 H 165.712 0.870773 -3.4075 0
M  V30 1804 H 165.586 2.51597 -2.81032 0
M  V30 1805 H 167.973 2.30644 -1.84086 0
M  V30 1806 H 168.054 0.655614 -2.47256 0
M  V30 1807 H 167.698 1.56482 -4.83193 0
M  V30 1808 H 167.628 3.21698 -4.16915 0
M  V30 1809 H 170.119 1.97585 -3.22131 0
M  V30 1810 H 170.432 3.49434 -6.89287 0
M  V30 1811 H 168.777 3.14875 -6.1958 0
M  V30 1812 H 171.968 2.37525 -4.0336 0
M  V30 1813 H 172.141 3.06789 -5.70775 0
M  V30 1814 N 165.547 1.27147 0.931209 0
M  V30 1815 C 166.777 1.15914 1.71019 0
M  V30 1816 C 167.185 -0.287112 1.87009 0
M  V30 1817 O 166.528 -1.20761 1.38429 0
M  V30 1818 C 166.59 1.76647 3.13107 0
M  V30 1819 C 166.254 3.25807 3.20467 0
M  V30 1820 C 167.251 4.22489 3.02983 0
M  V30 1821 C 164.936 3.66452 3.43538 0
M  V30 1822 C 166.93 5.57794 3.08454 0
M  V30 1823 C 164.617 5.01888 3.48643 0
M  V30 1824 C 165.615 5.97369 3.31119 0
M  V30 1825 O 165.303 7.30337 3.35952 0
M  V30 1826 H 165.035 0.404062 0.54195 0
M  V30 1827 H 167.589 1.68457 1.17521 0
M  V30 1828 H 165.819 1.18578 3.68071 0
M  V30 1829 H 167.508 1.60179 3.72958 0
M  V30 1830 H 168.274 3.92425 2.85004 0
M  V30 1831 H 164.153 2.92611 3.5623 0
M  V30 1832 H 167.697 6.32298 2.94694 0
M  V30 1833 H 163.594 5.31609 3.66145 0
M  V30 1834 H 164.362 7.38739 3.5243 0
M  V30 1835 N 167.025 -1.13721 1.09112 0
M  V30 1836 C 168.441 -1.36914 0.820174 0
M  V30 1837 C 168.641 -1.93356 -0.567079 0
M  V30 1838 O 167.697 -2.15093 -1.32255 0
M  V30 1839 C 169.01 -2.3235 1.90877 0
M  V30 1840 C 170.558 -2.45973 1.93562 0
M  V30 1841 C 171.033 -3.44714 3.01556 0
M  V30 1842 N 172.524 -3.52263 3.00775 0
M  V30 1843 C 173.259 -4.28536 3.80978 0
M  V30 1844 N 172.755 -5.07991 4.71081 0
M  V30 1845 N 174.548 -4.23804 3.69251 0
M  V30 1846 H 166.699 -0.754348 1.98553 0
M  V30 1847 H 168.962 -0.3944 0.862063 0
M  V30 1848 H 168.668 -1.98027 2.90651 0
M  V30 1849 H 168.542 -3.32332 1.78424 0
M  V30 1850 H 170.929 -2.79584 0.944286 0
M  V30 1851 H 171.01 -1.45926 2.10093 0
M  V30 1852 H 170.654 -3.11835 4.00901 0
M  V30 1853 H 170.584 -4.44558 2.82269 0
M  V30 1854 H 173.075 -2.95567 2.35475 0
M  V30 1855 H 173.388 -5.63487 5.28869 0
M  V30 1856 H 171.733 -5.07235 4.75119 0
M  V30 1857 H 174.924 -3.60806 2.98222 0
M  V30 1858 H 175.097 -4.82995 4.31995 0
M  V30 1859 N 168.503 -0.877838 -1.30888 0
M  V30 1860 C 169.914 -0.544193 -1.78593 0
M  V30 1861 C 170.265 0.939301 -1.72254 0
M  V30 1862 O 169.39 1.7337 -1.29505 0
M  V30 1863 C 169.985 -0.98105 -3.24285 0
M  V30 1864 C 168.544 -0.698935 -3.69854 0
M  V30 1865 C 167.691 -1.168 -2.51502 0
M  V30 1866 H 170.642 -1.06278 -1.17859 0
M  V30 1867 H 170.663 -0.307009 -3.79259 0
M  V30 1868 H 170.175 -2.06079 -3.28866 0
M  V30 1869 H 168.276 0.369112 -3.70767 0
M  V30 1870 H 168.389 -1.28148 -4.61644 0
M  V30 1871 H 166.753 -0.587535 -2.47831 0
M  V30 1872 H 167.536 -2.25533 -2.58824 0
M  V30 1873 N 169.982 1.44106 -0.638065 0
M  V30 1874 C 170.914 2.28976 0.101205 0
M  V30 1875 C 171.927 1.4167 0.802088 0
M  V30 1876 O 173.116 1.65755 0.662375 0
M  V30 1877 C 170.216 3.18217 1.16581 0
M  V30 1878 C 169.389 4.33978 0.546066 0
M  V30 1879 C 168.448 5.04202 1.50554 0
M  V30 1880 O 167.474 5.59986 1.01999 0
M  V30 1881 N 168.676 5.06296 2.8398 0
M  V30 1882 H 171.441 2.93064 -0.627186 0
M  V30 1883 H 169.002 1.54629 -0.479731 0
M  V30 1884 H 170.994 3.62061 1.80815 0
M  V30 1885 H 169.564 2.55833 1.79634 0
M  V30 1886 H 168.784 3.93239 -0.275046 0
M  V30 1887 H 170.072 5.08675 0.112793 0
M  V30 1888 H 169.47 4.62319 3.26002 0
M  V30 1889 H 168.027 5.53907 3.43556 0
M  V30 1890 N 171.46 0.379036 1.52974 0
M  V30 1891 C 172.37 -0.468639 2.29872 0
M  V30 1892 C 173.386 -1.08067 1.36373 0
M  V30 1893 O 174.562 -1.08871 1.69438 0
M  V30 1894 C 171.627 -1.58594 3.083 0
M  V30 1895 C 170.688 -1.00007 4.17489 0
M  V30 1896 C 169.921 -2.06413 4.92168 0
M  V30 1897 O 170.144 -3.27751 4.66835 0
M  V30 1898 O 169.078 -1.68717 5.7777 0
M  V30 1899 H 172.904 0.157508 3.03291 0
M  V30 1900 H 170.489 0.143035 1.48714 0
M  V30 1901 H 172.371 -2.23525 3.57232 0
M  V30 1902 H 171.046 -2.19724 2.37703 0
M  V30 1903 H 169.953 -0.314299 3.72777 0
M  V30 1904 H 171.286 -0.433135 4.90291 0
M  V30 1905 N 172.938 -1.57226 0.108567 0
M  V30 1906 C 174.178 -1.96717 -0.555155 0
M  V30 1907 C 174.542 -0.990003 -1.64508 0
M  V30 1908 O 175.743 -1.2739 -2.36696 0
M  V30 1909 C 174.014 -3.40575 -1.08367 0
M  V30 1910 S 175.573 -4.02072 -1.75737 0
M  V30 1911 H 172.391 -0.687638 -0.180762 0
M  V30 1912 H 174.993 -1.94563 0.191172 0
M  V30 1913 H 173.697 -4.0945 -0.279092 0
M  V30 1914 H 173.228 -3.46356 -1.86551 0
M  V30 1915 H 175.243 -3.91977 -3.04251 0
M  V30 1916 N 174.416 0.165178 -1.56732 0
M  V30 1917 C 175.363 1.2044 -1.96883 0
M  V30 1918 C 176.333 1.43664 -0.833657 0
M  V30 1919 O 177.518 1.56302 -1.09427 0
M  V30 1920 C 174.658 2.53727 -2.33916 0
M  V30 1921 C 173.771 2.3783 -3.6064 0
M  V30 1922 C 172.906 3.64026 -3.86857 0
M  V30 1923 C 171.945 3.43088 -5.06909 0
M  V30 1924 N 171.082 4.61369 -5.29229 0
M  V30 1925 H 175.922 0.854996 -2.85471 0
M  V30 1926 H 173.459 0.41076 -1.41249 0
M  V30 1927 H 175.417 3.31419 -2.53411 0
M  V30 1928 H 174.047 2.8665 -1.48431 0
M  V30 1929 H 173.099 1.51282 -3.49024 0
M  V30 1930 H 174.411 2.18308 -4.4849 0
M  V30 1931 H 173.565 4.50152 -4.06753 0
M  V30 1932 H 172.304 3.86533 -2.97394 0
M  V30 1933 H 171.309 2.55349 -4.86906 0
M  V30 1934 H 172.534 3.21997 -5.97909 0
M  V30 1935 H 170.48 4.84084 -4.42718 0
M  V30 1936 H 170.397 4.44783 -6.11313 0
M  V30 1937 H 171.665 5.48761 -5.53608 0
M  V30 1938 N 175.894 1.51508 0.433938 0
M  V30 1939 C 176.857 1.72473 1.50949 0
M  V30 1940 C 177.857 0.594725 1.49398 0
M  V30 1941 O 179.047 0.862315 1.5136 0
M  V30 1942 C 176.179 1.78431 2.90474 0
M  V30 1943 H 177.372 2.68467 1.33662 0
M  V30 1944 H 174.925 1.41549 0.662836 0
M  V30 1945 H 175.66 0.842645 3.13161 0
M  V30 1946 H 175.445 2.60558 2.93005 0
M  V30 1947 H 176.935 1.96479 3.68491 0
M  V30 1948 N 177.372 -0.689602 1.41712 0
M  V30 1949 C 178.302 -1.81577 1.46806 0
M  V30 1950 C 179.283 -1.66945 0.326105 0
M  V30 1951 O 180.468 -1.86588 0.538377 0
M  V30 1952 C 177.598 -3.19762 1.35535 0
M  V30 1953 C 176.552 -3.49107 2.47605 0
M  V30 1954 C 175.878 -4.86711 2.21397 0
M  V30 1955 C 177.178 -3.47483 3.89939 0
M  V30 1956 H 178.872 -1.7757 2.41058 0
M  V30 1957 H 176.418 -0.852887 1.16025 0
M  V30 1958 H 178.371 -3.98263 1.3771 0
M  V30 1959 H 177.095 -3.24409 0.377708 0
M  V30 1960 H 175.754 -2.72959 2.44722 0
M  V30 1961 H 175.402 -4.8799 1.21961 0
M  V30 1962 H 175.102 -5.0731 2.96497 0
M  V30 1963 H 176.626 -5.67515 2.25297 0
M  V30 1964 H 178.04 -4.1598 3.94505 0
M  V30 1965 H 176.437 -3.79615 4.64771 0
M  V30 1966 H 177.507 -2.46341 4.17665 0
M  V30 1967 N 178.85 -1.27639 -0.924453 0
M  V30 1968 C 179.782 -1.06442 -2.02985 0
M  V30 1969 C 180.795 -0.0194771 -1.62788 0
M  V30 1970 O 181.984 -0.261388 -1.76576 0
M  V30 1971 C 179.084 -0.59327 -3.33667 0
M  V30 1972 C 178.257 -1.71123 -4.02537 0
M  V30 1973 C 177.316 -1.23527 -5.11495 0
M  V30 1974 O 176.342 -1.93553 -5.35281 0
M  V30 1975 N 177.544 -0.0926678 -5.80426 0
M  V30 1976 H 180.309 -2.01633 -2.2173 0
M  V30 1977 H 177.87 -1.19248 -1.09505 0
M  V30 1978 H 179.862 -0.258686 -4.03872 0
M  V30 1979 H 178.432 0.265502 -3.1147 0
M  V30 1980 H 177.652 -2.21593 -3.26022 0
M  V30 1981 H 178.94 -2.46145 -4.45298 0
M  V30 1982 H 178.338 0.491741 -5.63559 0
M  V30 1983 H 176.895 0.182714 -6.51544 0
M  V30 1984 N 180.328 1.1314 -1.09713 0
M  V30 1985 C 181.744 1.36477 -0.827423 0
M  V30 1986 C 181.944 1.93654 0.556817 0
M  V30 1987 O 181 2.15791 1.31112 0
M  V30 1988 C 182.313 2.31334 -1.92106 0
M  V30 1989 C 183.861 2.44943 -1.94864 0
M  V30 1990 C 184.336 3.4311 -3.0338 0
M  V30 1991 N 185.827 3.50662 -3.02639 0
M  V30 1992 C 186.562 4.2651 -3.83246 0
M  V30 1993 N 186.058 5.05485 -4.73768 0
M  V30 1994 N 187.851 4.2184 -3.71493 0
M  V30 1995 H 180.002 0.743807 -1.9895 0
M  V30 1996 H 182.265 0.389823 -0.864143 0
M  V30 1997 H 181.971 1.96483 -2.91698 0
M  V30 1998 H 181.845 3.31381 -1.80184 0
M  V30 1999 H 184.232 2.79079 -0.959099 0
M  V30 2000 H 184.313 1.4481 -2.10864 0
M  V30 2001 H 183.957 3.09704 -4.02549 0
M  V30 2002 H 183.887 4.43055 -2.84622 0
M  V30 2003 H 186.378 2.94315 -2.37039 0
M  V30 2004 H 186.691 5.60675 -5.3185 0
M  V30 2005 H 185.036 5.04708 -4.77802 0
M  V30 2006 H 188.227 3.5922 -3.00131 0
M  V30 2007 H 188.4 4.80697 -4.3455 0
M  V30 2008 N 181.806 0.884767 1.30421 0
M  V30 2009 C 183.052 0.503851 1.96441 0
M  V30 2010 C 183.385 -0.944518 1.69684 0
M  V30 2011 O 182.66 -1.66737 1.00145 0
M  V30 2012 C 182.943 0.779085 3.51571 0
M  V30 2013 C 182.796 2.27807 3.87846 0
M  V30 2014 C 184.115 0.255452 4.39358 0
M  V30 2015 H 181.234 0.184533 0.713524 0
M  V30 2016 H 183.876 1.10872 1.54297 0
M  V30 2017 H 182.026 0.264274 3.876 0
M  V30 2018 H 183.698 2.86127 3.61841 0
M  V30 2019 H 181.941 2.74479 3.35922 0
M  V30 2020 H 182.612 2.42125 4.96064 0
M  V30 2021 H 185.088 0.696079 4.10236 0
M  V30 2022 H 183.964 0.477361 5.4682 0
M  V30 2023 H 184.225 -0.843293 4.33983 0
M  V30 2024 N 183.284 -1.43765 0.645699 0
M  V30 2025 C 184.247 -2.29163 -0.0409488 0
M  V30 2026 C 185.247 -1.41813 -0.757996 0
M  V30 2027 O 186.437 -1.63527 -0.600382 0
M  V30 2028 C 183.569 -3.23716 -1.06869 0
M  V30 2029 H 184.762 -2.91366 0.710345 0
M  V30 2030 H 182.315 -1.5092 0.406547 0
M  V30 2031 H 183.05 -2.66393 -1.84947 0
M  V30 2032 H 182.835 -3.88105 -0.558277 0
M  V30 2033 H 184.325 -3.87831 -1.54845 0
M  V30 2034 N 184.763 -0.387143 -1.52771 0
M  V30 2035 C 186.012 0.19697 -2.00736 0
M  V30 2036 C 186.325 1.48082 -1.27793 0
M  V30 2037 O 187.531 2.14485 -1.66458 0
M  V30 2038 C 185.987 0.401568 -3.57653 0
M  V30 2039 C 185.595 -0.868907 -4.39493 0
M  V30 2040 C 187.339 0.942164 -4.13912 0
M  V30 2041 C 185.246 -0.632705 -5.88006 0
M  V30 2042 H 184.176 0.0773827 -0.750019 0
M  V30 2043 H 186.827 -0.50921 -1.76293 0
M  V30 2044 H 185.209 1.16954 -3.78335 0
M  V30 2045 H 186.383 -1.64133 -4.30577 0
M  V30 2046 H 184.698 -1.33429 -3.94443 0
M  V30 2047 H 187.295 1.13455 -5.22525 0
M  V30 2048 H 187.638 1.9106 -3.69867 0
M  V30 2049 H 188.171 0.233814 -3.97112 0
M  V30 2050 H 184.91 -1.57208 -6.36369 0
M  V30 2051 H 184.43 0.100825 -5.99715 0
M  V30 2052 H 186.109 -0.26642 -6.46451 0
M  V30 2053 N 186.241 1.57166 -0.116904 0
M  V30 2054 C 187.171 2.18222 0.830759 0
M  V30 2055 C 188.152 1.12167 1.27877 0
M  V30 2056 O 189.337 1.40394 1.34176 0
M  V30 2057 C 186.467 2.77996 2.08172 0
M  V30 2058 C 185.421 3.89614 1.77157 0
M  V30 2059 C 184.747 4.36187 3.09265 0
M  V30 2060 C 186.047 5.1181 1.04151 0
M  V30 2061 H 187.741 2.97664 0.321992 0
M  V30 2062 H 185.287 1.4318 0.153434 0
M  V30 2063 H 187.24 3.19366 2.74924 0
M  V30 2064 H 185.964 1.9584 2.6137 0
M  V30 2065 H 184.623 3.48816 1.12796 0
M  V30 2066 H 184.271 3.50893 3.60393 0
M  V30 2067 H 183.971 5.11455 2.89288 0
M  V30 2068 H 185.495 4.80207 3.77139 0
M  V30 2069 H 186.909 5.50214 1.61052 0
M  V30 2070 H 185.306 5.92648 0.942762 0
M  V30 2071 H 186.376 4.84892 0.0279022 0
M  V30 2072 N 187.719 -0.156864 1.56817 0
M  V30 2073 C 188.965 -0.872416 1.83076 0
M  V30 2074 C 189.298 -1.81261 0.697001 0
M  V30 2075 O 188.573 -1.92171 -0.30008 0
M  V30 2076 C 188.856 -1.65551 3.19789 0
M  V30 2077 C 188.709 -0.737467 4.43713 0
M  V30 2078 C 190.028 -2.62012 3.53606 0
M  V30 2079 H 187.147 -0.315715 0.665953 0
M  V30 2080 H 189.789 -0.138004 1.89498 0
M  V30 2081 H 187.939 -2.28159 3.14445 0
M  V30 2082 H 189.611 -0.123143 4.61136 0
M  V30 2083 H 187.854 -0.0464067 4.33775 0
M  V30 2084 H 188.525 -1.32122 5.35955 0
M  V30 2085 H 191.001 -2.09525 3.59497 0
M  V30 2086 H 189.877 -3.13861 4.50314 0
M  V30 2087 H 190.138 -3.42902 2.79053 0
M  V30 2088 N 189.197 -1.51736 -0.425897 0
M  V30 2089 C 190.608 -1.5732 -1.00536 0
M  V30 2090 C 190.959 -0.403537 -1.92005 0
M  V30 2091 O 190.084 0.478256 -2.11049 0
M  V30 2092 C 190.679 -2.85119 -1.8301 0
M  V30 2093 C 189.238 -2.93236 -2.35987 0
M  V30 2094 C 188.385 -2.52098 -1.15508 0
M  V30 2095 H 191.336 -1.57348 -0.206739 0
M  V30 2096 H 191.357 -2.69526 -2.68581 0
M  V30 2097 H 190.869 -3.7023 -1.16411 0
M  V30 2098 H 188.97 -2.12581 -3.06007 0
M  V30 2099 H 189.083 -3.9713 -2.68001 0
M  V30 2100 H 187.447 -2.05558 -1.50393 0
M  V30 2101 H 188.23 -3.39565 -0.505014 0
M  V30 2102 N 190.675 0.682077 -1.42076 0
M  V30 2103 C 191.625 1.78823 -1.41444 0
M  V30 2104 C 192.609 1.58323 -0.28681 0
M  V30 2105 O 193.801 1.68926 -0.528498 0
M  V30 2106 C 190.93 3.17232 -1.3122 0
M  V30 2107 C 190.016 3.4338 -2.489 0
M  V30 2108 N 190.407 3.40152 -3.7434 0
M  V30 2109 C 188.705 3.73986 -2.43003 0
M  V30 2110 C 189.406 3.65581 -4.52466 0
M  V30 2111 N 188.382 3.85989 -3.8277 0
M  V30 2112 H 192.184 1.7471 -2.36334 0
M  V30 2113 H 189.698 0.882622 -1.36321 0
M  V30 2114 H 191.695 3.96489 -1.2885 0
M  V30 2115 H 190.355 3.22547 -0.373263 0
M  V30 2116 H 191.366 3.20221 -4.07037 0
M  V30 2117 H 188.043 3.86591 -1.57651 0
M  V30 2118 H 189.433 3.69108 -5.61435 0
M  V30 2119 N 192.153 1.28127 0.917671 0
M  V30 2120 C 193.569 1.05749 1.19538 0
M  V30 2121 C 193.769 -0.202633 2.00479 0
M  V30 2122 O 192.825 -0.905382 2.3571 0
M  V30 2123 C 194.138 2.30273 1.93378 0
M  V30 2124 C 195.686 2.35412 2.06277 0
M  V30 2125 C 196.161 3.59692 2.83524 0
M  V30 2126 N 197.652 3.60309 2.91087 0
M  V30 2127 C 198.387 4.53147 3.51348 0
M  V30 2128 N 197.883 5.563 4.12919 0
M  V30 2129 N 199.676 4.40751 3.48849 0
M  V30 2130 H 191.827 2.09024 0.377184 0
M  V30 2131 H 194.09 0.919798 0.22951 0
M  V30 2132 H 193.796 3.22055 1.41328 0
M  V30 2133 H 193.67 2.36378 2.93947 0
M  V30 2134 H 196.057 1.4413 2.57508 0
M  V30 2135 H 196.138 2.33304 1.04895 0
M  V30 2136 H 195.782 4.51316 2.32973 0
M  V30 2137 H 195.712 3.59054 3.85211 0
M  V30 2138 H 198.203 2.85714 2.47338 0
M  V30 2139 H 198.516 6.2329 4.56869 0
M  V30 2140 H 196.861 5.60131 4.11435 0
M  V30 2141 H 200.052 3.59367 2.99955 0
M  V30 2142 H 200.225 5.13291 3.9552 0
M  V30 2143 N 193.631 -1.12557 1.10312 0
M  V30 2144 C 194.579 -2.20325 0.745629 0
M  V30 2145 C 195.573 -1.67429 -0.25763 0
M  V30 2146 O 196.779 -1.79612 -0.118132 0
M  V30 2147 H 193.154 -0.718118 0.223182 0
M  V30 2148 H 195.125 -2.47733 1.66346 0
M  V30 2149 C 193.874 -3.47168 0.192262 0
M  V30 2150 H 193.197 -3.88215 0.955475 0
M  V30 2151 H 194.637 -4.23995 -0.0198274 0
M  V30 2152 C 193.096 -3.19298 -1.07472 0
M  V30 2153 O 193.626 -3.3891 -2.15645 0
M  V30 2154 N 191.832 -2.73113 -0.992847 0
M  V30 2155 H 191.379 -2.57354 -0.112474 0
M  V30 2156 H 191.337 -2.54842 -1.84127 0
M  V30 2157 N 195.109 -0.891671 -1.2995 0
M  V30 2158 C 196.525 -0.58662 -1.48428 0
M  V30 2159 C 196.725 0.873951 -1.81561 0
M  V30 2160 O 195.781 1.65471 -1.90724 0
M  V30 2161 C 197.094 -1.50553 -2.60296 0
M  V30 2162 C 198.642 -1.50988 -2.74175 0
M  V30 2163 C 199.117 -2.41488 -3.89163 0
M  V30 2164 N 200.608 -2.39489 -3.96483 0
M  V30 2165 C 201.343 -3.06223 -4.84784 0
M  V30 2166 N 200.839 -3.82206 -5.77833 0
M  V30 2167 N 202.632 -2.95421 -4.78208 0
M  V30 2168 H 194.783 -1.83644 -1.06718 0
M  V30 2169 H 197.046 -0.786455 -0.529332 0
M  V30 2170 H 196.752 -2.54581 -2.42654 0
M  V30 2171 H 196.626 -1.22008 -3.56923 0
M  V30 2172 H 199.013 -0.47708 -2.91218 0
M  V30 2173 H 199.094 -1.83567 -1.78148 0
M  V30 2174 H 198.738 -3.44857 -3.72876 0
M  V30 2175 H 198.668 -2.06222 -4.84541 0
M  V30 2176 H 201.159 -1.84278 -3.29924 0
M  V30 2177 H 201.472 -4.302 -6.41988 0
M  V30 2178 H 199.817 -3.86313 -5.77743 0
M  V30 2179 H 203.008 -2.35581 -4.04499 0
M  V30 2180 H 203.181 -3.47704 -5.46814 0
M  V30 2181 N 196.587 1.43421 -0.653314 0
M  V30 2182 C 197.497 2.34568 0.0388565 0
M  V30 2183 C 198.513 1.53888 0.81207 0
M  V30 2184 O 199.689 1.86539 0.759294 0
M  V30 2185 C 196.754 3.32167 0.993269 0
M  V30 2186 C 195.815 4.28751 0.216977 0
M  V30 2187 C 195.048 5.21688 1.12593 0
M  V30 2188 O 195.271 5.19052 2.36519 0
M  V30 2189 O 194.205 5.98919 0.598284 0
M  V30 2190 H 198.031 2.95251 -0.711386 0
M  V30 2191 H 195.616 1.43564 -0.413502 0
M  V30 2192 H 197.498 3.92183 1.54176 0
M  V30 2193 H 196.173 2.73987 1.72374 0
M  V30 2194 H 195.08 3.72215 -0.375101 0
M  V30 2195 H 196.413 4.89913 -0.473924 0
M  V30 2196 N 198.065 0.39524 1.52563 0
M  V30 2197 C 199.012 -0.437036 2.26624 0
M  V30 2198 C 199.982 -1.05281 1.28472 0
M  V30 2199 O 201.167 -1.07971 1.57311 0
M  V30 2200 C 198.307 -1.55524 3.08069 0
M  V30 2201 C 197.42 -0.961745 4.21158 0
M  V30 2202 C 196.555 -2.05149 4.89987 0
M  V30 2203 C 195.594 -1.4342 5.95061 0
M  V30 2204 N 194.731 -2.46351 6.57462 0
M  V30 2205 H 199.571 0.200976 2.97322 0
M  V30 2206 H 197.108 0.110944 1.46681 0
M  V30 2207 H 199.066 -2.21437 3.53584 0
M  V30 2208 H 197.696 -2.16348 2.3957 0
M  V30 2209 H 196.748 -0.192048 3.79915 0
M  V30 2210 H 198.06 -0.470701 4.96574 0
M  V30 2211 H 197.214 -2.78819 5.38837 0
M  V30 2212 H 195.953 -2.57615 4.14109 0
M  V30 2213 H 194.958 -0.682774 5.45544 0
M  V30 2214 H 196.183 -0.917416 6.72875 0
M  V30 2215 H 194.129 -2.97975 5.8442 0
M  V30 2216 H 194.046 -2.02019 7.28508 0
M  V30 2217 H 195.314 -3.19633 7.10954 0
M  V30 2218 N 199.544 -1.57102 0.125237 0
M  V30 2219 C 200.494 -2.12202 -0.833936 0
M  V30 2220 C 201.478 -1.04433 -1.22403 0
M  V30 2221 O 202.67 -1.30655 -1.19408 0
M  V30 2222 C 199.799 -2.72994 -2.08157 0
M  V30 2223 C 198.885 -3.87852 -1.71556 0
M  V30 2224 N 199.276 -4.9464 -1.05662 0
M  V30 2225 C 197.574 -3.98153 -2.00973 0
M  V30 2226 C 198.275 -5.74953 -0.883376 0
M  V30 2227 N 197.251 -5.24985 -1.41036 0
M  V30 2228 H 201.053 -2.92141 -0.321035 0
M  V30 2229 H 198.567 -1.62217 -0.0770315 0
M  V30 2230 H 200.564 -3.10816 -2.77847 0
M  V30 2231 H 199.224 -1.9452 -2.59985 0
M  V30 2232 H 200.235 -5.12872 -0.719878 0
M  V30 2233 H 196.912 -3.30728 -2.54804 0
M  V30 2234 H 198.302 -6.70904 -0.365675 0
M  V30 2235 N 201.022 0.148545 -1.56898 0
M  V30 2236 C 201.952 1.18524 -2.01182 0
M  V30 2237 C 202.933 1.4489 -0.891123 0
M  V30 2238 O 204.118 1.55836 -1.15882 0
M  V30 2239 C 201.248 2.51879 -2.39112 0
M  V30 2240 C 200.202 2.40038 -3.54353 0
M  V30 2241 C 199.528 3.78089 -3.78091 0
M  V30 2242 C 200.828 1.88577 -4.87069 0
M  V30 2243 H 202.522 0.817029 -2.88036 0
M  V30 2244 H 200.068 0.391575 -1.38574 0
M  V30 2245 H 202.021 3.24627 -2.68692 0
M  V30 2246 H 200.745 2.90532 -1.49193 0
M  V30 2247 H 199.404 1.69742 -3.24936 0
M  V30 2248 H 199.052 4.14175 -2.85426 0
M  V30 2249 H 198.752 3.71028 -4.55645 0
M  V30 2250 H 200.276 4.52387 -4.10095 0
M  V30 2251 H 201.69 2.51117 -5.15377 0
M  V30 2252 H 200.087 1.9241 -5.68417 0
M  V30 2253 H 201.157 0.84136 -4.77545 0
M  V30 2254 N 202.5 1.5196 0.417844 0
M  V30 2255 C 203.433 1.69387 1.52916 0
M  V30 2256 C 204.411 0.541419 1.53321 0
M  V30 2257 O 205.595 0.767695 1.72159 0
M  V30 2258 C 202.722 1.72525 2.91467 0
M  V30 2259 C 201.768 2.93967 3.09008 0
M  V30 2260 S 202.601 4.54461 2.83242 0
M  V30 2261 C 203.757 4.60372 4.24038 0
M  V30 2262 H 203.99 2.63382 1.37903 0
M  V30 2263 H 201.523 1.41889 0.608845 0
M  V30 2264 H 203.481 1.75018 3.7132 0
M  V30 2265 H 202.142 0.796733 3.03827 0
M  V30 2266 H 201.335 2.92619 4.10353 0
M  V30 2267 H 200.937 2.89316 2.37007 0
M  V30 2268 H 203.229 4.37213 5.17544 0
M  V30 2269 H 204.172 5.62273 4.30412 0
M  V30 2270 H 204.58 3.89492 4.08602 0
M  V30 2271 N 203.978 -0.674533 1.42435 0
M  V30 2272 C 205.208 -1.46071 1.46105 0
M  V30 2273 C 205.616 -1.89067 0.0709605 0
M  V30 2274 O 204.959 -1.58731 -0.924677 0
M  V30 2275 C 205.021 -2.74145 2.32561 0
M  V30 2276 C 204.685 -2.53224 3.8043 0
M  V30 2277 C 205.682 -2.17809 4.72075 0
M  V30 2278 C 203.367 -2.6821 4.24698 0
M  V30 2279 C 205.361 -1.97648 6.05982 0
M  V30 2280 C 203.048 -2.47665 5.58664 0
M  V30 2281 C 204.046 -2.12437 6.49122 0
M  V30 2282 O 203.734 -1.9209 7.80613 0
M  V30 2283 H 203.466 -0.455959 0.499076 0
M  V30 2284 H 206.02 -0.836193 1.87609 0
M  V30 2285 H 204.25 -3.3908 1.85908 0
M  V30 2286 H 205.939 -3.36028 2.27683 0
M  V30 2287 H 206.705 -2.05826 4.39159 0
M  V30 2288 H 202.584 -2.94609 3.54579 0
M  V30 2289 H 206.128 -1.70075 6.7655 0
M  V30 2290 H 202.025 -2.59244 5.91154 0
M  V30 2291 H 202.793 -2.06686 7.91974 0
M  V30 2292 N 205.456 -1.28612 -0.910864 0
M  V30 2293 C 206.386 -1.15326 -2.03032 0
M  V30 2294 C 207.367 -0.0502924 -1.70026 0
M  V30 2295 O 208.552 -0.227797 -1.92859 0
M  V30 2296 C 205.682 -0.817343 -3.37545 0
M  V30 2297 C 204.636 -1.8754 -3.84724 0
M  V30 2298 C 203.962 -1.39305 -5.16235 0
M  V30 2299 C 205.262 -3.28244 -4.06267 0
M  V30 2300 H 206.956 -2.08975 -2.14406 0
M  V30 2301 H 204.502 -1.00612 -1.03021 0
M  V30 2302 H 206.455 -0.711151 -4.15356 0
M  V30 2303 H 205.179 0.154846 -3.26233 0
M  V30 2304 H 203.838 -1.97079 -3.09121 0
M  V30 2305 H 203.486 -0.409846 -5.01328 0
M  V30 2306 H 203.186 -2.10057 -5.48771 0
M  V30 2307 H 204.71 -1.30014 -5.96598 0
M  V30 2308 H 206.124 -3.21611 -4.74594 0
M  V30 2309 H 204.521 -3.96855 -4.5014 0
M  V30 2310 H 205.591 -3.72048 -3.10979 0
M  V30 2311 N 206.934 1.1197 -1.10907 0
M  V30 2312 C 207.864 2.19928 -0.784473 0
M  V30 2313 C 208.845 1.6833 0.244726 0
M  V30 2314 O 210.03 1.93892 0.109418 0
M  V30 2315 C 207.16 3.46597 -0.220827 0
M  V30 2316 C 206.114 4.11376 -1.18127 0
M  V30 2317 C 205.44 5.32554 -0.478594 0
M  V30 2318 C 206.74 4.56945 -2.52979 0
M  V30 2319 H 208.434 2.47337 -1.68715 0
M  V30 2320 H 205.98 1.18879 -0.812642 0
M  V30 2321 H 207.933 4.21396 0.0184278 0
M  V30 2322 H 206.657 3.1863 0.717113 0
M  V30 2323 H 205.316 3.38564 -1.40606 0
M  V30 2324 H 204.964 5.00856 0.463976 0
M  V30 2325 H 204.664 5.76844 -1.11912 0
M  V30 2326 H 206.188 6.10096 -0.248 0
M  V30 2327 H 207.602 5.23093 -2.3462 0
M  V30 2328 H 205.999 5.1203 -3.12962 0
M  V30 2329 H 207.069 3.70676 -3.12614 0
M  V30 2330 N 208.412 0.89855 1.29475 0
M  V30 2331 C 209.322 0.379974 2.31502 0
M  V30 2332 C 210.338 -0.524695 1.659 0
M  V30 2333 O 211.514 -0.414551 1.97087 0
M  V30 2334 C 208.579 -0.385138 3.44554 0
M  V30 2335 C 207.64 0.550914 4.2575 0
M  V30 2336 C 206.873 -0.177778 5.33404 0
M  V30 2337 O 207.096 -1.40189 5.52904 0
M  V30 2338 O 206.03 0.479106 5.9999 0
M  V30 2339 H 209.856 1.22639 2.77837 0
M  V30 2340 H 207.441 0.662834 1.33891 0
M  V30 2341 H 209.323 -0.817841 4.13388 0
M  V30 2342 H 207.998 -1.20763 3.0033 0
M  V30 2343 H 206.905 1.03271 3.59564 0
M  V30 2344 H 208.238 1.33979 4.73614 0
M  V30 2345 N 209.89 -1.43072 0.660911 0
M  V30 2346 C 210.84 -2.27948 -0.04847 0
M  V30 2347 C 211.824 -1.40325 -0.787246 0
M  V30 2348 O 213.016 -1.63893 -0.668446 0
M  V30 2349 C 210.145 -3.28143 -1.00881 0
M  V30 2350 C 209.231 -4.23252 -0.268108 0
M  V30 2351 N 209.622 -5.00656 0.719528 0
M  V30 2352 C 207.92 -4.43092 -0.508493 0
M  V30 2353 C 208.621 -5.70019 1.15988 0
M  V30 2354 N 207.597 -5.41364 0.492584 0
M  V30 2355 H 211.399 -2.85213 0.709279 0
M  V30 2356 H 208.913 -1.54869 0.488822 0
M  V30 2357 H 210.91 -3.87736 -1.53188 0
M  V30 2358 H 209.57 -2.7244 -1.76654 0
M  V30 2359 H 210.581 -5.06115 1.09855 0
M  V30 2360 H 207.258 -3.98449 -1.24679 0
M  V30 2361 H 208.648 -6.4214 1.97751 0
M  V30 2362 N 211.368 -0.403325 -1.52352 0
M  V30 2363 C 212.298 0.416205 -2.29761 0
M  V30 2364 C 213.279 1.05123 -1.33728 0
M  V30 2365 O 214.464 1.06134 -1.62632 0
M  V30 2366 C 211.594 1.53624 -3.11475 0
M  V30 2367 C 210.548 1.02653 -4.15507 0
M  V30 2368 C 209.874 2.23971 -4.85532 0
M  V30 2369 C 211.174 0.08463 -5.22231 0
M  V30 2370 H 212.868 -0.229701 -2.98518 0
M  V30 2371 H 210.414 -0.111913 -1.43564 0
M  V30 2372 H 212.367 2.1165 -3.64393 0
M  V30 2373 H 211.091 2.20994 -2.40477 0
M  V30 2374 H 209.75 0.46871 -3.63591 0
M  V30 2375 H 209.398 2.89883 -4.11068 0
M  V30 2376 H 209.098 1.90521 -5.55856 0
M  V30 2377 H 210.622 2.82614 -5.41259 0
M  V30 2378 H 212.036 0.573509 -5.70424 0
M  V30 2379 H 210.433 -0.160783 -5.99885 0
M  V30 2380 H 211.503 -0.86237 -4.7717 0
M  V30 2381 N 212.846 1.57033 -0.133567 0
M  V30 2382 C 213.796 2.12641 0.822671 0
M  V30 2383 C 214.78 1.05081 1.21847 0
M  V30 2384 O 215.972 1.31287 1.18713 0
M  V30 2385 C 213.101 2.74094 2.06706 0
M  V30 2386 C 212.187 3.88757 1.69497 0
M  V30 2387 N 212.578 4.95194 1.03037 0
M  V30 2388 C 210.876 3.99213 1.98859 0
M  V30 2389 C 211.577 5.75414 0.852873 0
M  V30 2390 N 210.553 5.25726 1.3825 0
M  V30 2391 H 214.355 2.92308 0.305537 0
M  V30 2392 H 211.869 1.62256 0.0684276 0
M  V30 2393 H 213.866 3.12285 2.76195 0
M  V30 2394 H 212.526 1.95896 2.5895 0
M  V30 2395 H 213.537 5.13247 0.692669 0
M  V30 2396 H 210.214 3.32075 2.53047 0
M  V30 2397 H 211.604 6.71089 0.330091 0
M  V30 2398 N 214.325 -0.140222 1.56975 0
M  V30 2399 C 215.736 -0.699596 1.73097 0
M  V30 2400 C 216.087 -1.8134 0.749022 0
M  V30 2401 O 215.212 -2.16241 -0.0828503 0
M  V30 2402 C 215.807 -1.27582 3.1386 0
M  V30 2403 C 214.366 -1.78169 3.31561 0
M  V30 2404 C 213.513 -0.672855 2.69013 0
M  V30 2405 H 216.464 0.0855115 1.58469 0
M  V30 2406 H 216.485 -2.14561 3.14235 0
M  V30 2407 H 215.997 -0.464955 3.85305 0
M  V30 2408 H 214.098 -2.61801 2.65124 0
M  V30 2409 H 214.211 -1.90574 4.39566 0
M  V30 2410 H 212.575 -1.10118 2.29665 0
M  V30 2411 H 213.358 0.126679 3.43066 0
M  V30 2412 N 215.803 -1.52179 -0.40978 0
M  V30 2413 C 217.05 -1.66206 -1.15679 0
M  V30 2414 C 217.378 -0.391674 -1.90516 0
M  V30 2415 O 216.633 0.62533 -1.8544 0
M  V30 2416 C 216.932 -2.83428 -2.17723 0
M  V30 2417 C 216.598 -4.21672 -1.59699 0
M  V30 2418 C 215.26 -4.59274 -1.43599 0
M  V30 2419 C 217.612 -5.07825 -1.17317 0
M  V30 2420 C 214.94 -5.80709 -0.836328 0
M  V30 2421 C 217.292 -6.29864 -0.587691 0
M  V30 2422 C 215.956 -6.66216 -0.413818 0
M  V30 2423 H 215.226 -0.608192 -0.423301 0
M  V30 2424 H 217.873 -1.86279 -0.444097 0
M  V30 2425 H 216.178 -2.57687 -2.95135 0
M  V30 2426 H 217.875 -2.91477 -2.75394 0
M  V30 2427 H 214.465 -3.9204 -1.73213 0
M  V30 2428 H 218.649 -4.79359 -1.28565 0
M  V30 2429 H 213.905 -6.07498 -0.689626 0
M  V30 2430 H 218.079 -6.95948 -0.250894 0
M  V30 2431 H 215.706 -7.60182 0.0529471 0
M  V30 2432 N 217.281 0.66697 -1.42791 0
M  V30 2433 C 218.211 1.79218 -1.49677 0
M  V30 2434 C 219.192 1.66405 -0.352623 0
M  V30 2435 O 220.377 1.85708 -0.567993 0
M  V30 2436 C 217.507 3.17565 -1.40605 0
M  V30 2437 C 216.461 3.45124 -2.53127 0
M  V30 2438 C 215.787 4.83127 -2.29112 0
M  V30 2439 C 217.087 3.41236 -3.95418 0
M  V30 2440 H 218.781 1.73713 -2.43853 0
M  V30 2441 H 216.327 0.83432 -1.17367 0
M  V30 2442 H 218.28 3.96022 -1.44029 0
M  V30 2443 H 217.004 3.23767 -0.429271 0
M  V30 2444 H 215.663 2.69031 -2.49034 0
M  V30 2445 H 215.311 4.85988 -1.29709 0
M  V30 2446 H 215.011 5.02528 -3.04531 0
M  V30 2447 H 216.535 5.63859 -2.34297 0
M  V30 2448 H 217.949 4.09651 -4.01073 0
M  V30 2449 H 216.346 3.72173 -4.70752 0
M  V30 2450 H 217.416 2.39665 -4.21532 0
M  V30 2451 N 218.759 1.29093 0.90403 0
M  V30 2452 C 219.691 1.09658 2.01266 0
M  V30 2453 C 220.704 0.0453729 1.62737 0
M  V30 2454 O 221.893 0.289446 1.76138 0
M  V30 2455 C 218.993 0.646278 3.32681 0
M  V30 2456 C 218.166 1.77505 3.99763 0
M  V30 2457 C 217.225 1.31649 5.09465 0
M  V30 2458 O 216.251 2.02045 5.32134 0
M  V30 2459 N 217.453 0.184997 5.80205 0
M  V30 2460 H 220.218 2.05135 2.18494 0
M  V30 2461 H 217.779 1.20975 1.07594 0
M  V30 2462 H 219.771 0.322906 4.0341 0
M  V30 2463 H 218.341 -0.215916 3.11853 0
M  V30 2464 H 217.561 2.26752 3.22455 0
M  V30 2465 H 218.849 2.53198 4.41325 0
M  V30 2466 H 218.247 -0.402021 5.6427 0
M  V30 2467 H 216.804 -0.0790358 6.51752 0
M  V30 2468 N 220.237 -1.11381 1.11499 0
M  V30 2469 C 221.653 -1.35143 0.849031 0
M  V30 2470 C 221.853 -1.94515 -0.525938 0
M  V30 2471 O 220.909 -2.1785 -1.27662 0
M  V30 2472 C 222.222 -2.28249 1.95762 0
M  V30 2473 C 223.77 -2.41812 1.98736 0
M  V30 2474 C 224.245 -3.3824 3.088 0
M  V30 2475 N 225.736 -3.45803 3.08179 0
M  V30 2476 C 226.471 -4.20358 3.89982 0
M  V30 2477 N 225.967 -4.97884 4.8175 0
M  V30 2478 N 227.76 -4.15877 3.78157 0
M  V30 2479 H 219.911 -0.712062 2.00109 0
M  V30 2480 H 222.174 -0.376025 0.870235 0
M  V30 2481 H 221.88 -1.91817 2.94787 0
M  V30 2482 H 221.754 -3.28473 1.85433 0
M  V30 2483 H 224.141 -2.77518 1.00338 0
M  V30 2484 H 224.222 -1.41437 2.13141 0
M  V30 2485 H 223.866 -3.03261 4.07425 0
M  V30 2486 H 223.796 -4.38471 2.91635 0
M  V30 2487 H 226.287 -2.90506 2.41691 0
M  V30 2488 H 226.6 -5.52142 5.40702 0
M  V30 2489 H 224.945 -4.97043 4.85771 0
M  V30 2490 H 228.136 -3.544 3.05808 0
M  V30 2491 H 228.309 -4.73723 4.42143 0
M  V30 2492 N 221.715 -0.905404 -1.28997 0
M  V30 2493 C 222.647 -0.344748 -2.26592 0
M  V30 2494 C 223.66 0.512135 -1.54535 0
M  V30 2495 O 224.849 0.328368 -1.75454 0
M  V30 2496 C 221.949 0.526587 -3.34784 0
M  V30 2497 C 221.122 -0.305871 -4.36329 0
M  V30 2498 C 220.181 0.499209 -5.23827 0
M  V30 2499 O 219.207 -0.0853004 -5.69136 0
M  V30 2500 N 220.409 1.80408 -5.51755 0
M  V30 2501 H 223.174 -1.18359 -2.75338 0
M  V30 2502 H 220.735 -0.770481 -1.42391 0
M  V30 2503 H 222.727 1.07171 -3.90252 0
M  V30 2504 H 221.297 1.26613 -2.85811 0
M  V30 2505 H 220.517 -1.0324 -3.80441 0
M  V30 2506 H 221.805 -0.875773 -5.01206 0
M  V30 2507 H 221.203 2.3016 -5.16762 0
M  V30 2508 H 219.76 2.29621 -6.10014 0
M  V30 2509 N 223.193 1.4272 -0.668489 0
M  V30 2510 C 224.125 2.2914 0.052613 0
M  V30 2511 C 225.138 1.43339 0.771857 0
M  V30 2512 O 226.327 1.67123 0.627067 0
M  V30 2513 C 223.427 3.20618 1.09804 0
M  V30 2514 C 222.6 4.35039 0.45389 0
M  V30 2515 C 221.659 5.07282 1.39825 0
M  V30 2516 O 220.685 5.62024 0.900978 0
M  V30 2517 N 221.887 5.12206 2.73176 0
M  V30 2518 H 224.652 2.91668 -0.689209 0
M  V30 2519 H 222.213 1.53577 -0.512422 0
M  V30 2520 H 224.205 3.65815 1.73094 0
M  V30 2521 H 222.775 2.59585 1.74167 0
M  V30 2522 H 221.995 3.92567 -0.358396 0
M  V30 2523 H 223.283 5.088 0.00486972 0
M  V30 2524 H 222.681 4.6913 3.16122 0
M  V30 2525 H 221.238 5.61069 3.31729 0
M  V30 2526 N 224.671 0.411399 1.52136 0
M  V30 2527 C 225.601 -0.404015 2.29978 0
M  V30 2528 C 226.582 -1.04412 1.34284 0
M  V30 2529 O 227.767 -1.0527 1.63192 0
M  V30 2530 C 224.897 -1.5197 3.12286 0
M  V30 2531 C 223.851 -1.00448 4.16046 0
M  V30 2532 C 223.177 -2.21393 4.86712 0
M  V30 2533 C 224.477 -0.0569336 5.22269 0
M  V30 2534 H 226.171 0.245529 2.98392 0
M  V30 2535 H 223.717 0.119525 1.43503 0
M  V30 2536 H 225.67 -2.09715 3.6551 0
M  V30 2537 H 224.394 -2.19716 2.41646 0
M  V30 2538 H 223.053 -0.449421 3.63835 0
M  V30 2539 H 222.701 -2.87699 4.12599 0
M  V30 2540 H 222.401 -1.87571 5.56858 0
M  V30 2541 H 223.925 -2.7974 5.4275 0
M  V30 2542 H 225.339 -0.54325 5.7072 0
M  V30 2543 H 223.736 0.192594 5.99791 0
M  V30 2544 H 224.806 0.887663 4.76706 0
M  V30 2545 N 226.149 -1.5696 0.141893 0
M  V30 2546 C 227.426 -1.87553 -0.555281 0
M  V30 2547 C 227.806 -1.04699 -1.83306 0
M  V30 2548 O 227.154 -0.132346 -2.28116 0
M  V30 2549 C 227.364 -3.39093 -0.825664 0
M  V30 2550 C 228.712 -4.08199 -1.16869 0
M  V30 2551 O 229.736 -3.44242 -0.915185 0
M  V30 2552 O 228.595 -5.21139 -1.6455 0
M  V30 2553 H 225.689 -0.777188 -0.282679 0
M  V30 2554 H 228.235 -1.68763 0.17812 0
M  V30 2555 H 227.007 -3.91221 0.0788633 0
M  V30 2556 H 226.63 -3.63393 -1.61343 0
M  V30 2557 N 227.627 0.131896 -1.57047 0
M  V30 2558 C 228.857 0.855219 -1.88068 0
M  V30 2559 C 229.265 1.74557 -0.729817 0
M  V30 2560 O 228.608 1.81083 0.308962 0
M  V30 2561 C 228.67 1.75119 -3.13964 0
M  V30 2562 C 228.334 1.03646 -4.45091 0
M  V30 2563 C 229.331 0.383276 -5.18485 0
M  V30 2564 C 227.016 1.02148 -4.91804 0
M  V30 2565 C 229.01 -0.275347 -6.36805 0
M  V30 2566 C 226.697 0.359047 -6.10044 0
M  V30 2567 C 227.695 -0.288222 -6.82392 0
M  V30 2568 O 227.383 -0.94011 -7.98384 0
M  V30 2569 H 227.115 0.251864 -0.627328 0
M  V30 2570 H 229.669 0.124782 -2.05021 0
M  V30 2571 H 227.899 2.52295 -2.9306 0
M  V30 2572 H 229.588 2.3478 -3.31109 0
M  V30 2573 H 230.354 0.386562 -4.83457 0
M  V30 2574 H 226.233 1.5147 -4.35405 0
M  V30 2575 H 229.777 -0.781148 -6.93213 0
M  V30 2576 H 225.674 0.35348 -6.44531 0
M  V30 2577 H 226.442 -0.84329 -8.14144 0
M  V30 2578 N 229.106 1.52395 0.401703 0
M  V30 2579 C 230.354 1.66488 1.14569 0
M  V30 2580 C 230.675 0.400897 1.90835 0
M  V30 2581 O 229.945 -0.584415 1.8698 0
M  V30 2582 H 228.525 0.613672 0.425929 0
M  V30 2583 H 231.187 1.89464 0.457093 0
M  V30 2584 H 230.283 2.50942 1.85566 0
M  V30 2585 N 230.584 -0.659388 1.43143 0
M  V30 2586 C 231.833 -1.41518 1.43721 0
M  V30 2587 C 232.146 -1.95499 0.0628176 0
M  V30 2588 O 233.352 -2.71446 -0.0539683 0
M  V30 2589 C 231.808 -2.5608 2.52885 0
M  V30 2590 C 231.416 -2.08733 3.96402 0
M  V30 2591 C 233.16 -3.3349 2.62649 0
M  V30 2592 C 231.067 -3.20469 4.97045 0
M  V30 2593 H 229.997 -0.531705 0.534608 0
M  V30 2594 H 232.648 -0.712343 1.69109 0
M  V30 2595 H 231.03 -3.28805 2.20688 0
M  V30 2596 H 232.204 -1.43059 4.3803 0
M  V30 2597 H 230.519 -1.44219 3.90627 0
M  V30 2598 H 233.116 -4.16734 3.35017 0
M  V30 2599 H 233.459 -3.8111 1.67513 0
M  V30 2600 H 233.992 -2.67842 2.94118 0
M  V30 2601 H 230.731 -2.77824 5.93712 0
M  V30 2602 H 230.251 -3.84874 4.60034 0
M  V30 2603 H 231.93 -3.85698 5.19467 0
M  V30 2604 N 232.062 -1.29571 -0.897171 0
M  V30 2605 C 233.292 -1.20408 -1.67886 0
M  V30 2606 C 233.7 0.237429 -1.87704 0
M  V30 2607 O 233.043 1.17048 -1.41582 0
M  V30 2608 C 233.105 -1.84887 -3.08314 0
M  V30 2609 C 232.769 -3.34189 -3.11716 0
M  V30 2610 C 233.766 -4.30374 -2.91675 0
M  V30 2611 C 231.451 -3.75431 -3.33701 0
M  V30 2612 C 233.445 -5.65776 -2.93557 0
M  V30 2613 C 231.132 -5.10955 -3.35214 0
M  V30 2614 C 232.13 -6.05938 -3.15164 0
M  V30 2615 O 231.818 -7.38987 -3.1647 0
M  V30 2616 H 231.55 -0.418289 -0.531046 0
M  V30 2617 H 234.104 -1.71514 -1.13014 0
M  V30 2618 H 232.334 -1.28295 -3.64798 0
M  V30 2619 H 234.023 -1.70011 -3.6858 0
M  V30 2620 H 234.789 -3.99844 -2.74499 0
M  V30 2621 H 230.668 -3.01953 -3.48347 0
M  V30 2622 H 234.212 -6.39889 -2.77826 0
M  V30 2623 H 230.109 -5.4113 -3.51922 0
M  V30 2624 H 230.877 -7.47823 -3.3272 0
M  V30 2625 N 233.54 1.10788 -1.12088 0
M  V30 2626 C 234.786 1.82942 -0.875226 0
M  V30 2627 C 235.119 1.84779 0.597538 0
M  V30 2628 O 234.394 1.30578 1.44152 0
M  V30 2629 C 234.677 3.29789 -1.44606 0
M  V30 2630 C 234.53 3.36307 -2.98693 0
M  V30 2631 C 235.849 4.26064 -1.10261 0
M  V30 2632 H 232.968 0.664195 -0.319397 0
M  V30 2633 H 235.61 1.29867 -1.38689 0
M  V30 2634 H 233.76 3.75118 -1.01089 0
M  V30 2635 H 235.432 2.99487 -3.50864 0
M  V30 2636 H 233.675 2.76318 -3.34411 0
M  V30 2637 H 234.346 4.39694 -3.33726 0
M  V30 2638 H 236.822 3.88951 -1.4784 0
M  V30 2639 H 235.698 5.27183 -1.52869 0
M  V30 2640 H 235.959 4.42098 -0.0142953 0
M  V30 2641 N 235.018 0.912232 1.28515 0
M  V30 2642 C 236.267 0.540504 1.94323 0
M  V30 2643 C 236.58 -0.920044 1.72611 0
M  V30 2644 O 237.786 -1.39986 2.32629 0
M  V30 2645 C 236.242 0.915803 3.48053 0
M  V30 2646 C 235.85 2.39598 3.78546 0
M  V30 2647 C 237.594 0.614588 4.20027 0
M  V30 2648 C 235.501 2.71148 5.25578 0
M  V30 2649 H 234.431 0.198418 0.727424 0
M  V30 2650 H 237.082 1.11094 1.46049 0
M  V30 2651 H 235.464 0.274168 3.9505 0
M  V30 2652 H 236.638 3.08422 3.42364 0
M  V30 2653 H 234.953 2.66749 3.1974 0
M  V30 2654 H 237.55 0.827002 5.28266 0
M  V30 2655 H 237.893 -0.447531 4.13887 0
M  V30 2656 H 238.426 1.21462 3.78803 0
M  V30 2657 H 235.165 3.76207 5.36794 0
M  V30 2658 H 234.685 2.0696 5.62963 0
M  V30 2659 H 236.364 2.58072 5.93302 0
M  V30 2660 N 236.496 -1.42363 0.676048 0
M  V30 2661 C 237.446 -2.27987 -0.0242903 0
M  V30 2662 C 238.43 -1.41153 -0.772319 0
M  V30 2663 O 239.622 -1.64592 -0.651025 0
M  V30 2664 C 236.751 -3.29195 -0.973953 0
M  V30 2665 C 235.837 -4.23512 -0.223202 0
M  V30 2666 N 236.228 -4.99865 0.772589 0
M  V30 2667 C 234.526 -4.43606 -0.461469 0
M  V30 2668 C 235.227 -5.68757 1.22027 0
M  V30 2669 N 234.203 -5.40811 0.549975 0
M  V30 2670 H 238.005 -2.84445 0.73949 0
M  V30 2671 H 235.519 -1.54341 0.50522 0
M  V30 2672 H 237.516 -3.89339 -1.49067 0
M  V30 2673 H 236.176 -2.74298 -1.73755 0
M  V30 2674 H 237.187 -5.04921 1.15217 0
M  V30 2675 H 233.864 -3.99749 -1.20446 0
M  V30 2676 H 235.254 -6.40007 2.0455 0
M  V30 2677 N 237.974 -0.419461 -1.51915 0
M  V30 2678 C 238.906 0.43646 -2.25006 0
M  V30 2679 C 239.919 1.00149 -1.28351 0
M  V30 2680 O 241.108 0.898674 -1.54227 0
M  V30 2681 C 238.208 1.6206 -2.9764 0
M  V30 2682 C 237.381 1.17763 -4.21249 0
M  V30 2683 C 236.44 2.22985 -4.76617 0
M  V30 2684 O 235.466 1.83151 -5.38929 0
M  V30 2685 N 236.668 3.55271 -4.59089 0
M  V30 2686 H 239.433 -0.18989 -2.99098 0
M  V30 2687 H 236.994 -0.247386 -1.59999 0
M  V30 2688 H 238.986 2.32038 -3.31573 0
M  V30 2689 H 237.556 2.15266 -2.2667 0
M  V30 2690 H 236.776 0.305582 -3.93014 0
M  V30 2691 H 238.064 0.858781 -5.015 0
M  V30 2692 H 237.462 3.90377 -4.09417 0
M  V30 2693 H 236.019 4.21195 -4.97432 0
M  V30 2694 N 239.452 1.56882 -0.150215 0
M  V30 2695 C 240.415 2.1573 0.774157 0
M  V30 2696 C 241.415 1.0999 1.17298 0
M  V30 2697 O 242.605 1.35613 1.09338 0
M  V30 2698 C 239.737 2.72302 2.05096 0
M  V30 2699 H 240.93 2.98752 0.262201 0
M  V30 2700 H 238.483 1.55985 0.099248 0
M  V30 2701 H 239.218 1.92956 2.6065 0
M  V30 2702 H 239.003 3.49665 1.77416 0
M  V30 2703 H 240.493 3.17632 2.71109 0
M  V30 2704 N 240.93 -0.123565 1.57115 0
M  V30 2705 C 241.84 -1.17074 2.033 0
M  V30 2706 C 242.856 -1.4561 0.952559 0
M  V30 2707 O 244.032 -1.56817 1.26374 0
M  V30 2708 C 241.097 -2.47857 2.42421 0
M  V30 2709 C 240.158 -2.26758 3.64526 0
M  V30 2710 C 239.391 -3.51305 4.01771 0
M  V30 2711 O 239.614 -4.5843 3.39409 0
M  V30 2712 O 238.548 -3.42578 4.94898 0
M  V30 2713 H 242.374 -0.808555 2.92739 0
M  V30 2714 H 239.959 -0.334027 1.45618 0
M  V30 2715 H 241.841 -3.2492 2.68338 0
M  V30 2716 H 240.516 -2.83558 1.5613 0
M  V30 2717 H 239.423 -1.47569 3.43765 0
M  V30 2718 H 240.756 -1.95963 4.51508 0
M  V30 2719 N 242.408 -1.52605 -0.393616 0
M  V30 2720 C 243.656 -1.67093 -1.13685 0
M  V30 2721 C 243.977 -0.411011 -1.90619 0
M  V30 2722 O 243.247 0.574491 -1.87287 0
M  V30 2723 H 241.827 -0.615923 -0.422668 0
M  V30 2724 H 244.489 -1.89704 -0.447039 0
M  V30 2725 H 243.585 -2.51922 -1.84232 0
M  V30 2726 N 243.887 0.651787 -1.4349 0
M  V30 2727 C 244.834 1.76462 -1.4876 0
M  V30 2728 C 245.804 1.62641 -0.337189 0
M  V30 2729 O 246.989 1.82864 -0.544544 0
M  V30 2730 C 244.129 3.14623 -1.41796 0
M  V30 2731 C 243.242 3.39568 -2.67053 0
M  V30 2732 C 242.377 4.67585 -2.52068 0
M  V30 2733 C 241.416 4.85639 -3.72587 0
M  V30 2734 N 240.553 6.04915 -3.56402 0
M  V30 2735 H 245.393 1.71293 -2.43849 0
M  V30 2736 H 242.93 0.835889 -1.21043 0
M  V30 2737 H 244.888 3.94496 -1.35753 0
M  V30 2738 H 243.518 3.18859 -0.50288 0
M  V30 2739 H 242.57 2.53783 -2.8337 0
M  V30 2740 H 243.882 3.48795 -3.56572 0
M  V30 2741 H 243.036 5.55586 -2.4374 0
M  V30 2742 H 241.775 4.60681 -1.60075 0
M  V30 2743 H 240.78 3.96073 -3.81321 0
M  V30 2744 H 242.005 4.94372 -4.65589 0
M  V30 2745 H 239.951 5.9914 -2.67146 0
M  V30 2746 H 239.868 6.15106 -4.39524 0
M  V30 2747 H 241.136 6.95533 -3.51929 0
M  V30 2748 N 245.365 1.30045 0.890287 0
M  V30 2749 C 246.312 1.15976 1.99545 0
M  V30 2750 C 247.282 0.0506202 1.66023 0
M  V30 2751 O 248.467 0.219847 1.89529 0
M  V30 2752 C 245.607 0.852054 3.34416 0
M  V30 2753 C 244.72 2.04255 3.80662 0
M  V30 2754 C 243.855 1.6734 5.04154 0
M  V30 2755 C 242.894 2.82916 5.42794 0
M  V30 2756 N 242.031 2.46333 6.57468 0
M  V30 2757 H 246.871 2.10524 2.10911 0
M  V30 2758 H 244.408 1.04749 1.03276 0
M  V30 2759 H 246.366 0.654296 4.12037 0
M  V30 2760 H 244.996 -0.0565502 3.2275 0
M  V30 2761 H 244.048 2.35172 2.98995 0
M  V30 2762 H 245.36 2.90826 4.05242 0
M  V30 2763 H 244.514 1.43908 5.89386 0
M  V30 2764 H 243.253 0.779308 4.81433 0
M  V30 2765 H 242.258 3.0702 4.56091 0
M  V30 2766 H 243.483 3.73004 5.6749 0
M  V30 2767 H 241.429 1.59423 6.36334 0
M  V30 2768 H 241.346 3.26436 6.81891 0
M  V30 2769 H 242.614 2.26244 7.45945 0
M  V30 2770 N 246.843 -1.10192 1.12674 0
M  V30 2771 C 248.09 -1.82205 0.883606 0
M  V30 2772 C 248.418 -1.8532 -0.590492 0
M  V30 2773 O 247.673 -1.31137 -1.45264 0
M  V30 2774 C 247.972 -3.28552 1.4067 0
M  V30 2775 C 247.638 -3.45582 2.89627 0
M  V30 2776 C 246.3 -3.49937 3.30299 0
M  V30 2777 C 248.652 -3.50768 3.85501 0
M  V30 2778 C 245.98 -3.57049 4.65546 0
M  V30 2779 C 248.332 -3.59414 5.20581 0
M  V30 2780 C 246.996 -3.62034 5.60792 0
M  V30 2781 H 246.266 -0.666735 0.323334 0
M  V30 2782 H 248.913 -1.29868 1.40736 0
M  V30 2783 H 247.218 -3.83473 0.80347 0
M  V30 2784 H 248.915 -3.82788 1.19475 0
M  V30 2785 H 245.505 -3.42871 2.57172 0
M  V30 2786 H 249.689 -3.46651 3.55171 0
M  V30 2787 H 244.945 -3.57361 4.96088 0
M  V30 2788 H 249.119 -3.62371 5.94693 0
M  V30 2789 H 246.746 -3.67298 6.6558 0
M  V30 2790 N 248.321 -0.919034 -1.28029 0
M  V30 2791 C 249.269 -0.401753 -2.29104 0
M  V30 2792 C 250.263 0.509354 -1.61561 0
M  V30 2793 O 251.469 0.390014 -1.75724 0
M  V30 2794 H 247.844 -0.111331 -0.743713 0
M  V30 2795 H 249.815 -1.2672 -2.70156 0
M  V30 2796 C 248.564 0.338148 -3.46052 0
M  V30 2797 H 247.887 -0.353732 -3.98232 0
M  V30 2798 H 249.327 0.664653 -4.18758 0
M  V30 2799 C 247.786 1.54798 -2.99231 0
M  V30 2800 O 248.316 2.64696 -3.02157 0
M  V30 2801 N 246.522 1.3968 -2.54829 0
M  V30 2802 H 246.069 0.502698 -2.52647 0
M  V30 2803 H 246.027 2.20755 -2.23863 0
M  V30 2804 N 249.799 1.42003 -0.683588 0
M  V30 2805 C 251.215 1.55625 -0.353976 0
M  V30 2806 C 251.415 1.66151 1.14 0
M  V30 2807 O 250.471 1.63329 1.92561 0
M  V30 2808 C 251.784 2.80171 -1.092 0
M  V30 2809 C 253.332 2.93954 -1.07518 0
M  V30 2810 C 253.807 4.21372 -1.79471 0
M  V30 2811 N 255.298 4.28303 -1.76381 0
M  V30 2812 C 256.033 5.25729 -2.28904 0
M  V30 2813 N 255.529 6.29254 -2.89846 0
M  V30 2814 N 257.322 5.17586 -2.19228 0
M  V30 2815 H 249.473 1.33415 -1.6527 0
M  V30 2816 H 251.736 0.64282 -0.696769 0
M  V30 2817 H 251.442 2.78561 -2.14701 0
M  V30 2818 H 251.316 3.7133 -0.662862 0
M  V30 2819 H 253.703 2.95086 -0.028475 0
M  V30 2820 H 253.784 2.04002 -1.54328 0
M  V30 2821 H 253.428 4.21001 -2.84114 0
M  V30 2822 H 253.358 5.10275 -1.30104 0
M  V30 2823 H 255.849 3.54119 -1.31939 0
M  V30 2824 H 256.162 6.99964 -3.27522 0
M  V30 2825 H 254.507 6.29791 -2.93919 0
M  V30 2826 H 257.698 4.35631 -1.71299 0
M  V30 2827 H 257.871 5.93348 -2.60466 0
M  V30 2828 N 251.277 0.427512 1.51691 0
M  V30 2829 C 252.24 -0.377132 2.26076 0
M  V30 2830 C 253.24 -0.958089 1.29141 0
M  V30 2831 O 254.43 -0.83408 1.52934 0
M  V30 2832 C 251.562 -1.53262 3.04506 0
M  V30 2833 H 252.755 0.27464 2.9864 0
M  V30 2834 H 250.308 0.180445 1.55255 0
M  V30 2835 H 251.043 -2.22072 2.36335 0
M  V30 2836 H 250.828 -1.12232 3.75694 0
M  V30 2837 H 252.318 -2.10135 3.60878 0
M  V30 2838 N 252.755 -1.56801 0.158532 0
M  V30 2839 C 253.702 -2.17337 -0.776729 0
M  V30 2840 C 254.672 -1.1096 -1.23601 0
M  V30 2841 O 255.857 -1.39054 -1.30647 0
M  V30 2842 C 252.997 -2.80822 -2.00582 0
M  V30 2843 C 252.11 -4.01624 -1.59129 0
M  V30 2844 C 251.245 -4.53072 -2.77306 0
M  V30 2845 C 250.284 -5.66314 -2.32282 0
M  V30 2846 N 249.421 -6.12329 -3.43508 0
M  V30 2847 H 254.261 -2.96918 -0.253701 0
M  V30 2848 H 251.798 -1.46661 -0.113504 0
M  V30 2849 H 253.756 -3.15779 -2.72652 0
M  V30 2850 H 252.386 -2.03866 -2.50277 0
M  V30 2851 H 251.438 -3.72571 -0.767806 0
M  V30 2852 H 252.75 -4.83633 -1.2207 0
M  V30 2853 H 251.904 -4.90145 -3.57551 0
M  V30 2854 H 250.643 -3.70095 -3.17617 0
M  V30 2855 H 249.648 -5.28806 -1.5048 0
M  V30 2856 H 250.873 -6.51085 -1.93043 0
M  V30 2857 H 248.819 -5.32284 -3.83418 0
M  V30 2858 H 248.736 -6.89293 -3.105 0
M  V30 2859 H 250.004 -6.5405 -4.24075 0
M  V30 2860 N 254.233 0.115231 -1.57178 0
M  V30 2861 C 255.163 1.1423 -2.03651 0
M  V30 2862 C 256.144 1.42967 -0.921655 0
M  V30 2863 O 257.329 1.53343 -1.19162 0
M  V30 2864 C 254.459 2.4675 -2.44401 0
M  V30 2865 C 253.413 2.32467 -3.59365 0
M  V30 2866 C 252.739 3.69984 -3.86026 0
M  V30 2867 C 254.039 1.78203 -4.90959 0
M  V30 2868 H 255.733 0.755749 -2.89705 0
M  V30 2869 H 253.279 0.362093 -1.39373 0
M  V30 2870 H 255.232 3.18854 -2.75517 0
M  V30 2871 H 253.956 2.87302 -1.55322 0
M  V30 2872 H 252.615 1.62811 -3.28463 0
M  V30 2873 H 252.263 4.08028 -2.94147 0
M  V30 2874 H 251.963 3.61279 -4.63412 0
M  V30 2875 H 253.487 4.43587 -4.19599 0
M  V30 2876 H 254.901 2.40128 -5.20587 0
M  V30 2877 H 253.298 1.8031 -5.72371 0
M  V30 2878 H 254.368 0.739876 -4.79222 0
M  V30 2879 N 255.711 1.52812 0.385517 0
M  V30 2880 C 256.641 1.80808 1.47752 0
M  V30 2881 C 257.622 0.660318 1.5676 0
M  V30 2882 O 258.807 0.908246 1.71652 0
M  V30 2883 C 255.937 1.98008 2.85324 0
M  V30 2884 C 254.891 3.13709 2.91154 0
M  V30 2885 C 254.217 3.16169 4.31209 0
M  V30 2886 C 255.517 4.52709 2.60483 0
M  V30 2887 H 257.211 2.72253 1.24573 0
M  V30 2888 H 254.757 1.31003 0.597839 0
M  V30 2889 H 256.71 2.16176 3.61726 0
M  V30 2890 H 255.434 1.03255 3.09848 0
M  V30 2891 H 254.093 2.95329 2.17201 0
M  V30 2892 H 253.741 2.19092 4.52778 0
M  V30 2893 H 253.441 3.93894 4.36029 0
M  V30 2894 H 254.965 3.36496 5.09512 0
M  V30 2895 H 256.379 4.71173 3.26602 0
M  V30 2896 H 254.776 5.32528 2.76648 0
M  V30 2897 H 255.846 4.59186 1.55809 0
M  V30 2898 N 257.189 -0.644168 1.43834 0
M  V30 2899 C 258.137 -1.77793 1.49974 0
M  V30 2900 C 259.131 -1.65253 0.372536 0
M  V30 2901 O 260.337 -1.7149 0.546924 0
M  V30 2902 H 256.712 -0.58675 0.47035 0
M  V30 2903 H 258.683 -1.69736 2.45423 0
M  V30 2904 C 257.432 -3.16087 1.4486 0
M  V30 2905 H 256.755 -3.26378 2.30905 0
M  V30 2906 H 258.195 -3.95349 1.53217 0
M  V30 2907 C 256.654 -3.36484 0.167463 0
M  V30 2908 O 257.184 -3.94298 -0.767609 0
M  V30 2909 N 255.39 -2.90504 0.0747556 0
M  V30 2910 H 254.937 -2.4364 0.836507 0
M  V30 2911 H 254.895 -3.04527 -0.781714 0
M  V30 2912 N 258.668 -1.30515 -0.883378 0
M  V30 2913 C 259.914 -1.19607 -1.63774 0
M  V30 2914 C 260.247 0.248314 -1.92606 0
M  V30 2915 O 259.522 1.17742 -1.54813 0
M  V30 2916 C 259.805 -2.02669 -2.97653 0
M  V30 2917 C 259.658 -3.55335 -2.75784 0
M  V30 2918 C 260.977 -1.86573 -3.98596 0
M  V30 2919 H 258.096 -0.435856 -0.594305 0
M  V30 2920 H 260.738 -1.60165 -1.02212 0
M  V30 2921 H 258.888 -1.68208 -3.50197 0
M  V30 2922 H 260.56 -3.99863 -2.30016 0
M  V30 2923 H 258.803 -3.79438 -2.1026 0
M  V30 2924 H 259.474 -4.08745 -3.70988 0
M  V30 2925 H 261.95 -2.16703 -3.55217 0
M  V30 2926 H 260.826 -2.47014 -4.90179 0
M  V30 2927 H 261.087 -0.825321 -4.34328 0
M  V30 2928 N 260.146 1.09593 -1.13257 0
M  V30 2929 C 261.394 1.81375 -0.891492 0
M  V30 2930 C 261.715 1.86049 0.584009 0
M  V30 2931 O 260.985 1.34481 1.42449 0
M  V30 2932 H 259.565 0.671708 -0.326828 0
M  V30 2933 H 262.227 1.3256 -1.42877 0
M  V30 2934 H 261.323 2.84612 -1.28071 0
M  V30 2935 N 261.624 0.925811 1.2754 0
M  V30 2936 C 262.854 0.580666 1.98272 0
M  V30 2937 C 263.262 -0.845207 1.69272 0
M  V30 2938 O 262.605 -1.57306 0.948707 0
M  V30 2939 C 262.667 0.724418 3.52126 0
M  V30 2940 C 262.331 2.12206 4.04744 0
M  V30 2941 C 263.328 3.09604 4.17662 0
M  V30 2942 C 261.013 2.4385 4.39138 0
M  V30 2943 C 263.007 4.36755 4.64246 0
M  V30 2944 C 260.694 3.71237 4.85414 0
M  V30 2945 C 261.692 4.67503 4.97926 0
M  V30 2946 O 261.38 5.92624 5.43187 0
M  V30 2947 H 261.112 0.218987 0.639547 0
M  V30 2948 H 263.666 1.24452 1.63404 0
M  V30 2949 H 261.896 0.0034663 3.867 0
M  V30 2950 H 263.585 0.384607 4.04074 0
M  V30 2951 H 264.351 2.86478 3.91351 0
M  V30 2952 H 260.23 1.69665 4.28643 0
M  V30 2953 H 263.774 5.11898 4.73927 0
M  V30 2954 H 259.671 3.94182 5.11166 0
M  V30 2955 H 260.439 5.95585 5.61445 0
M  V30 2956 N 263.102 -1.41638 0.69111 0
M  V30 2957 C 264.032 -2.3347 0.037248 0
M  V30 2958 C 265.013 -1.51575 -0.771947 0
M  V30 2959 O 266.198 -1.80126 -0.72582 0
M  V30 2960 C 263.328 -3.35354 -0.903064 0
M  V30 2961 C 262.282 -4.27526 -0.201288 0
M  V30 2962 C 261.608 -5.19747 -1.25565 0
M  V30 2963 C 262.908 -5.13959 0.929689 0
M  V30 2964 H 264.602 -2.88397 0.804227 0
M  V30 2965 H 262.148 -1.38669 0.388189 0
M  V30 2966 H 264.101 -3.98519 -1.36969 0
M  V30 2967 H 262.825 -2.78767 -1.70166 0
M  V30 2968 H 261.484 -3.65779 0.245265 0
M  V30 2969 H 261.132 -4.59479 -2.04666 0
M  V30 2970 H 260.832 -5.8225 -0.791128 0
M  V30 2971 H 262.356 -5.85789 -1.72288 0
M  V30 2972 H 263.77 -5.70718 0.543546 0
M  V30 2973 H 262.167 -5.85379 1.32103 0
M  V30 2974 H 263.237 -4.51389 1.77133 0
M  V30 2975 N 264.58 -0.43555 -1.51462 0
M  V30 2976 C 265.49 0.383001 -2.31453 0
M  V30 2977 C 266.506 1.02931 -1.4029 0
M  V30 2978 O 267.682 1.02507 -1.73362 0
M  V30 2979 C 264.747 1.47043 -3.13973 0
M  V30 2980 C 263.808 0.844433 -4.20913 0
M  V30 2981 C 263.041 1.88004 -4.9949 0
M  V30 2982 O 263.264 3.10199 -4.78678 0
M  V30 2983 O 262.198 1.47157 -5.83634 0
M  V30 2984 H 266.024 -0.269964 -3.02498 0
M  V30 2985 H 263.609 -0.19813 -1.4808 0
M  V30 2986 H 265.491 2.10113 -3.65281 0
M  V30 2987 H 264.166 2.10751 -2.45695 0
M  V30 2988 H 263.073 0.175729 -3.73687 0
M  V30 2989 H 264.406 0.250869 -4.9156 0
M  V30 2990 N 266.058 1.56714 -0.166846 0
M  V30 2991 C 267.021 2.16539 0.751232 0
M  V30 2992 C 268.021 1.11228 1.16125 0
M  V30 2993 O 269.211 1.36765 1.07894 0
M  V30 2994 C 266.343 2.74462 2.02196 0
M  V30 2995 H 267.536 2.99013 0.230499 0
M  V30 2996 H 265.089 1.56081 0.0826982 0
M  V30 2997 H 265.824 1.95709 2.58589 0
M  V30 2998 H 265.609 3.51527 1.73698 0
M  V30 2999 H 267.099 3.20489 2.67725 0
M  V30 3000 N 267.536 -0.106894 1.57237 0
M  V30 3001 C 268.466 -1.13148 2.04254 0
M  V30 3002 C 269.447 -1.42476 0.929224 0
M  V30 3003 O 270.632 -1.52709 1.19973 0
M  V30 3004 C 267.762 -2.4545 2.45706 0
M  V30 3005 C 266.716 -2.30558 3.60592 0
M  V30 3006 C 266.042 -3.67931 3.87983 0
M  V30 3007 C 267.342 -1.75597 4.91897 0
M  V30 3008 H 269.036 -0.740374 2.90101 0
M  V30 3009 H 266.582 -0.354696 1.39563 0
M  V30 3010 H 268.535 -3.17389 2.77205 0
M  V30 3011 H 267.259 -2.86475 1.56843 0
M  V30 3012 H 265.918 -1.61067 3.29322 0
M  V30 3013 H 265.566 -4.06462 2.96306 0
M  V30 3014 H 265.266 -3.58817 4.65322 0
M  V30 3015 H 266.79 -4.41356 4.21945 0
M  V30 3016 H 268.204 -2.37364 5.21854 0
M  V30 3017 H 266.601 -1.77272 5.73319 0
M  V30 3018 H 267.671 -0.714451 4.79608 0
M  V30 3019 N 269.014 -1.53014 -0.377408 0
M  V30 3020 C 269.961 -1.78616 -1.46168 0
M  V30 3021 C 270.931 -0.629917 -1.53692 0
M  V30 3022 O 272.116 -0.870861 -1.69766 0
M  V30 3023 C 269.256 -1.97123 -2.8326 0
M  V30 3024 C 268.369 -3.24831 -2.84796 0
M  V30 3025 C 267.504 -3.33591 -4.13389 0
M  V30 3026 C 266.543 -4.55377 -4.09021 0
M  V30 3027 N 265.68 -4.61355 -5.29241 0
M  V30 3028 H 270.52 -2.71142 -1.23637 0
M  V30 3029 H 268.057 -1.34326 -0.599577 0
M  V30 3030 H 270.015 -2.05839 -3.62886 0
M  V30 3031 H 268.645 -1.07946 -3.04216 0
M  V30 3032 H 267.697 -3.25128 -1.97474 0
M  V30 3033 H 269.009 -4.14523 -2.77439 0
M  V30 3034 H 268.163 -3.41554 -5.01424 0
M  V30 3035 H 266.902 -2.41894 -4.23484 0
M  V30 3036 H 265.907 -4.47527 -3.19373 0
M  V30 3037 H 267.132 -5.48402 -4.00539 0
M  V30 3038 H 265.078 -3.72554 -5.39944 0
M  V30 3039 H 264.995 -5.44935 -5.24006 0
M  V30 3040 H 266.263 -4.73586 -6.19141 0
M  V30 3041 N 270.492 0.636531 -1.44174 0
M  V30 3042 C 271.402 1.77754 -1.53103 0
M  V30 3043 C 272.418 1.68928 -0.417034 0
M  V30 3044 O 273.594 1.89801 -0.6736 0
M  V30 3045 C 270.659 3.14115 -1.46741 0
M  V30 3046 C 269.72 3.34612 -2.68948 0
M  V30 3047 C 268.953 4.64467 -2.6288 0
M  V30 3048 O 269.176 5.44919 -1.68581 0
M  V30 3049 O 268.11 4.87049 -3.53648 0
M  V30 3050 H 271.936 1.73174 -2.49489 0
M  V30 3051 H 269.521 0.79709 -1.2636 0
M  V30 3052 H 271.403 3.95412 -1.45696 0
M  V30 3053 H 270.078 3.19249 -0.534975 0
M  V30 3054 H 268.985 2.53014 -2.75562 0
M  V30 3055 H 270.318 3.34336 -3.61221 0
M  V30 3056 N 271.97 1.30982 0.876444 0
M  V30 3057 C 272.88 1.2003 2.01569 0
M  V30 3058 C 273.896 0.11838 1.73597 0
M  V30 3059 O 275.072 0.33495 1.98595 0
M  V30 3060 C 272.137 0.901637 3.34771 0
M  V30 3061 C 271.198 2.06979 3.76109 0
M  V30 3062 C 270.431 1.78529 5.02954 0
M  V30 3063 O 270.654 0.717296 5.65872 0
M  V30 3064 O 269.588 2.64019 5.40905 0
M  V30 3065 H 273.414 2.15753 2.13739 0
M  V30 3066 H 270.999 1.10658 1.00375 0
M  V30 3067 H 272.881 0.750645 4.1466 0
M  V30 3068 H 271.556 -0.0256141 3.2369 0
M  V30 3069 H 270.463 2.27616 2.96887 0
M  V30 3070 H 271.796 2.97907 3.91807 0
M  V30 3071 N 273.449 -1.08991 1.13837 0
M  V30 3072 C 274.397 -2.17841 0.815347 0
M  V30 3073 C 275.391 -1.68164 -0.204233 0
M  V30 3074 O 276.597 -1.79897 -0.0609304 0
M  V30 3075 H 272.972 -0.710654 0.245915 0
M  V30 3076 H 274.943 -2.42315 1.74143 0
M  V30 3077 C 273.692 -3.46381 0.302614 0
M  V30 3078 H 273.015 -3.84979 1.0785 0
M  V30 3079 H 274.455 -4.23844 0.115074 0
M  V30 3080 C 272.914 -3.22556 -0.972591 0
M  V30 3081 O 273.444 -3.45599 -2.04754 0
M  V30 3082 N 271.65 -2.76134 -0.905455 0
M  V30 3083 H 271.197 -2.57582 -0.0305421 0
M  V30 3084 H 271.155 -2.60571 -1.75926 0
M  V30 3085 N 274.927 -0.932562 -1.27047 0
M  V30 3086 C 276.173 -0.585913 -1.94778 0
M  V30 3087 C 276.528 0.864142 -1.71902 0
M  V30 3088 O 275.821 1.60894 -1.04037 0
M  V30 3089 C 276.015 -0.853713 -3.47054 0
M  V30 3090 C 275.844 -2.32825 -3.84737 0
M  V30 3091 C 274.614 -2.98184 -4.07939 0
M  V30 3092 C 276.812 -3.30612 -3.93954 0
M  V30 3093 N 274.794 -4.3574 -4.3244 0
M  V30 3094 C 276.165 -4.53395 -4.22887 0
M  V30 3095 C 278.22 -3.25755 -3.76548 0
M  V30 3096 C 276.923 -5.71927 -4.36224 0
M  V30 3097 C 278.949 -4.43604 -3.91113 0
M  V30 3098 C 278.311 -5.65166 -4.20437 0
M  V30 3099 H 274.41 -0.264617 -0.735868 0
M  V30 3100 H 276.994 -1.20019 -1.53309 0
M  V30 3101 H 275.165 -0.268557 -3.8747 0
M  V30 3102 H 276.897 -0.469202 -4.01971 0
M  V30 3103 H 273.652 -2.48835 -4.02961 0
M  V30 3104 H 274.076 -5.06915 -4.48738 0
M  V30 3105 H 278.718 -2.32835 -3.52913 0
M  V30 3106 H 276.436 -6.65308 -4.58683 0
M  V30 3107 H 280.022 -4.41368 -3.79059 0
M  V30 3108 H 278.902 -6.54836 -4.31462 0
M  V30 3109 N 276.405 1.4127 -0.698611 0
M  V30 3110 C 277.682 1.94955 -0.158762 0
M  V30 3111 C 278.062 1.63781 1.33188 0
M  V30 3112 O 277.41 0.946423 2.07979 0
M  V30 3113 C 277.62 3.46044 -0.453309 0
M  V30 3114 C 278.968 4.22872 -0.382707 0
M  V30 3115 O 279.992 3.54076 -0.388396 0
M  V30 3116 O 278.851 5.45407 -0.345463 0
M  V30 3117 H 275.945 0.82683 -0.0167505 0
M  V30 3118 H 278.491 1.50971 -0.77498 0
M  V30 3119 H 277.263 3.62028 -1.48498 0
M  V30 3120 H 276.886 3.97128 0.19373 0
M  V30 3121 N 277.883 0.443576 1.51229 0
M  V30 3122 C 279.123 -0.119889 2.04048 0
M  V30 3123 C 279.487 -1.39418 1.32009 0
M  V30 3124 O 280.688 -2.03829 1.75235 0
M  V30 3125 C 278.959 -0.327233 3.55899 0
M  V30 3126 S 280.518 -0.853208 4.30425 0
M  V30 3127 H 277.336 -0.028921 0.710412 0
M  V30 3128 H 279.938 0.604413 1.85922 0
M  V30 3129 H 278.642 0.606445 4.05895 0
M  V30 3130 H 278.173 -1.07844 3.7833 0
M  V30 3131 H 280.188 -2.13005 4.48155 0
M  V30 3132 N 279.361 -1.56624 0.175154 0
M  V30 3133 C 280.608 -1.96999 -0.468811 0
M  V30 3134 C 280.936 -1.06129 -1.62994 0
M  V30 3135 O 280.191 -0.0961771 -1.95464 0
M  V30 3136 C 280.49 -3.43419 -0.989864 0
M  V30 3137 C 280.156 -4.50866 0.0557687 0
M  V30 3138 C 278.818 -4.79975 0.343134 0
M  V30 3139 C 281.17 -5.15551 0.765308 0
M  V30 3140 C 278.498 -5.71066 1.34536 0
M  V30 3141 C 280.85 -6.07724 1.75654 0
M  V30 3142 C 279.514 -6.35199 2.05132 0
M  V30 3143 H 278.784 -0.720869 -0.17155 0
M  V30 3144 H 281.431 -1.89616 0.267924 0
M  V30 3145 H 279.736 -3.47772 -1.80449 0
M  V30 3146 H 281.433 -3.72002 -1.49719 0
M  V30 3147 H 278.023 -4.28229 -0.178381 0
M  V30 3148 H 282.207 -4.9317 0.556513 0
M  V30 3149 H 277.463 -5.90635 1.57988 0
M  V30 3150 H 281.637 -6.56912 2.31169 0
M  V30 3151 H 279.264 -7.05584 2.8294 0
M  V30 3152 N 280.839 0.0985539 -1.57292 0
M  V30 3153 C 282.088 0.801358 -1.85098 0
M  V30 3154 C 282.401 1.80066 -0.763902 0
M  V30 3155 O 283.607 2.55112 -0.928981 0
M  V30 3156 C 282.063 1.47599 -3.28242 0
M  V30 3157 C 281.671 0.516624 -4.45011 0
M  V30 3158 C 283.415 2.16272 -3.65276 0
M  V30 3159 C 281.322 1.19564 -5.79188 0
M  V30 3160 H 280.252 0.303022 -0.69043 0
M  V30 3161 H 282.903 0.0542623 -1.8342 0
M  V30 3162 H 281.285 2.27042 -3.2445 0
M  V30 3163 H 282.459 -0.246065 -4.60143 0
M  V30 3164 H 280.774 -0.064227 -4.1635 0
M  V30 3165 H 283.371 2.67802 -4.62803 0
M  V30 3166 H 283.714 2.95009 -2.93727 0
M  V30 3167 H 284.247 1.43693 -3.70941 0
M  V30 3168 H 280.986 0.449157 -6.53959 0
M  V30 3169 H 280.506 1.92984 -5.67906 0
M  V30 3170 H 282.185 1.7231 -6.23633 0
M  V30 3171 N 282.317 1.53212 0.369288 0
M  V30 3172 C 283.564 1.69215 1.11232 0
M  V30 3173 C 283.892 0.442048 1.8941 0
M  V30 3174 O 283.147 -0.575944 1.87033 0
M  V30 3175 C 283.446 2.89101 2.10132 0
M  V30 3176 C 283.112 4.25758 1.48463 0
M  V30 3177 C 281.774 4.6292 1.31372 0
M  V30 3178 C 284.126 5.10757 1.03811 0
M  V30 3179 C 281.454 5.82722 0.68207 0
M  V30 3180 C 283.806 6.31201 0.420487 0
M  V30 3181 C 282.47 6.67079 0.237038 0
M  V30 3182 H 281.74 0.619201 0.407027 0
M  V30 3183 H 284.387 1.87391 0.394552 0
M  V30 3184 H 282.692 2.65421 2.88199 0
M  V30 3185 H 284.389 2.98676 2.6757 0
M  V30 3186 H 280.979 3.96494 1.62758 0
M  V30 3187 H 285.163 4.82599 1.1581 0
M  V30 3188 H 280.419 6.09113 0.528316 0
M  V30 3189 H 284.593 6.96368 0.0662874 0
M  V30 3190 H 282.22 7.59774 -0.254477 0
M  V30 3191 N 283.795 -0.628877 1.44509 0
M  V30 3192 C 284.745 -1.7345 1.47983 0
M  V30 3193 C 285.729 -1.5715 0.345373 0
M  V30 3194 O 286.921 -1.66848 0.590829 0
M  V30 3195 C 284.05 -3.12143 1.42904 0
M  V30 3196 C 283.136 -3.33906 2.61472 0
M  V30 3197 N 283.527 -3.26024 3.86706 0
M  V30 3198 C 281.825 -3.64709 2.56716 0
M  V30 3199 C 282.526 -3.48536 4.65722 0
M  V30 3200 N 281.502 -3.71517 3.96832 0
M  V30 3201 H 285.304 -1.65818 2.42655 0
M  V30 3202 H 282.818 -0.831419 1.39503 0
M  V30 3203 H 284.815 -3.91433 1.43476 0
M  V30 3204 H 283.475 -3.2094 0.492717 0
M  V30 3205 H 284.486 -3.04893 4.18641 0
M  V30 3206 H 281.163 -3.80473 1.71891 0
M  V30 3207 H 282.553 -3.48016 5.74747 0
M  V30 3208 N 285.273 -1.31445 -0.869486 0
M  V30 3209 C 286.55 -1.11795 -1.60503 0
M  V30 3210 C 286.93 0.327168 -2.08549 0
M  V30 3211 O 286.278 1.32135 -1.8642 0
M  V30 3212 C 286.488 -2.13258 -2.76265 0
M  V30 3213 C 287.836 -2.45805 -3.46215 0
M  V30 3214 O 288.86 -2.11688 -2.86473 0
M  V30 3215 O 287.719 -3.04228 -4.5399 0
M  V30 3216 H 284.813 -0.430421 -0.706163 0
M  V30 3217 H 287.359 -1.42925 -0.914907 0
M  V30 3218 H 286.131 -3.10461 -2.3818 0
M  V30 3219 H 285.754 -1.83035 -3.52964 0
M  V30 3220 N 286.751 1.08385 -1.14413 0
M  V30 3221 C 287.997 1.81044 -0.913834 0
M  V30 3222 C 288.33 1.86004 0.558209 0
M  V30 3223 O 287.605 1.33606 1.4135 0
M  V30 3224 C 287.888 3.26648 -1.51569 0
M  V30 3225 C 287.741 3.29895 -3.0576 0
M  V30 3226 C 289.06 4.23629 -1.19273 0
M  V30 3227 H 286.179 0.65727 -0.333414 0
M  V30 3228 H 288.821 1.26896 -1.41412 0
M  V30 3229 H 286.971 3.72889 -1.09023 0
M  V30 3230 H 288.643 2.91977 -3.57137 0
M  V30 3231 H 286.886 2.69163 -3.40197 0
M  V30 3232 H 287.557 4.32516 -3.42977 0
M  V30 3233 H 290.033 3.85727 -1.56057 0
M  V30 3234 H 288.909 5.23822 -1.64017 0
M  V30 3235 H 289.17 4.41968 -0.108068 0
M  V30 3236 N 288.23 0.939286 1.26551 0
M  V30 3237 C 289.507 0.5038 1.89001 0
M  V30 3238 C 289.887 -1.01854 1.84903 0
M  V30 3239 O 289.235 -1.87773 1.30206 0
M  V30 3240 C 289.445 1.063 3.32417 0
M  V30 3241 C 290.793 1.13051 4.09273 0
M  V30 3242 O 291.817 1.01345 3.41479 0
M  V30 3243 O 290.676 1.31233 5.30509 0
M  V30 3244 H 287.77 0.163897 0.810597 0
M  V30 3245 H 290.316 1.03173 1.34735 0
M  V30 3246 H 289.088 2.10665 3.29752 0
M  V30 3247 H 288.711 0.517408 3.94219 0
M  V30 3248 N 289.708 -1.40897 0.706093 0
M  V30 3249 C 290.638 -2.33418 0.0620085 0
M  V30 3250 C 291.619 -1.52385 -0.755827 0
M  V30 3251 O 292.804 -1.80886 -0.706674 0
M  V30 3252 C 289.934 -3.36293 -0.867445 0
M  V30 3253 C 288.888 -4.27716 -0.155932 0
M  V30 3254 C 288.214 -5.2105 -1.20046 0
M  V30 3255 C 289.514 -5.12944 0.984149 0
M  V30 3256 H 291.208 -2.87527 0.83477 0
M  V30 3257 H 288.754 -1.38249 0.402875 0
M  V30 3258 H 290.707 -3.99949 -1.32735 0
M  V30 3259 H 289.431 -2.80556 -1.67199 0
M  V30 3260 H 288.09 -3.65498 0.284047 0
M  V30 3261 H 287.738 -4.61624 -1.99781 0
M  V30 3262 H 287.438 -5.83056 -0.729328 0
M  V30 3263 H 288.962 -5.87584 -1.66066 0
M  V30 3264 H 290.376 -5.70109 0.604048 0
M  V30 3265 H 288.773 -5.83945 1.38304 0
M  V30 3266 H 289.843 -4.49485 1.81911 0
M  V30 3267 N 291.186 -0.45159 -1.50991 0
M  V30 3268 C 292.432 0.110237 -2.025 0
M  V30 3269 C 292.765 1.41109 -1.33424 0
M  V30 3270 O 292.04 1.89135 -0.453659 0
M  V30 3271 C 292.323 0.314271 -3.58726 0
M  V30 3272 C 292.176 -1.00623 -4.38401 0
M  V30 3273 C 293.495 1.07767 -4.26702 0
M  V30 3274 H 290.614 0.0385897 -0.735989 0
M  V30 3275 H 293.256 -0.593374 -1.80497 0
M  V30 3276 H 291.406 0.913601 -3.77605 0
M  V30 3277 H 293.078 -1.64064 -4.31139 0
M  V30 3278 H 291.321 -1.6075 -4.02917 0
M  V30 3279 H 291.992 -0.817341 -5.45915 0
M  V30 3280 H 294.468 0.56986 -4.12179 0
M  V30 3281 H 293.344 1.18921 -5.35863 0
M  V30 3282 H 293.605 2.10939 -3.88532 0
M  V30 3283 N 292.664 1.56529 -0.183458 0
M  V30 3284 C 294.075 1.83739 0.331177 0
M  V30 3285 C 294.426 1.10373 1.62211 0
M  V30 3286 O 293.551 0.36071 2.13373 0
M  V30 3287 C 294.146 3.33306 0.607646 0
M  V30 3288 C 292.705 3.60969 1.06668 0
M  V30 3289 C 291.852 2.77086 0.109029 0
M  V30 3290 H 294.803 1.53379 -0.407484 0
M  V30 3291 H 294.824 3.51444 1.45832 0
M  V30 3292 H 294.336 3.86677 -0.332086 0
M  V30 3293 H 292.437 3.13021 2.0211 0
M  V30 3294 H 292.55 4.69231 0.967447 0
M  V30 3295 H 290.914 2.47319 0.608714 0
M  V30 3296 H 291.697 3.33241 -0.82494 0
M  V30 3297 N 294.142 -0.090211 1.57342 0
M  V30 3298 C 295.052 -1.12735 2.05738 0
M  V30 3299 C 296.068 -1.43557 0.983231 0
M  V30 3300 O 297.244 -1.54101 1.29672 0
M  V30 3301 C 294.309 -2.42659 2.47624 0
M  V30 3302 C 293.37 -2.18975 3.69254 0
M  V30 3303 C 292.603 -3.42704 4.09133 0
M  V30 3304 O 292.826 -4.51127 3.49057 0
M  V30 3305 O 291.76 -3.32003 5.02053 0
M  V30 3306 H 295.586 -0.746279 2.94388 0
M  V30 3307 H 293.171 -0.303064 1.46294 0
M  V30 3308 H 295.053 -3.19155 2.7517 0
M  V30 3309 H 293.728 -2.80182 1.62109 0
M  V30 3310 H 292.635 -1.40244 3.46818 0
M  V30 3311 H 293.968 -1.86342 4.55563 0
M  V30 3312 N 295.62 -1.53406 -0.361157 0
M  V30 3313 C 296.568 -1.80832 -1.46296 0
M  V30 3314 C 297.562 -0.677699 -1.55253 0
M  V30 3315 O 298.768 -0.860723 -1.58087 0
M  V30 3316 H 295.143 -0.572627 -0.487445 0
M  V30 3317 H 297.114 -2.73045 -1.20371 0
M  V30 3318 C 295.863 -2.01907 -2.8307 0
M  V30 3319 H 295.186 -2.88349 -2.76938 0
M  V30 3320 H 296.626 -2.25072 -3.59331 0
M  V30 3321 C 295.085 -0.799449 -3.27277 0
M  V30 3322 O 295.615 0.00971761 -4.01699 0
M  V30 3323 N 293.821 -0.621637 -2.83873 0
M  V30 3324 H 293.368 -1.28126 -2.23476 0
M  V30 3325 H 293.326 0.19298 -3.13807 0
M  V30 3326 N 297.098 0.621204 -1.44841 0
M  V30 3327 C 298.375 1.38 -1.38619 0
M  V30 3328 C 298.755 2.11041 -0.0498935 0
M  V30 3329 O 298.103 2.06992 0.967816 0
M  V30 3330 C 298.313 2.33817 -2.59096 0
M  V30 3331 C 299.661 2.96844 -3.03593 0
M  V30 3332 O 300.685 2.44141 -2.59371 0
M  V30 3333 O 299.544 3.92476 -3.80296 0
M  V30 3334 H 296.638 0.61811 -0.549426 0
M  V30 3335 H 299.184 0.645429 -1.56947 0
M  V30 3336 H 297.956 1.79012 -3.47952 0
M  V30 3337 H 297.579 3.14676 -2.43032 0
M  V30 3338 N 298.576 1.31904 0.862503 0
M  V30 3339 C 299.823 1.22017 1.61611 0
M  V30 3340 C 300.151 -0.21991 1.93253 0
M  V30 3341 O 299.406 -1.17076 1.56817 0
M  V30 3342 C 299.705 2.01713 2.95037 0
M  V30 3343 C 299.371 3.51145 2.82857 0
M  V30 3344 C 298.033 3.91889 2.79243 0
M  V30 3345 C 300.385 4.46204 2.69353 0
M  V30 3346 C 297.713 5.25947 2.59993 0
M  V30 3347 C 300.065 5.80397 2.5164 0
M  V30 3348 C 298.729 6.20352 2.46413 0
M  V30 3349 H 297.999 0.44649 0.591378 0
M  V30 3350 H 300.646 1.63248 1.00111 0
M  V30 3351 H 298.951 1.53185 3.60613 0
M  V30 3352 H 300.648 1.91437 3.52353 0
M  V30 3353 H 297.238 3.1878 2.86491 0
M  V30 3354 H 301.422 4.15652 2.71196 0
M  V30 3355 H 296.678 5.5597 2.54376 0
M  V30 3356 H 300.852 6.53676 2.40169 0
M  V30 3357 H 298.479 7.24172 2.31256 0
M  V30 3358 N 300.054 -1.07777 1.14986 0
M  V30 3359 C 301.002 -2.16964 0.838406 0
M  V30 3360 C 301.996 -1.68372 -0.186386 0
M  V30 3361 O 303.202 -1.79951 -0.0418465 0
M  V30 3362 H 299.577 -0.708006 0.253439 0
M  V30 3363 H 301.548 -2.40454 1.76704 0
M  V30 3364 C 300.297 -3.4604 0.339335 0
M  V30 3365 H 299.62 -3.83813 1.11927 0
M  V30 3366 H 301.06 -4.23698 0.160021 0
M  V30 3367 C 299.519 -3.23569 -0.938325 0
M  V30 3368 O 300.049 -3.47752 -2.01077 0
M  V30 3369 N 298.255 -2.77079 -0.876117 0
M  V30 3370 H 297.802 -2.576 -0.00322037 0
M  V30 3371 H 297.76 -2.62422 -1.73153 0
M  V30 3372 N 301.532 -0.945985 -1.26051 0
M  V30 3373 C 302.462 -0.477172 -2.28572 0
M  V30 3374 C 303.443 0.472032 -1.63419 0
M  V30 3375 O 304.628 0.372853 -1.90587 0
M  V30 3376 C 301.758 0.253975 -3.4637 0
M  V30 3377 C 300.712 -0.609135 -4.23643 0
M  V30 3378 C 300.038 0.252252 -5.34105 0
M  V30 3379 C 301.338 -1.8829 -4.8718 0
M  V30 3380 H 303.032 -1.33402 -2.68038 0
M  V30 3381 H 300.578 -0.642904 -1.28852 0
M  V30 3382 H 302.531 0.593016 -4.17207 0
M  V30 3383 H 301.255 1.145 -3.05871 0
M  V30 3384 H 299.914 -0.931138 -3.54578 0
M  V30 3385 H 299.562 1.14278 -4.89846 0
M  V30 3386 H 299.262 -0.32188 -5.86718 0
M  V30 3387 H 300.786 0.586454 -6.07777 0
M  V30 3388 H 302.2 -1.61081 -5.50205 0
M  V30 3389 H 300.597 -2.40199 -5.49931 0
M  V30 3390 H 301.667 -2.59134 -4.09851 0
M  V30 3391 N 303.011 1.40521 -0.713556 0
M  V30 3392 C 304.241 2.0494 -0.261395 0
M  V30 3393 C 304.649 1.53861 1.10107 0
M  V30 3394 O 303.992 0.689321 1.70276 0
M  V30 3395 C 304.054 3.59138 -0.161227 0
M  V30 3396 C 303.718 4.33096 -1.45865 0
M  V30 3397 C 304.715 4.61182 -2.40016 0
M  V30 3398 C 302.4 4.72043 -1.71701 0
M  V30 3399 C 304.394 5.27196 -3.58251 0
M  V30 3400 C 302.081 5.37789 -2.90218 0
M  V30 3401 C 303.079 5.65295 -3.83315 0
M  V30 3402 O 302.767 6.29683 -4.99754 0
M  V30 3403 H 302.499 0.666041 -0.115608 0
M  V30 3404 H 305.053 1.80954 -0.971849 0
M  V30 3405 H 303.283 3.81936 0.605153 0
M  V30 3406 H 304.972 4.05091 0.256105 0
M  V30 3407 H 305.738 4.31559 -2.21318 0
M  V30 3408 H 301.617 4.50003 -1.00092 0
M  V30 3409 H 305.161 5.48582 -4.30934 0
M  V30 3410 H 301.058 5.66831 -3.08825 0
M  V30 3411 H 301.826 6.4818 -4.99805 0
M  V30 3412 N 304.489 0.459591 1.5075 0
M  V30 3413 C 305.436 -0.340524 2.28274 0
M  V30 3414 C 306.406 -0.997371 1.32822 0
M  V30 3415 O 307.591 -1.01202 1.61749 0
M  V30 3416 C 304.731 -1.42317 3.14388 0
M  V30 3417 C 303.844 -0.782251 4.24859 0
M  V30 3418 C 302.979 -1.84182 4.98247 0
M  V30 3419 C 302.018 -1.18053 6.00608 0
M  V30 3420 N 301.155 -2.18244 6.67319 0
M  V30 3421 H 305.995 0.326899 2.96202 0
M  V30 3422 H 303.532 0.173057 1.46078 0
M  V30 3423 H 305.49 -2.06241 3.62658 0
M  V30 3424 H 304.12 -2.05992 2.4853 0
M  V30 3425 H 303.172 -0.0307404 3.80388 0
M  V30 3426 H 304.484 -0.259663 4.98124 0
M  V30 3427 H 303.638 -2.55714 5.50177 0
M  V30 3428 H 302.377 -2.39819 4.24662 0
M  V30 3429 H 301.382 -0.450776 5.47949 0
M  V30 3430 H 302.607 -0.631202 6.7616 0
M  V30 3431 H 300.553 -2.72919 5.96533 0
M  V30 3432 H 300.47 -1.70938 7.36421 0
M  V30 3433 H 301.738 -2.89191 7.23871 0
M  V30 3434 N 305.967 -1.56429 0.191757 0
M  V30 3435 C 307.207 -1.99383 -0.450099 0
M  V30 3436 C 307.571 -1.07581 -1.59029 0
M  V30 3437 O 308.772 -1.39758 -2.29611 0
M  V30 3438 C 307.043 -3.45841 -0.901611 0
M  V30 3439 S 308.602 -4.10822 -1.54177 0
M  V30 3440 H 305.42 -0.696253 -0.144057 0
M  V30 3441 H 308.022 -1.93276 0.294036 0
M  V30 3442 H 306.726 -4.10354 -0.0616596 0
M  V30 3443 H 306.257 -3.55757 -1.67929 0
M  V30 3444 H 308.272 -4.07553 -2.83046 0
M  V30 3445 N 307.445 0.0818655 -1.57387 0
M  V30 3446 C 308.355 1.11642 -2.06333 0
M  V30 3447 C 309.371 1.43033 -0.99083 0
M  V30 3448 O 310.547 1.53411 -1.30488 0
M  V30 3449 C 307.612 2.41342 -2.48907 0
M  V30 3450 C 306.673 2.17014 -3.7041 0
M  V30 3451 C 305.906 3.4053 -4.10944 0
M  V30 3452 O 306.129 4.4927 -3.51444 0
M  V30 3453 O 305.063 3.29336 -5.03807 0
M  V30 3454 H 308.889 0.730657 -2.9478 0
M  V30 3455 H 306.474 0.295301 -1.46452 0
M  V30 3456 H 308.356 3.17691 -2.76858 0
M  V30 3457 H 307.031 2.79319 -1.63593 0
M  V30 3458 H 305.938 1.38403 -3.47556 0
M  V30 3459 H 307.271 1.83923 -4.56545 0
M  V30 3460 N 308.923 1.53595 0.353017 0
M  V30 3461 C 309.833 1.83897 1.45667 0
M  V30 3462 C 310.849 0.728334 1.58023 0
M  V30 3463 O 312.025 1.01968 1.73679 0
M  V30 3464 C 309.09 2.03383 2.80778 0
M  V30 3465 C 308.151 3.27262 2.77845 0
M  V30 3466 C 307.384 3.45809 4.06512 0
M  V30 3467 O 307.607 2.68387 5.03314 0
M  V30 3468 O 306.541 4.39207 4.11559 0
M  V30 3469 H 310.367 2.77686 1.2298 0
M  V30 3470 H 307.952 1.39132 0.544308 0
M  V30 3471 H 309.834 2.17698 3.60812 0
M  V30 3472 H 308.509 1.12783 3.03417 0
M  V30 3473 H 307.416 3.18359 1.96465 0
M  V30 3474 H 308.749 4.17824 2.60161 0
M  V30 3475 N 310.401 -0.613514 1.45168 0
M  V30 3476 C 311.351 -1.71871 1.49815 0
M  V30 3477 C 312.335 -1.56774 0.362021 0
M  V30 3478 O 313.527 -1.66212 0.608493 0
M  V30 3479 C 310.656 -3.1061 1.46207 0
M  V30 3480 C 309.742 -3.31114 2.64999 0
M  V30 3481 N 310.133 -3.21904 3.90143 0
M  V30 3482 C 308.431 -3.61966 2.6057 0
M  V30 3483 C 309.132 -3.43577 4.69393 0
M  V30 3484 N 308.108 -3.67287 4.00751 0
M  V30 3485 H 311.91 -1.63235 2.444 0
M  V30 3486 H 309.424 -0.816577 1.40377 0
M  V30 3487 H 311.421 -3.8989 1.4762 0
M  V30 3488 H 310.081 -3.20399 0.52673 0
M  V30 3489 H 311.092 -3.00436 4.21852 0
M  V30 3490 H 307.769 -3.78629 1.75916 0
M  V30 3491 H 309.159 -3.41901 5.78406 0
M  V30 3492 N 311.879 -1.3236 -0.855495 0
M  V30 3493 C 313.29 -1.2056 -1.42556 0
M  V30 3494 C 313.641 0.182209 -1.95352 0
M  V30 3495 O 312.766 1.08088 -1.87472 0
M  V30 3496 C 313.361 -2.1826 -2.59129 0
M  V30 3497 C 311.92 -2.10351 -3.12137 0
M  V30 3498 C 311.067 -2.06674 -1.84882 0
M  V30 3499 H 314.018 -1.442 -0.662727 0
M  V30 3500 H 314.039 -1.78064 -3.36264 0
M  V30 3501 H 313.551 -3.19257 -2.20673 0
M  V30 3502 H 311.652 -1.12599 -3.55179 0
M  V30 3503 H 311.765 -3.00135 -3.73438 0
M  V30 3504 H 310.129 -1.51901 -2.04446 0
M  V30 3505 H 310.912 -3.09451 -1.48643 0
M  V30 3506 N 313.357 1.07166 -1.15556 0
M  V30 3507 C 314.304 2.14417 -0.854055 0
M  V30 3508 C 315.274 1.64965 0.193806 0
M  V30 3509 O 316.459 1.90703 0.0609443 0
M  V30 3510 C 313.599 3.43304 -0.351574 0
M  V30 3511 C 312.712 4.06537 -1.46123 0
M  V30 3512 C 311.847 5.23266 -0.914677 0
M  V30 3513 C 310.886 5.78464 -2.00114 0
M  V30 3514 N 310.023 6.86521 -1.47083 0
M  V30 3515 H 314.863 2.39548 -1.77259 0
M  V30 3516 H 312.4 1.17543 -0.884425 0
M  V30 3517 H 314.358 4.17179 -0.0419409 0
M  V30 3518 H 312.988 3.18419 0.530037 0
M  V30 3519 H 312.04 3.30297 -1.88701 0
M  V30 3520 H 313.352 4.43567 -2.28144 0
M  V30 3521 H 312.506 6.04131 -0.557698 0
M  V30 3522 H 311.245 4.87658 -0.0636583 0
M  V30 3523 H 310.25 4.96243 -2.36692 0
M  V30 3524 H 311.475 6.16126 -2.85597 0
M  V30 3525 H 309.421 6.52849 -0.642198 0
M  V30 3526 H 309.338 7.22446 -2.22729 0
M  V30 3527 H 310.606 7.71087 -1.14215 0
M  V30 3528 N 314.835 0.952656 1.25548 0
M  V30 3529 C 315.785 0.442033 2.23674 0
M  V30 3530 C 316.769 -0.467632 1.53955 0
M  V30 3531 O 317.961 -0.301006 1.74422 0
M  V30 3532 C 315.09 -0.280816 3.4215 0
M  V30 3533 C 314.176 0.646803 4.19139 0
M  V30 3534 N 314.567 1.77759 4.73535 0
M  V30 3535 C 312.865 0.454617 4.43677 0
M  V30 3536 C 313.566 2.35658 5.31827 0
M  V30 3537 N 312.542 1.64333 5.18166 0
M  V30 3538 H 316.344 1.30505 2.63336 0
M  V30 3539 H 313.858 0.809904 1.40763 0
M  V30 3540 H 315.855 -0.663747 4.11582 0
M  V30 3541 H 314.515 -1.14046 3.04012 0
M  V30 3542 H 315.526 2.15949 4.7073 0
M  V30 3543 H 312.203 -0.362312 4.15925 0
M  V30 3544 H 313.593 3.30998 5.84713 0
M  V30 3545 N 316.313 -1.40141 0.720998 0
M  V30 3546 C 317.243 -2.33339 0.0867621 0
M  V30 3547 C 318.224 -1.53178 -0.739622 0
M  V30 3548 O 319.409 -1.81625 -0.687449 0
M  V30 3549 C 316.539 -3.37194 -0.831728 0
M  V30 3550 C 315.493 -4.27857 -0.110558 0
M  V30 3551 C 314.819 -5.22294 -1.14513 0
M  V30 3552 C 316.119 -5.11872 1.0385 0
M  V30 3553 H 317.813 -2.86626 0.865219 0
M  V30 3554 H 315.359 -1.37814 0.417516 0
M  V30 3555 H 317.312 -4.01335 -1.28485 0
M  V30 3556 H 316.036 -2.82314 -1.64214 0
M  V30 3557 H 314.695 -3.65176 0.322797 0
M  V30 3558 H 314.343 -4.63717 -1.94874 0
M  V30 3559 H 314.043 -5.83797 -0.667446 0
M  V30 3560 H 315.567 -5.89312 -1.59824 0
M  V30 3561 H 316.981 -5.69436 0.664482 0
M  V30 3562 H 315.378 -5.82445 1.4449 0
M  V30 3563 H 316.448 -4.4753 1.86668 0
M  V30 3564 N 317.792 -0.46758 -1.50504 0
M  V30 3565 C 319.038 0.0887532 -2.02606 0
M  V30 3566 C 319.371 1.39686 -1.34913 0
M  V30 3567 O 318.646 1.88644 -0.473694 0
M  V30 3568 C 318.929 0.276206 -3.59039 0
M  V30 3569 C 318.782 -1.05267 -4.37309 0
M  V30 3570 C 320.101 1.03235 -4.27821 0
M  V30 3571 H 317.22 0.0307814 -0.736357 0
M  V30 3572 H 319.862 -0.612485 -1.79857 0
M  V30 3573 H 318.012 0.8735 -3.78553 0
M  V30 3574 H 319.684 -1.68628 -4.29374 0
M  V30 3575 H 317.927 -1.65015 -4.01189 0
M  V30 3576 H 318.598 -0.875197 -5.45018 0
M  V30 3577 H 321.074 0.526111 -4.12761 0
M  V30 3578 H 319.95 1.1323 -5.37094 0
M  V30 3579 H 320.211 2.06806 -3.90748 0
M  V30 3580 N 319.27 1.56325 -0.20005 0
M  V30 3581 C 320.516 1.98012 0.438059 0
M  V30 3582 C 320.849 1.08702 1.60927 0
M  V30 3583 O 320.124 0.140064 1.93995 0
M  V30 3584 C 320.407 3.48841 0.893419 0
M  V30 3585 C 320.26 4.48928 -0.279947 0
M  V30 3586 C 321.579 4.03498 1.75719 0
M  V30 3587 H 318.698 0.719918 0.157757 0
M  V30 3588 H 321.34 1.87743 -0.291968 0
M  V30 3589 H 319.49 3.57723 1.51547 0
M  V30 3590 H 321.162 4.52079 -0.91772 0
M  V30 3591 H 319.405 4.23694 -0.930919 0
M  V30 3592 H 320.076 5.5194 0.0812601 0
M  V30 3593 H 322.552 3.97427 1.23253 0
M  V30 3594 H 321.428 5.09393 2.04476 0
M  V30 3595 H 321.689 3.4906 2.71311 0
M  V30 3596 N 320.748 -0.0735177 1.57428 0
M  V30 3597 C 321.996 -0.771472 1.86796 0
M  V30 3598 C 322.317 -1.78201 0.791804 0
M  V30 3599 O 321.587 -1.95074 -0.179718 0
M  V30 3600 H 320.167 -0.28791 0.689287 0
M  V30 3601 H 322.829 -0.0500161 1.94836 0
M  V30 3602 H 321.925 -1.28874 2.8425 0
M  V30 3603 N 322.226 -1.5378 -0.344866 0
M  V30 3604 C 323.642 -1.44015 -0.687888 0
M  V30 3605 C 323.842 -0.595834 -1.92489 0
M  V30 3606 O 322.898 -0.0863064 -2.52352 0
M  V30 3607 C 324.211 -2.87481 -0.881758 0
M  V30 3608 C 325.759 -2.97247 -0.980459 0
M  V30 3609 C 326.234 -4.41819 -1.20665 0
M  V30 3610 N 327.725 -4.45339 -1.27389 0
M  V30 3611 C 328.46 -5.54333 -1.46639 0
M  V30 3612 N 327.956 -6.73335 -1.63071 0
M  V30 3613 N 329.749 -5.41944 -1.49176 0
M  V30 3614 H 321.9 -2.07169 0.468475 0
M  V30 3615 H 324.163 -0.93643 0.147655 0
M  V30 3616 H 323.869 -3.51672 -0.0443444 0
M  V30 3617 H 323.743 -3.32352 -1.78388 0
M  V30 3618 H 326.13 -2.33197 -1.8084 0
M  V30 3619 H 326.211 -2.5574 -0.0552713 0
M  V30 3620 H 325.855 -5.06449 -0.383652 0
M  V30 3621 H 325.785 -4.80917 -2.14539 0
M  V30 3622 H 328.276 -3.59585 -1.1622 0
M  V30 3623 H 328.589 -7.52165 -1.77391 0
M  V30 3624 H 326.934 -6.76282 -1.60209 0
M  V30 3625 H 330.125 -4.47932 -1.3592 0
M  V30 3626 H 330.298 -6.26946 -1.63837 0
M  V30 3627 N 323.704 0.605807 -1.45491 0
M  V30 3628 C 324.652 1.73754 -1.54636 0
M  V30 3629 C 325.646 1.64207 -0.416219 0
M  V30 3630 O 326.852 1.69979 -0.592199 0
M  V30 3631 H 323.227 0.574073 -0.485741 0
M  V30 3632 H 325.198 1.63169 -2.49837 0
M  V30 3633 C 323.947 3.12135 -1.53189 0
M  V30 3634 H 323.27 3.20141 -2.39478 0
M  V30 3635 H 324.71 3.91147 -1.63645 0
M  V30 3636 C 323.169 3.35921 -0.256616 0
M  V30 3637 O 323.699 3.96194 0.662798 0
M  V30 3638 N 321.905 2.90204 -0.151751 0
M  V30 3639 H 321.452 2.41336 -0.90081 0
M  V30 3640 H 321.41 3.06492 0.700699 0
M  V30 3641 N 325.182 1.32811 0.848464 0
M  V30 3642 C 326.407 1.26882 1.6406 0
M  V30 3643 C 326.832 -0.15913 1.87426 0
M  V30 3644 O 326.19 -1.11258 1.43148 0
M  V30 3645 C 326.238 2.03997 2.97351 0
M  V30 3646 O 325.342 1.39201 3.88197 0
M  V30 3647 H 324.683 0.436982 0.499943 0
M  V30 3648 H 327.213 1.75224 1.0563 0
M  V30 3649 H 327.223 2.14403 3.47124 0
M  V30 3650 H 325.898 3.0783 2.79666 0
M  V30 3651 H 324.475 1.37381 3.46671 0
M  V30 3652 N 326.66 -1.06551 1.16123 0
M  V30 3653 C 327.888 -1.83005 0.965237 0
M  V30 3654 C 328.303 -1.82423 -0.486542 0
M  V30 3655 O 327.66 -1.24152 -1.33763 0
M  V30 3656 C 327.711 -3.29733 1.48183 0
M  V30 3657 O 327.432 -3.30416 2.87674 0
M  V30 3658 C 328.933 -4.22926 1.32848 0
M  V30 3659 H 326.153 -0.577118 0.342309 0
M  V30 3660 H 328.697 -1.3445 1.54089 0
M  V30 3661 H 326.852 -3.75609 0.948517 0
M  V30 3662 H 327.266 -4.22149 3.11272 0
M  V30 3663 H 328.74 -5.23916 1.73827 0
M  V30 3664 H 329.217 -4.38346 0.273692 0
M  V30 3665 H 329.823 -3.82894 1.85127 0
M  V30 3666 N 328.138 -0.959301 -1.25041 0
M  V30 3667 C 329.386 -0.615393 -1.92503 0
M  V30 3668 C 329.707 0.850969 -1.75452 0
M  V30 3669 O 328.977 1.60658 -1.12098 0
M  V30 3670 H 327.557 -0.224613 -0.712431 0
M  V30 3671 H 330.219 -1.21855 -1.5211 0
M  V30 3672 H 329.315 -0.848738 -3.00338 0
M  V30 3673 N 329.616 1.39756 -0.72842 0
M  V30 3674 C 330.846 2.04651 -0.283117 0
M  V30 3675 C 331.254 1.5502 1.08469 0
M  V30 3676 O 330.597 0.707343 1.69536 0
M  V30 3677 C 330.659 3.58947 -0.199309 0
M  V30 3678 C 330.323 4.31525 -1.5045 0
M  V30 3679 C 331.32 4.5861 -2.44894 0
M  V30 3680 C 329.005 4.70195 -1.76698 0
M  V30 3681 C 330.999 5.23366 -3.63822 0
M  V30 3682 C 328.686 5.3468 -2.95906 0
M  V30 3683 C 329.684 5.61198 -3.89289 0
M  V30 3684 O 329.372 6.24347 -5.06404 0
M  V30 3685 H 329.104 0.664777 -0.122666 0
M  V30 3686 H 331.658 1.79913 -0.990987 0
M  V30 3687 H 329.888 3.82556 0.56461 0
M  V30 3688 H 331.577 4.0534 0.213125 0
M  V30 3689 H 332.343 4.29187 -2.25883 0
M  V30 3690 H 328.222 4.48916 -1.04859 0
M  V30 3691 H 331.766 5.4398 -4.36728 0
M  V30 3692 H 327.663 5.63524 -3.14819 0
M  V30 3693 H 328.431 6.42842 -5.06652 0
M  V30 3694 N 331.094 0.475555 1.50254 0
M  V30 3695 C 332.51 0.12997 1.5907 0
M  V30 3696 C 332.71 -1.36385 1.48328 0
M  V30 3697 O 331.766 -2.13754 1.34407 0
M  V30 3698 C 333.079 0.684139 2.92814 0
M  V30 3699 C 334.627 0.647965 3.0622 0
M  V30 3700 C 335.102 1.17975 4.42545 0
M  V30 3701 N 336.593 1.13936 4.48969 0
M  V30 3702 C 337.328 1.52129 5.52851 0
M  V30 3703 N 336.824 1.97793 6.63965 0
M  V30 3704 N 338.617 1.43704 5.4342 0
M  V30 3705 H 330.768 1.44706 1.55479 0
M  V30 3706 H 333.031 0.598691 0.735033 0
M  V30 3707 H 332.737 1.73079 3.06164 0
M  V30 3708 H 332.611 0.130204 3.76975 0
M  V30 3709 H 334.998 -0.38979 2.92514 0
M  V30 3710 H 335.079 1.23876 2.23805 0
M  V30 3711 H 334.723 2.21616 4.57 0
M  V30 3712 H 334.653 0.565138 5.23559 0
M  V30 3713 H 337.144 0.804488 3.69238 0
M  V30 3714 H 337.457 2.25072 7.39299 0
M  V30 3715 H 335.802 2.01749 6.65073 0
M  V30 3716 H 338.993 1.07867 4.55502 0
M  V30 3717 H 339.166 1.73794 6.24259 0
M  V30 3718 N 332.573 -1.56217 0.208337 0
M  V30 3719 C 333.503 -2.22694 -0.702116 0
M  V30 3720 C 334.484 -1.19432 -1.2112 0
M  V30 3721 O 335.669 -1.47978 -1.25762 0
M  V30 3722 C 332.799 -2.8966 -1.9161 0
M  V30 3723 C 331.753 -3.9928 -1.5414 0
M  V30 3724 C 331.079 -4.53476 -2.83308 0
M  V30 3725 C 332.379 -5.17012 -0.741339 0
M  V30 3726 H 334.073 -2.99034 -0.147898 0
M  V30 3727 H 331.619 -1.43831 -0.0696951 0
M  V30 3728 H 333.572 -3.34852 -2.55836 0
M  V30 3729 H 332.296 -2.10746 -2.49507 0
M  V30 3730 H 330.955 -3.54799 -0.922668 0
M  V30 3731 H 330.603 -3.71308 -3.39322 0
M  V30 3732 H 330.303 -5.27451 -2.58976 0
M  V30 3733 H 331.827 -5.01378 -3.485 0
M  V30 3734 H 333.241 -5.58667 -1.28699 0
M  V30 3735 H 331.638 -5.97137 -0.595627 0
M  V30 3736 H 332.708 -4.8423 0.254851 0
M  V30 3737 N 334.051 0.0651679 -1.57465 0
M  V30 3738 C 335.467 0.420105 -1.53972 0
M  V30 3739 C 335.667 1.78782 -0.929474 0
M  V30 3740 O 334.723 2.46771 -0.534839 0
M  V30 3741 C 336.036 0.355084 -2.98596 0
M  V30 3742 C 337.584 0.434792 -3.09965 0
M  V30 3743 C 338.059 0.399609 -4.56253 0
M  V30 3744 N 339.55 0.459488 -4.60915 0
M  V30 3745 C 340.285 0.454584 -5.71595 0
M  V30 3746 N 339.781 0.404102 -6.9162 0
M  V30 3747 N 341.574 0.501635 -5.59857 0
M  V30 3748 H 333.725 -0.830328 -1.95498 0
M  V30 3749 H 335.988 -0.312244 -0.895102 0
M  V30 3750 H 335.694 -0.583357 -3.46828 0
M  V30 3751 H 335.568 1.16275 -3.58831 0
M  V30 3752 H 337.955 1.36366 -2.61703 0
M  V30 3753 H 338.036 -0.40157 -2.52628 0
M  V30 3754 H 337.68 -0.525436 -5.05175 0
M  V30 3755 H 337.61 1.25359 -5.11461 0
M  V30 3756 H 340.101 0.502482 -3.74544 0
M  V30 3757 H 340.414 0.404468 -7.71741 0
M  V30 3758 H 338.759 0.37069 -6.94011 0
M  V30 3759 H 341.95 0.538812 -4.64989 0
M  V30 3760 H 342.123 0.494345 -6.46112 0
M  V30 3761 N 335.529 1.53961 0.336706 0
M  V30 3762 C 336.759 1.75229 1.09446 0
M  V30 3763 C 337.167 0.494602 1.82621 0
M  V30 3764 O 336.51 -0.543764 1.75468 0
M  V30 3765 C 336.572 2.88288 2.1478 0
M  V30 3766 C 336.236 4.27656 1.6112 0
M  V30 3767 C 337.233 5.08981 1.0599 0
M  V30 3768 C 334.918 4.74161 1.6576 0
M  V30 3769 C 336.912 6.34916 0.562129 0
M  V30 3770 C 334.599 6.00067 1.15595 0
M  V30 3771 C 335.597 6.80278 0.609147 0
M  V30 3772 O 335.285 8.03818 0.114999 0
M  V30 3773 H 335.017 0.588881 0.331956 0
M  V30 3774 H 337.571 2.01614 0.392566 0
M  V30 3775 H 335.801 2.57443 2.88548 0
M  V30 3776 H 337.49 2.97461 2.76174 0
M  V30 3777 H 338.256 4.74213 1.01722 0
M  V30 3778 H 334.135 4.11781 2.07261 0
M  V30 3779 H 337.679 6.9747 0.134668 0
M  V30 3780 H 333.576 6.3433 1.19566 0
M  V30 3781 H 334.344 8.18172 0.231651 0
M  V30 3782 N 337.007 -0.598083 1.45811 0
M  V30 3783 C 338.232 -1.3881 1.54099 0
M  V30 3784 C 338.657 -1.8726 0.177578 0
M  V30 3785 O 338.015 -1.6069 -0.839541 0
M  V30 3786 C 338.063 -2.56217 2.53743 0
M  V30 3787 O 337.167 -3.5716 2.06182 0
M  V30 3788 H 336.508 -0.414024 0.519115 0
M  V30 3789 H 339.038 -0.726971 1.91249 0
M  V30 3790 H 339.048 -3.03337 2.72856 0
M  V30 3791 H 337.723 -2.20303 3.5276 0
M  V30 3792 H 336.3 -3.16624 1.96987 0
M  V30 3793 N 338.485 -1.33259 -0.841409 0
M  V30 3794 C 339.733 -1.24326 -1.59334 0
M  V30 3795 C 340.054 0.191564 -1.94057 0
M  V30 3796 O 339.324 1.11967 -1.60749 0
M  V30 3797 H 337.904 -0.457174 -0.590763 0
M  V30 3798 H 340.566 -1.66947 -1.00571 0
M  V30 3799 H 339.662 -1.8352 -2.52442 0
M  V30 3800 N 339.963 1.05934 -1.16686 0
M  V30 3801 C 341.193 1.82226 -0.973515 0
M  V30 3802 C 341.601 1.8297 0.481532 0
M  V30 3803 O 340.944 1.25009 1.34604 0
M  V30 3804 C 341.006 3.29897 -1.42858 0
M  V30 3805 C 340.67 3.52849 -2.90425 0
M  V30 3806 C 341.667 3.45595 -3.88407 0
M  V30 3807 C 339.352 3.80053 -3.28428 0
M  V30 3808 C 341.346 3.65217 -5.22394 0
M  V30 3809 C 339.033 3.99325 -4.62583 0
M  V30 3810 C 340.031 3.91905 -5.59374 0
M  V30 3811 O 339.719 4.10647 -6.91104 0
M  V30 3812 H 339.451 0.581314 -0.345036 0
M  V30 3813 H 342.005 1.3453 -1.55212 0
M  V30 3814 H 340.235 3.78472 -0.793477 0
M  V30 3815 H 341.924 3.87692 -1.20207 0
M  V30 3816 H 342.69 3.24564 -3.60393 0
M  V30 3817 H 338.569 3.84936 -2.53664 0
M  V30 3818 H 342.113 3.59341 -5.9793 0
M  V30 3819 H 338.01 4.19846 -4.90306 0
M  V30 3820 H 338.778 4.27915 -6.97733 0
M  V30 3821 N 341.441 0.965919 1.2453 0
M  V30 3822 C 342.688 0.626831 1.92554 0
M  V30 3823 C 343.016 -0.837739 1.75534 0
M  V30 3824 O 342.271 -1.61793 1.10098 0
M  V30 3825 C 342.57 0.945428 3.44669 0
M  V30 3826 C 342.236 2.39785 3.81856 0
M  V30 3827 C 340.898 2.79483 3.91718 0
M  V30 3828 C 343.25 3.34055 4.00071 0
M  V30 3829 C 340.578 4.12496 4.1721 0
M  V30 3830 C 342.93 4.66694 4.27059 0
M  V30 3831 C 341.594 5.06172 4.3514 0
M  V30 3832 H 340.864 0.229374 0.704605 0
M  V30 3833 H 343.511 1.21707 1.4785 0
M  V30 3834 H 341.816 0.272926 3.90848 0
M  V30 3835 H 343.513 0.661484 3.95507 0
M  V30 3836 H 340.103 2.08003 3.74743 0
M  V30 3837 H 344.287 3.04571 3.91855 0
M  V30 3838 H 339.543 4.42709 4.21685 0
M  V30 3839 H 343.717 5.3971 4.40097 0
M  V30 3840 H 341.344 6.09262 4.54646 0
M  V30 3841 N 342.919 -1.39368 0.735821 0
M  V30 3842 C 344.167 -2.00101 0.283562 0
M  V30 3843 C 344.488 -1.5868 -1.13338 0
M  V30 3844 O 343.758 -0.835423 -1.77193 0
M  V30 3845 H 342.338 -0.740024 0.101851 0
M  V30 3846 H 345 -1.70404 0.945962 0
M  V30 3847 H 344.096 -3.10323 0.332604 0
M  V30 3848 N 344.397 -0.483516 -1.5 0
M  V30 3849 C 345.645 0.067027 -2.01989 0
M  V30 3850 C 345.966 1.3909 -1.36671 0
M  V30 3851 O 345.236 1.88978 -0.516152 0
M  V30 3852 H 343.816 0.0277606 -0.746484 0
M  V30 3853 H 346.478 -0.636773 -1.84204 0
M  V30 3854 H 345.574 0.209484 -3.11396 0
M  V30 3855 N 345.875 1.56104 -0.216619 0
M  V30 3856 C 347.121 1.98466 0.417033 0
M  V30 3857 C 347.454 1.10403 1.59765 0
M  V30 3858 O 346.729 0.160632 1.93836 0
M  V30 3859 C 347.012 3.49769 0.85637 0
M  V30 3860 C 346.865 4.48606 -0.327546 0
M  V30 3861 C 348.184 4.05339 1.7143 0
M  V30 3862 H 345.303 0.721551 0.150112 0
M  V30 3863 H 347.945 1.87423 -0.311864 0
M  V30 3864 H 346.095 3.5931 1.47745 0
M  V30 3865 H 347.767 4.5108 -0.965618 0
M  V30 3866 H 346.01 4.22682 -0.975805 0
M  V30 3867 H 346.681 5.51995 0.0227149 0
M  V30 3868 H 349.157 3.98712 1.19031 0
M  V30 3869 H 348.033 5.11533 1.99061 0
M  V30 3870 H 348.294 3.51918 2.67593 0
M  V30 3871 N 347.353 -0.0568162 1.57498 0
M  V30 3872 C 348.581 -0.765626 1.92213 0
M  V30 3873 C 348.996 -1.70353 0.813961 0
M  V30 3874 O 348.353 -1.81268 -0.211701 0
M  V30 3875 C 348.404 -1.5465 3.2675 0
M  V30 3876 O 348.125 -0.646278 4.33307 0
M  V30 3877 C 349.626 -2.35497 3.75574 0
M  V30 3878 H 346.846 -0.216835 0.634999 0
M  V30 3879 H 349.39 -0.0226146 2.04487 0
M  V30 3880 H 347.545 -2.24165 3.15957 0
M  V30 3881 H 347.959 -1.19093 5.108 0
M  V30 3882 H 349.433 -2.85722 4.72299 0
M  V30 3883 H 349.91 -3.15692 3.05344 0
M  V30 3884 H 350.516 -1.7111 3.8936 0
M  V30 3885 N 348.832 -1.54138 -0.328536 0
M  V30 3886 C 349.795 -1.82462 -1.38709 0
M  V30 3887 C 350.795 -0.696229 -1.44946 0
M  V30 3888 O 351.985 -0.964535 -1.4506 0
M  V30 3889 C 349.117 -1.98018 -2.77492 0
M  V30 3890 H 350.31 -2.77037 -1.14851 0
M  V30 3891 H 347.863 -1.45779 -0.563751 0
M  V30 3892 H 348.598 -1.05637 -3.06613 0
M  V30 3893 H 348.383 -2.80124 -2.74359 0
M  V30 3894 H 349.873 -2.21396 -3.54081 0
M  V30 3895 N 350.31 0.590341 -1.46126 0
M  V30 3896 C 351.24 1.71032 -1.58966 0
M  V30 3897 C 352.221 1.64302 -0.440335 0
M  V30 3898 O 353.406 1.82436 -0.665634 0
M  V30 3899 C 350.536 3.09665 -1.57241 0
M  V30 3900 C 349.49 3.31221 -2.71066 0
M  V30 3901 C 348.816 4.70303 -2.54399 0
M  V30 3902 C 350.116 3.19796 -4.1295 0
M  V30 3903 H 351.81 1.60543 -2.52718 0
M  V30 3904 H 349.356 0.770933 -1.21625 0
M  V30 3905 H 351.309 3.87831 -1.64819 0
M  V30 3906 H 350.033 3.21036 -0.600289 0
M  V30 3907 H 348.692 2.55452 -2.62944 0
M  V30 3908 H 348.34 4.78429 -1.55288 0
M  V30 3909 H 348.04 4.85679 -3.30741 0
M  V30 3910 H 349.564 5.50647 -2.63857 0
M  V30 3911 H 350.978 3.87815 -4.22223 0
M  V30 3912 H 349.375 3.46696 -4.89818 0
M  V30 3913 H 350.445 2.16983 -4.33643 0
M  V30 3914 N 351.788 1.33704 0.83433 0
M  V30 3915 C 353.013 1.28615 1.62705 0
M  V30 3916 C 353.438 -0.139242 1.87584 0
M  V30 3917 O 352.796 -1.09734 1.4432 0
M  V30 3918 C 352.844 2.07139 2.95171 0
M  V30 3919 O 351.948 1.4331 3.86699 0
M  V30 3920 H 351.289 0.44226 0.49528 0
M  V30 3921 H 353.819 1.76335 1.03766 0
M  V30 3922 H 353.829 2.18073 3.44831 0
M  V30 3923 H 352.504 3.10779 2.76386 0
M  V30 3924 H 351.081 1.4105 3.45195 0
M  V30 3925 N 353.266 -1.05314 1.17247 0
M  V30 3926 C 354.682 -1.30452 0.919473 0
M  V30 3927 C 354.882 -1.9703 -0.42209 0
M  V30 3928 O 353.938 -2.24311 -1.15935 0
M  V30 3929 C 355.251 -2.17551 2.07586 0
M  V30 3930 C 356.799 -2.30937 2.11275 0
M  V30 3931 C 357.274 -3.21396 3.26296 0
M  V30 3932 N 358.765 -3.28981 3.26076 0
M  V30 3933 C 359.5 -3.99095 4.11716 0
M  V30 3934 N 358.996 -4.71648 5.07465 0
M  V30 3935 N 360.789 -3.95247 3.9967 0
M  V30 3936 H 352.94 -0.604988 2.03602 0
M  V30 3937 H 355.203 -0.329368 0.888944 0
M  V30 3938 H 354.909 -1.75921 3.0454 0
M  V30 3939 H 354.783 -3.18182 2.02584 0
M  V30 3940 H 357.17 -2.71809 1.14907 0
M  V30 3941 H 357.251 -1.2994 2.20339 0
M  V30 3942 H 356.895 -2.81238 4.22927 0
M  V30 3943 H 356.825 -4.22395 3.14467 0
M  V30 3944 H 359.316 -2.77286 2.5675 0
M  V30 3945 H 359.629 -5.22705 5.6921 0
M  V30 3946 H 357.974 -4.70594 5.11435 0
M  V30 3947 H 361.165 -3.37691 3.24164 0
M  V30 3948 H 361.338 -4.4962 4.66632 0
M  V30 3949 N 354.744 -0.972509 -1.24016 0
M  V30 3950 C 355.654 -0.5143 -2.28893 0
M  V30 3951 C 356.67 0.427078 -1.68677 0
M  V30 3952 O 357.846 0.298939 -1.99169 0
M  V30 3953 C 354.911 0.183598 -3.46214 0
M  V30 3954 C 353.972 -0.798202 -4.21814 0
M  V30 3955 C 353.205 -0.133514 -5.33533 0
M  V30 3956 O 353.428 1.07714 -5.60137 0
M  V30 3957 O 352.362 -0.828103 -5.96176 0
M  V30 3958 H 356.188 -1.38629 -2.70214 0
M  V30 3959 H 353.773 -0.739769 -1.29799 0
M  V30 3960 H 355.655 0.575433 -4.17453 0
M  V30 3961 H 354.33 1.03048 -3.0686 0
M  V30 3962 H 353.237 -1.24059 -3.52931 0
M  V30 3963 H 354.57 -1.61364 -4.64997 0
M  V30 3964 N 356.222 1.38976 -0.743202 0
M  V30 3965 C 357.154 2.29096 -0.0689228 0
M  V30 3966 C 358.167 1.47229 0.694791 0
M  V30 3967 O 359.356 1.70212 0.537597 0
M  V30 3968 C 356.456 3.25988 0.926548 0
M  V30 3969 C 355.629 4.36833 0.222647 0
M  V30 3970 C 354.688 5.13981 1.12739 0
M  V30 3971 O 353.714 5.6601 0.601795 0
M  V30 3972 N 354.916 5.25966 2.45641 0
M  V30 3973 H 357.681 2.87604 -0.842846 0
M  V30 3974 H 355.242 1.50645 -0.593109 0
M  V30 3975 H 357.234 3.74476 1.5346 0
M  V30 3976 H 355.804 2.68453 1.60162 0
M  V30 3977 H 355.024 3.90116 -0.565983 0
M  V30 3978 H 356.312 5.0811 -0.264841 0
M  V30 3979 H 355.71 4.85228 2.9081 0
M  V30 3980 H 354.267 5.77865 3.01522 0
M  V30 3981 N 357.7 0.491464 1.49741 0
M  V30 3982 C 358.947 -0.0564256 2.02421 0
M  V30 3983 C 359.275 -1.37872 1.37192 0
M  V30 3984 O 358.53 -1.89375 0.493508 0
M  V30 3985 C 358.829 -0.267329 3.56399 0
M  V30 3986 C 358.495 0.975775 4.40215 0
M  V30 3987 C 357.157 1.31655 4.62839 0
M  V30 3988 C 359.509 1.80251 4.89039 0
M  V30 3989 C 356.837 2.48375 5.31532 0
M  V30 3990 C 359.189 2.96116 5.59015 0
M  V30 3991 C 357.853 3.30585 5.79888 0
M  V30 3992 H 357.123 -0.0206476 0.740712 0
M  V30 3993 H 359.77 0.649686 1.80143 0
M  V30 3994 H 358.075 -1.05588 3.77304 0
M  V30 3995 H 359.772 -0.705549 3.94744 0
M  V30 3996 H 356.362 0.700315 4.2284 0
M  V30 3997 H 360.546 1.55239 4.71396 0
M  V30 3998 H 355.802 2.7533 5.45897 0
M  V30 3999 H 359.976 3.60509 5.95824 0
M  V30 4000 H 357.603 4.21132 6.32892 0
M  V30 4001 N 359.178 -1.55987 0.224894 0
M  V30 4002 C 360.425 -1.9839 -0.4059 0
M  V30 4003 C 360.753 -1.11261 -1.59535 0
M  V30 4004 O 360.008 -0.158314 -1.95059 0
M  V30 4005 C 360.307 -3.46394 -0.880106 0
M  V30 4006 C 359.973 -4.5046 0.19918 0
M  V30 4007 C 358.635 -4.7864 0.495661 0
M  V30 4008 C 360.987 -5.12855 0.928939 0
M  V30 4009 C 358.315 -5.66497 1.52636 0
M  V30 4010 C 360.667 -6.01828 1.949 0
M  V30 4011 C 359.331 -6.28351 2.25236 0
M  V30 4012 H 358.601 -0.725961 -0.148529 0
M  V30 4013 H 361.248 -1.88668 0.328113 0
M  V30 4014 H 359.553 -3.53337 -1.69294 0
M  V30 4015 H 361.25 -3.76577 -1.37808 0
M  V30 4016 H 357.84 -4.28579 -0.0420526 0
M  V30 4017 H 362.024 -4.9115 0.713129 0
M  V30 4018 H 357.28 -5.8531 1.76698 0
M  V30 4019 H 361.454 -6.49225 2.51951 0
M  V30 4020 H 359.081 -6.96226 3.05244 0
M  V30 4021 N 360.656 0.0484629 -1.57525 0
M  V30 4022 C 361.603 1.05504 -2.05275 0
M  V30 4023 C 362.573 1.37084 -0.937927 0
M  V30 4024 O 363.758 1.47754 -1.2072 0
M  V30 4025 C 360.898 2.35676 -2.52093 0
M  V30 4026 C 360.011 2.10423 -3.77288 0
M  V30 4027 C 359.146 3.34327 -4.12794 0
M  V30 4028 C 358.185 3.04542 -5.30962 0
M  V30 4029 N 357.322 4.20841 -5.61994 0
M  V30 4030 H 362.162 0.640885 -2.91027 0
M  V30 4031 H 359.699 0.304854 -1.43906 0
M  V30 4032 H 361.657 3.11709 -2.77297 0
M  V30 4033 H 360.287 2.7485 -1.69285 0
M  V30 4034 H 359.339 1.24976 -3.59284 0
M  V30 4035 H 360.651 1.84438 -4.63448 0
M  V30 4036 H 359.805 4.1874 -4.39024 0
M  V30 4037 H 358.544 3.63408 -3.25247 0
M  V30 4038 H 357.549 2.18528 -5.04505 0
M  V30 4039 H 358.774 2.76758 -6.20146 0
M  V30 4040 H 356.72 4.4991 -4.77406 0
M  V30 4041 H 356.637 3.98212 -6.42622 0
M  V30 4042 H 357.905 5.06184 -5.92789 0
M  V30 4043 N 362.134 1.5431 0.320358 0
M  V30 4044 C 363.38 1.72924 1.05949 0
M  V30 4045 C 363.713 0.503185 1.87568 0
M  V30 4046 O 362.988 -0.499839 1.87968 0
M  V30 4047 C 363.271 3.00676 1.98156 0
M  V30 4048 C 363.124 4.3354 1.19845 0
M  V30 4049 C 364.443 3.24198 2.9763 0
M  V30 4050 H 361.562 0.629195 0.383774 0
M  V30 4051 H 364.204 1.87008 0.335854 0
M  V30 4052 H 362.354 2.888 2.59859 0
M  V30 4053 H 364.026 4.57305 0.605773 0
M  V30 4054 H 362.269 4.309 0.500784 0
M  V30 4055 H 362.94 5.19156 1.87567 0
M  V30 4056 H 365.416 3.35557 2.4605 0
M  V30 4057 H 364.292 4.14938 3.59329 0
M  V30 4058 H 364.553 2.41577 3.7026 0
M  V30 4059 N 363.613 -0.582584 1.46437 0
M  V30 4060 C 364.561 -1.71272 1.5738 0
M  V30 4061 C 365.555 -1.63524 0.44229 0
M  V30 4062 O 366.761 -1.69016 0.619166 0
M  V30 4063 H 363.136 -0.566273 0.494813 0
M  V30 4064 H 365.107 -1.59174 2.52401 0
M  V30 4065 C 363.856 -3.09658 1.58136 0
M  V30 4066 H 363.179 -3.16291 2.44541 0
M  V30 4067 H 364.619 -3.88494 1.69847 0
M  V30 4068 C 363.078 -3.3547 0.310026 0
M  V30 4069 O 363.608 -3.97199 -0.599683 0
M  V30 4070 N 361.814 -2.89925 0.197901 0
M  V30 4071 H 361.361 -2.39873 0.93909 0
M  V30 4072 H 361.319 -3.07568 -0.65185 0
M  V30 4073 N 365.091 -1.34144 -0.827227 0
M  V30 4074 C 366.339 -1.26009 -1.58007 0
M  V30 4075 C 366.66 0.170971 -1.94249 0
M  V30 4076 O 365.93 1.10256 -1.61927 0
M  V30 4077 H 364.51 -0.463414 -0.585881 0
M  V30 4078 H 367.172 -1.68005 -0.987951 0
M  V30 4079 H 366.268 -1.86187 -2.50481 0
M  V30 4080 N 366.569 1.04691 -1.17803 0
M  V30 4081 C 367.816 1.77782 -0.969532 0
M  V30 4082 C 368.144 1.87926 0.501401 0
M  V30 4083 O 367.399 1.37918 1.38842 0
M  V30 4084 C 367.698 3.21467 -1.56186 0
M  V30 4085 C 367.364 3.3137 -3.05786 0
M  V30 4086 C 366.026 3.3378 -3.46619 0
M  V30 4087 C 368.378 3.31976 -4.01797 0
M  V30 4088 C 365.706 3.34431 -4.82051 0
M  V30 4089 C 368.058 3.34167 -5.37136 0
M  V30 4090 C 366.722 3.34866 -5.77426 0
M  V30 4091 H 365.992 0.650549 -0.354777 0
M  V30 4092 H 368.639 1.23006 -1.46772 0
M  V30 4093 H 366.944 3.79203 -0.985515 0
M  V30 4094 H 368.641 3.76652 -1.37602 0
M  V30 4095 H 365.231 3.3021 -2.73238 0
M  V30 4096 H 369.415 3.29311 -3.71306 0
M  V30 4097 H 364.671 3.33285 -5.12573 0
M  V30 4098 H 368.845 3.33585 -6.11305 0
M  V30 4099 H 366.472 3.35124 -6.82346 0
M  V30 4100 N 368.047 0.979072 1.23499 0
M  V30 4101 C 369.272 0.664845 1.96455 0
M  V30 4102 C 369.697 -0.761287 1.72006 0
M  V30 4103 O 369.055 -1.51837 0.990713 0
M  V30 4104 C 369.103 0.959479 3.47601 0
M  V30 4105 O 368.207 0.0508168 4.12369 0
M  V30 4106 H 367.548 0.250185 0.615064 0
M  V30 4107 H 370.078 1.31231 1.5697 0
M  V30 4108 H 370.088 0.895642 3.98048 0
M  V30 4109 H 368.763 1.99876 3.64723 0
M  V30 4110 H 367.34 0.16895 3.72517 0
M  V30 4111 N 369.525 -1.3858 0.750561 0
M  V30 4112 C 370.473 -2.32339 0.110162 0
M  V30 4113 C 371.467 -1.53864 -0.708674 0
M  V30 4114 O 372.673 -1.69417 -0.608112 0
M  V30 4115 H 369.048 -0.751812 0.0168275 0
M  V30 4116 H 371.019 -2.83959 0.917053 0
M  V30 4117 C 369.768 -3.39043 -0.771067 0
M  V30 4118 H 369.091 -3.99517 -0.150374 0
M  V30 4119 H 370.531 -4.07061 -1.1865 0
M  V30 4120 C 368.99 -2.77365 -1.91234 0
M  V30 4121 O 369.52 -2.66434 -3.00626 0
M  V30 4122 N 367.726 -2.35219 -1.70646 0
M  V30 4123 H 367.273 -2.4431 -0.81673 0
M  V30 4124 H 367.231 -1.94294 -2.47178 0
M  V30 4125 N 371.003 -0.499398 -1.49478 0
M  V30 4126 C 371.951 0.293604 -2.3074 0
M  V30 4127 C 372.945 0.96427 -1.39277 0
M  V30 4128 O 374.151 0.892141 -1.56336 0
M  V30 4129 H 370.526 0.113541 -0.743379 0
M  V30 4130 H 372.497 -0.411772 -2.95545 0
M  V30 4131 C 371.246 1.3462 -3.20582 0
M  V30 4132 H 370.569 0.83954 -3.90886 0
M  V30 4133 H 372.009 1.87308 -3.80384 0
M  V30 4134 C 370.468 2.36351 -2.40083 0
M  V30 4135 O 370.998 3.422 -2.10385 0
M  V30 4136 N 369.204 2.0878 -2.02137 0
M  V30 4137 H 368.751 1.22723 -2.26488 0
M  V30 4138 H 368.709 2.77075 -1.48583 0
M  V30 4139 N 372.481 1.55866 -0.233164 0
M  V30 4140 C 373.711 2.02704 0.399325 0
M  V30 4141 C 374.119 1.11204 1.53069 0
M  V30 4142 O 373.462 0.116182 1.83332 0
M  V30 4143 C 373.524 3.45844 0.981429 0
M  V30 4144 C 373.188 4.56997 -0.0159561 0
M  V30 4145 C 374.185 5.13384 -0.820552 0
M  V30 4146 C 371.87 5.0211 -0.138072 0
M  V30 4147 C 373.864 6.13365 -1.73386 0
M  V30 4148 C 371.551 6.01926 -1.0549 0
M  V30 4149 C 372.549 6.57431 -1.85132 0
M  V30 4150 O 372.237 7.55302 -2.75272 0
M  V30 4151 H 371.969 0.668459 0.100692 0
M  V30 4152 H 374.523 2.02387 -0.35052 0
M  V30 4153 H 372.753 3.43267 1.78058 0
M  V30 4154 H 374.442 3.76262 1.52255 0
M  V30 4155 H 375.208 4.79372 -0.736721 0
M  V30 4156 H 371.087 4.5858 0.471737 0
M  V30 4157 H 374.631 6.56614 -2.35592 0
M  V30 4158 H 370.528 6.35359 -1.1397 0
M  V30 4159 H 371.296 7.72867 -2.69477 0
M  V30 4160 N 373.959 -0.0401083 1.57549 0
M  V30 4161 C 375.205 -0.728793 1.89895 0
M  V30 4162 C 375.56 -1.73551 0.830535 0
M  V30 4163 O 374.853 -1.90914 -0.162007 0
M  V30 4164 C 375.047 -1.44902 3.26708 0
M  V30 4165 C 374.876 -0.513568 4.46758 0
M  V30 4166 C 373.646 -0.138698 5.0511 0
M  V30 4167 C 375.844 0.203341 5.13898 0
M  V30 4168 N 373.826 0.799159 6.08676 0
M  V30 4169 C 375.197 0.997246 6.11927 0
M  V30 4170 C 377.252 0.271459 4.97159 0
M  V30 4171 C 375.955 1.85299 6.95023 0
M  V30 4172 C 377.981 1.11429 5.80808 0
M  V30 4173 C 377.343 1.89615 6.78399 0
M  V30 4174 H 373.442 -0.241125 0.743897 0
M  V30 4175 H 376.026 0.0108016 1.94697 0
M  V30 4176 H 374.197 -2.15914 3.22856 0
M  V30 4177 H 375.929 -2.08921 3.46603 0
M  V30 4178 H 372.684 -0.498496 4.70969 0
M  V30 4179 H 373.108 1.26227 6.65128 0
M  V30 4180 H 377.75 -0.318709 4.21597 0
M  V30 4181 H 375.468 2.454 7.69938 0
M  V30 4182 H 379.054 1.17038 5.69906 0
M  V30 4183 H 377.934 2.53779 7.42001 0
M  V30 4184 N 375.437 -1.54477 -0.31217 0
M  V30 4185 C 376.685 -1.72884 -1.04668 0
M  V30 4186 C 377.006 -0.511477 -1.88173 0
M  V30 4187 O 376.276 0.474407 -1.90069 0
M  V30 4188 H 374.856 -0.637461 -0.389425 0
M  V30 4189 H 377.518 -1.91807 -0.345852 0
M  V30 4190 H 376.614 -2.61334 -1.70619 0
M  V30 4191 N 376.915 0.57481 -1.46744 0
M  V30 4192 C 378.161 1.33251 -1.53674 0
M  V30 4193 C 378.516 1.91468 -0.189125 0
M  V30 4194 O 377.809 1.73954 0.803151 0
M  V30 4195 C 378.003 2.476 -2.57738 0
M  V30 4196 C 377.832 2.00586 -4.02487 0
M  V30 4197 C 376.602 1.85237 -4.70123 0
M  V30 4198 C 378.8 1.56078 -4.90045 0
M  V30 4199 N 376.782 1.32377 -5.99458 0
M  V30 4200 C 378.153 1.14863 -6.09267 0
M  V30 4201 C 380.208 1.43968 -4.76632 0
M  V30 4202 C 378.911 0.627435 -7.16558 0
M  V30 4203 C 380.937 0.932512 -5.84002 0
M  V30 4204 C 380.299 0.53019 -7.02402 0
M  V30 4205 H 376.398 0.480284 -0.617131 0
M  V30 4206 H 378.982 0.653592 -1.83402 0
M  V30 4207 H 377.153 3.13045 -2.29907 0
M  V30 4208 H 378.885 3.14567 -2.54616 0
M  V30 4209 H 375.64 2.07423 -4.25761 0
M  V30 4210 H 376.064 1.08085 -6.68316 0
M  V30 4211 H 380.706 1.73689 -3.85476 0
M  V30 4212 H 378.424 0.317821 -8.07475 0
M  V30 4213 H 382.01 0.842611 -5.75666 0
M  V30 4214 H 380.89 0.14381 -7.84068 0
M  V30 4215 N 378.394 1.34581 0.820102 0
M  V30 4216 C 379.642 1.26845 1.57336 0
M  V30 4217 C 379.963 -0.160667 1.94337 0
M  V30 4218 O 379.233 -1.09396 1.6251 0
M  V30 4219 H 377.813 0.466514 0.583415 0
M  V30 4220 H 380.475 1.68526 0.979027 0
M  V30 4221 H 379.571 1.87513 2.4949 0
M  V30 4222 N 379.872 -1.04064 1.18357 0
M  V30 4223 C 381.12 -1.76915 0.977013 0
M  V30 4224 C 381.441 -1.88624 -0.494577 0
M  V30 4225 O 380.711 -1.41125 -1.3587 0
M  V30 4226 H 379.291 -0.65535 0.358504 0
M  V30 4227 H 381.953 -1.25592 1.49039 0
M  V30 4228 H 381.049 -2.78178 1.41504 0
M  V30 4229 N 381.35 -0.985608 -1.22978 0
M  V30 4230 C 382.26 -0.538548 -2.28335 0
M  V30 4231 C 383.276 0.409163 -1.69121 0
M  V30 4232 O 384.452 0.277797 -1.99475 0
M  V30 4233 C 381.517 0.146867 -3.46389 0
M  V30 4234 C 380.578 -0.842896 -4.20944 0
M  V30 4235 C 379.811 -0.190095 -5.33361 0
M  V30 4236 O 380.034 1.01767 -5.61248 0
M  V30 4237 O 378.968 -0.891289 -5.95264 0
M  V30 4238 H 382.794 -1.41487 -2.68729 0
M  V30 4239 H 380.379 -0.753495 -1.29007 0
M  V30 4240 H 382.261 0.531125 -4.1804 0
M  V30 4241 H 380.936 0.997871 -3.07935 0
M  V30 4242 H 379.843 -1.27795 -3.51595 0
M  V30 4243 H 381.176 -1.66287 -4.6326 0
M  V30 4244 N 382.828 1.3818 -0.7579 0
M  V30 4245 C 384.105 1.94106 -0.241306 0
M  V30 4246 C 384.485 1.69282 1.26122 0
M  V30 4247 O 383.833 1.03378 2.03777 0
M  V30 4248 C 384.043 3.43809 -0.59967 0
M  V30 4249 C 385.391 4.20868 -0.561717 0
M  V30 4250 O 386.415 3.5211 -0.538222 0
M  V30 4251 O 385.274 5.43451 -0.576478 0
M  V30 4252 H 382.368 0.825376 -0.0518042 0
M  V30 4253 H 384.914 1.47548 -0.838315 0
M  V30 4254 H 383.686 3.55403 -1.6372 0
M  V30 4255 H 383.309 3.97592 0.0251197 0
M  V30 4256 N 384.306 0.507319 1.49211 0
M  V30 4257 C 385.583 -0.0982702 1.95353 0
M  V30 4258 C 385.963 -1.53516 1.449 0
M  V30 4259 O 385.311 -2.18594 0.66551 0
M  V30 4260 C 385.521 -0.00440283 3.49 0
M  V30 4261 C 386.869 -0.175147 4.24239 0
M  V30 4262 O 387.893 -0.0792891 3.56112 0
M  V30 4263 O 386.752 -0.37276 5.45227 0
M  V30 4264 H 383.846 -0.0918236 0.821887 0
M  V30 4265 H 386.392 0.570307 1.5983 0
M  V30 4266 H 385.164 0.997402 3.78375 0
M  V30 4267 H 384.787 -0.712845 3.91158 0
M  V30 4268 N 385.784 -1.5574 0.241426 0
M  V30 4269 C 387.061 -1.90704 -0.434881 0
M  V30 4270 C 387.441 -1.16145 -1.76277 0
M  V30 4271 O 386.789 -0.277152 -2.26813 0
M  V30 4272 C 386.999 -3.43657 -0.608343 0
M  V30 4273 C 388.347 -4.14806 -0.906725 0
M  V30 4274 O 389.371 -3.49366 -0.694408 0
M  V30 4275 O 388.23 -5.30548 -1.31075 0
M  V30 4276 H 385.324 -0.793592 -0.23268 0
M  V30 4277 H 387.87 -1.67288 0.285086 0
M  V30 4278 H 386.642 -3.89927 0.327505 0
M  V30 4279 H 386.265 -3.72918 -1.37906 0
M  V30 4280 N 387.262 0.0317525 -1.57568 0
M  V30 4281 C 388.192 1.03274 -2.0942 0
M  V30 4282 C 389.173 1.3788 -0.996143 0
M  V30 4283 O 390.358 1.46811 -1.27122 0
M  V30 4284 C 387.488 2.33448 -2.57137 0
M  V30 4285 C 386.442 2.13091 -3.71182 0
M  V30 4286 C 385.768 3.49001 -4.05095 0
M  V30 4287 C 387.068 1.51928 -4.99715 0
M  V30 4288 H 388.762 0.60112 -2.93303 0
M  V30 4289 H 386.308 0.287705 -1.41097 0
M  V30 4290 H 388.261 3.03802 -2.92032 0
M  V30 4291 H 386.985 2.78665 -1.70333 0
M  V30 4292 H 385.644 1.45171 -3.36632 0
M  V30 4293 H 385.292 3.91862 -3.15362 0
M  V30 4294 H 384.992 3.36207 -4.81911 0
M  V30 4295 H 386.516 4.20721 -4.42522 0
M  V30 4296 H 387.93 2.12196 -5.32584 0
M  V30 4297 H 386.327 1.49716 -5.81124 0
M  V30 4298 H 387.397 0.484811 -4.8247 0
M  V30 4299 N 388.74 1.54641 0.303973 0
M  V30 4300 C 390.156 1.45788 0.649463 0
M  V30 4301 C 390.356 0.64666 1.90842 0
M  V30 4302 O 389.412 0.153183 2.52035 0
M  V30 4303 C 390.725 2.89718 0.805227 0
M  V30 4304 C 392.273 2.99742 0.901305 0
M  V30 4305 C 392.748 4.44863 1.08909 0
M  V30 4306 N 394.239 4.48559 1.15536 0
M  V30 4307 C 394.974 5.58026 1.3189 0
M  V30 4308 N 394.47 6.77422 1.45161 0
M  V30 4309 N 396.263 5.45708 1.34755 0
M  V30 4310 H 388.414 2.05854 -0.523237 0
M  V30 4311 H 390.677 0.932186 -0.172431 0
M  V30 4312 H 390.383 3.51666 -0.0489108 0
M  V30 4313 H 390.257 3.36964 1.69513 0
M  V30 4314 H 392.644 2.3791 1.74593 0
M  V30 4315 H 392.725 2.55797 -0.0125531 0
M  V30 4316 H 392.369 5.07288 0.249241 0
M  V30 4317 H 392.299 4.86436 2.01713 0
M  V30 4318 H 394.79 3.6254 1.06646 0
M  V30 4319 H 395.103 7.56604 1.57387 0
M  V30 4320 H 393.448 6.80292 1.42223 0
M  V30 4321 H 396.639 4.51378 1.23996 0
M  V30 4322 H 396.812 6.3107 1.47157 0
M  V30 4323 N 390.218 -0.567019 1.47046 0
M  V30 4324 C 391.148 -1.68482 1.61667 0
M  V30 4325 C 392.129 -1.6358 0.466418 0
M  V30 4326 O 393.314 -1.81354 0.694574 0
M  V30 4327 C 390.444 -3.07124 1.62148 0
M  V30 4328 C 389.398 -3.26867 2.76301 0
M  V30 4329 C 388.724 -4.66196 2.61849 0
M  V30 4330 C 390.024 -3.13186 4.17986 0
M  V30 4331 H 391.718 -1.56502 2.5524 0
M  V30 4332 H 389.264 -0.751486 1.22836 0
M  V30 4333 H 391.217 -3.8516 1.70968 0
M  V30 4334 H 389.941 -3.2004 0.651287 0
M  V30 4335 H 388.6 -2.51237 2.66975 0
M  V30 4336 H 388.248 -4.75898 1.62879 0
M  V30 4337 H 387.948 -4.80356 3.38425 0
M  V30 4338 H 389.472 -5.46379 2.72584 0
M  V30 4339 H 390.886 -3.81049 4.2834 0
M  V30 4340 H 389.283 -3.3886 4.95272 0
M  V30 4341 H 390.353 -2.10057 4.3704 0
M  V30 4342 N 391.696 -1.35014 -0.812953 0
M  V30 4343 C 393.112 -1.14914 -1.10757 0
M  V30 4344 C 393.312 0.0426818 -2.01455 0
M  V30 4345 O 392.368 0.715212 -2.42159 0
M  V30 4346 C 393.681 -2.44911 -1.74468 0
M  V30 4347 C 395.229 -2.5106 -1.86917 0
M  V30 4348 C 395.704 -3.81085 -2.54044 0
M  V30 4349 N 397.195 -3.82301 -2.61535 0
M  V30 4350 C 397.93 -4.79634 -3.14227 0
M  V30 4351 N 397.426 -5.87353 -3.67407 0
M  V30 4352 N 399.219 -4.67078 -3.12721 0
M  V30 4353 H 391.37 -2.1136 -0.20989 0
M  V30 4354 H 393.633 -0.935128 -0.155692 0
M  V30 4355 H 393.339 -3.32267 -1.15289 0
M  V30 4356 H 393.213 -2.58989 -2.74234 0
M  V30 4357 H 395.6 -1.64137 -2.45241 0
M  V30 4358 H 395.681 -2.40901 -0.860242 0
M  V30 4359 H 395.325 -4.68402 -1.96372 0
M  V30 4360 H 395.255 -3.88529 -3.55461 0
M  V30 4361 H 397.746 -3.04465 -2.23851 0
M  V30 4362 H 398.059 -6.57624 -4.05894 0
M  V30 4363 H 396.404 -5.91054 -3.65623 0
M  V30 4364 H 399.595 -3.82067 -2.70449 0
M  V30 4365 H 399.768 -5.43098 -3.53481 0
M  V30 4366 N 393.175 1.03435 -1.18907 0
M  V30 4367 C 394.421 1.77005 -0.989798 0
M  V30 4368 C 394.754 1.88205 0.478816 0
M  V30 4369 O 394.029 1.39481 1.35556 0
M  V30 4370 C 394.312 3.19925 -1.65287 0
M  V30 4371 C 394.165 3.1663 -3.19477 0
M  V30 4372 C 395.484 4.18189 -1.37134 0
M  V30 4373 H 392.603 0.642538 -0.360991 0
M  V30 4374 H 395.245 1.20784 -1.46667 0
M  V30 4375 H 393.395 3.67929 -1.24741 0
M  V30 4376 H 395.067 2.76567 -3.692 0
M  V30 4377 H 393.31 2.54491 -3.51307 0
M  V30 4378 H 393.981 4.1758 -3.61013 0
M  V30 4379 H 396.457 3.78761 -1.72276 0
M  V30 4380 H 395.333 5.16394 -1.86087 0
M  V30 4381 H 395.594 4.41112 -0.295424 0
M  V30 4382 N 394.653 0.992116 1.22453 0
M  V30 4383 C 395.563 0.55065 2.28046 0
M  V30 4384 C 396.579 -0.400189 1.69335 0
M  V30 4385 O 397.755 -0.267215 1.99619 0
M  V30 4386 C 394.82 -0.128496 3.46462 0
M  V30 4387 C 393.881 0.865208 4.20491 0
M  V30 4388 C 393.114 0.218377 5.33253 0
M  V30 4389 O 393.337 -0.987894 5.6178 0
M  V30 4390 O 392.271 0.922845 5.94783 0
M  V30 4391 H 396.097 1.4291 2.67975 0
M  V30 4392 H 393.682 0.760326 1.28606 0
M  V30 4393 H 395.564 -0.508947 4.18315 0
M  V30 4394 H 394.239 -0.981526 3.0846 0
M  V30 4395 H 393.146 1.29658 3.50913 0
M  V30 4396 H 394.479 1.68741 4.62371 0
M  V30 4397 N 396.131 -1.37776 0.765217 0
M  V30 4398 C 397.061 -2.32945 0.160953 0
M  V30 4399 C 398.042 -1.55454 -0.690516 0
M  V30 4400 O 399.227 -1.83721 -0.629318 0
M  V30 4401 C 396.357 -3.39669 -0.724031 0
M  V30 4402 C 395.311 -4.27992 0.0256173 0
M  V30 4403 C 394.637 -5.25673 -0.978383 0
M  V30 4404 C 395.937 -5.08309 1.20082 0
M  V30 4405 H 397.631 -2.83728 0.955969 0
M  V30 4406 H 395.177 -1.36416 0.461149 0
M  V30 4407 H 397.13 -4.05219 -1.15652 0
M  V30 4408 H 395.854 -2.87396 -1.5515 0
M  V30 4409 H 394.513 -3.63964 0.438812 0
M  V30 4410 H 394.161 -4.69682 -1.80022 0
M  V30 4411 H 393.861 -5.85625 -0.481378 0
M  V30 4412 H 395.385 -5.94098 -1.40995 0
M  V30 4413 H 396.799 -5.67034 0.845307 0
M  V30 4414 H 395.196 -5.77554 1.62947 0
M  V30 4415 H 396.266 -4.41365 2.00811 0
M  V30 4416 N 397.609 -0.515225 -1.4894 0
M  V30 4417 C 398.541 0.292481 -2.27326 0
M  V30 4418 C 399.554 0.917838 -1.3446 0
M  V30 4419 O 400.743 0.798772 -1.5963 0
M  V30 4420 C 397.843 1.42803 -3.07344 0
M  V30 4421 C 397.016 0.907347 -4.27885 0
M  V30 4422 C 396.075 1.92222 -4.89834 0
M  V30 4423 O 395.101 1.48506 -5.49486 0
M  V30 4424 N 396.303 3.25355 -4.80754 0
M  V30 4425 H 399.068 -0.379721 -2.97285 0
M  V30 4426 H 396.629 -0.348638 -1.58102 0
M  V30 4427 H 398.621 2.10481 -3.45658 0
M  V30 4428 H 397.191 2.00414 -2.39902 0
M  V30 4429 H 396.411 0.0550218 -3.94162 0
M  V30 4430 H 397.699 0.538108 -5.05946 0
M  V30 4431 H 397.097 3.6355 -4.33414 0
M  V30 4432 H 395.654 3.88707 -5.23211 0
M  V30 4433 N 399.087 1.5561 -0.249682 0
M  V30 4434 C 400.503 1.59254 0.105103 0
M  V30 4435 C 400.703 1.26685 1.56694 0
M  V30 4436 O 399.759 1.0155 2.31179 0
M  V30 4437 C 401.072 2.99687 -0.246592 0
M  V30 4438 C 402.62 3.12416 -0.191118 0
M  V30 4439 C 403.095 4.55074 -0.516885 0
M  V30 4440 N 404.586 4.60835 -0.467489 0
M  V30 4441 C 405.321 5.69201 -0.69268 0
M  V30 4442 N 404.817 6.85817 -0.981146 0
M  V30 4443 N 406.61 5.58635 -0.623198 0
M  V30 4444 H 398.761 1.75049 -1.20298 0
M  V30 4445 H 401.024 0.815003 -0.484225 0
M  V30 4446 H 400.73 3.28267 -1.26228 0
M  V30 4447 H 400.604 3.74798 0.424962 0
M  V30 4448 H 402.991 2.83615 0.815247 0
M  V30 4449 H 403.072 2.39573 -0.896563 0
M  V30 4450 H 402.716 4.84596 -1.52082 0
M  V30 4451 H 402.646 5.26181 0.210068 0
M  V30 4452 H 405.137 3.7705 -0.253373 0
M  V30 4453 H 405.45 7.64341 -1.14032 0
M  V30 4454 H 403.795 6.87494 -1.01865 0
M  V30 4455 H 406.986 4.66406 -0.397863 0
M  V30 4456 H 407.159 6.43017 -0.802093 0
M  V30 4457 N 400.565 -0.0233959 1.57583 0
M  V30 4458 C 401.498 -1.05549 2.02323 0
M  V30 4459 C 402.476 -1.34843 0.908626 0
M  V30 4460 O 403.66 -1.47404 1.17491 0
M  V30 4461 C 400.787 -2.38885 2.40108 0
M  V30 4462 C 399.833 -2.2541 3.62067 0
M  V30 4463 S 400.666 -1.60217 5.1097 0
M  V30 4464 C 401.822 -2.95032 5.52003 0
M  V30 4465 H 402.055 -0.674435 2.89549 0
M  V30 4466 H 399.588 -0.23355 1.52623 0
M  V30 4467 H 401.546 -3.15562 2.62547 0
M  V30 4468 H 400.207 -2.74137 1.53323 0
M  V30 4469 H 399.4 -3.23854 3.86179 0
M  V30 4470 H 399.002 -1.56876 3.39508 0
M  V30 4471 H 401.294 -3.91357 5.53033 0
M  V30 4472 H 402.237 -2.75646 6.52246 0
M  V30 4473 H 402.645 -2.97865 4.79517 0
M  V30 4474 N 402.043 -1.548 -0.295768 0
M  V30 4475 C 402.99 -1.86113 -1.36494 0
M  V30 4476 C 403.96 -0.7105 -1.50137 0
M  V30 4477 O 405.145 -0.959626 -1.64912 0
M  V30 4478 C 402.285 -2.11861 -2.72413 0
M  V30 4479 C 401.398 -3.39471 -2.67177 0
M  V30 4480 C 400.533 -3.55035 -3.95125 0
M  V30 4481 C 399.572 -4.76418 -3.84308 0
M  V30 4482 N 398.709 -4.8876 -5.04042 0
M  V30 4483 H 403.549 -2.77314 -1.09091 0
M  V30 4484 H 401.086 -1.37315 -0.52753 0
M  V30 4485 H 403.044 -2.24786 -3.51464 0
M  V30 4486 H 401.674 -1.2392 -2.98066 0
M  V30 4487 H 400.726 -3.35139 -1.79962 0
M  V30 4488 H 402.038 -4.28646 -2.55076 0
M  V30 4489 H 401.192 -3.67653 -4.82614 0
M  V30 4490 H 399.931 -2.64002 -4.10066 0
M  V30 4491 H 398.936 -4.63827 -2.95202 0
M  V30 4492 H 400.161 -5.68863 -3.70906 0
M  V30 4493 H 398.107 -4.00652 -5.19436 0
M  V30 4494 H 398.024 -5.71945 -4.94384 0
M  V30 4495 H 399.292 -5.0574 -5.93167 0
M  V30 4496 N 403.521 0.559213 -1.47345 0
M  V30 4497 C 404.77 1.31281 -1.53128 0
M  V30 4498 C 405.083 1.94602 -0.197344 0
M  V30 4499 O 406.289 2.71173 -0.133154 0
M  V30 4500 C 404.745 2.38051 -2.69925 0
M  V30 4501 C 404.353 1.8093 -4.0984 0
M  V30 4502 C 406.097 3.14604 -2.84999 0
M  V30 4503 C 404.004 2.85468 -5.1794 0
M  V30 4504 H 402.934 0.493614 -0.569966 0
M  V30 4505 H 405.585 0.594155 -1.73615 0
M  V30 4506 H 403.967 3.12822 -2.42814 0
M  V30 4507 H 405.141 1.12544 -4.46845 0
M  V30 4508 H 403.456 1.16967 -3.99634 0
M  V30 4509 H 406.053 3.92666 -3.62929 0
M  V30 4510 H 406.396 3.68665 -1.93369 0
M  V30 4511 H 406.929 2.46945 -3.1187 0
M  V30 4512 H 403.668 2.36264 -6.1144 0
M  V30 4513 H 403.188 3.52269 -4.85455 0
M  V30 4514 H 404.867 3.48996 -5.44803 0
M  V30 4515 N 404.999 1.35443 0.805782 0
M  V30 4516 C 406.224 1.32037 1.59941 0
M  V30 4517 C 406.649 -0.0994215 1.87837 0
M  V30 4518 O 406.007 -1.06648 1.46615 0
M  V30 4519 C 406.055 2.13354 2.90711 0
M  V30 4520 O 405.159 1.5148 3.83572 0
M  V30 4521 H 404.5 0.452666 0.485787 0
M  V30 4522 H 407.03 1.78496 1.00002 0
M  V30 4523 H 407.04 2.25338 3.40128 0
M  V30 4524 H 405.715 3.16572 2.69732 0
M  V30 4525 H 404.292 1.4834 3.42125 0
M  V30 4526 N 406.477 -1.02803 1.19454 0
M  V30 4527 C 407.893 -1.28473 0.946937 0
M  V30 4528 C 408.093 -1.97881 -0.380202 0
M  V30 4529 O 407.149 -2.26719 -1.11151 0
M  V30 4530 C 408.462 -2.13099 2.12154 0
M  V30 4531 C 410.01 -2.26404 2.16126 0
M  V30 4532 C 410.485 -3.14402 3.33039 0
M  V30 4533 N 411.976 -3.21991 3.32981 0
M  V30 4534 C 412.711 -3.90272 4.20089 0
M  V30 4535 N 412.207 -4.60777 5.17355 0
M  V30 4536 N 414 -3.8668 4.07964 0
M  V30 4537 H 406.151 -0.561665 2.04839 0
M  V30 4538 H 408.414 -0.310438 0.89573 0
M  V30 4539 H 408.12 -1.69422 3.08203 0
M  V30 4540 H 407.994 -3.13813 2.09287 0
M  V30 4541 H 410.381 -2.69311 1.20647 0
M  V30 4542 H 410.462 -1.25237 2.23045 0
M  V30 4543 H 410.106 -2.72204 4.28798 0
M  V30 4544 H 410.036 -4.1563 3.23356 0
M  V30 4545 H 412.527 -2.71778 2.62574 0
M  V30 4546 H 412.84 -5.10513 5.80169 0
M  V30 4547 H 411.185 -4.5964 5.21302 0
M  V30 4548 H 414.376 -3.30739 3.31254 0
M  V30 4549 H 414.549 -4.39621 4.76064 0
M  V30 4550 N 407.956 -0.998596 -1.21925 0
M  V30 4551 C 409.367 -0.711939 -1.72593 0
M  V30 4552 C 409.718 0.770842 -1.80423 0
M  V30 4553 O 408.843 1.60237 -1.4544 0
M  V30 4554 C 409.438 -1.28567 -3.13458 0
M  V30 4555 C 407.997 -1.04828 -3.61508 0
M  V30 4556 C 407.144 -1.4024 -2.39224 0
M  V30 4557 H 410.095 -1.17027 -1.07193 0
M  V30 4558 H 410.116 -0.667098 -3.74607 0
M  V30 4559 H 409.628 -2.36486 -3.07727 0
M  V30 4560 H 407.729 0.0140383 -3.72597 0
M  V30 4561 H 407.842 -1.71566 -4.47328 0
M  V30 4562 H 406.206 -0.821077 -2.41103 0
M  V30 4563 H 406.989 -2.49176 -2.36149 0
M  V30 4564 N 409.434 1.37368 -0.772513 0
M  V30 4565 C 410.364 2.32856 -0.173304 0
M  V30 4566 C 411.345 1.55818 0.682262 0
M  V30 4567 O 412.53 1.84052 0.619566 0
M  V30 4568 C 409.66 3.40048 0.706007 0
M  V30 4569 C 408.614 4.27973 -0.0483144 0
M  V30 4570 C 407.94 5.26184 0.950491 0
M  V30 4571 C 409.24 5.07665 -1.22776 0
M  V30 4572 H 410.934 2.83217 -0.971002 0
M  V30 4573 H 408.48 1.3617 -0.468377 0
M  V30 4574 H 410.433 4.05827 1.13501 0
M  V30 4575 H 409.157 2.88214 1.53623 0
M  V30 4576 H 407.816 3.63726 -0.458107 0
M  V30 4577 H 407.464 4.7063 1.77529 0
M  V30 4578 H 407.164 5.85872 0.450314 0
M  V30 4579 H 408.688 5.94838 1.37842 0
M  V30 4580 H 410.102 5.66578 -0.875366 0
M  V30 4581 H 408.499 5.76681 -1.66007 0
M  V30 4582 H 409.569 4.40294 -2.03149 0
M  V30 4583 N 410.912 0.523116 1.48665 0
M  V30 4584 C 412.323 0.0808997 1.86525 0
M  V30 4585 C 412.674 -1.33975 1.43336 0
M  V30 4586 O 411.799 -2.00221 0.821009 0
M  V30 4587 C 412.394 0.140037 3.3851 0
M  V30 4588 C 410.953 -0.246948 3.75589 0
M  V30 4589 C 410.1 0.502845 2.72703 0
M  V30 4590 H 413.051 0.734736 1.40667 0
M  V30 4591 H 413.072 -0.649945 3.74908 0
M  V30 4592 H 412.584 1.17412 3.69914 0
M  V30 4593 H 410.685 -1.28343 3.49798 0
M  V30 4594 H 410.798 0.0878859 4.79019 0
M  V30 4595 H 409.162 -0.0500581 2.54651 0
M  V30 4596 H 409.945 1.53743 3.0695 0
M  V30 4597 N 412.39 -1.55475 0.257931 0
M  V30 4598 C 413.3 -2.2549 -0.647425 0
M  V30 4599 C 414.316 -1.2748 -1.18427 0
M  V30 4600 O 415.492 -1.6038 -1.2182 0
M  V30 4601 C 412.557 -2.94916 -1.82278 0
M  V30 4602 C 411.618 -4.08363 -1.32432 0
M  V30 4603 C 410.851 -4.74469 -2.44366 0
M  V30 4604 O 411.074 -4.39701 -3.63344 0
M  V30 4605 O 410.008 -5.62763 -2.13497 0
M  V30 4606 H 413.834 -3.03593 -0.0807707 0
M  V30 4607 H 411.419 -1.49377 0.0259962 0
M  V30 4608 H 413.301 -3.38606 -2.50846 0
M  V30 4609 H 411.976 -2.19744 -2.37685 0
M  V30 4610 H 410.883 -3.69166 -0.605605 0
M  V30 4611 H 412.216 -4.85385 -0.816211 0
M  V30 4612 N 413.868 0.0150385 -1.57593 0
M  V30 4613 C 415.114 0.704043 -1.90187 0
M  V30 4614 C 415.447 1.74249 -0.857366 0
M  V30 4615 O 414.722 1.94092 0.125843 0
M  V30 4616 C 415.005 1.36087 -3.33395 0
M  V30 4617 C 414.858 0.334981 -4.48551 0
M  V30 4618 C 416.177 2.29112 -3.7576 0
M  V30 4619 H 413.296 0.254475 -0.691673 0
M  V30 4620 H 415.938 -0.0331678 -1.89971 0
M  V30 4621 H 414.088 1.98922 -3.3371 0
M  V30 4622 H 415.76 -0.292534 -4.60372 0
M  V30 4623 H 414.003 -0.344325 -4.32431 0
M  V30 4624 H 414.674 0.833316 -5.45674 0
M  V30 4625 H 417.15 1.76308 -3.76902 0
M  V30 4626 H 416.026 2.72043 -4.76743 0
M  V30 4627 H 416.287 3.16385 -3.08793 0
M  V30 4628 N 415.346 1.54954 0.287554 0
M  V30 4629 C 416.594 1.74528 1.01904 0
M  V30 4630 C 416.915 0.541349 1.87335 0
M  V30 4631 O 416.185 -0.444108 1.908 0
M  V30 4632 H 414.765 0.643576 0.379235 0
M  V30 4633 H 417.427 1.92333 0.315294 0
M  V30 4634 H 416.523 2.64015 1.6644 0
M  V30 4635 N 416.824 -0.551391 1.4764 0
M  V30 4636 C 417.771 -1.65796 1.60563 0
M  V30 4637 C 418.741 -1.59932 0.448428 0
M  V30 4638 O 419.926 -1.78679 0.669222 0
M  V30 4639 C 417.066 -3.04108 1.63133 0
M  V30 4640 C 416.179 -3.20365 2.89811 0
M  V30 4641 C 415.314 -4.49109 2.8368 0
M  V30 4642 C 414.353 -4.58819 4.05156 0
M  V30 4643 N 413.49 -5.78926 3.97227 0
M  V30 4644 H 418.33 -1.54088 2.5507 0
M  V30 4645 H 415.867 -0.75052 1.26513 0
M  V30 4646 H 417.825 -3.84207 1.62606 0
M  V30 4647 H 416.455 -3.14637 0.721341 0
M  V30 4648 H 415.507 -2.33659 3.00179 0
M  V30 4649 H 416.819 -3.23402 3.79753 0
M  V30 4650 H 415.973 -5.37475 2.81434 0
M  V30 4651 H 414.712 -4.4856 1.91431 0
M  V30 4652 H 413.717 -3.68864 4.077 0
M  V30 4653 H 414.942 -4.61124 4.98539 0
M  V30 4654 H 412.888 -5.79314 3.07785 0
M  V30 4655 H 412.805 -5.83367 4.80853 0
M  V30 4656 H 414.073 -6.69637 3.99007 0
M  V30 4657 N 418.302 -1.35869 -0.798587 0
M  V30 4658 C 419.532 -1.32529 -1.58491 0
M  V30 4659 C 419.94 0.0975405 -1.88948 0
M  V30 4660 O 419.283 1.06224 -1.49874 0
M  V30 4661 C 419.345 -2.07247 -2.9375 0
M  V30 4662 C 419.009 -3.56391 -2.86068 0
M  V30 4663 C 420.006 -4.50824 -2.58947 0
M  V30 4664 C 417.691 -3.9915 -3.04933 0
M  V30 4665 C 419.685 -5.85993 -2.5078 0
M  V30 4666 C 417.372 -5.34413 -2.96389 0
M  V30 4667 C 418.37 -6.27646 -2.69349 0
M  V30 4668 O 418.058 -7.60426 -2.60782 0
M  V30 4669 H 417.79 -0.456529 -0.498556 0
M  V30 4670 H 420.344 -1.79425 -0.999799 0
M  V30 4671 H 418.574 -1.55001 -3.54276 0
M  V30 4672 H 420.263 -1.96883 -3.54954 0
M  V30 4673 H 421.029 -4.19104 -2.44084 0
M  V30 4674 H 416.908 -3.26961 -3.24989 0
M  V30 4675 H 420.452 -6.58735 -2.29595 0
M  V30 4676 H 416.349 -5.65743 -3.10813 0
M  V30 4677 H 417.117 -7.70444 -2.76331 0
M  V30 4678 N 419.78 1.02168 -1.19998 0
M  V30 4679 C 421.008 1.79296 -1.03249 0
M  V30 4680 C 421.423 1.84103 0.418502 0
M  V30 4681 O 420.78 1.29031 1.29063 0
M  V30 4682 C 420.831 3.24007 -1.60319 0
M  V30 4683 O 420.552 3.19512 -2.99739 0
M  V30 4684 C 422.053 4.17704 -1.48453 0
M  V30 4685 H 419.273 0.564016 -0.363493 0
M  V30 4686 H 421.817 1.28639 -1.58973 0
M  V30 4687 H 419.972 3.7183 -1.08727 0
M  V30 4688 H 420.386 4.10306 -3.26725 0
M  V30 4689 H 421.86 5.17104 -1.93153 0
M  V30 4690 H 422.337 4.37029 -0.436193 0
M  V30 4691 H 422.943 3.7576 -1.99211 0
M  V30 4692 N 421.258 1.00505 1.21394 0
M  V30 4693 C 422.191 0.51032 2.22421 0
M  V30 4694 C 423.169 -0.436 1.56645 0
M  V30 4695 O 424.353 -0.358709 1.85055 0
M  V30 4696 C 421.48 -0.258733 3.3771 0
M  V30 4697 C 420.526 0.635395 4.2174 0
M  V30 4698 S 421.359 2.09783 4.92698 0
M  V30 4699 C 422.515 1.33862 6.11418 0
M  V30 4700 H 422.748 1.36637 2.64041 0
M  V30 4701 H 420.281 0.812991 1.31262 0
M  V30 4702 H 422.239 -0.696372 4.0455 0
M  V30 4703 H 420.9 -1.0902 2.94573 0
M  V30 4704 H 420.093 0.0430189 5.03982 0
M  V30 4705 H 419.695 1.01031 3.60095 0
M  V30 4706 H 421.987 0.612541 6.74725 0
M  V30 4707 H 422.93 2.13675 6.75092 0
M  V30 4708 H 423.338 0.846568 5.58116 0
M  V30 4709 N 422.737 -1.36956 0.779787 0
M  V30 4710 C 423.983 -1.99787 0.348281 0
M  V30 4711 C 424.316 -1.61756 -1.07465 0
M  V30 4712 O 423.591 -0.867639 -1.74075 0
M  V30 4713 C 423.874 -3.56597 0.50104 0
M  V30 4714 C 423.727 -4.04513 1.96697 0
M  V30 4715 C 425.046 -4.40008 -0.0898097 0
M  V30 4716 H 422.165 -0.725796 0.128022 0
M  V30 4717 H 424.807 -1.62514 0.984331 0
M  V30 4718 H 422.957 -3.88479 -0.0404347 0
M  V30 4719 H 424.629 -3.83161 2.56876 0
M  V30 4720 H 422.872 -3.56408 2.47297 0
M  V30 4721 H 423.543 -5.1352 2.02486 0
M  V30 4722 H 426.019 -4.14431 0.372293 0
M  V30 4723 H 424.895 -5.4888 0.0471605 0
M  V30 4724 H 425.156 -4.26035 -1.18096 0
M  V30 4725 N 424.215 -0.530993 -1.48385 0
M  V30 4726 C 425.462 0.0027373 -2.025 0
M  V30 4727 C 425.79 1.34186 -1.40799 0
M  V30 4728 O 425.045 1.88 -0.543544 0
M  V30 4729 C 425.344 0.172742 -3.56982 0
M  V30 4730 C 425.01 -1.09215 -4.37473 0
M  V30 4731 C 423.672 -1.43881 -4.59186 0
M  V30 4732 C 426.024 -1.93153 -4.84088 0
M  V30 4733 C 423.352 -2.62381 -5.2476 0
M  V30 4734 C 425.704 -3.10833 -5.50968 0
M  V30 4735 C 424.368 -3.45843 -5.70919 0
M  V30 4736 H 423.638 0.00100165 -0.740999 0
M  V30 4737 H 426.285 -0.697219 -1.78357 0
M  V30 4738 H 424.59 0.955473 -3.79971 0
M  V30 4739 H 426.287 0.600642 -3.96476 0
M  V30 4740 H 422.877 -0.812177 -4.20834 0
M  V30 4741 H 427.061 -1.67683 -4.67115 0
M  V30 4742 H 422.317 -2.89707 -5.38405 0
M  V30 4743 H 426.491 -3.7618 -5.86056 0
M  V30 4744 H 424.118 -4.37764 -6.21503 0
M  V30 4745 N 425.693 1.55336 -0.266172 0
M  V30 4746 C 426.643 2.18848 0.639497 0
M  V30 4747 C 427.627 1.1503 1.12503 0
M  V30 4748 O 428.819 1.40875 1.0716 0
M  V30 4749 C 425.948 2.90626 1.82733 0
M  V30 4750 C 425.034 4.01723 1.35939 0
M  V30 4751 N 425.425 5.02145 0.606988 0
M  V30 4752 C 423.723 4.1463 1.6431 0
M  V30 4753 C 424.424 5.80572 0.362138 0
M  V30 4754 N 423.4 5.35551 0.931971 0
M  V30 4755 H 427.202 2.93845 0.0567057 0
M  V30 4756 H 424.716 1.62252 -0.0693312 0
M  V30 4757 H 426.713 3.34569 2.48735 0
M  V30 4758 H 425.373 2.17137 2.41416 0
M  V30 4759 H 426.384 5.17271 0.255198 0
M  V30 4760 H 423.061 3.52326 2.23993 0
M  V30 4761 H 424.451 6.71472 -0.239848 0
M  V30 4762 N 427.171 -0.0066808 1.57599 0
M  V30 4763 C 428.399 -0.704087 1.94551 0
M  V30 4764 C 428.814 -1.67677 0.867746 0
M  V30 4765 O 428.171 -1.8185 -0.153925 0
M  V30 4766 C 428.222 -1.44177 3.31505 0
M  V30 4767 O 427.943 -0.508097 4.35144 0
M  V30 4768 C 429.444 -2.23429 3.82876 0
M  V30 4769 H 426.664 -0.196523 0.641576 0
M  V30 4770 H 429.208 0.042453 2.04456 0
M  V30 4771 H 427.363 -2.13999 3.22929 0
M  V30 4772 H 427.777 -1.02782 5.14331 0
M  V30 4773 H 429.251 -2.70552 4.8115 0
M  V30 4774 H 429.728 -3.05818 3.15233 0
M  V30 4775 H 430.334 -1.58636 3.94607 0
M  V30 4776 N 428.649 -1.55105 -0.279332 0
M  V30 4777 C 430.065 -1.46803 -0.626187 0
M  V30 4778 C 430.265 -0.676939 -1.89789 0
M  V30 4779 O 429.321 -0.19326 -2.51759 0
M  V30 4780 C 430.634 -2.90962 -0.759034 0
M  V30 4781 C 432.182 -3.01138 -0.853504 0
M  V30 4782 C 432.657 -4.46539 -1.01818 0
M  V30 4783 N 434.148 -4.50341 -1.08386 0
M  V30 4784 C 434.883 -5.60053 -1.22996 0
M  V30 4785 N 434.379 -6.79645 -1.34366 0
M  V30 4786 N 436.172 -5.47783 -1.26056 0
M  V30 4787 H 428.323 -2.04996 0.555921 0
M  V30 4788 H 430.586 -0.929325 0.187239 0
M  V30 4789 H 430.292 -3.51544 0.104852 0
M  V30 4790 H 430.166 -3.39619 -1.64131 0
M  V30 4791 H 432.553 -2.40658 -1.70786 0
M  V30 4792 H 432.634 -2.55745 0.0532466 0
M  V30 4793 H 432.278 -5.0762 -0.168504 0
M  V30 4794 H 432.208 -4.89583 -1.93948 0
M  V30 4795 H 434.699 -3.64191 -1.00864 0
M  V30 4796 H 435.012 -7.59012 -1.4533 0
M  V30 4797 H 433.357 -6.82469 -1.31382 0
M  V30 4798 H 436.548 -4.53294 -1.168 0
M  V30 4799 H 436.721 -6.33331 -1.37098 0
M  V30 4800 N 430.127 0.543554 -1.4793 0
M  V30 4801 C 431.404 1.30458 -1.4574 0
M  V30 4802 C 431.784 2.1048 -0.161692 0
M  V30 4803 O 431.132 2.11831 0.856734 0
M  V30 4804 C 431.342 2.19754 -2.71126 0
M  V30 4805 C 432.69 2.80334 -3.18901 0
M  V30 4806 O 433.714 2.30049 -2.71948 0
M  V30 4807 O 432.573 3.71766 -4.00565 0
M  V30 4808 H 429.667 0.588117 -0.581418 0
M  V30 4809 H 432.213 0.561328 -1.60147 0
M  V30 4810 H 430.985 1.60316 -3.56952 0
M  V30 4811 H 430.608 3.01351 -2.59371 0
M  V30 4812 N 431.605 1.3629 0.791371 0
M  V30 4813 C 432.552 1.30458 1.90393 0
M  V30 4814 C 433.522 0.173632 1.6519 0
M  V30 4815 O 434.707 0.35983 1.87376 0
M  V30 4816 C 431.847 1.09777 3.27174 0
M  V30 4817 C 430.96 2.31929 3.64462 0
M  V30 4818 C 430.095 2.04276 4.90352 0
M  V30 4819 C 429.134 3.224 5.20312 0
M  V30 4820 N 428.271 2.94424 6.37385 0
M  V30 4821 H 433.111 2.25589 1.94714 0
M  V30 4822 H 430.648 1.12122 0.952216 0
M  V30 4823 H 432.606 0.958133 4.06049 0
M  V30 4824 H 431.236 0.183014 3.22281 0
M  V30 4825 H 430.288 2.56703 2.80727 0
M  V30 4826 H 431.6 3.20085 3.82553 0
M  V30 4827 H 430.754 1.87231 5.77087 0
M  V30 4828 H 429.493 1.13428 4.74326 0
M  V30 4829 H 428.498 3.40005 4.32061 0
M  V30 4830 H 429.723 4.14071 5.38258 0
M  V30 4831 H 427.669 2.06185 6.22755 0
M  V30 4832 H 427.586 3.76118 6.55798 0
M  V30 4833 H 428.854 2.80953 7.27108 0
M  V30 4834 N 433.083 -1.0153 1.20538 0
M  V30 4835 C 434.331 -1.74803 1.01432 0
M  V30 4836 C 434.652 -1.8963 -0.454456 0
M  V30 4837 O 433.922 -1.43975 -1.32846 0
M  V30 4838 H 432.502 -0.647598 0.372324 0
M  V30 4839 H 435.164 -1.22402 1.5167 0
M  V30 4840 H 434.26 -2.75114 1.47373 0
M  V30 4841 N 434.561 -1.01147 -1.20859 0
M  V30 4842 C 435.509 -0.57059 -2.25493 0
M  V30 4843 C 436.503 0.388109 -1.64894 0
M  V30 4844 O 437.709 0.258592 -1.78133 0
M  V30 4845 H 434.084 -0.166191 -0.733406 0
M  V30 4846 H 436.055 -1.46411 -2.60012 0
M  V30 4847 C 434.804 0.0805241 -3.47607 0
M  V30 4848 H 434.127 -0.648156 -3.94511 0
M  V30 4849 H 435.567 0.352197 -4.22535 0
M  V30 4850 C 434.026 1.32175 -3.09889 0
M  V30 4851 O 434.556 2.41553 -3.20959 0
M  V30 4852 N 432.762 1.20392 -2.64488 0
M  V30 4853 H 432.309 0.313905 -2.5568 0
M  V30 4854 H 432.267 2.03541 -2.39621 0
M  V30 4855 N 436.039 1.36541 -0.78704 0
M  V30 4856 C 436.949 2.3387 -0.184896 0
M  V30 4857 C 437.965 1.60927 0.661697 0
M  V30 4858 O 439.141 1.92927 0.57804 0
M  V30 4859 C 436.206 3.40122 0.672145 0
M  V30 4860 C 435.267 4.28867 -0.19267 0
M  V30 4861 C 434.5 5.30045 0.623561 0
M  V30 4862 O 434.723 5.39232 1.8597 0
M  V30 4863 O 433.657 6.01895 0.0247068 0
M  V30 4864 H 437.483 2.87126 -0.989562 0
M  V30 4865 H 435.068 1.38969 -0.548455 0
M  V30 4866 H 436.95 4.05093 1.16094 0
M  V30 4867 H 435.625 2.89169 1.45474 0
M  V30 4868 H 434.532 3.66945 -0.728166 0
M  V30 4869 H 435.865 4.83165 -0.938722 0
M  V30 4870 N 437.518 0.538854 1.48102 0
M  V30 4871 C 438.764 0.00801365 2.02798 0
M  V30 4872 C 439.097 -1.3309 1.41424 0
M  V30 4873 O 438.372 -1.86169 0.563158 0
M  V30 4874 C 438.655 -0.104589 3.59948 0
M  V30 4875 C 438.508 1.26012 4.31788 0
M  V30 4876 C 439.827 -0.827055 4.32259 0
M  V30 4877 H 436.946 0.00438624 0.736987 0
M  V30 4878 H 439.588 0.6976 1.7673 0
M  V30 4879 H 437.738 -0.691893 3.82289 0
M  V30 4880 H 439.41 1.88922 4.2084 0
M  V30 4881 H 437.653 1.83968 3.92859 0
M  V30 4882 H 438.324 1.13424 5.40221 0
M  V30 4883 H 440.8 -0.328578 4.14801 0
M  V30 4884 H 439.676 -0.87476 5.41885 0
M  V30 4885 H 439.937 -1.87927 4.0017 0
M  V30 4886 N 438.996 -1.55193 0.274407 0
M  V30 4887 C 439.944 -2.23924 -0.629362 0
M  V30 4888 C 440.938 -1.23602 -1.1584 0
M  V30 4889 O 442.144 -1.41535 -1.11211 0
M  V30 4890 H 438.519 -0.718637 -0.221507 0
M  V30 4891 H 440.49 -2.98388 -0.0268322 0
M  V30 4892 C 439.239 -2.97329 -1.80252 0
M  V30 4893 H 438.562 -3.74313 -1.40462 0
M  V30 4894 H 440.002 -3.48743 -2.41152 0
M  V30 4895 C 438.461 -2.0276 -2.69054 0
M  V30 4896 O 438.991 -1.57836 -3.69392 0
M  V30 4897 N 437.197 -1.69275 -2.36208 0
M  V30 4898 H 436.744 -2.06004 -1.54661 0
M  V30 4899 H 436.702 -1.06271 -2.95895 0
M  V30 4900 N 440.474 -0.00167713 -1.576 0
M  V30 4901 C 441.437 0.974046 -2.07473 0
M  V30 4902 C 442.437 1.27143 -0.984444 0
M  V30 4903 O 443.627 1.21633 -1.24703 0
M  V30 4904 C 440.759 2.29849 -2.51759 0
M  V30 4905 H 441.952 0.54262 -2.9495 0
M  V30 4906 H 439.505 0.245829 -1.54355 0
M  V30 4907 H 440.24 2.77677 -1.67529 0
M  V30 4908 H 440.025 2.09584 -3.31386 0
M  V30 4909 H 441.515 2.9984 -2.90664 0
M  V30 4910 N 441.952 1.55251 0.271103 0
M  V30 4911 C 442.862 1.9136 1.35714 0
M  V30 4912 C 443.878 0.811075 1.5394 0
M  V30 4913 O 445.054 1.11031 1.6803 0
M  V30 4914 C 442.119 2.1798 2.69603 0
M  V30 4915 C 441.18 3.4153 2.60107 0
M  V30 4916 C 440.413 3.66871 3.8761 0
M  V30 4917 O 440.636 2.94689 4.8838 0
M  V30 4918 O 439.57 4.60405 3.87699 0
M  V30 4919 H 443.396 2.83815 1.08088 0
M  V30 4920 H 440.981 1.41821 0.469792 0
M  V30 4921 H 442.863 2.36518 3.48765 0
M  V30 4922 H 441.538 1.28708 2.97012 0
M  V30 4923 H 440.445 3.28325 1.79314 0
M  V30 4924 H 441.778 4.31027 2.37647 0
M  V30 4925 N 443.43 -0.535701 1.48216 0
M  V30 4926 C 444.846 -0.863701 1.3421 0
M  V30 4927 C 445.046 -1.98458 0.34879 0
M  V30 4928 O 444.102 -2.51432 -0.23204 0
M  V30 4929 C 445.415 -1.23662 2.74095 0
M  V30 4930 C 446.963 -1.34683 2.82541 0
M  V30 4931 C 447.438 -1.75322 4.23115 0
M  V30 4932 N 448.929 -1.82434 4.2576 0
M  V30 4933 C 449.664 -2.15252 5.31464 0
M  V30 4934 N 449.16 -2.46533 6.47452 0
M  V30 4935 N 450.953 -2.16209 5.18855 0
M  V30 4936 H 443.104 0.203965 2.11418 0
M  V30 4937 H 445.367 0.0286033 0.947568 0
M  V30 4938 H 445.073 -0.486674 3.48316 0
M  V30 4939 H 444.947 -2.18805 3.07253 0
M  V30 4940 H 447.334 -2.08756 2.08579 0
M  V30 4941 H 447.415 -0.376756 2.5301 0
M  V30 4942 H 447.059 -1.01812 4.97591 0
M  V30 4943 H 446.989 -2.7337 4.50085 0
M  V30 4944 H 449.48 -1.6056 3.42095 0
M  V30 4945 H 449.793 -2.70662 7.23852 0
M  V30 4946 H 448.138 -2.44065 6.50736 0
M  V30 4947 H 451.329 -1.91224 4.2726 0
M  V30 4948 H 451.502 -2.41453 6.01335 0
M  V30 4949 N 444.908 -1.36708 -0.784132 0
M  V30 4950 C 445.841 -1.25827 -1.90375 0
M  V30 4951 C 446.819 -0.141331 -1.61985 0
M  V30 4952 O 448.003 -0.313389 -1.85877 0
M  V30 4953 C 445.13 -0.942621 -3.25319 0
M  V30 4954 C 444.176 -2.07474 -3.72635 0
M  V30 4955 S 445.009 -3.69317 -3.8777 0
M  V30 4956 C 446.165 -3.39876 -5.25581 0
M  V30 4957 H 446.398 -2.20593 -1.99314 0
M  V30 4958 H 443.931 -1.22186 -0.943926 0
M  V30 4959 H 445.889 -0.767321 -4.03265 0
M  V30 4960 H 444.55 -0.0126566 -3.14097 0
M  V30 4961 H 443.743 -1.80858 -4.70432 0
M  V30 4962 H 443.345 -2.20953 -3.01754 0
M  V30 4963 H 445.637 -2.94097 -6.10339 0
M  V30 4964 H 446.58 -4.36956 -5.57203 0
M  V30 4965 H 446.988 -2.75098 -4.92931 0
M  V30 4966 N 446.386 1.0089 -1.21074 0
M  V30 4967 C 447.333 2.09588 -0.966512 0
M  V30 4968 C 448.303 1.65761 0.106089 0
M  V30 4969 O 449.488 1.90758 -0.0402287 0
M  V30 4970 C 446.628 3.40958 -0.533058 0
M  V30 4971 C 445.741 3.9822 -1.67467 0
M  V30 4972 C 444.876 5.17682 -1.19076 0
M  V30 4973 C 443.915 5.67043 -2.30496 0
M  V30 4974 N 443.052 6.77759 -1.83267 0
M  V30 4975 H 447.892 2.29815 -1.89708 0
M  V30 4976 H 445.429 1.12689 -0.945489 0
M  V30 4977 H 447.387 4.1637 -0.263019 0
M  V30 4978 H 446.017 3.20781 0.360505 0
M  V30 4979 H 445.069 3.1983 -2.05944 0
M  V30 4980 H 446.381 4.3085 -2.51336 0
M  V30 4981 H 445.535 6.00326 -0.877151 0
M  V30 4982 H 444.274 4.86635 -0.322066 0
M  V30 4983 H 443.279 4.82999 -2.62664 0
M  V30 4984 H 444.504 6.00121 -3.17855 0
M  V30 4985 H 442.45 6.48527 -0.987356 0
M  V30 4986 H 442.367 7.09624 -2.60711 0
M  V30 4987 H 443.635 7.63949 -1.54928 0
M  V30 4988 N 447.864 1.01787 1.20321 0
M  V30 4989 C 448.794 0.609625 2.25401 0
M  V30 4990 C 449.775 -0.375951 1.65893 0
M  V30 4991 O 450.96 -0.261101 1.92437 0
M  V30 4992 C 448.09 -0.0515995 3.47262 0
M  V30 4993 C 447.044 0.855095 4.19371 0
M  V30 4994 C 446.37 0.0595757 5.34667 0
M  V30 4995 C 447.67 2.16374 4.75373 0
M  V30 4996 H 449.364 1.48803 2.59804 0
M  V30 4997 H 446.91 0.716934 1.24884 0
M  V30 4998 H 448.863 -0.348764 4.19954 0
M  V30 4999 H 447.587 -0.964726 3.12027 0
M  V30 5000 H 446.246 1.13628 3.48546 0
M  V30 5001 H 445.894 -0.85524 4.95676 0
M  V30 5002 H 445.594 0.663406 5.83843 0
M  V30 5003 H 447.118 -0.231105 6.10162 0
M  V30 5004 H 448.532 1.92885 5.39878 0
M  V30 5005 H 446.929 2.71853 5.34991 0
M  V30 5006 H 447.999 2.82589 3.94045 0
M  V30 5007 N 449.342 -1.36122 0.79427 0
M  V30 5008 C 450.272 -2.32551 0.210328 0
M  V30 5009 C 451.253 -1.56884 -0.657386 0
M  V30 5010 O 452.438 -1.85014 -0.590207 0
M  V30 5011 C 449.568 -3.41128 -0.651819 0
M  V30 5012 C 448.522 -4.27842 0.116395 0
M  V30 5013 C 447.848 -5.2763 -0.86666 0
M  V30 5014 C 449.148 -5.05647 1.30837 0
M  V30 5015 H 450.842 -2.81636 1.01594 0
M  V30 5016 H 448.388 -1.35407 0.489981 0
M  V30 5017 H 450.341 -4.07581 -1.07031 0
M  V30 5018 H 449.065 -2.90622 -1.49019 0
M  V30 5019 H 447.724 -3.62952 0.515915 0
M  V30 5020 H 447.372 -4.73395 -1.70019 0
M  V30 5021 H 447.072 -5.86514 -0.35705 0
M  V30 5022 H 448.596 -5.96955 -1.28361 0
M  V30 5023 H 450.01 -5.65113 0.965393 0
M  V30 5024 H 448.407 -5.73967 1.75161 0
M  V30 5025 H 449.477 -4.37006 2.10128 0
M  V30 5026 N 450.82 -0.546701 -1.47814 0
M  V30 5027 C 451.77 0.227042 -2.26867 0
M  V30 5028 C 452.754 0.894844 -1.33721 0
M  V30 5029 O 453.946 0.794887 -1.58147 0
M  V30 5030 C 451.075 1.26299 -3.19223 0
M  V30 5031 C 450.161 0.59913 -4.19847 0
M  V30 5032 N 450.552 -0.324777 -5.04756 0
M  V30 5033 C 448.85 0.854331 -4.37741 0
M  V30 5034 C 449.551 -0.709386 -5.77358 0
M  V30 5035 N 448.527 -0.0666153 -5.43559 0
M  V30 5036 H 452.329 -0.483476 -2.89896 0
M  V30 5037 H 449.843 -0.365893 -1.58224 0
M  V30 5038 H 451.84 1.83116 -3.74532 0
M  V30 5039 H 450.5 1.97471 -2.57751 0
M  V30 5040 H 451.511 -0.698351 -5.1317 0
M  V30 5041 H 448.188 1.55536 -3.87447 0
M  V30 5042 H 449.578 -1.46796 -6.55668 0
M  V30 5043 N 452.299 1.55045 -0.282633 0
M  V30 5044 C 453.231 2.2023 0.634924 0
M  V30 5045 C 454.244 1.18931 1.11172 0
M  V30 5046 O 455.433 1.4562 1.03233 0
M  V30 5047 C 452.533 2.82041 1.87899 0
M  V30 5048 C 451.706 4.091 1.54776 0
M  V30 5049 C 450.765 4.54887 2.64507 0
M  V30 5050 O 449.791 5.20496 2.30375 0
M  V30 5051 N 450.993 4.25659 3.94709 0
M  V30 5052 H 453.758 2.99601 0.0769811 0
M  V30 5053 H 451.319 1.61565 -0.104048 0
M  V30 5054 H 453.311 3.09613 2.60619 0
M  V30 5055 H 451.881 2.06618 2.3458 0
M  V30 5056 H 451.101 3.88736 0.654049 0
M  V30 5057 H 452.389 4.9187 1.30158 0
M  V30 5058 H 451.787 3.7306 4.25256 0
M  V30 5059 H 450.344 4.57984 4.63782 0
M  V30 5060 N 453.777 0.010035 1.57597 0
M  V30 5061 C 455.023 -0.673697 1.91283 0
M  V30 5062 C 455.356 -1.72863 0.884979 0
M  V30 5063 O 454.631 -1.94268 -0.0949487 0
M  V30 5064 C 454.914 -1.30766 3.35518 0
M  V30 5065 C 454.767 -0.263578 4.49027 0
M  V30 5066 C 456.086 -2.23105 3.79358 0
M  V30 5067 H 453.205 -0.243439 0.695634 0
M  V30 5068 H 455.847 0.0633864 1.89894 0
M  V30 5069 H 453.997 -1.93588 3.36832 0
M  V30 5070 H 455.669 0.365738 4.59848 0
M  V30 5071 H 453.912 0.413077 4.31829 0
M  V30 5072 H 454.583 -0.746398 5.4693 0
M  V30 5073 H 457.059 -1.70289 3.79659 0
M  V30 5074 H 455.935 -2.64424 4.81011 0
M  V30 5075 H 456.196 -3.11433 3.13787 0
M  V30 5076 N 455.255 -1.55392 -0.262866 0
M  V30 5077 C 456.48 -1.80847 -1.01533 0
M  V30 5078 C 456.905 -0.584946 -1.78774 0
M  V30 5079 O 456.263 0.465701 -1.75217 0
M  V30 5080 C 456.311 -3.03866 -1.94159 0
M  V30 5081 O 455.415 -2.79662 -3.03089 0
M  V30 5082 H 454.756 -0.597441 -0.289759 0
M  V30 5083 H 457.286 -2.02553 -0.288698 0
M  V30 5084 H 457.296 -3.32872 -2.35924 0
M  V30 5085 H 455.971 -3.92564 -1.37354 0
M  V30 5086 H 454.548 -2.61781 -2.65566 0
M  V30 5087 N 456.733 0.527833 -1.48498 0
M  V30 5088 C 458.149 0.856571 -1.34666 0
M  V30 5089 C 458.349 1.98271 -0.35931 0
M  V30 5090 O 457.405 2.51551 0.218703 0
M  V30 5091 C 458.718 1.22207 -2.74747 0
M  V30 5092 C 460.266 1.33183 -2.83251 0
M  V30 5093 C 460.741 1.73075 -4.24039 0
M  V30 5094 N 462.232 1.80174 -4.26722 0
M  V30 5095 C 462.967 2.1243 -5.32598 0
M  V30 5096 N 462.463 2.43096 -6.4875 0
M  V30 5097 N 464.256 2.13454 -5.19994 0
M  V30 5098 H 456.407 -0.215174 -2.11307 0
M  V30 5099 H 458.67 -0.0336281 -0.947403 0
M  V30 5100 H 458.376 0.468195 -3.4857 0
M  V30 5101 H 458.25 2.17173 -3.08409 0
M  V30 5102 H 460.637 2.07647 -2.09683 0
M  V30 5103 H 460.718 0.363333 -2.53206 0
M  V30 5104 H 460.362 0.991712 -4.98124 0
M  V30 5105 H 460.292 2.70979 -4.51529 0
M  V30 5106 H 462.783 1.58744 -3.42942 0
M  V30 5107 H 463.096 2.6682 -7.25277 0
M  V30 5108 H 461.441 2.40611 -6.52021 0
M  V30 5109 H 464.632 1.88956 -4.28268 0
M  V30 5110 H 464.805 2.38261 -6.02608 0
M  V30 5111 N 458.211 1.37122 0.776871 0
M  V30 5112 C 459.457 1.32243 1.53752 0
M  V30 5113 C 459.79 -0.0944745 1.9397 0
M  V30 5114 O 459.065 -1.05068 1.6368 0
M  V30 5115 C 459.348 2.25681 2.80607 0
M  V30 5116 C 459.201 3.76127 2.46676 0
M  V30 5117 C 460.52 2.17657 3.82509 0
M  V30 5118 H 457.639 0.481704 0.557791 0
M  V30 5119 H 460.281 1.6778 0.891612 0
M  V30 5120 H 458.431 1.95505 3.35723 0
M  V30 5121 H 460.103 4.16877 1.97513 0
M  V30 5122 H 458.346 3.94946 1.79443 0
M  V30 5123 H 459.017 4.36933 3.37333 0
M  V30 5124 H 461.493 2.44245 3.36873 0
M  V30 5125 H 460.369 2.85185 4.69 0
M  V30 5126 H 460.63 1.16785 4.26396 0
M  V30 5127 N 459.689 -1.00246 1.21608 0
M  V30 5128 C 460.935 -1.74417 1.04643 0
M  V30 5129 C 461.29 -1.87862 -0.415387 0
M  V30 5130 O 460.583 -1.40373 -1.30407 0
M  V30 5131 C 460.777 -3.15448 1.68009 0
M  V30 5132 C 460.606 -3.15755 3.20201 0
M  V30 5133 C 459.376 -3.2219 3.89258 0
M  V30 5134 C 461.574 -3.00668 4.17257 0
M  V30 5135 N 459.556 -3.1215 5.28617 0
M  V30 5136 C 460.927 -2.98553 5.43384 0
M  V30 5137 C 462.982 -2.84989 4.08272 0
M  V30 5138 C 461.685 -2.82364 6.61561 0
M  V30 5139 C 463.711 -2.70158 5.26088 0
M  V30 5140 C 463.073 -2.68721 6.51128 0
M  V30 5141 H 459.172 -0.648317 0.437274 0
M  V30 5142 H 461.756 -1.19129 1.54001 0
M  V30 5143 H 459.927 -3.69001 1.21215 0
M  V30 5144 H 461.659 -3.78128 1.44226 0
M  V30 5145 H 458.414 -3.29488 3.40198 0
M  V30 5146 H 458.838 -3.10465 6.01615 0
M  V30 5147 H 463.48 -2.84904 3.12393 0
M  V30 5148 H 461.198 -2.81196 7.57598 0
M  V30 5149 H 464.784 -2.59022 5.20959 0
M  V30 5150 H 463.664 -2.57382 7.40759 0
M  V30 5151 N 461.167 -1.02423 -1.1978 0
M  V30 5152 C 462.583 -0.740459 -1.41384 0
M  V30 5153 C 462.783 0.676827 -1.89793 0
M  V30 5154 O 461.839 1.4435 -2.0717 0
M  V30 5155 C 463.152 -1.77264 -2.42895 0
M  V30 5156 C 464.7 -1.79165 -2.56649 0
M  V30 5157 C 465.175 -2.8133 -3.6141 0
M  V30 5158 N 466.666 -2.80118 -3.68901 0
M  V30 5159 C 467.401 -3.55824 -4.49641 0
M  V30 5160 N 466.897 -4.41231 -5.34123 0
M  V30 5161 N 468.69 -3.44387 -4.44246 0
M  V30 5162 H 460.841 -1.9391 -0.866764 0
M  V30 5163 H 463.104 -0.838074 -0.443098 0
M  V30 5164 H 462.81 -2.7884 -2.14339 0
M  V30 5165 H 462.684 -1.59108 -3.42001 0
M  V30 5166 H 465.071 -0.782702 -2.84531 0
M  V30 5167 H 465.152 -2.01396 -1.57713 0
M  V30 5168 H 464.796 -3.82394 -3.34271 0
M  V30 5169 H 464.726 -2.56359 -4.59986 0
M  V30 5170 H 467.217 -2.1817 -3.08562 0
M  V30 5171 H 467.53 -4.95747 -5.92836 0
M  V30 5172 H 465.875 -4.45306 -5.33599 0
M  V30 5173 H 469.066 -2.7708 -3.77285 0
M  V30 5174 H 469.239 -4.0364 -5.06931 0
M  V30 5175 N 462.645 1.35699 -0.801477 0
M  V30 5176 C 463.873 2.03157 -0.391768 0
M  V30 5177 C 464.288 1.60412 0.995668 0
M  V30 5178 O 463.645 0.799228 1.64069 0
M  V30 5179 C 463.696 3.58566 -0.459671 0
M  V30 5180 O 463.417 3.99756 -1.7924 0
M  V30 5181 C 464.918 4.4328 -0.0421205 0
M  V30 5182 H 462.138 0.651688 -0.159825 0
M  V30 5183 H 464.682 1.73426 -1.08368 0
M  V30 5184 H 462.837 3.86963 0.183939 0
M  V30 5185 H 463.251 4.94387 -1.75162 0
M  V30 5186 H 464.725 5.51821 -0.140754 0
M  V30 5187 H 465.202 4.27383 1.01196 0
M  V30 5188 H 465.808 4.20168 -0.658687 0
M  V30 5189 N 464.123 0.554532 1.47522 0
M  V30 5190 C 465.4 -0.0360704 1.95567 0
M  V30 5191 C 465.78 -1.48828 1.49711 0
M  V30 5192 O 465.128 -2.16366 0.734717 0
M  V30 5193 C 465.338 0.106631 3.48837 0
M  V30 5194 C 466.686 -0.0400899 4.24581 0
M  V30 5195 O 467.71 0.0340453 3.56184 0
M  V30 5196 O 466.569 -0.199111 5.46137 0
M  V30 5197 H 463.663 -0.0656294 0.824392 0
M  V30 5198 H 466.209 0.620867 1.57935 0
M  V30 5199 H 464.981 1.11727 3.7501 0
M  V30 5200 H 464.604 -0.58804 3.93227 0
M  V30 5201 N 465.601 -1.54893 0.290851 0
M  V30 5202 C 466.849 -1.99538 -0.320756 0
M  V30 5203 C 467.17 -1.18075 -1.55188 0
M  V30 5204 O 466.44 -0.274162 -1.93972 0
M  V30 5205 H 465.02 -0.737052 -0.121507 0
M  V30 5206 H 467.682 -1.90755 0.399832 0
M  V30 5207 H 466.778 -3.06282 -0.599802 0
M  V30 5208 N 467.08 -0.0183926 -1.57589 0
M  V30 5209 C 468.01 0.965596 -2.12599 0
M  V30 5210 C 468.991 1.34641 -1.0395 0
M  V30 5211 O 470.176 1.42693 -1.31729 0
M  V30 5212 C 467.306 2.25149 -2.64434 0
M  V30 5213 C 466.26 2.01175 -3.77773 0
M  V30 5214 C 465.586 3.35937 -4.15994 0
M  V30 5215 C 466.886 1.35953 -5.04296 0
M  V30 5216 H 468.58 0.507504 -2.95067 0
M  V30 5217 H 466.126 0.242671 -1.41941 0
M  V30 5218 H 468.079 2.94357 -3.01549 0
M  V30 5219 H 466.803 2.73105 -1.79112 0
M  V30 5220 H 465.462 1.34388 -3.4108 0
M  V30 5221 H 465.11 3.81631 -3.27669 0
M  V30 5222 H 464.81 3.20705 -4.92364 0
M  V30 5223 H 466.334 4.0643 -4.55683 0
M  V30 5224 H 467.748 1.95144 -5.39065 0
M  V30 5225 H 466.145 1.31152 -5.85593 0
M  V30 5226 H 467.215 0.331071 -4.83768 0
M  V30 5227 N 468.558 1.5553 0.254621 0
M  V30 5228 C 469.783 1.81383 1.00573 0
M  V30 5229 C 470.208 0.594419 1.78461 0
M  V30 5230 O 469.566 -0.456403 1.75461 0
M  V30 5231 C 469.614 3.04892 1.92545 0
M  V30 5232 O 468.718 2.81266 3.01601 0
M  V30 5233 H 468.059 0.598969 0.286587 0
M  V30 5234 H 470.589 2.02703 0.277952 0
M  V30 5235 H 470.599 3.34119 2.34155 0
M  V30 5236 H 469.274 3.93287 1.3527 0
M  V30 5237 H 467.851 2.63185 2.64174 0
M  V30 5238 N 470.036 -0.519951 1.48776 0
M  V30 5239 C 471.261 -1.30447 1.6124 0
M  V30 5240 C 471.686 -1.86055 0.276591 0
M  V30 5241 O 471.044 -1.64915 -0.753183 0
M  V30 5242 C 471.092 -2.42406 2.66967 0
M  V30 5243 O 470.196 -3.45728 2.24824 0
M  V30 5244 H 469.537 -0.385924 0.540332 0
M  V30 5245 H 472.067 -0.624572 1.94834 0
M  V30 5246 H 472.077 -2.88447 2.88552 0
M  V30 5247 H 470.752 -2.01294 3.63941 0
M  V30 5248 H 469.329 -3.05737 2.13494 0
M  V30 5249 N 471.514 -1.37532 -0.769588 0
M  V30 5250 C 472.754 -1.34261 -1.54122 0
M  V30 5251 C 473.118 0.0717222 -1.91866 0
M  V30 5252 O 474.319 0.22918 -2.67821 0
M  V30 5253 C 472.59 -2.2574 -2.77086 0
M  V30 5254 S 474.149 -2.40339 -3.67127 0
M  V30 5255 H 470.967 -0.476595 -0.527615 0
M  V30 5256 H 473.569 -1.73303 -0.90479 0
M  V30 5257 H 472.273 -3.27417 -2.4744 0
M  V30 5258 H 471.804 -1.87789 -3.45686 0
M  V30 5259 H 473.819 -1.61558 -4.69163 0
M  V30 5260 N 472.992 0.995999 -1.22138 0
M  V30 5261 C 474.217 1.77601 -1.0711 0
M  V30 5262 C 474.642 1.84339 0.374264 0
M  V30 5263 O 474 1.29359 1.27028 0
M  V30 5264 C 474.048 3.18897 -1.68336 0
M  V30 5265 O 473.152 4.01663 -0.934928 0
M  V30 5266 H 472.493 0.547011 -0.376397 0
M  V30 5267 H 475.023 1.25137 -1.6187 0
M  V30 5268 H 475.033 3.69539 -1.72931 0
M  V30 5269 H 473.708 3.13308 -2.73516 0
M  V30 5270 H 472.285 3.60204 -0.964751 0
M  V30 5271 N 474.47 1.03057 1.19235 0
M  V30 5272 C 475.7 0.746613 1.92638 0
M  V30 5273 C 476.108 -0.698708 1.75826 0
M  V30 5274 O 475.451 -1.487 1.07861 0
M  V30 5275 C 475.513 1.02024 3.44719 0
M  V30 5276 C 475.177 2.45745 3.85303 0
M  V30 5277 C 476.174 3.43887 3.8992 0
M  V30 5278 C 473.859 2.8019 4.16892 0
M  V30 5279 C 475.853 4.74529 4.2556 0
M  V30 5280 C 473.54 4.1104 4.52205 0
M  V30 5281 C 474.538 5.0802 4.56513 0
M  V30 5282 O 474.226 6.36527 4.91008 0
M  V30 5283 H 473.958 0.272401 0.618687 0
M  V30 5284 H 476.512 1.37853 1.52269 0
M  V30 5285 H 474.742 0.331184 3.85279 0
M  V30 5286 H 476.431 0.725677 3.9936 0
M  V30 5287 H 477.197 3.18614 3.65664 0
M  V30 5288 H 473.076 2.05382 4.12722 0
M  V30 5289 H 476.62 5.50222 4.28838 0
M  V30 5290 H 472.517 4.36086 4.7592 0
M  V30 5291 H 473.285 6.41025 5.08949 0
M  V30 5292 N 475.948 -1.35272 0.808662 0
M  V30 5293 C 476.895 -2.29764 0.218482 0
M  V30 5294 C 477.865 -1.52911 -0.648652 0
M  V30 5295 O 479.05 -1.81341 -0.593297 0
M  V30 5296 C 476.19 -3.39388 -0.625282 0
M  V30 5297 C 475.303 -4.31202 0.262516 0
M  V30 5298 C 474.438 -5.27919 -0.589451 0
M  V30 5299 C 473.477 -6.11371 0.298617 0
M  V30 5300 N 472.614 -7.0022 -0.513443 0
M  V30 5301 H 477.454 -2.79645 1.02968 0
M  V30 5302 H 474.991 -1.37629 0.519303 0
M  V30 5303 H 476.949 -4.01615 -1.12966 0
M  V30 5304 H 475.579 -2.90777 -1.40173 0
M  V30 5305 H 474.631 -3.69962 0.885013 0
M  V30 5306 H 475.943 -4.89748 0.945971 0
M  V30 5307 H 475.097 -5.95529 -1.15888 0
M  V30 5308 H 473.836 -4.69875 -1.30647 0
M  V30 5309 H 472.841 -5.42707 0.880301 0
M  V30 5310 H 474.066 -6.71494 1.01352 0
M  V30 5311 H 472.012 -6.44662 -1.21439 0
M  V30 5312 H 471.929 -7.55917 0.111922 0
M  V30 5313 H 473.197 -7.72175 -1.06608 0
M  V30 5314 N 477.426 -0.562348 -1.47226 0
M  V30 5315 C 478.356 0.170627 -2.32876 0
M  V30 5316 C 479.337 0.903748 -1.44106 0
M  V30 5317 O 480.522 0.883206 -1.72954 0
M  V30 5318 C 477.652 1.19786 -3.25989 0
M  V30 5319 C 476.606 0.580875 -4.2404 0
M  V30 5320 C 475.932 1.71311 -5.06514 0
M  V30 5321 C 477.232 -0.468714 -5.20193 0
M  V30 5322 H 478.926 -0.544441 -2.94408 0
M  V30 5323 H 476.472 -0.263271 -1.41573 0
M  V30 5324 H 478.425 1.71884 -3.84752 0
M  V30 5325 H 477.149 1.94294 -2.62521 0
M  V30 5326 H 475.808 0.0811538 -3.6651 0
M  V30 5327 H 475.456 2.44736 -4.39447 0
M  V30 5328 H 475.156 1.30604 -5.72902 0
M  V30 5329 H 476.68 2.23725 -5.68137 0
M  V30 5330 H 478.094 -0.0336028 -5.7329 0
M  V30 5331 H 476.491 -0.794957 -5.94811 0
M  V30 5332 H 477.561 -1.36269 -4.65359 0
M  V30 5333 N 478.904 1.54736 -0.299062 0
M  V30 5334 C 480.15 2.00397 0.311244 0
M  V30 5335 C 480.483 1.18716 1.53688 0
M  V30 5336 O 479.758 0.263154 1.92712 0
M  V30 5337 C 480.041 3.53817 0.669761 0
M  V30 5338 C 479.894 4.46239 -0.564882 0
M  V30 5339 C 481.213 4.13856 1.49702 0
M  V30 5340 H 478.332 0.728493 0.111653 0
M  V30 5341 H 480.974 1.85506 -0.410774 0
M  V30 5342 H 479.124 3.66637 1.28491 0
M  V30 5343 H 480.796 4.45328 -1.20337 0
M  V30 5344 H 479.039 4.16916 -1.19849 0
M  V30 5345 H 479.71 5.5134 -0.269918 0
M  V30 5346 H 482.186 4.04461 0.977284 0
M  V30 5347 H 481.062 5.21365 1.71666 0
M  V30 5348 H 481.323 3.65608 2.48563 0
M  V30 5349 N 480.382 0.0267497 1.57577 0
M  V30 5350 C 481.607 -0.666227 1.96408 0
M  V30 5351 C 482.032 -1.65004 0.903071 0
M  V30 5352 O 481.39 -1.80787 -0.136263 0
M  V30 5353 C 481.438 -1.35101 3.34335 0
M  V30 5354 O 480.542 -2.46623 3.30531 0
M  V30 5355 H 479.883 -0.175206 0.640468 0
M  V30 5356 H 482.413 0.0878977 2.04411 0
M  V30 5357 H 482.423 -1.70834 3.70513 0
M  V30 5358 H 481.098 -0.629844 4.11103 0
M  V30 5359 H 479.675 -2.13019 3.06068 0
M  V30 5360 N 481.861 -1.55662 -0.24637 0
M  V30 5361 C 483.107 -1.77782 -0.975779 0
M  V30 5362 C 483.44 -0.592103 -1.84953 0
M  V30 5363 O 482.715 0.409588 -1.90138 0
M  V30 5364 C 482.998 -3.09788 -1.83584 0
M  V30 5365 C 482.851 -4.38764 -0.990241 0
M  V30 5366 C 484.17 -3.38029 -2.81823 0
M  V30 5367 H 481.289 -0.646789 -0.353317 0
M  V30 5368 H 483.931 -1.88398 -0.246248 0
M  V30 5369 H 482.081 -3.00869 -2.45784 0
M  V30 5370 H 483.753 -4.59675 -0.386897 0
M  V30 5371 H 481.996 -4.32798 -0.294626 0
M  V30 5372 H 482.667 -5.27514 -1.62584 0
M  V30 5373 H 485.143 -3.46915 -2.2976 0
M  V30 5374 H 484.019 -4.3161 -3.39122 0
M  V30 5375 H 484.28 -2.58968 -3.58313 0
M  V30 5376 N 483.339 0.512053 -1.4905 0
M  V30 5377 C 484.249 1.64139 -1.67617 0
M  V30 5378 C 485.265 1.64786 -0.558701 0
M  V30 5379 O 486.441 1.8341 -0.832034 0
M  V30 5380 C 483.506 3.00548 -1.72835 0
M  V30 5381 C 482.567 3.10615 -2.96339 0
M  V30 5382 C 481.8 4.40517 -3.01298 0
M  V30 5383 O 482.023 5.28671 -2.14157 0
M  V30 5384 O 480.957 4.55325 -3.93653 0
M  V30 5385 H 484.783 1.51407 -2.63267 0
M  V30 5386 H 482.368 0.687131 -1.32661 0
M  V30 5387 H 484.25 3.81641 -1.78683 0
M  V30 5388 H 482.925 3.13566 -0.803616 0
M  V30 5389 H 481.832 2.2875 -2.96014 0
M  V30 5390 H 483.165 3.0252 -3.88256 0
M  V30 5391 N 484.817 1.37938 0.762283 0
M  V30 5392 C 485.767 1.30976 1.86626 0
M  V30 5393 C 486.751 0.195714 1.59705 0
M  V30 5394 O 487.943 0.430937 1.71674 0
M  V30 5395 C 485.072 1.12847 3.24223 0
M  V30 5396 C 484.158 2.28836 3.57064 0
M  V30 5397 N 484.549 3.54256 3.61022 0
M  V30 5398 C 482.847 2.21198 3.87282 0
M  V30 5399 C 483.548 4.30798 3.90881 0
M  V30 5400 N 482.524 3.60049 4.07266 0
M  V30 5401 H 486.326 2.25946 1.87951 0
M  V30 5402 H 483.84 1.31046 0.959206 0
M  V30 5403 H 485.837 1.05943 4.03214 0
M  V30 5404 H 484.497 0.188024 3.24155 0
M  V30 5405 H 485.508 3.8804 3.42995 0
M  V30 5406 H 482.185 1.35264 3.94981 0
M  V30 5407 H 483.575 5.39386 4.00639 0
M  V30 5408 N 486.295 -0.989507 1.22664 0
M  V30 5409 C 487.243 -2.10148 0.997035 0
M  V30 5410 C 488.237 -1.6929 -0.0609783 0
M  V30 5411 O 489.443 -1.79766 0.0917523 0
M  V30 5412 H 485.818 -0.687256 0.305259 0
M  V30 5413 H 487.789 -2.26685 1.94053 0
M  V30 5414 C 486.538 -3.4257 0.595085 0
M  V30 5415 H 485.861 -3.74453 1.40089 0
M  V30 5416 H 487.301 -4.21344 0.473869 0
M  V30 5417 C 485.76 -3.29638 -0.695725 0
M  V30 5418 O 486.29 -3.61709 -1.74727 0
M  V30 5419 N 484.496 -2.82814 -0.668173 0
M  V30 5420 H 484.043 -2.56914 0.18787 0
M  V30 5421 H 484.001 -2.74544 -1.5321 0
M  V30 5422 N 487.773 -1.03688 -1.18687 0
M  V30 5423 C 489.184 -0.766488 -1.70241 0
M  V30 5424 C 489.535 0.713052 -1.82784 0
M  V30 5425 O 488.66 1.55529 -1.50465 0
M  V30 5426 C 489.255 -1.38475 -3.09209 0
M  V30 5427 C 487.814 -1.16276 -3.5799 0
M  V30 5428 C 486.961 -1.4778 -2.34641 0
M  V30 5429 H 489.912 -1.20378 -1.03415 0
M  V30 5430 H 489.933 -0.785939 -3.72295 0
M  V30 5431 H 489.445 -2.46157 -3.00048 0
M  V30 5432 H 487.546 -0.104508 -3.72453 0
M  V30 5433 H 487.659 -1.8571 -4.41643 0
M  V30 5434 H 486.023 -0.897366 -2.38368 0
M  V30 5435 H 486.806 -2.56562 -2.28102 0
M  V30 5436 N 489.251 1.34841 -0.815825 0
M  V30 5437 C 490.181 2.32187 -0.247298 0
M  V30 5438 C 491.162 1.5791 0.632344 0
M  V30 5439 O 492.347 1.8593 0.560698 0
M  V30 5440 C 489.477 3.42122 0.597466 0
M  V30 5441 C 488.431 4.27602 -0.184446 0
M  V30 5442 C 487.757 5.28942 0.782609 0
M  V30 5443 C 489.057 5.03502 -1.38865 0
M  V30 5444 H 490.751 2.79985 -1.06061 0
M  V30 5445 H 488.297 1.34611 -0.511461 0
M  V30 5446 H 490.25 4.09232 1.00533 0
M  V30 5447 H 488.974 2.92956 1.44376 0
M  V30 5448 H 487.633 3.62085 -0.573592 0
M  V30 5449 H 487.281 4.7604 1.62466 0
M  V30 5450 H 486.981 5.87008 0.263695 0
M  V30 5451 H 488.505 5.98922 1.18848 0
M  V30 5452 H 489.919 5.63506 -1.05518 0
M  V30 5453 H 488.316 5.71108 -1.8427 0
M  V30 5454 H 489.386 4.33608 -2.17054 0
M  V30 5455 N 490.729 0.570148 1.46925 0
M  V30 5456 C 491.959 0.0561151 2.06524 0
M  V30 5457 C 492.367 -1.24874 1.42137 0
M  V30 5458 O 491.71 -1.76292 0.516417 0
M  V30 5459 C 491.772 -0.197035 3.5896 0
M  V30 5460 C 491.436 1.02033 4.45464 0
M  V30 5461 C 492.433 1.92921 4.82781 0
M  V30 5462 C 490.118 1.23864 4.86788 0
M  V30 5463 C 492.112 3.03999 5.60235 0
M  V30 5464 C 489.799 2.35249 5.64004 0
M  V30 5465 C 490.797 3.25146 6.0064 0
M  V30 5466 O 490.485 4.34598 6.76299 0
M  V30 5467 H 490.217 0.0487409 0.674241 0
M  V30 5468 H 492.771 0.786915 1.89728 0
M  V30 5469 H 491.001 -0.982299 3.74016 0
M  V30 5470 H 492.69 -0.658032 4.00531 0
M  V30 5471 H 493.456 1.77265 4.51444 0
M  V30 5472 H 489.335 0.54805 4.57731 0
M  V30 5473 H 492.879 3.74192 5.8875 0
M  V30 5474 H 488.776 2.50873 5.94755 0
M  V30 5475 H 489.544 4.32808 6.94708 0
M  V30 5476 N 492.207 -1.54576 0.307264 0
M  V30 5477 C 493.456 -1.99442 -0.300976 0
M  V30 5478 C 493.769 -1.19928 -1.5452 0
M  V30 5479 O 494.975 -1.55092 -2.22842 0
M  V30 5480 C 493.431 -3.55084 -0.586809 0
M  V30 5481 C 493.039 -4.43413 0.639438 0
M  V30 5482 C 494.783 -4.0846 -1.1559 0
M  V30 5483 C 492.69 -5.90499 0.326411 0
M  V30 5484 H 491.62 -0.744986 -0.116238 0
M  V30 5485 H 494.271 -1.787 0.416947 0
M  V30 5486 H 492.653 -3.71749 -1.36449 0
M  V30 5487 H 493.827 -4.38522 1.41545 0
M  V30 5488 H 492.142 -4.00842 1.1276 0
M  V30 5489 H 494.739 -5.15926 -1.40445 0
M  V30 5490 H 495.082 -3.59443 -2.10015 0
M  V30 5491 H 495.615 -3.95362 -0.439778 0
M  V30 5492 H 492.354 -6.43676 1.23939 0
M  V30 5493 H 491.874 -5.98382 -0.412212 0
M  V30 5494 H 493.553 -6.46962 -0.0697393 0
M  V30 5495 N 493.685 -0.035106 -1.57561 0
M  V30 5496 C 494.633 0.962707 -2.11742 0
M  V30 5497 C 495.627 1.33296 -1.0454 0
M  V30 5498 O 496.833 1.31449 -1.22968 0
M  V30 5499 H 493.208 0.32826 -0.676572 0
M  V30 5500 H 495.179 0.48048 -2.94506 0
M  V30 5501 C 493.928 2.23388 -2.66445 0
M  V30 5502 H 493.251 1.95774 -3.48587 0
M  V30 5503 H 494.691 2.91402 -3.07995 0
M  V30 5504 C 493.15 2.96769 -1.59467 0
M  V30 5505 O 493.68 3.89105 -0.998 0
M  V30 5506 N 491.886 2.59212 -1.31369 0
M  V30 5507 H 491.433 1.84202 -1.80076 0
M  V30 5508 H 491.391 3.08618 -0.600173 0
M  V30 5509 N 495.163 1.55791 0.238111 0
M  V30 5510 C 496.412 1.77234 0.962868 0
M  V30 5511 C 496.725 0.600661 1.86149 0
M  V30 5512 O 497.931 0.698315 2.62366 0
M  V30 5513 C 496.387 3.13808 1.76218 0
M  V30 5514 C 495.995 4.3865 0.910518 0
M  V30 5515 C 497.739 3.44585 2.47914 0
M  V30 5516 C 495.646 5.66252 1.70623 0
M  V30 5517 H 494.576 0.660731 0.36325 0
M  V30 5518 H 497.227 1.8221 0.217242 0
M  V30 5519 H 495.609 3.02963 2.55009 0
M  V30 5520 H 496.783 4.60507 0.164316 0
M  V30 5521 H 495.098 4.15271 0.30647 0
M  V30 5522 H 497.695 4.3714 3.07917 0
M  V30 5523 H 498.038 2.66314 3.19973 0
M  V30 5524 H 498.571 3.56685 1.76127 0
M  V30 5525 H 495.31 6.47369 1.02923 0
M  V30 5526 H 494.83 5.48483 2.42748 0
M  V30 5527 H 496.509 6.05829 2.27114 0
M  V30 5528 N 496.642 -0.504142 1.49319 0
M  V30 5529 C 497.87 -1.28256 1.62351 0
M  V30 5530 C 498.285 -1.86502 0.293682 0
M  V30 5531 O 497.642 -1.67678 -0.720449 0
M  V30 5532 C 497.693 -2.41507 2.68992 0
M  V30 5533 O 497.414 -1.85656 3.96817 0
M  V30 5534 C 498.915 -3.32929 2.927 0
M  V30 5535 H 496.135 -0.389115 0.546654 0
M  V30 5536 H 498.679 -0.605531 1.95329 0
M  V30 5537 H 496.834 -3.05046 2.38801 0
M  V30 5538 H 497.248 -2.59981 4.55533 0
M  V30 5539 H 498.722 -4.0868 3.71058 0
M  V30 5540 H 499.199 -3.89733 2.02496 0
M  V30 5541 H 499.805 -2.75158 3.24296 0
M  V30 5542 N 498.12 -1.38341 -0.754957 0
M  V30 5543 C 499.366 -1.34672 -1.51628 0
M  V30 5544 C 499.699 0.0636036 -1.94096 0
M  V30 5545 O 498.974 1.0245 -1.6533 0
M  V30 5546 C 499.257 -2.30116 -2.76981 0
M  V30 5547 C 499.11 -3.80003 -2.4066 0
M  V30 5548 C 500.429 -2.23715 -3.78998 0
M  V30 5549 H 497.548 -0.490517 -0.550056 0
M  V30 5550 H 500.19 -1.69178 -0.864807 0
M  V30 5551 H 498.34 -2.00821 -3.3257 0
M  V30 5552 H 500.012 -4.19966 -1.90856 0
M  V30 5553 H 498.255 -3.97751 -1.73137 0
M  V30 5554 H 498.926 -4.42244 -3.30339 0
M  V30 5555 H 501.402 -2.49574 -3.32945 0
M  V30 5556 H 500.278 -2.9261 -4.64403 0
M  V30 5557 H 500.539 -1.23554 -4.24484 0
M  V30 5558 N 499.598 0.982988 -1.23187 0
M  V30 5559 C 500.875 1.69814 -0.970707 0
M  V30 5560 C 501.255 2.04811 0.511424 0
M  V30 5561 O 500.603 1.73924 1.48198 0
M  V30 5562 C 500.813 2.94143 -1.87831 0
M  V30 5563 C 502.161 3.66712 -2.14026 0
M  V30 5564 O 503.185 3.04171 -1.8536 0
M  V30 5565 O 502.044 4.79258 -2.62629 0
M  V30 5566 H 499.138 0.741659 -0.365884 0
M  V30 5567 H 501.684 1.03844 -1.34218 0
M  V30 5568 H 500.456 2.64858 -2.88038 0
M  V30 5569 H 500.079 3.6785 -1.50905 0
M  V30 5570 N 501.076 1.04316 1.18135 0
M  V30 5571 C 502.323 0.74802 1.88178 0
M  V30 5572 C 502.651 -0.72441 1.80506 0
M  V30 5573 O 501.906 -1.54463 1.20165 0
M  V30 5574 C 502.205 1.16271 3.37958 0
M  V30 5575 C 501.871 2.63585 3.65833 0
M  V30 5576 C 500.533 3.03829 3.73151 0
M  V30 5577 C 502.885 3.58822 3.78016 0
M  V30 5578 C 500.213 4.38194 3.90132 0
M  V30 5579 C 502.565 4.92909 3.96514 0
M  V30 5580 C 501.229 5.3282 4.02068 0
M  V30 5581 H 500.499 0.27372 0.688592 0
M  V30 5582 H 503.146 1.30863 1.39811 0
M  V30 5583 H 501.451 0.520938 3.88321 0
M  V30 5584 H 503.148 0.911672 3.90499 0
M  V30 5585 H 499.738 2.31414 3.60757 0
M  V30 5586 H 503.922 3.28875 3.71692 0
M  V30 5587 H 499.178 4.68631 3.92677 0
M  V30 5588 H 503.352 5.66606 4.04883 0
M  V30 5589 H 500.979 6.36943 4.14979 0
M  V30 5590 N 502.554 -1.34406 0.822964 0
M  V30 5591 C 503.8 -1.98999 0.420847 0
M  V30 5592 C 504.155 -1.64067 -1.00498 0
M  V30 5593 O 503.448 -0.902071 -1.69036 0
M  V30 5594 C 503.642 -3.52981 0.560268 0
M  V30 5595 C 503.471 -4.02873 1.99809 0
M  V30 5596 C 502.241 -4.31463 2.62998 0
M  V30 5597 C 504.439 -4.20241 2.96483 0
M  V30 5598 N 502.421 -4.6739 3.9802 0
M  V30 5599 C 503.792 -4.59348 4.16413 0
M  V30 5600 C 505.847 -4.02489 2.93098 0
M  V30 5601 C 504.55 -4.82559 5.33413 0
M  V30 5602 C 506.576 -4.26866 4.09315 0
M  V30 5603 C 505.938 -4.6626 5.27997 0
M  V30 5604 H 502.037 -0.755432 0.202104 0
M  V30 5605 H 504.621 -1.62815 1.06767 0
M  V30 5606 H 502.792 -3.88359 -0.0566596 0
M  V30 5607 H 504.524 -4.04487 0.131146 0
M  V30 5608 H 501.279 -4.22373 2.14238 0
M  V30 5609 H 501.703 -4.89588 4.67582 0
M  V30 5610 H 506.345 -3.71161 2.02483 0
M  V30 5611 H 504.063 -5.12754 6.24587 0
M  V30 5612 H 507.649 -4.14667 4.08096 0
M  V30 5613 H 506.529 -4.84752 6.16429 0
M  V30 5614 N 504.032 -0.577932 -1.46621 0
M  V30 5615 C 505.279 -0.0616879 -2.02406 0
M  V30 5616 C 505.607 1.29638 -1.44997 0
M  V30 5617 O 504.862 1.86176 -0.60308 0
M  V30 5618 C 505.161 0.0590832 -3.57351 0
M  V30 5619 C 504.827 -1.23077 -4.33777 0
M  V30 5620 C 503.489 -1.58416 -4.54376 0
M  V30 5621 C 505.841 -2.08457 -4.77698 0
M  V30 5622 C 503.169 -2.78943 -5.16147 0
M  V30 5623 C 505.521 -3.28204 -5.408 0
M  V30 5624 C 504.185 -3.63832 -5.59627 0
M  V30 5625 H 503.455 -0.0225732 -0.740656 0
M  V30 5626 H 506.102 -0.753609 -1.76048 0
M  V30 5627 H 504.407 0.834104 -3.82818 0
M  V30 5628 H 506.104 0.474202 -3.98186 0
M  V30 5629 H 502.694 -0.945652 -4.18038 0
M  V30 5630 H 506.878 -1.82459 -4.61544 0
M  V30 5631 H 502.134 -3.06689 -5.28916 0
M  V30 5632 H 506.308 -3.94634 -5.73792 0
M  V30 5633 H 503.935 -4.57315 -6.07262 0
M  V30 5634 N 505.51 1.54411 -0.315457 0
M  V30 5635 C 506.758 2.00023 0.288971 0
M  V30 5636 C 507.079 1.20529 1.5329 0
M  V30 5637 O 506.349 0.304986 1.93511 0
M  V30 5638 H 504.929 0.738891 0.109766 0
M  V30 5639 H 507.591 1.90094 -0.430129 0
M  V30 5640 H 506.687 3.07198 0.550999 0
M  V30 5641 N 506.988 0.0434614 1.5754 0
M  V30 5642 C 507.951 -0.918696 2.09982 0
M  V30 5643 C 508.951 -1.24488 1.01781 0
M  V30 5644 O 510.141 -1.18284 1.27885 0
M  V30 5645 C 507.273 -2.23093 2.57764 0
M  V30 5646 H 508.466 -0.464229 2.96285 0
M  V30 5647 H 506.019 -0.204818 1.54952 0
M  V30 5648 H 506.754 -2.73137 1.74832 0
M  V30 5649 H 506.539 -2.00724 3.36827 0
M  V30 5650 H 508.029 -2.92028 2.98512 0
M  V30 5651 O 508.505 -1.61203 -0.0978465 0
M  V30 5652 H 509.196 -1.79548 -0.726781 0
M  V30 END ATOM
M  V30 BEGIN BOND
M  V30 END BOND
M  V30 END CTAB
M  END
$$$$
