drugbank_target|O60678 Protein arginine N-methyltransferase 3 (DB01752)
 OpenBabel12092120533D

  0  0  0     0  0            999 V3000
M  V30 BEGIN CTAB
M  V30 COUNTS 8343 8434 0 0 0
M  V30 BEGIN ATOM
M  V30 1 H -0.908 1.98254 -0.117106 0
M  V30 2 N 0 1.576 0 0
M  V30 3 C 0.933 2.03868 1.02534 0
M  V30 4 C 1.911 0.928543 1.3348 0
M  V30 5 O 3.095 1.19667 1.45644 0
M  V30 6 C 0.222 2.43627 2.35294 0
M  V30 7 C -0.732 3.65373 2.2001 0
M  V30 8 S 0.101 5.13292 1.52614 0
M  V30 9 C 1.257 5.56322 2.86805 0
M  V30 10 H 1.49 2.90518 0.631377 0
M  V30 11 H -0.977 1.52953 0.210867 0
M  V30 12 H 0.981 2.67203 3.11629 0
M  V30 13 H -0.358 1.57376 2.7183 0
M  V30 14 H -1.165 3.90944 3.18086 0
M  V30 15 H -1.563 3.418 1.51819 0
M  V30 16 H 0.729 5.58782 3.83104 0
M  V30 17 H 1.672 6.56266 2.65933 0
M  V30 18 H 2.08 4.83886 2.90714 0
M  V30 19 N 1.4781 -0.272755 1.55222 0
M  V30 20 C 2.7181 -1.01197 1.77591 0
M  V30 21 C 3.0821 -1.8349 0.565294 0
M  V30 22 O 4.2831 -2.60387 0.667242 0
M  V30 23 C 2.5541 -1.87096 3.04516 0
M  V30 24 S 4.1131 -2.67279 3.48004 0
M  V30 25 H 0.9311 -0.340836 0.62398 0
M  V30 26 H 3.5331 -0.282374 1.9345 0
M  V30 27 H 2.2371 -1.25565 3.90719 0
M  V30 28 H 1.7681 -2.64376 2.91323 0
M  V30 29 H 3.7831 -3.89593 3.07297 0
M  V30 30 N 2.9562 -1.48159 -0.537278 0
M  V30 31 C 4.1812 -1.59707 -1.32319 0
M  V30 32 C 4.6062 -0.254859 -1.86365 0
M  V30 33 O 3.9642 0.772378 -1.64024 0
M  V30 34 C 4.0122 -2.6412 -2.45505 0
M  V30 35 O 3.1162 -2.20774 -3.48328 0
M  V30 36 H 2.4572 -0.535791 -0.392204 0
M  V30 37 H 4.9872 -1.94092 -0.647268 0
M  V30 38 H 4.9972 -2.85166 -2.91795 0
M  V30 39 H 3.6722 -3.61567 -2.05528 0
M  V30 40 H 2.2492 -2.09911 -3.08207 0
M  V30 41 N 4.4343 0.785586 -1.36625 0
M  V30 42 C 5.3643 1.91259 -1.33949 0
M  V30 43 C 6.3453 1.68795 -0.210325 0
M  V30 44 O 7.5303 1.89854 -0.408561 0
M  V30 45 C 4.6603 3.28339 -1.13186 0
M  V30 46 C 3.6143 3.65335 -2.22967 0
M  V30 47 C 2.9403 5.00806 -1.87342 0
M  V30 48 C 4.2403 3.7352 -3.65075 0
M  V30 49 H 5.9343 1.93755 -2.28253 0
M  V30 50 H 3.4803 0.930788 -1.09874 0
M  V30 51 H 5.4333 4.06804 -1.09948 0
M  V30 52 H 4.1573 3.2624 -0.153332 0
M  V30 53 H 2.8163 2.89169 -2.25337 0
M  V30 54 H 2.4643 4.95233 -0.880545 0
M  V30 55 H 2.1643 5.26529 -2.60846 0
M  V30 56 H 3.6883 5.81687 -1.85667 0
M  V30 57 H 5.1023 4.42168 -3.64911 0
M  V30 58 H 3.4993 4.10731 -4.37516 0
M  V30 59 H 4.5693 2.74527 -3.99703 0
M  V30 60 N 5.9124 1.20967 1.01018 0
M  V30 61 C 6.8754 0.965918 2.07853 0
M  V30 62 C 7.8754 -0.0610545 1.60684 0
M  V30 63 O 9.0654 0.175681 1.73312 0
M  V30 64 C 6.1974 0.455513 3.37843 0
M  V30 65 H 7.3904 1.91365 2.3091 0
M  V30 66 H 4.9434 1.02594 1.17916 0
M  V30 67 H 5.6784 -0.497381 3.20463 0
M  V30 68 H 5.4634 1.19622 3.73407 0
M  V30 69 H 6.9534 0.304667 4.16487 0
M  V30 70 N 7.3905 -1.2043 1.01659 0
M  V30 71 C 8.6155 -1.94318 0.724942 0
M  V30 72 C 9.0405 -1.74266 -0.708034 0
M  V30 73 O 8.3985 -1.03694 -1.48719 0
M  V30 74 C 8.4465 -3.44486 1.06591 0
M  V30 75 O 7.5505 -4.12017 0.177599 0
M  V30 76 H 6.8915 -0.60708 0.26898 0
M  V30 77 H 9.4215 -1.52861 1.35995 0
M  V30 78 H 9.4315 -3.95106 1.01762 0
M  V30 79 H 8.1065 -3.58404 2.10997 0
M  V30 80 H 6.6835 -3.71821 0.283421 0
M  V30 81 N 8.8686 -0.792821 -1.36206 0
M  V30 82 C 10.1166 -0.366062 -1.98757 0
M  V30 83 C 10.4376 1.0668 -1.63231 0
M  V30 84 O 9.7076 1.73587 -0.907978 0
M  V30 85 H 8.2876 -0.132364 -0.735179 0
M  V30 86 H 10.9496 -1.01562 -1.66347 0
M  V30 87 H 10.0456 -0.460638 -3.08682 0
M  V30 88 N 10.3467 1.47872 -0.545128 0
M  V30 89 C 11.3097 2.28337 0.198717 0
M  V30 90 C 12.3097 1.36255 0.853888 0
M  V30 91 O 13.4997 1.59003 0.711606 0
M  V30 92 C 10.6317 3.15585 1.28915 0
M  V30 93 H 11.8247 2.95567 -0.507941 0
M  V30 94 H 9.3777 1.53362 -0.301616 0
M  V30 95 H 10.1127 2.53019 2.02859 0
M  V30 96 H 9.8977 3.83337 0.824309 0
M  V30 97 H 11.3877 3.76243 1.81194 0
M  V30 98 N 11.8248 0.280983 1.55075 0
M  V30 99 C 13.0528 -0.337293 2.04132 0
M  V30 100 C 13.4678 -1.4903 1.15912 0
M  V30 101 O 12.8248 -1.81606 0.180459 0
M  V30 102 C 12.8758 -0.812706 3.52246 0
M  V30 103 O 12.5968 0.294387 4.3711 0
M  V30 104 C 14.0978 -1.4982 4.17216 0
M  V30 105 H 11.3178 -0.0761638 0.666663 0
M  V30 106 H 13.8618 0.414787 2.00249 0
M  V30 107 H 12.0168 -1.51486 3.56554 0
M  V30 108 H 12.4308 -0.0721325 5.2445 0
M  V30 109 H 13.9048 -1.7822 5.22438 0
M  V30 110 H 14.3818 -2.43168 3.65741 0
M  V30 111 H 14.9878 -0.839742 4.16927 0
M  V30 112 N 13.3029 -1.57598 0.00835791 0
M  V30 113 C 14.5509 -1.90551 -0.6734 0
M  V30 114 C 14.8719 -0.883301 -1.73847 0
M  V30 115 O 14.1419 0.0781442 -1.95744 0
M  V30 116 H 12.7219 -0.703312 -0.251717 0
M  V30 117 H 15.3839 -1.94833 0.0512592 0
M  V30 118 H 14.4799 -2.9056 -1.13935 0
M  V30 119 N 14.781 0.264519 -1.55364 0
M  V30 120 C 16.029 0.993021 -1.76021 0
M  V30 121 C 16.35 1.86511 -0.569099 0
M  V30 122 O 15.62 1.91438 0.415735 0
M  V30 123 H 14.2 0.369639 -0.649135 0
M  V30 124 H 16.862 0.286707 -1.9278 0
M  V30 125 H 15.958 1.62502 -2.66457 0
M  V30 126 N 16.2591 1.48442 0.529413 0
M  V30 127 C 17.6751 1.34575 0.858004 0
M  V30 128 C 17.8751 0.3572 1.98309 0
M  V30 129 O 16.9311 -0.221379 2.51528 0
M  V30 130 C 18.2441 2.74617 1.22499 0
M  V30 131 C 19.7921 2.83109 1.33484 0
M  V30 132 C 20.2671 4.23854 1.73526 0
M  V30 133 N 21.7581 4.2653 1.80628 0
M  V30 134 C 22.4931 5.32372 2.12997 0
M  V30 135 N 21.9891 6.48491 2.43786 0
M  V30 136 N 23.7821 5.19766 2.14008 0
M  V30 137 H 15.9331 2.1133 -0.212925 0
M  V30 138 H 18.1961 0.947439 -0.0326199 0
M  V30 139 H 17.9021 3.4852 0.471905 0
M  V30 140 H 17.7761 3.08177 2.17501 0
M  V30 141 H 20.1631 2.09462 2.0787 0
M  V30 142 H 20.2441 2.53168 0.366027 0
M  V30 143 H 19.8881 4.98018 0.997013 0
M  V30 144 H 19.8181 4.5124 2.71459 0
M  V30 145 H 22.3091 3.42772 1.59108 0
M  V30 146 H 22.6221 7.24993 2.67592 0
M  V30 147 H 20.9671 6.51765 2.41304 0
M  V30 148 H 24.1581 4.28066 1.89412 0
M  V30 149 H 24.3311 6.02354 2.38902 0
M  V30 150 N 17.7372 -0.778329 1.37039 0
M  V30 151 C 18.9852 -1.53361 1.31623 0
M  V30 152 C 19.3062 -1.94739 -0.100831 0
M  V30 153 O 18.5762 -1.65797 -1.04347 0
M  V30 154 H 17.1562 -0.568794 0.484234 0
M  V30 155 H 19.8182 -0.926742 1.71457 0
M  V30 156 H 18.9142 -2.43606 1.95096 0
M  V30 157 N 19.2153 -1.21501 -1.00376 0
M  V30 158 C 20.1783 -0.976927 -2.07337 0
M  V30 159 C 21.1783 0.0525322 -1.60714 0
M  V30 160 O 22.3683 -0.184869 -1.73216 0
M  V30 161 C 19.5003 -0.473423 -3.37597 0
M  V30 162 H 20.6933 -1.92587 -2.29892 0
M  V30 163 H 18.2463 -1.03217 -1.17371 0
M  V30 164 H 18.9813 0.480379 -3.20722 0
M  V30 165 H 18.7663 -1.216 -3.72768 0
M  V30 166 H 20.2563 -0.32675 -4.1632 0
M  V30 167 N 20.6934 1.19889 -1.02296 0
M  V30 168 C 21.9394 1.89701 -0.717033 0
M  V30 169 C 22.2724 1.7905 0.751989 0
M  V30 170 O 21.5474 1.17891 1.547 0
M  V30 171 C 21.8304 3.40858 -1.16136 0
M  V30 172 C 21.6834 3.60411 -2.69117 0
M  V30 173 C 23.0024 4.33876 -0.737549 0
M  V30 174 H 20.1214 0.688874 -0.261957 0
M  V30 175 H 22.7634 1.41154 -1.27183 0
M  V30 176 H 20.9134 3.82335 -0.689342 0
M  V30 177 H 22.5854 3.28145 -3.2422 0
M  V30 178 H 20.8284 3.03665 -3.0979 0
M  V30 179 H 21.4994 4.66396 -2.95261 0
M  V30 180 H 23.9754 4.00081 -1.14344 0
M  V30 181 H 22.8514 5.38242 -1.0764 0
M  V30 182 H 23.1124 4.40628 0.360436 0
M  V30 183 N 22.1715 0.800033 1.35784 0
M  V30 184 C 23.0815 0.207204 2.33683 0
M  V30 185 C 24.0975 -0.64631 1.61551 0
M  V30 186 O 25.2735 -0.559604 1.93469 0
M  V30 187 C 22.3385 -0.639659 3.40748 0
M  V30 188 C 21.3995 0.233585 4.28664 0
M  V30 189 C 20.6325 -0.572954 5.30616 0
M  V30 190 O 20.8555 -1.80816 5.40982 0
M  V30 191 O 19.7895 0.0327285 6.01891 0
M  V30 192 H 23.6155 1.01692 2.86169 0
M  V30 193 H 21.2005 0.561691 1.38439 0
M  V30 194 H 23.0825 -1.12223 4.06182 0
M  V30 195 H 21.7575 -1.42708 2.90544 0
M  V30 196 H 20.6645 0.763147 3.66233 0
M  V30 197 H 21.9975 0.984784 4.82248 0
M  V30 198 N 23.6496 -1.47581 0.552962 0
M  V30 199 C 24.5976 -2.31648 -0.21023 0
M  V30 200 C 25.5916 -1.42663 -0.913432 0
M  V30 201 O 26.7976 -1.5945 -0.835201 0
M  V30 202 H 23.1726 -0.746989 -0.0866676 0
M  V30 203 H 25.1436 -2.93869 0.518051 0
M  V30 204 C 23.8926 -3.25226 -1.22976 0
M  V30 205 H 23.2156 -3.93658 -0.698077 0
M  V30 206 H 24.6556 -3.86889 -1.73473 0
M  V30 207 C 23.1146 -2.48448 -2.27542 0
M  V30 208 O 23.6446 -2.22585 -3.34393 0
M  V30 209 N 21.8506 -2.09532 -2.01357 0
M  V30 210 H 21.3976 -2.30765 -1.14478 0
M  V30 211 H 21.3556 -1.58476 -2.71538 0
M  V30 212 N 25.1277 -0.289203 -1.54924 0
M  V30 213 C 26.0377 0.601863 -2.26748 0
M  V30 214 C 27.0537 1.15834 -1.2984 0
M  V30 215 O 28.2297 1.18564 -1.62802 0
M  V30 216 C 25.2947 1.76299 -2.98529 0
M  V30 217 C 24.3557 1.24178 -4.10948 0
M  V30 218 C 23.5887 2.34757 -4.79296 0
M  V30 219 O 23.8117 3.54411 -4.46933 0
M  V30 220 O 22.7457 2.02115 -5.66951 0
M  V30 221 H 26.5717 0.0195879 -3.03694 0
M  V30 222 H 24.1567 -0.0560868 -1.49295 0
M  V30 223 H 26.0387 2.43973 -3.43592 0
M  V30 224 H 24.7137 2.33209 -2.24488 0
M  V30 225 H 23.6207 0.531104 -3.70311 0
M  V30 226 H 24.9537 0.718252 -4.86931 0
M  V30 227 N 26.6058 1.57591 -0.0167156 0
M  V30 228 C 27.5158 2.1291 0.98521 0
M  V30 229 C 28.5318 1.07834 1.36557 0
M  V30 230 O 29.7078 1.39826 1.44951 0
M  V30 231 C 26.7728 2.63512 2.25305 0
M  V30 232 C 25.8338 3.83256 1.93426 0
M  V30 233 C 25.0668 4.31435 3.14165 0
M  V30 234 O 25.2898 3.78851 4.26413 0
M  V30 235 O 24.2238 5.23416 2.97186 0
M  V30 236 H 28.0498 2.98772 0.544888 0
M  V30 237 H 25.6348 1.48012 0.203141 0
M  V30 238 H 27.5168 2.96183 2.99756 0
M  V30 239 H 26.1918 1.8074 2.68542 0
M  V30 240 H 25.0988 3.55531 1.16398 0
M  V30 241 H 26.4318 4.67153 1.55013 0
M  V30 242 N 28.0839 -0.256276 1.55502 0
M  V30 243 C 29.3609 -1.00789 1.67633 0
M  V30 244 C 29.7409 -2.03706 0.553826 0
M  V30 245 O 29.0889 -2.24145 -0.443969 0
M  V30 246 C 29.2989 -1.64968 3.07549 0
M  V30 247 C 30.6469 -2.15505 3.65845 0
M  V30 248 O 31.6709 -1.74925 3.1029 0
M  V30 249 O 30.5299 -2.89986 4.63217 0
M  V30 250 H 27.6239 -0.468553 0.681459 0
M  V30 251 H 30.1699 -0.250806 1.67836 0
M  V30 252 H 28.9419 -0.904785 3.80696 0
M  V30 253 H 28.5649 -2.47321 3.11317 0
M  V30 254 N 29.562 -1.4872 -0.521534 0
M  V30 255 C 30.492 -1.66771 -1.63431 0
M  V30 256 C 31.473 -0.516499 -1.62069 0
M  V30 257 O 32.658 -0.750013 -1.79132 0
M  V30 258 C 29.788 -1.71515 -3.01993 0
M  V30 259 C 28.742 -2.86222 -3.18216 0
M  V30 260 C 28.068 -2.76061 -4.57924 0
M  V30 261 C 29.368 -4.27419 -3.00184 0
M  V30 262 H 31.062 -2.59932 -1.48579 0
M  V30 263 H 28.608 -1.25089 -0.713358 0
M  V30 264 H 30.561 -1.82731 -3.7972 0
M  V30 265 H 29.285 -0.749393 -3.17886 0
M  V30 266 H 27.944 -2.74575 -2.42908 0
M  V30 267 H 27.592 -1.77437 -4.70665 0
M  V30 268 H 27.292 -3.53037 -4.69722 0
M  V30 269 H 28.816 -2.89256 -5.37739 0
M  V30 270 H 30.23 -4.39855 -3.67697 0
M  V30 271 H 28.627 -5.05458 -3.2347 0
M  V30 272 H 29.697 -4.43293 -1.96518 0
M  V30 273 N 31.0401 0.771051 -1.3745 0
M  V30 274 C 32.4511 1.34737 -1.29239 0
M  V30 275 C 32.8021 1.96109 0.0596908 0
M  V30 276 O 31.9271 1.93865 0.961534 0
M  V30 277 C 32.5221 2.44973 -2.34037 0
M  V30 278 C 31.0811 2.98372 -2.29458 0
M  V30 279 C 30.2281 1.71595 -2.17831 0
M  V30 280 H 33.1791 0.571256 -1.48062 0
M  V30 281 H 33.2001 3.24471 -1.98744 0
M  V30 282 H 32.7121 2.00276 -3.32432 0
M  V30 283 H 30.8131 3.47443 -1.34589 0
M  V30 284 H 30.9261 3.53939 -3.229 0
M  V30 285 H 29.2901 1.94547 -1.64388 0
M  V30 286 H 30.0731 1.29001 -3.18141 0
M  V30 287 N 32.5182 1.22032 0.997298 0
M  V30 288 C 33.4282 1.00271 2.12092 0
M  V30 289 C 34.4442 -0.047621 1.73935 0
M  V30 290 O 35.6202 0.144136 2.00884 0
M  V30 291 C 32.6852 0.578449 3.4184 0
M  V30 292 C 31.7462 1.70189 3.94125 0
M  V30 293 C 30.9792 1.29778 5.17681 0
M  V30 294 O 31.2022 0.174676 5.70132 0
M  V30 295 O 30.1362 2.11261 5.63607 0
M  V30 296 H 33.9622 1.94398 2.3333 0
M  V30 297 H 31.5472 1.00587 1.10465 0
M  V30 298 H 33.4292 0.351998 4.19927 0
M  V30 299 H 32.1042 -0.334019 3.21972 0
M  V30 300 H 31.0112 1.98282 3.1723 0
M  V30 301 H 32.3442 2.59206 4.18417 0
M  V30 302 N 33.9963 -1.19345 1.0293 0
M  V30 303 C 34.9263 -2.2481 0.631105 0
M  V30 304 C 35.9073 -1.66245 -0.360104 0
M  V30 305 O 37.0923 -1.92677 -0.242726 0
M  V30 306 C 34.2223 -3.47295 -0.0184607 0
M  V30 307 C 33.1763 -4.18536 0.895073 0
M  V30 308 C 32.5023 -5.34586 0.110592 0
M  V30 309 C 33.8023 -4.73287 2.209 0
M  V30 310 H 35.4963 -2.58372 1.51275 0
M  V30 311 H 33.0423 -1.24194 0.728818 0
M  V30 312 H 34.9953 -4.20268 -0.308675 0
M  V30 313 H 33.7193 -3.12933 -0.934907 0
M  V30 314 H 32.3783 -3.47446 1.16949 0
M  V30 315 H 32.0263 -4.96469 -0.807902 0
M  V30 316 H 31.7263 -5.83183 0.719087 0
M  V30 317 H 33.2503 -6.10355 -0.172871 0
M  V30 318 H 34.6643 -5.38013 1.98028 0
M  V30 319 H 33.0613 -5.32373 2.76946 0
M  V30 320 H 34.1313 -3.91331 2.86336 0
M  V30 321 N 35.4744 -0.807222 -1.35358 0
M  V30 322 C 36.6994 -0.399309 -2.0352 0
M  V30 323 C 37.1244 0.981986 -1.60433 0
M  V30 324 O 36.4824 1.63601 -0.781299 0
M  V30 325 C 36.5304 -0.491552 -3.57234 0
M  V30 326 O 35.6344 0.494754 -4.09421 0
M  V30 327 H 34.9754 -0.166682 -0.642739 0
M  V30 328 H 37.5054 -1.09328 -1.72941 0
M  V30 329 H 37.5154 -0.361588 -4.06395 0
M  V30 330 H 36.1904 -1.49907 -3.87944 0
M  V30 331 H 34.7674 0.324977 -3.71481 0
M  V30 332 N 36.9525 1.47285 -0.560781 0
M  V30 333 C 38.2295 1.9558 0.0277798 0
M  V30 334 C 38.6095 1.5034 1.48192 0
M  V30 335 O 37.9575 0.743882 2.16052 0
M  V30 336 C 38.1675 3.48789 -0.121418 0
M  V30 337 C 39.5155 4.24594 0.0220912 0
M  V30 338 O 40.5395 3.56166 -0.0491439 0
M  V30 339 O 39.3985 5.46217 0.175958 0
M  V30 340 H 36.4925 0.824663 0.0621342 0
M  V30 341 H 39.0385 1.5767 -0.627556 0
M  V30 342 H 37.8105 3.74533 -1.13316 0
M  V30 343 H 37.4335 3.93473 0.571366 0
M  V30 344 N 38.4306 0.297415 1.54768 0
M  V30 345 C 39.6556 -0.318435 2.04941 0
M  V30 346 C 40.0806 -1.4701 1.17345 0
M  V30 347 O 39.4386 -1.80436 0.176758 0
M  V30 348 C 39.4866 -0.755749 3.52592 0
M  V30 349 O 38.5906 -1.86088 3.68028 0
M  V30 350 H 37.9316 -0.062421 0.661059 0
M  V30 351 H 40.4616 0.438215 1.99852 0
M  V30 352 H 40.4716 -1.04552 3.94376 0
M  V30 353 H 39.1466 0.0867233 4.1581 0
M  V30 354 H 37.7236 -1.57193 3.38149 0
M  V30 355 N 39.9087 -1.5758 0.0250728 0
M  V30 356 C 41.1567 -1.91255 -0.653151 0
M  V30 357 C 41.4777 -0.901691 -1.729 0
M  V30 358 O 40.7477 0.0573785 -1.95816 0
M  V30 359 H 39.3277 -0.705942 -0.244243 0
M  V30 360 H 41.9897 -1.94767 0.0719209 0
M  V30 361 H 41.0857 -2.91752 -1.10847 0
M  V30 362 N 41.3868 0.248026 -1.55636 0
M  V30 363 C 42.6638 0.998988 -1.68165 0
M  V30 364 C 43.0438 2.03409 -0.564621 0
M  V30 365 O 42.3918 2.24378 0.432076 0
M  V30 366 C 42.6018 1.63334 -3.0842 0
M  V30 367 C 43.9498 2.13562 -3.66983 0
M  V30 368 O 44.9738 1.73277 -3.11213 0
M  V30 369 O 43.8328 2.87526 -4.64749 0
M  V30 370 H 40.9268 0.464933 -0.683935 0
M  V30 371 H 43.4728 0.241902 -1.67967 0
M  V30 372 H 42.2448 0.884583 -3.8117 0
M  V30 373 H 41.8678 2.45666 -3.12624 0
M  V30 374 N 42.8649 1.48995 0.513639 0
M  V30 375 C 43.7749 1.67443 1.64317 0
M  V30 376 C 44.7909 0.556947 1.64846 0
M  V30 377 O 45.9669 0.830082 1.83498 0
M  V30 378 C 43.0319 1.72515 3.00732 0
M  V30 379 C 42.0929 2.96009 3.1093 0
M  V30 380 C 41.3259 3.00829 4.40837 0
M  V30 381 O 41.5489 2.13594 5.28898 0
M  V30 382 O 40.4829 3.93168 4.55744 0
M  V30 383 H 44.3089 2.63106 1.51687 0
M  V30 384 H 41.8939 1.32588 0.688543 0
M  V30 385 H 43.7759 1.78277 3.81831 0
M  V30 386 H 42.4509 0.800278 3.13651 0
M  V30 387 H 41.3579 2.9577 2.29065 0
M  V30 388 H 42.6909 3.87934 3.02933 0
M  V30 389 N 44.343 -0.763751 1.37857 0
M  V30 390 C 45.306 -1.85889 1.34081 0
M  V30 391 C 46.306 -1.58949 0.243277 0
M  V30 392 O 47.496 -1.66882 0.499589 0
M  V30 393 C 44.628 -3.23176 1.08489 0
M  V30 394 H 45.821 -1.90648 2.31502 0
M  V30 395 H 43.374 -0.964367 1.23003 0
M  V30 396 H 44.109 -3.24091 0.116318 0
M  V30 397 H 43.894 -3.44124 1.8794 0
M  V30 398 H 45.384 -4.03254 1.08517 0
M  V30 399 N 45.8211 -1.22559 -0.990812 0
M  V30 400 C 46.7841 -0.998863 -2.0629 0
M  V30 401 C 47.7841 0.0354834 -1.60761 0
M  V30 402 O 48.9741 -0.203231 -1.7301 0
M  V30 403 C 46.1061 -0.509203 -3.37076 0
M  V30 404 H 47.2991 -1.95014 -2.27837 0
M  V30 405 H 44.8521 -1.04456 -1.16269 0
M  V30 406 H 45.5871 0.446335 -3.21214 0
M  V30 407 H 45.3721 -1.25547 -3.71457 0
M  V30 408 H 46.8621 -0.370888 -4.1595 0
M  V30 409 N 47.2992 1.18797 -1.03562 0
M  V30 410 C 48.5452 1.89192 -0.746867 0
M  V30 411 C 48.9002 1.78531 0.717245 0
M  V30 412 O 48.1932 1.17137 1.51622 0
M  V30 413 C 48.3872 3.38692 -1.14117 0
M  V30 414 C 48.2162 3.63902 -2.64207 0
M  V30 415 C 46.9862 3.81553 -3.31279 0
M  V30 416 C 49.1842 3.64903 -3.62423 0
M  V30 417 N 47.1662 3.94455 -4.70402 0
M  V30 418 C 48.5372 3.83458 -4.87196 0
M  V30 419 C 50.5922 3.47965 -3.56125 0
M  V30 420 C 49.2952 3.86829 -6.06429 0
M  V30 421 C 51.3212 3.52616 -4.7478 0
M  V30 422 C 50.6832 3.71663 -5.9837 0
M  V30 423 H 46.7822 0.711141 -0.325273 0
M  V30 424 H 49.3662 1.42727 -1.32428 0
M  V30 425 H 47.5372 3.83864 -0.591889 0
M  V30 426 H 49.2692 3.96634 -0.803966 0
M  V30 427 H 46.0242 3.80723 -2.81686 0
M  V30 428 H 46.4482 4.0474 -5.42692 0
M  V30 429 H 51.0902 3.32189 -2.61553 0
M  V30 430 H 48.8082 4.01395 -7.01362 0
M  V30 431 H 52.3942 3.40791 -4.71543 0
M  V30 432 H 51.2742 3.75145 -6.88648 0
M  V30 433 N 48.7773 0.814389 1.34928 0
M  V30 434 C 49.6873 0.231978 2.3345 0
M  V30 435 C 50.7033 -0.629139 1.62228 0
M  V30 436 O 51.8793 -0.539052 1.94052 0
M  V30 437 C 48.9443 -0.603482 3.41407 0
M  V30 438 C 48.0053 0.279037 4.28392 0
M  V30 439 C 47.2383 -0.516643 5.31193 0
M  V30 440 O 47.4613 -1.75068 5.4287 0
M  V30 441 O 46.3953 0.0965652 6.01823 0
M  V30 442 H 50.2213 1.04721 2.85074 0
M  V30 443 H 47.8063 0.576343 1.37836 0
M  V30 444 H 49.6883 -1.07908 4.0735 0
M  V30 445 H 48.3633 -1.39618 2.92042 0
M  V30 446 H 47.2703 0.801948 3.65403 0
M  V30 447 H 48.6033 1.03588 4.81176 0
M  V30 448 N 50.2554 -1.46986 0.568584 0
M  V30 449 C 51.5324 -1.95592 -0.0174074 0
M  V30 450 C 51.9124 -1.51124 -1.47393 0
M  V30 451 O 51.2604 -0.755329 -2.15655 0
M  V30 452 C 51.4704 -3.48719 0.139913 0
M  V30 453 C 52.8184 -4.246 0.000426376 0
M  V30 454 O 53.8424 -3.56135 0.0680316 0
M  V30 455 O 52.7014 -5.46302 -0.146988 0
M  V30 456 H 49.7954 -0.82498 -0.0577599 0
M  V30 457 H 52.3414 -1.57335 0.635909 0
M  V30 458 H 51.1134 -3.73927 1.15301 0
M  V30 459 H 50.7364 -3.93771 -0.550491 0
M  V30 460 N 51.7335 -0.305618 -1.54608 0
M  V30 461 C 52.6435 0.57778 -2.27374 0
M  V30 462 C 53.6595 1.14451 -1.31061 0
M  V30 463 O 54.8355 1.16831 -1.6405 0
M  V30 464 C 51.9005 1.73123 -3.00382 0
M  V30 465 C 50.9615 1.19812 -4.12242 0
M  V30 466 C 50.1945 2.2966 -4.81759 0
M  V30 467 O 50.4175 3.49651 -4.50666 0
M  V30 468 O 49.3515 1.96091 -5.69062 0
M  V30 469 H 53.1775 -0.012624 -3.03697 0
M  V30 470 H 50.7625 -0.0719184 -1.49227 0
M  V30 471 H 52.6445 2.40315 -3.4616 0
M  V30 472 H 51.3195 2.30815 -2.26949 0
M  V30 473 H 50.2265 0.491798 -3.70853 0
M  V30 474 H 51.5595 0.666566 -4.87666 0
M  V30 475 N 53.2116 1.57565 -0.0334293 0
M  V30 476 C 54.4886 1.83282 0.683163 0
M  V30 477 C 54.8686 0.91823 1.90084 0
M  V30 478 O 54.2166 -0.025113 2.28486 0
M  V30 479 C 54.4266 3.32599 1.0573 0
M  V30 480 C 55.7746 3.99179 1.44711 0
M  V30 481 O 56.7986 3.3712 1.15015 0
M  V30 482 O 55.6576 5.08565 2.0006 0
M  V30 483 H 52.7516 0.755869 0.335546 0
M  V30 484 H 55.2976 1.69589 -0.0614402 0
M  V30 485 H 54.0696 3.90834 0.190828 0
M  V30 486 H 53.6926 3.51415 1.85993 0
M  V30 487 N 54.6897 -0.239769 1.55765 0
M  V30 488 C 55.9667 -0.990056 1.68693 0
M  V30 489 C 56.3467 -2.03107 0.5754 0
M  V30 490 O 55.6947 -2.24604 -0.42017 0
M  V30 491 C 55.9047 -1.61696 3.09282 0
M  V30 492 C 57.2527 -2.11613 3.6811 0
M  V30 493 O 58.2767 -1.71624 3.12127 0
M  V30 494 O 57.1357 -2.85057 4.66267 0
M  V30 495 H 54.2297 -0.461299 0.686391 0
M  V30 496 H 56.7757 -0.232991 1.68093 0
M  V30 497 H 55.5477 -0.864357 3.81634 0
M  V30 498 H 55.1707 -2.44005 3.13923 0
M  V30 499 N 56.1678 -1.49265 -0.50573 0
M  V30 500 C 57.1308 -1.65075 -1.59006 0
M  V30 501 C 58.1308 -0.522768 -1.52065 0
M  V30 502 O 59.3208 -0.789117 -1.55302 0
M  V30 503 C 56.4528 -1.64369 -2.98656 0
M  V30 504 H 57.6458 -2.61784 -1.46319 0
M  V30 505 H 55.1988 -1.38226 -0.729616 0
M  V30 506 H 55.9338 -0.692272 -3.16825 0
M  V30 507 H 55.7188 -2.46282 -3.05103 0
M  V30 508 H 57.2088 -1.78674 -3.77446 0
M  V30 509 N 57.6459 0.756429 -1.3826 0
M  V30 510 C 58.9229 1.50584 -1.24835 0
M  V30 511 C 59.3029 2.10556 0.151485 0
M  V30 512 O 58.6509 1.96825 1.1607 0
M  V30 513 C 58.8609 2.57448 -2.3563 0
M  V30 514 C 60.2089 3.24429 -2.73917 0
M  V30 515 O 61.2329 2.67751 -2.34921 0
M  V30 516 O 60.0919 4.26937 -3.41156 0
M  V30 517 H 57.1859 0.667664 -0.48801 0
M  V30 518 H 59.7319 0.792083 -1.5008 0
M  V30 519 H 58.5039 2.11362 -3.29305 0
M  V30 520 H 58.1269 3.36408 -2.11933 0
M  V30 521 N 59.124 1.23083 0.984299 0
M  V30 522 C 60.054 1.03292 2.09411 0
M  V30 523 C 61.035 -0.048923 1.7003 0
M  V30 524 O 62.22 0.114967 1.93859 0
M  V30 525 C 59.35 0.619155 3.41736 0
M  V30 526 C 58.304 1.64791 3.95004 0
M  V30 527 C 57.63 1.0897 5.23478 0
M  V30 528 C 58.93 3.03999 4.24714 0
M  V30 529 H 60.624 1.96119 2.26225 0
M  V30 530 H 58.17 0.944344 1.08711 0
M  V30 531 H 60.123 0.467777 4.18796 0
M  V30 532 H 58.847 -0.344786 3.24775 0
M  V30 533 H 57.506 1.78721 3.20085 0
M  V30 534 H 57.154 0.11686 5.02864 0
M  V30 535 H 56.854 1.77704 5.60085 0
M  V30 536 H 58.378 0.950093 6.03163 0
M  V30 537 H 59.792 2.93393 4.92538 0
M  V30 538 H 58.189 3.69936 4.72512 0
M  V30 539 H 59.259 3.53285 3.32142 0
M  V30 540 N 60.6021 -1.18246 1.0419 0
M  V30 541 C 62.0131 -1.69914 0.773698 0
M  V30 542 C 62.3641 -1.83085 -0.705297 0
M  V30 543 O 61.4891 -1.51123 -1.5489 0
M  V30 544 C 62.0841 -3.08619 1.39784 0
M  V30 545 C 60.6431 -3.57494 1.17792 0
M  V30 546 C 59.7901 -2.34013 1.48773 0
M  V30 547 H 62.7411 -1.02904 1.20816 0
M  V30 548 H 62.7621 -3.71958 0.801714 0
M  V30 549 H 62.2741 -2.99001 2.47426 0
M  V30 550 H 60.3751 -3.72406 0.120295 0
M  V30 551 H 60.4881 -4.40852 1.87581 0
M  V30 552 H 58.8521 -2.37986 0.907463 0
M  V30 553 H 59.6351 -2.27013 2.57527 0
M  V30 554 N 62.0802 -0.821533 -1.34494 0
M  V30 555 C 63.0302 -0.214793 -2.26986 0
M  V30 556 C 64.0142 0.620125 -1.4847 0
M  V30 557 O 65.2062 0.474933 -1.70509 0
M  V30 558 C 62.3352 0.623566 -3.37589 0
M  V30 559 C 61.4212 -0.221904 -4.23519 0
M  V30 560 N 61.8122 -1.29223 -4.89014 0
M  V30 561 C 60.1102 -0.00600922 -4.46 0
M  V30 562 C 60.8112 -1.80965 -5.52835 0
M  V30 563 N 59.7872 -1.11376 -5.32068 0
M  V30 564 H 63.5892 -1.03354 -2.75128 0
M  V30 565 H 61.1032 -0.6642 -1.48196 0
M  V30 566 H 63.1002 1.0744 -4.02818 0
M  V30 567 H 61.7602 1.44049 -2.90998 0
M  V30 568 H 62.7712 -1.67502 -4.90065 0
M  V30 569 H 59.4482 0.77886 -4.10171 0
M  V30 570 H 60.8382 -2.70502 -6.15043 0
M  V30 571 N 63.5583 1.46682 -0.576371 0
M  V30 572 C 64.8063 2.02013 -0.0594163 0
M  V30 573 C 65.1273 1.45101 1.30271 0
M  V30 574 O 64.3973 0.633317 1.8538 0
M  V30 575 H 62.9773 0.746759 -0.0189745 0
M  V30 576 H 65.6393 1.79862 -0.750717 0
M  V30 577 H 64.7353 3.12097 0.014345 0
M  V30 578 N 65.0364 0.313813 1.54444 0
M  V30 579 C 65.9834 -0.55655 2.23989 0
M  V30 580 C 66.9534 -1.11943 1.22711 0
M  V30 581 O 68.1384 -1.16158 1.51367 0
M  V30 582 C 65.2784 -1.71635 2.99392 0
M  V30 583 C 64.3914 -1.18364 4.15468 0
M  V30 584 C 63.5264 -2.30834 4.78424 0
M  V30 585 C 62.5654 -1.74762 5.86622 0
M  V30 586 N 61.7024 -2.80855 6.43479 0
M  V30 587 H 66.5424 0.0430893 2.97969 0
M  V30 588 H 64.0794 0.0330359 1.47063 0
M  V30 589 H 66.0374 -2.39868 3.41349 0
M  V30 590 H 64.6674 -2.28742 2.27765 0
M  V30 591 H 63.7194 -0.393163 3.78363 0
M  V30 592 H 65.0314 -0.733262 4.93381 0
M  V30 593 H 64.1854 -3.0699 5.23299 0
M  V30 594 H 62.9244 -2.79204 3.99871 0
M  V30 595 H 61.9294 -0.970995 5.41158 0
M  V30 596 H 63.1544 -1.2728 6.67066 0
M  V30 597 H 61.1004 -3.28535 5.67804 0
M  V30 598 H 61.0174 -2.40351 7.16776 0
M  V30 599 H 62.2854 -3.5687 6.93011 0
M  V30 600 N 66.5145 -1.57545 0.0417849 0
M  V30 601 C 67.4465 -2.07904 -0.964799 0
M  V30 602 C 68.4595 -1.00497 -1.28079 0
M  V30 603 O 69.6485 -1.28087 -1.24322 0
M  V30 604 C 66.7485 -2.49928 -2.28887 0
M  V30 605 C 65.9215 -3.80562 -2.15619 0
M  V30 606 C 64.9805 -4.08999 -3.31069 0
M  V30 607 O 64.0065 -4.79061 -3.0739 0
M  V30 608 N 65.2085 -3.6017 -4.55256 0
M  V30 609 H 67.9735 -2.94886 -0.535029 0
M  V30 610 H 65.5345 -1.61252 -0.144681 0
M  V30 611 H 67.5265 -2.66034 -3.04972 0
M  V30 612 H 66.0965 -1.68245 -2.63463 0
M  V30 613 H 65.3165 -3.74129 -1.24183 0
M  V30 614 H 66.6045 -4.66126 -2.03971 0
M  V30 615 H 66.0025 -3.03512 -4.77386 0
M  V30 616 H 64.5595 -3.81532 -5.28466 0
M  V30 617 N 67.9926 0.231505 -1.5589 0
M  V30 618 C 68.9246 1.31006 -1.8807 0
M  V30 619 C 69.9376 1.43539 -0.768145 0
M  V30 620 O 71.1266 1.44614 -1.04638 0
M  V30 621 C 68.2266 2.68688 -2.06543 0
M  V30 622 C 67.3996 2.78228 -3.37502 0
M  V30 623 C 66.4586 3.96857 -3.4553 0
M  V30 624 O 65.4846 3.85662 -4.18633 0
M  V30 625 N 66.6866 5.1072 -2.75944 0
M  V30 626 H 69.4516 1.03731 -2.81176 0
M  V30 627 H 67.0126 0.421573 -1.56315 0
M  V30 628 H 69.0046 3.46412 -2.09239 0
M  V30 629 H 67.5746 2.88605 -1.20109 0
M  V30 630 H 66.7946 1.87059 -3.46991 0
M  V30 631 H 68.0826 2.81564 -4.23791 0
M  V30 632 H 67.4806 5.2271 -2.16311 0
M  V30 633 H 66.0376 5.86523 -2.84314 0
M  V30 634 N 69.4707 1.49531 0.497807 0
M  V30 635 C 70.6987 1.62893 1.27567 0
M  V30 636 C 71.1137 0.301585 1.86376 0
M  V30 637 O 70.4707 -0.713335 1.67982 0
M  V30 638 C 70.5217 2.70013 2.40364 0
M  V30 639 O 70.2427 3.976 1.83972 0
M  V30 640 C 71.7437 2.94109 3.31685 0
M  V30 641 H 68.9637 0.548298 0.386794 0
M  V30 642 H 71.5077 1.95584 0.597245 0
M  V30 643 H 69.6627 2.40092 3.04031 0
M  V30 644 H 70.0767 4.56631 2.58047 0
M  V30 645 H 71.5507 3.72788 4.07104 0
M  V30 646 H 72.0277 2.04147 3.88871 0
M  V30 647 H 72.6337 3.2546 2.73781 0
M  V30 648 N 70.9488 -0.749086 1.3866 0
M  V30 649 C 72.3598 -1.32664 1.31366 0
M  V30 650 C 72.7108 -1.96179 -0.028484 0
M  V30 651 O 71.8358 -1.9537 -0.93057 0
M  V30 652 C 72.4308 -2.41219 2.37905 0
M  V30 653 C 70.9898 -2.94684 2.34176 0
M  V30 654 C 70.1368 -1.68108 2.20533 0
M  V30 655 H 73.0878 -0.547628 1.48952 0
M  V30 656 H 73.1088 -3.21268 2.0388 0
M  V30 657 H 72.6208 -1.94962 3.35576 0
M  V30 658 H 70.7218 -3.45258 1.401 0
M  V30 659 H 70.8348 -3.48757 3.2849 0
M  V30 660 H 69.1988 -1.91907 1.67463 0
M  V30 661 H 69.9818 -1.23923 3.20153 0
M  V30 662 N 72.4269 -1.23603 -0.977757 0
M  V30 663 C 73.6669 -1.08148 -1.73446 0
M  V30 664 C 74.0309 0.374785 -1.88307 0
M  V30 665 O 75.2319 0.650588 -2.60808 0
M  V30 666 C 73.5029 -1.78991 -3.0935 0
M  V30 667 S 75.0619 -1.79141 -4.00567 0
M  V30 668 H 71.8799 -0.386987 -0.596458 0
M  V30 669 H 74.4819 -1.5678 -1.16792 0
M  V30 670 H 73.1859 -2.8408 -2.96187 0
M  V30 671 H 72.7169 -1.30651 -3.71071 0
M  V30 672 H 74.7319 -0.851892 -4.88833 0
M  V30 673 N 73.905 1.17692 -1.04816 0
M  V30 674 C 74.835 2.23777 -0.666791 0
M  V30 675 C 75.816 1.66796 0.33361 0
M  V30 676 O 77.001 1.93039 0.212042 0
M  V30 677 C 74.131 3.47281 -0.0367933 0
M  V30 678 C 73.085 4.17059 -0.961546 0
M  V30 679 C 72.411 5.34342 -0.195626 0
M  V30 680 C 73.711 4.69713 -2.28402 0
M  V30 681 H 75.405 2.55933 -1.55367 0
M  V30 682 H 72.951 1.23019 -0.748484 0
M  V30 683 H 74.904 4.20706 0.241775 0
M  V30 684 H 73.628 3.14381 0.885004 0
M  V30 685 H 72.287 3.45541 -1.22462 0
M  V30 686 H 71.935 4.97692 0.728816 0
M  V30 687 H 71.635 5.81966 -0.811775 0
M  V30 688 H 73.159 6.10553 0.0757473 0
M  V30 689 H 74.573 5.34794 -2.06563 0
M  V30 690 H 72.97 5.279 -2.8538 0
M  V30 691 H 74.04 3.86726 -2.92525 0
M  V30 692 N 75.3831 0.828654 1.34056 0
M  V30 693 C 76.6301 0.419458 1.98108 0
M  V30 694 C 76.9581 -1.01886 1.65679 0
M  V30 695 O 76.2131 -1.72539 0.923512 0
M  V30 696 C 76.5121 0.575226 3.52741 0
M  V30 697 C 76.1781 1.98012 4.05095 0
M  V30 698 C 74.8401 2.36442 4.19104 0
M  V30 699 C 77.1921 2.89824 4.33188 0
M  V30 700 C 74.5201 3.66009 4.58535 0
M  V30 701 C 76.8721 4.1886 4.74066 0
M  V30 702 C 75.5361 4.5726 4.86281 0
M  V30 703 H 74.8061 0.153491 0.724929 0
M  V30 704 H 77.4531 1.05371 1.59904 0
M  V30 705 H 75.7581 -0.142385 3.91541 0
M  V30 706 H 77.4551 0.239057 4.00287 0
M  V30 707 H 74.0451 1.67162 3.94658 0
M  V30 708 H 78.2291 2.61375 4.21897 0
M  V30 709 H 73.4851 3.95579 4.66184 0
M  V30 710 H 77.6591 4.90086 4.94761 0
M  V30 711 H 75.2861 5.57707 5.16592 0
M  V30 712 N 76.8612 -1.46375 0.584142 0
M  V30 713 C 78.1012 -2.0427 0.0729695 0
M  V30 714 C 78.4652 -1.44563 -1.26355 0
M  V30 715 O 79.6662 -1.93667 -1.86405 0
M  V30 716 C 77.9372 -3.57399 0.00967464 0
M  V30 717 S 79.4962 -4.36551 -0.443714 0
M  V30 718 H 76.3142 -0.709975 0.0381673 0
M  V30 719 H 78.9162 -1.79398 0.776962 0
M  V30 720 H 77.6202 -3.98372 0.986319 0
M  V30 721 H 77.1512 -3.8681 -0.717044 0
M  V30 722 H 79.1662 -4.66237 -1.69816 0
M  V30 723 N 78.3393 -0.321999 -1.54275 0
M  V30 724 C 79.2873 0.560206 -2.25753 0
M  V30 725 C 80.2813 1.11984 -1.27106 0
M  V30 726 O 81.4873 1.06806 -1.44888 0
M  V30 727 H 77.8623 0.199304 -0.725108 0
M  V30 728 H 79.8333 -0.0649365 -2.98329 0
M  V30 729 C 78.5823 1.71023 -3.02731 0
M  V30 730 H 77.9053 1.28885 -3.78456 0
M  V30 731 H 79.3453 2.30314 -3.55993 0
M  V30 732 C 77.8043 2.62692 -2.10938 0
M  V30 733 O 78.3343 3.64364 -1.6912 0
M  V30 734 N 76.5403 2.30891 -1.76459 0
M  V30 735 H 76.0873 1.48253 -2.10663 0
M  V30 736 H 76.0453 2.92487 -1.1532 0
M  V30 737 N 79.8174 1.5752 -0.0501392 0
M  V30 738 C 81.2334 1.56631 0.306402 0
M  V30 739 C 81.4334 1.0577 1.71508 0
M  V30 740 O 80.4894 0.713837 2.422 0
M  V30 741 C 81.8024 3.00393 0.135811 0
M  V30 742 C 83.3504 3.12315 0.206993 0
M  V30 743 C 83.8254 4.57954 0.064944 0
M  V30 744 N 85.3164 4.63041 0.121254 0
M  V30 745 C 86.0514 5.73389 0.0354381 0
M  V30 746 N 85.5474 6.92724 -0.102666 0
M  V30 747 N 87.3404 5.62026 0.090946 0
M  V30 748 H 79.4914 1.88903 -0.971046 0
M  V30 749 H 81.7544 0.869876 -0.376855 0
M  V30 750 H 81.4604 3.41635 -0.835384 0
M  V30 751 H 81.3344 3.66373 0.897275 0
M  V30 752 H 83.7214 2.70973 1.16866 0
M  V30 753 H 83.8024 2.49016 -0.585208 0
M  V30 754 H 83.4464 4.99981 -0.893394 0
M  V30 755 H 83.3764 5.19258 0.876277 0
M  V30 756 H 85.8674 3.77216 0.227284 0
M  V30 757 H 86.1804 7.72633 -0.160882 0
M  V30 758 H 84.5254 6.94864 -0.137737 0
M  V30 759 H 87.7164 4.67684 0.197388 0
M  V30 760 H 87.8894 6.47997 0.0206089 0
M  V30 761 N 81.2955 -0.223234 1.56011 0
M  V30 762 C 82.2255 -1.27988 1.95298 0
M  V30 763 C 83.2065 -1.48976 0.820979 0
M  V30 764 O 84.3915 -1.61188 1.08315 0
M  V30 765 C 81.5215 -2.63 2.26822 0
M  V30 766 C 80.4755 -2.56671 3.42497 0
M  V30 767 C 79.8015 -3.95697 3.59622 0
M  V30 768 C 81.1015 -2.11601 4.77517 0
M  V30 769 H 82.7955 -0.953525 2.8381 0
M  V30 770 H 80.3415 -0.457244 1.36548 0
M  V30 771 H 82.2945 -3.37077 2.52898 0
M  V30 772 H 81.0185 -2.9732 1.35161 0
M  V30 773 H 79.6775 -1.85051 3.16467 0
M  V30 774 H 79.3255 -4.27322 2.6534 0
M  V30 775 H 79.0255 -3.92345 4.37424 0
M  V30 776 H 80.5495 -4.71438 3.88044 0
M  V30 777 H 81.9635 -2.7542 5.02809 0
M  V30 778 H 80.3605 -2.19311 5.5859 0
M  V30 779 H 81.4305 -1.06824 4.72987 0
M  V30 780 N 82.7736 -1.49793 -0.48987 0
M  V30 781 C 84.0206 -1.59841 -1.24327 0
M  V30 782 C 84.3486 -0.290135 -1.92324 0
M  V30 783 O 83.6036 0.722749 -1.81865 0
M  V30 784 C 83.9026 -2.71488 -2.32441 0
M  V30 785 C 83.5686 -4.12614 -1.81826 0
M  V30 786 C 82.2306 -4.51017 -1.67742 0
M  V30 787 C 84.5826 -5.00892 -1.4407 0
M  V30 788 C 81.9106 -5.75459 -1.14297 0
M  V30 789 C 84.2626 -6.25863 -0.920742 0
M  V30 790 C 82.9266 -6.63086 -0.766383 0
M  V30 791 H 82.1966 -0.584899 -0.454944 0
M  V30 792 H 84.8436 -1.83663 -0.542215 0
M  V30 793 H 83.1486 -2.4168 -3.0838 0
M  V30 794 H 84.8456 -2.76469 -2.90458 0
M  V30 795 H 81.4356 -3.82307 -1.93751 0
M  V30 796 H 85.6196 -4.7187 -1.53794 0
M  V30 797 H 80.8756 -6.02989 -1.01068 0
M  V30 798 H 85.0496 -6.9364 -0.619448 0
M  V30 799 H 82.6766 -7.59393 -0.350083 0
M  V30 800 N 84.2517 0.741722 -1.39055 0
M  V30 801 C 85.4797 1.53098 -1.39171 0
M  V30 802 C 85.8947 1.88794 0.0155099 0
M  V30 803 O 85.2517 1.53626 0.985159 0
M  V30 804 C 85.3027 2.82274 -2.2584 0
M  V30 805 O 85.0237 2.48097 -3.61081 0
M  V30 806 C 86.5247 3.76343 -2.34266 0
M  V30 807 H 83.7447 0.473335 -0.4756 0
M  V30 808 H 86.2887 0.917045 -1.82785 0
M  V30 809 H 84.4437 3.40015 -1.85656 0
M  V30 810 H 84.8577 3.31029 -4.06842 0
M  V30 811 H 86.3317 4.63898 -2.9917 0
M  V30 812 H 86.8087 4.17619 -1.35982 0
M  V30 813 H 87.4147 3.24523 -2.74891 0
M  V30 814 N 85.7298 1.2412 0.971189 0
M  V30 815 C 86.9548 1.10667 1.75407 0
M  V30 816 C 87.3798 -0.337048 1.85056 0
M  V30 817 O 86.7378 -1.24396 1.31892 0
M  V30 818 C 86.7858 1.74726 3.15441 0
M  V30 819 O 85.8898 1.01566 3.99697 0
M  V30 820 H 85.2308 0.387341 0.539317 0
M  V30 821 H 87.7608 1.64358 1.2185 0
M  V30 822 H 87.7708 1.80341 3.6598 0
M  V30 823 H 86.4458 2.79773 3.07734 0
M  V30 824 H 85.0228 1.03713 3.58187 0
M  V30 825 N 87.2079 -1.17134 1.05439 0
M  V30 826 C 88.1709 -2.19439 0.661764 0
M  V30 827 C 89.1709 -1.58199 -0.288042 0
M  V30 828 O 90.3609 -1.74053 -0.0715803 0
M  V30 829 C 87.4929 -3.40889 -0.0276209 0
M  V30 830 H 88.6859 -2.55688 1.56728 0
M  V30 831 H 86.2389 -1.31259 0.848567 0
M  V30 832 H 86.9739 -3.10187 -0.94629 0
M  V30 833 H 86.7589 -3.86586 0.655238 0
M  V30 834 H 88.2489 -4.16603 -0.288342 0
M  V30 835 N 88.686 -0.835752 -1.33615 0
M  V30 836 C 89.596 -0.269088 -2.33052 0
M  V30 837 C 90.612 0.603251 -1.63208 0
M  V30 838 O 91.788 0.508112 -1.94885 0
M  V30 839 C 88.853 0.549091 -3.42324 0
M  V30 840 C 87.914 -0.347156 -4.27894 0
M  V30 841 C 87.147 0.43207 -5.31948 0
M  V30 842 O 87.37 1.66409 -5.45586 0
M  V30 843 O 86.304 -0.192298 -6.01593 0
M  V30 844 H 90.13 -1.09243 -2.83372 0
M  V30 845 H 87.715 -0.598198 -1.36901 0
M  V30 846 H 89.597 1.01414 -4.09015 0
M  V30 847 H 88.272 1.34955 -2.94226 0
M  V30 848 H 87.179 -0.859979 -3.64081 0
M  V30 849 H 88.512 -1.1123 -4.79467 0
M  V30 850 N 90.1641 1.46063 -0.591896 0
M  V30 851 C 91.0741 2.34192 0.13831 0
M  V30 852 C 92.0901 1.50305 0.876608 0
M  V30 853 O 93.2661 1.8315 0.837728 0
M  V30 854 C 90.3311 3.27656 1.13326 0
M  V30 855 C 89.3921 4.27445 0.39863 0
M  V30 856 C 88.6251 5.16443 1.34618 0
M  V30 857 O 88.8481 5.08553 2.58321 0
M  V30 858 O 87.7821 5.95843 0.851768 0
M  V30 859 H 91.6081 2.98002 -0.58552 0
M  V30 860 H 89.1931 1.45188 -0.352239 0
M  V30 861 H 91.0751 3.85291 1.70671 0
M  V30 862 H 89.7501 2.6643 1.83839 0
M  V30 863 H 88.6571 3.73471 -0.216895 0
M  V30 864 H 89.9901 4.91482 -0.265709 0
M  V30 865 N 91.6422 0.330177 1.54103 0
M  V30 866 C 92.8702 -0.272179 2.05102 0
M  V30 867 C 93.2852 -1.45267 1.20595 0
M  V30 868 O 92.6422 -1.8094 0.238144 0
M  V30 869 C 92.6932 -0.70023 3.54653 0
M  V30 870 O 92.4142 0.433301 4.35952 0
M  V30 871 C 93.9152 -1.3647 4.21771 0
M  V30 872 H 91.1352 -0.0549159 0.668749 0
M  V30 873 H 93.6792 0.478285 1.98828 0
M  V30 874 H 91.8342 -1.40066 3.61193 0
M  V30 875 H 92.2482 0.0947539 5.24414 0
M  V30 876 H 93.7222 -1.61509 5.27843 0
M  V30 877 H 94.1992 -2.31409 3.73292 0
M  V30 878 H 94.8052 -0.706675 4.19388 0
M  V30 879 N 93.1203 -1.57491 0.0584922 0
M  V30 880 C 94.3673 -1.92978 -0.613648 0
M  V30 881 C 94.6953 -0.937461 -1.70417 0
M  V30 882 O 93.9503 0.049078 -1.95638 0
M  V30 883 C 94.2493 -3.3513 -1.24188 0
M  V30 884 C 93.9153 -4.50037 -0.278826 0
M  V30 885 C 92.5773 -4.81198 -0.0138447 0
M  V30 886 C 94.9293 -5.19807 0.380777 0
M  V30 887 C 92.2573 -5.79473 0.918052 0
M  V30 888 C 94.6093 -6.19079 1.30091 0
M  V30 889 C 93.2733 -6.48665 1.57449 0
M  V30 890 H 92.5433 -0.706157 -0.22455 0
M  V30 891 H 95.1903 -1.91082 0.126533 0
M  V30 892 H 93.4953 -3.33429 -2.05749 0
M  V30 893 H 95.1923 -3.59871 -1.769 0
M  V30 894 H 91.7823 -4.25726 -0.495539 0
M  V30 895 H 95.9663 -4.95939 0.189158 0
M  V30 896 H 91.2223 -6.00727 1.1374 0
M  V30 897 H 95.3963 -6.7225 1.81804 0
M  V30 898 H 93.0233 -7.24628 2.29822 0
M  V30 899 N 94.5984 0.214957 -1.56127 0
M  V30 900 C 95.8234 0.95924 -1.83884 0
M  V30 901 C 96.2484 1.7689 -0.639644 0
M  V30 902 O 95.6064 1.76566 0.411601 0
M  V30 903 C 95.6544 1.84723 -3.09693 0
M  V30 904 O 94.7584 2.94346 -2.8885 0
M  V30 905 H 94.0994 0.27125 -0.606069 0
M  V30 906 H 96.6294 0.226276 -2.03345 0
M  V30 907 H 96.6394 2.25576 -3.39969 0
M  V30 908 H 95.3144 1.25218 -3.96602 0
M  V30 909 H 93.8914 2.57391 -2.69823 0
M  V30 910 N 96.0765 1.50051 0.48192 0
M  V30 911 C 97.0265 1.64512 1.5786 0
M  V30 912 C 98.0105 0.500073 1.52932 0
M  V30 913 O 99.2025 0.753964 1.60139 0
M  V30 914 C 96.3315 1.73263 2.9637 0
M  V30 915 C 95.4175 2.93409 3.06222 0
M  V30 916 N 95.8085 4.17236 2.85915 0
M  V30 917 C 94.1065 2.91742 3.37346 0
M  V30 918 C 94.8075 4.981 3.00451 0
M  V30 919 N 93.7835 4.3184 3.30174 0
M  V30 920 H 97.5855 2.57955 1.40842 0
M  V30 921 H 95.0995 1.47086 0.688439 0
M  V30 922 H 97.0965 1.81724 3.75209 0
M  V30 923 H 95.7565 0.809711 3.14442 0
M  V30 924 H 96.7675 4.46909 2.6171 0
M  V30 925 H 93.4445 2.08907 3.61475 0
M  V30 926 H 94.8345 6.06532 2.89082 0
M  V30 927 N 97.5546 -0.734337 1.39446 0
M  V30 928 C 98.7946 -1.50655 1.38139 0
M  V30 929 C 99.1586 -1.91986 -0.0228701 0
M  V30 930 O 100.36 -2.68318 -0.160947 0
M  V30 931 C 98.6306 -2.71251 2.32718 0
M  V30 932 S 100.19 -3.60892 2.49605 0
M  V30 933 H 97.0076 -0.515315 0.489869 0
M  V30 934 H 99.6096 -0.860392 1.75549 0
M  V30 935 H 98.3136 -2.39027 3.33608 0
M  V30 936 H 97.8446 -3.40795 1.96526 0
M  V30 937 H 99.8596 -4.64899 1.73446 0
M  V30 938 N 99.0327 -1.24633 -0.964593 0
M  V30 939 C 99.9797 -1.04144 -2.05968 0
M  V30 940 C 100.95 0.046262 -1.66036 0
M  V30 941 O 102.135 -0.108972 -1.90489 0
M  V30 942 C 99.2747 -0.65563 -3.38815 0
M  V30 943 C 98.3877 -1.81714 -3.91923 0
M  V30 944 C 97.5227 -1.37662 -5.13052 0
M  V30 945 C 96.5617 -2.50788 -5.58365 0
M  V30 946 N 95.6987 -2.07582 -6.70712 0
M  V30 947 H 100.539 -1.9787 -2.22827 0
M  V30 948 H 98.0757 -0.9855 -1.09208 0
M  V30 949 H 100.034 -0.412954 -4.15151 0
M  V30 950 H 98.6637 0.244627 -3.21872 0
M  V30 951 H 97.7157 -2.1734 -3.12198 0
M  V30 952 H 99.0277 -2.66705 -4.21509 0
M  V30 953 H 98.1817 -1.093 -5.96773 0
M  V30 954 H 96.9207 -0.497293 -4.85158 0
M  V30 955 H 95.9257 -2.79906 -4.73215 0
M  V30 956 H 97.1507 -3.39283 -5.88272 0
M  V30 957 H 95.0967 -1.22051 -6.44546 0
M  V30 958 H 95.0137 -2.86125 -6.99763 0
M  V30 959 H 96.2817 -1.82369 -7.57867 0
M  V30 960 N 100.511 1.16574 -1.06058 0
M  V30 961 C 101.736 1.91493 -0.796562 0
M  V30 962 C 102.161 1.76773 0.642868 0
M  V30 963 O 101.519 1.09142 1.44768 0
M  V30 964 C 101.567 3.40293 -1.19303 0
M  V30 965 O 100.671 4.11074 -0.330394 0
M  V30 966 H 100.012 0.596678 -0.291326 0
M  V30 967 H 102.542 1.47708 -1.41575 0
M  V30 968 H 102.552 3.91057 -1.16356 0
M  V30 969 H 101.227 3.50326 -2.24153 0
M  V30 970 H 99.8038 3.70513 -0.421225 0
M  V30 971 N 101.989 0.842826 1.3317 0
M  V30 972 C 102.899 0.281444 2.32906 0
M  V30 973 C 103.915 -0.594587 1.63526 0
M  V30 974 O 105.091 -0.49777 1.95152 0
M  V30 975 C 102.156 -0.530929 3.42611 0
M  V30 976 C 101.217 0.369843 4.27704 0
M  V30 977 C 100.45 -0.403853 5.3217 0
M  V30 978 O 100.673 -1.63513 5.46461 0
M  V30 979 O 99.6069 0.224199 6.01482 0
M  V30 980 H 103.433 1.10744 2.82789 0
M  V30 981 H 101.018 0.60545 1.36582 0
M  V30 982 H 102.9 -0.992437 4.09547 0
M  V30 983 H 101.575 -1.33392 2.94938 0
M  V30 984 H 100.482 0.879275 3.6362 0
M  V30 985 H 101.815 1.13771 4.78871 0
M  V30 986 N 103.467 -1.45747 0.599634 0
M  V30 987 C 104.417 -2.27538 -0.145107 0
M  V30 988 C 105.401 -1.3686 -0.846055 0
M  V30 989 O 106.593 -1.6091 -0.737357 0
M  V30 990 C 103.722 -3.23569 -1.14708 0
M  V30 991 C 102.808 -4.21734 -0.447383 0
M  V30 992 N 103.199 -5.03257 0.506535 0
M  V30 993 C 101.497 -4.40536 -0.695966 0
M  V30 994 C 102.198 -5.74426 0.917068 0
M  V30 995 N 101.174 -5.42966 0.26253 0
M  V30 996 H 104.976 -2.87965 0.587672 0
M  V30 997 H 102.49 -1.56803 0.422697 0
M  V30 998 H 104.487 -3.8089 -1.69495 0
M  V30 999 H 103.147 -2.64702 -1.8805 0
M  V30 1000 H 104.158 -5.10319 0.882899 0
M  V30 1001 H 100.835 -3.92802 -1.41467 0
M  V30 1002 H 102.225 -6.4995 1.70338 0
M  V30 1003 N 104.945 -0.338344 -1.53925 0
M  V30 1004 C 105.877 0.555117 -2.22376 0
M  V30 1005 C 106.89 1.06812 -1.22862 0
M  V30 1006 O 108.079 0.979163 -1.49247 0
M  V30 1007 C 105.179 1.77609 -2.88631 0
M  V30 1008 C 104.352 1.39927 -4.14414 0
M  V30 1009 C 103.411 2.47936 -4.64127 0
M  V30 1010 O 102.437 2.11461 -5.28463 0
M  V30 1011 N 103.639 3.79107 -4.39612 0
M  V30 1012 H 106.404 -0.0310778 -2.99684 0
M  V30 1013 H 103.965 -0.162226 -1.61085 0
M  V30 1014 H 105.957 2.49287 -3.18807 0
M  V30 1015 H 104.527 2.26978 -2.14941 0
M  V30 1016 H 103.747 0.513481 -3.90841 0
M  V30 1017 H 105.035 1.12341 -4.96243 0
M  V30 1018 H 104.433 4.11531 -3.88148 0
M  V30 1019 H 102.99 4.4697 -4.74406 0
M  V30 1020 N 106.423 1.57458 -0.0668435 0
M  V30 1021 C 107.67 1.93301 0.603406 0
M  V30 1022 C 107.998 0.946486 1.69917 0
M  V30 1023 O 107.253 -0.0387021 1.95662 0
M  V30 1024 C 107.552 3.35784 1.22409 0
M  V30 1025 C 107.218 4.50179 0.254955 0
M  V30 1026 C 105.88 4.81199 -0.0116746 0
M  V30 1027 C 108.232 5.19598 -0.408338 0
M  V30 1028 C 105.56 5.78978 -0.94877 0
M  V30 1029 C 107.912 6.18381 -1.33372 0
M  V30 1030 C 106.576 6.47821 -1.60887 0
M  V30 1031 H 105.846 0.707338 0.220802 0
M  V30 1032 H 108.493 1.91012 -0.136665 0
M  V30 1033 H 106.798 3.34515 2.03978 0
M  V30 1034 H 108.495 3.60804 1.74989 0
M  V30 1035 H 105.085 4.25983 0.472954 0
M  V30 1036 H 109.269 4.95832 -0.215456 0
M  V30 1037 H 104.525 6.00115 -1.16925 0
M  V30 1038 H 108.699 6.71277 -1.85367 0
M  V30 1039 H 106.326 7.23399 -2.33661 0
M  V30 1040 N 107.901 -0.206675 1.56239 0
M  V30 1041 C 108.849 -1.27571 1.94495 0
M  V30 1042 C 109.843 -1.47737 0.828862 0
M  V30 1043 O 111.049 -1.48735 1.0138 0
M  V30 1044 H 107.424 -0.428029 0.6183 0
M  V30 1045 H 109.395 -0.925961 2.8367 0
M  V30 1046 C 108.144 -2.61568 2.29079 0
M  V30 1047 H 107.467 -2.46863 3.14482 0
M  V30 1048 H 108.907 -3.35144 2.5972 0
M  V30 1049 C 107.366 -3.17695 1.12123 0
M  V30 1050 O 107.896 -3.99801 0.390153 0
M  V30 1051 N 106.102 -2.76276 0.901097 0
M  V30 1052 H 105.649 -2.09613 1.49733 0
M  V30 1053 H 105.607 -3.1417 0.120319 0
M  V30 1054 N 109.379 -1.50304 -0.473955 0
M  V30 1055 C 110.628 -1.60392 -1.22301 0
M  V30 1056 C 110.941 -0.308411 -1.93153 0
M  V30 1057 O 112.147 -0.288156 -2.69966 0
M  V30 1058 C 110.603 -2.83109 -2.2221 0
M  V30 1059 C 110.211 -4.19524 -1.57173 0
M  V30 1060 C 111.955 -3.0254 -2.97775 0
M  V30 1061 C 109.862 -5.33431 -2.55353 0
M  V30 1062 H 108.792 -0.597286 -0.460179 0
M  V30 1063 H 111.443 -1.76731 -0.493803 0
M  V30 1064 H 109.825 -2.60322 -2.9841 0
M  V30 1065 H 110.999 -4.52554 -0.867824 0
M  V30 1066 H 109.314 -4.05674 -0.939002 0
M  V30 1067 H 111.911 -3.84811 -3.71248 0
M  V30 1068 H 112.254 -2.14154 -3.56992 0
M  V30 1069 H 112.787 -3.25494 -2.28688 0
M  V30 1070 H 109.526 -6.23962 -2.00878 0
M  V30 1071 H 109.046 -5.04823 -3.23904 0
M  V30 1072 H 110.725 -5.63887 -3.17239 0
M  V30 1073 N 110.857 0.726932 -1.39834 0
M  V30 1074 C 112.134 1.47902 -1.28001 0
M  V30 1075 C 112.514 2.1083 0.106789 0
M  V30 1076 O 111.862 1.99242 1.11869 0
M  V30 1077 C 112.072 2.52392 -2.41038 0
M  V30 1078 C 113.42 3.18546 -2.80737 0
M  V30 1079 O 114.444 2.62708 -2.40547 0
M  V30 1080 O 113.303 4.19604 -3.50135 0
M  V30 1081 H 110.397 0.657163 -0.502062 0
M  V30 1082 H 112.943 0.760071 -1.51727 0
M  V30 1083 H 111.715 2.04329 -3.33715 0
M  V30 1084 H 111.338 3.31837 -2.19021 0
M  V30 1085 N 112.336 1.25143 0.95797 0
M  V30 1086 C 113.561 1.12521 1.74223 0
M  V30 1087 C 113.986 -0.317402 1.85403 0
M  V30 1088 O 113.344 -1.2299 1.33204 0
M  V30 1089 C 113.392 1.78062 3.1357 0
M  V30 1090 O 112.496 1.058 3.98598 0
M  V30 1091 H 111.837 0.39304 0.535178 0
M  V30 1092 H 114.367 1.65641 1.201 0
M  V30 1093 H 114.377 1.84213 3.64046 0
M  V30 1094 H 113.052 2.83021 3.04749 0
M  V30 1095 H 111.629 1.07506 3.57067 0
M  V30 1096 N 113.814 -1.1601 1.06675 0
M  V30 1097 C 114.747 -2.1947 0.625168 0
M  V30 1098 C 115.725 -1.58699 -0.354041 0
M  V30 1099 O 116.909 -1.86669 -0.262098 0
M  V30 1100 C 114.036 -3.38598 -0.0829593 0
M  V30 1101 C 113.082 -4.1787 0.853611 0
M  V30 1102 S 113.915 -4.81135 2.35094 0
M  V30 1103 C 115.071 -6.03639 1.65441 0
M  V30 1104 H 115.304 -2.56587 1.50168 0
M  V30 1105 H 112.837 -1.26862 0.880078 0
M  V30 1106 H 114.795 -4.07621 -0.485288 0
M  V30 1107 H 113.456 -2.99839 -0.935716 0
M  V30 1108 H 112.649 -5.03078 0.304755 0
M  V30 1109 H 112.251 -3.54361 1.196 0
M  V30 1110 H 114.543 -6.70632 0.962201 0
M  V30 1111 H 115.486 -6.63081 2.48454 0
M  V30 1112 H 115.894 -5.52965 1.13534 0
M  V30 1113 N 115.292 -0.849877 -1.32721 0
M  V30 1114 C 116.538 -0.451591 -1.97708 0
M  V30 1115 C 116.871 0.989175 -1.6712 0
M  V30 1116 O 116.146 1.69334 -0.956891 0
M  V30 1117 C 116.429 -0.685598 -3.53513 0
M  V30 1118 C 116.282 -2.17444 -3.93749 0
M  V30 1119 C 117.601 -0.138874 -4.39881 0
M  V30 1120 H 114.72 -0.16555 -0.718166 0
M  V30 1121 H 117.362 -1.06742 -1.57182 0
M  V30 1122 H 115.512 -0.161416 -3.88165 0
M  V30 1123 H 117.184 -2.76433 -3.693 0
M  V30 1124 H 115.427 -2.65476 -3.43081 0
M  V30 1125 H 116.098 -2.28888 -5.02309 0
M  V30 1126 H 118.574 -0.587068 -4.11938 0
M  V30 1127 H 117.45 -0.332213 -5.47894 0
M  V30 1128 H 117.711 0.95806 -4.31594 0
M  V30 1129 N 116.77 1.45427 -0.607355 0
M  V30 1130 C 117.72 2.27612 0.133038 0
M  V30 1131 C 118.704 1.37307 0.838785 0
M  V30 1132 O 119.896 1.61299 0.728813 0
M  V30 1133 C 117.025 3.24173 1.12991 0
M  V30 1134 C 116.111 4.21965 0.425011 0
M  V30 1135 N 116.502 5.02982 -0.533217 0
M  V30 1136 C 114.8 4.40899 0.672593 0
M  V30 1137 C 115.501 5.73931 -0.947518 0
M  V30 1138 N 114.477 5.42819 -0.291321 0
M  V30 1139 H 118.279 2.87649 -0.602935 0
M  V30 1140 H 115.793 1.56576 -0.431006 0
M  V30 1141 H 117.79 3.81783 1.67473 0
M  V30 1142 H 116.45 2.65696 1.86644 0
M  V30 1143 H 117.461 5.09843 -0.90995 0
M  V30 1144 H 114.138 3.93547 1.39382 0
M  V30 1145 H 115.528 6.49037 -1.73782 0
M  V30 1146 N 118.248 0.346503 1.53744 0
M  V30 1147 C 119.195 -0.508914 2.25119 0
M  V30 1148 C 120.165 -1.09315 1.25058 0
M  V30 1149 O 121.35 -1.12921 1.53797 0
M  V30 1150 C 118.49 -1.65246 3.02965 0
M  V30 1151 C 117.603 -1.09525 4.17886 0
M  V30 1152 C 116.738 -2.20634 4.83212 0
M  V30 1153 C 115.777 -1.62279 5.90196 0
M  V30 1154 N 114.914 -2.67143 6.49291 0
M  V30 1155 H 119.754 0.106283 2.9781 0
M  V30 1156 H 117.291 0.0642227 1.4696 0
M  V30 1157 H 119.249 -2.32574 3.4636 0
M  V30 1158 H 117.879 -2.2386 2.32565 0
M  V30 1159 H 116.931 -0.312818 3.79112 0
M  V30 1160 H 118.243 -0.628444 4.94825 0
M  V30 1161 H 117.397 -2.95821 5.29693 0
M  V30 1162 H 116.136 -2.70659 4.05703 0
M  V30 1163 H 115.141 -0.855989 5.43096 0
M  V30 1164 H 116.366 -1.13102 6.69615 0
M  V30 1165 H 114.312 -3.16417 5.74645 0
M  V30 1166 H 114.229 -2.25093 7.21713 0
M  V30 1167 H 115.497 -3.4209 7.00425 0
M  V30 1168 N 119.726 -1.57421 0.075193 0
M  V30 1169 C 120.676 -2.09441 -0.901025 0
M  V30 1170 C 121.66 -1.00486 -1.25663 0
M  V30 1171 O 122.852 -1.2679 -1.23504 0
M  V30 1172 C 119.981 -2.66233 -2.16737 0
M  V30 1173 C 119.067 -3.82198 -1.83808 0
M  V30 1174 N 119.458 -4.91028 -1.21345 0
M  V30 1175 C 117.756 -3.91558 -2.13538 0
M  V30 1176 C 118.457 -5.71852 -1.06585 0
M  V30 1177 N 117.433 -5.20233 -1.57667 0
M  V30 1178 H 121.235 -2.90972 -0.413815 0
M  V30 1179 H 118.749 -1.6189 -0.128601 0
M  V30 1180 H 120.746 -3.01819 -2.87595 0
M  V30 1181 H 119.406 -1.8615 -2.66042 0
M  V30 1182 H 120.417 -5.10323 -0.88268 0
M  V30 1183 H 117.094 -3.22454 -2.65197 0
M  V30 1184 H 118.484 -6.69401 -0.578933 0
M  V30 1185 N 121.204 0.198386 -1.56346 0
M  V30 1186 C 122.452 0.91747 -1.80075 0
M  V30 1187 C 122.773 1.83929 -0.647692 0
M  V30 1188 O 122.043 1.93029 0.334166 0
M  V30 1189 H 120.623 0.341774 -0.664228 0
M  V30 1190 H 123.285 0.204684 -1.93822 0
M  V30 1191 H 122.381 1.51055 -2.7311 0
M  V30 1192 N 122.682 1.50554 0.465978 0
M  V30 1193 C 123.612 1.72722 1.57128 0
M  V30 1194 C 124.593 0.576294 1.6004 0
M  V30 1195 O 125.778 0.81598 1.76225 0
M  V30 1196 C 122.908 1.82605 2.95419 0
M  V30 1197 C 121.862 2.97835 3.07373 0
M  V30 1198 C 121.188 2.92867 4.47363 0
M  V30 1199 C 122.488 4.38265 2.84114 0
M  V30 1200 H 124.182 2.65267 1.38829 0
M  V30 1201 H 121.728 1.2765 0.666441 0
M  V30 1202 H 123.681 1.96698 3.72677 0
M  V30 1203 H 122.405 0.866858 3.14886 0
M  V30 1204 H 121.064 2.83401 2.3255 0
M  V30 1205 H 120.712 1.94783 4.63755 0
M  V30 1206 H 120.412 3.70227 4.56296 0
M  V30 1207 H 121.936 3.09015 5.26633 0
M  V30 1208 H 123.35 4.53198 3.51118 0
M  V30 1209 H 121.747 5.17115 3.04487 0
M  V30 1210 H 122.817 4.50281 1.7993 0
M  V30 1211 N 124.16 -0.719506 1.40217 0
M  V30 1212 C 125.07 -1.86378 1.42479 0
M  V30 1213 C 126.086 -1.71073 0.317834 0
M  V30 1214 O 127.262 -1.93406 0.561794 0
M  V30 1215 C 124.327 -3.22136 1.28178 0
M  V30 1216 C 123.388 -3.49723 2.48982 0
M  V30 1217 C 122.621 -4.79004 2.35353 0
M  V30 1218 O 122.844 -5.53821 1.36524 0
M  V30 1219 O 121.778 -5.06839 3.2465 0
M  V30 1220 H 125.604 -1.87425 2.38968 0
M  V30 1221 H 123.189 -0.869405 1.21498 0
M  V30 1222 H 125.071 -4.03234 1.22395 0
M  V30 1223 H 123.746 -3.21825 0.347934 0
M  V30 1224 H 122.653 -2.6865 2.60342 0
M  V30 1225 H 123.986 -3.54828 3.41113 0
M  V30 1226 N 125.638 -1.25649 -0.95132 0
M  V30 1227 C 126.885 -1.10594 -1.69633 0
M  V30 1228 C 127.213 0.352515 -1.91279 0
M  V30 1229 O 126.468 1.27601 -1.4838 0
M  V30 1230 C 126.767 -1.80909 -3.08231 0
M  V30 1231 C 126.433 -3.30825 -3.06375 0
M  V30 1232 C 125.095 -3.71722 -3.05576 0
M  V30 1233 C 127.447 -4.26589 -2.99452 0
M  V30 1234 C 124.775 -5.06788 -2.95606 0
M  V30 1235 C 127.127 -5.61683 -2.91024 0
M  V30 1236 C 125.791 -6.01904 -2.88562 0
M  V30 1237 H 125.061 -0.404691 -0.620731 0
M  V30 1238 H 127.708 -1.55964 -1.11119 0
M  V30 1239 H 126.013 -1.27979 -3.70309 0
M  V30 1240 H 127.71 -1.6671 -3.64704 0
M  V30 1241 H 124.3 -2.98287 -3.07771 0
M  V30 1242 H 128.484 -3.95982 -2.99185 0
M  V30 1243 H 123.74 -5.37126 -2.92071 0
M  V30 1244 H 127.914 -6.35578 -2.84629 0
M  V30 1245 H 125.541 -7.06521 -2.80593 0
M  V30 1246 N 127.117 1.15442 -1.07289 0
M  V30 1247 C 128.347 1.89821 -0.815576 0
M  V30 1248 C 128.755 1.7823 0.634867 0
M  V30 1249 O 128.098 1.13152 1.44715 0
M  V30 1250 C 128.16 3.40817 -1.14385 0
M  V30 1251 C 127.824 3.76193 -2.59476 0
M  V30 1252 C 128.821 3.77269 -3.57721 0
M  V30 1253 C 126.506 4.0652 -2.95037 0
M  V30 1254 C 128.5 4.08176 -4.89562 0
M  V30 1255 C 126.187 4.37092 -4.27076 0
M  V30 1256 C 127.185 4.37902 -5.24148 0
M  V30 1257 O 126.873 4.67741 -6.53815 0
M  V30 1258 H 126.605 0.608465 -0.294528 0
M  V30 1259 H 129.159 1.472 -1.43252 0
M  V30 1260 H 127.389 3.83835 -0.469865 0
M  V30 1261 H 129.078 3.96485 -0.869179 0
M  V30 1262 H 129.844 3.5394 -3.3159 0
M  V30 1263 H 125.723 4.05049 -2.20128 0
M  V30 1264 H 129.267 4.08723 -5.65324 0
M  V30 1265 H 125.164 4.59889 -4.5296 0
M  V30 1266 H 125.932 4.85509 -6.58957 0
M  V30 1267 N 128.595 0.856903 1.32268 0
M  V30 1268 C 129.843 0.460474 1.96784 0
M  V30 1269 C 130.164 -0.987701 1.68135 0
M  V30 1270 O 129.434 -1.69058 0.989765 0
M  V30 1271 H 128.014 0.167289 0.728027 0
M  V30 1272 H 130.676 1.09383 1.61312 0
M  V30 1273 H 129.772 0.60739 3.06133 0
M  V30 1274 N 130.073 -1.45103 0.615059 0
M  V30 1275 C 131.303 -2.06254 0.119596 0
M  V30 1276 C 131.711 -1.4591 -1.20445 0
M  V30 1277 O 131.054 -0.570384 -1.7462 0
M  V30 1278 C 131.116 -3.59396 -0.0865591 0
M  V30 1279 C 130.78 -4.42116 1.15683 0
M  V30 1280 C 131.777 -4.7662 2.07676 0
M  V30 1281 C 129.462 -4.82749 1.38775 0
M  V30 1282 C 131.456 -5.50622 3.21082 0
M  V30 1283 C 129.143 -5.56504 2.52481 0
M  V30 1284 C 130.141 -5.90358 3.43463 0
M  V30 1285 O 129.829 -6.62615 4.55189 0
M  V30 1286 H 129.561 -0.672423 0.0694512 0
M  V30 1287 H 132.115 -1.87219 0.844885 0
M  V30 1288 H 130.345 -3.76859 -0.866823 0
M  V30 1289 H 132.034 -4.02365 -0.534555 0
M  V30 1290 H 132.8 -4.4578 1.91063 0
M  V30 1291 H 128.679 -4.55829 0.688545 0
M  V30 1292 H 132.223 -5.76965 3.92119 0
M  V30 1293 H 128.12 -5.86759 2.69043 0
M  V30 1294 H 128.888 -6.81071 4.53966 0
M  V30 1295 N 131.551 -0.354651 -1.53558 0
M  V30 1296 C 132.8 0.239504 -2.00273 0
M  V30 1297 C 133.113 1.50759 -1.24623 0
M  V30 1298 O 134.319 2.17968 -1.61871 0
M  V30 1299 C 132.775 0.477341 -3.5672 0
M  V30 1300 C 132.383 -0.775488 -4.41237 0
M  V30 1301 C 134.127 1.02975 -4.11821 0
M  V30 1302 C 132.034 -0.507838 -5.89216 0
M  V30 1303 H 130.964 0.0932743 -0.748208 0
M  V30 1304 H 133.615 -0.471701 -1.77334 0
M  V30 1305 H 131.997 1.24953 -3.7577 0
M  V30 1306 H 133.171 -1.54963 -4.33962 0
M  V30 1307 H 131.486 -1.25033 -3.97185 0
M  V30 1308 H 134.083 1.24513 -5.2 0
M  V30 1309 H 134.426 1.98862 -3.65731 0
M  V30 1310 H 134.959 0.317994 -3.96527 0
M  V30 1311 H 131.698 -1.43674 -6.39561 0
M  V30 1312 H 131.218 0.228011 -5.99366 0
M  V30 1313 H 132.897 -0.129238 -6.46871 0
M  V30 1314 N 133.029 1.57378 -0.0835403 0
M  V30 1315 C 133.976 2.13384 0.879539 0
M  V30 1316 C 134.946 1.04936 1.28754 0
M  V30 1317 O 136.131 1.32662 1.37133 0
M  V30 1318 C 133.271 2.70932 2.13752 0
M  V30 1319 C 132.384 3.93575 1.7811 0
M  V30 1320 C 131.519 4.39326 2.98607 0
M  V30 1321 C 130.558 5.54587 2.59037 0
M  V30 1322 N 129.695 5.95243 3.72331 0
M  V30 1323 H 134.535 2.9537 0.395076 0
M  V30 1324 H 132.072 1.45953 0.183349 0
M  V30 1325 H 134.03 3.02411 2.87408 0
M  V30 1326 H 132.66 1.91693 2.59718 0
M  V30 1327 H 131.712 3.68483 0.94469 0
M  V30 1328 H 133.024 4.77258 1.45005 0
M  V30 1329 H 132.178 4.72528 3.80529 0
M  V30 1330 H 130.917 3.5452 3.34913 0
M  V30 1331 H 129.922 5.21024 1.75539 0
M  V30 1332 H 131.147 6.41133 2.23887 0
M  V30 1333 H 129.093 5.13385 4.08378 0
M  V30 1334 H 129.01 6.73694 3.43034 0
M  V30 1335 H 130.278 6.33072 4.54797 0
M  V30 1336 N 134.507 -0.190092 1.56449 0
M  V30 1337 C 135.437 -1.23816 1.97969 0
M  V30 1338 C 136.418 -1.47201 0.852395 0
M  V30 1339 O 137.603 -1.58854 1.1171 0
M  V30 1340 C 134.733 -2.5813 2.3235 0
M  V30 1341 C 133.687 -2.49348 3.47864 0
M  V30 1342 C 133.013 -3.8798 3.67934 0
M  V30 1343 C 134.313 -2.01424 4.81898 0
M  V30 1344 H 136.007 -0.89311 2.85769 0
M  V30 1345 H 133.553 -0.428177 1.37487 0
M  V30 1346 H 135.506 -3.31637 2.59991 0
M  V30 1347 H 134.23 -2.94386 1.41438 0
M  V30 1348 H 132.889 -1.78297 3.20321 0
M  V30 1349 H 132.537 -4.21597 2.74344 0
M  V30 1350 H 132.237 -3.82978 4.45648 0
M  V30 1351 H 133.761 -4.63101 3.97957 0
M  V30 1352 H 135.175 -2.64693 5.08538 0
M  V30 1353 H 133.572 -2.07413 5.63116 0
M  V30 1354 H 134.642 -0.967677 4.75146 0
M  V30 1355 N 135.985 -1.50799 -0.457987 0
M  V30 1356 C 137.234 -1.6168 -1.20593 0
M  V30 1357 C 137.547 -0.32888 -1.92815 0
M  V30 1358 O 138.753 -0.316773 -2.69646 0
M  V30 1359 C 137.209 -2.8545 -2.19195 0
M  V30 1360 C 136.817 -4.21168 -1.52715 0
M  V30 1361 C 138.561 -3.05681 -2.94549 0
M  V30 1362 C 136.468 -5.3611 -2.4968 0
M  V30 1363 H 135.398 -0.602134 -0.453818 0
M  V30 1364 H 138.049 -1.77245 -0.475031 0
M  V30 1365 H 136.431 -2.63472 -2.95632 0
M  V30 1366 H 137.605 -4.53449 -0.819775 0
M  V30 1367 H 135.92 -4.06648 -0.895922 0
M  V30 1368 H 138.517 -3.88727 -3.67145 0
M  V30 1369 H 138.86 -2.17929 -3.54701 0
M  V30 1370 H 139.393 -3.27901 -2.25223 0
M  V30 1371 H 136.132 -6.26057 -1.94249 0
M  V30 1372 H 135.652 -5.0823 -3.18532 0
M  V30 1373 H 137.331 -5.6722 -3.11241 0
M  V30 1374 N 137.463 0.71206 -1.40597 0
M  V30 1375 C 138.411 1.84746 -1.41321 0
M  V30 1376 C 139.405 1.66842 -0.293268 0
M  V30 1377 O 140.611 1.73904 -0.464481 0
M  V30 1378 H 136.986 0.608522 -0.441819 0
M  V30 1379 H 138.957 1.81252 -2.37045 0
M  V30 1380 C 137.706 3.22638 -1.29614 0
M  V30 1381 H 137.029 3.37023 -2.15071 0
M  V30 1382 H 138.469 4.02209 -1.3418 0
M  V30 1383 C 136.928 3.36899 -0.00673121 0
M  V30 1384 O 137.458 3.90186 0.954859 0
M  V30 1385 N 135.664 2.9053 0.0639327 0
M  V30 1386 H 135.211 2.47353 -0.719311 0
M  V30 1387 H 135.169 3.0045 0.926118 0
M  V30 1388 N 138.941 1.26152 0.944643 0
M  V30 1389 C 140.188 1.11492 1.69044 0
M  V30 1390 C 140.516 -0.342366 1.91463 0
M  V30 1391 O 139.771 -1.26812 1.49054 0
M  V30 1392 C 140.07 1.82541 3.07268 0
M  V30 1393 C 139.736 3.32445 3.04616 0
M  V30 1394 C 138.398 3.73337 3.036 0
M  V30 1395 C 140.75 4.28171 2.97185 0
M  V30 1396 C 138.078 5.08348 2.92915 0
M  V30 1397 C 140.43 5.63218 2.88041 0
M  V30 1398 C 139.094 6.03426 2.85366 0
M  V30 1399 H 138.364 0.407977 0.618576 0
M  V30 1400 H 141.011 1.56551 1.10291 0
M  V30 1401 H 139.316 1.29941 3.69625 0
M  V30 1402 H 141.013 1.68642 3.63815 0
M  V30 1403 H 137.603 2.99915 3.06185 0
M  V30 1404 H 141.787 3.97563 2.97081 0
M  V30 1405 H 137.043 5.38667 2.89219 0
M  V30 1406 H 141.217 6.37078 2.81254 0
M  V30 1407 H 138.844 7.07999 2.76842 0
M  V30 1408 N 140.419 -1.14872 1.07899 0
M  V30 1409 C 141.668 -1.85135 0.800499 0
M  V30 1410 C 141.981 -1.83547 -0.676014 0
M  V30 1411 O 143.187 -2.49548 -1.06948 0
M  V30 1412 C 141.643 -3.3231 1.38197 0
M  V30 1413 C 141.251 -3.42329 2.8899 0
M  V30 1414 C 142.995 -4.0772 1.18174 0
M  V30 1415 C 140.902 -4.83684 3.403 0
M  V30 1416 H 139.832 -0.693563 0.29578 0
M  V30 1417 H 142.483 -1.29532 1.29976 0
M  V30 1418 H 140.865 -3.87618 0.810431 0
M  V30 1419 H 142.039 -2.97097 3.52236 0
M  V30 1420 H 140.354 -2.80369 3.07867 0
M  V30 1421 H 142.951 -5.12049 1.5398 0
M  V30 1422 H 143.294 -4.16124 0.12117 0
M  V30 1423 H 143.827 -3.58696 1.71994 0
M  V30 1424 H 140.566 -4.80465 4.45907 0
M  V30 1425 H 140.086 -5.29474 2.81811 0
M  V30 1426 H 141.765 -5.52558 3.36584 0
M  V30 1427 N 141.898 -0.863906 -1.31812 0
M  V30 1428 C 143.314 -0.555004 -1.49639 0
M  V30 1429 C 143.514 0.912266 -1.79666 0
M  V30 1430 O 142.57 1.69479 -1.87171 0
M  V30 1431 C 143.883 -1.44998 -2.63431 0
M  V30 1432 C 145.431 -1.45138 -2.77316 0
M  V30 1433 C 145.906 -2.33179 -3.94197 0
M  V30 1434 N 147.397 -2.31025 -4.01474 0
M  V30 1435 C 148.132 -2.95871 -4.9117 0
M  V30 1436 N 147.628 -3.69863 -5.8581 0
M  V30 1437 N 149.421 -2.85211 -4.84367 0
M  V30 1438 H 141.572 -1.81339 -1.10589 0
M  V30 1439 H 143.835 -0.77505 -0.545895 0
M  V30 1440 H 143.541 -2.49377 -2.48 0
M  V30 1441 H 143.415 -1.14409 -3.59431 0
M  V30 1442 H 145.802 -0.415201 -2.92164 0
M  V30 1443 H 145.883 -1.79747 -1.82001 0
M  V30 1444 H 145.527 -3.3687 -3.80107 0
M  V30 1445 H 145.457 -1.95897 -4.88807 0
M  V30 1446 H 147.948 -1.77238 -3.33759 0
M  V30 1447 H 148.261 -4.16486 -6.50968 0
M  V30 1448 H 146.606 -3.73971 -5.85808 0
M  V30 1449 H 149.797 -2.26948 -4.09405 0
M  V30 1450 H 149.97 -3.36027 -5.54066 0
M  V30 1451 N 143.376 1.44774 -0.622745 0
M  V30 1452 C 144.306 2.33382 0.0741861 0
M  V30 1453 C 145.287 1.47719 0.843387 0
M  V30 1454 O 146.472 1.76458 0.810934 0
M  V30 1455 C 143.602 3.30663 1.06204 0
M  V30 1456 C 142.556 4.26079 0.405037 0
M  V30 1457 C 141.882 5.13165 1.5022 0
M  V30 1458 C 143.182 5.1781 -0.683414 0
M  V30 1459 H 144.876 2.91905 -0.665713 0
M  V30 1460 H 142.422 1.40363 -0.321587 0
M  V30 1461 H 144.375 3.9153 1.55827 0
M  V30 1462 H 143.099 2.70331 1.83272 0
M  V30 1463 H 141.758 3.66532 -0.0704683 0
M  V30 1464 H 141.406 4.49191 2.26355 0
M  V30 1465 H 141.106 5.77812 1.06803 0
M  V30 1466 H 142.63 5.76902 2.00041 0
M  V30 1467 H 144.044 5.72661 -0.270631 0
M  V30 1468 H 142.441 5.91015 -1.04023 0
M  V30 1469 H 143.511 4.59326 -1.55395 0
M  V30 1470 N 144.854 0.36279 1.53368 0
M  V30 1471 C 145.801 -0.485008 2.25646 0
M  V30 1472 C 146.771 -1.07982 1.2621 0
M  V30 1473 O 147.956 -1.11284 1.54986 0
M  V30 1474 C 145.096 -1.62023 3.04701 0
M  V30 1475 C 144.209 -1.05086 4.19024 0
M  V30 1476 C 143.344 -2.15496 4.85525 0
M  V30 1477 C 142.383 -1.5601 5.91884 0
M  V30 1478 N 141.52 -2.60241 6.52088 0
M  V30 1479 H 146.36 0.137864 2.97681 0
M  V30 1480 H 143.897 0.0798061 1.46883 0
M  V30 1481 H 145.855 -2.28887 3.48807 0
M  V30 1482 H 144.485 -2.2138 2.34927 0
M  V30 1483 H 143.537 -0.27259 3.79422 0
M  V30 1484 H 144.849 -0.575926 4.95464 0
M  V30 1485 H 144.003 -2.90186 5.32801 0
M  V30 1486 H 142.742 -2.66341 4.08551 0
M  V30 1487 H 141.747 -0.798338 5.43973 0
M  V30 1488 H 142.972 -1.05994 6.70777 0
M  V30 1489 H 140.918 -3.10304 5.77968 0
M  V30 1490 H 140.835 -2.17426 7.24059 0
M  V30 1491 H 142.103 -3.34641 7.04014 0
M  V30 1492 N 146.332 -1.57332 0.0918853 0
M  V30 1493 C 147.28 -2.15075 -0.885747 0
M  V30 1494 C 148.274 -1.09277 -1.29441 0
M  V30 1495 O 149.48 -1.27627 -1.26931 0
M  V30 1496 H 145.855 -0.687966 -0.303656 0
M  V30 1497 H 147.826 -2.96047 -0.373995 0
M  V30 1498 C 146.575 -2.74325 -2.13638 0
M  V30 1499 H 145.898 -3.55418 -1.8308 0
M  V30 1500 H 147.338 -3.183 -2.80109 0
M  V30 1501 C 145.797 -1.70062 -2.90827 0
M  V30 1502 O 146.327 -1.13763 -3.85254 0
M  V30 1503 N 144.533 -1.40628 -2.54307 0
M  V30 1504 H 144.08 -1.866 -1.7759 0
M  V30 1505 H 144.038 -0.711043 -3.06254 0
M  V30 1506 N 147.81 0.181792 -1.56548 0
M  V30 1507 C 149.221 0.745244 -1.71181 0
M  V30 1508 C 149.572 1.83262 -0.70068 0
M  V30 1509 O 148.697 2.15946 0.140154 0
M  V30 1510 C 149.292 1.35859 -3.10367 0
M  V30 1511 C 147.851 1.86898 -3.2672 0
M  V30 1512 C 146.998 0.743942 -2.67134 0
M  V30 1513 H 149.949 -0.0434661 -1.5864 0
M  V30 1514 H 149.97 2.22817 -3.08436 0
M  V30 1515 H 149.482 0.566948 -3.83937 0
M  V30 1516 H 147.583 2.68738 -2.5809 0
M  V30 1517 H 147.696 2.02162 -4.34359 0
M  V30 1518 H 146.06 1.16169 -2.26665 0
M  V30 1519 H 146.843 -0.035676 -3.43281 0
M  V30 1520 N 149.288 1.51039 0.449983 0
M  V30 1521 C 150.516 1.66869 1.2232 0
M  V30 1522 C 150.931 0.360727 1.85322 0
M  V30 1523 O 150.288 -0.659531 1.70166 0
M  V30 1524 C 150.339 2.77524 2.31652 0
M  V30 1525 O 150.06 4.03252 1.7123 0
M  V30 1526 C 151.561 3.04512 3.2216 0
M  V30 1527 H 148.781 0.560326 0.369155 0
M  V30 1528 H 151.325 1.97385 0.534719 0
M  V30 1529 H 149.48 2.49642 2.96239 0
M  V30 1530 H 149.894 4.64609 2.43389 0
M  V30 1531 H 151.368 3.85551 3.95038 0
M  V30 1532 H 151.845 2.16415 3.8218 0
M  V30 1533 H 152.451 3.34005 2.63288 0
M  V30 1534 N 150.766 -0.704594 1.40972 0
M  V30 1535 C 152.012 -1.46675 1.40051 0
M  V30 1536 C 152.345 -1.94199 0.00641102 0
M  V30 1537 O 151.62 -1.68916 -0.964235 0
M  V30 1538 C 151.903 -2.68505 2.39952 0
M  V30 1539 C 151.756 -2.26805 3.88432 0
M  V30 1540 C 153.075 -3.70686 2.37233 0
M  V30 1541 H 150.194 -0.532015 0.510028 0
M  V30 1542 H 152.836 -0.803255 1.72185 0
M  V30 1543 H 150.986 -3.25114 2.1268 0
M  V30 1544 H 152.658 -1.75592 4.26574 0
M  V30 1545 H 150.901 -1.58685 4.03734 0
M  V30 1546 H 151.572 -3.14181 4.53866 0
M  V30 1547 H 154.048 -3.23731 2.61415 0
M  V30 1548 H 152.924 -4.53553 3.09162 0
M  V30 1549 H 153.185 -4.19754 1.38777 0
M  V30 1550 N 152.244 -1.26651 -0.937939 0
M  V30 1551 C 153.154 -1.10276 -2.07066 0
M  V30 1552 C 154.17 -0.0354197 -1.73964 0
M  V30 1553 O 155.346 -0.239816 -1.99967 0
M  V30 1554 C 152.411 -0.740887 -3.38691 0
M  V30 1555 C 151.472 -1.88799 -3.85556 0
M  V30 1556 C 150.705 -1.54329 -5.10899 0
M  V30 1557 O 150.928 -0.446494 -5.6865 0
M  V30 1558 O 149.862 -2.37911 -5.52885 0
M  V30 1559 H 153.688 -2.05309 -2.23789 0
M  V30 1560 H 151.273 -1.05743 -1.0554 0
M  V30 1561 H 153.155 -0.55195 -4.1777 0
M  V30 1562 H 151.83 0.180022 -3.23199 0
M  V30 1563 H 150.737 -2.13191 -3.07409 0
M  V30 1564 H 152.07 -2.78874 -4.05574 0
M  V30 1565 N 153.722 1.14298 -1.08507 0
M  V30 1566 C 154.952 1.88945 -0.835663 0
M  V30 1567 C 155.36 1.78894 0.615928 0
M  V30 1568 O 154.703 1.1468 1.43506 0
M  V30 1569 C 154.765 3.39585 -1.17994 0
M  V30 1570 C 154.429 3.7342 -2.63451 0
M  V30 1571 C 155.426 3.73454 -3.61702 0
M  V30 1572 C 153.111 4.03368 -2.99332 0
M  V30 1573 C 155.105 4.02961 -4.93864 0
M  V30 1574 C 152.792 4.32538 -4.31687 0
M  V30 1575 C 153.79 4.32318 -5.28763 0
M  V30 1576 O 153.478 4.6078 -6.58739 0
M  V30 1577 H 153.21 0.605307 -0.300965 0
M  V30 1578 H 155.764 1.45673 -1.44806 0
M  V30 1579 H 153.994 3.83315 -0.51055 0
M  V30 1580 H 155.683 3.9554 -0.911182 0
M  V30 1581 H 156.449 3.50403 -3.35325 0
M  V30 1582 H 152.328 4.02692 -2.24411 0
M  V30 1583 H 155.872 4.02704 -5.69627 0
M  V30 1584 H 151.769 4.55059 -4.57812 0
M  V30 1585 H 152.537 4.78492 -6.64069 0
M  V30 1586 N 155.201 0.870884 1.31352 0
M  V30 1587 C 156.134 0.271983 2.26573 0
M  V30 1588 C 157.112 -0.599385 1.51149 0
M  V30 1589 O 158.296 -0.552605 1.80218 0
M  V30 1590 C 155.423 -0.614801 3.33073 0
M  V30 1591 C 154.469 0.185342 4.26097 0
M  V30 1592 S 155.302 1.56444 5.12138 0
M  V30 1593 C 156.458 0.683807 6.22153 0
M  V30 1594 H 156.691 1.07916 2.77023 0
M  V30 1595 H 154.224 0.669459 1.39132 0
M  V30 1596 H 156.182 -1.12074 3.94905 0
M  V30 1597 H 154.843 -1.39593 2.81376 0
M  V30 1598 H 154.036 -0.490771 5.01605 0
M  V30 1599 H 153.638 0.623415 3.68768 0
M  V30 1600 H 155.93 -0.10521 6.77418 0
M  V30 1601 H 156.873 1.41004 6.93919 0
M  V30 1602 H 157.281 0.250952 5.63942 0
M  V30 1603 N 156.679 -1.44442 0.630414 0
M  V30 1604 C 157.627 -2.32437 -0.0871428 0
M  V30 1605 C 158.621 -1.47304 -0.836525 0
M  V30 1606 O 159.827 -1.63653 -0.749506 0
M  V30 1607 H 156.202 -0.750533 -0.0469495 0
M  V30 1608 H 158.173 -2.90709 0.673096 0
M  V30 1609 C 156.922 -3.31288 -1.05563 0
M  V30 1610 H 156.245 -3.96805 -0.488426 0
M  V30 1611 H 157.685 -3.9554 -1.52721 0
M  V30 1612 C 156.144 -2.6016 -2.14052 0
M  V30 1613 O 156.674 -2.39997 -3.22124 0
M  V30 1614 N 154.88 -2.19911 -1.89967 0
M  V30 1615 H 154.427 -2.36509 -1.02085 0
M  V30 1616 H 154.385 -1.72646 -2.62756 0
M  V30 1617 N 158.157 -0.370918 -1.53173 0
M  V30 1618 C 159.382 0.220293 -2.06227 0
M  V30 1619 C 159.807 1.41243 -1.24225 0
M  V30 1620 O 159.165 1.79387 -0.262645 0
M  V30 1621 C 159.213 0.586663 -3.55796 0
M  V30 1622 O 158.317 1.68317 -3.76488 0
M  V30 1623 H 157.658 0.0308099 -0.663285 0
M  V30 1624 H 160.188 -0.533068 -1.97534 0
M  V30 1625 H 160.198 0.85617 -3.98916 0
M  V30 1626 H 158.873 -0.285013 -4.14922 0
M  V30 1627 H 157.45 1.40881 -3.45264 0
M  V30 1628 N 159.635 1.57281 -0.100228 0
M  V30 1629 C 160.884 1.93713 0.561984 0
M  V30 1630 C 161.197 0.984492 1.69018 0
M  V30 1631 O 162.403 1.24273 2.41389 0
M  V30 1632 C 160.859 3.4421 1.05106 0
M  V30 1633 C 160.467 4.47975 -0.0476628 0
M  V30 1634 C 162.211 3.89595 1.68571 0
M  V30 1635 C 160.118 5.89631 0.457055 0
M  V30 1636 H 159.048 0.723082 0.2137 0
M  V30 1637 H 161.699 1.82644 -0.177057 0
M  V30 1638 H 160.081 3.50449 1.84395 0
M  V30 1639 H 161.255 4.53385 -0.823333 0
M  V30 1640 H 159.57 4.1223 -0.587816 0
M  V30 1641 H 162.167 4.92832 2.07414 0
M  V30 1642 H 162.51 3.28526 2.55688 0
M  V30 1643 H 163.043 3.86078 0.958562 0
M  V30 1644 H 159.782 6.54411 -0.377616 0
M  V30 1645 H 159.302 5.87681 1.19962 0
M  V30 1646 H 160.981 6.40363 0.92437 0
M  V30 1647 N 161.113 -0.173488 1.56642 0
M  V30 1648 C 162.343 -0.904781 1.85734 0
M  V30 1649 C 162.751 -1.76431 0.68328 0
M  V30 1650 O 162.094 -1.802 -0.356865 0
M  V30 1651 C 162.156 -1.83382 3.09211 0
M  V30 1652 C 161.82 -1.15411 4.42187 0
M  V30 1653 C 162.817 -0.520609 5.17287 0
M  V30 1654 C 160.502 -1.15151 4.88923 0
M  V30 1655 C 162.496 0.106412 6.37311 0
M  V30 1656 C 160.183 -0.520664 6.08878 0
M  V30 1657 C 161.181 0.107196 6.82916 0
M  V30 1658 O 160.869 0.728102 8.00596 0
M  V30 1659 H 160.601 -0.268408 0.62043 0
M  V30 1660 H 163.155 -0.179096 2.04618 0
M  V30 1661 H 161.385 -2.59976 2.86268 0
M  V30 1662 H 163.074 -2.43476 3.24768 0
M  V30 1663 H 163.84 -0.514606 4.82262 0
M  V30 1664 H 159.719 -1.62961 4.31236 0
M  V30 1665 H 163.263 0.597081 6.9504 0
M  V30 1666 H 159.16 -0.524242 6.43368 0
M  V30 1667 H 159.928 0.627138 8.16094 0
M  V30 1668 N 162.591 -1.51276 -0.441967 0
M  V30 1669 C 163.539 -1.72823 -1.55676 0
M  V30 1670 C 164.533 -0.59445 -1.58627 0
M  V30 1671 O 165.739 -0.775715 -1.62427 0
M  V30 1672 H 162.114 -0.545983 -0.517113 0
M  V30 1673 H 164.085 -2.6628 -1.34675 0
M  V30 1674 C 162.834 -1.86619 -2.93375 0
M  V30 1675 H 162.157 -2.73264 -2.91834 0
M  V30 1676 H 163.597 -2.05709 -3.70756 0
M  V30 1677 C 162.056 -0.624842 -3.31055 0
M  V30 1678 O 162.586 0.222636 -4.01083 0
M  V30 1679 N 160.792 -0.470288 -2.86769 0
M  V30 1680 H 160.339 -1.161 -2.29953 0
M  V30 1681 H 160.297 0.359051 -3.12343 0
M  V30 1682 N 164.069 0.697108 -1.41344 0
M  V30 1683 C 165.48 1.27697 -1.36199 0
M  V30 1684 C 165.831 1.9615 -0.0443463 0
M  V30 1685 O 164.956 1.98689 0.857419 0
M  V30 1686 C 165.551 2.32223 -2.46694 0
M  V30 1687 C 164.11 2.8579 -2.44952 0
M  V30 1688 C 163.257 1.59807 -2.26621 0
M  V30 1689 H 166.208 0.491968 -1.50882 0
M  V30 1690 H 166.229 3.1348 -2.15664 0
M  V30 1691 H 165.741 1.82373 -3.42581 0
M  V30 1692 H 163.842 3.3982 -1.52817 0
M  V30 1693 H 163.955 3.36325 -3.41207 0
M  V30 1694 H 162.319 1.8556 -1.7447 0
M  V30 1695 H 163.102 1.11956 -3.24532 0
M  V30 1696 N 165.547 1.27147 0.931209 0
M  V30 1697 C 166.793 1.13446 1.68101 0
M  V30 1698 C 167.126 -0.319628 1.91552 0
M  V30 1699 O 166.401 -1.23407 1.50336 0
M  V30 1700 C 166.684 1.91482 3.0497 0
M  V30 1701 C 166.537 3.44855 2.88782 0
M  V30 1702 C 167.856 1.71651 4.05246 0
M  V30 1703 H 164.975 0.413498 0.610072 0
M  V30 1704 H 167.617 1.56261 1.08086 0
M  V30 1705 H 165.767 1.55095 3.56199 0
M  V30 1706 H 167.439 3.9105 2.44698 0
M  V30 1707 H 165.682 3.71373 2.24198 0
M  V30 1708 H 166.353 3.94694 3.85902 0
M  V30 1709 H 168.829 2.0337 3.63015 0
M  V30 1710 H 167.705 2.28651 4.99009 0
M  V30 1711 H 167.966 0.663555 4.37092 0
M  V30 1712 N 167.025 -1.13721 1.09112 0
M  V30 1713 C 168.436 -1.6648 0.845068 0
M  V30 1714 C 168.787 -1.85911 -0.62701 0
M  V30 1715 O 167.912 -1.57556 -1.48341 0
M  V30 1716 C 168.507 -3.02413 1.52748 0
M  V30 1717 C 167.066 -3.52176 1.32849 0
M  V30 1718 C 166.213 -2.27492 1.58564 0
M  V30 1719 H 169.164 -0.976872 1.25072 0
M  V30 1720 H 169.185 -3.68223 0.958752 0
M  V30 1721 H 168.697 -2.88238 2.59885 0
M  V30 1722 H 166.798 -3.7156 0.278137 0
M  V30 1723 H 166.911 -4.32499 2.0611 0
M  V30 1724 H 165.275 -2.33923 1.00758 0
M  V30 1725 H 166.058 -2.15886 2.66924 0
M  V30 1726 N 168.503 -0.877838 -1.30888 0
M  V30 1727 C 169.749 -0.502773 -1.97088 0
M  V30 1728 C 170.104 0.936274 -1.68082 0
M  V30 1729 O 169.397 1.65162 -0.971196 0
M  V30 1730 C 169.591 -0.705748 -3.50363 0
M  V30 1731 C 169.42 -2.16297 -3.94266 0
M  V30 1732 C 168.19 -2.80614 -4.20219 0
M  V30 1733 C 170.388 -3.13606 -4.07622 0
M  V30 1734 N 168.37 -4.17007 -4.50532 0
M  V30 1735 C 169.741 -4.35051 -4.41736 0
M  V30 1736 C 171.796 -3.09491 -3.90026 0
M  V30 1737 C 170.499 -5.52911 -4.60089 0
M  V30 1738 C 172.525 -4.26616 -4.09576 0
M  V30 1739 C 171.887 -5.46825 -4.44029 0
M  V30 1740 H 167.986 -0.233168 -0.746429 0
M  V30 1741 H 170.57 -1.13408 -1.58261 0
M  V30 1742 H 168.741 -0.103976 -3.88261 0
M  V30 1743 H 170.473 -0.298291 -4.03599 0
M  V30 1744 H 167.228 -2.3152 -4.13153 0
M  V30 1745 H 167.652 -4.87426 -4.69834 0
M  V30 1746 H 172.294 -2.17657 -3.62471 0
M  V30 1747 H 170.012 -6.45255 -4.86489 0
M  V30 1748 H 173.598 -4.24894 -3.97438 0
M  V30 1749 H 172.478 -6.35947 -4.58848 0
M  V30 1750 N 169.982 1.44106 -0.638065 0
M  V30 1751 C 170.892 2.34513 0.0637334 0
M  V30 1752 C 171.908 1.53018 0.828346 0
M  V30 1753 O 173.084 1.85723 0.779036 0
M  V30 1754 C 170.149 3.31095 1.02844 0
M  V30 1755 C 169.21 4.28497 0.26244 0
M  V30 1756 C 168.443 5.20465 1.1812 0
M  V30 1757 O 168.666 5.16514 2.42011 0
M  V30 1758 O 167.6 5.98251 0.661774 0
M  V30 1759 H 171.426 2.95989 -0.68003 0
M  V30 1760 H 169.011 1.43994 -0.398252 0
M  V30 1761 H 170.893 3.90526 1.58327 0
M  V30 1762 H 169.568 2.72144 1.7527 0
M  V30 1763 H 168.475 3.72592 -0.335602 0
M  V30 1764 H 169.808 4.90388 -0.421936 0
M  V30 1765 N 171.46 0.379036 1.52974 0
M  V30 1766 C 172.407 -0.461048 2.26148 0
M  V30 1767 C 173.377 -1.06637 1.27349 0
M  V30 1768 O 174.562 -1.09633 1.56157 0
M  V30 1769 C 171.702 -1.58782 3.06402 0
M  V30 1770 C 170.815 -1.00636 4.20115 0
M  V30 1771 C 169.95 -2.10334 4.87784 0
M  V30 1772 C 168.989 -1.49724 5.93506 0
M  V30 1773 N 168.126 -2.5331 6.54812 0
M  V30 1774 H 172.966 0.169429 2.97518 0
M  V30 1775 H 170.503 0.0953806 1.4679 0
M  V30 1776 H 172.461 -2.25174 3.51215 0
M  V30 1777 H 171.091 -2.18876 2.37261 0
M  V30 1778 H 170.143 -0.232332 3.7969 0
M  V30 1779 H 171.455 -0.523343 4.96047 0
M  V30 1780 H 170.609 -2.84519 5.35849 0
M  V30 1781 H 169.348 -2.61992 4.11353 0
M  V30 1782 H 168.353 -0.740598 5.44789 0
M  V30 1783 H 169.578 -0.988732 6.71864 0
M  V30 1784 H 167.524 -3.04156 5.81227 0
M  V30 1785 H 167.441 -2.09734 7.26325 0
M  V30 1786 H 168.709 -3.27155 7.07524 0
M  V30 1787 N 172.938 -1.57226 0.108567 0
M  V30 1788 C 173.848 -2.18292 -0.859401 0
M  V30 1789 C 174.864 -1.15612 -1.30038 0
M  V30 1790 O 176.04 -1.48039 -1.36552 0
M  V30 1791 C 173.105 -2.762 -2.09558 0
M  V30 1792 C 172.166 -3.93881 -1.70752 0
M  V30 1793 C 171.399 -4.49018 -2.88477 0
M  V30 1794 O 171.622 -4.03068 -4.036 0
M  V30 1795 O 170.556 -5.39852 -2.66164 0
M  V30 1796 H 174.382 -3.01441 -0.369769 0
M  V30 1797 H 171.967 -1.48945 -0.1165 0
M  V30 1798 H 173.849 -3.13156 -2.81978 0
M  V30 1799 H 172.524 -1.96089 -2.57548 0
M  V30 1800 H 171.431 -3.61713 -0.954714 0
M  V30 1801 H 172.764 -4.75396 -1.27513 0
M  V30 1802 N 174.416 0.165178 -1.56732 0
M  V30 1803 C 175.326 1.22423 -2.00125 0
M  V30 1804 C 176.342 1.48084 -0.913619 0
M  V30 1805 O 177.518 1.60112 -1.22172 0
M  V30 1806 C 174.583 2.54197 -2.35764 0
M  V30 1807 C 173.644 2.36343 -3.58386 0
M  V30 1808 C 172.877 3.61834 -3.92316 0
M  V30 1809 O 173.1 4.67267 -3.27135 0
M  V30 1810 O 172.034 3.55579 -4.85641 0
M  V30 1811 H 175.86 0.885886 -2.90492 0
M  V30 1812 H 173.445 0.372518 -1.44681 0
M  V30 1813 H 175.327 3.3192 -2.59629 0
M  V30 1814 H 174.002 2.87598 -1.48557 0
M  V30 1815 H 172.909 1.56632 -3.39731 0
M  V30 1816 H 174.242 2.07865 -4.46154 0
M  V30 1817 N 175.894 1.51508 0.433938 0
M  V30 1818 C 177.124 1.67914 1.20369 0
M  V30 1819 C 177.532 0.377461 1.85397 0
M  V30 1820 O 176.875 -0.654255 1.71654 0
M  V30 1821 C 176.937 2.74045 2.32679 0
M  V30 1822 C 176.601 4.16543 1.87991 0
M  V30 1823 C 177.598 5.01211 1.38145 0
M  V30 1824 C 175.283 4.6266 1.95579 0
M  V30 1825 C 177.277 6.30056 0.964774 0
M  V30 1826 C 174.964 5.91501 1.53523 0
M  V30 1827 C 175.962 6.75027 1.04055 0
M  V30 1828 O 175.65 8.01459 0.625964 0
M  V30 1829 H 175.382 0.566578 0.368735 0
M  V30 1830 H 177.936 1.98709 0.51999 0
M  V30 1831 H 176.166 2.38572 3.04336 0
M  V30 1832 H 177.855 2.79295 2.94532 0
M  V30 1833 H 178.621 4.66783 1.31675 0
M  V30 1834 H 174.5 3.97767 2.33029 0
M  V30 1835 H 178.044 6.95202 0.57796 0
M  V30 1836 H 173.941 6.25442 1.59665 0
M  V30 1837 H 174.709 8.15043 0.751509 0
M  V30 1838 N 177.372 -0.689602 1.41712 0
M  V30 1839 C 178.302 -1.81577 1.46806 0
M  V30 1840 C 179.283 -1.66945 0.326105 0
M  V30 1841 O 180.468 -1.86588 0.538377 0
M  V30 1842 C 177.598 -3.19762 1.35535 0
M  V30 1843 C 176.552 -3.49107 2.47605 0
M  V30 1844 C 175.878 -4.86711 2.21397 0
M  V30 1845 C 177.178 -3.47483 3.89939 0
M  V30 1846 H 178.872 -1.7757 2.41058 0
M  V30 1847 H 176.418 -0.852887 1.16025 0
M  V30 1848 H 178.371 -3.98263 1.3771 0
M  V30 1849 H 177.095 -3.24409 0.377708 0
M  V30 1850 H 175.754 -2.72959 2.44722 0
M  V30 1851 H 175.402 -4.8799 1.21961 0
M  V30 1852 H 175.102 -5.0731 2.96497 0
M  V30 1853 H 176.626 -5.67515 2.25297 0
M  V30 1854 H 178.04 -4.1598 3.94505 0
M  V30 1855 H 176.437 -3.79615 4.64771 0
M  V30 1856 H 177.507 -2.46341 4.17665 0
M  V30 1857 N 178.85 -1.27639 -0.924453 0
M  V30 1858 C 179.797 -1.10644 -2.0255 0
M  V30 1859 C 180.767 -0.00658438 -1.66099 0
M  V30 1860 O 181.952 -0.16952 -1.90045 0
M  V30 1861 C 179.092 -0.76309 -3.36557 0
M  V30 1862 C 178.205 -1.94091 -3.85944 0
M  V30 1863 C 177.34 -1.53914 -5.08413 0
M  V30 1864 C 176.379 -2.68425 -5.50104 0
M  V30 1865 N 175.516 -2.28815 -6.63768 0
M  V30 1866 H 180.356 -2.04858 -2.16419 0
M  V30 1867 H 177.893 -1.01974 -1.06017 0
M  V30 1868 H 179.851 -0.544822 -4.13627 0
M  V30 1869 H 178.481 0.142102 -3.22487 0
M  V30 1870 H 177.533 -2.27162 -3.05125 0
M  V30 1871 H 178.845 -2.7998 -4.12811 0
M  V30 1872 H 177.999 -1.28231 -5.92994 0
M  V30 1873 H 176.738 -0.651391 -4.8333 0
M  V30 1874 H 175.743 -2.94819 -4.64071 0
M  V30 1875 H 176.968 -3.57826 -5.7718 0
M  V30 1876 H 174.914 -1.42495 -6.40337 0
M  V30 1877 H 174.831 -3.08242 -6.90306 0
M  V30 1878 H 176.099 -2.06387 -7.51681 0
M  V30 1879 N 180.328 1.1314 -1.09713 0
M  V30 1880 C 181.739 1.66029 -0.853885 0
M  V30 1881 C 182.09 1.86241 0.617142 0
M  V30 1882 O 181.215 1.5834 1.47503 0
M  V30 1883 C 181.81 3.01599 -1.5435 0
M  V30 1884 C 180.369 3.51467 -1.34714 0
M  V30 1885 C 179.516 2.26648 -1.59769 0
M  V30 1886 H 182.467 0.970226 -1.25588 0
M  V30 1887 H 182.488 3.67709 -0.978267 0
M  V30 1888 H 182 2.86856 -2.6141 0
M  V30 1889 H 180.101 3.71408 -0.297838 0
M  V30 1890 H 180.214 4.314 -2.08401 0
M  V30 1891 H 178.578 2.33385 -1.01998 0
M  V30 1892 H 179.361 2.14467 -2.68065 0
M  V30 1893 N 181.806 0.884767 1.30421 0
M  V30 1894 C 183.052 0.503851 1.96441 0
M  V30 1895 C 183.385 -0.944518 1.69684 0
M  V30 1896 O 182.66 -1.66737 1.00145 0
M  V30 1897 C 182.943 0.779085 3.51571 0
M  V30 1898 C 182.796 2.27807 3.87846 0
M  V30 1899 C 184.115 0.255452 4.39358 0
M  V30 1900 H 181.234 0.184533 0.713524 0
M  V30 1901 H 183.876 1.10872 1.54297 0
M  V30 1902 H 182.026 0.264274 3.876 0
M  V30 1903 H 183.698 2.86127 3.61841 0
M  V30 1904 H 181.941 2.74479 3.35922 0
M  V30 1905 H 182.612 2.42125 4.96064 0
M  V30 1906 H 185.088 0.696079 4.10236 0
M  V30 1907 H 183.964 0.477361 5.4682 0
M  V30 1908 H 184.225 -0.843293 4.33983 0
M  V30 1909 N 183.284 -1.43765 0.645699 0
M  V30 1910 C 184.214 -2.33471 -0.0370477 0
M  V30 1911 C 185.195 -1.49042 -0.819779 0
M  V30 1912 O 186.38 -1.77726 -0.782758 0
M  V30 1913 C 183.51 -3.32311 -1.0093 0
M  V30 1914 C 182.464 -4.2667 -0.337201 0
M  V30 1915 C 181.79 -5.1549 -1.42037 0
M  V30 1916 C 183.09 -5.16657 0.765706 0
M  V30 1917 H 184.784 -2.90809 0.712069 0
M  V30 1918 H 182.33 -1.39834 0.343876 0
M  V30 1919 H 184.283 -3.9396 -1.49578 0
M  V30 1920 H 183.007 -2.73213 -1.78948 0
M  V30 1921 H 181.666 -3.66374 0.128771 0
M  V30 1922 H 181.314 -4.52735 -2.1918 0
M  V30 1923 H 181.014 -5.79438 -0.975966 0
M  V30 1924 H 182.538 -5.80012 -1.90838 0
M  V30 1925 H 183.952 -5.72158 0.361702 0
M  V30 1926 H 182.349 -5.89286 1.13413 0
M  V30 1927 H 183.419 -4.56796 1.62683 0
M  V30 1928 N 184.763 -0.387143 -1.52771 0
M  V30 1929 C 185.673 0.456442 -2.30117 0
M  V30 1930 C 186.689 1.07342 -1.36944 0
M  V30 1931 O 187.865 1.07971 -1.70013 0
M  V30 1932 C 184.93 1.56957 -3.09136 0
M  V30 1933 C 183.991 0.977916 -4.18014 0
M  V30 1934 C 183.224 2.038 -4.93256 0
M  V30 1935 O 183.447 3.25271 -4.68567 0
M  V30 1936 O 182.381 1.6565 -5.78657 0
M  V30 1937 H 186.207 -0.17359 -3.03203 0
M  V30 1938 H 183.792 -0.150919 -1.48636 0
M  V30 1939 H 185.674 2.21628 -3.58412 0
M  V30 1940 H 184.349 2.18461 -2.38865 0
M  V30 1941 H 183.256 0.294525 -3.72939 0
M  V30 1942 H 184.589 0.407128 -4.90513 0
M  V30 1943 N 186.241 1.57166 -0.116904 0
M  V30 1944 C 187.518 1.86645 0.585049 0
M  V30 1945 C 187.898 1.0177 1.84949 0
M  V30 1946 O 187.246 0.0960379 2.28298 0
M  V30 1947 C 187.456 3.37736 0.879507 0
M  V30 1948 C 188.804 4.06289 1.23348 0
M  V30 1949 O 189.828 3.42743 0.969836 0
M  V30 1950 O 188.687 5.18455 1.7282 0
M  V30 1951 H 185.781 0.772593 0.295007 0
M  V30 1952 H 188.327 1.69025 -0.151249 0
M  V30 1953 H 187.099 3.91296 -0.0166136 0
M  V30 1954 H 186.722 3.6078 1.67103 0
M  V30 1955 N 187.719 -0.156864 1.56817 0
M  V30 1956 C 188.996 -0.899244 1.73704 0
M  V30 1957 C 189.376 -1.99771 0.682254 0
M  V30 1958 O 188.724 -2.26515 -0.300522 0
M  V30 1959 C 188.934 -1.45075 3.17418 0
M  V30 1960 C 190.282 -1.91802 3.7881 0
M  V30 1961 O 191.306 -1.54838 3.20786 0
M  V30 1962 O 190.165 -2.5994 4.80722 0
M  V30 1963 H 187.259 -0.424267 0.709878 0
M  V30 1964 H 189.805 -0.143561 1.69092 0
M  V30 1965 H 188.577 -0.660846 3.85679 0
M  V30 1966 H 188.2 -2.27021 3.26416 0
M  V30 1967 N 189.197 -1.51736 -0.425897 0
M  V30 1968 C 190.127 -1.76827 -1.52494 0
M  V30 1969 C 191.108 -0.618524 -1.58456 0
M  V30 1970 O 192.293 -0.862416 -1.74 0
M  V30 1971 C 189.423 -1.90374 -2.90474 0
M  V30 1972 C 188.377 -3.0588 -2.99369 0
M  V30 1973 C 187.703 -3.04625 -4.3944 0
M  V30 1974 C 189.003 -4.45644 -2.72394 0
M  V30 1975 H 190.697 -2.68855 -1.31748 0
M  V30 1976 H 188.243 -1.29372 -0.632362 0
M  V30 1977 H 190.196 -2.0651 -3.6733 0
M  V30 1978 H 188.92 -0.95004 -3.12477 0
M  V30 1979 H 187.579 -2.89467 -2.24954 0
M  V30 1980 H 187.227 -2.0701 -4.58428 0
M  V30 1981 H 186.927 -3.82195 -4.46319 0
M  V30 1982 H 188.451 -3.22869 -5.18255 0
M  V30 1983 H 189.865 -4.62348 -3.38979 0
M  V30 1984 H 188.262 -5.25006 -2.9067 0
M  V30 1985 H 189.332 -4.54893 -1.67929 0
M  V30 1986 N 190.675 0.682077 -1.42076 0
M  V30 1987 C 191.605 1.80796 -1.47767 0
M  V30 1988 C 192.586 1.6677 -0.334954 0
M  V30 1989 O 193.771 1.863 -0.548264 0
M  V30 1990 C 190.901 3.19038 -1.37229 0
M  V30 1991 C 189.855 3.47789 -2.49453 0
M  V30 1992 C 189.181 4.8553 -2.23975 0
M  V30 1993 C 190.481 3.45411 -3.91776 0
M  V30 1994 H 192.175 1.7629 -2.41997 0
M  V30 1995 H 189.721 0.846721 -1.16476 0
M  V30 1996 H 191.674 3.97528 -1.39821 0
M  V30 1997 H 190.398 3.24204 -0.394907 0
M  V30 1998 H 189.057 2.71657 -2.46166 0
M  V30 1999 H 188.705 4.87337 -1.24547 0
M  V30 2000 H 188.405 5.0573 -2.99184 0
M  V30 2001 H 189.929 5.66312 -2.28304 0
M  V30 2002 H 191.343 4.13882 -3.96705 0
M  V30 2003 H 189.74 3.77145 -4.66778 0
M  V30 2004 H 190.81 2.44122 -4.18966 0
M  V30 2005 N 192.153 1.28127 0.917671 0
M  V30 2006 C 193.083 1.14248 2.03641 0
M  V30 2007 C 194.064 0.0412748 1.7005 0
M  V30 2008 O 195.249 0.217566 1.92977 0
M  V30 2009 C 192.379 0.799431 3.37974 0
M  V30 2010 C 191.333 1.85497 3.85713 0
M  V30 2011 C 190.659 1.36565 5.16966 0
M  V30 2012 C 191.959 3.26085 4.08002 0
M  V30 2013 H 193.653 2.07835 2.15511 0
M  V30 2014 H 191.199 1.00064 1.03553 0
M  V30 2015 H 193.152 0.689114 4.15727 0
M  V30 2016 H 191.876 -0.172145 3.26146 0
M  V30 2017 H 190.535 1.95437 3.10161 0
M  V30 2018 H 190.183 0.383253 5.01538 0
M  V30 2019 H 189.883 2.07143 5.49878 0
M  V30 2020 H 191.407 1.26848 5.97279 0
M  V30 2021 H 192.821 3.19089 4.76293 0
M  V30 2022 H 191.218 3.94462 4.52238 0
M  V30 2023 H 192.288 3.70394 3.12948 0
M  V30 2024 N 193.631 -1.12557 1.10312 0
M  V30 2025 C 194.563 -2.17971 0.708625 0
M  V30 2026 C 195.576 -1.60806 -0.254027 0
M  V30 2027 O 196.765 -1.78458 -0.0386891 0
M  V30 2028 C 193.865 -3.38891 0.0248198 0
M  V30 2029 C 193.038 -4.25548 1.01132 0
M  V30 2030 C 192.097 -5.24972 0.35924 0
M  V30 2031 O 191.123 -5.60174 1.00965 0
M  V30 2032 N 192.325 -5.73747 -0.882847 0
M  V30 2033 H 195.09 -2.52427 1.61557 0
M  V30 2034 H 192.651 -1.27967 0.991771 0
M  V30 2035 H 194.643 -4.02485 -0.422852 0
M  V30 2036 H 193.213 -3.02596 -0.784514 0
M  V30 2037 H 192.433 -3.58589 1.6373 0
M  V30 2038 H 193.721 -4.80294 1.67914 0
M  V30 2039 H 193.119 -5.4731 -1.43065 0
M  V30 2040 H 191.676 -6.39234 -1.27369 0
M  V30 2041 N 195.109 -0.891671 -1.2995 0
M  V30 2042 C 196.356 -0.513501 -1.95881 0
M  V30 2043 C 196.684 0.938655 -1.70351 0
M  V30 2044 O 195.939 1.67936 -1.00478 0
M  V30 2045 C 196.238 -0.742868 -3.49594 0
M  V30 2046 C 195.904 -2.17114 -3.95186 0
M  V30 2047 C 194.566 -2.56169 -4.07346 0
M  V30 2048 C 196.918 -3.10162 -4.18866 0
M  V30 2049 C 194.246 -3.87469 -4.4055 0
M  V30 2050 C 196.598 -4.41001 -4.53542 0
M  V30 2051 C 195.262 -4.79941 -4.63911 0
M  V30 2052 H 194.532 -0.187903 -0.71678 0
M  V30 2053 H 197.179 -1.1288 -1.54694 0
M  V30 2054 H 195.484 -0.044586 -3.91775 0
M  V30 2055 H 197.181 -0.429767 -3.9869 0
M  V30 2056 H 193.771 -1.85801 -3.86233 0
M  V30 2057 H 197.955 -2.81206 -4.08946 0
M  V30 2058 H 193.211 -4.17371 -4.46779 0
M  V30 2059 H 197.385 -5.13133 -4.70815 0
M  V30 2060 H 195.012 -5.81719 -4.89395 0
M  V30 2061 N 196.587 1.43421 -0.653314 0
M  V30 2062 C 197.864 1.95361 -0.0966581 0
M  V30 2063 C 198.244 1.59461 1.38331 0
M  V30 2064 O 197.592 0.879777 2.10884 0
M  V30 2065 C 197.802 3.47311 -0.342988 0
M  V30 2066 C 199.15 4.23875 -0.24798 0
M  V30 2067 O 200.174 3.55133 -0.275553 0
M  V30 2068 O 199.033 5.4623 -0.171771 0
M  V30 2069 H 196.127 0.826945 0.00956291 0
M  V30 2070 H 198.673 1.5336 -0.726558 0
M  V30 2071 H 197.445 3.66569 -1.36906 0
M  V30 2072 H 197.068 3.9631 0.319975 0
M  V30 2073 N 198.065 0.39524 1.52563 0
M  V30 2074 C 199.311 -0.185318 2.01952 0
M  V30 2075 C 199.644 -1.45964 1.28095 0
M  V30 2076 O 198.919 -1.90689 0.38315 0
M  V30 2077 C 199.202 -0.447193 3.57312 0
M  V30 2078 C 199.055 0.842828 4.41833 0
M  V30 2079 C 200.374 -1.23529 4.22408 0
M  V30 2080 H 197.493 -0.0658788 0.73405 0
M  V30 2081 H 200.135 0.525975 1.82575 0
M  V30 2082 H 198.285 -1.05312 3.73954 0
M  V30 2083 H 199.957 1.4795 4.36931 0
M  V30 2084 H 198.2 1.45686 4.08605 0
M  V30 2085 H 198.871 0.614165 5.48573 0
M  V30 2086 H 201.347 -0.722445 4.0978 0
M  V30 2087 H 200.223 -1.38727 5.3108 0
M  V30 2088 H 200.484 -2.25213 3.80436 0
M  V30 2089 N 199.544 -1.57102 0.125237 0
M  V30 2090 C 200.454 -2.19191 -0.8362 0
M  V30 2091 C 201.47 -1.16985 -1.28805 0
M  V30 2092 O 202.646 -1.49479 -1.34974 0
M  V30 2093 C 199.711 -2.78407 -2.06617 0
M  V30 2094 C 198.772 -3.9567 -1.66565 0
M  V30 2095 C 198.005 -4.52052 -2.83698 0
M  V30 2096 O 198.228 -4.07326 -3.99302 0
M  V30 2097 O 197.162 -5.42645 -2.60423 0
M  V30 2098 H 200.988 -3.01816 -0.337776 0
M  V30 2099 H 198.573 -1.4906 -0.100695 0
M  V30 2100 H 200.455 -3.16129 -2.7864 0
M  V30 2101 H 199.13 -1.9881 -2.55453 0
M  V30 2102 H 198.037 -3.62705 -0.916296 0
M  V30 2103 H 199.37 -4.76722 -1.22464 0
M  V30 2104 N 201.022 0.148545 -1.56898 0
M  V30 2105 C 202.299 0.890019 -1.74178 0
M  V30 2106 C 202.679 1.99407 -0.692839 0
M  V30 2107 O 202.027 2.26671 0.288505 0
M  V30 2108 C 202.237 1.43389 -3.18183 0
M  V30 2109 C 203.585 1.89791 -3.79822 0
M  V30 2110 O 204.609 1.53134 -3.21603 0
M  V30 2111 O 203.468 2.57387 -4.82093 0
M  V30 2112 H 200.562 0.420496 -0.712118 0
M  V30 2113 H 203.108 0.134591 -1.69165 0
M  V30 2114 H 201.88 0.640383 -3.86024 0
M  V30 2115 H 201.503 2.25287 -3.27615 0
M  V30 2116 N 202.5 1.5196 0.417844 0
M  V30 2117 C 203.43 1.77634 1.51554 0
M  V30 2118 C 204.411 0.626918 1.58126 0
M  V30 2119 O 205.596 0.871632 1.7354 0
M  V30 2120 C 202.726 1.91911 2.8946 0
M  V30 2121 C 201.68 3.07463 2.97743 0
M  V30 2122 C 201.006 3.06951 4.37819 0
M  V30 2123 C 202.306 4.47082 2.70027 0
M  V30 2124 H 204 2.6955 1.3032 0
M  V30 2125 H 201.546 1.29706 0.625492 0
M  V30 2126 H 203.499 2.08455 3.6623 0
M  V30 2127 H 202.223 0.966598 3.11969 0
M  V30 2128 H 200.882 2.90656 2.23416 0
M  V30 2129 H 200.53 2.09438 4.57323 0
M  V30 2130 H 200.23 3.84556 4.44286 0
M  V30 2131 H 201.754 3.25613 5.16535 0
M  V30 2132 H 203.168 4.6414 3.36522 0
M  V30 2133 H 201.565 5.2654 2.87881 0
M  V30 2134 H 202.635 4.55777 1.65514 0
M  V30 2135 N 203.978 -0.674533 1.42435 0
M  V30 2136 C 205.208 -1.46071 1.46105 0
M  V30 2137 C 205.616 -1.89067 0.0709605 0
M  V30 2138 O 204.959 -1.58731 -0.924677 0
M  V30 2139 C 205.021 -2.74145 2.32561 0
M  V30 2140 C 204.685 -2.53224 3.8043 0
M  V30 2141 C 205.682 -2.17809 4.72075 0
M  V30 2142 C 203.367 -2.6821 4.24698 0
M  V30 2143 C 205.361 -1.97648 6.05982 0
M  V30 2144 C 203.048 -2.47665 5.58664 0
M  V30 2145 C 204.046 -2.12437 6.49122 0
M  V30 2146 O 203.734 -1.9209 7.80613 0
M  V30 2147 H 203.466 -0.455959 0.499076 0
M  V30 2148 H 206.02 -0.836193 1.87609 0
M  V30 2149 H 204.25 -3.3908 1.85908 0
M  V30 2150 H 205.939 -3.36028 2.27683 0
M  V30 2151 H 206.705 -2.05826 4.39159 0
M  V30 2152 H 202.584 -2.94609 3.54579 0
M  V30 2153 H 206.128 -1.70075 6.7655 0
M  V30 2154 H 202.025 -2.59244 5.91154 0
M  V30 2155 H 202.793 -2.06686 7.91974 0
M  V30 2156 N 205.456 -1.28612 -0.910864 0
M  V30 2157 C 206.366 -1.14643 -2.0468 0
M  V30 2158 C 207.382 -0.0723121 -1.7385 0
M  V30 2159 O 208.558 -0.282178 -1.99413 0
M  V30 2160 C 205.623 -0.812561 -3.37044 0
M  V30 2161 C 204.684 -1.96935 -3.81465 0
M  V30 2162 C 203.917 -1.65131 -5.07511 0
M  V30 2163 O 204.14 -0.567013 -5.67575 0
M  V30 2164 O 203.074 -2.49585 -5.47714 0
M  V30 2165 H 206.9 -2.1001 -2.19384 0
M  V30 2166 H 204.485 -1.07958 -1.03274 0
M  V30 2167 H 206.367 -0.640441 -4.16505 0
M  V30 2168 H 205.042 0.111426 -3.23508 0
M  V30 2169 H 203.949 -2.19664 -3.02818 0
M  V30 2170 H 205.282 -2.87414 -3.99567 0
M  V30 2171 N 206.934 1.1197 -1.10907 0
M  V30 2172 C 208.345 1.65114 -0.871446 0
M  V30 2173 C 208.696 1.86885 0.597353 0
M  V30 2174 O 207.821 1.59896 1.45816 0
M  V30 2175 C 208.416 2.99944 -1.5754 0
M  V30 2176 C 206.975 3.50018 -1.38435 0
M  V30 2177 C 206.122 2.24941 -1.62164 0
M  V30 2178 H 209.073 0.956851 -1.2661 0
M  V30 2179 H 209.094 3.66651 -1.01721 0
M  V30 2180 H 208.606 2.84067 -2.64438 0
M  V30 2181 H 206.707 3.71071 -0.337214 0
M  V30 2182 H 206.82 4.29165 -2.12965 0
M  V30 2183 H 205.184 2.3229 -1.04467 0
M  V30 2184 H 205.967 2.11612 -2.70324 0
M  V30 2185 N 208.412 0.89855 1.29475 0
M  V30 2186 C 209.658 0.524658 1.95896 0
M  V30 2187 C 209.991 -0.926468 1.70676 0
M  V30 2188 O 209.266 -1.65665 1.01908 0
M  V30 2189 C 209.549 0.81633 3.50725 0
M  V30 2190 C 209.402 2.31907 3.85408 0
M  V30 2191 C 210.721 0.302038 4.39062 0
M  V30 2192 H 207.84 0.19209 0.711527 0
M  V30 2193 H 210.482 1.12502 1.53112 0
M  V30 2194 H 208.632 0.305369 3.87298 0
M  V30 2195 H 210.304 2.89949 3.58786 0
M  V30 2196 H 208.547 2.78027 3.32992 0
M  V30 2197 H 209.218 2.47373 4.93468 0
M  V30 2198 H 211.694 0.739551 4.09475 0
M  V30 2199 H 210.57 0.535331 5.46283 0
M  V30 2200 H 210.831 -0.797216 4.34853 0
M  V30 2201 N 209.89 -1.43072 0.660911 0
M  V30 2202 C 211.115 -2.06584 0.183805 0
M  V30 2203 C 211.54 -1.49257 -1.14472 0
M  V30 2204 O 210.898 -0.605528 -1.70889 0
M  V30 2205 C 210.946 -3.60418 0.114434 0
M  V30 2206 O 210.05 -4.01981 -0.921137 0
M  V30 2207 H 209.391 -0.656669 0.0983994 0
M  V30 2208 H 211.921 -1.83447 0.906006 0
M  V30 2209 H 211.931 -4.07946 -0.0663394 0
M  V30 2210 H 210.606 -4.01519 1.08422 0
M  V30 2211 H 209.183 -3.66029 -0.71253 0
M  V30 2212 N 211.368 -0.403325 -1.52352 0
M  V30 2213 C 212.614 0.174605 -2.02047 0
M  V30 2214 C 212.947 1.45282 -1.28867 0
M  V30 2215 O 212.222 1.90483 -0.393257 0
M  V30 2216 C 212.505 0.428238 -3.57545 0
M  V30 2217 C 212.358 -0.866248 -4.4138 0
M  V30 2218 C 213.677 1.21287 -4.23057 0
M  V30 2219 H 210.796 0.0619851 -0.734389 0
M  V30 2220 H 213.438 -0.53565 -1.82293 0
M  V30 2221 H 211.588 1.03327 -3.74507 0
M  V30 2222 H 213.26 -1.50265 -4.3614 0
M  V30 2223 H 211.503 -1.47851 -4.07827 0
M  V30 2224 H 212.174 -0.643249 -5.48239 0
M  V30 2225 H 214.65 0.700703 -4.10158 0
M  V30 2226 H 213.526 1.35909 -5.31808 0
M  V30 2227 H 213.787 2.23193 -3.81625 0
M  V30 2228 N 212.846 1.57033 -0.133567 0
M  V30 2229 C 214.257 1.82593 0.389464 0
M  V30 2230 C 214.608 1.05156 1.6564 0
M  V30 2231 O 213.733 0.292644 2.14412 0
M  V30 2232 C 214.328 3.31204 0.713377 0
M  V30 2233 C 212.887 3.57393 1.18098 0
M  V30 2234 C 212.034 2.76598 0.197126 0
M  V30 2235 H 214.985 1.54598 -0.358481 0
M  V30 2236 H 215.006 3.46627 1.56939 0
M  V30 2237 H 214.518 3.87537 -0.2089 0
M  V30 2238 H 212.619 3.06433 2.11966 0
M  V30 2239 H 212.732 4.65915 1.11624 0
M  V30 2240 H 211.096 2.45257 0.687088 0
M  V30 2241 H 211.879 3.35697 -0.718504 0
M  V30 2242 N 214.325 -0.140222 1.56975 0
M  V30 2243 C 215.572 -0.851687 1.83719 0
M  V30 2244 C 215.9 -1.80862 0.715485 0
M  V30 2245 O 215.155 -1.93464 -0.294956 0
M  V30 2246 C 215.454 -1.65386 3.16832 0
M  V30 2247 C 215.12 -0.843112 4.42947 0
M  V30 2248 C 213.782 -0.619464 4.77196 0
M  V30 2249 C 216.134 -0.276582 5.20466 0
M  V30 2250 C 213.462 0.181312 5.8642 0
M  V30 2251 C 215.814 0.51127 6.30531 0
M  V30 2252 C 214.478 0.745432 6.63325 0
M  V30 2253 H 213.748 -0.311654 0.672274 0
M  V30 2254 H 216.395 -0.115006 1.91154 0
M  V30 2255 H 214.7 -2.46084 3.04877 0
M  V30 2256 H 216.397 -2.20793 3.34741 0
M  V30 2257 H 212.987 -1.0275 4.16101 0
M  V30 2258 H 217.171 -0.436632 4.94376 0
M  V30 2259 H 212.427 0.372165 6.10266 0
M  V30 2260 H 216.601 0.957354 6.89788 0
M  V30 2261 H 214.228 1.36778 7.47794 0
M  V30 2262 N 215.803 -1.52179 -0.40978 0
M  V30 2263 C 217.028 -1.70347 -1.18308 0
M  V30 2264 C 217.453 -0.411887 -1.83535 0
M  V30 2265 O 216.811 0.630587 -1.6998 0
M  V30 2266 C 216.859 -2.83977 -2.22238 0
M  V30 2267 O 215.963 -2.495 -3.28365 0
M  V30 2268 H 215.304 -0.567103 -0.345384 0
M  V30 2269 H 217.834 -1.98879 -0.480445 0
M  V30 2270 H 217.844 -3.0887 -2.66577 0
M  V30 2271 H 216.519 -3.77685 -1.74146 0
M  V30 2272 H 215.096 -2.35277 -2.89308 0
M  V30 2273 N 217.281 0.66697 -1.42791 0
M  V30 2274 C 218.511 1.45294 -1.46878 0
M  V30 2275 C 218.919 1.89027 -0.0809861 0
M  V30 2276 O 218.262 1.59219 0.916246 0
M  V30 2277 C 218.324 2.72908 -2.34012 0
M  V30 2278 C 217.988 2.51203 -3.81767 0
M  V30 2279 C 218.985 2.15302 -4.73224 0
M  V30 2280 C 216.67 2.65954 -4.26115 0
M  V30 2281 C 218.664 1.94431 -6.07022 0
M  V30 2282 C 216.351 2.44699 -5.59969 0
M  V30 2283 C 217.349 2.08992 -6.5024 0
M  V30 2284 O 217.037 1.87948 -7.81621 0
M  V30 2285 H 216.769 0.453306 -0.501487 0
M  V30 2286 H 219.323 0.826232 -1.88049 0
M  V30 2287 H 217.553 3.38089 -1.87703 0
M  V30 2288 H 219.242 3.34816 -2.29462 0
M  V30 2289 H 220.008 2.03495 -4.40244 0
M  V30 2290 H 215.887 2.92724 -3.56137 0
M  V30 2291 H 219.431 1.66484 -6.77443 0
M  V30 2292 H 215.328 2.56105 -5.9252 0
M  V30 2293 H 216.096 2.02483 -7.93059 0
M  V30 2294 N 218.759 1.29093 0.90403 0
M  V30 2295 C 220.17 1.15186 1.46932 0
M  V30 2296 C 220.521 -0.254587 1.94541 0
M  V30 2297 O 219.646 -1.14972 1.83332 0
M  V30 2298 C 220.241 2.08492 2.67051 0
M  V30 2299 C 218.8 1.98621 3.19729 0
M  V30 2300 C 217.947 1.9967 1.92425 0
M  V30 2301 H 220.898 1.41641 0.715789 0
M  V30 2302 H 220.919 1.65461 3.42641 0
M  V30 2303 H 220.431 3.10847 2.3237 0
M  V30 2304 H 218.532 0.993389 3.59114 0
M  V30 2305 H 218.645 2.86068 3.8432 0
M  V30 2306 H 217.009 1.44208 2.09943 0
M  V30 2307 H 217.792 3.03721 1.60026 0
M  V30 2308 N 220.237 -1.11381 1.11499 0
M  V30 2309 C 221.185 -2.19522 0.768956 0
M  V30 2310 C 222.179 -1.67693 -0.239857 0
M  V30 2311 O 223.385 -1.79727 -0.0990755 0
M  V30 2312 H 219.76 -0.715711 0.230786 0
M  V30 2313 H 221.731 -2.45954 1.68964 0
M  V30 2314 C 220.48 -3.46945 0.229073 0
M  V30 2315 H 219.803 -3.8718 0.996596 0
M  V30 2316 H 221.243 -4.23993 0.0251441 0
M  V30 2317 C 219.702 -3.2042 -1.04079 0
M  V30 2318 O 220.232 -3.41178 -2.12038 0
M  V30 2319 N 218.438 -2.74151 -0.963823 0
M  V30 2320 H 217.985 -2.57459 -0.0851722 0
M  V30 2321 H 217.943 -2.56781 -1.81414 0
M  V30 2322 N 221.715 -0.905404 -1.28997 0
M  V30 2323 C 222.963 -0.533192 -1.9494 0
M  V30 2324 C 223.284 0.924618 -1.71685 0
M  V30 2325 O 222.554 1.65268 -1.05183 0
M  V30 2326 H 221.134 -0.194194 -0.721317 0
M  V30 2327 H 223.796 -1.15294 -1.57141 0
M  V30 2328 H 222.892 -0.72059 -3.03667 0
M  V30 2329 N 223.193 1.4272 -0.668489 0
M  V30 2330 C 224.123 2.335 -0.000100175 0
M  V30 2331 C 225.104 1.50328 0.795964 0
M  V30 2332 O 226.289 1.78949 0.754385 0
M  V30 2333 C 223.419 3.33874 0.956302 0
M  V30 2334 C 222.373 4.27152 0.269278 0
M  V30 2335 C 221.699 5.17684 1.33818 0
M  V30 2336 C 222.999 5.15373 -0.847805 0
M  V30 2337 H 224.693 2.89639 -0.758244 0
M  V30 2338 H 222.239 1.39269 -0.366079 0
M  V30 2339 H 224.192 3.9629 1.43292 0
M  V30 2340 H 222.916 2.76025 1.74579 0
M  V30 2341 H 221.575 3.66123 -0.187042 0
M  V30 2342 H 221.223 4.56165 2.1195 0
M  V30 2343 H 220.923 5.80918 0.883659 0
M  V30 2344 H 222.447 5.82974 1.81586 0
M  V30 2345 H 223.861 5.7151 -0.452681 0
M  V30 2346 H 222.258 5.87407 -1.22773 0
M  V30 2347 H 223.328 4.5415 -1.69929 0
M  V30 2348 N 224.671 0.411399 1.52136 0
M  V30 2349 C 225.896 -0.165538 2.06738 0
M  V30 2350 C 226.321 -1.379 1.27926 0
M  V30 2351 O 225.679 -1.78628 0.310114 0
M  V30 2352 C 225.727 -0.492124 3.57226 0
M  V30 2353 O 224.831 -1.58276 3.80818 0
M  V30 2354 H 224.172 -0.0132132 0.663869 0
M  V30 2355 H 226.702 0.585253 1.96051 0
M  V30 2356 H 226.712 -0.750104 4.01045 0
M  V30 2357 H 225.387 0.394922 4.14021 0
M  V30 2358 H 223.964 -1.31677 3.48877 0
M  V30 2359 N 226.149 -1.5696 0.141893 0
M  V30 2360 C 227.059 -2.20066 -0.812905 0
M  V30 2361 C 228.075 -1.18344 -1.27557 0
M  V30 2362 O 229.251 -1.50902 -1.33381 0
M  V30 2363 C 226.316 -2.80583 -2.03652 0
M  V30 2364 C 225.377 -3.97414 -1.62359 0
M  V30 2365 C 224.61 -4.55036 -2.78887 0
M  V30 2366 O 224.833 -4.11538 -3.94959 0
M  V30 2367 O 223.767 -5.45376 -2.54653 0
M  V30 2368 H 227.593 -3.02157 -0.305746 0
M  V30 2369 H 225.178 -1.49159 -0.0848799 0
M  V30 2370 H 227.06 -3.19067 -2.75272 0
M  V30 2371 H 225.735 -2.01508 -2.5333 0
M  V30 2372 H 224.642 -3.63656 -0.877775 0
M  V30 2373 H 225.975 -4.77994 -1.17401 0
M  V30 2374 N 227.627 0.131896 -1.57047 0
M  V30 2375 C 228.575 1.18146 -2.0036 0
M  V30 2376 C 229.569 1.43614 -0.898406 0
M  V30 2377 O 230.775 1.43729 -1.08361 0
M  V30 2378 H 227.15 0.398042 -0.638018 0
M  V30 2379 H 229.121 0.789564 -2.87765 0
M  V30 2380 C 227.87 2.50341 -2.41298 0
M  V30 2381 H 227.193 2.31578 -3.25902 0
M  V30 2382 H 228.633 3.22371 -2.75414 0
M  V30 2383 C 227.092 3.11984 -1.27153 0
M  V30 2384 O 227.622 3.97484 -0.580459 0
M  V30 2385 N 225.828 2.71662 -1.03189 0
M  V30 2386 H 225.375 2.02231 -1.59564 0
M  V30 2387 H 225.333 3.13238 -0.270077 0
M  V30 2388 N 229.106 1.52395 0.401703 0
M  V30 2389 C 230.334 1.70676 1.16949 0
M  V30 2390 C 230.749 0.419503 1.8408 0
M  V30 2391 O 230.106 -0.605061 1.72178 0
M  V30 2392 C 230.157 2.84753 2.22706 0
M  V30 2393 O 229.878 4.08495 1.58314 0
M  V30 2394 C 231.379 3.14608 3.12309 0
M  V30 2395 H 228.599 0.571787 0.351142 0
M  V30 2396 H 231.143 1.98987 0.471652 0
M  V30 2397 H 229.298 2.58941 2.88147 0
M  V30 2398 H 229.712 4.72117 2.28485 0
M  V30 2399 H 231.186 3.97923 3.82572 0
M  V30 2400 H 231.663 2.28464 3.75101 0
M  V30 2401 H 232.269 3.42212 2.52529 0
M  V30 2402 N 230.584 -0.659388 1.43143 0
M  V30 2403 C 231.809 -1.45221 1.48073 0
M  V30 2404 C 232.234 -1.87845 0.097995 0
M  V30 2405 O 231.592 -1.56985 -0.90694 0
M  V30 2406 C 231.64 -2.66748 2.42647 0
M  V30 2407 O 230.744 -3.65583 1.90848 0
M  V30 2408 H 230.085 -0.435669 0.501088 0
M  V30 2409 H 232.615 -0.807432 1.87994 0
M  V30 2410 H 232.625 -3.14637 2.59745 0
M  V30 2411 H 231.3 -2.35067 3.43098 0
M  V30 2412 H 229.877 -3.24693 1.83381 0
M  V30 2413 N 232.062 -1.29571 -0.897171 0
M  V30 2414 C 233.308 -1.17863 -1.65034 0
M  V30 2415 C 233.641 0.268729 -1.92332 0
M  V30 2416 O 232.916 1.19378 -1.53555 0
M  V30 2417 C 233.199 -1.995 -2.99786 0
M  V30 2418 C 233.052 -3.5239 -2.79538 0
M  V30 2419 C 234.371 -1.82335 -4.00552 0
M  V30 2420 H 231.49 -0.429528 -0.598895 0
M  V30 2421 H 234.132 -1.59072 -1.03905 0
M  V30 2422 H 232.282 -1.64485 -3.51962 0
M  V30 2423 H 233.954 -3.97401 -2.34244 0
M  V30 2424 H 232.197 -3.77187 -2.14273 0
M  V30 2425 H 232.868 -4.04787 -3.75302 0
M  V30 2426 H 235.344 -2.12924 -3.57495 0
M  V30 2427 H 234.22 -2.41801 -4.92771 0
M  V30 2428 H 234.481 -0.779209 -4.35179 0
M  V30 2429 N 233.54 1.10788 -1.12088 0
M  V30 2430 C 234.786 1.82942 -0.875226 0
M  V30 2431 C 235.119 1.84779 0.597538 0
M  V30 2432 O 234.394 1.30578 1.44152 0
M  V30 2433 C 234.677 3.29789 -1.44606 0
M  V30 2434 C 234.53 3.36307 -2.98693 0
M  V30 2435 C 235.849 4.26064 -1.10261 0
M  V30 2436 H 232.968 0.664195 -0.319397 0
M  V30 2437 H 235.61 1.29867 -1.38689 0
M  V30 2438 H 233.76 3.75118 -1.01089 0
M  V30 2439 H 235.432 2.99487 -3.50864 0
M  V30 2440 H 233.675 2.76318 -3.34411 0
M  V30 2441 H 234.346 4.39694 -3.33726 0
M  V30 2442 H 236.822 3.88951 -1.4784 0
M  V30 2443 H 235.698 5.27183 -1.52869 0
M  V30 2444 H 235.959 4.42098 -0.0142953 0
M  V30 2445 N 235.018 0.912232 1.28515 0
M  V30 2446 C 235.928 0.404506 2.31086 0
M  V30 2447 C 236.944 -0.50707 1.66448 0
M  V30 2448 O 238.12 -0.393624 1.97516 0
M  V30 2449 C 235.185 -0.348572 3.44943 0
M  V30 2450 C 234.246 0.59604 4.25142 0
M  V30 2451 C 233.479 -0.121194 5.33562 0
M  V30 2452 O 233.702 -1.34317 5.5436 0
M  V30 2453 O 232.636 0.542716 5.99448 0
M  V30 2454 H 236.462 1.25579 2.76521 0
M  V30 2455 H 234.047 0.676998 1.33181 0
M  V30 2456 H 235.929 -0.77395 4.14232 0
M  V30 2457 H 234.604 -1.17571 3.01594 0
M  V30 2458 H 233.511 1.07079 3.58448 0
M  V30 2459 H 234.844 1.38995 4.72167 0
M  V30 2460 N 236.496 -1.42363 0.676048 0
M  V30 2461 C 237.443 -2.308 -0.00150904 0
M  V30 2462 C 238.413 -1.46032 -0.791444 0
M  V30 2463 O 239.598 -1.74861 -0.76344 0
M  V30 2464 C 236.738 -3.31883 -0.945919 0
M  V30 2465 C 235.851 -4.31741 -0.149675 0
M  V30 2466 C 234.986 -5.19898 -1.08995 0
M  V30 2467 C 234.025 -6.11434 -0.285465 0
M  V30 2468 N 233.162 -6.92138 -1.17851 0
M  V30 2469 H 238.002 -2.88187 0.758455 0
M  V30 2470 H 235.539 -1.41952 0.38576 0
M  V30 2471 H 237.497 -3.89019 -1.50731 0
M  V30 2472 H 236.127 -2.76093 -1.6725 0
M  V30 2473 H 235.179 -3.76713 0.528359 0
M  V30 2474 H 236.491 -4.96534 0.474866 0
M  V30 2475 H 235.645 -5.81772 -1.72123 0
M  V30 2476 H 234.384 -4.55284 -1.74837 0
M  V30 2477 H 233.389 -5.48627 0.359018 0
M  V30 2478 H 234.614 -6.78097 0.368883 0
M  V30 2479 H 232.56 -6.30152 -1.82332 0
M  V30 2480 H 232.477 -7.53542 -0.609082 0
M  V30 2481 H 233.745 -7.58499 -1.79722 0
M  V30 2482 N 237.974 -0.419461 -1.51915 0
M  V30 2483 C 238.904 0.391813 -2.30189 0
M  V30 2484 C 239.885 1.03699 -1.34836 0
M  V30 2485 O 241.07 1.04403 -1.63748 0
M  V30 2486 C 238.2 1.50312 -3.13087 0
M  V30 2487 C 237.154 0.9824 -4.16573 0
M  V30 2488 C 236.48 2.18809 -4.8788 0
M  V30 2489 C 237.78 0.0292356 -5.22292 0
M  V30 2490 H 239.474 -0.26135 -2.98257 0
M  V30 2491 H 237.02 -0.127134 -1.43438 0
M  V30 2492 H 238.973 2.07773 -3.66617 0
M  V30 2493 H 237.697 2.18431 -2.42807 0
M  V30 2494 H 236.356 0.430119 -3.64068 0
M  V30 2495 H 236.004 2.85507 -4.14119 0
M  V30 2496 H 235.704 1.84615 -5.57845 0
M  V30 2497 H 237.228 2.76858 -5.44226 0
M  V30 2498 H 238.642 0.512976 -5.71 0
M  V30 2499 H 237.039 -0.2244 -5.9968 0
M  V30 2500 H 238.109 -0.912931 -4.76228 0
M  V30 2501 N 239.452 1.56882 -0.150215 0
M  V30 2502 C 240.399 2.16922 0.788244 0
M  V30 2503 C 241.369 1.10303 1.24187 0
M  V30 2504 O 242.554 1.38359 1.31383 0
M  V30 2505 C 239.694 2.79754 2.02068 0
M  V30 2506 C 238.807 4.00775 1.61257 0
M  V30 2507 C 237.942 4.51595 2.79705 0
M  V30 2508 C 236.981 5.65074 2.35282 0
M  V30 2509 N 236.118 6.10499 3.4675 0
M  V30 2510 H 240.958 2.96779 0.269444 0
M  V30 2511 H 238.495 1.46599 0.12128 0
M  V30 2512 H 240.453 3.14329 2.74323 0
M  V30 2513 H 239.083 2.02536 2.51354 0
M  V30 2514 H 238.135 3.72158 0.787553 0
M  V30 2515 H 239.447 4.82978 1.24633 0
M  V30 2516 H 238.601 4.88242 3.60145 0
M  V30 2517 H 237.34 3.68406 3.19576 0
M  V30 2518 H 236.345 5.28 1.53283 0
M  V30 2519 H 237.57 6.50052 1.96493 0
M  V30 2520 H 235.516 5.30243 3.86236 0
M  V30 2521 H 235.433 6.87637 3.14152 0
M  V30 2522 H 236.701 6.51791 4.27537 0
M  V30 2523 N 240.93 -0.123565 1.57115 0
M  V30 2524 C 241.88 -1.1575 1.96433 0
M  V30 2525 C 242.864 -1.37313 0.838686 0
M  V30 2526 O 244.056 -1.38482 1.10235 0
M  V30 2527 C 241.185 -2.48526 2.36833 0
M  V30 2528 C 240.271 -2.30457 3.5602 0
M  V30 2529 N 240.662 -1.8219 4.71848 0
M  V30 2530 C 238.96 -2.61129 3.61563 0
M  V30 2531 C 239.661 -1.77721 5.53886 0
M  V30 2532 N 238.637 -2.21899 4.96248 0
M  V30 2533 H 242.439 -0.776797 2.83449 0
M  V30 2534 H 239.953 -0.331364 1.58983 0
M  V30 2535 H 241.95 -3.233 2.63216 0
M  V30 2536 H 240.61 -2.87358 1.5118 0
M  V30 2537 H 241.621 -1.51805 4.95152 0
M  V30 2538 H 238.298 -3.03678 2.86507 0
M  V30 2539 H 239.688 -1.41697 6.56789 0
M  V30 2540 N 242.408 -1.52605 -0.393616 0
M  V30 2541 C 243.341 -1.71798 -1.50202 0
M  V30 2542 C 244.319 -0.565743 -1.52441 0
M  V30 2543 O 245.503 -0.794987 -1.70916 0
M  V30 2544 C 242.63 -1.7714 -2.88685 0
M  V30 2545 C 241.676 -2.98845 -3.04292 0
M  V30 2546 S 242.509 -4.58909 -2.75976 0
M  V30 2547 C 243.665 -4.6706 -4.1666 0
M  V30 2548 H 243.898 -2.65542 -1.33696 0
M  V30 2549 H 241.431 -1.42839 -0.586195 0
M  V30 2550 H 243.389 -1.80903 -3.68489 0
M  V30 2551 H 242.05 -0.844969 -3.02521 0
M  V30 2552 H 241.243 -2.99111 -4.05646 0
M  V30 2553 H 240.845 -2.9305 -2.32374 0
M  V30 2554 H 243.137 -4.45391 -5.10523 0
M  V30 2555 H 244.08 -5.6905 -4.21412 0
M  V30 2556 H 244.488 -3.95944 -4.02354 0
M  V30 2557 N 243.887 0.651787 -1.4349 0
M  V30 2558 C 244.797 1.79368 -1.5121 0
M  V30 2559 C 245.813 1.69361 -0.399093 0
M  V30 2560 O 246.989 1.90505 -0.653431 0
M  V30 2561 C 244.054 3.15653 -1.43401 0
M  V30 2562 C 243.115 3.37446 -2.65384 0
M  V30 2563 C 242.348 4.67229 -2.57939 0
M  V30 2564 O 242.571 5.46676 -1.62792 0
M  V30 2565 O 241.505 4.90773 -3.48462 0
M  V30 2566 H 245.331 1.7581 -2.47638 0
M  V30 2567 H 242.916 0.810447 -1.25507 0
M  V30 2568 H 244.798 3.96935 -1.41494 0
M  V30 2569 H 243.473 3.19798 -0.501085 0
M  V30 2570 H 242.38 2.55923 -2.72863 0
M  V30 2571 H 243.713 3.38148 -3.57654 0
M  V30 2572 N 245.365 1.30045 0.890287 0
M  V30 2573 C 246.328 1.15963 1.977 0
M  V30 2574 C 247.328 0.0923777 1.60534 0
M  V30 2575 O 248.518 0.340071 1.70848 0
M  V30 2576 C 245.65 0.775451 3.31963 0
M  V30 2577 H 246.843 2.12502 2.11619 0
M  V30 2578 H 244.396 1.13366 1.07601 0
M  V30 2579 H 245.131 -0.189671 3.23745 0
M  V30 2580 H 244.916 1.54668 3.60306 0
M  V30 2581 H 246.406 0.700251 4.11687 0
M  V30 2582 N 246.843 -1.10192 1.12674 0
M  V30 2583 C 248.259 -1.34235 0.863317 0
M  V30 2584 C 248.459 -1.95062 -0.505277 0
M  V30 2585 O 247.515 -2.19192 -1.25345 0
M  V30 2586 C 248.828 -2.2616 1.98172 0
M  V30 2587 C 250.376 -2.3969 2.0129 0
M  V30 2588 C 250.851 -3.34946 3.1237 0
M  V30 2589 N 252.342 -3.42515 3.11829 0
M  V30 2590 C 253.077 -4.16199 3.94419 0
M  V30 2591 N 252.573 -4.92747 4.87004 0
M  V30 2592 N 254.366 -4.11843 3.82547 0
M  V30 2593 H 246.517 -0.690798 2.00853 0
M  V30 2594 H 248.78 -0.366774 0.874174 0
M  V30 2595 H 248.486 -1.8868 2.96804 0
M  V30 2596 H 248.36 -3.26488 1.88906 0
M  V30 2597 H 250.747 -2.76438 1.03276 0
M  V30 2598 H 250.828 -1.39169 2.14629 0
M  V30 2599 H 250.472 -2.98923 4.10619 0
M  V30 2600 H 250.402 -4.35353 2.96269 0
M  V30 2601 H 252.893 -2.87926 2.44759 0
M  V30 2602 H 253.206 -5.46376 5.46528 0
M  V30 2603 H 251.551 -4.91862 4.91016 0
M  V30 2604 H 254.742 -3.51136 3.0955 0
M  V30 2605 H 254.915 -4.69007 4.47142 0
M  V30 2606 N 248.321 -0.919034 -1.28029 0
M  V30 2607 C 249.284 -0.416182 -2.2539 0
M  V30 2608 C 250.284 0.460438 -1.54067 0
M  V30 2609 O 251.474 0.262744 -1.72207 0
M  V30 2610 C 248.606 0.402707 -3.38513 0
M  V30 2611 H 249.799 -1.27629 -2.71387 0
M  V30 2612 H 247.352 -0.698919 -1.39803 0
M  V30 2613 H 248.087 1.282 -2.97885 0
M  V30 2614 H 247.872 -0.225698 -3.9145 0
M  V30 2615 H 249.362 0.745191 -4.10897 0
M  V30 2616 N 249.799 1.42003 -0.683588 0
M  V30 2617 C 250.729 2.33487 -0.024866 0
M  V30 2618 C 251.71 1.51163 0.779975 0
M  V30 2619 O 252.895 1.79739 0.735362 0
M  V30 2620 C 250.025 3.3487 0.920836 0
M  V30 2621 C 248.979 4.27414 0.223958 0
M  V30 2622 C 248.305 5.19074 1.2832 0
M  V30 2623 C 249.605 5.14445 -0.90242 0
M  V30 2624 H 251.299 2.88819 -0.788921 0
M  V30 2625 H 248.845 1.38873 -0.38083 0
M  V30 2626 H 250.798 3.97787 1.39081 0
M  V30 2627 H 249.522 2.77861 1.71642 0
M  V30 2628 H 248.181 3.65904 -0.225864 0
M  V30 2629 H 247.829 4.58387 2.071 0
M  V30 2630 H 247.529 5.81822 0.821995 0
M  V30 2631 H 249.053 5.84867 1.75392 0
M  V30 2632 H 250.467 5.70998 -0.513272 0
M  V30 2633 H 248.864 5.86072 -1.28997 0
M  V30 2634 H 249.934 4.52322 -1.74737 0
M  V30 2635 N 251.277 0.427512 1.51691 0
M  V30 2636 C 252.502 -0.143601 2.06902 0
M  V30 2637 C 252.927 -1.36536 1.29382 0
M  V30 2638 O 252.285 -1.78289 0.329043 0
M  V30 2639 C 252.333 -0.454207 3.57728 0
M  V30 2640 O 251.437 -1.54228 3.82475 0
M  V30 2641 H 250.778 -0.00617128 0.663971 0
M  V30 2642 H 253.308 0.606014 1.95419 0
M  V30 2643 H 253.318 -0.707525 4.01818 0
M  V30 2644 H 251.993 0.438812 4.13579 0
M  V30 2645 H 250.57 -1.2797 3.50254 0
M  V30 2646 N 252.755 -1.56801 0.158532 0
M  V30 2647 C 253.718 -2.16138 -0.762705 0
M  V30 2648 C 254.718 -1.1061 -1.16713 0
M  V30 2649 O 255.908 -1.36191 -1.08617 0
M  V30 2650 C 253.04 -2.73386 -2.03649 0
M  V30 2651 H 254.233 -2.98886 -0.246354 0
M  V30 2652 H 251.786 -1.56035 -0.0909744 0
M  V30 2653 H 252.521 -1.94335 -2.59623 0
M  V30 2654 H 252.306 -3.50601 -1.75559 0
M  V30 2655 H 253.796 -3.19065 -2.6942 0
M  V30 2656 N 254.233 0.115231 -1.57178 0
M  V30 2657 C 255.143 1.15994 -2.03918 0
M  V30 2658 C 256.159 1.45103 -0.960268 0
M  V30 2659 O 257.335 1.56144 -1.27204 0
M  V30 2660 C 254.4 2.46568 -2.43732 0
M  V30 2661 C 253.461 2.24822 -3.65723 0
M  V30 2662 C 252.694 3.4917 -4.03629 0
M  V30 2663 O 252.917 4.56623 -3.41835 0
M  V30 2664 O 251.851 3.39949 -4.96708 0
M  V30 2665 H 255.677 0.793019 -2.93164 0
M  V30 2666 H 253.262 0.3263 -1.45793 0
M  V30 2667 H 255.144 3.23492 -2.70057 0
M  V30 2668 H 253.819 2.82726 -1.57631 0
M  V30 2669 H 252.726 1.45744 -3.44542 0
M  V30 2670 H 254.059 1.93566 -4.52541 0
M  V30 2671 N 255.711 1.52812 0.385517 0
M  V30 2672 C 256.674 1.77188 1.45386 0
M  V30 2673 C 257.674 0.641953 1.4743 0
M  V30 2674 O 258.864 0.910033 1.4854 0
M  V30 2675 C 255.996 1.87582 2.8465 0
M  V30 2676 H 257.189 2.72583 1.25054 0
M  V30 2677 H 254.742 1.43586 0.617467 0
M  V30 2678 H 255.477 0.941849 3.10322 0
M  V30 2679 H 255.262 2.69748 2.84567 0
M  V30 2680 H 256.752 2.08102 3.62054 0
M  V30 2681 N 257.189 -0.644168 1.43834 0
M  V30 2682 C 258.152 -1.73857 1.49353 0
M  V30 2683 C 259.152 -1.56315 0.377112 0
M  V30 2684 O 260.342 -1.62048 0.639226 0
M  V30 2685 C 257.474 -3.12819 1.35488 0
M  V30 2686 H 258.667 -1.70342 2.46827 0
M  V30 2687 H 256.22 -0.856652 1.30733 0
M  V30 2688 H 256.955 -3.2194 0.390569 0
M  V30 2689 H 256.74 -3.26958 2.16428 0
M  V30 2690 H 258.23 -3.92606 1.42302 0
M  V30 2691 N 258.668 -1.30515 -0.883378 0
M  V30 2692 C 259.598 -1.19607 -2.00541 0
M  V30 2693 C 260.579 -0.086346 -1.69881 0
M  V30 2694 O 261.764 -0.268654 -1.92333 0
M  V30 2695 C 258.894 -0.888758 -3.35736 0
M  V30 2696 C 257.848 -1.95659 -3.8066 0
M  V30 2697 C 257.174 -1.50224 -5.13164 0
M  V30 2698 C 258.474 -3.36788 -3.99213 0
M  V30 2699 H 260.168 -2.13476 -2.09925 0
M  V30 2700 H 257.714 -1.02775 -1.00863 0
M  V30 2701 H 259.667 -0.799094 -4.13754 0
M  V30 2702 H 258.391 0.0856125 -3.26488 0
M  V30 2703 H 257.05 -2.03591 -3.04871 0
M  V30 2704 H 256.698 -0.516092 -5.00345 0
M  V30 2705 H 256.398 -2.2165 -5.44192 0
M  V30 2706 H 257.922 -1.42639 -5.93706 0
M  V30 2707 H 259.336 -3.31605 -4.67665 0
M  V30 2708 H 257.733 -4.06314 -4.41621 0
M  V30 2709 H 258.803 -3.78561 -3.03017 0
M  V30 2710 N 260.146 1.09593 -1.13257 0
M  V30 2711 C 261.109 2.14359 -0.811358 0
M  V30 2712 C 262.109 1.59808 0.178377 0
M  V30 2713 O 263.299 1.74132 -0.0484911 0
M  V30 2714 C 260.431 3.40269 -0.207276 0
M  V30 2715 H 261.624 2.44284 -1.73969 0
M  V30 2716 H 259.177 1.25102 -0.936973 0
M  V30 2717 H 259.912 3.15969 0.73036 0
M  V30 2718 H 259.697 3.81154 -0.919992 0
M  V30 2719 H 261.187 4.176 0.000667944 0
M  V30 2720 N 261.624 0.925811 1.2754 0
M  V30 2721 C 263.04 0.625767 1.46821 0
M  V30 2722 C 263.24 -0.825506 1.83814 0
M  V30 2723 O 262.296 -1.60356 1.95044 0
M  V30 2724 C 263.609 1.57402 2.56213 0
M  V30 2725 C 265.157 1.58204 2.70075 0
M  V30 2726 C 265.632 2.51721 3.82623 0
M  V30 2727 N 267.123 2.49917 3.89994 0
M  V30 2728 C 267.858 3.18968 4.76494 0
M  V30 2729 N 267.354 3.97391 5.67496 0
M  V30 2730 N 269.147 3.07996 4.70208 0
M  V30 2731 H 261.298 1.86409 1.01811 0
M  V30 2732 H 263.561 0.800213 0.508295 0
M  V30 2733 H 263.267 2.60925 2.35819 0
M  V30 2734 H 263.141 1.31428 3.53563 0
M  V30 2735 H 265.528 0.554124 2.89851 0
M  V30 2736 H 265.609 1.88226 1.73218 0
M  V30 2737 H 265.253 3.54622 3.63601 0
M  V30 2738 H 265.183 2.18996 4.78903 0
M  V30 2739 H 267.674 1.9296 3.24923 0
M  V30 2740 H 267.987 4.4707 6.30356 0
M  V30 2741 H 266.332 4.01495 5.67298 0
M  V30 2742 H 269.523 2.46223 3.9811 0
M  V30 2743 H 269.696 3.6208 5.37403 0
M  V30 2744 N 263.102 -1.41638 0.69111 0
M  V30 2745 C 264.065 -2.29178 0.0319786 0
M  V30 2746 C 265.065 -1.44153 -0.712496 0
M  V30 2747 O 266.255 -1.65354 -0.548053 0
M  V30 2748 C 263.387 -3.26952 -0.965161 0
M  V30 2749 H 264.58 -2.88959 0.802681 0
M  V30 2750 H 262.133 -1.4955 0.454356 0
M  V30 2751 H 262.868 -2.72142 -1.76378 0
M  V30 2752 H 262.653 -3.89685 -0.434522 0
M  V30 2753 H 264.143 -3.92561 -1.42428 0
M  V30 2754 N 264.58 -0.43555 -1.51462 0
M  V30 2755 C 265.996 -0.0877501 -1.59359 0
M  V30 2756 C 266.196 1.4027 -1.4466 0
M  V30 2757 O 265.252 2.17243 -1.28693 0
M  V30 2758 C 266.565 -0.606264 -2.94525 0
M  V30 2759 C 268.113 -0.566548 -3.0783 0
M  V30 2760 C 268.588 -1.06201 -4.45517 0
M  V30 2761 N 270.079 -1.01992 -4.51832 0
M  V30 2762 C 270.814 -1.37417 -5.5669 0
M  V30 2763 N 270.31 -1.80119 -6.68976 0
M  V30 2764 N 272.103 -1.29245 -5.47039 0
M  V30 2765 H 264.254 -1.40533 -1.59261 0
M  V30 2766 H 266.517 -0.578992 -0.750648 0
M  V30 2767 H 266.223 -1.64901 -3.10645 0
M  V30 2768 H 266.097 -0.0302097 -3.77188 0
M  V30 2769 H 268.484 0.467208 -2.91378 0
M  V30 2770 H 268.565 -1.17898 -2.2701 0
M  V30 2771 H 268.209 -2.09422 -4.62715 0
M  V30 2772 H 268.139 -0.426127 -5.24873 0
M  V30 2773 H 270.63 -0.706308 -3.71241 0
M  V30 2774 H 270.943 -2.05392 -7.45006 0
M  V30 2775 H 269.288 -1.84044 -6.70189 0
M  V30 2776 H 272.479 -0.957522 -4.58202 0
M  V30 2777 H 272.652 -1.57182 -6.28648 0
M  V30 2778 N 266.058 1.56714 -0.166846 0
M  V30 2779 C 266.968 2.21331 0.777791 0
M  V30 2780 C 267.984 1.20358 1.25658 0
M  V30 2781 O 269.16 1.53005 1.30964 0
M  V30 2782 C 266.225 2.83787 1.99163 0
M  V30 2783 C 265.286 3.99947 1.56016 0
M  V30 2784 C 264.519 4.59415 2.71613 0
M  V30 2785 O 264.742 4.17769 3.88362 0
M  V30 2786 O 263.676 5.49359 2.45945 0
M  V30 2787 H 267.502 3.02605 0.257636 0
M  V30 2788 H 265.087 1.49275 0.0611393 0
M  V30 2789 H 266.969 3.23405 2.70161 0
M  V30 2790 H 265.644 2.05513 2.50092 0
M  V30 2791 H 264.551 3.65007 0.819809 0
M  V30 2792 H 265.884 4.79801 1.09782 0
M  V30 2793 N 267.536 -0.106894 1.57237 0
M  V30 2794 C 268.813 -0.843526 1.76477 0
M  V30 2795 C 269.193 -1.97499 0.745464 0
M  V30 2796 O 268.541 -2.27357 -0.228306 0
M  V30 2797 C 268.751 -1.34903 3.21873 0
M  V30 2798 C 270.099 -1.79654 3.8472 0
M  V30 2799 O 271.123 -1.44554 3.2555 0
M  V30 2800 O 269.982 -2.44515 4.88748 0
M  V30 2801 H 267.076 -0.401468 0.723016 0
M  V30 2802 H 269.622 -0.0896927 1.69463 0
M  V30 2803 H 268.394 -0.53781 3.87586 0
M  V30 2804 H 268.017 -2.16522 3.33473 0
M  V30 2805 N 269.014 -1.53014 -0.377408 0
M  V30 2806 C 269.944 -1.81589 -1.46791 0
M  V30 2807 C 270.925 -0.668622 -1.56408 0
M  V30 2808 O 272.11 -0.917337 -1.71168 0
M  V30 2809 C 269.24 -1.99519 -2.8427 0
M  V30 2810 C 268.194 -3.15249 -2.89486 0
M  V30 2811 C 267.52 -3.18451 -4.29527 0
M  V30 2812 C 268.82 -4.54084 -2.58079 0
M  V30 2813 H 270.514 -2.7291 -1.23127 0
M  V30 2814 H 268.06 -1.31319 -0.590883 0
M  V30 2815 H 270.013 -2.18092 -3.60575 0
M  V30 2816 H 268.737 -1.04897 -3.09296 0
M  V30 2817 H 267.396 -2.96477 -2.15631 0
M  V30 2818 H 267.044 -2.2149 -4.5161 0
M  V30 2819 H 266.744 -3.962 -4.33934 0
M  V30 2820 H 268.268 -3.39193 -5.07721 0
M  V30 2821 H 269.682 -4.72899 -3.24098 0
M  V30 2822 H 268.079 -5.33987 -2.7382 0
M  V30 2823 H 269.149 -4.60006 -1.53372 0
M  V30 2824 N 270.492 0.636531 -1.44174 0
M  V30 2825 C 271.424 1.7618 -1.46606 0
M  V30 2826 C 272.437 1.58768 -0.360091 0
M  V30 2827 O 273.626 1.67181 -0.625518 0
M  V30 2828 C 270.726 3.13833 -1.27915 0
M  V30 2829 C 269.899 3.57753 -2.51658 0
M  V30 2830 C 268.958 4.74265 -2.27945 0
M  V30 2831 O 267.984 4.82852 -3.01401 0
M  V30 2832 N 269.186 5.65604 -1.30662 0
M  V30 2833 H 271.951 1.74567 -2.43612 0
M  V30 2834 H 269.512 0.820924 -1.39544 0
M  V30 2835 H 271.504 3.8949 -1.09907 0
M  V30 2836 H 270.074 3.10121 -0.39293 0
M  V30 2837 H 269.294 2.72362 -2.84978 0
M  V30 2838 H 270.582 3.83847 -3.33974 0
M  V30 2839 H 269.98 5.61354 -0.699844 0
M  V30 2840 H 268.537 6.40913 -1.18634 0
M  V30 2841 N 271.97 1.30982 0.876444 0
M  V30 2842 C 272.917 1.18085 1.98304 0
M  V30 2843 C 273.887 0.0682263 1.6596 0
M  V30 2844 O 275.072 0.239937 1.89285 0
M  V30 2845 C 272.212 0.887475 3.33493 0
M  V30 2846 C 271.325 2.08281 3.78475 0
M  V30 2847 C 270.46 1.72678 5.0235 0
M  V30 2848 C 269.499 2.88657 5.39762 0
M  V30 2849 N 268.636 2.53292 6.54819 0
M  V30 2850 H 273.476 2.1275 2.08666 0
M  V30 2851 H 271.013 1.05839 1.02159 0
M  V30 2852 H 272.971 0.697961 4.1132 0
M  V30 2853 H 271.601 -0.022315 3.22792 0
M  V30 2854 H 270.653 2.3833 2.96484 0
M  V30 2855 H 271.965 2.95108 4.02135 0
M  V30 2856 H 271.119 1.50151 5.87826 0
M  V30 2857 H 269.858 0.830327 4.8058 0
M  V30 2858 H 268.863 3.1184 4.52809 0
M  V30 2859 H 270.088 3.79002 5.63502 0
M  V30 2860 H 268.034 1.66163 6.34607 0
M  V30 2861 H 267.951 3.3365 6.7839 0
M  V30 2862 H 269.219 2.34143 7.43503 0
M  V30 2863 N 273.449 -1.08991 1.13837 0
M  V30 2864 C 274.382 -2.15049 0.763477 0
M  V30 2865 C 275.36 -1.60629 -0.252398 0
M  V30 2866 O 276.544 -1.87958 -0.142853 0
M  V30 2867 C 273.671 -3.38441 0.132545 0
M  V30 2868 C 272.717 -4.11596 1.11763 0
M  V30 2869 S 273.55 -4.6521 2.65216 0
M  V30 2870 C 274.706 -5.91896 2.03495 0
M  V30 2871 H 274.939 -2.46518 1.66182 0
M  V30 2872 H 272.472 -1.21008 0.958976 0
M  V30 2873 H 274.43 -4.09883 -0.225074 0
M  V30 2874 H 273.091 -3.05182 -0.743135 0
M  V30 2875 H 272.284 -5.00121 0.624076 0
M  V30 2876 H 271.886 -3.46038 1.41894 0
M  V30 2877 H 274.178 -6.63156 1.38675 0
M  V30 2878 H 275.121 -6.45938 2.9012 0
M  V30 2879 H 275.529 -5.44625 1.48471 0
M  V30 2880 N 274.927 -0.932562 -1.27047 0
M  V30 2881 C 275.874 -0.434072 -2.26681 0
M  V30 2882 C 276.844 0.501639 -1.58344 0
M  V30 2883 O 278.029 0.419734 -1.86126 0
M  V30 2884 C 275.169 0.30261 -3.43771 0
M  V30 2885 C 274.282 -0.667774 -4.26808 0
M  V30 2886 C 273.417 0.0892393 -5.31125 0
M  V30 2887 C 272.456 -0.873532 -6.05835 0
M  V30 2888 N 271.593 -0.148832 -7.01942 0
M  V30 2889 H 276.433 -1.28868 -2.68695 0
M  V30 2890 H 273.97 -0.646713 -1.32121 0
M  V30 2891 H 275.928 0.746092 -4.10474 0
M  V30 2892 H 274.558 1.12142 -3.02695 0
M  V30 2893 H 273.61 -1.22978 -3.59973 0
M  V30 2894 H 274.922 -1.40337 -4.78651 0
M  V30 2895 H 274.076 0.592409 -6.03801 0
M  V30 2896 H 272.815 0.85777 -4.80097 0
M  V30 2897 H 271.82 -1.38791 -5.31994 0
M  V30 2898 H 273.045 -1.64193 -6.58952 0
M  V30 2899 H 270.991 0.601365 -6.53238 0
M  V30 2900 H 270.908 -0.82391 -7.51497 0
M  V30 2901 H 272.176 0.333527 -7.78786 0
M  V30 2902 N 276.405 1.4127 -0.698611 0
M  V30 2903 C 277.337 2.292 0.00399731 0
M  V30 2904 C 278.35 1.44944 0.741279 0
M  V30 2905 O 279.539 1.68416 0.591477 0
M  V30 2906 C 276.639 3.22875 1.02979 0
M  V30 2907 C 275.812 4.35904 0.36151 0
M  V30 2908 C 274.871 5.10134 1.29033 0
M  V30 2909 O 273.897 5.63809 0.781562 0
M  V30 2910 N 275.099 5.17885 2.6225 0
M  V30 2911 H 277.864 2.9014 -0.750921 0
M  V30 2912 H 275.425 1.52455 -0.544882 0
M  V30 2913 H 277.417 3.69404 1.65296 0
M  V30 2914 H 275.987 2.63221 1.68622 0
M  V30 2915 H 275.207 3.91719 -0.441584 0
M  V30 2916 H 276.495 5.08696 -0.103055 0
M  V30 2917 H 275.893 4.7573 3.061 0
M  V30 2918 H 274.45 5.6798 3.19754 0
M  V30 2919 N 277.883 0.443576 1.51229 0
M  V30 2920 C 279.13 -0.120796 2.02139 0
M  V30 2921 C 279.458 -1.42166 1.32736 0
M  V30 2922 O 278.713 -1.90849 0.43301 0
M  V30 2923 C 279.012 -0.380579 3.55368 0
M  V30 2924 C 278.678 0.83523 4.43097 0
M  V30 2925 C 277.34 1.16864 4.66794 0
M  V30 2926 C 279.692 1.64601 4.94526 0
M  V30 2927 C 277.02 2.31339 5.39165 0
M  V30 2928 C 279.372 2.78181 5.68153 0
M  V30 2929 C 278.036 3.11969 5.90112 0
M  V30 2930 H 277.306 -0.0442023 0.73968 0
M  V30 2931 H 279.953 0.592046 1.82118 0
M  V30 2932 H 278.258 -1.17538 3.73754 0
M  V30 2933 H 279.955 -0.830777 3.923 0
M  V30 2934 H 276.545 0.565437 4.24854 0
M  V30 2935 H 280.729 1.40163 4.76097 0
M  V30 2936 H 275.985 2.57823 5.5438 0
M  V30 2937 H 280.159 3.41371 6.06992 0
M  V30 2938 H 277.786 4.00784 6.45969 0
M  V30 2939 N 279.361 -1.56624 0.175154 0
M  V30 2940 C 280.324 -2.16934 -0.739738 0
M  V30 2941 C 281.324 -1.11842 -1.15533 0
M  V30 2942 O 282.514 -1.37335 -1.07167 0
M  V30 2943 C 279.646 -2.75531 -2.00738 0
M  V30 2944 H 280.839 -2.99131 -0.214639 0
M  V30 2945 H 278.392 -1.56123 -0.0744197 0
M  V30 2946 H 279.127 -1.97078 -2.57548 0
M  V30 2947 H 278.912 -3.52444 -1.71831 0
M  V30 2948 H 280.402 -3.21904 -2.66021 0
M  V30 2949 N 280.839 0.0985539 -1.57292 0
M  V30 2950 C 281.771 1.14595 -1.98496 0
M  V30 2951 C 282.784 1.36512 -0.887031 0
M  V30 2952 O 283.973 1.35225 -1.16518 0
M  V30 2953 C 281.073 2.50216 -2.28572 0
M  V30 2954 C 280.246 2.48624 -3.59868 0
M  V30 2955 C 279.305 3.66146 -3.7792 0
M  V30 2956 O 278.331 3.48795 -4.49812 0
M  V30 2957 N 279.533 4.85496 -3.18235 0
M  V30 2958 H 282.298 0.795277 -2.88956 0
M  V30 2959 H 279.859 0.287579 -1.59325 0
M  V30 2960 H 281.851 3.27432 -2.37845 0
M  V30 2961 H 280.421 2.77387 -1.44136 0
M  V30 2962 H 279.641 1.56978 -3.61596 0
M  V30 2963 H 280.929 2.44635 -4.46129 0
M  V30 2964 H 280.327 5.02497 -2.59833 0
M  V30 2965 H 278.884 5.60317 -3.32999 0
M  V30 2966 N 282.317 1.53212 0.369288 0
M  V30 2967 C 283.594 1.59815 1.12776 0
M  V30 2968 C 283.974 0.403402 2.0721 0
M  V30 2969 O 283.322 -0.606667 2.20299 0
M  V30 2970 C 283.532 2.94664 1.87013 0
M  V30 2971 C 284.88 3.49109 2.41677 0
M  V30 2972 O 285.904 2.96669 1.97144 0
M  V30 2973 O 284.763 4.40775 3.23079 0
M  V30 2974 H 281.857 0.645376 0.517125 0
M  V30 2975 H 284.403 1.65553 0.37285 0
M  V30 2976 H 283.175 3.73061 1.18071 0
M  V30 2977 H 282.798 2.92401 2.69421 0
M  V30 2978 N 283.795 -0.628877 1.44509 0
M  V30 2979 C 285.042 -1.38839 1.47411 0
M  V30 2980 C 285.37 -1.94202 0.10757 0
M  V30 2981 O 284.625 -1.74243 -0.890947 0
M  V30 2982 C 284.924 -2.56995 2.48371 0
M  V30 2983 C 284.59 -2.19908 3.93639 0
M  V30 2984 C 283.252 -2.09506 4.33198 0
M  V30 2985 C 285.604 -1.9064 4.85083 0
M  V30 2986 C 282.932 -1.68028 5.62124 0
M  V30 2987 C 285.284 -1.50655 6.14399 0
M  V30 2988 C 283.948 -1.38796 6.5291 0
M  V30 2989 H 283.218 -0.508048 0.539414 0
M  V30 2990 H 285.865 -0.712913 1.77735 0
M  V30 2991 H 284.17 -3.29786 2.11538 0
M  V30 2992 H 285.867 -3.15223 2.47861 0
M  V30 2993 H 282.457 -2.28922 3.62343 0
M  V30 2994 H 286.641 -1.97585 4.55273 0
M  V30 2995 H 281.897 -1.57452 5.90778 0
M  V30 2996 H 286.071 -1.27048 6.84713 0
M  V30 2997 H 283.698 -1.06429 7.52713 0
M  V30 2998 N 285.273 -1.31445 -0.869486 0
M  V30 2999 C 286.519 -1.21337 -1.62496 0
M  V30 3000 C 286.852 0.227872 -1.92858 0
M  V30 3001 O 286.127 1.16094 -1.56053 0
M  V30 3002 C 286.41 -2.05814 -2.95487 0
M  V30 3003 C 286.263 -3.5824 -2.72 0
M  V30 3004 C 287.582 -1.9079 -3.96594 0
M  V30 3005 H 284.701 -0.442135 -0.589649 0
M  V30 3006 H 287.343 -1.6124 -1.00507 0
M  V30 3007 H 285.493 -1.71913 -3.48394 0
M  V30 3008 H 287.165 -4.0228 -2.25762 0
M  V30 3009 H 285.408 -3.81647 -2.06224 0
M  V30 3010 H 286.079 -4.12657 -3.66631 0
M  V30 3011 H 288.555 -2.20459 -3.52898 0
M  V30 3012 H 287.431 -2.52199 -4.87531 0
M  V30 3013 H 287.692 -0.871341 -4.33428 0
M  V30 3014 N 286.751 1.08385 -1.14413 0
M  V30 3015 C 287.684 2.14642 -0.774871 0
M  V30 3016 C 288.662 1.60761 0.243876 0
M  V30 3017 O 289.846 1.88031 0.132883 0
M  V30 3018 C 286.973 3.38366 -0.150491 0
M  V30 3019 C 286.019 4.10997 -1.13945 0
M  V30 3020 S 286.852 4.63797 -2.67679 0
M  V30 3021 C 288.008 5.90808 -2.06631 0
M  V30 3022 H 288.241 2.45633 -1.67487 0
M  V30 3023 H 285.774 1.20498 -0.96538 0
M  V30 3024 H 287.732 4.09996 0.203334 0
M  V30 3025 H 286.393 3.05572 0.72694 0
M  V30 3026 H 285.586 4.99783 -0.65059 0
M  V30 3027 H 285.188 3.4528 -1.43727 0
M  V30 3028 H 287.48 6.62411 -1.4219 0
M  V30 3029 H 288.423 6.4439 -2.93542 0
M  V30 3030 H 288.831 5.4383 -1.51357 0
M  V30 3031 N 288.23 0.939286 1.26551 0
M  V30 3032 C 289.18 0.418284 2.2413 0
M  V30 3033 C 290.164 -0.483935 1.5345 0
M  V30 3034 O 291.356 -0.319489 1.74093 0
M  V30 3035 C 288.485 -0.31709 3.41832 0
M  V30 3036 C 287.571 0.602311 4.19801 0
M  V30 3037 N 287.962 1.72726 4.75394 0
M  V30 3038 C 286.26 0.407534 4.44134 0
M  V30 3039 C 286.961 2.30004 5.34297 0
M  V30 3040 N 285.937 1.58828 5.1988 0
M  V30 3041 H 289.739 1.27705 2.64705 0
M  V30 3042 H 287.253 0.794929 1.41614 0
M  V30 3043 H 289.25 -0.707364 4.10855 0
M  V30 3044 H 287.91 -1.17264 3.02786 0
M  V30 3045 H 288.921 2.10944 4.72994 0
M  V30 3046 H 285.598 -0.406406 4.15517 0
M  V30 3047 H 286.988 3.24778 5.88191 0
M  V30 3048 N 289.708 -1.40897 0.706093 0
M  V30 3049 C 290.936 -2.05373 0.250887 0
M  V30 3050 C 291.351 -1.53172 -1.10381 0
M  V30 3051 O 290.708 -0.684305 -1.69185 0
M  V30 3052 C 290.759 -3.6088 0.211571 0
M  V30 3053 O 290.48 -4.11153 1.51276 0
M  V30 3054 C 291.981 -4.42517 -0.263346 0
M  V30 3055 H 289.201 -0.66115 0.114552 0
M  V30 3056 H 291.745 -1.80479 0.961635 0
M  V30 3057 H 289.9 -3.84777 -0.450073 0
M  V30 3058 H 290.314 -5.05279 1.40689 0
M  V30 3059 H 291.788 -5.51479 -0.239718 0
M  V30 3060 H 292.265 -4.19396 -1.30397 0
M  V30 3061 H 292.871 -4.23708 0.367677 0
M  V30 3062 N 291.186 -0.45159 -1.50991 0
M  V30 3063 C 292.463 0.170707 -1.94854 0
M  V30 3064 C 292.843 1.58788 -1.39103 0
M  V30 3065 O 292.191 2.20913 -0.583921 0
M  V30 3066 C 292.401 0.133929 -3.48743 0
M  V30 3067 C 293.749 0.33248 -4.23296 0
M  V30 3068 O 294.773 0.211403 -3.55572 0
M  V30 3069 O 293.632 0.57486 -5.43468 0
M  V30 3070 H 290.726 0.122264 -0.817912 0
M  V30 3071 H 293.272 -0.510594 -1.61836 0
M  V30 3072 H 292.044 -0.856283 -3.81816 0
M  V30 3073 H 291.667 0.857529 -3.88242 0
M  V30 3074 N 292.664 1.56529 -0.183458 0
M  V30 3075 C 293.91 1.97537 0.459036 0
M  V30 3076 C 294.243 1.06989 1.62071 0
M  V30 3077 O 293.518 0.11948 1.94133 0
M  V30 3078 C 293.801 3.47874 0.930368 0
M  V30 3079 C 293.654 4.492 -0.232317 0
M  V30 3080 C 294.973 4.01612 1.79989 0
M  V30 3081 H 292.092 0.718204 0.165383 0
M  V30 3082 H 294.734 1.88042 -0.272038 0
M  V30 3083 H 292.884 3.56095 1.55333 0
M  V30 3084 H 294.556 4.53027 -0.86972 0
M  V30 3085 H 292.799 4.24657 -0.885928 0
M  V30 3086 H 293.47 5.51823 0.139796 0
M  V30 3087 H 295.946 3.96097 1.27461 0
M  V30 3088 H 294.822 5.07195 2.09867 0
M  V30 3089 H 295.083 3.46163 2.74998 0
M  V30 3090 N 294.142 -0.090211 1.57342 0
M  V30 3091 C 295.558 -0.444547 1.53284 0
M  V30 3092 C 295.758 -1.80238 0.900914 0
M  V30 3093 O 294.814 -2.4759 0.495513 0
M  V30 3094 C 296.127 -0.402543 2.97993 0
M  V30 3095 C 297.675 -0.48405 3.09234 0
M  V30 3096 C 298.15 -0.472144 4.5556 0
M  V30 3097 N 299.641 -0.532757 4.60126 0
M  V30 3098 C 300.376 -0.545462 5.708 0
M  V30 3099 N 299.872 -0.514082 6.9089 0
M  V30 3100 N 301.665 -0.59064 5.58988 0
M  V30 3101 H 293.816 0.799121 1.96794 0
M  V30 3102 H 296.079 0.297965 0.899956 0
M  V30 3103 H 295.785 0.528106 3.47712 0
M  V30 3104 H 295.659 -1.21969 3.56936 0
M  V30 3105 H 298.046 -1.40512 2.595 0
M  V30 3106 H 298.127 0.361328 2.53235 0
M  V30 3107 H 297.771 0.445 5.05947 0
M  V30 3108 H 297.701 -1.3348 5.09402 0
M  V30 3109 H 300.192 -0.562006 3.73698 0
M  V30 3110 H 300.505 -0.527195 7.71 0
M  V30 3111 H 298.85 -0.481054 6.93333 0
M  V30 3112 H 302.041 -0.61272 4.64073 0
M  V30 3113 H 302.214 -0.597073 6.45243 0
M  V30 3114 N 295.62 -1.53406 -0.361157 0
M  V30 3115 C 296.848 -1.73717 -1.12383 0
M  V30 3116 C 297.263 -0.468161 -1.82904 0
M  V30 3117 O 296.62 0.559198 -1.73722 0
M  V30 3118 C 296.671 -2.90558 -2.15078 0
M  V30 3119 O 296.392 -4.12549 -1.47428 0
M  V30 3120 C 297.893 -3.22777 -3.03858 0
M  V30 3121 H 295.113 -0.580896 -0.335858 0
M  V30 3122 H 297.657 -2.00167 -0.418728 0
M  V30 3123 H 295.812 -2.66489 -2.8118 0
M  V30 3124 H 296.226 -4.78009 -2.15887 0
M  V30 3125 H 297.7 -4.07927 -3.71887 0
M  V30 3126 H 298.177 -2.38329 -3.68912 0
M  V30 3127 H 298.783 -3.48787 -2.43367 0
M  V30 3128 N 297.098 0.621204 -1.44841 0
M  V30 3129 C 298.338 1.39201 -1.49674 0
M  V30 3130 C 298.702 1.91561 -0.129764 0
M  V30 3131 O 299.903 2.68748 -0.0527814 0
M  V30 3132 C 298.174 2.519 -2.53537 0
M  V30 3133 S 299.733 3.39916 -2.77494 0
M  V30 3134 H 296.551 0.474758 -0.529269 0
M  V30 3135 H 299.153 0.718171 -1.81831 0
M  V30 3136 H 297.857 2.11761 -3.51547 0
M  V30 3137 H 297.388 3.241 -2.22986 0
M  V30 3138 H 299.403 4.49646 -2.0984 0
M  V30 3139 N 298.576 1.31904 0.862503 0
M  V30 3140 C 299.801 1.25135 1.65397 0
M  V30 3141 C 300.226 -0.179 1.87246 0
M  V30 3142 O 299.584 -1.1277 1.4196 0
M  V30 3143 C 299.632 2.00832 2.99498 0
M  V30 3144 O 298.736 1.35075 3.89652 0
M  V30 3145 H 298.077 0.431655 0.504549 0
M  V30 3146 H 300.607 1.74094 1.07483 0
M  V30 3147 H 300.617 2.10709 3.49379 0
M  V30 3148 H 299.292 3.04847 2.82916 0
M  V30 3149 H 297.869 1.33696 3.48109 0
M  V30 3150 N 300.054 -1.07777 1.14986 0
M  V30 3151 C 301.279 -1.84558 0.946213 0
M  V30 3152 C 301.704 -1.81323 -0.500362 0
M  V30 3153 O 301.062 -1.20301 -1.35637 0
M  V30 3154 C 301.11 -3.29736 1.45968 0
M  V30 3155 O 300.214 -4.07149 0.65601 0
M  V30 3156 H 299.555 -0.571641 0.33782 0
M  V30 3157 H 302.085 -1.35991 1.52865 0
M  V30 3158 H 302.095 -3.80574 1.47063 0
M  V30 3159 H 300.77 -3.31406 2.51283 0
M  V30 3160 H 299.347 -3.65994 0.714322 0
M  V30 3161 N 301.532 -0.945985 -1.26051 0
M  V30 3162 C 302.757 -0.612525 -1.98149 0
M  V30 3163 C 303.182 0.806623 -1.69927 0
M  V30 3164 O 302.54 1.54411 -0.950108 0
M  V30 3165 C 302.588 -0.866981 -3.50023 0
M  V30 3166 O 301.692 0.0585333 -4.12358 0
M  V30 3167 H 301.033 -0.23379 -0.621481 0
M  V30 3168 H 303.563 -1.27023 -1.60395 0
M  V30 3169 H 303.573 -0.789792 -4.00283 0
M  V30 3170 H 302.248 -1.90135 -3.69894 0
M  V30 3171 H 300.825 -0.0701241 -3.72834 0
M  V30 3172 N 303.011 1.40521 -0.713556 0
M  V30 3173 C 304.239 2.05237 -0.261775 0
M  V30 3174 C 304.654 1.53755 1.09567 0
M  V30 3175 O 304.011 0.693268 1.6882 0
M  V30 3176 C 304.062 3.60763 -0.230706 0
M  V30 3177 O 303.783 4.10345 -1.53455 0
M  V30 3178 C 305.284 4.42651 0.239874 0
M  V30 3179 H 302.504 0.660533 -0.118057 0
M  V30 3180 H 305.048 1.79967 -0.971192 0
M  V30 3181 H 303.203 3.8501 0.429661 0
M  V30 3182 H 303.617 5.04526 -1.43366 0
M  V30 3183 H 305.091 5.51599 0.210468 0
M  V30 3184 H 305.568 4.20082 1.28171 0
M  V30 3185 H 306.174 4.23507 -0.390142 0
M  V30 3186 N 304.489 0.459591 1.5075 0
M  V30 3187 C 305.714 -0.0996819 2.0716 0
M  V30 3188 C 306.139 -1.33761 1.32249 0
M  V30 3189 O 305.497 -1.77551 0.366786 0
M  V30 3190 C 305.545 -0.378226 3.58611 0
M  V30 3191 O 304.649 -1.46081 3.85661 0
M  V30 3192 H 303.99 0.00791392 0.663953 0
M  V30 3193 H 306.52 0.647329 1.9409 0
M  V30 3194 H 306.53 -0.622135 4.03229 0
M  V30 3195 H 305.205 0.526439 4.12555 0
M  V30 3196 H 303.782 -1.20511 3.5289 0
M  V30 3197 N 305.967 -1.56429 0.191757 0
M  V30 3198 C 307.213 -1.97777 -0.448554 0
M  V30 3199 C 307.546 -1.07847 -1.61501 0
M  V30 3200 O 306.821 -0.129774 -1.94067 0
M  V30 3201 C 307.104 -3.48362 -0.911906 0
M  V30 3202 C 306.957 -4.4907 0.256136 0
M  V30 3203 C 308.276 -4.02561 -1.77857 0
M  V30 3204 H 305.395 -0.719071 -0.161572 0
M  V30 3205 H 308.037 -1.87896 0.282007 0
M  V30 3206 H 306.187 -3.56914 -1.53442 0
M  V30 3207 H 307.859 -4.5256 0.893733 0
M  V30 3208 H 306.102 -4.24181 0.908436 0
M  V30 3209 H 306.773 -5.51889 -0.11053 0
M  V30 3210 H 309.249 -3.96767 -1.25359 0
M  V30 3211 H 308.125 -5.08301 -2.07174 0
M  V30 3212 H 308.386 -3.47616 -2.73158 0
M  V30 3213 N 307.445 0.0818655 -1.57387 0
M  V30 3214 C 308.694 0.781681 -1.85937 0
M  V30 3215 C 309.007 1.79246 -0.782957 0
M  V30 3216 O 310.213 2.54112 -0.955987 0
M  V30 3217 C 308.669 1.44109 -3.29789 0
M  V30 3218 C 308.277 0.469396 -4.45534 0
M  V30 3219 C 310.021 2.12386 -3.67549 0
M  V30 3220 C 307.928 1.13415 -5.80423 0
M  V30 3221 H 306.858 0.295682 -0.693605 0
M  V30 3222 H 309.509 0.0348051 -1.83467 0
M  V30 3223 H 307.891 2.23588 -3.2684 0
M  V30 3224 H 309.065 -0.294856 -4.59856 0
M  V30 3225 H 307.38 -0.108383 -4.16259 0
M  V30 3226 H 309.977 2.62878 -4.65617 0
M  V30 3227 H 310.32 2.91877 -2.96839 0
M  V30 3228 H 310.853 1.39751 -3.72444 0
M  V30 3229 H 307.592 0.379771 -6.54399 0
M  V30 3230 H 307.112 1.8695 -5.69921 0
M  V30 3231 H 308.791 1.65686 -6.25426 0
M  V30 3232 N 308.923 1.53595 0.353017 0
M  V30 3233 C 309.886 1.80232 1.41594 0
M  V30 3234 C 310.886 0.673081 1.46035 0
M  V30 3235 O 312.076 0.941335 1.46576 0
M  V30 3236 C 309.208 1.93578 2.80607 0
M  V30 3237 H 310.401 2.75174 1.19244 0
M  V30 3238 H 307.954 1.44864 0.586872 0
M  V30 3239 H 308.689 1.00746 3.08254 0
M  V30 3240 H 308.474 2.75724 2.78781 0
M  V30 3241 H 309.964 2.15735 3.57558 0
M  V30 3242 N 310.401 -0.613514 1.45168 0
M  V30 3243 C 311.678 -1.37263 1.39349 0
M  V30 3244 C 312.058 -2.11012 0.0610848 0
M  V30 3245 O 311.406 -2.07502 -0.956825 0
M  V30 3246 C 311.616 -2.3244 2.60332 0
M  V30 3247 C 312.964 -2.9523 3.05163 0
M  V30 3248 O 313.988 -2.42762 2.60663 0
M  V30 3249 O 312.847 -3.90454 3.82372 0
M  V30 3250 H 309.941 -0.615188 0.552696 0
M  V30 3251 H 312.487 -0.637097 1.57287 0
M  V30 3252 H 311.259 -1.77164 3.48896 0
M  V30 3253 H 310.882 -3.13383 2.44698 0
M  V30 3254 N 311.879 -1.3236 -0.855495 0
M  V30 3255 C 312.809 -1.23833 -1.97958 0
M  V30 3256 C 313.79 -0.122361 -1.69659 0
M  V30 3257 O 314.975 -0.30939 -1.9172 0
M  V30 3258 C 312.105 -0.959772 -3.33775 0
M  V30 3259 C 311.059 -2.03689 -3.76424 0
M  V30 3260 C 310.385 -1.61075 -5.09862 0
M  V30 3261 C 311.685 -3.4518 -3.9198 0
M  V30 3262 H 313.379 -2.1788 -2.0535 0
M  V30 3263 H 310.925 -1.04891 -0.986605 0
M  V30 3264 H 312.878 -0.886678 -4.11966 0
M  V30 3265 H 311.602 0.0163404 -3.26596 0
M  V30 3266 H 310.261 -2.10012 -3.00484 0
M  V30 3267 H 309.909 -0.622107 -4.99138 0
M  V30 3268 H 309.609 -2.33143 -5.39368 0
M  V30 3269 H 311.133 -1.55201 -5.90546 0
M  V30 3270 H 312.547 -3.4145 -4.60526 0
M  V30 3271 H 310.944 -4.1559 -4.32903 0
M  V30 3272 H 312.014 -3.84903 -2.94919 0
M  V30 3273 N 313.357 1.07166 -1.15556 0
M  V30 3274 C 314.289 2.14341 -0.811815 0
M  V30 3275 C 315.302 1.61835 0.177015 0
M  V30 3276 O 316.491 1.78439 -0.0464996 0
M  V30 3277 C 313.591 3.38387 -0.186481 0
M  V30 3278 C 312.764 4.20238 -1.21321 0
M  V30 3279 C 311.823 5.2266 -0.609302 0
M  V30 3280 O 310.849 5.54719 -1.27576 0
M  V30 3281 N 312.051 5.77306 0.608099 0
M  V30 3282 H 314.816 2.44431 -1.73417 0
M  V30 3283 H 312.377 1.23089 -1.0517 0
M  V30 3284 H 314.369 4.04044 0.230339 0
M  V30 3285 H 312.939 3.05994 0.639249 0
M  V30 3286 H 312.159 3.50369 -1.80652 0
M  V30 3287 H 313.447 4.71736 -1.90638 0
M  V30 3288 H 312.845 5.53513 1.1679 0
M  V30 3289 H 311.402 6.44583 0.96725 0
M  V30 3290 N 314.835 0.952656 1.25548 0
M  V30 3291 C 315.745 0.47782 2.29682 0
M  V30 3292 C 316.761 -0.453859 1.67977 0
M  V30 3293 O 317.937 -0.330587 1.98668 0
M  V30 3294 C 315.002 -0.238655 3.45878 0
M  V30 3295 C 314.063 0.730994 4.23031 0
M  V30 3296 C 313.296 0.0486165 5.33678 0
M  V30 3297 O 313.519 -1.16612 5.58353 0
M  V30 3298 O 312.453 0.733152 5.97418 0
M  V30 3299 H 316.279 1.34312 2.72386 0
M  V30 3300 H 313.864 0.719026 1.30959 0
M  V30 3301 H 315.746 -0.641774 4.16484 0
M  V30 3302 H 314.421 -1.07916 3.05181 0
M  V30 3303 H 313.328 1.18428 3.5486 0
M  V30 3304 H 314.661 1.53946 4.67506 0
M  V30 3305 N 316.313 -1.40141 0.720998 0
M  V30 3306 C 317.59 -1.94677 0.189757 0
M  V30 3307 C 317.97 -1.65879 -1.30566 0
M  V30 3308 O 317.318 -0.979391 -2.06447 0
M  V30 3309 C 317.528 -3.45279 0.508304 0
M  V30 3310 C 318.876 -4.22209 0.449934 0
M  V30 3311 O 319.9 -3.53413 0.444677 0
M  V30 3312 O 318.759 -5.44788 0.432189 0
M  V30 3313 H 315.853 -0.826459 0.0299026 0
M  V30 3314 H 318.399 -1.49719 0.7989 0
M  V30 3315 H 317.171 -3.59619 1.54239 0
M  V30 3316 H 316.794 -3.97386 -0.130525 0
M  V30 3317 N 317.792 -0.46758 -1.50504 0
M  V30 3318 C 318.702 0.33382 -2.32213 0
M  V30 3319 C 319.718 0.999323 -1.42441 0
M  V30 3320 O 320.894 0.988068 -1.75497 0
M  V30 3321 C 317.959 1.4035 -3.17022 0
M  V30 3322 C 317.02 0.754961 -4.2261 0
M  V30 3323 C 316.253 1.77367 -5.03365 0
M  V30 3324 O 316.476 2.99976 -4.8515 0
M  V30 3325 O 315.41 1.34744 -5.86624 0
M  V30 3326 H 319.236 -0.334067 -3.01857 0
M  V30 3327 H 316.821 -0.229496 -1.47627 0
M  V30 3328 H 318.703 2.02318 -3.69656 0
M  V30 3329 H 317.378 2.05492 -2.5011 0
M  V30 3330 H 316.285 0.0964244 -3.73976 0
M  V30 3331 H 317.618 0.146545 -4.91982 0
M  V30 3332 N 319.27 1.56325 -0.20005 0
M  V30 3333 C 320.547 1.89484 0.48529 0
M  V30 3334 C 320.927 1.1143 1.79294 0
M  V30 3335 O 320.275 0.216919 2.27468 0
M  V30 3336 C 320.485 3.41923 0.699243 0
M  V30 3337 C 321.833 4.12256 1.01638 0
M  V30 3338 O 322.857 3.47402 0.786792 0
M  V30 3339 O 321.716 5.26887 1.45095 0
M  V30 3340 H 318.81 0.787144 0.253639 0
M  V30 3341 H 321.356 1.67985 -0.240633 0
M  V30 3342 H 320.128 3.90658 -0.224008 0
M  V30 3343 H 319.751 3.69131 1.47744 0
M  V30 3344 N 320.748 -0.0735177 1.57428 0
M  V30 3345 C 321.996 -0.771472 1.86796 0
M  V30 3346 C 322.317 -1.78201 0.791804 0
M  V30 3347 O 321.587 -1.95074 -0.179718 0
M  V30 3348 H 320.167 -0.28791 0.689287 0
M  V30 3349 H 322.829 -0.0500161 1.94836 0
M  V30 3350 H 321.925 -1.28874 2.8425 0
M  V30 3351 N 322.226 -1.5378 -0.344866 0
M  V30 3352 C 323.472 -1.71216 -1.08687 0
M  V30 3353 C 323.805 -0.473281 -1.88345 0
M  V30 3354 O 323.08 0.52968 -1.87149 0
M  V30 3355 C 323.363 -2.97486 -2.02914 0
M  V30 3356 C 323.216 -4.31579 -1.26727 0
M  V30 3357 C 324.535 -3.19422 -3.0275 0
M  V30 3358 H 321.654 -0.62301 -0.393735 0
M  V30 3359 H 324.296 -1.8645 -0.365563 0
M  V30 3360 H 322.446 -2.84629 -2.64421 0
M  V30 3361 H 324.118 -4.56284 -0.67845 0
M  V30 3362 H 322.361 -4.30049 -0.569273 0
M  V30 3363 H 323.032 -5.16106 -1.95803 0
M  V30 3364 H 325.508 -3.316 -2.51357 0
M  V30 3365 H 324.384 -4.09169 -3.65885 0
M  V30 3366 H 324.645 -2.35656 -3.74057 0
M  V30 3367 N 323.704 0.605807 -1.45491 0
M  V30 3368 C 324.934 1.38934 -1.52908 0
M  V30 3369 C 325.342 1.88513 -0.161086 0
M  V30 3370 O 324.685 1.62962 0.847891 0
M  V30 3371 C 324.747 2.62737 -2.45376 0
M  V30 3372 C 324.411 2.34785 -3.92078 0
M  V30 3373 C 325.408 1.95038 -4.8193 0
M  V30 3374 C 323.093 2.47642 -4.37011 0
M  V30 3375 C 325.087 1.68511 -6.14722 0
M  V30 3376 C 322.774 2.20728 -5.69844 0
M  V30 3377 C 323.772 1.81225 -6.58519 0
M  V30 3378 O 323.46 1.54627 -7.88889 0
M  V30 3379 H 323.192 0.431629 -0.520262 0
M  V30 3380 H 325.746 0.74573 -1.91384 0
M  V30 3381 H 323.976 3.29824 -2.01874 0
M  V30 3382 H 325.665 3.24783 -2.43456 0
M  V30 3383 H 326.431 1.84639 -4.48479 0
M  V30 3384 H 322.31 2.77356 -3.68232 0
M  V30 3385 H 325.854 1.37602 -6.83894 0
M  V30 3386 H 321.751 2.30744 -6.02849 0
M  V30 3387 H 322.519 1.68665 -8.00933 0
M  V30 3388 N 325.182 1.32811 0.848464 0
M  V30 3389 C 326.429 1.23724 1.60308 0
M  V30 3390 C 326.757 -0.1994 1.93475 0
M  V30 3391 O 326.012 -1.15406 1.5805 0
M  V30 3392 C 326.311 2.04831 2.92881 0
M  V30 3393 C 325.977 3.54125 2.79117 0
M  V30 3394 C 324.639 3.94829 2.7507 0
M  V30 3395 C 326.991 4.49036 2.64606 0
M  V30 3396 C 324.319 5.28675 2.544 0
M  V30 3397 C 326.671 5.83033 2.4547 0
M  V30 3398 C 325.335 6.22931 2.39819 0
M  V30 3399 H 324.605 0.452737 0.586609 0
M  V30 3400 H 327.252 1.64301 0.983743 0
M  V30 3401 H 325.557 1.57001 3.58968 0
M  V30 3402 H 327.254 1.95164 3.50303 0
M  V30 3403 H 323.844 3.21801 2.83094 0
M  V30 3404 H 328.028 4.18505 2.66772 0
M  V30 3405 H 323.284 5.58637 2.48465 0
M  V30 3406 H 327.458 6.56186 2.33222 0
M  V30 3407 H 325.085 7.26584 2.23562 0
M  V30 3408 N 326.66 -1.06551 1.16123 0
M  V30 3409 C 327.885 -1.83544 0.965735 0
M  V30 3410 C 328.31 -1.81843 -0.481102 0
M  V30 3411 O 327.668 -1.21732 -1.34354 0
M  V30 3412 C 327.716 -3.28169 1.49457 0
M  V30 3413 O 326.82 -4.0643 0.699157 0
M  V30 3414 H 326.161 -0.568026 0.343864 0
M  V30 3415 H 328.691 -1.34362 1.54299 0
M  V30 3416 H 328.701 -3.78992 1.51092 0
M  V30 3417 H 327.376 -3.28722 2.54784 0
M  V30 3418 H 325.953 -3.65216 0.7531 0
M  V30 3419 N 328.138 -0.959301 -1.25041 0
M  V30 3420 C 329.363 -0.633507 -1.97488 0
M  V30 3421 C 329.788 0.788555 -1.70773 0
M  V30 3422 O 329.146 1.53394 -0.966431 0
M  V30 3423 C 329.194 -0.904057 -3.49083 0
M  V30 3424 O 328.298 0.0147939 -4.12397 0
M  V30 3425 H 327.639 -0.240368 -0.618966 0
M  V30 3426 H 330.169 -1.28717 -1.59038 0
M  V30 3427 H 330.179 -0.832203 -3.99423 0
M  V30 3428 H 328.854 -1.94048 -3.67856 0
M  V30 3429 H 327.431 -0.109664 -3.72739 0
M  V30 3430 N 329.616 1.39756 -0.72842 0
M  V30 3431 C 330.846 2.04651 -0.283117 0
M  V30 3432 C 331.254 1.5502 1.08469 0
M  V30 3433 O 330.597 0.707343 1.69536 0
M  V30 3434 C 330.659 3.58947 -0.199309 0
M  V30 3435 C 330.323 4.31525 -1.5045 0
M  V30 3436 C 331.32 4.5861 -2.44894 0
M  V30 3437 C 329.005 4.70195 -1.76698 0
M  V30 3438 C 330.999 5.23366 -3.63822 0
M  V30 3439 C 328.686 5.3468 -2.95906 0
M  V30 3440 C 329.684 5.61198 -3.89289 0
M  V30 3441 O 329.372 6.24347 -5.06404 0
M  V30 3442 H 329.104 0.664777 -0.122666 0
M  V30 3443 H 331.658 1.79913 -0.990987 0
M  V30 3444 H 329.888 3.82556 0.56461 0
M  V30 3445 H 331.577 4.0534 0.213125 0
M  V30 3446 H 332.343 4.29187 -2.25883 0
M  V30 3447 H 328.222 4.48916 -1.04859 0
M  V30 3448 H 331.766 5.4398 -4.36728 0
M  V30 3449 H 327.663 5.63524 -3.14819 0
M  V30 3450 H 328.431 6.42842 -5.06652 0
M  V30 3451 N 331.094 0.475555 1.50254 0
M  V30 3452 C 332.342 -0.077738 2.0195 0
M  V30 3453 C 332.663 -1.39813 1.35931 0
M  V30 3454 O 331.933 -1.89249 0.506123 0
M  V30 3455 H 330.513 -0.031719 0.746326 0
M  V30 3456 H 333.175 0.626995 1.84539 0
M  V30 3457 H 332.271 -0.225995 3.11281 0
M  V30 3458 N 332.573 -1.56217 0.208337 0
M  V30 3459 C 333.523 -2.16324 -0.720281 0
M  V30 3460 C 334.507 -1.10775 -1.16695 0
M  V30 3461 O 335.699 -1.36801 -1.12314 0
M  V30 3462 C 332.828 -2.83644 -1.93393 0
M  V30 3463 C 331.914 -3.96401 -1.50755 0
M  V30 3464 N 332.305 -4.99546 -0.792937 0
M  V30 3465 C 330.603 -4.08246 -1.79585 0
M  V30 3466 C 331.304 -5.78828 -0.577364 0
M  V30 3467 N 330.28 -5.31723 -1.1301 0
M  V30 3468 H 334.082 -2.93432 -0.165725 0
M  V30 3469 H 331.596 -1.62397 0.00906463 0
M  V30 3470 H 333.593 -3.25107 -2.60981 0
M  V30 3471 H 332.253 -2.08027 -2.49308 0
M  V30 3472 H 333.264 -5.15967 -0.447004 0
M  V30 3473 H 329.941 -3.4377 -2.36915 0
M  V30 3474 H 331.331 -6.71899 -0.00952956 0
M  V30 3475 N 334.051 0.0651679 -1.57465 0
M  V30 3476 C 335.281 0.774683 -1.91526 0
M  V30 3477 C 335.689 1.71305 -0.803196 0
M  V30 3478 O 335.032 1.82231 0.231881 0
M  V30 3479 C 335.094 1.61645 -3.21109 0
M  V30 3480 C 334.758 0.846753 -4.49087 0
M  V30 3481 C 335.755 0.163024 -5.19644 0
M  V30 3482 C 333.44 0.811966 -4.95694 0
M  V30 3483 C 335.434 -0.54519 -6.35064 0
M  V30 3484 C 333.121 0.0999836 -6.11018 0
M  V30 3485 C 334.119 -0.577388 -6.80555 0
M  V30 3486 O 333.807 -1.27789 -7.93678 0
M  V30 3487 H 333.539 0.225031 -0.637446 0
M  V30 3488 H 336.093 0.0377134 -2.05365 0
M  V30 3489 H 334.323 2.39638 -3.03497 0
M  V30 3490 H 336.012 2.20525 -3.40769 0
M  V30 3491 H 336.778 0.181163 -4.84662 0
M  V30 3492 H 332.657 1.32867 -4.41438 0
M  V30 3493 H 336.201 -1.07446 -6.89276 0
M  V30 3494 H 332.098 0.0797945 -6.45451 0
M  V30 3495 H 332.866 -1.18784 -8.09835 0
M  V30 3496 N 335.529 1.53961 0.336706 0
M  V30 3497 C 336.777 1.71197 1.07405 0
M  V30 3498 C 337.098 0.481475 1.88962 0
M  V30 3499 O 336.368 -0.504585 1.8929 0
M  V30 3500 H 334.948 0.631185 0.399517 0
M  V30 3501 H 337.61 1.91232 0.376323 0
M  V30 3502 H 336.706 2.58587 1.74755 0
M  V30 3503 N 337.007 -0.598083 1.45811 0
M  V30 3504 C 338.256 -1.35295 1.49594 0
M  V30 3505 C 338.569 -1.95057 0.145679 0
M  V30 3506 O 339.775 -2.71431 0.0612099 0
M  V30 3507 C 338.231 -2.45124 2.63519 0
M  V30 3508 C 337.839 -1.91732 4.04899 0
M  V30 3509 C 339.583 -3.2205 2.76558 0
M  V30 3510 C 337.49 -2.991 5.1019 0
M  V30 3511 H 336.42 -0.508552 0.556679 0
M  V30 3512 H 339.071 -0.639977 1.71978 0
M  V30 3513 H 337.453 -3.19149 2.34435 0
M  V30 3514 H 338.627 -1.24352 4.43704 0
M  V30 3515 H 336.942 -1.27522 3.96393 0
M  V30 3516 H 339.539 -4.0215 3.52391 0
M  V30 3517 H 339.882 -3.73663 1.83526 0
M  V30 3518 H 340.415 -2.55127 3.05213 0
M  V30 3519 H 337.154 -2.52393 6.04961 0
M  V30 3520 H 336.674 -3.65017 4.75944 0
M  V30 3521 H 338.353 -3.63318 5.35359 0
M  V30 3522 N 338.485 -1.33259 -0.841409 0
M  V30 3523 C 339.435 -1.19872 -1.93945 0
M  V30 3524 C 340.419 -0.102269 -1.60575 0
M  V30 3525 O 341.611 -0.330114 -1.73894 0
M  V30 3526 C 338.74 -0.937517 -3.30251 0
M  V30 3527 C 337.826 -2.07629 -3.69799 0
M  V30 3528 N 338.217 -3.32604 -3.81062 0
M  V30 3529 C 336.515 -1.98242 -3.9952 0
M  V30 3530 C 337.216 -4.07275 -4.15333 0
M  V30 3531 N 336.192 -3.35691 -4.27566 0
M  V30 3532 H 339.994 -2.14604 -2.00805 0
M  V30 3533 H 337.508 -1.2523 -1.03398 0
M  V30 3534 H 339.505 -0.822545 -4.08705 0
M  V30 3535 H 338.165 0.00128798 -3.247 0
M  V30 3536 H 339.176 -3.67382 -3.65035 0
M  V30 3537 H 335.853 -1.12005 -4.02195 0
M  V30 3538 H 337.243 -5.1511 -4.31406 0
M  V30 3539 N 339.963 1.05934 -1.16686 0
M  V30 3540 C 340.873 2.17014 -0.891183 0
M  V30 3541 C 341.889 1.73453 0.137907 0
M  V30 3542 O 343.065 2.01361 -0.039592 0
M  V30 3543 C 340.13 3.44384 -0.400099 0
M  V30 3544 C 339.191 4.02433 -1.49486 0
M  V30 3545 C 338.424 5.23723 -1.02711 0
M  V30 3546 O 338.647 5.7027 0.121716 0
M  V30 3547 O 337.581 5.7382 -1.81699 0
M  V30 3548 H 341.407 2.43113 -1.82015 0
M  V30 3549 H 338.992 1.15541 -0.947132 0
M  V30 3550 H 340.874 4.21189 -0.133392 0
M  V30 3551 H 339.549 3.19802 0.500817 0
M  V30 3552 H 338.456 3.27102 -1.81535 0
M  V30 3553 H 339.789 4.31317 -2.37121 0
M  V30 3554 N 341.441 0.965919 1.2453 0
M  V30 3555 C 342.351 0.502154 2.29163 0
M  V30 3556 C 343.367 -0.436017 1.68448 0
M  V30 3557 O 344.543 -0.309497 1.99008 0
M  V30 3558 C 341.608 -0.201956 3.46111 0
M  V30 3559 C 340.669 0.775821 4.22232 0
M  V30 3560 C 339.902 0.105217 5.33596 0
M  V30 3561 O 340.125 -1.10683 5.59558 0
M  V30 3562 O 339.059 0.796475 5.96607 0
M  V30 3563 H 342.885 1.37194 2.70946 0
M  V30 3564 H 340.47 0.732875 1.30189 0
M  V30 3565 H 342.352 -0.597564 4.17142 0
M  V30 3566 H 341.027 -1.04673 3.06309 0
M  V30 3567 H 339.934 1.22185 3.53584 0
M  V30 3568 H 341.267 1.58896 4.65846 0
M  V30 3569 N 342.919 -1.39368 0.735821 0
M  V30 3570 C 343.852 -2.28155 0.0451175 0
M  V30 3571 C 344.83 -1.44433 -0.746852 0
M  V30 3572 O 346.014 -1.73823 -0.729237 0
M  V30 3573 C 343.141 -3.253 -0.943266 0
M  V30 3574 C 342.187 -4.25826 -0.239685 0
M  V30 3575 S 343.02 -5.25166 1.04693 0
M  V30 3576 C 344.176 -6.2587 0.0611639 0
M  V30 3577 H 344.409 -2.86388 0.79807 0
M  V30 3578 H 341.942 -1.45104 0.527653 0
M  V30 3579 H 343.9 -3.81789 -1.50824 0
M  V30 3580 H 342.561 -2.66085 -1.66906 0
M  V30 3581 H 341.754 -4.94229 -0.987596 0
M  V30 3582 H 341.356 -3.73141 0.253274 0
M  V30 3583 H 343.648 -6.73007 -0.778941 0
M  V30 3584 H 344.591 -7.04508 0.712362 0
M  V30 3585 H 344.999 -5.63639 -0.311602 0
M  V30 3586 N 344.397 -0.483516 -1.5 0
M  V30 3587 C 345.327 0.293829 -2.31644 0
M  V30 3588 C 346.308 0.978864 -1.39112 0
M  V30 3589 O 347.493 0.973644 -1.68029 0
M  V30 3590 C 344.623 1.36897 -3.19181 0
M  V30 3591 C 343.577 0.804833 -4.20365 0
M  V30 3592 C 342.903 1.9792 -4.96721 0
M  V30 3593 C 344.203 -0.192313 -5.21946 0
M  V30 3594 H 345.897 -0.387616 -2.9688 0
M  V30 3595 H 343.443 -0.187856 -1.42769 0
M  V30 3596 H 345.396 1.92037 -3.751 0
M  V30 3597 H 344.12 2.07936 -2.51853 0
M  V30 3598 H 342.779 0.275319 -3.65565 0
M  V30 3599 H 342.427 2.67686 -4.25856 0
M  V30 3600 H 342.127 1.60789 -5.65173 0
M  V30 3601 H 343.651 2.53526 -5.55479 0
M  V30 3602 H 345.065 0.270333 -5.72662 0
M  V30 3603 H 343.462 -0.478543 -5.98189 0
M  V30 3604 H 344.532 -1.11409 -4.71928 0
M  V30 3605 N 345.875 1.56104 -0.216619 0
M  V30 3606 C 346.822 2.2007 0.695531 0
M  V30 3607 C 347.792 1.15471 1.19397 0
M  V30 3608 O 348.977 1.43807 1.25396 0
M  V30 3609 C 346.117 2.88073 1.90021 0
M  V30 3610 C 345.23 4.07253 1.44113 0
M  V30 3611 C 344.365 4.63052 2.603 0
M  V30 3612 C 343.404 5.74545 2.11103 0
M  V30 3613 N 342.541 6.24656 3.20545 0
M  V30 3614 H 347.381 2.97655 0.143327 0
M  V30 3615 H 344.918 1.46982 0.0589934 0
M  V30 3616 H 346.876 3.25681 2.60745 0
M  V30 3617 H 345.506 2.13015 2.42538 0
M  V30 3618 H 344.558 3.75164 0.628999 0
M  V30 3619 H 345.87 4.8783 1.04036 0
M  V30 3620 H 345.024 5.03078 3.39113 0
M  V30 3621 H 343.763 3.81628 3.03663 0
M  V30 3622 H 342.768 5.34027 1.3075 0
M  V30 3623 H 343.993 6.57801 1.68746 0
M  V30 3624 H 341.939 5.46148 3.63399 0
M  V30 3625 H 341.856 7.00343 2.84704 0
M  V30 3626 H 343.124 6.69338 3.99508 0
M  V30 3627 N 347.353 -0.0568162 1.57498 0
M  V30 3628 C 348.63 -0.786954 1.79071 0
M  V30 3629 C 349.01 -1.95028 0.80792 0
M  V30 3630 O 348.358 -2.27968 -0.155858 0
M  V30 3631 C 348.568 -1.24594 3.26002 0
M  V30 3632 C 349.916 -1.67323 3.90241 0
M  V30 3633 O 350.94 -1.34124 3.29984 0
M  V30 3634 O 349.799 -2.28842 4.9628 0
M  V30 3635 H 346.893 -0.378262 0.735423 0
M  V30 3636 H 349.439 -0.035734 1.69662 0
M  V30 3637 H 348.211 -0.41423 3.89101 0
M  V30 3638 H 347.834 -2.05803 3.40192 0
M  V30 3639 N 348.832 -1.54138 -0.328536 0
M  V30 3640 C 349.779 -1.83176 -1.40411 0
M  V30 3641 C 350.749 -0.678494 -1.5161 0
M  V30 3642 O 351.934 -0.92443 -1.6691 0
M  V30 3643 C 349.074 -2.06035 -2.76846 0
M  V30 3644 C 348.187 -3.33727 -2.74318 0
M  V30 3645 C 347.322 -3.46574 -4.02567 0
M  V30 3646 C 346.361 -4.68159 -3.94327 0
M  V30 3647 N 345.498 -4.77959 -5.14296 0
M  V30 3648 H 350.338 -2.74938 -1.14948 0
M  V30 3649 H 347.875 -1.36166 -0.556538 0
M  V30 3650 H 349.833 -2.1728 -3.56153 0
M  V30 3651 H 348.463 -1.1757 -3.00628 0
M  V30 3652 H 347.515 -3.31246 -1.8703 0
M  V30 3653 H 348.827 -4.23139 -2.64111 0
M  V30 3654 H 347.981 -3.57333 -4.90304 0
M  V30 3655 H 346.72 -2.55245 -4.15574 0
M  V30 3656 H 345.725 -4.57461 -3.04974 0
M  V30 3657 H 346.95 -5.60868 -3.82889 0
M  V30 3658 H 344.896 -3.89544 -5.27818 0
M  V30 3659 H 344.813 -5.6133 -5.06404 0
M  V30 3660 H 346.081 -4.93044 -6.03761 0
M  V30 3661 N 350.31 0.590341 -1.46126 0
M  V30 3662 C 351.559 1.34499 -1.50309 0
M  V30 3663 C 351.872 1.94977 -0.156021 0
M  V30 3664 O 353.078 2.71395 -0.0756037 0
M  V30 3665 C 351.534 2.43723 -2.64815 0
M  V30 3666 C 351.142 1.89582 -4.0591 0
M  V30 3667 C 352.886 3.20579 -2.78262 0
M  V30 3668 C 350.793 2.9639 -5.11769 0
M  V30 3669 H 349.723 0.505593 -0.559368 0
M  V30 3670 H 352.374 0.630848 -1.72315 0
M  V30 3671 H 350.756 3.17902 -2.36124 0
M  V30 3672 H 351.93 1.21997 -4.44357 0
M  V30 3673 H 350.245 1.25418 -3.97063 0
M  V30 3674 H 352.842 4.00276 -3.54519 0
M  V30 3675 H 353.185 3.72684 -1.85505 0
M  V30 3676 H 353.718 2.53505 -3.06562 0
M  V30 3677 H 350.457 2.49181 -6.06291 0
M  V30 3678 H 349.977 3.62487 -4.77873 0
M  V30 3679 H 351.656 3.60474 -5.37278 0
M  V30 3680 N 351.788 1.33704 0.83433 0
M  V30 3681 C 353.204 1.13137 1.12571 0
M  V30 3682 C 353.404 -0.0747261 2.01361 0
M  V30 3683 O 352.46 -0.753647 2.4099 0
M  V30 3684 C 353.773 2.42105 1.78342 0
M  V30 3685 C 355.321 2.48054 1.90888 0
M  V30 3686 C 355.796 3.76995 2.60075 0
M  V30 3687 N 357.287 3.78092 2.67584 0
M  V30 3688 C 358.022 4.74574 3.21818 0
M  V30 3689 N 357.518 5.81434 3.76705 0
M  V30 3690 N 359.311 4.62044 3.20112 0
M  V30 3691 H 351.462 2.11 0.243489 0
M  V30 3692 H 353.725 0.932532 0.17055 0
M  V30 3693 H 353.431 3.30391 1.20561 0
M  V30 3694 H 353.305 2.54594 2.7832 0
M  V30 3695 H 355.692 1.60215 2.47821 0
M  V30 3696 H 355.773 2.39502 0.898459 0
M  V30 3697 H 355.417 4.65219 2.03799 0
M  V30 3698 H 355.347 3.82825 3.61597 0
M  V30 3699 H 357.838 3.00865 2.28667 0
M  V30 3700 H 358.151 6.51084 4.16305 0
M  V30 3701 H 356.496 5.85163 3.7498 0
M  V30 3702 H 359.687 3.77716 2.76493 0
M  V30 3703 H 359.86 5.37406 3.62076 0
M  V30 3704 N 353.266 -1.05314 1.17247 0
M  V30 3705 C 354.494 -1.81971 0.984593 0
M  V30 3706 C 354.909 -1.82929 -0.467166 0
M  V30 3707 O 354.266 -1.25564 -1.32438 0
M  V30 3708 C 354.317 -3.28143 1.51672 0
M  V30 3709 O 354.038 -3.27347 2.91163 0
M  V30 3710 C 355.539 -4.21493 1.37326 0
M  V30 3711 H 352.759 -0.573455 0.348411 0
M  V30 3712 H 355.303 -1.32808 1.55506 0
M  V30 3713 H 353.458 -3.74582 0.988302 0
M  V30 3714 H 353.872 -4.18824 3.15732 0
M  V30 3715 H 355.346 -5.22043 1.79375 0
M  V30 3716 H 355.823 -4.38031 0.320169 0
M  V30 3717 H 356.429 -3.80909 1.89178 0
M  V30 3718 N 354.744 -0.972509 -1.24016 0
M  V30 3719 C 355.654 -0.5143 -2.28893 0
M  V30 3720 C 356.67 0.427078 -1.68677 0
M  V30 3721 O 357.846 0.298939 -1.99169 0
M  V30 3722 C 354.911 0.183598 -3.46214 0
M  V30 3723 C 353.972 -0.798202 -4.21814 0
M  V30 3724 C 353.205 -0.133514 -5.33533 0
M  V30 3725 O 353.428 1.07714 -5.60137 0
M  V30 3726 O 352.362 -0.828103 -5.96176 0
M  V30 3727 H 356.188 -1.38629 -2.70214 0
M  V30 3728 H 353.773 -0.739769 -1.29799 0
M  V30 3729 H 355.655 0.575433 -4.17453 0
M  V30 3730 H 354.33 1.03048 -3.0686 0
M  V30 3731 H 353.237 -1.24059 -3.52931 0
M  V30 3732 H 354.57 -1.61364 -4.64997 0
M  V30 3733 N 356.222 1.38976 -0.743202 0
M  V30 3734 C 357.447 2.05161 -0.303936 0
M  V30 3735 C 357.872 1.55677 1.05576 0
M  V30 3736 O 357.23 0.704131 1.67068 0
M  V30 3737 C 357.278 3.59138 -0.324373 0
M  V30 3738 O 356.382 4.06668 0.685204 0
M  V30 3739 H 355.723 0.649815 -0.136518 0
M  V30 3740 H 358.253 1.77852 -1.01142 0
M  V30 3741 H 358.263 4.07639 -0.171618 0
M  V30 3742 H 356.938 3.94515 -1.31647 0
M  V30 3743 H 355.515 3.69561 0.497913 0
M  V30 3744 N 357.7 0.491464 1.49741 0
M  V30 3745 C 358.93 -0.0534375 2.06531 0
M  V30 3746 C 359.338 -1.32233 1.35318 0
M  V30 3747 O 358.681 -1.78781 0.422243 0
M  V30 3748 C 358.743 -0.387034 3.57411 0
M  V30 3749 C 358.407 0.782764 4.50246 0
M  V30 3750 C 359.404 1.67059 4.92329 0
M  V30 3751 C 357.089 0.978866 4.9267 0
M  V30 3752 C 359.083 2.73874 5.75562 0
M  V30 3753 C 356.77 2.05022 5.75682 0
M  V30 3754 C 357.768 2.92851 6.17031 0
M  V30 3755 O 357.456 3.98138 6.98385 0
M  V30 3756 H 357.188 0.0129324 0.675876 0
M  V30 3757 H 359.742 0.685238 1.93633 0
M  V30 3758 H 357.972 -1.17918 3.68283 0
M  V30 3759 H 359.661 -0.869419 3.96479 0
M  V30 3760 H 360.427 1.53086 4.60206 0
M  V30 3761 H 356.306 0.304646 4.59992 0
M  V30 3762 H 359.85 3.42458 6.07757 0
M  V30 3763 H 355.747 2.18993 6.07217 0
M  V30 3764 H 356.515 3.95374 7.16674 0
M  V30 3765 N 359.178 -1.55987 0.224894 0
M  V30 3766 C 360.594 -1.59066 -0.130426 0
M  V30 3767 C 360.794 -1.24176 -1.5869 0
M  V30 3768 O 359.85 -0.978592 -2.32766 0
M  V30 3769 C 361.163 -3.00042 0.198883 0
M  V30 3770 C 362.711 -3.1268 0.141391 0
M  V30 3771 C 363.186 -4.55839 0.444422 0
M  V30 3772 N 364.677 -4.6152 0.394115 0
M  V30 3773 C 365.412 -5.70231 0.602038 0
M  V30 3774 N 364.908 -6.87291 0.871914 0
M  V30 3775 N 366.701 -5.59555 0.534245 0
M  V30 3776 H 358.852 -1.76941 1.17497 0
M  V30 3777 H 361.115 -0.822604 0.471197 0
M  V30 3778 H 360.821 -3.30234 1.2099 0
M  V30 3779 H 360.695 -3.74075 -0.484535 0
M  V30 3780 H 363.082 -2.82283 -0.860265 0
M  V30 3781 H 363.163 -2.40969 0.858335 0
M  V30 3782 H 362.807 -4.86954 1.44353 0
M  V30 3783 H 362.737 -5.2578 -0.293752 0
M  V30 3784 H 365.228 -3.77405 0.193356 0
M  V30 3785 H 365.541 -7.66058 1.01858 0
M  V30 3786 H 363.886 -6.89028 0.909145 0
M  V30 3787 H 367.077 -4.6698 0.323612 0
M  V30 3788 H 367.25 -6.44211 0.699693 0
M  V30 3789 N 360.656 0.0484629 -1.57525 0
M  V30 3790 C 361.933 0.777447 -1.79486 0
M  V30 3791 C 362.313 1.94597 -0.818251 0
M  V30 3792 O 361.661 2.28047 0.143767 0
M  V30 3793 C 361.871 1.22864 -3.26658 0
M  V30 3794 C 363.219 1.65251 -3.91123 0
M  V30 3795 O 364.243 1.32372 -3.3069 0
M  V30 3796 O 363.102 2.26207 -4.97486 0
M  V30 3797 H 360.196 0.374357 -0.737419 0
M  V30 3798 H 362.742 0.0267359 -1.69679 0
M  V30 3799 H 361.514 0.393589 -3.89316 0
M  V30 3800 H 361.137 2.03996 -3.41279 0
M  V30 3801 N 362.134 1.5431 0.320358 0
M  V30 3802 C 363.381 1.72668 1.05792 0
M  V30 3803 C 363.709 0.502084 1.87908 0
M  V30 3804 O 362.964 -0.516149 1.88771 0
M  V30 3805 C 363.263 2.95639 2.00828 0
M  V30 3806 C 362.929 4.30265 1.34843 0
M  V30 3807 C 361.591 4.66865 1.16578 0
M  V30 3808 C 363.943 5.13801 0.875095 0
M  V30 3809 C 361.271 5.84597 0.496336 0
M  V30 3810 C 363.623 6.32219 0.219463 0
M  V30 3811 C 362.287 6.67495 0.0246915 0
M  V30 3812 H 361.557 0.631837 0.387121 0
M  V30 3813 H 364.204 1.88552 0.334735 0
M  V30 3814 H 362.509 2.74456 2.79609 0
M  V30 3815 H 364.206 3.07038 2.57932 0
M  V30 3816 H 360.796 4.01472 1.50061 0
M  V30 3817 H 364.98 4.86039 1.00398 0
M  V30 3818 H 360.236 6.10486 0.334264 0
M  V30 3819 H 364.41 6.96227 -0.155291 0
M  V30 3820 H 362.037 7.5858 -0.496065 0
M  V30 3821 N 363.613 -0.582584 1.46437 0
M  V30 3822 C 364.862 -1.337 1.5102 0
M  V30 3823 C 365.175 -1.94891 0.166359 0
M  V30 3824 O 366.381 -2.71351 0.0899954 0
M  V30 3825 C 364.837 -2.42315 2.66104 0
M  V30 3826 C 364.445 -1.87427 4.06909 0
M  V30 3827 C 366.189 -3.19099 2.79958 0
M  V30 3828 C 364.096 -2.93672 5.13333 0
M  V30 3829 H 363.026 -0.502619 0.562041 0
M  V30 3830 H 365.677 -0.621701 1.72647 0
M  V30 3831 H 364.059 -3.16645 2.37807 0
M  V30 3832 H 365.233 -1.19639 4.44998 0
M  V30 3833 H 363.548 -1.2331 3.97723 0
M  V30 3834 H 366.145 -3.9839 3.56636 0
M  V30 3835 H 366.488 -3.71695 1.87479 0
M  V30 3836 H 367.021 -2.51875 3.07902 0
M  V30 3837 H 363.76 -2.45962 6.07604 0
M  V30 3838 H 363.28 -3.59948 4.79789 0
M  V30 3839 H 364.959 -3.5762 5.39182 0
M  V30 3840 N 365.091 -1.34144 -0.827227 0
M  V30 3841 C 366.321 -1.29138 -1.61267 0
M  V30 3842 C 366.729 0.137597 -1.88699 0
M  V30 3843 O 366.072 1.09379 -1.47587 0
M  V30 3844 C 366.134 -2.0097 -2.9808 0
M  V30 3845 C 365.798 -3.50242 -2.93563 0
M  V30 3846 C 366.795 -4.4523 -2.68452 0
M  V30 3847 C 364.48 -3.92592 -3.13331 0
M  V30 3848 C 366.474 -5.80542 -2.63154 0
M  V30 3849 C 364.161 -5.28005 -3.07658 0
M  V30 3850 C 365.159 -6.21792 -2.82602 0
M  V30 3851 O 364.847 -7.54723 -2.76853 0
M  V30 3852 H 364.579 -0.445851 -0.508127 0
M  V30 3853 H 367.133 -1.77263 -1.03763 0
M  V30 3854 H 365.363 -1.47451 -3.57484 0
M  V30 3855 H 367.052 -1.89309 -3.5905 0
M  V30 3856 H 367.818 -4.13832 -2.52919 0
M  V30 3857 H 363.697 -3.19994 -3.31851 0
M  V30 3858 H 367.241 -6.53717 -2.43516 0
M  V30 3859 H 363.138 -5.59023 -3.22743 0
M  V30 3860 H 363.906 -7.64409 -2.92611 0
M  V30 3861 N 366.569 1.04691 -1.17803 0
M  V30 3862 C 367.501 2.12571 -0.857097 0
M  V30 3863 C 368.514 1.62174 0.142647 0
M  V30 3864 O 369.703 1.78301 -0.0843387 0
M  V30 3865 C 366.803 3.37915 -0.258216 0
M  V30 3866 C 365.976 4.1757 -1.30207 0
M  V30 3867 C 365.035 5.2125 -0.720029 0
M  V30 3868 O 364.061 5.51888 -1.39314 0
M  V30 3869 N 365.263 5.78466 0.485507 0
M  V30 3870 H 368.028 2.40698 -1.78562 0
M  V30 3871 H 365.589 1.20831 -1.07757 0
M  V30 3872 H 367.581 4.04442 0.144584 0
M  V30 3873 H 366.151 3.07281 0.574199 0
M  V30 3874 H 365.371 3.46458 -1.88043 0
M  V30 3875 H 366.659 4.67586 -2.00601 0
M  V30 3876 H 366.057 5.55866 1.05022 0
M  V30 3877 H 364.614 6.4649 0.830307 0
M  V30 3878 N 368.047 0.979072 1.23499 0
M  V30 3879 C 368.995 0.510604 2.26926 0
M  V30 3880 C 369.989 -0.431691 1.63807 0
M  V30 3881 O 371.195 -0.30573 1.77385 0
M  V30 3882 H 367.57 0.146688 0.737554 0
M  V30 3883 H 369.541 1.39466 2.63803 0
M  V30 3884 C 368.29 -0.172658 3.47271 0
M  V30 3885 H 367.613 0.543331 3.96091 0
M  V30 3886 H 369.053 -0.464101 4.21452 0
M  V30 3887 C 367.512 -1.40345 3.06276 0
M  V30 3888 O 368.042 -2.49978 3.14442 0
M  V30 3889 N 366.248 -1.27362 2.61203 0
M  V30 3890 H 365.795 -0.381584 2.54758 0
M  V30 3891 H 365.753 -2.09822 2.34141 0
M  V30 3892 N 369.525 -1.3858 0.750561 0
M  V30 3893 C 370.936 -1.82927 0.373438 0
M  V30 3894 C 371.287 -1.62634 -1.09748 0
M  V30 3895 O 370.412 -1.12588 -1.84805 0
M  V30 3896 C 371.007 -3.32088 0.671029 0
M  V30 3897 C 369.566 -3.74795 0.34722 0
M  V30 3898 C 368.713 -2.61391 0.92575 0
M  V30 3899 H 371.664 -1.27351 0.946958 0
M  V30 3900 H 371.685 -3.80465 -0.0518269 0
M  V30 3901 H 371.197 -3.46826 1.74164 0
M  V30 3902 H 369.298 -3.65638 -0.716933 0
M  V30 3903 H 369.411 -4.71667 0.840656 0
M  V30 3904 H 367.775 -2.52265 0.351327 0
M  V30 3905 H 368.558 -2.78929 2.00133 0
M  V30 3906 N 371.003 -0.499398 -1.49478 0
M  V30 3907 C 371.953 0.299103 -2.2603 0
M  V30 3908 C 372.937 0.936934 -1.30807 0
M  V30 3909 O 374.129 0.844798 -1.55538 0
M  V30 3910 C 371.258 1.36391 -3.15044 0
M  V30 3911 C 370.344 0.732398 -4.17728 0
M  V30 3912 N 370.735 -0.164028 -5.05534 0
M  V30 3913 C 369.033 0.993162 -4.34801 0
M  V30 3914 C 369.734 -0.525345 -5.79323 0
M  V30 3915 N 368.71 0.106348 -5.43496 0
M  V30 3916 H 372.512 -0.391003 -2.91287 0
M  V30 3917 H 370.026 -0.31537 -1.59308 0
M  V30 3918 H 372.023 1.94939 -3.68516 0
M  V30 3919 H 370.683 2.05571 -2.51338 0
M  V30 3920 H 371.694 -0.534736 -5.15132 0
M  V30 3921 H 368.371 1.67783 -3.82302 0
M  V30 3922 H 369.761 -1.25862 -6.60006 0
M  V30 3923 N 372.481 1.55866 -0.233164 0
M  V30 3924 C 373.73 1.97779 0.39579 0
M  V30 3925 C 374.043 1.12419 1.60066 0
M  V30 3926 O 375.249 1.44283 2.29988 0
M  V30 3927 C 373.705 3.5188 0.755556 0
M  V30 3928 C 373.313 4.45959 -0.427152 0
M  V30 3929 C 375.057 4.02479 1.34946 0
M  V30 3930 C 372.964 5.91383 -0.0443043 0
M  V30 3931 H 371.894 0.738592 0.15165 0
M  V30 3932 H 374.545 1.80486 -0.331212 0
M  V30 3933 H 372.927 3.64816 1.5403 0
M  V30 3934 H 374.101 4.44776 -1.20462 0
M  V30 3935 H 372.416 4.05765 -0.935068 0
M  V30 3936 H 375.013 5.08637 1.649 0
M  V30 3937 H 375.356 3.49014 2.26925 0
M  V30 3938 H 375.889 3.92813 0.62791 0
M  V30 3939 H 372.628 6.48857 -0.930874 0
M  V30 3940 H 372.148 5.95734 0.697238 0
M  V30 3941 H 373.827 6.45893 0.378334 0
M  V30 3942 N 373.959 -0.0401083 1.57549 0
M  V30 3943 C 375.206 -0.733125 1.88763 0
M  V30 3944 C 375.534 -1.75946 0.829058 0
M  V30 3945 O 374.789 -1.94949 -0.171323 0
M  V30 3946 C 375.088 -1.44902 3.26708 0
M  V30 3947 C 374.754 -0.559707 4.47413 0
M  V30 3948 C 373.416 -0.314731 4.8017 0
M  V30 3949 C 375.768 0.0549743 5.21171 0
M  V30 3950 C 373.096 0.553886 5.8408 0
M  V30 3951 C 375.448 0.911229 6.26003 0
M  V30 3952 C 374.112 1.16577 6.57241 0
M  V30 3953 H 373.382 -0.268269 0.690733 0
M  V30 3954 H 376.029 0.00679408 1.91499 0
M  V30 3955 H 374.334 -2.26197 3.1991 0
M  V30 3956 H 376.031 -1.99058 3.48105 0
M  V30 3957 H 372.621 -0.760793 4.21794 0
M  V30 3958 H 376.805 -0.121344 4.96152 0
M  V30 3959 H 372.061 0.759518 6.06664 0
M  V30 3960 H 376.235 1.3941 6.82303 0
M  V30 3961 H 373.862 1.84058 7.37582 0
M  V30 3962 N 375.437 -1.54477 -0.31217 0
M  V30 3963 C 376.384 -1.84655 -1.38461 0
M  V30 3964 C 377.354 -0.694536 -1.50882 0
M  V30 3965 O 378.539 -0.942081 -1.6592 0
M  V30 3966 C 375.679 -2.0896 -2.74645 0
M  V30 3967 C 374.792 -3.36618 -2.70763 0
M  V30 3968 C 373.927 -3.50824 -3.98868 0
M  V30 3969 C 372.966 -4.72315 -3.89339 0
M  V30 3970 N 372.103 -4.83387 -5.09197 0
M  V30 3971 H 376.943 -2.76142 -1.12026 0
M  V30 3972 H 374.48 -1.36748 -0.542065 0
M  V30 3973 H 376.438 -2.21045 -3.53829 0
M  V30 3974 H 375.068 -1.20752 -2.99364 0
M  V30 3975 H 374.12 -3.33211 -1.83506 0
M  V30 3976 H 375.432 -4.25917 -2.59608 0
M  V30 3977 H 374.586 -3.62513 -4.86486 0
M  V30 3978 H 373.325 -2.59638 -4.12843 0
M  V30 3979 H 372.33 -4.6067 -3.00105 0
M  V30 3980 H 373.555 -5.64897 -3.76919 0
M  V30 3981 H 371.501 -3.9512 -5.23657 0
M  V30 3982 H 371.418 -5.66669 -5.00422 0
M  V30 3983 H 372.686 -4.9942 -5.98498 0
M  V30 3984 N 376.915 0.57481 -1.46744 0
M  V30 3985 C 378.192 1.3352 -1.4294 0
M  V30 3986 C 378.572 2.10775 -0.117009 0
M  V30 3987 O 377.92 2.09966 0.901474 0
M  V30 3988 C 378.13 2.25456 -2.66403 0
M  V30 3989 C 379.478 2.87035 -3.12883 0
M  V30 3990 O 380.502 2.35766 -2.67007 0
M  V30 3991 O 379.361 3.80179 -3.92589 0
M  V30 3992 H 376.455 0.600318 -0.568812 0
M  V30 3993 H 379.001 0.595171 -1.58921 0
M  V30 3994 H 377.773 1.67851 -3.53471 0
M  V30 3995 H 377.396 3.06785 -2.52921 0
M  V30 3996 N 378.394 1.34581 0.820102 0
M  V30 3997 C 379.341 1.2639 1.93117 0
M  V30 3998 C 380.311 0.138554 1.65521 0
M  V30 3999 O 381.496 0.320004 1.88097 0
M  V30 4000 C 378.636 1.02812 3.29429 0
M  V30 4001 C 377.749 2.24146 3.693 0
M  V30 4002 C 376.884 1.93829 4.94574 0
M  V30 4003 C 375.923 3.1129 5.27034 0
M  V30 4004 N 375.06 2.80838 6.43486 0
M  V30 4005 H 379.9 2.21408 1.99455 0
M  V30 4006 H 377.437 1.10077 0.975784 0
M  V30 4007 H 379.395 0.871788 4.0799 0
M  V30 4008 H 378.025 0.114612 3.22596 0
M  V30 4009 H 377.077 2.50691 2.86109 0
M  V30 4010 H 378.389 3.11899 3.89257 0
M  V30 4011 H 377.543 1.74948 5.80929 0
M  V30 4012 H 376.282 1.03341 4.76626 0
M  V30 4013 H 375.287 3.30764 4.39175 0
M  V30 4014 H 376.512 4.02561 5.4692 0
M  V30 4015 H 374.458 1.92929 6.26988 0
M  V30 4016 H 374.375 3.62123 6.63629 0
M  V30 4017 H 375.643 2.65467 7.32903 0
M  V30 4018 N 379.872 -1.04064 1.18357 0
M  V30 4019 C 381.118 -1.77528 0.980397 0
M  V30 4020 C 381.451 -1.87948 -0.48879 0
M  V30 4021 O 380.726 -1.3876 -1.36293 0
M  V30 4022 C 381.009 -3.20797 1.63588 0
M  V30 4023 C 380.862 -3.1832 3.17793 0
M  V30 4024 C 382.181 -4.18911 1.34914 0
M  V30 4025 H 379.3 -0.644443 0.357578 0
M  V30 4026 H 381.942 -1.2156 1.46024 0
M  V30 4027 H 380.092 -3.68586 1.22788 0
M  V30 4028 H 381.764 -2.78521 3.67728 0
M  V30 4029 H 380.007 -2.56351 3.49952 0
M  V30 4030 H 380.678 -4.19489 3.58794 0
M  V30 4031 H 383.154 -3.7967 1.70265 0
M  V30 4032 H 382.03 -5.17374 1.83346 0
M  V30 4033 H 382.291 -4.41262 0.272027 0
M  V30 4034 N 381.35 -0.985608 -1.22978 0
M  V30 4035 C 382.596 -0.65836 -1.91816 0
M  V30 4036 C 382.929 0.806692 -1.76653 0
M  V30 4037 O 382.204 1.58252 -1.13078 0
M  V30 4038 C 382.487 -1.056 -3.44268 0
M  V30 4039 C 382.34 -2.57906 -3.68516 0
M  V30 4040 C 383.659 -0.603781 -4.35939 0
M  V30 4041 H 380.778 -0.24065 -0.696604 0
M  V30 4042 H 383.42 -1.22783 -1.44998 0
M  V30 4043 H 381.57 -0.571445 -3.84274 0
M  V30 4044 H 383.242 -3.13976 -3.3796 0
M  V30 4045 H 381.485 -3.00305 -3.13048 0
M  V30 4046 H 382.156 -2.80779 -4.75255 0
M  V30 4047 H 384.632 -1.01987 -4.03408 0
M  V30 4048 H 383.508 -0.910383 -5.41298 0
M  V30 4049 H 383.769 0.495761 -4.39312 0
M  V30 4050 N 382.828 1.3818 -0.7579 0
M  V30 4051 C 383.758 2.33027 -0.148597 0
M  V30 4052 C 384.739 1.55085 0.69875 0
M  V30 4053 O 385.924 1.83384 0.639053 0
M  V30 4054 C 383.054 3.3928 0.742034 0
M  V30 4055 C 382.008 4.28 -0.00291946 0
M  V30 4056 C 381.334 5.25146 1.00625 0
M  V30 4057 C 382.634 5.08938 -1.17385 0
M  V30 4058 H 384.328 2.84231 -0.940909 0
M  V30 4059 H 381.874 1.36659 -0.453908 0
M  V30 4060 H 383.827 4.046 1.17799 0
M  V30 4061 H 382.551 2.86569 1.56671 0
M  V30 4062 H 381.21 3.64192 -0.419504 0
M  V30 4063 H 380.858 4.68721 1.8251 0
M  V30 4064 H 380.558 5.85361 0.512428 0
M  V30 4065 H 382.082 5.93342 1.44143 0
M  V30 4066 H 383.496 5.67474 -0.815224 0
M  V30 4067 H 381.893 5.7841 -1.59882 0
M  V30 4068 H 382.963 4.42424 -1.98468 0
M  V30 4069 N 384.306 0.507319 1.49211 0
M  V30 4070 C 385.583 -0.0982702 1.95353 0
M  V30 4071 C 385.963 -1.53516 1.449 0
M  V30 4072 O 385.311 -2.18594 0.66551 0
M  V30 4073 C 385.521 -0.00440283 3.49 0
M  V30 4074 C 386.869 -0.175147 4.24239 0
M  V30 4075 O 387.893 -0.0792891 3.56112 0
M  V30 4076 O 386.752 -0.37276 5.45227 0
M  V30 4077 H 383.846 -0.0918236 0.821887 0
M  V30 4078 H 386.392 0.570307 1.5983 0
M  V30 4079 H 385.164 0.997402 3.78375 0
M  V30 4080 H 384.787 -0.712845 3.91158 0
M  V30 4081 N 385.784 -1.5574 0.241426 0
M  V30 4082 C 387.03 -1.99104 -0.385406 0
M  V30 4083 C 387.363 -1.1293 -1.57988 0
M  V30 4084 O 386.638 -0.191449 -1.93555 0
M  V30 4085 C 386.921 -3.51087 -0.800616 0
M  V30 4086 C 386.774 -4.48028 0.398874 0
M  V30 4087 C 388.093 -4.08015 -1.64959 0
M  V30 4088 H 385.212 -0.723848 -0.138614 0
M  V30 4089 H 387.854 -1.86903 0.341642 0
M  V30 4090 H 386.004 -3.61615 -1.4201 0
M  V30 4091 H 387.676 -4.49487 1.03726 0
M  V30 4092 H 385.919 -4.21077 1.04293 0
M  V30 4093 H 386.59 -5.51962 0.0651056 0
M  V30 4094 H 389.066 -4.00555 -1.12672 0
M  V30 4095 H 387.942 -5.14635 -1.90898 0
M  V30 4096 H 388.203 -3.56131 -2.61961 0
M  V30 4097 N 387.262 0.0317525 -1.57568 0
M  V30 4098 C 388.51 0.721676 -1.88776 0
M  V30 4099 C 388.831 1.76039 -0.838772 0
M  V30 4100 O 388.101 1.95482 0.127935 0
M  V30 4101 H 386.681 0.269534 -0.696678 0
M  V30 4102 H 389.343 -0.00165879 -1.949 0
M  V30 4103 H 388.439 1.21293 -2.87566 0
M  V30 4104 N 388.74 1.54641 0.303973 0
M  V30 4105 C 389.98 1.75516 1.04755 0
M  V30 4106 C 390.344 0.528211 1.84591 0
M  V30 4107 O 391.545 0.614645 2.61678 0
M  V30 4108 C 389.816 3.00685 1.93193 0
M  V30 4109 S 391.375 3.42549 2.74237 0
M  V30 4110 H 388.193 0.616987 0.353339 0
M  V30 4111 H 390.795 1.92842 0.321292 0
M  V30 4112 H 389.499 3.8811 1.33411 0
M  V30 4113 H 389.03 2.85937 2.70191 0
M  V30 4114 H 391.045 2.99386 3.95705 0
M  V30 4115 N 390.218 -0.567019 1.47046 0
M  V30 4116 C 391.466 -1.322 1.52864 0
M  V30 4117 C 391.787 -1.94088 0.188388 0
M  V30 4118 O 391.057 -1.7941 -0.786693 0
M  V30 4119 H 389.637 -0.490894 0.563056 0
M  V30 4120 H 392.299 -0.662879 1.83281 0
M  V30 4121 H 391.395 -2.12062 2.2899 0
M  V30 4122 N 391.696 -1.35014 -0.812953 0
M  V30 4123 C 392.924 -1.31031 -1.6012 0
M  V30 4124 C 393.339 0.113558 -1.88458 0
M  V30 4125 O 392.696 1.06363 -1.48301 0
M  V30 4126 C 392.747 -2.10872 -2.93624 0
M  V30 4127 O 392.468 -3.47706 -2.66518 0
M  V30 4128 C 393.969 -2.14401 -3.88004 0
M  V30 4129 H 391.189 -0.45037 -0.497401 0
M  V30 4130 H 393.733 -1.77775 -1.01076 0
M  V30 4131 H 391.888 -1.67744 -3.492 0
M  V30 4132 H 392.302 -3.89097 -3.51715 0
M  V30 4133 H 393.776 -2.74669 -4.78812 0
M  V30 4134 H 394.253 -1.14105 -4.24119 0
M  V30 4135 H 394.859 -2.57662 -3.38364 0
M  V30 4136 N 393.175 1.03435 -1.18907 0
M  V30 4137 C 394.423 1.76394 -0.986382 0
M  V30 4138 C 394.744 1.88883 0.484567 0
M  V30 4139 O 394.014 1.41843 1.3512 0
M  V30 4140 H 392.594 0.65344 -0.361975 0
M  V30 4141 H 395.256 1.248 -1.49703 0
M  V30 4142 H 394.352 2.77424 -1.42978 0
M  V30 4143 N 394.653 0.992116 1.22453 0
M  V30 4144 C 395.902 0.662992 1.90492 0
M  V30 4145 C 396.215 -0.808407 1.78113 0
M  V30 4146 O 397.421 -1.24908 2.41061 0
M  V30 4147 C 395.877 1.1353 3.41524 0
M  V30 4148 C 395.485 2.63187 3.62542 0
M  V30 4149 C 397.229 0.880465 4.15269 0
M  V30 4150 C 395.136 3.04024 5.0727 0
M  V30 4151 H 394.066 0.244278 0.713333 0
M  V30 4152 H 396.717 1.20157 1.38688 0
M  V30 4153 H 395.099 0.52485 3.92506 0
M  V30 4154 H 396.273 3.2957 3.22056 0
M  V30 4155 H 394.588 2.86543 3.02129 0
M  V30 4156 H 397.185 1.16128 5.21937 0
M  V30 4157 H 397.528 -0.183408 4.15896 0
M  V30 4158 H 398.061 1.45307 3.70312 0
M  V30 4159 H 394.8 4.09584 5.11782 0
M  V30 4160 H 394.32 2.42343 5.48662 0
M  V30 4161 H 395.999 2.95282 5.75689 0
M  V30 4162 N 396.131 -1.37776 0.765217 0
M  V30 4163 C 397.061 -2.32945 0.160953 0
M  V30 4164 C 398.042 -1.55454 -0.690516 0
M  V30 4165 O 399.227 -1.83721 -0.629318 0
M  V30 4166 C 396.357 -3.39669 -0.724031 0
M  V30 4167 C 395.311 -4.27992 0.0256173 0
M  V30 4168 C 394.637 -5.25673 -0.978383 0
M  V30 4169 C 395.937 -5.08309 1.20082 0
M  V30 4170 H 397.631 -2.83728 0.955969 0
M  V30 4171 H 395.177 -1.36416 0.461149 0
M  V30 4172 H 397.13 -4.05219 -1.15652 0
M  V30 4173 H 395.854 -2.87396 -1.5515 0
M  V30 4174 H 394.513 -3.63964 0.438812 0
M  V30 4175 H 394.161 -4.69682 -1.80022 0
M  V30 4176 H 393.861 -5.85625 -0.481378 0
M  V30 4177 H 395.385 -5.94098 -1.40995 0
M  V30 4178 H 396.799 -5.67034 0.845307 0
M  V30 4179 H 395.196 -5.77554 1.62947 0
M  V30 4180 H 396.266 -4.41365 2.00811 0
M  V30 4181 N 397.609 -0.515225 -1.4894 0
M  V30 4182 C 398.834 0.022727 -2.07388 0
M  V30 4183 C 399.259 1.2876 -1.37122 0
M  V30 4184 O 398.617 1.76067 -0.432431 0
M  V30 4185 C 398.665 0.244869 -3.59768 0
M  V30 4186 O 397.769 1.31667 -3.90817 0
M  V30 4187 H 397.11 -0.0325506 -0.663202 0
M  V30 4188 H 399.64 -0.718918 -1.91553 0
M  V30 4189 H 399.65 0.47205 -4.0526 0
M  V30 4190 H 398.325 -0.679194 -4.10317 0
M  V30 4191 H 396.902 1.07331 -3.5712 0
M  V30 4192 N 399.087 1.5561 -0.249682 0
M  V30 4193 C 400.02 2.17537 0.689408 0
M  V30 4194 C 400.998 1.12829 1.17083 0
M  V30 4195 O 402.182 1.41229 1.24846 0
M  V30 4196 C 399.309 2.77828 1.93725 0
M  V30 4197 C 398.355 3.95615 1.59346 0
M  V30 4198 S 399.188 5.30988 0.69367 0
M  V30 4199 C 400.344 5.94734 1.95046 0
M  V30 4200 H 400.577 2.96852 0.163142 0
M  V30 4201 H 398.11 1.54362 -0.0341166 0
M  V30 4202 H 400.068 3.13199 2.65361 0
M  V30 4203 H 398.729 1.98454 2.43465 0
M  V30 4204 H 397.922 4.364 2.52132 0
M  V30 4205 H 397.524 3.61535 0.957512 0
M  V30 4206 H 399.816 6.12419 2.89739 0
M  V30 4207 H 400.759 6.90109 1.58604 0
M  V30 4208 H 401.167 5.23832 2.10381 0
M  V30 4209 N 400.565 -0.0233959 1.57583 0
M  V30 4210 C 401.812 -0.713063 1.8953 0
M  V30 4211 C 402.14 -1.75056 0.847673 0
M  V30 4212 O 401.395 -1.95119 -0.150636 0
M  V30 4213 C 401.694 -1.41428 3.28227 0
M  V30 4214 C 401.36 -0.512222 4.47981 0
M  V30 4215 C 400.022 -0.263785 4.80476 0
M  V30 4216 C 402.374 0.110248 5.21083 0
M  V30 4217 C 399.702 0.615804 5.83459 0
M  V30 4218 C 402.054 0.977573 6.25001 0
M  V30 4219 C 400.718 1.23542 6.55968 0
M  V30 4220 H 399.988 -0.260928 0.69354 0
M  V30 4221 H 402.635 0.0271047 1.91481 0
M  V30 4222 H 400.94 -2.22791 3.22291 0
M  V30 4223 H 402.637 -1.95355 3.50196 0
M  V30 4224 H 399.227 -0.716013 4.22577 0
M  V30 4225 H 403.411 -0.0687137 4.96252 0
M  V30 4226 H 398.667 0.82382 6.05824 0
M  V30 4227 H 402.841 1.46638 6.80786 0
M  V30 4228 H 400.468 1.91871 7.35588 0
M  V30 4229 N 402.043 -1.548 -0.295768 0
M  V30 4230 C 403.006 -1.85363 -1.34808 0
M  V30 4231 C 404.006 -0.726817 -1.43436 0
M  V30 4232 O 405.196 -0.995088 -1.42981 0
M  V30 4233 C 402.328 -2.03859 -2.73229 0
M  V30 4234 H 403.521 -2.7941 -1.08949 0
M  V30 4235 H 401.074 -1.46942 -0.532702 0
M  V30 4236 H 401.809 -1.12117 -3.04303 0
M  V30 4237 H 401.594 -2.8588 -2.68356 0
M  V30 4238 H 403.084 -2.28857 -3.49305 0
M  V30 4239 N 403.521 0.559213 -1.47345 0
M  V30 4240 C 404.484 1.64854 -1.59235 0
M  V30 4241 C 405.484 1.53851 -0.467607 0
M  V30 4242 O 406.674 1.58045 -0.732617 0
M  V30 4243 C 403.806 3.04388 -1.53496 0
M  V30 4244 H 404.999 1.55662 -2.56339 0
M  V30 4245 H 402.552 0.778973 -1.35505 0
M  V30 4246 H 403.287 3.19115 -0.577604 0
M  V30 4247 H 403.072 3.13783 -2.35123 0
M  V30 4248 H 404.562 3.83642 -1.6495 0
M  V30 4249 N 404.999 1.35443 0.805782 0
M  V30 4250 C 405.946 1.28431 1.91766 0
M  V30 4251 C 406.916 0.156102 1.65365 0
M  V30 4252 O 408.101 0.339936 1.87747 0
M  V30 4253 C 405.241 1.06301 3.2832 0
M  V30 4254 C 404.354 2.2805 3.66902 0
M  V30 4255 C 403.489 1.99064 4.92491 0
M  V30 4256 C 402.528 3.16863 5.23703 0
M  V30 4257 N 401.665 2.87647 6.40471 0
M  V30 4258 H 406.505 2.23511 1.97096 0
M  V30 4259 H 404.042 1.11105 0.964054 0
M  V30 4260 H 406 0.915012 4.07042 0
M  V30 4261 H 404.63 0.148822 3.22457 0
M  V30 4262 H 403.682 2.53711 2.83434 0
M  V30 4263 H 404.994 3.1601 3.85927 0
M  V30 4264 H 404.148 1.81099 5.7904 0
M  V30 4265 H 402.887 1.0839 4.75503 0
M  V30 4266 H 401.892 3.35404 4.35642 0
M  V30 4267 H 403.117 4.08339 5.4262 0
M  V30 4268 H 401.063 1.99568 6.24907 0
M  V30 4269 H 400.98 3.69141 6.59751 0
M  V30 4270 H 402.248 2.73226 7.30047 0
M  V30 4271 N 406.477 -1.02803 1.19454 0
M  V30 4272 C 407.44 -2.09264 0.934955 0
M  V30 4273 C 408.44 -1.60576 -0.0849015 0
M  V30 4274 O 409.63 -1.73554 0.149933 0
M  V30 4275 C 406.762 -3.38482 0.40531 0
M  V30 4276 H 407.955 -2.33726 1.87916 0
M  V30 4277 H 405.508 -1.19426 1.00832 0
M  V30 4278 H 406.243 -3.19689 -0.544899 0
M  V30 4279 H 406.028 -3.75142 1.14065 0
M  V30 4280 H 407.518 -4.16894 0.242806 0
M  V30 4281 N 407.956 -0.998596 -1.21925 0
M  V30 4282 C 409.204 -0.676325 -1.90448 0
M  V30 4283 C 409.525 0.794719 -1.78071 0
M  V30 4284 O 408.795 1.5701 -1.17152 0
M  V30 4285 H 407.375 -0.247165 -0.704925 0
M  V30 4286 H 410.037 -1.26633 -1.48156 0
M  V30 4287 H 409.133 -0.943858 -2.97486 0
M  V30 4288 N 409.434 1.37368 -0.772513 0
M  V30 4289 C 410.397 2.28601 -0.165541 0
M  V30 4290 C 411.397 1.48062 0.627238 0
M  V30 4291 O 412.587 1.68268 0.450715 0
M  V30 4292 C 409.719 3.32023 0.772897 0
M  V30 4293 H 410.912 2.83787 -0.969787 0
M  V30 4294 H 408.465 1.46647 -0.540775 0
M  V30 4295 H 409.2 2.81962 1.60212 0
M  V30 4296 H 408.985 3.91555 0.206585 0
M  V30 4297 H 410.475 4.00197 1.19298 0
M  V30 4298 N 410.912 0.523116 1.48665 0
M  V30 4299 C 411.859 -0.243398 2.29513 0
M  V30 4300 C 412.829 -0.940139 1.36933 0
M  V30 4301 O 414.014 -0.942503 1.65896 0
M  V30 4302 C 411.154 -1.28855 3.20141 0
M  V30 4303 C 410.267 -0.60135 4.27794 0
M  V30 4304 C 409.402 -1.62884 5.05611 0
M  V30 4305 C 408.441 -0.924726 6.05075 0
M  V30 4306 N 407.578 -1.89744 6.75975 0
M  V30 4307 H 412.418 0.452234 2.94549 0
M  V30 4308 H 409.955 0.234858 1.45213 0
M  V30 4309 H 411.913 -1.90674 3.71079 0
M  V30 4310 H 410.543 -1.95266 2.57043 0
M  V30 4311 H 409.595 0.130623 3.80176 0
M  V30 4312 H 410.907 -0.0481585 4.98777 0
M  V30 4313 H 410.061 -2.32149 5.60528 0
M  V30 4314 H 408.8 -2.21592 4.34452 0
M  V30 4315 H 407.805 -0.217966 5.49368 0
M  V30 4316 H 409.03 -0.343851 6.78229 0
M  V30 4317 H 406.976 -2.47373 6.07571 0
M  V30 4318 H 406.893 -1.3955 7.43009 0
M  V30 4319 H 408.161 -2.58229 7.35485 0
M  V30 4320 N 412.39 -1.55475 0.257931 0
M  V30 4321 C 413.337 -2.21837 -0.636939 0
M  V30 4322 C 414.307 -1.18596 -1.16294 0
M  V30 4323 O 415.492 -1.47081 -1.21539 0
M  V30 4324 C 412.632 -2.9301 -1.82317 0
M  V30 4325 C 411.745 -4.10931 -1.33265 0
M  V30 4326 C 410.88 -4.69791 -2.47931 0
M  V30 4327 C 409.919 -5.7994 -1.95796 0
M  V30 4328 N 409.056 -6.32935 -3.0387 0
M  V30 4329 H 413.896 -2.9793 -0.0643591 0
M  V30 4330 H 411.433 -1.47086 -0.0200031 0
M  V30 4331 H 413.391 -3.3248 -2.52018 0
M  V30 4332 H 412.021 -2.1937 -2.36805 0
M  V30 4333 H 411.073 -3.76699 -0.52931 0
M  V30 4334 H 412.385 -4.90417 -0.910654 0
M  V30 4335 H 411.539 -5.11892 -3.25656 0
M  V30 4336 H 410.278 -3.89545 -2.93438 0
M  V30 4337 H 409.283 -5.37305 -1.16546 0
M  V30 4338 H 410.508 -6.62043 -1.51246 0
M  V30 4339 H 408.454 -5.55591 -3.48791 0
M  V30 4340 H 408.371 -7.07645 -2.66035 0
M  V30 4341 H 409.639 -6.79695 -3.81621 0
M  V30 4342 N 413.868 0.0150385 -1.57593 0
M  V30 4343 C 415.114 0.704043 -1.90187 0
M  V30 4344 C 415.447 1.74249 -0.857366 0
M  V30 4345 O 414.722 1.94092 0.125843 0
M  V30 4346 C 415.005 1.36087 -3.33395 0
M  V30 4347 C 414.858 0.334981 -4.48551 0
M  V30 4348 C 416.177 2.29112 -3.7576 0
M  V30 4349 H 413.296 0.254475 -0.691673 0
M  V30 4350 H 415.938 -0.0331678 -1.89971 0
M  V30 4351 H 414.088 1.98922 -3.3371 0
M  V30 4352 H 415.76 -0.292534 -4.60372 0
M  V30 4353 H 414.003 -0.344325 -4.32431 0
M  V30 4354 H 414.674 0.833316 -5.45674 0
M  V30 4355 H 417.15 1.76308 -3.76902 0
M  V30 4356 H 416.026 2.72043 -4.76743 0
M  V30 4357 H 416.287 3.16385 -3.08793 0
M  V30 4358 N 415.346 1.54954 0.287554 0
M  V30 4359 C 416.276 1.89839 1.35954 0
M  V30 4360 C 417.257 0.758675 1.52244 0
M  V30 4361 O 418.442 1.01557 1.65529 0
M  V30 4362 C 415.572 2.15753 2.72154 0
M  V30 4363 C 414.526 3.3159 2.70614 0
M  V30 4364 C 413.852 3.42952 4.10229 0
M  V30 4365 C 415.152 4.68359 2.31165 0
M  V30 4366 H 416.846 2.79625 1.07007 0
M  V30 4367 H 414.392 1.3454 0.513316 0
M  V30 4368 H 416.345 2.38743 3.47246 0
M  V30 4369 H 415.069 1.22752 3.02654 0
M  V30 4370 H 413.728 3.08545 1.97979 0
M  V30 4371 H 413.376 2.47443 4.37928 0
M  V30 4372 H 413.076 4.20826 4.10097 0
M  V30 4373 H 414.6 3.68218 4.87081 0
M  V30 4374 H 416.014 4.9099 2.95976 0
M  V30 4375 H 414.411 5.49044 2.42221 0
M  V30 4376 H 415.481 4.68165 1.26291 0
M  V30 4377 N 416.824 -0.551391 1.4764 0
M  V30 4378 C 418.072 -1.30572 1.54258 0
M  V30 4379 C 418.393 -1.93877 0.208963 0
M  V30 4380 O 417.663 -1.80234 -0.767619 0
M  V30 4381 H 416.243 -0.484894 0.568231 0
M  V30 4382 H 418.905 -0.643402 1.83974 0
M  V30 4383 H 418.001 -2.09621 2.31226 0
M  V30 4384 N 418.302 -1.35869 -0.798587 0
M  V30 4385 C 419.548 -1.2978 -1.55836 0
M  V30 4386 C 419.881 0.125322 -1.93795 0
M  V30 4387 O 419.156 1.07658 -1.61987 0
M  V30 4388 C 419.439 -2.21188 -2.84162 0
M  V30 4389 C 419.292 -3.72155 -2.52628 0
M  V30 4390 C 420.611 -2.11545 -3.85923 0
M  V30 4391 H 417.73 -0.472769 -0.565383 0
M  V30 4392 H 420.372 -1.66341 -0.918192 0
M  V30 4393 H 418.522 -1.90139 -3.38791 0
M  V30 4394 H 420.194 -4.13682 -2.04121 0
M  V30 4395 H 418.437 -3.92042 -1.85704 0
M  V30 4396 H 419.108 -4.31511 -3.44242 0
M  V30 4397 H 421.584 -2.38855 -3.40716 0
M  V30 4398 H 420.46 -2.77688 -4.73477 0
M  V30 4399 H 420.721 -1.09987 -4.282 0
M  V30 4400 N 419.78 1.02168 -1.19998 0
M  V30 4401 C 421.057 1.72816 -0.916191 0
M  V30 4402 C 421.437 2.03081 0.576325 0
M  V30 4403 O 420.785 1.69122 1.53656 0
M  V30 4404 C 420.995 2.9997 -1.78378 0
M  V30 4405 C 422.343 3.73336 -2.02251 0
M  V30 4406 O 423.367 3.09914 -1.75589 0
M  V30 4407 O 422.226 4.87371 -2.47249 0
M  V30 4408 H 419.32 0.752924 -0.342103 0
M  V30 4409 H 421.866 1.08062 -1.30846 0
M  V30 4410 H 420.638 2.73888 -2.79466 0
M  V30 4411 H 420.261 3.72464 -1.39126 0
M  V30 4412 N 421.258 1.00505 1.21394 0
M  V30 4413 C 422.19 0.52372 2.23136 0
M  V30 4414 C 423.203 -0.387714 1.58116 0
M  V30 4415 O 424.392 -0.187905 1.77508 0
M  V30 4416 C 421.492 -0.258885 3.3791 0
M  V30 4417 C 420.665 0.651634 4.32519 0
M  V30 4418 C 419.724 -0.0813705 5.26137 0
M  V30 4419 O 418.75 0.537295 5.66658 0
M  V30 4420 N 419.952 -1.35992 5.64346 0
M  V30 4421 H 422.717 1.39865 2.65062 0
M  V30 4422 H 420.278 0.881196 1.35818 0
M  V30 4423 H 422.27 -0.758208 3.97534 0
M  V30 4424 H 420.84 -1.035 2.94968 0
M  V30 4425 H 420.06 1.33145 3.71034 0
M  V30 4426 H 421.348 1.27129 4.92662 0
M  V30 4427 H 420.746 -1.88368 5.33417 0
M  V30 4428 H 419.303 -1.8042 6.26332 0
M  V30 4429 N 422.737 -1.36956 0.779787 0
M  V30 4430 C 423.962 -2.04283 0.358224 0
M  V30 4431 C 424.387 -1.58422 -1.01411 0
M  V30 4432 O 423.745 -0.748179 -1.65142 0
M  V30 4433 C 423.793 -3.58152 0.419479 0
M  V30 4434 O 422.897 -4.08342 -0.577142 0
M  V30 4435 H 422.238 -0.645967 0.153698 0
M  V30 4436 H 424.768 -1.75108 1.05822 0
M  V30 4437 H 424.778 -4.07041 0.279636 0
M  V30 4438 H 423.453 -3.90886 1.42061 0
M  V30 4439 H 422.03 -3.70751 -0.399755 0
M  V30 4440 N 424.215 -0.530993 -1.48385 0
M  V30 4441 C 425.125 0.23503 -2.3342 0
M  V30 4442 C 426.141 0.93801 -1.46552 0
M  V30 4443 O 427.317 0.912745 -1.7953 0
M  V30 4444 C 424.382 1.26778 -3.22689 0
M  V30 4445 C 423.443 0.575038 -4.25431 0
M  V30 4446 C 422.676 1.55858 -5.10435 0
M  V30 4447 O 422.899 2.79129 -4.97437 0
M  V30 4448 O 421.833 1.09742 -5.91811 0
M  V30 4449 H 425.659 -0.461794 -3.00169 0
M  V30 4450 H 423.244 -0.291903 -1.46521 0
M  V30 4451 H 425.126 1.86457 -3.77904 0
M  V30 4452 H 423.801 1.94699 -2.586 0
M  V30 4453 H 422.708 -0.0622782 -3.74048 0
M  V30 4454 H 424.041 -0.062253 -4.92161 0
M  V30 4455 N 425.693 1.55336 -0.266172 0
M  V30 4456 C 426.942 1.98574 0.353749 0
M  V30 4457 C 427.255 1.15789 1.57646 0
M  V30 4458 O 428.461 1.49129 2.26876 0
M  V30 4459 C 426.917 3.53403 0.680747 0
M  V30 4460 C 426.525 4.44953 -0.52165 0
M  V30 4461 C 428.269 4.05251 1.26379 0
M  V30 4462 C 426.176 5.91156 -0.169736 0
M  V30 4463 H 425.106 0.741643 0.135949 0
M  V30 4464 H 427.757 1.79743 -0.369421 0
M  V30 4465 H 426.139 3.68001 1.46257 0
M  V30 4466 H 427.313 4.42121 -1.29869 0
M  V30 4467 H 425.628 4.03691 -1.02093 0
M  V30 4468 H 428.225 5.12021 1.54074 0
M  V30 4469 H 428.568 3.53749 2.19471 0
M  V30 4470 H 429.101 3.94057 0.544447 0
M  V30 4471 H 425.84 6.46736 -1.0683 0
M  V30 4472 H 425.36 5.97079 0.570717 0
M  V30 4473 H 427.039 6.4655 0.241245 0
M  V30 4474 N 427.171 -0.0066808 1.57599 0
M  V30 4475 C 428.101 -0.999296 2.11036 0
M  V30 4476 C 429.082 -1.36278 1.01795 0
M  V30 4477 O 430.267 -1.4477 1.29442 0
M  V30 4478 C 427.397 -2.29328 2.60818 0
M  V30 4479 C 426.351 -2.07159 3.74525 0
M  V30 4480 C 425.677 -3.42512 4.10596 0
M  V30 4481 C 426.977 -1.43959 5.02069 0
M  V30 4482 H 428.671 -0.554382 2.94223 0
M  V30 4483 H 426.217 -0.265221 1.41536 0
M  V30 4484 H 428.17 -2.99117 2.96828 0
M  V30 4485 H 426.894 -2.7592 1.74745 0
M  V30 4486 H 425.553 -1.39797 3.38899 0
M  V30 4487 H 425.201 -3.86795 3.21556 0
M  V30 4488 H 424.901 -3.28498 4.87199 0
M  V30 4489 H 426.425 -4.13628 4.4916 0
M  V30 4490 H 427.839 -2.03696 5.35893 0
M  V30 4491 H 426.236 -1.40452 5.83432 0
M  V30 4492 H 427.306 -0.407992 4.83181 0
M  V30 4493 N 428.649 -1.55105 -0.279332 0
M  V30 4494 C 429.879 -1.7917 -1.02867 0
M  V30 4495 C 430.287 -0.56204 -1.80659 0
M  V30 4496 O 429.63 0.478266 -1.77365 0
M  V30 4497 C 429.692 -2.96061 -2.03932 0
M  V30 4498 C 429.356 -4.33341 -1.45137 0
M  V30 4499 C 430.353 -5.12565 -0.870266 0
M  V30 4500 C 428.038 -4.79987 -1.48048 0
M  V30 4501 C 430.032 -6.36565 -0.326097 0
M  V30 4502 C 427.719 -6.03944 -0.932443 0
M  V30 4503 C 428.717 -6.8207 -0.356247 0
M  V30 4504 O 428.405 -8.03691 0.183412 0
M  V30 4505 H 428.137 -0.600796 -0.309872 0
M  V30 4506 H 430.691 -2.02932 -0.317468 0
M  V30 4507 H 428.921 -2.67975 -2.78794 0
M  V30 4508 H 430.61 -3.07506 -2.64943 0
M  V30 4509 H 431.376 -4.77661 -0.840521 0
M  V30 4510 H 427.255 -4.1919 -1.91835 0
M  V30 4511 H 430.799 -6.97489 0.124286 0
M  V30 4512 H 426.696 -6.3833 -0.959407 0
M  V30 4513 H 427.464 -8.18468 0.0721681 0
M  V30 4514 N 430.127 0.543554 -1.4793 0
M  V30 4515 C 431.059 1.665 -1.57513 0
M  V30 4516 C 432.072 1.56156 -0.460333 0
M  V30 4517 O 433.261 1.62865 -0.730573 0
M  V30 4518 C 430.361 3.05063 -1.47614 0
M  V30 4519 C 429.534 3.41024 -2.739 0
M  V30 4520 C 428.593 4.58809 -2.57645 0
M  V30 4521 O 427.619 4.62707 -3.31498 0
M  V30 4522 N 428.821 5.56149 -1.66368 0
M  V30 4523 H 431.586 1.5872 -2.5422 0
M  V30 4524 H 429.147 0.730517 -1.44482 0
M  V30 4525 H 431.139 3.81712 -1.34455 0
M  V30 4526 H 429.709 3.06994 -0.589359 0
M  V30 4527 H 428.929 2.53687 -3.01723 0
M  V30 4528 H 430.217 3.61831 -3.57709 0
M  V30 4529 H 429.615 5.55767 -1.05543 0
M  V30 4530 H 428.172 6.32071 -1.59154 0
M  V30 4531 N 431.605 1.3629 0.791371 0
M  V30 4532 C 432.568 1.30309 1.88553 0
M  V30 4533 C 433.568 0.211204 1.59407 0
M  V30 4534 O 434.758 0.465865 1.67855 0
M  V30 4535 C 431.89 1.01956 3.25297 0
M  V30 4536 H 433.083 2.27614 1.95273 0
M  V30 4537 H 430.636 1.21035 0.988953 0
M  V30 4538 H 431.371 0.050998 3.2426 0
M  V30 4539 H 431.156 1.80968 3.4784 0
M  V30 4540 H 432.646 1.0037 4.05359 0
M  V30 4541 N 433.083 -1.0153 1.20538 0
M  V30 4542 C 434.016 -2.09759 0.898695 0
M  V30 4543 C 434.994 -1.61909 -0.149733 0
M  V30 4544 O 436.178 -1.88486 -0.0230293 0
M  V30 4545 C 433.305 -3.36913 0.347512 0
M  V30 4546 C 432.351 -4.03655 1.37713 0
M  V30 4547 S 433.184 -4.47402 2.94265 0
M  V30 4548 C 434.34 -5.77756 2.40726 0
M  V30 4549 H 434.573 -2.3545 1.81523 0
M  V30 4550 H 432.106 -1.14665 1.03399 0
M  V30 4551 H 434.064 -4.10484 0.0360518 0
M  V30 4552 H 432.725 -3.09291 -0.547546 0
M  V30 4553 H 431.918 -4.9514 0.940872 0
M  V30 4554 H 431.52 -3.36313 1.63614 0
M  V30 4555 H 433.812 -6.52994 1.80569 0
M  V30 4556 H 434.755 -6.2618 3.30612 0
M  V30 4557 H 435.163 -5.34081 1.82806 0
M  V30 4558 N 434.561 -1.01147 -1.20859 0
M  V30 4559 C 435.838 -0.613136 -1.85742 0
M  V30 4560 C 436.218 0.909004 -1.90526 0
M  V30 4561 O 435.566 1.79862 -1.40932 0
M  V30 4562 C 435.776 -1.255 -3.25654 0
M  V30 4563 C 437.124 -1.3672 -4.01986 0
M  V30 4564 O 438.148 -1.21082 -3.34989 0
M  V30 4565 O 437.007 -1.6194 -5.21956 0
M  V30 4566 H 434.101 -0.210878 -0.799662 0
M  V30 4567 H 436.647 -1.10853 -1.2849 0
M  V30 4568 H 435.419 -2.29532 -3.16908 0
M  V30 4569 H 435.042 -0.746369 -3.90532 0
M  V30 4570 N 436.039 1.36541 -0.78704 0
M  V30 4571 C 437.288 1.98552 -0.35494 0
M  V30 4572 C 437.601 1.63171 1.07864 0
M  V30 4573 O 438.807 2.18399 1.61289 0
M  V30 4574 C 437.263 3.55136 -0.583671 0
M  V30 4575 C 436.871 3.99444 -2.02851 0
M  V30 4576 C 438.615 4.2395 -0.215957 0
M  V30 4577 C 436.522 5.48796 -2.20403 0
M  V30 4578 H 435.452 0.742888 -0.128972 0
M  V30 4579 H 438.103 1.5587 -0.968337 0
M  V30 4580 H 436.485 3.95875 0.0994046 0
M  V30 4581 H 437.659 3.6991 -2.74779 0
M  V30 4582 H 435.974 3.43459 -2.35425 0
M  V30 4583 H 438.571 5.33709 -0.325405 0
M  V30 4584 H 438.914 4.07827 0.835646 0
M  V30 4585 H 439.447 3.88565 -0.852175 0
M  V30 4586 H 436.186 5.69864 -3.23937 0
M  V30 4587 H 435.706 5.79964 -1.52977 0
M  V30 4588 H 437.385 6.14986 -2.01002 0
M  V30 4589 N 437.518 0.538854 1.48102 0
M  V30 4590 C 438.767 0.0059532 2.01699 0
M  V30 4591 C 439.08 -1.34476 1.42041 0
M  V30 4592 O 440.286 -1.96653 1.87189 0
M  V30 4593 C 438.742 -0.0397627 3.59878 0
M  V30 4594 C 438.35 1.30659 4.28523 0
M  V30 4595 C 440.094 -0.521024 4.2129 0
M  V30 4596 C 438.001 1.22098 5.78659 0
M  V30 4597 H 436.931 -0.00154456 0.753998 0
M  V30 4598 H 439.582 0.683963 1.70277 0
M  V30 4599 H 437.964 -0.783037 3.88181 0
M  V30 4600 H 439.138 2.06613 4.11883 0
M  V30 4601 H 437.453 1.7243 3.79021 0
M  V30 4602 H 440.05 -0.603184 5.31287 0
M  V30 4603 H 440.393 -1.52885 3.8721 0
M  V30 4604 H 440.926 0.166834 3.9745 0
M  V30 4605 H 437.665 2.20424 6.17328 0
M  V30 4606 H 437.185 0.50295 5.97688 0
M  V30 4607 H 438.864 0.915345 6.40492 0
M  V30 4608 N 438.996 -1.55193 0.274407 0
M  V30 4609 C 440.412 -1.59401 -0.0797543 0
M  V30 4610 C 440.612 -1.29162 -1.54659 0
M  V30 4611 O 439.668 -1.05215 -2.29534 0
M  V30 4612 C 440.981 -2.99257 0.294238 0
M  V30 4613 C 442.529 -3.12072 0.240796 0
M  V30 4614 C 443.004 -4.54194 0.589218 0
M  V30 4615 N 444.495 -4.60033 0.540744 0
M  V30 4616 C 445.23 -5.68027 0.783147 0
M  V30 4617 N 444.726 -6.8417 1.09013 0
M  V30 4618 N 446.519 -5.57572 0.711993 0
M  V30 4619 H 438.67 -1.73113 1.23067 0
M  V30 4620 H 440.933 -0.807197 0.497129 0
M  V30 4621 H 440.639 -3.26217 1.31435 0
M  V30 4622 H 440.513 -3.75427 -0.365281 0
M  V30 4623 H 442.9 -2.84877 -0.770024 0
M  V30 4624 H 442.981 -2.38117 0.934563 0
M  V30 4625 H 442.625 -4.82115 1.59772 0
M  V30 4626 H 442.555 -5.26448 -0.126331 0
M  V30 4627 H 445.046 -3.76599 0.313327 0
M  V30 4628 H 445.359 -7.6243 1.26178 0
M  V30 4629 H 443.704 -6.85787 1.12789 0
M  V30 4630 H 446.895 -4.65714 0.472014 0
M  V30 4631 H 447.068 -6.41659 0.90429 0
M  V30 4632 N 440.474 -0.00167713 -1.576 0
M  V30 4633 C 441.404 0.988091 -2.11563 0
M  V30 4634 C 442.385 1.35736 -1.02517 0
M  V30 4635 O 443.57 1.44082 -1.30208 0
M  V30 4636 C 440.7 2.27941 -2.62031 0
M  V30 4637 C 439.654 2.0517 -3.75619 0
M  V30 4638 C 438.98 3.4033 -4.12407 0
M  V30 4639 C 440.28 1.41294 -5.02825 0
M  V30 4640 H 441.974 0.538771 -2.94513 0
M  V30 4641 H 439.52 0.257712 -1.41675 0
M  V30 4642 H 441.473 2.97539 -2.9841 0
M  V30 4643 H 440.197 2.74989 -1.76205 0
M  V30 4644 H 438.856 1.37998 -3.39635 0
M  V30 4645 H 438.504 3.85085 -3.23603 0
M  V30 4646 H 438.204 3.25909 -4.88935 0
M  V30 4647 H 439.728 4.1124 -4.51347 0
M  V30 4648 H 441.142 2.00851 -5.36965 0
M  V30 4649 H 439.539 1.37356 -5.84169 0
M  V30 4650 H 440.609 0.382362 -4.8339 0
M  V30 4651 N 441.952 1.55251 0.271103 0
M  V30 4652 C 442.9 1.89054 1.35504 0
M  V30 4653 C 443.894 0.767064 1.51038 0
M  V30 4654 O 445.1 0.951429 1.528 0
M  V30 4655 H 441.475 0.600072 0.45323 0
M  V30 4656 H 443.446 2.79598 1.04247 0
M  V30 4657 C 442.195 2.18068 2.70817 0
M  V30 4658 H 441.518 3.04005 2.59656 0
M  V30 4659 H 442.958 2.4564 3.45597 0
M  V30 4660 C 441.417 0.988901 3.2206 0
M  V30 4661 O 441.947 0.224501 4.01072 0
M  V30 4662 N 440.153 0.786085 2.79766 0
M  V30 4663 H 439.7 1.40937 2.15626 0
M  V30 4664 H 439.658 -0.00969349 3.14399 0
M  V30 4665 N 443.43 -0.535701 1.48216 0
M  V30 4666 C 444.377 -1.64083 1.62312 0
M  V30 4667 C 445.347 -1.59448 0.465365 0
M  V30 4668 O 446.532 -1.77959 0.688135 0
M  V30 4669 C 443.672 -3.0236 1.66349 0
M  V30 4670 C 442.785 -3.17273 2.93193 0
M  V30 4671 C 441.92 -4.46075 2.88427 0
M  V30 4672 C 440.959 -4.54496 4.1 0
M  V30 4673 N 440.096 -5.7468 4.03345 0
M  V30 4674 H 444.936 -1.51374 2.5669 0
M  V30 4675 H 442.473 -0.737059 1.27302 0
M  V30 4676 H 444.431 -3.82461 1.66672 0
M  V30 4677 H 443.061 -3.13854 0.754672 0
M  V30 4678 H 442.113 -2.30462 3.02641 0
M  V30 4679 H 443.425 -3.19357 3.83162 0
M  V30 4680 H 442.579 -5.3446 2.87119 0
M  V30 4681 H 441.318 -4.46504 1.96177 0
M  V30 4682 H 440.323 -3.64519 4.11589 0
M  V30 4683 H 441.548 -4.5581 5.03402 0
M  V30 4684 H 439.494 -5.76017 3.13912 0
M  V30 4685 H 439.411 -5.78234 4.87013 0
M  V30 4686 H 440.679 -6.65367 4.06087 0
M  V30 4687 N 444.908 -1.36708 -0.784132 0
M  V30 4688 C 445.838 -1.34153 -1.91116 0
M  V30 4689 C 446.819 -0.212121 -1.68772 0
M  V30 4690 O 448.004 -0.410581 -1.8981 0
M  V30 4691 C 445.134 -1.13535 -3.28218 0
M  V30 4692 C 444.088 -2.23356 -3.65097 0
M  V30 4693 C 443.414 -1.87875 -5.00607 0
M  V30 4694 C 444.714 -3.65473 -3.73131 0
M  V30 4695 H 446.408 -2.28459 -1.93512 0
M  V30 4696 H 443.954 -1.09973 -0.929618 0
M  V30 4697 H 445.907 -1.10381 -4.06687 0
M  V30 4698 H 444.631 -0.156804 -3.26223 0
M  V30 4699 H 443.29 -2.25645 -2.88929 0
M  V30 4700 H 442.938 -0.885814 -4.95139 0
M  V30 4701 H 442.638 -2.61406 -5.26252 0
M  V30 4702 H 444.162 -1.86286 -5.81489 0
M  V30 4703 H 445.576 -3.65382 -4.41779 0
M  V30 4704 H 443.973 -4.37953 -4.10265 0
M  V30 4705 H 445.043 -3.99995 -2.74102 0
M  V30 4706 N 446.386 1.0089 -1.21074 0
M  V30 4707 C 447.296 2.13039 -0.982425 0
M  V30 4708 C 448.312 1.73881 0.0642161 0
M  V30 4709 O 449.488 2.01012 -0.12496 0
M  V30 4710 C 446.553 3.42377 -0.545803 0
M  V30 4711 C 445.614 3.95731 -1.6642 0
M  V30 4712 C 444.847 5.18896 -1.24832 0
M  V30 4713 O 445.07 5.70273 -0.120265 0
M  V30 4714 O 444.004 5.65597 -2.05873 0
M  V30 4715 H 447.83 2.35175 -1.92163 0
M  V30 4716 H 445.415 1.1142 -0.995285 0
M  V30 4717 H 447.297 4.20244 -0.311912 0
M  V30 4718 H 445.972 3.21639 0.364727 0
M  V30 4719 H 444.879 3.19108 -1.95246 0
M  V30 4720 H 446.212 4.20872 -2.55201 0
M  V30 4721 N 447.864 1.01787 1.20321 0
M  V30 4722 C 449.141 0.622978 1.85414 0
M  V30 4723 C 449.521 -0.898887 1.91006 0
M  V30 4724 O 448.869 -1.79112 1.41884 0
M  V30 4725 C 449.079 1.27226 3.24984 0
M  V30 4726 C 450.427 1.3885 4.01255 0
M  V30 4727 O 451.451 1.22857 3.34342 0
M  V30 4728 O 450.31 1.64705 5.2109 0
M  V30 4729 H 447.404 0.215116 0.798533 0
M  V30 4730 H 449.95 1.11533 1.27901 0
M  V30 4731 H 448.722 2.31209 3.15687 0
M  V30 4732 H 448.345 0.767069 3.90131 0
M  V30 4733 N 449.342 -1.36122 0.79427 0
M  V30 4734 C 450.57 -2.03362 0.380989 0
M  V30 4735 C 450.985 -1.59881 -1.00416 0
M  V30 4736 O 450.342 -0.790515 -1.6449 0
M  V30 4737 C 450.393 -3.58804 0.440649 0
M  V30 4738 O 450.114 -4.007 1.77118 0
M  V30 4739 C 451.615 -4.43296 0.0186117 0
M  V30 4740 H 448.835 -0.652526 0.156367 0
M  V30 4741 H 451.379 -1.73998 1.07447 0
M  V30 4742 H 449.534 -3.8686 -0.204458 0
M  V30 4743 H 449.948 -4.95309 1.72538 0
M  V30 4744 H 451.422 -5.51887 0.111488 0
M  V30 4745 H 451.899 -4.2684 -1.03461 0
M  V30 4746 H 452.505 -4.20512 0.636395 0
M  V30 4747 N 450.82 -0.546701 -1.47814 0
M  V30 4748 C 452.069 -0.0166497 -2.01693 0
M  V30 4749 C 452.382 1.33721 -1.42752 0
M  V30 4750 O 453.588 1.95658 -1.8823 0
M  V30 4751 C 452.044 0.0206769 -3.59894 0
M  V30 4752 C 451.652 -1.3293 -4.27824 0
M  V30 4753 C 453.396 0.498674 -4.21561 0
M  V30 4754 C 451.303 -1.25165 -5.78003 0
M  V30 4755 H 450.233 -0.0024541 -0.753996 0
M  V30 4756 H 452.884 -0.692984 -1.69912 0
M  V30 4757 H 451.266 0.76244 -3.88591 0
M  V30 4758 H 452.44 -2.08795 -4.10781 0
M  V30 4759 H 450.755 -1.74438 -3.78101 0
M  V30 4760 H 453.352 0.575 -5.31599 0
M  V30 4761 H 453.695 1.5083 -3.88016 0
M  V30 4762 H 454.228 -0.18791 -3.97356 0
M  V30 4763 H 450.967 -2.23695 -6.1615 0
M  V30 4764 H 450.487 -0.53464 -5.97412 0
M  V30 4765 H 452.166 -0.949299 -6.39998 0
M  V30 4766 N 452.299 1.55045 -0.282633 0
M  V30 4767 C 453.527 2.04168 0.33512 0
M  V30 4768 C 453.942 1.16071 1.48906 0
M  V30 4769 O 453.299 0.182391 1.81586 0
M  V30 4770 C 453.35 3.52332 0.808957 0
M  V30 4771 O 453.071 4.37078 -0.299038 0
M  V30 4772 C 454.572 4.17375 1.49375 0
M  V30 4773 H 451.792 0.666744 0.0754543 0
M  V30 4774 H 454.336 2.00205 -0.416918 0
M  V30 4775 H 452.491 3.56715 1.51106 0
M  V30 4776 H 452.905 5.24458 0.0665514 0
M  V30 4777 H 454.379 5.22627 1.77664 0
M  V30 4778 H 454.856 3.65999 2.42778 0
M  V30 4779 H 455.462 4.17016 0.835305 0
M  V30 4780 N 453.777 0.010035 1.57597 0
M  V30 4781 C 454.707 -0.976857 2.12084 0
M  V30 4782 C 455.688 -1.35191 1.03235 0
M  V30 4783 O 456.873 -1.43389 1.3097 0
M  V30 4784 C 454.003 -2.26548 2.63236 0
M  V30 4785 C 452.957 -2.03175 3.76701 0
M  V30 4786 C 452.283 -3.38138 4.14206 0
M  V30 4787 C 453.583 -1.38625 5.03568 0
M  V30 4788 H 455.277 -0.523145 2.94794 0
M  V30 4789 H 452.823 -0.250195 1.4181 0
M  V30 4790 H 454.776 -2.95952 2.99984 0
M  V30 4791 H 453.5 -2.74051 1.77661 0
M  V30 4792 H 452.159 -1.36195 3.40362 0
M  V30 4793 H 451.807 -3.83363 3.25641 0
M  V30 4794 H 451.507 -3.23312 4.90656 0
M  V30 4795 H 453.031 -4.08841 4.53521 0
M  V30 4796 H 454.445 -1.98 5.38023 0
M  V30 4797 H 452.842 -1.34256 5.84889 0
M  V30 4798 H 453.912 -0.356722 4.83586 0
M  V30 4799 N 455.255 -1.55392 -0.262866 0
M  V30 4800 C 456.504 -1.75679 -0.990943 0
M  V30 4801 C 456.817 -0.57097 -1.87081 0
M  V30 4802 O 458.023 -0.656486 -2.63444 0
M  V30 4803 C 456.479 -3.10964 -1.81188 0
M  V30 4804 C 456.087 -4.37146 -0.980188 0
M  V30 4805 C 457.831 -3.40597 -2.53365 0
M  V30 4806 C 455.738 -5.63466 -1.7961 0
M  V30 4807 H 454.668 -0.654868 -0.373716 0
M  V30 4808 H 457.319 -1.81841 -0.246203 0
M  V30 4809 H 455.701 -2.98867 -2.59797 0
M  V30 4810 H 456.875 -4.60187 -0.237558 0
M  V30 4811 H 455.19 -4.14731 -0.372497 0
M  V30 4812 H 457.787 -4.32186 -3.14833 0
M  V30 4813 H 458.13 -2.6119 -3.24169 0
M  V30 4814 H 458.663 -3.53838 -1.81779 0
M  V30 4815 H 455.402 -6.4565 -1.13209 0
M  V30 4816 H 454.922 -5.44552 -2.51443 0
M  V30 4817 H 456.601 -6.02139 -2.36723 0
M  V30 4818 N 456.733 0.527833 -1.48498 0
M  V30 4819 C 457.68 1.6322 -1.6318 0
M  V30 4820 C 458.65 1.59199 -0.473815 0
M  V30 4821 O 459.835 1.77591 -0.697563 0
M  V30 4822 C 456.975 3.01474 -1.67951 0
M  V30 4823 C 456.088 3.15713 -2.94871 0
M  V30 4824 C 455.223 4.44539 -2.90789 0
M  V30 4825 C 454.262 4.52315 -4.12404 0
M  V30 4826 N 453.399 5.72533 -4.06387 0
M  V30 4827 H 458.239 1.50011 -2.57489 0
M  V30 4828 H 455.776 0.730298 -1.27691 0
M  V30 4829 H 457.734 3.81572 -1.68698 0
M  V30 4830 H 456.364 3.1345 -0.771306 0
M  V30 4831 H 455.416 2.28854 -3.03859 0
M  V30 4832 H 456.728 3.1732 -3.8485 0
M  V30 4833 H 455.882 5.3293 -2.89949 0
M  V30 4834 H 454.621 4.45457 -1.98542 0
M  V30 4835 H 453.626 3.62331 -4.13517 0
M  V30 4836 H 454.851 4.53134 -5.05812 0
M  V30 4837 H 452.797 5.74344 -3.16962 0
M  V30 4838 H 452.714 5.75643 -4.90073 0
M  V30 4839 H 453.982 6.63204 -4.0961 0
M  V30 4840 N 458.211 1.37122 0.776871 0
M  V30 4841 C 459.459 1.31787 1.53221 0
M  V30 4842 C 459.78 -0.0987589 1.9475 0
M  V30 4843 O 459.05 -1.0417 1.65908 0
M  V30 4844 H 457.63 0.484839 0.568278 0
M  V30 4845 H 460.292 1.71556 0.924917 0
M  V30 4846 H 459.388 1.95355 2.43398 0
M  V30 4847 N 459.689 -1.00246 1.21608 0
M  V30 4848 C 460.636 -2.09073 0.977613 0
M  V30 4849 C 461.606 -1.65815 -0.097297 0
M  V30 4850 O 462.791 -1.90734 0.0503445 0
M  V30 4851 C 459.931 -3.40671 0.551133 0
M  V30 4852 C 459.044 -3.97326 1.69576 0
M  V30 4853 C 458.179 -5.17043 1.2182 0
M  V30 4854 C 457.218 -5.65813 2.335 0
M  V30 4855 N 456.355 -6.76778 1.86859 0
M  V30 4856 H 461.195 -2.28806 1.90924 0
M  V30 4857 H 458.732 -1.12186 0.951452 0
M  V30 4858 H 460.69 -4.16225 0.285097 0
M  V30 4859 H 459.32 -3.20967 -0.343489 0
M  V30 4860 H 458.372 -3.18734 2.07637 0
M  V30 4861 H 459.684 -4.29511 2.53617 0
M  V30 4862 H 458.838 -5.99852 0.908975 0
M  V30 4863 H 457.577 -4.86458 0.347869 0
M  V30 4864 H 456.582 -4.81599 2.65222 0
M  V30 4865 H 457.807 -5.98427 3.21033 0
M  V30 4866 H 455.753 -6.47994 1.02174 0
M  V30 4867 H 455.67 -7.08231 2.64471 0
M  V30 4868 H 456.938 -7.63116 1.58978 0
M  V30 4869 N 461.167 -1.02423 -1.1978 0
M  V30 4870 C 462.416 -0.713265 -1.88667 0
M  V30 4871 C 462.729 0.7609 -1.80193 0
M  V30 4872 O 463.935 1.18473 -2.44288 0
M  V30 4873 C 462.391 -1.22545 -3.38394 0
M  V30 4874 C 461.999 -2.72706 -3.55437 0
M  V30 4875 C 463.743 -0.990257 -4.12788 0
M  V30 4876 C 461.65 -3.17367 -4.99031 0
M  V30 4877 H 460.58 -0.263105 -0.706606 0
M  V30 4878 H 463.231 -1.23792 -1.35454 0
M  V30 4879 H 461.613 -0.628732 -3.90977 0
M  V30 4880 H 462.787 -3.37993 -3.13205 0
M  V30 4881 H 461.102 -2.94453 -2.94425 0
M  V30 4882 H 463.699 -1.29926 -5.18675 0
M  V30 4883 H 464.042 0.0730761 -4.16236 0
M  V30 4884 H 464.575 -1.55074 -3.66329 0
M  V30 4885 H 461.314 -4.23009 -5.00743 0
M  V30 4886 H 460.834 -2.56805 -5.42044 0
M  V30 4887 H 462.513 -3.10441 -5.67658 0
M  V30 4888 N 462.645 1.35699 -0.801477 0
M  V30 4889 C 463.555 2.33661 -0.209691 0
M  V30 4890 C 464.571 1.6162 0.644591 0
M  V30 4891 O 465.747 1.93529 0.557545 0
M  V30 4892 C 462.812 3.40816 0.636033 0
M  V30 4893 C 461.873 4.28639 -0.238147 0
M  V30 4894 C 461.106 5.30676 0.567307 0
M  V30 4895 O 461.329 5.41174 1.8024 0
M  V30 4896 O 460.263 6.01887 -0.0391336 0
M  V30 4897 H 464.089 2.8606 -1.01996 0
M  V30 4898 H 461.674 1.38379 -0.563164 0
M  V30 4899 H 463.556 4.06301 1.11791 0
M  V30 4900 H 462.231 2.90696 1.42399 0
M  V30 4901 H 461.138 3.66152 -0.767044 0
M  V30 4902 H 462.471 4.82143 -0.989915 0
M  V30 4903 N 464.123 0.554532 1.47522 0
M  V30 4904 C 465.033 -0.197865 2.33764 0
M  V30 4905 C 466.049 -0.914576 1.48025 0
M  V30 4906 O 467.225 -0.884067 1.80959 0
M  V30 4907 C 464.29 -1.21628 3.24665 0
M  V30 4908 C 463.351 -0.507283 4.26292 0
M  V30 4909 C 462.584 -1.47718 5.1285 0
M  V30 4910 O 462.807 -2.7118 5.01814 0
M  V30 4911 O 461.741 -1.00313 5.93482 0
M  V30 4912 H 465.567 0.50949 2.99396 0
M  V30 4913 H 463.152 0.315176 1.46038 0
M  V30 4914 H 465.034 -1.80421 3.80823 0
M  V30 4915 H 463.709 -1.9056 2.61665 0
M  V30 4916 H 462.616 0.121778 3.73902 0
M  V30 4917 H 463.949 0.140544 4.91999 0
M  V30 4918 N 465.601 -1.54893 0.290851 0
M  V30 4919 C 466.847 -2.0023 -0.321867 0
M  V30 4920 C 467.18 -1.179 -1.54316 0
M  V30 4921 O 466.455 -0.25293 -1.92848 0
M  V30 4922 C 466.738 -3.53456 -0.688515 0
M  V30 4923 C 466.591 -4.46532 0.541209 0
M  V30 4924 C 467.91 -4.13057 -1.51895 0
M  V30 4925 H 465.029 -0.727891 -0.115515 0
M  V30 4926 H 467.671 -1.85722 0.400931 0
M  V30 4927 H 465.821 -3.6595 -1.30433 0
M  V30 4928 H 467.493 -4.4596 1.17973 0
M  V30 4929 H 465.736 -4.17545 1.17636 0
M  V30 4930 H 466.407 -5.51475 0.240675 0
M  V30 4931 H 468.883 -4.03937 -0.99872 0
M  V30 4932 H 467.759 -5.20448 -1.74429 0
M  V30 4933 H 468.02 -3.64284 -2.50498 0
M  V30 4934 N 467.08 -0.0183926 -1.57589 0
M  V30 4935 C 468.03 0.975944 -2.06057 0
M  V30 4936 C 469.014 1.29204 -0.958908 0
M  V30 4937 O 470.206 1.27995 -1.22255 0
M  V30 4938 C 467.335 2.26194 -2.58247 0
M  V30 4939 C 466.421 1.97467 -3.75323 0
M  V30 4940 N 466.812 1.38968 -4.86335 0
M  V30 4941 C 465.11 2.27515 -3.83605 0
M  V30 4942 C 465.811 1.27131 -5.67638 0
M  V30 4943 N 464.787 1.76319 -5.14211 0
M  V30 4944 H 468.589 0.518444 -2.89291 0
M  V30 4945 H 466.103 0.18688 -1.61321 0
M  V30 4946 H 468.1 2.98289 -2.91255 0
M  V30 4947 H 466.76 2.7258 -1.76438 0
M  V30 4948 H 467.771 1.06608 -5.06809 0
M  V30 4949 H 464.448 2.76649 -3.12684 0
M  V30 4950 H 465.838 0.819882 -6.66879 0
M  V30 4951 N 468.558 1.5553 0.254621 0
M  V30 4952 C 469.488 1.9268 1.31897 0
M  V30 4953 C 470.469 0.790797 1.506 0
M  V30 4954 O 471.654 1.05045 1.63337 0
M  V30 4955 C 468.784 2.21477 2.67517 0
M  V30 4956 C 467.738 3.37256 2.63519 0
M  V30 4957 C 467.064 3.51576 4.02862 0
M  V30 4958 C 468.364 4.73157 2.21179 0
M  V30 4959 H 470.058 2.81832 1.01051 0
M  V30 4960 H 467.604 1.35599 0.484662 0
M  V30 4961 H 469.557 2.46055 3.42104 0
M  V30 4962 H 468.281 1.29144 2.99982 0
M  V30 4963 H 466.94 3.12675 1.9139 0
M  V30 4964 H 466.588 2.56676 4.32581 0
M  V30 4965 H 466.288 4.2943 4.01078 0
M  V30 4966 H 467.812 3.78467 4.79161 0
M  V30 4967 H 469.226 4.97158 2.85494 0
M  V30 4968 H 467.623 5.54058 2.30521 0
M  V30 4969 H 468.693 4.70739 1.16332 0
M  V30 4970 N 470.036 -0.519951 1.48776 0
M  V30 4971 C 471.447 -1.10177 1.50725 0
M  V30 4972 C 471.798 -1.94153 0.282678 0
M  V30 4973 O 470.923 -2.07645 -0.609298 0
M  V30 4974 C 471.518 -2.00482 2.73116 0
M  V30 4975 C 470.077 -2.53862 2.77905 0
M  V30 4976 C 469.224 -1.31047 2.44381 0
M  V30 4977 H 472.175 -0.30473 1.55747 0
M  V30 4978 H 472.196 -2.8491 2.52203 0
M  V30 4979 H 471.708 -1.39335 3.62225 0
M  V30 4980 H 469.809 -3.18702 1.93029 0
M  V30 4981 H 469.922 -2.9231 3.79594 0
M  V30 4982 H 468.286 -1.62953 1.95751 0
M  V30 4983 H 469.069 -0.71637 3.35743 0
M  V30 4984 N 471.514 -1.37532 -0.769588 0
M  V30 4985 C 472.76 -1.33057 -1.53048 0
M  V30 4986 C 473.093 0.0841865 -1.94017 0
M  V30 4987 O 472.368 1.04198 -1.64235 0
M  V30 4988 C 472.651 -2.27166 -2.79406 0
M  V30 4989 C 472.504 -3.77429 -2.44677 0
M  V30 4990 C 473.823 -2.19683 -3.81349 0
M  V30 4991 H 470.942 -0.484655 -0.555228 0
M  V30 4992 H 473.584 -1.68251 -0.882702 0
M  V30 4993 H 471.734 -1.97283 -3.34682 0
M  V30 4994 H 473.406 -4.17918 -1.953 0
M  V30 4995 H 471.649 -3.95892 -1.77346 0
M  V30 4996 H 472.32 -4.38716 -3.35011 0
M  V30 4997 H 474.796 -2.46029 -3.35573 0
M  V30 4998 H 473.672 -2.87668 -4.67481 0
M  V30 4999 H 473.933 -1.19045 -4.25771 0
M  V30 5000 N 472.992 0.995999 -1.22138 0
M  V30 5001 C 473.902 2.11985 -1.00496 0
M  V30 5002 C 474.918 1.7394 0.0457701 0
M  V30 5003 O 476.094 2.00868 -0.146273 0
M  V30 5004 C 473.159 3.41779 -0.582086 0
M  V30 5005 C 472.22 3.93943 -1.70608 0
M  V30 5006 C 471.453 5.17542 -1.30328 0
M  V30 5007 O 471.676 5.70114 -0.180743 0
M  V30 5008 O 470.61 5.63382 -2.11861 0
M  V30 5009 H 474.436 2.33123 -1.94647 0
M  V30 5010 H 472.021 1.10358 -1.00705 0
M  V30 5011 H 473.903 4.1989 -0.356467 0
M  V30 5012 H 472.578 3.22007 0.330592 0
M  V30 5013 H 471.485 3.17019 -1.98619 0
M  V30 5014 H 472.818 4.18141 -2.59651 0
M  V30 5015 N 474.47 1.03057 1.19235 0
M  V30 5016 C 475.417 0.612832 2.22515 0
M  V30 5017 C 476.387 -0.374224 1.61829 0
M  V30 5018 O 477.572 -0.270501 1.88873 0
M  V30 5019 C 474.712 -0.028475 3.45088 0
M  V30 5020 C 473.825 1.00483 4.20151 0
M  V30 5021 C 472.96 0.333102 5.30155 0
M  V30 5022 C 471.999 1.3522 5.96977 0
M  V30 5023 N 471.136 0.70616 6.9854 0
M  V30 5024 H 475.976 1.49812 2.57605 0
M  V30 5025 H 473.513 0.749658 1.26564 0
M  V30 5026 H 475.471 -0.417548 4.15105 0
M  V30 5027 H 474.101 -0.877334 3.10649 0
M  V30 5028 H 473.153 1.51194 3.49062 0
M  V30 5029 H 474.465 1.77929 4.65986 0
M  V30 5030 H 473.619 -0.110725 6.06599 0
M  V30 5031 H 472.358 -0.473547 4.85396 0
M  V30 5032 H 471.363 1.80627 5.19282 0
M  V30 5033 H 472.588 2.16037 6.4382 0
M  V30 5034 H 470.534 -0.0803667 6.55951 0
M  V30 5035 H 470.451 1.41848 7.42573 0
M  V30 5036 H 471.719 0.286391 7.78974 0
M  V30 5037 N 475.948 -1.35272 0.808662 0
M  V30 5038 C 477.194 -1.99003 0.390581 0
M  V30 5039 C 477.527 -1.63999 -1.0401 0
M  V30 5040 O 476.802 -0.904368 -1.72196 0
M  V30 5041 C 477.085 -3.55454 0.576566 0
M  V30 5042 C 476.938 -4.00249 2.05233 0
M  V30 5043 C 478.257 -4.401 0.00354277 0
M  V30 5044 H 475.376 -0.722917 0.143388 0
M  V30 5045 H 478.018 -1.6039 1.01858 0
M  V30 5046 H 476.168 -3.88477 0.0419766 0
M  V30 5047 H 477.84 -3.77626 2.64946 0
M  V30 5048 H 476.083 -3.51082 2.54801 0
M  V30 5049 H 476.754 -5.0911 2.13333 0
M  V30 5050 H 479.23 -4.13548 0.460117 0
M  V30 5051 H 478.106 -5.48656 0.163575 0
M  V30 5052 H 478.367 -4.28444 -1.09032 0
M  V30 5053 N 477.426 -0.562348 -1.47226 0
M  V30 5054 C 478.703 0.0256985 -1.95583 0
M  V30 5055 C 479.083 1.48032 -1.50498 0
M  V30 5056 O 478.431 2.15973 -0.746181 0
M  V30 5057 C 478.641 -0.125129 -3.48776 0
M  V30 5058 C 479.989 0.0175728 -4.24596 0
M  V30 5059 O 481.013 -0.0529341 -3.56161 0
M  V30 5060 O 479.872 0.170145 -5.46235 0
M  V30 5061 H 476.966 0.0612565 -0.824728 0
M  V30 5062 H 479.512 -0.629233 -1.57603 0
M  V30 5063 H 478.284 -1.13715 -3.74412 0
M  V30 5064 H 477.907 0.567178 -3.93534 0
M  V30 5065 N 478.904 1.54736 -0.299062 0
M  V30 5066 C 480.15 2.00397 0.311244 0
M  V30 5067 C 480.483 1.18716 1.53688 0
M  V30 5068 O 479.758 0.263154 1.92712 0
M  V30 5069 C 480.041 3.53817 0.669761 0
M  V30 5070 C 479.894 4.46239 -0.564882 0
M  V30 5071 C 481.213 4.13856 1.49702 0
M  V30 5072 H 478.332 0.728493 0.111653 0
M  V30 5073 H 480.974 1.85506 -0.410774 0
M  V30 5074 H 479.124 3.66637 1.28491 0
M  V30 5075 H 480.796 4.45328 -1.20337 0
M  V30 5076 H 479.039 4.16916 -1.19849 0
M  V30 5077 H 479.71 5.5134 -0.269918 0
M  V30 5078 H 482.186 4.04461 0.977284 0
M  V30 5079 H 481.062 5.21365 1.71666 0
M  V30 5080 H 481.323 3.65608 2.48563 0
M  V30 5081 N 480.382 0.0267497 1.57577 0
M  V30 5082 C 481.631 -0.651736 1.9088 0
M  V30 5083 C 481.944 -1.73427 0.904576 0
M  V30 5084 O 483.15 -2.46923 1.12877 0
M  V30 5085 C 481.606 -1.21048 3.38933 0
M  V30 5086 C 481.214 -0.161362 4.47709 0
M  V30 5087 C 482.958 -1.86562 3.81307 0
M  V30 5088 C 480.865 -0.731611 5.86857 0
M  V30 5089 H 479.795 -0.247198 0.712326 0
M  V30 5090 H 482.446 0.0916641 1.83271 0
M  V30 5091 H 480.828 -2.00542 3.41466 0
M  V30 5092 H 482.002 0.61094 4.56732 0
M  V30 5093 H 480.317 0.394877 4.14523 0
M  V30 5094 H 482.914 -2.30178 4.8262 0
M  V30 5095 H 483.257 -2.70735 3.16241 0
M  V30 5096 H 483.79 -1.13762 3.81186 0
M  V30 5097 H 480.529 0.0719329 6.55461 0
M  V30 5098 H 480.049 -1.47245 5.81445 0
M  V30 5099 H 481.728 -1.22208 6.35354 0
M  V30 5100 N 481.861 -1.55662 -0.24637 0
M  V30 5101 C 483.11 -1.7672 -0.972254 0
M  V30 5102 C 483.423 -0.59078 -1.86465 0
M  V30 5103 O 484.629 -0.684391 -2.62732 0
M  V30 5104 C 483.085 -3.12869 -1.7788 0
M  V30 5105 C 482.693 -4.38161 -0.933768 0
M  V30 5106 C 484.437 -3.43265 -2.49738 0
M  V30 5107 C 482.344 -5.6534 -1.73623 0
M  V30 5108 H 481.274 -0.658795 -0.366749 0
M  V30 5109 H 483.925 -1.82092 -0.226902 0
M  V30 5110 H 482.307 -3.01606 -2.56612 0
M  V30 5111 H 483.481 -4.60413 -0.188736 0
M  V30 5112 H 481.796 -4.15102 -0.328488 0
M  V30 5113 H 484.393 -4.35501 -3.10231 0
M  V30 5114 H 484.736 -2.64614 -3.2138 0
M  V30 5115 H 485.269 -3.55746 -1.78016 0
M  V30 5116 H 482.008 -6.46814 -1.06354 0
M  V30 5117 H 481.528 -5.47188 -2.45653 0
M  V30 5118 H 483.207 -6.04616 -2.30323 0
M  V30 5119 N 483.339 0.512053 -1.4905 0
M  V30 5120 C 484.564 1.2959 -1.6193 0
M  V30 5121 C 484.989 1.85906 -0.286454 0
M  V30 5122 O 484.347 1.65312 0.744426 0
M  V30 5123 C 484.395 2.40987 -2.68249 0
M  V30 5124 O 483.499 3.44531 -2.26654 0
M  V30 5125 H 482.84 0.383053 -0.542371 0
M  V30 5126 H 485.37 0.614231 -1.95162 0
M  V30 5127 H 485.38 2.86913 -2.90078 0
M  V30 5128 H 484.055 1.99361 -3.65004 0
M  V30 5129 H 482.632 3.046 -2.15112 0
M  V30 5130 N 484.817 1.37938 0.762283 0
M  V30 5131 C 485.727 1.36681 1.90671 0
M  V30 5132 C 486.743 0.265078 1.71969 0
M  V30 5133 O 487.919 0.502055 1.95042 0
M  V30 5134 C 484.984 1.18211 3.25925 0
M  V30 5135 C 484.045 2.3811 3.57214 0
M  V30 5136 C 483.278 2.20512 4.86014 0
M  V30 5137 O 483.501 1.19429 5.57757 0
M  V30 5138 O 482.435 3.08911 5.16583 0
M  V30 5139 H 486.261 2.33091 1.94685 0
M  V30 5140 H 483.846 1.18767 0.906356 0
M  V30 5141 H 485.728 1.09937 4.06807 0
M  V30 5142 H 484.403 0.248807 3.22742 0
M  V30 5143 H 483.31 2.51958 2.76529 0
M  V30 5144 H 484.643 3.30041 3.65149 0
M  V30 5145 N 486.295 -0.989507 1.22664 0
M  V30 5146 C 487.541 -1.73298 1.06487 0
M  V30 5147 C 487.896 -1.88292 -0.395438 0
M  V30 5148 O 487.189 -1.41748 -1.28911 0
M  V30 5149 C 487.383 -3.13649 1.71345 0
M  V30 5150 C 487.212 -3.12341 3.23532 0
M  V30 5151 C 485.982 -3.18044 3.92653 0
M  V30 5152 C 488.18 -2.96226 4.20422 0
M  V30 5153 N 486.162 -3.06526 5.31898 0
M  V30 5154 C 487.533 -2.92773 5.4652 0
M  V30 5155 C 489.588 -2.80642 4.11271 0
M  V30 5156 C 488.291 -2.75332 6.64519 0
M  V30 5157 C 490.317 -2.64563 5.28924 0
M  V30 5158 C 489.679 -2.618 6.53942 0
M  V30 5159 H 485.778 -0.643643 0.444126 0
M  V30 5160 H 488.362 -1.17489 1.55256 0
M  V30 5161 H 486.533 -3.67694 1.25122 0
M  V30 5162 H 488.265 -3.76577 1.48229 0
M  V30 5163 H 485.02 -3.25861 3.43673 0
M  V30 5164 H 485.444 -3.04067 6.04874 0
M  V30 5165 H 490.086 -2.81574 3.15398 0
M  V30 5166 H 487.804 -2.73145 7.60538 0
M  V30 5167 H 491.39 -2.53482 5.23677 0
M  V30 5168 H 490.27 -2.49511 7.43447 0
M  V30 5169 N 487.773 -1.03688 -1.18687 0
M  V30 5170 C 488.706 -0.569112 -2.2099 0
M  V30 5171 C 489.684 0.394315 -1.57746 0
M  V30 5172 O 490.868 0.309519 -1.85941 0
M  V30 5173 C 487.995 0.169104 -3.38278 0
M  V30 5174 C 487.041 -0.746989 -4.19908 0
M  V30 5175 S 487.874 -2.22773 -4.86963 0
M  V30 5176 C 489.03 -1.50025 -6.07654 0
M  V30 5177 H 489.263 -1.43589 -2.60326 0
M  V30 5178 H 486.796 -0.847507 -1.29061 0
M  V30 5179 H 488.754 0.588868 -4.06254 0
M  V30 5180 H 487.415 1.01172 -2.9736 0
M  V30 5181 H 486.608 -0.176626 -5.0369 0
M  V30 5182 H 486.21 -1.10543 -3.5729 0
M  V30 5183 H 488.502 -0.791217 -6.72864 0
M  V30 5184 H 489.445 -2.31498 -6.69189 0
M  V30 5185 H 489.853 -0.994245 -5.55675 0
M  V30 5186 N 489.251 1.34841 -0.815825 0
M  V30 5187 C 490.499 1.98107 -0.399744 0
M  V30 5188 C 490.82 1.65019 1.03894 0
M  V30 5189 O 490.09 0.937311 1.72021 0
M  V30 5190 H 488.67 0.732827 -0.144823 0
M  V30 5191 H 491.332 1.64599 -1.0437 0
M  V30 5192 H 490.428 3.07856 -0.512965 0
M  V30 5193 N 490.729 0.570148 1.46925 0
M  V30 5194 C 491.959 0.0561151 2.06524 0
M  V30 5195 C 492.367 -1.24874 1.42137 0
M  V30 5196 O 491.71 -1.76292 0.516417 0
M  V30 5197 C 491.772 -0.197035 3.5896 0
M  V30 5198 C 491.436 1.02033 4.45464 0
M  V30 5199 C 492.433 1.92921 4.82781 0
M  V30 5200 C 490.118 1.23864 4.86788 0
M  V30 5201 C 492.112 3.03999 5.60235 0
M  V30 5202 C 489.799 2.35249 5.64004 0
M  V30 5203 C 490.797 3.25146 6.0064 0
M  V30 5204 O 490.485 4.34598 6.76299 0
M  V30 5205 H 490.217 0.0487409 0.674241 0
M  V30 5206 H 492.771 0.786915 1.89728 0
M  V30 5207 H 491.001 -0.982299 3.74016 0
M  V30 5208 H 492.69 -0.658032 4.00531 0
M  V30 5209 H 493.456 1.77265 4.51444 0
M  V30 5210 H 489.335 0.54805 4.57731 0
M  V30 5211 H 492.879 3.74192 5.8875 0
M  V30 5212 H 488.776 2.50873 5.94755 0
M  V30 5213 H 489.544 4.32808 6.94708 0
M  V30 5214 N 492.207 -1.54576 0.307264 0
M  V30 5215 C 493.454 -2.00263 -0.300167 0
M  V30 5216 C 493.782 -1.19561 -1.53413 0
M  V30 5217 O 493.037 -0.261487 -1.93945 0
M  V30 5218 C 493.336 -3.50572 -0.695253 0
M  V30 5219 C 493.002 -4.48771 0.437679 0
M  V30 5220 C 491.664 -4.7534 0.748681 0
M  V30 5221 C 494.016 -5.0721 1.19949 0
M  V30 5222 C 491.344 -5.5761 1.8245 0
M  V30 5223 C 493.696 -5.90651 2.26527 0
M  V30 5224 C 492.36 -6.15528 2.58227 0
M  V30 5225 H 491.63 -0.732814 -0.109839 0
M  V30 5226 H 494.277 -1.86664 0.427661 0
M  V30 5227 H 492.582 -3.61814 -1.50326 0
M  V30 5228 H 494.279 -3.83352 -1.17653 0
M  V30 5229 H 490.869 -4.282 0.185187 0
M  V30 5230 H 495.053 -4.86679 0.972474 0
M  V30 5231 H 490.309 -5.75121 2.07476 0
M  V30 5232 H 494.483 -6.34957 2.86011 0
M  V30 5233 H 492.11 -6.79066 3.4172 0
M  V30 5234 N 493.685 -0.035106 -1.57561 0
M  V30 5235 C 494.615 0.942993 -2.13612 0
M  V30 5236 C 495.596 1.33531 -1.05373 0
M  V30 5237 O 496.781 1.41287 -1.33235 0
M  V30 5238 C 493.911 2.22332 -2.66807 0
M  V30 5239 C 492.865 1.97156 -3.79886 0
M  V30 5240 C 492.191 3.31506 -4.19533 0
M  V30 5241 C 493.491 1.30596 -5.05709 0
M  V30 5242 H 495.185 0.476179 -2.95589 0
M  V30 5243 H 492.731 0.227602 -1.4219 0
M  V30 5244 H 494.684 2.91142 -3.04654 0
M  V30 5245 H 493.408 2.7119 -1.81999 0
M  V30 5246 H 492.067 1.30763 -3.42486 0
M  V30 5247 H 491.715 3.78134 -3.31698 0
M  V30 5248 H 491.415 3.15465 -4.95738 0
M  V30 5249 H 492.939 4.01574 -4.59968 0
M  V30 5250 H 494.353 1.89416 -5.41105 0
M  V30 5251 H 492.75 1.24934 -5.86951 0
M  V30 5252 H 493.82 0.279742 -4.84092 0
M  V30 5253 N 495.163 1.55791 0.238111 0
M  V30 5254 C 496.093 1.94068 1.29846 0
M  V30 5255 C 497.074 0.806726 1.49753 0
M  V30 5256 O 498.259 1.06772 1.62214 0
M  V30 5257 C 495.389 2.24302 2.65153 0
M  V30 5258 C 494.343 3.40032 2.59927 0
M  V30 5259 C 493.669 3.55829 3.99111 0
M  V30 5260 C 494.969 4.75476 2.16148 0
M  V30 5261 H 496.663 2.82887 0.980563 0
M  V30 5262 H 494.209 1.36105 0.470253 0
M  V30 5263 H 496.162 2.4967 3.39475 0
M  V30 5264 H 494.886 1.32318 2.98596 0
M  V30 5265 H 493.545 3.14687 1.88063 0
M  V30 5266 H 493.193 2.6125 4.29834 0
M  V30 5267 H 492.893 4.3366 3.96501 0
M  V30 5268 H 494.417 3.83528 4.7512 0
M  V30 5269 H 495.831 5.00158 2.80205 0
M  V30 5270 H 494.228 5.56472 2.24631 0
M  V30 5271 H 495.298 4.71946 1.11333 0
M  V30 5272 N 496.642 -0.504142 1.49319 0
M  V30 5273 C 497.889 -1.25846 1.58647 0
M  V30 5274 C 498.217 -1.92592 0.27177 0
M  V30 5275 O 497.472 -1.81167 -0.74007 0
M  V30 5276 C 497.771 -2.35021 2.69258 0
M  V30 5277 C 497.437 -1.85755 4.1086 0
M  V30 5278 C 496.099 -1.72038 4.49395 0
M  V30 5279 C 498.451 -1.48844 4.99495 0
M  V30 5280 C 495.779 -1.19783 5.74342 0
M  V30 5281 C 498.131 -0.980422 6.24956 0
M  V30 5282 C 496.795 -0.829622 6.62324 0
M  V30 5283 H 496.065 -0.460505 0.580531 0
M  V30 5284 H 498.712 -0.559716 1.83138 0
M  V30 5285 H 497.017 -3.10672 2.38726 0
M  V30 5286 H 498.714 -2.93083 2.73685 0
M  V30 5287 H 495.304 -1.9739 3.80441 0
M  V30 5288 H 499.488 -1.5829 4.70381 0
M  V30 5289 H 494.744 -1.06817 6.01997 0
M  V30 5290 H 498.918 -0.685608 6.93017 0
M  V30 5291 H 496.545 -0.42253 7.59025 0
M  V30 5292 N 498.12 -1.38341 -0.754957 0
M  V30 5293 C 499.03 -1.3769 -1.89944 0
M  V30 5294 C 500.046 -0.274194 -1.71826 0
M  V30 5295 O 501.222 -0.512391 -1.94773 0
M  V30 5296 C 498.287 -1.19938 -3.25293 0
M  V30 5297 C 497.348 -2.40001 -3.55946 0
M  V30 5298 C 496.581 -2.23087 -4.84838 0
M  V30 5299 O 496.804 -1.22386 -5.57116 0
M  V30 5300 O 495.738 -3.11646 -5.14937 0
M  V30 5301 H 499.564 -2.3412 -1.93446 0
M  V30 5302 H 497.149 -1.19246 -0.900044 0
M  V30 5303 H 499.031 -1.12093 -4.06218 0
M  V30 5304 H 497.706 -0.265919 -3.22606 0
M  V30 5305 H 496.613 -2.53421 -2.75188 0
M  V30 5306 H 497.946 -3.31973 -3.63394 0
M  V30 5307 N 499.598 0.982988 -1.23187 0
M  V30 5308 C 500.823 1.76455 -1.08988 0
M  V30 5309 C 501.248 1.84726 0.354691 0
M  V30 5310 O 500.606 1.30699 1.25649 0
M  V30 5311 C 500.654 3.17094 -1.71708 0
M  V30 5312 O 499.758 4.00648 -0.977477 0
M  V30 5313 H 499.099 0.542988 -0.382177 0
M  V30 5314 H 501.629 1.23413 -1.63188 0
M  V30 5315 H 501.639 3.67684 -1.76841 0
M  V30 5316 H 500.314 3.10389 -2.76823 0
M  V30 5317 H 498.891 3.59161 -1.0029 0
M  V30 5318 N 501.076 1.04316 1.18135 0
M  V30 5319 C 502.009 0.580823 2.20685 0
M  V30 5320 C 502.987 -0.385943 1.57953 0
M  V30 5321 O 504.171 -0.299654 1.86103 0
M  V30 5322 C 501.298 -0.151162 3.38363 0
M  V30 5323 C 500.344 0.769247 4.19505 0
M  V30 5324 S 501.177 2.25352 4.85774 0
M  V30 5325 C 502.333 1.53246 6.0685 0
M  V30 5326 H 502.566 1.44968 2.5956 0
M  V30 5327 H 500.099 0.85434 1.28609 0
M  V30 5328 H 502.057 -0.567315 4.06561 0
M  V30 5329 H 500.718 -0.995936 2.97892 0
M  V30 5330 H 499.911 0.203335 5.0359 0
M  V30 5331 H 499.513 1.12436 3.56699 0
M  V30 5332 H 501.805 0.82689 6.72435 0
M  V30 5333 H 502.748 2.35044 6.67952 0
M  V30 5334 H 503.156 1.0237 5.5514 0
M  V30 5335 N 502.554 -1.34406 0.822964 0
M  V30 5336 C 503.484 -2.32052 0.259608 0
M  V30 5337 C 504.465 -1.58243 -0.623961 0
M  V30 5338 O 505.65 -1.86224 -0.55083 0
M  V30 5339 C 502.78 -3.42434 -0.579314 0
M  V30 5340 C 501.734 -4.27499 0.20712 0
M  V30 5341 C 501.06 -5.29349 -0.754547 0
M  V30 5342 C 502.36 -5.02758 1.41533 0
M  V30 5343 H 504.054 -2.79418 1.07545 0
M  V30 5344 H 501.6 -1.34338 0.518593 0
M  V30 5345 H 503.553 -4.0976 -0.983612 0
M  V30 5346 H 502.277 -2.93717 -1.4282 0
M  V30 5347 H 500.936 -3.61776 0.592787 0
M  V30 5348 H 500.584 -4.76895 -1.59939 0
M  V30 5349 H 500.284 -5.8714 -0.232561 0
M  V30 5350 H 501.808 -5.99544 -1.1567 0
M  V30 5351 H 503.222 -5.62938 1.08504 0
M  V30 5352 H 501.619 -5.70123 1.87296 0
M  V30 5353 H 502.689 -4.32451 2.1935 0
M  V30 5354 N 504.032 -0.577932 -1.46621 0
M  V30 5355 C 505.309 0.00495287 -1.95599 0
M  V30 5356 C 505.689 1.46428 -1.5206 0
M  V30 5357 O 505.037 2.1517 -0.769046 0
M  V30 5358 C 505.247 -0.162114 -3.48623 0
M  V30 5359 C 506.595 -0.0274623 -4.24591 0
M  V30 5360 O 507.619 -0.0907067 -3.56084 0
M  V30 5361 O 506.478 0.1122 -5.46385 0
M  V30 5362 H 503.572 0.0525057 -0.825332 0
M  V30 5363 H 506.118 -0.645914 -1.56927 0
M  V30 5364 H 504.89 -1.17679 -3.73185 0
M  V30 5365 H 504.513 0.525407 -3.94113 0
M  V30 5366 N 505.51 1.54411 -0.315457 0
M  V30 5367 C 506.735 2.05299 0.294496 0
M  V30 5368 C 507.16 1.19052 1.4563 0
M  V30 5369 O 506.518 0.197804 1.80218 0
M  V30 5370 C 506.566 3.5345 0.714549 0
M  V30 5371 O 505.67 3.70175 1.81781 0
M  V30 5372 H 505.011 0.661743 0.0547019 0
M  V30 5373 H 507.541 1.99327 -0.461508 0
M  V30 5374 H 507.551 3.9557 0.999426 0
M  V30 5375 H 506.226 4.1568 -0.135244 0
M  V30 5376 H 504.803 3.3996 1.53236 0
M  V30 5377 N 506.988 0.0434614 1.5754 0
M  V30 5378 C 508.234 -0.632971 1.92669 0
M  V30 5379 C 508.567 -1.70947 0.921446 0
M  V30 5380 O 507.842 -1.94426 -0.0537202 0
M  V30 5381 C 508.125 -1.23619 3.38216 0
M  V30 5382 C 507.978 -0.168274 4.49485 0
M  V30 5383 C 509.297 -2.15008 3.84005 0
M  V30 5384 H 506.416 -0.228629 0.700641 0
M  V30 5385 H 509.058 0.103651 1.89717 0
M  V30 5386 H 507.208 -1.864 3.40863 0
M  V30 5387 H 508.88 0.463196 4.58969 0
M  V30 5388 H 507.123 0.504581 4.30855 0
M  V30 5389 H 507.794 -0.630218 5.48391 0
M  V30 5390 H 510.27 -1.62198 3.83185 0
M  V30 5391 H 509.146 -2.54161 4.86511 0
M  V30 5392 H 509.407 -3.04707 3.20322 0
M  V30 5393 N 508.466 -1.55915 -0.229846 0
M  V30 5394 C 509.396 -1.94754 -1.28815 0
M  V30 5395 C 510.377 -0.814657 -1.49323 0
M  V30 5396 O 511.562 -1.07631 -1.61645 0
M  V30 5397 C 508.692 -2.25705 -2.63959 0
M  V30 5398 C 507.646 -3.41406 -2.5812 0
M  V30 5399 C 506.972 -3.57941 -3.97218 0
M  V30 5400 C 508.272 -4.76616 -2.13623 0
M  V30 5401 H 509.966 -2.83404 -0.965547 0
M  V30 5402 H 507.512 -1.36353 -0.463028 0
M  V30 5403 H 509.465 -2.51467 -3.38146 0
M  V30 5404 H 508.189 -1.339 -2.9789 0
M  V30 5405 H 506.848 -3.1568 -1.86391 0
M  V30 5406 H 506.496 -2.63526 -4.28443 0
M  V30 5407 H 506.196 -4.35757 -3.94195 0
M  V30 5408 H 507.72 -3.86042 -4.73079 0
M  V30 5409 H 509.134 -5.01637 -2.77549 0
M  V30 5410 H 507.531 -5.57655 -2.21677 0
M  V30 5411 H 508.601 -4.7253 -1.08829 0
M  V30 5412 N 509.944 0.496216 -1.49584 0
M  V30 5413 C 511.174 1.27209 -1.62793 0
M  V30 5414 C 511.582 1.86799 -0.300476 0
M  V30 5415 O 510.925 1.68802 0.724674 0
M  V30 5416 C 510.987 2.43812 -2.64189 0
M  V30 5417 C 510.651 2.05055 -4.08414 0
M  V30 5418 C 511.648 1.58752 -4.9507 0
M  V30 5419 C 509.333 2.14543 -4.54177 0
M  V30 5420 C 511.327 1.22448 -6.25528 0
M  V30 5421 C 509.014 1.77851 -5.84647 0
M  V30 5422 C 510.012 1.31878 -6.70147 0
M  V30 5423 O 509.7 0.956834 -7.98185 0
M  V30 5424 H 509.432 0.391848 -0.550846 0
M  V30 5425 H 511.986 0.601712 -1.96389 0
M  V30 5426 H 510.216 3.13941 -2.25783 0
M  V30 5427 H 511.905 3.05829 -2.66877 0
M  V30 5428 H 512.671 1.50863 -4.60939 0
M  V30 5429 H 508.55 2.49277 -3.87791 0
M  V30 5430 H 512.094 0.864933 -6.92217 0
M  V30 5431 H 507.991 1.8539 -6.18305 0
M  V30 5432 H 508.759 1.08789 -8.11238 0
M  V30 5433 N 511.423 1.38739 0.74761 0
M  V30 5434 C 512.386 1.36241 1.84312 0
M  V30 5435 C 513.386 0.261811 1.58654 0
M  V30 5436 O 514.576 0.519031 1.66288 0
M  V30 5437 C 511.708 1.12253 3.21888 0
M  V30 5438 H 512.901 2.33712 1.87933 0
M  V30 5439 H 510.454 1.2412 0.949946 0
M  V30 5440 H 511.189 0.154133 3.23934 0
M  V30 5441 H 510.974 1.91943 3.41907 0
M  V30 5442 H 512.464 1.13215 4.0196 0
M  V30 5443 N 512.901 -0.976442 1.23707 0
M  V30 5444 C 513.848 -2.06952 1.02174 0
M  V30 5445 C 514.818 -1.65984 -0.0621034 0
M  V30 5446 O 516.003 -1.90584 0.0907906 0
M  V30 5447 C 513.143 -3.39425 0.62327 0
M  V30 5448 C 512.256 -3.9364 1.77966 0
M  V30 5449 C 511.391 -5.14343 1.3276 0
M  V30 5450 C 510.43 -5.60733 2.45449 0
M  V30 5451 N 509.567 -6.72662 2.01172 0
M  V30 5452 H 514.407 -2.24704 1.95734 0
M  V30 5453 H 511.944 -1.10143 0.975034 0
M  V30 5454 H 513.902 -4.15526 0.37332 0
M  V30 5455 H 512.532 -3.21624 -0.275329 0
M  V30 5456 H 511.584 -3.14258 2.14351 0
M  V30 5457 H 512.896 -4.24035 2.62671 0
M  V30 5458 H 512.05 -5.97789 1.03601 0
M  V30 5459 H 510.789 -4.8561 0.450975 0
M  V30 5460 H 509.794 -4.75865 2.75378 0
M  V30 5461 H 511.019 -5.91483 3.33654 0
M  V30 5462 H 508.965 -6.45681 1.15895 0
M  V30 5463 H 508.882 -7.02462 2.79434 0
M  V30 5464 H 510.15 -7.59572 1.75129 0
M  V30 5465 N 514.379 -1.04941 -1.1758 0
M  V30 5466 C 515.327 -0.64204 -2.23563 0
M  V30 5467 C 516.321 0.335453 -1.66045 0
M  V30 5468 O 517.527 0.20179 -1.78865 0
M  V30 5469 H 513.902 -0.18944 -0.727748 0
M  V30 5470 H 515.873 -1.54609 -2.55223 0
M  V30 5471 C 514.622 -0.0301051 -3.47687 0
M  V30 5472 H 513.945 -0.773339 -3.92249 0
M  V30 5473 H 515.385 0.217592 -4.23441 0
M  V30 5474 C 513.844 1.2225 -3.13937 0
M  V30 5475 O 514.374 2.3122 -3.28482 0
M  V30 5476 N 512.58 1.11917 -2.68185 0
M  V30 5477 H 512.127 0.232403 -2.5655 0
M  V30 5478 H 512.085 1.95814 -2.45976 0
M  V30 5479 N 515.857 1.33968 -0.830081 0
M  V30 5480 C 516.804 2.29387 -0.255008 0
M  V30 5481 C 517.774 1.53923 0.624243 0
M  V30 5482 O 518.959 1.82262 0.564372 0
M  V30 5483 C 516.099 3.4034 0.571209 0
M  V30 5484 C 515.212 4.30729 -0.331083 0
M  V30 5485 C 514.347 5.2879 0.505389 0
M  V30 5486 C 513.386 6.10819 -0.395843 0
M  V30 5487 N 512.523 7.00948 0.401979 0
M  V30 5488 H 517.363 2.77972 -1.07404 0
M  V30 5489 H 514.9 1.36785 -0.541133 0
M  V30 5490 H 516.858 4.03361 1.06562 0
M  V30 5491 H 515.488 2.9297 1.35529 0
M  V30 5492 H 514.54 3.68507 -0.943759 0
M  V30 5493 H 515.852 4.88181 -1.02377 0
M  V30 5494 H 515.006 5.97297 1.06399 0
M  V30 5495 H 513.745 4.71894 1.23155 0
M  V30 5496 H 512.75 5.41238 -0.966529 0
M  V30 5497 H 513.975 6.69797 -1.12023 0
M  V30 5498 H 511.921 6.46512 1.11168 0
M  V30 5499 H 511.838 7.55643 -0.232167 0
M  V30 5500 H 513.106 7.73774 0.943102 0
M  V30 5501 N 517.335 0.585699 1.46312 0
M  V30 5502 C 518.565 0.0780166 2.06453 0
M  V30 5503 C 518.973 -1.2336 1.43454 0
M  V30 5504 O 518.316 -1.75734 0.535086 0
M  V30 5505 C 518.378 -0.158951 3.59148 0
M  V30 5506 C 518.042 1.06752 4.44357 0
M  V30 5507 C 519.039 1.98031 4.80708 0
M  V30 5508 C 516.724 1.2902 4.85447 0
M  V30 5509 C 518.718 3.09924 5.5698 0
M  V30 5510 C 516.405 2.41218 5.61478 0
M  V30 5511 C 517.403 3.31499 5.97158 0
M  V30 5512 O 517.091 4.41747 6.71651 0
M  V30 5513 H 516.823 0.0558894 0.673686 0
M  V30 5514 H 519.377 0.806994 1.88883 0
M  V30 5515 H 517.607 -0.942575 3.75037 0
M  V30 5516 H 519.296 -0.615513 4.01206 0
M  V30 5517 H 520.062 1.82043 4.49539 0
M  V30 5518 H 515.941 0.596567 4.57124 0
M  V30 5519 H 519.485 3.80415 5.84748 0
M  V30 5520 H 515.382 2.57167 5.9206 0
M  V30 5521 H 516.15 4.40152 6.90079 0
M  V30 5522 N 518.813 -1.54241 0.323641 0
M  V30 5523 C 519.743 -2.27289 -0.534993 0
M  V30 5524 C 520.724 -1.28087 -1.11927 0
M  V30 5525 O 521.909 -1.56899 -1.14439 0
M  V30 5526 C 519.039 -3.03075 -1.69596 0
M  V30 5527 C 517.993 -4.09614 -1.24098 0
M  V30 5528 C 517.319 -4.73242 -2.4889 0
M  V30 5529 C 518.619 -5.21087 -0.355789 0
M  V30 5530 H 520.313 -2.99308 0.0743257 0
M  V30 5531 H 517.859 -1.43952 0.0371874 0
M  V30 5532 H 519.812 -3.52907 -2.30293 0
M  V30 5533 H 518.536 -2.28673 -2.33187 0
M  V30 5534 H 517.195 -3.60666 -0.656945 0
M  V30 5535 H 516.843 -3.95455 -3.10845 0
M  V30 5536 H 516.543 -5.45209 -2.19138 0
M  V30 5537 H 518.067 -5.25848 -3.10348 0
M  V30 5538 H 519.481 -5.66675 -0.869042 0
M  V30 5539 H 517.878 -5.9991 -0.151045 0
M  V30 5540 H 518.948 -4.81005 0.613339 0
M  V30 5541 N 520.291 -0.0518155 -1.57515 0
M  V30 5542 C 521.254 0.907547 -2.10467 0
M  V30 5543 C 522.254 1.23947 -1.02439 0
M  V30 5544 O 523.444 1.17604 -1.2851 0
M  V30 5545 C 520.576 2.21723 -2.58944 0
M  V30 5546 H 521.769 0.44851 -2.96527 0
M  V30 5547 H 519.322 0.196598 -1.55059 0
M  V30 5548 H 520.057 2.72206 -1.76279 0
M  V30 5549 H 519.842 1.98935 -3.37886 0
M  V30 5550 H 521.332 2.90441 -3.00056 0
M  V30 5551 N 521.769 1.56035 0.221574 0
M  V30 5552 C 522.716 1.92413 1.27459 0
M  V30 5553 C 523.686 0.781323 1.46576 0
M  V30 5554 O 524.871 1.03721 1.60145 0
M  V30 5555 C 522.011 2.24617 2.61995 0
M  V30 5556 C 521.124 3.51831 2.50677 0
M  V30 5557 C 520.259 3.73482 3.77736 0
M  V30 5558 C 519.298 4.94211 3.6114 0
M  V30 5559 N 518.435 5.12252 4.80148 0
M  V30 5560 H 523.275 2.82203 0.957355 0
M  V30 5561 H 520.812 1.39676 0.461415 0
M  V30 5562 H 522.77 2.41298 3.40339 0
M  V30 5563 H 521.4 1.38 2.91815 0
M  V30 5564 H 520.452 3.43343 1.63767 0
M  V30 5565 H 521.764 4.40328 2.34334 0
M  V30 5566 H 520.918 3.9026 4.64523 0
M  V30 5567 H 519.657 2.83266 3.97003 0
M  V30 5568 H 518.662 4.77384 2.72736 0
M  V30 5569 H 519.887 5.85912 3.43343 0
M  V30 5570 H 517.833 4.24978 4.99729 0
M  V30 5571 H 517.75 5.94881 4.66532 0
M  V30 5572 H 519.018 5.33465 5.68362 0
M  V30 5573 N 523.247 -0.488276 1.49845 0
M  V30 5574 C 524.495 -1.23911 1.59657 0
M  V30 5575 C 524.816 -1.92816 0.291005 0
M  V30 5576 O 524.086 -1.83328 -0.690485 0
M  V30 5577 H 522.666 -0.460357 0.588286 0
M  V30 5578 H 525.328 -0.564794 1.86537 0
M  V30 5579 H 524.424 -1.99625 2.39909 0
M  V30 5580 N 524.725 -1.39134 -0.740242 0
M  V30 5581 C 525.973 -1.35803 -1.49673 0
M  V30 5582 C 526.294 0.0470897 -1.94943 0
M  V30 5583 O 525.564 0.997347 -1.68611 0
M  V30 5584 H 524.144 -0.499736 -0.555224 0
M  V30 5585 H 526.806 -1.73947 -0.879107 0
M  V30 5586 H 525.902 -2.0174 -2.38133 0
M  V30 5587 N 526.204 0.969867 -1.24223 0
M  V30 5588 C 527.429 1.75289 -1.10853 0
M  V30 5589 C 527.854 1.85091 0.335079 0
M  V30 5590 O 527.212 1.32024 1.24255 0
M  V30 5591 C 527.26 3.15255 -1.75062 0
M  V30 5592 O 526.364 3.99589 -1.01992 0
M  V30 5593 H 525.705 0.538904 -0.387915 0
M  V30 5594 H 528.235 1.21675 -1.64488 0
M  V30 5595 H 528.245 3.65787 -1.80731 0
M  V30 5596 H 526.92 3.07436 -2.801 0
M  V30 5597 H 525.497 3.58077 -1.04094 0
M  V30 5598 N 527.682 1.05563 1.17022 0
M  V30 5599 C 528.928 0.769074 1.87652 0
M  V30 5600 C 529.261 -0.702326 1.81055 0
M  V30 5601 O 528.536 -1.5139 1.22112 0
M  V30 5602 C 528.819 1.25492 3.37526 0
M  V30 5603 C 528.672 2.78953 3.52853 0
M  V30 5604 C 529.991 0.856919 4.31677 0
M  V30 5605 H 527.11 0.280854 0.681388 0
M  V30 5606 H 529.752 1.31027 1.37593 0
M  V30 5607 H 527.902 0.794516 3.80289 0
M  V30 5608 H 529.574 3.33146 3.19079 0
M  V30 5609 H 527.817 3.18046 2.95007 0
M  V30 5610 H 528.488 3.08011 4.58076 0
M  V30 5611 H 530.964 1.25334 3.96775 0
M  V30 5612 H 529.84 1.22443 5.35069 0
M  V30 5613 H 530.101 -0.238787 4.41455 0
M  V30 5614 N 529.16 -1.33526 0.837174 0
M  V30 5615 C 530.39 -2.01754 0.444848 0
M  V30 5616 C 530.798 -1.63149 -0.958072 0
M  V30 5617 O 530.141 -0.839827 -1.63379 0
M  V30 5618 C 530.203 -3.56228 0.483917 0
M  V30 5619 C 529.867 -4.18205 1.84265 0
M  V30 5620 C 530.864 -4.37699 2.80563 0
M  V30 5621 C 528.549 -4.54667 2.13503 0
M  V30 5622 C 530.543 -4.928 4.04261 0
M  V30 5623 C 528.23 -5.09475 3.37458 0
M  V30 5624 C 529.228 -5.28488 4.32654 0
M  V30 5625 O 528.916 -5.82132 5.54417 0
M  V30 5626 H 528.648 -0.652928 0.175104 0
M  V30 5627 H 531.202 -1.71469 1.13082 0
M  V30 5628 H 529.432 -3.85833 -0.258826 0
M  V30 5629 H 531.121 -4.05752 0.109653 0
M  V30 5630 H 531.887 -4.0988 2.59274 0
M  V30 5631 H 527.766 -4.39164 1.40201 0
M  V30 5632 H 531.31 -5.07555 4.78574 0
M  V30 5633 H 527.207 -5.36725 3.58604 0
M  V30 5634 H 527.975 -6.00548 5.56133 0
M  V30 5635 N 530.638 -0.59345 -1.46 0
M  V30 5636 C 532.049 -0.169801 -1.85926 0
M  V30 5637 C 532.4 1.26984 -1.49565 0
M  V30 5638 O 531.525 1.96076 -0.915602 0
M  V30 5639 C 532.12 -0.301385 -3.37457 0
M  V30 5640 C 530.679 0.0674684 -3.7634 0
M  V30 5641 C 529.826 -0.632383 -2.69993 0
M  V30 5642 H 532.777 -0.801014 -1.37002 0
M  V30 5643 H 532.798 0.470331 -3.77582 0
M  V30 5644 H 532.31 -1.34927 -3.63891 0
M  V30 5645 H 530.411 1.11507 -3.55523 0
M  V30 5646 H 530.524 -0.316332 -4.78055 0
M  V30 5647 H 528.888 -0.0714961 -2.546 0
M  V30 5648 H 529.671 -1.68212 -2.99265 0
M  V30 5649 N 532.116 1.54067 -0.331816 0
M  V30 5650 C 533.393 1.92915 0.322955 0
M  V30 5651 C 533.773 1.26225 1.69205 0
M  V30 5652 O 533.121 0.408919 2.24811 0
M  V30 5653 C 533.331 3.46619 0.406946 0
M  V30 5654 C 534.679 4.19386 0.663339 0
M  V30 5655 O 535.703 3.5282 0.489536 0
M  V30 5656 O 534.562 5.37288 0.999193 0
M  V30 5657 H 531.656 0.805808 0.186016 0
M  V30 5658 H 534.202 1.65342 -0.382135 0
M  V30 5659 H 532.974 3.87354 -0.554287 0
M  V30 5660 H 532.597 3.80324 1.15929 0
M  V30 5661 N 533.594 0.0601682 1.57485 0
M  V30 5662 C 534.843 -0.611101 1.9222 0
M  V30 5663 C 535.156 -1.71469 0.941159 0
M  V30 5664 O 536.362 -2.44473 1.18089 0
M  V30 5665 C 534.818 -1.13832 3.41424 0
M  V30 5666 C 534.426 -0.0663596 4.47951 0
M  V30 5667 C 536.17 -1.78432 3.85178 0
M  V30 5668 C 534.077 -0.606965 5.88277 0
M  V30 5669 H 533.007 -0.232033 0.71741 0
M  V30 5670 H 535.658 0.130518 1.83035 0
M  V30 5671 H 534.04 -1.93254 3.45643 0
M  V30 5672 H 535.214 0.707682 4.55333 0
M  V30 5673 H 533.529 0.482715 4.13593 0
M  V30 5674 H 536.126 -2.1989 4.87394 0
M  V30 5675 H 536.469 -2.63966 3.21913 0
M  V30 5676 H 537.002 -1.05651 3.83514 0
M  V30 5677 H 533.741 0.21095 6.5516 0
M  V30 5678 H 533.261 -1.34879 5.84438 0
M  V30 5679 H 534.94 -1.08704 6.37803 0
M  V30 5680 N 535.072 -1.5615 -0.213296 0
M  V30 5681 C 536.312 -1.81325 -0.943435 0
M  V30 5682 C 536.676 -0.634934 -1.81198 0
M  V30 5683 O 537.877 -0.766166 -2.5765 0
M  V30 5684 C 536.148 -3.11437 -1.75334 0
M  V30 5685 S 537.707 -3.57955 -2.53799 0
M  V30 5686 H 534.525 -0.636538 -0.316766 0
M  V30 5687 H 537.127 -1.94387 -0.208313 0
M  V30 5688 H 535.831 -3.95228 -1.10556 0
M  V30 5689 H 535.362 -3.01204 -2.53061 0
M  V30 5690 H 537.377 -3.21947 -3.77577 0
M  V30 5691 N 536.55 0.480323 -1.50102 0
M  V30 5692 C 537.778 1.25657 -1.64371 0
M  V30 5693 C 538.193 1.86011 -0.323316 0
M  V30 5694 O 537.55 1.68803 0.693682 0
M  V30 5695 C 537.601 2.37197 -2.728 0
M  V30 5696 O 537.322 1.7932 -3.9972 0
M  V30 5697 C 538.823 3.2823 -2.9796 0
M  V30 5698 H 536.043 0.380369 -0.552775 0
M  V30 5699 H 538.587 0.574379 -1.96268 0
M  V30 5700 H 536.742 3.01208 -2.43623 0
M  V30 5701 H 537.156 2.52701 -4.59611 0
M  V30 5702 H 538.63 4.02725 -3.77513 0
M  V30 5703 H 539.107 3.86462 -2.08671 0
M  V30 5704 H 539.713 2.69964 -3.28633 0
M  V30 5705 N 538.028 1.39524 0.732853 0
M  V30 5706 C 539.277 1.36175 1.48792 0
M  V30 5707 C 539.59 -0.0388195 1.95561 0
M  V30 5708 O 540.796 -0.194899 2.708 0
M  V30 5709 C 539.252 2.39242 2.68871 0
M  V30 5710 C 538.86 3.85024 2.29042 0
M  V30 5711 C 540.604 2.44972 3.46683 0
M  V30 5712 C 538.511 4.79727 3.45856 0
M  V30 5713 H 537.441 0.506267 0.558757 0
M  V30 5714 H 540.092 1.65181 0.799226 0
M  V30 5715 H 538.474 2.0331 3.39825 0
M  V30 5716 H 539.648 4.30008 1.6562 0
M  V30 5717 H 537.963 3.82609 1.64316 0
M  V30 5718 H 540.56 3.12918 4.33574 0
M  V30 5719 H 540.903 1.4749 3.89297 0
M  V30 5720 H 541.436 2.79808 2.82759 0
M  V30 5721 H 538.175 5.78479 3.08289 0
M  V30 5722 H 537.695 4.39421 4.08251 0
M  V30 5723 H 539.374 4.98731 4.12161 0
M  V30 5724 N 539.506 -0.963266 1.24736 0
M  V30 5725 C 540.731 -1.74699 1.11781 0
M  V30 5726 C 541.156 -1.85267 -0.325258 0
M  V30 5727 O 540.514 -1.32681 -1.23553 0
M  V30 5728 C 540.562 -3.14322 1.76731 0
M  V30 5729 O 539.666 -3.99043 1.04109 0
M  V30 5730 H 539.007 -0.53684 0.390767 0
M  V30 5731 H 541.537 -1.20801 1.65131 0
M  V30 5732 H 541.547 -3.64824 1.82668 0
M  V30 5733 H 540.222 -3.05946 2.81726 0
M  V30 5734 H 538.799 -3.5752 1.05991 0
M  V30 5735 N 540.985 -1.06182 -1.16461 0
M  V30 5736 C 541.915 -0.692861 -2.22984 0
M  V30 5737 C 542.896 0.314122 -1.67174 0
M  V30 5738 O 544.081 0.189499 -1.93273 0
M  V30 5739 C 541.211 -0.07732 -3.47214 0
M  V30 5740 C 540.165 -1.01015 -4.15909 0
M  V30 5741 C 539.491 -0.257973 -5.34077 0
M  V30 5742 C 540.791 -2.33868 -4.67015 0
M  V30 5743 H 542.485 -1.58343 -2.54102 0
M  V30 5744 H 540.031 -0.76279 -1.22137 0
M  V30 5745 H 541.984 0.19266 -4.20959 0
M  V30 5746 H 540.708 0.848254 -3.15392 0
M  V30 5747 H 539.367 -1.26486 -3.44088 0
M  V30 5748 H 539.015 0.670684 -4.98509 0
M  V30 5749 H 538.715 -0.879638 -5.80979 0
M  V30 5750 H 540.239 0.00448788 -6.106 0
M  V30 5751 H 541.653 -2.1279 -5.32347 0
M  V30 5752 H 540.05 -2.91522 -5.24533 0
M  V30 5753 H 541.12 -2.97019 -3.83286 0
M  V30 5754 N 542.463 1.3308 -0.844243 0
M  V30 5755 C 543.709 1.97898 -0.443206 0
M  V30 5756 C 544.042 1.66699 0.99625 0
M  V30 5757 O 543.317 0.949704 1.69738 0
M  V30 5758 C 543.6 3.53801 -0.670606 0
M  V30 5759 C 543.453 3.94667 -2.15772 0
M  V30 5760 C 544.772 4.39936 -0.120226 0
M  V30 5761 H 541.891 0.718861 -0.162504 0
M  V30 5762 H 544.533 1.57633 -1.06075 0
M  V30 5763 H 542.683 3.88229 -0.14496 0
M  V30 5764 H 544.355 3.70469 -2.74865 0
M  V30 5765 H 542.598 3.44203 -2.6402 0
M  V30 5766 H 543.269 5.03275 -2.26757 0
M  V30 5767 H 545.745 4.12183 -0.5696 0
M  V30 5768 H 544.621 5.4803 -0.308984 0
M  V30 5769 H 544.882 4.31184 0.976347 0
M  V30 5770 N 543.941 0.601185 1.45683 0
M  V30 5771 C 544.904 -0.111398 2.28929 0
M  V30 5772 C 545.904 -0.801246 1.39416 0
M  V30 5773 O 547.094 -0.650383 1.61603 0
M  V30 5774 C 544.226 -1.16773 3.20276 0
M  V30 5775 H 545.419 0.620412 2.93413 0
M  V30 5776 H 542.972 0.359946 1.52099 0
M  V30 5777 H 543.707 -1.93051 2.60579 0
M  V30 5778 H 543.492 -0.677358 3.86205 0
M  V30 5779 H 544.982 -1.66698 3.82886 0
M  V30 5780 N 545.419 -1.53889 0.339982 0
M  V30 5781 C 546.665 -2.01152 -0.258003 0
M  V30 5782 C 546.998 -1.22749 -1.50487 0
M  V30 5783 O 546.273 -0.314156 -1.91946 0
M  V30 5784 C 546.556 -3.55468 -0.575717 0
M  V30 5785 C 546.409 -4.44584 0.682996 0
M  V30 5786 C 547.728 -4.1768 -1.38677 0
M  V30 5787 H 544.847 -0.731198 -0.0922992 0
M  V30 5788 H 547.489 -1.84352 0.459814 0
M  V30 5789 H 545.639 -3.69914 -1.18725 0
M  V30 5790 H 547.311 -4.41981 1.32102 0
M  V30 5791 H 545.554 -4.13592 1.3086 0
M  V30 5792 H 546.225 -5.5043 0.416001 0
M  V30 5793 H 548.701 -4.0691 -0.869705 0
M  V30 5794 H 547.577 -5.25734 -1.57783 0
M  V30 5795 H 547.838 -3.72069 -2.38782 0
M  V30 5796 N 546.897 -0.0685191 -1.57451 0
M  V30 5797 C 548.122 0.613919 -1.98106 0
M  V30 5798 C 548.547 1.62551 -0.946501 0
M  V30 5799 O 547.905 1.81085 0.0882824 0
M  V30 5800 C 547.953 1.26189 -3.378 0
M  V30 5801 O 547.057 2.37773 -3.36954 0
M  V30 5802 H 546.398 0.158163 -0.644888 0
M  V30 5803 H 548.928 -0.142063 -2.04106 0
M  V30 5804 H 548.938 1.60951 -3.74912 0
M  V30 5805 H 547.613 0.520625 -4.12629 0
M  V30 5806 H 546.19 2.04829 -3.11608 0
M  V30 5807 N 548.375 1.56261 0.205012 0
M  V30 5808 C 549.652 1.70856 0.952233 0
M  V30 5809 C 550.032 0.620501 2.01775 0
M  V30 5810 O 549.38 -0.370035 2.25484 0
M  V30 5811 C 549.59 3.12807 1.54767 0
M  V30 5812 C 550.938 3.72733 2.0336 0
M  V30 5813 O 551.962 3.15873 1.64629 0
M  V30 5814 O 550.821 4.72501 2.746 0
M  V30 5815 H 547.915 0.696496 0.445895 0
M  V30 5816 H 550.461 1.6857 0.195489 0
M  V30 5817 H 549.233 3.83465 0.779132 0
M  V30 5818 H 548.856 3.1928 2.36951 0
M  V30 5819 N 549.853 -0.472356 1.50355 0
M  V30 5820 C 551.099 -1.22634 1.6152 0
M  V30 5821 C 551.432 -1.91645 0.313995 0
M  V30 5822 O 550.707 -1.82059 -0.684446 0
M  V30 5823 C 550.99 -2.27099 2.7946 0
M  V30 5824 C 550.843 -1.62402 4.19459 0
M  V30 5825 C 552.162 -3.28421 2.92964 0
M  V30 5826 H 549.281 -0.444494 0.587873 0
M  V30 5827 H 551.923 -0.520321 1.82737 0
M  V30 5828 H 550.073 -2.87314 2.61501 0
M  V30 5829 H 551.745 -1.05793 4.49005 0
M  V30 5830 H 549.988 -0.927184 4.23776 0
M  V30 5831 H 550.659 -2.38309 4.97909 0
M  V30 5832 H 553.135 -2.78227 3.09401 0
M  V30 5833 H 552.011 -3.98845 3.77113 0
M  V30 5834 H 552.272 -3.92467 2.03525 0
M  V30 5835 N 551.331 -1.39911 -0.725443 0
M  V30 5836 C 552.279 -1.39552 -1.86086 0
M  V30 5837 C 553.273 -0.277334 -1.67114 0
M  V30 5838 O 554.479 -0.447865 -1.74339 0
M  V30 5839 H 550.854 -0.435993 -0.612711 0
M  V30 5840 H 552.825 -2.35305 -1.83505 0
M  V30 5841 C 551.574 -1.26529 -3.2386 0
M  V30 5842 H 550.897 -2.11845 -3.3906 0
M  V30 5843 H 552.337 -1.30336 -4.03471 0
M  V30 5844 C 550.796 0.0254168 -3.3689 0
M  V30 5845 O 551.326 0.992048 -3.89257 0
M  V30 5846 N 549.532 0.0916528 -2.90455 0
M  V30 5847 H 549.079 -0.695675 -2.48028 0
M  V30 5848 H 549.037 0.954745 -2.99553 0
M  V30 5849 N 552.809 0.956637 -1.25245 0
M  V30 5850 C 553.756 2.053 -1.05454 0
M  V30 5851 C 554.726 1.66062 0.0356889 0
M  V30 5852 O 555.911 1.90415 -0.121099 0
M  V30 5853 C 553.051 3.38391 -0.677191 0
M  V30 5854 C 552.164 3.90758 -1.84206 0
M  V30 5855 C 551.299 5.12165 -1.40926 0
M  V30 5856 C 550.338 5.56757 -2.54338 0
M  V30 5857 N 549.475 6.69376 -2.11848 0
M  V30 5858 H 554.315 2.21562 -1.99284 0
M  V30 5859 H 551.852 1.08578 -0.992434 0
M  V30 5860 H 553.81 4.1488 -0.43938 0
M  V30 5861 H 552.44 3.22021 0.224127 0
M  V30 5862 H 551.492 3.10808 -2.19323 0
M  V30 5863 H 552.804 4.19802 -2.69383 0
M  V30 5864 H 551.958 5.96065 -1.13098 0
M  V30 5865 H 550.697 4.84832 -0.528175 0
M  V30 5866 H 549.702 4.71423 -2.82913 0
M  V30 5867 H 550.927 5.861 -3.43022 0
M  V30 5868 H 548.873 6.43756 -1.26153 0
M  V30 5869 H 548.79 6.97927 -2.90574 0
M  V30 5870 H 550.058 7.5669 -1.87191 0
M  V30 5871 N 554.287 1.06798 1.15896 0
M  V30 5872 C 555.237 0.653213 2.18443 0
M  V30 5873 C 556.221 -0.318763 1.57711 0
M  V30 5874 O 557.413 -0.133388 1.76497 0
M  V30 5875 C 554.542 0.0465785 3.43268 0
M  V30 5876 C 553.628 1.04336 4.11066 0
M  V30 5877 N 554.019 2.22084 4.54436 0
M  V30 5878 C 552.317 0.875433 4.37324 0
M  V30 5879 C 553.018 2.85276 5.06944 0
M  V30 5880 N 551.994 2.12973 5.00143 0
M  V30 5881 H 555.796 1.55011 2.49698 0
M  V30 5882 H 553.31 0.940384 1.32403 0
M  V30 5883 H 555.307 -0.26843 4.16035 0
M  V30 5884 H 553.967 -0.845504 3.13499 0
M  V30 5885 H 554.978 2.59833 4.48004 0
M  V30 5886 H 551.655 0.0357721 4.17485 0
M  V30 5887 H 553.045 3.85223 5.50503 0
M  V30 5888 N 555.766 -1.3263 0.851289 0
M  V30 5889 C 556.729 -2.27247 0.298541 0
M  V30 5890 C 557.729 -1.51467 -0.539847 0
M  V30 5891 O 558.919 -1.7061 -0.351843 0
M  V30 5892 C 556.051 -3.35964 -0.578004 0
M  V30 5893 H 557.244 -2.7765 1.13359 0
M  V30 5894 H 554.797 -1.43245 0.625354 0
M  V30 5895 H 555.532 -2.90823 -1.435 0
M  V30 5896 H 555.317 -3.92094 0.0220539 0
M  V30 5897 H 556.807 -4.06472 -0.957626 0
M  V30 5898 N 557.244 -0.608902 -1.45362 0
M  V30 5899 C 558.521 -0.0365378 -1.95566 0
M  V30 5900 C 558.901 1.43169 -1.55131 0
M  V30 5901 O 558.249 2.1349 -0.814513 0
M  V30 5902 C 558.459 -0.236026 -3.48201 0
M  V30 5903 C 559.807 -0.117518 -4.24437 0
M  V30 5904 O 560.831 -0.166217 -3.55812 0
M  V30 5905 O 559.69 -0.00372127 -5.465 0
M  V30 5906 H 556.784 0.0349874 -0.82626 0
M  V30 5907 H 559.33 -0.679055 -1.55521 0
M  V30 5908 H 558.102 -1.25569 -3.70605 0
M  V30 5909 H 557.725 0.441691 -3.95139 0
M  V30 5910 N 558.722 1.53707 -0.348139 0
M  V30 5911 C 560.138 1.596 0.00361134 0
M  V30 5912 C 560.338 1.36394 1.4832 0
M  V30 5913 O 559.394 1.16046 2.24253 0
M  V30 5914 C 560.707 2.97512 -0.436682 0
M  V30 5915 C 562.255 3.10568 -0.389416 0
M  V30 5916 C 562.73 4.50866 -0.805249 0
M  V30 5917 N 564.221 4.56929 -0.759616 0
M  V30 5918 C 564.956 5.63643 -1.05327 0
M  V30 5919 N 564.452 6.78189 -1.41531 0
M  V30 5920 N 566.245 5.5354 -0.977207 0
M  V30 5921 H 558.396 1.67044 -1.31187 0
M  V30 5922 H 560.659 0.782559 -0.535075 0
M  V30 5923 H 560.365 3.19575 -1.46849 0
M  V30 5924 H 560.239 3.76742 0.185744 0
M  V30 5925 H 562.626 2.88226 0.633228 0
M  V30 5926 H 562.707 2.33387 -1.04711 0
M  V30 5927 H 562.351 4.73943 -1.82593 0
M  V30 5928 H 562.281 5.26452 -0.124989 0
M  V30 5929 H 564.772 3.74675 -0.49265 0
M  V30 5930 H 565.085 7.55541 -1.62411 0
M  V30 5931 H 563.43 6.79624 -1.45381 0
M  V30 5932 H 566.621 4.62932 -0.693675 0
M  V30 5933 H 566.794 6.36614 -1.2094 0
M  V30 5934 N 560.2 0.0768682 1.57412 0
M  V30 5935 C 561.449 -0.590679 1.92857 0
M  V30 5936 C 561.762 -1.70461 0.959293 0
M  V30 5937 O 562.968 -2.43207 1.20675 0
M  V30 5938 C 561.424 -1.10204 3.42612 0
M  V30 5939 C 561.032 -0.0188447 4.47996 0
M  V30 5940 C 562.776 -1.74336 3.87049 0
M  V30 5941 C 560.683 -0.544536 5.88888 0
M  V30 5942 H 559.613 -0.224411 0.71983 0
M  V30 5943 H 562.264 0.149924 1.82887 0
M  V30 5944 H 560.646 -1.89577 3.47673 0
M  V30 5945 H 561.82 0.755936 4.54557 0
M  V30 5946 H 560.135 0.526555 4.13057 0
M  V30 5947 H 562.732 -2.14708 4.89699 0
M  V30 5948 H 563.075 -2.60537 3.24694 0
M  V30 5949 H 563.608 -1.01577 3.84613 0
M  V30 5950 H 560.347 0.280426 6.549 0
M  V30 5951 H 559.867 -1.28673 5.85836 0
M  V30 5952 H 561.546 -1.01933 6.3892 0
M  V30 5953 N 561.678 -1.56367 -0.196722 0
M  V30 5954 C 562.641 -1.93561 -1.22746 0
M  V30 5955 C 563.641 -0.816566 -1.38524 0
M  V30 5956 O 564.831 -1.084 -1.36363 0
M  V30 5957 C 561.963 -2.20823 -2.59712 0
M  V30 5958 H 563.156 -2.85774 -0.909586 0
M  V30 5959 H 560.709 -1.50032 -0.438174 0
M  V30 5960 H 561.444 -1.31243 -2.96557 0
M  V30 5961 H 561.229 -3.02368 -2.49632 0
M  V30 5962 H 562.719 -2.50608 -3.34044 0
M  V30 5963 N 563.156 0.464375 -1.50603 0
M  V30 5964 C 564.403 1.21596 -1.61928 0
M  V30 5965 C 564.731 1.91804 -0.322737 0
M  V30 5966 O 563.986 1.83065 0.691776 0
M  V30 5967 C 564.285 2.278 -2.75394 0
M  V30 5968 C 563.951 1.74797 -4.1564 0
M  V30 5969 C 562.613 1.60063 -4.53799 0
M  V30 5970 C 564.965 1.35548 -5.03266 0
M  V30 5971 C 562.293 1.04514 -5.77316 0
M  V30 5972 C 564.645 0.814381 -6.27336 0
M  V30 5973 C 563.309 0.653726 -6.64291 0
M  V30 5974 H 562.579 0.444951 -0.592536 0
M  V30 5975 H 565.226 0.510964 -1.84557 0
M  V30 5976 H 563.531 3.04233 -2.46879 0
M  V30 5977 H 565.228 2.85723 -2.81359 0
M  V30 5978 H 561.818 1.87234 -3.8554 0
M  V30 5979 H 566.002 1.45763 -4.74412 0
M  V30 5980 H 561.258 0.908186 -6.04617 0
M  V30 5981 H 565.432 0.501626 -6.94591 0
M  V30 5982 H 563.059 0.22114 -7.59878 0
M  V30 5983 N 564.634 1.40294 0.718013 0
M  V30 5984 C 565.88 1.39648 1.47885 0
M  V30 5985 C 566.235 -0.0023879 1.924 0
M  V30 5986 O 565.528 -0.972304 1.65096 0
M  V30 5987 C 565.722 2.31814 2.72024 0
M  V30 5988 C 565.551 3.80523 2.3965 0
M  V30 5989 C 564.321 4.49351 2.3111 0
M  V30 5990 C 566.519 4.72077 2.04079 0
M  V30 5991 N 564.501 5.83305 1.91385 0
M  V30 5992 C 565.872 5.94809 1.74935 0
M  V30 5993 C 567.927 4.59935 1.90694 0
M  V30 5994 C 566.63 7.06755 1.33753 0
M  V30 5995 C 568.656 5.7182 1.50915 0
M  V30 5996 C 568.018 6.93637 1.22668 0
M  V30 5997 H 564.117 0.566263 0.539324 0
M  V30 5998 H 566.701 1.75986 0.832891 0
M  V30 5999 H 564.872 1.97607 3.34374 0
M  V30 6000 H 566.604 2.22042 3.38348 0
M  V30 6001 H 563.359 4.03002 2.4877 0
M  V30 6002 H 563.783 6.54239 1.74068 0
M  V30 6003 H 568.425 3.66274 2.11194 0
M  V30 6004 H 566.143 8.00302 1.11995 0
M  V30 6005 H 569.729 5.64421 1.4114 0
M  V30 6006 H 568.609 7.78743 0.923502 0
M  V30 6007 N 566.112 -0.949982 1.2575 0
M  V30 6008 C 567.389 -1.6718 1.01539 0
M  V30 6009 C 567.769 -2.06095 -0.456942 0
M  V30 6010 O 567.117 -1.77792 -1.43534 0
M  V30 6011 C 567.327 -2.8906 1.95564 0
M  V30 6012 C 568.675 -3.60909 2.23673 0
M  V30 6013 O 569.699 -2.9915 1.9336 0
M  V30 6014 O 568.558 -4.72127 2.75243 0
M  V30 6015 H 565.652 -0.731697 0.385419 0
M  V30 6016 H 568.198 -1.00249 1.36924 0
M  V30 6017 H 566.97 -2.57128 2.94959 0
M  V30 6018 H 566.593 -3.63719 1.60605 0
M  V30 6019 N 567.59 -1.07411 -1.15328 0
M  V30 6020 C 568.867 -0.710732 -1.82231 0
M  V30 6021 C 569.247 0.806732 -1.95077 0
M  V30 6022 O 568.595 1.72139 -1.50268 0
M  V30 6023 C 568.805 -1.42586 -3.18544 0
M  V30 6024 C 570.153 -1.57836 -3.94174 0
M  V30 6025 O 571.177 -1.38669 -3.281 0
M  V30 6026 O 570.036 -1.8938 -5.12638 0
M  V30 6027 H 567.13 -0.25297 -0.78736 0
M  V30 6028 H 569.676 -1.17508 -1.22434 0
M  V30 6029 H 568.448 -2.46008 -3.04296 0
M  V30 6030 H 568.071 -0.952332 -3.86026 0
M  V30 6031 N 569.068 1.32177 -0.85831 0
M  V30 6032 C 570.314 1.97417 -0.46417 0
M  V30 6033 C 570.647 1.67746 0.978514 0
M  V30 6034 O 569.922 0.967654 1.68721 0
M  V30 6035 C 570.205 3.53069 -0.708094 0
M  V30 6036 C 570.058 3.92357 -2.19946 0
M  V30 6037 C 571.377 4.39783 -0.166881 0
M  V30 6038 H 568.496 0.717097 -0.17012 0
M  V30 6039 H 571.138 1.56499 -1.07741 0
M  V30 6040 H 569.288 3.88054 -0.186128 0
M  V30 6041 H 570.96 3.67533 -2.78779 0
M  V30 6042 H 569.203 3.41384 -2.67656 0
M  V30 6043 H 569.874 5.00841 -2.32082 0
M  V30 6044 H 572.35 4.11556 -0.613285 0
M  V30 6045 H 571.226 5.47671 -0.367093 0
M  V30 6046 H 571.487 4.32196 0.930559 0
M  V30 6047 N 570.547 0.616602 1.45037 0
M  V30 6048 C 571.777 0.121791 2.06241 0
M  V30 6049 C 572.185 -1.20289 1.46038 0
M  V30 6050 O 571.528 -1.7456 0.572242 0
M  V30 6051 C 571.59 -0.0827345 3.59405 0
M  V30 6052 C 571.254 1.16153 4.41993 0
M  V30 6053 C 572.251 2.08183 4.76399 0
M  V30 6054 C 569.936 1.39288 4.82601 0
M  V30 6055 C 571.93 3.21668 5.5028 0
M  V30 6056 C 569.617 2.53073 5.56235 0
M  V30 6057 C 570.615 3.44091 5.89992 0
M  V30 6058 O 570.303 4.55894 6.6213 0
M  V30 6059 H 570.035 0.0701667 0.672349 0
M  V30 6060 H 572.589 0.846877 1.87129 0
M  V30 6061 H 570.819 -0.862812 3.76952 0
M  V30 6062 H 572.508 -0.530273 4.02421 0
M  V30 6063 H 573.274 1.91538 4.45576 0
M  V30 6064 H 569.153 0.693396 4.55755 0
M  V30 6065 H 572.697 3.92733 5.76547 0
M  V30 6066 H 568.594 2.69667 5.86472 0
M  V30 6067 H 569.362 4.5469 6.80587 0
M  V30 6068 N 572.025 -1.5352 0.356285 0
M  V30 6069 C 573.273 -2.00719 -0.235837 0
M  V30 6070 C 573.594 -1.24551 -1.5004 0
M  V30 6071 O 572.864 -0.356185 -1.92635 0
M  V30 6072 H 571.444 -0.741542 -0.0901366 0
M  V30 6073 H 574.106 -1.88887 0.480378 0
M  V30 6074 H 573.202 -3.08551 -0.469357 0
M  V30 6075 N 573.503 -0.0852151 -1.57369 0
M  V30 6076 C 574.75 0.580806 -1.93992 0
M  V30 6077 C 575.078 1.68801 -0.966252 0
M  V30 6078 O 574.333 1.95694 0.0158649 0
M  V30 6079 C 574.632 1.18482 -3.3719 0
M  V30 6080 C 574.298 0.2024 -4.50446 0
M  V30 6081 C 572.96 -0.0678318 -4.81152 0
M  V30 6082 C 575.312 -0.46895 -5.19086 0
M  V30 6083 C 572.64 -1.01627 -5.77831 0
M  V30 6084 C 574.992 -1.4058 -6.16782 0
M  V30 6085 C 573.656 -1.68436 -6.45899 0
M  V30 6086 H 572.926 0.212532 -0.709867 0
M  V30 6087 H 575.573 -0.158947 -1.90839 0
M  V30 6088 H 573.878 2.0006 -3.36873 0
M  V30 6089 H 575.575 1.70767 -3.62822 0
M  V30 6090 H 572.165 0.423208 -4.26505 0
M  V30 6091 H 576.349 -0.273307 -4.95547 0
M  V30 6092 H 571.605 -1.2392 -5.9871 0
M  V30 6093 H 575.779 -1.93188 -6.69068 0
M  V30 6094 H 573.406 -2.42088 -7.20623 0
M  V30 6095 N 574.981 1.5647 0.188427 0
M  V30 6096 C 575.928 1.95073 1.23349 0
M  V30 6097 C 576.898 0.812238 1.44886 0
M  V30 6098 O 578.083 1.07095 1.57909 0
M  V30 6099 C 575.223 2.30124 2.57171 0
M  V30 6100 C 574.336 3.57069 2.43157 0
M  V30 6101 C 573.471 3.81411 3.69729 0
M  V30 6102 C 572.51 5.0176 3.50575 0
M  V30 6103 N 571.647 5.22321 4.69175 0
M  V30 6104 H 576.487 2.84171 0.89728 0
M  V30 6105 H 574.024 1.40623 0.431683 0
M  V30 6106 H 575.982 2.48463 3.35145 0
M  V30 6107 H 574.612 1.44159 2.88822 0
M  V30 6108 H 573.664 3.4674 1.56447 0
M  V30 6109 H 574.976 4.452 2.24942 0
M  V30 6110 H 574.13 4.00026 4.56141 0
M  V30 6111 H 572.869 2.91624 3.90905 0
M  V30 6112 H 571.874 4.83061 2.62549 0
M  V30 6113 H 573.099 5.93063 3.30837 0
M  V30 6114 H 571.045 4.35483 4.90602 0
M  V30 6115 H 570.962 6.04643 4.53809 0
M  V30 6116 H 572.23 5.45401 5.56919 0
M  V30 6117 N 576.459 -0.456382 1.50847 0
M  V30 6118 C 577.392 -1.57177 1.65441 0
M  V30 6119 C 578.37 -1.54649 0.502224 0
M  V30 6120 O 579.554 -1.74057 0.723633 0
M  V30 6121 C 576.681 -2.95763 1.65052 0
M  V30 6122 C 575.727 -3.16389 2.86007 0
M  V30 6123 S 576.56 -2.94716 4.47105 0
M  V30 6124 C 577.716 -4.35617 4.49432 0
M  V30 6125 H 577.949 -1.44561 2.59787 0
M  V30 6126 H 575.482 -0.644758 1.40293 0
M  V30 6127 H 577.44 -3.75654 1.65512 0
M  V30 6128 H 576.101 -3.05756 0.719153 0
M  V30 6129 H 575.294 -4.17667 2.82081 0
M  V30 6130 H 574.896 -2.44293 2.8319 0
M  V30 6131 H 577.188 -5.28503 4.239 0
M  V30 6132 H 578.131 -4.44582 5.51137 0
M  V30 6133 H 578.539 -4.18382 3.78967 0
M  V30 6134 N 577.937 -1.40673 -0.710563 0
M  V30 6135 C 579.162 -1.42741 -1.50465 0
M  V30 6136 C 579.587 -0.0302116 -1.88076 0
M  V30 6137 O 578.945 0.962945 -1.53613 0
M  V30 6138 C 578.993 -2.32873 -2.75322 0
M  V30 6139 O 578.097 -1.77544 -3.72226 0
M  V30 6140 H 577.438 -0.485056 -0.45345 0
M  V30 6141 H 579.968 -1.84961 -0.874681 0
M  V30 6142 H 579.978 -2.48233 -3.23797 0
M  V30 6143 H 578.653 -3.34401 -2.47283 0
M  V30 6144 H 577.23 -1.71556 -3.31093 0
M  V30 6145 N 579.415 0.9433 -1.26252 0
M  V30 6146 C 580.655 1.70397 -1.1289 0
M  V30 6147 C 581.019 1.89268 0.322713 0
M  V30 6148 O 582.22 2.62503 0.578418 0
M  V30 6149 C 580.491 3.04296 -1.87453 0
M  V30 6150 S 582.05 3.95475 -1.90119 0
M  V30 6151 H 578.868 0.585559 -0.403289 0
M  V30 6152 H 581.47 1.12424 -1.59941 0
M  V30 6153 H 580.174 2.8824 -2.9214 0
M  V30 6154 H 579.705 3.67327 -1.40835 0
M  V30 6155 H 581.72 4.86297 -0.986373 0
M  V30 6156 N 580.893 1.08022 1.14757 0
M  V30 6157 C 581.826 0.650738 2.18725 0
M  V30 6158 C 582.804 -0.335496 1.59101 0
M  V30 6159 O 583.988 -0.240295 1.86962 0
M  V30 6160 C 581.115 -0.0434377 3.38672 0
M  V30 6161 C 580.161 0.90232 4.16846 0
M  V30 6162 S 580.994 2.40693 4.78359 0
M  V30 6163 C 582.15 1.72475 6.01667 0
M  V30 6164 H 582.383 1.53152 2.54817 0
M  V30 6165 H 579.916 0.894823 1.25826 0
M  V30 6166 H 581.874 -0.437684 4.0816 0
M  V30 6167 H 580.535 -0.900659 3.0091 0
M  V30 6168 H 579.728 0.363445 5.02688 0
M  V30 6169 H 579.33 1.23728 3.52941 0
M  V30 6170 H 581.622 1.0404 6.69464 0
M  V30 6171 H 582.565 2.56175 6.60136 0
M  V30 6172 H 582.973 1.19979 5.51602 0
M  V30 6173 N 582.371 -1.3172 0.865308 0
M  V30 6174 C 583.318 -2.2863 0.315736 0
M  V30 6175 C 584.288 -1.55524 -0.583213 0
M  V30 6176 O 585.473 -1.83694 -0.51585 0
M  V30 6177 C 582.613 -3.41735 -0.480773 0
M  V30 6178 C 581.726 -4.297 0.445167 0
M  V30 6179 C 580.861 -5.29944 -0.365012 0
M  V30 6180 C 579.9 -6.09554 0.557651 0
M  V30 6181 N 579.037 -7.01768 -0.215994 0
M  V30 6182 H 583.877 -2.75026 1.14736 0
M  V30 6183 H 581.414 -1.35302 0.577209 0
M  V30 6184 H 583.372 -4.06045 -0.958306 0
M  V30 6185 H 582.002 -2.96461 -1.27714 0
M  V30 6186 H 581.054 -3.65875 1.04113 0
M  V30 6187 H 582.366 -4.85295 1.15284 0
M  V30 6188 H 581.52 -5.99908 -0.905255 0
M  V30 6189 H 580.259 -4.74994 -1.106 0
M  V30 6190 H 579.264 -5.38485 1.10969 0
M  V30 6191 H 580.489 -6.66591 1.29742 0
M  V30 6192 H 578.435 -6.49232 -0.939878 0
M  V30 6193 H 578.352 -7.54762 0.432431 0
M  V30 6194 H 579.62 -7.76002 -0.737618 0
M  V30 6195 N 583.85 -0.624285 -1.44708 0
M  V30 6196 C 584.797 0.0847135 -2.30644 0
M  V30 6197 C 585.767 0.843575 -1.43084 0
M  V30 6198 O 586.952 0.825982 -1.71995 0
M  V30 6199 C 584.091 1.06495 -3.28257 0
M  V30 6200 C 583.205 0.305224 -4.3092 0
M  V30 6201 C 582.34 1.27667 -5.1563 0
M  V30 6202 C 581.379 0.505706 -6.10007 0
M  V30 6203 N 580.516 1.42727 -6.8744 0
M  V30 6204 H 585.356 -0.654068 -2.90733 0
M  V30 6205 H 582.893 -0.334334 -1.4325 0
M  V30 6206 H 584.851 1.64658 -3.83332 0
M  V30 6207 H 583.481 1.77094 -2.69884 0
M  V30 6208 H 582.533 -0.392207 -3.78373 0
M  V30 6209 H 583.845 -0.295553 -4.97924 0
M  V30 6210 H 582.999 1.92984 -5.75189 0
M  V30 6211 H 581.738 1.91137 -4.48685 0
M  V30 6212 H 580.743 -0.160999 -5.49564 0
M  V30 6213 H 581.968 -0.124183 -6.78986 0
M  V30 6214 H 579.913 2.04931 -6.23169 0
M  V30 6215 H 579.831 0.880345 -7.50857 0
M  V30 6216 H 581.099 2.0695 -7.51526 0
M  V30 6217 N 585.328 1.53329 -0.364422 0
M  V30 6218 C 586.291 2.24323 0.470292 0
M  V30 6219 C 587.291 1.25068 1.01067 0
M  V30 6220 O 588.481 1.49354 0.896605 0
M  V30 6221 C 585.613 2.97908 1.65722 0
M  V30 6222 H 586.806 2.9952 -0.150917 0
M  V30 6223 H 584.359 1.55868 -0.116092 0
M  V30 6224 H 585.094 2.2695 2.31655 0
M  V30 6225 H 584.879 3.70732 1.27671 0
M  V30 6226 H 586.369 3.5188 2.24878 0
M  V30 6227 N 586.806 0.0935595 1.57322 0
M  V30 6228 C 588.052 -0.571355 1.94585 0
M  V30 6229 C 588.385 -1.67929 0.975366 0
M  V30 6230 O 587.66 -1.94498 0.00816206 0
M  V30 6231 C 587.943 -1.12797 3.41978 0
M  V30 6232 C 587.796 -0.0251881 4.49793 0
M  V30 6233 C 589.115 -2.02682 3.90651 0
M  V30 6234 H 586.234 -0.206223 0.70756 0
M  V30 6235 H 588.876 0.163956 1.89291 0
M  V30 6236 H 587.026 -1.75461 3.4662 0
M  V30 6237 H 588.698 0.608979 4.57263 0
M  V30 6238 H 586.941 0.641399 4.29032 0
M  V30 6239 H 587.612 -0.455433 5.50118 0
M  V30 6240 H 590.088 -1.49925 3.88152 0
M  V30 6241 H 588.964 -2.38555 4.94351 0
M  V30 6242 H 589.225 -2.94362 3.29854 0
M  V30 6243 N 588.284 -1.56567 -0.180126 0
M  V30 6244 C 589.533 -1.80685 -0.896426 0
M  V30 6245 C 589.846 -0.669335 -1.83791 0
M  V30 6246 O 591.052 -0.795209 -2.59593 0
M  V30 6247 C 589.508 -3.20132 -1.6445 0
M  V30 6248 C 589.116 -4.41727 -0.747088 0
M  V30 6249 C 590.86 -3.53549 -2.34955 0
M  V30 6250 C 588.767 -5.72195 -1.49489 0
M  V30 6251 H 587.697 -0.673758 -0.338477 0
M  V30 6252 H 590.348 -1.8289 -0.149467 0
M  V30 6253 H 588.73 -3.12218 -2.43589 0
M  V30 6254 H 589.904 -4.608 0.00671129 0
M  V30 6255 H 588.219 -4.16122 -0.152134 0
M  V30 6256 H 590.816 -4.48267 -2.91481 0
M  V30 6257 H 591.159 -2.78006 -3.09868 0
M  V30 6258 H 591.692 -3.62976 -1.62768 0
M  V30 6259 H 588.431 -6.50743 -0.788251 0
M  V30 6260 H 587.951 -5.57115 -2.22224 0
M  V30 6261 H 589.63 -6.1384 -2.04472 0
M  V30 6262 N 589.762 0.448376 -1.51087 0
M  V30 6263 C 591.173 1.0286 -1.5581 0
M  V30 6264 C 591.524 1.92583 -0.374989 0
M  V30 6265 O 590.649 2.10316 0.509533 0
M  V30 6266 C 591.244 1.87223 -2.8237 0
M  V30 6267 C 589.803 2.40314 -2.897 0
M  V30 6268 C 588.95 1.19238 -2.50355 0
M  V30 6269 H 591.901 0.230075 -1.57023 0
M  V30 6270 H 591.922 2.72553 -2.6551 0
M  V30 6271 H 591.434 1.21894 -3.68461 0
M  V30 6272 H 589.535 3.09129 -2.08014 0
M  V30 6273 H 589.648 2.73866 -3.93108 0
M  V30 6274 H 588.012 1.53428 -2.03303 0
M  V30 6275 H 588.795 0.555367 -3.38778 0
M  V30 6276 N 591.24 1.41047 0.703093 0
M  V30 6277 C 592.15 1.44645 1.84703 0
M  V30 6278 C 593.166 0.337778 1.7069 0
M  V30 6279 O 594.342 0.584327 1.92737 0
M  V30 6280 C 591.407 1.31928 3.20618 0
M  V30 6281 C 590.468 2.53047 3.46794 0
M  V30 6282 C 589.701 2.40927 4.76224 0
M  V30 6283 O 589.924 1.42978 5.5219 0
M  V30 6284 O 588.858 3.30543 5.03016 0
M  V30 6285 H 592.684 2.41139 1.84624 0
M  V30 6286 H 590.269 1.22504 0.855167 0
M  V30 6287 H 592.151 1.27092 4.01778 0
M  V30 6288 H 590.826 0.385469 3.21397 0
M  V30 6289 H 589.733 2.6346 2.65593 0
M  V30 6290 H 591.066 3.45231 3.50822 0
M  V30 6291 N 592.718 -0.936591 1.26751 0
M  V30 6292 C 593.681 -2.01752 1.08761 0
M  V30 6293 C 594.681 -1.60763 0.0344435 0
M  V30 6294 O 595.871 -1.71963 0.278258 0
M  V30 6295 C 593.003 -3.34543 0.655271 0
M  V30 6296 H 594.196 -2.19143 2.04735 0
M  V30 6297 H 591.749 -1.11618 1.09413 0
M  V30 6298 H 592.484 -3.22851 -0.30626 0
M  V30 6299 H 592.269 -3.65647 1.41578 0
M  V30 6300 H 593.759 -4.13944 0.551378 0
M  V30 6301 N 594.196 -1.08629 -1.14182 0
M  V30 6302 C 595.442 -0.818556 -1.85546 0
M  V30 6303 C 595.775 0.654076 -1.82854 0
M  V30 6304 O 595.05 1.48099 -1.26083 0
M  V30 6305 C 595.333 -1.34397 -3.3408 0
M  V30 6306 C 595.186 -2.8821 -3.45333 0
M  V30 6307 C 596.505 -0.971069 -4.29253 0
M  V30 6308 H 593.624 -0.298821 -0.673702 0
M  V30 6309 H 596.266 -1.34629 -1.34071 0
M  V30 6310 H 594.416 -0.895064 -3.78049 0
M  V30 6311 H 596.088 -3.41488 -3.10134 0
M  V30 6312 H 594.331 -3.25756 -2.86471 0
M  V30 6313 H 595.002 -3.20047 -4.49749 0
M  V30 6314 H 597.478 -1.35809 -3.93313 0
M  V30 6315 H 596.354 -1.36586 -5.31635 0
M  V30 6316 H 596.615 0.121659 -4.41933 0
M  V30 6317 N 595.674 1.31259 -0.872281 0
M  V30 6318 C 596.92 1.96913 -0.485083 0
M  V30 6319 C 597.253 1.68774 0.960667 0
M  V30 6320 O 596.528 0.985495 1.67685 0
M  V30 6321 C 596.811 3.52299 -0.745502 0
M  V30 6322 C 596.664 3.90002 -2.24095 0
M  V30 6323 C 597.983 4.39582 -0.213516 0
M  V30 6324 H 595.102 0.715252 -0.177716 0
M  V30 6325 H 597.744 1.55347 -1.09395 0
M  V30 6326 H 595.894 3.87835 -0.227276 0
M  V30 6327 H 597.566 3.64555 -2.82661 0
M  V30 6328 H 595.809 3.38526 -2.71261 0
M  V30 6329 H 596.48 4.98352 -2.37381 0
M  V30 6330 H 598.956 4.10882 -0.656902 0
M  V30 6331 H 597.832 5.47251 -0.42516 0
M  V30 6332 H 598.093 4.33158 0.884666 0
M  V30 6333 N 597.152 0.631951 1.44375 0
M  V30 6334 C 598.062 -0.073674 2.34484 0
M  V30 6335 C 599.078 -0.834825 1.52665 0
M  V30 6336 O 600.254 -0.786902 1.85391 0
M  V30 6337 C 597.319 -1.04247 3.30656 0
M  V30 6338 C 596.38 -0.280602 4.28382 0
M  V30 6339 C 595.613 -1.20325 5.19959 0
M  V30 6340 O 595.836 -2.44199 5.15484 0
M  V30 6341 O 594.77 -0.687128 5.97965 0
M  V30 6342 H 598.596 0.667477 2.96274 0
M  V30 6343 H 596.181 0.392144 1.44162 0
M  V30 6344 H 598.063 -1.59981 3.89851 0
M  V30 6345 H 596.738 -1.76422 2.71398 0
M  V30 6346 H 595.645 0.319804 3.72731 0
M  V30 6347 H 596.978 0.401144 4.90563 0
M  V30 6348 N 598.631 -1.53133 0.372548 0
M  V30 6349 C 599.877 -2.01654 -0.215277 0
M  V30 6350 C 600.21 -1.25914 -1.47849 0
M  V30 6351 O 599.485 -0.3548 -1.91237 0
M  V30 6352 C 599.768 -3.56609 -0.500187 0
M  V30 6353 C 599.621 -4.43036 0.777145 0
M  V30 6354 C 600.94 -4.20528 -1.29786 0
M  V30 6355 H 598.059 -0.732991 -0.0767686 0
M  V30 6356 H 600.701 -1.83335 0.498814 0
M  V30 6357 H 598.851 -3.7235 -1.10852 0
M  V30 6358 H 600.523 -4.39079 1.41447 0
M  V30 6359 H 598.766 -4.10723 1.39604 0
M  V30 6360 H 599.437 -5.49424 0.532662 0
M  V30 6361 H 601.913 -4.08663 -0.783198 0
M  V30 6362 H 600.789 -5.28962 -1.46596 0
M  V30 6363 H 601.05 -3.77051 -2.30836 0
M  V30 6364 N 600.109 -0.101901 -1.5727 0
M  V30 6365 C 601.039 0.851544 -2.17419 0
M  V30 6366 C 602.02 1.28942 -1.10941 0
M  V30 6367 O 603.205 1.35509 -1.39107 0
M  V30 6368 C 600.335 2.10816 -2.75996 0
M  V30 6369 C 599.289 1.80867 -3.87906 0
M  V30 6370 C 598.615 3.13413 -4.33216 0
M  V30 6371 C 599.915 1.0903 -5.10793 0
M  V30 6372 H 601.609 0.350381 -2.97343 0
M  V30 6373 H 599.155 0.16709 -1.43027 0
M  V30 6374 H 601.108 2.77959 -3.16729 0
M  V30 6375 H 599.832 2.63227 -1.93337 0
M  V30 6376 H 598.491 1.16119 -3.47724 0
M  V30 6377 H 598.139 3.63725 -3.47438 0
M  V30 6378 H 597.839 2.94155 -5.08671 0
M  V30 6379 H 599.363 3.81704 -4.76586 0
M  V30 6380 H 600.777 1.66295 -5.48652 0
M  V30 6381 H 599.174 0.99927 -5.91722 0
M  V30 6382 H 600.244 0.0741704 -4.84843 0
M  V30 6383 N 601.587 1.56661 0.17182 0
M  V30 6384 C 602.864 1.72838 0.915778 0
M  V30 6385 C 603.244 0.66316 2.00413 0
M  V30 6386 O 602.592 -0.322123 2.26218 0
M  V30 6387 C 602.802 3.16019 1.48097 0
M  V30 6388 C 604.15 3.76962 1.95408 0
M  V30 6389 O 605.174 3.19294 1.57892 0
M  V30 6390 O 604.033 4.78219 2.64516 0
M  V30 6391 H 601.127 0.705797 0.431021 0
M  V30 6392 H 603.673 1.68947 0.159689 0
M  V30 6393 H 602.445 3.85031 0.697618 0
M  V30 6394 H 602.068 3.24234 2.30126 0
M  V30 6395 N 603.065 -0.440357 1.51323 0
M  V30 6396 C 604.476 -1.02032 1.56353 0
M  V30 6397 C 604.827 -1.92382 0.385197 0
M  V30 6398 O 603.952 -2.10583 -0.498373 0
M  V30 6399 C 604.547 -1.85723 2.83359 0
M  V30 6400 C 603.106 -2.38774 2.90971 0
M  V30 6401 C 602.253 -1.17908 2.50984 0
M  V30 6402 H 605.204 -0.221744 1.57143 0
M  V30 6403 H 605.225 -2.71141 2.66951 0
M  V30 6404 H 604.737 -1.19939 3.69102 0
M  V30 6405 H 602.838 -3.08021 2.09651 0
M  V30 6406 H 602.951 -2.71778 3.94555 0
M  V30 6407 H 601.315 -1.52347 2.04114 0
M  V30 6408 H 602.098 -0.537393 3.39068 0
M  V30 6409 N 604.543 -1.41418 -0.695603 0
M  V30 6410 C 605.49 -1.43264 -1.80954 0
M  V30 6411 C 606.46 -0.287016 -1.63601 0
M  V30 6412 O 607.645 -0.488054 -1.84452 0
M  V30 6413 C 604.785 -1.32054 -3.18835 0
M  V30 6414 C 603.898 -2.56485 -3.4762 0
M  V30 6415 C 603.033 -2.3757 -4.75115 0
M  V30 6416 C 602.072 -3.57477 -4.96867 0
M  V30 6417 N 601.209 -3.37632 -6.15588 0
M  V30 6418 H 606.049 -2.38467 -1.78711 0
M  V30 6419 H 603.586 -1.18415 -0.872715 0
M  V30 6420 H 605.544 -1.23558 -3.98484 0
M  V30 6421 H 604.174 -0.404592 -3.20254 0
M  V30 6422 H 603.226 -2.75432 -2.62376 0
M  V30 6423 H 604.538 -3.45678 -3.59594 0
M  V30 6424 H 603.692 -2.2654 -5.62818 0
M  V30 6425 H 602.431 -1.45834 -4.65386 0
M  V30 6426 H 601.436 -3.68961 -4.07612 0
M  V30 6427 H 602.661 -4.50167 -5.08455 0
M  V30 6428 H 600.607 -2.48596 -6.07072 0
M  V30 6429 H 600.524 -4.20401 -6.2833 0
M  V30 6430 H 601.792 -3.30375 -7.06026 0
M  V30 6431 N 606.021 0.929856 -1.27246 0
M  V30 6432 C 607.249 1.71144 -1.16265 0
M  V30 6433 C 607.664 1.867 0.280786 0
M  V30 6434 O 607.021 1.38249 1.19136 0
M  V30 6435 C 607.072 3.11222 -1.83911 0
M  V30 6436 O 606.793 2.96398 -3.22614 0
M  V30 6437 C 608.294 4.05541 -1.79028 0
M  V30 6438 H 605.514 0.535499 -0.404328 0
M  V30 6439 H 608.058 1.16492 -1.68077 0
M  V30 6440 H 606.213 3.6274 -1.36009 0
M  V30 6441 H 606.627 3.8494 -3.56261 0
M  V30 6442 H 608.101 5.01351 -2.30978 0
M  V30 6443 H 608.578 4.32589 -0.759168 0
M  V30 6444 H 609.184 3.59947 -2.26535 0
M  V30 6445 N 607.499 1.09233 1.13605 0
M  V30 6446 C 608.429 0.751738 2.21068 0
M  V30 6447 C 609.41 -0.269688 1.67948 0
M  V30 6448 O 610.595 -0.13819 1.93708 0
M  V30 6449 C 607.725 0.16935 3.46887 0
M  V30 6450 C 606.679 1.12007 4.13084 0
M  V30 6451 C 606.005 0.399483 5.33206 0
M  V30 6452 C 607.305 2.46168 4.6065 0
M  V30 6453 H 608.999 1.65024 2.49815 0
M  V30 6454 H 606.545 0.794905 1.20072 0
M  V30 6455 H 608.498 -0.0809824 4.21322 0
M  V30 6456 H 607.222 -0.764335 3.1753 0
M  V30 6457 H 605.881 1.35564 3.40614 0
M  V30 6458 H 605.529 -0.538277 5.00112 0
M  V30 6459 H 605.229 1.03337 5.78442 0
M  V30 6460 H 606.753 0.157403 6.10397 0
M  V30 6461 H 608.167 2.26829 5.26518 0
M  V30 6462 H 606.564 3.05326 5.1662 0
M  V30 6463 H 607.634 3.07076 3.75276 0
M  V30 6464 N 608.977 -1.30795 0.87923 0
M  V30 6465 C 610.226 -1.95636 0.490875 0
M  V30 6466 C 610.539 -1.70214 -0.963674 0
M  V30 6467 O 611.745 -2.28991 -1.45861 0
M  V30 6468 C 610.201 -3.50271 0.826929 0
M  V30 6469 C 609.809 -3.84521 2.29886 0
M  V30 6470 C 611.553 -4.21456 0.507494 0
M  V30 6471 C 609.46 -5.32309 2.57685 0
M  V30 6472 H 608.39 -0.732238 0.179841 0
M  V30 6473 H 611.041 -1.48829 1.07341 0
M  V30 6474 H 609.423 -3.9562 0.173542 0
M  V30 6475 H 610.597 -3.50102 2.99609 0
M  V30 6476 H 608.912 -3.26425 2.58526 0
M  V30 6477 H 611.509 -5.30199 0.692293 0
M  V30 6478 H 611.852 -4.12614 -0.552718 0
M  V30 6479 H 612.385 -3.81772 1.11782 0
M  V30 6480 H 609.124 -5.46195 3.62424 0
M  V30 6481 H 608.644 -5.68048 1.92566 0
M  V30 6482 H 610.323 -5.99678 2.42889 0
M  V30 6483 N 610.455 -0.639598 -1.44038 0
M  V30 6484 C 611.68 -0.153117 -2.06834 0
M  V30 6485 C 612.105 1.16676 -1.47541 0
M  V30 6486 O 611.463 1.71769 -0.580093 0
M  V30 6487 C 611.511 -0.0609169 -3.60549 0
M  V30 6488 O 610.615 0.98071 -4.00569 0
M  V30 6489 H 609.956 -0.0886402 -0.658057 0
M  V30 6490 H 612.486 -0.878674 -1.84771 0
M  V30 6491 H 612.496 0.126892 -4.07803 0
M  V30 6492 H 611.171 -1.0245 -4.03084 0
M  V30 6493 H 609.748 0.766789 -3.64931 0
M  V30 6494 N 611.933 1.52934 -0.380664 0
M  V30 6495 C 612.843 2.29921 0.466192 0
M  V30 6496 C 613.859 1.36488 1.07922 0
M  V30 6497 O 615.035 1.69553 1.0869 0
M  V30 6498 C 612.1 3.08468 1.58266 0
M  V30 6499 C 611.161 4.17595 0.995627 0
M  V30 6500 C 610.394 4.92387 2.05889 0
M  V30 6501 O 610.617 4.67184 3.27254 0
M  V30 6502 O 609.551 5.77949 1.68102 0
M  V30 6503 H 613.377 3.03274 -0.160735 0
M  V30 6504 H 610.962 1.48698 -0.144617 0
M  V30 6505 H 612.844 3.57469 2.23145 0
M  V30 6506 H 611.519 2.37937 2.19471 0
M  V30 6507 H 610.426 3.72811 0.310332 0
M  V30 6508 H 611.759 4.90336 0.427918 0
M  V30 6509 N 613.412 0.11024 1.57214 0
M  V30 6510 C 614.823 -0.416527 1.81994 0
M  V30 6511 C 615.174 -1.67183 1.02686 0
M  V30 6512 O 614.299 -2.14823 0.260782 0
M  V30 6513 C 614.894 -0.762466 3.30109 0
M  V30 6514 C 613.453 -1.23391 3.556 0
M  V30 6515 C 612.6 -0.238166 2.76275 0
M  V30 6516 H 615.551 0.335491 1.55113 0
M  V30 6517 H 615.572 -1.62068 3.44259 0
M  V30 6518 H 615.084 0.151346 3.87805 0
M  V30 6519 H 613.185 -2.16492 3.03253 0
M  V30 6520 H 613.298 -1.18528 4.64207 0
M  V30 6521 H 611.662 -0.723421 2.4421 0
M  V30 6522 H 612.445 0.668591 3.36727 0
M  V30 6523 N 614.89 -1.56749 -0.16351 0
M  V30 6524 C 616.13 -1.84234 -0.885271 0
M  V30 6525 C 616.494 -0.692259 -1.79086 0
M  V30 6526 O 617.695 -0.847747 -2.55082 0
M  V30 6527 C 615.966 -3.16857 -1.65337 0
M  V30 6528 S 617.525 -3.65848 -2.42282 0
M  V30 6529 H 614.343 -0.646293 -0.296354 0
M  V30 6530 H 616.945 -1.94951 -0.146365 0
M  V30 6531 H 615.649 -3.98546 -0.979266 0
M  V30 6532 H 615.18 -3.09102 -2.4335 0
M  V30 6533 H 617.195 -3.33796 -3.67143 0
M  V30 6534 N 616.368 0.432326 -1.51554 0
M  V30 6535 C 617.616 1.17901 -1.64146 0
M  V30 6536 C 617.937 1.91604 -0.362367 0
M  V30 6537 O 617.207 1.85764 0.621968 0
M  V30 6538 H 615.787 0.438206 -0.604966 0
M  V30 6539 H 618.449 0.495172 -1.88505 0
M  V30 6540 H 617.545 1.90584 -2.47152 0
M  V30 6541 N 617.846 1.41785 0.688094 0
M  V30 6542 C 619.095 1.4084 1.44385 0
M  V30 6543 C 619.408 0.0234166 1.95586 0
M  V30 6544 O 620.614 -0.108647 2.71283 0
M  V30 6545 C 619.07 2.47675 2.61123 0
M  V30 6546 C 618.678 3.92116 2.16677 0
M  V30 6547 C 620.422 2.55877 3.38714 0
M  V30 6548 C 618.329 4.90487 3.30419 0
M  V30 6549 H 617.259 0.523787 0.542368 0
M  V30 6550 H 619.91 1.6764 0.74627 0
M  V30 6551 H 618.292 2.14018 3.33185 0
M  V30 6552 H 619.466 4.35059 1.51856 0
M  V30 6553 H 617.781 3.87642 1.5206 0
M  V30 6554 H 620.378 3.26553 4.234 0
M  V30 6555 H 620.721 1.59801 3.84408 0
M  V30 6556 H 621.254 2.88662 2.73714 0
M  V30 6557 H 617.993 5.87994 2.89729 0
M  V30 6558 H 617.513 4.52187 3.94065 0
M  V30 6559 H 619.192 5.11591 3.96085 0
M  V30 6560 N 619.324 -0.923095 1.27737 0
M  V30 6561 C 620.271 -2.02432 1.1086 0
M  V30 6562 C 621.241 -1.66098 0.00835195 0
M  V30 6563 O 622.426 -1.90027 0.171542 0
M  V30 6564 C 619.566 -3.36476 0.766671 0
M  V30 6565 C 618.679 -3.85737 1.94501 0
M  V30 6566 C 617.814 -5.08249 1.54455 0
M  V30 6567 C 616.853 -5.49818 2.6901 0
M  V30 6568 N 615.99 -6.63524 2.29521 0
M  V30 6569 H 620.83 -2.16201 2.05089 0
M  V30 6570 H 618.367 -1.05909 1.02087 0
M  V30 6571 H 620.325 -4.13569 0.549223 0
M  V30 6572 H 618.955 -3.22502 -0.13867 0
M  V30 6573 H 618.007 -3.04883 2.27487 0
M  V30 6574 H 619.319 -4.12513 2.80419 0
M  V30 6575 H 618.473 -5.92857 1.28862 0
M  V30 6576 H 617.212 -4.83261 0.656534 0
M  V30 6577 H 616.217 -4.63757 2.95313 0
M  V30 6578 H 617.442 -5.76799 3.5844 0
M  V30 6579 H 615.388 -6.40185 1.43177 0
M  V30 6580 H 615.305 -6.89978 3.08977 0
M  V30 6581 H 616.573 -7.51461 2.07187 0
M  V30 6582 N 620.802 -1.09834 -1.13024 0
M  V30 6583 C 621.752 -0.710899 -2.16634 0
M  V30 6584 C 622.736 0.276836 -1.58501 0
M  V30 6585 O 623.928 0.0865457 -1.76788 0
M  V30 6586 C 621.057 -0.137574 -3.43024 0
M  V30 6587 C 620.143 -1.15198 -4.08155 0
M  V30 6588 N 620.534 -2.34054 -4.48388 0
M  V30 6589 C 618.832 -0.991074 -4.34849 0
M  V30 6590 C 619.533 -2.98616 -4.99203 0
M  V30 6591 N 618.509 -2.26159 -4.94321 0
M  V30 6592 H 622.311 -1.61576 -2.455 0
M  V30 6593 H 619.825 -0.975158 -1.29863 0
M  V30 6594 H 621.822 0.158031 -4.166 0
M  V30 6595 H 620.482 0.762088 -3.1563 0
M  V30 6596 H 621.493 -2.7162 -4.40957 0
M  V30 6597 H 618.17 -0.146448 -4.17243 0
M  V30 6598 H 619.56 -3.99683 -5.40096 0
M  V30 6599 N 622.28 1.30327 -0.886154 0
M  V30 6600 C 623.529 1.95373 -0.501243 0
M  V30 6601 C 623.842 1.70722 0.954634 0
M  V30 6602 O 625.048 2.29761 1.44644 0
M  V30 6603 C 623.504 3.49828 -0.845493 0
M  V30 6604 C 623.112 3.83296 -2.31922 0
M  V30 6605 C 624.856 4.2118 -0.529838 0
M  V30 6606 C 622.763 5.30935 -2.60504 0
M  V30 6607 H 621.693 0.731274 -0.183722 0
M  V30 6608 H 624.344 1.48258 -1.08129 0
M  V30 6609 H 622.726 3.95522 -0.19452 0
M  V30 6610 H 623.9 3.48508 -3.01461 0
M  V30 6611 H 622.215 3.2505 -2.60253 0
M  V30 6612 H 624.812 5.29825 -0.720401 0
M  V30 6613 H 625.155 4.12902 0.530828 0
M  V30 6614 H 625.688 3.81173 -1.13806 0
M  V30 6615 H 622.427 5.44265 -3.65316 0
M  V30 6616 H 621.947 5.67019 -1.95575 0
M  V30 6617 H 623.626 5.98381 -2.46066 0
M  V30 6618 N 623.758 0.647228 1.43697 0
M  V30 6619 C 625.035 0.0883758 1.954 0
M  V30 6620 C 625.415 -1.39006 1.58873 0
M  V30 6621 O 624.763 -2.11255 0.87083 0
M  V30 6622 C 624.973 0.328263 3.47453 0
M  V30 6623 C 626.321 0.230009 4.23977 0
M  V30 6624 O 627.345 0.260496 3.55246 0
M  V30 6625 O 626.204 0.148615 5.46298 0
M  V30 6626 H 623.298 -0.0130683 0.826897 0
M  V30 6627 H 625.844 0.72005 1.53666 0
M  V30 6628 H 624.616 1.3535 3.67146 0
M  V30 6629 H 624.239 -0.336772 3.96171 0
M  V30 6630 N 625.236 -1.5273 0.388769 0
M  V30 6631 C 626.476 -2.03483 -0.193372 0
M  V30 6632 C 626.84 -1.26897 -1.44087 0
M  V30 6633 O 628.041 -1.67773 -2.10014 0
M  V30 6634 C 626.312 -3.54488 -0.455325 0
M  V30 6635 S 627.871 -4.27069 -1.00783 0
M  V30 6636 H 624.689 -0.708907 -0.0545131 0
M  V30 6637 H 627.291 -1.8798 0.536993 0
M  V30 6638 H 625.995 -4.07817 0.459722 0
M  V30 6639 H 625.526 -3.74196 -1.21413 0
M  V30 6640 H 627.541 -4.40185 -2.29023 0
M  V30 6641 N 626.714 -0.118576 -1.57153 0
M  V30 6642 C 627.664 0.842924 -2.11846 0
M  V30 6643 C 628.648 1.22845 -1.03914 0
M  V30 6644 O 629.84 1.19961 -1.30148 0
M  V30 6645 C 626.969 2.09312 -2.72109 0
M  V30 6646 C 626.055 1.73198 -3.87122 0
M  V30 6647 N 626.446 1.07758 -4.94188 0
M  V30 6648 C 624.744 2.02659 -3.97298 0
M  V30 6649 C 625.445 0.907741 -5.74574 0
M  V30 6650 N 624.421 1.4326 -5.24383 0
M  V30 6651 H 628.223 0.333416 -2.92003 0
M  V30 6652 H 625.737 0.0839073 -1.62183 0
M  V30 6653 H 627.734 2.79162 -3.09635 0
M  V30 6654 H 626.394 2.60807 -1.93416 0
M  V30 6655 H 627.405 0.741613 -5.12563 0
M  V30 6656 H 624.082 2.56204 -3.29645 0
M  V30 6657 H 625.472 0.394112 -6.70743 0
M  V30 6658 N 628.193 1.56834 0.155195 0
M  V30 6659 C 629.421 1.87049 0.884326 0
M  V30 6660 C 629.836 0.705839 1.7511 0
M  V30 6661 O 629.193 -0.324641 1.79589 0
M  V30 6662 C 629.244 3.1644 1.74781 0
M  V30 6663 O 628.965 4.28417 0.915978 0
M  V30 6664 C 630.466 3.60113 2.58522 0
M  V30 6665 H 627.686 0.620196 0.25612 0
M  V30 6666 H 630.23 2.03946 0.150445 0
M  V30 6667 H 628.385 3.01321 2.43484 0
M  V30 6668 H 628.799 5.02353 1.50803 0
M  V30 6669 H 630.273 4.53508 3.14698 0
M  V30 6670 H 630.75 2.85005 3.34169 0
M  V30 6671 H 631.356 3.77898 1.95124 0
M  V30 6672 N 629.671 -0.424282 1.51781 0
M  V30 6673 C 630.899 -1.1947 1.68921 0
M  V30 6674 C 631.314 -1.84683 0.39213 0
M  V30 6675 O 630.671 -1.71261 -0.630554 0
M  V30 6676 C 630.722 -2.26909 2.81416 0
M  V30 6677 O 630.443 -1.64361 4.061 0
M  V30 6678 C 631.944 -3.16945 3.09937 0
M  V30 6679 H 629.164 -0.359591 0.566511 0
M  V30 6680 H 631.708 -0.501139 1.98265 0
M  V30 6681 H 629.863 -2.91959 2.54635 0
M  V30 6682 H 630.277 -2.35468 4.68674 0
M  V30 6683 H 631.751 -3.88437 3.922 0
M  V30 6684 H 632.228 -3.78451 2.22871 0
M  V30 6685 H 632.834 -2.57581 3.38426 0
M  V30 6686 N 631.149 -1.42148 -0.680565 0
M  V30 6687 C 632.374 -1.45901 -1.47403 0
M  V30 6688 C 632.799 -0.0700985 -1.87969 0
M  V30 6689 O 632.157 0.930145 -1.55621 0
M  V30 6690 C 632.205 -2.38661 -2.70321 0
M  V30 6691 O 631.309 -1.85399 -3.68376 0
M  V30 6692 H 630.65 -0.494565 -0.443059 0
M  V30 6693 H 633.18 -1.86774 -0.835251 0
M  V30 6694 H 633.19 -2.55046 -3.18458 0
M  V30 6695 H 631.865 -3.39571 -2.40134 0
M  V30 6696 H 630.442 -1.78541 -3.2738 0
M  V30 6697 N 632.627 0.916307 -1.28225 0
M  V30 6698 C 633.876 1.65975 -1.14608 0
M  V30 6699 C 634.189 1.93204 0.305191 0
M  V30 6700 O 635.395 2.65611 0.562432 0
M  V30 6701 C 633.851 2.98989 -2.00333 0
M  V30 6702 C 633.459 2.79417 -3.50186 0
M  V30 6703 C 635.203 3.76856 -1.95397 0
M  V30 6704 C 633.11 4.08056 -4.28071 0
M  V30 6705 H 632.04 0.622587 -0.425324 0
M  V30 6706 H 634.691 1.01705 -1.52736 0
M  V30 6707 H 633.073 3.6438 -1.5506 0
M  V30 6708 H 634.247 2.22723 -4.034 0
M  V30 6709 H 632.562 2.14966 -3.56621 0
M  V30 6710 H 635.159 4.72203 -2.50856 0
M  V30 6711 H 635.502 4.05776 -0.930137 0
M  V30 6712 H 636.035 3.1828 -2.38626 0
M  V30 6713 H 632.774 3.8431 -5.31024 0
M  V30 6714 H 632.294 4.64371 -3.79631 0
M  V30 6715 H 633.973 4.76333 -4.37854 0
M  V30 6716 N 634.105 1.10431 1.1244 0
M  V30 6717 C 635.33 0.869089 1.88313 0
M  V30 6718 C 635.755 -0.574912 1.79099 0
M  V30 6719 O 635.113 -1.40496 1.14589 0
M  V30 6720 C 635.161 1.32208 3.3549 0
M  V30 6721 O 634.265 0.487092 4.09513 0
M  V30 6722 H 633.606 0.313894 0.585121 0
M  V30 6723 H 636.136 1.47111 1.42195 0
M  V30 6724 H 636.146 1.31201 3.86329 0
M  V30 6725 H 634.821 2.37364 3.41513 0
M  V30 6726 H 633.398 0.562372 3.68635 0
M  V30 6727 N 635.583 -1.29855 0.893053 0
M  V30 6728 C 636.86 -1.90694 0.435336 0
M  V30 6729 C 637.24 -1.8111 -1.08454 0
M  V30 6730 O 636.588 -1.23352 -1.92345 0
M  V30 6731 C 636.798 -3.36033 0.942472 0
M  V30 6732 C 638.146 -4.13083 0.982226 0
M  V30 6733 O 639.17 -3.4491 0.889686 0
M  V30 6734 O 638.029 -5.34896 1.12022 0
M  V30 6735 H 635.123 -0.815978 0.134567 0
M  V30 6736 H 637.669 -1.38367 0.982484 0
M  V30 6737 H 636.441 -3.37132 1.9864 0
M  V30 6738 H 636.064 -3.95828 0.374952 0
M  V30 6739 N 637.061 -0.65484 -1.43351 0
M  V30 6740 C 637.991 0.0221809 -2.33489 0
M  V30 6741 C 638.972 0.810272 -1.49561 0
M  V30 6742 O 640.157 0.771426 -1.78221 0
M  V30 6743 C 637.287 0.988117 -3.32947 0
M  V30 6744 C 636.241 0.310026 -4.26876 0
M  V30 6745 C 635.567 1.38752 -5.16384 0
M  V30 6746 C 636.867 -0.798589 -5.16159 0
M  V30 6747 H 638.561 -0.730571 -2.9035 0
M  V30 6748 H 636.107 -0.352773 -1.39612 0
M  V30 6749 H 638.06 1.47067 -3.94904 0
M  V30 6750 H 636.784 1.77205 -2.74346 0
M  V30 6751 H 635.443 -0.152097 -3.66284 0
M  V30 6752 H 635.091 2.16293 -4.54121 0
M  V30 6753 H 634.791 0.939051 -5.80048 0
M  V30 6754 H 636.315 1.87141 -5.81215 0
M  V30 6755 H 637.729 -0.398126 -5.71916 0
M  V30 6756 H 636.126 -1.17163 -5.88552 0
M  V30 6757 H 637.196 -1.65588 -4.55751 0
M  V30 6758 N 638.539 1.52521 -0.396863 0
M  V30 6759 C 639.449 2.30403 0.44178 0
M  V30 6760 C 640.465 1.37625 1.06468 0
M  V30 6761 O 641.641 1.70697 1.06886 0
M  V30 6762 C 638.706 3.1013 1.54986 0
M  V30 6763 C 637.767 4.18628 0.951279 0
M  V30 6764 C 637 4.94543 2.00655 0
M  V30 6765 O 637.223 4.70629 3.22281 0
M  V30 6766 O 636.157 5.797 1.61962 0
M  V30 6767 H 639.983 3.03087 -0.192892 0
M  V30 6768 H 637.568 1.48537 -0.16038 0
M  V30 6769 H 639.45 3.59816 2.19341 0
M  V30 6770 H 638.125 2.40251 2.16935 0
M  V30 6771 H 637.032 3.73119 0.270773 0
M  V30 6772 H 638.365 4.90763 0.375887 0
M  V30 6773 N 640.017 0.126909 1.57088 0
M  V30 6774 C 641.264 -0.529168 1.95464 0
M  V30 6775 C 641.592 -1.6618 1.01067 0
M  V30 6776 O 640.847 -1.95667 0.0360254 0
M  V30 6777 C 641.146 -1.095 3.40212 0
M  V30 6778 C 640.812 -0.0829015 4.50824 0
M  V30 6779 C 639.474 0.195377 4.80803 0
M  V30 6780 C 641.826 0.606411 5.1766 0
M  V30 6781 C 639.154 1.16912 5.74933 0
M  V30 6782 C 641.506 1.56884 6.12838 0
M  V30 6783 C 640.17 1.85502 6.41206 0
M  V30 6784 H 639.44 -0.193636 0.715252 0
M  V30 6785 H 642.087 0.209489 1.90351 0
M  V30 6786 H 640.392 -1.91058 3.42059 0
M  V30 6787 H 642.089 -1.61087 3.67222 0
M  V30 6788 H 638.679 -0.309979 4.27478 0
M  V30 6789 H 642.863 0.404597 4.94648 0
M  V30 6790 H 638.119 1.3975 5.95214 0
M  V30 6791 H 642.293 2.10859 6.6371 0
M  V30 6792 H 639.92 2.61109 7.13951 0
M  V30 6793 N 641.495 -1.56914 -0.146875 0
M  V30 6794 C 642.72 -1.87881 -0.878386 0
M  V30 6795 C 643.145 -0.715945 -1.73942 0
M  V30 6796 O 642.503 0.334447 -1.78189 0
M  V30 6797 C 642.551 -3.17431 -1.71084 0
M  V30 6798 O 641.655 -3.01374 -2.81509 0
M  V30 6799 H 640.996 -0.617289 -0.244644 0
M  V30 6800 H 643.526 -2.04136 -0.137654 0
M  V30 6801 H 643.536 -3.49455 -2.10582 0
M  V30 6802 H 642.211 -4.01671 -1.07856 0
M  V30 6803 H 640.788 -2.80758 -2.45416 0
M  V30 6804 N 642.974 0.416227 -1.52004 0
M  V30 6805 C 644.199 1.19029 -1.69843 0
M  V30 6806 C 644.624 1.83708 -0.404103 0
M  V30 6807 O 643.982 1.69711 0.637787 0
M  V30 6808 C 644.03 2.23439 -2.83032 0
M  V30 6809 O 643.134 3.29419 -2.48106 0
M  V30 6810 H 642.475 0.347785 -0.565634 0
M  V30 6811 H 645.005 0.488871 -1.98674 0
M  V30 6812 H 645.015 2.67884 -3.07737 0
M  V30 6813 H 643.69 1.75745 -3.76944 0
M  V30 6814 H 642.267 2.90303 -2.34048 0
M  V30 6815 N 644.452 1.42507 0.673017 0
M  V30 6816 C 645.729 1.33554 1.42908 0
M  V30 6817 C 646.109 -0.0262211 2.11084 0
M  V30 6818 O 645.457 -1.04181 2.03368 0
M  V30 6819 C 645.667 2.50498 2.43006 0
M  V30 6820 C 647.015 2.92694 3.07596 0
M  V30 6821 O 648.039 2.50401 2.53333 0
M  V30 6822 O 646.898 3.65899 4.05931 0
M  V30 6823 H 643.992 0.526785 0.637516 0
M  V30 6824 H 646.538 1.54518 0.701591 0
M  V30 6825 H 645.31 3.41272 1.9144 0
M  V30 6826 H 644.933 2.3153 3.23233 0
M  V30 6827 N 645.93 -0.909495 1.28709 0
M  V30 6828 C 647.177 -1.65905 1.16111 0
M  V30 6829 C 647.505 -1.92334 -0.289436 0
M  V30 6830 O 646.76 -1.52495 -1.22653 0
M  V30 6831 C 647.059 -3.02117 1.90945 0
M  V30 6832 C 646.725 -2.95332 3.40719 0
M  V30 6833 C 645.387 -2.93189 3.81567 0
M  V30 6834 C 647.739 -2.85264 4.36204 0
M  V30 6835 C 645.067 -2.78784 5.16233 0
M  V30 6836 C 647.419 -2.724 5.70948 0
M  V30 6837 C 646.083 -2.68617 6.11066 0
M  V30 6838 H 645.353 -0.60709 0.42488 0
M  V30 6839 H 648 -1.05932 1.59533 0
M  V30 6840 H 646.305 -3.65901 1.40085 0
M  V30 6841 H 648.002 -3.59026 1.7861 0
M  V30 6842 H 644.592 -2.97797 3.08245 0
M  V30 6843 H 648.776 -2.86005 4.05605 0
M  V30 6844 H 644.032 -2.74254 5.46438 0
M  V30 6845 H 648.206 -2.63579 6.44592 0
M  V30 6846 H 645.833 -2.57213 7.15364 0
M  V30 6847 N 647.408 -1.11026 -1.11852 0
M  V30 6848 C 648.636 -0.878818 -1.87308 0
M  V30 6849 C 649.051 0.57111 -1.79955 0
M  V30 6850 O 648.408 1.39409 -1.17777 0
M  V30 6851 C 648.459 -1.3264 -3.36287 0
M  V30 6852 O 648.18 -2.71948 -3.43476 0
M  V30 6853 C 649.681 -1.12974 -4.28663 0
M  V30 6854 H 646.901 -0.315015 -0.592458 0
M  V30 6855 H 649.445 -1.47649 -1.41492 0
M  V30 6856 H 647.6 -0.772269 -3.79625 0
M  V30 6857 H 648.014 -2.91241 -4.3621 0
M  V30 6858 H 649.488 -1.49198 -5.31454 0
M  V30 6859 H 649.965 -0.0689127 -4.39146 0
M  V30 6860 H 650.571 -1.67064 -3.91113 0
M  V30 6861 N 648.886 1.2938 -0.899927 0
M  V30 6862 C 649.816 2.30144 -0.39446 0
M  V30 6863 C 650.797 1.61611 0.530639 0
M  V30 6864 O 651.982 1.89119 0.441319 0
M  V30 6865 C 649.112 3.45229 0.37868 0
M  V30 6866 C 648.066 4.25564 -0.456012 0
M  V30 6867 C 647.392 5.32848 0.444637 0
M  V30 6868 C 648.692 4.93651 -1.70605 0
M  V30 6869 H 650.386 2.72673 -1.23653 0
M  V30 6870 H 647.932 1.31086 -0.596034 0
M  V30 6871 H 649.885 4.14797 0.743037 0
M  V30 6872 H 648.609 3.01545 1.25453 0
M  V30 6873 H 647.268 3.57704 -0.802704 0
M  V30 6874 H 646.916 4.85408 1.31863 0
M  V30 6875 H 646.616 5.87497 -0.110154 0
M  V30 6876 H 648.14 6.05268 0.805182 0
M  V30 6877 H 649.554 5.55655 -1.41141 0
M  V30 6878 H 647.951 5.58233 -2.20217 0
M  V30 6879 H 649.021 4.18926 -2.4419 0
M  V30 6880 N 650.364 0.662433 1.43002 0
M  V30 6881 C 651.311 -0.0235324 2.30788 0
M  V30 6882 C 652.281 -0.805342 1.4527 0
M  V30 6883 O 653.466 -0.78009 1.74124 0
M  V30 6884 C 650.606 -0.977545 3.30965 0
M  V30 6885 C 649.719 -0.190865 4.31578 0
M  V30 6886 C 648.854 -1.13951 5.18834 0
M  V30 6887 C 647.893 -0.343796 6.11134 0
M  V30 6888 N 647.03 -1.2445 6.90982 0
M  V30 6889 H 651.87 0.730921 2.88897 0
M  V30 6890 H 649.407 0.372197 1.42313 0
M  V30 6891 H 651.365 -1.54437 3.87563 0
M  V30 6892 H 649.995 -1.69877 2.74484 0
M  V30 6893 H 649.047 0.492388 3.772 0
M  V30 6894 H 650.359 0.427464 4.96965 0
M  V30 6895 H 649.513 -1.77666 5.80103 0
M  V30 6896 H 648.252 -1.79174 4.53595 0
M  V30 6897 H 647.257 0.30665 5.48944 0
M  V30 6898 H 648.482 0.304161 6.78419 0
M  V30 6899 H 646.428 -1.88336 6.28383 0
M  V30 6900 H 646.345 -0.680959 7.52927 0
M  V30 6901 H 647.613 -1.86952 7.56749 0
M  V30 6902 N 651.842 -1.52309 0.404946 0
M  V30 6903 C 653.091 -2.00952 -0.173529 0
M  V30 6904 C 653.404 -1.29512 -1.46581 0
M  V30 6905 O 654.61 -1.6895 -2.12528 0
M  V30 6906 C 653.066 -3.58097 -0.359801 0
M  V30 6907 C 652.674 -4.38449 0.920138 0
M  V30 6908 C 654.418 -4.14984 -0.893794 0
M  V30 6909 C 652.325 -5.87227 0.701285 0
M  V30 6910 H 651.255 -0.750871 -0.0686244 0
M  V30 6911 H 653.906 -1.75687 0.529749 0
M  V30 6912 H 652.288 -3.79675 -1.12531 0
M  V30 6913 H 653.462 -4.28633 1.69147 0
M  V30 6914 H 651.777 -3.92859 1.38024 0
M  V30 6915 H 654.374 -5.23813 -1.0735 0
M  V30 6916 H 654.717 -3.72072 -1.8673 0
M  V30 6917 H 655.25 -3.97358 -0.187453 0
M  V30 6918 H 651.989 -6.34491 1.64624 0
M  V30 6919 H 651.509 -5.99792 -0.0308288 0
M  V30 6920 H 653.188 -6.46096 0.341846 0
M  V30 6921 N 653.32 -0.135238 -1.57019 0
M  V30 6922 C 654.548 0.526066 -2.001 0
M  V30 6923 C 654.963 1.59184 -1.01519 0
M  V30 6924 O 654.32 1.82497 -0.0104258 0
M  V30 6925 C 654.371 1.13744 -3.43139 0
M  V30 6926 O 654.092 0.114259 -4.37951 0
M  V30 6927 C 655.593 1.8805 -4.01438 0
M  V30 6928 H 652.813 0.137962 -0.656664 0
M  V30 6929 H 655.357 -0.226359 -2.03243 0
M  V30 6930 H 653.512 1.84056 -3.40885 0
M  V30 6931 H 653.926 0.56058 -5.21496 0
M  V30 6932 H 655.4 2.26133 -5.03555 0
M  V30 6933 H 655.877 2.76194 -3.41487 0
M  V30 6934 H 656.483 1.22464 -4.07287 0
M  V30 6935 N 654.798 1.5699 0.138552 0
M  V30 6936 C 656.214 1.51844 0.491472 0
M  V30 6937 C 656.414 0.845063 1.82923 0
M  V30 6938 O 655.47 0.419143 2.48997 0
M  V30 6939 C 656.783 2.96615 0.493987 0
M  V30 6940 C 658.331 3.076 0.578913 0
M  V30 6941 C 658.806 4.53893 0.612009 0
M  V30 6942 N 660.297 4.5827 0.673997 0
M  V30 6943 C 661.032 5.68852 0.720729 0
M  V30 6944 N 660.528 6.88982 0.726292 0
M  V30 6945 N 662.321 5.56908 0.762253 0
M  V30 6946 H 654.472 1.99158 -0.738228 0
M  V30 6947 H 656.735 0.908693 -0.270149 0
M  V30 6948 H 656.441 3.49172 -0.420933 0
M  V30 6949 H 656.315 3.53017 1.32887 0
M  V30 6950 H 658.702 2.55057 1.48425 0
M  V30 6951 H 658.783 2.54227 -0.283286 0
M  V30 6952 H 658.427 5.07076 -0.289208 0
M  V30 6953 H 658.357 5.05057 1.49082 0
M  V30 6954 H 660.848 3.71793 0.676654 0
M  V30 6955 H 661.161 7.69014 0.764032 0
M  V30 6956 H 659.506 6.91526 0.69403 0
M  V30 6957 H 662.697 4.61969 0.755135 0
M  V30 6958 H 662.87 6.43102 0.795207 0
M  V30 6959 N 656.276 -0.40816 1.52223 0
M  V30 6960 C 657.504 -1.17672 1.70179 0
M  V30 6961 C 657.919 -1.84257 0.411696 0
M  V30 6962 O 657.276 -1.7192 -0.612354 0
M  V30 6963 C 657.327 -2.23911 2.83806 0
M  V30 6964 O 657.048 -1.60044 4.0782 0
M  V30 6965 C 658.549 -3.1364 3.13281 0
M  V30 6966 H 655.769 -0.353562 0.570293 0
M  V30 6967 H 658.313 -0.480083 1.98785 0
M  V30 6968 H 656.468 -2.89242 2.57717 0
M  V30 6969 H 656.882 -2.30484 4.71145 0
M  V30 6970 H 658.356 -3.84255 3.96298 0
M  V30 6971 H 658.833 -3.76066 2.26872 0
M  V30 6972 H 659.439 -2.53977 3.41139 0
M  V30 6973 N 657.755 -1.42862 -0.66545 0
M  V30 6974 C 658.98 -1.47456 -1.45848 0
M  V30 6975 C 659.405 -0.0900312 -1.87884 0
M  V30 6976 O 658.763 0.913587 -1.56599 0
M  V30 6977 C 658.811 -2.41514 -2.67774 0
M  V30 6978 O 657.915 -1.89296 -3.66389 0
M  V30 6979 H 657.256 -0.499236 -0.437789 0
M  V30 6980 H 659.786 -1.8765 -0.815394 0
M  V30 6981 H 659.796 -2.58409 -3.15735 0
M  V30 6982 H 658.471 -3.42099 -2.36519 0
M  V30 6983 H 657.048 -1.82003 -3.25468 0
M  V30 6984 N 659.233 0.902656 -1.29189 0
M  V30 6985 C 660.166 2.00816 -1.0839 0
M  V30 6986 C 661.144 1.626 0.00335266 0
M  V30 6987 O 662.328 1.87928 -0.146765 0
M  V30 6988 C 659.455 3.32415 -0.649435 0
M  V30 6989 C 658.501 3.89617 -1.73496 0
M  V30 6990 S 659.334 4.19091 -3.33351 0
M  V30 6991 C 660.49 5.53736 -2.91766 0
M  V30 6992 H 660.723 2.18151 -2.01984 0
M  V30 6993 H 658.256 1.0489 -1.13303 0
M  V30 6994 H 660.214 4.08492 -0.405479 0
M  V30 6995 H 658.875 3.12964 0.266857 0
M  V30 6996 H 658.068 4.84658 -1.38284 0
M  V30 6997 H 657.67 3.20217 -1.93229 0
M  V30 6998 H 659.962 6.34085 -2.38627 0
M  V30 6999 H 660.905 5.93871 -3.85647 0
M  V30 7000 H 661.313 5.15453 -2.30149 0
M  V30 7001 N 660.711 1.11618 1.11262 0
M  V30 7002 C 661.951 0.876154 1.8467 0
M  V30 7003 C 662.315 -0.587551 1.82789 0
M  V30 7004 O 663.516 -0.944411 2.51663 0
M  V30 7005 C 661.787 1.42461 3.2778 0
M  V30 7006 S 663.346 1.32185 4.18417 0
M  V30 7007 H 660.164 0.31628 0.636779 0
M  V30 7008 H 662.766 1.42404 1.33946 0
M  V30 7009 H 661.47 2.48367 3.26714 0
M  V30 7010 H 661.001 0.873844 3.83572 0
M  V30 7011 H 663.016 0.287607 4.95366 0
M  V30 7012 N 662.189 -1.289 0.906776 0
M  V30 7013 C 663.417 -1.99401 0.551969 0
M  V30 7014 C 663.832 -1.67816 -0.865048 0
M  V30 7015 O 663.189 -0.927078 -1.57199 0
M  V30 7016 C 663.24 -3.53779 0.743152 0
M  V30 7017 O 662.961 -3.84248 2.1044 0
M  V30 7018 C 664.462 -4.41543 0.39424 0
M  V30 7019 H 661.682 -0.636926 0.211106 0
M  V30 7020 H 664.226 -1.64266 1.21807 0
M  V30 7021 H 662.381 -3.87201 0.124143 0
M  V30 7022 H 662.795 -4.78904 2.13895 0
M  V30 7023 H 664.269 -5.48957 0.578814 0
M  V30 7024 H 664.746 -4.34073 -0.669137 0
M  V30 7025 H 665.352 -4.13605 0.990491 0
M  V30 7026 N 663.667 -0.670007 -1.42649 0
M  V30 7027 C 664.63 0.00204659 -2.292 0
M  V30 7028 C 665.63 0.733817 -1.4308 0
M  V30 7029 O 666.82 0.57254 -1.64522 0
M  V30 7030 C 663.952 1.01359 -3.25483 0
M  V30 7031 H 665.145 -0.759696 -2.90118 0
M  V30 7032 H 662.698 -0.432105 -1.50208 0
M  V30 7033 H 663.433 1.80399 -2.69493 0
M  V30 7034 H 663.218 0.492323 -3.88997 0
M  V30 7035 H 664.708 1.4824 -3.90403 0
M  V30 7036 N 665.145 1.52092 -0.413018 0
M  V30 7037 C 666.394 2.01041 0.16287 0
M  V30 7038 C 666.707 1.30288 1.45892 0
M  V30 7039 O 667.913 1.70075 2.11629 0
M  V30 7040 C 666.369 3.58283 0.340806 0
M  V30 7041 C 665.977 4.37955 -0.943377 0
M  V30 7042 C 667.721 4.15452 0.871774 0
M  V30 7043 C 665.628 5.86847 -0.732417 0
M  V30 7044 H 664.558 0.751224 0.0646414 0
M  V30 7045 H 667.209 1.75404 -0.539059 0
M  V30 7046 H 665.591 3.80266 1.10516 0
M  V30 7047 H 666.765 4.2773 -1.71418 0
M  V30 7048 H 665.08 3.92122 -1.40105 0
M  V30 7049 H 667.677 5.24375 1.0457 0
M  V30 7050 H 668.02 3.73057 1.84755 0
M  V30 7051 H 668.553 3.97452 0.166377 0
M  V30 7052 H 665.292 6.33609 -1.67986 0
M  V30 7053 H 664.812 5.998 -0.000980058 0
M  V30 7054 H 666.491 6.45906 -0.376105 0
M  V30 7055 N 666.623 0.143563 1.56945 0
M  V30 7056 C 667.586 -0.783295 2.154 0
M  V30 7057 C 668.586 -1.17763 1.09492 0
M  V30 7058 O 669.776 -1.09912 1.35148 0
M  V30 7059 C 666.908 -2.06248 2.7143 0
M  V30 7060 H 668.101 -0.274863 2.98638 0
M  V30 7061 H 665.654 -0.105859 1.55941 0
M  V30 7062 H 666.389 -2.61466 1.91849 0
M  V30 7063 H 666.174 -1.78897 3.4891 0
M  V30 7064 H 667.664 -2.72453 3.16479 0
M  V30 7065 N 668.101 -1.57061 -0.130224 0
M  V30 7066 C 669.349 -1.83893 -0.838313 0
M  V30 7067 C 669.67 -0.727046 -1.80939 0
M  V30 7068 O 668.94 0.249927 -1.94299 0
M  V30 7069 H 667.52 -0.67846 -0.312573 0
M  V30 7070 H 670.182 -1.94529 -0.120224 0
M  V30 7071 H 669.278 -2.79419 -1.39038 0
M  V30 7072 N 669.579 0.400081 -1.52437 0
M  V30 7073 C 670.809 1.16598 -1.70553 0
M  V30 7074 C 671.217 1.8451 -0.418665 0
M  V30 7075 O 670.56 1.73069 0.615855 0
M  V30 7076 C 670.622 2.26517 -2.7916 0
M  V30 7077 C 670.286 1.78666 -4.20628 0
M  V30 7078 C 671.283 1.26946 -5.04163 0
M  V30 7079 C 668.968 1.85225 -4.66902 0
M  V30 7080 C 670.962 0.824187 -6.32049 0
M  V30 7081 C 668.649 1.40309 -5.94774 0
M  V30 7082 C 669.647 0.889922 -6.77178 0
M  V30 7083 O 669.335 0.447281 -8.02655 0
M  V30 7084 H 669.067 0.356023 -0.574651 0
M  V30 7085 H 671.621 0.475598 -1.99818 0
M  V30 7086 H 669.851 2.98946 -2.45292 0
M  V30 7087 H 671.54 2.88237 -2.85787 0
M  V30 7088 H 672.306 1.21244 -4.69601 0
M  V30 7089 H 668.185 2.24111 -4.02859 0
M  V30 7090 H 671.729 0.422958 -6.96317 0
M  V30 7091 H 667.626 1.45693 -6.28843 0
M  V30 7092 H 668.394 0.569768 -8.16514 0
M  V30 7093 N 671.057 1.43213 0.657864 0
M  V30 7094 C 672.304 1.44584 1.41781 0
M  V30 7095 C 672.632 0.0684208 1.9438 0
M  V30 7096 O 671.887 -0.925872 1.72413 0
M  V30 7097 C 672.186 2.43143 2.61947 0
M  V30 7098 C 671.852 3.89128 2.27794 0
M  V30 7099 C 670.514 4.28889 2.18191 0
M  V30 7100 C 672.866 4.81144 2.00375 0
M  V30 7101 C 670.194 5.58625 1.79319 0
M  V30 7102 C 672.546 6.11239 1.63003 0
M  V30 7103 C 671.21 6.49981 1.51922 0
M  V30 7104 H 670.48 0.529069 0.518813 0
M  V30 7105 H 673.127 1.76263 0.748577 0
M  V30 7106 H 671.432 2.04851 3.33981 0
M  V30 7107 H 673.129 2.4146 3.20153 0
M  V30 7108 H 669.719 3.57657 2.36176 0
M  V30 7109 H 673.903 4.512 2.06718 0
M  V30 7110 H 669.159 5.87486 1.69323 0
M  V30 7111 H 673.333 6.82014 1.40817 0
M  V30 7112 H 670.96 7.50416 1.21572 0
M  V30 7113 N 672.536 -0.895792 1.29666 0
M  V30 7114 C 673.813 -1.62723 1.08538 0
M  V30 7115 C 674.193 -2.07848 -0.369119 0
M  V30 7116 O 673.541 -1.8372 -1.35864 0
M  V30 7117 C 673.751 -2.80505 2.07648 0
M  V30 7118 C 675.099 -3.51098 2.3878 0
M  V30 7119 O 676.123 -2.90679 2.05874 0
M  V30 7120 O 674.982 -4.60028 2.9502 0
M  V30 7121 H 672.076 -0.714692 0.416106 0
M  V30 7122 H 674.622 -0.943517 1.41053 0
M  V30 7123 H 673.394 -2.44386 3.05599 0
M  V30 7124 H 673.017 -3.5658 1.75887 0
M  V30 7125 N 674.014 -1.12206 -1.10668 0
M  V30 7126 C 675.263 -0.870595 -1.81944 0
M  V30 7127 C 675.576 0.605447 -1.85994 0
M  V30 7128 O 676.782 0.973433 -2.53449 0
M  V30 7129 C 675.238 -1.50783 -3.26791 0
M  V30 7130 C 674.846 -3.01849 -3.31046 0
M  V30 7131 C 676.59 -1.33653 -4.02911 0
M  V30 7132 C 674.497 -3.58518 -4.70339 0
M  V30 7133 H 673.427 -0.322043 -0.681765 0
M  V30 7134 H 676.078 -1.34827 -1.24475 0
M  V30 7135 H 674.46 -0.957825 -3.84242 0
M  V30 7136 H 675.634 -3.63321 -2.83433 0
M  V30 7137 H 673.949 -3.18346 -2.68411 0
M  V30 7138 H 676.546 -1.73416 -5.05797 0
M  V30 7139 H 676.889 -0.279949 -4.15358 0
M  V30 7140 H 677.422 -1.85562 -3.51868 0
M  V30 7141 H 674.161 -4.63925 -4.63091 0
M  V30 7142 H 673.681 -3.01819 -5.18329 0
M  V30 7143 H 675.36 -3.57434 -5.39305 0
M  V30 7144 N 675.492 1.28418 -0.913599 0
M  V30 7145 C 676.722 1.98817 -0.56172 0
M  V30 7146 C 677.13 1.68457 0.861321 0
M  V30 7147 O 676.473 0.933653 1.58204 0
M  V30 7148 C 676.535 3.52801 -0.690785 0
M  V30 7149 C 676.199 4.0675 -2.08334 0
M  V30 7150 C 677.196 4.20597 -3.05604 0
M  V30 7151 C 674.881 4.41445 -2.39648 0
M  V30 7152 C 676.875 4.68392 -4.32305 0
M  V30 7153 C 674.562 4.88934 -3.66588 0
M  V30 7154 C 675.56 5.02364 -4.6273 0
M  V30 7155 O 675.248 5.48817 -5.87414 0
M  V30 7156 H 674.98 0.641608 -0.212874 0
M  V30 7157 H 677.534 1.64584 -1.22887 0
M  V30 7158 H 675.764 3.86686 0.0334336 0
M  V30 7159 H 677.453 4.04422 -0.346031 0
M  V30 7160 H 678.219 3.94067 -2.8273 0
M  V30 7161 H 674.098 4.30242 -1.65567 0
M  V30 7162 H 677.642 4.7879 -5.07352 0
M  V30 7163 H 673.539 5.14904 -3.89287 0
M  V30 7164 H 674.307 5.67103 -5.90201 0
M  V30 7165 N 676.97 0.677563 1.42291 0
M  V30 7166 C 678.217 0.200975 2.015 0
M  V30 7167 C 678.545 -1.19342 1.53583 0
M  V30 7168 O 677.8 -1.81579 0.7299 0
M  V30 7169 C 678.099 0.187229 3.56909 0
M  V30 7170 C 677.765 1.52667 4.24268 0
M  V30 7171 C 676.427 1.89341 4.42384 0
M  V30 7172 C 678.779 2.40869 4.62203 0
M  V30 7173 C 676.107 3.13836 4.95705 0
M  V30 7174 C 678.459 3.64679 5.16906 0
M  V30 7175 C 677.123 4.01519 5.33234 0
M  V30 7176 H 676.393 0.0735418 0.737342 0
M  V30 7177 H 679.04 0.873095 1.70439 0
M  V30 7178 H 677.345 -0.568407 3.87655 0
M  V30 7179 H 679.042 -0.198773 4.00507 0
M  V30 7180 H 675.632 1.23138 4.1053 0
M  V30 7181 H 679.816 2.1382 4.47878 0
M  V30 7182 H 675.072 3.42396 5.06532 0
M  V30 7183 H 679.246 4.33224 5.45243 0
M  V30 7184 H 676.873 4.98062 5.74316 0
M  V30 7185 N 678.448 -1.51871 0.421078 0
M  V30 7186 C 679.358 -2.31077 -0.405069 0
M  V30 7187 C 680.374 -1.39301 -1.04265 0
M  V30 7188 O 681.55 -1.72376 -1.04157 0
M  V30 7189 C 678.615 -3.12556 -1.50032 0
M  V30 7190 C 677.676 -4.20088 -0.884559 0
M  V30 7191 C 676.909 -4.97673 -1.92762 0
M  V30 7192 O 677.132 -4.75696 -3.14753 0
M  V30 7193 O 676.066 -5.82203 -1.52719 0
M  V30 7194 H 679.892 -3.02742 0.241086 0
M  V30 7195 H 677.477 -1.48263 0.183991 0
M  V30 7196 H 679.359 -3.6326 -2.13589 0
M  V30 7197 H 678.034 -2.43672 -2.13086 0
M  V30 7198 H 676.941 -3.73502 -0.211379 0
M  V30 7199 H 678.274 -4.91298 -0.297763 0
M  V30 7200 N 679.926 -0.151884 -1.56866 0
M  V30 7201 C 680.873 0.785936 -2.17006 0
M  V30 7202 C 681.843 1.2407 -1.10435 0
M  V30 7203 O 683.028 1.31235 -1.38499 0
M  V30 7204 C 680.168 2.01771 -2.79969 0
M  V30 7205 C 679.281 1.6083 -4.00946 0
M  V30 7206 C 678.416 2.79224 -4.51893 0
M  V30 7207 C 677.455 2.3468 -5.65324 0
M  V30 7208 N 676.592 3.461 -6.10867 0
M  V30 7209 H 681.432 0.266286 -2.96808 0
M  V30 7210 H 678.969 0.11972 -1.46612 0
M  V30 7211 H 680.927 2.73989 -3.14621 0
M  V30 7212 H 679.557 2.51139 -2.02803 0
M  V30 7213 H 678.609 0.783592 -3.72242 0
M  V30 7214 H 679.921 1.24119 -4.83111 0
M  V30 7215 H 679.075 3.59625 -4.88625 0
M  V30 7216 H 677.814 3.19183 -3.68746 0
M  V30 7217 H 676.819 1.52721 -5.28163 0
M  V30 7218 H 678.044 1.95801 -6.5026 0
M  V30 7219 H 675.99 3.85671 -5.30654 0
M  V30 7220 H 675.907 3.1342 -6.87971 0
M  V30 7221 H 677.175 4.26844 -6.52246 0
M  V30 7222 N 681.404 1.57128 0.121893 0
M  V30 7223 C 682.352 2.01109 1.16868 0
M  V30 7224 C 683.346 0.907532 1.43039 0
M  V30 7225 O 684.552 1.09274 1.43036 0
M  V30 7226 H 680.927 0.640539 0.393971 0
M  V30 7227 H 682.898 2.88261 0.771224 0
M  V30 7228 C 681.647 2.42887 2.48799 0
M  V30 7229 H 680.97 3.2737 2.29498 0
M  V30 7230 H 682.41 2.77461 3.20611 0
M  V30 7231 C 680.869 1.29137 3.11168 0
M  V30 7232 O 681.399 0.605756 3.97106 0
M  V30 7233 N 679.605 1.04916 2.71 0
M  V30 7234 H 679.152 1.60848 2.01211 0
M  V30 7235 H 679.11 0.290016 3.1306 0
M  V30 7236 N 682.882 -0.391992 1.52647 0
M  V30 7237 C 684.122 -1.1463 1.69232 0
M  V30 7238 C 684.486 -1.87312 0.421684 0
M  V30 7239 O 685.687 -2.64768 0.463852 0
M  V30 7240 C 683.958 -2.10088 2.89133 0
M  V30 7241 S 685.517 -2.93395 3.2629 0
M  V30 7242 H 682.335 -0.388076 0.59575 0
M  V30 7243 H 684.937 -0.431149 1.90687 0
M  V30 7244 H 683.641 -1.55408 3.79837 0
M  V30 7245 H 683.172 -2.86116 2.70003 0
M  V30 7246 H 685.187 -4.12193 2.76244 0
M  V30 7247 N 684.36 -1.4356 -0.65026 0
M  V30 7248 C 685.31 -1.45392 -1.75628 0
M  V30 7249 C 686.294 -0.322006 -1.57645 0
M  V30 7250 O 687.486 -0.565996 -1.67707 0
M  V30 7251 C 684.615 -1.38254 -3.1423 0
M  V30 7252 C 683.701 -2.56487 -3.3775 0
M  V30 7253 N 684.092 -3.81824 -3.31729 0
M  V30 7254 C 682.39 -2.51274 -3.6848 0
M  V30 7255 C 683.091 -4.60497 -3.55412 0
M  V30 7256 N 682.067 -3.91274 -3.77367 0
M  V30 7257 H 685.869 -2.40167 -1.69402 0
M  V30 7258 H 683.383 -1.38254 -0.852037 0
M  V30 7259 H 685.38 -1.3765 -3.9352 0
M  V30 7260 H 684.04 -0.445019 -3.21636 0
M  V30 7261 H 685.051 -4.14069 -3.11074 0
M  V30 7262 H 681.728 -1.66223 -3.82983 0
M  V30 7263 H 683.118 -5.69518 -3.5651 0
M  V30 7264 N 685.838 0.888903 -1.30139 0
M  V30 7265 C 686.786 2.0156 -1.16088 0
M  V30 7266 C 687.78 1.69239 -0.0737413 0
M  V30 7267 O 688.986 1.78468 -0.234313 0
M  V30 7268 H 685.361 0.660825 -0.358907 0
M  V30 7269 H 687.332 2.10547 -2.11453 0
M  V30 7270 C 686.081 3.36758 -0.865426 0
M  V30 7271 H 685.404 3.62137 -1.69402 0
M  V30 7272 H 686.844 4.16246 -0.807192 0
M  V30 7273 C 685.303 3.34124 0.431577 0
M  V30 7274 O 685.833 3.7445 1.45431 0
M  V30 7275 N 684.039 2.87229 0.441321 0
M  V30 7276 H 683.586 2.54609 -0.391433 0
M  V30 7277 H 683.544 2.8585 1.30909 0
M  V30 7278 N 687.317 1.12792 1.10072 0
M  V30 7279 C 688.733 0.864745 1.34143 0
M  V30 7280 C 688.933 -0.503201 1.95116 0
M  V30 7281 O 687.989 -1.25111 2.19325 0
M  V30 7282 C 689.302 1.98413 2.25949 0
M  V30 7283 C 690.85 2.01545 2.39476 0
M  V30 7284 C 691.325 3.12727 3.34613 0
M  V30 7285 N 692.816 3.12194 3.42183 0
M  V30 7286 C 693.551 3.94862 4.15779 0
M  V30 7287 N 693.047 4.87528 4.92228 0
M  V30 7288 N 694.84 3.82985 4.11435 0
M  V30 7289 H 686.991 2.00926 0.68866 0
M  V30 7290 H 689.254 0.874564 0.365844 0
M  V30 7291 H 688.96 2.97005 1.88364 0
M  V30 7292 H 688.834 1.89254 3.26287 0
M  V30 7293 H 691.221 1.0357 2.76328 0
M  V30 7294 H 691.302 2.14777 1.3894 0
M  V30 7295 H 690.946 4.10936 2.98486 0
M  V30 7296 H 690.876 2.96732 4.35037 0
M  V30 7297 H 693.367 2.45065 2.87666 0
M  V30 7298 H 693.68 5.47109 5.45794 0
M  V30 7299 H 692.025 4.91539 4.9134 0
M  V30 7300 H 695.216 3.09923 3.50807 0
M  V30 7301 H 695.389 4.47641 4.68531 0
M  V30 7302 N 688.795 -1.27931 0.920396 0
M  V30 7303 C 690.041 -1.94977 0.557832 0
M  V30 7304 C 690.374 -1.72224 -0.897365 0
M  V30 7305 O 689.649 -1.04705 -1.63912 0
M  V30 7306 C 689.932 -3.49289 0.875741 0
M  V30 7307 C 689.785 -3.81416 2.38416 0
M  V30 7308 C 691.104 -4.38486 0.376517 0
M  V30 7309 H 688.223 -0.708164 0.20414 0
M  V30 7310 H 690.865 -1.5118 1.15085 0
M  V30 7311 H 689.015 -3.86724 0.371062 0
M  V30 7312 H 690.687 -3.53813 2.95997 0
M  V30 7313 H 688.93 -3.28225 2.83639 0
M  V30 7314 H 689.601 -4.89198 2.55713 0
M  V30 7315 H 692.077 -4.08161 0.808945 0
M  V30 7316 H 690.953 -5.45296 0.627976 0
M  V30 7317 H 691.214 -4.36143 -0.723293 0
M  V30 7318 N 690.273 -0.685099 -1.4193 0
M  V30 7319 C 691.519 -0.211971 -2.01689 0
M  V30 7320 C 691.852 1.18189 -1.54094 0
M  V30 7321 O 691.127 1.79559 -0.747572 0
M  V30 7322 C 691.41 -0.258019 -3.59174 0
M  V30 7323 C 691.263 -1.68807 -4.16922 0
M  V30 7324 C 692.582 0.388044 -4.38386 0
M  V30 7325 H 689.701 -0.0784987 -0.732808 0
M  V30 7326 H 692.343 -0.871837 -1.68816 0
M  V30 7327 H 690.493 0.303832 -3.8731 0
M  V30 7328 H 692.165 -2.30296 -3.99702 0
M  V30 7329 H 690.408 -2.22553 -3.72361 0
M  V30 7330 H 691.079 -1.6719 -5.26072 0
M  V30 7331 H 693.555 -0.0903432 -4.16002 0
M  V30 7332 H 692.431 0.325232 -5.47936 0
M  V30 7333 H 692.692 1.4672 -4.17044 0
M  V30 7334 N 691.751 1.51645 -0.429126 0
M  V30 7335 C 692.998 2.02015 0.140079 0
M  V30 7336 C 693.326 1.31374 1.43427 0
M  V30 7337 O 692.581 0.414779 1.91254 0
M  V30 7338 C 692.88 3.54989 0.414472 0
M  V30 7339 C 692.546 4.43874 -0.792911 0
M  V30 7340 C 691.208 4.67887 -1.12404 0
M  V30 7341 C 693.56 4.96074 -1.59875 0
M  V30 7342 C 690.888 5.41348 -2.26184 0
M  V30 7343 C 693.24 5.70782 -2.72747 0
M  V30 7344 C 691.904 5.93062 -3.06324 0
M  V30 7345 H 691.174 0.739225 0.0512585 0
M  V30 7346 H 693.821 1.82675 -0.574641 0
M  V30 7347 H 692.126 3.72615 1.21099 0
M  V30 7348 H 693.823 3.91489 0.868173 0
M  V30 7349 H 690.413 4.25374 -0.524871 0
M  V30 7350 H 694.597 4.77412 -1.35614 0
M  V30 7351 H 689.853 5.56815 -2.52522 0
M  V30 7352 H 694.027 6.10221 -3.35564 0
M  V30 7353 H 691.654 6.49764 -3.94602 0
M  V30 7354 N 693.229 0.160201 1.56784 0
M  V30 7355 C 694.454 -0.497373 2.01348 0
M  V30 7356 C 694.879 -1.56757 1.03966 0
M  V30 7357 O 694.237 -1.81292 0.0174455 0
M  V30 7358 C 694.285 -1.0628 3.44582 0
M  V30 7359 O 693.389 -2.17723 3.50244 0
M  V30 7360 H 692.73 -0.120295 0.653012 0
M  V30 7361 H 695.26 0.260821 2.02931 0
M  V30 7362 H 695.27 -1.38819 3.83658 0
M  V30 7363 H 693.945 -0.279166 4.14962 0
M  V30 7364 H 692.522 -1.86313 3.2302 0
M  V30 7365 N 694.707 -1.5719 -0.113559 0
M  V30 7366 C 695.935 -1.89328 -0.834422 0
M  V30 7367 C 696.35 -0.752018 -1.73177 0
M  V30 7368 O 695.707 0.276912 -1.80387 0
M  V30 7369 C 695.758 -3.20962 -1.66329 0
M  V30 7370 O 695.479 -4.30695 -0.802069 0
M  V30 7371 C 696.98 -3.6684 -2.48884 0
M  V30 7372 H 694.2 -0.626769 -0.239587 0
M  V30 7373 H 696.744 -2.04273 -0.0963195 0
M  V30 7374 H 694.899 -3.0767 -2.35409 0
M  V30 7375 H 695.313 -5.06175 -1.37431 0
M  V30 7376 H 696.787 -4.61692 -3.02563 0
M  V30 7377 H 697.264 -2.93765 -3.26495 0
M  V30 7378 H 697.87 -3.82938 -1.85036 0
M  V30 7379 N 696.185 0.383891 -1.52853 0
M  V30 7380 C 697.433 1.12619 -1.67814 0
M  V30 7381 C 697.754 1.90354 -0.423141 0
M  V30 7382 O 697.024 1.87649 0.562554 0
M  V30 7383 H 695.604 0.418738 -0.618601 0
M  V30 7384 H 698.266 0.43495 -1.89985 0
M  V30 7385 H 697.362 1.82624 -2.5309 0
M  V30 7386 N 697.663 1.43903 0.642637 0
M  V30 7387 C 699.074 1.40975 1.22404 0
M  V30 7388 C 699.425 0.1192 1.95838 0
M  V30 7389 O 698.55 -0.780939 2.01818 0
M  V30 7390 C 699.145 2.5538 2.22636 0
M  V30 7391 C 697.704 2.55684 2.76229 0
M  V30 7392 C 696.851 2.32556 1.51039 0
M  V30 7393 H 699.802 1.5265 0.434006 0
M  V30 7394 H 699.823 2.27474 3.05017 0
M  V30 7395 H 699.335 3.49294 1.69161 0
M  V30 7396 H 697.436 1.65679 3.33738 0
M  V30 7397 H 697.549 3.53799 3.23053 0
M  V30 7398 H 695.913 1.81427 1.78764 0
M  V30 7399 H 696.696 3.28569 0.99484 0
M  V30 7400 N 699.141 -0.881989 1.30609 0
M  V30 7401 C 700.073 -1.99375 1.13058 0
M  V30 7402 C 701.086 -1.62636 0.0729879 0
M  V30 7403 O 702.275 -1.75621 0.319301 0
M  V30 7404 C 699.375 -3.31536 0.702651 0
M  V30 7405 C 698.548 -3.96693 1.84265 0
M  V30 7406 C 697.607 -5.07158 1.40277 0
M  V30 7407 O 696.633 -5.28628 2.11048 0
M  V30 7408 N 697.835 -5.79808 0.283449 0
M  V30 7409 H 700.6 -2.14981 2.08814 0
M  V30 7410 H 698.161 -1.05526 1.22784 0
M  V30 7411 H 700.153 -4.02804 0.391331 0
M  V30 7412 H 698.723 -3.12175 -0.162954 0
M  V30 7413 H 697.943 -3.1856 2.32192 0
M  V30 7414 H 699.231 -4.36964 2.60653 0
M  V30 7415 H 698.629 -5.64871 -0.306189 0
M  V30 7416 H 697.186 -6.51792 0.0315985 0
M  V30 7417 N 700.619 -1.13374 -1.09472 0
M  V30 7418 C 701.844 -0.918711 -1.85942 0
M  V30 7419 C 702.269 0.527225 -1.8056 0
M  V30 7420 O 701.627 1.37408 -1.18274 0
M  V30 7421 C 701.675 -1.41056 -3.31867 0
M  V30 7422 O 700.779 -0.595496 -4.08078 0
M  V30 7423 H 700.12 -0.329297 -0.576593 0
M  V30 7424 H 702.65 -1.50829 -1.38245 0
M  V30 7425 H 702.66 -1.41398 -3.82715 0
M  V30 7426 H 701.335 -2.46335 -3.35099 0
M  V30 7427 H 699.912 -0.659911 -3.67014 0
M  V30 7428 N 702.098 1.27442 -0.927168 0
M  V30 7429 C 703.326 1.98498 -0.583622 0
M  V30 7430 C 703.741 1.69171 0.838241 0
M  V30 7431 O 703.098 0.951969 1.55704 0
M  V30 7432 C 703.149 3.52552 -0.799341 0
M  V30 7433 O 702.87 3.80851 -2.16527 0
M  V30 7434 C 704.371 4.4086 -0.464436 0
M  V30 7435 H 701.591 0.633487 -0.221213 0
M  V30 7436 H 704.135 1.62308 -1.24404 0
M  V30 7437 H 702.29 3.86955 -0.185728 0
M  V30 7438 H 702.704 4.75441 -2.21487 0
M  V30 7439 H 704.178 5.47967 -0.666075 0
M  V30 7440 H 704.655 4.35082 0.599995 0
M  V30 7441 H 705.261 4.11977 -1.05617 0
M  V30 7442 N 703.576 0.692616 1.41565 0
M  V30 7443 C 704.523 0.0254264 2.30786 0
M  V30 7444 C 705.493 -0.774347 1.46946 0
M  V30 7445 O 706.678 -0.742981 1.7574 0
M  V30 7446 C 703.818 -0.907123 3.32964 0
M  V30 7447 C 702.931 -0.0992784 4.31886 0
M  V30 7448 C 702.066 -1.0292 5.21134 0
M  V30 7449 C 701.105 -0.214088 6.11725 0
M  V30 7450 N 700.242 -1.09766 6.93467 0
M  V30 7451 H 705.082 0.792036 2.87282 0
M  V30 7452 H 702.619 0.4023 1.41492 0
M  V30 7453 H 704.577 -1.46181 3.90752 0
M  V30 7454 H 703.207 -1.64016 2.78026 0
M  V30 7455 H 702.259 0.572287 3.76071 0
M  V30 7456 H 703.571 0.532782 4.95946 0
M  V30 7457 H 702.725 -1.65321 5.83741 0
M  V30 7458 H 701.464 -1.69512 4.57293 0
M  V30 7459 H 700.469 0.42302 5.4817 0
M  V30 7460 H 701.694 0.447995 6.77621 0
M  V30 7461 H 699.64 -1.74965 6.32237 0
M  V30 7462 H 699.557 -0.521099 7.54202 0
M  V30 7463 H 700.825 -1.70858 7.60544 0
M  V30 7464 N 705.054 -1.51416 0.437162 0
M  V30 7465 C 706.282 -2.06503 -0.128045 0
M  V30 7466 C 706.697 -1.30461 -1.36475 0
M  V30 7467 O 706.054 -0.364127 -1.78831 0
M  V30 7468 C 706.105 -3.58683 -0.450437 0
M  V30 7469 O 705.826 -4.31853 0.737186 0
M  V30 7470 C 707.327 -4.30284 -1.06633 0
M  V30 7471 H 704.547 -0.670952 -0.00800269 0
M  V30 7472 H 707.091 -1.94996 0.616193 0
M  V30 7473 H 705.246 -3.70106 -1.14457 0
M  V30 7474 H 705.66 -5.22467 0.461347 0
M  V30 7475 H 707.134 -5.37848 -1.24191 0
M  V30 7476 H 707.611 -3.88564 -2.0473 0
M  V30 7477 H 708.217 -4.23304 -0.411585 0
M  V30 7478 N 706.532 -0.168513 -1.56696 0
M  V30 7479 C 707.482 0.7751 -2.14421 0
M  V30 7480 C 708.466 1.19476 -1.07769 0
M  V30 7481 O 709.658 1.15759 -1.33898 0
M  V30 7482 C 706.787 2.00549 -2.7863 0
M  V30 7483 C 705.873 1.60795 -3.92436 0
M  V30 7484 N 706.264 0.919812 -4.97366 0
M  V30 7485 C 704.562 1.89917 -4.03544 0
M  V30 7486 C 705.263 0.724485 -5.77171 0
M  V30 7487 N 704.239 1.26505 -5.28675 0
M  V30 7488 H 708.041 0.240349 -2.92916 0
M  V30 7489 H 705.555 0.0322675 -1.62368 0
M  V30 7490 H 707.552 2.6917 -3.1836 0
M  V30 7491 H 706.212 2.54522 -2.01615 0
M  V30 7492 H 707.223 0.578169 -5.14663 0
M  V30 7493 H 703.9 2.45587 -3.37629 0
M  V30 7494 H 705.29 0.180521 -6.71657 0
M  V30 7495 N 708.01 1.57248 0.105221 0
M  V30 7496 C 709.256 1.86719 0.806692 0
M  V30 7497 C 709.611 0.758061 1.76837 0
M  V30 7498 O 708.904 -0.240812 1.90081 0
M  V30 7499 C 709.098 3.20437 1.58287 0
M  V30 7500 C 708.927 4.44252 0.697864 0
M  V30 7501 C 707.697 5.04104 0.347444 0
M  V30 7502 C 709.895 5.14299 0.00933014 0
M  V30 7503 N 707.877 6.1146 -0.546786 0
M  V30 7504 C 709.248 6.15528 -0.74336 0
M  V30 7505 C 711.303 4.97857 -0.0656505 0
M  V30 7506 C 710.006 7.02091 -1.56401 0
M  V30 7507 C 712.032 5.84919 -0.873167 0
M  V30 7508 C 711.394 6.8566 -1.61401 0
M  V30 7509 H 707.493 0.73329 0.271679 0
M  V30 7510 H 710.077 1.94575 0.0697152 0
M  V30 7511 H 708.248 3.13651 2.29079 0
M  V30 7512 H 709.98 3.37668 2.23075 0
M  V30 7513 H 706.735 4.68505 0.692817 0
M  V30 7514 H 707.159 6.69779 -0.986157 0
M  V30 7515 H 711.801 4.19919 0.492768 0
M  V30 7516 H 709.519 7.79427 -2.13353 0
M  V30 7517 H 713.105 5.74259 -0.933724 0
M  V30 7518 H 711.985 7.5186 -2.2288 0
M  V30 7519 N 709.488 -0.375779 1.53054 0
M  V30 7520 C 710.435 -1.45978 1.78771 0
M  V30 7521 C 711.405 -1.53625 0.631552 0
M  V30 7522 O 712.59 -1.69674 0.872667 0
M  V30 7523 C 709.73 -2.8305 1.97425 0
M  V30 7524 C 708.843 -2.84451 3.25134 0
M  V30 7525 C 707.978 -4.13034 3.34031 0
M  V30 7526 C 707.017 -4.08536 4.55812 0
M  V30 7527 N 706.154 -5.2875 4.61918 0
M  V30 7528 H 710.994 -1.23349 2.71273 0
M  V30 7529 H 708.531 -0.598147 1.3439 0
M  V30 7530 H 710.489 -3.62666 2.06225 0
M  V30 7531 H 709.119 -3.04101 1.0827 0
M  V30 7532 H 708.171 -1.97127 3.25338 0
M  V30 7533 H 709.483 -2.76998 4.14818 0
M  V30 7534 H 708.637 -5.0106 3.42087 0
M  V30 7535 H 707.376 -4.23226 2.42345 0
M  V30 7536 H 706.381 -3.18897 4.47867 0
M  V30 7537 H 707.606 -3.99955 5.48828 0
M  V30 7538 H 705.552 -5.39547 3.73129 0
M  V30 7539 H 705.469 -5.23426 5.45492 0
M  V30 7540 H 706.737 -6.18637 4.74245 0
M  V30 7541 N 710.966 -1.44241 -0.634997 0
M  V30 7542 C 711.898 -1.46793 -1.76024 0
M  V30 7543 C 712.911 -0.361781 -1.58729 0
M  V30 7544 O 714.1 -0.627297 -1.67114 0
M  V30 7545 C 711.2 -1.28248 -3.13697 0
M  V30 7546 C 710.373 -2.52038 -3.57485 0
M  V30 7547 C 709.432 -2.2845 -4.74022 0
M  V30 7548 O 708.458 -3.01915 -4.82531 0
M  V30 7549 N 709.66 -1.31264 -5.65464 0
M  V30 7550 H 712.425 -2.43797 -1.74307 0
M  V30 7551 H 709.986 -1.39631 -0.819438 0
M  V30 7552 H 711.978 -1.10321 -3.89373 0
M  V30 7553 H 710.548 -0.39623 -3.10079 0
M  V30 7554 H 709.768 -2.85268 -2.72059 0
M  V30 7555 H 711.056 -3.34382 -3.83492 0
M  V30 7556 H 710.454 -0.705817 -5.6128 0
M  V30 7557 H 709.011 -1.19316 -6.40786 0
M  V30 7558 N 712.444 0.87505 -1.31075 0
M  V30 7559 C 713.672 1.66058 -1.23419 0
M  V30 7560 C 714.087 1.87723 0.201347 0
M  V30 7561 O 713.444 1.43178 1.13165 0
M  V30 7562 C 713.495 3.03142 -1.96945 0
M  V30 7563 O 713.216 2.82448 -3.34895 0
M  V30 7564 C 714.717 3.97583 -1.96067 0
M  V30 7565 H 711.937 0.517868 -0.426677 0
M  V30 7566 H 714.481 1.09258 -1.72867 0
M  V30 7567 H 712.636 3.56645 -1.51271 0
M  V30 7568 H 713.05 3.69483 -3.72267 0
M  V30 7569 H 714.524 4.91104 -2.52034 0
M  V30 7570 H 715.001 4.2898 -0.941961 0
M  V30 7571 H 715.607 3.50015 -2.41597 0
M  V30 7572 N 713.922 1.13953 1.08869 0
M  V30 7573 C 715.168 0.906151 1.8143 0
M  V30 7574 C 715.501 -0.566089 1.85766 0
M  V30 7575 O 714.776 -1.41915 1.33006 0
M  V30 7576 C 715.059 1.50183 3.27287 0
M  V30 7577 C 714.912 3.04359 3.31189 0
M  V30 7578 C 716.231 1.17477 4.24131 0
M  V30 7579 H 713.35 0.330624 0.658678 0
M  V30 7580 H 715.992 1.40873 1.27495 0
M  V30 7581 H 714.142 1.07442 3.73348 0
M  V30 7582 H 715.814 3.55896 2.93488 0
M  V30 7583 H 714.057 3.39053 2.70602 0
M  V30 7584 H 714.728 3.41141 4.33966 0
M  V30 7585 H 717.204 1.5442 3.86385 0
M  V30 7586 H 716.08 1.61795 5.24513 0
M  V30 7587 H 716.341 0.0893312 4.4201 0
M  V30 7588 N 715.4 -1.26948 0.933913 0
M  V30 7589 C 716.647 -1.94087 0.577625 0
M  V30 7590 C 716.975 -1.73345 -0.88214 0
M  V30 7591 O 716.23 -1.05945 -1.64542 0
M  V30 7592 C 716.529 -3.46963 0.857406 0
M  V30 7593 C 716.195 -3.87834 2.2999 0
M  V30 7594 C 714.857 -3.98704 2.69423 0
M  V30 7595 C 717.209 -4.08442 3.23766 0
M  V30 7596 C 714.537 -4.27573 4.01744 0
M  V30 7597 C 716.889 -4.38798 4.55675 0
M  V30 7598 C 715.553 -4.47881 4.94934 0
M  V30 7599 H 714.823 -0.710215 0.211368 0
M  V30 7600 H 717.47 -1.50899 1.17905 0
M  V30 7601 H 715.775 -3.91416 0.173369 0
M  V30 7602 H 717.472 -3.97062 0.560615 0
M  V30 7603 H 714.062 -3.79916 1.98399 0
M  V30 7604 H 718.246 -3.99479 2.94499 0
M  V30 7605 H 713.502 -4.32815 4.31834 0
M  V30 7606 H 717.676 -4.5369 5.28335 0
M  V30 7607 H 715.303 -4.70005 5.97495 0
M  V30 7608 N 716.879 -0.700114 -1.41195 0
M  V30 7609 C 717.809 -0.0521132 -2.33442 0
M  V30 7610 C 718.79 0.76228 -1.52063 0
M  V30 7611 O 719.975 0.714336 -1.80585 0
M  V30 7612 C 717.105 0.881693 -3.35922 0
M  V30 7613 C 716.059 0.174062 -4.27646 0
M  V30 7614 C 715.385 1.22254 -5.20536 0
M  V30 7615 C 716.685 -0.962396 -5.13357 0
M  V30 7616 H 718.379 -0.822574 -2.87879 0
M  V30 7617 H 715.925 -0.397011 -1.38419 0
M  V30 7618 H 717.878 1.34429 -3.99383 0
M  V30 7619 H 716.602 1.68387 -2.79845 0
M  V30 7620 H 715.261 -0.268551 -3.65615 0
M  V30 7621 H 714.909 2.01736 -4.60773 0
M  V30 7622 H 714.609 0.754038 -5.82742 0
M  V30 7623 H 716.133 1.68555 -5.86874 0
M  V30 7624 H 717.547 -0.579875 -5.7036 0
M  V30 7625 H 715.944 -1.35828 -5.84526 0
M  V30 7626 H 717.014 -1.80003 -4.50252 0
M  V30 7627 N 718.357 1.51182 -0.445186 0
M  V30 7628 C 719.287 2.30821 0.352686 0
M  V30 7629 C 720.268 1.36576 1.01395 0
M  V30 7630 O 721.453 1.65497 1.01609 0
M  V30 7631 C 718.583 3.15593 1.44976 0
M  V30 7632 C 717.537 4.1818 0.911553 0
M  V30 7633 C 716.863 4.91523 2.10497 0
M  V30 7634 C 718.163 5.22266 -0.059418 0
M  V30 7635 H 719.857 2.97771 -0.311936 0
M  V30 7636 H 717.403 1.43201 -0.151461 0
M  V30 7637 H 719.356 3.70091 2.01521 0
M  V30 7638 H 718.08 2.4648 2.14278 0
M  V30 7639 H 716.739 3.64746 0.368264 0
M  V30 7640 H 716.387 4.18906 2.78437 0
M  V30 7641 H 716.087 5.60898 1.7512 0
M  V30 7642 H 717.611 5.48847 2.6758 0
M  V30 7643 H 719.025 5.71789 0.415985 0
M  V30 7644 H 717.422 5.99213 -0.326152 0
M  V30 7645 H 718.492 4.7461 -0.993631 0
M  V30 7646 N 719.835 0.176821 1.56605 0
M  V30 7647 C 720.745 -0.763682 2.21822 0
M  V30 7648 C 721.761 -1.24889 1.21156 0
M  V30 7649 O 722.937 -1.29987 1.53836 0
M  V30 7650 C 720.002 -1.97352 2.8505 0
M  V30 7651 C 719.063 -1.53466 4.00932 0
M  V30 7652 C 718.296 -2.68682 4.61135 0
M  V30 7653 O 718.519 -3.85694 4.20234 0
M  V30 7654 O 717.453 -2.42442 5.50913 0
M  V30 7655 H 721.279 -0.238363 3.02763 0
M  V30 7656 H 718.864 -0.0516331 1.49311 0
M  V30 7657 H 720.746 -2.68096 3.25119 0
M  V30 7658 H 719.421 -2.48779 2.07101 0
M  V30 7659 H 718.328 -0.796551 3.65521 0
M  V30 7660 H 719.661 -1.06724 4.8049 0
M  V30 7661 N 721.313 -1.57302 -0.09688 0
M  V30 7662 C 722.26 -2.01933 -1.11766 0
M  V30 7663 C 723.23 -0.895329 -1.39904 0
M  V30 7664 O 724.415 -1.16119 -1.51397 0
M  V30 7665 C 721.555 -2.44726 -2.43317 0
M  V30 7666 C 720.668 -3.70639 -2.21925 0
M  V30 7667 C 719.803 -4.02318 -3.46862 0
M  V30 7668 C 718.842 -5.21346 -3.20725 0
M  V30 7669 N 717.979 -5.48787 -4.37924 0
M  V30 7670 H 722.819 -2.88919 -0.730075 0
M  V30 7671 H 720.356 -1.42901 -0.348962 0
M  V30 7672 H 722.314 -2.6758 -3.20088 0
M  V30 7673 H 720.944 -1.60753 -2.79926 0
M  V30 7674 H 719.996 -3.55271 -1.35965 0
M  V30 7675 H 721.308 -4.57557 -1.98603 0
M  V30 7676 H 720.462 -4.25939 -4.32042 0
M  V30 7677 H 719.201 -3.13918 -3.73238 0
M  V30 7678 H 718.206 -4.97547 -2.33938 0
M  V30 7679 H 719.431 -6.11343 -2.95697 0
M  V30 7680 H 717.377 -4.63346 -4.64378 0
M  V30 7681 H 717.294 -6.30073 -4.17785 0
M  V30 7682 H 718.562 -5.76943 -5.24173 0
M  V30 7683 N 722.791 0.367657 -1.53252 0
M  V30 7684 C 724.202 0.944563 -1.61043 0
M  V30 7685 C 724.553 1.90325 -0.476546 0
M  V30 7686 O 723.678 2.12721 0.397333 0
M  V30 7687 C 724.273 1.71992 -2.91898 0
M  V30 7688 C 722.832 2.2462 -3.02031 0
M  V30 7689 C 721.979 1.05799 -2.56324 0
M  V30 7690 H 724.93 0.146516 -1.58022 0
M  V30 7691 H 724.951 2.58095 -2.79584 0
M  V30 7692 H 724.463 1.02192 -3.74404 0
M  V30 7693 H 722.564 2.97668 -2.24108 0
M  V30 7694 H 722.677 2.52644 -4.07073 0
M  V30 7695 H 721.041 1.42435 -2.1115 0
M  V30 7696 H 721.824 0.375008 -3.41246 0
M  V30 7697 N 724.269 1.44576 0.627338 0
M  V30 7698 C 725.516 1.47558 1.38682 0
M  V30 7699 C 725.844 0.109636 1.94191 0
M  V30 7700 O 725.099 -0.889092 1.74338 0
M  V30 7701 C 725.398 2.48644 2.56731 0
M  V30 7702 C 725.064 3.93873 2.19489 0
M  V30 7703 C 723.726 4.33421 2.09045 0
M  V30 7704 C 726.078 4.85286 1.90124 0
M  V30 7705 C 723.406 5.62303 1.6743 0
M  V30 7706 C 725.758 6.14559 1.50001 0
M  V30 7707 C 724.422 6.53058 1.38101 0
M  V30 7708 H 723.692 0.539955 0.507474 0
M  V30 7709 H 726.339 1.77811 0.711021 0
M  V30 7710 H 724.644 2.11889 3.29561 0
M  V30 7711 H 726.341 2.48197 3.14959 0
M  V30 7712 H 722.931 3.62587 2.28537 0
M  V30 7713 H 727.115 4.55483 1.971 0
M  V30 7714 H 722.371 5.90945 1.56823 0
M  V30 7715 H 726.545 6.84848 1.26319 0
M  V30 7716 H 724.172 7.52826 1.05628 0
M  V30 7717 N 725.747 -0.868086 1.31537 0
M  V30 7718 C 726.972 -1.65926 1.24432 0
M  V30 7719 C 727.397 -1.87169 -0.186936 0
M  V30 7720 O 726.755 -1.4148 -1.13371 0
M  V30 7721 C 726.803 -3.00347 1.9956 0
M  V30 7722 O 725.907 -3.90221 1.33422 0
M  V30 7723 H 725.248 -0.506375 0.429512 0
M  V30 7724 H 727.778 -1.0822 1.73637 0
M  V30 7725 H 727.788 -3.50269 2.09226 0
M  V30 7726 H 726.463 -2.84205 3.03645 0
M  V30 7727 H 725.04 -3.48672 1.32219 0
M  V30 7728 N 727.225 -1.14528 -1.08264 0
M  V30 7729 C 728.471 -0.91576 -1.80947 0
M  V30 7730 C 728.804 0.55623 -1.86064 0
M  V30 7731 O 728.079 1.41207 -1.33756 0
M  V30 7732 C 728.362 -1.51917 -3.26486 0
M  V30 7733 C 728.215 -3.06111 -3.2957 0
M  V30 7734 C 729.534 -1.19724 -4.23502 0
M  V30 7735 H 726.653 -0.334113 -0.656915 0
M  V30 7736 H 729.295 -1.41547 -1.26746 0
M  V30 7737 H 727.445 -1.0942 -3.72773 0
M  V30 7738 H 729.117 -3.57448 -2.91597 0
M  V30 7739 H 727.36 -3.40483 -2.688 0
M  V30 7740 H 728.031 -3.43438 -4.32151 0
M  V30 7741 H 730.507 -1.56467 -3.85561 0
M  V30 7742 H 729.383 -1.64575 -5.23647 0
M  V30 7743 H 729.644 -0.112771 -4.41956 0
M  V30 7744 N 728.703 1.26451 -0.940633 0
M  V30 7745 C 729.65 2.264 -0.448497 0
M  V30 7746 C 730.62 1.5866 0.491546 0
M  V30 7747 O 731.805 1.86389 0.407874 0
M  V30 7748 C 728.945 3.43956 0.280715 0
M  V30 7749 C 728.058 4.26374 -0.694937 0
M  V30 7750 C 727.193 5.31171 0.0554186 0
M  V30 7751 C 726.232 6.05266 -0.912091 0
M  V30 7752 N 725.369 7.01833 -0.193524 0
M  V30 7753 H 730.209 2.67869 -1.30576 0
M  V30 7754 H 727.746 1.31707 -0.655112 0
M  V30 7755 H 729.704 4.10941 0.71994 0
M  V30 7756 H 728.334 3.03403 1.10212 0
M  V30 7757 H 727.386 3.59183 -1.25267 0
M  V30 7758 H 728.698 4.77748 -1.43382 0
M  V30 7759 H 727.852 6.04166 0.553951 0
M  V30 7760 H 726.591 4.80634 0.827183 0
M  V30 7761 H 725.596 5.31099 -1.42175 0
M  V30 7762 H 726.821 6.57893 -1.68385 0
M  V30 7763 H 724.767 6.53607 0.559758 0
M  V30 7764 H 724.684 7.50957 -0.871744 0
M  V30 7765 H 725.952 7.78983 0.283932 0
M  V30 7766 N 730.181 0.707592 1.40822 0
M  V30 7767 C 731.144 0.0587224 2.29125 0
M  V30 7768 C 732.144 -0.695624 1.44975 0
M  V30 7769 O 733.334 -0.528718 1.65983 0
M  V30 7770 C 730.466 -0.926939 3.28056 0
M  V30 7771 H 731.659 0.836349 2.88002 0
M  V30 7772 H 729.212 0.471778 1.4901 0
M  V30 7773 H 729.947 -1.7319 2.74182 0
M  V30 7774 H 729.732 -0.389015 3.90165 0
M  V30 7775 H 731.222 -1.37837 3.94196 0
M  V30 7776 N 731.66 -1.50943 0.453197 0
M  V30 7777 C 732.908 -2.01813 -0.107709 0
M  V30 7778 C 733.229 -1.33841 -1.41816 0
M  V30 7779 O 732.499 -0.477973 -1.8998 0
M  V30 7780 H 731.079 -0.745773 -0.0427948 0
M  V30 7781 H 733.741 -1.8545 0.599531 0
M  V30 7782 H 732.837 -3.10911 -0.27218 0
M  V30 7783 N 733.138 -0.185124 -1.56509 0
M  V30 7784 C 734.048 0.751908 -2.22224 0
M  V30 7785 C 735.064 1.24244 -1.21817 0
M  V30 7786 O 736.24 1.29169 -1.54523 0
M  V30 7787 C 733.305 1.95837 -2.86092 0
M  V30 7788 C 732.366 1.51337 -4.01741 0
M  V30 7789 C 731.599 2.66233 -4.62554 0
M  V30 7790 O 731.822 3.8346 -4.22273 0
M  V30 7791 O 730.756 2.39517 -5.52191 0
M  V30 7792 H 734.582 0.222304 -3.02885 0
M  V30 7793 H 732.167 0.0437141 -1.49336 0
M  V30 7794 H 734.049 2.66368 -3.26536 0
M  V30 7795 H 732.724 2.47677 -2.08417 0
M  V30 7796 H 731.631 0.777155 -3.65939 0
M  V30 7797 H 732.964 1.04175 -4.81049 0
M  V30 7798 N 734.616 1.57351 0.0885366 0
M  V30 7799 C 735.579 2.01557 1.09121 0
M  V30 7800 C 736.579 0.910052 1.3257 0
M  V30 7801 O 737.769 1.17537 1.28572 0
M  V30 7802 C 734.901 2.38189 2.43883 0
M  V30 7803 H 736.094 2.91361 0.710562 0
M  V30 7804 H 733.647 1.52694 0.333779 0
M  V30 7805 H 734.382 1.5136 2.86811 0
M  V30 7806 H 734.167 3.18846 2.28209 0
M  V30 7807 H 735.657 2.73025 3.15986 0
M  V30 7808 N 736.094 -0.359525 1.53444 0
M  V30 7809 C 737.024 -1.44662 1.8329 0
M  V30 7810 C 738.005 -1.55617 0.68683 0
M  V30 7811 O 739.19 -1.70086 0.93725 0
M  V30 7812 C 736.32 -2.81923 2.02822 0
M  V30 7813 C 735.274 -2.85787 3.18606 0
M  V30 7814 C 734.6 -4.25781 3.23442 0
M  V30 7815 C 735.9 -2.52762 4.57065 0
M  V30 7816 H 737.594 -1.19934 2.74329 0
M  V30 7817 H 735.14 -0.575517 1.31999 0
M  V30 7818 H 737.093 -3.58005 2.22285 0
M  V30 7819 H 735.817 -3.08051 1.085 0
M  V30 7820 H 734.476 -2.12157 2.98973 0
M  V30 7821 H 734.124 -4.48994 2.26745 0
M  V30 7822 H 733.824 -4.29281 4.01238 0
M  V30 7823 H 735.348 -5.03727 3.45096 0
M  V30 7824 H 736.762 -3.18557 4.76649 0
M  V30 7825 H 735.159 -2.67569 5.37147 0
M  V30 7826 H 736.229 -1.47993 4.61764 0
M  V30 7827 N 737.572 -1.44907 -0.619662 0
M  V30 7828 C 738.519 -1.52654 -1.73105 0
M  V30 7829 C 739.489 -0.373334 -1.6185 0
M  V30 7830 O 740.674 -0.585143 -1.81606 0
M  V30 7831 C 737.814 -1.48769 -3.11387 0
M  V30 7832 C 736.927 -2.74551 -3.33535 0
M  V30 7833 C 736.062 -2.62421 -4.61854 0
M  V30 7834 C 735.101 -3.83312 -4.77219 0
M  V30 7835 N 734.238 -3.69789 -5.96826 0
M  V30 7836 H 739.078 -2.47605 -1.65819 0
M  V30 7837 H 736.615 -1.22875 -0.808719 0
M  V30 7838 H 738.573 -1.44507 -3.91374 0
M  V30 7839 H 737.203 -0.573783 -3.1766 0
M  V30 7840 H 736.255 -2.88953 -2.47408 0
M  V30 7841 H 737.567 -3.64253 -3.40765 0
M  V30 7842 H 736.721 -2.56056 -5.50019 0
M  V30 7843 H 735.46 -1.70298 -4.57001 0
M  V30 7844 H 734.465 -3.90049 -3.87481 0
M  V30 7845 H 735.69 -4.76486 -4.83878 0
M  V30 7846 H 733.636 -2.80426 -5.93041 0
M  V30 7847 H 733.553 -4.53116 -6.05163 0
M  V30 7848 H 734.821 -3.67335 -6.87521 0
M  V30 7849 N 739.05 0.861098 -1.31996 0
M  V30 7850 C 740.298 1.61162 -1.21947 0
M  V30 7851 C 740.619 1.93751 0.220351 0
M  V30 7852 O 739.889 1.59069 1.14341 0
M  V30 7853 H 738.469 0.597485 -0.448353 0
M  V30 7854 H 741.131 1.03039 -1.65436 0
M  V30 7855 H 740.227 2.55138 -1.79752 0
M  V30 7856 N 740.528 1.15101 1.07655 0
M  V30 7857 C 741.475 0.844958 2.14777 0
M  V30 7858 C 742.445 -0.200798 1.64882 0
M  V30 7859 O 743.63 -0.0690278 1.90675 0
M  V30 7860 C 740.77 0.337018 3.4345 0
M  V30 7861 C 739.883 1.44398 4.07153 0
M  V30 7862 C 739.018 0.892487 5.23649 0
M  V30 7863 C 738.057 1.9766 5.79307 0
M  V30 7864 N 737.194 1.44171 6.87138 0
M  V30 7865 H 742.034 1.76242 2.40297 0
M  V30 7866 H 739.571 0.879435 1.17917 0
M  V30 7867 H 741.529 0.024256 4.17193 0
M  V30 7868 H 740.159 -0.543531 3.18191 0
M  V30 7869 H 739.211 1.87299 3.31094 0
M  V30 7870 H 740.523 2.26262 4.4453 0
M  V30 7871 H 739.677 0.532083 6.04362 0
M  V30 7872 H 738.416 0.0429854 4.87681 0
M  V30 7873 H 737.421 2.34586 4.97242 0
M  V30 7874 H 738.646 2.82982 6.17331 0
M  V30 7875 H 736.592 0.614518 6.53115 0
M  V30 7876 H 736.509 2.19665 7.23383 0
M  V30 7877 H 737.777 1.10945 7.71564 0
M  V30 7878 N 742.006 -1.2595 0.947325 0
M  V30 7879 C 743.252 -1.9375 0.599064 0
M  V30 7880 C 743.585 -1.74088 -0.860632 0
M  V30 7881 O 742.86 -1.08158 -1.61654 0
M  V30 7882 C 743.143 -3.47353 0.949634 0
M  V30 7883 C 742.996 -3.76273 2.46452 0
M  V30 7884 C 744.315 -4.37589 0.469442 0
M  V30 7885 H 741.434 -0.703674 0.219115 0
M  V30 7886 H 744.076 -1.48705 1.18266 0
M  V30 7887 H 742.226 -3.8585 0.453008 0
M  V30 7888 H 743.898 -3.47455 3.03435 0
M  V30 7889 H 742.141 -3.22135 2.90537 0
M  V30 7890 H 742.812 -4.83664 2.66032 0
M  V30 7891 H 745.288 -4.06353 0.89534 0
M  V30 7892 H 744.164 -5.43841 0.7435 0
M  V30 7893 H 744.425 -4.37579 -0.630618 0
M  V30 7894 N 743.484 -0.715051 -1.40445 0
M  V30 7895 C 744.712 -0.263959 -2.05209 0
M  V30 7896 C 745.127 1.09403 -1.53871 0
M  V30 7897 O 744.484 1.68746 -0.695064 0
M  V30 7898 C 744.535 -0.234545 -3.60738 0
M  V30 7899 O 744.256 -1.53891 -4.10182 0
M  V30 7900 C 745.757 0.235164 -4.42676 0
M  V30 7901 H 742.977 -0.11876 -0.660407 0
M  V30 7902 H 745.521 -0.973107 -1.79864 0
M  V30 7903 H 743.676 0.425563 -3.85055 0
M  V30 7904 H 744.09 -1.43903 -5.04373 0
M  V30 7905 H 745.564 0.204598 -5.51621 0
M  V30 7906 H 746.041 1.27724 -4.20218 0
M  V30 7907 H 746.647 -0.394649 -4.23465 0
M  V30 7908 N 744.962 1.50701 -0.461195 0
M  V30 7909 C 746.208 2.02566 0.0973411 0
M  V30 7910 C 746.541 1.3432 1.40257 0
M  V30 7911 O 745.816 0.465692 1.88843 0
M  V30 7912 C 746.099 3.58919 0.291423 0
M  V30 7913 C 745.952 4.37751 -1.03413 0
M  V30 7914 C 747.271 4.27379 1.05048 0
M  V30 7915 H 744.39 0.73622 0.0339026 0
M  V30 7916 H 747.032 1.80115 -0.604855 0
M  V30 7917 H 745.182 3.78179 0.889539 0
M  V30 7918 H 746.854 4.30085 -1.66806 0
M  V30 7919 H 745.097 4.01885 -1.63313 0
M  V30 7920 H 745.768 5.45384 -0.852085 0
M  V30 7921 H 748.244 4.12534 0.543603 0
M  V30 7922 H 747.12 5.36609 1.15506 0
M  V30 7923 H 747.381 3.89868 2.0846 0
M  V30 7924 N 746.441 0.193421 1.56409 0
M  V30 7925 C 747.391 -0.74089 2.15627 0
M  V30 7926 C 748.375 -1.17747 1.09656 0
M  V30 7927 O 749.567 -1.13615 1.35723 0
M  V30 7928 C 746.696 -1.96091 2.81786 0
M  V30 7929 C 745.782 -1.54531 3.94944 0
M  V30 7930 N 746.173 -0.840569 4.98767 0
M  V30 7931 C 744.471 -1.83473 4.06514 0
M  V30 7932 C 745.172 -0.632571 5.7825 0
M  V30 7933 N 744.148 -1.18078 5.30621 0
M  V30 7934 H 747.95 -0.193718 2.93261 0
M  V30 7935 H 745.464 -0.00643211 1.62399 0
M  V30 7936 H 747.461 -2.64071 3.22602 0
M  V30 7937 H 746.121 -2.51282 2.05639 0
M  V30 7938 H 747.132 -0.496218 5.15517 0
M  V30 7939 H 743.809 -2.40184 3.41493 0
M  V30 7940 H 745.199 -0.0736433 6.7186 0
M  V30 7941 N 747.919 -1.57396 -0.0801906 0
M  V30 7942 C 748.866 -2.03107 -1.09618 0
M  V30 7943 C 749.836 -0.910118 -1.38946 0
M  V30 7944 O 751.021 -1.17719 -1.50156 0
M  V30 7945 C 748.161 -2.47293 -2.40708 0
M  V30 7946 C 747.274 -3.72972 -2.17982 0
M  V30 7947 C 746.409 -4.05975 -3.42576 0
M  V30 7948 C 745.448 -5.24719 -3.15177 0
M  V30 7949 N 744.585 -5.53401 -4.32078 0
M  V30 7950 H 749.425 -2.89677 -0.69939 0
M  V30 7951 H 746.962 -1.43263 -0.333785 0
M  V30 7952 H 748.92 -2.7096 -3.17232 0
M  V30 7953 H 747.55 -1.63713 -2.78205 0
M  V30 7954 H 746.602 -3.56693 -1.32189 0
M  V30 7955 H 747.914 -4.59638 -1.93738 0
M  V30 7956 H 747.068 -4.30498 -4.275 0
M  V30 7957 H 745.807 -3.17859 -3.69887 0
M  V30 7958 H 744.812 -5 -2.28648 0
M  V30 7959 H 746.037 -6.14445 -2.89197 0
M  V30 7960 H 743.983 -4.68245 -4.59437 0
M  V30 7961 H 743.9 -6.34469 -4.11078 0
M  V30 7962 H 745.168 -5.8247 -5.18024 0
M  V30 7963 N 749.397 0.351382 -1.53633 0
M  V30 7964 C 750.622 1.11718 -1.74739 0
M  V30 7965 C 751.047 1.81829 -0.481657 0
M  V30 7966 O 750.405 1.72264 0.565233 0
M  V30 7967 C 750.453 2.11234 -2.92254 0
M  V30 7968 O 749.557 3.186 -2.61855 0
M  V30 7969 H 748.898 0.323482 -0.579875 0
M  V30 7970 H 751.428 0.404167 -2.00568 0
M  V30 7971 H 751.438 2.54591 -3.18822 0
M  V30 7972 H 750.113 1.59599 -3.84058 0
M  V30 7973 H 748.69 2.80115 -2.4615 0
M  V30 7974 N 750.875 1.45233 0.611969 0
M  V30 7975 C 751.822 1.5357 1.72293 0
M  V30 7976 C 752.792 0.381912 1.6165 0
M  V30 7977 O 753.977 0.594765 1.81293 0
M  V30 7978 C 751.117 1.50419 3.10593 0
M  V30 7979 C 750.23 2.76316 3.32074 0
M  V30 7980 C 749.365 2.64866 4.60456 0
M  V30 7981 C 748.404 3.85838 4.7518 0
M  V30 7982 N 747.541 3.72949 5.94856 0
M  V30 7983 H 752.381 2.4848 1.64504 0
M  V30 7984 H 749.918 1.23302 0.802191 0
M  V30 7985 H 751.876 1.4658 3.90602 0
M  V30 7986 H 750.506 0.590621 3.17351 0
M  V30 7987 H 749.558 2.90261 2.45872 0
M  V30 7988 H 750.87 3.66055 3.38829 0
M  V30 7989 H 750.024 2.58969 5.48653 0
M  V30 7990 H 748.763 1.72719 4.56092 0
M  V30 7991 H 747.768 3.92099 3.85407 0
M  V30 7992 H 748.993 4.79045 4.81344 0
M  V30 7993 H 746.939 2.83567 5.91545 0
M  V30 7994 H 746.856 4.56319 6.02751 0
M  V30 7995 H 748.124 3.70976 6.85563 0
M  V30 7996 N 752.353 -0.854086 1.3245 0
M  V30 7997 C 753.3 -1.96271 1.21434 0
M  V30 7998 C 754.27 -1.6582 0.0963851 0
M  V30 7999 O 755.455 -1.88851 0.27203 0
M  V30 8000 C 752.595 -3.31939 0.943952 0
M  V30 8001 C 751.708 -3.74885 2.14675 0
M  V30 8002 C 750.843 -4.99347 1.81179 0
M  V30 8003 C 749.882 -5.34785 2.97777 0
M  V30 8004 N 749.019 -6.50425 2.6437 0
M  V30 8005 H 753.859 -2.05025 2.16261 0
M  V30 8006 H 751.396 -1.00348 1.07558 0
M  V30 8007 H 753.354 -4.10076 0.767675 0
M  V30 8008 H 751.984 -3.22784 0.0324763 0
M  V30 8009 H 751.036 -2.92396 2.43328 0
M  V30 8010 H 752.348 -3.97068 3.01891 0
M  V30 8011 H 751.502 -5.85193 1.60107 0
M  V30 8012 H 750.241 -4.79101 0.911777 0
M  V30 8013 H 749.246 -4.47451 3.1948 0
M  V30 8014 H 750.471 -5.56988 3.88511 0
M  V30 8015 H 748.417 -6.31695 1.7691 0
M  V30 8016 H 748.334 -6.7263 3.45116 0
M  V30 8017 H 749.602 -7.39422 2.46729 0
M  V30 8018 N 753.831 -1.1567 -1.07043 0
M  V30 8019 C 755.108 -0.843948 -1.76456 0
M  V30 8020 C 755.488 0.659806 -2.00524 0
M  V30 8021 O 754.836 1.60518 -1.62623 0
M  V30 8022 C 755.046 -1.65822 -3.0709 0
M  V30 8023 C 756.394 -1.8664 -3.8138 0
M  V30 8024 O 757.418 -1.62624 -3.1691 0
M  V30 8025 O 756.277 -2.26884 -4.97178 0
M  V30 8026 H 753.371 -0.310677 -0.766426 0
M  V30 8027 H 755.917 -1.26266 -1.1338 0
M  V30 8028 H 754.689 -2.67902 -2.85209 0
M  V30 8029 H 754.312 -1.23605 -3.77899 0
M  V30 8030 N 755.309 1.25446 -0.953992 0
M  V30 8031 C 756.72 1.75047 -0.649255 0
M  V30 8032 C 757.071 1.77527 0.835385 0
M  V30 8033 O 756.196 1.39569 1.65377 0
M  V30 8034 C 756.791 3.17889 -1.17183 0
M  V30 8035 C 755.35 3.65052 -0.917267 0
M  V30 8036 C 754.497 2.44124 -1.31525 0
M  V30 8037 H 757.448 1.11342 -1.13087 0
M  V30 8038 H 757.469 3.76768 -0.531616 0
M  V30 8039 H 756.981 3.16052 -2.25239 0
M  V30 8040 H 755.082 3.72305 0.148354 0
M  V30 8041 H 755.195 4.53222 -1.55328 0
M  V30 8042 H 753.559 2.43906 -0.733624 0
M  V30 8043 H 754.342 2.44979 -2.405 0
M  V30 8044 N 756.787 0.722489 1.40064 0
M  V30 8045 C 758.203 0.396758 1.5459 0
M  V30 8046 C 758.403 -1.09375 1.69232 0
M  V30 8047 O 757.459 -1.87984 1.68578 0
M  V30 8048 C 758.772 1.16885 2.77053 0
M  V30 8049 C 760.32 1.15583 2.90877 0
M  V30 8050 C 760.795 1.91023 4.16262 0
M  V30 8051 N 762.286 1.88126 4.23276 0
M  V30 8052 C 763.021 2.43315 5.19216 0
M  V30 8053 N 762.517 3.07089 6.21022 0
M  V30 8054 N 764.31 2.33418 5.11344 0
M  V30 8055 H 756.461 1.68887 1.28806 0
M  V30 8056 H 758.724 0.714231 0.62336 0
M  V30 8057 H 758.43 2.22301 2.72534 0
M  V30 8058 H 758.304 0.765011 3.69361 0
M  V30 8059 H 760.691 0.10984 2.94896 0
M  V30 8060 H 760.772 1.59895 1.99668 0
M  V30 8061 H 760.416 2.95616 4.13006 0
M  V30 8062 H 760.346 1.44126 5.06493 0
M  V30 8063 H 762.837 1.41654 3.50346 0
M  V30 8064 H 763.15 3.467 6.90666 0
M  V30 8065 H 761.495 3.11175 6.21446 0
M  V30 8066 H 764.686 1.83248 4.30741 0
M  V30 8067 H 764.859 2.7673 5.85939 0
M  V30 8068 N 758.265 -1.50454 0.469181 0
M  V30 8069 C 759.49 -2.0722 -0.0864892 0
M  V30 8070 C 759.915 -1.33098 -1.32916 0
M  V30 8071 O 759.273 -0.378084 -1.77314 0
M  V30 8072 C 759.321 -3.58845 -0.355384 0
M  V30 8073 O 758.425 -3.86583 -1.43622 0
M  V30 8074 H 757.766 -0.663889 0.0121414 0
M  V30 8075 H 760.296 -1.93674 0.659674 0
M  V30 8076 H 760.306 -4.03617 -0.596447 0
M  V30 8077 H 758.981 -4.12211 0.552698 0
M  V30 8078 H 757.558 -3.5365 -1.18262 0
M  V30 8079 N 759.743 -0.201713 -1.56304 0
M  V30 8080 C 760.673 0.71155 -2.22394 0
M  V30 8081 C 761.654 1.21625 -1.18917 0
M  V30 8082 O 762.839 1.26388 -1.47444 0
M  V30 8083 C 759.969 1.92837 -2.88845 0
M  V30 8084 C 758.923 1.55831 -3.98623 0
M  V30 8085 C 758.249 2.85228 -4.52271 0
M  V30 8086 C 759.549 0.763249 -5.16693 0
M  V30 8087 H 761.243 0.160573 -2.98969 0
M  V30 8088 H 758.789 0.0757916 -1.438 0
M  V30 8089 H 760.742 2.57253 -3.33764 0
M  V30 8090 H 759.466 2.50398 -2.09686 0
M  V30 8091 H 758.125 0.9377 -3.54405 0
M  V30 8092 H 757.773 3.40893 -3.69866 0
M  V30 8093 H 757.473 2.6121 -5.26349 0
M  V30 8094 H 758.997 3.50622 -4.99897 0
M  V30 8095 H 760.411 1.31066 -5.58117 0
M  V30 8096 H 758.808 0.620935 -5.96879 0
M  V30 8097 H 759.878 -0.234322 -4.84334 0
M  V30 8098 N 761.222 1.57436 0.0718424 0
M  V30 8099 C 762.45 1.91474 0.783932 0
M  V30 8100 C 762.865 0.797669 1.71122 0
M  V30 8101 O 762.222 -0.228989 1.81058 0
M  V30 8102 C 762.273 3.25259 1.57761 0
M  V30 8103 O 761.994 4.3267 0.687596 0
M  V30 8104 C 763.495 3.7331 2.3907 0
M  V30 8105 H 760.715 0.632901 0.222885 0
M  V30 8106 H 763.259 2.04457 0.0421262 0
M  V30 8107 H 761.414 3.13804 2.27169 0
M  V30 8108 H 761.828 5.09641 1.23962 0
M  V30 8109 H 763.302 4.69551 2.90216 0
M  V30 8110 H 763.779 3.02318 3.18591 0
M  V30 8111 H 764.385 3.8771 1.74818 0
M  V30 8112 N 762.7 -0.34323 1.53817 0
M  V30 8113 C 763.946 -1.08504 1.71332 0
M  V30 8114 C 764.279 -1.88294 0.475285 0
M  V30 8115 O 763.554 -1.87205 -0.527688 0
M  V30 8116 C 763.837 -2.02597 2.97702 0
M  V30 8117 C 763.69 -1.26268 4.31713 0
M  V30 8118 C 765.009 -3.0241 3.19744 0
M  V30 8119 H 762.128 -0.393072 0.623429 0
M  V30 8120 H 764.77 -0.363579 1.86489 0
M  V30 8121 H 762.92 -2.64118 2.8491 0
M  V30 8122 H 764.592 -0.673594 4.56356 0
M  V30 8123 H 762.835 -0.564696 4.30109 0
M  V30 8124 H 763.506 -1.95253 5.16314 0
M  V30 8125 H 765.982 -2.51004 3.31868 0
M  V30 8126 H 764.858 -3.65449 4.09558 0
M  V30 8127 H 765.119 -3.73806 2.36054 0
M  V30 8128 N 764.178 -1.45556 -0.604258 0
M  V30 8129 C 765.406 -1.53278 -1.38973 0
M  V30 8130 C 765.821 -0.166509 -1.88064 0
M  V30 8131 O 765.178 0.832519 -1.62405 0
M  V30 8132 C 765.229 -2.51992 -2.59195 0
M  V30 8133 O 764.95 -3.8331 -2.12143 0
M  V30 8134 C 766.451 -2.69445 -3.52015 0
M  V30 8135 H 763.671 -0.519003 -0.425297 0
M  V30 8136 H 766.215 -1.90773 -0.736621 0
M  V30 8137 H 764.37 -2.17561 -3.2054 0
M  V30 8138 H 764.784 -4.3685 -2.90279 0
M  V30 8139 H 766.258 -3.42485 -4.32907 0
M  V30 8140 H 766.735 -1.75596 -4.0257 0
M  V30 8141 H 767.341 -3.04886 -2.9652 0
M  V30 8142 N 765.656 0.84705 -1.32902 0
M  V30 8143 C 766.586 1.97166 -1.25091 0
M  V30 8144 C 767.567 1.69578 -0.133161 0
M  V30 8145 O 768.752 1.91519 -0.321591 0
M  V30 8146 C 765.882 3.33157 -0.981006 0
M  V30 8147 C 764.836 3.75119 -2.06082 0
M  V30 8148 C 764.162 5.08826 -1.64318 0
M  V30 8149 C 765.462 3.89774 -3.47669 0
M  V30 8150 H 767.156 2.03958 -2.19184 0
M  V30 8151 H 764.702 0.979907 -1.05517 0
M  V30 8152 H 766.655 4.11393 -0.912891 0
M  V30 8153 H 765.379 3.266 -0.00445559 0
M  V30 8154 H 764.038 2.9914 -2.11921 0
M  V30 8155 H 763.686 4.98732 -0.653876 0
M  V30 8156 H 763.386 5.37873 -2.36572 0
M  V30 8157 H 764.91 5.89546 -1.58958 0
M  V30 8158 H 766.324 4.58343 -3.44376 0
M  V30 8159 H 764.721 4.30248 -4.18338 0
M  V30 8160 H 765.791 2.92463 -3.86773 0
M  V30 8161 N 767.134 1.16236 1.06428 0
M  V30 8162 C 768.362 0.967184 1.82902 0
M  V30 8163 C 768.777 -0.484601 1.82475 0
M  V30 8164 O 768.134 -1.33631 1.24294 0
M  V30 8165 C 768.185 1.48534 3.29576 0
M  V30 8166 O 767.906 2.88026 3.3011 0
M  V30 8167 C 769.407 1.33298 4.22784 0
M  V30 8168 H 766.627 0.342923 0.576754 0
M  V30 8169 H 769.171 1.54232 1.34286 0
M  V30 8170 H 767.326 0.952513 3.75508 0
M  V30 8171 H 767.74 3.11721 4.21818 0
M  V30 8172 H 769.214 1.74385 5.23731 0
M  V30 8173 H 769.691 0.278356 4.38317 0
M  V30 8174 H 770.297 1.85535 3.82697 0
M  V30 8175 N 768.612 -1.24939 0.960631 0
M  V30 8176 C 769.542 -2.28 0.503815 0
M  V30 8177 C 770.523 -1.63959 -0.452928 0
M  V30 8178 O 771.708 -1.91009 -0.350585 0
M  V30 8179 C 768.838 -3.46643 -0.213535 0
M  V30 8180 C 767.792 -4.22903 0.658535 0
M  V30 8181 C 767.118 -5.34363 -0.189902 0
M  V30 8182 C 768.418 -4.84949 1.93963 0
M  V30 8183 H 770.112 -2.66462 1.36521 0
M  V30 8184 H 767.658 -1.28093 0.657897 0
M  V30 8185 H 769.611 -4.1787 -0.544286 0
M  V30 8186 H 768.335 -3.07187 -1.10923 0
M  V30 8187 H 766.994 -3.53467 0.972455 0
M  V30 8188 H 766.642 -4.91147 -1.08553 0
M  V30 8189 H 766.342 -5.86302 0.390331 0
M  V30 8190 H 767.866 -6.0842 -0.515484 0
M  V30 8191 H 769.28 -5.48288 1.67491 0
M  V30 8192 H 767.677 -5.47091 2.46601 0
M  V30 8193 H 768.747 -4.06799 2.639 0
M  V30 8194 N 770.09 -0.729906 -1.39679 0
M  V30 8195 C 771.038 -0.0756589 -2.32477 0
M  V30 8196 C 772.032 0.731438 -1.52795 0
M  V30 8197 O 773.238 0.633195 -1.68495 0
M  V30 8198 H 769.613 -0.00566492 -0.751979 0
M  V30 8199 H 771.584 -0.874797 -2.85289 0
M  V30 8200 C 770.333 0.821313 -3.37861 0
M  V30 8201 H 769.656 0.209666 -3.9925 0
M  V30 8202 H 771.096 1.24679 -4.05254 0
M  V30 8203 C 769.555 1.9533 -2.74495 0
M  V30 8204 O 770.085 3.04548 -2.61942 0
M  V30 8205 N 768.291 1.74119 -2.3266 0
M  V30 8206 H 767.838 0.852908 -2.4307 0
M  V30 8207 H 767.796 2.50036 -1.90603 0
M  V30 8208 N 771.568 1.50203 -0.477153 0
M  V30 8209 C 772.516 2.30278 0.327826 0
M  V30 8210 C 773.51 1.37831 0.984839 0
M  V30 8211 O 774.716 1.54994 0.915251 0
M  V30 8212 H 771.091 0.741612 0.124564 0
M  V30 8213 H 773.062 2.96124 -0.367853 0
M  V30 8214 C 771.811 3.18548 1.39365 0
M  V30 8215 H 771.134 3.89596 0.897475 0
M  V30 8216 H 772.574 3.77561 1.92934 0
M  V30 8217 C 771.033 2.36548 2.39889 0
M  V30 8218 O 771.563 2.05282 3.45286 0
M  V30 8219 N 769.769 1.99015 2.11758 0
M  V30 8220 H 769.316 2.24641 1.26071 0
M  V30 8221 H 769.274 1.44454 2.7925 0
M  V30 8222 N 773.046 0.209999 1.56195 0
M  V30 8223 C 774.271 -0.433064 2.02828 0
M  V30 8224 C 774.696 -1.5337 1.08901 0
M  V30 8225 O 774.054 -1.81144 0.0751132 0
M  V30 8226 C 774.102 -0.952635 3.47789 0
M  V30 8227 O 773.206 -2.0647 3.56993 0
M  V30 8228 H 772.547 -0.0994594 0.656509 0
M  V30 8229 H 775.077 0.32525 2.01998 0
M  V30 8230 H 775.087 -1.26542 3.8788 0
M  V30 8231 H 773.762 -0.147007 4.1564 0
M  V30 8232 H 772.339 -1.75942 3.28784 0
M  V30 8233 N 774.524 -1.57472 -0.0634922 0
M  V30 8234 C 775.752 -1.91887 -0.773767 0
M  V30 8235 C 776.167 -0.806733 -1.70696 0
M  V30 8236 O 775.524 0.219383 -1.81177 0
M  V30 8237 C 775.575 -3.26092 -1.56034 0
M  V30 8238 O 775.296 -4.33029 -0.66464 0
M  V30 8239 C 776.797 -3.74573 -2.37087 0
M  V30 8240 H 774.017 -0.634074 -0.219525 0
M  V30 8241 H 776.561 -2.04476 -0.0312828 0
M  V30 8242 H 774.716 -3.15004 -2.25502 0
M  V30 8243 H 775.13 -5.10291 -1.21258 0
M  V30 8244 H 776.604 -4.71084 -2.87722 0
M  V30 8245 H 777.081 -3.04003 -3.16984 0
M  V30 8246 H 777.687 -3.88631 -1.72759 0
M  V30 8247 N 776.003 0.335068 -1.53997 0
M  V30 8248 C 776.935 1.4327 -1.78903 0
M  V30 8249 C 777.948 1.48347 -0.670598 0
M  V30 8250 O 779.137 1.51277 -0.947494 0
M  V30 8251 C 776.237 2.81878 -1.88144 0
M  V30 8252 C 775.41 3.00141 -3.18174 0
M  V30 8253 C 774.469 4.19041 -3.18263 0
M  V30 8254 O 773.495 4.12751 -3.9195 0
M  V30 8255 N 774.697 5.28004 -2.41231 0
M  V30 8256 H 777.462 1.22272 -2.73623 0
M  V30 8257 H 775.023 0.524996 -1.53152 0
M  V30 8258 H 777.015 3.59609 -1.85644 0
M  V30 8259 H 775.585 2.9598 -1.00572 0
M  V30 8260 H 774.805 2.09808 -3.33728 0
M  V30 8261 H 776.093 3.0923 -4.04047 0
M  V30 8262 H 775.491 5.35986 -1.8093 0
M  V30 8263 H 774.048 6.04196 -2.44521 0
M  V30 8264 N 777.481 1.45874 0.596531 0
M  V30 8265 C 778.709 1.54013 1.38158 0
M  V30 8266 C 779.124 0.17648 1.87973 0
M  V30 8267 O 778.481 -0.823895 1.62844 0
M  V30 8268 C 778.532 2.53363 2.57855 0
M  V30 8269 O 778.253 3.8443 2.10108 0
M  V30 8270 C 779.754 2.71308 3.50581 0
M  V30 8271 H 776.974 0.521251 0.422538 0
M  V30 8272 H 779.518 1.9116 0.726493 0
M  V30 8273 H 777.673 2.19257 3.19382 0
M  V30 8274 H 778.087 4.38384 2.87958 0
M  V30 8275 H 779.561 3.44776 4.31084 0
M  V30 8276 H 780.038 1.77728 4.01633 0
M  V30 8277 H 780.644 3.06455 2.94899 0
M  V30 8278 N 778.959 -0.83999 1.33349 0
M  V30 8279 C 780.189 -1.62492 1.27593 0
M  V30 8280 C 780.597 -1.88559 -0.155597 0
M  V30 8281 O 779.94 -1.46537 -1.10782 0
M  V30 8282 C 780.002 -2.99984 1.98116 0
M  V30 8283 C 779.666 -2.96892 3.47425 0
M  V30 8284 C 780.663 -2.72688 4.42648 0
M  V30 8285 C 778.348 -3.17063 3.89585 0
M  V30 8286 C 780.342 -2.68681 5.78004 0
M  V30 8287 C 778.029 -3.12682 5.25046 0
M  V30 8288 C 779.027 -2.88522 6.19067 0
M  V30 8289 O 778.715 -2.84042 7.52047 0
M  V30 8290 H 778.447 -0.512358 0.440982 0
M  V30 8291 H 781.001 -1.0545 1.76265 0
M  V30 8292 H 779.231 -3.58875 1.44034 0
M  V30 8293 H 780.92 -3.6084 1.85875 0
M  V30 8294 H 781.686 -2.56856 4.114 0
M  V30 8295 H 777.565 -3.34889 3.16813 0
M  V30 8296 H 781.109 -2.49743 6.51363 0
M  V30 8297 H 777.006 -3.28063 5.55918 0
M  V30 8298 H 777.774 -2.99892 7.61582 0
M  V30 8299 N 780.437 -1.16799 -1.0581 0
M  V30 8300 C 781.685 -0.950642 -1.78346 0
M  V30 8301 C 782.006 0.522524 -1.87869 0
M  V30 8302 O 781.276 1.3795 -1.39092 0
M  V30 8303 H 779.856 -0.348736 -0.6606 0
M  V30 8304 H 782.518 -1.47158 -1.27791 0
M  V30 8305 H 781.614 -1.37359 -2.80248 0
M  V30 8306 N 781.915 1.24427 -0.967243 0
M  V30 8307 C 782.845 2.2773 -0.515899 0
M  V30 8308 C 783.826 1.64197 0.444227 0
M  V30 8309 O 785.011 1.91193 0.340451 0
M  V30 8310 C 782.141 3.46751 0.195149 0
M  V30 8311 C 781.095 4.22548 -0.680953 0
M  V30 8312 C 780.421 5.34456 0.161561 0
M  V30 8313 C 781.721 4.83914 -1.96532 0
M  V30 8314 H 783.415 2.65735 -1.37933 0
M  V30 8315 H 780.961 1.27742 -0.664681 0
M  V30 8316 H 782.914 4.18153 0.522117 0
M  V30 8317 H 781.638 3.07771 1.09292 0
M  V30 8318 H 780.297 3.52946 -0.991186 0
M  V30 8319 H 779.945 4.91716 1.05947 0
M  V30 8320 H 779.645 5.86087 -0.421418 0
M  V30 8321 H 781.169 6.08685 0.483211 0
M  V30 8322 H 782.583 5.47392 -1.70396 0
M  V30 8323 H 780.98 5.45775 -2.49499 0
M  V30 8324 H 782.05 4.05393 -2.66053 0
M  V30 8325 N 783.393 0.737304 1.3929 0
M  V30 8326 C 784.325 0.0592106 2.29124 0
M  V30 8327 C 785.338 -0.701026 1.46934 0
M  V30 8328 O 786.527 -0.544808 1.69983 0
M  V30 8329 C 783.627 -0.940358 3.25592 0
M  V30 8330 C 782.8 -0.241163 4.36735 0
M  V30 8331 C 781.859 -1.14916 5.13498 0
M  V30 8332 O 780.885 -0.625783 5.6575 0
M  V30 8333 N 782.087 -2.47869 5.2492 0
M  V30 8334 H 784.852 0.830647 2.87959 0
M  V30 8335 H 782.413 0.586718 1.50895 0
M  V30 8336 H 784.405 -1.55046 3.73822 0
M  V30 8337 H 782.975 -1.61299 2.67771 0
M  V30 8338 H 782.195 0.549441 3.90352 0
M  V30 8339 H 783.483 0.243299 5.08218 0
M  V30 8340 H 782.881 -2.92864 4.83991 0
M  V30 8341 H 781.438 -3.03969 5.76581 0
M  V30 8342 O 784.91 -1.48837 0.626876 0
M  V30 8343 H 785.601 -1.93161 0.14443 0
M  V30 END ATOM
M  V30 BEGIN BOND
M  V30 END BOND
M  V30 END CTAB
M  END
$$$$
