drugbank_target|O60664 Perilipin-3 (DB01271; DB01279)
 OpenBabel12092119413D

  0  0  0     0  0            999 V3000
M  V30 BEGIN CTAB
M  V30 COUNTS 6602 6647 0 0 0
M  V30 BEGIN ATOM
M  V30 1 H -0.908 1.98254 -0.117106 0
M  V30 2 N 0 1.576 0 0
M  V30 3 C 0.933 2.03868 1.02534 0
M  V30 4 C 1.911 0.928543 1.3348 0
M  V30 5 O 3.095 1.19667 1.45644 0
M  V30 6 C 0.222 2.43627 2.35294 0
M  V30 7 C -0.732 3.65373 2.2001 0
M  V30 8 S 0.101 5.13292 1.52614 0
M  V30 9 C 1.257 5.56322 2.86805 0
M  V30 10 H 1.49 2.90518 0.631377 0
M  V30 11 H -0.977 1.52953 0.210867 0
M  V30 12 H 0.981 2.67203 3.11629 0
M  V30 13 H -0.358 1.57376 2.7183 0
M  V30 14 H -1.165 3.90944 3.18086 0
M  V30 15 H -1.563 3.418 1.51819 0
M  V30 16 H 0.729 5.58782 3.83104 0
M  V30 17 H 1.672 6.56266 2.65933 0
M  V30 18 H 2.08 4.83886 2.90714 0
M  V30 19 N 1.4781 -0.272755 1.55222 0
M  V30 20 C 2.7031 -1.02683 1.80197 0
M  V30 21 C 3.1281 -1.79142 0.573551 0
M  V30 22 O 2.4861 -1.74917 -0.476849 0
M  V30 23 C 2.5341 -1.9609 3.02624 0
M  V30 24 O 1.6381 -3.04863 2.77727 0
M  V30 25 H 0.9791 -0.293557 0.595584 0
M  V30 26 H 3.5091 -0.30159 2.02365 0
M  V30 27 H 3.5191 -2.38039 3.31363 0
M  V30 28 H 2.1941 -1.39851 3.91682 0
M  V30 29 H 0.7711 -2.67228 2.60084 0
M  V30 30 N 2.9562 -1.48159 -0.537278 0
M  V30 31 C 3.9192 -1.61665 -1.62472 0
M  V30 32 C 4.9192 -0.490395 -1.5314 0
M  V30 33 O 6.1092 -0.755998 -1.5694 0
M  V30 34 C 3.2412 -1.57997 -3.02076 0
M  V30 35 H 4.4342 -2.58621 -1.51839 0
M  V30 36 H 1.9872 -1.36647 -0.758771 0
M  V30 37 H 2.7222 -0.624913 -3.18222 0
M  V30 38 H 2.5072 -2.39755 -3.10258 0
M  V30 39 H 3.9972 -1.70627 -3.81151 0
M  V30 40 N 4.4343 0.785586 -1.36625 0
M  V30 41 C 5.7113 1.53198 -1.21613 0
M  V30 42 C 6.0913 2.10187 0.196113 0
M  V30 43 O 5.4393 1.94318 1.20219 0
M  V30 44 C 5.6493 2.62388 -2.30116 0
M  V30 45 C 6.9973 3.30167 -2.66974 0
M  V30 46 O 8.0213 2.72674 -2.29188 0
M  V30 47 O 6.8803 4.34077 -3.32023 0
M  V30 48 H 3.9743 0.677865 -0.473738 0
M  V30 49 H 6.5203 0.823739 -1.48367 0
M  V30 50 H 5.2923 2.18299 -3.24748 0
M  V30 51 H 4.9153 3.40827 -2.0475 0
M  V30 52 N 5.9124 1.20967 1.01018 0
M  V30 53 C 7.1604 1.02172 1.74371 0
M  V30 54 C 7.4814 -0.446414 1.89821 0
M  V30 55 O 6.7514 -1.32234 1.44537 0
M  V30 56 H 5.3314 0.375066 0.646014 0
M  V30 57 H 7.9934 1.52187 1.21758 0
M  V30 58 H 7.0894 1.48538 2.74487 0
M  V30 59 N 7.3905 -1.2043 1.01659 0
M  V30 60 C 8.3535 -2.21433 0.591616 0
M  V30 61 C 9.3535 -1.57203 -0.338226 0
M  V30 62 O 10.5435 -1.73737 -0.126918 0
M  V30 63 C 7.6755 -3.40628 -0.136058 0
M  V30 64 H 8.8685 -2.60545 1.48514 0
M  V30 65 H 6.4215 -1.33893 0.806379 0
M  V30 66 H 7.1565 -3.07019 -1.04449 0
M  V30 67 H 6.9415 -3.88475 0.531917 0
M  V30 68 H 8.4315 -4.15475 -0.420735 0
M  V30 69 N 8.8686 -0.792821 -1.36206 0
M  V30 70 C 9.7786 -0.194808 -2.3379 0
M  V30 71 C 10.7946 0.654869 -1.61206 0
M  V30 72 O 11.9706 0.569856 -1.9317 0
M  V30 73 C 9.0356 0.657721 -3.40404 0
M  V30 74 C 8.0966 -0.210849 -4.28782 0
M  V30 75 C 7.3296 0.601086 -5.30304 0
M  V30 76 O 7.5526 1.83682 -5.40016 0
M  V30 77 O 6.4866 -0.000808277 -6.019 0
M  V30 78 H 10.3126 -1.00172 -2.86704 0
M  V30 79 H 7.8976 -0.554341 -1.38735 0
M  V30 80 H 9.7796 1.14375 -4.05581 0
M  V30 81 H 8.4546 1.44247 -2.89784 0
M  V30 82 H 7.3616 -0.743714 -3.66633 0
M  V30 83 H 8.6946 -0.959195 -4.82763 0
M  V30 84 N 10.3467 1.47872 -0.545128 0
M  V30 85 C 11.3097 2.28337 0.198717 0
M  V30 86 C 12.3097 1.36255 0.853888 0
M  V30 87 O 13.4997 1.59003 0.711606 0
M  V30 88 C 10.6317 3.15585 1.28915 0
M  V30 89 H 11.8247 2.95567 -0.507941 0
M  V30 90 H 9.3777 1.53362 -0.301616 0
M  V30 91 H 10.1127 2.53019 2.02859 0
M  V30 92 H 9.8977 3.83337 0.824309 0
M  V30 93 H 11.3877 3.76243 1.81194 0
M  V30 94 N 11.8248 0.280983 1.55075 0
M  V30 95 C 13.1018 -0.386207 1.91749 0
M  V30 96 C 13.4818 -1.73264 1.20594 0
M  V30 97 O 12.8298 -2.26034 0.334784 0
M  V30 98 C 13.0398 -0.520687 3.45094 0
M  V30 99 C 14.3878 -0.800865 4.16979 0
M  V30 100 O 15.4118 -0.605271 3.5102 0
M  V30 101 O 14.2708 -1.1753 5.33712 0
M  V30 102 H 11.3648 -0.212408 0.799257 0
M  V30 103 H 13.9108 0.327568 1.66509 0
M  V30 104 H 12.6828 0.426633 3.88967 0
M  V30 105 H 12.3058 -1.2837 3.76307 0
M  V30 106 N 13.3029 -1.57598 0.00835791 0
M  V30 107 C 14.5509 -1.90551 -0.6734 0
M  V30 108 C 14.8719 -0.883301 -1.73847 0
M  V30 109 O 14.1419 0.0781442 -1.95744 0
M  V30 110 H 12.7219 -0.703312 -0.251717 0
M  V30 111 H 15.3839 -1.94833 0.0512592 0
M  V30 112 H 14.4799 -2.9056 -1.13935 0
M  V30 113 N 14.781 0.264519 -1.55364 0
M  V30 114 C 16.006 1.01726 -1.80739 0
M  V30 115 C 16.431 1.78836 -0.583044 0
M  V30 116 O 15.789 1.75167 0.467566 0
M  V30 117 C 15.837 1.94482 -3.03659 0
M  V30 118 O 14.941 3.03386 -2.7934 0
M  V30 119 H 14.282 0.290395 -0.597132 0
M  V30 120 H 16.812 0.290854 -2.02522 0
M  V30 121 H 16.822 2.36278 -3.32621 0
M  V30 122 H 15.497 1.37772 -3.92418 0
M  V30 123 H 14.074 2.65844 -2.61498 0
M  V30 124 N 16.2591 1.48442 0.529413 0
M  V30 125 C 17.4871 1.60151 1.30994 0
M  V30 126 C 17.9021 0.261985 1.86973 0
M  V30 127 O 17.2591 -0.748805 1.66431 0
M  V30 128 C 17.3101 2.64854 2.46038 0
M  V30 129 O 17.0311 3.93608 1.92365 0
M  V30 130 C 18.5321 2.87007 3.37849 0
M  V30 131 H 15.7521 0.539971 0.398338 0
M  V30 132 H 18.2961 1.94273 0.638597 0
M  V30 133 H 16.4511 2.33589 3.09055 0
M  V30 134 H 16.8651 4.51055 2.67675 0
M  V30 135 H 18.3391 3.64068 4.14919 0
M  V30 136 H 18.8161 1.95852 3.93114 0
M  V30 137 H 19.4221 3.19579 2.80623 0
M  V30 138 N 17.7372 -0.778329 1.37039 0
M  V30 139 C 18.6692 -1.90034 1.2814 0
M  V30 140 C 19.6822 -1.61585 0.198558 0
M  V30 141 O 20.8712 -1.72625 0.454175 0
M  V30 142 C 17.9712 -3.25108 0.956968 0
M  V30 143 C 17.1442 -3.81253 2.14394 0
M  V30 144 C 16.2032 -4.94789 1.79082 0
M  V30 145 O 15.2292 -5.10721 2.51301 0
M  V30 146 N 16.4312 -5.75878 0.731043 0
M  V30 147 H 19.1962 -1.98186 2.24816 0
M  V30 148 H 16.7572 -0.957129 1.30578 0
M  V30 149 H 18.7492 -3.9857 0.701701 0
M  V30 150 H 17.3192 -3.125 0.0789812 0
M  V30 151 H 16.5392 -2.99647 2.56135 0
M  V30 152 H 17.8272 -4.15495 2.93668 0
M  V30 153 H 17.2252 -5.65547 0.131618 0
M  V30 154 H 15.7822 -6.49596 0.535622 0
M  V30 155 N 19.2153 -1.21501 -1.00376 0
M  V30 156 C 20.4613 -1.03452 -1.74429 0
M  V30 157 C 20.7943 0.430764 -1.89362 0
M  V30 158 O 20.0693 1.31962 -1.42886 0
M  V30 159 C 20.3523 -1.73375 -3.15615 0
M  V30 160 C 20.2053 -3.27431 -3.08397 0
M  V30 161 C 21.5243 -1.47732 -4.14564 0
M  V30 162 H 18.6433 -0.377226 -0.633143 0
M  V30 163 H 21.2853 -1.49693 -1.17013 0
M  V30 164 H 19.4353 -1.34064 -3.64636 0
M  V30 165 H 21.1073 -3.76119 -2.67081 0
M  V30 166 H 19.3503 -3.5767 -2.45468 0
M  V30 167 H 20.0213 -3.71524 -4.08258 0
M  V30 168 H 22.4973 -1.8186 -3.74254 0
M  V30 169 H 21.3733 -1.99169 -5.11491 0
M  V30 170 H 21.6343 -0.407589 -4.40217 0
M  V30 171 N 20.6934 1.19889 -1.02296 0
M  V30 172 C 21.9214 1.9339 -0.735399 0
M  V30 173 C 22.3364 1.75148 0.704887 0
M  V30 174 O 21.6934 1.06954 1.47875 0
M  V30 175 C 21.7444 3.45313 -1.06962 0
M  V30 176 O 21.4654 3.62964 -2.45334 0
M  V30 177 C 22.9664 4.35948 -0.804021 0
M  V30 178 H 20.1864 0.61448 -0.269546 0
M  V30 179 H 22.7304 1.522 -1.36585 0
M  V30 180 H 20.8854 3.84359 -0.484455 0
M  V30 181 H 21.2994 4.56886 -2.57595 0
M  V30 182 H 22.7734 5.41174 -1.0879 0
M  V30 183 H 23.2504 4.3842 0.261691 0
M  V30 184 H 23.8564 4.02574 -1.37164 0
M  V30 185 N 22.1715 0.800033 1.35784 0
M  V30 186 C 23.4175 0.377901 1.99248 0
M  V30 187 C 23.7505 -1.05052 1.63333 0
M  V30 188 O 23.0255 -1.72768 0.893385 0
M  V30 189 C 23.3085 0.553922 3.55814 0
M  V30 190 C 23.1615 2.0268 4.01548 0
M  V30 191 C 24.4805 -0.0244802 4.40093 0
M  V30 192 H 21.5995 0.138782 0.723815 0
M  V30 193 H 24.2415 1.00835 1.61035 0
M  V30 194 H 22.3915 0.0172398 3.88496 0
M  V30 195 H 24.0635 2.62536 3.79305 0
M  V30 196 H 22.3065 2.5256 3.52698 0
M  V30 197 H 22.9775 2.10087 5.10458 0
M  V30 198 H 25.4535 0.433775 4.13833 0
M  V30 199 H 24.3295 0.128637 5.48749 0
M  V30 200 H 24.5905 -1.11758 4.27741 0
M  V30 201 N 23.6496 -1.47581 0.552962 0
M  V30 202 C 24.5596 -2.33743 -0.200353 0
M  V30 203 C 25.5756 -1.47928 -0.916151 0
M  V30 204 O 26.7516 -1.80865 -0.885993 0
M  V30 205 C 23.8166 -3.24536 -1.21973 0
M  V30 206 C 22.8776 -4.26238 -0.511819 0
M  V30 207 C 22.1106 -5.12693 -1.48263 0
M  V30 208 O 22.3336 -5.01525 -2.71714 0
M  V30 209 O 21.2676 -5.93375 -1.00945 0
M  V30 210 H 25.0936 -2.9945 0.506304 0
M  V30 211 H 22.6786 -1.46071 0.313622 0
M  V30 212 H 24.5606 -3.80631 -1.80827 0
M  V30 213 H 23.2356 -2.61462 -1.90839 0
M  V30 214 H 22.1426 -3.73914 0.117799 0
M  V30 215 H 23.4756 -4.92014 0.135308 0
M  V30 216 N 25.1277 -0.289203 -1.54924 0
M  V30 217 C 26.0377 0.601863 -2.26748 0
M  V30 218 C 27.0537 1.15834 -1.2984 0
M  V30 219 O 28.2297 1.18564 -1.62802 0
M  V30 220 C 25.2947 1.76299 -2.98529 0
M  V30 221 C 24.3557 1.24178 -4.10948 0
M  V30 222 C 23.5887 2.34757 -4.79296 0
M  V30 223 O 23.8117 3.54411 -4.46933 0
M  V30 224 O 22.7457 2.02115 -5.66951 0
M  V30 225 H 26.5717 0.0195879 -3.03694 0
M  V30 226 H 24.1567 -0.0560868 -1.49295 0
M  V30 227 H 26.0387 2.43973 -3.43592 0
M  V30 228 H 24.7137 2.33209 -2.24488 0
M  V30 229 H 23.6207 0.531104 -3.70311 0
M  V30 230 H 24.9537 0.718252 -4.86931 0
M  V30 231 N 26.6058 1.57591 -0.0167156 0
M  V30 232 C 28.0168 1.79201 0.523834 0
M  V30 233 C 28.3678 0.925796 1.72984 0
M  V30 234 O 27.4928 0.132792 2.15992 0
M  V30 235 C 28.0878 3.25 0.957091 0
M  V30 236 C 26.6468 3.47648 1.44283 0
M  V30 237 C 25.7938 2.74374 0.401757 0
M  V30 238 H 28.7448 1.56831 -0.242816 0
M  V30 239 H 28.7658 3.34031 1.82219 0
M  V30 240 H 28.2778 3.88019 0.0791415 0
M  V30 241 H 26.3788 2.89866 2.34113 0
M  V30 242 H 26.4918 4.56352 1.45877 0
M  V30 243 H 24.8558 2.39485 0.867121 0
M  V30 244 H 25.6388 3.40102 -0.467513 0
M  V30 245 N 28.0839 -0.256276 1.55502 0
M  V30 246 C 29.3299 -0.987079 1.77157 0
M  V30 247 C 29.6629 -1.85327 0.580315 0
M  V30 248 O 28.9379 -1.89874 -0.421686 0
M  V30 249 C 29.2209 -1.85553 3.08613 0
M  V30 250 C 29.0739 -1.01816 4.38125 0
M  V30 251 C 30.3929 -2.8397 3.36228 0
M  V30 252 H 27.5119 -0.357428 0.644526 0
M  V30 253 H 30.1539 -0.258239 1.88237 0
M  V30 254 H 28.3039 -2.47695 2.99298 0
M  V30 255 H 29.9759 -0.416159 4.59419 0
M  V30 256 H 28.2189 -0.322178 4.32602 0
M  V30 257 H 28.8899 -1.65939 5.26468 0
M  V30 258 H 31.3659 -2.31964 3.45445 0
M  V30 259 H 30.2419 -3.41864 4.29442 0
M  V30 260 H 30.5029 -3.59955 2.56681 0
M  V30 261 N 29.562 -1.4872 -0.521534 0
M  V30 262 C 30.494 -1.59968 -1.64143 0
M  V30 263 C 31.507 -0.483463 -1.55456 0
M  V30 264 O 32.696 -0.75467 -1.61762 0
M  V30 265 C 29.796 -1.52127 -3.02838 0
M  V30 266 C 28.969 -2.78932 -3.36921 0
M  V30 267 C 28.028 -2.64428 -4.54933 0
M  V30 268 O 27.054 -3.38331 -4.57735 0
M  V30 269 N 28.256 -1.74606 -5.53618 0
M  V30 270 H 31.021 -2.56548 -1.54929 0
M  V30 271 H 28.582 -1.45551 -0.708988 0
M  V30 272 H 30.574 -1.40106 -3.79674 0
M  V30 273 H 29.144 -0.634868 -3.06085 0
M  V30 274 H 28.364 -3.05455 -2.4918 0
M  V30 275 H 29.652 -3.63041 -3.56481 0
M  V30 276 H 29.05 -1.13782 -5.54139 0
M  V30 277 H 27.607 -1.6852 -6.29638 0
M  V30 278 N 31.0401 0.771051 -1.3745 0
M  V30 279 C 31.9721 1.89352 -1.29146 0
M  V30 280 C 32.9851 1.61477 -0.207124 0
M  V30 281 O 34.1741 1.72382 -0.463324 0
M  V30 282 C 31.2741 3.24596 -0.974195 0
M  V30 283 C 30.4471 3.80111 -2.16413 0
M  V30 284 C 29.5061 4.93832 -1.81703 0
M  V30 285 O 28.5321 5.09382 -2.54006 0
M  V30 286 N 29.7341 5.75483 -0.761573 0
M  V30 287 H 32.4991 1.96991 -2.25864 0
M  V30 288 H 30.0601 0.950191 -1.31084 0
M  V30 289 H 32.0521 3.98193 -0.722828 0
M  V30 290 H 30.6221 3.12454 -0.0955527 0
M  V30 291 H 29.8421 2.98284 -2.57721 0
M  V30 292 H 31.1301 4.13932 -2.95867 0
M  V30 293 H 30.5281 5.65469 -0.161609 0
M  V30 294 H 29.0851 6.49302 -0.570064 0
M  V30 295 N 32.5182 1.22032 0.997298 0
M  V30 296 C 33.9292 1.0397 1.55071 0
M  V30 297 C 34.2802 -0.398192 1.92117 0
M  V30 298 O 33.4052 -1.28254 1.74298 0
M  V30 299 C 34.0002 1.88109 2.81781 0
M  V30 300 C 32.5592 1.74357 3.33581 0
M  V30 301 C 31.7062 1.84846 2.06706 0
M  V30 302 H 34.6572 1.35941 0.818883 0
M  V30 303 H 34.6782 1.39589 3.53971 0
M  V30 304 H 34.1902 2.92754 2.54787 0
M  V30 305 H 32.2912 0.72427 3.65493 0
M  V30 306 H 32.4042 2.56772 4.04481 0
M  V30 307 H 30.7682 1.28238 2.20062 0
M  V30 308 H 31.5512 2.91014 1.82114 0
M  V30 309 N 33.9963 -1.19345 1.0293 0
M  V30 310 C 35.2213 -1.93538 0.745511 0
M  V30 311 C 35.6463 -1.75007 -0.689511 0
M  V30 312 O 35.0043 -1.05265 -1.47611 0
M  V30 313 C 35.0523 -3.43336 1.10239 0
M  V30 314 O 34.1563 -4.11806 0.221289 0
M  V30 315 H 33.4973 -0.604193 0.275404 0
M  V30 316 H 36.0273 -1.5141 1.37609 0
M  V30 317 H 36.0373 -3.94004 1.05947 0
M  V30 318 H 34.7123 -3.56146 2.14786 0
M  V30 319 H 33.2893 -3.715 0.322842 0
M  V30 320 N 35.4744 -0.807222 -1.35358 0
M  V30 321 C 36.7204 -0.388463 -1.99045 0
M  V30 322 C 37.0534 1.04184 -1.63888 0
M  V30 323 O 36.3284 1.72292 -0.902535 0
M  V30 324 C 36.6114 -0.572783 -3.55515 0
M  V30 325 C 36.4644 -2.04807 -4.00468 0
M  V30 326 C 37.7834 0.00114064 -4.401 0
M  V30 327 H 34.9024 -0.142619 -0.723069 0
M  V30 328 H 37.5444 -1.01687 -1.60498 0
M  V30 329 H 35.6944 -0.0378425 -3.88482 0
M  V30 330 H 37.3664 -2.64544 -3.77908 0
M  V30 331 H 35.6094 -2.54427 -3.51353 0
M  V30 332 H 36.2804 -2.12792 -5.09337 0
M  V30 333 H 38.7564 -0.455716 -4.13597 0
M  V30 334 H 37.6324 -0.157737 -5.48673 0
M  V30 335 H 37.8934 1.09488 -4.28328 0
M  V30 336 N 36.9525 1.47285 -0.560781 0
M  V30 337 C 38.1985 2.02764 -0.0381184 0
M  V30 338 C 38.5315 1.43384 1.30976 0
M  V30 339 O 37.8065 0.590733 1.85312 0
M  V30 340 C 38.0895 3.60064 0.0511427 0
M  V30 341 C 37.9425 4.2987 -1.32408 0
M  V30 342 C 39.2615 4.33439 0.762795 0
M  V30 343 H 36.3805 0.736841 -0.0153264 0
M  V30 344 H 39.0225 1.75675 -0.723759 0
M  V30 345 H 37.1725 3.83274 0.635065 0
M  V30 346 H 38.8445 4.17989 -1.95148 0
M  V30 347 H 37.0875 3.90085 -1.8978 0
M  V30 348 H 37.7585 5.38478 -1.21431 0
M  V30 349 H 40.2345 4.15243 0.266965 0
M  V30 350 H 39.1105 5.43124 0.794221 0
M  V30 351 H 39.3715 4.02915 1.81966 0
M  V30 352 N 38.4306 0.297415 1.54768 0
M  V30 353 C 39.7076 -0.365847 1.92148 0
M  V30 354 C 40.0876 -1.71975 1.22424 0
M  V30 355 O 39.4356 -2.25666 0.358739 0
M  V30 356 C 39.6456 -0.484056 3.45627 0
M  V30 357 C 40.9936 -0.756594 4.17805 0
M  V30 358 O 42.0176 -0.568007 3.51642 0
M  V30 359 O 40.8766 -1.11863 5.34929 0
M  V30 360 H 37.9706 -0.203919 0.801465 0
M  V30 361 H 40.5166 0.34521 1.66152 0
M  V30 362 H 39.2886 0.467865 3.88493 0
M  V30 363 H 38.9116 -1.24372 3.77647 0
M  V30 364 N 39.9087 -1.5758 0.0250728 0
M  V30 365 C 41.3247 -1.56124 -0.331282 0
M  V30 366 C 41.5247 -1.03029 -1.73169 0
M  V30 367 O 40.5807 -0.675215 -2.43305 0
M  V30 368 C 41.8937 -3.00139 -0.183584 0
M  V30 369 C 43.4417 -3.11946 -0.256654 0
M  V30 370 C 43.9167 -4.57793 -0.137792 0
M  V30 371 N 45.4077 -4.6279 -0.194904 0
M  V30 372 C 46.1427 -5.7326 -0.126655 0
M  V30 373 N 45.6387 -6.928 -0.00755288 0
M  V30 374 N 47.4317 -5.61811 -0.180348 0
M  V30 375 H 39.5827 -1.90424 0.94087 0
M  V30 376 H 41.8457 -0.875761 0.362968 0
M  V30 377 H 41.5517 -3.4292 0.780927 0
M  V30 378 H 41.4257 -3.64899 -0.955448 0
M  V30 379 H 43.8127 -2.69079 -1.21162 0
M  V30 380 H 43.8937 -2.49915 0.545517 0
M  V30 381 H 43.5377 -5.01339 0.813739 0
M  V30 382 H 43.4677 -5.17798 -0.958775 0
M  V30 383 H 45.9587 -3.76807 -0.287267 0
M  V30 384 H 46.2717 -7.72791 0.0379428 0
M  V30 385 H 44.6167 -6.94995 0.0271731 0
M  V30 386 H 47.8077 -4.6731 -0.271767 0
M  V30 387 H 47.9807 -6.47882 -0.123697 0
M  V30 388 N 41.3868 0.248026 -1.55636 0
M  V30 389 C 42.6328 0.97767 -1.77678 0
M  V30 390 C 42.9658 1.85016 -0.590135 0
M  V30 391 O 42.2408 1.90095 0.411611 0
M  V30 392 C 42.5238 1.83914 -3.09593 0
M  V30 393 C 42.3768 0.99491 -4.38659 0
M  V30 394 C 43.6958 2.82183 -3.37729 0
M  V30 395 H 40.8148 0.354005 -0.646413 0
M  V30 396 H 43.4568 0.248253 -1.88371 0
M  V30 397 H 41.6068 2.46104 -3.00608 0
M  V30 398 H 43.2788 0.391789 -4.59633 0
M  V30 399 H 41.5218 0.299231 -4.32767 0
M  V30 400 H 42.1928 1.63145 -5.2734 0
M  V30 401 H 44.6688 2.30129 -3.4667 0
M  V30 402 H 43.5448 3.39582 -4.31249 0
M  V30 403 H 43.8058 3.58588 -2.58586 0
M  V30 404 N 42.8649 1.48995 0.513639 0
M  V30 405 C 43.8279 1.64229 1.59879 0
M  V30 406 C 44.8279 0.514696 1.5234 0
M  V30 407 O 46.0179 0.78087 1.55718 0
M  V30 408 C 43.1499 1.62783 2.99524 0
M  V30 409 H 44.3429 2.61004 1.47705 0
M  V30 410 H 41.8959 1.37837 0.736936 0
M  V30 411 H 42.6309 0.675461 3.17188 0
M  V30 412 H 42.4159 2.4466 3.06404 0
M  V30 413 H 43.9059 1.76669 3.78388 0
M  V30 414 N 44.343 -0.763751 1.37857 0
M  V30 415 C 45.568 -1.55805 1.36893 0
M  V30 416 C 45.993 -1.88054 -0.0416135 0
M  V30 417 O 45.351 -1.49825 -1.02089 0
M  V30 418 C 45.399 -2.84012 2.22192 0
M  V30 419 O 44.503 -3.78732 1.63204 0
M  V30 420 H 43.844 -0.471638 0.46739 0
M  V30 421 H 46.374 -0.944657 1.81487 0
M  V30 422 H 46.384 -3.33037 2.35691 0
M  V30 423 H 45.059 -2.59869 3.24716 0
M  V30 424 H 43.636 -3.37402 1.58791 0
M  V30 425 N 45.8211 -1.22559 -0.990812 0
M  V30 426 C 46.7541 -0.940773 -2.07905 0
M  V30 427 C 47.7321 0.117082 -1.62178 0
M  V30 428 O 48.9161 -0.0149506 -1.88494 0
M  V30 429 C 46.0431 -0.415321 -3.36144 0
M  V30 430 C 45.0891 -1.45818 -4.00799 0
M  V30 431 S 45.9221 -3.03219 -4.41382 0
M  V30 432 C 47.0781 -2.52317 -5.72789 0
M  V30 433 H 47.3111 -1.8623 -2.31745 0
M  V30 434 H 44.8441 -1.05688 -1.12558 0
M  V30 435 H 46.8021 -0.118747 -4.10328 0
M  V30 436 H 45.4631 0.485121 -3.10331 0
M  V30 437 H 44.6561 -1.04044 -4.93144 0
M  V30 438 H 44.2581 -1.70356 -3.32949 0
M  V30 439 H 46.5501 -1.93688 -6.49224 0
M  V30 440 H 47.4931 -3.43161 -6.19392 0
M  V30 441 H 47.9011 -1.93529 -5.30289 0
M  V30 442 N 47.2992 1.18797 -1.03562 0
M  V30 443 C 48.7102 1.70322 -0.764676 0
M  V30 444 C 49.0612 1.82708 0.714996 0
M  V30 445 O 48.1862 1.50299 1.55689 0
M  V30 446 C 48.7812 3.09356 -1.38145 0
M  V30 447 C 47.3402 3.58114 -1.15895 0
M  V30 448 C 46.4872 2.34798 -1.4753 0
M  V30 449 H 49.4382 1.03543 -1.20268 0
M  V30 450 H 49.4592 3.72378 -0.781977 0
M  V30 451 H 48.9712 3.00309 -2.45837 0
M  V30 452 H 47.0722 3.72464 -0.100544 0
M  V30 453 H 47.1852 4.4184 -1.8524 0
M  V30 454 H 45.5492 2.38464 -0.894829 0
M  V30 455 H 46.3322 2.28375 -2.56319 0
M  V30 456 N 48.7773 0.814389 1.34928 0
M  V30 457 C 49.7073 0.244827 2.32213 0
M  V30 458 C 50.6883 -0.634024 1.57842 0
M  V30 459 O 51.8733 -0.562676 1.8587 0
M  V30 460 C 49.0033 -0.601106 3.42058 0
M  V30 461 C 47.9573 0.179896 4.27622 0
M  V30 462 C 47.2833 -0.788237 5.28858 0
M  V30 463 C 48.5833 1.38329 5.03649 0
M  V30 464 H 50.2773 1.05763 2.80097 0
M  V30 465 H 47.8233 0.510029 1.34665 0
M  V30 466 H 49.7763 -1.00968 4.09125 0
M  V30 467 H 48.5003 -1.44688 2.92802 0
M  V30 468 H 47.1593 0.569739 3.62146 0
M  V30 469 H 46.8073 -1.62973 4.75866 0
M  V30 470 H 46.5073 -0.269942 5.8698 0
M  V30 471 H 48.0313 -1.19485 5.98795 0
M  V30 472 H 49.4453 1.04918 5.63618 0
M  V30 473 H 47.8423 1.83662 5.71304 0
M  V30 474 H 48.9123 2.16592 4.33839 0
M  V30 475 N 50.2554 -1.46986 0.568584 0
M  V30 476 C 51.5044 -2.01646 0.0465894 0
M  V30 477 C 51.8174 -1.44721 -1.31587 0
M  V30 478 O 53.0234 -1.91113 -1.92842 0
M  V30 479 C 51.4794 -3.59885 0.032752 0
M  V30 480 C 51.0874 -4.25804 1.39266 0
M  V30 481 C 52.8314 -4.22255 -0.436038 0
M  V30 482 C 50.7384 -5.76081 1.33732 0
M  V30 483 H 49.6684 -0.753876 0.013647 0
M  V30 484 H 52.3194 -1.68864 0.718131 0
M  V30 485 H 50.7014 -3.8968 -0.704669 0
M  V30 486 H 51.8754 -4.07637 2.1487 0
M  V30 487 H 50.1904 -3.7547 1.80032 0
M  V30 488 H 52.7874 -5.32394 -0.49602 0
M  V30 489 H 53.1304 -3.90212 -1.45053 0
M  V30 490 H 53.6634 -3.97033 0.246877 0
M  V30 491 H 50.4024 -6.12761 2.32817 0
M  V30 492 H 49.9224 -5.96553 0.623267 0
M  V30 493 H 51.6014 -6.38518 1.0442 0
M  V30 494 N 51.7335 -0.305618 -1.54608 0
M  V30 495 C 52.9585 0.307562 -2.05107 0
M  V30 496 C 53.3835 1.46385 -1.18123 0
M  V30 497 O 52.7415 1.8034 -0.186324 0
M  V30 498 C 52.7895 0.73704 -3.52987 0
M  V30 499 O 51.8935 1.84134 -3.6901 0
M  V30 500 H 51.2345 0.0589143 -0.661381 0
M  V30 501 H 53.7645 -0.448807 -1.99617 0
M  V30 502 H 53.7745 1.02459 -3.94925 0
M  V30 503 H 52.4495 -0.108773 -4.15758 0
M  V30 504 H 51.0265 1.55398 -3.38978 0
M  V30 505 N 53.2116 1.57565 -0.0334293 0
M  V30 506 C 54.4366 1.96689 0.657895 0
M  V30 507 C 54.8616 0.910057 1.64619 0
M  V30 508 O 54.2196 -0.128598 1.80843 0
M  V30 509 C 54.2676 3.34905 1.33683 0
M  V30 510 O 53.3716 3.31574 2.45219 0
M  V30 511 H 52.7126 0.641205 0.172489 0
M  V30 512 H 55.2426 2.04372 -0.0965621 0
M  V30 513 H 55.2526 3.71234 1.69262 0
M  V30 514 H 53.9276 4.11366 0.612411 0
M  V30 515 H 52.5046 3.06968 2.11719 0
M  V30 516 N 54.6897 -0.239769 1.55765 0
M  V30 517 C 55.9177 -0.98417 1.81994 0
M  V30 518 C 56.3327 -1.7867 0.610124 0
M  V30 519 O 55.6897 -1.77571 -0.421271 0
M  V30 520 C 55.7407 -1.91635 3.06526 0
M  V30 521 O 55.4617 -1.14629 4.22838 0
M  V30 522 C 56.9627 -2.77616 3.45607 0
M  V30 523 H 54.1827 -0.28928 0.605441 0
M  V30 524 H 56.7267 -0.260499 2.02834 0
M  V30 525 H 54.8817 -2.5942 2.87715 0
M  V30 526 H 55.2957 -1.77745 4.93464 0
M  V30 527 H 56.7697 -3.38759 4.35828 0
M  V30 528 H 57.2467 -3.4909 2.6652 0
M  V30 529 H 57.8527 -2.15271 3.66795 0
M  V30 530 N 56.1678 -1.49265 -0.50573 0
M  V30 531 C 57.4078 -1.60128 -1.27038 0
M  V30 532 C 57.7718 -0.279557 -1.89954 0
M  V30 533 O 58.9728 -0.263329 -2.67507 0
M  V30 534 C 57.2438 -2.72507 -2.31246 0
M  V30 535 S 58.8028 -3.0329 -3.17113 0
M  V30 536 H 55.6208 -0.564863 -0.4318 0
M  V30 537 H 58.2228 -1.86902 -0.573397 0
M  V30 538 H 56.9268 -3.67068 -1.83546 0
M  V30 539 H 56.4578 -2.4771 -3.05619 0
M  V30 540 H 58.4728 -2.44448 -4.31809 0
M  V30 541 N 57.6459 0.756429 -1.3826 0
M  V30 542 C 58.9229 1.50584 -1.24835 0
M  V30 543 C 59.3029 2.10556 0.151485 0
M  V30 544 O 58.6509 1.96825 1.1607 0
M  V30 545 C 58.8609 2.57448 -2.3563 0
M  V30 546 C 60.2089 3.24429 -2.73917 0
M  V30 547 O 61.2329 2.67751 -2.34921 0
M  V30 548 O 60.0919 4.26937 -3.41156 0
M  V30 549 H 57.1859 0.667664 -0.48801 0
M  V30 550 H 59.7319 0.792083 -1.5008 0
M  V30 551 H 58.5039 2.11362 -3.29305 0
M  V30 552 H 58.1269 3.36408 -2.11933 0
M  V30 553 N 59.124 1.23083 0.984299 0
M  V30 554 C 60.057 0.951786 2.07404 0
M  V30 555 C 61.035 -0.10848 1.62238 0
M  V30 556 O 62.219 0.0249467 1.88483 0
M  V30 557 C 59.346 0.433142 3.35919 0
M  V30 558 C 58.392 1.47941 4.0002 0
M  V30 559 S 59.225 3.05556 4.39768 0
M  V30 560 C 60.381 2.55351 5.71442 0
M  V30 561 H 60.614 1.87456 2.30754 0
M  V30 562 H 58.147 1.06284 1.11996 0
M  V30 563 H 60.105 0.140506 4.10259 0
M  V30 564 H 58.766 -0.468656 3.10584 0
M  V30 565 H 57.959 1.06658 4.92585 0
M  V30 566 H 57.561 1.7212 3.3204 0
M  V30 567 H 59.853 1.97128 6.48187 0
M  V30 568 H 60.796 3.46441 6.17563 0
M  V30 569 H 61.204 1.96339 5.29255 0
M  V30 570 N 60.6021 -1.18246 1.0419 0
M  V30 571 C 61.8481 -1.88536 0.747122 0
M  V30 572 C 62.1811 -1.80223 -0.723409 0
M  V30 573 O 61.4561 -1.20337 -1.52804 0
M  V30 574 C 61.7391 -3.38968 1.21544 0
M  V30 575 C 61.5921 -3.56084 2.74816 0
M  V30 576 C 62.9111 -4.32648 0.806482 0
M  V30 577 H 60.0301 -0.684619 0.272883 0
M  V30 578 H 62.6721 -1.39113 1.29413 0
M  V30 579 H 60.8221 -3.8119 0.750081 0
M  V30 580 H 62.4941 -3.22946 3.29399 0
M  V30 581 H 60.7371 -2.98699 3.14582 0
M  V30 582 H 61.4081 -4.61639 3.02644 0
M  V30 583 H 63.8841 -3.98211 1.20695 0
M  V30 584 H 62.7601 -5.36462 1.1619 0
M  V30 585 H 63.0211 -4.41146 -0.29029 0
M  V30 586 N 62.0802 -0.821533 -1.34494 0
M  V30 587 C 63.3052 -0.420873 -2.03085 0
M  V30 588 C 63.7302 0.964915 -1.61465 0
M  V30 589 O 63.0882 1.62763 -0.798607 0
M  V30 590 C 63.1362 -0.529414 -3.56693 0
M  V30 591 O 62.2402 0.451302 -4.09923 0
M  V30 592 H 61.5812 -0.173489 -0.640935 0
M  V30 593 H 64.1112 -1.11157 -1.71771 0
M  V30 594 H 64.1212 -0.404671 -4.05988 0
M  V30 595 H 62.7962 -1.54014 -3.86332 0
M  V30 596 H 61.3732 0.285558 -3.71805 0
M  V30 597 N 63.5583 1.46682 -0.576371 0
M  V30 598 C 64.5213 2.28707 0.150239 0
M  V30 599 C 65.5213 1.38035 0.824794 0
M  V30 600 O 66.7113 1.60476 0.677719 0
M  V30 601 C 63.8433 3.18248 1.22192 0
M  V30 602 H 65.0363 2.94423 -0.570521 0
M  V30 603 H 62.5893 1.52688 -0.334078 0
M  V30 604 H 63.3243 2.57265 1.97447 0
M  V30 605 H 63.1093 3.85 0.742812 0
M  V30 606 H 64.5993 3.80001 1.73172 0
M  V30 607 N 65.0364 0.313813 1.54444 0
M  V30 608 C 65.9994 -0.54379 2.22656 0
M  V30 609 C 66.9994 -1.05124 1.21678 0
M  V30 610 O 68.1894 -0.945225 1.46325 0
M  V30 611 C 65.3214 -1.75427 2.92298 0
M  V30 612 H 66.5144 0.0523599 2.99854 0
M  V30 613 H 64.0674 0.0647834 1.56166 0
M  V30 614 H 64.8024 -2.38991 2.19211 0
M  V30 615 H 64.5874 -1.39791 3.66334 0
M  V30 616 H 66.0774 -2.36325 3.44297 0
M  V30 617 N 66.5145 -1.57545 0.0417849 0
M  V30 618 C 67.7445 -1.96339 -0.642995 0
M  V30 619 C 68.1525 -0.917536 -1.65463 0
M  V30 620 O 67.4955 0.107747 -1.83384 0
M  V30 621 C 67.5575 -3.31333 -1.39494 0
M  V30 622 C 67.2215 -4.53796 -0.540204 0
M  V30 623 C 68.2185 -5.19553 0.189806 0
M  V30 624 C 65.9035 -5.0006 -0.473886 0
M  V30 625 C 67.8975 -6.29904 0.974674 0
M  V30 626 C 65.5845 -6.10289 0.314677 0
M  V30 627 C 66.5825 -6.75072 1.03765 0
M  V30 628 O 66.2705 -7.83183 1.81327 0
M  V30 629 H 66.0025 -0.651241 -0.181277 0
M  V30 630 H 68.5565 -2.05148 0.101665 0
M  V30 631 H 66.7865 -3.19052 -2.18502 0
M  V30 632 H 68.4755 -3.54942 -1.96904 0
M  V30 633 H 69.2415 -4.84774 0.147981 0
M  V30 634 H 65.1205 -4.49433 -1.0262 0
M  V30 635 H 68.6645 -6.80401 1.5395 0
M  V30 636 H 64.5615 -6.44506 0.358174 0
M  V30 637 H 65.3295 -7.99913 1.73438 0
M  V30 638 N 67.9926 0.231505 -1.5589 0
M  V30 639 C 68.9556 1.27028 -1.90779 0
M  V30 640 C 69.9556 1.40308 -0.785507 0
M  V30 641 O 71.1456 1.38744 -1.05336 0
M  V30 642 C 68.2776 2.64566 -2.14983 0
M  V30 643 H 69.4706 0.973017 -2.83677 0
M  V30 644 H 67.0236 0.471486 -1.49019 0
M  V30 645 H 67.7586 2.99406 -1.24604 0
M  V30 646 H 67.5436 2.56305 -2.96732 0
M  V30 647 H 69.0336 3.39543 -2.43105 0
M  V30 648 N 69.4707 1.49531 0.497807 0
M  V30 649 C 70.6957 1.63159 1.28039 0
M  V30 650 C 71.1207 0.30418 1.85624 0
M  V30 651 O 70.4787 -0.728618 1.66015 0
M  V30 652 C 70.5267 2.70537 2.38416 0
M  V30 653 O 69.6307 2.29931 3.42353 0
M  V30 654 H 68.9717 0.546001 0.377861 0
M  V30 655 H 71.5017 1.9574 0.59558 0
M  V30 656 H 71.5117 2.92802 2.84132 0
M  V30 657 H 70.1867 3.6689 1.95869 0
M  V30 658 H 68.7637 2.18009 3.02533 0
M  V30 659 N 70.9488 -0.749086 1.3866 0
M  V30 660 C 72.1768 -1.53834 1.38358 0
M  V30 661 C 72.5918 -1.88783 -0.0255219 0
M  V30 662 O 71.9488 -1.53101 -0.993292 0
M  V30 663 C 71.9998 -2.83468 2.2434 0
M  V30 664 O 71.7208 -2.50008 3.5976 0
M  V30 665 C 73.2218 -3.7758 2.32267 0
M  V30 666 H 70.4418 -0.47585 0.473083 0
M  V30 667 H 72.9858 -0.926726 1.82297 0
M  V30 668 H 71.1408 -3.40995 1.83851 0
M  V30 669 H 71.5548 -3.33182 4.05081 0
M  V30 670 H 73.0288 -4.65478 2.96706 0
M  V30 671 H 73.5058 -4.18334 1.33765 0
M  V30 672 H 74.1118 -3.25976 2.73166 0
M  V30 673 N 72.4269 -1.23603 -0.977757 0
M  V30 674 C 73.3739 -1.01954 -2.07061 0
M  V30 675 C 74.3439 0.0638697 -1.65977 0
M  V30 676 O 75.5289 -0.0887624 -1.90593 0
M  V30 677 C 72.6689 -0.619658 -3.39491 0
M  V30 678 C 71.7819 -1.77547 -3.93829 0
M  V30 679 C 70.9169 -1.32212 -5.14484 0
M  V30 680 C 69.9559 -2.44852 -5.60994 0
M  V30 681 N 69.0929 -2.00456 -6.72876 0
M  V30 682 H 73.9329 -1.95495 -2.24913 0
M  V30 683 H 71.4699 -0.973861 -1.10247 0
M  V30 684 H 73.4279 -0.368898 -4.15566 0
M  V30 685 H 72.0579 0.278752 -3.21594 0
M  V30 686 H 71.1099 -2.14016 -3.14486 0
M  V30 687 H 72.4219 -2.62219 -4.24314 0
M  V30 688 H 71.5759 -1.02965 -5.97899 0
M  V30 689 H 70.3149 -0.445808 -4.85658 0
M  V30 690 H 69.3199 -2.74871 -4.76157 0
M  V30 691 H 70.5449 -3.33024 -5.91837 0
M  V30 692 H 68.4909 -1.15208 -6.45804 0
M  V30 693 H 68.4079 -2.78687 -7.02759 0
M  V30 694 H 69.6759 -1.7432 -7.59758 0
M  V30 695 N 73.905 1.17692 -1.04816 0
M  V30 696 C 74.815 2.25229 -0.65643 0
M  V30 697 C 75.831 1.71018 0.320761 0
M  V30 698 O 77.007 2.00649 0.173805 0
M  V30 699 C 74.072 3.46684 -0.0332629 0
M  V30 700 C 73.133 4.15997 -1.06042 0
M  V30 701 C 72.366 5.31654 -0.466893 0
M  V30 702 O 72.589 5.65777 0.724758 0
M  V30 703 O 71.523 5.89831 -1.1993 0
M  V30 704 H 75.349 2.61016 -1.55255 0
M  V30 705 H 72.934 1.24919 -0.81949 0
M  V30 706 H 74.816 4.20234 0.313256 0
M  V30 707 H 73.491 3.12703 0.836566 0
M  V30 708 H 72.398 3.44482 -1.45886 0
M  V30 709 H 73.731 4.53996 -1.90127 0
M  V30 710 N 75.3831 0.828654 1.34056 0
M  V30 711 C 76.6081 0.431637 2.02859 0
M  V30 712 C 77.0331 -0.956339 1.61975 0
M  V30 713 O 76.3911 -1.62338 0.807228 0
M  V30 714 C 76.4391 0.548323 3.56407 0
M  V30 715 O 75.5431 -0.429556 4.10157 0
M  V30 716 H 74.8841 0.176886 0.640006 0
M  V30 717 H 77.4141 1.12066 1.71179 0
M  V30 718 H 77.4241 0.426196 4.05768 0
M  V30 719 H 76.0991 1.5606 3.8551 0
M  V30 720 H 74.6761 -0.265836 3.71951 0
M  V30 721 N 76.8612 -1.46375 0.584142 0
M  V30 722 C 78.0912 -2.06461 0.0758195 0
M  V30 723 C 78.4992 -1.43322 -1.23512 0
M  V30 724 O 77.8422 -0.533216 -1.75791 0
M  V30 725 C 77.9042 -3.59131 -0.162773 0
M  V30 726 C 77.5682 -4.4447 1.06279 0
M  V30 727 C 78.5652 -4.80918 1.97519 0
M  V30 728 C 76.2502 -4.85584 1.28504 0
M  V30 729 C 78.2442 -5.57309 3.09331 0
M  V30 730 C 75.9312 -5.61734 2.4062 0
M  V30 731 C 76.9292 -5.9751 3.30863 0
M  V30 732 O 76.6172 -6.72121 4.41032 0
M  V30 733 H 76.3492 -0.673745 0.0551725 0
M  V30 734 H 78.9032 -1.88969 0.804984 0
M  V30 735 H 77.1332 -3.74936 -0.946565 0
M  V30 736 H 78.8222 -4.0114 -0.619782 0
M  V30 737 H 79.5882 -4.49732 1.81565 0
M  V30 738 H 75.4672 -4.57187 0.591702 0
M  V30 739 H 79.0112 -5.85152 3.79793 0
M  V30 740 H 74.9082 -5.92334 2.56537 0
M  V30 741 H 75.6762 -6.90547 4.39417 0
M  V30 742 N 78.3393 -0.321999 -1.54275 0
M  V30 743 C 79.7503 0.166384 -1.85957 0
M  V30 744 C 80.1013 1.51747 -1.24367 0
M  V30 745 O 79.2263 2.09317 -0.549124 0
M  V30 746 C 79.8213 0.308681 -3.37391 0
M  V30 747 C 78.3803 0.741286 -3.69028 0
M  V30 748 C 77.5273 -0.137937 -2.76957 0
M  V30 749 H 80.4783 -0.542335 -1.49146 0
M  V30 750 H 80.4993 1.13984 -3.63026 0
M  V30 751 H 80.0113 -0.674809 -3.82188 0
M  V30 752 H 78.1123 1.73458 -3.29762 0
M  V30 753 H 78.2253 0.546118 -4.75977 0
M  V30 754 H 76.5893 0.386251 -2.51754 0
M  V30 755 H 77.3723 -1.11816 -3.2458 0
M  V30 756 N 79.8174 1.5752 -0.0501392 0
M  V30 757 C 80.7674 2.07981 0.934231 0
M  V30 758 C 81.7514 0.984745 1.27246 0
M  V30 759 O 82.9434 1.24809 1.25506 0
M  V30 760 C 80.0724 2.62751 2.20945 0
M  V30 761 C 79.1584 3.79225 1.89865 0
M  V30 762 N 79.5494 4.89036 1.29142 0
M  V30 763 C 77.8474 3.88111 2.19741 0
M  V30 764 C 78.5484 5.70084 1.15669 0
M  V30 765 N 77.5244 5.17659 1.65923 0
M  V30 766 H 81.3264 2.90277 0.460053 0
M  V30 767 H 78.8404 1.61665 0.15434 0
M  V30 768 H 80.8374 2.97205 2.9236 0
M  V30 769 H 79.4974 1.81894 2.6897 0
M  V30 770 H 80.5084 5.08854 0.963756 0
M  V30 771 H 77.1854 3.18194 2.70293 0
M  V30 772 H 78.5754 6.68395 0.685356 0
M  V30 773 N 81.2955 -0.223234 1.56011 0
M  V30 774 C 82.5445 -0.945912 1.78144 0
M  V30 775 C 82.8575 -1.85567 0.618396 0
M  V30 776 O 84.0635 -2.61688 0.723318 0
M  V30 777 C 82.5195 -1.73216 3.15475 0
M  V30 778 C 82.1275 -0.868619 4.39499 0
M  V30 779 C 83.8715 -2.44615 3.46935 0
M  V30 780 C 81.7785 -1.65212 5.67855 0
M  V30 781 H 80.7085 -0.356929 0.664167 0
M  V30 782 H 83.3595 -0.199845 1.82409 0
M  V30 783 H 81.7415 -2.52107 3.05382 0
M  V30 784 H 82.9155 -0.120366 4.60643 0
M  V30 785 H 81.2305 -0.26683 4.15544 0
M  V30 786 H 83.8275 -3.03732 4.40058 0
M  V30 787 H 84.1705 -3.17417 2.69355 0
M  V30 788 H 84.7035 -1.72715 3.58349 0
M  V30 789 H 81.4425 -0.967407 6.48322 0
M  V30 790 H 80.9625 -2.37503 5.50774 0
M  V30 791 H 82.6415 -2.21322 6.07968 0
M  V30 792 N 82.7736 -1.49793 -0.48987 0
M  V30 793 C 83.7206 -1.67281 -1.59014 0
M  V30 794 C 84.6906 -0.514177 -1.57941 0
M  V30 795 O 85.8756 -0.742533 -1.75759 0
M  V30 796 C 83.0156 -1.75569 -2.97102 0
M  V30 797 C 82.1286 -3.0281 -3.08107 0
M  V30 798 C 81.2636 -3.02008 -4.36995 0
M  V30 799 C 80.3026 -4.23782 -4.41673 0
M  V30 800 N 79.4396 -4.20826 -5.62005 0
M  V30 801 H 84.2796 -2.61224 -1.43409 0
M  V30 802 H 81.8166 -1.29508 -0.697565 0
M  V30 803 H 83.7746 -1.78354 -3.77155 0
M  V30 804 H 82.4046 -0.850827 -3.11385 0
M  V30 805 H 81.4566 -3.09584 -2.21047 0
M  V30 806 H 82.7686 -3.92801 -3.07423 0
M  V30 807 H 81.9226 -3.03418 -5.25378 0
M  V30 808 H 80.6616 -2.09815 -4.4026 0
M  V30 809 H 79.6666 -4.22604 -3.5169 0
M  V30 810 H 80.8916 -5.17181 -4.40115 0
M  V30 811 H 78.8376 -3.31476 -5.66091 0
M  V30 812 H 78.7546 -5.04564 -5.62984 0
M  V30 813 H 80.0226 -4.26355 -6.52565 0
M  V30 814 N 84.2517 0.741722 -1.39055 0
M  V30 815 C 85.4797 1.53098 -1.39171 0
M  V30 816 C 85.8947 1.88794 0.0155099 0
M  V30 817 O 85.2517 1.53626 0.985159 0
M  V30 818 C 85.3027 2.82274 -2.2584 0
M  V30 819 O 85.0237 2.48097 -3.61081 0
M  V30 820 C 86.5247 3.76343 -2.34266 0
M  V30 821 H 83.7447 0.473335 -0.4756 0
M  V30 822 H 86.2887 0.917045 -1.82785 0
M  V30 823 H 84.4437 3.40015 -1.85656 0
M  V30 824 H 84.8577 3.31029 -4.06842 0
M  V30 825 H 86.3317 4.63898 -2.9917 0
M  V30 826 H 86.8087 4.17619 -1.35982 0
M  V30 827 H 87.4147 3.24523 -2.74891 0
M  V30 828 N 85.7298 1.2412 0.971189 0
M  V30 829 C 86.9758 1.08041 1.71625 0
M  V30 830 C 87.3088 -0.380407 1.90438 0
M  V30 831 O 86.5838 -1.28127 1.46334 0
M  V30 832 C 86.8668 1.81682 3.10908 0
M  V30 833 C 86.7198 3.35493 2.99608 0
M  V30 834 C 88.0388 1.58671 4.10501 0
M  V30 835 H 85.1578 0.39388 0.622919 0
M  V30 836 H 87.7998 1.52743 1.13003 0
M  V30 837 H 85.9498 1.43684 3.60953 0
M  V30 838 H 87.6218 3.83068 2.57015 0
M  V30 839 H 85.8648 3.64052 2.35899 0
M  V30 840 H 86.5358 3.82217 3.98264 0
M  V30 841 H 89.0118 1.91719 3.69301 0
M  V30 842 H 87.8878 2.1266 5.06031 0
M  V30 843 H 88.1488 0.524161 4.38982 0
M  V30 844 N 87.2079 -1.17134 1.05439 0
M  V30 845 C 88.4479 -1.89137 0.77502 0
M  V30 846 C 88.8119 -1.79345 -0.685526 0
M  V30 847 O 90.0129 -2.46188 -1.0791 0
M  V30 848 C 88.2839 -3.35003 1.2453 0
M  V30 849 S 89.8429 -4.24952 1.09367 0
M  V30 850 H 86.6609 -0.652949 0.281387 0
M  V30 851 H 89.2629 -1.4145 1.34953 0
M  V30 852 H 87.9669 -3.39666 2.30338 0
M  V30 853 H 87.4979 -3.87736 0.665166 0
M  V30 854 H 89.5129 -4.96196 0.0193397 0
M  V30 855 N 88.686 -0.835752 -1.33615 0
M  V30 856 C 89.963 -0.352017 -1.92406 0
M  V30 857 C 90.343 1.16225 -1.76224 0
M  V30 858 O 89.691 1.97526 -1.14873 0
M  V30 859 C 89.901 -0.795485 -3.39813 0
M  V30 860 C 91.249 -0.801703 -4.16963 0
M  V30 861 O 92.273 -0.738889 -3.48452 0
M  V30 862 O 91.132 -0.886607 -5.3926 0
M  V30 863 H 88.226 -0.0989641 -0.821057 0
M  V30 864 H 90.772 -0.921397 -1.42507 0
M  V30 865 H 89.544 -1.83795 -3.45449 0
M  V30 866 H 89.167 -0.202505 -3.97084 0
M  V30 867 N 90.1641 1.46063 -0.591896 0
M  V30 868 C 91.1271 2.28854 0.125973 0
M  V30 869 C 92.1271 1.38903 0.810107 0
M  V30 870 O 93.3171 1.61186 0.66066 0
M  V30 871 C 90.4491 3.19526 1.1881 0
M  V30 872 H 91.6421 2.93802 -0.601717 0
M  V30 873 H 89.1951 1.52325 -0.350254 0
M  V30 874 H 89.9301 2.59345 1.94707 0
M  V30 875 H 89.7151 3.85766 0.701936 0
M  V30 876 H 91.2051 3.81817 1.69132 0
M  V30 877 N 91.6422 0.330177 1.54103 0
M  V30 878 C 92.6052 -0.520144 2.2322 0
M  V30 879 C 93.6052 -1.03828 1.22786 0
M  V30 880 O 94.7952 -0.929652 1.4732 0
M  V30 881 C 91.9272 -1.72317 2.94142 0
M  V30 882 H 93.1202 0.0841605 2.99782 0
M  V30 883 H 90.6732 0.0813433 1.56088 0
M  V30 884 H 91.4082 -2.36653 2.21734 0
M  V30 885 H 91.1932 -1.35898 3.67796 0
M  V30 886 H 92.6832 -2.3266 3.46784 0
M  V30 887 N 93.1203 -1.57491 0.0584922 0
M  V30 888 C 94.0303 -2.15448 -0.928414 0
M  V30 889 C 95.0463 -1.11416 -1.3365 0
M  V30 890 O 96.2223 -1.4362 -1.41193 0
M  V30 891 C 93.2873 -2.69393 -2.18239 0
M  V30 892 C 92.3483 -3.88249 -1.83196 0
M  V30 893 C 91.5813 -4.39613 -3.02616 0
M  V30 894 O 91.8043 -3.90023 -4.16219 0
M  V30 895 O 90.7383 -5.31111 -2.83204 0
M  V30 896 H 94.5643 -3.00112 -0.465483 0
M  V30 897 H 92.1493 -1.48499 -0.163826 0
M  V30 898 H 94.0313 -3.04026 -2.91798 0
M  V30 899 H 92.7063 -1.87796 -2.63656 0
M  V30 900 H 91.6133 -3.58492 -1.06931 0
M  V30 901 H 92.9463 -4.71098 -1.42573 0
M  V30 902 N 94.5984 0.214957 -1.56127 0
M  V30 903 C 95.5454 1.26642 -1.92952 0
M  V30 904 C 96.5154 1.46244 -0.78753 0
M  V30 905 O 97.7004 1.59704 -1.04399 0
M  V30 906 C 94.8404 2.6104 -2.25726 0
M  V30 907 C 93.9534 2.49183 -3.52891 0
M  V30 908 C 93.0884 3.76149 -3.7508 0
M  V30 909 C 92.1274 3.59041 -4.95738 0
M  V30 910 N 91.2644 4.77972 -5.14283 0
M  V30 911 H 96.1044 0.945384 -2.82607 0
M  V30 912 H 93.6414 0.455489 -1.3987 0
M  V30 913 H 95.5994 3.39313 -2.42739 0
M  V30 914 H 94.2294 2.91227 -1.39236 0
M  V30 915 H 93.2814 1.6231 -3.44034 0
M  V30 916 H 94.5934 2.32466 -4.41318 0
M  V30 917 H 93.7474 4.62865 -3.92226 0
M  V30 918 H 92.4864 3.95799 -2.84947 0
M  V30 919 H 91.4914 2.7071 -4.78535 0
M  V30 920 H 92.7164 3.40856 -5.87362 0
M  V30 921 H 90.6624 4.97923 -4.27093 0
M  V30 922 H 90.5794 4.64006 -5.96853 0
M  V30 923 H 91.8474 5.66096 -5.35869 0
M  V30 924 N 96.0765 1.50051 0.48192 0
M  V30 925 C 97.3245 1.60181 1.23234 0
M  V30 926 C 97.6455 0.299176 1.92691 0
M  V30 927 O 96.9155 -0.682708 1.83619 0
M  V30 928 H 95.4955 0.590232 0.457859 0
M  V30 929 H 98.1575 1.86775 0.556881 0
M  V30 930 H 97.2535 2.40753 1.98607 0
M  V30 931 N 97.5546 -0.734337 1.39446 0
M  V30 932 C 98.8006 -1.49613 1.36908 0
M  V30 933 C 99.1336 -1.94169 -0.0347829 0
M  V30 934 O 98.4086 -1.66833 -0.999847 0
M  V30 935 C 98.6916 -2.73534 2.34203 0
M  V30 936 C 98.5446 -2.34993 3.83534 0
M  V30 937 C 99.8636 -3.75635 2.29317 0
M  V30 938 H 96.9826 -0.542714 0.498629 0
M  V30 939 H 99.6246 -0.839597 1.70443 0
M  V30 940 H 97.7746 -3.29553 2.05736 0
M  V30 941 H 99.4466 -1.84601 4.22753 0
M  V30 942 H 97.6896 -1.67213 4.00278 0
M  V30 943 H 98.3606 -3.23738 4.47099 0
M  V30 944 H 100.837 -3.29203 2.54489 0
M  V30 945 H 99.7126 -4.60008 2.99472 0
M  V30 946 H 99.9736 -4.22603 1.29842 0
M  V30 947 N 99.0327 -1.24633 -0.964593 0
M  V30 948 C 100.449 -1.01239 -1.2338 0
M  V30 949 C 100.649 0.2769 -1.99588 0
M  V30 950 O 99.7047 0.992241 -2.32187 0
M  V30 951 C 101.018 -2.22937 -2.01791 0
M  V30 952 C 102.566 -2.27594 -2.14872 0
M  V30 953 C 103.041 -3.48921 -2.96678 0
M  V30 954 N 104.532 -3.49257 -3.04259 0
M  V30 955 C 105.267 -4.39795 -3.67924 0
M  V30 956 N 104.763 -5.40591 -4.33281 0
M  V30 957 N 106.556 -4.275 -3.64966 0
M  V30 958 H 98.7067 -2.0748 -0.454502 0
M  V30 959 H 100.97 -0.910647 -0.26349 0
M  V30 960 H 100.676 -3.16587 -1.53184 0
M  V30 961 H 100.55 -2.25306 -3.02518 0
M  V30 962 H 102.937 -1.34473 -2.6268 0
M  V30 963 H 103.018 -2.2925 -1.13482 0
M  V30 964 H 102.662 -4.42359 -2.49562 0
M  V30 965 H 102.592 -3.4451 -3.98272 0
M  V30 966 H 105.083 -2.76337 -2.57771 0
M  V30 967 H 105.396 -6.05904 -4.79687 0
M  V30 968 H 103.741 -5.44475 -4.3194 0
M  V30 969 H 106.932 -3.47987 -3.13086 0
M  V30 970 H 107.105 -4.98258 -4.14298 0
M  V30 971 N 100.511 1.16574 -1.06058 0
M  V30 972 C 101.739 1.90952 -0.796552 0
M  V30 973 C 102.154 1.77302 0.648808 0
M  V30 974 O 101.511 1.11605 1.44397 0
M  V30 975 C 101.562 3.41736 -1.17894 0
M  V30 976 O 101.283 3.54975 -2.56758 0
M  V30 977 C 102.784 4.33169 -0.942308 0
M  V30 978 H 100.004 0.605594 -0.288959 0
M  V30 979 H 102.548 1.47777 -1.41358 0
M  V30 980 H 100.703 3.82623 -0.606491 0
M  V30 981 H 101.117 4.4846 -2.72 0
M  V30 982 H 102.591 5.37439 -1.25952 0
M  V30 983 H 103.068 4.3903 0.122078 0
M  V30 984 H 103.674 3.98007 -1.49902 0
M  V30 985 N 101.989 0.842826 1.3317 0
M  V30 986 C 102.919 0.294028 2.31641 0
M  V30 987 C 103.9 -0.600401 1.59151 0
M  V30 988 O 105.085 -0.523124 1.87022 0
M  V30 989 C 102.215 -0.528416 3.43257 0
M  V30 990 C 101.169 0.27056 4.27144 0
M  V30 991 C 100.495 -0.675881 5.30411 0
M  V30 992 C 101.795 1.48981 5.00602 0
M  V30 993 H 103.489 1.11681 2.77791 0
M  V30 994 H 101.035 0.538478 1.33553 0
M  V30 995 H 102.988 -0.922674 4.11175 0
M  V30 996 H 101.712 -1.38445 2.95805 0
M  V30 997 H 100.371 0.646427 3.60856 0
M  V30 998 H 100.019 -1.52842 4.79216 0
M  V30 999 H 99.7189 -0.145374 5.8742 0
M  V30 1000 H 101.243 -1.06757 6.01195 0
M  V30 1001 H 102.657 1.16849 5.61266 0
M  V30 1002 H 101.054 1.95739 5.6728 0
M  V30 1003 H 102.124 2.25746 4.29147 0
M  V30 1004 N 103.467 -1.45747 0.599634 0
M  V30 1005 C 104.695 -2.06668 0.0978551 0
M  V30 1006 C 105.11 -1.44562 -1.21439 0
M  V30 1007 O 104.467 -0.556923 -1.73795 0
M  V30 1008 C 104.518 -3.61456 -0.0567044 0
M  V30 1009 O 104.239 -4.21242 1.20361 0
M  V30 1010 C 105.74 -4.39345 -0.590869 0
M  V30 1011 H 102.96 -0.667825 0.0651943 0
M  V30 1012 H 105.504 -1.87115 0.82511 0
M  V30 1013 H 103.659 -3.80378 -0.734251 0
M  V30 1014 H 104.073 -5.14323 1.02821 0
M  V30 1015 H 105.547 -5.48182 -0.648131 0
M  V30 1016 H 106.024 -4.08568 -1.61147 0
M  V30 1017 H 106.63 -4.25268 0.0523679 0
M  V30 1018 N 104.945 -0.338344 -1.53925 0
M  V30 1019 C 105.908 0.508299 -2.23493 0
M  V30 1020 C 106.908 1.03175 -1.23335 0
M  V30 1021 O 108.098 0.921826 -1.47811 0
M  V30 1022 C 105.23 1.70754 -2.95052 0
M  V30 1023 H 106.423 -0.100058 -2.99733 0
M  V30 1024 H 103.976 -0.0896198 -1.56043 0
M  V30 1025 H 104.711 2.35474 -2.22986 0
M  V30 1026 H 104.496 1.33946 -3.68512 0
M  V30 1027 H 105.986 2.30818 -3.48013 0
M  V30 1028 N 106.423 1.57458 -0.0668435 0
M  V30 1029 C 107.386 2.11323 0.887422 0
M  V30 1030 C 108.386 1.03618 1.22964 0
M  V30 1031 O 109.576 1.29626 1.16373 0
M  V30 1032 C 106.708 2.61048 2.19242 0
M  V30 1033 H 107.901 2.96942 0.420194 0
M  V30 1034 H 105.454 1.55239 0.181793 0
M  V30 1035 H 106.189 1.78868 2.70512 0
M  V30 1036 H 105.974 3.39769 1.95702 0
M  V30 1037 H 107.464 3.02814 2.87565 0
M  V30 1038 N 107.901 -0.206675 1.56239 0
M  V30 1039 C 108.864 -1.23976 1.92776 0
M  V30 1040 C 109.864 -1.39041 0.807729 0
M  V30 1041 O 111.054 -1.37051 1.0753 0
M  V30 1042 C 108.186 -2.61112 2.19165 0
M  V30 1043 H 109.379 -0.927764 2.85189 0
M  V30 1044 H 106.932 -0.447718 1.4975 0
M  V30 1045 H 107.667 -2.97386 1.29352 0
M  V30 1046 H 107.452 -2.51552 3.00772 0
M  V30 1047 H 108.942 -3.35633 2.48476 0
M  V30 1048 N 109.379 -1.50304 -0.473955 0
M  V30 1049 C 110.625 -1.61389 -1.22806 0
M  V30 1050 C 110.958 -0.311955 -1.91678 0
M  V30 1051 O 110.233 0.686384 -1.81986 0
M  V30 1052 C 110.516 -2.79219 -2.27396 0
M  V30 1053 C 110.369 -4.19286 -1.62848 0
M  V30 1054 C 111.688 -2.92614 -3.28732 0
M  V30 1055 H 108.807 -0.587399 -0.445119 0
M  V30 1056 H 111.449 -1.82681 -0.522265 0
M  V30 1057 H 109.599 -2.61195 -2.87592 0
M  V30 1058 H 111.271 -4.48892 -1.06271 0
M  V30 1059 H 109.514 -4.23677 -0.931693 0
M  V30 1060 H 110.185 -4.97655 -2.38838 0
M  V30 1061 H 112.661 -3.09105 -2.78556 0
M  V30 1062 H 111.537 -3.76688 -3.99246 0
M  V30 1063 H 111.798 -2.03107 -3.92683 0
M  V30 1064 N 110.857 0.726932 -1.39834 0
M  V30 1065 C 112.082 1.52121 -1.40976 0
M  V30 1066 C 112.507 1.88098 -0.00826029 0
M  V30 1067 O 111.865 1.52479 0.980807 0
M  V30 1068 C 111.913 2.78021 -2.29644 0
M  V30 1069 O 111.017 3.74272 -1.73188 0
M  V30 1070 H 110.358 0.45908 -0.479731 0
M  V30 1071 H 112.888 0.896207 -1.83927 0
M  V30 1072 H 112.898 3.26671 -2.44438 0
M  V30 1073 H 111.573 2.51169 -3.31492 0
M  V30 1074 H 110.15 3.33073 -1.6768 0
M  V30 1075 N 112.336 1.25143 0.95797 0
M  V30 1076 C 113.584 1.09476 1.69881 0
M  V30 1077 C 113.905 -0.365502 1.91544 0
M  V30 1078 O 113.175 -1.25985 1.50015 0
M  V30 1079 H 111.755 0.402128 0.629525 0
M  V30 1080 H 114.417 1.57214 1.15194 0
M  V30 1081 H 113.513 1.60046 2.6794 0
M  V30 1082 N 113.814 -1.1601 1.06675 0
M  V30 1083 C 114.777 -2.18724 0.685001 0
M  V30 1084 C 115.777 -1.58496 -0.271246 0
M  V30 1085 O 116.967 -1.74119 -0.0531156 0
M  V30 1086 C 114.099 -3.40899 0.00853648 0
M  V30 1087 H 115.292 -2.54011 1.59431 0
M  V30 1088 H 112.845 -1.30352 0.862441 0
M  V30 1089 H 113.58 -3.11173 -0.913337 0
M  V30 1090 H 113.365 -3.8587 0.696204 0
M  V30 1091 H 114.855 -4.16886 -0.24414 0
M  V30 1092 N 115.292 -0.849877 -1.32721 0
M  V30 1093 C 116.224 -0.248332 -2.27851 0
M  V30 1094 C 117.237 0.577218 -1.52224 0
M  V30 1095 O 118.426 0.402489 -1.73903 0
M  V30 1096 C 115.526 0.668107 -3.32249 0
M  V30 1097 C 114.699 -0.120534 -4.37234 0
M  V30 1098 C 113.758 0.720932 -5.21238 0
M  V30 1099 O 112.784 0.156166 -5.68986 0
M  V30 1100 N 113.986 2.03647 -5.43607 0
M  V30 1101 H 116.751 -1.06575 -2.80111 0
M  V30 1102 H 114.312 -0.709395 -1.45531 0
M  V30 1103 H 116.304 1.23627 -3.85355 0
M  V30 1104 H 114.874 1.38621 -2.80184 0
M  V30 1105 H 114.094 -0.870108 -3.84477 0
M  V30 1106 H 115.382 -0.662406 -5.0447 0
M  V30 1107 H 114.78 2.51871 -5.06535 0
M  V30 1108 H 113.337 2.55287 -5.99727 0
M  V30 1109 N 116.77 1.45427 -0.607355 0
M  V30 1110 C 118.181 1.85756 -0.187535 0
M  V30 1111 C 118.532 1.5077 1.25551 0
M  V30 1112 O 117.657 0.93427 1.95193 0
M  V30 1113 C 118.252 3.37154 -0.333572 0
M  V30 1114 C 116.811 3.76387 0.0315542 0
M  V30 1115 C 115.958 2.69377 -0.658117 0
M  V30 1116 H 118.909 1.36231 -0.81405 0
M  V30 1117 H 118.93 3.78014 0.43428 0
M  V30 1118 H 118.442 3.62586 -1.38393 0
M  V30 1119 H 116.543 3.56571 1.0811 0
M  V30 1120 H 116.656 4.77731 -0.361935 0
M  V30 1121 H 115.02 2.5452 -0.0957873 0
M  V30 1122 H 115.803 2.97646 -1.7106 0
M  V30 1123 N 118.248 0.346503 1.53744 0
M  V30 1124 C 119.497 -0.250122 2.00143 0
M  V30 1125 C 119.81 -1.51418 1.23822 0
M  V30 1126 O 121.016 -2.18823 1.60713 0
M  V30 1127 C 119.472 -0.496252 3.56462 0
M  V30 1128 C 119.08 0.752077 4.41642 0
M  V30 1129 C 120.824 -1.05157 4.11269 0
M  V30 1130 C 118.731 0.476583 5.89477 0
M  V30 1131 H 117.661 -0.0972409 0.747703 0
M  V30 1132 H 120.312 0.46229 1.77581 0
M  V30 1133 H 118.694 -1.26944 3.75102 0
M  V30 1134 H 119.868 1.5266 4.34778 0
M  V30 1135 H 118.183 1.22925 3.97842 0
M  V30 1136 H 120.78 -1.27269 5.19333 0
M  V30 1137 H 121.123 -2.00799 3.64672 0
M  V30 1138 H 121.656 -0.339019 3.96353 0
M  V30 1139 H 118.395 1.4028 6.40314 0
M  V30 1140 H 117.915 -0.259794 5.99237 0
M  V30 1141 H 119.594 0.0949315 6.4693 0
M  V30 1142 N 119.726 -1.57421 0.075193 0
M  V30 1143 C 120.656 -2.15942 -0.888324 0
M  V30 1144 C 121.637 -1.08737 -1.30806 0
M  V30 1145 O 122.822 -1.36787 -1.37851 0
M  V30 1146 C 119.952 -2.72379 -2.1547 0
M  V30 1147 C 118.906 -3.8478 -1.87425 0
M  V30 1148 C 118.232 -4.27834 -3.20721 0
M  V30 1149 C 119.532 -5.08869 -1.17684 0
M  V30 1150 H 121.226 -2.96705 -0.400799 0
M  V30 1151 H 118.772 -1.42723 -0.191342 0
M  V30 1152 H 120.725 -3.11965 -2.83295 0
M  V30 1153 H 119.449 -1.88841 -2.6647 0
M  V30 1154 H 118.108 -3.45703 -1.22004 0
M  V30 1155 H 117.756 -3.41214 -3.6957 0
M  V30 1156 H 117.456 -5.03605 -3.02746 0
M  V30 1157 H 118.98 -4.70039 -3.89738 0
M  V30 1158 H 120.394 -5.4575 -1.75584 0
M  V30 1159 H 118.791 -5.8994 -1.09956 0
M  V30 1160 H 119.861 -4.84648 -0.156453 0
M  V30 1161 N 121.204 0.198386 -1.56346 0
M  V30 1162 C 122.429 0.939682 -1.84891 0
M  V30 1163 C 122.854 1.76202 -0.658369 0
M  V30 1164 O 122.212 1.76993 0.392851 0
M  V30 1165 C 122.26 1.81428 -3.11635 0
M  V30 1166 O 121.364 2.91265 -2.91956 0
M  V30 1167 H 120.705 0.264807 -0.608912 0
M  V30 1168 H 123.235 0.204695 -2.03573 0
M  V30 1169 H 123.245 2.21958 -3.42343 0
M  V30 1170 H 121.92 1.21004 -3.97908 0
M  V30 1171 H 120.497 2.54514 -2.72538 0
M  V30 1172 N 122.682 1.50554 0.465978 0
M  V30 1173 C 123.629 1.6979 1.56333 0
M  V30 1174 C 124.599 0.539239 1.57103 0
M  V30 1175 O 125.784 0.770401 1.74555 0
M  V30 1176 C 122.924 1.80273 2.94271 0
M  V30 1177 C 122.037 3.07674 3.0325 0
M  V30 1178 C 121.172 3.08922 4.32135 0
M  V30 1179 C 120.211 4.30755 4.34875 0
M  V30 1180 N 119.348 4.29714 5.55239 0
M  V30 1181 H 124.188 2.63472 1.39235 0
M  V30 1182 H 121.725 1.30602 0.676873 0
M  V30 1183 H 123.683 1.84332 3.74269 0
M  V30 1184 H 122.313 0.900258 3.09992 0
M  V30 1185 H 121.365 3.13062 2.16094 0
M  V30 1186 H 122.677 3.97642 3.01135 0
M  V30 1187 H 121.831 3.11738 5.20485 0
M  V30 1188 H 120.57 2.16792 4.36866 0
M  V30 1189 H 119.575 4.28146 3.44922 0
M  V30 1190 H 120.8 5.24117 4.31831 0
M  V30 1191 H 118.746 3.4044 5.60746 0
M  V30 1192 H 118.663 5.13456 5.54886 0
M  V30 1193 H 119.931 4.36683 6.457 0
M  V30 1194 N 124.16 -0.719506 1.40217 0
M  V30 1195 C 125.09 -1.8465 1.42922 0
M  V30 1196 C 126.071 -1.67599 0.29062 0
M  V30 1197 O 127.256 -1.87688 0.498677 0
M  V30 1198 C 124.386 -3.22565 1.28722 0
M  V30 1199 C 123.34 -3.54281 2.40144 0
M  V30 1200 C 122.666 -4.91298 2.11023 0
M  V30 1201 C 123.966 -3.55676 3.82481 0
M  V30 1202 H 125.66 -1.82644 2.37237 0
M  V30 1203 H 123.206 -0.877305 1.1419 0
M  V30 1204 H 125.159 -4.01095 1.29232 0
M  V30 1205 H 123.883 -3.25137 0.308811 0
M  V30 1206 H 122.542 -2.78088 2.38877 0
M  V30 1207 H 122.19 -4.90468 1.11582 0
M  V30 1208 H 121.89 -5.13485 2.8567 0
M  V30 1209 H 123.414 -5.72166 2.13209 0
M  V30 1210 H 124.828 -4.24254 3.85592 0
M  V30 1211 H 123.225 -3.89388 4.56614 0
M  V30 1212 H 124.295 -2.55144 4.12346 0
M  V30 1213 N 125.638 -1.25649 -0.95132 0
M  V30 1214 C 126.548 -1.08073 -2.08224 0
M  V30 1215 C 127.564 -0.0169666 -1.73992 0
M  V30 1216 O 128.74 -0.218593 -2.0021 0
M  V30 1217 C 125.805 -0.704922 -3.39458 0
M  V30 1218 C 124.866 -1.84699 -3.87537 0
M  V30 1219 C 124.099 -1.48902 -5.12508 0
M  V30 1220 O 124.322 -0.386156 -5.69091 0
M  V30 1221 O 123.256 -2.32033 -5.55378 0
M  V30 1222 H 127.082 -2.02924 -2.25954 0
M  V30 1223 H 124.667 -1.04618 -1.06656 0
M  V30 1224 H 126.549 -0.507609 -4.18332 0
M  V30 1225 H 125.224 0.214291 -3.2299 0
M  V30 1226 H 124.131 -2.09919 -3.09653 0
M  V30 1227 H 125.464 -2.74557 -4.08509 0
M  V30 1228 N 127.117 1.15442 -1.07289 0
M  V30 1229 C 128.528 1.67803 -0.818475 0
M  V30 1230 C 128.879 1.8489 0.656507 0
M  V30 1231 O 128.004 1.55176 1.50829 0
M  V30 1232 C 128.599 3.04805 -1.47917 0
M  V30 1233 C 127.158 3.54245 -1.27229 0
M  V30 1234 C 126.305 2.29986 -1.54925 0
M  V30 1235 H 129.256 0.996646 -1.23502 0
M  V30 1236 H 129.277 3.69702 -0.90005 0
M  V30 1237 H 128.789 2.92336 -2.55267 0
M  V30 1238 H 126.89 3.71956 -0.21899 0
M  V30 1239 H 127.003 4.35723 -1.99203 0
M  V30 1240 H 125.367 2.35496 -0.970242 0
M  V30 1241 H 126.15 2.20105 -2.63455 0
M  V30 1242 N 128.595 0.856903 1.32268 0
M  V30 1243 C 129.527 0.260412 2.27716 0
M  V30 1244 C 130.54 -0.569137 1.52528 0
M  V30 1245 O 131.729 -0.39326 1.74114 0
M  V30 1246 C 128.829 -0.650477 3.32599 0
M  V30 1247 C 128.002 0.14372 4.37164 0
M  V30 1248 C 127.061 -0.69328 5.21613 0
M  V30 1249 O 126.087 -0.12599 5.69061 0
M  V30 1250 N 127.289 -2.00761 5.44679 0
M  V30 1251 H 130.054 1.08059 2.79541 0
M  V30 1252 H 127.615 0.717103 1.45152 0
M  V30 1253 H 129.607 -1.21581 3.86005 0
M  V30 1254 H 128.177 -1.37133 2.80915 0
M  V30 1255 H 127.397 0.890486 3.8401 0
M  V30 1256 H 128.685 0.68915 5.04111 0
M  V30 1257 H 128.083 -2.49181 5.07863 0
M  V30 1258 H 126.64 -2.52103 6.01072 0
M  V30 1259 N 130.073 -1.45103 0.615059 0
M  V30 1260 C 131.322 -2.01396 0.110718 0
M  V30 1261 C 131.635 -1.48834 -1.26916 0
M  V30 1262 O 132.841 -1.97152 -1.86664 0
M  V30 1263 C 131.297 -3.59599 0.14723 0
M  V30 1264 C 130.905 -4.21158 1.52743 0
M  V30 1265 C 132.649 -4.23428 -0.30148 0
M  V30 1266 C 130.556 -5.71535 1.51992 0
M  V30 1267 H 129.486 -0.753061 0.0376241 0
M  V30 1268 H 132.137 -1.66494 0.77149 0
M  V30 1269 H 130.519 -3.91724 -0.580339 0
M  V30 1270 H 131.693 -4.00594 2.2773 0
M  V30 1271 H 130.008 -3.69552 1.91886 0
M  V30 1272 H 132.605 -5.33703 -0.326392 0
M  V30 1273 H 132.948 -3.94629 -1.32565 0
M  V30 1274 H 133.481 -3.96047 0.373065 0
M  V30 1275 H 130.22 -6.05044 2.52193 0
M  V30 1276 H 129.74 -5.94268 0.81274 0
M  V30 1277 H 131.419 -6.34873 1.24681 0
M  V30 1278 N 131.551 -0.354651 -1.53558 0
M  V30 1279 C 132.514 0.484566 -2.24019 0
M  V30 1280 C 133.514 1.01861 -1.24422 0
M  V30 1281 O 134.704 0.906097 -1.4878 0
M  V30 1282 C 131.836 1.67615 -2.96847 0
M  V30 1283 H 133.029 -0.131843 -2.9961 0
M  V30 1284 H 130.582 -0.106165 -1.55939 0
M  V30 1285 H 131.317 2.33095 -2.25471 0
M  V30 1286 H 131.102 1.30029 -3.69912 0
M  V30 1287 H 132.592 2.27114 -3.50441 0
M  V30 1288 N 133.029 1.57378 -0.0835403 0
M  V30 1289 C 134.254 1.98682 0.594987 0
M  V30 1290 C 134.679 0.961969 1.61641 0
M  V30 1291 O 134.037 -0.0709989 1.81161 0
M  V30 1292 C 134.085 3.38988 1.2296 0
M  V30 1293 O 133.189 3.39208 2.34546 0
M  V30 1294 H 132.53 0.646368 0.152002 0
M  V30 1295 H 135.06 2.03961 -0.161533 0
M  V30 1296 H 135.07 3.76431 1.57366 0
M  V30 1297 H 133.745 4.13107 0.481228 0
M  V30 1298 H 132.322 3.13548 2.01846 0
M  V30 1299 N 134.507 -0.190092 1.56449 0
M  V30 1300 C 135.47 -1.21925 1.9408 0
M  V30 1301 C 136.47 -1.38176 0.822431 0
M  V30 1302 O 137.66 -1.35903 1.08977 0
M  V30 1303 C 134.792 -2.58773 2.21922 0
M  V30 1304 H 135.985 -0.897464 2.86157 0
M  V30 1305 H 133.538 -0.43181 1.50217 0
M  V30 1306 H 134.273 -2.95998 1.32499 0
M  V30 1307 H 134.058 -2.48348 3.03424 0
M  V30 1308 H 135.548 -3.32978 2.52022 0
M  V30 1309 N 135.985 -1.50799 -0.457987 0
M  V30 1310 C 137.21 -1.66496 -1.23668 0
M  V30 1311 C 137.635 -0.353288 -1.84752 0
M  V30 1312 O 136.993 0.684346 -1.67888 0
M  V30 1313 C 137.041 -2.76763 -2.3116 0
M  V30 1314 O 136.145 -2.38928 -3.36136 0
M  V30 1315 H 135.486 -0.555828 -0.363252 0
M  V30 1316 H 138.016 -1.9725 -0.543474 0
M  V30 1317 H 138.026 -3.00232 -2.76269 0
M  V30 1318 H 136.701 -3.71954 -1.86073 0
M  V30 1319 H 135.278 -2.25953 -2.96647 0
M  V30 1320 N 137.463 0.71206 -1.40597 0
M  V30 1321 C 138.373 1.8562 -1.43466 0
M  V30 1322 C 139.389 1.70902 -0.326902 0
M  V30 1323 O 140.565 1.93105 -0.572043 0
M  V30 1324 C 137.63 3.21451 -1.29884 0
M  V30 1325 C 136.691 3.48398 -2.50833 0
M  V30 1326 C 135.924 4.77749 -2.3789 0
M  V30 1327 O 136.147 5.53089 -1.39459 0
M  V30 1328 O 135.081 5.05111 -3.27333 0
M  V30 1329 H 138.907 1.86155 -2.39958 0
M  V30 1330 H 136.492 0.86295 -1.21957 0
M  V30 1331 H 138.374 4.02579 -1.24531 0
M  V30 1332 H 137.049 3.21636 -0.364997 0
M  V30 1333 H 135.956 2.67265 -2.61763 0
M  V30 1334 H 137.289 3.53014 -3.4299 0
M  V30 1335 N 138.941 1.26152 0.944643 0
M  V30 1336 C 140.171 1.14094 1.72239 0
M  V30 1337 C 140.579 -0.306931 1.86694 0
M  V30 1338 O 139.922 -1.22222 1.3714 0
M  V30 1339 C 139.984 1.73316 3.14963 0
M  V30 1340 C 139.648 3.2239 3.23904 0
M  V30 1341 C 140.645 4.19252 3.07447 0
M  V30 1342 C 138.33 3.62788 3.47405 0
M  V30 1343 C 140.324 5.54491 3.14353 0
M  V30 1344 C 138.011 4.98162 3.53947 0
M  V30 1345 C 139.009 5.93823 3.37436 0
M  V30 1346 O 138.697 7.26732 3.43679 0
M  V30 1347 H 138.429 0.398292 0.546205 0
M  V30 1348 H 140.983 1.67201 1.19301 0
M  V30 1349 H 139.213 1.14667 3.69308 0
M  V30 1350 H 140.902 1.56214 3.74636 0
M  V30 1351 H 141.668 3.8938 2.8915 0
M  V30 1352 H 137.547 2.88816 3.59313 0
M  V30 1353 H 141.091 6.29137 3.01384 0
M  V30 1354 H 136.988 5.27695 3.71763 0
M  V30 1355 H 137.756 7.3496 3.60245 0
M  V30 1356 N 140.419 -1.14872 1.07899 0
M  V30 1357 C 141.382 -2.17986 0.708161 0
M  V30 1358 C 142.382 -1.58775 -0.25442 0
M  V30 1359 O 143.572 -1.74166 -0.034645 0
M  V30 1360 C 140.704 -3.40871 0.0446929 0
M  V30 1361 H 141.897 -2.52306 1.62116 0
M  V30 1362 H 139.45 -1.2943 0.876218 0
M  V30 1363 H 140.185 -3.12124 -0.880281 0
M  V30 1364 H 139.97 -3.8511 0.737091 0
M  V30 1365 H 141.46 -4.17121 -0.19991 0
M  V30 1366 N 141.898 -0.863906 -1.31812 0
M  V30 1367 C 142.848 -0.286898 -2.26188 0
M  V30 1368 C 143.832 0.572577 -1.50367 0
M  V30 1369 O 145.024 0.420447 -1.71934 0
M  V30 1370 C 142.153 0.515849 -3.39402 0
M  V30 1371 C 141.239 -0.356531 -4.22599 0
M  V30 1372 N 141.63 -1.44716 -4.84656 0
M  V30 1373 C 139.928 -0.147898 -4.45755 0
M  V30 1374 C 140.629 -1.98462 -5.46798 0
M  V30 1375 N 139.605 -1.28247 -5.28255 0
M  V30 1376 H 143.407 -1.12055 -2.717 0
M  V30 1377 H 140.921 -0.711012 -1.46008 0
M  V30 1378 H 142.918 0.945701 -4.06032 0
M  V30 1379 H 141.578 1.34718 -2.95434 0
M  V30 1380 H 142.589 -1.83008 -4.84488 0
M  V30 1381 H 139.266 0.647973 -4.12441 0
M  V30 1382 H 140.656 -2.89932 -6.06126 0
M  V30 1383 N 143.376 1.44774 -0.622745 0
M  V30 1384 C 144.792 1.56986 -0.287652 0
M  V30 1385 C 144.992 1.61167 1.20944 0
M  V30 1386 O 144.048 1.55015 1.99315 0
M  V30 1387 C 145.361 2.84551 -0.972188 0
M  V30 1388 C 146.909 2.9825 -0.949536 0
M  V30 1389 C 147.384 4.28605 -1.61437 0
M  V30 1390 N 148.875 4.35399 -1.58057 0
M  V30 1391 C 149.61 5.34964 -2.064 0
M  V30 1392 N 149.106 6.40981 -2.62897 0
M  V30 1393 N 150.899 5.26419 -1.97078 0
M  V30 1394 H 143.05 1.40304 -1.59463 0
M  V30 1395 H 145.313 0.671794 -0.668878 0
M  V30 1396 H 145.019 2.87417 -2.02693 0
M  V30 1397 H 144.893 3.73807 -0.504771 0
M  V30 1398 H 147.28 2.94941 0.0967067 0
M  V30 1399 H 147.361 2.10364 -1.45536 0
M  V30 1400 H 147.005 4.32672 -2.66002 0
M  V30 1401 H 146.935 5.15334 -1.08344 0
M  V30 1402 H 149.426 3.59397 -1.16801 0
M  V30 1403 H 149.739 7.13225 -2.97539 0
M  V30 1404 H 148.084 6.4169 -2.66943 0
M  V30 1405 H 151.275 4.42504 -1.52669 0
M  V30 1406 H 151.448 6.03861 -2.35066 0
M  V30 1407 N 144.854 0.36279 1.53368 0
M  V30 1408 C 146.102 -0.227326 2.00817 0
M  V30 1409 C 146.423 -1.49511 1.25186 0
M  V30 1410 O 145.693 -1.92482 0.364348 0
M  V30 1411 H 144.273 -0.0869923 0.741917 0
M  V30 1412 H 146.935 0.488381 1.88682 0
M  V30 1413 H 146.031 -0.456273 3.08747 0
M  V30 1414 N 146.332 -1.57332 0.0918853 0
M  V30 1415 C 147.262 -2.16872 -0.865371 0
M  V30 1416 C 148.243 -1.10118 -1.29646 0
M  V30 1417 O 149.428 -1.38242 -1.36392 0
M  V30 1418 C 146.558 -2.74649 -2.12569 0
M  V30 1419 C 145.512 -3.86747 -1.83333 0
M  V30 1420 C 144.838 -4.31212 -3.16166 0
M  V30 1421 C 146.138 -5.10089 -1.1228 0
M  V30 1422 H 147.832 -2.97114 -0.369307 0
M  V30 1423 H 145.378 -1.42918 -0.176194 0
M  V30 1424 H 147.331 -3.14952 -2.7997 0
M  V30 1425 H 146.055 -1.91657 -2.64452 0
M  V30 1426 H 144.714 -3.46978 -1.18331 0
M  V30 1427 H 144.362 -3.45115 -3.6593 0
M  V30 1428 H 144.062 -5.06788 -2.97388 0
M  V30 1429 H 145.586 -4.74146 -3.84731 0
M  V30 1430 H 147 -5.47582 -1.69785 0
M  V30 1431 H 145.397 -5.91073 -1.03693 0
M  V30 1432 H 146.467 -4.84786 -0.105041 0
M  V30 1433 N 147.81 0.181792 -1.56548 0
M  V30 1434 C 149.087 0.926765 -1.72251 0
M  V30 1435 C 149.467 2.00831 -0.650386 0
M  V30 1436 O 148.815 2.26008 0.336521 0
M  V30 1437 C 149.025 1.50106 -3.1507 0
M  V30 1438 C 150.373 1.97805 -3.75711 0
M  V30 1439 O 151.397 1.59922 -3.18282 0
M  V30 1440 O 150.256 2.67555 -4.76525 0
M  V30 1441 H 147.35 0.435506 -0.703039 0
M  V30 1442 H 149.896 0.170443 -1.68842 0
M  V30 1443 H 148.668 0.72212 -3.84579 0
M  V30 1444 H 148.291 2.32186 -3.22763 0
M  V30 1445 N 149.288 1.51039 0.449983 0
M  V30 1446 C 150.235 1.71439 1.54523 0
M  V30 1447 C 151.205 0.555871 1.56522 0
M  V30 1448 O 152.39 0.788871 1.73728 0
M  V30 1449 C 149.53 1.83384 2.92343 0
M  V30 1450 C 148.643 3.10873 2.9997 0
M  V30 1451 C 147.778 3.13488 4.28834 0
M  V30 1452 C 146.817 4.35343 4.30282 0
M  V30 1453 N 145.954 4.35579 5.5065 0
M  V30 1454 H 150.794 2.64934 1.36433 0
M  V30 1455 H 148.331 1.31312 0.662982 0
M  V30 1456 H 150.289 1.88291 3.72293 0
M  V30 1457 H 148.919 0.933086 3.0902 0
M  V30 1458 H 147.971 3.15336 2.12761 0
M  V30 1459 H 149.283 4.00814 2.96901 0
M  V30 1460 H 148.437 3.17241 5.17149 0
M  V30 1461 H 147.176 2.21414 4.34543 0
M  V30 1462 H 146.181 4.3178 3.40362 0
M  V30 1463 H 147.406 5.28668 4.26248 0
M  V30 1464 H 145.352 3.46369 5.57104 0
M  V30 1465 H 145.269 5.19313 5.49409 0
M  V30 1466 H 146.537 4.43507 6.41032 0
M  V30 1467 N 150.766 -0.704594 1.40972 0
M  V30 1468 C 151.696 -1.83124 1.44872 0
M  V30 1469 C 152.677 -1.67281 0.30838 0
M  V30 1470 O 153.862 -1.87149 0.518556 0
M  V30 1471 C 150.992 -3.21181 1.32136 0
M  V30 1472 C 149.946 -3.51714 2.43888 0
M  V30 1473 C 149.272 -4.89032 2.16222 0
M  V30 1474 C 150.572 -3.516 3.86232 0
M  V30 1475 H 152.266 -1.80117 2.39161 0
M  V30 1476 H 149.812 -0.865145 1.15114 0
M  V30 1477 H 151.765 -3.99702 1.33479 0
M  V30 1478 H 150.489 -3.24791 0.343279 0
M  V30 1479 H 149.148 -2.75539 2.41813 0
M  V30 1480 H 148.796 -4.89256 1.16778 0
M  V30 1481 H 148.496 -5.10426 2.911 0
M  V30 1482 H 150.02 -5.69873 2.19265 0
M  V30 1483 H 151.434 -4.2014 3.9007 0
M  V30 1484 H 149.831 -3.84523 4.60719 0
M  V30 1485 H 150.901 -2.50757 4.15029 0
M  V30 1486 N 152.244 -1.26651 -0.937939 0
M  V30 1487 C 153.154 -1.10276 -2.07066 0
M  V30 1488 C 154.17 -0.0354197 -1.73964 0
M  V30 1489 O 155.346 -0.239816 -1.99967 0
M  V30 1490 C 152.411 -0.740887 -3.38691 0
M  V30 1491 C 151.472 -1.88799 -3.85556 0
M  V30 1492 C 150.705 -1.54329 -5.10899 0
M  V30 1493 O 150.928 -0.446494 -5.6865 0
M  V30 1494 O 149.862 -2.37911 -5.52885 0
M  V30 1495 H 153.688 -2.05309 -2.23789 0
M  V30 1496 H 151.273 -1.05743 -1.0554 0
M  V30 1497 H 153.155 -0.55195 -4.1777 0
M  V30 1498 H 151.83 0.180022 -3.23199 0
M  V30 1499 H 150.737 -2.13191 -3.07409 0
M  V30 1500 H 152.07 -2.78874 -4.05574 0
M  V30 1501 N 153.722 1.14298 -1.08507 0
M  V30 1502 C 154.632 2.23027 -0.727753 0
M  V30 1503 C 155.648 1.71952 0.26619 0
M  V30 1504 O 156.824 2.011 0.109882 0
M  V30 1505 C 153.889 3.46403 -0.143541 0
M  V30 1506 C 152.95 4.12413 -1.19223 0
M  V30 1507 C 152.183 5.29899 -0.635798 0
M  V30 1508 O 152.406 5.67796 0.544393 0
M  V30 1509 O 151.34 5.85717 -1.38634 0
M  V30 1510 H 155.166 2.55945 -1.63481 0
M  V30 1511 H 152.751 1.22248 -0.858817 0
M  V30 1512 H 154.633 4.21018 0.179404 0
M  V30 1513 H 153.308 3.15206 0.736659 0
M  V30 1514 H 152.215 3.39667 -1.56772 0
M  V30 1515 H 153.548 4.47718 -2.04474 0
M  V30 1516 N 155.201 0.870884 1.31352 0
M  V30 1517 C 156.149 0.316445 2.30437 0
M  V30 1518 C 157.143 -0.568965 1.59559 0
M  V30 1519 O 158.349 -0.454964 1.74155 0
M  V30 1520 H 154.724 0.0836521 0.747333 0
M  V30 1521 H 156.695 1.16606 2.74673 0
M  V30 1522 C 155.444 -0.46635 3.44558 0
M  V30 1523 H 154.767 0.205687 3.99271 0
M  V30 1524 H 156.207 -0.819614 4.16003 0
M  V30 1525 C 154.666 -1.65797 2.9328 0
M  V30 1526 O 155.196 -2.75728 2.92125 0
M  V30 1527 N 153.402 -1.49041 2.4947 0
M  V30 1528 H 152.949 -0.59612 2.50608 0
M  V30 1529 H 152.907 -2.28911 2.15516 0
M  V30 1530 N 156.679 -1.44442 0.630414 0
M  V30 1531 C 157.609 -2.33418 -0.0618083 0
M  V30 1532 C 158.59 -1.48165 -0.835541 0
M  V30 1533 O 159.775 -1.76886 -0.801564 0
M  V30 1534 C 156.905 -3.31222 -1.04449 0
M  V30 1535 C 155.859 -4.26288 -0.382436 0
M  V30 1536 C 155.185 -5.13954 -1.47497 0
M  V30 1537 C 156.485 -5.1744 0.710865 0
M  V30 1538 H 158.179 -2.91548 0.681184 0
M  V30 1539 H 155.725 -1.40191 0.329026 0
M  V30 1540 H 157.678 -3.92351 -1.53748 0
M  V30 1541 H 156.402 -2.71299 -1.81836 0
M  V30 1542 H 155.061 -3.6649 0.0899054 0
M  V30 1543 H 154.709 -4.50385 -2.2397 0
M  V30 1544 H 154.409 -5.7837 -1.03737 0
M  V30 1545 H 155.933 -5.77955 -1.96979 0
M  V30 1546 H 157.347 -5.72509 0.300996 0
M  V30 1547 H 155.744 -5.90455 1.07156 0
M  V30 1548 H 156.814 -4.58496 1.57829 0
M  V30 1549 N 158.157 -0.370918 -1.53173 0
M  V30 1550 C 159.568 0.107139 -1.86392 0
M  V30 1551 C 159.919 1.47714 -1.29132 0
M  V30 1552 O 159.044 2.07464 -0.615439 0
M  V30 1553 C 159.639 0.201187 -3.38202 0
M  V30 1554 C 158.198 0.623507 -3.712 0
M  V30 1555 C 157.345 -0.225978 -2.76378 0
M  V30 1556 H 160.296 -0.58951 -1.47345 0
M  V30 1557 H 160.317 1.02377 -3.66468 0
M  V30 1558 H 159.829 -0.796058 -3.79848 0
M  V30 1559 H 157.93 1.62879 -3.35114 0
M  V30 1560 H 158.043 0.394414 -4.77474 0
M  V30 1561 H 156.407 0.305962 -2.52856 0
M  V30 1562 H 157.19 -1.22086 -3.20858 0
M  V30 1563 N 159.635 1.57281 -0.100228 0
M  V30 1564 C 160.884 1.93713 0.561984 0
M  V30 1565 C 161.197 0.984492 1.69018 0
M  V30 1566 O 162.403 1.24273 2.41389 0
M  V30 1567 C 160.859 3.4421 1.05106 0
M  V30 1568 C 160.467 4.47975 -0.0476628 0
M  V30 1569 C 162.211 3.89595 1.68571 0
M  V30 1570 C 160.118 5.89631 0.457055 0
M  V30 1571 H 159.048 0.723082 0.2137 0
M  V30 1572 H 161.699 1.82644 -0.177057 0
M  V30 1573 H 160.081 3.50449 1.84395 0
M  V30 1574 H 161.255 4.53385 -0.823333 0
M  V30 1575 H 159.57 4.1223 -0.587816 0
M  V30 1576 H 162.167 4.92832 2.07414 0
M  V30 1577 H 162.51 3.28526 2.55688 0
M  V30 1578 H 163.043 3.86078 0.958562 0
M  V30 1579 H 159.782 6.54411 -0.377616 0
M  V30 1580 H 159.302 5.87681 1.19962 0
M  V30 1581 H 160.981 6.40363 0.92437 0
M  V30 1582 N 161.113 -0.173488 1.56642 0
M  V30 1583 C 162.043 -1.2171 1.99271 0
M  V30 1584 C 163.024 -1.46289 0.867959 0
M  V30 1585 O 164.209 -1.5766 1.13388 0
M  V30 1586 C 161.339 -2.55651 2.35074 0
M  V30 1587 C 160.293 -2.45645 3.50489 0
M  V30 1588 C 159.619 -3.84056 3.72028 0
M  V30 1589 C 160.919 -1.96302 4.84007 0
M  V30 1590 H 162.613 -0.86275 2.867 0
M  V30 1591 H 160.159 -0.413571 1.37933 0
M  V30 1592 H 162.112 -3.2886 2.63494 0
M  V30 1593 H 160.836 -2.92869 1.44552 0
M  V30 1594 H 159.495 -1.7489 3.22194 0
M  V30 1595 H 159.143 -4.18664 2.788 0
M  V30 1596 H 158.843 -3.7823 4.49684 0
M  V30 1597 H 160.367 -4.58854 4.02846 0
M  V30 1598 H 161.781 -2.59284 5.11317 0
M  V30 1599 H 160.178 -2.01429 5.65284 0
M  V30 1600 H 161.248 -0.917226 4.76146 0
M  V30 1601 N 162.591 -1.51276 -0.441967 0
M  V30 1602 C 163.523 -1.68444 -1.55433 0
M  V30 1603 C 164.536 -0.565187 -1.52674 0
M  V30 1604 O 165.725 -0.839356 -1.57534 0
M  V30 1605 C 162.825 -1.67966 -2.94348 0
M  V30 1606 C 161.998 -2.964 -3.21661 0
M  V30 1607 C 161.057 -2.88171 -4.40277 0
M  V30 1608 O 160.083 -3.62119 -4.39157 0
M  V30 1609 N 161.285 -2.03706 -5.43584 0
M  V30 1610 H 164.05 -2.644 -1.41112 0
M  V30 1611 H 161.611 -1.49104 -0.630838 0
M  V30 1612 H 163.603 -1.60035 -3.71713 0
M  V30 1613 H 162.173 -0.796225 -3.0229 0
M  V30 1614 H 161.393 -3.18234 -2.32638 0
M  V30 1615 H 162.681 -3.81427 -3.36736 0
M  V30 1616 H 162.079 -1.42995 -5.47329 0
M  V30 1617 H 160.636 -2.01658 -6.1982 0
M  V30 1618 N 164.069 0.697108 -1.41344 0
M  V30 1619 C 165.001 1.8224 -1.39001 0
M  V30 1620 C 166.014 1.60152 -0.292428 0
M  V30 1621 O 167.203 1.69684 -0.554048 0
M  V30 1622 C 164.303 3.18976 -1.14489 0
M  V30 1623 C 163.476 3.68105 -2.36258 0
M  V30 1624 C 162.535 4.83506 -2.07625 0
M  V30 1625 O 161.561 4.95201 -2.8065 0
M  V30 1626 N 162.763 5.70637 -1.06555 0
M  V30 1627 H 165.528 1.84742 -2.35988 0
M  V30 1628 H 163.089 0.87937 -1.35936 0
M  V30 1629 H 165.081 3.93801 -0.932885 0
M  V30 1630 H 163.651 3.11508 -0.261043 0
M  V30 1631 H 162.871 2.84204 -2.7317 0
M  V30 1632 H 164.159 3.97667 -3.17393 0
M  V30 1633 H 163.557 5.63817 -0.461125 0
M  V30 1634 H 162.114 6.45368 -0.913444 0
M  V30 1635 N 165.547 1.27147 0.931209 0
M  V30 1636 C 166.958 1.12044 1.49342 0
M  V30 1637 C 167.309 -0.295795 1.93957 0
M  V30 1638 O 166.434 -1.18835 1.80852 0
M  V30 1639 C 167.029 2.02781 2.71414 0
M  V30 1640 C 165.588 1.91794 3.2387 0
M  V30 1641 C 164.735 1.95543 1.96617 0
M  V30 1642 H 167.686 1.40091 0.745672 0
M  V30 1643 H 167.707 1.58156 3.46074 0
M  V30 1644 H 167.219 3.05848 2.38911 0
M  V30 1645 H 165.32 0.916992 3.6114 0
M  V30 1646 H 165.433 2.77852 3.90302 0
M  V30 1647 H 163.797 1.39722 2.12955 0
M  V30 1648 H 164.58 3.00259 1.66432 0
M  V30 1649 N 167.025 -1.13721 1.09112 0
M  V30 1650 C 168.253 -1.88773 0.846899 0
M  V30 1651 C 168.668 -1.7896 -0.601572 0
M  V30 1652 O 168.025 -1.15394 -1.41388 0
M  V30 1653 C 168.076 -3.3849 1.26913 0
M  V30 1654 O 167.797 -3.48043 2.66079 0
M  V30 1655 C 169.298 -4.30518 1.05682 0
M  V30 1656 H 166.518 -0.59772 0.304914 0
M  V30 1657 H 169.062 -1.43977 1.45227 0
M  V30 1658 H 167.217 -3.80881 0.707723 0
M  V30 1659 H 167.631 -4.4109 2.83795 0
M  V30 1660 H 169.105 -5.3391 1.40156 0
M  V30 1661 H 169.582 -4.392 -0.00563416 0
M  V30 1662 H 170.188 -3.93893 1.60402 0
M  V30 1663 N 168.503 -0.877838 -1.30888 0
M  V30 1664 C 169.413 -0.343096 -2.32078 0
M  V30 1665 C 170.429 0.551022 -1.65045 0
M  V30 1666 O 171.605 0.445854 -1.96403 0
M  V30 1667 C 168.67 0.439905 -3.43898 0
M  V30 1668 C 167.731 -0.483111 -4.26573 0
M  V30 1669 C 166.964 0.262616 -5.33053 0
M  V30 1670 O 167.187 1.48967 -5.50604 0
M  V30 1671 O 166.121 -0.383593 -6.00676 0
M  V30 1672 H 169.947 -1.18203 -2.79753 0
M  V30 1673 H 167.532 -0.64145 -1.34929 0
M  V30 1674 H 169.414 0.883504 -4.12034 0
M  V30 1675 H 168.089 1.25526 -2.98371 0
M  V30 1676 H 166.996 -0.975374 -3.61161 0
M  V30 1677 H 168.329 -1.26427 -4.75686 0
M  V30 1678 N 169.982 1.44106 -0.638065 0
M  V30 1679 C 170.929 2.30715 0.062701 0
M  V30 1680 C 171.899 1.43882 0.829883 0
M  V30 1681 O 173.084 1.72775 0.809532 0
M  V30 1682 C 170.224 3.29258 1.03358 0
M  V30 1683 C 169.337 4.31192 0.26409 0
M  V30 1684 C 168.472 5.16825 1.22741 0
M  V30 1685 C 167.511 6.10462 0.447475 0
M  V30 1686 N 166.648 6.8877 1.36161 0
M  V30 1687 H 171.488 2.90096 -0.681781 0
M  V30 1688 H 169.025 1.42925 -0.347988 0
M  V30 1689 H 170.983 3.84886 1.60992 0
M  V30 1690 H 169.613 2.71562 1.74511 0
M  V30 1691 H 168.665 3.77981 -0.428295 0
M  V30 1692 H 169.977 4.97619 -0.343052 0
M  V30 1693 H 169.131 5.77004 1.87487 0
M  V30 1694 H 167.87 4.50488 1.86847 0
M  V30 1695 H 166.875 5.49386 -0.213433 0
M  V30 1696 H 168.1 6.78837 -0.188968 0
M  V30 1697 H 166.046 6.25096 1.98975 0
M  V30 1698 H 165.963 7.51663 0.808656 0
M  V30 1699 H 167.231 7.53467 1.99769 0
M  V30 1700 N 171.46 0.379036 1.52974 0
M  V30 1701 C 172.706 -0.206727 2.01744 0
M  V30 1702 C 173.039 -1.47314 1.26539 0
M  V30 1703 O 172.314 -1.91084 0.362903 0
M  V30 1704 C 172.597 -0.485066 3.56818 0
M  V30 1705 C 172.45 0.795919 4.42702 0
M  V30 1706 C 173.769 -1.28003 4.21074 0
M  V30 1707 H 170.888 -0.0736607 0.73331 0
M  V30 1708 H 173.53 0.506581 1.83122 0
M  V30 1709 H 171.68 -1.09272 3.72816 0
M  V30 1710 H 173.352 1.43307 4.38476 0
M  V30 1711 H 171.595 1.41344 4.10127 0
M  V30 1712 H 172.266 0.555947 5.49193 0
M  V30 1713 H 174.742 -0.765867 4.08991 0
M  V30 1714 H 173.618 -1.44352 5.29579 0
M  V30 1715 H 173.879 -2.29236 3.78026 0
M  V30 1716 N 172.938 -1.57226 0.108567 0
M  V30 1717 C 173.868 -2.17778 -0.84232 0
M  V30 1718 C 174.849 -1.11487 -1.2847 0
M  V30 1719 O 176.034 -1.39681 -1.34918 0
M  V30 1720 C 173.164 -2.76888 -2.09644 0
M  V30 1721 C 172.118 -3.88669 -1.79221 0
M  V30 1722 C 171.444 -4.34541 -3.11574 0
M  V30 1723 C 172.744 -5.11251 -1.06864 0
M  V30 1724 H 174.438 -2.97489 -0.337774 0
M  V30 1725 H 171.984 -1.43097 -0.161025 0
M  V30 1726 H 173.937 -3.17904 -2.76614 0
M  V30 1727 H 172.661 -1.94451 -2.62405 0
M  V30 1728 H 171.32 -3.48213 -1.14644 0
M  V30 1729 H 170.968 -3.48977 -3.62249 0
M  V30 1730 H 170.668 -5.09914 -2.91996 0
M  V30 1731 H 172.192 -4.782 -3.7968 0
M  V30 1732 H 173.606 -5.49352 -1.63968 0
M  V30 1733 H 172.003 -5.9214 -0.974178 0
M  V30 1734 H 173.073 -4.8487 -0.0536168 0
M  V30 1735 N 174.416 0.165178 -1.56732 0
M  V30 1736 C 175.379 1.18822 -1.95995 0
M  V30 1737 C 176.379 1.3685 -0.84431 0
M  V30 1738 O 177.569 1.34152 -1.11126 0
M  V30 1739 C 174.701 2.5521 -2.26011 0
M  V30 1740 H 175.894 0.851825 -2.87548 0
M  V30 1741 H 173.447 0.407857 -1.50885 0
M  V30 1742 H 174.182 2.93852 -1.37191 0
M  V30 1743 H 173.967 2.43489 -3.07336 0
M  V30 1744 H 175.457 3.28927 -2.57288 0
M  V30 1745 N 175.894 1.51508 0.433938 0
M  V30 1746 C 177.171 1.54888 1.19453 0
M  V30 1747 C 177.551 0.315154 2.08734 0
M  V30 1748 O 176.899 -0.699558 2.17528 0
M  V30 1749 C 177.109 2.86467 1.99342 0
M  V30 1750 C 178.457 3.38545 2.56267 0
M  V30 1751 O 179.481 2.88041 2.0955 0
M  V30 1752 O 178.34 4.26675 3.41483 0
M  V30 1753 H 175.434 0.622863 0.544032 0
M  V30 1754 H 177.98 1.63823 0.442732 0
M  V30 1755 H 176.752 3.67718 1.33788 0
M  V30 1756 H 176.375 2.8071 2.8158 0
M  V30 1757 N 177.372 -0.689602 1.41712 0
M  V30 1758 C 178.6 -1.47827 1.44758 0
M  V30 1759 C 179.015 -1.88721 0.0545703 0
M  V30 1760 O 178.372 -1.57176 -0.927463 0
M  V30 1761 C 178.423 -2.73698 2.3616 0
M  V30 1762 O 178.144 -2.34524 3.7004 0
M  V30 1763 C 179.645 -3.67389 2.48072 0
M  V30 1764 H 176.865 -0.455357 0.49284 0
M  V30 1765 H 179.409 -0.848574 1.86063 0
M  V30 1766 H 177.564 -3.32891 1.98148 0
M  V30 1767 H 177.978 -3.15701 4.18847 0
M  V30 1768 H 179.452 -4.52475 3.16181 0
M  V30 1769 H 179.929 -4.12284 1.51388 0
M  V30 1770 H 180.535 -3.14097 2.86746 0
M  V30 1771 N 178.85 -1.27639 -0.924453 0
M  V30 1772 C 179.797 -1.10644 -2.0255 0
M  V30 1773 C 180.767 -0.00658438 -1.66099 0
M  V30 1774 O 181.952 -0.16952 -1.90045 0
M  V30 1775 C 179.092 -0.76309 -3.36557 0
M  V30 1776 C 178.205 -1.94091 -3.85944 0
M  V30 1777 C 177.34 -1.53914 -5.08413 0
M  V30 1778 C 176.379 -2.68425 -5.50104 0
M  V30 1779 N 175.516 -2.28815 -6.63768 0
M  V30 1780 H 180.356 -2.04858 -2.16419 0
M  V30 1781 H 177.893 -1.01974 -1.06017 0
M  V30 1782 H 179.851 -0.544822 -4.13627 0
M  V30 1783 H 178.481 0.142102 -3.22487 0
M  V30 1784 H 177.533 -2.27162 -3.05125 0
M  V30 1785 H 178.845 -2.7998 -4.12811 0
M  V30 1786 H 177.999 -1.28231 -5.92994 0
M  V30 1787 H 176.738 -0.651391 -4.8333 0
M  V30 1788 H 175.743 -2.94819 -4.64071 0
M  V30 1789 H 176.968 -3.57826 -5.7718 0
M  V30 1790 H 174.914 -1.42495 -6.40337 0
M  V30 1791 H 174.831 -3.08242 -6.90306 0
M  V30 1792 H 176.099 -2.06387 -7.51681 0
M  V30 1793 N 180.328 1.1314 -1.09713 0
M  V30 1794 C 181.238 2.22242 -0.751367 0
M  V30 1795 C 182.254 1.72224 0.247938 0
M  V30 1796 O 183.43 2.01205 0.0885463 0
M  V30 1797 C 180.495 3.46231 -0.180274 0
M  V30 1798 C 179.556 4.11125 -1.2359 0
M  V30 1799 C 178.789 5.29195 -0.691966 0
M  V30 1800 O 179.012 5.68342 0.48414 0
M  V30 1801 O 177.946 5.84214 -1.44838 0
M  V30 1802 H 181.772 2.54197 -1.66186 0
M  V30 1803 H 179.357 1.21331 -0.871735 0
M  V30 1804 H 181.239 4.21185 0.134739 0
M  V30 1805 H 179.914 3.1597 0.703185 0
M  V30 1806 H 178.821 3.37985 -1.60366 0
M  V30 1807 H 180.154 4.45524 -2.09211 0
M  V30 1808 N 181.806 0.884767 1.30421 0
M  V30 1809 C 182.736 0.367574 2.30589 0
M  V30 1810 C 183.717 -0.549464 1.60981 0
M  V30 1811 O 184.902 -0.46336 1.88591 0
M  V30 1812 C 182.032 -0.418944 3.44764 0
M  V30 1813 C 180.986 0.406316 4.26067 0
M  V30 1814 C 180.312 -0.506793 5.32293 0
M  V30 1815 C 181.612 1.64832 4.95608 0
M  V30 1816 H 183.306 1.20462 2.74097 0
M  V30 1817 H 180.852 0.580695 1.31772 0
M  V30 1818 H 182.805 -0.791395 4.13902 0
M  V30 1819 H 181.529 -1.28964 3.0006 0
M  V30 1820 H 180.188 0.760903 3.58617 0
M  V30 1821 H 179.836 -1.37519 4.83836 0
M  V30 1822 H 179.536 0.0415828 5.87585 0
M  V30 1823 H 181.06 -0.875764 6.04287 0
M  V30 1824 H 182.474 1.34646 5.57264 0
M  V30 1825 H 180.871 2.13688 5.60765 0
M  V30 1826 H 181.941 2.39284 4.21748 0
M  V30 1827 N 183.284 -1.43765 0.645699 0
M  V30 1828 C 184.53 -2.02197 0.156271 0
M  V30 1829 C 184.863 -1.50776 -1.22393 0
M  V30 1830 O 184.138 -0.697771 -1.81553 0
M  V30 1831 C 184.421 -3.59749 0.158872 0
M  V30 1832 C 184.274 -4.21419 1.57245 0
M  V30 1833 C 185.593 -4.37149 -0.50879 0
M  V30 1834 H 182.712 -0.734694 0.0582602 0
M  V30 1835 H 185.354 -1.71157 0.824951 0
M  V30 1836 H 183.504 -3.86325 -0.410525 0
M  V30 1837 H 185.176 -4.059 2.19186 0
M  V30 1838 H 183.419 -3.78356 2.122 0
M  V30 1839 H 184.09 -5.30482 1.52619 0
M  V30 1840 H 186.566 -4.16093 -0.024412 0
M  V30 1841 H 185.442 -5.4683 -0.476213 0
M  V30 1842 H 185.703 -4.12839 -1.58165 0
M  V30 1843 N 184.763 -0.387143 -1.52771 0
M  V30 1844 C 185.988 0.198407 -2.06449 0
M  V30 1845 C 186.413 1.39918 -1.25716 0
M  V30 1846 O 185.771 1.79099 -0.281657 0
M  V30 1847 C 185.819 0.548893 -3.56398 0
M  V30 1848 O 184.923 1.64315 -3.78252 0
M  V30 1849 H 184.264 0.0237731 -0.663574 0
M  V30 1850 H 186.794 -0.553989 -1.96957 0
M  V30 1851 H 186.804 0.813812 -3.99801 0
M  V30 1852 H 185.479 -0.329005 -4.14597 0
M  V30 1853 H 184.056 1.37211 -3.46738 0
M  V30 1854 N 186.241 1.57166 -0.116904 0
M  V30 1855 C 187.466 1.999 0.55271 0
M  V30 1856 C 187.891 0.996039 1.59564 0
M  V30 1857 O 187.249 -0.032556 1.81271 0
M  V30 1858 C 187.297 3.4152 1.15742 0
M  V30 1859 O 186.401 3.44106 2.27299 0
M  V30 1860 H 185.742 0.649447 0.138258 0
M  V30 1861 H 188.272 2.03573 -0.204759 0
M  V30 1862 H 188.282 3.79684 1.49346 0
M  V30 1863 H 186.957 4.14034 0.393493 0
M  V30 1864 H 185.534 3.17759 1.9515 0
M  V30 1865 N 187.719 -0.156864 1.56817 0
M  V30 1866 C 188.666 -1.19394 1.97519 0
M  V30 1867 C 189.636 -1.4322 0.841265 0
M  V30 1868 O 190.821 -1.55719 1.10255 0
M  V30 1869 C 187.961 -2.52483 2.35258 0
M  V30 1870 C 187.074 -2.35914 3.61896 0
M  V30 1871 C 186.209 -3.61969 3.88782 0
M  V30 1872 C 185.248 -3.40395 5.08722 0
M  V30 1873 N 184.385 -4.58556 5.31668 0
M  V30 1874 H 189.225 -0.839845 2.85921 0
M  V30 1875 H 186.762 -0.403264 1.41464 0
M  V30 1876 H 188.72 -3.30071 2.55165 0
M  V30 1877 H 187.35 -2.85859 1.49949 0
M  V30 1878 H 186.402 -1.49429 3.49821 0
M  V30 1879 H 187.714 -2.15926 4.49641 0
M  V30 1880 H 186.868 -4.47989 4.09135 0
M  V30 1881 H 185.607 -3.84951 2.9944 0
M  V30 1882 H 184.612 -2.52763 4.88253 0
M  V30 1883 H 185.837 -3.18822 5.99608 0
M  V30 1884 H 183.783 -4.81729 4.45279 0
M  V30 1885 H 183.7 -4.41535 6.13664 0
M  V30 1886 H 184.968 -5.45817 5.5651 0
M  V30 1887 N 189.197 -1.51736 -0.425897 0
M  V30 1888 C 190.443 -1.65214 -1.1761 0
M  V30 1889 C 190.776 -0.372778 -1.90589 0
M  V30 1890 O 190.051 0.628139 -1.84078 0
M  V30 1891 C 190.334 -2.86312 -2.18398 0
M  V30 1892 C 190.187 -4.24254 -1.49426 0
M  V30 1893 C 191.506 -3.02925 -3.19256 0
M  V30 1894 H 188.625 -0.601263 -0.426206 0
M  V30 1895 H 191.267 -1.8425 -0.463882 0
M  V30 1896 H 189.417 -2.70213 -2.79137 0
M  V30 1897 H 191.089 -4.52046 -0.919362 0
M  V30 1898 H 189.332 -4.26426 -0.796432 0
M  V30 1899 H 190.003 -5.05001 -2.22885 0
M  V30 1900 H 192.479 -3.1781 -2.68581 0
M  V30 1901 H 191.355 -3.89199 -3.8706 0
M  V30 1902 H 191.616 -2.15497 -3.86023 0
M  V30 1903 N 190.675 0.682077 -1.42076 0
M  V30 1904 C 191.9 1.47558 -1.45744 0
M  V30 1905 C 192.325 1.87977 -0.0680981 0
M  V30 1906 O 191.683 1.55522 0.9318 0
M  V30 1907 C 191.731 2.70575 -2.38373 0
M  V30 1908 O 190.835 3.68573 -1.85007 0
M  V30 1909 H 190.176 0.443585 -0.494093 0
M  V30 1910 H 192.706 0.837238 -1.86686 0
M  V30 1911 H 192.716 3.18729 -2.54707 0
M  V30 1912 H 191.391 2.40495 -3.39315 0
M  V30 1913 H 189.968 3.2757 -1.78192 0
M  V30 1914 N 192.153 1.28127 0.917671 0
M  V30 1915 C 193.401 1.14825 1.66312 0
M  V30 1916 C 193.722 -0.304379 1.9261 0
M  V30 1917 O 192.992 -1.21149 1.53947 0
M  V30 1918 H 191.572 0.421953 0.616413 0
M  V30 1919 H 194.234 1.608 1.10134 0
M  V30 1920 H 193.33 1.68489 2.62712 0
M  V30 1921 N 193.631 -1.12557 1.10312 0
M  V30 1922 C 194.594 -2.16434 0.75424 0
M  V30 1923 C 195.594 -1.59278 -0.220685 0
M  V30 1924 O 196.784 -1.742 0.00230591 0
M  V30 1925 C 193.916 -3.40699 0.116987 0
M  V30 1926 H 195.109 -2.48811 1.67431 0
M  V30 1927 H 192.662 -1.27542 0.903475 0
M  V30 1928 H 193.397 -3.13921 -0.813877 0
M  V30 1929 H 193.182 -3.83459 0.818613 0
M  V30 1930 H 194.672 -4.17451 -0.111387 0
M  V30 1931 N 195.109 -0.891671 -1.2995 0
M  V30 1932 C 196.041 -0.320695 -2.26945 0
M  V30 1933 C 197.054 0.528497 -1.53983 0
M  V30 1934 O 198.243 0.346959 -1.75096 0
M  V30 1935 C 195.343 0.562066 -3.34207 0
M  V30 1936 C 194.516 -0.259576 -4.36629 0
M  V30 1937 C 193.575 0.554739 -5.23268 0
M  V30 1938 O 192.601 -0.0249311 -5.69195 0
M  V30 1939 N 193.803 1.8625 -5.4981 0
M  V30 1940 H 196.568 -1.15432 -2.76578 0
M  V30 1941 H 194.129 -0.755336 -1.432 0
M  V30 1942 H 196.121 1.11304 -3.89093 0
M  V30 1943 H 194.691 1.29637 -2.84452 0
M  V30 1944 H 193.911 -0.991986 -3.81514 0
M  V30 1945 H 195.199 -0.822564 -5.02107 0
M  V30 1946 H 194.597 2.35628 -5.14292 0
M  V30 1947 H 193.154 2.36078 -6.07545 0
M  V30 1948 N 196.587 1.43421 -0.653314 0
M  V30 1949 C 197.497 2.34568 0.0388565 0
M  V30 1950 C 198.513 1.53888 0.81207 0
M  V30 1951 O 199.689 1.86539 0.759294 0
M  V30 1952 C 196.754 3.32167 0.993269 0
M  V30 1953 C 195.815 4.28751 0.216977 0
M  V30 1954 C 195.048 5.21688 1.12593 0
M  V30 1955 O 195.271 5.19052 2.36519 0
M  V30 1956 O 194.205 5.98919 0.598284 0
M  V30 1957 H 198.031 2.95251 -0.711386 0
M  V30 1958 H 195.616 1.43564 -0.413502 0
M  V30 1959 H 197.498 3.92183 1.54176 0
M  V30 1960 H 196.173 2.73987 1.72374 0
M  V30 1961 H 195.08 3.72215 -0.375101 0
M  V30 1962 H 196.413 4.89913 -0.473924 0
M  V30 1963 N 198.065 0.39524 1.52563 0
M  V30 1964 C 198.998 -0.4813 2.23067 0
M  V30 1965 C 199.976 -1.05927 1.23362 0
M  V30 1966 O 201.16 -1.10979 1.52368 0
M  V30 1967 C 198.287 -1.66676 2.9485 0
M  V30 1968 C 197.333 -1.21348 4.08873 0
M  V30 1969 S 198.166 -0.190102 5.35162 0
M  V30 1970 C 199.322 -1.38121 6.1047 0
M  V30 1971 H 199.555 0.117381 2.97068 0
M  V30 1972 H 197.088 0.179458 1.53354 0
M  V30 1973 H 199.046 -2.3466 3.36816 0
M  V30 1974 H 197.707 -2.23676 2.20518 0
M  V30 1975 H 196.9 -2.09877 4.58222 0
M  V30 1976 H 196.502 -0.612486 3.68951 0
M  V30 1977 H 198.794 -2.30726 6.37002 0
M  V30 1978 H 199.737 -0.928521 7.01986 0
M  V30 1979 H 200.145 -1.60071 5.41329 0
M  V30 1980 N 199.544 -1.57102 0.125237 0
M  V30 1981 C 200.79 -1.95697 -0.532035 0
M  V30 1982 C 201.123 -1.009 -1.6593 0
M  V30 1983 O 200.398 -0.047347 -1.94442 0
M  V30 1984 C 200.681 -3.44181 -1.05884 0
M  V30 1985 C 200.534 -4.49752 0.0654392 0
M  V30 1986 C 201.853 -3.94655 -1.9477 0
M  V30 1987 H 198.972 -0.711571 -0.191925 0
M  V30 1988 H 201.614 -1.88923 0.20206 0
M  V30 1989 H 199.764 -3.50085 -1.68442 0
M  V30 1990 H 201.436 -4.55943 0.700982 0
M  V30 1991 H 199.679 -4.27653 0.727709 0
M  V30 1992 H 200.35 -5.50924 -0.344505 0
M  V30 1993 H 202.826 -3.91094 -1.42074 0
M  V30 1994 H 201.702 -4.99057 -2.28546 0
M  V30 1995 H 201.963 -3.35718 -2.87656 0
M  V30 1996 N 201.022 0.148545 -1.56898 0
M  V30 1997 C 202.247 0.880385 -1.87787 0
M  V30 1998 C 202.672 1.74018 -0.714093 0
M  V30 1999 O 202.03 1.78153 0.336343 0
M  V30 2000 C 202.078 1.71422 -3.17249 0
M  V30 2001 O 201.182 2.8183 -3.01074 0
M  V30 2002 H 200.523 0.245301 -0.617028 0
M  V30 2003 H 203.053 0.139826 -2.04122 0
M  V30 2004 H 203.063 2.10954 -3.49231 0
M  V30 2005 H 201.738 1.08284 -4.01556 0
M  V30 2006 H 200.315 2.45715 -2.80497 0
M  V30 2007 N 202.5 1.5196 0.417844 0
M  V30 2008 C 203.725 1.69717 1.1921 0
M  V30 2009 C 204.15 0.402148 1.83751 0
M  V30 2010 O 203.508 -0.639593 1.69643 0
M  V30 2011 C 203.556 2.82794 2.2374 0
M  V30 2012 O 202.66 2.47756 3.29683 0
M  V30 2013 H 202.001 0.565263 0.348387 0
M  V30 2014 H 204.531 1.98621 0.490985 0
M  V30 2015 H 204.541 3.07452 2.68212 0
M  V30 2016 H 203.216 3.76756 1.76146 0
M  V30 2017 H 201.793 2.33739 2.90552 0
M  V30 2018 N 203.978 -0.674533 1.42435 0
M  V30 2019 C 204.941 -1.76986 1.45632 0
M  V30 2020 C 205.941 -1.5708 0.343871 0
M  V30 2021 O 207.131 -1.63367 0.604709 0
M  V30 2022 C 204.263 -3.15623 1.28822 0
M  V30 2023 H 205.456 -1.75539 2.43158 0
M  V30 2024 H 203.009 -0.884189 1.28887 0
M  V30 2025 H 203.744 -3.22696 0.322193 0
M  V30 2026 H 203.529 -3.31475 2.09444 0
M  V30 2027 H 205.019 -3.95537 1.33942 0
M  V30 2028 N 205.456 -1.28612 -0.910864 0
M  V30 2029 C 206.403 -1.12786 -2.01365 0
M  V30 2030 C 207.373 -0.024201 -1.66082 0
M  V30 2031 O 208.558 -0.189667 -1.89855 0
M  V30 2032 C 205.698 -0.798743 -3.35729 0
M  V30 2033 C 204.811 -1.98173 -3.83864 0
M  V30 2034 C 203.946 -1.59298 -5.06752 0
M  V30 2035 C 202.985 -2.74245 -5.47226 0
M  V30 2036 N 202.122 -2.35842 -6.61304 0
M  V30 2037 H 206.962 -2.07142 -2.14234 0
M  V30 2038 H 204.499 -1.03093 -1.0493 0
M  V30 2039 H 206.457 -0.588662 -4.13026 0
M  V30 2040 H 205.087 0.10789 -3.2262 0
M  V30 2041 H 204.139 -2.30386 -3.02699 0
M  V30 2042 H 205.451 -2.84343 -4.09818 0
M  V30 2043 H 204.605 -1.34513 -5.916 0
M  V30 2044 H 203.344 -0.702618 -4.82612 0
M  V30 2045 H 202.349 -2.99725 -4.60918 0
M  V30 2046 H 203.574 -3.63928 -5.73353 0
M  V30 2047 H 201.52 -1.49279 -6.38789 0
M  V30 2048 H 201.437 -3.15546 -6.86998 0
M  V30 2049 H 202.705 -2.14348 -7.4945 0
M  V30 2050 N 206.934 1.1197 -1.10907 0
M  V30 2051 C 208.211 1.79959 -0.766432 0
M  V30 2052 C 208.591 1.97466 0.746363 0
M  V30 2053 O 207.939 1.55491 1.67436 0
M  V30 2054 C 208.149 3.14009 -1.52314 0
M  V30 2055 C 209.497 3.89134 -1.69883 0
M  V30 2056 O 210.521 3.2368 -1.48692 0
M  V30 2057 O 209.38 5.06572 -2.05054 0
M  V30 2058 H 206.474 0.779208 -0.277062 0
M  V30 2059 H 209.02 1.18762 -1.21217 0
M  V30 2060 H 207.792 2.96587 -2.55249 0
M  V30 2061 H 207.415 3.82915 -1.07059 0
M  V30 2062 N 208.412 0.89855 1.29475 0
M  V30 2063 C 209.64 0.539261 1.99749 0
M  V30 2064 C 210.055 -0.875716 1.67262 0
M  V30 2065 O 209.412 -1.57786 0.917049 0
M  V30 2066 C 209.463 0.72061 3.54245 0
M  V30 2067 O 209.184 2.07989 3.8558 0
M  V30 2068 C 210.685 0.366118 4.41786 0
M  V30 2069 H 207.905 0.207047 0.638258 0
M  V30 2070 H 210.449 1.20758 1.65039 0
M  V30 2071 H 208.604 0.0994862 3.87272 0
M  V30 2072 H 209.018 2.10841 4.80257 0
M  V30 2073 H 210.492 0.543848 5.49314 0
M  V30 2074 H 210.969 -0.696763 4.33638 0
M  V30 2075 H 211.575 0.964135 4.14228 0
M  V30 2076 N 209.89 -1.43072 0.660911 0
M  V30 2077 C 211.136 -2.0202 0.177708 0
M  V30 2078 C 211.469 -1.52066 -1.20787 0
M  V30 2079 O 210.744 -0.716987 -1.80802 0
M  V30 2080 C 211.027 -3.59561 0.197019 0
M  V30 2081 C 210.88 -4.19727 1.61706 0
M  V30 2082 C 212.199 -4.37664 -0.462396 0
M  V30 2083 H 209.318 -0.734034 0.0660494 0
M  V30 2084 H 211.96 -1.70272 0.843058 0
M  V30 2085 H 210.11 -3.86739 -0.369527 0
M  V30 2086 H 211.782 -4.03553 2.23479 0
M  V30 2087 H 210.025 -3.76084 2.16201 0
M  V30 2088 H 210.696 -5.28834 1.58237 0
M  V30 2089 H 213.172 -4.16095 0.0197215 0
M  V30 2090 H 212.048 -5.47305 -0.418188 0
M  V30 2091 H 212.309 -4.14493 -1.53778 0
M  V30 2092 N 211.368 -0.403325 -1.52352 0
M  V30 2093 C 212.331 0.413051 -2.25447 0
M  V30 2094 C 213.331 0.978513 -1.276 0
M  V30 2095 O 214.521 0.858305 -1.51587 0
M  V30 2096 C 211.653 1.58087 -3.02029 0
M  V30 2097 H 212.846 -0.227094 -2.99039 0
M  V30 2098 H 210.399 -0.155722 -1.55522 0
M  V30 2099 H 211.134 2.25804 -2.32772 0
M  V30 2100 H 210.919 1.18195 -3.73861 0
M  V30 2101 H 212.409 2.1585 -3.57489 0
M  V30 2102 N 212.846 1.57033 -0.133567 0
M  V30 2103 C 214.074 2.00044 0.528195 0
M  V30 2104 C 214.489 1.01349 1.59291 0
M  V30 2105 O 213.846 0.00848369 1.82498 0
M  V30 2106 C 213.897 3.43018 1.1411 0
M  V30 2107 O 213.618 4.37939 0.11892 0
M  V30 2108 C 215.119 4.01237 1.88477 0
M  V30 2109 H 212.339 0.656517 0.138661 0
M  V30 2110 H 214.883 2.03267 -0.224196 0
M  V30 2111 H 213.038 3.40688 1.84418 0
M  V30 2112 H 213.452 5.21436 0.56613 0
M  V30 2113 H 214.926 5.03314 2.26669 0
M  V30 2114 H 215.403 3.41193 2.76558 0
M  V30 2115 H 216.009 4.07156 1.22898 0
M  V30 2116 N 214.325 -0.140222 1.56975 0
M  V30 2117 C 215.257 -1.19818 1.95388 0
M  V30 2118 C 216.27 -1.38816 0.850525 0
M  V30 2119 O 217.459 -1.38267 1.12891 0
M  V30 2120 C 214.559 -2.56189 2.21857 0
M  V30 2121 C 213.732 -2.58077 3.5315 0
M  V30 2122 C 212.791 -3.76037 3.6808 0
M  V30 2123 O 211.817 -3.60598 4.40406 0
M  V30 2124 N 213.019 -4.93763 3.05251 0
M  V30 2125 H 215.784 -0.871609 2.86746 0
M  V30 2126 H 213.345 -0.32972 1.58507 0
M  V30 2127 H 215.337 -3.33623 2.2908 0
M  V30 2128 H 213.907 -2.81111 1.36731 0
M  V30 2129 H 213.127 -1.6651 3.57307 0
M  V30 2130 H 214.415 -2.56377 4.39486 0
M  V30 2131 H 213.813 -5.09209 2.46419 0
M  V30 2132 H 212.37 -5.68949 3.18026 0
M  V30 2133 N 215.803 -1.52179 -0.40978 0
M  V30 2134 C 216.733 -1.78435 -1.5061 0
M  V30 2135 C 217.714 -0.635295 -1.57791 0
M  V30 2136 O 218.899 -0.880823 -1.73076 0
M  V30 2137 C 216.029 -1.93444 -2.88439 0
M  V30 2138 C 214.983 -3.09038 -2.96108 0
M  V30 2139 C 214.309 -3.09268 -4.36185 0
M  V30 2140 C 215.609 -4.48508 -2.67652 0
M  V30 2141 H 217.303 -2.70237 -1.28889 0
M  V30 2142 H 214.849 -1.30036 -0.618605 0
M  V30 2143 H 216.802 -2.10394 -3.65119 0
M  V30 2144 H 215.526 -0.983129 -3.11452 0
M  V30 2145 H 214.185 -2.91837 -2.21872 0
M  V30 2146 H 213.833 -2.11861 -4.56206 0
M  V30 2147 H 213.533 -3.86907 -4.42241 0
M  V30 2148 H 215.057 -3.28348 -5.14801 0
M  V30 2149 H 216.471 -4.65918 -3.34056 0
M  V30 2150 H 214.868 -5.28059 -2.85085 0
M  V30 2151 H 215.938 -4.56649 -1.63095 0
M  V30 2152 N 217.281 0.66697 -1.42791 0
M  V30 2153 C 218.506 1.46004 -1.47301 0
M  V30 2154 C 218.931 1.87894 -0.0880317 0
M  V30 2155 O 218.289 1.56502 0.915253 0
M  V30 2156 C 218.337 2.68031 -2.41229 0
M  V30 2157 O 217.441 3.6659 -1.88906 0
M  V30 2158 H 216.782 0.43832 -0.49877 0
M  V30 2159 H 219.312 0.817391 -1.87563 0
M  V30 2160 H 219.322 3.1601 -2.58073 0
M  V30 2161 H 217.997 2.36883 -3.41847 0
M  V30 2162 H 216.574 3.25661 -1.81656 0
M  V30 2163 N 218.759 1.29093 0.90403 0
M  V30 2164 C 219.669 1.15727 2.0407 0
M  V30 2165 C 220.685 0.0815308 1.73809 0
M  V30 2166 O 221.861 0.292749 1.99261 0
M  V30 2167 C 218.926 0.830424 3.36608 0
M  V30 2168 C 217.987 1.98955 3.80415 0
M  V30 2169 C 217.22 1.6782 5.06628 0
M  V30 2170 O 217.443 0.597105 5.67266 0
M  V30 2171 O 216.377 2.52486 5.46383 0
M  V30 2172 H 220.203 2.11171 2.18267 0
M  V30 2173 H 217.788 1.08504 1.027 0
M  V30 2174 H 219.67 0.662521 4.16159 0
M  V30 2175 H 218.345 -0.0942678 3.23563 0
M  V30 2176 H 217.252 2.21267 3.01648 0
M  V30 2177 H 218.585 2.89529 3.98037 0
M  V30 2178 N 220.237 -1.11381 1.11499 0
M  V30 2179 C 221.2 -2.15622 0.777153 0
M  V30 2180 C 222.2 -1.59504 -0.203779 0
M  V30 2181 O 223.39 -1.74188 0.020782 0
M  V30 2182 C 220.522 -3.40556 0.153116 0
M  V30 2183 H 221.715 -2.47021 1.70061 0
M  V30 2184 H 219.268 -1.26577 0.916952 0
M  V30 2185 H 220.003 -3.14767 -0.780536 0
M  V30 2186 H 219.788 -3.8257 0.859238 0
M  V30 2187 H 221.278 -4.17546 -0.0671044 0
M  V30 2188 N 221.715 -0.905404 -1.28997 0
M  V30 2189 C 222.961 -0.535039 -1.95615 0
M  V30 2190 C 223.294 0.917404 -1.71165 0
M  V30 2191 O 222.569 1.65123 -1.02785 0
M  V30 2192 C 222.852 -0.834918 -3.50287 0
M  V30 2193 C 222.705 -2.33948 -3.84172 0
M  V30 2194 C 224.024 -0.325318 -4.38896 0
M  V30 2195 H 221.143 -0.195861 -0.710498 0
M  V30 2196 H 223.785 -1.13313 -1.52513 0
M  V30 2197 H 221.935 -0.325904 -3.87131 0
M  V30 2198 H 223.607 -2.91847 -3.57243 0
M  V30 2199 H 221.85 -2.79789 -3.31513 0
M  V30 2200 H 222.521 -2.49987 -4.92149 0
M  V30 2201 H 224.997 -0.761256 -4.09077 0
M  V30 2202 H 223.873 -0.564295 -5.45992 0
M  V30 2203 H 224.134 0.774144 -4.35269 0
M  V30 2204 N 223.193 1.4272 -0.668489 0
M  V30 2205 C 224.47 1.95248 -0.117373 0
M  V30 2206 C 224.85 1.60919 1.36632 0
M  V30 2207 O 224.198 0.902095 2.09939 0
M  V30 2208 C 224.408 3.46927 -0.379806 0
M  V30 2209 C 225.756 4.23588 -0.292923 0
M  V30 2210 O 226.78 3.5482 -0.313204 0
M  V30 2211 O 225.639 5.46017 -0.229697 0
M  V30 2212 H 222.733 0.827 0.00079152 0
M  V30 2213 H 225.279 1.52581 -0.742783 0
M  V30 2214 H 224.051 3.65096 -1.40786 0
M  V30 2215 H 223.674 3.96627 0.277923 0
M  V30 2216 N 224.671 0.411399 1.52136 0
M  V30 2217 C 225.634 -0.401089 2.25663 0
M  V30 2218 C 226.634 -0.971732 1.28117 0
M  V30 2219 O 227.824 -0.850254 1.52041 0
M  V30 2220 C 224.956 -1.56483 3.02863 0
M  V30 2221 H 226.149 0.24295 2.98914 0
M  V30 2222 H 223.702 0.163968 1.55438 0
M  V30 2223 H 224.437 -2.24567 2.33967 0
M  V30 2224 H 224.222 -1.16211 3.74483 0
M  V30 2225 H 225.712 -2.13951 3.58629 0
M  V30 2226 N 226.149 -1.5696 0.141893 0
M  V30 2227 C 227.377 -2.00322 -0.517579 0
M  V30 2228 C 227.792 -1.02193 -1.58752 0
M  V30 2229 O 227.149 -0.0181619 -1.82491 0
M  V30 2230 C 227.2 -3.43618 -1.12289 0
M  V30 2231 O 226.921 -4.37995 -0.0956929 0
M  V30 2232 C 228.422 -4.02231 -1.86347 0
M  V30 2233 H 225.642 -0.657243 -0.135177 0
M  V30 2234 H 228.186 -2.03146 0.234973 0
M  V30 2235 H 226.341 -3.41662 -1.82609 0
M  V30 2236 H 226.755 -5.21729 -0.538469 0
M  V30 2237 H 228.229 -5.04509 -2.23997 0
M  V30 2238 H 228.706 -3.42655 -2.74744 0
M  V30 2239 H 229.312 -4.07802 -1.20737 0
M  V30 2240 N 227.627 0.131896 -1.57047 0
M  V30 2241 C 229.043 0.485031 -1.52051 0
M  V30 2242 C 229.243 1.82563 -0.85281 0
M  V30 2243 O 228.299 2.48817 -0.429694 0
M  V30 2244 C 229.612 0.481409 -2.96821 0
M  V30 2245 C 231.16 0.565868 -3.07842 0
M  V30 2246 C 231.635 0.592762 -4.54148 0
M  V30 2247 N 233.126 0.654564 -4.58552 0
M  V30 2248 C 233.861 0.696608 -5.69153 0
M  V30 2249 N 233.357 0.697078 -6.89284 0
M  V30 2250 N 235.15 0.738639 -5.57226 0
M  V30 2251 H 227.301 -0.746664 -1.98843 0
M  V30 2252 H 229.564 -0.273999 -0.90754 0
M  V30 2253 H 229.27 -0.435731 -3.4899 0
M  V30 2254 H 229.144 1.3139 -3.53577 0
M  V30 2255 H 231.531 1.47343 -2.55684 0
M  V30 2256 H 231.612 -0.29406 -2.54104 0
M  V30 2257 H 231.256 -0.310701 -5.06949 0
M  V30 2258 H 231.186 1.46939 -5.05684 0
M  V30 2259 H 233.677 0.660887 -3.72076 0
M  V30 2260 H 233.99 0.731426 -7.69331 0
M  V30 2261 H 232.335 0.66471 -6.91814 0
M  V30 2262 H 235.526 0.735545 -4.62285 0
M  V30 2263 H 235.699 0.767938 -6.43434 0
M  V30 2264 N 229.106 1.52395 0.401703 0
M  V30 2265 C 230.354 1.66488 1.14569 0
M  V30 2266 C 230.675 0.400897 1.90835 0
M  V30 2267 O 229.945 -0.584415 1.8698 0
M  V30 2268 H 228.525 0.613672 0.425929 0
M  V30 2269 H 231.187 1.89464 0.457093 0
M  V30 2270 H 230.283 2.50942 1.85566 0
M  V30 2271 N 230.584 -0.659388 1.43143 0
M  V30 2272 C 231.547 -1.75432 1.47501 0
M  V30 2273 C 232.547 -1.56707 0.360512 0
M  V30 2274 O 233.737 -1.62717 0.622002 0
M  V30 2275 C 230.869 -3.14239 1.32162 0
M  V30 2276 H 232.062 -1.7295 2.45006 0
M  V30 2277 H 229.615 -0.870469 1.29817 0
M  V30 2278 H 230.35 -3.22336 0.356401 0
M  V30 2279 H 230.135 -3.29235 2.12948 0
M  V30 2280 H 231.625 -3.94094 1.3813 0
M  V30 2281 N 232.062 -1.29571 -0.897171 0
M  V30 2282 C 233.308 -1.17863 -1.65034 0
M  V30 2283 C 233.641 0.268729 -1.92332 0
M  V30 2284 O 232.916 1.19378 -1.53555 0
M  V30 2285 C 233.199 -1.995 -2.99786 0
M  V30 2286 C 233.052 -3.5239 -2.79538 0
M  V30 2287 C 234.371 -1.82335 -4.00552 0
M  V30 2288 H 231.49 -0.429528 -0.598895 0
M  V30 2289 H 234.132 -1.59072 -1.03905 0
M  V30 2290 H 232.282 -1.64485 -3.51962 0
M  V30 2291 H 233.954 -3.97401 -2.34244 0
M  V30 2292 H 232.197 -3.77187 -2.14273 0
M  V30 2293 H 232.868 -4.04787 -3.75302 0
M  V30 2294 H 235.344 -2.12924 -3.57495 0
M  V30 2295 H 234.22 -2.41801 -4.92771 0
M  V30 2296 H 234.481 -0.779209 -4.35179 0
M  V30 2297 N 233.54 1.10788 -1.12088 0
M  V30 2298 C 234.472 2.16816 -0.743213 0
M  V30 2299 C 235.485 1.6119 0.228412 0
M  V30 2300 O 236.674 1.78497 0.0102931 0
M  V30 2301 C 233.774 3.38809 -0.0787313 0
M  V30 2302 C 232.947 4.23885 -1.0789 0
M  V30 2303 C 232.006 5.24334 -0.442713 0
M  V30 2304 O 231.032 5.58497 -1.09864 0
M  V30 2305 N 232.234 5.75079 0.791457 0
M  V30 2306 H 234.999 2.49825 -1.65552 0
M  V30 2307 H 232.56 1.26373 -1.012 0
M  V30 2308 H 234.552 4.03107 0.358766 0
M  V30 2309 H 233.122 3.03805 0.736275 0
M  V30 2310 H 232.342 3.55939 -1.69414 0
M  V30 2311 H 233.63 4.77562 -1.75533 0
M  V30 2312 H 233.028 5.49517 1.3434 0
M  V30 2313 H 231.585 6.4118 1.17183 0
M  V30 2314 N 235.018 0.912232 1.28515 0
M  V30 2315 C 236.243 0.559774 1.99703 0
M  V30 2316 C 236.668 -0.851393 1.67729 0
M  V30 2317 O 236.026 -1.56875 0.908834 0
M  V30 2318 C 236.074 0.773874 3.52198 0
M  V30 2319 O 235.178 -0.167842 4.12058 0
M  V30 2320 H 234.519 0.21723 0.627461 0
M  V30 2321 H 237.049 1.22725 1.63706 0
M  V30 2322 H 237.059 0.683386 4.02236 0
M  V30 2323 H 235.734 1.80261 3.74805 0
M  V30 2324 H 234.311 -0.0287509 3.72889 0
M  V30 2325 N 236.496 -1.42363 0.676048 0
M  V30 2326 C 237.744 -2.01123 0.198437 0
M  V30 2327 C 238.065 -1.53731 -1.19966 0
M  V30 2328 O 237.335 -0.759518 -1.80577 0
M  V30 2329 H 235.915 -0.743678 0.0703721 0
M  V30 2330 H 238.577 -1.74263 0.872837 0
M  V30 2331 H 237.673 -3.11454 0.200686 0
M  V30 2332 N 237.974 -0.419461 -1.51915 0
M  V30 2333 C 239.22 0.153166 -2.02221 0
M  V30 2334 C 239.553 1.43907 -1.30401 0
M  V30 2335 O 238.828 1.90055 -0.413438 0
M  V30 2336 C 239.111 0.390291 -3.57979 0
M  V30 2337 C 238.964 -0.913014 -4.40436 0
M  V30 2338 C 240.283 1.16794 -4.2432 0
M  V30 2339 H 237.402 0.0541924 -0.735005 0
M  V30 2340 H 240.044 -0.554955 -1.81715 0
M  V30 2341 H 238.194 0.993491 -3.75582 0
M  V30 2342 H 239.866 -1.54882 -4.34522 0
M  V30 2343 H 238.109 -1.52168 -4.06236 0
M  V30 2344 H 238.78 -0.701361 -5.47526 0
M  V30 2345 H 241.256 0.657161 -4.10878 0
M  V30 2346 H 240.132 1.3026 -5.3322 0
M  V30 2347 H 240.393 2.19132 -3.83971 0
M  V30 2348 N 239.452 1.56882 -0.150215 0
M  V30 2349 C 240.729 1.87844 0.545327 0
M  V30 2350 C 241.109 1.0567 1.82749 0
M  V30 2351 O 240.457 0.144442 2.28043 0
M  V30 2352 C 240.667 3.39526 0.80767 0
M  V30 2353 C 242.015 4.08814 1.14703 0
M  V30 2354 O 243.039 3.44723 0.896917 0
M  V30 2355 O 241.898 5.22004 1.61784 0
M  V30 2356 H 238.992 0.778677 0.278553 0
M  V30 2357 H 241.538 1.68666 -0.187068 0
M  V30 2358 H 240.31 3.91173 -0.0996096 0
M  V30 2359 H 239.933 3.64243 1.59413 0
M  V30 2360 N 240.93 -0.123565 1.57115 0
M  V30 2361 C 241.877 -1.15177 2.00007 0
M  V30 2362 C 242.847 -1.41403 0.871454 0
M  V30 2363 O 244.032 -1.53346 1.13533 0
M  V30 2364 C 241.172 -2.47436 2.40561 0
M  V30 2365 C 240.285 -2.28184 3.66819 0
M  V30 2366 C 239.42 -3.53641 3.96373 0
M  V30 2367 C 238.459 -3.29528 5.15827 0
M  V30 2368 N 237.596 -4.47175 5.41275 0
M  V30 2369 H 242.436 -0.779008 2.87638 0
M  V30 2370 H 239.973 -0.373166 1.42288 0
M  V30 2371 H 241.931 -3.24584 2.62109 0
M  V30 2372 H 240.561 -2.82614 1.55978 0
M  V30 2373 H 239.613 -1.41976 3.52912 0
M  V30 2374 H 240.925 -2.0634 4.5412 0
M  V30 2375 H 240.079 -4.39209 4.18545 0
M  V30 2376 H 238.818 -3.78512 3.07538 0
M  V30 2377 H 237.823 -2.42349 4.93505 0
M  V30 2378 H 239.048 -3.06031 6.06236 0
M  V30 2379 H 236.994 -4.72175 4.55397 0
M  V30 2380 H 236.911 -4.28419 6.22891 0
M  V30 2381 H 238.179 -5.3389 5.67963 0
M  V30 2382 N 242.408 -1.52605 -0.393616 0
M  V30 2383 C 243.636 -1.71294 -1.16043 0
M  V30 2384 C 244.051 -0.429259 -1.83855 0
M  V30 2385 O 243.408 0.595921 -1.72496 0
M  V30 2386 C 243.459 -2.8593 -2.21193 0
M  V30 2387 O 243.18 -4.09329 -1.56146 0
M  V30 2388 C 244.681 -3.16259 -3.10636 0
M  V30 2389 H 241.901 -0.573641 -0.348104 0
M  V30 2390 H 244.445 -1.99234 -0.461092 0
M  V30 2391 H 242.6 -2.60465 -2.86769 0
M  V30 2392 H 243.014 -4.73323 -2.25978 0
M  V30 2393 H 244.488 -3.99946 -3.80456 0
M  V30 2394 H 244.965 -2.3045 -3.73884 0
M  V30 2395 H 245.571 -3.43547 -2.50711 0
M  V30 2396 N 243.887 0.651787 -1.4349 0
M  V30 2397 C 244.834 1.76462 -1.4876 0
M  V30 2398 C 245.804 1.62641 -0.337189 0
M  V30 2399 O 246.989 1.82864 -0.544544 0
M  V30 2400 C 244.129 3.14623 -1.41796 0
M  V30 2401 C 243.242 3.39568 -2.67053 0
M  V30 2402 C 242.377 4.67585 -2.52068 0
M  V30 2403 C 241.416 4.85639 -3.72587 0
M  V30 2404 N 240.553 6.04915 -3.56402 0
M  V30 2405 H 245.393 1.71293 -2.43849 0
M  V30 2406 H 242.93 0.835889 -1.21043 0
M  V30 2407 H 244.888 3.94496 -1.35753 0
M  V30 2408 H 243.518 3.18859 -0.50288 0
M  V30 2409 H 242.57 2.53783 -2.8337 0
M  V30 2410 H 243.882 3.48795 -3.56572 0
M  V30 2411 H 243.036 5.55586 -2.4374 0
M  V30 2412 H 241.775 4.60681 -1.60075 0
M  V30 2413 H 240.78 3.96073 -3.81321 0
M  V30 2414 H 242.005 4.94372 -4.65589 0
M  V30 2415 H 239.951 5.9914 -2.67146 0
M  V30 2416 H 239.868 6.15106 -4.39524 0
M  V30 2417 H 241.136 6.95533 -3.51929 0
M  V30 2418 N 245.365 1.30045 0.890287 0
M  V30 2419 C 246.59 1.21598 1.68014 0
M  V30 2420 C 247.015 -0.218678 1.86825 0
M  V30 2421 O 246.373 -1.15756 1.39536 0
M  V30 2422 C 246.421 1.94434 3.03691 0
M  V30 2423 O 245.525 1.2678 3.92429 0
M  V30 2424 H 244.866 0.420856 0.513592 0
M  V30 2425 H 247.396 1.71775 1.11151 0
M  V30 2426 H 247.406 2.03251 3.5377 0
M  V30 2427 H 246.081 2.98777 2.89318 0
M  V30 2428 H 244.658 1.26282 3.50866 0
M  V30 2429 N 246.843 -1.10192 1.12674 0
M  V30 2430 C 248.089 -1.82475 0.884915 0
M  V30 2431 C 248.422 -1.85093 -0.58773 0
M  V30 2432 O 247.697 -1.3134 -1.43457 0
M  V30 2433 C 247.98 -3.29018 1.46353 0
M  V30 2434 C 247.833 -3.34718 3.00473 0
M  V30 2435 C 249.152 -4.25473 1.12519 0
M  V30 2436 H 246.271 -0.662492 0.322915 0
M  V30 2437 H 248.913 -1.2913 1.39375 0
M  V30 2438 H 247.063 -3.74576 1.03077 0
M  V30 2439 H 248.735 -2.97622 3.52447 0
M  V30 2440 H 246.978 -2.74541 3.35872 0
M  V30 2441 H 247.649 -4.37918 3.36053 0
M  V30 2442 H 250.125 -3.88161 1.499 0
M  V30 2443 H 249.001 -5.26365 1.55663 0
M  V30 2444 H 249.262 -4.42084 0.0377407 0
M  V30 2445 N 248.321 -0.919034 -1.28029 0
M  V30 2446 C 249.567 -0.555757 -1.95036 0
M  V30 2447 C 249.9 0.899198 -1.72128 0
M  V30 2448 O 249.175 1.64023 -1.04531 0
M  V30 2449 C 249.458 -0.872024 -3.49382 0
M  V30 2450 C 249.311 -2.3801 -3.81669 0
M  V30 2451 C 250.63 -0.37185 -4.38526 0
M  V30 2452 H 247.749 -0.203386 -0.708381 0
M  V30 2453 H 250.391 -1.14924 -1.51303 0
M  V30 2454 H 248.541 -0.366946 -3.86763 0
M  V30 2455 H 250.213 -2.9562 -3.54128 0
M  V30 2456 H 248.456 -2.83289 -3.28526 0
M  V30 2457 H 249.127 -2.55192 -4.8947 0
M  V30 2458 H 251.603 -0.804602 -4.08247 0
M  V30 2459 H 250.479 -0.622173 -5.45362 0
M  V30 2460 H 250.74 0.727934 -4.36066 0
M  V30 2461 N 249.799 1.42003 -0.683588 0
M  V30 2462 C 251.027 2.05746 -0.218182 0
M  V30 2463 C 251.442 1.51396 1.12804 0
M  V30 2464 O 250.799 0.657303 1.70252 0
M  V30 2465 C 250.85 3.61171 -0.154131 0
M  V30 2466 O 250.571 4.13508 -1.44716 0
M  V30 2467 C 252.072 4.42042 0.333713 0
M  V30 2468 H 249.292 0.662888 -0.10402 0
M  V30 2469 H 251.836 1.81987 -0.9328 0
M  V30 2470 H 249.991 3.84012 0.511231 0
M  V30 2471 H 250.405 5.07453 -1.32632 0
M  V30 2472 H 251.879 5.51028 0.327423 0
M  V30 2473 H 252.356 4.17269 1.37053 0
M  V30 2474 H 252.962 4.24239 -0.300222 0
M  V30 2475 N 251.277 0.427512 1.51691 0
M  V30 2476 C 252.525 -0.141948 2.01601 0
M  V30 2477 C 252.846 -1.44067 1.31414 0
M  V30 2478 O 252.116 -1.90763 0.445658 0
M  V30 2479 H 250.696 -0.0554468 0.744939 0
M  V30 2480 H 253.358 0.567968 1.86441 0
M  V30 2481 H 252.454 -0.324913 3.10404 0
M  V30 2482 N 252.755 -1.56801 0.158532 0
M  V30 2483 C 254.003 -1.96102 -0.488712 0
M  V30 2484 C 254.324 -1.04498 -1.64636 0
M  V30 2485 O 253.594 -0.108783 -1.95598 0
M  V30 2486 H 252.174 -0.724102 -0.183535 0
M  V30 2487 H 254.836 -1.93457 0.236728 0
M  V30 2488 H 253.932 -3.00097 -0.857219 0
M  V30 2489 N 254.233 0.115231 -1.57178 0
M  V30 2490 C 255.479 0.82357 -1.85325 0
M  V30 2491 C 255.812 1.79349 -0.744814 0
M  V30 2492 O 255.087 1.92899 0.249024 0
M  V30 2493 C 255.37 1.57014 -3.24066 0
M  V30 2494 C 255.223 0.619565 -4.45513 0
M  V30 2495 C 256.542 2.52545 -3.60429 0
M  V30 2496 H 253.661 0.297948 -0.674089 0
M  V30 2497 H 256.303 0.0877138 -1.89797 0
M  V30 2498 H 254.453 2.19742 -3.20383 0
M  V30 2499 H 256.125 0.000837639 -4.613 0
M  V30 2500 H 254.368 -0.0686174 -4.33746 0
M  V30 2501 H 255.039 1.17866 -5.3927 0
M  V30 2502 H 257.515 1.9992 -3.64926 0
M  V30 2503 H 256.391 3.01811 -4.58477 0
M  V30 2504 H 256.652 3.35383 -2.88047 0
M  V30 2505 N 255.711 1.52812 0.385517 0
M  V30 2506 C 256.643 1.74096 1.49074 0
M  V30 2507 C 257.656 0.621462 1.50472 0
M  V30 2508 O 258.845 0.897245 1.54311 0
M  V30 2509 C 255.945 1.78774 2.87911 0
M  V30 2510 C 255.118 3.08134 3.10439 0
M  V30 2511 C 254.177 3.04313 4.29278 0
M  V30 2512 O 253.203 3.78168 4.25415 0
M  V30 2513 N 254.405 2.23741 5.35649 0
M  V30 2514 H 257.17 2.69455 1.31202 0
M  V30 2515 H 254.731 1.51343 0.575065 0
M  V30 2516 H 256.723 1.73721 3.65518 0
M  V30 2517 H 255.293 0.907869 2.99126 0
M  V30 2518 H 254.513 3.26649 2.20667 0
M  V30 2519 H 255.801 3.93662 3.22347 0
M  V30 2520 H 255.199 1.63211 5.41645 0
M  V30 2521 H 253.756 2.24524 6.11909 0
M  V30 2522 N 257.189 -0.644168 1.43834 0
M  V30 2523 C 258.414 -1.43642 1.49605 0
M  V30 2524 C 258.839 -1.8773 0.117913 0
M  V30 2525 O 258.197 -1.57938 -0.890239 0
M  V30 2526 C 258.245 -2.6416 2.45463 0
M  V30 2527 O 257.349 -3.63538 1.94714 0
M  V30 2528 H 256.69 -0.430329 0.50568 0
M  V30 2529 H 259.22 -0.787448 1.8884 0
M  V30 2530 H 259.23 -3.11864 2.63068 0
M  V30 2531 H 257.905 -2.31414 3.45572 0
M  V30 2532 H 256.482 -3.2273 1.86814 0
M  V30 2533 N 258.668 -1.30515 -0.883378 0
M  V30 2534 C 259.914 -1.19607 -1.63774 0
M  V30 2535 C 260.247 0.248314 -1.92606 0
M  V30 2536 O 259.522 1.17742 -1.54813 0
M  V30 2537 C 259.805 -2.02669 -2.97653 0
M  V30 2538 C 259.658 -3.55335 -2.75784 0
M  V30 2539 C 260.977 -1.86573 -3.98596 0
M  V30 2540 H 258.096 -0.435856 -0.594305 0
M  V30 2541 H 260.738 -1.60165 -1.02212 0
M  V30 2542 H 258.888 -1.68208 -3.50197 0
M  V30 2543 H 260.56 -3.99863 -2.30016 0
M  V30 2544 H 258.803 -3.79438 -2.1026 0
M  V30 2545 H 259.474 -4.08745 -3.70988 0
M  V30 2546 H 261.95 -2.16703 -3.55217 0
M  V30 2547 H 260.826 -2.47014 -4.90179 0
M  V30 2548 H 261.087 -0.825321 -4.34328 0
M  V30 2549 N 260.146 1.09593 -1.13257 0
M  V30 2550 C 261.079 2.15451 -0.752061 0
M  V30 2551 C 262.057 1.60493 0.260913 0
M  V30 2552 O 263.241 1.8788 0.152819 0
M  V30 2553 C 260.368 3.38506 -0.114594 0
M  V30 2554 C 259.414 4.12183 -1.09579 0
M  V30 2555 S 260.247 4.6661 -2.62745 0
M  V30 2556 C 261.403 5.92966 -2.00354 0
M  V30 2557 H 261.636 2.47395 -1.64872 0
M  V30 2558 H 259.169 1.21515 -0.952545 0
M  V30 2559 H 261.127 4.09757 0.246808 0
M  V30 2560 H 259.788 3.04784 0.759309 0
M  V30 2561 H 258.981 5.00445 -0.597545 0
M  V30 2562 H 258.583 3.46785 -1.40057 0
M  V30 2563 H 260.875 6.63882 -1.35156 0
M  V30 2564 H 261.818 6.47467 -2.86691 0
M  V30 2565 H 262.226 5.45405 -1.4558 0
M  V30 2566 N 261.624 0.925811 1.2754 0
M  V30 2567 C 262.872 0.564138 1.94067 0
M  V30 2568 C 263.193 -0.897188 1.73134 0
M  V30 2569 O 262.463 -1.63573 1.07799 0
M  V30 2570 H 261.043 0.205645 0.718136 0
M  V30 2571 H 263.705 1.1778 1.55287 0
M  V30 2572 H 262.801 0.76881 3.02483 0
M  V30 2573 N 263.102 -1.41638 0.69111 0
M  V30 2574 C 264.327 -2.06148 0.227583 0
M  V30 2575 C 264.752 -1.51652 -1.11281 0
M  V30 2576 O 264.11 -0.64164 -1.69566 0
M  V30 2577 C 264.158 -3.60095 0.190858 0
M  V30 2578 O 263.262 -4.03845 -0.835664 0
M  V30 2579 H 262.603 -0.654434 0.112306 0
M  V30 2580 H 265.133 -1.81484 0.944714 0
M  V30 2581 H 265.143 -4.07995 0.020207 0
M  V30 2582 H 263.818 -3.99129 1.16915 0
M  V30 2583 H 262.395 -3.67458 -0.63473 0
M  V30 2584 N 264.58 -0.43555 -1.51462 0
M  V30 2585 C 265.996 -0.0877501 -1.59359 0
M  V30 2586 C 266.196 1.4027 -1.4466 0
M  V30 2587 O 265.252 2.17243 -1.28693 0
M  V30 2588 C 266.565 -0.606264 -2.94525 0
M  V30 2589 C 268.113 -0.566548 -3.0783 0
M  V30 2590 C 268.588 -1.06201 -4.45517 0
M  V30 2591 N 270.079 -1.01992 -4.51832 0
M  V30 2592 C 270.814 -1.37417 -5.5669 0
M  V30 2593 N 270.31 -1.80119 -6.68976 0
M  V30 2594 N 272.103 -1.29245 -5.47039 0
M  V30 2595 H 264.254 -1.40533 -1.59261 0
M  V30 2596 H 266.517 -0.578992 -0.750648 0
M  V30 2597 H 266.223 -1.64901 -3.10645 0
M  V30 2598 H 266.097 -0.0302097 -3.77188 0
M  V30 2599 H 268.484 0.467208 -2.91378 0
M  V30 2600 H 268.565 -1.17898 -2.2701 0
M  V30 2601 H 268.209 -2.09422 -4.62715 0
M  V30 2602 H 268.139 -0.426127 -5.24873 0
M  V30 2603 H 270.63 -0.706308 -3.71241 0
M  V30 2604 H 270.943 -2.05392 -7.45006 0
M  V30 2605 H 269.288 -1.84044 -6.70189 0
M  V30 2606 H 272.479 -0.957522 -4.58202 0
M  V30 2607 H 272.652 -1.57182 -6.28648 0
M  V30 2608 N 266.058 1.56714 -0.166846 0
M  V30 2609 C 266.988 2.20754 0.760913 0
M  V30 2610 C 267.969 1.16178 1.24244 0
M  V30 2611 O 269.154 1.44592 1.29641 0
M  V30 2612 C 266.284 2.84478 1.99223 0
M  V30 2613 C 265.238 3.95053 1.64672 0
M  V30 2614 C 264.564 4.45805 2.95232 0
M  V30 2615 C 265.864 5.14865 0.878155 0
M  V30 2616 H 267.558 2.98537 0.22713 0
M  V30 2617 H 265.104 1.43596 0.107805 0
M  V30 2618 H 267.057 3.27951 2.64624 0
M  V30 2619 H 265.781 2.04056 2.55007 0
M  V30 2620 H 264.44 3.52228 1.01641 0
M  V30 2621 H 264.088 3.62181 3.49047 0
M  V30 2622 H 263.788 5.204 2.7287 0
M  V30 2623 H 265.312 4.91962 3.6167 0
M  V30 2624 H 266.726 5.55059 1.43466 0
M  V30 2625 H 265.123 5.95348 0.753738 0
M  V30 2626 H 266.193 4.84735 -0.126377 0
M  V30 2627 N 267.536 -0.106894 1.57237 0
M  V30 2628 C 268.784 -0.810921 1.85117 0
M  V30 2629 C 269.105 -1.7984 0.753827 0
M  V30 2630 O 268.375 -1.94649 -0.221056 0
M  V30 2631 H 266.955 -0.302466 0.683025 0
M  V30 2632 H 269.617 -0.0913324 1.94686 0
M  V30 2633 H 268.713 -1.34875 2.81452 0
M  V30 2634 N 269.014 -1.53014 -0.377408 0
M  V30 2635 C 269.946 -1.74884 -1.48149 0
M  V30 2636 C 270.959 -0.629433 -1.5014 0
M  V30 2637 O 272.148 -0.905416 -1.53833 0
M  V30 2638 C 269.248 -1.80299 -2.86959 0
M  V30 2639 C 268.421 -3.09776 -3.08801 0
M  V30 2640 C 267.48 -3.06586 -4.27658 0
M  V30 2641 O 266.506 -3.80419 -4.23403 0
M  V30 2642 N 267.708 -2.26578 -5.34455 0
M  V30 2643 H 270.473 -2.70147 -1.29771 0
M  V30 2644 H 268.034 -1.51646 -0.56703 0
M  V30 2645 H 270.026 -1.75657 -3.64591 0
M  V30 2646 H 268.596 -0.92372 -2.98641 0
M  V30 2647 H 267.816 -3.27815 -2.18931 0
M  V30 2648 H 269.104 -3.95366 -3.20255 0
M  V30 2649 H 268.502 -1.66081 -5.40771 0
M  V30 2650 H 267.059 -2.27766 -6.10709 0
M  V30 2651 N 270.492 0.636531 -1.44174 0
M  V30 2652 C 271.425 1.76139 -1.45087 0
M  V30 2653 C 272.403 1.59611 -0.310326 0
M  V30 2654 O 273.587 1.81568 -0.506477 0
M  V30 2655 C 270.714 3.13648 -1.27839 0
M  V30 2656 C 269.76 3.48838 -2.45386 0
M  V30 2657 S 270.593 3.46927 -4.07924 0
M  V30 2658 C 271.749 4.87064 -3.9309 0
M  V30 2659 H 271.982 1.75096 -2.40268 0
M  V30 2660 H 269.515 0.810666 -1.31406 0
M  V30 2661 H 271.473 3.93002 -1.18575 0
M  V30 2662 H 270.134 3.12235 -0.341787 0
M  V30 2663 H 269.327 4.48886 -2.29167 0
M  V30 2664 H 268.929 2.76935 -2.51362 0
M  V30 2665 H 271.221 5.76153 -3.56446 0
M  V30 2666 H 272.164 5.08337 -4.92949 0
M  V30 2667 H 272.572 4.61384 -3.25246 0
M  V30 2668 N 271.97 1.30982 0.876444 0
M  V30 2669 C 273.216 1.20474 1.63138 0
M  V30 2670 C 273.549 -0.238096 1.92735 0
M  V30 2671 O 272.824 -1.1692 1.55435 0
M  V30 2672 C 273.107 2.04244 2.96574 0
M  V30 2673 C 272.96 3.56793 2.73896 0
M  V30 2674 C 274.279 1.88684 3.97601 0
M  V30 2675 H 271.398 0.439001 0.591985 0
M  V30 2676 H 274.04 1.60704 1.01361 0
M  V30 2677 H 272.19 1.70063 3.493 0
M  V30 2678 H 273.862 4.01077 2.27892 0
M  V30 2679 H 272.105 3.80548 2.08245 0
M  V30 2680 H 272.776 4.10706 3.68815 0
M  V30 2681 H 275.252 2.18584 3.54062 0
M  V30 2682 H 274.128 2.4961 4.88862 0
M  V30 2683 H 274.389 0.848343 4.33884 0
M  V30 2684 N 273.449 -1.08991 1.13837 0
M  V30 2685 C 274.379 -2.17771 0.842507 0
M  V30 2686 C 275.36 -1.6892 -0.20001 0
M  V30 2687 O 276.545 -1.94113 -0.0579731 0
M  V30 2688 C 273.675 -3.4589 0.312644 0
M  V30 2689 C 272.629 -4.08099 1.28992 0
M  V30 2690 C 271.955 -5.31098 0.619623 0
M  V30 2691 C 273.255 -4.50077 2.65005 0
M  V30 2692 H 274.949 -2.42777 1.75213 0
M  V30 2693 H 272.495 -1.16682 0.843875 0
M  V30 2694 H 274.448 -4.21297 0.0933043 0
M  V30 2695 H 273.172 -3.20419 -0.632382 0
M  V30 2696 H 271.831 -3.34717 1.49533 0
M  V30 2697 H 271.479 -5.0191 -0.33102 0
M  V30 2698 H 271.179 -5.73674 1.27167 0
M  V30 2699 H 272.703 -6.09224 0.409669 0
M  V30 2700 H 274.117 -5.16688 2.48407 0
M  V30 2701 H 272.514 -5.03553 3.26427 0
M  V30 2702 H 273.584 -3.62257 3.22332 0
M  V30 2703 N 274.927 -0.932562 -1.27047 0
M  V30 2704 C 276.152 -0.591474 -1.98787 0
M  V30 2705 C 276.577 0.824601 -1.69062 0
M  V30 2706 O 275.935 1.5541 -0.933677 0
M  V30 2707 C 275.983 -0.829808 -3.50922 0
M  V30 2708 O 275.087 0.102266 -4.12273 0
M  V30 2709 H 274.428 -0.227185 -0.623926 0
M  V30 2710 H 276.958 -1.25314 -1.61733 0
M  V30 2711 H 276.968 -0.747292 -4.01098 0
M  V30 2712 H 275.643 -1.86201 -3.7189 0
M  V30 2713 H 274.22 -0.0305761 -3.72887 0
M  V30 2714 N 276.405 1.4127 -0.698611 0
M  V30 2715 C 277.653 2.00782 -0.230409 0
M  V30 2716 C 277.974 1.5562 1.17505 0
M  V30 2717 O 277.244 0.78815 1.79346 0
M  V30 2718 H 275.824 0.742464 -0.0821944 0
M  V30 2719 H 278.486 1.72852 -0.90045 0
M  V30 2720 H 277.582 3.11095 -0.25021 0
M  V30 2721 N 277.883 0.443576 1.51229 0
M  V30 2722 C 279.129 -0.120975 2.02439 0
M  V30 2723 C 279.462 -1.41815 1.32674 0
M  V30 2724 O 278.737 -1.89373 0.443622 0
M  V30 2725 C 279.02 -0.333291 3.58554 0
M  V30 2726 C 278.873 0.982968 4.38928 0
M  V30 2727 C 280.192 -1.10028 4.26124 0
M  V30 2728 H 277.311 -0.0424923 0.735774 0
M  V30 2729 H 279.953 0.583794 1.80809 0
M  V30 2730 H 278.103 -0.933614 3.77115 0
M  V30 2731 H 279.775 1.61775 4.32003 0
M  V30 2732 H 278.018 1.58611 4.03763 0
M  V30 2733 H 278.689 0.788379 5.46341 0
M  V30 2734 H 281.165 -0.591711 4.11871 0
M  V30 2735 H 280.041 -1.21761 5.35225 0
M  V30 2736 H 280.302 -2.12996 3.87408 0
M  V30 2737 N 279.361 -1.56624 0.175154 0
M  V30 2738 C 280.638 -1.88688 -0.515373 0
M  V30 2739 C 281.018 -1.08564 -1.81044 0
M  V30 2740 O 280.366 -0.180703 -2.27784 0
M  V30 2741 C 280.576 -3.40768 -0.753552 0
M  V30 2742 C 281.924 -4.10587 -1.08184 0
M  V30 2743 O 282.948 -3.46106 -0.841961 0
M  V30 2744 O 281.807 -5.24512 -1.53459 0
M  V30 2745 H 278.901 -0.78301 -0.26613 0
M  V30 2746 H 281.447 -1.68347 0.213877 0
M  V30 2747 H 280.219 -3.90965 0.161829 0
M  V30 2748 H 279.842 -3.66733 -1.53598 0
M  V30 2749 N 280.839 0.0985539 -1.57292 0
M  V30 2750 C 282.067 0.816318 -1.90115 0
M  V30 2751 C 282.482 1.72451 -0.768509 0
M  V30 2752 O 281.839 1.80643 0.259687 0
M  V30 2753 C 281.89 1.63259 -3.22535 0
M  V30 2754 O 281.611 0.760934 -4.31441 0
M  V30 2755 C 283.112 2.45372 -3.69199 0
M  V30 2756 H 280.332 0.233595 -0.629027 0
M  V30 2757 H 282.876 0.0768229 -2.04356 0
M  V30 2758 H 281.031 2.32463 -3.09903 0
M  V30 2759 H 281.445 1.32595 -5.07463 0
M  V30 2760 H 282.919 2.98144 -4.64558 0
M  V30 2761 H 283.396 3.23677 -2.96867 0
M  V30 2762 H 284.002 1.81373 -3.84687 0
M  V30 2763 N 282.317 1.53212 0.369288 0
M  V30 2764 C 283.563 1.69466 1.11397 0
M  V30 2765 C 283.896 0.443257 1.89074 0
M  V30 2766 O 283.171 -0.559386 1.86282 0
M  V30 2767 C 283.454 2.9422 2.07621 0
M  V30 2768 C 283.307 4.29508 1.33577 0
M  V30 2769 C 284.626 3.14565 3.07794 0
M  V30 2770 H 281.745 0.616667 0.403597 0
M  V30 2771 H 284.387 1.85845 0.395179 0
M  V30 2772 H 282.537 2.80387 2.68916 0
M  V30 2773 H 284.209 4.55147 0.750955 0
M  V30 2774 H 282.452 4.29088 0.637618 0
M  V30 2775 H 283.123 5.12926 2.03989 0
M  V30 2776 H 285.599 3.2756 2.56601 0
M  V30 2777 H 284.475 4.03297 3.72348 0
M  V30 2778 H 284.736 2.29675 3.77759 0
M  V30 2779 N 283.795 -0.628877 1.44509 0
M  V30 2780 C 284.725 -1.75187 1.54376 0
M  V30 2781 C 285.706 -1.65411 0.396618 0
M  V30 2782 O 286.891 -1.84137 0.617031 0
M  V30 2783 C 284.021 -3.13725 1.48976 0
M  V30 2784 C 282.975 -3.38291 2.62189 0
M  V30 2785 C 282.301 -4.76883 2.41841 0
M  V30 2786 C 283.601 -3.30632 4.04326 0
M  V30 2787 H 285.295 -1.67187 2.48373 0
M  V30 2788 H 282.841 -0.802909 1.19538 0
M  V30 2789 H 284.794 -3.92064 1.54478 0
M  V30 2790 H 283.518 -3.22515 0.514961 0
M  V30 2791 H 282.177 -2.62334 2.56079 0
M  V30 2792 H 281.825 -4.82378 1.42548 0
M  V30 2793 H 281.525 -4.94278 3.17747 0
M  V30 2794 H 283.049 -5.57449 2.49165 0
M  V30 2795 H 284.463 -3.98873 4.11793 0
M  V30 2796 H 282.86 -3.59561 4.80454 0
M  V30 2797 H 283.93 -2.28404 4.27738 0
M  V30 2798 N 285.273 -1.31445 -0.869486 0
M  V30 2799 C 286.521 -1.20918 -1.61936 0
M  V30 2800 C 286.842 0.232683 -1.93607 0
M  V30 2801 O 286.112 1.15352 -1.58338 0
M  V30 2802 H 284.692 -0.44454 -0.600328 0
M  V30 2803 H 287.354 -1.64776 -1.0409 0
M  V30 2804 H 286.45 -1.78124 -2.56278 0
M  V30 2805 N 286.751 1.08385 -1.14413 0
M  V30 2806 C 287.698 2.15311 -0.831265 0
M  V30 2807 C 288.668 1.64751 0.211292 0
M  V30 2808 O 289.853 1.90627 0.0811674 0
M  V30 2809 C 286.993 3.43658 -0.315143 0
M  V30 2810 C 286.106 4.08064 -1.41802 0
M  V30 2811 C 285.241 5.24207 -0.859126 0
M  V30 2812 C 284.28 5.80554 -1.93967 0
M  V30 2813 N 283.417 6.88042 -1.39793 0
M  V30 2814 H 288.257 2.41415 -1.74708 0
M  V30 2815 H 285.794 1.18474 -0.871909 0
M  V30 2816 H 287.752 4.172 0.00230884 0
M  V30 2817 H 286.382 3.17839 0.56378 0
M  V30 2818 H 285.434 3.3228 -1.85187 0
M  V30 2819 H 286.746 4.45962 -2.23427 0
M  V30 2820 H 285.9 6.04689 -0.49359 0
M  V30 2821 H 284.639 4.87699 -0.011932 0
M  V30 2822 H 283.644 4.98725 -2.31415 0
M  V30 2823 H 284.869 6.19121 -2.79046 0
M  V30 2824 H 282.815 6.53493 -0.572919 0
M  V30 2825 H 282.732 7.24767 -2.15054 0
M  V30 2826 H 284 7.72255 -1.0603 0
M  V30 2827 N 288.23 0.939286 1.26551 0
M  V30 2828 C 289.455 0.602008 1.98471 0
M  V30 2829 C 289.88 -0.815624 1.69497 0
M  V30 2830 O 289.238 -1.54912 0.941905 0
M  V30 2831 C 289.286 0.848407 3.50477 0
M  V30 2832 O 288.39 -0.0804009 4.12322 0
M  V30 2833 H 287.731 0.23049 0.622712 0
M  V30 2834 H 290.261 1.2617 1.61066 0
M  V30 2835 H 290.271 0.768553 4.00696 0
M  V30 2836 H 288.946 1.88171 3.70897 0
M  V30 2837 H 287.523 0.0503508 3.72866 0
M  V30 2838 N 289.708 -1.40897 0.706093 0
M  V30 2839 C 290.618 -2.3455 0.0482286 0
M  V30 2840 C 291.634 -1.56796 -0.754396 0
M  V30 2841 O 292.81 -1.89228 -0.689538 0
M  V30 2842 C 289.875 -3.35625 -0.869303 0
M  V30 2843 C 288.936 -4.29261 -0.0576994 0
M  V30 2844 C 288.169 -5.25508 -0.931531 0
M  V30 2845 O 288.392 -5.27472 -2.17092 0
M  V30 2846 O 287.326 -6.00727 -0.375587 0
M  V30 2847 H 291.152 -2.92407 0.820476 0
M  V30 2848 H 288.737 -1.4193 0.4665 0
M  V30 2849 H 290.619 -3.97635 -1.39514 0
M  V30 2850 H 289.294 -2.80196 -1.62086 0
M  V30 2851 H 288.201 -3.70566 0.512988 0
M  V30 2852 H 289.534 -4.87817 0.655426 0
M  V30 2853 N 291.186 -0.45159 -1.50991 0
M  V30 2854 C 292.096 0.358431 -2.31846 0
M  V30 2855 C 293.112 1.01438 -1.41373 0
M  V30 2856 O 294.288 1.00663 -1.74439 0
M  V30 2857 C 291.353 1.43704 -3.15515 0
M  V30 2858 C 290.414 0.799742 -4.21785 0
M  V30 2859 C 289.647 1.82696 -5.01456 0
M  V30 2860 O 289.87 3.05105 -4.81941 0
M  V30 2861 O 288.804 1.40958 -5.85162 0
M  V30 2862 H 292.63 -0.302032 -3.02194 0
M  V30 2863 H 290.215 -0.213825 -1.47862 0
M  V30 2864 H 292.097 2.06227 -3.67489 0
M  V30 2865 H 290.772 2.08133 -2.47916 0
M  V30 2866 H 289.679 0.136084 -3.73852 0
M  V30 2867 H 291.012 0.198718 -4.91799 0
M  V30 2868 N 292.664 1.56529 -0.183458 0
M  V30 2869 C 293.91 1.98304 0.452466 0
M  V30 2870 C 294.265 1.06799 1.60037 0
M  V30 2871 O 293.558 0.110049 1.91284 0
M  V30 2872 C 293.752 3.43939 0.971637 0
M  V30 2873 C 293.581 4.49528 -0.124425 0
M  V30 2874 C 292.351 5.01981 -0.578168 0
M  V30 2875 C 294.549 5.05836 -0.929207 0
M  V30 2876 N 292.531 5.91219 -1.65327 0
M  V30 2877 C 293.902 5.91632 -1.85396 0
M  V30 2878 C 295.957 4.88302 -0.972929 0
M  V30 2879 C 294.66 6.61768 -2.81878 0
M  V30 2880 C 296.686 5.59168 -1.92574 0
M  V30 2881 C 296.048 6.44701 -2.83795 0
M  V30 2882 H 292.147 0.770551 0.133324 0
M  V30 2883 H 294.731 1.92581 -0.286473 0
M  V30 2884 H 292.902 3.50184 1.68006 0
M  V30 2885 H 294.634 3.72702 1.5772 0
M  V30 2886 H 291.389 4.73282 -0.173639 0
M  V30 2887 H 291.813 6.40543 -2.19167 0
M  V30 2888 H 296.455 4.21861 -0.28168 0
M  V30 2889 H 294.173 7.27415 -3.51984 0
M  V30 2890 H 297.759 5.47582 -1.96583 0
M  V30 2891 H 296.639 6.98573 -3.56322 0
M  V30 2892 N 294.142 -0.090211 1.57342 0
M  V30 2893 C 295.105 -1.09335 2.01441 0
M  V30 2894 C 296.105 -1.32666 0.908641 0
M  V30 2895 O 297.295 -1.28697 1.174 0
M  V30 2896 C 294.427 -2.44136 2.3793 0
M  V30 2897 H 295.62 -0.713662 2.91285 0
M  V30 2898 H 293.173 -0.335404 1.52659 0
M  V30 2899 H 293.908 -2.86972 1.51055 0
M  V30 2900 H 293.693 -2.28548 3.18603 0
M  V30 2901 H 295.183 -3.16277 2.72688 0
M  V30 2902 N 295.62 -1.53406 -0.361157 0
M  V30 2903 C 296.897 -1.60411 -1.11927 0
M  V30 2904 C 297.277 -0.414385 -2.06993 0
M  V30 2905 O 296.625 0.594976 -2.20618 0
M  V30 2906 C 296.835 -2.95652 -1.85448 0
M  V30 2907 C 298.183 -3.50386 -2.39823 0
M  V30 2908 O 299.207 -2.97711 -1.95568 0
M  V30 2909 O 298.066 -4.42482 -3.20737 0
M  V30 2910 H 295.16 -0.64811 -0.513695 0
M  V30 2911 H 297.706 -1.65749 -0.364065 0
M  V30 2912 H 296.478 -3.73682 -1.16091 0
M  V30 2913 H 296.101 -2.93825 -2.67866 0
M  V30 2914 N 297.098 0.621204 -1.44841 0
M  V30 2915 C 298.046 1.75385 -1.52784 0
M  V30 2916 C 299.04 1.64639 -0.398779 0
M  V30 2917 O 300.246 1.70598 -0.574137 0
M  V30 2918 H 296.621 0.579193 -0.479625 0
M  V30 2919 H 298.592 1.6581 -2.48092 0
M  V30 2920 C 297.341 3.13742 -1.4987 0
M  V30 2921 H 296.664 3.22663 -2.36069 0
M  V30 2922 H 298.104 3.92861 -1.59487 0
M  V30 2923 C 296.563 3.36175 -0.220973 0
M  V30 2924 O 297.093 3.95469 0.704782 0
M  V30 2925 N 295.299 2.90348 -0.120963 0
M  V30 2926 H 294.846 2.42278 -0.875162 0
M  V30 2927 H 294.804 3.05732 0.733168 0
M  V30 2928 N 298.576 1.31904 0.862503 0
M  V30 2929 C 299.526 1.16772 1.95827 0
M  V30 2930 C 300.51 0.0767098 1.60717 0
M  V30 2931 O 301.702 0.302407 1.74398 0
M  V30 2932 C 298.831 0.884858 3.317 0
M  V30 2933 C 297.917 2.0172 3.73055 0
M  V30 2934 N 298.308 3.265 3.86305 0
M  V30 2935 C 296.606 1.91861 4.02623 0
M  V30 2936 C 297.307 4.00616 4.2176 0
M  V30 2937 N 296.283 3.28847 4.32852 0
M  V30 2938 H 300.085 2.11382 2.04193 0
M  V30 2939 H 297.599 1.2357 1.05377 0
M  V30 2940 H 299.596 0.757419 4.09962 0
M  V30 2941 H 298.256 -0.0529448 3.24657 0
M  V30 2942 H 299.267 3.61529 3.70833 0
M  V30 2943 H 295.944 1.05593 4.03926 0
M  V30 2944 H 297.334 5.08182 4.39546 0
M  V30 2945 N 300.054 -1.07777 1.14986 0
M  V30 2946 C 300.984 -2.16865 0.865557 0
M  V30 2947 C 301.965 -1.69123 -0.182083 0
M  V30 2948 O 303.15 -1.94164 -0.0373815 0
M  V30 2949 C 300.28 -3.45539 0.349313 0
M  V30 2950 C 299.234 -4.06708 1.33313 0
M  V30 2951 C 298.56 -5.30411 0.675918 0
M  V30 2952 C 299.86 -4.47241 2.69764 0
M  V30 2953 H 301.554 -2.40905 1.77778 0
M  V30 2954 H 299.1 -1.15781 0.856203 0
M  V30 2955 H 301.053 -4.21174 0.137983 0
M  V30 2956 H 299.777 -3.21072 -0.598362 0
M  V30 2957 H 298.436 -3.33112 1.53075 0
M  V30 2958 H 298.084 -5.02232 -0.277767 0
M  V30 2959 H 297.784 -5.72293 1.33244 0
M  V30 2960 H 299.308 -6.08755 0.474262 0
M  V30 2961 H 300.722 -5.14025 2.53873 0
M  V30 2962 H 299.119 -5.00062 3.3175 0
M  V30 2963 H 300.189 -3.58818 3.26156 0
M  V30 2964 N 301.532 -0.945985 -1.26051 0
M  V30 2965 C 302.943 -0.638096 -1.75457 0
M  V30 2966 C 303.294 0.846672 -1.76991 0
M  V30 2967 O 302.419 1.66262 -1.38513 0
M  V30 2968 C 303.014 -1.15157 -3.18629 0
M  V30 2969 C 301.573 -0.894004 -3.65629 0
M  V30 2970 C 300.72 -1.29967 -2.44957 0
M  V30 2971 H 303.671 -1.12376 -1.1206 0
M  V30 2972 H 303.692 -0.507615 -3.77099 0
M  V30 2973 H 303.204 -2.23222 -3.1748 0
M  V30 2974 H 301.305 0.172057 -3.72203 0
M  V30 2975 H 301.418 -1.52439 -4.54202 0
M  V30 2976 H 299.782 -0.718078 -2.44368 0
M  V30 2977 H 300.565 -2.38935 -2.46505 0
M  V30 2978 N 303.011 1.40521 -0.713556 0
M  V30 2979 C 303.941 2.33381 -0.0743864 0
M  V30 2980 C 304.922 1.52784 0.747735 0
M  V30 2981 O 306.107 1.81258 0.697071 0
M  V30 2982 C 303.237 3.36748 0.849598 0
M  V30 2983 C 302.191 4.27793 0.133247 0
M  V30 2984 C 301.517 5.21679 1.17281 0
M  V30 2985 C 302.817 5.12415 -1.01134 0
M  V30 2986 H 304.511 2.87081 -0.850007 0
M  V30 2987 H 302.057 1.38034 -0.410201 0
M  V30 2988 H 304.01 4.00648 1.30612 0
M  V30 2989 H 302.734 2.81439 1.65709 0
M  V30 2990 H 301.393 3.65342 -0.303426 0
M  V30 2991 H 301.041 4.62677 1.9733 0
M  V30 2992 H 300.741 5.83435 0.698397 0
M  V30 2993 H 302.265 5.88456 1.62947 0
M  V30 2994 H 303.679 5.69781 -0.634274 0
M  V30 2995 H 302.076 5.83203 -1.41399 0
M  V30 2996 H 303.146 4.48514 -1.84292 0
M  V30 2997 N 304.489 0.459591 1.5075 0
M  V30 2998 C 305.717 -0.0973749 2.06671 0
M  V30 2999 C 306.132 -1.34524 1.32472 0
M  V30 3000 O 305.489 -1.7827 0.390634 0
M  V30 3001 C 305.54 -0.39714 3.59312 0
M  V30 3002 O 305.261 0.801214 4.30711 0
M  V30 3003 C 306.762 -1.00234 4.31819 0
M  V30 3004 H 303.982 0.00195854 0.670997 0
M  V30 3005 H 306.526 0.645072 1.94059 0
M  V30 3006 H 304.681 -1.08951 3.71764 0
M  V30 3007 H 305.095 0.538857 5.21725 0
M  V30 3008 H 306.569 -1.16193 5.39632 0
M  V30 3009 H 307.046 -1.98939 3.91561 0
M  V30 3010 H 307.652 -0.348699 4.23868 0
M  V30 3011 N 305.967 -1.56429 0.191757 0
M  V30 3012 C 307.244 -1.89224 -0.495332 0
M  V30 3013 C 307.624 -1.10478 -1.79883 0
M  V30 3014 O 306.972 -0.204852 -2.2758 0
M  V30 3015 C 307.182 -3.41548 -0.717367 0
M  V30 3016 C 308.53 -4.11711 -1.03823 0
M  V30 3017 O 309.554 -3.4698 -0.805204 0
M  V30 3018 O 308.413 -5.2611 -1.47887 0
M  V30 3019 H 305.507 -0.785788 -0.25781 0
M  V30 3020 H 308.053 -1.68111 0.231721 0
M  V30 3021 H 306.825 -3.90772 0.203287 0
M  V30 3022 H 306.448 -3.68342 -1.497 0
M  V30 3023 N 307.445 0.0818655 -1.57387 0
M  V30 3024 C 308.408 1.08265 -2.02018 0
M  V30 3025 C 309.408 1.32183 -0.915664 0
M  V30 3026 O 310.598 1.28073 -1.18081 0
M  V30 3027 C 307.73 2.42871 -2.39221 0
M  V30 3028 H 308.923 0.698204 -2.91659 0
M  V30 3029 H 306.476 0.327303 -1.52835 0
M  V30 3030 H 307.211 2.86167 -1.52575 0
M  V30 3031 H 306.996 2.26855 -3.19811 0
M  V30 3032 H 308.486 3.14826 -2.74362 0
M  V30 3033 N 308.923 1.53595 0.353017 0
M  V30 3034 C 309.833 1.83897 1.45667 0
M  V30 3035 C 310.849 0.728334 1.58023 0
M  V30 3036 O 312.025 1.01968 1.73679 0
M  V30 3037 C 309.09 2.03383 2.80778 0
M  V30 3038 C 308.151 3.27262 2.77845 0
M  V30 3039 C 307.384 3.45809 4.06512 0
M  V30 3040 O 307.607 2.68387 5.03314 0
M  V30 3041 O 306.541 4.39207 4.11559 0
M  V30 3042 H 310.367 2.77686 1.2298 0
M  V30 3043 H 307.952 1.39132 0.544308 0
M  V30 3044 H 309.834 2.17698 3.60812 0
M  V30 3045 H 308.509 1.12783 3.03417 0
M  V30 3046 H 307.416 3.18359 1.96465 0
M  V30 3047 H 308.749 4.17824 2.60161 0
M  V30 3048 N 310.401 -0.613514 1.45168 0
M  V30 3049 C 311.331 -1.7354 1.56225 0
M  V30 3050 C 312.312 -1.64981 0.41414 0
M  V30 3051 O 313.497 -1.83472 0.636526 0
M  V30 3052 C 310.627 -3.12128 1.52295 0
M  V30 3053 C 309.581 -3.35491 2.65762 0
M  V30 3054 C 308.907 -4.74291 2.46885 0
M  V30 3055 C 310.207 -3.26325 4.0781 0
M  V30 3056 H 311.901 -1.64543 2.50132 0
M  V30 3057 H 309.447 -0.790185 1.20383 0
M  V30 3058 H 311.4 -3.90404 1.58628 0
M  V30 3059 H 310.124 -3.2195 0.549139 0
M  V30 3060 H 308.783 -2.59603 2.58847 0
M  V30 3061 H 308.431 -4.80839 1.47657 0
M  V30 3062 H 308.131 -4.9088 3.22972 0
M  V30 3063 H 309.655 -5.54775 2.55063 0
M  V30 3064 H 311.069 -3.94483 4.16 0
M  V30 3065 H 309.466 -3.54445 4.8424 0
M  V30 3066 H 310.536 -2.23855 4.30136 0
M  V30 3067 N 311.879 -1.3236 -0.855495 0
M  V30 3068 C 312.842 -1.21164 -1.94556 0
M  V30 3069 C 313.842 -0.134908 -1.60233 0
M  V30 3070 O 315.032 -0.385249 -1.69887 0
M  V30 3071 C 312.164 -0.863192 -3.29791 0
M  V30 3072 H 313.357 -2.18038 -2.05911 0
M  V30 3073 H 310.91 -1.16179 -1.04557 0
M  V30 3074 H 311.645 0.103769 -3.24134 0
M  V30 3075 H 311.43 -1.64166 -3.56078 0
M  V30 3076 H 312.92 -0.809156 -4.09686 0
M  V30 3077 N 313.357 1.07166 -1.15556 0
M  V30 3078 C 314.773 1.31899 -0.898603 0
M  V30 3079 C 314.973 1.96333 0.453383 0
M  V30 3080 O 314.029 2.22438 1.19489 0
M  V30 3081 C 315.342 2.20826 -2.04099 0
M  V30 3082 C 316.89 2.34269 -2.07574 0
M  V30 3083 C 317.365 3.26546 -3.21141 0
M  V30 3084 N 318.856 3.34127 -3.20801 0
M  V30 3085 C 319.591 4.05595 -4.05315 0
M  V30 3086 N 319.087 4.79661 -4.99897 0
M  V30 3087 N 320.88 4.01555 -3.93332 0
M  V30 3088 H 313.031 0.637302 -2.02613 0
M  V30 3089 H 315.294 0.343468 -0.883591 0
M  V30 3090 H 315 1.80744 -3.01703 0
M  V30 3091 H 314.874 3.21364 -1.97496 0
M  V30 3092 H 317.261 2.73603 -1.10568 0
M  V30 3093 H 317.342 1.33429 -2.18244 0
M  V30 3094 H 316.986 2.87931 -4.184 0
M  V30 3095 H 316.916 4.27345 -3.07708 0
M  V30 3096 H 319.407 2.81336 -2.52306 0
M  V30 3097 H 319.72 5.31694 -5.60822 0
M  V30 3098 H 318.065 4.78671 -5.03884 0
M  V30 3099 H 321.256 3.42806 -3.18751 0
M  V30 3100 H 321.429 4.56987 -4.5942 0
M  V30 3101 N 314.835 0.952656 1.25548 0
M  V30 3102 C 316.084 0.602053 1.92505 0
M  V30 3103 C 316.397 -0.864663 1.75451 0
M  V30 3104 O 317.603 -1.32514 2.36965 0
M  V30 3105 C 316.059 1.02607 3.44963 0
M  V30 3106 C 315.667 2.51519 3.70732 0
M  V30 3107 C 317.411 0.747905 4.1786 0
M  V30 3108 C 315.318 2.87732 5.16686 0
M  V30 3109 H 314.248 0.22146 0.720744 0
M  V30 3110 H 316.899 1.15684 1.42441 0
M  V30 3111 H 315.281 0.399712 3.93978 0
M  V30 3112 H 316.455 3.19157 3.32378 0
M  V30 3113 H 314.77 2.76786 3.11092 0
M  V30 3114 H 317.367 0.994647 5.25367 0
M  V30 3115 H 317.71 -0.315629 4.15102 0
M  V30 3116 H 318.243 1.33452 3.74747 0
M  V30 3117 H 314.982 3.93095 5.24554 0
M  V30 3118 H 314.502 2.24765 5.56094 0
M  V30 3119 H 316.181 2.76817 5.84792 0
M  V30 3120 N 316.313 -1.40141 0.720998 0
M  V30 3121 C 317.276 -2.29058 0.0805834 0
M  V30 3122 C 318.276 -1.45632 -0.681758 0
M  V30 3123 O 319.466 -1.6648 -0.512856 0
M  V30 3124 C 316.598 -3.28925 -0.895593 0
M  V30 3125 H 317.791 -2.87191 0.863793 0
M  V30 3126 H 315.344 -1.48553 0.485975 0
M  V30 3127 H 316.079 -2.75822 -1.70566 0
M  V30 3128 H 315.864 -3.90519 -0.351766 0
M  V30 3129 H 317.354 -3.95494 -1.34069 0
M  V30 3130 N 317.792 -0.46758 -1.50504 0
M  V30 3131 C 319.02 0.0864133 -2.06719 0
M  V30 3132 C 319.435 1.33819 -1.33184 0
M  V30 3133 O 318.792 1.78061 -0.400083 0
M  V30 3134 C 318.843 0.378079 -3.59517 0
M  V30 3135 O 318.564 -0.824044 -4.3028 0
M  V30 3136 C 320.065 0.979426 -4.32345 0
M  V30 3137 H 317.285 -0.00551697 -0.670977 0
M  V30 3138 H 319.829 -0.655354 -1.93715 0
M  V30 3139 H 317.984 1.06977 -3.72337 0
M  V30 3140 H 318.398 -0.566518 -5.21432 0
M  V30 3141 H 319.872 1.1333 -5.40241 0
M  V30 3142 H 320.349 1.9686 -3.9261 0
M  V30 3143 H 320.955 0.326216 -4.24047 0
M  V30 3144 N 319.27 1.56325 -0.20005 0
M  V30 3145 C 320.495 2.02548 0.44597 0
M  V30 3146 C 320.92 1.07922 1.5406 0
M  V30 3147 O 320.278 0.0635775 1.81188 0
M  V30 3148 C 320.326 3.47175 0.974761 0
M  V30 3149 O 319.43 3.55671 2.08739 0
M  V30 3150 H 318.771 0.655862 0.103638 0
M  V30 3151 H 321.301 2.02201 -0.312381 0
M  V30 3152 H 321.311 3.87067 1.2901 0
M  V30 3153 H 319.986 4.15538 0.17347 0
M  V30 3154 H 318.563 3.27657 1.78032 0
M  V30 3155 N 320.748 -0.0735177 1.57428 0
M  V30 3156 C 321.678 -1.0879 2.06608 0
M  V30 3157 C 322.659 -1.40473 0.959237 0
M  V30 3158 O 323.844 -1.5013 1.23185 0
M  V30 3159 C 320.974 -2.40183 2.50857 0
M  V30 3160 C 319.928 -2.22858 3.65402 0
M  V30 3161 C 319.254 -3.59619 3.957 0
M  V30 3162 C 320.554 -1.65123 4.95511 0
M  V30 3163 H 322.248 -0.678673 2.91607 0
M  V30 3164 H 319.794 -0.325013 1.40284 0
M  V30 3165 H 321.747 -3.11437 2.83874 0
M  V30 3166 H 320.471 -2.83083 1.62885 0
M  V30 3167 H 319.13 -1.54045 3.32664 0
M  V30 3168 H 318.778 -4.00086 3.04861 0
M  V30 3169 H 318.478 -3.48866 4.72828 0
M  V30 3170 H 320.002 -4.32306 4.31212 0
M  V30 3171 H 321.416 -2.26241 5.26771 0
M  V30 3172 H 319.813 -1.65071 5.7695 0
M  V30 3173 H 320.883 -0.612559 4.81015 0
M  V30 3174 N 322.226 -1.5378 -0.344866 0
M  V30 3175 C 323.503 -1.61589 -1.10219 0
M  V30 3176 C 323.883 -0.436316 -2.06542 0
M  V30 3177 O 323.231 0.571543 -2.21237 0
M  V30 3178 C 323.441 -2.97602 -1.82301 0
M  V30 3179 C 324.789 -3.5291 -2.36093 0
M  V30 3180 O 325.813 -2.99768 -1.924 0
M  V30 3181 O 324.672 -4.45859 -3.16026 0
M  V30 3182 H 321.766 -0.653522 -0.506792 0
M  V30 3183 H 324.312 -1.66126 -0.346465 0
M  V30 3184 H 323.084 -3.74893 -1.12121 0
M  V30 3185 H 322.707 -2.9665 -2.64735 0
M  V30 3186 N 323.704 0.605807 -1.45491 0
M  V30 3187 C 324.952 1.36207 -1.49305 0
M  V30 3188 C 325.273 1.94519 -0.136863 0
M  V30 3189 O 324.543 1.77261 0.833983 0
M  V30 3190 H 323.123 0.50565 -0.549843 0
M  V30 3191 H 325.785 0.711239 -1.81459 0
M  V30 3192 H 324.881 2.18058 -2.23287 0
M  V30 3193 N 325.182 1.32811 0.848464 0
M  V30 3194 C 326.429 1.23724 1.60308 0
M  V30 3195 C 326.757 -0.1994 1.93475 0
M  V30 3196 O 326.012 -1.15406 1.5805 0
M  V30 3197 C 326.311 2.04831 2.92881 0
M  V30 3198 C 325.977 3.54125 2.79117 0
M  V30 3199 C 324.639 3.94829 2.7507 0
M  V30 3200 C 326.991 4.49036 2.64606 0
M  V30 3201 C 324.319 5.28675 2.544 0
M  V30 3202 C 326.671 5.83033 2.4547 0
M  V30 3203 C 325.335 6.22931 2.39819 0
M  V30 3204 H 324.605 0.452737 0.586609 0
M  V30 3205 H 327.252 1.64301 0.983743 0
M  V30 3206 H 325.557 1.57001 3.58968 0
M  V30 3207 H 327.254 1.95164 3.50303 0
M  V30 3208 H 323.844 3.21801 2.83094 0
M  V30 3209 H 328.028 4.18505 2.66772 0
M  V30 3210 H 323.284 5.58637 2.48465 0
M  V30 3211 H 327.458 6.56186 2.33222 0
M  V30 3212 H 325.085 7.26584 2.23562 0
M  V30 3213 N 326.66 -1.06551 1.16123 0
M  V30 3214 C 327.937 -1.76097 0.85142 0
M  V30 3215 C 328.317 -2.00802 -0.6513 0
M  V30 3216 O 327.665 -1.63302 -1.59827 0
M  V30 3217 C 327.875 -3.06384 1.67122 0
M  V30 3218 C 329.223 -3.80585 1.88255 0
M  V30 3219 O 330.247 -3.16218 1.63966 0
M  V30 3220 O 329.106 -4.96212 2.2899 0
M  V30 3221 H 326.2 -0.765102 0.313923 0
M  V30 3222 H 328.746 -1.12844 1.26745 0
M  V30 3223 H 327.518 -2.84071 2.69108 0
M  V30 3224 H 327.141 -3.77371 1.25206 0
M  V30 3225 N 328.138 -0.959301 -1.25041 0
M  V30 3226 C 329.384 -0.617525 -1.9317 0
M  V30 3227 C 329.717 0.843981 -1.74902 0
M  V30 3228 O 328.992 1.60615 -1.09696 0
M  V30 3229 C 329.275 -0.982736 -3.46431 0
M  V30 3230 C 329.128 -2.50032 -3.73904 0
M  V30 3231 C 330.447 -0.511176 -4.37121 0
M  V30 3232 H 327.566 -0.22582 -0.701552 0
M  V30 3233 H 330.208 -1.19679 -1.4757 0
M  V30 3234 H 328.358 -0.489806 -3.854 0
M  V30 3235 H 330.03 -3.06737 -3.44544 0
M  V30 3236 H 328.273 -2.93598 -3.19348 0
M  V30 3237 H 328.944 -2.70635 -4.81103 0
M  V30 3238 H 331.42 -0.934075 -4.0548 0
M  V30 3239 H 330.296 -0.795361 -5.43107 0
M  V30 3240 H 330.557 0.588834 -4.38161 0
M  V30 3241 N 329.616 1.39756 -0.72842 0
M  V30 3242 C 330.579 2.29012 -0.0927297 0
M  V30 3243 C 331.579 1.45992 0.674025 0
M  V30 3244 O 332.769 1.66749 0.50402 0
M  V30 3245 C 329.901 3.29396 0.878137 0
M  V30 3246 H 331.094 2.86729 -0.879011 0
M  V30 3247 H 328.647 1.48293 -0.493847 0
M  V30 3248 H 329.382 2.76722 1.69101 0
M  V30 3249 H 329.167 3.907 0.331051 0
M  V30 3250 H 330.657 3.96199 1.3197 0
M  V30 3251 N 331.094 0.475555 1.50254 0
M  V30 3252 C 332.319 -0.0777042 2.07254 0
M  V30 3253 C 332.744 -1.3235 1.3366 0
M  V30 3254 O 332.102 -1.77152 0.385597 0
M  V30 3255 C 332.15 -0.340169 3.58992 0
M  V30 3256 O 331.254 -1.41982 3.87188 0
M  V30 3257 H 330.595 0.0149556 0.663832 0
M  V30 3258 H 333.125 0.667878 1.93392 0
M  V30 3259 H 333.135 -0.579332 4.03866 0
M  V30 3260 H 331.81 0.570167 4.11973 0
M  V30 3261 H 330.387 -1.16762 3.54148 0
M  V30 3262 N 332.573 -1.56217 0.208337 0
M  V30 3263 C 333.819 -1.98242 -0.427552 0
M  V30 3264 C 334.152 -1.09554 -1.60348 0
M  V30 3265 O 333.427 -0.15035 -1.93918 0
M  V30 3266 C 333.71 -3.4931 -0.874907 0
M  V30 3267 C 333.563 -4.48773 0.303751 0
M  V30 3268 C 334.882 -4.04424 -1.73577 0
M  V30 3269 H 332.001 -0.720744 -0.153936 0
M  V30 3270 H 334.643 -1.87586 0.30192 0
M  V30 3271 H 332.793 -3.58522 -1.49648 0
M  V30 3272 H 334.465 -4.51586 0.941682 0
M  V30 3273 H 332.708 -4.23194 0.953375 0
M  V30 3274 H 333.379 -5.51976 -0.0519883 0
M  V30 3275 H 335.855 -3.98075 -1.21143 0
M  V30 3276 H 334.731 -5.1047 -2.01771 0
M  V30 3277 H 334.992 -3.50494 -2.69456 0
M  V30 3278 N 334.051 0.0651679 -1.57465 0
M  V30 3279 C 334.983 1.10359 -2.00882 0
M  V30 3280 C 335.996 1.346 -0.915788 0
M  V30 3281 O 337.185 1.32723 -1.1936 0
M  V30 3282 C 334.285 2.45312 -2.33828 0
M  V30 3283 C 333.458 2.40934 -3.65061 0
M  V30 3284 C 332.517 3.58047 -3.85602 0
M  V30 3285 O 331.543 3.39175 -4.57109 0
M  V30 3286 N 332.745 4.78637 -3.28462 0
M  V30 3287 H 335.51 0.733807 -2.90578 0
M  V30 3288 H 333.071 0.253719 -1.599 0
M  V30 3289 H 335.063 3.22314 -2.44737 0
M  V30 3290 H 333.633 2.74267 -1.49988 0
M  V30 3291 H 332.853 1.49273 -3.64844 0
M  V30 3292 H 334.141 2.35117 -4.51218 0
M  V30 3293 H 333.539 4.96872 -2.70433 0
M  V30 3294 H 332.096 5.53127 -3.44809 0
M  V30 3295 N 335.529 1.53961 0.336706 0
M  V30 3296 C 336.461 1.78751 1.4346 0
M  V30 3297 C 337.474 0.669019 1.48418 0
M  V30 3298 O 338.663 0.945884 1.51378 0
M  V30 3299 C 335.763 1.87844 2.82078 0
M  V30 3300 C 334.936 3.17854 3.00479 0
M  V30 3301 C 333.995 3.17816 4.19379 0
M  V30 3302 O 333.021 3.91511 4.13168 0
M  V30 3303 N 334.223 2.40669 5.2826 0
M  V30 3304 H 336.988 2.73493 1.22563 0
M  V30 3305 H 334.549 1.53096 0.526625 0
M  V30 3306 H 336.541 1.85261 3.59806 0
M  V30 3307 H 335.111 1.00257 2.96086 0
M  V30 3308 H 334.331 3.33504 2.10163 0
M  V30 3309 H 335.619 4.03718 3.0966 0
M  V30 3310 H 335.017 1.8036 5.36178 0
M  V30 3311 H 333.574 2.43877 6.04456 0
M  V30 3312 N 337.007 -0.598083 1.45811 0
M  V30 3313 C 337.939 -1.72231 1.51225 0
M  V30 3314 C 338.952 -1.57757 0.402059 0
M  V30 3315 O 340.141 -1.65464 0.669624 0
M  V30 3316 C 337.241 -3.10331 1.3619 0
M  V30 3317 C 336.414 -3.50955 2.61054 0
M  V30 3318 C 335.473 -4.68055 2.40439 0
M  V30 3319 O 334.499 -4.74691 3.14097 0
M  V30 3320 N 335.701 -5.61941 1.45612 0
M  V30 3321 H 338.466 -1.68046 2.48154 0
M  V30 3322 H 336.027 -0.783637 1.41671 0
M  V30 3323 H 338.019 -3.86439 1.20195 0
M  V30 3324 H 336.589 -3.0897 0.475015 0
M  V30 3325 H 335.809 -2.64711 2.92099 0
M  V30 3326 H 337.097 -3.74858 3.44034 0
M  V30 3327 H 336.495 -5.59301 0.848431 0
M  V30 3328 H 335.052 -6.37542 1.35585 0
M  V30 3329 N 338.485 -1.33259 -0.841409 0
M  V30 3330 C 339.901 -1.12538 -1.13169 0
M  V30 3331 C 340.101 0.0854037 -2.01319 0
M  V30 3332 O 339.157 0.766417 -2.40587 0
M  V30 3333 C 340.47 -2.41156 -1.79623 0
M  V30 3334 C 342.018 -2.47038 -1.922 0
M  V30 3335 C 342.493 -3.7561 -2.6207 0
M  V30 3336 N 343.984 -3.76667 -2.69585 0
M  V30 3337 C 344.719 -4.72861 -3.2433 0
M  V30 3338 N 344.215 -5.79428 -3.79783 0
M  V30 3339 N 346.008 -4.6034 -3.22558 0
M  V30 3340 H 338.159 -2.10868 -0.254676 0
M  V30 3341 H 340.422 -0.931615 -0.175493 0
M  V30 3342 H 340.128 -3.29747 -1.22311 0
M  V30 3343 H 340.002 -2.53114 -2.79666 0
M  V30 3344 H 342.389 -1.58898 -2.48667 0
M  V30 3345 H 342.47 -2.39022 -0.911148 0
M  V30 3346 H 342.114 -4.64131 -2.06263 0
M  V30 3347 H 342.044 -3.80902 -3.63622 0
M  V30 3348 H 344.535 -2.99648 -2.30259 0
M  V30 3349 H 344.848 -6.48867 -4.19752 0
M  V30 3350 H 343.193 -5.83166 -3.78078 0
M  V30 3351 H 346.384 -3.76244 -2.78492 0
M  V30 3352 H 346.557 -5.35478 -3.64921 0
M  V30 3353 N 339.963 1.05934 -1.16686 0
M  V30 3354 C 340.895 2.13468 -0.834503 0
M  V30 3355 C 341.908 1.62013 0.15984 0
M  V30 3356 O 343.097 1.7838 -0.0654228 0
M  V30 3357 C 340.197 3.3817 -0.222361 0
M  V30 3358 C 339.37 4.18928 -1.25771 0
M  V30 3359 C 338.429 5.21985 -0.664703 0
M  V30 3360 O 337.455 5.53334 -1.33453 0
M  V30 3361 N 338.657 5.77919 0.546834 0
M  V30 3362 H 341.422 2.42578 -1.75999 0
M  V30 3363 H 338.983 1.21967 -1.06469 0
M  V30 3364 H 340.975 4.04266 0.187472 0
M  V30 3365 H 339.545 3.06655 0.606758 0
M  V30 3366 H 338.765 3.48433 -1.84358 0
M  V30 3367 H 340.053 4.69687 -1.95631 0
M  V30 3368 H 339.451 5.54721 1.10912 0
M  V30 3369 H 338.008 6.45573 0.898829 0
M  V30 3370 N 341.441 0.965919 1.2453 0
M  V30 3371 C 342.351 0.502154 2.29163 0
M  V30 3372 C 343.367 -0.436017 1.68448 0
M  V30 3373 O 344.543 -0.309497 1.99008 0
M  V30 3374 C 341.608 -0.201956 3.46111 0
M  V30 3375 C 340.669 0.775821 4.22232 0
M  V30 3376 C 339.902 0.105217 5.33596 0
M  V30 3377 O 340.125 -1.10683 5.59558 0
M  V30 3378 O 339.059 0.796475 5.96607 0
M  V30 3379 H 342.885 1.37194 2.70946 0
M  V30 3380 H 340.47 0.732875 1.30189 0
M  V30 3381 H 342.352 -0.597564 4.17142 0
M  V30 3382 H 341.027 -1.04673 3.06309 0
M  V30 3383 H 339.934 1.22185 3.53584 0
M  V30 3384 H 341.267 1.58896 4.65846 0
M  V30 3385 N 342.919 -1.39368 0.735821 0
M  V30 3386 C 343.851 -2.2913 0.0567723 0
M  V30 3387 C 344.864 -1.46859 -0.702589 0
M  V30 3388 O 346.053 -1.69925 -0.546616 0
M  V30 3389 C 343.153 -3.25492 -0.943823 0
M  V30 3390 C 342.326 -4.36709 -0.24581 0
M  V30 3391 C 341.385 -5.13376 -1.15463 0
M  V30 3392 O 340.411 -5.65683 -0.631803 0
M  V30 3393 N 341.613 -5.24656 -2.48427 0
M  V30 3394 H 344.378 -2.88047 0.827582 0
M  V30 3395 H 341.939 -1.50957 0.585112 0
M  V30 3396 H 343.931 -3.73657 -1.55443 0
M  V30 3397 H 342.501 -2.676 -1.61583 0
M  V30 3398 H 341.721 -3.9041 0.545286 0
M  V30 3399 H 343.009 -5.08244 0.237891 0
M  V30 3400 H 342.407 -4.83679 -2.93379 0
M  V30 3401 H 340.964 -5.76258 -3.04582 0
M  V30 3402 N 344.397 -0.483516 -1.5 0
M  V30 3403 C 345.622 0.0667119 -2.07293 0
M  V30 3404 C 346.047 1.3164 -1.3436 0
M  V30 3405 O 345.405 1.76945 -0.394987 0
M  V30 3406 C 345.453 0.321126 -3.59167 0
M  V30 3407 O 344.557 1.39927 -3.87936 0
M  V30 3408 H 343.898 -0.0184758 -0.663743 0
M  V30 3409 H 346.428 -0.678125 -1.93035 0
M  V30 3410 H 346.438 0.557906 -4.04168 0
M  V30 3411 H 345.113 -0.592007 -4.11665 0
M  V30 3412 H 343.69 1.14882 -3.54763 0
M  V30 3413 N 345.875 1.56104 -0.216619 0
M  V30 3414 C 347.105 2.02269 0.420802 0
M  V30 3415 C 347.513 1.09575 1.5424 0
M  V30 3416 O 346.856 0.0967308 1.83445 0
M  V30 3417 C 346.918 3.44784 1.01806 0
M  V30 3418 C 346.582 4.56988 0.0325154 0
M  V30 3419 C 347.579 5.14225 -0.766055 0
M  V30 3420 C 345.264 5.02228 -0.0848092 0
M  V30 3421 C 347.258 6.15169 -1.6687 0
M  V30 3422 C 344.945 6.03011 -0.990994 0
M  V30 3423 C 345.943 6.59357 -1.78149 0
M  V30 3424 O 345.631 7.58179 -2.67245 0
M  V30 3425 H 345.363 0.667353 0.107776 0
M  V30 3426 H 347.917 2.02747 -0.329034 0
M  V30 3427 H 346.147 3.41359 1.81689 0
M  V30 3428 H 347.836 3.74626 1.56237 0
M  V30 3429 H 348.602 4.80126 -0.685836 0
M  V30 3430 H 344.481 4.58054 0.520349 0
M  V30 3431 H 348.025 6.59076 -2.28615 0
M  V30 3432 H 343.922 6.36532 -1.07225 0
M  V30 3433 H 344.69 7.75682 -2.61265 0
M  V30 3434 N 347.353 -0.0568162 1.57498 0
M  V30 3435 C 348.6 -0.753104 1.87975 0
M  V30 3436 C 348.928 -1.76815 0.81035 0
M  V30 3437 O 348.183 -1.94756 -0.19199 0
M  V30 3438 C 348.482 -1.48359 3.25153 0
M  V30 3439 C 348.148 -0.60713 4.46794 0
M  V30 3440 C 346.81 -0.365642 4.79809 0
M  V30 3441 C 349.162 -0.000305978 5.212 0
M  V30 3442 C 346.49 0.491905 5.84634 0
M  V30 3443 C 348.842 0.844781 6.26934 0
M  V30 3444 C 347.506 1.096 6.58441 0
M  V30 3445 H 346.776 -0.27558 0.687849 0
M  V30 3446 H 349.423 -0.0135173 1.91495 0
M  V30 3447 H 347.728 -2.29577 3.17492 0
M  V30 3448 H 349.425 -2.02739 3.45974 0
M  V30 3449 H 346.015 -0.805487 4.20963 0
M  V30 3450 H 350.199 -0.173961 4.95995 0
M  V30 3451 H 345.455 0.695131 6.07436 0
M  V30 3452 H 349.629 1.32165 6.83744 0
M  V30 3453 H 347.256 1.76224 7.39492 0
M  V30 3454 N 348.832 -1.54138 -0.328536 0
M  V30 3455 C 350.078 -1.7236 -1.06865 0
M  V30 3456 C 350.411 -0.493231 -1.87832 0
M  V30 3457 O 349.686 0.5098 -1.877 0
M  V30 3458 C 349.969 -2.99621 -1.99747 0
M  V30 3459 C 349.822 -4.32899 -1.22143 0
M  V30 3460 C 351.141 -3.22615 -2.99345 0
M  V30 3461 H 348.26 -0.627151 -0.387105 0
M  V30 3462 H 350.902 -1.86827 -0.345767 0
M  V30 3463 H 349.052 -2.87418 -2.61387 0
M  V30 3464 H 350.724 -4.56978 -0.630017 0
M  V30 3465 H 348.967 -4.30628 -0.523628 0
M  V30 3466 H 349.638 -5.18154 -1.90318 0
M  V30 3467 H 352.114 -3.34248 -2.47826 0
M  V30 3468 H 350.99 -4.13027 -3.61524 0
M  V30 3469 H 351.251 -2.3961 -3.71536 0
M  V30 3470 N 350.31 0.590341 -1.46126 0
M  V30 3471 C 351.726 0.912917 -1.30912 0
M  V30 3472 C 351.926 1.99616 -0.274893 0
M  V30 3473 O 350.982 2.50397 0.325197 0
M  V30 3474 C 352.295 1.3375 -2.69317 0
M  V30 3475 C 353.843 1.45077 -2.77348 0
M  V30 3476 C 354.318 1.90904 -4.16317 0
M  V30 3477 N 355.809 1.9811 -4.18696 0
M  V30 3478 C 356.544 2.34828 -5.23109 0
M  V30 3479 N 356.04 2.70393 -6.37856 0
M  V30 3480 N 357.833 2.35317 -5.10473 0
M  V30 3481 H 349.984 -0.125358 -2.1203 0
M  V30 3482 H 352.247 0.00658481 -0.947977 0
M  V30 3483 H 351.953 0.615614 -3.4627 0
M  V30 3484 H 351.827 2.30058 -2.9892 0
M  V30 3485 H 354.214 2.16353 -2.00687 0
M  V30 3486 H 354.295 0.4704 -2.51438 0
M  V30 3487 H 353.939 1.20209 -4.9347 0
M  V30 3488 H 353.869 2.89886 -4.39629 0
M  V30 3489 H 356.36 1.73146 -3.359 0
M  V30 3490 H 356.673 2.97341 -7.13308 0
M  V30 3491 H 355.018 2.68048 -6.41229 0
M  V30 3492 H 358.209 2.0695 -4.19868 0
M  V30 3493 H 358.382 2.63605 -5.9196 0
M  V30 3494 N 351.788 1.33704 0.83433 0
M  V30 3495 C 352.718 1.26967 1.95963 0
M  V30 3496 C 353.699 0.149337 1.69443 0
M  V30 3497 O 354.884 0.339852 1.91203 0
M  V30 3498 C 352.014 1.01275 3.32206 0
M  V30 3499 C 350.968 2.09652 3.73136 0
M  V30 3500 C 350.294 1.69166 5.07235 0
M  V30 3501 C 351.594 3.51372 3.86439 0
M  V30 3502 H 353.288 2.2112 2.01857 0
M  V30 3503 H 350.834 1.06447 0.969793 0
M  V30 3504 H 352.787 0.952106 4.10503 0
M  V30 3505 H 351.511 0.0356203 3.26581 0
M  V30 3506 H 350.17 2.14766 2.97104 0
M  V30 3507 H 349.818 0.701437 4.98085 0
M  V30 3508 H 349.518 2.41694 5.35591 0
M  V30 3509 H 351.042 1.64576 5.88003 0
M  V30 3510 H 352.456 3.48734 4.55036 0
M  V30 3511 H 350.853 4.22425 4.26236 0
M  V30 3512 H 351.923 3.89546 2.88759 0
M  V30 3513 N 353.266 -1.05314 1.17247 0
M  V30 3514 C 354.514 -1.77941 0.958194 0
M  V30 3515 C 354.835 -1.88089 -0.514556 0
M  V30 3516 O 354.105 -1.39676 -1.37359 0
M  V30 3517 H 352.685 -0.659116 0.351533 0
M  V30 3518 H 355.347 -1.27166 1.47699 0
M  V30 3519 H 354.443 -2.79663 1.38546 0
M  V30 3520 N 354.744 -0.972509 -1.24016 0
M  V30 3521 C 355.969 -0.654417 -1.96805 0
M  V30 3522 C 356.394 0.770398 -1.716 0
M  V30 3523 O 355.752 1.52361 -0.982647 0
M  V30 3524 C 355.8 -0.941031 -3.48105 0
M  V30 3525 O 354.904 -0.0289472 -4.1239 0
M  V30 3526 H 354.245 -0.24692 -0.616382 0
M  V30 3527 H 356.775 -1.30396 -1.57664 0
M  V30 3528 H 356.785 -0.87452 -3.98517 0
M  V30 3529 H 355.46 -1.97939 -3.65777 0
M  V30 3530 H 354.037 -0.149192 -3.72601 0
M  V30 3531 N 356.222 1.38976 -0.743202 0
M  V30 3532 C 357.152 2.33171 -0.123873 0
M  V30 3533 C 358.133 1.54336 0.71516 0
M  V30 3534 O 359.318 1.82696 0.658467 0
M  V30 3535 C 356.448 3.38474 0.777978 0
M  V30 3536 C 355.402 4.27979 0.0424758 0
M  V30 3537 C 354.728 5.2405 1.06189 0
M  V30 3538 C 356.028 5.10155 -1.1198 0
M  V30 3539 H 357.722 2.85213 -0.910709 0
M  V30 3540 H 355.268 1.37133 -0.439388 0
M  V30 3541 H 357.221 4.03328 1.22084 0
M  V30 3542 H 355.945 2.84891 1.59702 0
M  V30 3543 H 354.604 3.64616 -0.380853 0
M  V30 3544 H 354.252 4.66758 1.87472 0
M  V30 3545 H 353.952 5.84785 0.574485 0
M  V30 3546 H 355.476 5.9178 1.50428 0
M  V30 3547 H 356.89 5.68307 -0.75499 0
M  V30 3548 H 355.287 5.80073 -1.53738 0
M  V30 3549 H 356.357 4.44504 -1.93764 0
M  V30 3550 N 357.7 0.491464 1.49741 0
M  V30 3551 C 358.925 -0.0557177 2.07325 0
M  V30 3552 C 359.35 -1.30925 1.35056 0
M  V30 3553 O 358.708 -1.76733 0.404365 0
M  V30 3554 C 358.756 -0.302074 3.59333 0
M  V30 3555 O 357.86 -1.37868 3.88672 0
M  V30 3556 H 357.201 0.0219956 0.663636 0
M  V30 3557 H 359.731 0.688352 1.92673 0
M  V30 3558 H 359.741 -0.536464 4.04458 0
M  V30 3559 H 358.416 0.61383 4.11345 0
M  V30 3560 H 356.993 -1.12999 3.55367 0
M  V30 3561 N 359.178 -1.55987 0.224894 0
M  V30 3562 C 360.088 -2.24066 -0.69511 0
M  V30 3563 C 361.104 -1.24939 -1.21104 0
M  V30 3564 O 362.28 -1.5776 -1.25195 0
M  V30 3565 C 359.345 -2.90983 -1.88493 0
M  V30 3566 C 358.406 -4.05462 -1.41064 0
M  V30 3567 C 357.639 -4.69179 -2.54375 0
M  V30 3568 O 357.862 -4.31895 -3.72589 0
M  V30 3569 O 356.796 -5.58108 -2.25386 0
M  V30 3570 H 360.622 -3.03353 -0.145149 0
M  V30 3571 H 358.207 -1.49399 -0.00569476 0
M  V30 3572 H 360.089 -3.33209 -2.57972 0
M  V30 3573 H 358.764 -2.14653 -2.42293 0
M  V30 3574 H 357.671 -3.67798 -0.683774 0
M  V30 3575 H 359.004 -4.83545 -0.918985 0
M  V30 3576 N 360.656 0.0484629 -1.57525 0
M  V30 3577 C 362.072 0.40375 -1.54409 0
M  V30 3578 C 362.272 1.77786 -0.948384 0
M  V30 3579 O 361.328 2.46189 -0.560983 0
M  V30 3580 C 362.641 0.323394 -2.98956 0
M  V30 3581 C 364.189 0.401892 -3.10409 0
M  V30 3582 C 364.664 0.351195 -4.56652 0
M  V30 3583 N 366.155 0.410576 -4.61377 0
M  V30 3584 C 366.89 0.393933 -5.72045 0
M  V30 3585 N 366.386 0.330724 -6.9201 0
M  V30 3586 N 368.179 0.442227 -5.60358 0
M  V30 3587 H 360.33 -0.851016 -1.94606 0
M  V30 3588 H 362.593 -0.321721 -0.89174 0
M  V30 3589 H 362.299 -0.62011 -3.4619 0
M  V30 3590 H 362.173 1.12463 -3.60044 0
M  V30 3591 H 364.56 1.33582 -2.63134 0
M  V30 3592 H 364.641 -0.428342 -2.52188 0
M  V30 3593 H 364.285 -0.578987 -5.04589 0
M  V30 3594 H 364.215 1.19928 -5.12762 0
M  V30 3595 H 366.706 0.462729 -3.75056 0
M  V30 3596 H 367.019 0.322592 -7.72126 0
M  V30 3597 H 365.364 0.29706 -6.94365 0
M  V30 3598 H 368.555 0.489464 -4.65534 0
M  V30 3599 H 368.728 0.425788 -6.466 0
M  V30 3600 N 362.134 1.5431 0.320358 0
M  V30 3601 C 363.064 1.86912 1.3995 0
M  V30 3602 C 364.045 0.726211 1.53819 0
M  V30 3603 O 365.23 0.980233 1.67646 0
M  V30 3604 C 362.36 2.09932 2.7667 0
M  V30 3605 C 361.314 3.25776 2.77586 0
M  V30 3606 C 360.64 3.34173 4.17412 0
M  V30 3607 C 361.94 4.6335 2.41048 0
M  V30 3608 H 363.634 2.77292 1.12914 0
M  V30 3609 H 361.18 1.33421 0.541738 0
M  V30 3610 H 363.133 2.31324 3.52232 0
M  V30 3611 H 361.857 1.16304 3.0519 0
M  V30 3612 H 360.516 3.04276 2.04479 0
M  V30 3613 H 360.164 2.38098 4.43078 0
M  V30 3614 H 359.864 4.12033 4.18931 0
M  V30 3615 H 361.388 3.57803 4.94782 0
M  V30 3616 H 362.802 4.84602 3.06324 0
M  V30 3617 H 361.199 5.43782 2.53813 0
M  V30 3618 H 362.269 4.65381 1.36193 0
M  V30 3619 N 363.613 -0.582584 1.46437 0
M  V30 3620 C 365.029 -0.905962 1.31394 0
M  V30 3621 C 365.229 -1.99468 0.285476 0
M  V30 3622 O 364.285 -2.50566 -0.311914 0
M  V30 3623 C 365.598 -1.3232 2.70022 0
M  V30 3624 C 367.146 -1.43604 2.78113 0
M  V30 3625 C 367.621 -1.88694 4.17323 0
M  V30 3626 N 369.112 -1.95887 4.19741 0
M  V30 3627 C 369.847 -2.32051 5.24347 0
M  V30 3628 N 369.343 -2.67006 6.39281 0
M  V30 3629 N 371.136 -2.32606 5.11713 0
M  V30 3630 H 363.287 0.1366 2.1196 0
M  V30 3631 H 365.55 -0.00155736 0.947999 0
M  V30 3632 H 365.256 -0.597242 3.46592 0
M  V30 3633 H 365.13 -2.28469 3.00136 0
M  V30 3634 H 367.517 -2.15286 2.01832 0
M  V30 3635 H 367.598 -0.457059 2.51684 0
M  V30 3636 H 367.242 -1.1759 4.941 0
M  V30 3637 H 367.172 -2.8755 4.4116 0
M  V30 3638 H 369.663 -1.71362 3.36814 0
M  V30 3639 H 369.976 -2.93554 7.14875 0
M  V30 3640 H 368.321 -2.64644 6.42642 0
M  V30 3641 H 371.512 -2.04721 4.2096 0
M  V30 3642 H 371.685 -2.60462 5.93349 0
M  V30 3643 N 365.091 -1.34144 -0.827227 0
M  V30 3644 C 366.023 -1.21206 -1.9453 0
M  V30 3645 C 367.036 -0.140176 -1.62195 0
M  V30 3646 O 368.225 -0.391647 -1.7415 0
M  V30 3647 C 365.325 -0.839141 -3.28347 0
M  V30 3648 C 364.498 -2.0051 -3.88734 0
M  V30 3649 C 363.557 -1.61128 -5.00923 0
M  V30 3650 O 362.583 -2.32726 -5.19449 0
M  V30 3651 N 363.785 -0.522958 -5.7814 0
M  V30 3652 H 366.55 -2.17525 -2.06162 0
M  V30 3653 H 364.111 -1.27043 -1.00358 0
M  V30 3654 H 366.103 -0.557556 -4.00841 0
M  V30 3655 H 364.673 0.0337293 -3.12582 0
M  V30 3656 H 363.893 -2.45166 -3.08686 0
M  V30 3657 H 365.181 -2.78498 -4.25812 0
M  V30 3658 H 364.579 0.0723518 -5.65654 0
M  V30 3659 H 363.136 -0.301089 -6.51104 0
M  V30 3660 N 366.569 1.04691 -1.17803 0
M  V30 3661 C 367.519 2.10856 -0.867391 0
M  V30 3662 C 368.503 1.601 0.160206 0
M  V30 3663 O 369.695 1.76948 -0.042947 0
M  V30 3664 C 366.824 3.411 -0.388012 0
M  V30 3665 C 365.91 3.9864 -1.44732 0
M  V30 3666 N 366.301 4.30075 -2.66212 0
M  V30 3667 C 364.599 4.26439 -1.30637 0
M  V30 3668 C 365.3 4.76033 -3.34317 0
M  V30 3669 N 364.276 4.76462 -2.61696 0
M  V30 3670 H 368.078 2.33029 -1.79094 0
M  V30 3671 H 365.592 1.22386 -1.0675 0
M  V30 3672 H 367.589 4.16641 -0.146994 0
M  V30 3673 H 366.249 3.20357 0.529271 0
M  V30 3674 H 367.26 4.19917 -3.03134 0
M  V30 3675 H 363.937 4.15056 -0.451129 0
M  V30 3676 H 365.327 5.09427 -4.38103 0
M  V30 3677 N 368.047 0.979072 1.23499 0
M  V30 3678 C 369.01 0.523244 2.23147 0
M  V30 3679 C 370.01 -0.386406 1.56088 0
M  V30 3680 O 371.2 -0.180283 1.73265 0
M  V30 3681 C 368.332 -0.240739 3.40049 0
M  V30 3682 H 369.525 1.40432 2.64989 0
M  V30 3683 H 367.078 0.764824 1.36309 0
M  V30 3684 H 367.813 -1.13841 3.03662 0
M  V30 3685 H 367.598 0.412207 3.89927 0
M  V30 3686 H 369.088 -0.548297 4.13985 0
M  V30 3687 N 369.525 -1.3858 0.750561 0
M  V30 3688 C 370.755 -2.04175 0.31564 0
M  V30 3689 C 371.163 -1.56726 -1.05989 0
M  V30 3690 O 370.506 -0.734225 -1.68389 0
M  V30 3691 C 370.568 -3.58585 0.256389 0
M  V30 3692 C 370.232 -4.29077 1.57296 0
M  V30 3693 C 371.229 -4.54656 2.52159 0
M  V30 3694 C 368.914 -4.67324 1.84156 0
M  V30 3695 C 370.908 -5.17512 3.72103 0
M  V30 3696 C 368.595 -5.29905 3.04374 0
M  V30 3697 C 369.593 -5.54933 3.98168 0
M  V30 3698 O 369.281 -6.16212 5.16273 0
M  V30 3699 H 369.013 -0.662742 0.133226 0
M  V30 3700 H 371.567 -1.78313 1.01948 0
M  V30 3701 H 369.797 -3.83406 -0.503677 0
M  V30 3702 H 371.486 -4.05628 -0.148612 0
M  V30 3703 H 372.252 -4.25539 2.32683 0
M  V30 3704 H 368.131 -4.47191 1.11988 0
M  V30 3705 H 371.675 -5.36963 4.45327 0
M  V30 3706 H 367.572 -5.58444 3.23745 0
M  V30 3707 H 368.34 -6.34701 5.16815 0
M  V30 3708 N 371.003 -0.499398 -1.49478 0
M  V30 3709 C 371.913 0.284489 -2.32869 0
M  V30 3710 C 372.929 0.968885 -1.44529 0
M  V30 3711 O 374.105 0.95062 -1.77553 0
M  V30 3712 C 371.17 1.33594 -3.19928 0
M  V30 3713 C 370.231 0.665149 -4.24116 0
M  V30 3714 C 369.464 1.6665 -5.07014 0
M  V30 3715 O 369.687 2.89618 -4.91404 0
M  V30 3716 O 368.621 1.22271 -5.8935 0
M  V30 3717 H 372.447 -0.39802 -3.01081 0
M  V30 3718 H 370.032 -0.260758 -1.47107 0
M  V30 3719 H 371.914 1.94431 -3.73864 0
M  V30 3720 H 370.589 2.0014 -2.54412 0
M  V30 3721 H 369.496 0.0170769 -3.74096 0
M  V30 3722 H 370.829 0.0421555 -4.92182 0
M  V30 3723 N 372.481 1.55866 -0.233164 0
M  V30 3724 C 373.431 2.17442 0.685774 0
M  V30 3725 C 374.415 1.12617 1.14918 0
M  V30 3726 O 375.607 1.3857 1.10124 0
M  V30 3727 C 372.736 2.86685 1.88856 0
M  V30 3728 C 371.822 3.98749 1.4443 0
M  V30 3729 N 372.213 5.00744 0.713364 0
M  V30 3730 C 370.511 4.11052 1.73068 0
M  V30 3731 C 371.212 5.79673 0.485205 0
M  V30 3732 N 370.188 5.33454 1.04536 0
M  V30 3733 H 373.99 2.93659 0.119022 0
M  V30 3734 H 371.504 1.62362 -0.0348995 0
M  V30 3735 H 373.501 3.29218 2.55776 0
M  V30 3736 H 372.161 2.11967 2.45967 0
M  V30 3737 H 373.172 5.16613 0.364861 0
M  V30 3738 H 369.849 3.47495 2.31416 0
M  V30 3739 H 371.239 6.71829 -0.097365 0
M  V30 3740 N 373.959 -0.0401083 1.57549 0
M  V30 3741 C 375.184 -0.748931 1.93406 0
M  V30 3742 C 375.609 -1.68686 0.832274 0
M  V30 3743 O 374.967 -1.80047 -0.212818 0
M  V30 3744 C 375.015 -1.4916 3.28304 0
M  V30 3745 O 374.119 -2.6042 3.19774 0
M  V30 3746 H 373.46 -0.202212 0.63246 0
M  V30 3747 H 375.99 0.00112086 2.046 0
M  V30 3748 H 376 -1.86395 3.62934 0
M  V30 3749 H 374.675 -0.80364 4.08062 0
M  V30 3750 H 373.252 -2.25808 2.96758 0
M  V30 3751 N 375.437 -1.54477 -0.31217 0
M  V30 3752 C 376.367 -1.87652 -1.38957 0
M  V30 3753 C 377.348 -0.734358 -1.53431 0
M  V30 3754 O 378.533 -0.98911 -1.67123 0
M  V30 3755 C 375.663 -2.11396 -2.75552 0
M  V30 3756 C 374.617 -3.27243 -2.75855 0
M  V30 3757 C 373.943 -3.36382 -4.15633 0
M  V30 3758 C 375.243 -4.64622 -2.38587 0
M  V30 3759 H 376.937 -2.77887 -1.11442 0
M  V30 3760 H 374.483 -1.33707 -0.534655 0
M  V30 3761 H 376.436 -2.33189 -3.51 0
M  V30 3762 H 375.16 -1.17921 -3.04569 0
M  V30 3763 H 373.819 -3.05356 -2.02863 0
M  V30 3764 H 373.467 -2.40445 -4.41809 0
M  V30 3765 H 373.167 -4.14249 -4.1674 0
M  V30 3766 H 374.691 -3.60422 -4.92877 0
M  V30 3767 H 376.105 -4.86219 -3.03749 0
M  V30 3768 H 374.502 -5.45121 -2.50925 0
M  V30 3769 H 375.572 -4.66097 -1.33723 0
M  V30 3770 N 376.915 0.57481 -1.46744 0
M  V30 3771 C 378.163 1.33009 -1.52161 0
M  V30 3772 C 378.484 1.94185 -0.178092 0
M  V30 3773 O 377.754 1.7899 0.796196 0
M  V30 3774 H 376.334 0.493873 -0.560445 0
M  V30 3775 H 378.996 0.672589 -1.82927 0
M  V30 3776 H 378.092 2.13273 -2.27862 0
M  V30 3777 N 378.394 1.34581 0.820102 0
M  V30 3778 C 379.341 1.2639 1.93117 0
M  V30 3779 C 380.311 0.138554 1.65521 0
M  V30 3780 O 381.496 0.320004 1.88097 0
M  V30 3781 C 378.636 1.02812 3.29429 0
M  V30 3782 C 377.749 2.24146 3.693 0
M  V30 3783 C 376.884 1.93829 4.94574 0
M  V30 3784 C 375.923 3.1129 5.27034 0
M  V30 3785 N 375.06 2.80838 6.43486 0
M  V30 3786 H 379.9 2.21408 1.99455 0
M  V30 3787 H 377.437 1.10077 0.975784 0
M  V30 3788 H 379.395 0.871788 4.0799 0
M  V30 3789 H 378.025 0.114612 3.22596 0
M  V30 3790 H 377.077 2.50691 2.86109 0
M  V30 3791 H 378.389 3.11899 3.89257 0
M  V30 3792 H 377.543 1.74948 5.80929 0
M  V30 3793 H 376.282 1.03341 4.76626 0
M  V30 3794 H 375.287 3.30764 4.39175 0
M  V30 3795 H 376.512 4.02561 5.4692 0
M  V30 3796 H 374.458 1.92929 6.26988 0
M  V30 3797 H 374.375 3.62123 6.63629 0
M  V30 3798 H 375.643 2.65467 7.32903 0
M  V30 3799 N 379.872 -1.04064 1.18357 0
M  V30 3800 C 380.802 -2.14001 0.934113 0
M  V30 3801 C 381.783 -1.69616 -0.128186 0
M  V30 3802 O 382.968 -1.94185 0.0244093 0
M  V30 3803 C 380.098 -3.44253 0.459066 0
M  V30 3804 C 379.052 -4.02261 1.46185 0
M  V30 3805 C 378.378 -5.27992 0.844322 0
M  V30 3806 C 379.678 -4.38432 2.83856 0
M  V30 3807 H 381.372 -2.35127 1.85352 0
M  V30 3808 H 378.918 -1.12998 0.892604 0
M  V30 3809 H 380.871 -4.20522 0.271907 0
M  V30 3810 H 379.595 -3.22813 -0.495912 0
M  V30 3811 H 378.254 -3.28074 1.63595 0
M  V30 3812 H 377.902 -5.02862 -0.117845 0
M  V30 3813 H 377.602 -5.67765 1.51384 0
M  V30 3814 H 379.126 -6.06938 0.667693 0
M  V30 3815 H 380.54 -5.05688 2.70098 0
M  V30 3816 H 378.937 -4.89254 3.47491 0
M  V30 3817 H 380.007 -3.4826 3.37406 0
M  V30 3818 N 381.35 -0.985608 -1.22978 0
M  V30 3819 C 382.766 -0.695104 -1.43668 0
M  V30 3820 C 382.966 0.736866 -1.87543 0
M  V30 3821 O 382.022 1.50868 -2.02473 0
M  V30 3822 C 383.335 -1.69447 -2.48412 0
M  V30 3823 C 384.883 -1.70909 -2.62219 0
M  V30 3824 C 385.358 -2.6969 -3.70178 0
M  V30 3825 N 386.849 -2.6824 -3.77626 0
M  V30 3826 C 387.584 -3.41339 -4.60733 0
M  V30 3827 N 387.08 -4.24015 -5.4789 0
M  V30 3828 N 388.873 -3.30079 -4.54977 0
M  V30 3829 H 381.024 -1.91054 -0.928016 0
M  V30 3830 H 383.287 -0.823553 -0.469536 0
M  V30 3831 H 382.993 -2.7188 -2.23102 0
M  V30 3832 H 382.867 -1.48147 -3.46889 0
M  V30 3833 H 385.254 -0.691785 -2.86877 0
M  V30 3834 H 385.335 -1.96276 -1.6404 0
M  V30 3835 H 384.979 -3.71566 -3.46268 0
M  V30 3836 H 384.909 -2.41595 -4.67909 0
M  V30 3837 H 387.4 -2.08243 -3.15346 0
M  V30 3838 H 387.713 -4.76636 -6.08308 0
M  V30 3839 H 386.058 -4.28104 -5.47496 0
M  V30 3840 H 389.249 -2.64937 -3.85909 0
M  V30 3841 H 389.422 -3.87308 -5.19516 0
M  V30 3842 N 382.828 1.3818 -0.7579 0
M  V30 3843 C 383.791 2.28764 -0.141286 0
M  V30 3844 C 384.791 1.47388 0.642907 0
M  V30 3845 O 385.981 1.67781 0.468536 0
M  V30 3846 C 383.113 3.31184 0.808069 0
M  V30 3847 H 384.306 2.848 -0.939633 0
M  V30 3848 H 381.859 1.47212 -0.525191 0
M  V30 3849 H 382.594 2.80247 1.63193 0
M  V30 3850 H 382.379 3.91314 0.248104 0
M  V30 3851 H 383.869 3.98909 1.23536 0
M  V30 3852 N 384.306 0.507319 1.49211 0
M  V30 3853 C 385.534 -0.0315749 2.06876 0
M  V30 3854 C 385.949 -1.30241 1.36685 0
M  V30 3855 O 385.306 -1.76937 0.447152 0
M  V30 3856 C 385.357 -0.282627 3.60393 0
M  V30 3857 O 385.078 0.937835 4.27944 0
M  V30 3858 C 386.579 -0.864453 4.3479 0
M  V30 3859 H 383.799 0.0233048 0.670595 0
M  V30 3860 H 386.343 0.706484 1.91909 0
M  V30 3861 H 384.498 -0.97068 3.75042 0
M  V30 3862 H 384.912 0.704567 5.19746 0
M  V30 3863 H 386.386 -0.989664 5.43056 0
M  V30 3864 H 386.863 -1.86382 3.97692 0
M  V30 3865 H 387.469 -0.213672 4.24763 0
M  V30 3866 N 385.784 -1.5574 0.241426 0
M  V30 3867 C 386.731 -2.21149 -0.660432 0
M  V30 3868 C 387.701 -1.17356 -1.17545 0
M  V30 3869 O 388.886 -1.45784 -1.23093 0
M  V30 3870 C 386.026 -2.91059 -1.85414 0
M  V30 3871 C 385.139 -4.09495 -1.37616 0
M  V30 3872 C 384.274 -4.67135 -2.529 0
M  V30 3873 C 383.313 -5.77831 -2.01936 0
M  V30 3874 N 382.45 -6.29677 -3.10566 0
M  V30 3875 H 387.29 -2.97845 -0.095955 0
M  V30 3876 H 384.827 -1.47057 -0.0356024 0
M  V30 3877 H 386.785 -3.29788 -2.5553 0
M  V30 3878 H 385.415 -2.16846 -2.39118 0
M  V30 3879 H 384.467 -3.76117 -0.569235 0
M  V30 3880 H 385.779 -4.89423 -0.962618 0
M  V30 3881 H 384.933 -5.08409 -3.31067 0
M  V30 3882 H 383.672 -3.86411 -2.97553 0
M  V30 3883 H 382.677 -5.36039 -1.22238 0
M  V30 3884 H 383.902 -6.60402 -1.58259 0
M  V30 3885 H 381.848 -5.5186 -3.54664 0
M  V30 3886 H 381.765 -7.04783 -2.73526 0
M  V30 3887 H 383.033 -6.75609 -3.88809 0
M  V30 3888 N 387.262 0.0317525 -1.57568 0
M  V30 3889 C 388.194 1.06073 -2.03178 0
M  V30 3890 C 389.207 1.32627 -0.944132 0
M  V30 3891 O 390.396 1.30162 -1.22148 0
M  V30 3892 C 387.496 2.40297 -2.38978 0
M  V30 3893 C 386.669 2.33137 -3.70089 0
M  V30 3894 C 385.728 3.49787 -3.9311 0
M  V30 3895 O 384.754 3.29403 -4.64201 0
M  V30 3896 N 385.956 4.71562 -3.38541 0
M  V30 3897 H 388.721 0.672006 -2.92069 0
M  V30 3898 H 386.282 0.219745 -1.60402 0
M  V30 3899 H 388.274 3.1705 -2.51518 0
M  V30 3900 H 386.844 2.71024 -1.55771 0
M  V30 3901 H 386.064 1.415 -3.67928 0
M  V30 3902 H 387.352 2.25493 -4.56104 0
M  V30 3903 H 386.75 4.91024 -2.80912 0
M  V30 3904 H 385.307 5.45689 -3.56464 0
M  V30 3905 N 388.74 1.54641 0.303973 0
M  V30 3906 C 390.156 1.45788 0.649463 0
M  V30 3907 C 390.356 0.64666 1.90842 0
M  V30 3908 O 389.412 0.153183 2.52035 0
M  V30 3909 C 390.725 2.89718 0.805227 0
M  V30 3910 C 392.273 2.99742 0.901305 0
M  V30 3911 C 392.748 4.44863 1.08909 0
M  V30 3912 N 394.239 4.48559 1.15536 0
M  V30 3913 C 394.974 5.58026 1.3189 0
M  V30 3914 N 394.47 6.77422 1.45161 0
M  V30 3915 N 396.263 5.45708 1.34755 0
M  V30 3916 H 388.414 2.05854 -0.523237 0
M  V30 3917 H 390.677 0.932186 -0.172431 0
M  V30 3918 H 390.383 3.51666 -0.0489108 0
M  V30 3919 H 390.257 3.36964 1.69513 0
M  V30 3920 H 392.644 2.3791 1.74593 0
M  V30 3921 H 392.725 2.55797 -0.0125531 0
M  V30 3922 H 392.369 5.07288 0.249241 0
M  V30 3923 H 392.299 4.86436 2.01713 0
M  V30 3924 H 394.79 3.6254 1.06646 0
M  V30 3925 H 395.103 7.56604 1.57387 0
M  V30 3926 H 393.448 6.80292 1.42223 0
M  V30 3927 H 396.639 4.51378 1.23996 0
M  V30 3928 H 396.812 6.3107 1.47157 0
M  V30 3929 N 390.218 -0.567019 1.47046 0
M  V30 3930 C 391.181 -1.65696 1.58359 0
M  V30 3931 C 392.181 -1.54097 0.459441 0
M  V30 3932 O 393.371 -1.58432 0.724225 0
M  V30 3933 C 390.503 -3.05197 1.51879 0
M  V30 3934 H 391.696 -1.57019 2.5551 0
M  V30 3935 H 389.249 -0.786148 1.3509 0
M  V30 3936 H 389.984 -3.19417 0.560673 0
M  V30 3937 H 389.769 -3.15025 2.33455 0
M  V30 3938 H 391.259 -3.84511 1.62913 0
M  V30 3939 N 391.696 -1.35014 -0.812953 0
M  V30 3940 C 392.628 -1.23262 -1.93233 0
M  V30 3941 C 393.641 -0.157371 -1.62038 0
M  V30 3942 O 394.83 -0.410096 -1.73725 0
M  V30 3943 C 391.93 -0.87392 -3.27438 0
M  V30 3944 C 391.103 -2.04622 -3.86586 0
M  V30 3945 C 390.162 -1.66432 -4.99186 0
M  V30 3946 O 389.188 -2.38222 -5.16951 0
M  V30 3947 N 390.39 -0.584248 -5.77552 0
M  V30 3948 H 393.155 -2.19699 -2.03844 0
M  V30 3949 H 390.716 -1.281 -0.99005 0
M  V30 3950 H 392.708 -0.600039 -4.00227 0
M  V30 3951 H 391.278 0.00057392 -3.126 0
M  V30 3952 H 390.498 -2.48427 -3.06068 0
M  V30 3953 H 391.786 -2.82999 -4.22835 0
M  V30 3954 H 391.184 0.0123526 -5.65699 0
M  V30 3955 H 389.741 -0.37013 -6.50748 0
M  V30 3956 N 393.175 1.03435 -1.18907 0
M  V30 3957 C 394.085 2.15075 -0.937015 0
M  V30 3958 C 395.101 1.73706 0.101085 0
M  V30 3959 O 396.277 2.01232 -0.0822948 0
M  V30 3960 C 393.342 3.43458 -0.473057 0
M  V30 3961 C 392.403 3.99172 -1.57989 0
M  V30 3962 C 391.636 5.21427 -1.13797 0
M  V30 3963 O 391.859 5.704 0.000725941 0
M  V30 3964 O 390.793 5.69837 -1.9383 0
M  V30 3965 H 394.619 2.39198 -1.87131 0
M  V30 3966 H 392.204 1.13506 -0.971427 0
M  V30 3967 H 394.086 4.20811 -0.222702 0
M  V30 3968 H 392.761 3.20793 0.432869 0
M  V30 3969 H 391.668 3.23178 -1.88433 0
M  V30 3970 H 393.001 4.2619 -2.46217 0
M  V30 3971 N 394.653 0.992116 1.22453 0
M  V30 3972 C 395.616 0.546883 2.2258 0
M  V30 3973 C 396.616 -0.369829 1.56489 0
M  V30 3974 O 397.806 -0.161896 1.73446 0
M  V30 3975 C 394.938 -0.204659 3.40285 0
M  V30 3976 H 396.131 1.43234 2.63484 0
M  V30 3977 H 393.684 0.779239 1.3549 0
M  V30 3978 H 394.419 -1.10614 3.04853 0
M  V30 3979 H 394.204 0.45354 3.89468 0
M  V30 3980 H 395.694 -0.504358 4.14543 0
M  V30 3981 N 396.131 -1.37776 0.765217 0
M  V30 3982 C 397.061 -2.32945 0.160953 0
M  V30 3983 C 398.042 -1.55454 -0.690516 0
M  V30 3984 O 399.227 -1.83721 -0.629318 0
M  V30 3985 C 396.357 -3.39669 -0.724031 0
M  V30 3986 C 395.311 -4.27992 0.0256173 0
M  V30 3987 C 394.637 -5.25673 -0.978383 0
M  V30 3988 C 395.937 -5.08309 1.20082 0
M  V30 3989 H 397.631 -2.83728 0.955969 0
M  V30 3990 H 395.177 -1.36416 0.461149 0
M  V30 3991 H 397.13 -4.05219 -1.15652 0
M  V30 3992 H 395.854 -2.87396 -1.5515 0
M  V30 3993 H 394.513 -3.63964 0.438812 0
M  V30 3994 H 394.161 -4.69682 -1.80022 0
M  V30 3995 H 393.861 -5.85625 -0.481378 0
M  V30 3996 H 395.385 -5.94098 -1.40995 0
M  V30 3997 H 396.799 -5.67034 0.845307 0
M  V30 3998 H 395.196 -5.77554 1.62947 0
M  V30 3999 H 396.266 -4.41365 2.00811 0
M  V30 4000 N 397.609 -0.515225 -1.4894 0
M  V30 4001 C 398.539 0.244628 -2.32215 0
M  V30 4002 C 399.52 0.949136 -1.41157 0
M  V30 4003 O 400.705 0.937783 -1.70057 0
M  V30 4004 C 397.835 1.30096 -3.22013 0
M  V30 4005 C 396.789 0.715486 -4.21977 0
M  V30 4006 C 396.115 1.87339 -5.00808 0
M  V30 4007 C 397.415 -0.302982 -5.2142 0
M  V30 4008 H 399.109 -0.450501 -2.95991 0
M  V30 4009 H 396.655 -0.218098 -1.42339 0
M  V30 4010 H 398.608 1.84037 -3.79089 0
M  V30 4011 H 397.332 2.02547 -2.56207 0
M  V30 4012 H 395.991 0.197715 -3.66066 0
M  V30 4013 H 395.639 2.58592 -4.31438 0
M  V30 4014 H 395.339 1.48764 -5.68457 0
M  V30 4015 H 396.863 2.41686 -5.60732 0
M  V30 4016 H 398.277 0.148802 -5.73107 0
M  V30 4017 H 396.674 -0.60532 -5.97039 0
M  V30 4018 H 397.744 -1.21395 -4.69459 0
M  V30 4019 N 399.087 1.5561 -0.249682 0
M  V30 4020 C 400.019 2.18834 0.681496 0
M  V30 4021 C 401.032 1.16546 1.1367 0
M  V30 4022 O 402.221 1.43397 1.06299 0
M  V30 4023 C 399.321 2.77992 1.9384 0
M  V30 4024 C 398.494 4.05725 1.63419 0
M  V30 4025 C 397.553 4.49174 2.74096 0
M  V30 4026 O 396.579 5.15492 2.41364 0
M  V30 4027 N 397.781 4.17191 4.03649 0
M  V30 4028 H 400.546 2.9937 0.140514 0
M  V30 4029 H 398.107 1.6175 -0.0697541 0
M  V30 4030 H 400.099 3.04015 2.67127 0
M  V30 4031 H 398.669 2.01596 2.38909 0
M  V30 4032 H 397.889 3.87261 0.736358 0
M  V30 4033 H 399.177 4.88999 1.40562 0
M  V30 4034 H 398.575 3.63955 4.33074 0
M  V30 4035 H 397.132 4.48043 4.73393 0
M  V30 4036 N 400.565 -0.0233959 1.57583 0
M  V30 4037 C 401.495 -1.02162 2.09965 0
M  V30 4038 C 402.476 -1.3735 1.00344 0
M  V30 4039 O 403.661 -1.46135 1.27899 0
M  V30 4040 C 400.791 -2.32081 2.58371 0
M  V30 4041 C 399.745 -2.1112 3.72307 0
M  V30 4042 C 399.071 -3.46848 4.06941 0
M  V30 4043 C 400.371 -1.49276 5.00514 0
M  V30 4044 H 402.065 -0.585557 2.93618 0
M  V30 4045 H 399.611 -0.280218 1.41247 0
M  V30 4046 H 401.564 -3.02249 2.93639 0
M  V30 4047 H 400.288 -2.77758 1.71808 0
M  V30 4048 H 398.947 -1.43384 3.37397 0
M  V30 4049 H 398.595 -3.90184 3.17436 0
M  V30 4050 H 398.295 -3.33646 4.83688 0
M  V30 4051 H 399.819 -4.18369 4.44747 0
M  V30 4052 H 401.233 -2.09368 5.33702 0
M  V30 4053 H 399.63 -1.46632 5.8191 0
M  V30 4054 H 400.7 -0.459217 4.82721 0
M  V30 4055 N 402.043 -1.548 -0.295768 0
M  V30 4056 C 403.268 -1.78653 -1.05346 0
M  V30 4057 C 403.693 -0.546894 -1.79974 0
M  V30 4058 O 403.051 0.502763 -1.7419 0
M  V30 4059 C 403.099 -2.99679 -2.00561 0
M  V30 4060 O 402.203 -2.7317 -3.08953 0
M  V30 4061 H 401.544 -0.59116 -0.302367 0
M  V30 4062 H 404.074 -2.01895 -0.331598 0
M  V30 4063 H 404.084 -3.27793 -2.42932 0
M  V30 4064 H 402.759 -3.89562 -1.4565 0
M  V30 4065 H 401.336 -2.56089 -2.71059 0
M  V30 4066 N 403.521 0.559213 -1.47345 0
M  V30 4067 C 404.453 1.68161 -1.55738 0
M  V30 4068 C 405.466 1.56636 -0.443744 0
M  V30 4069 O 406.655 1.6363 -0.713258 0
M  V30 4070 C 403.755 3.06611 -1.4437 0
M  V30 4071 C 402.928 3.4391 -2.70268 0
M  V30 4072 C 401.987 4.61515 -2.52765 0
M  V30 4073 O 401.013 4.66197 -3.26572 0
M  V30 4074 N 402.215 5.57883 -1.6046 0
M  V30 4075 H 404.98 1.61408 -2.52522 0
M  V30 4076 H 402.541 0.7458 -1.43699 0
M  V30 4077 H 404.533 3.83117 -1.30398 0
M  V30 4078 H 403.103 3.07602 -0.556766 0
M  V30 4079 H 402.323 2.56873 -2.99015 0
M  V30 4080 H 403.611 3.65605 -3.53851 0
M  V30 4081 H 403.009 5.56855 -0.996422 0
M  V30 4082 H 401.566 6.33723 -1.52441 0
M  V30 4083 N 404.999 1.35443 0.805782 0
M  V30 4084 C 406.245 1.28952 1.56522 0
M  V30 4085 C 406.578 -0.135597 1.93726 0
M  V30 4086 O 405.853 -1.08516 1.61414 0
M  V30 4087 C 406.136 2.19678 2.85331 0
M  V30 4088 C 405.989 3.7081 2.54598 0
M  V30 4089 C 407.308 2.09495 3.8704 0
M  V30 4090 H 404.427 0.469764 0.567883 0
M  V30 4091 H 407.069 1.65851 0.927001 0
M  V30 4092 H 405.219 1.8834 3.39795 0
M  V30 4093 H 406.891 4.12593 2.06312 0
M  V30 4094 H 405.134 3.91051 1.8778 0
M  V30 4095 H 405.805 4.29679 3.46525 0
M  V30 4096 H 408.281 2.37045 3.41978 0
M  V30 4097 H 407.157 2.75173 4.74943 0
M  V30 4098 H 407.418 1.07714 4.28777 0
M  V30 4099 N 406.477 -1.02803 1.19454 0
M  V30 4100 C 407.407 -2.12999 0.956758 0
M  V30 4101 C 408.388 -1.69743 -0.110188 0
M  V30 4102 O 409.573 -1.94148 0.0450038 0
M  V30 4103 C 406.703 -3.43746 0.495553 0
M  V30 4104 C 405.657 -4.00688 1.50443 0
M  V30 4105 C 404.983 -5.27067 0.900275 0
M  V30 4106 C 406.283 -4.35397 2.8849 0
M  V30 4107 H 407.977 -2.33148 1.87836 0
M  V30 4108 H 405.523 -1.12045 0.904539 0
M  V30 4109 H 407.476 -4.2021 0.316493 0
M  V30 4110 H 406.2 -3.23321 -0.461646 0
M  V30 4111 H 404.859 -3.2632 1.67065 0
M  V30 4112 H 404.507 -5.02959 -0.064503 0
M  V30 4113 H 404.207 -5.66127 1.57397 0
M  V30 4114 H 405.731 -6.06196 0.73203 0
M  V30 4115 H 407.145 -5.02795 2.75446 0
M  V30 4116 H 405.542 -4.85541 3.52661 0
M  V30 4117 H 406.612 -3.44662 3.41081 0
M  V30 4118 N 407.956 -0.998596 -1.21925 0
M  V30 4119 C 409.181 -0.696015 -1.95372 0
M  V30 4120 C 409.606 0.733826 -1.73195 0
M  V30 4121 O 408.964 1.50242 -1.01474 0
M  V30 4122 C 409.012 -1.01466 -3.4603 0
M  V30 4123 O 408.116 -0.116415 -4.12236 0
M  V30 4124 H 407.457 -0.259938 -0.611006 0
M  V30 4125 H 409.987 -1.33711 -1.54863 0
M  V30 4126 H 409.997 -0.958855 -3.96573 0
M  V30 4127 H 408.672 -2.05653 -3.61497 0
M  V30 4128 H 407.249 -0.228193 -3.72201 0
M  V30 4129 N 409.434 1.37368 -0.772513 0
M  V30 4130 C 410.364 2.32856 -0.173304 0
M  V30 4131 C 411.345 1.55818 0.682262 0
M  V30 4132 O 412.53 1.84052 0.619566 0
M  V30 4133 C 409.66 3.40048 0.706007 0
M  V30 4134 C 408.614 4.27973 -0.0483144 0
M  V30 4135 C 407.94 5.26184 0.950491 0
M  V30 4136 C 409.24 5.07665 -1.22776 0
M  V30 4137 H 410.934 2.83217 -0.971002 0
M  V30 4138 H 408.48 1.3617 -0.468377 0
M  V30 4139 H 410.433 4.05827 1.13501 0
M  V30 4140 H 409.157 2.88214 1.53623 0
M  V30 4141 H 407.816 3.63726 -0.458107 0
M  V30 4142 H 407.464 4.7063 1.77529 0
M  V30 4143 H 407.164 5.85872 0.450314 0
M  V30 4144 H 408.688 5.94838 1.37842 0
M  V30 4145 H 410.102 5.66578 -0.875366 0
M  V30 4146 H 408.499 5.76681 -1.66007 0
M  V30 4147 H 409.569 4.40294 -2.03149 0
M  V30 4148 N 410.912 0.523116 1.48665 0
M  V30 4149 C 411.845 -0.290518 2.26343 0
M  V30 4150 C 412.823 -0.950913 1.31895 0
M  V30 4151 O 414.007 -0.976662 1.61225 0
M  V30 4152 C 411.134 -1.41088 3.07915 0
M  V30 4153 C 410.18 -0.862597 4.17686 0
M  V30 4154 S 411.013 0.264135 5.34848 0
M  V30 4155 C 412.169 -0.858864 6.19979 0
M  V30 4156 H 412.402 0.368726 2.95005 0
M  V30 4157 H 409.935 0.30878 1.51281 0
M  V30 4158 H 411.893 -2.0527 3.55492 0
M  V30 4159 H 410.554 -2.04182 2.38681 0
M  V30 4160 H 409.747 -1.70287 4.74361 0
M  V30 4161 H 409.349 -0.297595 3.72814 0
M  V30 4162 H 411.641 -1.7591 6.54264 0
M  V30 4163 H 412.584 -0.330244 7.07329 0
M  V30 4164 H 412.992 -1.13617 5.52948 0
M  V30 4165 N 412.39 -1.55475 0.257931 0
M  V30 4166 C 413.3 -2.2549 -0.647425 0
M  V30 4167 C 414.316 -1.2748 -1.18427 0
M  V30 4168 O 415.492 -1.6038 -1.2182 0
M  V30 4169 C 412.557 -2.94916 -1.82278 0
M  V30 4170 C 411.618 -4.08363 -1.32432 0
M  V30 4171 C 410.851 -4.74469 -2.44366 0
M  V30 4172 O 411.074 -4.39701 -3.63344 0
M  V30 4173 O 410.008 -5.62763 -2.13497 0
M  V30 4174 H 413.834 -3.03593 -0.0807707 0
M  V30 4175 H 411.419 -1.49377 0.0259962 0
M  V30 4176 H 413.301 -3.38606 -2.50846 0
M  V30 4177 H 411.976 -2.19744 -2.37685 0
M  V30 4178 H 410.883 -3.69166 -0.605605 0
M  V30 4179 H 412.216 -4.85385 -0.816211 0
M  V30 4180 N 413.868 0.0150385 -1.57593 0
M  V30 4181 C 415.096 0.714395 -1.94175 0
M  V30 4182 C 415.511 1.68135 -0.858841 0
M  V30 4183 O 414.868 1.81766 0.163567 0
M  V30 4184 C 414.919 1.45933 -3.30735 0
M  V30 4185 O 414.64 0.531167 -4.34868 0
M  V30 4186 C 416.141 2.25456 -3.81686 0
M  V30 4187 H 413.361 0.199923 -0.640525 0
M  V30 4188 H 415.905 -0.0316096 -2.04476 0
M  V30 4189 H 414.06 2.15709 -3.21789 0
M  V30 4190 H 414.474 1.05509 -5.13778 0
M  V30 4191 H 415.948 2.731 -4.79709 0
M  V30 4192 H 416.425 3.07485 -3.13607 0
M  V30 4193 H 417.031 1.60727 -3.9376 0
M  V30 4194 N 415.346 1.54954 0.287554 0
M  V30 4195 C 416.592 1.75132 1.02257 0
M  V30 4196 C 416.925 0.542858 1.86458 0
M  V30 4197 O 416.2 -0.459856 1.88986 0
M  V30 4198 C 416.483 3.04812 1.91733 0
M  V30 4199 C 416.336 4.35985 1.10622 0
M  V30 4200 C 417.655 3.30438 2.90687 0
M  V30 4201 H 414.774 0.637194 0.370341 0
M  V30 4202 H 417.416 1.87678 0.296111 0
M  V30 4203 H 415.566 2.94247 2.53675 0
M  V30 4204 H 417.238 4.58487 0.508636 0
M  V30 4205 H 415.481 4.31865 0.409271 0
M  V30 4206 H 416.152 5.23017 1.76513 0
M  V30 4207 H 418.628 3.40701 2.38877 0
M  V30 4208 H 417.504 4.22467 3.50447 0
M  V30 4209 H 417.765 2.49377 3.65053 0
M  V30 4210 N 416.824 -0.551391 1.4764 0
M  V30 4211 C 417.771 -1.65796 1.60563 0
M  V30 4212 C 418.741 -1.59932 0.448428 0
M  V30 4213 O 419.926 -1.78679 0.669222 0
M  V30 4214 C 417.066 -3.04108 1.63133 0
M  V30 4215 C 416.179 -3.20365 2.89811 0
M  V30 4216 C 415.314 -4.49109 2.8368 0
M  V30 4217 C 414.353 -4.58819 4.05156 0
M  V30 4218 N 413.49 -5.78926 3.97227 0
M  V30 4219 H 418.33 -1.54088 2.5507 0
M  V30 4220 H 415.867 -0.75052 1.26513 0
M  V30 4221 H 417.825 -3.84207 1.62606 0
M  V30 4222 H 416.455 -3.14637 0.721341 0
M  V30 4223 H 415.507 -2.33659 3.00179 0
M  V30 4224 H 416.819 -3.23402 3.79753 0
M  V30 4225 H 415.973 -5.37475 2.81434 0
M  V30 4226 H 414.712 -4.4856 1.91431 0
M  V30 4227 H 413.717 -3.68864 4.077 0
M  V30 4228 H 414.942 -4.61124 4.98539 0
M  V30 4229 H 412.888 -5.79314 3.07785 0
M  V30 4230 H 412.805 -5.83367 4.80853 0
M  V30 4231 H 414.073 -6.69637 3.99007 0
M  V30 4232 N 418.302 -1.35869 -0.798587 0
M  V30 4233 C 419.234 -1.25305 -1.91915 0
M  V30 4234 C 420.247 -0.174548 -1.61862 0
M  V30 4235 O 421.436 -0.428499 -1.73281 0
M  V30 4236 C 418.536 -0.9086 -3.26493 0
M  V30 4237 C 417.709 -2.08711 -3.84394 0
M  V30 4238 C 416.768 -1.71717 -4.97393 0
M  V30 4239 O 415.794 -2.43692 -5.14396 0
M  V30 4240 N 416.996 -0.645473 -5.769 0
M  V30 4241 H 419.761 -2.21849 -2.01502 0
M  V30 4242 H 417.322 -1.29143 -0.976408 0
M  V30 4243 H 419.314 -0.642455 -3.99568 0
M  V30 4244 H 417.884 -0.0325815 -3.12583 0
M  V30 4245 H 417.104 -2.51659 -3.03416 0
M  V30 4246 H 418.392 -2.87468 -4.19809 0
M  V30 4247 H 417.79 -0.047648 -5.6568 0
M  V30 4248 H 416.347 -0.43913 -6.50319 0
M  V30 4249 N 419.78 1.02168 -1.19998 0
M  V30 4250 C 421.028 1.75338 -1.00504 0
M  V30 4251 C 421.349 1.89387 0.464506 0
M  V30 4252 O 420.619 1.43268 1.33608 0
M  V30 4253 H 419.199 0.649564 -0.368885 0
M  V30 4254 H 421.861 1.23205 -1.51018 0
M  V30 4255 H 420.957 2.75892 -1.45912 0
M  V30 4256 N 421.258 1.00505 1.21394 0
M  V30 4257 C 422.504 0.688793 1.90745 0
M  V30 4258 C 422.837 -0.778486 1.77914 0
M  V30 4259 O 422.112 -1.56433 1.15581 0
M  V30 4260 C 422.395 1.11063 3.42545 0
M  V30 4261 C 422.248 2.63737 3.64367 0
M  V30 4262 C 423.567 0.673059 4.34923 0
M  V30 4263 H 420.686 0.251702 0.692687 0
M  V30 4264 H 423.328 1.25074 1.43026 0
M  V30 4265 H 421.478 0.632508 3.83317 0
M  V30 4266 H 423.15 3.19313 3.32922 0
M  V30 4267 H 421.393 3.05248 3.08231 0
M  V30 4268 H 422.064 2.88305 4.70727 0
M  V30 4269 H 424.54 1.08392 4.01734 0
M  V30 4270 H 423.416 0.996383 5.39781 0
M  V30 4271 H 423.677 -0.425808 4.40045 0
M  V30 4272 N 422.737 -1.36956 0.779787 0
M  V30 4273 C 424.014 -1.93697 0.272156 0
M  V30 4274 C 424.394 -1.71267 -1.23413 0
M  V30 4275 O 423.742 -1.06607 -2.02107 0
M  V30 4276 C 423.952 -3.42812 0.654291 0
M  V30 4277 C 425.3 -4.19921 0.628602 0
M  V30 4278 O 426.324 -3.51209 0.594172 0
M  V30 4279 O 425.183 -5.42465 0.662864 0
M  V30 4280 H 422.277 -0.824447 0.0649286 0
M  V30 4281 H 424.823 -1.46196 0.861682 0
M  V30 4282 H 423.595 -3.52754 1.69353 0
M  V30 4283 H 423.218 -3.97582 0.0381369 0
M  V30 4284 N 424.215 -0.530993 -1.48385 0
M  V30 4285 C 425.147 0.268353 -2.27624 0
M  V30 4286 C 426.16 0.903525 -1.35426 0
M  V30 4287 O 427.349 0.781796 -1.60469 0
M  V30 4288 C 424.449 1.39535 -3.08842 0
M  V30 4289 C 423.622 0.861913 -4.28824 0
M  V30 4290 C 422.681 1.87016 -4.91845 0
M  V30 4291 O 421.707 1.4267 -5.5103 0
M  V30 4292 N 422.909 3.20238 -4.84178 0
M  V30 4293 H 425.674 -0.41123 -2.96865 0
M  V30 4294 H 423.235 -0.365387 -1.57723 0
M  V30 4295 H 425.227 2.06803 -3.47871 0
M  V30 4296 H 423.797 1.97859 -2.42014 0
M  V30 4297 H 423.017 0.0132126 -3.94198 0
M  V30 4298 H 424.305 0.484415 -5.06489 0
M  V30 4299 H 423.703 3.58932 -4.37246 0
M  V30 4300 H 422.26 3.83136 -5.27305 0
M  V30 4301 N 425.693 1.55336 -0.266172 0
M  V30 4302 C 426.64 2.22172 0.625165 0
M  V30 4303 C 427.61 1.19211 1.15663 0
M  V30 4304 O 428.795 1.47723 1.20758 0
M  V30 4305 C 425.935 2.93972 1.8076 0
M  V30 4306 C 425.048 4.11632 1.31084 0
M  V30 4307 C 424.183 4.71099 2.45436 0
M  V30 4308 C 423.222 5.8097 1.92718 0
M  V30 4309 N 422.359 6.34538 3.00509 0
M  V30 4310 H 427.199 2.9796 0.0485582 0
M  V30 4311 H 424.736 1.47095 0.0122024 0
M  V30 4312 H 426.694 3.33811 2.50251 0
M  V30 4313 H 425.324 2.20623 2.35638 0
M  V30 4314 H 424.376 3.76975 0.509326 0
M  V30 4315 H 425.688 4.90893 0.884633 0
M  V30 4316 H 424.842 5.13612 3.22936 0
M  V30 4317 H 423.581 3.91096 2.91368 0
M  V30 4318 H 422.586 5.37916 1.13695 0
M  V30 4319 H 423.811 6.62836 1.47733 0
M  V30 4320 H 421.757 5.57433 3.45839 0
M  V30 4321 H 421.674 7.09046 2.62279 0
M  V30 4322 H 422.942 6.81709 3.78011 0
M  V30 4323 N 427.171 -0.0066808 1.57599 0
M  V30 4324 C 428.101 -0.999296 2.11036 0
M  V30 4325 C 429.082 -1.36278 1.01795 0
M  V30 4326 O 430.267 -1.4477 1.29442 0
M  V30 4327 C 427.397 -2.29328 2.60818 0
M  V30 4328 C 426.351 -2.07159 3.74525 0
M  V30 4329 C 425.677 -3.42512 4.10596 0
M  V30 4330 C 426.977 -1.43959 5.02069 0
M  V30 4331 H 428.671 -0.554382 2.94223 0
M  V30 4332 H 426.217 -0.265221 1.41536 0
M  V30 4333 H 428.17 -2.99117 2.96828 0
M  V30 4334 H 426.894 -2.7592 1.74745 0
M  V30 4335 H 425.553 -1.39797 3.38899 0
M  V30 4336 H 425.201 -3.86795 3.21556 0
M  V30 4337 H 424.901 -3.28498 4.87199 0
M  V30 4338 H 426.425 -4.13628 4.4916 0
M  V30 4339 H 427.839 -2.03696 5.35893 0
M  V30 4340 H 426.236 -1.40452 5.83432 0
M  V30 4341 H 427.306 -0.407992 4.83181 0
M  V30 4342 N 428.649 -1.55105 -0.279332 0
M  V30 4343 C 429.895 -1.75672 -1.01327 0
M  V30 4344 C 430.228 -0.552739 -1.86168 0
M  V30 4345 O 429.503 0.449827 -1.89227 0
M  V30 4346 C 429.786 -3.05825 -1.90114 0
M  V30 4347 C 429.639 -4.36565 -1.08309 0
M  V30 4348 C 430.958 -3.31975 -2.8893 0
M  V30 4349 H 428.077 -0.639149 -0.366957 0
M  V30 4350 H 430.719 -1.87833 -0.286154 0
M  V30 4351 H 428.869 -2.95588 -2.52111 0
M  V30 4352 H 430.541 -4.58751 -0.484314 0
M  V30 4353 H 428.784 -4.32076 -0.386362 0
M  V30 4354 H 429.455 -5.23946 -1.73737 0
M  V30 4355 H 431.931 -3.41963 -2.37067 0
M  V30 4356 H 430.807 -4.2432 -3.48201 0
M  V30 4357 H 431.068 -2.51309 -3.63725 0
M  V30 4358 N 430.127 0.543554 -1.4793 0
M  V30 4359 C 431.037 1.67657 -1.64098 0
M  V30 4360 C 432.053 1.65934 -0.523622 0
M  V30 4361 O 433.229 1.85133 -0.792943 0
M  V30 4362 C 430.294 3.04146 -1.66421 0
M  V30 4363 C 429.355 3.16831 -2.89684 0
M  V30 4364 C 428.588 4.46809 -2.91886 0
M  V30 4365 O 428.811 5.33095 -2.02895 0
M  V30 4366 O 427.745 4.63573 -3.83906 0
M  V30 4367 H 431.571 1.56957 -2.59997 0
M  V30 4368 H 429.156 0.715116 -1.31173 0
M  V30 4369 H 431.038 3.85346 -1.70548 0
M  V30 4370 H 429.713 3.152 -0.736923 0
M  V30 4371 H 428.62 2.34977 -2.91095 0
M  V30 4372 H 429.953 3.10687 -3.81752 0
M  V30 4373 N 431.605 1.3629 0.791371 0
M  V30 4374 C 432.853 1.30154 1.5461 0
M  V30 4375 C 433.174 -0.119409 1.94634 0
M  V30 4376 O 432.444 -1.05924 1.64794 0
M  V30 4377 H 431.024 0.478784 0.573389 0
M  V30 4378 H 433.686 1.70565 0.94306 0
M  V30 4379 H 432.782 1.92762 2.45457 0
M  V30 4380 N 433.083 -1.0153 1.20538 0
M  V30 4381 C 434.015 -2.10224 0.913155 0
M  V30 4382 C 435.028 -1.62495 -0.0995998 0
M  V30 4383 O 436.217 -1.78014 0.131582 0
M  V30 4384 C 433.317 -3.37111 0.347717 0
M  V30 4385 C 432.49 -4.13971 1.41233 0
M  V30 4386 C 431.549 -5.19158 0.857976 0
M  V30 4387 O 430.575 -5.48 1.53897 0
M  V30 4388 N 431.777 -5.7955 -0.331966 0
M  V30 4389 H 434.542 -2.35879 1.84881 0
M  V30 4390 H 432.103 -1.17931 1.10923 0
M  V30 4391 H 434.095 -4.04683 -0.0373026 0
M  V30 4392 H 432.665 -3.08696 -0.492527 0
M  V30 4393 H 431.885 -3.41351 1.97163 0
M  V30 4394 H 433.173 -4.62103 2.12928 0
M  V30 4395 H 432.571 -5.58455 -0.902478 0
M  V30 4396 H 431.128 -6.48464 -0.65861 0
M  V30 4397 N 434.561 -1.01147 -1.20859 0
M  V30 4398 C 435.471 -0.58686 -2.27141 0
M  V30 4399 C 436.487 0.373198 -1.69951 0
M  V30 4400 O 437.663 0.235423 -2.00019 0
M  V30 4401 C 434.728 0.0733602 -3.46622 0
M  V30 4402 C 433.789 -0.931995 -4.19061 0
M  V30 4403 C 433.022 -0.303186 -5.32838 0
M  V30 4404 O 433.245 0.898395 -5.63281 0
M  V30 4405 O 432.179 -1.01735 -5.9324 0
M  V30 4406 H 436.005 -1.47155 -2.65667 0
M  V30 4407 H 433.59 -0.780689 -1.2738 0
M  V30 4408 H 435.472 0.442333 -4.19072 0
M  V30 4409 H 434.147 0.932329 -3.09983 0
M  V30 4410 H 433.054 -1.35224 -3.48805 0
M  V30 4411 H 434.387 -1.76076 -4.59628 0
M  V30 4412 N 436.039 1.36541 -0.78704 0
M  V30 4413 C 436.986 2.30082 -0.181901 0
M  V30 4414 C 437.956 1.5186 0.672896 0
M  V30 4415 O 439.141 1.80374 0.622072 0
M  V30 4416 C 436.281 3.3835 0.679197 0
M  V30 4417 C 435.394 4.31565 -0.193882 0
M  V30 4418 C 434.529 5.26915 0.673364 0
M  V30 4419 C 433.568 6.11769 -0.201315 0
M  V30 4420 N 432.705 6.99315 0.624777 0
M  V30 4421 H 437.545 2.81248 -0.985064 0
M  V30 4422 H 435.082 1.38437 -0.497342 0
M  V30 4423 H 437.04 3.99767 1.19341 0
M  V30 4424 H 435.67 2.8851 1.44781 0
M  V30 4425 H 434.722 3.71323 -0.826044 0
M  V30 4426 H 436.034 4.91191 -0.867937 0
M  V30 4427 H 435.188 5.9361 1.25348 0
M  V30 4428 H 433.927 4.67737 1.38105 0
M  V30 4429 H 432.932 5.44039 -0.793849 0
M  V30 4430 H 434.157 6.73022 -0.906568 0
M  V30 4431 H 432.103 6.42648 1.3168 0
M  V30 4432 H 432.02 7.56 0.00835237 0
M  V30 4433 H 433.288 7.70382 1.18879 0
M  V30 4434 N 437.518 0.538854 1.48102 0
M  V30 4435 C 438.448 -0.207654 2.32575 0
M  V30 4436 C 439.429 -0.926559 1.4265 0
M  V30 4437 O 440.614 -0.91061 1.71527 0
M  V30 4438 C 437.744 -1.24957 3.24042 0
M  V30 4439 C 436.698 -0.648263 4.23062 0
M  V30 4440 C 436.024 -1.79348 5.03725 0
M  V30 4441 C 437.324 0.385897 5.20872 0
M  V30 4442 H 439.018 0.497534 2.95237 0
M  V30 4443 H 436.564 0.240715 1.41974 0
M  V30 4444 H 438.517 -1.77983 3.81969 0
M  V30 4445 H 437.241 -1.98446 2.59397 0
M  V30 4446 H 435.9 -0.139452 3.66335 0
M  V30 4447 H 435.548 -2.51696 4.35498 0
M  V30 4448 H 435.248 -1.39702 5.70751 0
M  V30 4449 H 436.772 -2.32735 5.64506 0
M  V30 4450 H 438.186 -0.057607 5.73271 0
M  V30 4451 H 436.583 0.700227 5.96001 0
M  V30 4452 H 437.653 1.28848 4.67468 0
M  V30 4453 N 438.996 -1.55193 0.274407 0
M  V30 4454 C 439.946 -2.19184 -0.627882 0
M  V30 4455 C 440.93 -1.15625 -1.11892 0
M  V30 4456 O 442.122 -1.41441 -1.06411 0
M  V30 4457 C 439.251 -2.91591 -1.81189 0
M  V30 4458 C 438.337 -4.02438 -1.33807 0
M  V30 4459 N 438.728 -5.0246 -0.580349 0
M  V30 4460 C 437.026 -4.15496 -1.62109 0
M  V30 4461 C 437.727 -5.80756 -0.331344 0
M  V30 4462 N 436.703 -5.36038 -0.903556 0
M  V30 4463 H 440.505 -2.93871 -0.0411216 0
M  V30 4464 H 438.019 -1.62213 0.0779348 0
M  V30 4465 H 440.016 -3.35883 -2.46957 0
M  V30 4466 H 438.676 -2.18414 -2.40261 0
M  V30 4467 H 439.687 -5.17399 -0.227762 0
M  V30 4468 H 436.364 -3.53509 -2.22121 0
M  V30 4469 H 437.754 -6.71335 0.275454 0
M  V30 4470 N 440.474 -0.00167713 -1.576 0
M  V30 4471 C 441.406 1.0174 -2.05382 0
M  V30 4472 C 442.419 1.30595 -0.972052 0
M  V30 4473 O 443.608 1.27542 -1.24882 0
M  V30 4474 C 440.708 2.35174 -2.44022 0
M  V30 4475 C 439.881 2.25234 -3.74951 0
M  V30 4476 C 438.94 3.4137 -4.00441 0
M  V30 4477 O 437.966 3.19483 -4.71083 0
M  V30 4478 N 439.168 4.64275 -3.48467 0
M  V30 4479 H 441.933 0.609902 -2.93428 0
M  V30 4480 H 439.494 0.185672 -1.60832 0
M  V30 4481 H 441.486 3.11643 -2.58187 0
M  V30 4482 H 440.056 2.67659 -1.61485 0
M  V30 4483 H 439.276 1.33664 -3.70847 0
M  V30 4484 H 440.564 2.15767 -4.60784 0
M  V30 4485 H 439.962 4.84955 -2.91264 0
M  V30 4486 H 438.519 5.38005 -3.67959 0
M  V30 4487 N 441.952 1.55251 0.271103 0
M  V30 4488 C 442.885 1.83191 1.36075 0
M  V30 4489 C 443.863 0.685091 1.47463 0
M  V30 4490 O 445.047 0.928292 1.64058 0
M  V30 4491 C 442.174 1.99521 2.73696 0
M  V30 4492 C 441.22 3.22081 2.79582 0
M  V30 4493 S 442.053 4.79388 2.38636 0
M  V30 4494 C 443.209 4.98693 3.78228 0
M  V30 4495 H 443.442 2.75327 1.12171 0
M  V30 4496 H 440.975 1.47046 0.470833 0
M  V30 4497 H 442.933 2.09613 3.52948 0
M  V30 4498 H 441.594 1.0827 2.9485 0
M  V30 4499 H 440.787 3.304 3.80594 0
M  V30 4500 H 440.389 3.10589 2.08352 0
M  V30 4501 H 442.681 4.84551 4.73515 0
M  V30 4502 H 443.624 6.00738 3.7486 0
M  V30 4503 H 444.032 4.26665 3.69618 0
M  V30 4504 N 443.43 -0.535701 1.48216 0
M  V30 4505 C 444.676 -1.2913 1.57153 0
M  V30 4506 C 445.031 -1.90899 0.239823 0
M  V30 4507 O 444.324 -1.76022 -0.756748 0
M  V30 4508 C 444.518 -2.4068 2.64212 0
M  V30 4509 C 444.347 -1.89844 4.07663 0
M  V30 4510 C 443.117 -1.72708 4.74869 0
M  V30 4511 C 445.315 -1.43031 4.94011 0
M  V30 4512 N 443.297 -1.16437 6.02757 0
M  V30 4513 C 444.668 -0.986691 6.12098 0
M  V30 4514 C 446.723 -1.3128 4.80281 0
M  V30 4515 C 445.426 -0.437231 7.1797 0
M  V30 4516 C 447.452 -0.777346 5.86269 0
M  V30 4517 C 446.814 -0.343774 7.03561 0
M  V30 4518 H 442.913 -0.463753 0.629648 0
M  V30 4519 H 445.497 -0.604736 1.8507 0
M  V30 4520 H 443.668 -3.06839 2.38126 0
M  V30 4521 H 445.4 -3.07706 2.62867 0
M  V30 4522 H 442.155 -1.96061 4.31111 0
M  V30 4523 H 442.579 -0.903281 6.70947 0
M  V30 4524 H 447.221 -1.63408 3.89946 0
M  V30 4525 H 444.939 -0.103621 8.08034 0
M  V30 4526 H 448.525 -0.689688 5.77698 0
M  V30 4527 H 447.405 0.0641219 7.84174 0
M  V30 4528 N 444.908 -1.36708 -0.784132 0
M  V30 4529 C 445.838 -1.34153 -1.91116 0
M  V30 4530 C 446.819 -0.212121 -1.68772 0
M  V30 4531 O 448.004 -0.410581 -1.8981 0
M  V30 4532 C 445.134 -1.13535 -3.28218 0
M  V30 4533 C 444.088 -2.23356 -3.65097 0
M  V30 4534 C 443.414 -1.87875 -5.00607 0
M  V30 4535 C 444.714 -3.65473 -3.73131 0
M  V30 4536 H 446.408 -2.28459 -1.93512 0
M  V30 4537 H 443.954 -1.09973 -0.929618 0
M  V30 4538 H 445.907 -1.10381 -4.06687 0
M  V30 4539 H 444.631 -0.156804 -3.26223 0
M  V30 4540 H 443.29 -2.25645 -2.88929 0
M  V30 4541 H 442.938 -0.885814 -4.95139 0
M  V30 4542 H 442.638 -2.61406 -5.26252 0
M  V30 4543 H 444.162 -1.86286 -5.81489 0
M  V30 4544 H 445.576 -3.65382 -4.41779 0
M  V30 4545 H 443.973 -4.37953 -4.10265 0
M  V30 4546 H 445.043 -3.99995 -2.74102 0
M  V30 4547 N 446.386 1.0089 -1.21074 0
M  V30 4548 C 447.611 1.78727 -1.05221 0
M  V30 4549 C 448.036 1.83932 0.393795 0
M  V30 4550 O 447.394 1.28004 1.28393 0
M  V30 4551 C 447.442 3.20665 -1.64944 0
M  V30 4552 O 446.546 4.02632 -0.892273 0
M  V30 4553 H 445.887 0.550973 -0.370574 0
M  V30 4554 H 448.417 1.26847 -1.60534 0
M  V30 4555 H 448.427 3.71352 -1.69002 0
M  V30 4556 H 447.102 3.16191 -2.70177 0
M  V30 4557 H 445.679 3.61207 -0.926492 0
M  V30 4558 N 447.864 1.01787 1.20321 0
M  V30 4559 C 449.11 0.718699 1.90279 0
M  V30 4560 C 449.465 -0.743669 1.77447 0
M  V30 4561 O 448.758 -1.53345 1.14874 0
M  V30 4562 C 448.952 1.09076 3.40349 0
M  V30 4563 C 448.781 2.58775 3.67784 0
M  V30 4564 C 447.551 3.25578 3.86428 0
M  V30 4565 C 449.749 3.56966 3.70243 0
M  V30 4566 N 447.731 4.64495 4.01395 0
M  V30 4567 C 449.102 4.8145 3.90649 0
M  V30 4568 C 451.157 3.5092 3.53213 0
M  V30 4569 C 449.86 6.00619 3.95789 0
M  V30 4570 C 451.886 4.69493 3.59625 0
M  V30 4571 C 451.248 5.92786 3.80505 0
M  V30 4572 H 447.347 0.31468 0.715891 0
M  V30 4573 H 449.931 1.30295 1.44677 0
M  V30 4574 H 448.102 0.534839 3.847 0
M  V30 4575 H 449.834 0.744997 3.97784 0
M  V30 4576 H 446.589 2.76003 3.84862 0
M  V30 4577 H 447.013 5.36624 4.12752 0
M  V30 4578 H 451.655 2.56593 3.36035 0
M  V30 4579 H 449.373 6.95326 4.11762 0
M  V30 4580 H 452.959 4.66432 3.47754 0
M  V30 4581 H 451.839 6.83003 3.85327 0
M  V30 4582 N 449.342 -1.36122 0.79427 0
M  V30 4583 C 450.29 -2.31871 0.184023 0
M  V30 4584 C 451.284 -1.56041 -0.659365 0
M  V30 4585 O 452.49 -1.71266 -0.553906 0
M  V30 4586 H 448.865 -0.750896 0.0407373 0
M  V30 4587 H 450.836 -2.80898 1.00693 0
M  V30 4588 C 449.585 -3.41324 -0.662813 0
M  V30 4589 H 448.908 -3.99793 -0.0231944 0
M  V30 4590 H 450.348 -4.10629 -1.05639 0
M  V30 4591 C 448.807 -2.83308 -1.82313 0
M  V30 4592 O 449.337 -2.75863 -2.91997 0
M  V30 4593 N 447.543 -2.40529 -1.63077 0
M  V30 4594 H 447.09 -2.46785 -0.738591 0
M  V30 4595 H 447.048 -2.02059 -2.40872 0
M  V30 4596 N 450.82 -0.546701 -1.47814 0
M  V30 4597 C 451.752 0.244196 -2.27895 0
M  V30 4598 C 452.765 0.88911 -1.36377 0
M  V30 4599 O 453.954 0.764733 -1.61289 0
M  V30 4600 C 451.054 1.36252 -3.10304 0
M  V30 4601 C 450.227 0.816382 -4.29714 0
M  V30 4602 C 449.286 1.81789 -4.93801 0
M  V30 4603 O 448.312 1.36818 -5.52512 0
M  V30 4604 N 449.514 3.15085 -4.87547 0
M  V30 4605 H 452.279 -0.442694 -2.96412 0
M  V30 4606 H 449.84 -0.382095 -1.57327 0
M  V30 4607 H 451.832 2.03102 -3.50045 0
M  V30 4608 H 450.402 1.95281 -2.44099 0
M  V30 4609 H 449.622 -0.0285981 -3.9419 0
M  V30 4610 H 450.91 0.430668 -5.06974 0
M  V30 4611 H 450.308 3.54275 -4.41028 0
M  V30 4612 H 448.865 3.77522 -5.31339 0
M  V30 4613 N 452.299 1.55045 -0.282633 0
M  V30 4614 C 453.246 2.22822 0.601566 0
M  V30 4615 C 454.216 1.20431 1.14392 0
M  V30 4616 O 455.401 1.48996 1.19184 0
M  V30 4617 C 452.541 2.95873 1.77632 0
M  V30 4618 C 451.654 4.12999 1.26711 0
M  V30 4619 C 450.789 4.73676 2.40426 0
M  V30 4620 C 449.828 5.82981 1.86545 0
M  V30 4621 N 448.965 6.3769 2.93762 0
M  V30 4622 H 453.805 2.97995 0.0169528 0
M  V30 4623 H 451.342 1.471 -0.00339964 0
M  V30 4624 H 453.3 3.36447 2.46697 0
M  V30 4625 H 451.93 2.2311 2.33285 0
M  V30 4626 H 450.982 3.77494 0.469314 0
M  V30 4627 H 452.294 4.91803 0.832518 0
M  V30 4628 H 451.448 5.17008 3.17471 0
M  V30 4629 H 450.187 3.94164 2.87203 0
M  V30 4630 H 449.192 5.39092 1.07983 0
M  V30 4631 H 450.417 6.64366 1.40694 0
M  V30 4632 H 448.363 5.61069 3.39908 0
M  V30 4633 H 448.28 7.11788 2.54744 0
M  V30 4634 H 449.548 6.8568 3.7076 0
M  V30 4635 N 453.777 0.010035 1.57597 0
M  V30 4636 C 454.709 -1.00649 2.05918 0
M  V30 4637 C 455.722 -1.30077 0.978964 0
M  V30 4638 O 456.911 -1.26878 1.25556 0
M  V30 4639 C 454.011 -2.33876 2.45265 0
M  V30 4640 C 453.184 -2.23242 3.7614 0
M  V30 4641 C 452.243 -3.39242 4.02245 0
M  V30 4642 O 451.269 -3.1698 4.72771 0
M  V30 4643 N 452.471 -4.6242 3.50924 0
M  V30 4644 H 455.236 -0.594333 2.93748 0
M  V30 4645 H 452.797 -0.17714 1.60928 0
M  V30 4646 H 454.789 -3.1027 2.59836 0
M  V30 4647 H 453.359 -2.66799 1.62902 0
M  V30 4648 H 452.579 -1.31696 3.71551 0
M  V30 4649 H 453.867 -2.13321 4.61922 0
M  V30 4650 H 453.265 -4.83404 2.93832 0
M  V30 4651 H 451.822 -5.36046 3.70807 0
M  V30 4652 N 455.255 -1.55392 -0.262866 0
M  V30 4653 C 456.185 -1.91978 -1.32917 0
M  V30 4654 C 457.166 -0.7828 -1.51017 0
M  V30 4655 O 458.351 -1.04178 -1.63892 0
M  V30 4656 C 455.481 -2.20055 -2.68687 0
M  V30 4657 C 454.435 -3.35854 -2.65304 0
M  V30 4658 C 453.761 -3.49435 -4.04721 0
M  V30 4659 C 455.061 -4.71977 -2.23685 0
M  V30 4660 H 456.755 -2.81292 -1.02544 0
M  V30 4661 H 454.301 -1.3534 -0.491846 0
M  V30 4662 H 456.254 -2.44237 -3.43404 0
M  V30 4663 H 454.978 -1.27551 -3.00663 0
M  V30 4664 H 453.637 -3.11655 -1.93045 0
M  V30 4665 H 453.285 -2.54379 -4.33936 0
M  V30 4666 H 452.985 -4.27297 -4.0335 0
M  V30 4667 H 454.509 -3.7592 -4.81161 0
M  V30 4668 H 455.923 -4.95637 -2.88127 0
M  V30 4669 H 454.32 -5.52828 -2.33456 0
M  V30 4670 H 455.39 -4.70115 -1.18827 0
M  V30 4671 N 456.733 0.527833 -1.48498 0
M  V30 4672 C 457.665 1.6482 -1.5927 0
M  V30 4673 C 458.678 1.55659 -0.476869 0
M  V30 4674 O 459.867 1.62081 -0.747806 0
M  V30 4675 C 456.967 3.0348 -1.50842 0
M  V30 4676 C 456.14 3.381 -2.77502 0
M  V30 4677 C 455.199 4.5605 -2.62497 0
M  V30 4678 O 454.225 4.59165 -3.36387 0
M  V30 4679 N 455.427 5.54353 -1.72257 0
M  V30 4680 H 458.192 1.56015 -2.55889 0
M  V30 4681 H 455.753 0.715152 -1.45249 0
M  V30 4682 H 457.745 3.80264 -1.38496 0
M  V30 4683 H 456.315 3.06352 -0.621887 0
M  V30 4684 H 455.535 2.50473 -3.04396 0
M  V30 4685 H 456.823 3.58017 -3.61527 0
M  V30 4686 H 456.221 5.54617 -1.11431 0
M  V30 4687 H 454.778 6.30347 -1.65849 0
M  V30 4688 N 458.211 1.37122 0.776871 0
M  V30 4689 C 459.459 1.31787 1.53221 0
M  V30 4690 C 459.78 -0.0987589 1.9475 0
M  V30 4691 O 459.05 -1.0417 1.65908 0
M  V30 4692 H 457.63 0.484839 0.568278 0
M  V30 4693 H 460.292 1.71556 0.924917 0
M  V30 4694 H 459.388 1.95355 2.43398 0
M  V30 4695 N 459.689 -1.00246 1.21608 0
M  V30 4696 C 461.1 -1.55511 1.03312 0
M  V30 4697 C 461.451 -1.91946 -0.406332 0
M  V30 4698 O 460.576 -1.73753 -1.28992 0
M  V30 4699 C 461.171 -2.82576 1.86913 0
M  V30 4700 C 459.73 -3.34318 1.72941 0
M  V30 4701 C 458.877 -2.07487 1.83968 0
M  V30 4702 H 461.828 -0.824638 1.35593 0
M  V30 4703 H 461.849 -3.54559 1.38087 0
M  V30 4704 H 461.361 -2.56026 2.91672 0
M  V30 4705 H 459.462 -3.65797 0.70877 0
M  V30 4706 H 459.575 -4.05566 2.55055 0
M  V30 4707 H 457.939 -2.20603 1.27304 0
M  V30 4708 H 458.722 -1.83346 2.9024 0
M  V30 4709 N 461.167 -1.02423 -1.1978 0
M  V30 4710 C 462.077 -0.610919 -2.26506 0
M  V30 4711 C 463.093 0.355152 -1.70337 0
M  V30 4712 O 464.269 0.214195 -2.00258 0
M  V30 4713 C 461.334 0.0365921 -3.46681 0
M  V30 4714 C 460.395 -0.976389 -4.18049 0
M  V30 4715 C 459.628 -0.359683 -5.32487 0
M  V30 4716 O 459.851 0.838601 -5.64202 0
M  V30 4717 O 458.785 -1.08022 -5.92127 0
M  V30 4718 H 462.611 -1.49965 -2.64091 0
M  V30 4719 H 460.196 -0.794156 -1.26545 0
M  V30 4720 H 462.078 0.39786 -4.19518 0
M  V30 4721 H 460.753 0.899398 -3.10954 0
M  V30 4722 H 459.66 -1.38916 -3.47352 0
M  V30 4723 H 460.993 -1.80941 -4.57735 0
M  V30 4724 N 462.645 1.35699 -0.801477 0
M  V30 4725 C 463.592 2.29876 -0.206294 0
M  V30 4726 C 464.562 1.52565 0.656752 0
M  V30 4727 O 465.747 1.81024 0.602906 0
M  V30 4728 C 462.887 3.39052 0.643272 0
M  V30 4729 C 462 4.31335 -0.239644 0
M  V30 4730 C 461.135 5.27599 0.61744 0
M  V30 4731 C 460.174 6.11521 -0.26619 0
M  V30 4732 N 459.311 6.99938 0.550571 0
M  V30 4733 H 464.151 2.80187 -1.01484 0
M  V30 4734 H 461.688 1.37902 -0.511997 0
M  V30 4735 H 463.646 4.0101 1.15094 0
M  V30 4736 H 462.276 2.9003 1.41713 0
M  V30 4737 H 461.328 3.70426 -0.865381 0
M  V30 4738 H 462.64 4.90243 -0.919985 0
M  V30 4739 H 461.794 5.94906 1.19045 0
M  V30 4740 H 460.533 4.69176 1.33137 0
M  V30 4741 H 459.538 5.43166 -0.851507 0
M  V30 4742 H 460.763 6.72022 -0.9779 0
M  V30 4743 H 458.709 6.44008 1.24856 0
M  V30 4744 H 458.626 7.55966 -0.071832 0
M  V30 4745 H 459.894 7.71599 1.10702 0
M  V30 4746 N 464.123 0.554532 1.47522 0
M  V30 4747 C 465.033 -0.197865 2.33764 0
M  V30 4748 C 466.049 -0.914576 1.48025 0
M  V30 4749 O 467.225 -0.884067 1.80959 0
M  V30 4750 C 464.29 -1.21628 3.24665 0
M  V30 4751 C 463.351 -0.507283 4.26292 0
M  V30 4752 C 462.584 -1.47718 5.1285 0
M  V30 4753 O 462.807 -2.7118 5.01814 0
M  V30 4754 O 461.741 -1.00313 5.93482 0
M  V30 4755 H 465.567 0.50949 2.99396 0
M  V30 4756 H 463.152 0.315176 1.46038 0
M  V30 4757 H 465.034 -1.80421 3.80823 0
M  V30 4758 H 463.709 -1.9056 2.61665 0
M  V30 4759 H 462.616 0.121778 3.73902 0
M  V30 4760 H 463.949 0.140544 4.91999 0
M  V30 4761 N 465.601 -1.54893 0.290851 0
M  V30 4762 C 467.012 -1.85584 -0.203816 0
M  V30 4763 C 467.363 -1.21285 -1.54222 0
M  V30 4764 O 466.488 -0.506841 -2.10381 0
M  V30 4765 C 467.083 -3.367 -0.376595 0
M  V30 4766 C 465.642 -3.6746 -0.815485 0
M  V30 4767 C 464.789 -2.77178 0.0821087 0
M  V30 4768 H 467.74 -1.50208 0.512175 0
M  V30 4769 H 467.761 -3.60656 -1.21275 0
M  V30 4770 H 467.273 -3.8347 0.59767 0
M  V30 4771 H 465.374 -3.26201 -1.80066 0
M  V30 4772 H 465.487 -4.7478 -0.641905 0
M  V30 4773 H 463.851 -2.50925 -0.436895 0
M  V30 4774 H 464.634 -3.26767 1.05254 0
M  V30 4775 N 467.08 -0.0183926 -1.57589 0
M  V30 4776 C 468.491 0.521927 -1.79256 0
M  V30 4777 C 468.842 1.72885 -0.927636 0
M  V30 4778 O 467.967 2.15978 -0.135091 0
M  V30 4779 C 468.562 0.953632 -3.25102 0
M  V30 4780 C 467.121 1.43913 -3.47801 0
M  V30 4781 C 466.268 0.398837 -2.74417 0
M  V30 4782 H 469.219 -0.244485 -1.56805 0
M  V30 4783 H 469.24 1.81863 -3.34224 0
M  V30 4784 H 468.752 0.0750123 -3.88028 0
M  V30 4785 H 466.853 2.33804 -2.90115 0
M  V30 4786 H 466.966 1.45391 -4.56507 0
M  V30 4787 H 465.33 0.864572 -2.39577 0
M  V30 4788 H 466.113 -0.471132 -3.40052 0
M  V30 4789 N 468.558 1.5553 0.254621 0
M  V30 4790 C 469.505 1.89666 1.31512 0
M  V30 4791 C 470.475 0.750057 1.482 0
M  V30 4792 O 471.66 1.00301 1.62309 0
M  V30 4793 C 468.8 2.19009 2.667 0
M  V30 4794 C 467.913 3.46435 2.58083 0
M  V30 4795 C 467.048 3.65386 3.85573 0
M  V30 4796 C 466.087 4.8644 3.71541 0
M  V30 4797 N 465.224 5.01952 4.90906 0
M  V30 4798 H 470.064 2.80109 1.017 0
M  V30 4799 H 467.601 1.38666 0.490938 0
M  V30 4800 H 469.559 2.34025 3.45381 0
M  V30 4801 H 468.189 1.31779 2.94676 0
M  V30 4802 H 467.241 3.39792 1.71013 0
M  V30 4803 H 468.553 4.35258 2.43622 0
M  V30 4804 H 467.707 3.80319 4.72697 0
M  V30 4805 H 466.446 2.74781 4.02922 0
M  V30 4806 H 465.451 4.71491 2.82801 0
M  V30 4807 H 466.676 5.78497 3.55694 0
M  V30 4808 H 464.622 4.14283 5.08631 0
M  V30 4809 H 464.539 5.84851 4.79046 0
M  V30 4810 H 465.807 5.21289 5.7955 0
M  V30 4811 N 470.036 -0.519951 1.48776 0
M  V30 4812 C 471.447 -1.10177 1.50725 0
M  V30 4813 C 471.798 -1.94153 0.282678 0
M  V30 4814 O 470.923 -2.07645 -0.609298 0
M  V30 4815 C 471.518 -2.00482 2.73116 0
M  V30 4816 C 470.077 -2.53862 2.77905 0
M  V30 4817 C 469.224 -1.31047 2.44381 0
M  V30 4818 H 472.175 -0.30473 1.55747 0
M  V30 4819 H 472.196 -2.8491 2.52203 0
M  V30 4820 H 471.708 -1.39335 3.62225 0
M  V30 4821 H 469.809 -3.18702 1.93029 0
M  V30 4822 H 469.922 -2.9231 3.79594 0
M  V30 4823 H 468.286 -1.62953 1.95751 0
M  V30 4824 H 469.069 -0.71637 3.35743 0
M  V30 4825 N 471.514 -1.37532 -0.769588 0
M  V30 4826 C 472.424 -1.35668 -1.91393 0
M  V30 4827 C 473.44 -0.255954 -1.72107 0
M  V30 4828 O 474.616 -0.491704 -1.95305 0
M  V30 4829 C 471.681 -1.16481 -3.26547 0
M  V30 4830 C 470.742 -2.36212 -3.58472 0
M  V30 4831 C 469.975 -2.17932 -4.87177 0
M  V30 4832 O 470.198 -1.1647 -5.58382 0
M  V30 4833 O 469.132 -3.06167 -5.18214 0
M  V30 4834 H 472.958 -2.32055 -1.95918 0
M  V30 4835 H 470.543 -1.18284 -0.912641 0
M  V30 4836 H 472.425 -1.07778 -4.07384 0
M  V30 4837 H 471.1 -0.231687 -3.2287 0
M  V30 4838 H 470.007 -2.50488 -2.77861 0
M  V30 4839 H 471.34 -3.281 -3.66894 0
M  V30 4840 N 472.992 0.995999 -1.22138 0
M  V30 4841 C 473.924 2.08745 -0.946485 0
M  V30 4842 C 474.937 1.62633 0.0737356 0
M  V30 4843 O 476.126 1.77782 -0.159886 0
M  V30 4844 C 473.226 3.36516 -0.401305 0
M  V30 4845 C 472.399 4.11672 -1.47801 0
M  V30 4846 C 471.458 5.17728 -0.940461 0
M  V30 4847 O 470.484 5.45482 -1.62596 0
M  V30 4848 N 471.686 5.80005 0.239723 0
M  V30 4849 H 474.451 2.32908 -1.88611 0
M  V30 4850 H 472.012 1.16152 -1.12785 0
M  V30 4851 H 474.004 4.04691 -0.0270837 0
M  V30 4852 H 472.574 3.0944 0.443354 0
M  V30 4853 H 471.794 3.38171 -2.02568 0
M  V30 4854 H 473.082 4.58657 -2.20253 0
M  V30 4855 H 472.48 5.5982 0.813518 0
M  V30 4856 H 471.037 6.4943 0.555361 0
M  V30 4857 N 474.47 1.03057 1.19235 0
M  V30 4858 C 475.716 0.729098 1.89241 0
M  V30 4859 C 476.049 -0.740573 1.79525 0
M  V30 4860 O 475.324 -1.53946 1.18874 0
M  V30 4861 C 475.607 1.18304 3.40112 0
M  V30 4862 C 475.46 2.71406 3.5869 0
M  V30 4863 C 476.779 0.765161 4.33397 0
M  V30 4864 H 473.898 0.266338 0.687192 0
M  V30 4865 H 476.54 1.28079 1.40341 0
M  V30 4866 H 474.69 0.713672 3.81889 0
M  V30 4867 H 476.362 3.26303 3.26074 0
M  V30 4868 H 474.605 3.11717 3.01687 0
M  V30 4869 H 475.276 2.98225 4.64506 0
M  V30 4870 H 477.752 1.16889 3.99345 0
M  V30 4871 H 476.628 1.11065 5.37546 0
M  V30 4872 H 476.889 -0.332372 4.40849 0
M  V30 4873 N 475.948 -1.35272 0.808662 0
M  V30 4874 C 476.858 -2.33546 0.222079 0
M  V30 4875 C 477.874 -1.6196 -0.636011 0
M  V30 4876 O 479.05 -1.93822 -0.547274 0
M  V30 4877 C 476.115 -3.41148 -0.61795 0
M  V30 4878 C 475.176 -4.28507 0.260875 0
M  V30 4879 C 474.409 -5.3097 -0.539156 0
M  V30 4880 O 474.632 -5.42123 -1.77367 0
M  V30 4881 O 473.566 -6.01858 0.0710526 0
M  V30 4882 H 477.392 -2.85515 1.03512 0
M  V30 4883 H 474.977 -1.38079 0.570495 0
M  V30 4884 H 476.859 -4.06889 -1.09634 0
M  V30 4885 H 475.534 -2.91447 -1.40855 0
M  V30 4886 H 474.441 -3.6574 0.786451 0
M  V30 4887 H 475.774 -4.81611 1.01547 0
M  V30 4888 N 477.426 -0.562348 -1.47226 0
M  V30 4889 C 478.651 -0.0432632 -2.07355 0
M  V30 4890 C 479.076 1.24332 -1.41149 0
M  V30 4891 O 478.434 1.74603 -0.488226 0
M  V30 4892 C 478.482 0.130288 -3.60365 0
M  V30 4893 O 477.586 1.19166 -3.94808 0
M  V30 4894 H 476.927 -0.0536334 -0.66183 0
M  V30 4895 H 479.457 -0.779495 -1.89169 0
M  V30 4896 H 479.467 0.342881 -4.06557 0
M  V30 4897 H 478.142 -0.809389 -4.07948 0
M  V30 4898 H 476.719 0.959153 -3.60354 0
M  V30 4899 N 478.904 1.54736 -0.299062 0
M  V30 4900 C 480.32 1.59507 0.0543849 0
M  V30 4901 C 480.52 1.31606 1.52585 0
M  V30 4902 O 479.576 1.08853 2.27832 0
M  V30 4903 C 480.889 2.98751 -0.34181 0
M  V30 4904 C 482.437 3.1165 -0.290414 0
M  V30 4905 C 482.912 4.53199 -0.661402 0
M  V30 4906 N 484.403 4.59114 -0.613863 0
M  V30 4907 C 485.138 5.66709 -0.873417 0
M  V30 4908 N 484.634 6.82349 -1.19884 0
M  V30 4909 N 486.427 5.56369 -0.800608 0
M  V30 4910 H 478.578 1.71133 -1.25806 0
M  V30 4911 H 480.841 0.799186 -0.509908 0
M  V30 4912 H 480.547 3.24085 -1.36608 0
M  V30 4913 H 480.421 3.75961 0.305508 0
M  V30 4914 H 482.808 2.86066 0.724605 0
M  V30 4915 H 482.889 2.366 -0.972327 0
M  V30 4916 H 482.533 4.79513 -1.67422 0
M  V30 4917 H 482.463 5.26583 0.0425612 0
M  V30 4918 H 484.954 3.76053 -0.3732 0
M  V30 4919 H 485.267 7.60326 -1.38291 0
M  V30 4920 H 483.612 6.83906 -1.23685 0
M  V30 4921 H 486.803 4.64904 -0.546045 0
M  V30 4922 H 486.976 6.40139 -1.00626 0
M  V30 4923 N 480.382 0.0267497 1.57577 0
M  V30 4924 C 481.345 -0.940916 2.08996 0
M  V30 4925 C 482.345 -1.25561 1.00455 0
M  V30 4926 O 483.535 -1.19634 1.26623 0
M  V30 4927 C 480.667 -2.25814 2.55384 0
M  V30 4928 H 481.86 -0.495628 2.95776 0
M  V30 4929 H 479.413 -0.221241 1.54726 0
M  V30 4930 H 480.148 -2.74976 1.71926 0
M  V30 4931 H 479.933 -2.04285 3.34679 0
M  V30 4932 H 481.423 -2.95178 2.95398 0
M  V30 4933 N 481.861 -1.55662 -0.24637 0
M  V30 4934 C 482.791 -1.93377 -1.30873 0
M  V30 4935 C 483.772 -0.798773 -1.50179 0
M  V30 4936 O 484.957 -1.0591 -1.62778 0
M  V30 4937 C 482.087 -2.22893 -2.66338 0
M  V30 4938 C 481.041 -3.38649 -2.61727 0
M  V30 4939 C 480.367 -3.53708 -4.00992 0
M  V30 4940 C 481.667 -4.74323 -2.18666 0
M  V30 4941 H 483.361 -2.82363 -0.995552 0
M  V30 4942 H 480.907 -1.35854 -0.477464 0
M  V30 4943 H 482.86 -2.47866 -3.40794 0
M  V30 4944 H 481.584 -1.30733 -2.99293 0
M  V30 4945 H 480.243 -3.13685 -1.89729 0
M  V30 4946 H 479.891 -2.58967 -4.31214 0
M  V30 4947 H 479.591 -4.31551 -3.98795 0
M  V30 4948 H 481.115 -3.81003 -4.77147 0
M  V30 4949 H 482.529 -4.98665 -2.82854 0
M  V30 4950 H 480.926 -5.55273 -2.27579 0
M  V30 4951 H 481.996 -4.71349 -1.13834 0
M  V30 4952 N 483.339 0.512053 -1.4905 0
M  V30 4953 C 484.567 1.29116 -1.61669 0
M  V30 4954 C 484.982 1.86655 -0.283787 0
M  V30 4955 O 484.339 1.67293 0.729331 0
M  V30 4956 C 484.39 2.4293 -2.67707 0
M  V30 4957 O 484.111 1.87758 -3.95826 0
M  V30 4958 C 485.612 3.34476 -2.90931 0
M  V30 4959 H 482.832 0.392009 -0.544583 0
M  V30 4960 H 485.376 0.615881 -1.95006 0
M  V30 4961 H 483.531 3.06308 -2.37179 0
M  V30 4962 H 483.945 2.62393 -4.54148 0
M  V30 4963 H 485.419 4.10642 -3.68886 0
M  V30 4964 H 485.896 3.90801 -2.00427 0
M  V30 4965 H 486.502 2.76874 -3.22832 0
M  V30 4966 N 484.817 1.37938 0.762283 0
M  V30 4967 C 485.75 1.2884 1.88349 0
M  V30 4968 C 486.728 0.167084 1.61739 0
M  V30 4969 O 487.912 0.34292 1.85355 0
M  V30 4970 C 485.039 0.994257 3.23778 0
M  V30 4971 C 484.085 2.13376 3.69287 0
M  V30 4972 S 484.918 3.75439 3.81845 0
M  V30 4973 C 486.074 3.48195 5.20107 0
M  V30 4974 H 486.307 2.23736 1.95779 0
M  V30 4975 H 483.84 1.23672 0.924368 0
M  V30 4976 H 485.798 0.83138 4.01993 0
M  V30 4977 H 484.459 0.0626251 3.14038 0
M  V30 4978 H 483.652 1.88319 4.67495 0
M  V30 4979 H 483.254 2.25726 2.98201 0
M  V30 4980 H 485.546 3.0377 6.05583 0
M  V30 4981 H 486.489 4.45765 5.50181 0
M  V30 4982 H 486.897 2.82905 4.88493 0
M  V30 4983 N 486.295 -0.989507 1.22664 0
M  V30 4984 C 487.542 -1.72953 1.05325 0
M  V30 4985 C 487.87 -1.90104 -0.411168 0
M  V30 4986 O 487.125 -1.44386 -1.32103 0
M  V30 4987 C 487.424 -3.13649 1.71345 0
M  V30 4988 C 487.09 -3.16403 3.21248 0
M  V30 4989 C 485.752 -3.16862 3.62149 0
M  V30 4990 C 488.104 -3.12428 4.17179 0
M  V30 4991 C 485.432 -3.11051 4.97458 0
M  V30 4992 C 487.784 -3.08159 5.52468 0
M  V30 4993 C 486.448 -3.06935 5.92746 0
M  V30 4994 H 485.718 -0.632881 0.385412 0
M  V30 4995 H 488.365 -1.15863 1.52473 0
M  V30 4996 H 486.67 -3.74069 1.16532 0
M  V30 4997 H 488.367 -3.69658 1.55416 0
M  V30 4998 H 484.957 -3.16798 2.88682 0
M  V30 4999 H 489.141 -3.11221 3.86595 0
M  V30 5000 H 484.397 -3.0845 5.27891 0
M  V30 5001 H 488.571 -3.04039 6.26525 0
M  V30 5002 H 486.198 -3.02186 6.97558 0
M  V30 5003 N 487.773 -1.03688 -1.18687 0
M  V30 5004 C 489.189 -0.755413 -1.4059 0
M  V30 5005 C 489.389 0.656659 -1.905 0
M  V30 5006 O 488.445 1.42144 -2.08689 0
M  V30 5007 C 489.758 -1.7983 -2.41001 0
M  V30 5008 C 491.306 -1.81877 -2.54735 0
M  V30 5009 C 491.781 -2.85148 -3.58406 0
M  V30 5010 N 493.272 -2.84015 -3.6591 0
M  V30 5011 C 494.007 -3.60573 -4.45841 0
M  V30 5012 N 493.503 -4.46871 -5.29413 0
M  V30 5013 N 495.296 -3.49079 -4.40568 0
M  V30 5014 H 487.447 -1.94818 -0.846148 0
M  V30 5015 H 489.71 -0.842727 -0.434184 0
M  V30 5016 H 489.416 -2.81097 -2.1137 0
M  V30 5017 H 489.29 -1.62727 -3.40294 0
M  V30 5018 H 491.677 -0.812836 -2.83685 0
M  V30 5019 H 491.758 -2.03057 -1.55568 0
M  V30 5020 H 491.402 -3.85918 -3.30197 0
M  V30 5021 H 491.332 -2.61224 -4.57241 0
M  V30 5022 H 493.823 -2.21431 -3.0623 0
M  V30 5023 H 494.136 -5.02007 -5.87545 0
M  V30 5024 H 492.481 -4.5094 -5.28846 0
M  V30 5025 H 495.672 -2.81066 -3.74325 0
M  V30 5026 H 495.845 -4.08994 -5.02621 0
M  V30 5027 N 489.251 1.34841 -0.815825 0
M  V30 5028 C 490.528 1.92908 -0.323416 0
M  V30 5029 C 490.908 1.74479 1.18828 0
M  V30 5030 O 490.256 1.11928 1.99209 0
M  V30 5031 C 490.466 3.40957 -0.744952 0
M  V30 5032 C 491.814 4.18107 -0.739716 0
M  V30 5033 O 492.838 3.49511 -0.68708 0
M  V30 5034 O 491.697 5.40517 -0.806456 0
M  V30 5035 H 488.791 0.822436 -0.0867646 0
M  V30 5036 H 491.337 1.4386 -0.90014 0
M  V30 5037 H 490.109 3.4814 -1.78646 0
M  V30 5038 H 489.732 3.97341 -0.143535 0
M  V30 5039 N 490.729 0.570148 1.46925 0
M  V30 5040 C 491.978 0.0487352 2.01641 0
M  V30 5041 C 492.291 -1.31433 1.44861 0
M  V30 5042 O 493.497 -1.92638 1.91318 0
M  V30 5043 C 491.953 0.0365817 3.59881 0
M  V30 5044 C 491.561 1.39719 4.25655 0
M  V30 5045 C 493.305 -0.431545 4.22301 0
M  V30 5046 C 491.212 1.34345 5.75939 0
M  V30 5047 H 490.142 0.0144492 0.753862 0
M  V30 5048 H 492.793 0.719928 1.68788 0
M  V30 5049 H 491.175 -0.700522 3.89755 0
M  V30 5050 H 492.349 2.15303 4.07408 0
M  V30 5051 H 490.664 1.80431 3.75278 0
M  V30 5052 H 493.261 -0.490354 5.32447 0
M  V30 5053 H 493.604 -1.44638 3.90366 0
M  V30 5054 H 494.137 0.251102 3.97007 0
M  V30 5055 H 490.876 2.33469 6.12513 0
M  V30 5056 H 490.396 0.629615 5.96486 0
M  V30 5057 H 492.075 1.051 6.38407 0
M  V30 5058 N 492.207 -1.54576 0.307264 0
M  V30 5059 C 493.17 -2.22423 -0.553224 0
M  V30 5060 C 494.17 -1.21231 -1.05639 0
M  V30 5061 O 495.36 -1.45923 -0.951419 0
M  V30 5062 C 492.492 -2.91552 -1.76664 0
M  V30 5063 H 493.685 -2.99874 0.0396484 0
M  V30 5064 H 491.238 -1.56192 0.0581629 0
M  V30 5065 H 491.973 -2.18196 -2.39918 0
M  V30 5066 H 491.758 -3.65738 -1.41343 0
M  V30 5067 H 493.248 -3.43292 -2.37783 0
M  V30 5068 N 493.685 -0.035106 -1.57561 0
M  V30 5069 C 494.617 0.973604 -2.07494 0
M  V30 5070 C 495.63 1.28504 -0.999534 0
M  V30 5071 O 496.819 1.24864 -1.27559 0
M  V30 5072 C 493.919 2.29945 -2.48955 0
M  V30 5073 C 493.092 2.1723 -3.79644 0
M  V30 5074 C 492.151 3.328 -4.07592 0
M  V30 5075 O 491.177 3.09418 -4.77754 0
M  V30 5076 N 492.379 4.56779 -3.58236 0
M  V30 5077 H 495.144 0.547525 -2.94656 0
M  V30 5078 H 492.705 0.151515 -1.61189 0
M  V30 5079 H 494.697 3.06097 -2.64739 0
M  V30 5080 H 493.267 2.64173 -1.67126 0
M  V30 5081 H 492.487 1.25768 -3.73599 0
M  V30 5082 H 493.775 2.05945 -4.65257 0
M  V30 5083 H 493.173 4.78668 -3.01485 0
M  V30 5084 H 491.73 5.30079 -3.79288 0
M  V30 5085 N 495.163 1.55791 0.238111 0
M  V30 5086 C 496.095 1.87513 1.31802 0
M  V30 5087 C 497.108 0.762053 1.43863 0
M  V30 5088 O 498.297 1.04024 1.45056 0
M  V30 5089 C 495.397 2.05402 2.69561 0
M  V30 5090 C 494.57 3.3632 2.79656 0
M  V30 5091 C 493.629 3.43844 3.98319 0
M  V30 5092 O 492.655 4.16994 3.87433 0
M  V30 5093 N 493.857 2.73777 5.11885 0
M  V30 5094 H 496.622 2.80734 1.04922 0
M  V30 5095 H 494.183 1.56135 0.428196 0
M  V30 5096 H 496.175 2.07769 3.47296 0
M  V30 5097 H 494.745 1.18884 2.89111 0
M  V30 5098 H 493.965 3.46195 1.88528 0
M  V30 5099 H 495.253 4.22594 2.83358 0
M  V30 5100 H 494.651 2.14094 5.23622 0
M  V30 5101 H 493.208 2.81825 5.87723 0
M  V30 5102 N 496.642 -0.504142 1.49319 0
M  V30 5103 C 497.572 -1.61473 1.68667 0
M  V30 5104 C 498.553 -1.61455 0.535378 0
M  V30 5105 O 499.738 -1.78245 0.770868 0
M  V30 5106 C 496.868 -2.99971 1.75028 0
M  V30 5107 C 495.822 -3.14854 2.89916 0
M  V30 5108 C 495.148 -4.54671 2.81387 0
M  V30 5109 C 496.448 -2.95176 4.30893 0
M  V30 5110 H 498.142 -1.45535 2.61648 0
M  V30 5111 H 495.688 -0.698711 1.25913 0
M  V30 5112 H 497.641 -3.77562 1.8715 0
M  V30 5113 H 496.365 -3.1699 0.786441 0
M  V30 5114 H 495.024 -2.39687 2.77391 0
M  V30 5115 H 494.672 -4.68562 1.82917 0
M  V30 5116 H 494.372 -4.6557 3.58494 0
M  V30 5117 H 495.896 -5.34327 2.95512 0
M  V30 5118 H 497.31 -3.62538 4.44116 0
M  V30 5119 H 495.707 -3.17549 5.09198 0
M  V30 5120 H 496.777 -1.91332 4.45556 0
M  V30 5121 N 498.12 -1.38341 -0.754957 0
M  V30 5122 C 499.052 -1.31347 -1.87831 0
M  V30 5123 C 500.065 -0.225955 -1.61224 0
M  V30 5124 O 501.254 -0.48341 -1.7183 0
M  V30 5125 C 498.354 -1.01201 -3.23437 0
M  V30 5126 C 497.527 -2.20834 -3.77559 0
M  V30 5127 C 496.586 -1.87454 -4.91678 0
M  V30 5128 O 495.612 -2.59934 -5.06382 0
M  V30 5129 N 496.814 -0.828682 -5.74555 0
M  V30 5130 H 499.579 -2.28147 -1.94342 0
M  V30 5131 H 497.14 -1.32184 -0.934828 0
M  V30 5132 H 499.132 -0.769249 -3.97322 0
M  V30 5133 H 497.702 -0.132011 -3.12321 0
M  V30 5134 H 496.922 -2.61184 -2.95256 0
M  V30 5135 H 498.21 -3.00678 -4.10451 0
M  V30 5136 H 497.608 -0.227591 -5.65242 0
M  V30 5137 H 496.165 -0.645802 -6.48593 0
M  V30 5138 N 499.598 0.982988 -1.23187 0
M  V30 5139 C 500.561 2.05649 -1.01198 0
M  V30 5140 C 501.561 1.6078 0.0252464 0
M  V30 5141 O 502.751 1.72878 -0.214243 0
M  V30 5142 C 499.883 3.36744 -0.530656 0
M  V30 5143 H 501.076 2.2659 -1.96461 0
M  V30 5144 H 498.629 1.15602 -1.05195 0
M  V30 5145 H 499.364 3.21492 0.425873 0
M  V30 5146 H 499.149 3.7065 -1.2791 0
M  V30 5147 H 500.639 4.15705 -0.397366 0
M  V30 5148 N 501.076 1.04316 1.18135 0
M  V30 5149 C 502.304 0.768117 1.92113 0
M  V30 5150 C 502.719 -0.675057 1.76319 0
M  V30 5151 O 502.076 -1.46038 1.09449 0
M  V30 5152 C 502.127 1.12808 3.43448 0
M  V30 5153 O 501.848 2.5146 3.58747 0
M  V30 5154 C 503.349 0.8779 4.3452 0
M  V30 5155 H 500.569 0.279937 0.609817 0
M  V30 5156 H 503.113 1.39149 1.49859 0
M  V30 5157 H 501.268 0.549623 3.83481 0
M  V30 5158 H 501.682 2.65313 4.52448 0
M  V30 5159 H 503.156 1.17959 5.39249 0
M  V30 5160 H 503.633 -0.187239 4.38801 0
M  V30 5161 H 504.239 1.43977 4.00188 0
M  V30 5162 N 502.554 -1.34406 0.822964 0
M  V30 5163 C 503.794 -2.00103 0.416915 0
M  V30 5164 C 504.158 -1.63826 -1.00125 0
M  V30 5165 O 505.359 -2.22367 -1.51018 0
M  V30 5166 C 503.63 -3.52101 0.613151 0
M  V30 5167 S 505.189 -4.37774 0.299956 0
M  V30 5168 H 502.007 -0.69333 0.157527 0
M  V30 5169 H 504.609 -1.63698 1.06879 0
M  V30 5170 H 503.313 -3.75991 1.64496 0
M  V30 5171 H 502.844 -3.93364 -0.0534554 0
M  V30 5172 H 504.859 -4.8822 -0.886336 0
M  V30 5173 N 504.032 -0.577932 -1.46621 0
M  V30 5174 C 505.26 -0.0671642 -2.06791 0
M  V30 5175 C 505.675 1.23571 -1.42743 0
M  V30 5176 O 505.032 1.74602 -0.531062 0
M  V30 5177 C 505.083 0.110357 -3.61332 0
M  V30 5178 O 504.804 -1.14095 -4.22982 0
M  V30 5179 C 506.305 0.656025 -4.38419 0
M  V30 5180 H 503.525 -0.0552732 -0.66872 0
M  V30 5181 H 506.069 -0.797242 -1.8832 0
M  V30 5182 H 504.224 0.790637 -3.79246 0
M  V30 5183 H 504.638 -0.951742 -5.15793 0
M  V30 5184 H 506.112 0.729438 -5.47159 0
M  V30 5185 H 506.589 1.67195 -4.06131 0
M  V30 5186 H 507.195 0.0107692 -4.25299 0
M  V30 5187 N 505.51 1.54411 -0.315457 0
M  V30 5188 C 506.735 2.05299 0.294496 0
M  V30 5189 C 507.16 1.19052 1.4563 0
M  V30 5190 O 506.518 0.197804 1.80218 0
M  V30 5191 C 506.566 3.5345 0.714549 0
M  V30 5192 O 505.67 3.70175 1.81781 0
M  V30 5193 H 505.011 0.661743 0.0547019 0
M  V30 5194 H 507.541 1.99327 -0.461508 0
M  V30 5195 H 507.551 3.9557 0.999426 0
M  V30 5196 H 506.226 4.1568 -0.135244 0
M  V30 5197 H 504.803 3.3996 1.53236 0
M  V30 5198 N 506.988 0.0434614 1.5754 0
M  V30 5199 C 507.918 -0.931651 2.14109 0
M  V30 5200 C 508.899 -1.32971 1.06079 0
M  V30 5201 O 510.084 -1.40579 1.33982 0
M  V30 5202 C 507.214 -2.20914 2.67982 0
M  V30 5203 C 506.168 -1.95139 3.80926 0
M  V30 5204 C 505.494 -3.29276 4.21285 0
M  V30 5205 C 506.794 -1.27913 5.06395 0
M  V30 5206 H 508.488 -0.460497 2.95837 0
M  V30 5207 H 506.034 -0.220058 1.42309 0
M  V30 5208 H 507.987 -2.89522 3.06194 0
M  V30 5209 H 506.711 -2.70221 1.83434 0
M  V30 5210 H 505.37 -1.28945 3.43175 0
M  V30 5211 H 505.018 -3.76369 3.33699 0
M  V30 5212 H 504.718 -3.12831 4.97404 0
M  V30 5213 H 506.242 -3.99129 4.62091 0
M  V30 5214 H 507.656 -1.86544 5.42102 0
M  V30 5215 H 506.053 -1.2182 5.87605 0
M  V30 5216 H 507.123 -0.254066 4.84234 0
M  V30 5217 N 508.466 -1.55915 -0.229846 0
M  V30 5218 C 509.714 -1.7819 -0.953565 0
M  V30 5219 C 510.035 -0.610504 -1.85197 0
M  V30 5220 O 509.305 0.372988 -1.92316 0
M  V30 5221 H 507.885 -0.657208 -0.355087 0
M  V30 5222 H 510.547 -1.9337 -0.243693 0
M  V30 5223 H 509.643 -2.70011 -1.56527 0
M  V30 5224 N 509.944 0.496216 -1.49584 0
M  V30 5225 C 511.169 1.27865 -1.63295 0
M  V30 5226 C 511.594 1.85592 -0.306156 0
M  V30 5227 O 510.952 1.66092 0.726851 0
M  V30 5228 C 511 2.38128 -2.7079 0
M  V30 5229 O 510.104 3.42108 -2.30296 0
M  V30 5230 H 509.445 0.377279 -0.546403 0
M  V30 5231 H 511.975 0.593497 -1.95803 0
M  V30 5232 H 511.985 2.8382 -2.93104 0
M  V30 5233 H 510.66 1.95479 -3.67098 0
M  V30 5234 H 509.237 3.02301 -2.18331 0
M  V30 5235 N 511.423 1.38739 0.74761 0
M  V30 5236 C 512.648 1.38702 1.54197 0
M  V30 5237 C 513.073 -0.019664 1.8809 0
M  V30 5238 O 512.431 -1.00333 1.51006 0
M  V30 5239 C 512.479 2.25492 2.814 0
M  V30 5240 O 511.583 1.67613 3.76802 0
M  V30 5241 H 510.924 0.472863 0.466151 0
M  V30 5242 H 513.454 1.82577 0.923413 0
M  V30 5243 H 513.464 2.39561 3.30264 0
M  V30 5244 H 512.139 3.27727 2.56062 0
M  V30 5245 H 510.716 1.62718 3.35526 0
M  V30 5246 N 512.901 -0.976442 1.23707 0
M  V30 5247 C 514.15 -1.71254 1.06559 0
M  V30 5248 C 514.463 -1.91528 -0.397024 0
M  V30 5249 O 515.669 -2.62625 -0.688518 0
M  V30 5250 C 514.125 -3.08207 1.8584 0
M  V30 5251 C 513.733 -2.95806 3.36456 0
M  V30 5252 C 515.477 -3.85749 1.77194 0
M  V30 5253 C 513.384 -4.28015 4.08114 0
M  V30 5254 H 512.314 -0.642171 0.395136 0
M  V30 5255 H 514.965 -1.08877 1.4771 0
M  V30 5256 H 513.347 -3.71363 1.37498 0
M  V30 5257 H 514.521 -2.41716 3.92314 0
M  V30 5258 H 512.836 -2.31736 3.45959 0
M  V30 5259 H 515.433 -4.83633 2.28041 0
M  V30 5260 H 515.776 -4.09752 0.735477 0
M  V30 5261 H 516.309 -3.29303 2.23169 0
M  V30 5262 H 513.048 -4.09208 5.12083 0
M  V30 5263 H 512.568 -4.81955 3.57043 0
M  V30 5264 H 514.247 -4.96681 4.14629 0
M  V30 5265 N 514.379 -1.04941 -1.1758 0
M  V30 5266 C 515.311 -0.606174 -2.21039 0
M  V30 5267 C 516.324 0.328763 -1.59446 0
M  V30 5268 O 517.513 0.121895 -1.78083 0
M  V30 5269 C 514.613 0.133294 -3.38638 0
M  V30 5270 C 513.786 -0.811711 -4.29802 0
M  V30 5271 C 512.845 -0.113958 -5.26077 0
M  V30 5272 O 511.871 -0.747237 -5.64274 0
M  V30 5273 N 513.073 1.14953 -5.69004 0
M  V30 5274 H 515.838 -1.49606 -2.59689 0
M  V30 5275 H 513.399 -0.930997 -1.32454 0
M  V30 5276 H 515.391 0.610144 -4.00074 0
M  V30 5277 H 513.961 0.924816 -2.98607 0
M  V30 5278 H 513.181 -1.46824 -3.65837 0
M  V30 5279 H 514.469 -1.45326 -4.87604 0
M  V30 5280 H 513.867 1.68441 -5.40041 0
M  V30 5281 H 512.424 1.57049 -6.32597 0
M  V30 5282 N 515.857 1.33968 -0.830081 0
M  V30 5283 C 517.105 1.97672 -0.420734 0
M  V30 5284 C 517.426 1.66111 1.02138 0
M  V30 5285 O 516.696 0.955503 1.71017 0
M  V30 5286 H 515.276 0.73125 -0.152587 0
M  V30 5287 H 517.938 1.63483 -1.0611 0
M  V30 5288 H 517.034 3.07294 -0.545588 0
M  V30 5289 N 517.335 0.585699 1.46312 0
M  V30 5290 C 518.265 -0.133556 2.33118 0
M  V30 5291 C 519.246 -0.880707 1.45525 0
M  V30 5292 O 520.431 -0.855579 1.74337 0
M  V30 5293 C 517.561 -1.14585 3.27853 0
M  V30 5294 C 516.515 -0.513341 4.2491 0
M  V30 5295 C 515.841 -1.63231 5.09175 0
M  V30 5296 C 517.141 0.551413 5.19381 0
M  V30 5297 H 518.835 0.59121 2.93505 0
M  V30 5298 H 516.381 0.285761 1.41136 0
M  V30 5299 H 518.334 -1.65741 3.87438 0
M  V30 5300 H 517.058 -1.90093 2.65579 0
M  V30 5301 H 515.717 -0.0228349 3.66593 0
M  V30 5302 H 515.365 -2.37713 4.43285 0
M  V30 5303 H 515.065 -1.21473 5.74907 0
M  V30 5304 H 516.589 -2.14658 5.71624 0
M  V30 5305 H 518.003 0.124804 5.73164 0
M  V30 5306 H 516.4 0.889486 5.93471 0
M  V30 5307 H 517.47 1.43655 4.63132 0
M  V30 5308 N 518.813 -1.54241 0.323641 0
M  V30 5309 C 520.224 -1.85975 -0.164405 0
M  V30 5310 C 520.575 -1.24529 -1.51615 0
M  V30 5311 O 519.7 -0.551351 -2.09258 0
M  V30 5312 C 520.295 -3.37424 -0.305091 0
M  V30 5313 C 518.854 -3.69107 -0.737358 0
M  V30 5314 C 518.001 -2.76942 0.140884 0
M  V30 5315 H 520.952 -1.49088 0.543922 0
M  V30 5316 H 520.973 -3.63147 -1.13598 0
M  V30 5317 H 520.485 -3.82116 0.678876 0
M  V30 5318 H 518.586 -3.29947 -1.73107 0
M  V30 5319 H 518.699 -4.76035 -0.541053 0
M  V30 5320 H 517.063 -2.51795 -0.383572 0
M  V30 5321 H 517.846 -3.24461 1.12162 0
M  V30 5322 N 520.291 -0.0518155 -1.57515 0
M  V30 5323 C 521.519 0.631395 -1.9703 0
M  V30 5324 C 521.934 1.64341 -0.92938 0
M  V30 5325 O 521.291 1.82296 0.0863266 0
M  V30 5326 C 521.342 1.31774 -3.36627 0
M  V30 5327 O 521.063 0.346247 -4.3673 0
M  V30 5328 C 522.564 2.09065 -3.90905 0
M  V30 5329 H 519.784 0.172576 -0.648428 0
M  V30 5330 H 522.328 -0.118306 -2.04158 0
M  V30 5331 H 520.483 2.01867 -3.30649 0
M  V30 5332 H 520.897 0.836226 -5.17791 0
M  V30 5333 H 522.371 2.52508 -4.9086 0
M  V30 5334 H 522.848 2.93908 -3.26366 0
M  V30 5335 H 523.454 1.43882 -4.00223 0
M  V30 5336 N 521.769 1.56035 0.221574 0
M  V30 5337 C 522.717 1.93269 1.29421 0
M  V30 5338 C 523.711 0.814727 1.48521 0
M  V30 5339 O 524.917 0.999559 1.49696 0
M  V30 5340 H 521.292 0.614188 0.43391 0
M  V30 5341 H 523.263 2.82773 0.952987 0
M  V30 5342 C 522.012 2.26573 2.63742 0
M  V30 5343 H 521.335 3.12112 2.49853 0
M  V30 5344 H 522.775 2.5651 3.37607 0
M  V30 5345 C 521.234 1.09086 3.1875 0
M  V30 5346 O 521.764 0.351985 4.00155 0
M  V30 5347 N 519.97 0.874693 2.77124 0
M  V30 5348 H 519.517 1.47726 2.11033 0
M  V30 5349 H 519.475 0.0903349 3.1427 0
M  V30 5350 N 523.247 -0.488276 1.49845 0
M  V30 5351 C 524.493 -1.24341 1.6021 0
M  V30 5352 C 524.826 -1.91967 0.293651 0
M  V30 5353 O 524.101 -1.81323 -0.703718 0
M  V30 5354 C 524.384 -2.3005 2.77036 0
M  V30 5355 C 524.237 -1.66842 4.17713 0
M  V30 5356 C 525.556 -3.31509 2.89464 0
M  V30 5357 H 522.675 -0.450704 0.583125 0
M  V30 5358 H 525.317 -0.539673 1.82174 0
M  V30 5359 H 523.467 -2.90071 2.58439 0
M  V30 5360 H 525.139 -1.1055 4.47858 0
M  V30 5361 H 523.382 -0.972079 4.22768 0
M  V30 5362 H 524.053 -2.43576 4.95353 0
M  V30 5363 H 526.529 -2.81493 3.06433 0
M  V30 5364 H 525.405 -4.02822 3.72861 0
M  V30 5365 H 525.666 -3.94603 1.99351 0
M  V30 5366 N 524.725 -1.39134 -0.740242 0
M  V30 5367 C 525.672 -1.37434 -1.8542 0
M  V30 5368 C 526.642 -0.234822 -1.64432 0
M  V30 5369 O 527.827 -0.429125 -1.85912 0
M  V30 5370 C 524.967 -1.21844 -3.22875 0
M  V30 5371 C 524.08 -2.45296 -3.55603 0
M  V30 5372 C 523.215 -2.22334 -4.82432 0
M  V30 5373 C 522.254 -3.41488 -5.07988 0
M  V30 5374 N 521.391 -3.17877 -6.26018 0
M  V30 5375 H 526.231 -2.3266 -1.86207 0
M  V30 5376 H 523.768 -1.15578 -0.909946 0
M  V30 5377 H 525.726 -1.10818 -4.02213 0
M  V30 5378 H 524.356 -0.3025 -3.21379 0
M  V30 5379 H 523.408 -2.66945 -2.71006 0
M  V30 5380 H 524.72 -3.34063 -3.7041 0
M  V30 5381 H 523.874 -2.0852 -5.69741 0
M  V30 5382 H 522.613 -1.30954 -4.6979 0
M  V30 5383 H 521.618 -3.55807 -4.19144 0
M  V30 5384 H 522.843 -4.33763 -5.22519 0
M  V30 5385 H 520.789 -2.29156 -6.14673 0
M  V30 5386 H 520.706 -4.00198 -6.41387 0
M  V30 5387 H 521.974 -3.07746 -7.16179 0
M  V30 5388 N 526.204 0.969867 -1.24223 0
M  V30 5389 C 527.481 1.68774 -0.988664 0
M  V30 5390 C 527.861 2.05342 0.489673 0
M  V30 5391 O 527.209 1.75486 1.46345 0
M  V30 5392 C 527.419 2.92135 -1.90941 0
M  V30 5393 C 528.767 3.64422 -2.17903 0
M  V30 5394 O 529.791 3.02188 -1.88576 0
M  V30 5395 O 528.65 4.76446 -2.67697 0
M  V30 5396 H 525.744 0.737736 -0.37373 0
M  V30 5397 H 528.29 1.02415 -1.35312 0
M  V30 5398 H 527.062 2.61788 -2.90831 0
M  V30 5399 H 526.685 3.66228 -1.54798 0
M  V30 5400 N 527.682 1.05563 1.17022 0
M  V30 5401 C 528.614 0.617888 2.20714 0
M  V30 5402 C 529.627 -0.320303 1.59618 0
M  V30 5403 O 530.816 -0.112449 1.78145 0
M  V30 5404 C 527.916 -0.115333 3.38704 0
M  V30 5405 C 527.089 0.834493 4.29366 0
M  V30 5406 C 526.148 0.141855 5.26009 0
M  V30 5407 O 525.174 0.777151 5.6387 0
M  V30 5408 N 526.376 -1.11934 5.69606 0
M  V30 5409 H 529.141 1.50981 2.58892 0
M  V30 5410 H 526.702 0.938008 1.31958 0
M  V30 5411 H 528.694 -0.588918 4.00392 0
M  V30 5412 H 527.264 -0.908967 2.99093 0
M  V30 5413 H 526.484 1.48762 3.65053 0
M  V30 5414 H 527.772 1.4791 4.86827 0
M  V30 5415 H 527.17 -1.65574 5.40927 0
M  V30 5416 H 525.727 -1.53692 6.33421 0
M  V30 5417 N 529.16 -1.33526 0.837174 0
M  V30 5418 C 530.406 -1.9813 0.432704 0
M  V30 5419 C 530.739 -1.66168 -1.00508 0
M  V30 5420 O 530.014 -0.94069 -1.70239 0
M  V30 5421 C 530.297 -3.54151 0.651834 0
M  V30 5422 C 530.15 -3.95806 2.13676 0
M  V30 5423 C 531.469 -4.39993 0.0968937 0
M  V30 5424 H 528.588 -0.719713 0.15869 0
M  V30 5425 H 531.23 -1.58193 1.05237 0
M  V30 5426 H 529.38 -3.88301 0.124369 0
M  V30 5427 H 531.052 -3.71921 2.72896 0
M  V30 5428 H 529.295 -3.45599 2.62191 0
M  V30 5429 H 529.966 -5.0447 2.24084 0
M  V30 5430 H 532.442 -4.12479 0.547733 0
M  V30 5431 H 531.318 -5.48186 0.279917 0
M  V30 5432 H 531.579 -4.3066 -0.9992 0
M  V30 5433 N 530.638 -0.59345 -1.46 0
M  V30 5434 C 531.57 0.171569 -2.28557 0
M  V30 5435 C 532.583 0.845273 -1.39137 0
M  V30 5436 O 533.772 0.713033 -1.6364 0
M  V30 5437 C 530.872 1.26311 -3.14482 0
M  V30 5438 C 530.045 0.679258 -4.32094 0
M  V30 5439 C 529.104 1.65987 -4.99334 0
M  V30 5440 O 528.13 1.19171 -5.56585 0
M  V30 5441 N 529.332 2.99414 -4.97324 0
M  V30 5442 H 532.097 -0.536771 -2.94854 0
M  V30 5443 H 529.658 -0.431954 -1.56031 0
M  V30 5444 H 531.65 1.91863 -3.5633 0
M  V30 5445 H 530.22 1.87416 -2.50188 0
M  V30 5446 H 529.44 -0.153992 -3.93899 0
M  V30 5447 H 530.728 0.26916 -5.08088 0
M  V30 5448 H 530.126 3.40064 -4.52076 0
M  V30 5449 H 528.683 3.60426 -5.4308 0
M  V30 5450 N 532.116 1.54067 -0.331816 0
M  V30 5451 C 533.048 2.22139 0.564538 0
M  V30 5452 C 534.061 1.22408 1.07332 0
M  V30 5453 O 535.25 1.4883 0.985481 0
M  V30 5454 C 532.35 2.87876 1.78831 0
M  V30 5455 C 531.523 4.13817 1.41682 0
M  V30 5456 C 530.582 4.63072 2.49901 0
M  V30 5457 O 529.608 5.27562 2.13699 0
M  V30 5458 N 530.81 4.38001 3.80967 0
M  V30 5459 H 533.575 2.99694 -0.0183736 0
M  V30 5460 H 531.136 1.61153 -0.155396 0
M  V30 5461 H 533.128 3.17747 2.50637 0
M  V30 5462 H 531.698 2.13977 2.27887 0
M  V30 5463 H 530.918 3.9062 0.530044 0
M  V30 5464 H 532.206 4.95762 1.14443 0
M  V30 5465 H 531.604 3.864 4.13173 0
M  V30 5466 H 530.161 4.72507 4.48977 0
M  V30 5467 N 533.594 0.0601682 1.57485 0
M  V30 5468 C 534.557 -0.896373 2.10945 0
M  V30 5469 C 535.557 -1.23402 1.03095 0
M  V30 5470 O 536.747 -1.16921 1.29132 0
M  V30 5471 C 533.879 -2.20346 2.60116 0
M  V30 5472 H 535.072 -0.432778 2.96761 0
M  V30 5473 H 532.625 -0.188372 1.55161 0
M  V30 5474 H 533.36 -2.71268 1.7772 0
M  V30 5475 H 533.145 -1.9714 3.38937 0
M  V30 5476 H 534.635 -2.88846 3.01592 0
M  V30 5477 N 535.072 -1.5615 -0.213296 0
M  V30 5478 C 536.488 -1.49327 -0.56336 0
M  V30 5479 C 536.688 -0.756826 -1.86747 0
M  V30 5480 O 535.744 -0.299866 -2.50713 0
M  V30 5481 C 537.057 -2.9392 -0.634944 0
M  V30 5482 C 538.605 -3.04487 -0.725013 0
M  V30 5483 C 539.08 -4.50456 -0.82787 0
M  V30 5484 N 540.571 -4.54533 -0.891876 0
M  V30 5485 C 541.306 -5.64766 -0.991315 0
M  V30 5486 N 540.802 -6.84733 -1.05419 0
M  V30 5487 N 542.595 -5.52637 -1.02709 0
M  V30 5488 H 534.746 -2.02453 0.642366 0
M  V30 5489 H 537.009 -0.920548 0.226487 0
M  V30 5490 H 536.715 -3.50783 0.253859 0
M  V30 5491 H 536.589 -3.46274 -1.49579 0
M  V30 5492 H 538.976 -2.47685 -1.60425 0
M  V30 5493 H 539.057 -2.55289 0.161669 0
M  V30 5494 H 538.701 -5.07878 0.0469464 0
M  V30 5495 H 538.631 -4.97369 -1.73009 0
M  V30 5496 H 541.122 -3.68141 -0.85327 0
M  V30 5497 H 541.435 -7.64493 -1.13007 0
M  V30 5498 H 539.78 -6.87427 -1.02318 0
M  V30 5499 H 542.971 -4.5784 -0.974687 0
M  V30 5500 H 543.144 -6.38576 -1.10113 0
M  V30 5501 N 536.55 0.480323 -1.50102 0
M  V30 5502 C 537.966 0.813295 -1.37323 0
M  V30 5503 C 538.166 1.97027 -0.422206 0
M  V30 5504 O 537.222 2.5212 0.138563 0
M  V30 5505 C 538.535 1.13404 -2.78496 0
M  V30 5506 C 540.083 1.24104 -2.87345 0
M  V30 5507 C 540.558 1.59497 -4.29331 0
M  V30 5508 N 542.049 1.66507 -4.32238 0
M  V30 5509 C 542.784 1.95378 -5.39087 0
M  V30 5510 N 542.28 2.22333 -6.56155 0
M  V30 5511 N 544.073 1.96803 -5.26522 0
M  V30 5512 H 536.224 -0.282291 -2.10516 0
M  V30 5513 H 538.487 -0.063752 -0.945854 0
M  V30 5514 H 538.193 0.357064 -3.49883 0
M  V30 5515 H 538.067 2.07251 -3.15162 0
M  V30 5516 H 540.454 2.00871 -2.16183 0
M  V30 5517 H 540.535 0.282593 -2.54234 0
M  V30 5518 H 540.179 0.832736 -5.01027 0
M  V30 5519 H 540.109 2.56477 -4.59921 0
M  V30 5520 H 542.6 1.47753 -3.47818 0
M  V30 5521 H 542.913 2.43611 -7.33399 0
M  V30 5522 H 541.258 2.19745 -6.59346 0
M  V30 5523 H 544.449 1.75235 -4.34062 0
M  V30 5524 H 544.622 2.18969 -6.09883 0
M  V30 5525 N 538.028 1.39524 0.732853 0
M  V30 5526 C 538.96 1.34318 1.85718 0
M  V30 5527 C 539.973 0.251576 1.60844 0
M  V30 5528 O 541.162 0.510685 1.71039 0
M  V30 5529 C 538.262 1.06334 3.21786 0
M  V30 5530 C 537.435 2.26813 3.73998 0
M  V30 5531 C 536.494 1.95253 4.88634 0
M  V30 5532 O 535.52 2.67957 5.02183 0
M  V30 5533 N 536.722 0.919984 5.73164 0
M  V30 5534 H 539.487 2.3121 1.90688 0
M  V30 5535 H 537.048 1.33654 0.91368 0
M  V30 5536 H 539.04 0.832363 3.96048 0
M  V30 5537 H 537.61 0.181682 3.12072 0
M  V30 5538 H 536.83 2.65849 2.91064 0
M  V30 5539 H 538.118 3.0717 4.05616 0
M  V30 5540 H 537.516 0.317487 5.64808 0
M  V30 5541 H 536.073 0.748905 6.47483 0
M  V30 5542 N 539.506 -0.963266 1.24736 0
M  V30 5543 C 540.752 -1.70933 1.09131 0
M  V30 5544 C 541.085 -1.90676 -0.368273 0
M  V30 5545 O 540.36 -1.47147 -1.27193 0
M  V30 5546 C 540.643 -3.09744 1.83658 0
M  V30 5547 C 540.496 -2.97465 3.37394 0
M  V30 5548 C 541.815 -4.09483 1.61282 0
M  V30 5549 H 538.934 -0.620398 0.397838 0
M  V30 5550 H 541.576 -1.12028 1.53459 0
M  V30 5551 H 539.726 -3.60031 1.4598 0
M  V30 5552 H 541.398 -2.54571 3.84696 0
M  V30 5553 H 539.641 -2.33576 3.65547 0
M  V30 5554 H 540.312 -3.95822 3.84745 0
M  V30 5555 H 542.788 -3.68073 1.94066 0
M  V30 5556 H 541.664 -5.04666 2.15878 0
M  V30 5557 H 541.925 -4.38639 0.552102 0
M  V30 5558 N 540.985 -1.06182 -1.16461 0
M  V30 5559 C 541.895 -0.682671 -2.24448 0
M  V30 5560 C 542.911 0.30078 -1.71381 0
M  V30 5561 O 544.087 0.150376 -2.00838 0
M  V30 5562 C 541.152 -0.0737202 -3.46622 0
M  V30 5563 C 540.213 -1.10889 -4.14731 0
M  V30 5564 C 539.446 -0.528908 -5.31073 0
M  V30 5565 O 539.669 0.65868 -5.66584 0
M  V30 5566 O 538.603 -1.26805 -5.88391 0
M  V30 5567 H 542.429 -1.58291 -2.59187 0
M  V30 5568 H 540.014 -0.834013 -1.23954 0
M  V30 5569 H 541.896 0.264192 -4.20571 0
M  V30 5570 H 540.571 0.800015 -3.13658 0
M  V30 5571 H 539.478 -1.49896 -3.42756 0
M  V30 5572 H 540.811 -1.95412 -4.51747 0
M  V30 5573 N 542.463 1.3308 -0.844243 0
M  V30 5574 C 543.74 1.92178 -0.364261 0
M  V30 5575 C 544.12 1.76961 1.15101 0
M  V30 5576 O 543.468 1.16128 1.9679 0
M  V30 5577 C 543.678 3.393 -0.817106 0
M  V30 5578 C 545.026 4.16444 -0.828236 0
M  V30 5579 O 546.05 3.47975 -0.761062 0
M  V30 5580 O 544.909 5.38685 -0.920926 0
M  V30 5581 H 542.003 0.820411 -0.10419 0
M  V30 5582 H 544.549 1.41918 -0.930453 0
M  V30 5583 H 543.321 3.44272 -1.85991 0
M  V30 5584 H 542.944 3.96947 -0.227785 0
M  V30 5585 N 543.941 0.601185 1.45683 0
M  V30 5586 C 544.871 -0.108824 2.33246 0
M  V30 5587 C 545.852 -0.865223 1.46451 0
M  V30 5588 O 547.037 -0.83704 1.75235 0
M  V30 5589 C 544.167 -1.11101 3.2905 0
M  V30 5590 C 543.121 -0.468244 4.25431 0
M  V30 5591 C 542.447 -1.57822 5.10878 0
M  V30 5592 C 543.747 0.606469 5.18767 0
M  V30 5593 H 545.441 0.622306 2.92861 0
M  V30 5594 H 542.987 0.300714 1.40825 0
M  V30 5595 H 544.94 -1.61622 3.89174 0
M  V30 5596 H 543.664 -1.87265 2.67581 0
M  V30 5597 H 542.323 0.0160484 3.66596 0
M  V30 5598 H 541.971 -2.32998 4.45781 0
M  V30 5599 H 541.671 -1.15369 5.76163 0
M  V30 5600 H 543.195 -2.08583 5.73869 0
M  V30 5601 H 544.609 0.185589 5.73 0
M  V30 5602 H 543.006 0.952381 5.92494 0
M  V30 5603 H 544.076 1.48559 4.61582 0
M  V30 5604 N 545.419 -1.53889 0.339982 0
M  V30 5605 C 546.351 -2.22435 -0.55275 0
M  V30 5606 C 547.364 -1.22975 -1.06681 0
M  V30 5607 O 548.553 -1.49351 -0.977575 0
M  V30 5608 C 545.653 -2.8882 -1.77302 0
M  V30 5609 C 544.826 -4.14563 -1.39486 0
M  V30 5610 C 543.885 -4.64391 -2.47442 0
M  V30 5611 O 542.911 -5.28687 -2.10899 0
M  V30 5612 N 544.113 -4.40015 -3.78639 0
M  V30 5613 H 546.878 -2.9968 0.0342669 0
M  V30 5614 H 544.439 -1.61068 0.16394 0
M  V30 5615 H 546.431 -3.19072 -2.48948 0
M  V30 5616 H 545.001 -2.15182 -2.26749 0
M  V30 5617 H 544.221 -3.90896 -0.509321 0
M  V30 5618 H 545.509 -4.96362 -1.11813 0
M  V30 5619 H 544.907 -3.88586 -4.11118 0
M  V30 5620 H 543.464 -4.74881 -4.46465 0
M  V30 5621 N 546.897 -0.0685191 -1.57451 0
M  V30 5622 C 547.86 0.885173 -2.11417 0
M  V30 5623 C 548.86 1.22853 -1.03748 0
M  V30 5624 O 550.05 1.16235 -1.2975 0
M  V30 5625 C 547.182 2.18964 -2.61281 0
M  V30 5626 H 548.375 0.417034 -2.96986 0
M  V30 5627 H 545.928 0.18014 -1.55258 0
M  V30 5628 H 546.663 2.70321 -1.79156 0
M  V30 5629 H 546.448 1.9534 -3.39977 0
M  V30 5630 H 547.938 2.87242 -3.0312 0
M  V30 5631 N 548.375 1.56261 0.205012 0
M  V30 5632 C 549.603 1.84141 0.943386 0
M  V30 5633 C 550.018 0.649772 1.77266 0
M  V30 5634 O 549.375 -0.381612 1.78466 0
M  V30 5635 C 549.426 3.10719 1.84759 0
M  V30 5636 O 549.147 4.25286 1.05181 0
M  V30 5637 C 550.648 3.51706 2.69848 0
M  V30 5638 H 547.868 0.611734 0.275721 0
M  V30 5639 H 550.412 2.03364 0.215253 0
M  V30 5640 H 548.567 2.93422 2.52947 0
M  V30 5641 H 548.981 4.97301 1.66709 0
M  V30 5642 H 550.455 4.43266 3.28967 0
M  V30 5643 H 550.932 2.7423 3.43067 0
M  V30 5644 H 551.538 3.71499 2.07047 0
M  V30 5645 N 549.853 -0.472356 1.50355 0
M  V30 5646 C 551.1 -1.22453 1.61281 0
M  V30 5647 C 551.428 -1.91972 0.31256 0
M  V30 5648 O 550.683 -1.82696 -0.701475 0
M  V30 5649 C 550.982 -2.29257 2.74182 0
M  V30 5650 C 550.648 -1.76999 4.14708 0
M  V30 5651 C 549.31 -1.62467 4.52944 0
M  V30 5652 C 551.662 -1.38215 5.0254 0
M  V30 5653 C 548.99 -1.07574 5.76754 0
M  V30 5654 C 551.342 -0.847638 6.26895 0
M  V30 5655 C 550.006 -0.688946 6.63935 0
M  V30 5656 H 549.276 -0.448087 0.590168 0
M  V30 5657 H 551.923 -0.520744 1.84284 0
M  V30 5658 H 550.228 -3.05538 2.45263 0
M  V30 5659 H 551.925 -2.87212 2.7984 0
M  V30 5660 H 548.515 -1.89276 3.84542 0
M  V30 5661 H 552.699 -1.48276 4.73633 0
M  V30 5662 H 547.955 -0.940237 6.04127 0
M  V30 5663 H 552.129 -0.538455 6.94315 0
M  V30 5664 H 549.756 -0.261435 7.5975 0
M  V30 5665 N 551.331 -1.39911 -0.725443 0
M  V30 5666 C 552.556 -1.41137 -1.5197 0
M  V30 5667 C 552.981 -0.010262 -1.88097 0
M  V30 5668 O 552.339 0.979184 -1.52583 0
M  V30 5669 C 552.387 -2.2994 -2.77777 0
M  V30 5670 O 551.491 -1.73586 -3.74088 0
M  V30 5671 H 550.832 -0.480219 -0.458569 0
M  V30 5672 H 553.362 -1.84023 -0.894249 0
M  V30 5673 H 553.372 -2.44785 -3.26411 0
M  V30 5674 H 552.047 -3.31759 -2.50816 0
M  V30 5675 H 550.624 -1.68035 -3.32894 0
M  V30 5676 N 552.809 0.956637 -1.25245 0
M  V30 5677 C 554.034 1.74104 -1.12706 0
M  V30 5678 C 554.459 1.85436 0.315429 0
M  V30 5679 O 553.817 1.33334 1.22848 0
M  V30 5680 C 553.865 3.1338 -1.78396 0
M  V30 5681 O 552.969 3.98485 -1.06224 0
M  V30 5682 H 552.31 0.53476 -0.393609 0
M  V30 5683 H 554.84 1.19924 -1.65769 0
M  V30 5684 H 554.85 3.6385 -1.846 0
M  V30 5685 H 553.525 3.04448 -2.83345 0
M  V30 5686 H 552.102 3.56952 -1.07886 0
M  V30 5687 N 554.287 1.06798 1.15896 0
M  V30 5688 C 555.536 0.782796 1.8589 0
M  V30 5689 C 555.849 -0.693498 1.82893 0
M  V30 5690 O 557.055 -1.09325 2.48516 0
M  V30 5691 C 555.511 1.3502 3.33613 0
M  V30 5692 C 555.119 2.8571 3.45071 0
M  V30 5693 C 556.863 1.14278 4.08829 0
M  V30 5694 C 554.77 3.35669 4.86909 0
M  V30 5695 H 553.7 0.289149 0.696354 0
M  V30 5696 H 556.351 1.28734 1.30766 0
M  V30 5697 H 554.733 0.773407 3.88374 0
M  V30 5698 H 555.907 3.49385 3.00445 0
M  V30 5699 H 554.222 3.05178 2.83294 0
M  V30 5700 H 556.819 1.49087 5.13495 0
M  V30 5701 H 557.162 0.0814575 4.1622 0
M  V30 5702 H 557.695 1.68563 3.60321 0
M  V30 5703 H 554.434 4.41302 4.84698 0
M  V30 5704 H 553.954 2.76745 5.32139 0
M  V30 5705 H 555.633 3.31296 5.55745 0
M  V30 5706 N 555.766 -1.3263 0.851289 0
M  V30 5707 C 556.716 -2.26451 0.265302 0
M  V30 5708 C 557.7 -1.49814 -0.586899 0
M  V30 5709 O 558.892 -1.71525 -0.436834 0
M  V30 5710 C 556.021 -3.38895 -0.548212 0
M  V30 5711 C 555.107 -4.2292 0.316189 0
M  V30 5712 N 555.498 -4.86014 1.40084 0
M  V30 5713 C 553.796 -4.45876 0.105356 0
M  V30 5714 C 554.497 -5.48667 1.93235 0
M  V30 5715 N 553.473 -5.29455 1.232 0
M  V30 5716 H 557.275 -2.72757 1.09457 0
M  V30 5717 H 554.789 -1.4668 0.697047 0
M  V30 5718 H 556.786 -4.05111 -0.984402 0
M  V30 5719 H 555.446 -2.94135 -1.37531 0
M  V30 5720 H 556.457 -4.86212 1.78377 0
M  V30 5721 H 553.134 -4.11804 -0.687299 0
M  V30 5722 H 554.524 -6.08865 2.84135 0
M  V30 5723 N 557.244 -0.608902 -1.45362 0
M  V30 5724 C 558.469 -0.10921 -2.07112 0
M  V30 5725 C 558.894 1.19779 -1.45033 0
M  V30 5726 O 558.252 1.72961 -0.543527 0
M  V30 5727 C 558.3 0.0155745 -3.60597 0
M  V30 5728 O 557.404 1.06546 -3.98399 0
M  V30 5729 H 556.745 -0.0746619 -0.659789 0
M  V30 5730 H 559.275 -0.839283 -1.86594 0
M  V30 5731 H 559.285 0.213364 -4.07442 0
M  V30 5732 H 557.96 -0.938765 -4.05167 0
M  V30 5733 H 556.537 0.844024 -3.63223 0
M  V30 5734 N 558.722 1.53707 -0.348139 0
M  V30 5735 C 559.969 2.00988 0.246966 0
M  V30 5736 C 560.297 1.23586 1.50189 0
M  V30 5737 O 559.552 0.312817 1.93184 0
M  V30 5738 C 559.851 3.52292 0.602061 0
M  V30 5739 C 559.517 4.47453 -0.556509 0
M  V30 5740 C 558.179 4.73188 -0.874446 0
M  V30 5741 C 560.531 5.03851 -1.33354 0
M  V30 5742 C 557.859 5.52577 -1.9717 0
M  V30 5743 C 560.211 5.84437 -2.42108 0
M  V30 5744 C 558.875 6.08465 -2.74456 0
M  V30 5745 H 558.145 0.735469 0.0903712 0
M  V30 5746 H 560.792 1.85464 -0.477001 0
M  V30 5747 H 559.097 3.65672 1.40681 0
M  V30 5748 H 560.794 3.86337 1.07447 0
M  V30 5749 H 557.384 4.27558 -0.298652 0
M  V30 5750 H 561.568 4.8393 -1.10117 0
M  V30 5751 H 556.824 5.69418 -2.22651 0
M  V30 5752 H 560.998 6.27151 -3.02745 0
M  V30 5753 H 558.625 6.69768 -3.59604 0
M  V30 5754 N 560.2 0.0768682 1.57412 0
M  V30 5755 C 561.132 -0.918248 2.10002 0
M  V30 5756 C 562.145 -1.25808 1.03325 0
M  V30 5757 O 563.334 -1.21438 1.30824 0
M  V30 5758 C 560.434 -2.23263 2.54964 0
M  V30 5759 C 559.607 -2.07088 3.8527 0
M  V30 5760 C 558.666 -3.21876 4.16272 0
M  V30 5761 O 557.692 -2.96643 4.8579 0
M  V30 5762 N 558.894 -4.4712 3.70221 0
M  V30 5763 H 561.659 -0.469209 2.96004 0
M  V30 5764 H 559.22 -0.108725 1.61535 0
M  V30 5765 H 561.212 -2.9897 2.72762 0
M  V30 5766 H 559.782 -2.59649 1.74072 0
M  V30 5767 H 559.002 -1.15818 3.76802 0
M  V30 5768 H 560.29 -1.93537 4.70554 0
M  V30 5769 H 559.688 -4.70506 3.1407 0
M  V30 5770 H 558.245 -5.19837 3.93209 0
M  V30 5771 N 561.678 -1.56367 -0.196722 0
M  V30 5772 C 562.955 -1.71359 -0.943159 0
M  V30 5773 C 563.335 -0.631192 -2.01443 0
M  V30 5774 O 562.683 0.358071 -2.25677 0
M  V30 5775 C 562.893 -3.13623 -1.53106 0
M  V30 5776 C 564.241 -3.73806 -2.01381 0
M  V30 5777 O 565.265 -3.16742 -1.62951 0
M  V30 5778 O 564.124 -4.73951 -2.7209 0
M  V30 5779 H 561.218 -0.698851 -0.442195 0
M  V30 5780 H 563.764 -1.68672 -0.186547 0
M  V30 5781 H 562.536 -3.83873 -0.758785 0
M  V30 5782 H 562.159 -3.20532 -2.35255 0
M  V30 5783 N 563.156 0.464375 -1.50603 0
M  V30 5784 C 564.086 1.56944 -1.72889 0
M  V30 5785 C 565.067 1.59979 -0.577997 0
M  V30 5786 O 566.252 1.76138 -0.817855 0
M  V30 5787 C 563.382 2.95225 -1.8292 0
M  V30 5788 C 562.336 3.07056 -2.98162 0
M  V30 5789 C 561.662 4.47051 -2.93343 0
M  V30 5790 C 562.962 2.83648 -4.38567 0
M  V30 5791 H 564.656 1.38547 -2.65415 0
M  V30 5792 H 562.202 0.665082 -1.27721 0
M  V30 5793 H 564.155 3.72467 -1.97095 0
M  V30 5794 H 562.879 3.14793 -0.870209 0
M  V30 5795 H 561.538 2.32248 -2.83648 0
M  V30 5796 H 561.186 4.63547 -1.95276 0
M  V30 5797 H 560.886 4.55902 -3.70712 0
M  V30 5798 H 562.41 5.26304 -3.09575 0
M  V30 5799 H 563.824 3.50636 -4.53572 0
M  V30 5800 H 562.221 3.03937 -5.17438 0
M  V30 5801 H 563.291 1.79451 -4.50472 0
M  V30 5802 N 564.634 1.40294 0.718013 0
M  V30 5803 C 565.859 1.41941 1.5122 0
M  V30 5804 C 566.284 0.0202371 1.88089 0
M  V30 5805 O 565.642 -0.971078 1.53101 0
M  V30 5806 C 565.69 2.3141 2.76554 0
M  V30 5807 O 564.794 1.75567 3.73162 0
M  V30 5808 H 564.135 0.482644 0.456016 0
M  V30 5809 H 566.665 1.84494 0.884478 0
M  V30 5810 H 566.675 2.46513 3.25108 0
M  V30 5811 H 565.35 3.33085 2.49053 0
M  V30 5812 H 563.927 1.69798 3.31999 0
M  V30 5813 N 566.112 -0.949982 1.2575 0
M  V30 5814 C 567.337 -1.73503 1.13628 0
M  V30 5815 C 567.762 -1.85601 -0.30559 0
M  V30 5816 O 567.12 -1.33984 -1.22139 0
M  V30 5817 C 567.168 -3.1243 1.80055 0
M  V30 5818 O 566.272 -3.97916 1.08336 0
M  V30 5819 H 565.613 -0.532665 0.396439 0
M  V30 5820 H 568.143 -1.19043 1.66403 0
M  V30 5821 H 568.153 -3.62866 1.86527 0
M  V30 5822 H 566.828 -3.02941 2.84956 0
M  V30 5823 H 565.405 -3.56375 1.09777 0
M  V30 5824 N 567.59 -1.07411 -1.15328 0
M  V30 5825 C 568.815 -0.818856 -1.90551 0
M  V30 5826 C 569.24 0.622194 -1.77512 0
M  V30 5827 O 568.598 1.43484 -1.10824 0
M  V30 5828 C 568.646 -1.23267 -3.38877 0
M  V30 5829 O 567.75 -0.378345 -4.10661 0
M  V30 5830 H 567.091 -0.29827 -0.593238 0
M  V30 5831 H 569.621 -1.43289 -1.46046 0
M  V30 5832 H 569.631 -1.20912 -3.89672 0
M  V30 5833 H 568.306 -2.28226 -3.47686 0
M  V30 5834 H 566.883 -0.464437 -3.69996 0
M  V30 5835 N 569.068 1.32177 -0.85831 0
M  V30 5836 C 570.317 1.96392 -0.459689 0
M  V30 5837 C 570.63 1.68659 0.990632 0
M  V30 5838 O 571.836 2.26641 1.49485 0
M  V30 5839 C 570.292 3.51542 -0.7711 0
M  V30 5840 C 569.9 3.8813 -2.2374 0
M  V30 5841 C 571.644 4.2221 -0.44038 0
M  V30 5842 C 569.551 5.36341 -2.49183 0
M  V30 5843 H 568.481 0.735007 -0.168169 0
M  V30 5844 H 571.132 1.50518 -1.0496 0
M  V30 5845 H 569.514 3.95846 -0.11058 0
M  V30 5846 H 570.688 3.54824 -2.94001 0
M  V30 5847 H 569.003 3.30497 -2.533 0
M  V30 5848 H 571.6 5.31234 -0.607855 0
M  V30 5849 H 571.943 4.11683 0.618291 0
M  V30 5850 H 572.476 3.83502 -1.05695 0
M  V30 5851 H 569.215 5.51892 -3.53689 0
M  V30 5852 H 568.735 5.7104 -1.83504 0
M  V30 5853 H 570.414 6.03466 -2.33318 0
M  V30 5854 N 570.547 0.616602 1.45037 0
M  V30 5855 C 571.477 -0.0840787 2.33349 0
M  V30 5856 C 572.458 -0.849641 1.4736 0
M  V30 5857 O 573.643 -0.818407 1.76113 0
M  V30 5858 C 570.773 -1.07604 3.3021 0
M  V30 5859 C 569.727 -0.423096 4.25904 0
M  V30 5860 C 569.053 -1.52394 5.12523 0
M  V30 5861 C 570.353 0.661457 5.18095 0
M  V30 5862 H 572.047 0.653333 2.92185 0
M  V30 5863 H 569.593 0.315634 1.40498 0
M  V30 5864 H 571.546 -1.57485 3.90866 0
M  V30 5865 H 570.27 -1.84416 2.69552 0
M  V30 5866 H 568.929 0.05493 3.66559 0
M  V30 5867 H 568.577 -2.28257 4.48227 0
M  V30 5868 H 568.277 -1.09251 5.77354 0
M  V30 5869 H 569.801 -2.02485 5.76049 0
M  V30 5870 H 571.215 0.246353 5.7277 0
M  V30 5871 H 569.612 1.01517 5.91451 0
M  V30 5872 H 570.682 1.53446 4.59981 0
M  V30 5873 N 572.025 -1.5352 0.356285 0
M  V30 5874 C 572.988 -2.24071 -0.482182 0
M  V30 5875 C 573.988 -1.24531 -1.01729 0
M  V30 5876 O 575.178 -1.48876 -0.904513 0
M  V30 5877 C 572.31 -2.97025 -1.67299 0
M  V30 5878 H 573.503 -2.99596 0.135031 0
M  V30 5879 H 571.056 -1.55928 0.107825 0
M  V30 5880 H 571.791 -2.25719 -2.32855 0
M  V30 5881 H 571.576 -3.7005 -1.29636 0
M  V30 5882 H 573.066 -3.50683 -2.26741 0
M  V30 5883 N 573.503 -0.0852151 -1.57369 0
M  V30 5884 C 574.435 0.907099 -2.10486 0
M  V30 5885 C 575.448 1.25259 -1.03991 0
M  V30 5886 O 576.637 1.20743 -1.31467 0
M  V30 5887 C 573.737 2.21908 -2.56145 0
M  V30 5888 C 572.91 2.05042 -3.86363 0
M  V30 5889 C 571.969 3.19664 -4.17973 0
M  V30 5890 O 570.995 2.94062 -4.87356 0
M  V30 5891 N 572.197 4.45151 -3.72587 0
M  V30 5892 H 574.962 0.453505 -2.96249 0
M  V30 5893 H 572.523 0.100157 -1.6159 0
M  V30 5894 H 574.515 2.97519 -2.74343 0
M  V30 5895 H 573.085 2.58723 -1.75446 0
M  V30 5896 H 572.305 1.13819 -3.77411 0
M  V30 5897 H 573.593 1.91039 -4.71574 0
M  V30 5898 H 572.991 4.68834 -3.16561 0
M  V30 5899 H 571.548 5.17744 -3.9596 0
M  V30 5900 N 574.981 1.5647 0.188427 0
M  V30 5901 C 576.206 1.85486 0.927891 0
M  V30 5902 C 576.631 0.669575 1.75779 0
M  V30 5903 O 575.989 -0.381573 1.77239 0
M  V30 5904 C 576.037 3.12784 1.7944 0
M  V30 5905 O 575.141 2.93805 2.894 0
M  V30 5906 H 574.482 0.610585 0.260925 0
M  V30 5907 H 577.012 2.037 0.191729 0
M  V30 5908 H 577.022 3.43749 2.19774 0
M  V30 5909 H 575.697 3.98671 1.18468 0
M  V30 5910 H 574.274 2.74153 2.52774 0
M  V30 5911 N 576.459 -0.456382 1.50847 0
M  V30 5912 C 577.875 -0.791345 1.386 0
M  V30 5913 C 578.075 -1.9633 0.453498 0
M  V30 5914 O 577.131 -2.52308 -0.0984353 0
M  V30 5915 C 578.444 -1.08959 2.80265 0
M  V30 5916 C 579.992 -1.19517 2.89283 0
M  V30 5917 C 580.467 -1.52647 4.31814 0
M  V30 5918 N 581.958 -1.59609 4.34832 0
M  V30 5919 C 582.693 -1.86777 5.42127 0
M  V30 5920 N 582.189 -2.11866 6.59609 0
M  V30 5921 N 583.982 -1.88402 5.29586 0
M  V30 5922 H 576.133 0.315746 2.1004 0
M  V30 5923 H 578.396 0.0787916 0.94472 0
M  V30 5924 H 578.102 -0.301355 3.50407 0
M  V30 5925 H 577.976 -2.02211 3.18419 0
M  V30 5926 H 580.363 -1.97406 2.19351 0
M  V30 5927 H 580.444 -0.242111 2.54652 0
M  V30 5928 H 580.088 -0.752922 5.02288 0
M  V30 5929 H 580.018 -2.49127 4.63943 0
M  V30 5930 H 582.509 -1.42201 3.50125 0
M  V30 5931 H 582.822 -2.31912 7.37182 0
M  V30 5932 H 581.167 -2.09228 6.62758 0
M  V30 5933 H 584.358 -1.68307 4.36795 0
M  V30 5934 H 584.531 -2.09238 6.13289 0
M  V30 5935 N 577.937 -1.40673 -0.710563 0
M  V30 5936 C 578.847 -1.43663 -1.85467 0
M  V30 5937 C 579.863 -0.328721 -1.70867 0
M  V30 5938 O 581.039 -0.574098 -1.93044 0
M  V30 5939 C 578.104 -1.30226 -3.21313 0
M  V30 5940 C 577.165 -2.51204 -3.48131 0
M  V30 5941 C 576.398 -2.38398 -4.77495 0
M  V30 5942 O 576.621 -1.40048 -5.5294 0
M  V30 5943 O 575.555 -3.2787 -5.04762 0
M  V30 5944 H 579.381 -2.40156 -1.859 0
M  V30 5945 H 576.966 -1.22049 -0.861652 0
M  V30 5946 H 578.848 -1.2496 -4.02446 0
M  V30 5947 H 577.523 -0.368419 -3.21597 0
M  V30 5948 H 576.43 -2.62048 -2.66987 0
M  V30 5949 H 577.763 -3.43366 -3.52648 0
M  V30 5950 N 579.415 0.9433 -1.26252 0
M  V30 5951 C 580.831 1.21644 -1.03319 0
M  V30 5952 C 581.031 2.0003 0.242983 0
M  V30 5953 O 580.087 2.33838 0.952688 0
M  V30 5954 C 581.4 1.97978 -2.2633 0
M  V30 5955 C 582.948 2.10978 -2.31209 0
M  V30 5956 C 583.423 2.90713 -3.53907 0
M  V30 5957 N 584.914 2.98287 -3.54371 0
M  V30 5958 C 585.649 3.60406 -4.45976 0
M  V30 5959 N 585.145 4.24043 -5.47868 0
M  V30 5960 N 586.938 3.57658 -4.33633 0
M  V30 5961 H 579.089 0.419221 -2.08222 0
M  V30 5962 H 581.352 0.247995 -0.914988 0
M  V30 5963 H 581.058 1.47788 -3.19142 0
M  V30 5964 H 580.932 2.9865 -2.30408 0
M  V30 5965 H 583.319 2.6036 -1.38913 0
M  V30 5966 H 583.4 1.09575 -2.31143 0
M  V30 5967 H 583.044 2.42018 -4.46531 0
M  V30 5968 H 582.974 3.92367 -3.5122 0
M  V30 5969 H 585.465 2.53044 -2.80673 0
M  V30 5970 H 585.778 4.69334 -6.13959 0
M  V30 5971 H 584.123 4.22637 -5.51728 0
M  V30 5972 H 587.314 3.07134 -3.53251 0
M  V30 5973 H 587.487 4.05782 -5.05218 0
M  V30 5974 N 580.893 1.08022 1.14757 0
M  V30 5975 C 582.139 0.808705 1.85978 0
M  V30 5976 C 582.472 -0.663764 1.82504 0
M  V30 5977 O 581.747 -1.48765 1.25296 0
M  V30 5978 C 582.03 1.32623 3.34788 0
M  V30 5979 C 581.883 2.86375 3.46856 0
M  V30 5980 C 583.202 0.948291 4.29762 0
M  V30 5981 H 580.321 0.295244 0.675278 0
M  V30 5982 H 582.963 1.33917 1.34783 0
M  V30 5983 H 581.113 0.875002 3.78518 0
M  V30 5984 H 582.785 3.39839 3.11941 0
M  V30 5985 H 581.028 3.24232 2.88194 0
M  V30 5986 H 581.699 3.17658 4.51439 0
M  V30 5987 H 584.175 1.33722 3.94028 0
M  V30 5988 H 583.051 1.33765 5.32352 0
M  V30 5989 H 583.312 -0.145094 4.41862 0
M  V30 5990 N 582.371 -1.3172 0.865308 0
M  V30 5991 C 583.334 -2.26918 0.322627 0
M  V30 5992 C 584.334 -1.52031 -0.523751 0
M  V30 5993 O 585.524 -1.70973 -0.333727 0
M  V30 5994 C 582.656 -3.36558 -0.542338 0
M  V30 5995 H 583.849 -2.76432 1.16298 0
M  V30 5996 H 581.402 -1.42573 0.640512 0
M  V30 5997 H 582.137 -2.92329 -1.40407 0
M  V30 5998 H 581.922 -3.92048 0.0636395 0
M  V30 5999 H 583.412 -4.07465 -0.91446 0
M  V30 6000 N 583.85 -0.624285 -1.44708 0
M  V30 6001 C 585.075 -0.131171 -2.06985 0
M  V30 6002 C 585.5 1.18234 -1.46295 0
M  V30 6003 O 584.858 1.72375 -0.561842 0
M  V30 6004 C 584.906 -0.0226724 -3.60593 0
M  V30 6005 O 584.01 1.02314 -3.99507 0
M  V30 6006 H 583.351 -0.0816556 -0.65896 0
M  V30 6007 H 585.88 -0.859027 -1.85693 0
M  V30 6008 H 585.891 0.170138 -4.07645 0
M  V30 6009 H 584.566 -0.981685 -4.04148 0
M  V30 6010 H 583.143 0.805452 -3.64097 0
M  V30 6011 N 585.328 1.53329 -0.364422 0
M  V30 6012 C 586.291 2.24323 0.470292 0
M  V30 6013 C 587.291 1.25068 1.01067 0
M  V30 6014 O 588.481 1.49354 0.896605 0
M  V30 6015 C 585.613 2.97908 1.65722 0
M  V30 6016 H 586.806 2.9952 -0.150917 0
M  V30 6017 H 584.359 1.55868 -0.116092 0
M  V30 6018 H 585.094 2.2695 2.31655 0
M  V30 6019 H 584.879 3.70732 1.27671 0
M  V30 6020 H 586.369 3.5188 2.24878 0
M  V30 6021 N 586.806 0.0935595 1.57322 0
M  V30 6022 C 588.222 -0.263091 1.57417 0
M  V30 6023 C 588.422 -1.68526 1.1046 0
M  V30 6024 O 587.478 -2.40139 0.780357 0
M  V30 6025 C 588.791 -0.0529201 3.00653 0
M  V30 6026 C 590.339 -0.120788 3.12767 0
M  V30 6027 C 590.814 0.0613707 4.57959 0
M  V30 6028 N 592.305 0.00648534 4.632 0
M  V30 6029 C 593.04 0.122699 5.73269 0
M  V30 6030 N 592.536 0.29366 6.92177 0
M  V30 6031 N 594.329 0.0640787 5.62063 0
M  V30 6032 H 586.48 1.02277 1.86154 0
M  V30 6033 H 588.743 0.4007 0.859153 0
M  V30 6034 H 588.449 0.929279 3.39201 0
M  V30 6035 H 588.323 -0.795899 3.68708 0
M  V30 6036 H 590.71 -1.09349 2.74093 0
M  V30 6037 H 590.791 0.653656 2.47307 0
M  V30 6038 H 590.435 1.03093 4.97327 0
M  V30 6039 H 590.365 -0.732748 5.21477 0
M  V30 6040 H 592.856 -0.123173 3.77699 0
M  V30 6041 H 593.169 0.37389 7.71895 0
M  V30 6042 H 591.514 0.329307 6.94219 0
M  V30 6043 H 594.705 -0.0683396 4.6805 0
M  V30 6044 H 594.878 0.158097 6.47807 0
M  V30 6045 N 588.284 -1.56567 -0.180126 0
M  V30 6046 C 589.194 -1.98947 -1.24327 0
M  V30 6047 C 590.21 -0.899446 -1.4895 0
M  V30 6048 O 591.386 -1.20639 -1.61271 0
M  V30 6049 C 588.451 -2.33328 -2.56435 0
M  V30 6050 C 587.512 -3.56114 -2.39752 0
M  V30 6051 C 586.745 -3.88845 -3.65561 0
M  V30 6052 O 586.968 -3.22662 -4.70368 0
M  V30 6053 O 585.902 -4.82226 -3.60197 0
M  V30 6054 H 589.728 -2.89634 -0.913565 0
M  V30 6055 H 587.313 -1.44319 -0.386306 0
M  V30 6056 H 589.195 -2.5645 -3.34382 0
M  V30 6057 H 587.87 -1.45806 -2.89002 0
M  V30 6058 H 586.777 -3.38221 -1.59866 0
M  V30 6059 H 588.11 -4.4415 -2.12113 0
M  V30 6060 N 589.762 0.448376 -1.51087 0
M  V30 6061 C 590.725 1.52588 -1.71025 0
M  V30 6062 C 591.725 1.49958 -0.580442 0
M  V30 6063 O 592.915 1.52176 -0.847833 0
M  V30 6064 C 590.047 2.92163 -1.75652 0
M  V30 6065 H 591.24 1.36218 -2.67179 0
M  V30 6066 H 588.793 0.676313 -1.4091 0
M  V30 6067 H 589.528 3.13951 -0.812724 0
M  V30 6068 H 589.313 2.95478 -2.57751 0
M  V30 6069 H 590.803 3.70349 -1.92953 0
M  V30 6070 N 591.24 1.41047 0.703093 0
M  V30 6071 C 592.17 1.45067 1.82969 0
M  V30 6072 C 593.151 0.31016 1.67248 0
M  V30 6073 O 594.336 0.520548 1.87093 0
M  V30 6074 C 591.466 1.32478 3.2104 0
M  V30 6075 C 590.42 2.44262 3.51454 0
M  V30 6076 C 589.746 2.16742 4.88801 0
M  V30 6077 C 591.046 3.86606 3.51189 0
M  V30 6078 H 592.74 2.39353 1.79863 0
M  V30 6079 H 590.286 1.15206 0.863919 0
M  V30 6080 H 592.239 1.33904 3.99559 0
M  V30 6081 H 590.963 0.346735 3.24754 0
M  V30 6082 H 589.622 2.42107 2.75282 0
M  V30 6083 H 589.27 1.17299 4.89132 0
M  V30 6084 H 588.97 2.91643 5.10116 0
M  V30 6085 H 590.494 2.19872 5.69639 0
M  V30 6086 H 591.908 3.90517 4.19725 0
M  V30 6087 H 590.305 4.61128 3.84033 0
M  V30 6088 H 591.375 4.15296 2.50315 0
M  V30 6089 N 592.718 -0.936591 1.26751 0
M  V30 6090 C 593.995 -1.66094 1.03306 0
M  V30 6091 C 594.375 -2.06568 -0.435058 0
M  V30 6092 O 593.723 -1.79305 -1.41641 0
M  V30 6093 C 593.933 -2.86969 1.98619 0
M  V30 6094 C 595.281 -3.58516 2.27489 0
M  V30 6095 O 596.305 -2.97082 1.96522 0
M  V30 6096 O 595.164 -4.69181 2.80235 0
M  V30 6097 H 592.258 -0.727568 0.393158 0
M  V30 6098 H 594.804 -0.987914 1.3798 0
M  V30 6099 H 593.576 -2.53985 2.9767 0
M  V30 6100 H 593.199 -3.61996 1.64454 0
M  V30 6101 N 594.196 -1.08629 -1.14182 0
M  V30 6102 C 595.146 -0.687882 -2.17376 0
M  V30 6103 C 596.13 0.293632 -1.58198 0
M  V30 6104 O 597.322 0.105292 -1.76687 0
M  V30 6105 C 594.451 -0.101184 -3.43151 0
M  V30 6106 C 593.537 -1.10862 -4.09354 0
M  V30 6107 N 593.928 -2.29285 -4.50846 0
M  V30 6108 C 592.226 -0.944897 -4.35876 0
M  V30 6109 C 592.927 -2.93305 -5.02342 0
M  V30 6110 N 591.903 -2.20903 -4.96692 0
M  V30 6111 H 595.705 -1.58963 -2.472 0
M  V30 6112 H 593.219 -0.961329 -1.3089 0
M  V30 6113 H 595.216 0.202209 -4.16409 0
M  V30 6114 H 593.876 0.795522 -3.14804 0
M  V30 6115 H 594.887 -2.66927 -4.43813 0
M  V30 6116 H 591.564 -0.102186 -4.17375 0
M  V30 6117 H 592.954 -3.93932 -5.44304 0
M  V30 6118 N 595.674 1.31259 -0.872281 0
M  V30 6119 C 596.607 2.26544 -0.274394 0
M  V30 6120 C 597.585 1.51213 0.597776 0
M  V30 6121 O 598.769 1.80277 0.550687 0
M  V30 6122 C 595.896 3.33139 0.611256 0
M  V30 6123 C 594.942 4.26077 -0.189876 0
M  V30 6124 S 595.775 5.11971 -1.56989 0
M  V30 6125 C 596.931 6.2208 -0.690427 0
M  V30 6126 H 597.164 2.76908 -1.0821 0
M  V30 6127 H 594.697 1.3906 -0.670939 0
M  V30 6128 H 596.655 3.95024 1.11654 0
M  V30 6129 H 595.316 2.81525 1.39294 0
M  V30 6130 H 594.509 5.01657 0.485433 0
M  V30 6131 H 594.111 3.68701 -0.627339 0
M  V30 6132 H 596.403 6.77429 0.098001 0
M  V30 6133 H 597.346 6.93768 -1.41742 0
M  V30 6134 H 597.754 5.63915 -0.256953 0
M  V30 6135 N 597.152 0.631951 1.44375 0
M  V30 6136 C 598.398 0.13697 2.02337 0
M  V30 6137 C 598.731 -1.23826 1.49602 0
M  V30 6138 O 598.006 -1.8221 0.680415 0
M  V30 6139 C 598.289 0.124536 3.59885 0
M  V30 6140 C 598.142 1.53217 4.229 0
M  V30 6141 C 599.461 -0.550481 4.36644 0
M  V30 6142 H 596.58 0.051247 0.735216 0
M  V30 6143 H 599.222 0.808581 1.71936 0
M  V30 6144 H 597.372 -0.44737 3.85916 0
M  V30 6145 H 599.044 2.15303 4.07973 0
M  V30 6146 H 597.287 2.0858 3.80364 0
M  V30 6147 H 597.958 1.4755 5.31914 0
M  V30 6148 H 600.434 -0.0641154 4.16051 0
M  V30 6149 H 599.31 -0.528371 5.46351 0
M  V30 6150 H 599.571 -1.62097 4.11311 0
M  V30 6151 N 598.631 -1.53133 0.372548 0
M  V30 6152 C 599.541 -2.29671 -0.478379 0
M  V30 6153 C 600.557 -1.35913 -1.08644 0
M  V30 6154 O 601.733 -1.68975 -1.09588 0
M  V30 6155 C 598.798 -3.07625 -1.599 0
M  V30 6156 C 597.859 -4.17061 -1.01776 0
M  V30 6157 C 597.092 -4.91289 -2.08497 0
M  V30 6158 O 597.315 -4.65442 -3.29727 0
M  V30 6159 O 596.249 -5.7705 -1.71164 0
M  V30 6160 H 600.075 -3.03355 0.144649 0
M  V30 6161 H 597.66 -1.48773 0.136729 0
M  V30 6162 H 599.542 -3.56281 -2.25038 0
M  V30 6163 H 598.217 -2.3677 -2.2073 0
M  V30 6164 H 597.124 -3.72641 -0.330098 0
M  V30 6165 H 598.457 -4.90102 -0.453915 0
M  V30 6166 N 600.109 -0.101901 -1.5727 0
M  V30 6167 C 601.339 0.567568 -1.98651 0
M  V30 6168 C 601.747 1.61839 -0.980037 0
M  V30 6169 O 601.09 1.83661 0.0376564 0
M  V30 6170 C 601.152 1.26742 -3.36417 0
M  V30 6171 C 600.816 0.366561 -4.55528 0
M  V30 6172 C 601.813 -0.388022 -5.1845 0
M  V30 6173 C 599.498 0.282629 -5.01504 0
M  V30 6174 C 601.492 -1.21445 -6.25724 0
M  V30 6175 C 599.179 -0.547443 -6.08643 0
M  V30 6176 C 600.177 -1.29462 -6.70618 0
M  V30 6177 O 599.865 -2.11095 -7.7569 0
M  V30 6178 H 599.597 0.156282 -0.657687 0
M  V30 6179 H 602.151 -0.179912 -2.04611 0
M  V30 6180 H 600.381 2.06162 -3.27161 0
M  V30 6181 H 602.07 1.8321 -3.622 0
M  V30 6182 H 602.836 -0.332949 -4.83856 0
M  V30 6183 H 598.715 0.853868 -4.53023 0
M  V30 6184 H 602.259 -1.79814 -6.74027 0
M  V30 6185 H 598.156 -0.603971 -6.42668 0
M  V30 6186 H 598.924 -2.03851 -7.92709 0
M  V30 6187 N 601.587 1.56661 0.17182 0
M  V30 6188 C 602.833 1.82235 0.889845 0
M  V30 6189 C 603.166 0.679673 1.81918 0
M  V30 6190 O 602.441 -0.318404 1.91876 0
M  V30 6191 C 602.724 3.18195 1.68595 0
M  V30 6192 C 602.577 4.42989 0.779773 0
M  V30 6193 C 603.896 3.5109 2.65375 0
M  V30 6194 H 601.015 0.66291 0.322056 0
M  V30 6195 H 603.657 1.89358 0.15608 0
M  V30 6196 H 601.807 3.12253 2.3115 0
M  V30 6197 H 603.479 4.60997 0.16714 0
M  V30 6198 H 601.722 4.33711 0.0877964 0
M  V30 6199 H 602.393 5.3467 1.3723 0
M  V30 6200 H 604.869 3.57482 2.12946 0
M  V30 6201 H 603.745 4.47298 3.18144 0
M  V30 6202 H 604.006 2.75768 3.45549 0
M  V30 6203 N 603.065 -0.440357 1.51323 0
M  V30 6204 C 604.028 -1.51679 1.71832 0
M  V30 6205 C 605.028 -1.49648 0.588386 0
M  V30 6206 O 606.218 -1.51724 0.855891 0
M  V30 6207 C 603.35 -2.91228 1.77199 0
M  V30 6208 H 604.543 -1.34799 2.67898 0
M  V30 6209 H 602.096 -0.66883 1.41267 0
M  V30 6210 H 602.831 -3.13516 0.829363 0
M  V30 6211 H 602.616 -2.94107 2.59314 0
M  V30 6212 H 604.106 -3.69321 1.94915 0
M  V30 6213 N 604.543 -1.41418 -0.695603 0
M  V30 6214 C 605.475 -1.39195 -1.82092 0
M  V30 6215 C 606.488 -0.294132 -1.60121 0
M  V30 6216 O 607.677 -0.555854 -1.69625 0
M  V30 6217 C 604.777 -1.14828 -3.18854 0
M  V30 6218 C 603.95 -2.36649 -3.67853 0
M  V30 6219 C 603.009 -2.08139 -4.83285 0
M  V30 6220 O 602.035 -2.81177 -4.94902 0
M  V30 6221 N 603.237 -1.07162 -5.70523 0
M  V30 6222 H 606.002 -2.36185 -1.84491 0
M  V30 6223 H 603.563 -1.3603 -0.877923 0
M  V30 6224 H 605.555 -0.937075 -3.93702 0
M  V30 6225 H 604.125 -0.264358 -3.1148 0
M  V30 6226 H 603.345 -2.73472 -2.83913 0
M  V30 6227 H 604.633 -3.17816 -3.97329 0
M  V30 6228 H 604.031 -0.467124 -5.63768 0
M  V30 6229 H 602.588 -0.920311 -6.4527 0
M  V30 6230 N 606.021 0.929856 -1.27246 0
M  V30 6231 C 606.969 2.05151 -1.09616 0
M  V30 6232 C 607.963 1.69388 -0.0198617 0
M  V30 6233 O 609.169 1.79124 -0.177417 0
M  V30 6234 H 605.544 0.671909 -0.337701 0
M  V30 6235 H 607.515 2.17168 -2.04648 0
M  V30 6236 C 606.264 3.3934 -0.757851 0
M  V30 6237 H 605.587 3.67343 -1.57795 0
M  V30 6238 H 607.027 4.18603 -0.674358 0
M  V30 6239 C 605.486 3.32582 0.537658 0
M  V30 6240 O 606.016 3.69633 1.57271 0
M  V30 6241 N 604.222 2.8568 0.532478 0
M  V30 6242 H 603.769 2.55725 -0.310233 0
M  V30 6243 H 603.727 2.81541 1.39936 0
M  V30 6244 N 607.499 1.09233 1.13605 0
M  V30 6245 C 608.727 0.848908 1.88683 0
M  V30 6246 C 609.142 -0.599667 1.79024 0
M  V30 6247 O 608.499 -1.41265 1.15544 0
M  V30 6248 C 608.55 1.27273 3.38355 0
M  V30 6249 O 608.271 2.66449 3.47759 0
M  V30 6250 C 609.772 1.0614 4.30406 0
M  V30 6251 H 606.992 0.305549 0.597395 0
M  V30 6252 H 609.536 1.4538 1.43823 0
M  V30 6253 H 607.691 0.711776 3.80805 0
M  V30 6254 H 608.105 2.84264 4.40788 0
M  V30 6255 H 609.579 1.40725 5.33761 0
M  V30 6256 H 610.056 -0.000960332 4.392 0
M  V30 6257 H 610.662 1.60821 3.93722 0
M  V30 6258 N 608.977 -1.30795 0.87923 0
M  V30 6259 C 610.388 -1.78535 0.546093 0
M  V30 6260 C 610.739 -1.72354 -0.937467 0
M  V30 6261 O 609.864 -1.2969 -1.73233 0
M  V30 6262 C 610.459 -3.24181 0.9845 0
M  V30 6263 C 609.018 -3.69779 0.702871 0
M  V30 6264 C 608.165 -2.51377 1.17068 0
M  V30 6265 H 611.116 -1.17746 1.06403 0
M  V30 6266 H 611.137 -3.79227 0.311045 0
M  V30 6267 H 610.649 -3.28647 2.06429 0
M  V30 6268 H 608.75 -3.70806 -0.365166 0
M  V30 6269 H 608.863 -4.61507 1.28639 0
M  V30 6270 H 607.227 -2.47768 0.590172 0
M  V30 6271 H 608.01 -2.58584 2.25808 0
M  V30 6272 N 610.455 -0.639598 -1.44038 0
M  V30 6273 C 611.701 -0.147698 -2.02261 0
M  V30 6274 C 612.034 1.23031 -1.50256 0
M  V30 6275 O 611.309 1.81847 -0.690068 0
M  V30 6276 C 611.592 -0.14362 -3.59813 0
M  V30 6277 C 611.445 -1.55458 -4.22082 0
M  V30 6278 C 612.764 0.527317 -4.36929 0
M  V30 6279 H 609.883 -0.0551453 -0.734934 0
M  V30 6280 H 612.525 -0.817688 -1.71505 0
M  V30 6281 H 610.675 0.426898 -3.86147 0
M  V30 6282 H 612.347 -2.17464 -4.06826 0
M  V30 6283 H 610.59 -2.10594 -3.79253 0
M  V30 6284 H 611.261 -1.50369 -5.31124 0
M  V30 6285 H 613.737 0.0420504 -4.16079 0
M  V30 6286 H 612.613 0.499389 -5.46624 0
M  V30 6287 H 612.874 1.59914 -4.12165 0
M  V30 6288 N 611.933 1.52934 -0.380664 0
M  V30 6289 C 613.161 2.05886 0.204599 0
M  V30 6290 C 613.576 1.25305 1.41223 0
M  V30 6291 O 612.933 0.297504 1.80059 0
M  V30 6292 C 612.984 3.56764 0.583249 0
M  V30 6293 O 612.705 4.34292 -0.576398 0
M  V30 6294 C 614.206 4.2603 1.2253 0
M  V30 6295 H 611.426 0.670193 0.0328991 0
M  V30 6296 H 613.97 1.97148 -0.543397 0
M  V30 6297 H 612.125 3.65603 1.28115 0
M  V30 6298 H 612.539 5.23819 -0.267119 0
M  V30 6299 H 614.013 5.32868 1.44068 0
M  V30 6300 H 614.49 3.80698 2.19011 0
M  V30 6301 H 615.096 4.21485 0.568407 0
M  V30 6302 N 613.412 0.11024 1.57214 0
M  V30 6303 C 614.658 -0.544479 1.95977 0
M  V30 6304 C 615.013 -1.64845 0.992171 0
M  V30 6305 O 614.306 -1.91589 0.0206981 0
M  V30 6306 C 614.5 -1.13102 3.39032 0
M  V30 6307 C 614.329 -0.0854079 4.49619 0
M  V30 6308 C 613.099 0.343373 5.04132 0
M  V30 6309 C 615.297 0.692232 5.0962 0
M  V30 6310 N 613.279 1.37567 5.98288 0
M  V30 6311 C 614.65 1.57596 5.99636 0
M  V30 6312 C 616.705 0.744085 4.92309 0
M  V30 6313 C 615.408 2.50701 6.74197 0
M  V30 6314 C 617.434 1.6628 5.67543 0
M  V30 6315 C 616.796 2.53412 6.57238 0
M  V30 6316 H 612.895 -0.169124 0.763493 0
M  V30 6317 H 615.479 0.196326 1.93708 0
M  V30 6318 H 613.65 -1.84158 3.41965 0
M  V30 6319 H 615.382 -1.74934 3.64939 0
M  V30 6320 H 612.137 -0.0473277 4.73576 0
M  V30 6321 H 612.561 1.89048 6.50069 0
M  V30 6322 H 617.203 0.0845825 4.22715 0
M  V30 6323 H 614.921 3.17669 7.43043 0
M  V30 6324 H 618.507 1.70825 5.56156 0
M  V30 6325 H 617.387 3.23347 7.14434 0
M  V30 6326 N 614.89 -1.56749 -0.16351 0
M  V30 6327 C 615.82 -2.00042 -1.20438 0
M  V30 6328 C 616.801 -0.877256 -1.45733 0
M  V30 6329 O 617.986 -1.1439 -1.56935 0
M  V30 6330 C 615.116 -2.36697 -2.54149 0
M  V30 6331 C 614.07 -3.52046 -2.43408 0
M  V30 6332 C 613.396 -3.74466 -3.81679 0
M  V30 6333 C 614.696 -4.85247 -1.93216 0
M  V30 6334 H 616.39 -2.87244 -0.844477 0
M  V30 6335 H 613.936 -1.38194 -0.40478 0
M  V30 6336 H 615.889 -2.65582 -3.27176 0
M  V30 6337 H 614.613 -1.46414 -2.91943 0
M  V30 6338 H 613.272 -3.23301 -1.72834 0
M  V30 6339 H 612.92 -2.81461 -4.1688 0
M  V30 6340 H 612.62 -4.52084 -3.75359 0
M  V30 6341 H 614.144 -4.0576 -4.5628 0
M  V30 6342 H 615.558 -5.12957 -2.56023 0
M  V30 6343 H 613.955 -5.66556 -1.97825 0
M  V30 6344 H 615.025 -4.7672 -0.88689 0
M  V30 6345 N 616.368 0.432326 -1.51554 0
M  V30 6346 C 617.614 1.18309 -1.64714 0
M  V30 6347 C 617.947 1.90745 -0.364696 0
M  V30 6348 O 617.222 1.8381 0.635936 0
M  V30 6349 C 617.505 2.1961 -2.85383 0
M  V30 6350 C 617.358 1.51223 -4.23617 0
M  V30 6351 C 618.677 3.20538 -3.01569 0
M  V30 6352 H 615.796 0.428751 -0.599451 0
M  V30 6353 H 618.438 0.471689 -1.84052 0
M  V30 6354 H 616.588 2.8028 -2.69027 0
M  V30 6355 H 618.26 0.938516 -4.51652 0
M  V30 6356 H 616.503 0.814501 -4.26085 0
M  V30 6357 H 617.174 2.25024 -5.04052 0
M  V30 6358 H 619.65 2.69926 -3.16669 0
M  V30 6359 H 618.526 3.88706 -3.87555 0
M  V30 6360 H 618.787 3.86933 -2.13859 0
M  V30 6361 N 617.846 1.41785 0.688094 0
M  V30 6362 C 619.094 1.41264 1.4453 0
M  V30 6363 C 619.415 0.0252946 1.94984 0
M  V30 6364 O 618.685 -0.934081 1.72197 0
M  V30 6365 H 617.265 0.519998 0.536294 0
M  V30 6366 H 619.927 1.7709 0.813941 0
M  V30 6367 H 619.023 2.10439 2.30482 0
M  V30 6368 N 619.324 -0.923095 1.27737 0
M  V30 6369 C 620.735 -1.48626 1.12993 0
M  V30 6370 C 621.086 -1.94142 -0.283439 0
M  V30 6371 O 620.211 -1.81605 -1.17681 0
M  V30 6372 C 620.806 -2.70117 2.04505 0
M  V30 6373 C 619.365 -3.22642 1.93853 0
M  V30 6374 C 618.512 -1.95368 1.96791 0
M  V30 6375 H 621.463 -0.736737 1.40563 0
M  V30 6376 H 621.484 -3.4506 1.60356 0
M  V30 6377 H 620.996 -2.36959 3.07363 0
M  V30 6378 H 619.097 -3.60549 0.939968 0
M  V30 6379 H 619.21 -3.88525 2.80331 0
M  V30 6380 H 617.574 -2.12061 1.41076 0
M  V30 6381 H 618.357 -1.64517 3.01312 0
M  V30 6382 N 620.802 -1.09834 -1.13024 0
M  V30 6383 C 622.049 -0.83695 -1.84395 0
M  V30 6384 C 622.377 0.637463 -1.83757 0
M  V30 6385 O 621.632 1.48554 -1.27398 0
M  V30 6386 C 621.931 -1.32263 -3.32026 0
M  V30 6387 C 621.597 -2.80739 -3.52841 0
M  V30 6388 C 620.259 -3.21286 -3.5823 0
M  V30 6389 C 622.611 -3.76449 -3.60466 0
M  V30 6390 C 619.939 -4.56308 -3.68781 0
M  V30 6391 C 622.291 -5.11266 -3.72546 0
M  V30 6392 C 620.955 -5.51397 -3.76189 0
M  V30 6393 H 620.225 -0.306262 -0.674748 0
M  V30 6394 H 622.872 -1.37385 -1.33408 0
M  V30 6395 H 621.177 -0.705618 -3.85394 0
M  V30 6396 H 622.874 -1.09695 -3.85705 0
M  V30 6397 H 619.464 -2.48363 -3.49305 0
M  V30 6398 H 623.648 -3.46234 -3.55578 0
M  V30 6399 H 618.904 -4.86832 -3.69871 0
M  V30 6400 H 623.078 -5.85279 -3.77388 0
M  V30 6401 H 620.705 -6.56017 -3.84117 0
M  V30 6402 N 622.28 1.30327 -0.886154 0
M  V30 6403 C 623.243 2.26376 -0.358687 0
M  V30 6404 C 624.243 1.52845 0.499498 0
M  V30 6405 O 625.433 1.71483 0.306485 0
M  V30 6406 C 622.565 3.37379 0.488726 0
M  V30 6407 H 623.758 2.74547 -1.20681 0
M  V30 6408 H 621.311 1.41536 -0.663113 0
M  V30 6409 H 622.046 2.94526 1.35739 0
M  V30 6410 H 621.831 3.91897 -0.126003 0
M  V30 6411 H 623.321 4.08868 0.84952 0
M  V30 6412 N 623.758 0.647228 1.43697 0
M  V30 6413 C 625.169 0.238689 1.85168 0
M  V30 6414 C 625.52 -1.21345 1.54175 0
M  V30 6415 O 624.645 -1.92542 0.987743 0
M  V30 6416 C 625.24 0.426422 3.36106 0
M  V30 6417 C 623.799 0.0722541 3.76331 0
M  V30 6418 C 622.946 0.732153 2.6746 0
M  V30 6419 H 625.897 0.851309 1.33934 0
M  V30 6420 H 625.918 -0.32987 3.79067 0
M  V30 6421 H 625.43 1.48339 3.58632 0
M  V30 6422 H 623.531 -0.982355 3.59417 0
M  V30 6423 H 623.644 0.493541 4.76551 0
M  V30 6424 H 622.008 0.16594 2.54159 0
M  V30 6425 H 622.791 1.79204 2.92816 0
M  V30 6426 N 625.236 -1.5273 0.388769 0
M  V30 6427 C 626.484 -2.01174 -0.193208 0
M  V30 6428 C 626.805 -1.27705 -1.47365 0
M  V30 6429 O 626.075 -0.396966 -1.91836 0
M  V30 6430 H 624.655 -0.743287 -0.0743871 0
M  V30 6431 H 627.317 -1.87826 0.520336 0
M  V30 6432 H 626.413 -3.09477 -0.403803 0
M  V30 6433 N 626.714 -0.118576 -1.57153 0
M  V30 6434 C 627.963 0.539339 -1.94355 0
M  V30 6435 C 628.276 1.67858 -1.00415 0
M  V30 6436 O 629.482 2.39922 -1.27081 0
M  V30 6437 C 627.938 1.01082 -3.45414 0
M  V30 6438 C 627.546 -0.0999402 -4.47889 0
M  V30 6439 C 629.29 1.64013 -3.91535 0
M  V30 6440 C 627.197 0.388212 -5.90124 0
M  V30 6441 H 626.127 0.205247 -0.725527 0
M  V30 6442 H 628.778 -0.19836 -1.82425 0
M  V30 6443 H 627.16 1.80292 -3.52577 0
M  V30 6444 H 628.334 -0.876189 -4.52393 0
M  V30 6445 H 626.649 -0.635885 -4.11516 0
M  V30 6446 H 629.246 2.01649 -4.95219 0
M  V30 6447 H 629.589 2.51836 -3.31488 0
M  V30 6448 H 630.122 0.913439 -3.87171 0
M  V30 6449 H 626.861 -0.453963 -6.53926 0
M  V30 6450 H 626.381 1.13095 -5.89041 0
M  V30 6451 H 628.06 0.849574 -6.41398 0
M  V30 6452 N 628.193 1.56834 0.155195 0
M  V30 6453 C 629.421 1.87049 0.884326 0
M  V30 6454 C 629.836 0.705839 1.7511 0
M  V30 6455 O 629.193 -0.324641 1.79589 0
M  V30 6456 C 629.244 3.1644 1.74781 0
M  V30 6457 O 628.965 4.28417 0.915978 0
M  V30 6458 C 630.466 3.60113 2.58522 0
M  V30 6459 H 627.686 0.620196 0.25612 0
M  V30 6460 H 630.23 2.03946 0.150445 0
M  V30 6461 H 628.385 3.01321 2.43484 0
M  V30 6462 H 628.799 5.02353 1.50803 0
M  V30 6463 H 630.273 4.53508 3.14698 0
M  V30 6464 H 630.75 2.85005 3.34169 0
M  V30 6465 H 631.356 3.77898 1.95124 0
M  V30 6466 N 629.671 -0.424282 1.51781 0
M  V30 6467 C 630.581 -1.54087 1.76902 0
M  V30 6468 C 631.597 -1.61249 0.653826 0
M  V30 6469 O 632.773 -1.78247 0.937552 0
M  V30 6470 C 629.838 -2.8996 1.90063 0
M  V30 6471 C 628.899 -2.92809 3.13945 0
M  V30 6472 C 628.132 -4.22201 3.26469 0
M  V30 6473 O 628.355 -5.15286 2.44616 0
M  V30 6474 O 627.289 -4.31599 4.1953 0
M  V30 6475 H 631.115 -1.358 2.71647 0
M  V30 6476 H 628.7 -0.608618 1.36441 0
M  V30 6477 H 630.582 -3.70575 2.0063 0
M  V30 6478 H 629.257 -3.08347 0.985067 0
M  V30 6479 H 628.164 -2.11102 3.08847 0
M  V30 6480 H 629.497 -2.79369 4.05233 0
M  V30 6481 N 631.149 -1.42148 -0.680565 0
M  V30 6482 C 632.096 -1.45175 -1.79424 0
M  V30 6483 C 633.066 -0.304352 -1.63288 0
M  V30 6484 O 634.251 -0.507591 -1.83924 0
M  V30 6485 C 631.391 -1.35429 -3.17416 0
M  V30 6486 C 630.504 -2.60158 -3.4488 0
M  V30 6487 C 629.639 -2.42596 -4.72568 0
M  V30 6488 C 628.678 -3.62727 -4.93047 0
M  V30 6489 N 627.815 -3.44143 -6.11973 0
M  V30 6490 H 632.655 -2.40349 -1.76172 0
M  V30 6491 H 630.192 -1.19334 -0.860107 0
M  V30 6492 H 632.15 -1.27777 -3.97151 0
M  V30 6493 H 630.78 -0.438536 -3.19807 0
M  V30 6494 H 629.832 -2.78199 -2.5944 0
M  V30 6495 H 631.144 -3.49473 -3.55908 0
M  V30 6496 H 630.298 -2.32497 -5.60384 0
M  V30 6497 H 629.037 -1.50761 -4.63813 0
M  V30 6498 H 628.042 -3.73264 -4.03676 0
M  V30 6499 H 629.267 -4.55534 -5.03652 0
M  V30 6500 H 627.213 -2.5502 -6.04401 0
M  V30 6501 H 627.13 -4.27041 -6.23836 0
M  V30 6502 H 628.398 -3.37845 -7.02482 0
M  V30 6503 N 632.627 0.916307 -1.28225 0
M  V30 6504 C 633.59 1.99996 -1.11957 0
M  V30 6505 C 634.59 1.60688 -0.0600152 0
M  V30 6506 O 635.78 1.71499 -0.30558 0
M  V30 6507 C 632.912 3.33458 -0.708411 0
M  V30 6508 H 634.105 2.15858 -2.08196 0
M  V30 6509 H 631.658 1.09863 -1.11175 0
M  V30 6510 H 632.393 3.23297 0.254859 0
M  V30 6511 H 632.178 3.63349 -1.47377 0
M  V30 6512 H 633.668 4.13014 -0.617164 0
M  V30 6513 N 634.105 1.10431 1.1244 0
M  V30 6514 C 635.516 0.864439 1.65482 0
M  V30 6515 C 635.867 -0.60527 1.8663 0
M  V30 6516 O 634.992 -1.46492 1.59276 0
M  V30 6517 C 635.587 1.56267 3.0061 0
M  V30 6518 C 634.146 1.3695 3.50602 0
M  V30 6519 C 633.293 1.61209 2.25626 0
M  V30 6520 H 636.244 1.26203 0.962209 0
M  V30 6521 H 636.265 1.00166 3.67079 0
M  V30 6522 H 635.777 2.63231 2.85186 0
M  V30 6523 H 633.878 0.321481 3.71211 0
M  V30 6524 H 633.991 2.11143 4.30064 0
M  V30 6525 H 632.355 1.03482 2.32731 0
M  V30 6526 H 633.138 2.69425 2.12756 0
M  V30 6527 N 635.583 -1.29855 0.893053 0
M  V30 6528 C 636.493 -2.31661 0.370157 0
M  V30 6529 C 637.509 -1.65677 -0.531723 0
M  V30 6530 O 638.685 -1.9691 -0.422902 0
M  V30 6531 C 635.75 -3.44388 -0.399741 0
M  V30 6532 C 634.811 -4.2598 0.532861 0
M  V30 6533 C 634.044 -5.33324 -0.200388 0
M  V30 6534 O 634.267 -5.52305 -1.42531 0
M  V30 6535 O 633.201 -6.00188 0.453668 0
M  V30 6536 H 637.027 -2.78354 1.2146 0
M  V30 6537 H 634.612 -1.34171 0.657153 0
M  V30 6538 H 636.494 -4.13037 -0.835358 0
M  V30 6539 H 635.169 -2.99815 -1.22035 0
M  V30 6540 H 634.076 -3.59998 1.01746 0
M  V30 6541 H 635.409 -4.74178 1.3197 0
M  V30 6542 N 637.061 -0.65484 -1.43351 0
M  V30 6543 C 637.971 0.0363603 -2.34572 0
M  V30 6544 C 638.987 0.810432 -1.53974 0
M  V30 6545 O 640.163 0.757308 -1.86619 0
M  V30 6546 C 637.228 0.989733 -3.32273 0
M  V30 6547 C 636.289 0.212414 -4.28774 0
M  V30 6548 C 635.522 1.12038 -5.21808 0
M  V30 6549 O 635.745 2.35967 -5.19303 0
M  V30 6550 O 634.679 0.59191 -5.98982 0
M  V30 6551 H 638.505 -0.714527 -2.95175 0
M  V30 6552 H 636.09 -0.415029 -1.4352 0
M  V30 6553 H 637.972 1.53759 -3.92347 0
M  V30 6554 H 636.647 1.72082 -2.74171 0
M  V30 6555 H 635.554 -0.379062 -3.72175 0
M  V30 6556 H 636.887 -0.479138 -4.89862 0
M  V30 6557 N 638.539 1.52521 -0.396863 0
M  V30 6558 C 639.486 2.26671 0.434624 0
M  V30 6559 C 640.456 1.28584 1.05144 0
M  V30 6560 O 641.641 1.57426 1.07804 0
M  V30 6561 C 638.781 3.08234 1.55196 0
M  V30 6562 C 637.894 4.21261 0.957262 0
M  V30 6563 C 637.029 4.90205 2.04627 0
M  V30 6564 C 636.068 5.95213 1.42787 0
M  V30 6565 N 635.205 6.57723 2.45651 0
M  V30 6566 H 640.045 2.973 -0.204139 0
M  V30 6567 H 637.582 1.46669 -0.112505 0
M  V30 6568 H 639.54 3.53819 2.2106 0
M  V30 6569 H 638.17 2.398 2.16092 0
M  V30 6570 H 637.222 3.79935 0.188005 0
M  V30 6571 H 638.534 4.96624 0.465416 0
M  V30 6572 H 637.688 5.39133 2.78246 0
M  V30 6573 H 636.427 4.14383 2.57174 0
M  V30 6574 H 635.432 5.45616 0.676968 0
M  V30 6575 H 636.657 6.72972 0.910255 0
M  V30 6576 H 634.603 5.84737 2.97353 0
M  V30 6577 H 634.52 7.28723 2.01243 0
M  V30 6578 H 635.788 7.11293 3.18876 0
M  V30 6579 N 640.017 0.126909 1.57088 0
M  V30 6580 C 640.964 -0.82036 2.15728 0
M  V30 6581 C 641.934 -1.25811 1.08447 0
M  V30 6582 O 643.119 -1.33422 1.36393 0
M  V30 6583 C 640.259 -2.06199 2.76724 0
M  V30 6584 C 639.372 -1.67188 3.98337 0
M  V30 6585 C 638.507 -2.86378 4.47393 0
M  V30 6586 C 637.546 -2.43644 5.61519 0
M  V30 6587 N 636.683 -3.55775 6.05284 0
M  V30 6588 H 641.523 -0.313472 2.96347 0
M  V30 6589 H 639.06 -0.14303 1.46403 0
M  V30 6590 H 641.018 -2.78959 3.10222 0
M  V30 6591 H 639.648 -2.54333 1.98782 0
M  V30 6592 H 638.7 -0.842714 3.70948 0
M  V30 6593 H 640.012 -1.31789 4.81075 0
M  V30 6594 H 639.166 -3.67353 4.82842 0
M  V30 6595 H 637.905 -3.25009 3.63621 0
M  V30 6596 H 636.91 -1.61104 5.25667 0
M  V30 6597 H 638.135 -2.06122 6.47063 0
M  V30 6598 H 636.081 -3.94065 5.24451 0
M  V30 6599 H 635.998 -3.24325 6.82898 0
M  V30 6600 H 637.266 -4.37166 6.45373 0
M  V30 6601 O 641.534 -1.61495 -0.0122585 0
M  V30 6602 H 642.225 -1.83148 -0.630585 0
M  V30 END ATOM
M  V30 BEGIN BOND
M  V30 END BOND
M  V30 END CTAB
M  END
$$$$
