drugbank_target|O60603 Toll-like receptor 2 (DB00045; DB00210; DB03963; DB05475; DB11601)
 OpenBabel12092119483D

  0  0  0     0  0            999 V3000
M  V30 BEGIN CTAB
M  V30 COUNTS 12679 12808 0 0 0
M  V30 BEGIN ATOM
M  V30 1 H -0.908 1.98254 -0.117106 0
M  V30 2 N 0 1.576 0 0
M  V30 3 C 0.933 2.03868 1.02534 0
M  V30 4 C 1.911 0.928543 1.3348 0
M  V30 5 O 3.095 1.19667 1.45644 0
M  V30 6 C 0.222 2.43627 2.35294 0
M  V30 7 C -0.732 3.65373 2.2001 0
M  V30 8 S 0.101 5.13292 1.52614 0
M  V30 9 C 1.257 5.56322 2.86805 0
M  V30 10 H 1.49 2.90518 0.631377 0
M  V30 11 H -0.977 1.52953 0.210867 0
M  V30 12 H 0.981 2.67203 3.11629 0
M  V30 13 H -0.358 1.57376 2.7183 0
M  V30 14 H -1.165 3.90944 3.18086 0
M  V30 15 H -1.563 3.418 1.51819 0
M  V30 16 H 0.729 5.58782 3.83104 0
M  V30 17 H 1.672 6.56266 2.65933 0
M  V30 18 H 2.08 4.83886 2.90714 0
M  V30 19 N 1.4781 -0.272755 1.55222 0
M  V30 20 C 2.8891 -0.84378 1.66545 0
M  V30 21 C 3.2401 -1.87035 0.592641 0
M  V30 22 O 2.3651 -2.14761 -0.265818 0
M  V30 23 C 2.9601 -1.53723 3.01918 0
M  V30 24 C 1.5191 -2.05628 3.15268 0
M  V30 25 C 0.6661 -0.898424 2.62343 0
M  V30 26 H 3.6171 -0.0490998 1.58624 0
M  V30 27 H 3.6381 -2.40421 2.94921 0
M  V30 28 H 3.1501 -0.78983 3.79978 0
M  V30 29 H 1.2511 -2.83329 2.41983 0
M  V30 30 H 1.3641 -2.27142 4.21833 0
M  V30 31 H -0.2719 -1.29186 2.19506 0
M  V30 32 H 0.5111 -0.164528 3.42906 0
M  V30 33 N 2.9562 -1.48159 -0.537278 0
M  V30 34 C 3.9062 -1.5854 -1.63857 0
M  V30 35 C 4.8902 -0.442969 -1.54682 0
M  V30 36 O 6.0822 -0.69401 -1.62827 0
M  V30 37 C 3.2112 -1.62144 -3.02596 0
M  V30 38 C 2.2972 -2.81841 -3.16901 0
M  V30 39 N 2.6882 -4.06337 -3.01204 0
M  V30 40 C 0.9862 -2.79021 -3.47942 0
M  V30 41 C 1.6872 -4.86606 -3.18731 0
M  V30 42 N 0.6632 -4.19288 -3.45974 0
M  V30 43 H 4.4652 -2.5255 -1.50319 0
M  V30 44 H 1.9792 -1.4443 -0.742555 0
M  V30 45 H 3.9762 -1.67674 -3.81695 0
M  V30 46 H 2.6362 -0.69245 -3.17231 0
M  V30 47 H 3.6472 -4.36888 -2.78117 0
M  V30 48 H 0.3242 -1.95347 -3.6898 0
M  V30 49 H 1.7142 -5.95385 -3.11394 0
M  V30 50 N 4.4343 0.785586 -1.36625 0
M  V30 51 C 5.6623 1.57448 -1.3423 0
M  V30 52 C 6.0773 1.88649 0.0755653 0
M  V30 53 O 5.4343 1.50414 1.03354 0
M  V30 54 C 5.4853 2.89316 -2.16745 0
M  V30 55 O 5.2063 2.59459 -3.53005 0
M  V30 56 C 6.7073 3.83606 -2.22174 0
M  V30 57 H 3.9273 0.488226 -0.4603 0
M  V30 58 H 6.4713 0.974733 -1.79775 0
M  V30 59 H 4.6263 3.4575 -1.74745 0
M  V30 60 H 5.0403 3.43804 -3.96105 0
M  V30 61 H 6.5143 4.73181 -2.8426 0
M  V30 62 H 6.9913 4.21734 -1.22627 0
M  V30 63 H 7.5973 3.33104 -2.64427 0
M  V30 64 N 5.9124 1.20967 1.01018 0
M  V30 65 C 6.8424 0.988272 2.11555 0
M  V30 66 C 7.8234 -0.0849778 1.69888 0
M  V30 67 O 9.0084 0.0738202 1.9406 0
M  V30 68 C 6.1384 0.546528 3.42973 0
M  V30 69 C 5.0924 1.56375 3.9841 0
M  V30 70 C 4.4184 0.97842 5.25672 0
M  V30 71 C 5.7184 2.94922 4.31066 0
M  V30 72 H 7.4124 1.91276 2.30334 0
M  V30 73 H 4.9584 0.921073 1.1069 0
M  V30 74 H 6.9114 0.378839 4.19694 0
M  V30 75 H 5.6354 -0.413598 3.23971 0
M  V30 76 H 4.2944 1.71891 3.23804 0
M  V30 77 H 3.9424 0.0101688 5.02999 0
M  V30 78 H 3.6424 1.65784 5.63728 0
M  V30 79 H 5.1664 0.821939 6.05043 0
M  V30 80 H 6.5804 2.8288 4.9865 0
M  V30 81 H 4.9774 3.5983 4.80253 0
M  V30 82 H 6.0474 3.4616 3.39561 0
M  V30 83 N 7.3905 -1.2043 1.01659 0
M  V30 84 C 8.6365 -1.90356 0.716674 0
M  V30 85 C 8.9915 -1.77367 -0.745557 0
M  V30 86 O 8.2845 -1.1471 -1.53467 0
M  V30 87 C 8.4785 -3.40464 1.08714 0
M  V30 88 C 8.3075 -3.6806 2.58384 0
M  V30 89 C 7.0775 -3.86775 3.25167 0
M  V30 90 C 9.2755 -3.70623 3.56572 0
M  V30 91 N 7.2575 -4.01889 4.64067 0
M  V30 92 C 8.6285 -3.91161 4.81034 0
M  V30 93 C 10.6835 -3.53586 3.50544 0
M  V30 94 C 9.3865 -3.96428 6.00198 0
M  V30 95 C 11.4125 -3.60125 4.6911 0
M  V30 96 C 10.7745 -3.81135 5.92381 0
M  V30 97 H 6.8735 -0.716226 0.313918 0
M  V30 98 H 9.4575 -1.44815 1.30141 0
M  V30 99 H 7.6285 -3.84757 0.530745 0
M  V30 100 H 9.3605 -3.97863 0.740763 0
M  V30 101 H 6.1155 -3.85156 2.75594 0
M  V30 102 H 6.5395 -4.13323 5.36184 0
M  V30 103 H 11.1815 -3.36308 2.56235 0
M  V30 104 H 8.8995 -4.12502 6.94887 0
M  V30 105 H 12.4855 -3.4825 4.66062 0
M  V30 106 H 11.3655 -3.86054 6.82592 0
M  V30 107 N 8.8686 -0.792821 -1.36206 0
M  V30 108 C 9.8016 -0.139422 -2.27774 0
M  V30 109 C 10.7796 0.68649 -1.47398 0
M  V30 110 O 11.9636 0.656738 -1.7669 0
M  V30 111 C 9.0906 0.807947 -3.28922 0
M  V30 112 C 8.1366 0.0633999 -4.26453 0
M  V30 113 S 8.9696 -1.26319 -5.20388 0
M  V30 114 C 10.1256 -0.31991 -6.25082 0
M  V30 115 H 10.3586 -0.915809 -2.82843 0
M  V30 116 H 7.8916 -0.587203 -1.42798 0
M  V30 117 H 9.8496 1.34908 -3.87699 0
M  V30 118 H 8.5106 1.55761 -2.72759 0
M  V30 119 H 7.7036 0.782386 -4.9789 0
M  V30 120 H 7.3056 -0.407352 -3.71775 0
M  V30 121 H 9.5976 0.499985 -6.75653 0
M  V30 122 H 10.5406 -1.00307 -7.00959 0
M  V30 123 H 10.9486 0.0782694 -5.64446 0
M  V30 124 N 10.3467 1.47872 -0.545128 0
M  V30 125 C 11.5927 2.02793 -0.0166104 0
M  V30 126 C 11.9257 1.41987 1.32489 0
M  V30 127 O 11.2007 0.571045 1.85928 0
M  V30 128 C 11.4837 3.59989 0.0893294 0
M  V30 129 C 11.3367 4.3125 -1.27841 0
M  V30 130 C 12.6557 4.32606 0.808724 0
M  V30 131 H 9.7747 0.736962 -0.00751035 0
M  V30 132 H 12.4167 1.76433 -0.705085 0
M  V30 133 H 10.5667 3.82579 0.675681 0
M  V30 134 H 12.2387 4.20035 -1.90704 0
M  V30 135 H 10.4817 3.92076 -1.85632 0
M  V30 136 H 11.1527 5.39736 -1.15713 0
M  V30 137 H 13.6287 4.14936 0.310992 0
M  V30 138 H 12.5047 5.42251 0.851782 0
M  V30 139 H 12.7657 4.00963 1.86229 0
M  V30 140 N 11.8248 0.280983 1.55075 0
M  V30 141 C 13.0708 -0.327573 2.00745 0
M  V30 142 C 13.4258 -1.53045 1.16598 0
M  V30 143 O 12.7188 -1.90221 0.229451 0
M  V30 144 C 12.9128 -0.754656 3.49342 0
M  V30 145 C 12.7418 0.40529 4.4787 0
M  V30 146 C 11.5118 0.890947 4.97383 0
M  V30 147 C 13.7098 1.24371 4.99035 0
M  V30 148 N 11.6918 2.01975 5.79724 0
M  V30 149 C 13.0628 2.22031 5.7888 0
M  V30 150 C 15.1178 1.27638 4.81262 0
M  V30 151 C 13.8208 3.22709 6.42846 0
M  V30 152 C 15.8468 2.27164 5.46031 0
M  V30 153 C 15.2088 3.23556 6.25692 0
M  V30 154 H 11.3078 -0.0848774 0.77738 0
M  V30 155 H 13.8918 0.406342 1.90413 0
M  V30 156 H 12.0628 -1.45778 3.60005 0
M  V30 157 H 13.7948 -1.34105 3.81835 0
M  V30 158 H 10.5498 0.469262 4.71269 0
M  V30 159 H 10.9738 2.58794 6.25584 0
M  V30 160 H 15.6158 0.544936 4.19274 0
M  V30 161 H 13.3338 3.96784 7.0398 0
M  V30 162 H 16.9198 2.30441 5.34217 0
M  V30 163 H 15.7998 3.99309 6.74924 0
M  V30 164 N 13.3029 -1.57598 0.00835791 0
M  V30 165 C 14.5489 -1.91211 -0.675732 0
M  V30 166 C 14.8819 -0.883139 -1.72958 0
M  V30 167 O 14.1569 0.097016 -1.94258 0
M  V30 168 C 14.4399 -3.35379 -1.31123 0
M  V30 169 C 14.2929 -4.48999 -0.268356 0
M  V30 170 C 15.6119 -3.7912 -2.23508 0
M  V30 171 H 12.7309 -0.695374 -0.244179 0
M  V30 172 H 15.3729 -1.89901 0.0613655 0
M  V30 173 H 13.5229 -3.36626 -1.93946 0
M  V30 174 H 15.1949 -4.59887 0.360844 0
M  V30 175 H 13.4379 -4.31873 0.408482 0
M  V30 176 H 14.1089 -5.46851 -0.752218 0
M  V30 177 H 16.5849 -3.79477 -1.70693 0
M  V30 178 H 15.4609 -4.80729 -2.64936 0
M  V30 179 H 15.7219 -3.13455 -3.11766 0
M  V30 180 N 14.781 0.264519 -1.55364 0
M  V30 181 C 15.711 1.33121 -1.91836 0
M  V30 182 C 16.692 1.51101 -0.781192 0
M  V30 183 O 17.877 1.64003 -1.04003 0
M  V30 184 C 15.007 2.68921 -2.19769 0
M  V30 185 C 13.961 2.65661 -3.35571 0
M  V30 186 C 13.287 4.05093 -3.49004 0
M  V30 187 C 14.587 2.24187 -4.71739 0
M  V30 188 H 16.281 1.02844 -2.81182 0
M  V30 189 H 13.827 0.493286 -1.35287 0
M  V30 190 H 15.78 3.43663 -2.43872 0
M  V30 191 H 14.504 3.00799 -1.27231 0
M  V30 192 H 13.163 1.93377 -3.1145 0
M  V30 193 H 12.811 4.34206 -2.53917 0
M  V30 194 H 12.511 4.03804 -4.26868 0
M  V30 195 H 14.035 4.81561 -3.75408 0
M  V30 196 H 15.449 2.88654 -4.9533 0
M  V30 197 H 13.846 2.34044 -5.52579 0
M  V30 198 H 14.916 1.19327 -4.69988 0
M  V30 199 N 16.2591 1.48442 0.529413 0
M  V30 200 C 17.5071 1.56179 1.28267 0
M  V30 201 C 17.8281 0.237721 1.93546 0
M  V30 202 O 17.0981 -0.740779 1.81354 0
M  V30 203 H 15.6781 0.575367 0.476405 0
M  V30 204 H 18.3401 1.84909 0.61602 0
M  V30 205 H 17.4361 2.34312 2.06165 0
M  V30 206 N 17.7372 -0.778329 1.37039 0
M  V30 207 C 18.9832 -1.53892 1.32079 0
M  V30 208 C 19.3162 -1.9396 -0.0965386 0
M  V30 209 O 18.5912 -1.63568 -1.05242 0
M  V30 210 C 18.8742 -2.80847 2.25382 0
M  V30 211 C 18.7272 -2.47076 3.75864 0
M  V30 212 C 20.0462 -3.82741 2.1725 0
M  V30 213 H 17.1652 -0.558303 0.48111 0
M  V30 214 H 19.8072 -0.893397 1.67685 0
M  V30 215 H 17.9572 -3.35931 1.95148 0
M  V30 216 H 19.6292 -1.97957 4.16666 0
M  V30 217 H 17.8722 -1.79863 3.94755 0
M  V30 218 H 18.5432 -3.37798 4.36574 0
M  V30 219 H 21.0192 -3.37133 2.43887 0
M  V30 220 H 19.8952 -4.69303 2.84686 0
M  V30 221 H 20.1562 -4.2652 1.16331 0
M  V30 222 N 19.2153 -1.21501 -1.00376 0
M  V30 223 C 20.4643 -1.02718 -1.73586 0
M  V30 224 C 20.7773 0.439589 -1.90596 0
M  V30 225 O 21.9833 0.746848 -2.61026 0
M  V30 226 C 20.4393 -1.78929 -3.1227 0
M  V30 227 C 20.0473 -3.29783 -3.03228 0
M  V30 228 C 21.7913 -1.68557 -3.89601 0
M  V30 229 C 19.6983 -3.98479 -4.36999 0
M  V30 230 H 18.6283 -0.380733 -0.650814 0
M  V30 231 H 21.2793 -1.45248 -1.1214 0
M  V30 232 H 19.6613 -1.29192 -3.74333 0
M  V30 233 H 20.8353 -3.86832 -2.50395 0
M  V30 234 H 19.1503 -3.40711 -2.39385 0
M  V30 235 H 21.7473 -2.17211 -4.88593 0
M  V30 236 H 22.0903 -0.644021 -4.11288 0
M  V30 237 H 22.6233 -2.15778 -3.34193 0
M  V30 238 H 19.3623 -5.02841 -4.20513 0
M  V30 239 H 18.8823 -3.46219 -4.89788 0
M  V30 240 H 20.5613 -4.03462 -5.05794 0
M  V30 241 N 20.6934 1.19889 -1.02296 0
M  V30 242 C 21.9424 1.88743 -0.711257 0
M  V30 243 C 22.2554 1.80112 0.762817 0
M  V30 244 O 23.4614 2.44161 1.18733 0
M  V30 245 C 21.9174 3.38525 -1.22185 0
M  V30 246 C 21.5254 3.55727 -2.72328 0
M  V30 247 C 23.2694 4.12893 -0.985864 0
M  V30 248 C 21.1764 4.99369 -3.16835 0
M  V30 249 H 20.1064 0.706885 -0.262353 0
M  V30 250 H 22.7574 1.35586 -1.23648 0
M  V30 251 H 21.1394 3.91044 -0.624571 0
M  V30 252 H 22.3134 3.13564 -3.3766 0
M  V30 253 H 20.6284 2.94739 -2.9414 0
M  V30 254 H 23.2254 5.18813 -1.29374 0
M  V30 255 H 23.5684 4.16228 0.0775055 0
M  V30 256 H 24.1014 3.66494 -1.54684 0
M  V30 257 H 20.8404 5.01193 -4.22476 0
M  V30 258 H 20.3604 5.42317 -2.56228 0
M  V30 259 H 22.0394 5.67988 -3.09837 0
M  V30 260 N 22.1715 0.800033 1.35784 0
M  V30 261 C 23.3965 0.388511 2.03729 0
M  V30 262 C 23.8215 -0.990481 1.5991 0
M  V30 263 O 23.1795 -1.64013 0.772612 0
M  V30 264 C 23.2275 0.4726 3.5749 0
M  V30 265 O 22.3315 -0.51646 4.09153 0
M  V30 266 H 21.6725 0.163271 0.643614 0
M  V30 267 H 24.2025 1.0841 1.73518 0
M  V30 268 H 24.2125 0.34003 4.06581 0
M  V30 269 H 22.8875 1.47848 3.88734 0
M  V30 270 H 21.4645 -0.344673 3.71304 0
M  V30 271 N 23.6496 -1.47581 0.552962 0
M  V30 272 C 24.5796 -2.32762 -0.185451 0
M  V30 273 C 25.5606 -1.43527 -0.912905 0
M  V30 274 O 26.7456 -1.72388 -0.894201 0
M  V30 275 C 23.8756 -3.25219 -1.21859 0
M  V30 276 C 22.8296 -4.23661 -0.607864 0
M  V30 277 C 22.1556 -5.05413 -1.74533 0
M  V30 278 C 23.4556 -5.20481 0.435582 0
M  V30 279 H 25.1496 -2.94749 0.525684 0
M  V30 280 H 22.6956 -1.41738 0.254251 0
M  V30 281 H 24.6486 -3.8365 -1.7433 0
M  V30 282 H 23.3726 -2.61279 -1.95961 0
M  V30 283 H 22.0316 -3.66451 -0.104489 0
M  V30 284 H 21.6796 -4.3788 -2.47529 0
M  V30 285 H 21.3796 -5.72059 -1.34249 0
M  V30 286 H 22.9036 -5.66701 -2.27338 0
M  V30 287 H 24.3176 -5.733 -0.00290157 0
M  V30 288 H 22.7146 -5.95305 0.757067 0
M  V30 289 H 23.7846 -4.66217 1.33303 0
M  V30 290 N 25.1277 -0.289203 -1.54924 0
M  V30 291 C 26.3527 0.329299 -2.04769 0
M  V30 292 C 26.7777 1.4763 -1.16564 0
M  V30 293 O 26.1357 1.80527 -0.167186 0
M  V30 294 C 26.1837 0.774438 -3.52186 0
M  V30 295 O 25.2877 1.88038 -3.67036 0
M  V30 296 H 24.6287 0.0659259 -0.660719 0
M  V30 297 H 27.1587 -0.42761 -2.00082 0
M  V30 298 H 27.1687 1.06642 -3.93816 0
M  V30 299 H 25.8437 -0.0646707 -4.1585 0
M  V30 300 H 24.4207 1.58985 -3.3731 0
M  V30 301 N 26.6058 1.57591 -0.0167156 0
M  V30 302 C 27.5528 2.09462 0.969251 0
M  V30 303 C 28.5228 0.99381 1.33089 0
M  V30 304 O 29.7078 1.26726 1.42636 0
M  V30 305 C 26.8478 2.61622 2.25051 0
M  V30 306 C 25.9608 3.85666 1.94642 0
M  V30 307 C 25.0958 4.26266 3.16972 0
M  V30 308 C 24.1348 5.43101 2.82326 0
M  V30 309 N 23.2718 5.78915 3.97243 0
M  V30 310 H 28.1118 2.93428 0.519997 0
M  V30 311 H 25.6488 1.45044 0.245087 0
M  V30 312 H 27.6068 2.89949 2.99976 0
M  V30 313 H 26.2368 1.80505 2.67615 0
M  V30 314 H 25.2888 3.64145 1.10013 0
M  V30 315 H 26.6008 4.70678 1.65117 0
M  V30 316 H 25.7548 4.55963 4.00228 0
M  V30 317 H 24.4938 3.39996 3.49648 0
M  V30 318 H 23.4988 5.1311 1.97479 0
M  V30 319 H 24.7238 6.3106 2.50879 0
M  V30 320 H 22.6698 4.95602 4.29785 0
M  V30 321 H 22.5868 6.58539 3.71299 0
M  V30 322 H 23.8548 6.13212 4.81239 0
M  V30 323 N 28.0839 -0.256276 1.55502 0
M  V30 324 C 28.9939 -1.33882 1.92647 0
M  V30 325 C 30.0099 -1.53159 0.825727 0
M  V30 326 O 31.1859 -1.66963 1.12629 0
M  V30 327 C 28.2509 -2.6751 2.20543 0
M  V30 328 C 27.3119 -2.56836 3.43997 0
M  V30 329 C 26.5449 -3.84092 3.70553 0
M  V30 330 O 26.7679 -4.85545 2.99336 0
M  V30 331 O 25.7019 -3.83288 4.64084 0
M  V30 332 H 29.5279 -1.05374 2.84833 0
M  V30 333 H 27.1129 -0.456237 1.42263 0
M  V30 334 H 28.9949 -3.46492 2.39835 0
M  V30 335 H 27.6699 -2.9577 1.31536 0
M  V30 336 H 26.5769 -1.76172 3.30021 0
M  V30 337 H 27.9099 -2.33523 4.33275 0
M  V30 338 N 29.562 -1.4872 -0.521534 0
M  V30 339 C 30.472 -1.66569 -1.65203 0
M  V30 340 C 31.488 -0.548197 -1.65139 0
M  V30 341 O 32.664 -0.820339 -1.83936 0
M  V30 342 C 29.729 -1.70917 -3.01642 0
M  V30 343 C 28.79 -2.94356 -3.12495 0
M  V30 344 C 28.023 -2.98487 -4.42426 0
M  V30 345 O 28.246 -2.10786 -5.30024 0
M  V30 346 O 27.18 -3.90746 -4.57822 0
M  V30 347 H 31.006 -2.62298 -1.5308 0
M  V30 348 H 28.591 -1.3222 -0.695565 0
M  V30 349 H 30.473 -1.7625 -3.82771 0
M  V30 350 H 29.148 -0.783633 -3.14071 0
M  V30 351 H 28.055 -2.94552 -2.3063 0
M  V30 352 H 29.388 -3.86322 -3.04986 0
M  V30 353 N 31.0401 0.771051 -1.3745 0
M  V30 354 C 32.2651 1.56529 -1.36065 0
M  V30 355 C 32.6901 1.88029 0.0515859 0
M  V30 356 O 32.0481 1.49282 1.02882 0
M  V30 357 C 32.0961 2.85187 -2.20683 0
M  V30 358 O 31.2001 3.79593 -1.61193 0
M  V30 359 H 30.5411 0.47411 -0.464883 0
M  V30 360 H 33.0711 0.954269 -1.80983 0
M  V30 361 H 33.0811 3.34283 -2.33921 0
M  V30 362 H 31.7561 2.61588 -3.23334 0
M  V30 363 H 30.3331 3.38239 -1.56999 0
M  V30 364 N 32.5182 1.22032 0.997298 0
M  V30 365 C 33.7432 1.06921 1.77715 0
M  V30 366 C 34.1682 -0.376226 1.84299 0
M  V30 367 O 33.5262 -1.27165 1.29223 0
M  V30 368 C 33.5742 1.67996 3.19076 0
M  V30 369 O 32.6782 0.930653 4.01762 0
M  V30 370 H 32.0192 0.375814 0.547412 0
M  V30 371 H 34.5492 1.61737 1.25309 0
M  V30 372 H 34.5592 1.72538 3.69723 0
M  V30 373 H 33.2342 2.73182 3.13599 0
M  V30 374 H 31.8112 0.960917 3.60307 0
M  V30 375 N 33.9963 -1.19345 1.0293 0
M  V30 376 C 34.9443 -2.24621 0.604001 0
M  V30 377 C 35.9383 -1.65452 -0.363587 0
M  V30 378 O 37.1443 -1.78497 -0.23212 0
M  V30 379 H 33.5193 -0.730858 0.177061 0
M  V30 380 H 35.4903 -2.5781 1.50255 0
M  V30 381 C 34.2393 -3.47688 -0.0289127 0
M  V30 382 H 33.5623 -3.93505 0.706651 0
M  V30 383 H 35.0023 -4.23011 -0.289432 0
M  V30 384 C 33.4613 -3.11817 -1.2756 0
M  V30 385 O 33.9913 -3.2451 -2.36762 0
M  V30 386 N 32.1973 -2.66246 -1.16453 0
M  V30 387 H 31.7443 -2.56118 -0.275914 0
M  V30 388 H 31.7023 -2.42617 -1.99961 0
M  V30 389 N 35.4744 -0.807222 -1.35358 0
M  V30 390 C 36.4064 -0.175717 -2.28525 0
M  V30 391 C 37.4194 0.625354 -1.5031 0
M  V30 392 O 38.6084 0.457611 -1.72535 0
M  V30 393 C 35.7084 0.773471 -3.29956 0
M  V30 394 C 34.8814 0.0186296 -4.37396 0
M  V30 395 C 33.9404 0.886395 -5.18681 0
M  V30 396 O 32.9664 0.337106 -5.68201 0
M  V30 397 N 34.1684 2.20839 -5.36852 0
M  V30 398 H 36.9334 -0.976091 -2.83359 0
M  V30 399 H 34.4944 -0.662737 -1.47714 0
M  V30 400 H 36.4864 1.35824 -3.81227 0
M  V30 401 H 35.0564 1.47465 -2.75632 0
M  V30 402 H 34.2764 -0.747349 -3.87051 0
M  V30 403 H 35.5644 -0.501577 -5.06322 0
M  V30 404 H 34.9624 2.67858 -4.98265 0
M  V30 405 H 33.5194 2.74237 -5.91301 0
M  V30 406 N 36.9525 1.47285 -0.560781 0
M  V30 407 C 37.9155 2.28535 0.174488 0
M  V30 408 C 38.9155 1.37153 0.839388 0
M  V30 409 O 40.1055 1.59748 0.694702 0
M  V30 410 C 37.2375 3.16934 1.25561 0
M  V30 411 H 38.4305 2.95012 -0.539262 0
M  V30 412 H 35.9835 1.53034 -0.317865 0
M  V30 413 H 36.7185 2.55157 2.00164 0
M  V30 414 H 36.5035 3.8419 0.783604 0
M  V30 415 H 37.9935 3.78143 1.77193 0
M  V30 416 N 38.4306 0.297415 1.54768 0
M  V30 417 C 39.6556 -0.318435 2.04941 0
M  V30 418 C 40.0806 -1.4701 1.17345 0
M  V30 419 O 39.4386 -1.80436 0.176758 0
M  V30 420 C 39.4866 -0.755749 3.52592 0
M  V30 421 O 38.5906 -1.86088 3.68028 0
M  V30 422 H 37.9316 -0.062421 0.661059 0
M  V30 423 H 40.4616 0.438215 1.99852 0
M  V30 424 H 40.4716 -1.04552 3.94376 0
M  V30 425 H 39.1466 0.0867233 4.1581 0
M  V30 426 H 37.7236 -1.57193 3.38149 0
M  V30 427 N 39.9087 -1.5758 0.0250728 0
M  V30 428 C 40.8387 -2.13007 -0.956575 0
M  V30 429 C 41.8197 -1.0452 -1.342 0
M  V30 430 O 43.0047 -1.32332 -1.42133 0
M  V30 431 C 40.1347 -2.65386 -2.24026 0
M  V30 432 C 39.0887 -3.78623 -1.99571 0
M  V30 433 C 38.4147 -4.17414 -3.3417 0
M  V30 434 C 39.7147 -5.04867 -1.33814 0
M  V30 435 H 41.4087 -2.9528 -0.494991 0
M  V30 436 H 38.9547 -1.42042 -0.236651 0
M  V30 437 H 40.9077 -3.02794 -2.93076 0
M  V30 438 H 39.6317 -1.80268 -2.72343 0
M  V30 439 H 38.2907 -3.41646 -1.32941 0
M  V30 440 H 37.9387 -3.29284 -3.80238 0
M  V30 441 H 37.6387 -4.93719 -3.18615 0
M  V30 442 H 39.1627 -4.57402 -4.04495 0
M  V30 443 H 40.5767 -5.39888 -1.92857 0
M  V30 444 H 38.9737 -5.86144 -1.28669 0
M  V30 445 H 40.0437 -4.83904 -0.310561 0
M  V30 446 N 41.3868 0.248026 -1.55636 0
M  V30 447 C 42.6118 0.998028 -1.81808 0
M  V30 448 C 43.0368 1.78207 -0.601979 0
M  V30 449 O 42.3948 1.75653 0.448961 0
M  V30 450 C 42.4428 1.9125 -3.05705 0
M  V30 451 O 41.5468 3.00406 -2.82542 0
M  V30 452 H 40.8878 0.284045 -0.600179 0
M  V30 453 H 43.4178 0.269357 -2.02819 0
M  V30 454 H 43.4278 2.32737 -3.35108 0
M  V30 455 H 42.1028 1.33602 -3.93857 0
M  V30 456 H 40.6798 2.63056 -2.64303 0
M  V30 457 N 42.8649 1.48995 0.513639 0
M  V30 458 C 44.1049 1.59452 1.27885 0
M  V30 459 C 44.4689 0.269479 1.90099 0
M  V30 460 O 45.6699 0.249139 2.67643 0
M  V30 461 C 43.9409 2.71277 2.32688 0
M  V30 462 S 45.4999 3.01604 3.18717 0
M  V30 463 H 42.3179 0.562565 0.434789 0
M  V30 464 H 44.9199 1.86595 0.583301 0
M  V30 465 H 43.6239 3.66089 1.8549 0
M  V30 466 H 43.1549 2.46086 3.06929 0
M  V30 467 H 45.1699 2.42155 4.331 0
M  V30 468 N 44.343 -0.763751 1.37857 0
M  V30 469 C 45.62 -1.51244 1.24035 0
M  V30 470 C 46 -2.10472 -0.162649 0
M  V30 471 O 45.348 -1.96206 -1.17112 0
M  V30 472 C 45.558 -2.58694 2.34261 0
M  V30 473 C 46.906 -3.25878 2.72193 0
M  V30 474 O 47.93 -2.68993 2.33497 0
M  V30 475 O 46.789 -4.2874 3.38887 0
M  V30 476 H 43.883 -0.670243 0.484462 0
M  V30 477 H 46.429 -0.800031 1.49658 0
M  V30 478 H 45.201 -2.13105 3.2818 0
M  V30 479 H 44.824 -3.37527 2.10146 0
M  V30 480 N 45.8211 -1.22559 -0.990812 0
M  V30 481 C 47.2371 -0.985996 -1.255 0
M  V30 482 C 47.4371 0.319173 -1.98956 0
M  V30 483 O 46.4931 1.04127 -2.3003 0
M  V30 484 C 47.8061 -2.18607 -2.06474 0
M  V30 485 C 49.3541 -2.22985 -2.19651 0
M  V30 486 C 49.8291 -3.4255 -3.04012 0
M  V30 487 N 51.3201 -3.42725 -3.11599 0
M  V30 488 C 52.0551 -4.31892 -3.7717 0
M  V30 489 N 51.5511 -5.31279 -4.44651 0
M  V30 490 N 53.3441 -4.19662 -3.73952 0
M  V30 491 H 45.4951 -2.06469 -0.49841 0
M  V30 492 H 47.7581 -0.904853 -0.282747 0
M  V30 493 H 47.4641 -3.13267 -1.59865 0
M  V30 494 H 47.3381 -2.18838 -3.07229 0
M  V30 495 H 49.7251 -1.28871 -2.65474 0
M  V30 496 H 49.8061 -2.26791 -1.18319 0
M  V30 497 H 49.4501 -4.36965 -2.58889 0
M  V30 498 H 49.3801 -3.35984 -4.0549 0
M  V30 499 H 51.8711 -2.70807 -2.63575 0
M  V30 500 H 52.1841 -5.95593 -4.92431 0
M  V30 501 H 50.5291 -5.3519 -4.43392 0
M  V30 502 H 53.7201 -3.41268 -3.20396 0
M  V30 503 H 53.8931 -4.89358 -4.24774 0
M  V30 504 N 47.2992 1.18797 -1.03562 0
M  V30 505 C 48.2472 2.24297 -0.615905 0
M  V30 506 C 49.2412 1.65643 0.354808 0
M  V30 507 O 50.4472 1.78618 0.22265 0
M  V30 508 H 46.8222 0.729909 -0.180934 0
M  V30 509 H 48.7932 2.5701 -1.5162 0
M  V30 510 C 47.5422 3.47698 0.0104735 0
M  V30 511 H 46.8652 3.93125 -0.727509 0
M  V30 512 H 48.3052 4.23159 0.266995 0
M  V30 513 C 46.7642 3.12489 1.25905 0
M  V30 514 O 47.2942 3.25761 2.35038 0
M  V30 515 N 45.5002 2.6686 1.15039 0
M  V30 516 H 45.0472 2.56261 0.262328 0
M  V30 517 H 45.0052 2.43674 1.98672 0
M  V30 518 N 48.7773 0.814389 1.34928 0
M  V30 519 C 50.0253 0.397636 1.9815 0
M  V30 520 C 50.3463 -1.04069 1.64908 0
M  V30 521 O 49.6163 -1.72121 0.93548 0
M  V30 522 H 48.1963 0.144043 0.732981 0
M  V30 523 H 50.8583 1.04195 1.6471 0
M  V30 524 H 49.9543 0.509688 3.0791 0
M  V30 525 N 50.2554 -1.46986 0.568584 0
M  V30 526 C 51.5044 -2.01646 0.0465894 0
M  V30 527 C 51.8174 -1.44721 -1.31587 0
M  V30 528 O 53.0234 -1.91113 -1.92842 0
M  V30 529 C 51.4794 -3.59885 0.032752 0
M  V30 530 C 51.0874 -4.25804 1.39266 0
M  V30 531 C 52.8314 -4.22255 -0.436038 0
M  V30 532 C 50.7384 -5.76081 1.33732 0
M  V30 533 H 49.6684 -0.753876 0.013647 0
M  V30 534 H 52.3194 -1.68864 0.718131 0
M  V30 535 H 50.7014 -3.8968 -0.704669 0
M  V30 536 H 51.8754 -4.07637 2.1487 0
M  V30 537 H 50.1904 -3.7547 1.80032 0
M  V30 538 H 52.7874 -5.32394 -0.49602 0
M  V30 539 H 53.1304 -3.90212 -1.45053 0
M  V30 540 H 53.6634 -3.97033 0.246877 0
M  V30 541 H 50.4024 -6.12761 2.32817 0
M  V30 542 H 49.9224 -5.96553 0.623267 0
M  V30 543 H 51.6014 -6.38518 1.0442 0
M  V30 544 N 51.7335 -0.305618 -1.54608 0
M  V30 545 C 52.9735 0.303114 -2.0214 0
M  V30 546 C 53.3375 1.50737 -1.18921 0
M  V30 547 O 54.5385 2.18778 -1.56172 0
M  V30 548 C 52.8095 0.646332 -3.51507 0
M  V30 549 S 54.3685 1.23727 -4.20995 0
M  V30 550 H 51.1865 0.0927643 -0.704923 0
M  V30 551 H 53.7885 -0.434566 -1.90609 0
M  V30 552 H 52.4925 -0.238541 -4.09706 0
M  V30 553 H 52.0235 1.41468 -3.67084 0
M  V30 554 H 54.0385 2.52489 -4.27158 0
M  V30 555 N 53.2116 1.57565 -0.0334293 0
M  V30 556 C 54.1586 2.10478 0.946981 0
M  V30 557 C 55.1286 1.00787 1.32027 0
M  V30 558 O 56.3136 1.28232 1.41284 0
M  V30 559 C 53.4536 2.63994 2.22263 0
M  V30 560 C 52.5666 3.87709 1.90541 0
M  V30 561 C 51.7016 4.29604 3.12433 0
M  V30 562 C 50.7406 5.46065 2.76549 0
M  V30 563 N 49.8776 5.83096 3.9108 0
M  V30 564 H 54.7176 2.93963 0.488846 0
M  V30 565 H 52.2546 1.45296 0.22969 0
M  V30 566 H 54.2126 2.93114 2.96884 0
M  V30 567 H 52.8426 1.83333 2.65685 0
M  V30 568 H 51.8946 3.65291 1.06144 0
M  V30 569 H 53.2066 4.72403 1.60116 0
M  V30 570 H 52.3606 4.60182 3.9537 0
M  V30 571 H 51.0996 3.43685 3.46023 0
M  V30 572 H 50.1046 5.15176 1.92026 0
M  V30 573 H 51.3296 6.33685 2.44171 0
M  V30 574 H 49.2756 5.00132 4.24504 0
M  V30 575 H 49.1926 6.6244 3.64293 0
M  V30 576 H 50.4606 6.18282 4.74708 0
M  V30 577 N 54.6897 -0.239769 1.55765 0
M  V30 578 C 55.9377 -0.964892 1.77579 0
M  V30 579 C 56.2587 -1.85582 0.598699 0
M  V30 580 O 55.5287 -1.92075 -0.385226 0
M  V30 581 H 54.1087 -0.359265 0.654933 0
M  V30 582 H 56.7707 -0.256001 1.93211 0
M  V30 583 H 55.8667 -1.58243 2.69009 0
M  V30 584 N 56.1678 -1.49265 -0.50573 0
M  V30 585 C 57.3928 -1.62478 -1.28902 0
M  V30 586 C 57.8178 -0.294332 -1.85783 0
M  V30 587 O 57.1758 0.737412 -1.65626 0
M  V30 588 C 57.2238 -2.69268 -2.39848 0
M  V30 589 O 56.3278 -2.28113 -3.43567 0
M  V30 590 H 55.6688 -0.54399 -0.380751 0
M  V30 591 H 58.1988 -1.95421 -0.605952 0
M  V30 592 H 58.2088 -2.91291 -2.85681 0
M  V30 593 H 56.8838 -3.65846 -1.97812 0
M  V30 594 H 55.4608 -2.16401 -3.03685 0
M  V30 595 N 57.6459 0.756429 -1.3826 0
M  V30 596 C 58.8709 1.55077 -1.37717 0
M  V30 597 C 59.2959 1.88073 0.03164 0
M  V30 598 O 58.6539 1.50364 1.01293 0
M  V30 599 C 58.7019 2.8283 -2.23695 0
M  V30 600 O 57.8059 3.77862 -1.6521 0
M  V30 601 H 57.1469 0.469152 -0.469885 0
M  V30 602 H 59.6769 0.935019 -1.81985 0
M  V30 603 H 59.6869 3.31783 -2.37453 0
M  V30 604 H 58.3619 2.58144 -3.2609 0
M  V30 605 H 56.9389 3.36555 -1.60578 0
M  V30 606 N 59.124 1.23083 0.984299 0
M  V30 607 C 60.372 1.05848 1.72165 0
M  V30 608 C 60.693 -0.406049 1.90726 0
M  V30 609 O 59.963 -1.29139 1.47309 0
M  V30 610 H 58.543 0.388685 0.637913 0
M  V30 611 H 61.205 1.54736 1.18503 0
M  V30 612 H 60.301 1.54327 2.71274 0
M  V30 613 N 60.6021 -1.18246 1.0419 0
M  V30 614 C 61.8271 -1.92736 0.765996 0
M  V30 615 C 62.2521 -1.75728 -0.67091 0
M  V30 616 O 61.6101 -1.06825 -1.46486 0
M  V30 617 C 61.6581 -3.42148 1.13875 0
M  V30 618 O 60.7621 -4.11548 0.264954 0
M  V30 619 H 60.1031 -0.601238 0.281797 0
M  V30 620 H 62.6331 -1.49942 1.39207 0
M  V30 621 H 62.6431 -3.92858 1.1012 0
M  V30 622 H 61.3181 -3.53848 2.18551 0
M  V30 623 H 59.8951 -3.71137 0.362226 0
M  V30 624 N 62.0802 -0.821533 -1.34494 0
M  V30 625 C 63.0102 -0.257138 -2.3208 0
M  V30 626 C 63.9912 0.625645 -1.58176 0
M  V30 627 O 65.1762 0.552811 -1.86166 0
M  V30 628 C 62.3062 0.582958 -3.42372 0
M  V30 629 C 61.2602 -0.202571 -4.2752 0
M  V30 630 C 60.5862 0.760179 -5.29269 0
M  V30 631 C 61.8862 -1.40998 -5.02908 0
M  V30 632 H 63.5802 -1.07247 -2.79532 0
M  V30 633 H 61.1262 -0.517163 -1.34393 0
M  V30 634 H 63.0792 0.987972 -4.09655 0
M  V30 635 H 61.8032 1.43133 -2.93565 0
M  V30 636 H 60.4622 -0.588936 -3.61838 0
M  V30 637 H 60.1102 1.60447 -4.76724 0
M  V30 638 H 59.8102 0.238809 -5.87115 0
M  V30 639 H 61.3342 1.16308 -5.9942 0
M  V30 640 H 62.7482 -1.07905 -5.63054 0
M  V30 641 H 61.1452 -1.86689 -5.70322 0
M  V30 642 H 62.2152 -2.1889 -4.32684 0
M  V30 643 N 63.5583 1.46682 -0.576371 0
M  V30 644 C 64.5063 2.31953 0.17335 0
M  V30 645 C 65.5003 1.44098 0.89062 0
M  V30 646 O 66.7063 1.60759 0.809728 0
M  V30 647 H 63.0813 0.748273 0.0747727 0
M  V30 648 H 65.0523 2.93007 -0.564738 0
M  V30 649 C 63.8013 3.27142 1.17786 0
M  V30 650 H 63.1243 3.94719 0.635361 0
M  V30 651 H 64.5643 3.896 1.67296 0
M  V30 652 C 63.0233 2.52036 2.23561 0
M  V30 653 O 63.5533 2.27877 3.3081 0
M  V30 654 N 61.7593 2.12709 1.97998 0
M  V30 655 H 61.3063 2.32557 1.10792 0
M  V30 656 H 61.2643 1.62776 2.68982 0
M  V30 657 N 65.0364 0.313813 1.54444 0
M  V30 658 C 66.2614 -0.296681 2.05267 0
M  V30 659 C 66.6864 -1.45757 1.18897 0
M  V30 660 O 66.0444 -1.80239 0.195886 0
M  V30 661 C 66.0924 -0.71831 3.53373 0
M  V30 662 O 65.1964 -1.82175 3.69981 0
M  V30 663 H 64.5374 -0.0554061 0.661684 0
M  V30 664 H 67.0674 0.459387 1.99376 0
M  V30 665 H 67.0774 -1.00364 3.95463 0
M  V30 666 H 65.7524 0.130821 4.15694 0
M  V30 667 H 64.3294 -1.53598 3.39797 0
M  V30 668 N 66.5145 -1.57545 0.0417849 0
M  V30 669 C 67.7635 -1.91494 -0.633492 0
M  V30 670 C 68.0765 -0.921084 -1.72556 0
M  V30 671 O 69.2825 -1.15228 -2.45835 0
M  V30 672 C 67.7385 -3.40072 -1.17808 0
M  V30 673 C 67.3465 -4.47843 -0.118633 0
M  V30 674 C 69.0905 -3.8307 -1.82915 0
M  V30 675 C 66.9975 -5.87529 -0.675578 0
M  V30 676 H 65.9275 -0.714653 -0.24039 0
M  V30 677 H 68.5785 -1.83175 0.109148 0
M  V30 678 H 66.9605 -3.43364 -1.97274 0
M  V30 679 H 68.1345 -4.56128 0.654494 0
M  V30 680 H 66.4495 -4.14128 0.434414 0
M  V30 681 H 69.0465 -4.84794 -2.25563 0
M  V30 682 H 69.3895 -3.1881 -2.67705 0
M  V30 683 H 69.9225 -3.82255 -1.10119 0
M  V30 684 H 66.6615 -6.55362 0.134475 0
M  V30 685 H 66.1815 -5.82824 -1.4169 0
M  V30 686 H 67.8605 -6.36491 -1.1614 0
M  V30 687 N 67.9926 0.231505 -1.5589 0
M  V30 688 C 69.4036 0.799327 -1.68724 0
M  V30 689 C 69.7546 1.85398 -0.642022 0
M  V30 690 O 68.8796 2.1539 0.208784 0
M  V30 691 C 69.4746 1.45664 -3.05888 0
M  V30 692 C 68.0336 1.97197 -3.20609 0
M  V30 693 C 67.1806 0.828552 -2.64632 0
M  V30 694 H 70.1316 0.00702616 -1.58698 0
M  V30 695 H 70.1526 2.32517 -3.01191 0
M  V30 696 H 69.6646 0.688808 -3.81939 0
M  V30 697 H 67.7656 2.76813 -2.4941 0
M  V30 698 H 67.8786 2.15878 -4.27707 0
M  V30 699 H 66.2426 1.23321 -2.22854 0
M  V30 700 H 67.0256 0.0735544 -3.43221 0
M  V30 701 N 69.4707 1.49531 0.497807 0
M  V30 702 C 70.6957 1.63159 1.28039 0
M  V30 703 C 71.1207 0.30418 1.85624 0
M  V30 704 O 70.4787 -0.728618 1.66015 0
M  V30 705 C 70.5267 2.70537 2.38416 0
M  V30 706 O 69.6307 2.29931 3.42353 0
M  V30 707 H 68.9717 0.546001 0.377861 0
M  V30 708 H 71.5017 1.9574 0.59558 0
M  V30 709 H 71.5117 2.92802 2.84132 0
M  V30 710 H 70.1867 3.6689 1.95869 0
M  V30 711 H 68.7637 2.18009 3.02533 0
M  V30 712 N 70.9488 -0.749086 1.3866 0
M  V30 713 C 72.1968 -1.50535 1.34847 0
M  V30 714 C 72.5178 -1.94909 -0.0595016 0
M  V30 715 O 71.7878 -1.67973 -1.00806 0
M  V30 716 H 70.3678 -0.558395 0.49619 0
M  V30 717 H 73.0298 -0.890165 1.73384 0
M  V30 718 H 72.1258 -2.39413 2.00219 0
M  V30 719 N 72.4269 -1.23603 -0.977757 0
M  V30 720 C 73.3569 -1.04401 -2.0886 0
M  V30 721 C 74.3379 0.0399052 -1.70053 0
M  V30 722 O 75.5229 -0.125246 -1.93796 0
M  V30 723 C 72.6529 -0.637269 -3.41403 0
M  V30 724 C 71.6069 -1.66883 -3.94124 0
M  V30 725 C 70.9329 -1.11745 -5.22893 0
M  V30 726 C 72.2329 -3.06247 -4.23096 0
M  V30 727 H 73.9269 -1.97316 -2.25182 0
M  V30 728 H 71.4729 -0.950096 -1.08209 0
M  V30 729 H 73.4259 -0.48998 -4.18542 0
M  V30 730 H 72.1499 0.327557 -3.24953 0
M  V30 731 H 70.8089 -1.80416 -3.19133 0
M  V30 732 H 70.4569 -0.143527 -5.02795 0
M  V30 733 H 70.1569 -1.80672 -5.59134 0
M  V30 734 H 71.6809 -0.982067 -6.02651 0
M  V30 735 H 73.0949 -2.96001 -4.90975 0
M  V30 736 H 71.4919 -3.72436 -4.70544 0
M  V30 737 H 72.5619 -3.55041 -3.30263 0
M  V30 738 N 73.905 1.17692 -1.04816 0
M  V30 739 C 75.133 1.91786 -0.776254 0
M  V30 740 C 75.548 1.76604 0.667577 0
M  V30 741 O 74.905 1.10067 1.45573 0
M  V30 742 C 74.956 3.42967 -1.14263 0
M  V30 743 O 74.677 3.57678 -2.52978 0
M  V30 744 C 76.178 4.34144 -0.896311 0
M  V30 745 H 73.398 0.608624 -0.282519 0
M  V30 746 H 75.942 1.49268 -1.39783 0
M  V30 747 H 74.097 3.83245 -0.565874 0
M  V30 748 H 74.511 4.51319 -2.67229 0
M  V30 749 H 75.985 5.38744 -1.20244 0
M  V30 750 H 76.462 4.38876 0.168636 0
M  V30 751 H 77.068 3.99574 -1.45672 0
M  V30 752 N 75.3831 0.828654 1.34056 0
M  V30 753 C 76.2931 0.256725 2.33191 0
M  V30 754 C 77.3091 -0.611898 1.62886 0
M  V30 755 O 78.4851 -0.51844 1.94613 0
M  V30 756 C 75.5501 -0.567238 3.42028 0
M  V30 757 C 74.6111 0.324458 4.28072 0
M  V30 758 C 73.8441 -0.460274 5.31712 0
M  V30 759 O 74.0671 -1.693 5.44696 0
M  V30 760 O 73.0011 0.160391 6.01686 0
M  V30 761 H 76.8271 1.07739 2.83947 0
M  V30 762 H 74.4121 0.59093 1.37217 0
M  V30 763 H 76.2941 -1.03582 4.08471 0
M  V30 764 H 74.9691 -1.36513 2.93506 0
M  V30 765 H 73.8761 0.840659 3.64532 0
M  V30 766 H 75.2091 1.08685 4.8005 0
M  V30 767 N 76.8612 -1.46375 0.584142 0
M  V30 768 C 77.8242 -2.28784 -0.138108 0
M  V30 769 C 78.8242 -1.38471 -0.817462 0
M  V30 770 O 80.0142 -1.60833 -0.669199 0
M  V30 771 C 77.1462 -3.18892 -1.20503 0
M  V30 772 H 78.3392 -2.94117 0.586127 0
M  V30 773 H 75.8922 -1.52509 0.342171 0
M  V30 774 H 76.6272 -2.58309 -1.96079 0
M  V30 775 H 76.4122 -3.85388 -0.722384 0
M  V30 776 H 77.9022 -3.80914 -1.71155 0
M  V30 777 N 78.3393 -0.321999 -1.54275 0
M  V30 778 C 79.5853 0.281461 -2.00837 0
M  V30 779 C 79.9183 1.51909 -1.20985 0
M  V30 780 O 79.1933 1.923 -0.291733 0
M  V30 781 C 79.4763 0.617162 -3.54772 0
M  V30 782 C 79.3293 -0.631064 -4.45351 0
M  V30 783 C 80.6483 1.43542 -4.16033 0
M  V30 784 H 77.7673 0.100826 -0.730071 0
M  V30 785 H 80.4093 -0.438268 -1.84876 0
M  V30 786 H 78.5593 1.23034 -3.68504 0
M  V30 787 H 80.2313 -1.26934 -4.43492 0
M  V30 788 H 78.4743 -1.26025 -4.15091 0
M  V30 789 H 79.1453 -0.351735 -5.50878 0
M  V30 790 H 81.6213 0.917134 -4.05867 0
M  V30 791 H 80.4973 1.63907 -5.23856 0
M  V30 792 H 80.7583 2.43108 -3.69257 0
M  V30 793 N 79.8174 1.5752 -0.0501392 0
M  V30 794 C 80.7644 2.1147 0.924603 0
M  V30 795 C 81.7344 1.02182 1.30951 0
M  V30 796 O 82.9194 1.29723 1.39916 0
M  V30 797 C 80.0594 2.66337 2.19451 0
M  V30 798 C 79.1724 3.89708 1.86418 0
M  V30 799 C 78.3074 4.32893 3.07859 0
M  V30 800 C 77.3464 5.48967 2.70742 0
M  V30 801 N 76.4834 5.87211 3.84874 0
M  V30 802 H 81.3234 2.94465 0.457639 0
M  V30 803 H 78.8604 1.45531 0.214266 0
M  V30 804 H 80.8184 2.96247 2.93758 0
M  V30 805 H 79.4484 1.86141 2.63726 0
M  V30 806 H 78.5004 3.66396 1.02264 0
M  V30 807 H 79.8124 4.74074 1.55096 0
M  V30 808 H 78.9664 4.6435 3.90466 0
M  V30 809 H 77.7054 3.47336 3.42358 0
M  V30 810 H 76.7104 5.17183 1.86551 0
M  V30 811 H 77.9354 6.3624 2.37436 0
M  V30 812 H 75.8814 5.04607 4.19175 0
M  V30 813 H 75.7984 6.66266 3.57247 0
M  V30 814 H 77.0664 6.23282 4.68123 0
M  V30 815 N 81.2955 -0.223234 1.56011 0
M  V30 816 C 82.5205 -0.968978 1.83373 0
M  V30 817 C 82.9455 -1.77227 0.630254 0
M  V30 818 O 82.3035 -1.76345 -0.420959 0
M  V30 819 C 82.3515 -1.86363 3.08709 0
M  V30 820 O 81.4555 -2.95873 2.87285 0
M  V30 821 H 80.7965 -0.274461 0.604622 0
M  V30 822 H 83.3265 -0.237056 2.03222 0
M  V30 823 H 83.3365 -2.27376 3.38768 0
M  V30 824 H 82.0115 -1.27319 3.95933 0
M  V30 825 H 80.5885 -2.58818 2.68454 0
M  V30 826 N 82.7736 -1.49793 -0.48987 0
M  V30 827 C 83.7036 -1.70201 -1.59856 0
M  V30 828 C 84.6846 -0.55076 -1.60937 0
M  V30 829 O 85.8696 -0.787841 -1.77501 0
M  V30 830 C 82.9996 -1.77882 -2.98287 0
M  V30 831 C 81.9536 -2.92907 -3.12073 0
M  V30 832 C 81.2796 -2.85712 -4.51965 0
M  V30 833 C 82.5796 -4.3369 -2.91051 0
M  V30 834 H 84.2736 -2.63025 -1.43032 0
M  V30 835 H 81.8196 -1.26574 -0.686664 0
M  V30 836 H 83.7726 -1.90744 -3.75759 0
M  V30 837 H 82.4966 -0.816653 -3.16225 0
M  V30 838 H 81.1556 -2.79665 -2.37029 0
M  V30 839 H 80.8036 -1.8738 -4.66795 0
M  V30 840 H 80.5036 -3.62921 -4.62128 0
M  V30 841 H 82.0276 -3.00598 -5.31482 0
M  V30 842 H 83.4416 -4.47555 -3.58284 0
M  V30 843 H 81.8386 -5.12205 -3.12675 0
M  V30 844 H 82.9086 -4.47362 -1.87071 0
M  V30 845 N 84.2517 0.741722 -1.39055 0
M  V30 846 C 85.5287 1.49252 -1.26425 0
M  V30 847 C 85.9087 2.10705 0.129144 0
M  V30 848 O 85.2567 1.98045 1.13976 0
M  V30 849 C 85.4667 2.54934 -2.38347 0
M  V30 850 C 86.8147 3.21506 -2.77343 0
M  V30 851 O 87.8387 2.65245 -2.37747 0
M  V30 852 O 86.6977 4.23294 -3.45665 0
M  V30 853 H 83.7917 0.662451 -0.495064 0
M  V30 854 H 86.3377 0.776121 -1.50912 0
M  V30 855 H 85.1097 2.07857 -3.31529 0
M  V30 856 H 84.7327 3.34141 -2.15489 0
M  V30 857 N 85.7298 1.2412 0.971189 0
M  V30 858 C 86.6598 1.05508 2.08304 0
M  V30 859 C 87.6408 -0.0308864 1.70072 0
M  V30 860 O 88.8258 0.135521 1.93727 0
M  V30 861 C 85.9558 0.655365 3.4106 0
M  V30 862 C 84.9098 1.68971 3.93234 0
M  V30 863 C 84.2358 1.14516 5.22293 0
M  V30 864 C 85.5358 3.08487 4.21465 0
M  V30 865 H 87.2298 1.98507 2.24132 0
M  V30 866 H 84.7758 0.955821 1.07704 0
M  V30 867 H 86.7288 0.51217 4.18276 0
M  V30 868 H 85.4528 -0.31032 3.25122 0
M  V30 869 H 84.1118 1.82106 3.18171 0
M  V30 870 H 83.7598 0.170189 5.02712 0
M  V30 871 H 83.4598 1.83635 5.58168 0
M  V30 872 H 84.9838 1.01401 6.02121 0
M  V30 873 H 86.3978 2.98601 4.89398 0
M  V30 874 H 84.7948 3.74926 4.68562 0
M  V30 875 H 85.8648 3.56787 3.28376 0
M  V30 876 N 87.2079 -1.17134 1.05439 0
M  V30 877 C 88.4329 -1.91913 0.786396 0
M  V30 878 C 88.8579 -1.7643 -0.652234 0
M  V30 879 O 88.2159 -1.08372 -1.45345 0
M  V30 880 C 88.2639 -3.40921 1.17497 0
M  V30 881 O 87.3679 -4.11244 0.308589 0
M  V30 882 H 86.7089 -0.598215 0.288158 0
M  V30 883 H 89.2389 -1.48457 1.4079 0
M  V30 884 H 89.2489 -3.91668 1.14281 0
M  V30 885 H 87.9239 -3.5151 2.22292 0
M  V30 886 H 86.5009 -3.70731 0.40157 0
M  V30 887 N 88.686 -0.835752 -1.33615 0
M  V30 888 C 89.634 -0.255238 -2.31195 0
M  V30 889 C 90.628 0.61107 -1.57995 0
M  V30 890 O 91.834 0.500979 -1.72888 0
M  V30 891 H 88.209 -0.0638085 -0.749288 0
M  V30 892 H 90.18 -1.09283 -2.77669 0
M  V30 893 C 88.929 0.55754 -3.43201 0
M  V30 894 H 88.252 -0.0997553 -3.99676 0
M  V30 895 H 89.692 0.929622 -4.13683 0
M  V30 896 C 88.151 1.73515 -2.88781 0
M  V30 897 O 88.681 2.83376 -2.84712 0
M  V30 898 N 86.887 1.55603 -2.4543 0
M  V30 899 H 86.434 0.662354 -2.48939 0
M  V30 900 H 86.392 2.34545 -2.09371 0
M  V30 901 N 90.1641 1.46063 -0.591896 0
M  V30 902 C 91.1121 2.32124 0.148739 0
M  V30 903 C 92.1061 1.45035 0.875286 0
M  V30 904 O 93.3121 1.61609 0.792632 0
M  V30 905 H 89.6871 0.749024 0.066832 0
M  V30 906 H 91.6581 2.92392 -0.595783 0
M  V30 907 C 90.4071 3.28373 1.1431 0
M  V30 908 H 89.7301 3.95371 0.59346 0
M  V30 909 H 91.1701 3.91352 1.63155 0
M  V30 910 C 89.6291 2.54393 2.20875 0
M  V30 911 O 90.1591 2.31373 3.28374 0
M  V30 912 N 88.3651 2.14797 1.95731 0
M  V30 913 H 87.9121 2.33719 1.08319 0
M  V30 914 H 87.8701 1.65619 2.67241 0
M  V30 915 N 91.6422 0.330177 1.54103 0
M  V30 916 C 93.0582 -0.0222371 1.59585 0
M  V30 917 C 93.2582 -1.49902 1.34654 0
M  V30 918 O 92.3142 -2.25592 1.13421 0
M  V30 919 C 93.6272 0.401932 2.98002 0
M  V30 920 C 95.1752 0.353145 3.11001 0
M  V30 921 C 95.6502 0.752576 4.51775 0
M  V30 922 N 97.1412 0.706239 4.57784 0
M  V30 923 C 97.8762 0.987417 5.64834 0
M  V30 924 N 97.3722 1.33607 6.79795 0
M  V30 925 N 99.1652 0.91254 5.54643 0
M  V30 926 H 91.3162 1.29228 1.68564 0
M  V30 927 H 93.5792 0.525906 0.78875 0
M  V30 928 H 93.2852 1.4311 3.21267 0
M  V30 929 H 93.1592 -0.229699 3.765 0
M  V30 930 H 95.5462 -0.666822 2.87467 0
M  V30 931 H 95.6272 1.0198 2.34593 0
M  V30 932 H 95.2712 1.77049 4.76042 0
M  V30 933 H 95.2012 0.0635409 5.26562 0
M  V30 934 H 97.6922 0.44889 3.75224 0
M  V30 935 H 98.0052 1.53582 7.57385 0
M  V30 936 H 96.3502 1.37439 6.81275 0
M  V30 937 H 99.5412 0.639601 4.6371 0
M  V30 938 H 99.7142 1.13503 6.37982 0
M  V30 939 N 93.1203 -1.57491 0.0584922 0
M  V30 940 C 94.3693 -1.92155 -0.613146 0
M  V30 941 C 94.6823 -0.939334 -1.71569 0
M  V30 942 O 95.8883 -1.17829 -2.44599 0
M  V30 943 C 94.3443 -3.41303 -1.14195 0
M  V30 944 C 93.9523 -4.47944 -0.0711265 0
M  V30 945 C 95.6963 -3.84988 -1.78841 0
M  V30 946 C 93.6033 -5.88212 -0.613225 0
M  V30 947 H 92.5333 -0.717162 -0.232796 0
M  V30 948 H 95.1843 -1.83049 0.12857 0
M  V30 949 H 93.5663 -3.45437 -1.93621 0
M  V30 950 H 94.7403 -4.55408 0.702836 0
M  V30 951 H 93.0553 -4.13644 0.478313 0
M  V30 952 H 95.6523 -4.87159 -2.20408 0
M  V30 953 H 95.9953 -3.21632 -2.64308 0
M  V30 954 H 96.5283 -3.83401 -1.06059 0
M  V30 955 H 93.2673 -6.55183 0.203978 0
M  V30 956 H 92.7873 -5.84294 -1.35501 0
M  V30 957 H 94.4663 -6.37687 -1.09383 0
M  V30 958 N 94.5984 0.214957 -1.56127 0
M  V30 959 C 95.8264 0.955092 -1.83536 0
M  V30 960 C 96.2414 1.77677 -0.638472 0
M  V30 961 O 95.5984 1.78219 0.392968 0
M  V30 962 C 95.6494 1.86734 -3.09536 0
M  V30 963 O 95.3704 1.07887 -4.24608 0
M  V30 964 C 96.8714 2.72082 -3.4998 0
M  V30 965 H 94.0914 0.279611 -0.609966 0
M  V30 966 H 96.6354 0.228197 -2.03223 0
M  V30 967 H 94.7904 2.5481 -2.91806 0
M  V30 968 H 95.2044 1.69872 -4.9623 0
M  V30 969 H 96.6784 3.31782 -4.41163 0
M  V30 970 H 97.1554 3.44806 -2.7204 0
M  V30 971 H 97.7614 2.09409 -3.70173 0
M  V30 972 N 96.0765 1.50051 0.48192 0
M  V30 973 C 97.3065 1.63999 1.2565 0
M  V30 974 C 97.7145 0.318288 1.86504 0
M  V30 975 O 97.0575 -0.708534 1.69486 0
M  V30 976 C 97.1195 2.66504 2.4128 0
M  V30 977 C 96.7835 4.10352 2.01148 0
M  V30 978 C 97.7805 4.96562 1.54021 0
M  V30 979 C 95.4655 4.56203 2.10199 0
M  V30 980 C 97.4595 6.26668 1.16473 0
M  V30 981 C 95.1465 5.86318 1.72264 0
M  V30 982 C 96.1445 6.71375 1.25477 0
M  V30 983 O 95.8325 7.99062 0.880626 0
M  V30 984 H 95.5645 0.55456 0.386574 0
M  V30 985 H 98.1185 1.96954 0.582944 0
M  V30 986 H 96.3485 2.28769 3.11772 0
M  V30 987 H 98.0375 2.69783 3.03268 0
M  V30 988 H 98.8035 4.62358 1.46458 0
M  V30 989 H 94.6825 3.90152 2.45566 0
M  V30 990 H 98.2265 6.93011 0.798841 0
M  V30 991 H 94.1235 6.20046 1.79482 0
M  V30 992 H 94.8915 8.12239 1.01043 0
M  V30 993 N 97.5546 -0.734337 1.39446 0
M  V30 994 C 98.8036 -1.48937 1.36017 0
M  V30 995 C 99.1166 -1.95557 -0.0409005 0
M  V30 996 O 100.323 -2.70779 -0.19778 0
M  V30 997 C 98.7786 -2.69125 2.38955 0
M  V30 998 C 98.3866 -2.29452 3.8478 0
M  V30 999 C 100.131 -3.46944 2.44603 0
M  V30 1000 C 98.0376 -3.46366 4.79358 0
M  V30 1001 H 96.9676 -0.559296 0.505672 0
M  V30 1002 H 99.6186 -0.800983 1.65095 0
M  V30 1003 H 98.0006 -3.40041 2.02948 0
M  V30 1004 H 99.1746 -1.66077 4.29831 0
M  V30 1005 H 97.4896 -1.64723 3.82433 0
M  V30 1006 H 100.087 -4.33907 3.12456 0
M  V30 1007 H 100.43 -3.89454 1.47076 0
M  V30 1008 H 100.963 -2.83056 2.79507 0
M  V30 1009 H 97.7016 -3.08905 5.78151 0
M  V30 1010 H 97.2216 -4.08719 4.38986 0
M  V30 1011 H 98.9006 -4.12691 4.98292 0
M  V30 1012 N 99.0327 -1.24633 -0.964593 0
M  V30 1013 C 100.258 -1.11596 -1.74818 0
M  V30 1014 C 100.683 0.32723 -1.85232 0
M  V30 1015 O 100.041 1.23695 -1.32549 0
M  V30 1016 C 100.089 -1.76397 -3.1451 0
M  V30 1017 O 99.1927 -1.03685 -3.99153 0
M  V30 1018 H 98.5337 -0.390196 -0.537255 0
M  V30 1019 H 101.064 -1.65002 -1.20977 0
M  V30 1020 H 101.074 -1.8228 -3.65018 0
M  V30 1021 H 99.7487 -2.81401 -3.06246 0
M  V30 1022 H 98.3257 -1.05611 -3.57632 0
M  V30 1023 N 100.511 1.16574 -1.06058 0
M  V30 1024 C 101.459 2.22941 -0.663343 0
M  V30 1025 C 102.453 1.66358 0.319593 0
M  V30 1026 O 103.659 1.7905 0.184713 0
M  V30 1027 H 100.034 0.725907 -0.196376 0
M  V30 1028 H 102.005 2.53736 -1.57037 0
M  V30 1029 C 100.754 3.47642 -0.0632808 0
M  V30 1030 H 100.077 3.91493 -0.810733 0
M  V30 1031 H 101.517 4.2363 0.177177 0
M  V30 1032 C 99.9758 3.1509 1.19248 0
M  V30 1033 O 100.506 3.30673 2.28075 0
M  V30 1034 N 98.7118 2.6924 1.09353 0
M  V30 1035 H 98.2588 2.5676 0.207912 0
M  V30 1036 H 98.2168 2.47833 1.93458 0
M  V30 1037 N 101.989 0.842826 1.3317 0
M  V30 1038 C 103.214 0.453129 2.02389 0
M  V30 1039 C 103.639 -0.939105 1.6298 0
M  V30 1040 O 102.997 -1.61472 0.8244 0
M  V30 1041 C 103.045 0.586094 3.55805 0
M  V30 1042 O 102.149 -0.386029 4.10589 0
M  V30 1043 H 101.49 0.183664 0.638094 0
M  V30 1044 H 104.02 1.13875 1.69981 0
M  V30 1045 H 104.03 0.469209 4.05293 0
M  V30 1046 H 102.705 1.6014 3.83833 0
M  V30 1047 H 101.282 -0.226371 3.72212 0
M  V30 1048 N 103.467 -1.45747 0.599634 0
M  V30 1049 C 104.744 -1.95585 0.0240846 0
M  V30 1050 C 105.124 -1.54217 -1.44154 0
M  V30 1051 O 104.472 -0.800903 -2.14004 0
M  V30 1052 C 104.682 -3.48344 0.21385 0
M  V30 1053 C 106.03 -4.24504 0.0904902 0
M  V30 1054 O 107.054 -3.55911 0.143558 0
M  V30 1055 O 105.913 -5.46491 -0.0310766 0
M  V30 1056 H 103.007 -0.82602 -0.0402478 0
M  V30 1057 H 105.553 -1.55951 0.669139 0
M  V30 1058 H 104.325 -3.71397 1.23206 0
M  V30 1059 H 103.948 -3.9485 -0.466842 0
M  V30 1060 N 104.945 -0.338344 -1.53925 0
M  V30 1061 C 105.875 0.51328 -2.27789 0
M  V30 1062 C 106.856 1.107 -1.29149 0
M  V30 1063 O 108.041 1.12937 -1.57984 0
M  V30 1064 C 105.171 1.66697 -3.04679 0
M  V30 1065 C 104.125 1.20183 -4.1078 0
M  V30 1066 C 103.451 2.44363 -4.75595 0
M  V30 1067 C 104.751 0.30605 -5.21403 0
M  V30 1068 H 106.445 -0.102883 -2.99223 0
M  V30 1069 H 103.991 -0.0509219 -1.4391 0
M  V30 1070 H 105.944 2.26915 -3.55088 0
M  V30 1071 H 104.668 2.30995 -2.30887 0
M  V30 1072 H 103.327 0.622499 -3.61276 0
M  V30 1073 H 102.975 3.07057 -3.98403 0
M  V30 1074 H 102.675 2.13925 -5.47275 0
M  V30 1075 H 104.199 3.05317 -5.28786 0
M  V30 1076 H 105.613 0.814929 -5.67478 0
M  V30 1077 H 104.01 0.0937929 -6.00027 0
M  V30 1078 H 105.08 -0.65921 -4.80398 0
M  V30 1079 N 106.423 1.57458 -0.0668435 0
M  V30 1080 C 107.355 2.09413 0.931601 0
M  V30 1081 C 108.368 1.02522 1.26464 0
M  V30 1082 O 109.557 1.30049 1.22269 0
M  V30 1083 C 106.657 2.53537 2.24882 0
M  V30 1084 C 105.83 3.83944 2.09537 0
M  V30 1085 C 104.889 4.14214 3.2452 0
M  V30 1086 O 103.915 4.83891 2.9973 0
M  V30 1087 N 105.117 3.67367 4.49469 0
M  V30 1088 H 107.882 2.95699 0.488048 0
M  V30 1089 H 105.443 1.61462 0.119009 0
M  V30 1090 H 107.435 2.70853 3.00701 0
M  V30 1091 H 106.005 1.72415 2.60753 0
M  V30 1092 H 105.225 3.76057 1.18215 0
M  V30 1093 H 106.513 4.69312 1.96529 0
M  V30 1094 H 105.911 3.11068 4.72497 0
M  V30 1095 H 104.468 3.89891 5.2233 0
M  V30 1096 N 107.901 -0.206675 1.56239 0
M  V30 1097 C 109.317 -0.557025 1.49564 0
M  V30 1098 C 109.517 -1.86424 0.764735 0
M  V30 1099 O 108.573 -2.50584 0.310491 0
M  V30 1100 C 109.886 -0.622478 2.94186 0
M  V30 1101 C 111.434 -0.712099 3.04792 0
M  V30 1102 C 111.909 -0.808767 4.50803 0
M  V30 1103 N 113.4 -0.8726 4.54907 0
M  V30 1104 C 114.135 -0.967365 5.65181 0
M  V30 1105 N 113.631 -1.02515 6.85173 0
M  V30 1106 N 115.424 -1.00366 5.53067 0
M  V30 1107 H 107.575 0.650943 2.02179 0
M  V30 1108 H 109.838 0.230387 0.919579 0
M  V30 1109 H 109.544 0.268727 3.50672 0
M  V30 1110 H 109.418 -1.4811 3.46905 0
M  V30 1111 H 111.805 -1.59374 2.48363 0
M  V30 1112 H 111.886 0.172489 2.55218 0
M  V30 1113 H 111.53 0.0684754 5.07854 0
M  V30 1114 H 111.46 -1.70899 4.98098 0
M  V30 1115 H 113.951 -0.837657 3.68499 0
M  V30 1116 H 114.264 -1.09765 7.64965 0
M  V30 1117 H 112.609 -0.994026 6.87855 0
M  V30 1118 H 115.8 -0.95527 4.58249 0
M  V30 1119 H 115.973 -1.07405 6.39037 0
M  V30 1120 N 109.379 -1.50304 -0.473955 0
M  V30 1121 C 110.619 -1.62786 -1.23612 0
M  V30 1122 C 110.983 -0.319786 -1.89318 0
M  V30 1123 O 112.184 -0.320012 -2.66888 0
M  V30 1124 C 110.455 -2.77351 -2.25414 0
M  V30 1125 S 112.014 -3.09948 -3.10608 0
M  V30 1126 H 108.832 -0.573895 -0.419721 0
M  V30 1127 H 111.434 -1.88076 -0.533623 0
M  V30 1128 H 110.138 -3.70879 -1.75719 0
M  V30 1129 H 109.669 -2.54137 -3.00296 0
M  V30 1130 H 111.684 -2.53553 -4.26527 0
M  V30 1131 N 110.857 0.726932 -1.39834 0
M  V30 1132 C 112.103 1.48884 -1.377 0
M  V30 1133 C 112.436 1.94185 0.0244852 0
M  V30 1134 O 111.711 1.67361 0.990986 0
M  V30 1135 C 111.994 2.72288 -2.3565 0
M  V30 1136 C 111.847 2.32956 -3.84775 0
M  V30 1137 C 113.166 3.74414 -2.31306 0
M  V30 1138 H 110.285 0.540062 -0.5015 0
M  V30 1139 H 112.927 0.830547 -1.70886 0
M  V30 1140 H 111.077 3.28457 -2.07481 0
M  V30 1141 H 112.749 1.82356 -4.23726 0
M  V30 1142 H 110.992 1.65088 -4.01159 0
M  V30 1143 H 111.663 3.21362 -4.4881 0
M  V30 1144 H 114.139 3.27849 -2.56231 0
M  V30 1145 H 113.015 4.58414 -3.01907 0
M  V30 1146 H 113.276 4.21909 -1.32081 0
M  V30 1147 N 112.336 1.25143 0.95797 0
M  V30 1148 C 113.284 1.05019 2.07542 0
M  V30 1149 C 114.278 -0.0178751 1.69391 0
M  V30 1150 O 115.484 0.137472 1.79474 0
M  V30 1151 H 111.859 0.32265 0.679265 0
M  V30 1152 H 113.83 1.99759 2.21673 0
M  V30 1153 C 112.579 0.682074 3.40944 0
M  V30 1154 H 111.902 1.49573 3.70767 0
M  V30 1155 H 113.342 0.580945 4.20001 0
M  V30 1156 C 111.801 -0.611608 3.31302 0
M  V30 1157 O 112.331 -1.65465 3.66038 0
M  V30 1158 N 110.537 -0.595982 2.84423 0
M  V30 1159 H 110.084 0.253192 2.56353 0
M  V30 1160 H 110.042 -1.46173 2.78354 0
M  V30 1161 N 113.814 -1.1601 1.06675 0
M  V30 1162 C 114.744 -2.22688 0.702307 0
M  V30 1163 C 115.725 -1.67306 -0.307032 0
M  V30 1164 O 116.91 -1.93352 -0.181305 0
M  V30 1165 C 114.04 -3.47178 0.092038 0
M  V30 1166 C 112.994 -4.15477 1.02777 0
M  V30 1167 C 112.32 -5.33963 0.28061 0
M  V30 1168 C 113.62 -4.66019 2.35846 0
M  V30 1169 H 115.314 -2.53429 1.59419 0
M  V30 1170 H 112.86 -1.21813 0.767961 0
M  V30 1171 H 114.813 -4.21037 -0.174814 0
M  V30 1172 H 113.537 -3.15749 -0.834877 0
M  V30 1173 H 112.196 -3.43549 1.27944 0
M  V30 1174 H 111.844 -4.98788 -0.649545 0
M  V30 1175 H 111.544 -5.806 0.904258 0
M  V30 1176 H 113.068 -6.10596 0.021396 0
M  V30 1177 H 114.482 -5.3144 2.15045 0
M  V30 1178 H 112.879 -5.23293 2.93743 0
M  V30 1179 H 113.949 -3.82023 2.98641 0
M  V30 1180 N 115.292 -0.849877 -1.32721 0
M  V30 1181 C 116.224 -0.248332 -2.27851 0
M  V30 1182 C 117.237 0.577218 -1.52224 0
M  V30 1183 O 118.426 0.402489 -1.73903 0
M  V30 1184 C 115.526 0.668107 -3.32249 0
M  V30 1185 C 114.699 -0.120534 -4.37234 0
M  V30 1186 C 113.758 0.720932 -5.21238 0
M  V30 1187 O 112.784 0.156166 -5.68986 0
M  V30 1188 N 113.986 2.03647 -5.43607 0
M  V30 1189 H 116.751 -1.06575 -2.80111 0
M  V30 1190 H 114.312 -0.709395 -1.45531 0
M  V30 1191 H 116.304 1.23627 -3.85355 0
M  V30 1192 H 114.874 1.38621 -2.80184 0
M  V30 1193 H 114.094 -0.870108 -3.84477 0
M  V30 1194 H 115.382 -0.662406 -5.0447 0
M  V30 1195 H 114.78 2.51871 -5.06535 0
M  V30 1196 H 113.337 2.55287 -5.99727 0
M  V30 1197 N 116.77 1.45427 -0.607355 0
M  V30 1198 C 117.733 2.28974 0.101693 0
M  V30 1199 C 118.733 1.39754 0.795329 0
M  V30 1200 O 119.923 1.61878 0.643527 0
M  V30 1201 C 117.055 3.20768 1.15414 0
M  V30 1202 H 118.248 2.93147 -0.632844 0
M  V30 1203 H 115.801 1.51945 -0.366391 0
M  V30 1204 H 116.536 2.61395 1.91945 0
M  V30 1205 H 116.321 3.86489 0.66098 0
M  V30 1206 H 117.811 3.83589 1.65073 0
M  V30 1207 N 118.248 0.346503 1.53744 0
M  V30 1208 C 119.178 -0.501193 2.28058 0
M  V30 1209 C 120.159 -1.10014 1.29734 0
M  V30 1210 O 121.344 -1.12097 1.58581 0
M  V30 1211 C 118.474 -1.65078 3.05559 0
M  V30 1212 C 117.428 -1.18003 4.11411 0
M  V30 1213 C 116.754 -2.41837 4.76884 0
M  V30 1214 C 118.054 -0.278394 5.21558 0
M  V30 1215 H 119.748 0.11875 2.99164 0
M  V30 1216 H 117.294 0.0585531 1.43881 0
M  V30 1217 H 119.247 -2.25028 3.56287 0
M  V30 1218 H 117.971 -2.29767 2.32109 0
M  V30 1219 H 116.63 -0.603331 3.61601 0
M  V30 1220 H 116.278 -3.0494 4.00026 0
M  V30 1221 H 115.978 -2.1102 5.48402 0
M  V30 1222 H 117.502 -3.02508 5.30397 0
M  V30 1223 H 118.916 -0.784823 5.67903 0
M  V30 1224 H 117.313 -0.0619707 6.00068 0
M  V30 1225 H 118.383 0.684677 4.80042 0
M  V30 1226 N 119.726 -1.57421 0.075193 0
M  V30 1227 C 120.972 -1.93905 -0.594025 0
M  V30 1228 C 121.305 -0.955701 -1.69056 0
M  V30 1229 O 120.58 0.0145373 -1.94495 0
M  V30 1230 C 120.863 -3.40638 -1.1678 0
M  V30 1231 C 120.716 -4.49733 -0.0776792 0
M  V30 1232 C 122.035 -3.88259 -2.07228 0
M  V30 1233 H 119.154 -0.705105 -0.214466 0
M  V30 1234 H 121.796 -1.8947 0.141854 0
M  V30 1235 H 119.946 -3.44549 -1.79494 0
M  V30 1236 H 121.618 -4.57942 0.555573 0
M  V30 1237 H 119.861 -4.29751 0.591286 0
M  V30 1238 H 120.532 -5.49549 -0.519603 0
M  V30 1239 H 123.008 -3.86376 -1.54445 0
M  V30 1240 H 121.884 -4.91533 -2.44308 0
M  V30 1241 H 122.145 -3.26396 -2.98191 0
M  V30 1242 N 121.204 0.198386 -1.56346 0
M  V30 1243 C 122.134 1.24865 -1.9731 0
M  V30 1244 C 123.115 1.47651 -0.844576 0
M  V30 1245 O 124.3 1.59444 -1.10866 0
M  V30 1246 C 121.43 2.59358 -2.30977 0
M  V30 1247 C 120.384 2.5119 -3.46537 0
M  V30 1248 C 119.71 3.89926 -3.65871 0
M  V30 1249 C 121.01 2.03977 -4.80823 0
M  V30 1250 H 122.704 0.908252 -2.85291 0
M  V30 1251 H 120.25 0.435462 -1.37258 0
M  V30 1252 H 122.203 3.33011 -2.58228 0
M  V30 1253 H 120.927 2.95132 -1.39874 0
M  V30 1254 H 119.586 1.79993 -3.19371 0
M  V30 1255 H 119.234 4.23046 -2.72105 0
M  V30 1256 H 118.934 3.85336 -4.4361 0
M  V30 1257 H 120.458 4.65205 -3.95495 0
M  V30 1258 H 121.872 2.67386 -5.07127 0
M  V30 1259 H 120.269 2.10397 -5.62008 0
M  V30 1260 H 121.339 0.992861 -4.74626 0
M  V30 1261 N 122.682 1.50554 0.465978 0
M  V30 1262 C 123.91 1.65563 1.24083 0
M  V30 1263 C 124.325 0.341051 1.85694 0
M  V30 1264 O 123.682 -0.677543 1.69457 0
M  V30 1265 C 123.733 2.75051 2.34583 0
M  V30 1266 O 123.454 4.01413 1.75497 0
M  V30 1267 C 124.955 3.01078 3.25372 0
M  V30 1268 H 122.175 0.55638 0.375077 0
M  V30 1269 H 124.719 1.96807 0.555624 0
M  V30 1270 H 122.874 2.46486 2.9887 0
M  V30 1271 H 123.288 4.62002 2.48303 0
M  V30 1272 H 124.762 3.81339 3.99105 0
M  V30 1273 H 125.239 2.12349 3.84453 0
M  V30 1274 H 125.845 3.31194 2.66816 0
M  V30 1275 N 124.16 -0.719506 1.40217 0
M  V30 1276 C 125.385 -1.51371 1.4178 0
M  V30 1277 C 125.81 -1.88091 0.0182355 0
M  V30 1278 O 125.168 -1.52997 -0.972707 0
M  V30 1279 C 125.216 -2.768 2.31115 0
M  V30 1280 O 124.32 -3.73349 1.7517 0
M  V30 1281 H 123.661 -0.456529 0.482159 0
M  V30 1282 H 126.191 -0.88644 1.844 0
M  V30 1283 H 126.201 -3.25371 2.46167 0
M  V30 1284 H 124.876 -2.49407 3.3282 0
M  V30 1285 H 123.453 -3.32179 1.69444 0
M  V30 1286 N 125.638 -1.25649 -0.95132 0
M  V30 1287 C 126.586 -1.06118 -2.06982 0
M  V30 1288 C 127.58 0.00889169 -1.69398 0
M  V30 1289 O 128.786 -0.146988 -1.79399 0
M  V30 1290 H 125.161 -0.326248 -0.677544 0
M  V30 1291 H 127.132 -2.00932 -2.2061 0
M  V30 1292 C 125.881 -0.700145 -3.40578 0
M  V30 1293 H 125.204 -1.51537 -3.69968 0
M  V30 1294 H 126.644 -0.603211 -4.19687 0
M  V30 1295 C 125.103 0.59403 -3.31622 0
M  V30 1296 O 125.633 1.63522 -3.66911 0
M  V30 1297 N 123.839 0.58089 -2.84735 0
M  V30 1298 H 123.386 -0.266783 -2.56215 0
M  V30 1299 H 123.344 1.44695 -2.79125 0
M  V30 1300 N 127.117 1.15442 -1.07289 0
M  V30 1301 C 128.365 1.85845 -0.794096 0
M  V30 1302 C 128.686 1.82692 0.681809 0
M  V30 1303 O 127.956 1.26741 1.49377 0
M  V30 1304 H 126.536 0.688089 -0.290763 0
M  V30 1305 H 129.198 1.39947 -1.3565 0
M  V30 1306 H 128.294 2.91001 -1.12804 0
M  V30 1307 N 128.595 0.856903 1.32268 0
M  V30 1308 C 129.844 0.457599 1.96441 0
M  V30 1309 C 130.157 -0.992426 1.68553 0
M  V30 1310 O 131.363 -1.49727 2.26482 0
M  V30 1311 C 129.819 0.767358 3.51624 0
M  V30 1312 C 129.427 2.23326 3.88367 0
M  V30 1313 C 131.171 0.435887 4.22256 0
M  V30 1314 C 129.078 2.48613 5.36606 0
M  V30 1315 H 128.008 0.167387 0.735185 0
M  V30 1316 H 130.659 1.048 1.5063 0
M  V30 1317 H 129.041 0.106367 3.95857 0
M  V30 1318 H 130.215 2.93623 3.55137 0
M  V30 1319 H 128.53 2.52948 3.30766 0
M  V30 1320 H 131.127 0.602202 5.31298 0
M  V30 1321 H 131.47 -0.622672 4.11617 0
M  V30 1322 H 132.003 1.05286 3.83614 0
M  V30 1323 H 128.742 3.53101 5.52268 0
M  V30 1324 H 128.262 1.82896 5.71235 0
M  V30 1325 H 129.941 2.32676 6.03714 0
M  V30 1326 N 130.073 -1.45103 0.615059 0
M  V30 1327 C 131.021 -2.32331 -0.111791 0
M  V30 1328 C 132.015 -1.46409 -0.852102 0
M  V30 1329 O 133.221 -1.62849 -0.766821 0
M  V30 1330 H 129.596 -0.749993 -0.0549072 0
M  V30 1331 H 131.567 -2.91407 0.642225 0
M  V30 1332 C 130.316 -3.3015 -1.09071 0
M  V30 1333 H 129.639 -3.96265 -0.530485 0
M  V30 1334 H 131.079 -3.93898 -1.56908 0
M  V30 1335 C 129.538 -2.57875 -2.168 0
M  V30 1336 O 130.068 -2.36567 -3.24652 0
M  V30 1337 N 128.274 -2.17884 -1.92289 0
M  V30 1338 H 127.821 -2.35413 -1.04587 0
M  V30 1339 H 127.779 -1.6985 -2.64572 0
M  V30 1340 N 131.551 -0.354651 -1.53558 0
M  V30 1341 C 132.779 0.239515 -2.05509 0
M  V30 1342 C 133.194 1.4333 -1.2289 0
M  V30 1343 O 132.551 1.80538 -0.266899 0
M  V30 1344 C 132.602 0.643719 -3.55723 0
M  V30 1345 O 132.323 -0.502602 -4.35207 0
M  V30 1346 C 133.824 1.29743 -4.23889 0
M  V30 1347 H 131.044 0.0442697 -0.669538 0
M  V30 1348 H 133.588 -0.509856 -1.98042 0
M  V30 1349 H 131.743 1.34302 -3.63376 0
M  V30 1350 H 132.157 -0.178172 -5.24197 0
M  V30 1351 H 133.631 1.53091 -5.30346 0
M  V30 1352 H 134.108 2.25441 -3.76926 0
M  V30 1353 H 134.714 0.639865 -4.20459 0
M  V30 1354 N 133.029 1.57378 -0.0835403 0
M  V30 1355 C 134.278 1.93106 0.582498 0
M  V30 1356 C 134.591 0.96651 1.70053 0
M  V30 1357 O 135.797 1.21705 2.42693 0
M  V30 1358 C 134.253 3.43076 1.08751 0
M  V30 1359 C 133.861 4.48 -0.000146404 0
M  V30 1360 C 135.605 3.87785 1.72694 0
M  V30 1361 C 133.512 5.89113 0.519568 0
M  V30 1362 H 132.442 0.720775 0.221358 0
M  V30 1363 H 135.093 1.82821 -0.157675 0
M  V30 1364 H 133.475 3.48474 1.88101 0
M  V30 1365 H 134.649 4.54233 -0.775199 0
M  V30 1366 H 132.964 4.1283 -0.54406 0
M  V30 1367 H 135.561 4.90604 2.1263 0
M  V30 1368 H 135.904 3.25796 2.59158 0
M  V30 1369 H 136.437 3.8504 0.999457 0
M  V30 1370 H 133.176 6.54775 -0.308186 0
M  V30 1371 H 132.696 5.86376 1.26188 0
M  V30 1372 H 134.375 6.39346 0.992237 0
M  V30 1373 N 134.507 -0.190092 1.56449 0
M  V30 1374 C 135.417 -1.25591 1.98152 0
M  V30 1375 C 136.433 -1.49519 0.889944 0
M  V30 1376 O 137.609 -1.62036 1.19609 0
M  V30 1377 C 134.674 -2.57916 2.3169 0
M  V30 1378 C 133.735 -2.42015 3.5458 0
M  V30 1379 C 132.968 -3.6803 3.8651 0
M  V30 1380 O 133.191 -4.72413 3.1966 0
M  V30 1381 O 132.125 -3.6326 4.79923 0
M  V30 1382 H 135.951 -0.931988 2.89046 0
M  V30 1383 H 133.536 -0.395488 1.4407 0
M  V30 1384 H 135.418 -3.36008 2.54316 0
M  V30 1385 H 134.093 -2.89925 1.43963 0
M  V30 1386 H 133 -1.62017 3.37196 0
M  V30 1387 H 134.333 -2.14937 4.4279 0
M  V30 1388 N 135.985 -1.50799 -0.457987 0
M  V30 1389 C 136.895 -1.73426 -1.57989 0
M  V30 1390 C 137.911 -0.617745 -1.62665 0
M  V30 1391 O 139.087 -0.897614 -1.80291 0
M  V30 1392 C 136.152 -1.83557 -2.94122 0
M  V30 1393 C 135.213 -3.07345 -2.99729 0
M  V30 1394 C 134.446 -3.16983 -4.29368 0
M  V30 1395 O 134.669 -2.33077 -5.20607 0
M  V30 1396 O 133.603 -4.09812 -4.40837 0
M  V30 1397 H 137.429 -2.68555 -1.41817 0
M  V30 1398 H 135.014 -1.35052 -0.638859 0
M  V30 1399 H 136.896 -1.92326 -3.74952 0
M  V30 1400 H 135.571 -0.916137 -3.10465 0
M  V30 1401 H 134.478 -3.04068 -2.1793 0
M  V30 1402 H 135.811 -3.9891 -2.88326 0
M  V30 1403 N 137.463 0.71206 -1.40597 0
M  V30 1404 C 138.74 1.46536 -1.29563 0
M  V30 1405 C 139.12 2.10931 0.0844217 0
M  V30 1406 O 138.468 2.00418 1.0975 0
M  V30 1407 C 138.678 2.49821 -2.43701 0
M  V30 1408 C 140.026 3.15551 -2.841 0
M  V30 1409 O 141.05 2.60142 -2.4332 0
M  V30 1410 O 139.909 4.15867 -3.54566 0
M  V30 1411 H 137.003 0.651801 -0.509004 0
M  V30 1412 H 139.549 0.743935 -1.52524 0
M  V30 1413 H 138.321 2.00778 -3.35863 0
M  V30 1414 H 137.944 3.29495 -2.22528 0
M  V30 1415 N 138.941 1.26152 0.944643 0
M  V30 1416 C 140.166 1.14363 1.7302 0
M  V30 1417 C 140.591 -0.29772 1.85729 0
M  V30 1418 O 139.949 -1.2157 1.34501 0
M  V30 1419 C 139.997 1.81378 3.11664 0
M  V30 1420 O 139.101 1.10022 3.97453 0
M  V30 1421 H 138.442 0.398694 0.53098 0
M  V30 1422 H 140.972 1.66906 1.18337 0
M  V30 1423 H 140.982 1.88064 3.62072 0
M  V30 1424 H 139.657 2.86237 3.0173 0
M  V30 1425 H 138.234 1.11287 3.55907 0
M  V30 1426 N 140.419 -1.14872 1.07899 0
M  V30 1427 C 141.666 -1.85789 0.805532 0
M  V30 1428 C 141.994 -1.82649 -0.668561 0
M  V30 1429 O 141.249 -1.24858 -1.50695 0
M  V30 1430 C 141.548 -3.34223 1.26609 0
M  V30 1431 C 141.214 -3.57555 2.74709 0
M  V30 1432 C 139.876 -3.63631 3.1516 0
M  V30 1433 C 142.228 -3.66803 3.70277 0
M  V30 1434 C 139.556 -3.76473 4.49983 0
M  V30 1435 C 141.908 -3.8117 5.04869 0
M  V30 1436 C 140.572 -3.85494 5.44932 0
M  V30 1437 H 139.842 -0.679849 0.294765 0
M  V30 1438 H 142.489 -1.3572 1.35101 0
M  V30 1439 H 140.794 -3.86536 0.640103 0
M  V30 1440 H 142.491 -3.87511 1.03132 0
M  V30 1441 H 139.081 -3.5347 2.42398 0
M  V30 1442 H 143.265 -3.61404 3.40149 0
M  V30 1443 H 138.521 -3.7808 4.80484 0
M  V30 1444 H 142.695 -3.87268 5.78789 0
M  V30 1445 H 140.322 -3.95197 6.49403 0
M  V30 1446 N 141.898 -0.863906 -1.31812 0
M  V30 1447 C 143.123 -0.48527 -2.01643 0
M  V30 1448 C 143.548 0.913058 -1.64453 0
M  V30 1449 O 142.906 1.6014 -0.849985 0
M  V30 1450 C 142.954 -0.642625 -3.54828 0
M  V30 1451 O 142.058 0.320659 -4.11151 0
M  V30 1452 H 141.399 -0.193793 -0.635091 0
M  V30 1453 H 143.929 -1.16565 -1.68148 0
M  V30 1454 H 143.939 -0.533628 -4.04495 0
M  V30 1455 H 142.614 -1.66227 -3.81237 0
M  V30 1456 H 141.191 0.167126 -3.72525 0
M  V30 1457 N 143.376 1.44774 -0.622745 0
M  V30 1458 C 144.601 2.06999 -0.128968 0
M  V30 1459 C 145.026 1.4617 1.1839 0
M  V30 1460 O 144.384 0.560007 1.72434 0
M  V30 1461 C 144.432 3.60595 -0.0188351 0
M  V30 1462 O 143.536 3.99398 1.02739 0
M  V30 1463 H 142.877 0.659047 -0.0809544 0
M  V30 1464 H 145.407 1.85784 -0.85705 0
M  V30 1465 H 145.417 4.07627 0.174476 0
M  V30 1466 H 144.092 4.04252 -0.977384 0
M  V30 1467 H 142.669 3.64011 0.809326 0
M  V30 1468 N 144.854 0.36279 1.53368 0
M  V30 1469 C 145.784 -0.476976 2.28576 0
M  V30 1470 C 146.765 -1.08631 1.30894 0
M  V30 1471 O 147.95 -1.10409 1.59761 0
M  V30 1472 C 145.08 -1.61828 3.07293 0
M  V30 1473 C 144.034 -1.13633 4.1264 0
M  V30 1474 C 143.36 -2.36766 4.79423 0
M  V30 1475 C 144.66 -0.223061 5.21823 0
M  V30 1476 H 146.354 0.150474 2.99022 0
M  V30 1477 H 143.9 0.0738103 1.43811 0
M  V30 1478 H 145.853 -2.21237 3.58653 0
M  V30 1479 H 144.577 -2.27292 2.34533 0
M  V30 1480 H 143.236 -0.564945 3.62221 0
M  V30 1481 H 142.884 -3.0068 4.03238 0
M  V30 1482 H 142.584 -2.05192 5.50609 0
M  V30 1483 H 144.108 -2.96865 5.33576 0
M  V30 1484 H 145.522 -0.724545 5.68703 0
M  V30 1485 H 143.919 0.001678 6.001 0
M  V30 1486 H 144.989 0.735553 4.79289 0
M  V30 1487 N 146.332 -1.57332 0.0918853 0
M  V30 1488 C 147.58 -1.93853 -0.571446 0
M  V30 1489 C 147.901 -0.974212 -1.6892 0
M  V30 1490 O 147.171 -0.0257254 -1.95883 0
M  V30 1491 H 145.751 -0.715666 -0.214082 0
M  V30 1492 H 148.413 -1.94287 0.154464 0
M  V30 1493 H 147.509 -2.96191 -0.983729 0
M  V30 1494 N 147.81 0.181792 -1.56548 0
M  V30 1495 C 149.035 0.920019 -1.85877 0
M  V30 1496 C 149.46 1.75494 -0.677021 0
M  V30 1497 O 148.818 1.77399 0.374056 0
M  V30 1498 C 148.866 1.78112 -3.13542 0
M  V30 1499 O 147.97 2.88152 -2.95029 0
M  V30 1500 H 147.311 0.258334 -0.611686 0
M  V30 1501 H 149.841 0.183092 -2.03779 0
M  V30 1502 H 149.851 2.18314 -3.44678 0
M  V30 1503 H 148.526 1.16777 -3.99169 0
M  V30 1504 H 147.103 2.51609 -2.75222 0
M  V30 1505 N 149.288 1.51039 0.449983 0
M  V30 1506 C 150.218 1.74379 1.55288 0
M  V30 1507 C 151.199 0.593236 1.5942 0
M  V30 1508 O 152.384 0.834625 1.7535 0
M  V30 1509 C 149.514 1.85728 2.93466 0
M  V30 1510 C 148.468 3.01078 3.04197 0
M  V30 1511 C 147.794 2.97595 4.44231 0
M  V30 1512 C 149.094 4.41254 2.7945 0
M  V30 1513 H 150.788 2.66725 1.36008 0
M  V30 1514 H 148.334 1.2835 0.652864 0
M  V30 1515 H 150.287 2.0064 3.70569 0
M  V30 1516 H 149.011 0.900207 3.13949 0
M  V30 1517 H 147.67 2.85851 2.29531 0
M  V30 1518 H 147.318 1.99691 4.61663 0
M  V30 1519 H 147.018 3.75046 4.52343 0
M  V30 1520 H 148.542 3.14583 5.23326 0
M  V30 1521 H 149.956 4.56897 3.46292 0
M  V30 1522 H 148.353 5.20315 2.98985 0
M  V30 1523 H 149.423 4.52164 1.75144 0
M  V30 1524 N 150.766 -0.704594 1.40972 0
M  V30 1525 C 151.676 -1.84856 1.44448 0
M  V30 1526 C 152.692 -1.70726 0.335961 0
M  V30 1527 O 153.868 -1.92799 0.582276 0
M  V30 1528 C 150.933 -3.20758 1.31587 0
M  V30 1529 C 149.994 -3.47063 2.52677 0
M  V30 1530 C 149.227 -4.76481 2.4042 0
M  V30 1531 O 149.45 -5.52341 1.42391 0
M  V30 1532 O 148.384 -5.03367 3.30007 0
M  V30 1533 H 152.21 -1.8488 2.40942 0
M  V30 1534 H 149.795 -0.85647 1.22413 0
M  V30 1535 H 151.677 -4.01913 1.26665 0
M  V30 1536 H 150.352 -3.21438 0.382049 0
M  V30 1537 H 149.259 -2.65873 2.63177 0
M  V30 1538 H 150.592 -3.5119 3.44858 0
M  V30 1539 N 152.244 -1.26651 -0.937939 0
M  V30 1540 C 153.194 -1.05156 -2.02302 0
M  V30 1541 C 154.178 0.0171233 -1.60891 0
M  V30 1542 O 155.37 -0.200213 -1.75864 0
M  V30 1543 C 152.499 -0.689962 -3.36295 0
M  V30 1544 C 151.585 -1.79626 -3.84181 0
M  V30 1545 N 151.976 -3.03422 -4.04684 0
M  V30 1546 C 150.274 -1.6806 -4.13124 0
M  V30 1547 C 150.975 -3.75345 -4.444 0
M  V30 1548 N 149.951 -3.03051 -4.51288 0
M  V30 1549 H 153.753 -1.99117 -2.1617 0
M  V30 1550 H 151.267 -1.17216 -1.12402 0
M  V30 1551 H 153.264 -0.517112 -4.13681 0
M  V30 1552 H 151.924 0.242139 -3.23796 0
M  V30 1553 H 152.935 -3.39293 -3.91281 0
M  V30 1554 H 149.612 -0.818629 -4.09396 0
M  V30 1555 H 151.002 -4.81691 -4.68427 0
M  V30 1556 N 153.722 1.14298 -1.08507 0
M  V30 1557 C 154.652 2.21542 -0.737646 0
M  V30 1558 C 155.633 1.67773 0.280377 0
M  V30 1559 O 156.818 1.93616 0.150521 0
M  V30 1560 C 153.948 3.46988 -0.147259 0
M  V30 1561 C 152.902 4.13789 -1.09374 0
M  V30 1562 C 152.228 5.33449 -0.365524 0
M  V30 1563 C 153.528 4.62208 -2.4323 0
M  V30 1564 H 155.222 2.5086 -1.6343 0
M  V30 1565 H 152.768 1.20576 -0.787243 0
M  V30 1566 H 154.721 4.21262 0.107808 0
M  V30 1567 H 153.445 3.17037 0.784538 0
M  V30 1568 H 152.104 3.4147 -1.33393 0
M  V30 1569 H 151.752 4.99759 0.57011 0
M  V30 1570 H 151.452 5.79088 -0.996512 0
M  V30 1571 H 152.976 6.10485 -0.118534 0
M  V30 1572 H 154.39 5.27952 -2.23472 0
M  V30 1573 H 152.787 5.18553 -3.02031 0
M  V30 1574 H 153.857 3.77224 -3.04681 0
M  V30 1575 N 155.201 0.870884 1.31352 0
M  V30 1576 C 156.478 0.402907 1.91405 0
M  V30 1577 C 156.858 -1.11512 1.79244 0
M  V30 1578 O 156.206 -1.94411 1.2007 0
M  V30 1579 C 156.416 0.885301 3.37585 0
M  V30 1580 C 157.764 0.911971 4.14691 0
M  V30 1581 O 158.788 0.831016 3.46371 0
M  V30 1582 O 157.647 1.02927 5.3672 0
M  V30 1583 H 154.741 0.120698 0.818145 0
M  V30 1584 H 157.287 0.958857 1.40014 0
M  V30 1585 H 156.059 1.92889 3.40455 0
M  V30 1586 H 155.682 0.307714 3.96407 0
M  V30 1587 N 156.679 -1.44442 0.630414 0
M  V30 1588 C 157.609 -2.33418 -0.0618083 0
M  V30 1589 C 158.59 -1.48165 -0.835541 0
M  V30 1590 O 159.775 -1.76886 -0.801564 0
M  V30 1591 C 156.905 -3.31222 -1.04449 0
M  V30 1592 C 155.859 -4.26288 -0.382436 0
M  V30 1593 C 155.185 -5.13954 -1.47497 0
M  V30 1594 C 156.485 -5.1744 0.710865 0
M  V30 1595 H 158.179 -2.91548 0.681184 0
M  V30 1596 H 155.725 -1.40191 0.329026 0
M  V30 1597 H 157.678 -3.92351 -1.53748 0
M  V30 1598 H 156.402 -2.71299 -1.81836 0
M  V30 1599 H 155.061 -3.6649 0.0899054 0
M  V30 1600 H 154.709 -4.50385 -2.2397 0
M  V30 1601 H 154.409 -5.7837 -1.03737 0
M  V30 1602 H 155.933 -5.77955 -1.96979 0
M  V30 1603 H 157.347 -5.72509 0.300996 0
M  V30 1604 H 155.744 -5.90455 1.07156 0
M  V30 1605 H 156.814 -4.58496 1.57829 0
M  V30 1606 N 158.157 -0.370918 -1.53173 0
M  V30 1607 C 159.382 0.220293 -2.06227 0
M  V30 1608 C 159.807 1.41243 -1.24225 0
M  V30 1609 O 159.165 1.79387 -0.262645 0
M  V30 1610 C 159.213 0.586663 -3.55796 0
M  V30 1611 O 158.317 1.68317 -3.76488 0
M  V30 1612 H 157.658 0.0308099 -0.663285 0
M  V30 1613 H 160.188 -0.533068 -1.97534 0
M  V30 1614 H 160.198 0.85617 -3.98916 0
M  V30 1615 H 158.873 -0.285013 -4.14922 0
M  V30 1616 H 157.45 1.40881 -3.45264 0
M  V30 1617 N 159.635 1.57281 -0.100228 0
M  V30 1618 C 160.865 1.98591 0.569681 0
M  V30 1619 C 161.273 0.978315 1.61943 0
M  V30 1620 O 160.616 -0.0396108 1.83657 0
M  V30 1621 C 160.678 3.36282 1.271 0
M  V30 1622 C 160.342 4.55488 0.371409 0
M  V30 1623 C 161.339 5.18491 -0.382504 0
M  V30 1624 C 159.024 5.01474 0.287965 0
M  V30 1625 C 161.018 6.25852 -1.20779 0
M  V30 1626 C 158.705 6.08701 -0.540965 0
M  V30 1627 C 159.703 6.70755 -1.28749 0
M  V30 1628 O 159.391 7.75914 -2.10269 0
M  V30 1629 H 159.123 0.65752 0.156982 0
M  V30 1630 H 161.677 2.0463 -0.177734 0
M  V30 1631 H 159.907 3.26941 2.0651 0
M  V30 1632 H 161.596 3.62005 1.83595 0
M  V30 1633 H 162.362 4.83891 -0.3278 0
M  V30 1634 H 158.241 4.52932 0.858689 0
M  V30 1635 H 161.785 6.74218 -1.79096 0
M  V30 1636 H 157.682 6.42732 -0.597131 0
M  V30 1637 H 158.45 7.92925 -2.03007 0
M  V30 1638 N 161.113 -0.173488 1.56642 0
M  V30 1639 C 162.061 -1.23417 1.97157 0
M  V30 1640 C 163.055 -1.45946 0.860013 0
M  V30 1641 O 164.261 -1.46551 1.04512 0
M  V30 1642 H 160.636 -0.414818 0.62724 0
M  V30 1643 H 162.607 -0.865582 2.8557 0
M  V30 1644 C 161.356 -2.5665 2.34576 0
M  V30 1645 H 160.679 -2.40137 3.19647 0
M  V30 1646 H 162.119 -3.2956 2.6677 0
M  V30 1647 C 160.578 -3.15245 1.18836 0
M  V30 1648 O 161.108 -3.98883 0.474869 0
M  V30 1649 N 159.314 -2.74303 0.959497 0
M  V30 1650 H 158.861 -2.0639 1.54146 0
M  V30 1651 H 158.819 -3.13844 0.186932 0
M  V30 1652 N 162.591 -1.51276 -0.441967 0
M  V30 1653 C 163.821 -1.67273 -1.21257 0
M  V30 1654 C 164.229 -0.367624 -1.85594 0
M  V30 1655 O 163.572 0.663349 -1.71305 0
M  V30 1656 C 163.634 -2.72807 -2.34129 0
M  V30 1657 C 163.298 -4.1554 -1.90198 0
M  V30 1658 C 164.295 -5.00471 -1.40801 0
M  V30 1659 C 161.98 -4.61616 -1.9803 0
M  V30 1660 C 163.974 -6.29536 -0.998174 0
M  V30 1661 C 161.661 -5.90679 -1.56658 0
M  V30 1662 C 162.659 -6.74466 -1.07633 0
M  V30 1663 O 162.347 -8.01116 -0.668459 0
M  V30 1664 H 162.079 -0.564614 -0.371734 0
M  V30 1665 H 164.633 -1.9843 -0.530521 0
M  V30 1666 H 162.863 -2.36954 -3.05597 0
M  V30 1667 H 164.552 -2.77729 -2.96009 0
M  V30 1668 H 165.318 -4.66079 -1.34148 0
M  V30 1669 H 161.197 -3.96526 -2.35135 0
M  V30 1670 H 164.741 -6.94885 -0.61482 0
M  V30 1671 H 160.638 -6.24586 -1.62979 0
M  V30 1672 H 161.406 -8.14633 -0.794722 0
M  V30 1673 N 164.069 0.697108 -1.41344 0
M  V30 1674 C 164.999 1.82353 -1.45841 0
M  V30 1675 C 165.98 1.67115 -0.317247 0
M  V30 1676 O 167.165 1.86871 -0.528474 0
M  V30 1677 C 164.295 3.20476 -1.33838 0
M  V30 1678 C 163.249 3.50415 -2.4575 0
M  V30 1679 C 162.575 4.87878 -2.18813 0
M  V30 1680 C 163.875 3.49546 -3.88091 0
M  V30 1681 H 165.569 1.78846 -2.40113 0
M  V30 1682 H 163.115 0.859028 -1.15571 0
M  V30 1683 H 165.068 3.98988 -1.35596 0
M  V30 1684 H 163.792 3.24604 -0.360498 0
M  V30 1685 H 162.451 2.74253 -2.43271 0
M  V30 1686 H 162.099 4.8863 -1.19371 0
M  V30 1687 H 161.799 5.08875 -2.93803 0
M  V30 1688 H 163.323 5.68702 -2.22284 0
M  V30 1689 H 164.737 4.18066 -3.92293 0
M  V30 1690 H 163.134 3.82075 -4.62751 0
M  V30 1691 H 164.204 2.48552 -4.16353 0
M  V30 1692 N 165.547 1.27147 0.931209 0
M  V30 1693 C 166.772 1.16191 1.71797 0
M  V30 1694 C 167.197 -0.278004 1.86034 0
M  V30 1695 O 166.555 -1.20137 1.35782 0
M  V30 1696 C 166.603 1.84673 3.09723 0
M  V30 1697 O 165.707 1.14231 3.96264 0
M  V30 1698 H 165.048 0.404303 0.526721 0
M  V30 1699 H 167.578 1.68152 1.1656 0
M  V30 1700 H 167.588 1.91893 3.60057 0
M  V30 1701 H 166.263 2.89421 2.98677 0
M  V30 1702 H 164.84 1.15056 3.54706 0
M  V30 1703 N 167.025 -1.13721 1.09112 0
M  V30 1704 C 167.973 -2.21103 0.722219 0
M  V30 1705 C 168.967 -1.67147 -0.275374 0
M  V30 1706 O 170.173 -1.79477 -0.137176 0
M  V30 1707 H 166.548 -0.720445 0.215553 0
M  V30 1708 H 168.519 -2.49483 1.63709 0
M  V30 1709 C 167.268 -3.47352 0.15543 0
M  V30 1710 H 166.591 -3.89206 0.914246 0
M  V30 1711 H 168.031 -4.2395 -0.0647967 0
M  V30 1712 C 166.49 -3.1814 -1.10852 0
M  V30 1713 O 167.02 -3.36604 -2.19227 0
M  V30 1714 N 165.226 -2.72045 -1.02176 0
M  V30 1715 H 164.773 -2.57221 -0.139764 0
M  V30 1716 H 164.731 -2.52875 -1.8682 0
M  V30 1717 N 168.503 -0.877838 -1.30888 0
M  V30 1718 C 169.433 -0.35534 -2.3078 0
M  V30 1719 C 170.414 0.557994 -1.60687 0
M  V30 1720 O 171.599 0.473355 -1.88343 0
M  V30 1721 C 168.729 0.437221 -3.44537 0
M  V30 1722 C 167.683 -0.383715 -4.26276 0
M  V30 1723 C 167.009 0.535014 -5.32017 0
M  V30 1724 C 168.309 -1.62201 -4.96476 0
M  V30 1725 H 170.003 -1.19007 -2.74732 0
M  V30 1726 H 167.549 -0.573698 -1.32078 0
M  V30 1727 H 169.502 0.813334 -4.13477 0
M  V30 1728 H 168.226 1.30553 -2.99372 0
M  V30 1729 H 166.885 -0.741874 -3.59015 0
M  V30 1730 H 166.533 1.40083 -4.831 0
M  V30 1731 H 166.233 -0.0104211 -5.87599 0
M  V30 1732 H 167.757 0.907799 -6.03814 0
M  V30 1733 H 169.171 -1.31689 -5.5797 0
M  V30 1734 H 167.568 -2.10711 -5.61891 0
M  V30 1735 H 168.638 -2.37044 -4.23011 0
M  V30 1736 N 169.982 1.44106 -0.638065 0
M  V30 1737 C 171.207 2.0685 -0.150916 0
M  V30 1738 C 171.632 1.47417 1.16833 0
M  V30 1739 O 170.99 0.578264 1.71831 0
M  V30 1740 C 171.038 3.60555 -0.05708 0
M  V30 1741 O 170.142 4.00465 0.984972 0
M  V30 1742 H 169.483 0.658151 -0.0879399 0
M  V30 1743 H 172.013 1.84865 -0.876707 0
M  V30 1744 H 172.023 4.07789 0.131232 0
M  V30 1745 H 170.698 4.03193 -1.02021 0
M  V30 1746 H 169.275 3.64849 0.770672 0
M  V30 1747 N 171.46 0.379036 1.52974 0
M  V30 1748 C 172.685 -0.209353 2.06341 0
M  V30 1749 C 173.11 -1.40583 1.24972 0
M  V30 1750 O 172.468 -1.79246 0.272155 0
M  V30 1751 C 172.516 -0.567786 3.56102 0
M  V30 1752 O 171.62 -1.66318 3.77375 0
M  V30 1753 H 170.961 -0.0272919 0.663439 0
M  V30 1754 H 173.491 0.543536 1.97248 0
M  V30 1755 H 173.501 -0.835003 3.99364 0
M  V30 1756 H 172.176 0.307013 4.14765 0
M  V30 1757 H 170.753 -1.39048 3.46006 0
M  V30 1758 N 172.938 -1.57226 0.108567 0
M  V30 1759 C 174.163 -1.99604 -0.563303 0
M  V30 1760 C 174.588 -0.987563 -1.6009 0
M  V30 1761 O 173.946 0.0421687 -1.81251 0
M  V30 1762 C 173.994 -3.40902 -1.17552 0
M  V30 1763 O 173.098 -3.42896 -2.2912 0
M  V30 1764 H 172.439 -0.648704 -0.1417 0
M  V30 1765 H 174.969 -2.03679 0.193961 0
M  V30 1766 H 174.979 -3.78886 -1.51357 0
M  V30 1767 H 173.654 -4.1382 -0.415445 0
M  V30 1768 H 172.231 -3.1672 -1.96832 0
M  V30 1769 N 174.416 0.165178 -1.56732 0
M  V30 1770 C 175.662 0.877389 -1.83503 0
M  V30 1771 C 176.017 1.79602 -0.689996 0
M  V30 1772 O 175.31 1.89023 0.313205 0
M  V30 1773 C 175.504 1.70405 -3.1416 0
M  V30 1774 C 175.333 0.866961 -4.41264 0
M  V30 1775 C 174.103 0.539646 -5.0241 0
M  V30 1776 C 176.301 0.205671 -5.13889 0
M  V30 1777 N 174.283 -0.312946 -6.13102 0
M  V30 1778 C 175.654 -0.507823 -6.17917 0
M  V30 1779 C 177.709 0.124468 -4.97744 0
M  V30 1780 C 176.412 -1.29483 -7.0755 0
M  V30 1781 C 178.438 -0.649222 -5.87826 0
M  V30 1782 C 177.8 -1.35106 -6.91322 0
M  V30 1783 H 173.899 0.299477 -0.722383 0
M  V30 1784 H 176.483 0.143949 -1.94167 0
M  V30 1785 H 174.654 2.40887 -3.04677 0
M  V30 1786 H 176.386 2.35804 -3.28905 0
M  V30 1787 H 173.141 0.871176 -4.65519 0
M  V30 1788 H 173.565 -0.729731 -6.73056 0
M  V30 1789 H 178.207 0.652724 -4.17731 0
M  V30 1790 H 175.925 -1.83441 -7.87004 0
M  V30 1791 H 179.511 -0.713804 -5.77405 0
M  V30 1792 H 178.391 -1.94013 -7.59821 0
M  V30 1793 N 175.894 1.51508 0.433938 0
M  V30 1794 C 177.141 1.64345 1.18309 0
M  V30 1795 C 177.469 0.361315 1.91115 0
M  V30 1796 O 176.724 -0.654753 1.84422 0
M  V30 1797 C 177.023 2.79928 2.22205 0
M  V30 1798 C 176.689 4.19078 1.66387 0
M  V30 1799 C 175.351 4.56932 1.50887 0
M  V30 1800 C 177.703 5.05894 1.25381 0
M  V30 1801 C 175.031 5.79305 0.928608 0
M  V30 1802 C 177.383 6.2885 0.687823 0
M  V30 1803 C 176.047 6.65473 0.519755 0
M  V30 1804 H 175.317 0.601381 0.432923 0
M  V30 1805 H 177.964 1.85549 0.473676 0
M  V30 1806 H 176.269 2.52959 2.99197 0
M  V30 1807 H 177.966 2.87059 2.79997 0
M  V30 1808 H 174.556 3.89234 1.79428 0
M  V30 1809 H 178.74 4.77253 1.36175 0
M  V30 1810 H 173.996 6.06324 0.786186 0
M  V30 1811 H 178.17 6.95461 0.361581 0
M  V30 1812 H 175.797 7.6017 0.0679979 0
M  V30 1813 N 177.372 -0.689602 1.41712 0
M  V30 1814 C 178.319 -1.80345 1.44029 0
M  V30 1815 C 179.289 -1.63478 0.293948 0
M  V30 1816 O 180.474 -1.84244 0.495869 0
M  V30 1817 C 177.614 -3.18272 1.33405 0
M  V30 1818 C 176.727 -3.46529 2.57956 0
M  V30 1819 C 175.862 -4.74103 2.39582 0
M  V30 1820 C 174.901 -4.95347 3.5958 0
M  V30 1821 N 174.038 -6.14151 3.40239 0
M  V30 1822 H 178.878 -1.77698 2.39222 0
M  V30 1823 H 176.415 -0.867688 1.18784 0
M  V30 1824 H 178.373 -3.97956 1.25246 0
M  V30 1825 H 177.003 -3.2008 0.418164 0
M  V30 1826 H 176.055 -2.61207 2.76542 0
M  V30 1827 H 177.367 -3.58126 3.47199 0
M  V30 1828 H 176.521 -5.61853 2.28924 0
M  V30 1829 H 175.26 -4.64763 1.47805 0
M  V30 1830 H 174.265 -4.06044 3.70686 0
M  V30 1831 H 175.49 -5.06542 4.52318 0
M  V30 1832 H 173.436 -6.06013 2.51167 0
M  V30 1833 H 173.353 -6.26543 4.23061 0
M  V30 1834 H 174.621 -7.04619 3.33365 0
M  V30 1835 N 178.85 -1.27639 -0.924453 0
M  V30 1836 C 180.261 -1.12834 -1.48746 0
M  V30 1837 C 180.612 0.285505 -1.94112 0
M  V30 1838 O 179.737 1.17874 -1.81479 0
M  V30 1839 C 180.332 -2.04217 -2.70334 0
M  V30 1840 C 178.891 -1.93509 -3.22848 0
M  V30 1841 C 178.038 -1.96583 -1.95577 0
M  V30 1842 H 180.989 -1.40484 -0.738233 0
M  V30 1843 H 181.01 -1.59989 -3.4523 0
M  V30 1844 H 180.522 -3.07111 -2.37285 0
M  V30 1845 H 178.623 -0.936131 -3.60649 0
M  V30 1846 H 178.736 -2.79917 -3.88823 0
M  V30 1847 H 177.1 -1.4085 -2.12211 0
M  V30 1848 H 177.883 -3.01137 -1.64837 0
M  V30 1849 N 180.328 1.1314 -1.09713 0
M  V30 1850 C 181.258 2.20748 -0.761102 0
M  V30 1851 C 182.239 1.68061 0.262566 0
M  V30 1852 O 183.424 1.93765 0.129977 0
M  V30 1853 C 180.554 3.46812 -0.184054 0
M  V30 1854 C 179.508 4.12606 -1.13757 0
M  V30 1855 C 178.834 5.33031 -0.422083 0
M  V30 1856 C 180.134 4.59603 -2.48118 0
M  V30 1857 H 181.828 2.49113 -1.66082 0
M  V30 1858 H 179.374 1.19734 -0.799987 0
M  V30 1859 H 181.327 4.21353 0.0631215 0
M  V30 1860 H 180.051 3.17851 0.750868 0
M  V30 1861 H 178.71 3.40036 -1.37007 0
M  V30 1862 H 178.358 5.00335 0.517072 0
M  V30 1863 H 178.058 5.77999 -1.05788 0
M  V30 1864 H 179.582 6.10325 -0.183277 0
M  V30 1865 H 180.996 5.25552 -2.29059 0
M  V30 1866 H 179.393 5.15321 -3.07514 0
M  V30 1867 H 180.463 3.73971 -3.08665 0
M  V30 1868 N 181.806 0.884767 1.30421 0
M  V30 1869 C 183.031 0.517288 2.00845 0
M  V30 1870 C 183.456 -0.886779 1.65885 0
M  V30 1871 O 182.814 -1.58768 0.875354 0
M  V30 1872 C 182.862 0.698994 3.5376 0
M  V30 1873 O 181.966 -0.255208 4.1161 0
M  V30 1874 H 181.307 0.203872 0.631927 0
M  V30 1875 H 183.837 1.19225 1.66272 0
M  V30 1876 H 183.847 0.597912 4.03595 0
M  V30 1877 H 182.522 1.72271 3.78544 0
M  V30 1878 H 181.099 -0.10784 3.72744 0
M  V30 1879 N 183.284 -1.43765 0.645699 0
M  V30 1880 C 184.509 -2.06767 0.161883 0
M  V30 1881 C 184.934 -1.48034 -1.16049 0
M  V30 1882 O 184.292 -0.587369 -1.71522 0
M  V30 1883 C 184.34 -3.60519 0.0762003 0
M  V30 1884 O 183.444 -4.00982 -0.963721 0
M  V30 1885 H 182.785 -0.657675 0.091429 0
M  V30 1886 H 185.315 -1.84397 0.886499 0
M  V30 1887 H 185.325 -4.07853 -0.109604 0
M  V30 1888 H 184 -4.02646 1.04157 0
M  V30 1889 H 182.577 -3.65253 -0.751312 0
M  V30 1890 N 184.763 -0.387143 -1.52771 0
M  V30 1891 C 185.693 0.440551 -2.29306 0
M  V30 1892 C 186.674 1.06535 -1.32606 0
M  V30 1893 O 187.859 1.07853 -1.61497 0
M  V30 1894 C 184.989 1.56919 -3.09829 0
M  V30 1895 C 183.943 1.07054 -4.14395 0
M  V30 1896 C 183.269 2.29109 -4.83129 0
M  V30 1897 C 184.569 0.140015 -5.22112 0
M  V30 1898 H 186.263 -0.198026 -2.98744 0
M  V30 1899 H 183.809 -0.09668 -1.43675 0
M  V30 1900 H 185.762 2.15503 -3.62128 0
M  V30 1901 H 184.486 2.23532 -2.3812 0
M  V30 1902 H 183.145 0.507247 -3.63074 0
M  V30 1903 H 182.793 2.94227 -4.0797 0
M  V30 1904 H 182.493 1.96406 -5.53804 0
M  V30 1905 H 184.017 2.88339 -5.38231 0
M  V30 1906 H 185.431 0.633978 -5.69784 0
M  V30 1907 H 183.828 -0.0971485 -6.00021 0
M  V30 1908 H 184.898 -0.811711 -4.78058 0
M  V30 1909 N 186.241 1.57166 -0.116904 0
M  V30 1910 C 187.469 1.99473 0.549383 0
M  V30 1911 C 187.884 0.996541 1.60357 0
M  V30 1912 O 187.241 -0.0108731 1.82497 0
M  V30 1913 C 187.292 3.41788 1.17741 0
M  V30 1914 O 187.013 4.37788 0.165362 0
M  V30 1915 C 188.514 3.99216 1.92722 0
M  V30 1916 H 185.734 0.655009 0.145616 0
M  V30 1917 H 188.278 2.03494 -0.202625 0
M  V30 1918 H 186.433 3.38713 1.88021 0
M  V30 1919 H 186.847 5.20806 0.621403 0
M  V30 1920 H 188.321 5.00882 2.31995 0
M  V30 1921 H 188.798 3.3824 2.80161 0
M  V30 1922 H 189.404 4.0583 1.27209 0
M  V30 1923 N 187.719 -0.156864 1.56817 0
M  V30 1924 C 188.966 -0.871125 1.82805 0
M  V30 1925 C 189.294 -1.81611 0.696262 0
M  V30 1926 O 188.549 -1.93141 -0.315459 0
M  V30 1927 C 188.848 -1.68737 3.1506 0
M  V30 1928 C 188.514 -0.890045 4.42028 0
M  V30 1929 C 187.176 -0.670042 4.76512 0
M  V30 1930 C 189.528 -0.331769 5.20143 0
M  V30 1931 C 186.856 0.119104 5.86579 0
M  V30 1932 C 189.208 0.444365 6.31037 0
M  V30 1933 C 187.872 0.675035 6.64078 0
M  V30 1934 H 187.142 -0.318767 0.668931 0
M  V30 1935 H 189.789 -0.135274 1.91022 0
M  V30 1936 H 188.094 -2.49304 3.0225 0
M  V30 1937 H 189.791 -2.24331 3.3238 0
M  V30 1938 H 186.381 -1.07157 4.14988 0
M  V30 1939 H 190.565 -0.489043 4.93885 0
M  V30 1940 H 185.821 0.307417 6.10627 0
M  V30 1941 H 189.995 0.884139 6.90765 0
M  V30 1942 H 187.622 1.28839 7.49203 0
M  V30 1943 N 189.197 -1.51736 -0.425897 0
M  V30 1944 C 190.127 -1.76827 -1.52494 0
M  V30 1945 C 191.108 -0.618524 -1.58456 0
M  V30 1946 O 192.293 -0.862416 -1.74 0
M  V30 1947 C 189.423 -1.90374 -2.90474 0
M  V30 1948 C 188.377 -3.0588 -2.99369 0
M  V30 1949 C 187.703 -3.04625 -4.3944 0
M  V30 1950 C 189.003 -4.45644 -2.72394 0
M  V30 1951 H 190.697 -2.68855 -1.31748 0
M  V30 1952 H 188.243 -1.29372 -0.632362 0
M  V30 1953 H 190.196 -2.0651 -3.6733 0
M  V30 1954 H 188.92 -0.95004 -3.12477 0
M  V30 1955 H 187.579 -2.89467 -2.24954 0
M  V30 1956 H 187.227 -2.0701 -4.58428 0
M  V30 1957 H 186.927 -3.82195 -4.46319 0
M  V30 1958 H 188.451 -3.22869 -5.18255 0
M  V30 1959 H 189.865 -4.62348 -3.38979 0
M  V30 1960 H 188.262 -5.25006 -2.9067 0
M  V30 1961 H 189.332 -4.54893 -1.67929 0
M  V30 1962 N 190.675 0.682077 -1.42076 0
M  V30 1963 C 191.623 1.81707 -1.45208 0
M  V30 1964 C 192.617 1.66183 -0.328591 0
M  V30 1965 O 193.823 1.7288 -0.501264 0
M  V30 1966 H 190.198 0.599014 -0.454628 0
M  V30 1967 H 192.169 1.76183 -2.40836 0
M  V30 1968 C 190.918 3.19816 -1.36428 0
M  V30 1969 H 190.241 3.32385 -2.22171 0
M  V30 1970 H 191.681 3.99272 -1.42681 0
M  V30 1971 C 190.14 3.36809 -0.078191 0
M  V30 1972 O 190.67 3.92124 0.87188 0
M  V30 1973 N 188.876 2.906 0.00229266 0
M  V30 1974 H 188.423 2.45772 -0.771616 0
M  V30 1975 H 188.381 3.02347 0.862179 0
M  V30 1976 N 192.153 1.28127 0.917671 0
M  V30 1977 C 193.083 1.14248 2.03641 0
M  V30 1978 C 194.064 0.0412748 1.7005 0
M  V30 1979 O 195.249 0.217566 1.92977 0
M  V30 1980 C 192.379 0.799431 3.37974 0
M  V30 1981 C 191.333 1.85497 3.85713 0
M  V30 1982 C 190.659 1.36565 5.16966 0
M  V30 1983 C 191.959 3.26085 4.08002 0
M  V30 1984 H 193.653 2.07835 2.15511 0
M  V30 1985 H 191.199 1.00064 1.03553 0
M  V30 1986 H 193.152 0.689114 4.15727 0
M  V30 1987 H 191.876 -0.172145 3.26146 0
M  V30 1988 H 190.535 1.95437 3.10161 0
M  V30 1989 H 190.183 0.383253 5.01538 0
M  V30 1990 H 189.883 2.07143 5.49878 0
M  V30 1991 H 191.407 1.26848 5.97279 0
M  V30 1992 H 192.821 3.19089 4.76293 0
M  V30 1993 H 191.218 3.94462 4.52238 0
M  V30 1994 H 192.288 3.70394 3.12948 0
M  V30 1995 N 193.631 -1.12557 1.10312 0
M  V30 1996 C 194.561 -2.20341 0.772798 0
M  V30 1997 C 195.542 -1.68198 -0.25365 0
M  V30 1998 O 196.727 -1.93831 -0.119699 0
M  V30 1999 C 193.857 -3.46709 0.202443 0
M  V30 2000 C 192.811 -4.11996 1.15943 0
M  V30 2001 C 192.137 -5.328 0.450345 0
M  V30 2002 C 193.437 -4.5828 2.50552 0
M  V30 2003 H 195.131 -2.48229 1.674 0
M  V30 2004 H 192.677 -1.19308 0.806326 0
M  V30 2005 H 194.63 -4.2138 -0.0407752 0
M  V30 2006 H 193.354 -3.18245 -0.734001 0
M  V30 2007 H 192.013 -3.39305 1.38808 0
M  V30 2008 H 191.661 -5.00602 -0.490531 0
M  V30 2009 H 191.361 -5.7743 1.08851 0
M  V30 2010 H 192.885 -6.10219 0.215642 0
M  V30 2011 H 194.299 -5.2433 2.31843 0
M  V30 2012 H 192.696 -5.13683 3.10242 0
M  V30 2013 H 193.766 -3.72329 3.10643 0
M  V30 2014 N 195.109 -0.891671 -1.2995 0
M  V30 2015 C 196.357 -0.512486 -1.95494 0
M  V30 2016 C 196.678 0.942776 -1.70695 0
M  V30 2017 O 195.948 1.66374 -1.03424 0
M  V30 2018 H 194.528 -0.186533 -0.723336 0
M  V30 2019 H 197.19 -1.13621 -1.58355 0
M  V30 2020 H 196.286 -0.688342 -3.04415 0
M  V30 2021 N 196.587 1.43421 -0.653314 0
M  V30 2022 C 197.535 2.32546 0.0501531 0
M  V30 2023 C 198.529 1.48617 0.812985 0
M  V30 2024 O 199.735 1.64825 0.723375 0
M  V30 2025 H 196.11 0.751185 0.0350032 0
M  V30 2026 H 198.081 2.89602 -0.719261 0
M  V30 2027 C 196.83 3.32925 1.00279 0
M  V30 2028 H 196.153 3.97532 0.425236 0
M  V30 2029 H 197.593 3.9792 1.46409 0
M  V30 2030 C 196.052 2.63532 2.09886 0
M  V30 2031 O 196.582 2.45092 3.18265 0
M  V30 2032 N 194.788 2.22905 1.86445 0
M  V30 2033 H 194.335 2.38103 0.98309 0
M  V30 2034 H 194.293 1.76805 2.59976 0
M  V30 2035 N 198.065 0.39524 1.52563 0
M  V30 2036 C 199.476 -0.0774719 1.86539 0
M  V30 2037 C 199.827 -1.45641 1.31466 0
M  V30 2038 O 198.952 -2.06459 0.648367 0
M  V30 2039 C 199.547 -0.147356 3.38479 0
M  V30 2040 C 198.106 -0.564373 3.72145 0
M  V30 2041 C 197.253 0.269919 2.75983 0
M  V30 2042 H 200.204 0.612876 1.46388 0
M  V30 2043 H 200.225 -0.965343 3.68051 0
M  V30 2044 H 199.737 0.856387 3.78534 0
M  V30 2045 H 197.838 -1.57527 3.37663 0
M  V30 2046 H 197.951 -0.318402 4.78041 0
M  V30 2047 H 196.315 -0.265696 2.5331 0
M  V30 2048 H 197.098 1.27175 3.18875 0
M  V30 2049 N 199.544 -1.57102 0.125237 0
M  V30 2050 C 200.774 -1.99472 -0.538015 0
M  V30 2051 C 201.182 -1.00395 -1.60366 0
M  V30 2052 O 200.525 0.0103875 -1.83697 0
M  V30 2053 C 200.587 -3.38262 -1.21734 0
M  V30 2054 C 200.251 -4.56021 -0.298897 0
M  V30 2055 C 201.248 -5.17817 0.464943 0
M  V30 2056 C 198.933 -5.01869 -0.208149 0
M  V30 2057 C 200.927 -6.23852 1.3072 0
M  V30 2058 C 198.614 -6.07763 0.637736 0
M  V30 2059 C 199.612 -6.68622 1.39403 0
M  V30 2060 O 199.3 -7.7247 2.22586 0
M  V30 2061 H 199.032 -0.659934 -0.146501 0
M  V30 2062 H 201.586 -2.04321 0.210267 0
M  V30 2063 H 199.816 -3.30185 -2.01282 0
M  V30 2064 H 201.505 -3.6488 -1.77813 0
M  V30 2065 H 202.271 -4.83308 0.404741 0
M  V30 2066 H 198.15 -4.54241 -0.786522 0
M  V30 2067 H 201.694 -6.71284 1.898 0
M  V30 2068 H 197.591 -6.41701 0.699309 0
M  V30 2069 H 198.359 -7.89595 2.15596 0
M  V30 2070 N 201.022 0.148545 -1.56898 0
M  V30 2071 C 201.969 1.18345 -1.98149 0
M  V30 2072 C 202.939 1.42772 -0.848848 0
M  V30 2073 O 204.124 1.55132 -1.11079 0
M  V30 2074 C 201.264 2.51231 -2.36594 0
M  V30 2075 C 200.377 2.33991 -3.63142 0
M  V30 2076 C 199.512 3.59902 -3.90697 0
M  V30 2077 C 198.551 3.37692 -5.1052 0
M  V30 2078 N 197.688 4.5573 -5.34092 0
M  V30 2079 H 202.528 0.82467 -2.86362 0
M  V30 2080 H 200.065 0.395756 -1.41676 0
M  V30 2081 H 202.023 3.28713 -2.56912 0
M  V30 2082 H 200.653 2.85059 -1.51463 0
M  V30 2083 H 199.705 1.47572 -3.50609 0
M  V30 2084 H 201.017 2.13539 -4.5078 0
M  V30 2085 H 200.171 4.45813 -4.11505 0
M  V30 2086 H 198.91 3.83357 -3.01477 0
M  V30 2087 H 197.915 2.5017 -4.89587 0
M  V30 2088 H 199.14 3.15637 -6.0129 0
M  V30 2089 H 197.086 4.79361 -4.47827 0
M  V30 2090 H 197.003 4.38274 -6.15996 0
M  V30 2091 H 198.271 5.42858 -5.59397 0
M  V30 2092 N 202.5 1.5196 0.417844 0
M  V30 2093 C 203.728 1.69426 1.18753 0
M  V30 2094 C 204.143 0.399955 1.84515 0
M  V30 2095 O 203.5 -0.623288 1.71527 0
M  V30 2096 C 203.551 2.82375 2.25714 0
M  V30 2097 O 203.272 4.06793 1.62638 0
M  V30 2098 C 204.773 3.11277 3.15628 0
M  V30 2099 H 201.993 0.568031 0.357186 0
M  V30 2100 H 204.537 1.98475 0.49273 0
M  V30 2101 H 202.692 2.5587 2.90877 0
M  V30 2102 H 203.106 4.69667 2.3348 0
M  V30 2103 H 204.58 3.93843 3.86771 0
M  V30 2104 H 205.057 2.24473 3.77503 0
M  V30 2105 H 205.663 3.39515 2.56144 0
M  V30 2106 N 203.978 -0.674533 1.42435 0
M  V30 2107 C 204.908 -1.80009 1.48724 0
M  V30 2108 C 205.889 -1.6659 0.343793 0
M  V30 2109 O 207.074 -1.86007 0.558137 0
M  V30 2110 C 204.204 -3.18306 1.38919 0
M  V30 2111 C 203.158 -3.46461 2.51294 0
M  V30 2112 C 202.484 -4.84335 2.26547 0
M  V30 2113 C 203.784 -3.43328 3.93603 0
M  V30 2114 H 205.478 -1.75004 2.42928 0
M  V30 2115 H 203.024 -0.840533 1.16923 0
M  V30 2116 H 204.977 -3.9678 1.41927 0
M  V30 2117 H 203.701 -3.2399 0.412094 0
M  V30 2118 H 202.36 -2.70348 2.47604 0
M  V30 2119 H 202.008 -4.86669 1.2713 0
M  V30 2120 H 201.708 -5.04136 3.01861 0
M  V30 2121 H 203.232 -5.65094 2.31304 0
M  V30 2122 H 204.646 -4.11772 3.98894 0
M  V30 2123 H 203.043 -3.74664 4.68771 0
M  V30 2124 H 204.113 -2.41897 4.20255 0
M  V30 2125 N 205.456 -1.28612 -0.910864 0
M  V30 2126 C 206.704 -1.15705 -1.65701 0
M  V30 2127 C 207.025 0.29416 -1.92769 0
M  V30 2128 O 206.295 1.20331 -1.54588 0
M  V30 2129 H 204.875 -0.425216 -0.614167 0
M  V30 2130 H 207.537 -1.61381 -1.0928 0
M  V30 2131 H 206.633 -1.6988 -2.61815 0
M  V30 2132 N 206.934 1.1197 -1.10907 0
M  V30 2133 C 207.844 2.21433 -0.774896 0
M  V30 2134 C 208.86 1.72478 0.229657 0
M  V30 2135 O 210.036 2.01288 0.0672008 0
M  V30 2136 C 207.101 3.4602 -0.216986 0
M  V30 2137 C 206.162 4.09791 -1.27944 0
M  V30 2138 C 205.395 5.28431 -0.748055 0
M  V30 2139 O 205.618 5.68823 0.423833 0
M  V30 2140 O 204.552 5.82644 -1.51027 0
M  V30 2141 H 208.378 2.5242 -1.68873 0
M  V30 2142 H 205.963 1.20399 -0.884555 0
M  V30 2143 H 207.845 4.21304 0.090059 0
M  V30 2144 H 206.52 3.16698 0.669633 0
M  V30 2145 H 205.427 3.36265 -1.63941 0
M  V30 2146 H 206.76 4.4328 -2.13925 0
M  V30 2147 N 208.412 0.89855 1.29475 0
M  V30 2148 C 209.64 0.539261 1.99749 0
M  V30 2149 C 210.055 -0.875716 1.67262 0
M  V30 2150 O 209.412 -1.57786 0.917049 0
M  V30 2151 C 209.463 0.72061 3.54245 0
M  V30 2152 O 209.184 2.07989 3.8558 0
M  V30 2153 C 210.685 0.366118 4.41786 0
M  V30 2154 H 207.905 0.207047 0.638258 0
M  V30 2155 H 210.449 1.20758 1.65039 0
M  V30 2156 H 208.604 0.0994862 3.87272 0
M  V30 2157 H 209.018 2.10841 4.80257 0
M  V30 2158 H 210.492 0.543848 5.49314 0
M  V30 2159 H 210.969 -0.696763 4.33638 0
M  V30 2160 H 211.575 0.964135 4.14228 0
M  V30 2161 N 209.89 -1.43072 0.660911 0
M  V30 2162 C 211.115 -2.06584 0.183805 0
M  V30 2163 C 211.54 -1.49257 -1.14472 0
M  V30 2164 O 210.898 -0.605528 -1.70889 0
M  V30 2165 C 210.946 -3.60418 0.114434 0
M  V30 2166 O 210.05 -4.01981 -0.921137 0
M  V30 2167 H 209.391 -0.656669 0.0983994 0
M  V30 2168 H 211.921 -1.83447 0.906006 0
M  V30 2169 H 211.931 -4.07946 -0.0663394 0
M  V30 2170 H 210.606 -4.01519 1.08422 0
M  V30 2171 H 209.183 -3.66029 -0.71253 0
M  V30 2172 N 211.368 -0.403325 -1.52352 0
M  V30 2173 C 212.298 0.416205 -2.29761 0
M  V30 2174 C 213.279 1.05123 -1.33728 0
M  V30 2175 O 214.464 1.06134 -1.62632 0
M  V30 2176 C 211.594 1.53624 -3.11475 0
M  V30 2177 C 210.548 1.02653 -4.15507 0
M  V30 2178 C 209.874 2.23971 -4.85532 0
M  V30 2179 C 211.174 0.08463 -5.22231 0
M  V30 2180 H 212.868 -0.229701 -2.98518 0
M  V30 2181 H 210.414 -0.111913 -1.43564 0
M  V30 2182 H 212.367 2.1165 -3.64393 0
M  V30 2183 H 211.091 2.20994 -2.40477 0
M  V30 2184 H 209.75 0.46871 -3.63591 0
M  V30 2185 H 209.398 2.89883 -4.11068 0
M  V30 2186 H 209.098 1.90521 -5.55856 0
M  V30 2187 H 210.622 2.82614 -5.41259 0
M  V30 2188 H 212.036 0.573509 -5.70424 0
M  V30 2189 H 210.433 -0.160783 -5.99885 0
M  V30 2190 H 211.503 -0.86237 -4.7717 0
M  V30 2191 N 212.846 1.57033 -0.133567 0
M  V30 2192 C 214.093 1.95686 0.520877 0
M  V30 2193 C 214.421 1.0177 1.6575 0
M  V30 2194 O 213.676 0.0443195 1.9565 0
M  V30 2195 C 213.975 3.40674 1.08057 0
M  V30 2196 C 213.641 4.50855 0.0637899 0
M  V30 2197 C 212.303 4.80716 -0.215757 0
M  V30 2198 C 214.655 5.17398 -0.62835 0
M  V30 2199 C 211.983 5.74433 -1.19348 0
M  V30 2200 C 214.335 6.12167 -1.5948 0
M  V30 2201 C 212.999 6.40414 -1.88218 0
M  V30 2202 H 212.269 0.716067 0.190602 0
M  V30 2203 H 214.916 1.9026 -0.217556 0
M  V30 2204 H 213.221 3.42865 1.89606 0
M  V30 2205 H 214.918 3.67902 1.59529 0
M  V30 2206 H 211.508 4.27605 0.291855 0
M  V30 2207 H 215.692 4.94472 -0.425562 0
M  V30 2208 H 210.948 5.94616 -1.42272 0
M  V30 2209 H 215.122 6.6281 -2.13671 0
M  V30 2210 H 212.749 7.12838 -2.64133 0
M  V30 2211 N 214.325 -0.140222 1.56975 0
M  V30 2212 C 215.55 -0.870414 1.88251 0
M  V30 2213 C 215.975 -1.73637 0.723312 0
M  V30 2214 O 215.333 -1.78329 -0.32689 0
M  V30 2215 C 215.381 -1.69737 3.18154 0
M  V30 2216 O 214.485 -2.80229 3.02565 0
M  V30 2217 H 213.826 -0.242025 0.61832 0
M  V30 2218 H 216.356 -0.128999 2.04193 0
M  V30 2219 H 216.366 -2.09099 3.50345 0
M  V30 2220 H 215.041 -1.06152 4.02125 0
M  V30 2221 H 213.618 -2.44224 2.81796 0
M  V30 2222 N 215.803 -1.52179 -0.40978 0
M  V30 2223 C 216.753 -1.71857 -1.49831 0
M  V30 2224 C 217.737 -0.572469 -1.50372 0
M  V30 2225 O 218.929 -0.829509 -1.56359 0
M  V30 2226 C 216.058 -1.87206 -2.87765 0
M  V30 2227 C 215.144 -3.07685 -2.91875 0
M  V30 2228 N 215.535 -4.30403 -2.65683 0
M  V30 2229 C 213.833 -3.07505 -3.23043 0
M  V30 2230 C 214.534 -5.11868 -2.76344 0
M  V30 2231 N 213.51 -4.47101 -3.09195 0
M  V30 2232 H 217.312 -2.64381 -1.28375 0
M  V30 2233 H 214.826 -1.50203 -0.617479 0
M  V30 2234 H 216.823 -1.99419 -3.66111 0
M  V30 2235 H 215.483 -0.958814 -3.10221 0
M  V30 2236 H 216.494 -4.58887 -2.4009 0
M  V30 2237 H 213.171 -2.25915 -3.51096 0
M  V30 2238 H 214.561 -6.19634 -2.59814 0
M  V30 2239 N 217.281 0.66697 -1.42791 0
M  V30 2240 C 218.211 1.79218 -1.49677 0
M  V30 2241 C 219.192 1.66405 -0.352623 0
M  V30 2242 O 220.377 1.85708 -0.567993 0
M  V30 2243 C 217.507 3.17565 -1.40605 0
M  V30 2244 C 216.461 3.45124 -2.53127 0
M  V30 2245 C 215.787 4.83127 -2.29112 0
M  V30 2246 C 217.087 3.41236 -3.95418 0
M  V30 2247 H 218.781 1.73713 -2.43853 0
M  V30 2248 H 216.327 0.83432 -1.17367 0
M  V30 2249 H 218.28 3.96022 -1.44029 0
M  V30 2250 H 217.004 3.23767 -0.429271 0
M  V30 2251 H 215.663 2.69031 -2.49034 0
M  V30 2252 H 215.311 4.85988 -1.29709 0
M  V30 2253 H 215.011 5.02528 -3.04531 0
M  V30 2254 H 216.535 5.63859 -2.34297 0
M  V30 2255 H 217.949 4.09651 -4.01073 0
M  V30 2256 H 216.346 3.72173 -4.70752 0
M  V30 2257 H 217.416 2.39665 -4.21532 0
M  V30 2258 N 218.759 1.29093 0.90403 0
M  V30 2259 C 219.987 1.19689 1.68766 0
M  V30 2260 C 220.402 -0.243113 1.87228 0
M  V30 2261 O 219.759 -1.16326 1.40621 0
M  V30 2262 C 219.81 1.90144 3.07453 0
M  V30 2263 O 219.531 3.2852 2.89838 0
M  V30 2264 C 221.032 1.87162 4.01852 0
M  V30 2265 H 218.252 0.415035 0.527244 0
M  V30 2266 H 220.796 1.7039 1.13082 0
M  V30 2267 H 218.951 1.43289 3.59926 0
M  V30 2268 H 219.365 3.63944 3.77684 0
M  V30 2269 H 220.839 2.41032 4.96596 0
M  V30 2270 H 221.316 0.84617 4.30972 0
M  V30 2271 H 221.922 2.33741 3.5531 0
M  V30 2272 N 220.237 -1.11381 1.11499 0
M  V30 2273 C 221.184 -2.17439 0.773887 0
M  V30 2274 C 222.154 -1.64132 -0.254899 0
M  V30 2275 O 223.339 -1.90345 -0.13168 0
M  V30 2276 C 220.479 -3.44373 0.223917 0
M  V30 2277 C 219.592 -4.1168 1.30934 0
M  V30 2278 C 218.727 -5.263 0.71984 0
M  V30 2279 C 217.766 -5.85493 1.78507 0
M  V30 2280 N 216.903 -6.91507 1.21502 0
M  V30 2281 H 221.743 -2.45962 1.68246 0
M  V30 2282 H 219.28 -1.20744 0.840191 0
M  V30 2283 H 221.238 -4.17047 -0.112921 0
M  V30 2284 H 219.868 -3.16232 -0.647851 0
M  V30 2285 H 218.92 -3.37073 1.76312 0
M  V30 2286 H 220.232 -4.51729 2.11524 0
M  V30 2287 H 219.386 -6.05785 0.333094 0
M  V30 2288 H 218.125 -4.87559 -0.117377 0
M  V30 2289 H 217.13 -5.04686 2.18111 0
M  V30 2290 H 218.355 -6.26301 2.62533 0
M  V30 2291 H 216.301 -6.54783 0.399455 0
M  V30 2292 H 216.218 -7.30214 1.95763 0
M  V30 2293 H 217.486 -7.74795 0.855181 0
M  V30 2294 N 221.715 -0.905404 -1.28997 0
M  V30 2295 C 222.645 -0.404212 -2.29975 0
M  V30 2296 C 223.626 0.523784 -1.61835 0
M  V30 2297 O 224.811 0.433298 -1.89304 0
M  V30 2298 C 221.941 0.364042 -3.45387 0
M  V30 2299 C 220.895 -0.474048 -4.25367 0
M  V30 2300 C 220.221 0.422045 -5.33032 0
M  V30 2301 C 221.521 -1.72696 -4.92923 0
M  V30 2302 H 223.215 -1.24807 -2.72146 0
M  V30 2303 H 220.761 -0.601585 -1.30832 0
M  V30 2304 H 222.714 0.725447 -4.15109 0
M  V30 2305 H 221.438 1.24174 -3.02074 0
M  V30 2306 H 220.097 -0.81786 -3.57361 0
M  V30 2307 H 219.745 1.29804 -4.85963 0
M  V30 2308 H 219.445 -0.135057 -5.87445 0
M  V30 2309 H 220.969 0.779517 -6.05604 0
M  V30 2310 H 222.383 -1.43495 -5.55051 0
M  V30 2311 H 220.78 -2.22582 -5.57295 0
M  V30 2312 H 221.85 -2.45964 -4.17887 0
M  V30 2313 N 223.193 1.4272 -0.668489 0
M  V30 2314 C 224.125 2.2914 0.052613 0
M  V30 2315 C 225.138 1.43339 0.771857 0
M  V30 2316 O 226.327 1.67123 0.627067 0
M  V30 2317 C 223.427 3.20618 1.09804 0
M  V30 2318 C 222.6 4.35039 0.45389 0
M  V30 2319 C 221.659 5.07282 1.39825 0
M  V30 2320 O 220.685 5.62024 0.900978 0
M  V30 2321 N 221.887 5.12206 2.73176 0
M  V30 2322 H 224.652 2.91668 -0.689209 0
M  V30 2323 H 222.213 1.53577 -0.512422 0
M  V30 2324 H 224.205 3.65815 1.73094 0
M  V30 2325 H 222.775 2.59585 1.74167 0
M  V30 2326 H 221.995 3.92567 -0.358396 0
M  V30 2327 H 223.283 5.088 0.00486972 0
M  V30 2328 H 222.681 4.6913 3.16122 0
M  V30 2329 H 221.238 5.61069 3.31729 0
M  V30 2330 N 224.671 0.411399 1.52136 0
M  V30 2331 C 225.92 -0.165009 2.01024 0
M  V30 2332 C 226.233 -1.4603 1.30133 0
M  V30 2333 O 227.439 -2.1181 1.69849 0
M  V30 2334 C 225.895 -0.344618 3.58246 0
M  V30 2335 C 225.503 0.938716 4.38055 0
M  V30 2336 C 227.247 -0.876195 4.15359 0
M  V30 2337 C 225.154 0.726172 5.86925 0
M  V30 2338 H 224.084 -0.0654407 0.751155 0
M  V30 2339 H 226.735 0.537192 1.75461 0
M  V30 2340 H 225.117 -1.10921 3.80148 0
M  V30 2341 H 226.291 1.70963 4.27912 0
M  V30 2342 H 224.606 1.39688 3.92271 0
M  V30 2343 H 227.203 -1.05128 5.24263 0
M  V30 2344 H 227.546 -1.85152 3.7286 0
M  V30 2345 H 228.079 -0.170607 3.97434 0
M  V30 2346 H 224.818 1.67312 6.33788 0
M  V30 2347 H 224.338 -0.00540283 5.998 0
M  V30 2348 H 226.017 0.369231 6.45946 0
M  V30 2349 N 226.149 -1.5696 0.141893 0
M  V30 2350 C 227.079 -2.19516 -0.795936 0
M  V30 2351 C 228.06 -1.14187 -1.26077 0
M  V30 2352 O 229.245 -1.42511 -1.31925 0
M  V30 2353 C 226.375 -2.81272 -2.03723 0
M  V30 2354 C 225.329 -3.92384 -1.70936 0
M  V30 2355 C 224.655 -4.41052 -3.02287 0
M  V30 2356 C 225.955 -5.13403 -0.959954 0
M  V30 2357 H 227.649 -2.98138 -0.274596 0
M  V30 2358 H 225.195 -1.43406 -0.130636 0
M  V30 2359 H 227.148 -3.237 -2.69808 0
M  V30 2360 H 225.872 -1.99973 -2.58221 0
M  V30 2361 H 224.531 -3.50566 -1.07232 0
M  V30 2362 H 224.179 -3.56582 -3.54765 0
M  V30 2363 H 223.879 -5.15993 -2.81114 0
M  V30 2364 H 225.403 -4.86146 -3.69451 0
M  V30 2365 H 226.817 -5.52706 -1.52279 0
M  V30 2366 H 225.214 -5.94073 -0.848357 0
M  V30 2367 H 226.284 -4.84875 0.0492434 0
M  V30 2368 N 227.627 0.131896 -1.57047 0
M  V30 2369 C 229.043 0.485031 -1.52051 0
M  V30 2370 C 229.243 1.82563 -0.85281 0
M  V30 2371 O 228.299 2.48817 -0.429694 0
M  V30 2372 C 229.612 0.481409 -2.96821 0
M  V30 2373 C 231.16 0.565868 -3.07842 0
M  V30 2374 C 231.635 0.592762 -4.54148 0
M  V30 2375 N 233.126 0.654564 -4.58552 0
M  V30 2376 C 233.861 0.696608 -5.69153 0
M  V30 2377 N 233.357 0.697078 -6.89284 0
M  V30 2378 N 235.15 0.738639 -5.57226 0
M  V30 2379 H 227.301 -0.746664 -1.98843 0
M  V30 2380 H 229.564 -0.273999 -0.90754 0
M  V30 2381 H 229.27 -0.435731 -3.4899 0
M  V30 2382 H 229.144 1.3139 -3.53577 0
M  V30 2383 H 231.531 1.47343 -2.55684 0
M  V30 2384 H 231.612 -0.29406 -2.54104 0
M  V30 2385 H 231.256 -0.310701 -5.06949 0
M  V30 2386 H 231.186 1.46939 -5.05684 0
M  V30 2387 H 233.677 0.660887 -3.72076 0
M  V30 2388 H 233.99 0.731426 -7.69331 0
M  V30 2389 H 232.335 0.66471 -6.91814 0
M  V30 2390 H 235.526 0.735545 -4.62285 0
M  V30 2391 H 235.699 0.767938 -6.43434 0
M  V30 2392 N 229.106 1.52395 0.401703 0
M  V30 2393 C 230.352 1.67065 1.14966 0
M  V30 2394 C 230.685 0.403052 1.89971 0
M  V30 2395 O 229.96 -0.598774 1.85054 0
M  V30 2396 C 230.243 2.8975 2.13815 0
M  V30 2397 C 230.096 4.26578 1.42658 0
M  V30 2398 C 231.415 3.07965 3.14397 0
M  V30 2399 H 228.534 0.607968 0.416587 0
M  V30 2400 H 231.176 1.84965 0.434511 0
M  V30 2401 H 229.326 2.74619 2.74803 0
M  V30 2402 H 230.998 4.53451 0.847329 0
M  V30 2403 H 229.241 4.27639 0.72849 0
M  V30 2404 H 229.912 5.08483 2.14823 0
M  V30 2405 H 232.388 3.22043 2.63491 0
M  V30 2406 H 231.264 3.95308 3.80819 0
M  V30 2407 H 231.525 2.21611 3.82545 0
M  V30 2408 N 230.584 -0.659388 1.43143 0
M  V30 2409 C 231.832 -1.41654 1.44147 0
M  V30 2410 C 232.153 -1.94893 0.0645739 0
M  V30 2411 O 231.423 -1.74044 -0.899198 0
M  V30 2412 H 230.003 -0.525708 0.530697 0
M  V30 2413 H 232.665 -0.778097 1.78694 0
M  V30 2414 H 231.761 -2.26195 2.1504 0
M  V30 2415 N 232.062 -1.29571 -0.897171 0
M  V30 2416 C 233.01 -1.14802 -2.02295 0
M  V30 2417 C 234.004 -0.0629637 -1.69283 0
M  V30 2418 O 235.21 -0.222945 -1.78614 0
M  V30 2419 H 231.585 -0.354692 -0.663097 0
M  V30 2420 H 233.556 -2.10108 -2.11889 0
M  V30 2421 C 232.305 -0.843966 -3.37302 0
M  V30 2422 H 231.628 -1.67093 -3.63208 0
M  V30 2423 H 233.068 -0.780672 -4.16751 0
M  V30 2424 C 231.527 0.452843 -3.33843 0
M  V30 2425 O 232.057 1.47813 -3.73516 0
M  V30 2426 N 230.263 0.459601 -2.86943 0
M  V30 2427 H 229.81 -0.375213 -2.54853 0
M  V30 2428 H 229.768 1.32726 -2.85011 0
M  V30 2429 N 233.54 1.10788 -1.12088 0
M  V30 2430 C 234.473 2.16237 -0.729168 0
M  V30 2431 C 235.451 1.60207 0.277921 0
M  V30 2432 O 236.635 1.87707 0.172737 0
M  V30 2433 C 233.762 3.38609 -0.0786848 0
M  V30 2434 C 232.808 4.13322 -1.05201 0
M  V30 2435 S 233.641 4.69371 -2.57781 0
M  V30 2436 C 234.797 5.95058 -1.94053 0
M  V30 2437 H 235.03 2.4913 -1.62239 0
M  V30 2438 H 232.563 1.22519 -0.939603 0
M  V30 2439 H 234.521 4.09473 0.290254 0
M  V30 2440 H 233.182 3.03962 0.791593 0
M  V30 2441 H 232.375 5.01051 -0.544433 0
M  V30 2442 H 231.977 3.48251 -1.36371 0
M  V30 2443 H 234.269 6.65278 -1.28107 0
M  V30 2444 H 235.212 6.50472 -2.79807 0
M  V30 2445 H 235.62 5.46918 -1.39787 0
M  V30 2446 N 235.018 0.912232 1.28515 0
M  V30 2447 C 236.295 0.463597 1.90027 0
M  V30 2448 C 236.675 -1.05753 1.82701 0
M  V30 2449 O 236.023 -1.90492 1.26194 0
M  V30 2450 C 236.233 0.992253 3.34597 0
M  V30 2451 C 237.581 1.04344 4.11579 0
M  V30 2452 O 238.605 0.94079 3.43551 0
M  V30 2453 O 237.464 1.1995 5.33174 0
M  V30 2454 H 234.558 0.146666 0.813891 0
M  V30 2455 H 237.104 1.00292 1.36893 0
M  V30 2456 H 235.876 2.03623 3.34146 0
M  V30 2457 H 235.499 0.433672 3.95228 0
M  V30 2458 N 236.496 -1.42363 0.676048 0
M  V30 2459 C 237.724 -2.05859 0.207268 0
M  V30 2460 C 238.139 -1.50796 -1.13605 0
M  V30 2461 O 237.496 -0.648265 -1.70598 0
M  V30 2462 C 237.547 -3.61248 0.134975 0
M  V30 2463 O 237.268 -4.1427 1.42521 0
M  V30 2464 C 238.769 -4.41859 -0.357151 0
M  V30 2465 H 235.989 -0.663431 0.100503 0
M  V30 2466 H 238.533 -1.82479 0.923136 0
M  V30 2467 H 236.688 -3.83735 -0.531588 0
M  V30 2468 H 237.102 -5.0815 1.29939 0
M  V30 2469 H 238.576 -5.50847 -0.356641 0
M  V30 2470 H 239.053 -4.16536 -1.39264 0
M  V30 2471 H 239.659 -4.24392 0.27772 0
M  V30 2472 N 237.974 -0.419461 -1.51915 0
M  V30 2473 C 239.221 0.152939 -2.01922 0
M  V30 2474 C 239.549 1.4426 -1.30458 0
M  V30 2475 O 238.804 1.91514 -0.402593 0
M  V30 2476 C 239.103 0.437067 -3.54717 0
M  V30 2477 C 238.769 -0.764632 -4.44369 0
M  V30 2478 C 237.431 -1.09423 -4.68594 0
M  V30 2479 C 239.783 -1.56713 -4.97082 0
M  V30 2480 C 237.111 -2.22732 -5.42777 0
M  V30 2481 C 239.463 -2.69107 -5.72507 0
M  V30 2482 C 238.127 -3.02541 -5.95 0
M  V30 2483 H 237.397 0.0559644 -0.738884 0
M  V30 2484 H 240.044 -0.562998 -1.83037 0
M  V30 2485 H 238.349 1.23469 -3.71837 0
M  V30 2486 H 240.046 0.893083 -3.90928 0
M  V30 2487 H 236.636 -0.497775 -4.257 0
M  V30 2488 H 240.82 -1.32571 -4.78266 0
M  V30 2489 H 236.076 -2.48971 -5.58411 0
M  V30 2490 H 240.25 -3.31671 -6.12346 0
M  V30 2491 H 237.877 -3.90457 -6.52264 0
M  V30 2492 N 239.452 1.56882 -0.150215 0
M  V30 2493 C 240.68 2.00593 0.506948 0
M  V30 2494 C 241.095 1.03033 1.58208 0
M  V30 2495 O 240.452 0.0278396 1.82479 0
M  V30 2496 C 240.503 3.44209 1.10465 0
M  V30 2497 O 240.224 4.3804 0.0724636 0
M  V30 2498 C 241.725 4.03214 1.84211 0
M  V30 2499 H 238.945 0.65795 0.13169 0
M  V30 2500 H 241.489 2.03018 -0.245743 0
M  V30 2501 H 239.644 3.42625 1.80795 0
M  V30 2502 H 240.058 5.22007 0.510793 0
M  V30 2503 H 241.532 5.0569 2.21318 0
M  V30 2504 H 242.009 3.44107 2.72923 0
M  V30 2505 H 242.615 4.08437 1.18572 0
M  V30 2506 N 240.93 -0.123565 1.57115 0
M  V30 2507 C 241.877 -1.15177 2.00007 0
M  V30 2508 C 242.847 -1.41403 0.871454 0
M  V30 2509 O 244.032 -1.53346 1.13533 0
M  V30 2510 C 241.172 -2.47436 2.40561 0
M  V30 2511 C 240.285 -2.28184 3.66819 0
M  V30 2512 C 239.42 -3.53641 3.96373 0
M  V30 2513 C 238.459 -3.29528 5.15827 0
M  V30 2514 N 237.596 -4.47175 5.41275 0
M  V30 2515 H 242.436 -0.779008 2.87638 0
M  V30 2516 H 239.973 -0.373166 1.42288 0
M  V30 2517 H 241.931 -3.24584 2.62109 0
M  V30 2518 H 240.561 -2.82614 1.55978 0
M  V30 2519 H 239.613 -1.41976 3.52912 0
M  V30 2520 H 240.925 -2.0634 4.5412 0
M  V30 2521 H 240.079 -4.39209 4.18545 0
M  V30 2522 H 238.818 -3.78512 3.07538 0
M  V30 2523 H 237.823 -2.42349 4.93505 0
M  V30 2524 H 239.048 -3.06031 6.06236 0
M  V30 2525 H 236.994 -4.72175 4.55397 0
M  V30 2526 H 236.911 -4.28419 6.22891 0
M  V30 2527 H 238.179 -5.3389 5.67963 0
M  V30 2528 N 242.408 -1.52605 -0.393616 0
M  V30 2529 C 243.657 -1.66649 -1.13627 0
M  V30 2530 C 243.97 -0.410364 -1.91247 0
M  V30 2531 O 245.176 -0.430854 -2.68059 0
M  V30 2532 C 243.632 -2.9449 -2.06891 0
M  V30 2533 C 243.24 -4.27266 -1.34714 0
M  V30 2534 C 244.984 -3.17899 -2.81319 0
M  V30 2535 C 242.891 -5.46217 -2.26717 0
M  V30 2536 H 241.821 -0.62084 -0.427871 0
M  V30 2537 H 244.472 -1.791 -0.399428 0
M  V30 2538 H 242.854 -2.75774 -2.84191 0
M  V30 2539 H 244.028 -4.56518 -0.626714 0
M  V30 2540 H 242.343 -4.10081 -0.722643 0
M  V30 2541 H 244.94 -4.03949 -3.50328 0
M  V30 2542 H 245.283 -2.32777 -3.45139 0
M  V30 2543 H 245.816 -3.37159 -2.11113 0
M  V30 2544 H 242.555 -6.33733 -1.67521 0
M  V30 2545 H 242.075 -5.21283 -2.96689 0
M  V30 2546 H 243.754 -5.7991 -2.86903 0
M  V30 2547 N 243.887 0.651787 -1.4349 0
M  V30 2548 C 244.819 1.77725 -1.44729 0
M  V30 2549 C 245.832 1.59141 -0.343231 0
M  V30 2550 O 247.021 1.67835 -0.607751 0
M  V30 2551 C 244.121 3.15172 -1.24579 0
M  V30 2552 C 243.294 3.60402 -2.47849 0
M  V30 2553 C 242.353 4.76656 -2.22902 0
M  V30 2554 O 241.379 4.86022 -2.96263 0
M  V30 2555 N 242.581 5.66958 -1.24656 0
M  V30 2556 H 245.346 1.77141 -2.41746 0
M  V30 2557 H 242.907 0.835678 -1.38665 0
M  V30 2558 H 244.899 3.90634 -1.0577 0
M  V30 2559 H 243.469 3.1052 -0.360015 0
M  V30 2560 H 242.689 2.75369 -2.82073 0
M  V30 2561 H 243.977 3.87368 -3.29884 0
M  V30 2562 H 243.375 5.62065 -0.640265 0
M  V30 2563 H 241.932 6.42135 -1.1183 0
M  V30 2564 N 245.365 1.30045 0.890287 0
M  V30 2565 C 246.781 1.08261 1.17268 0
M  V30 2566 C 246.981 -0.160063 2.00863 0
M  V30 2567 O 246.037 -0.855181 2.37577 0
M  V30 2568 C 247.35 2.34323 1.8845 0
M  V30 2569 C 248.898 2.39735 2.01237 0
M  V30 2570 C 249.373 3.65625 2.7583 0
M  V30 2571 N 250.864 3.66402 2.83379 0
M  V30 2572 C 251.599 4.60498 3.41657 0
M  V30 2573 N 251.095 5.64933 4.01026 0
M  V30 2574 N 252.888 4.48051 3.39421 0
M  V30 2575 H 245.039 2.09777 0.332762 0
M  V30 2576 H 247.302 0.92446 0.209948 0
M  V30 2577 H 247.008 3.2498 1.34465 0
M  V30 2578 H 246.882 2.4256 2.88867 0
M  V30 2579 H 249.269 1.4956 2.54393 0
M  V30 2580 H 249.35 2.35476 0.999232 0
M  V30 2581 H 248.994 4.56156 2.23347 0
M  V30 2582 H 248.924 3.67144 3.77509 0
M  V30 2583 H 251.415 2.90896 2.41222 0
M  V30 2584 H 251.728 6.32841 4.43545 0
M  V30 2585 H 250.073 5.68732 3.99461 0
M  V30 2586 H 253.264 3.65649 2.92264 0
M  V30 2587 H 253.437 5.21565 3.84544 0
M  V30 2588 N 246.843 -1.10192 1.12674 0
M  V30 2589 C 247.79 -2.16606 0.796906 0
M  V30 2590 C 248.76 -1.64394 -0.237476 0
M  V30 2591 O 249.945 -1.90474 -0.111484 0
M  V30 2592 C 247.085 -3.44116 0.26043 0
M  V30 2593 C 246.198 -4.10268 1.35293 0
M  V30 2594 C 245.333 -5.25507 0.775621 0
M  V30 2595 C 244.372 -5.83567 1.84706 0
M  V30 2596 N 243.509 -6.90179 1.28829 0
M  V30 2597 H 248.349 -2.44163 1.70846 0
M  V30 2598 H 245.886 -1.19846 0.85295 0
M  V30 2599 H 247.844 -4.17143 -0.0686814 0
M  V30 2600 H 246.474 -3.16901 -0.614274 0
M  V30 2601 H 245.526 -3.35184 1.79877 0
M  V30 2602 H 246.838 -4.4946 2.16303 0
M  V30 2603 H 245.992 -6.05398 0.397327 0
M  V30 2604 H 244.731 -4.87656 -0.0656581 0
M  V30 2605 H 243.736 -5.02344 2.23452 0
M  V30 2606 H 244.961 -6.23482 2.69161 0
M  V30 2607 H 242.907 -6.54322 0.468881 0
M  V30 2608 H 242.824 -7.28097 2.03497 0
M  V30 2609 H 244.092 -7.73844 0.937311 0
M  V30 2610 N 248.321 -0.919034 -1.28029 0
M  V30 2611 C 249.598 -0.473668 -1.89778 0
M  V30 2612 C 249.978 1.04783 -1.83259 0
M  V30 2613 O 249.326 1.8982 -1.27202 0
M  V30 2614 C 249.536 -1.00998 -3.34066 0
M  V30 2615 C 250.884 -1.06525 -4.1102 0
M  V30 2616 O 251.908 -0.958996 -3.43048 0
M  V30 2617 O 250.767 -1.22776 -5.3253 0
M  V30 2618 H 247.861 -0.15098 -0.813101 0
M  V30 2619 H 250.407 -1.01016 -1.36359 0
M  V30 2620 H 249.179 -2.05392 -3.33061 0
M  V30 2621 H 248.802 -0.454626 -3.94992 0
M  V30 2622 N 249.799 1.42003 -0.683588 0
M  V30 2623 C 251.046 2.01413 -0.209514 0
M  V30 2624 C 251.374 1.54088 1.1869 0
M  V30 2625 O 250.629 0.737591 1.81268 0
M  V30 2626 C 250.928 3.56827 -0.202357 0
M  V30 2627 C 250.594 4.23617 -1.54464 0
M  V30 2628 C 249.256 4.41577 -1.91215 0
M  V30 2629 C 251.608 4.61178 -2.42826 0
M  V30 2630 C 248.936 4.9437 -3.15935 0
M  V30 2631 C 251.288 5.15355 -3.66867 0
M  V30 2632 C 249.952 5.31528 -4.03776 0
M  V30 2633 H 249.222 0.737023 -0.0766668 0
M  V30 2634 H 251.869 1.70067 -0.880312 0
M  V30 2635 H 250.174 3.87892 0.551969 0
M  V30 2636 H 251.871 4.00588 0.181793 0
M  V30 2637 H 248.461 4.10004 -1.24877 0
M  V30 2638 H 252.645 4.46968 -2.15717 0
M  V30 2639 H 247.901 5.05076 -3.44541 0
M  V30 2640 H 252.075 5.43402 -4.35531 0
M  V30 2641 H 249.702 5.72199 -5.00492 0
M  V30 2642 N 251.277 0.427512 1.51691 0
M  V30 2643 C 252.24 -0.377132 2.26076 0
M  V30 2644 C 253.24 -0.958089 1.29141 0
M  V30 2645 O 254.43 -0.83408 1.52934 0
M  V30 2646 C 251.562 -1.53262 3.04506 0
M  V30 2647 H 252.755 0.27464 2.9864 0
M  V30 2648 H 250.308 0.180445 1.55255 0
M  V30 2649 H 251.043 -2.22072 2.36335 0
M  V30 2650 H 250.828 -1.12232 3.75694 0
M  V30 2651 H 252.318 -2.10135 3.60878 0
M  V30 2652 N 252.755 -1.56801 0.158532 0
M  V30 2653 C 254.003 -1.96102 -0.488712 0
M  V30 2654 C 254.324 -1.04498 -1.64636 0
M  V30 2655 O 253.594 -0.108783 -1.95598 0
M  V30 2656 H 252.174 -0.724102 -0.183535 0
M  V30 2657 H 254.836 -1.93457 0.236728 0
M  V30 2658 H 253.932 -3.00097 -0.857219 0
M  V30 2659 N 254.233 0.115231 -1.57178 0
M  V30 2660 C 255.163 1.1423 -2.03651 0
M  V30 2661 C 256.144 1.42967 -0.921655 0
M  V30 2662 O 257.329 1.53343 -1.19162 0
M  V30 2663 C 254.459 2.4675 -2.44401 0
M  V30 2664 C 253.413 2.32467 -3.59365 0
M  V30 2665 C 252.739 3.69984 -3.86026 0
M  V30 2666 C 254.039 1.78203 -4.90959 0
M  V30 2667 H 255.733 0.755749 -2.89705 0
M  V30 2668 H 253.279 0.362093 -1.39373 0
M  V30 2669 H 255.232 3.18854 -2.75517 0
M  V30 2670 H 253.956 2.87302 -1.55322 0
M  V30 2671 H 252.615 1.62811 -3.28463 0
M  V30 2672 H 252.263 4.08028 -2.94147 0
M  V30 2673 H 251.963 3.61279 -4.63412 0
M  V30 2674 H 253.487 4.43587 -4.19599 0
M  V30 2675 H 254.901 2.40128 -5.20587 0
M  V30 2676 H 253.298 1.8031 -5.72371 0
M  V30 2677 H 254.368 0.739876 -4.79222 0
M  V30 2678 N 255.711 1.52812 0.385517 0
M  V30 2679 C 256.939 1.71907 1.15133 0
M  V30 2680 C 257.354 0.439004 1.83625 0
M  V30 2681 O 256.711 -0.586765 1.7281 0
M  V30 2682 C 256.762 2.87099 2.19673 0
M  V30 2683 O 256.483 4.10151 1.53973 0
M  V30 2684 C 257.984 3.17902 3.08955 0
M  V30 2685 H 255.204 0.575479 0.345057 0
M  V30 2686 H 257.748 1.99476 0.45052 0
M  V30 2687 H 255.903 2.61982 2.85384 0
M  V30 2688 H 256.317 4.74514 2.23465 0
M  V30 2689 H 257.791 4.01959 3.7833 0
M  V30 2690 H 258.268 2.3243 3.72657 0
M  V30 2691 H 258.874 3.44871 2.48885 0
M  V30 2692 N 257.189 -0.644168 1.43834 0
M  V30 2693 C 258.436 -1.40395 1.4593 0
M  V30 2694 C 258.764 -1.94305 0.0869658 0
M  V30 2695 O 258.019 -1.73288 -0.909378 0
M  V30 2696 C 258.318 -2.59615 2.45631 0
M  V30 2697 C 257.984 -2.2407 3.91284 0
M  V30 2698 C 256.646 -2.14089 4.30952 0
M  V30 2699 C 258.998 -1.95775 4.83034 0
M  V30 2700 C 256.326 -1.73981 5.6031 0
M  V30 2701 C 258.678 -1.57163 6.12766 0
M  V30 2702 C 257.342 -1.45713 6.51402 0
M  V30 2703 H 256.612 -0.513741 0.533995 0
M  V30 2704 H 259.259 -0.731724 1.76969 0
M  V30 2705 H 257.564 -3.32011 2.08028 0
M  V30 2706 H 259.261 -3.17834 2.44504 0
M  V30 2707 H 255.851 -2.32753 3.59895 0
M  V30 2708 H 260.035 -2.02403 4.53152 0
M  V30 2709 H 255.291 -1.63709 5.89075 0
M  V30 2710 H 259.465 -1.34303 6.83327 0
M  V30 2711 H 257.092 -1.14406 7.51542 0
M  V30 2712 N 258.668 -1.30515 -0.883378 0
M  V30 2713 C 259.598 -1.19607 -2.00541 0
M  V30 2714 C 260.579 -0.086346 -1.69881 0
M  V30 2715 O 261.764 -0.268654 -1.92333 0
M  V30 2716 C 258.894 -0.888758 -3.35736 0
M  V30 2717 C 257.848 -1.95659 -3.8066 0
M  V30 2718 C 257.174 -1.50224 -5.13164 0
M  V30 2719 C 258.474 -3.36788 -3.99213 0
M  V30 2720 H 260.168 -2.13476 -2.09925 0
M  V30 2721 H 257.714 -1.02775 -1.00863 0
M  V30 2722 H 259.667 -0.799094 -4.13754 0
M  V30 2723 H 258.391 0.0856125 -3.26488 0
M  V30 2724 H 257.05 -2.03591 -3.04871 0
M  V30 2725 H 256.698 -0.516092 -5.00345 0
M  V30 2726 H 256.398 -2.2165 -5.44192 0
M  V30 2727 H 257.922 -1.42639 -5.93706 0
M  V30 2728 H 259.336 -3.31605 -4.67665 0
M  V30 2729 H 257.733 -4.06314 -4.41621 0
M  V30 2730 H 258.803 -3.78561 -3.03017 0
M  V30 2731 N 260.146 1.09593 -1.13257 0
M  V30 2732 C 261.056 2.19739 -0.821691 0
M  V30 2733 C 262.072 1.72926 0.19302 0
M  V30 2734 O 263.248 2.01385 0.0244895 0
M  V30 2735 C 260.313 3.45482 -0.290333 0
M  V30 2736 C 259.374 4.06985 -1.36607 0
M  V30 2737 C 258.607 5.26726 -0.859975 0
M  V30 2738 O 258.83 5.69594 0.303082 0
M  V30 2739 O 257.764 5.7931 -1.63351 0
M  V30 2740 H 261.59 2.48781 -1.74189 0
M  V30 2741 H 259.175 1.18496 -0.909894 0
M  V30 2742 H 261.057 4.214 0.000674022 0
M  V30 2743 H 259.732 3.18047 0.602306 0
M  V30 2744 H 258.639 3.32712 -1.71037 0
M  V30 2745 H 259.972 4.38643 -2.23279 0
M  V30 2746 N 261.624 0.925811 1.2754 0
M  V30 2747 C 262.534 0.428993 2.30644 0
M  V30 2748 C 263.55 -0.489387 1.66976 0
M  V30 2749 O 264.726 -0.372653 1.97922 0
M  V30 2750 C 261.791 -0.311967 3.45294 0
M  V30 2751 C 260.852 0.641098 4.24486 0
M  V30 2752 C 260.085 -0.0645955 5.33661 0
M  V30 2753 O 260.308 -1.28429 5.55754 0
M  V30 2754 O 259.242 0.606265 5.98839 0
M  V30 2755 H 263.068 1.28504 2.75173 0
M  V30 2756 H 260.653 0.691086 1.32455 0
M  V30 2757 H 262.535 -0.729972 4.15029 0
M  V30 2758 H 261.21 -1.14365 3.02824 0
M  V30 2759 H 260.117 1.10874 3.57292 0
M  V30 2760 H 261.45 1.43995 4.70666 0
M  V30 2761 N 263.102 -1.41638 0.69111 0
M  V30 2762 C 264.032 -2.3347 0.037248 0
M  V30 2763 C 265.013 -1.51575 -0.771947 0
M  V30 2764 O 266.198 -1.80126 -0.72582 0
M  V30 2765 C 263.328 -3.35354 -0.903064 0
M  V30 2766 C 262.282 -4.27526 -0.201288 0
M  V30 2767 C 261.608 -5.19747 -1.25565 0
M  V30 2768 C 262.908 -5.13959 0.929689 0
M  V30 2769 H 264.602 -2.88397 0.804227 0
M  V30 2770 H 262.148 -1.38669 0.388189 0
M  V30 2771 H 264.101 -3.98519 -1.36969 0
M  V30 2772 H 262.825 -2.78767 -1.70166 0
M  V30 2773 H 261.484 -3.65779 0.245265 0
M  V30 2774 H 261.132 -4.59479 -2.04666 0
M  V30 2775 H 260.832 -5.8225 -0.791128 0
M  V30 2776 H 262.356 -5.85789 -1.72288 0
M  V30 2777 H 263.77 -5.70718 0.543546 0
M  V30 2778 H 262.167 -5.85379 1.32103 0
M  V30 2779 H 263.237 -4.51389 1.77133 0
M  V30 2780 N 264.58 -0.43555 -1.51462 0
M  V30 2781 C 265.49 0.383001 -2.31453 0
M  V30 2782 C 266.506 1.02931 -1.4029 0
M  V30 2783 O 267.682 1.02507 -1.73362 0
M  V30 2784 C 264.747 1.47043 -3.13973 0
M  V30 2785 C 263.808 0.844433 -4.20913 0
M  V30 2786 C 263.041 1.88004 -4.9949 0
M  V30 2787 O 263.264 3.10199 -4.78678 0
M  V30 2788 O 262.198 1.47157 -5.83634 0
M  V30 2789 H 266.024 -0.269964 -3.02498 0
M  V30 2790 H 263.609 -0.19813 -1.4808 0
M  V30 2791 H 265.491 2.10113 -3.65281 0
M  V30 2792 H 264.166 2.10751 -2.45695 0
M  V30 2793 H 263.073 0.175729 -3.73687 0
M  V30 2794 H 264.406 0.250869 -4.9156 0
M  V30 2795 N 266.058 1.56714 -0.166846 0
M  V30 2796 C 267.307 1.95922 0.479318 0
M  V30 2797 C 267.62 1.05529 1.6469 0
M  V30 2798 O 268.826 1.34399 2.35901 0
M  V30 2799 C 267.282 3.48359 0.90412 0
M  V30 2800 C 266.89 4.47369 -0.237621 0
M  V30 2801 C 268.634 3.96394 1.51896 0
M  V30 2802 C 266.541 5.91039 0.206561 0
M  V30 2803 H 265.471 0.731495 0.18284 0
M  V30 2804 H 268.122 1.81728 -0.254363 0
M  V30 2805 H 266.504 3.57955 1.69365 0
M  V30 2806 H 267.678 4.49485 -1.01489 0
M  V30 2807 H 265.993 4.09366 -0.762128 0
M  V30 2808 H 268.59 5.01186 1.86325 0
M  V30 2809 H 268.933 3.39075 2.41524 0
M  V30 2810 H 269.466 3.89796 0.79395 0
M  V30 2811 H 266.205 6.52221 -0.654834 0
M  V30 2812 H 265.725 5.9224 0.949282 0
M  V30 2813 H 267.404 6.43707 0.651939 0
M  V30 2814 N 267.536 -0.106894 1.57237 0
M  V30 2815 C 268.813 -0.843526 1.76477 0
M  V30 2816 C 269.193 -1.97499 0.745464 0
M  V30 2817 O 268.541 -2.27357 -0.228306 0
M  V30 2818 C 268.751 -1.34903 3.21873 0
M  V30 2819 C 270.099 -1.79654 3.8472 0
M  V30 2820 O 271.123 -1.44554 3.2555 0
M  V30 2821 O 269.982 -2.44515 4.88748 0
M  V30 2822 H 267.076 -0.401468 0.723016 0
M  V30 2823 H 269.622 -0.0896927 1.69463 0
M  V30 2824 H 268.394 -0.53781 3.87586 0
M  V30 2825 H 268.017 -2.16522 3.33473 0
M  V30 2826 N 269.014 -1.53014 -0.377408 0
M  V30 2827 C 269.977 -1.77957 -1.44444 0
M  V30 2828 C 270.977 -0.649763 -1.47087 0
M  V30 2829 O 272.167 -0.917897 -1.48055 0
M  V30 2830 C 269.299 -1.89089 -2.83651 0
M  V30 2831 H 270.492 -2.73243 -1.23606 0
M  V30 2832 H 268.045 -1.43912 -0.609844 0
M  V30 2833 H 268.78 -0.958293 -3.09818 0
M  V30 2834 H 268.565 -2.71254 -2.83132 0
M  V30 2835 H 270.055 -2.1002 -3.60945 0
M  V30 2836 N 270.492 0.636531 -1.44174 0
M  V30 2837 C 271.717 1.42847 -1.50364 0
M  V30 2838 C 272.142 1.87665 -0.127867 0
M  V30 2839 O 271.5 1.58408 0.88185 0
M  V30 2840 C 271.548 2.62854 -2.4686 0
M  V30 2841 O 270.652 3.62501 -1.9664 0
M  V30 2842 H 269.993 0.427642 -0.507955 0
M  V30 2843 H 272.523 0.777422 -1.89255 0
M  V30 2844 H 272.533 3.10465 -2.64718 0
M  V30 2845 H 271.208 2.29578 -3.46795 0
M  V30 2846 H 269.785 3.21735 -1.88523 0
M  V30 2847 N 271.97 1.30982 0.876444 0
M  V30 2848 C 273.247 1.10942 1.61094 0
M  V30 2849 C 273.627 -0.338223 2.08373 0
M  V30 2850 O 272.975 -1.33122 1.85717 0
M  V30 2851 C 273.185 2.11789 2.77392 0
M  V30 2852 C 274.533 2.43965 3.47514 0
M  V30 2853 O 275.557 2.10166 2.87591 0
M  V30 2854 O 274.416 3.01817 4.55597 0
M  V30 2855 H 271.51 0.42667 0.708436 0
M  V30 2856 H 274.056 1.42438 0.922474 0
M  V30 2857 H 272.828 3.09194 2.39823 0
M  V30 2858 H 272.451 1.81161 3.5393 0
M  V30 2859 N 273.449 -1.08991 1.13837 0
M  V30 2860 C 274.379 -2.17771 0.842507 0
M  V30 2861 C 275.36 -1.6892 -0.20001 0
M  V30 2862 O 276.545 -1.94113 -0.0579731 0
M  V30 2863 C 273.675 -3.4589 0.312644 0
M  V30 2864 C 272.629 -4.08099 1.28992 0
M  V30 2865 C 271.955 -5.31098 0.619623 0
M  V30 2866 C 273.255 -4.50077 2.65005 0
M  V30 2867 H 274.949 -2.42777 1.75213 0
M  V30 2868 H 272.495 -1.16682 0.843875 0
M  V30 2869 H 274.448 -4.21297 0.0933043 0
M  V30 2870 H 273.172 -3.20419 -0.632382 0
M  V30 2871 H 271.831 -3.34717 1.49533 0
M  V30 2872 H 271.479 -5.0191 -0.33102 0
M  V30 2873 H 271.179 -5.73674 1.27167 0
M  V30 2874 H 272.703 -6.09224 0.409669 0
M  V30 2875 H 274.117 -5.16688 2.48407 0
M  V30 2876 H 272.514 -5.03553 3.26427 0
M  V30 2877 H 273.584 -3.62257 3.22332 0
M  V30 2878 N 274.927 -0.932562 -1.27047 0
M  V30 2879 C 275.859 -0.392734 -2.2581 0
M  V30 2880 C 276.872 0.479241 -1.55586 0
M  V30 2881 O 278.061 0.291078 -1.76111 0
M  V30 2882 C 275.161 0.455456 -3.35826 0
M  V30 2883 C 274.334 -0.398355 -4.35582 0
M  V30 2884 C 273.393 0.387985 -5.24768 0
M  V30 2885 O 272.419 -0.206003 -5.68827 0
M  V30 2886 N 273.621 1.68664 -5.55457 0
M  V30 2887 H 276.386 -1.24173 -2.72766 0
M  V30 2888 H 273.947 -0.800511 -1.40725 0
M  V30 2889 H 275.939 0.988692 -3.92437 0
M  V30 2890 H 274.509 1.20522 -2.88432 0
M  V30 2891 H 273.729 -1.11286 -3.78165 0
M  V30 2892 H 275.017 -0.981889 -4.99236 0
M  V30 2893 H 274.415 2.19147 -5.21528 0
M  V30 2894 H 272.972 2.1663 -6.14748 0
M  V30 2895 N 276.405 1.4127 -0.698611 0
M  V30 2896 C 277.63 2.06024 -0.238512 0
M  V30 2897 C 278.055 1.5224 1.10475 0
M  V30 2898 O 277.413 0.650623 1.69223 0
M  V30 2899 C 277.461 3.59988 -0.209952 0
M  V30 2900 O 276.565 4.04282 0.814235 0
M  V30 2901 H 275.906 0.653829 -0.115775 0
M  V30 2902 H 278.436 1.8098 -0.954326 0
M  V30 2903 H 278.446 4.07979 -0.0418436 0
M  V30 2904 H 277.121 3.98503 -1.1903 0
M  V30 2905 H 275.698 3.6779 0.615234 0
M  V30 2906 N 277.883 0.443576 1.51229 0
M  V30 2907 C 279.113 -0.119117 2.06256 0
M  V30 2908 C 279.521 -1.36471 1.31043 0
M  V30 2909 O 278.864 -1.80034 0.365151 0
M  V30 2910 C 278.926 -0.500546 3.55998 0
M  V30 2911 C 278.59 0.639125 4.52509 0
M  V30 2912 C 279.587 1.51311 4.97394 0
M  V30 2913 C 277.272 0.821632 4.95535 0
M  V30 2914 C 279.266 2.55425 5.83984 0
M  V30 2915 C 276.953 1.86603 5.81913 0
M  V30 2916 C 277.951 2.73072 6.26036 0
M  V30 2917 O 277.639 3.75718 7.10698 0
M  V30 2918 H 277.371 -0.00857665 0.675946 0
M  V30 2919 H 279.925 0.623288 1.95715 0
M  V30 2920 H 278.155 -1.29575 3.64345 0
M  V30 2921 H 279.844 -0.995116 3.93513 0
M  V30 2922 H 280.61 1.38367 4.64844 0
M  V30 2923 H 276.489 0.158149 4.60729 0
M  V30 2924 H 280.033 3.22949 6.18344 0
M  V30 2925 H 275.93 1.99564 6.13876 0
M  V30 2926 H 276.698 3.72374 7.2889 0
M  V30 2927 N 279.361 -1.56624 0.175154 0
M  V30 2928 C 280.271 -2.21741 -0.766042 0
M  V30 2929 C 281.287 -1.21023 -1.25018 0
M  V30 2930 O 282.463 -1.53697 -1.3015 0
M  V30 2931 C 279.528 -2.84839 -1.97655 0
M  V30 2932 C 278.589 -4.00769 -1.53892 0
M  V30 2933 C 277.822 -4.60849 -2.69173 0
M  V30 2934 O 278.045 -4.19823 -3.86141 0
M  V30 2935 O 276.979 -5.50655 -2.43028 0
M  V30 2936 H 280.805 -3.02738 -0.241585 0
M  V30 2937 H 278.39 -1.49305 -0.053222 0
M  V30 2938 H 280.272 -3.24834 -2.68442 0
M  V30 2939 H 278.947 -2.06836 -2.48999 0
M  V30 2940 H 277.854 -3.65436 -0.80044 0
M  V30 2941 H 279.187 -4.80376 -1.07236 0
M  V30 2942 N 280.839 0.0985539 -1.57292 0
M  V30 2943 C 282.25 0.653457 -1.74891 0
M  V30 2944 C 282.601 1.7929 -0.796838 0
M  V30 2945 O 281.726 2.16385 0.0254886 0
M  V30 2946 C 282.321 1.19216 -3.17133 0
M  V30 2947 C 280.88 1.69316 -3.36168 0
M  V30 2948 C 280.027 0.601294 -2.70702 0
M  V30 2949 H 282.978 -0.127497 -1.58187 0
M  V30 2950 H 282.999 2.06154 -3.19814 0
M  V30 2951 H 282.511 0.362635 -3.86402 0
M  V30 2952 H 280.612 2.5468 -2.71972 0
M  V30 2953 H 280.725 1.78853 -4.44464 0
M  V30 2954 H 279.089 1.0399 -2.32504 0
M  V30 2955 H 279.872 -0.217592 -3.4261 0
M  V30 2956 N 282.317 1.53212 0.369288 0
M  V30 2957 C 283.264 1.79388 1.45219 0
M  V30 2958 C 284.234 0.638059 1.53356 0
M  V30 2959 O 285.419 0.879852 1.69302 0
M  V30 2960 C 282.559 1.98623 2.82211 0
M  V30 2961 C 281.672 3.26337 2.8307 0
M  V30 2962 C 280.807 3.35779 4.11614 0
M  V30 2963 C 279.846 4.5754 4.06601 0
M  V30 2964 N 278.983 4.64155 5.26787 0
M  V30 2965 H 283.823 2.71794 1.22198 0
M  V30 2966 H 281.36 1.34642 0.592444 0
M  V30 2967 H 283.318 2.07761 3.61789 0
M  V30 2968 H 281.948 1.09558 3.03639 0
M  V30 2969 H 281 3.26171 1.95747 0
M  V30 2970 H 282.312 4.15988 2.75237 0
M  V30 2971 H 281.466 3.44208 4.99606 0
M  V30 2972 H 280.205 2.44137 4.22195 0
M  V30 2973 H 279.21 4.49215 3.16996 0
M  V30 2974 H 280.435 5.50519 3.97625 0
M  V30 2975 H 278.381 3.75413 5.3796 0
M  V30 2976 H 278.298 5.47706 5.21109 0
M  V30 2977 H 279.566 4.76863 6.16621 0
M  V30 2978 N 283.795 -0.628877 1.44509 0
M  V30 2979 C 285.02 -1.42048 1.5112 0
M  V30 2980 C 285.445 -1.87594 0.137818 0
M  V30 2981 O 284.803 -1.58873 -0.873437 0
M  V30 2982 C 284.851 -2.61541 2.48251 0
M  V30 2983 O 283.955 -3.61453 1.98559 0
M  V30 2984 H 283.296 -0.424942 0.510216 0
M  V30 2985 H 285.826 -0.767374 1.89664 0
M  V30 2986 H 285.836 -3.09057 2.66361 0
M  V30 2987 H 284.511 -2.27736 3.48007 0
M  V30 2988 H 283.088 -3.20731 1.90227 0
M  V30 2989 N 285.273 -1.31445 -0.869486 0
M  V30 2990 C 286.203 -1.21727 -1.99261 0
M  V30 2991 C 287.184 -0.104359 -1.6978 0
M  V30 2992 O 288.369 -0.289038 -1.92037 0
M  V30 2993 C 285.499 -0.924317 -3.34774 0
M  V30 2994 C 284.453 -1.99685 -3.78563 0
M  V30 2995 C 283.779 -1.55658 -5.11541 0
M  V30 2996 C 285.079 -3.41003 -3.95619 0
M  V30 2997 H 286.773 -2.1569 -2.07649 0
M  V30 2998 H 284.319 -1.03839 -0.997675 0
M  V30 2999 H 286.272 -0.842934 -4.12883 0
M  V30 3000 H 284.996 0.0509793 -3.2656 0
M  V30 3001 H 283.655 -2.06813 -3.02694 0
M  V30 3002 H 283.303 -0.569132 -4.9977 0
M  V30 3003 H 283.003 -2.27409 -5.41811 0
M  V30 3004 H 284.527 -1.48928 -5.92159 0
M  V30 3005 H 285.941 -3.36547 -4.64122 0
M  V30 3006 H 284.338 -4.10975 -4.37286 0
M  V30 3007 H 285.408 -3.81754 -2.98985 0
M  V30 3008 N 286.751 1.08385 -1.14413 0
M  V30 3009 C 287.698 2.15311 -0.831265 0
M  V30 3010 C 288.668 1.64751 0.211292 0
M  V30 3011 O 289.853 1.90627 0.0811674 0
M  V30 3012 C 286.993 3.43658 -0.315143 0
M  V30 3013 C 286.106 4.08064 -1.41802 0
M  V30 3014 C 285.241 5.24207 -0.859126 0
M  V30 3015 C 284.28 5.80554 -1.93967 0
M  V30 3016 N 283.417 6.88042 -1.39793 0
M  V30 3017 H 288.257 2.41415 -1.74708 0
M  V30 3018 H 285.794 1.18474 -0.871909 0
M  V30 3019 H 287.752 4.172 0.00230884 0
M  V30 3020 H 286.382 3.17839 0.56378 0
M  V30 3021 H 285.434 3.3228 -1.85187 0
M  V30 3022 H 286.746 4.45962 -2.23427 0
M  V30 3023 H 285.9 6.04689 -0.49359 0
M  V30 3024 H 284.639 4.87699 -0.011932 0
M  V30 3025 H 283.644 4.98725 -2.31415 0
M  V30 3026 H 284.869 6.19121 -2.79046 0
M  V30 3027 H 282.815 6.53493 -0.572919 0
M  V30 3028 H 282.732 7.24767 -2.15054 0
M  V30 3029 H 284 7.72255 -1.0603 0
M  V30 3030 N 288.23 0.939286 1.26551 0
M  V30 3031 C 289.455 0.602008 1.98471 0
M  V30 3032 C 289.88 -0.815624 1.69497 0
M  V30 3033 O 289.238 -1.54912 0.941905 0
M  V30 3034 C 289.286 0.848407 3.50477 0
M  V30 3035 O 288.39 -0.0804009 4.12322 0
M  V30 3036 H 287.731 0.23049 0.622712 0
M  V30 3037 H 290.261 1.2617 1.61066 0
M  V30 3038 H 290.271 0.768553 4.00696 0
M  V30 3039 H 288.946 1.88171 3.70897 0
M  V30 3040 H 287.523 0.0503508 3.72866 0
M  V30 3041 N 289.708 -1.40897 0.706093 0
M  V30 3042 C 290.957 -2.00284 0.238574 0
M  V30 3043 C 291.27 -1.56604 -1.17194 0
M  V30 3044 O 292.476 -2.08624 -1.73748 0
M  V30 3045 C 290.932 -3.57934 0.375623 0
M  V30 3046 C 290.54 -4.10591 1.79217 0
M  V30 3047 C 292.284 -4.24488 -0.0315857 0
M  V30 3048 C 290.191 -5.60712 1.88032 0
M  V30 3049 H 289.121 -0.749144 0.0854398 0
M  V30 3050 H 291.772 -1.61251 0.875813 0
M  V30 3051 H 290.154 -3.94622 -0.330042 0
M  V30 3052 H 291.328 -3.85301 2.52745 0
M  V30 3053 H 289.643 -3.56601 2.15 0
M  V30 3054 H 292.24 -5.34698 0.0136842 0
M  V30 3055 H 292.583 -4.02261 -1.072 0
M  V30 3056 H 293.116 -3.92873 0.624181 0
M  V30 3057 H 289.855 -5.87781 2.90161 0
M  V30 3058 H 289.375 -5.87896 1.18903 0
M  V30 3059 H 291.054 -6.25658 1.64805 0
M  V30 3060 N 291.186 -0.45159 -1.50991 0
M  V30 3061 C 292.118 0.388634 -2.25881 0
M  V30 3062 C 293.131 0.974041 -1.30446 0
M  V30 3063 O 294.32 0.865758 -1.56099 0
M  V30 3064 C 291.42 1.5571 -3.01011 0
M  V30 3065 C 290.593 1.08801 -4.23652 0
M  V30 3066 C 289.652 2.12825 -4.8124 0
M  V30 3067 O 288.678 1.71678 -5.42693 0
M  V30 3068 N 289.88 3.45453 -4.66522 0
M  V30 3069 H 292.645 -0.25329 -2.98628 0
M  V30 3070 H 290.206 -0.281268 -1.59438 0
M  V30 3071 H 292.198 2.24952 -3.3642 0
M  V30 3072 H 290.768 2.10409 -2.31186 0
M  V30 3073 H 289.988 0.22215 -3.93574 0
M  V30 3074 H 291.276 0.752213 -5.03209 0
M  V30 3075 H 290.674 3.81605 -4.17605 0
M  V30 3076 H 289.231 4.10549 -5.06254 0
M  V30 3077 N 292.664 1.56529 -0.183458 0
M  V30 3078 C 293.612 2.19873 0.758845 0
M  V30 3079 C 294.606 1.16638 1.22849 0
M  V30 3080 O 295.812 1.3481 1.19274 0
M  V30 3081 H 292.187 0.7045 0.263029 0
M  V30 3082 H 294.158 2.97724 0.200755 0
M  V30 3083 C 292.907 2.86314 1.9728 0
M  V30 3084 H 292.23 3.65487 1.62047 0
M  V30 3085 H 293.67 3.3409 2.61075 0
M  V30 3086 C 292.129 1.86729 2.80418 0
M  V30 3087 O 292.659 1.36031 3.77966 0
M  V30 3088 N 290.865 1.55216 2.45675 0
M  V30 3089 H 290.412 1.96636 1.66409 0
M  V30 3090 H 290.37 0.888388 3.01588 0
M  V30 3091 N 294.142 -0.090211 1.57342 0
M  V30 3092 C 295.388 -0.793982 1.86611 0
M  V30 3093 C 295.721 -1.78142 0.773252 0
M  V30 3094 O 294.996 -1.93271 -0.218304 0
M  V30 3095 C 295.279 -1.51839 3.26523 0
M  V30 3096 C 295.132 -0.548609 4.46442 0
M  V30 3097 C 296.451 -2.46779 3.64401 0
M  V30 3098 H 293.57 -0.287186 0.678744 0
M  V30 3099 H 296.212 -0.0575076 1.89913 0
M  V30 3100 H 294.362 -2.14617 3.23839 0
M  V30 3101 H 296.034 0.0725513 4.61243 0
M  V30 3102 H 294.277 0.137614 4.33582 0
M  V30 3103 H 294.948 -1.09271 5.41076 0
M  V30 3104 H 297.424 -1.94089 3.68061 0
M  V30 3105 H 296.3 -2.94479 4.63221 0
M  V30 3106 H 296.561 -3.30758 2.93346 0
M  V30 3107 N 295.62 -1.53406 -0.361157 0
M  V30 3108 C 296.845 -1.74024 -1.12829 0
M  V30 3109 C 297.27 -0.470069 -1.82132 0
M  V30 3110 O 296.628 0.57619 -1.719 0
M  V30 3111 C 296.676 -2.90903 -2.13091 0
M  V30 3112 O 295.78 -2.59821 -3.20261 0
M  V30 3113 H 295.121 -0.577804 -0.327168 0
M  V30 3114 H 297.651 -2.00307 -0.41693 0
M  V30 3115 H 297.661 -3.17194 -2.56616 0
M  V30 3116 H 296.336 -3.83034 -1.62042 0
M  V30 3117 H 294.913 -2.44362 -2.81677 0
M  V30 3118 N 297.098 0.621204 -1.44841 0
M  V30 3119 C 298.048 1.72663 -1.48901 0
M  V30 3120 C 299.032 1.56964 -0.353702 0
M  V30 3121 O 300.224 1.66532 -0.599669 0
M  V30 3122 C 297.353 3.11381 -1.44557 0
M  V30 3123 C 296.439 3.32514 -2.6324 0
M  V30 3124 N 296.83 3.23969 -3.8843 0
M  V30 3125 C 295.128 3.63343 -2.58647 0
M  V30 3126 C 295.829 3.46062 -4.67564 0
M  V30 3127 N 294.805 3.69407 -3.98797 0
M  V30 3128 H 298.607 1.64529 -2.43531 0
M  V30 3129 H 296.121 0.82401 -1.39942 0
M  V30 3130 H 298.118 3.90667 -1.4555 0
M  V30 3131 H 296.778 3.20674 -0.509731 0
M  V30 3132 H 297.789 3.02669 -4.20252 0
M  V30 3133 H 294.466 3.79556 -1.73906 0
M  V30 3134 H 295.856 3.44963 -5.76585 0
M  V30 3135 N 298.576 1.31904 0.862503 0
M  V30 3136 C 299.506 1.22782 1.98612 0
M  V30 3137 C 300.487 0.113362 1.69722 0
M  V30 3138 O 301.672 0.299218 1.91881 0
M  V30 3139 C 298.802 0.942058 3.34279 0
M  V30 3140 C 297.756 2.0169 3.77499 0
M  V30 3141 C 297.082 1.58369 5.10709 0
M  V30 3142 C 298.382 3.43096 3.93805 0
M  V30 3143 H 300.076 2.16788 2.06502 0
M  V30 3144 H 297.622 1.04366 0.992154 0
M  V30 3145 H 299.575 0.864818 4.1243 0
M  V30 3146 H 298.299 -0.0336603 3.26583 0
M  V30 3147 H 296.958 2.08416 3.01593 0
M  V30 3148 H 296.606 0.595628 4.99461 0
M  V30 3149 H 296.306 2.30279 5.40597 0
M  V30 3150 H 297.83 1.52067 5.91361 0
M  V30 3151 H 299.244 3.39003 4.62331 0
M  V30 3152 H 297.641 4.13288 4.35101 0
M  V30 3153 H 298.711 3.83334 2.96957 0
M  V30 3154 N 300.054 -1.07777 1.14986 0
M  V30 3155 C 301.303 -1.79669 0.916617 0
M  V30 3156 C 301.616 -1.87474 -0.557917 0
M  V30 3157 O 302.822 -2.55845 -0.908617 0
M  V30 3158 C 301.278 -3.22848 1.59051 0
M  V30 3159 C 300.886 -3.23257 3.10176 0
M  V30 3160 C 302.63 -3.99379 1.43864 0
M  V30 3161 C 300.537 -4.61063 3.70372 0
M  V30 3162 H 299.467 -0.673349 0.33929 0
M  V30 3163 H 302.118 -1.21003 1.37951 0
M  V30 3164 H 300.5 -3.8168 1.0553 0
M  V30 3165 H 301.674 -2.74095 3.70417 0
M  V30 3166 H 299.989 -2.60222 3.25074 0
M  V30 3167 H 302.586 -5.0122 1.86232 0
M  V30 3168 H 302.929 -4.14511 0.385564 0
M  V30 3169 H 303.462 -3.47032 1.94457 0
M  V30 3170 H 300.201 -4.51135 4.7556 0
M  V30 3171 H 299.721 -5.1048 3.14913 0
M  V30 3172 H 301.4 -5.30034 3.71043 0
M  V30 3173 N 301.532 -0.945985 -1.26051 0
M  V30 3174 C 302.462 -0.477172 -2.28572 0
M  V30 3175 C 303.443 0.472032 -1.63419 0
M  V30 3176 O 304.628 0.372853 -1.90587 0
M  V30 3177 C 301.758 0.253975 -3.4637 0
M  V30 3178 C 300.712 -0.609135 -4.23643 0
M  V30 3179 C 300.038 0.252252 -5.34105 0
M  V30 3180 C 301.338 -1.8829 -4.8718 0
M  V30 3181 H 303.032 -1.33402 -2.68038 0
M  V30 3182 H 300.578 -0.642904 -1.28852 0
M  V30 3183 H 302.531 0.593016 -4.17207 0
M  V30 3184 H 301.255 1.145 -3.05871 0
M  V30 3185 H 299.914 -0.931138 -3.54578 0
M  V30 3186 H 299.562 1.14278 -4.89846 0
M  V30 3187 H 299.262 -0.32188 -5.86718 0
M  V30 3188 H 300.786 0.586454 -6.07777 0
M  V30 3189 H 302.2 -1.61081 -5.50205 0
M  V30 3190 H 300.597 -2.40199 -5.49931 0
M  V30 3191 H 301.667 -2.59134 -4.09851 0
M  V30 3192 N 303.011 1.40521 -0.713556 0
M  V30 3193 C 303.961 2.27971 -0.036165 0
M  V30 3194 C 304.945 1.43151 0.734623 0
M  V30 3195 O 306.137 1.66261 0.607158 0
M  V30 3196 C 303.266 3.31661 0.886331 0
M  V30 3197 C 302.352 4.23955 0.110836 0
M  V30 3198 N 302.743 4.97641 -0.904847 0
M  V30 3199 C 301.041 4.44674 0.343692 0
M  V30 3200 C 301.742 5.65322 -1.37064 0
M  V30 3201 N 300.718 5.39162 -0.693168 0
M  V30 3202 H 304.52 2.82384 -0.814645 0
M  V30 3203 H 302.034 1.52948 -0.545963 0
M  V30 3204 H 304.031 3.93154 1.38692 0
M  V30 3205 H 302.691 2.78808 1.66421 0
M  V30 3206 H 303.702 5.01689 -1.28563 0
M  V30 3207 H 300.379 4.02801 1.09805 0
M  V30 3208 H 301.769 6.34359 -2.21447 0
M  V30 3209 N 304.489 0.459591 1.5075 0
M  V30 3210 C 305.422 -0.386257 2.24907 0
M  V30 3211 C 306.4 -1.006 1.27744 0
M  V30 3212 O 307.584 -1.04416 1.56938 0
M  V30 3213 C 304.711 -1.54021 3.01654 0
M  V30 3214 C 303.757 -1.03898 4.13651 0
M  V30 3215 S 304.59 0.0370501 5.35487 0
M  V30 3216 C 305.746 -1.12105 6.15779 0
M  V30 3217 H 305.979 0.243272 2.96303 0
M  V30 3218 H 303.512 0.244339 1.52454 0
M  V30 3219 H 305.47 -2.20163 3.46466 0
M  V30 3220 H 304.131 -2.14121 2.29806 0
M  V30 3221 H 303.324 -1.90254 4.66711 0
M  V30 3222 H 302.926 -0.45545 3.71216 0
M  V30 3223 H 305.218 -2.03501 6.46215 0
M  V30 3224 H 306.161 -0.62995 7.05292 0
M  V30 3225 H 306.569 -1.36967 5.47631 0
M  V30 3226 N 305.967 -1.56429 0.191757 0
M  V30 3227 C 306.914 -2.18936 -0.730454 0
M  V30 3228 C 307.884 -1.13557 -1.21219 0
M  V30 3229 O 309.069 -1.41794 -1.27668 0
M  V30 3230 C 306.209 -2.85013 -1.9458 0
M  V30 3231 C 305.322 -4.04909 -1.50574 0
M  V30 3232 C 304.457 -4.58853 -2.67634 0
M  V30 3233 C 303.496 -5.71114 -2.20217 0
M  V30 3234 N 302.633 -6.19478 -3.30442 0
M  V30 3235 H 307.473 -2.97389 -0.190664 0
M  V30 3236 H 305.01 -1.46869 -0.0823694 0
M  V30 3237 H 306.968 -3.21492 -2.65893 0
M  V30 3238 H 305.598 -2.09129 -2.45896 0
M  V30 3239 H 304.65 -3.74115 -0.688605 0
M  V30 3240 H 305.962 -4.86113 -1.11784 0
M  V30 3241 H 305.116 -4.97619 -3.47074 0
M  V30 3242 H 303.855 -3.76749 -3.09696 0
M  V30 3243 H 302.86 -5.31879 -1.3923 0
M  V30 3244 H 304.085 -6.55033 -1.79189 0
M  V30 3245 H 302.031 -5.40297 -3.72041 0
M  V30 3246 H 301.948 -6.95725 -2.9581 0
M  V30 3247 H 303.216 -6.62898 -4.10106 0
M  V30 3248 N 307.445 0.0818655 -1.57387 0
M  V30 3249 C 308.377 1.12484 -1.997 0
M  V30 3250 C 309.39 1.35564 -0.90146 0
M  V30 3251 O 310.579 1.33982 -1.17945 0
M  V30 3252 C 307.679 2.47778 -2.31213 0
M  V30 3253 C 306.852 2.44793 -3.62485 0
M  V30 3254 C 305.911 3.62117 -3.81782 0
M  V30 3255 O 304.937 3.44005 -4.53486 0
M  V30 3256 N 306.139 4.82094 -3.23367 0
M  V30 3257 H 308.904 0.764585 -2.89783 0
M  V30 3258 H 306.465 0.270664 -1.59621 0
M  V30 3259 H 308.457 3.24891 -2.41304 0
M  V30 3260 H 307.027 2.75843 -1.4707 0
M  V30 3261 H 306.247 1.53134 -3.6324 0
M  V30 3262 H 307.535 2.39889 -4.48699 0
M  V30 3263 H 306.933 4.99713 -2.65148 0
M  V30 3264 H 305.49 5.56753 -3.38923 0
M  V30 3265 N 308.923 1.53595 0.353017 0
M  V30 3266 C 309.873 1.77299 1.43349 0
M  V30 3267 C 310.857 0.627884 1.48143 0
M  V30 3268 O 312.049 0.88697 1.53173 0
M  V30 3269 C 309.178 1.97757 2.80619 0
M  V30 3270 C 308.264 3.18305 2.80254 0
M  V30 3271 N 308.655 4.39967 2.49526 0
M  V30 3272 C 306.953 3.19283 3.11407 0
M  V30 3273 C 307.654 5.21772 2.57156 0
M  V30 3274 N 306.63 4.58269 2.92388 0
M  V30 3275 H 310.432 2.68963 1.18474 0
M  V30 3276 H 307.946 1.52391 0.561306 0
M  V30 3277 H 309.943 2.1287 3.58458 0
M  V30 3278 H 308.603 1.07329 3.06448 0
M  V30 3279 H 309.614 4.67482 2.22893 0
M  V30 3280 H 306.291 2.3879 3.4247 0
M  V30 3281 H 307.681 6.2885 2.36638 0
M  V30 3282 N 310.401 -0.613514 1.45168 0
M  V30 3283 C 311.65 -1.36874 1.4815 0
M  V30 3284 C 311.963 -1.952 0.124982 0
M  V30 3285 O 313.169 -2.71481 0.0324176 0
M  V30 3286 C 311.625 -2.47905 2.60904 0
M  V30 3287 C 311.233 -1.96016 4.02842 0
M  V30 3288 C 312.977 -3.24965 2.73126 0
M  V30 3289 C 310.884 -3.04494 5.06988 0
M  V30 3290 H 309.814 -0.514428 0.551253 0
M  V30 3291 H 312.465 -0.658182 1.7129 0
M  V30 3292 H 310.847 -3.21618 2.31037 0
M  V30 3293 H 312.021 -1.29051 4.4236 0
M  V30 3294 H 310.336 -1.31719 3.95018 0
M  V30 3295 H 312.933 -4.05865 3.48106 0
M  V30 3296 H 313.276 -3.75588 1.79553 0
M  V30 3297 H 313.809 -2.5835 3.0249 0
M  V30 3298 H 310.548 -2.58795 6.0225 0
M  V30 3299 H 310.068 -3.70044 4.72046 0
M  V30 3300 H 311.747 -3.68976 5.31475 0
M  V30 3301 N 311.879 -1.3236 -0.855495 0
M  V30 3302 C 312.809 -1.23833 -1.97958 0
M  V30 3303 C 313.79 -0.122361 -1.69659 0
M  V30 3304 O 314.975 -0.30939 -1.9172 0
M  V30 3305 C 312.105 -0.959772 -3.33775 0
M  V30 3306 C 311.059 -2.03689 -3.76424 0
M  V30 3307 C 310.385 -1.61075 -5.09862 0
M  V30 3308 C 311.685 -3.4518 -3.9198 0
M  V30 3309 H 313.379 -2.1788 -2.0535 0
M  V30 3310 H 310.925 -1.04891 -0.986605 0
M  V30 3311 H 312.878 -0.886678 -4.11966 0
M  V30 3312 H 311.602 0.0163404 -3.26596 0
M  V30 3313 H 310.261 -2.10012 -3.00484 0
M  V30 3314 H 309.909 -0.622107 -4.99138 0
M  V30 3315 H 309.609 -2.33143 -5.39368 0
M  V30 3316 H 311.133 -1.55201 -5.90546 0
M  V30 3317 H 312.547 -3.4145 -4.60526 0
M  V30 3318 H 310.944 -4.1559 -4.32903 0
M  V30 3319 H 312.014 -3.84903 -2.94919 0
M  V30 3320 N 313.357 1.07166 -1.15556 0
M  V30 3321 C 314.287 2.16403 -0.877046 0
M  V30 3322 C 315.268 1.69217 0.173111 0
M  V30 3323 O 316.453 1.94181 0.027084 0
M  V30 3324 C 313.583 3.45349 -0.367632 0
M  V30 3325 C 312.537 4.05995 -1.35468 0
M  V30 3326 C 311.863 5.30045 -0.704038 0
M  V30 3327 C 313.163 4.45804 -2.72132 0
M  V30 3328 H 314.857 2.39959 -1.79053 0
M  V30 3329 H 312.403 1.15325 -0.862331 0
M  V30 3330 H 314.356 4.21095 -0.160317 0
M  V30 3331 H 313.08 3.21385 0.581326 0
M  V30 3332 H 311.739 3.32296 -1.54839 0
M  V30 3333 H 311.387 5.02373 0.251128 0
M  V30 3334 H 311.087 5.71579 -1.36277 0
M  V30 3335 H 312.611 6.08495 -0.50654 0
M  V30 3336 H 314.025 5.12671 -2.56595 0
M  V30 3337 H 312.422 4.98296 -3.34397 0
M  V30 3338 H 313.492 3.57083 -3.28054 0
M  V30 3339 N 314.835 0.952656 1.25548 0
M  V30 3340 C 315.765 0.489287 2.28316 0
M  V30 3341 C 316.746 -0.463359 1.63667 0
M  V30 3342 O 317.931 -0.36274 1.90782 0
M  V30 3343 C 315.061 -0.235603 3.465 0
M  V30 3344 C 314.015 0.631593 4.23314 0
M  V30 3345 C 313.341 -0.223923 5.34231 0
M  V30 3346 C 314.641 1.90871 4.86174 0
M  V30 3347 H 316.335 1.34822 2.67326 0
M  V30 3348 H 313.881 0.649728 1.28509 0
M  V30 3349 H 315.834 -0.570882 4.17515 0
M  V30 3350 H 314.558 -1.12877 3.06474 0
M  V30 3351 H 313.217 0.949929 3.54079 0
M  V30 3352 H 312.865 -1.11678 4.90446 0
M  V30 3353 H 312.565 0.35299 5.86539 0
M  V30 3354 H 314.089 -0.554214 6.0808 0
M  V30 3355 H 315.503 1.63997 5.49343 0
M  V30 3356 H 313.9 2.43112 5.4865 0
M  V30 3357 H 314.97 2.61304 4.08471 0
M  V30 3358 N 316.313 -1.40141 0.720998 0
M  V30 3359 C 317.223 -2.34486 0.0731031 0
M  V30 3360 C 318.239 -1.57587 -0.737723 0
M  V30 3361 O 319.415 -1.89949 -0.669429 0
M  V30 3362 C 316.48 -3.36528 -0.833656 0
M  V30 3363 C 315.541 -4.29298 -0.0121673 0
M  V30 3364 C 314.774 -5.26466 -0.875742 0
M  V30 3365 O 314.997 -5.29745 -2.11485 0
M  V30 3366 O 313.931 -6.01092 -0.31185 0
M  V30 3367 H 317.757 -2.9152 0.851444 0
M  V30 3368 H 315.342 -1.41427 0.481527 0
M  V30 3369 H 317.224 -3.99093 -1.35289 0
M  V30 3370 H 315.899 -2.81899 -1.59105 0
M  V30 3371 H 314.806 -3.70001 0.552262 0
M  V30 3372 H 316.139 -4.87094 0.707129 0
M  V30 3373 N 317.792 -0.46758 -1.50504 0
M  V30 3374 C 319.041 0.0902868 -2.01498 0
M  V30 3375 C 319.354 1.411 -1.35463 0
M  V30 3376 O 320.56 2.0536 -1.77594 0
M  V30 3377 C 319.016 0.21142 -3.59278 0
M  V30 3378 C 318.624 -1.10065 -4.34269 0
M  V30 3379 C 320.368 0.721433 -4.18325 0
M  V30 3380 C 318.275 -0.943505 -5.83825 0
M  V30 3381 H 317.205 0.037517 -0.753066 0
M  V30 3382 H 319.856 -0.601943 -1.73346 0
M  V30 3383 H 318.238 0.967352 -3.84003 0
M  V30 3384 H 319.412 -1.86726 -4.21272 0
M  V30 3385 H 317.727 -1.5415 -3.86816 0
M  V30 3386 H 320.324 0.85598 -5.27804 0
M  V30 3387 H 320.667 1.71186 -3.79475 0
M  V30 3388 H 321.2 0.0229843 -3.97793 0
M  V30 3389 H 317.939 -1.90719 -6.27141 0
M  V30 3390 H 317.459 -0.217213 -5.99407 0
M  V30 3391 H 319.138 -0.608715 -6.4413 0
M  V30 3392 N 319.27 1.56325 -0.20005 0
M  V30 3393 C 320.517 1.97719 0.437411 0
M  V30 3394 C 320.845 1.08709 1.61284 0
M  V30 3395 O 320.1 0.127261 1.95286 0
M  V30 3396 C 320.399 3.4495 0.935103 0
M  V30 3397 C 320.065 4.5072 -0.12749 0
M  V30 3398 C 318.727 4.79368 -0.419451 0
M  V30 3399 C 321.079 5.14268 -0.847231 0
M  V30 3400 C 318.407 5.68854 -1.43604 0
M  V30 3401 C 320.759 6.04852 -1.85301 0
M  V30 3402 C 319.423 6.31855 -2.15211 0
M  V30 3403 H 318.693 0.723507 0.16006 0
M  V30 3404 H 321.34 1.89166 -0.298056 0
M  V30 3405 H 319.645 3.50599 1.74894 0
M  V30 3406 H 321.342 3.74337 1.43781 0
M  V30 3407 H 317.932 4.28458 0.11023 0
M  V30 3408 H 322.116 4.92222 -0.634901 0
M  V30 3409 H 317.372 5.88047 -1.67364 0
M  V30 3410 H 321.546 6.53152 -2.41591 0
M  V30 3411 H 319.173 7.00994 -2.94129 0
M  V30 3412 N 320.748 -0.0735177 1.57428 0
M  V30 3413 C 321.994 -0.774145 1.87443 0
M  V30 3414 C 322.327 -1.77311 0.792103 0
M  V30 3415 O 321.602 -1.93492 -0.197793 0
M  V30 3416 C 321.885 -1.48367 3.28115 0
M  V30 3417 C 321.738 -0.501227 4.46999 0
M  V30 3418 C 323.057 -2.429 3.66998 0
M  V30 3419 H 320.176 -0.279971 0.681752 0
M  V30 3420 H 322.818 -0.0373616 1.89963 0
M  V30 3421 H 320.968 -2.11171 3.26097 0
M  V30 3422 H 322.64 0.121468 4.6114 0
M  V30 3423 H 320.883 0.183593 4.33411 0
M  V30 3424 H 321.554 -1.03526 5.42205 0
M  V30 3425 H 324.03 -1.90175 3.70098 0
M  V30 3426 H 322.906 -2.89549 4.66318 0
M  V30 3427 H 323.167 -3.27628 2.96837 0
M  V30 3428 N 322.226 -1.5378 -0.344866 0
M  V30 3429 C 323.503 -1.61589 -1.10219 0
M  V30 3430 C 323.883 -0.436316 -2.06542 0
M  V30 3431 O 323.231 0.571543 -2.21237 0
M  V30 3432 C 323.441 -2.97602 -1.82301 0
M  V30 3433 C 324.789 -3.5291 -2.36093 0
M  V30 3434 O 325.813 -2.99768 -1.924 0
M  V30 3435 O 324.672 -4.45859 -3.16026 0
M  V30 3436 H 321.766 -0.653522 -0.506792 0
M  V30 3437 H 324.312 -1.66126 -0.346465 0
M  V30 3438 H 323.084 -3.74893 -1.12121 0
M  V30 3439 H 322.707 -2.9665 -2.64735 0
M  V30 3440 N 323.704 0.605807 -1.45491 0
M  V30 3441 C 324.95 1.36679 -1.49823 0
M  V30 3442 C 325.283 1.93693 -0.140175 0
M  V30 3443 O 324.558 1.75158 0.845581 0
M  V30 3444 C 324.841 2.51337 -2.57879 0
M  V30 3445 C 324.694 1.99508 -4.03134 0
M  V30 3446 C 326.013 3.53463 -2.62205 0
M  V30 3447 H 323.132 0.495617 -0.545466 0
M  V30 3448 H 325.774 0.682732 -1.7731 0
M  V30 3449 H 323.924 3.09691 -2.34571 0
M  V30 3450 H 325.596 1.45789 -4.37656 0
M  V30 3451 H 323.839 1.30496 -4.13707 0
M  V30 3452 H 324.51 2.82169 -4.74431 0
M  V30 3453 H 326.986 3.04953 -2.83095 0
M  V30 3454 H 325.862 4.31178 -3.39672 0
M  V30 3455 H 326.123 4.09197 -1.67363 0
M  V30 3456 N 325.182 1.32811 0.848464 0
M  V30 3457 C 326.41 1.26739 1.63538 0
M  V30 3458 C 326.825 -0.163484 1.88091 0
M  V30 3459 O 326.182 -1.10258 1.45429 0
M  V30 3460 C 326.233 2.03013 2.99112 0
M  V30 3461 O 325.954 3.40518 2.75643 0
M  V30 3462 C 327.455 2.04038 3.93552 0
M  V30 3463 H 324.675 0.437024 0.509167 0
M  V30 3464 H 327.219 1.75033 1.05753 0
M  V30 3465 H 325.374 1.58426 3.53525 0
M  V30 3466 H 325.788 3.79635 3.61908 0
M  V30 3467 H 327.262 2.61877 4.85926 0
M  V30 3468 H 327.739 1.0282 4.26995 0
M  V30 3469 H 328.345 2.486 3.45077 0
M  V30 3470 N 326.66 -1.06551 1.16123 0
M  V30 3471 C 327.885 -1.83544 0.965735 0
M  V30 3472 C 328.31 -1.81843 -0.481102 0
M  V30 3473 O 327.668 -1.21732 -1.34354 0
M  V30 3474 C 327.716 -3.28169 1.49457 0
M  V30 3475 O 326.82 -4.0643 0.699157 0
M  V30 3476 H 326.161 -0.568026 0.343864 0
M  V30 3477 H 328.691 -1.34362 1.54299 0
M  V30 3478 H 328.701 -3.78992 1.51092 0
M  V30 3479 H 327.376 -3.28722 2.54784 0
M  V30 3480 H 325.953 -3.65216 0.7531 0
M  V30 3481 N 328.138 -0.959301 -1.25041 0
M  V30 3482 C 329.363 -0.633507 -1.97488 0
M  V30 3483 C 329.788 0.788555 -1.70773 0
M  V30 3484 O 329.146 1.53394 -0.966431 0
M  V30 3485 C 329.194 -0.904057 -3.49083 0
M  V30 3486 O 328.298 0.0147939 -4.12397 0
M  V30 3487 H 327.639 -0.240368 -0.618966 0
M  V30 3488 H 330.169 -1.28717 -1.59038 0
M  V30 3489 H 330.179 -0.832203 -3.99423 0
M  V30 3490 H 328.854 -1.94048 -3.67856 0
M  V30 3491 H 327.431 -0.109664 -3.72739 0
M  V30 3492 N 329.616 1.39756 -0.72842 0
M  V30 3493 C 330.862 2.00942 -0.273892 0
M  V30 3494 C 331.195 1.57656 1.13394 0
M  V30 3495 O 330.47 0.802434 1.77176 0
M  V30 3496 C 330.753 3.58211 -0.368346 0
M  V30 3497 C 330.606 4.11534 -1.81548 0
M  V30 3498 C 331.925 4.39372 0.253054 0
M  V30 3499 H 329.044 0.730047 -0.100996 0
M  V30 3500 H 331.686 1.66056 -0.923337 0
M  V30 3501 H 329.836 3.88061 0.184588 0
M  V30 3502 H 331.508 3.92431 -2.42478 0
M  V30 3503 H 329.751 3.65341 -2.33898 0
M  V30 3504 H 330.422 5.20682 -1.83288 0
M  V30 3505 H 332.898 4.15527 -0.218224 0
M  V30 3506 H 331.774 5.48677 0.156585 0
M  V30 3507 H 332.035 4.21358 1.33826 0
M  V30 3508 N 331.094 0.475555 1.50254 0
M  V30 3509 C 332.004 -0.321501 2.32387 0
M  V30 3510 C 333.02 -0.991755 1.42969 0
M  V30 3511 O 334.196 -0.978747 1.76018 0
M  V30 3512 C 331.261 -1.38667 3.17762 0
M  V30 3513 C 330.322 -0.732538 4.23004 0
M  V30 3514 C 329.555 -1.74695 5.04299 0
M  V30 3515 O 329.778 -2.97399 4.86734 0
M  V30 3516 O 328.712 -1.31631 5.8733 0
M  V30 3517 H 332.538 0.350071 3.01676 0
M  V30 3518 H 330.123 0.237321 1.47503 0
M  V30 3519 H 332.005 -2.00354 3.70724 0
M  V30 3520 H 330.68 -2.04163 2.51196 0
M  V30 3521 H 329.587 -0.0765902 3.74022 0
M  V30 3522 H 330.92 -0.120452 4.92053 0
M  V30 3523 N 332.573 -1.56217 0.208337 0
M  V30 3524 C 333.813 -1.99849 -0.428927 0
M  V30 3525 C 334.177 -1.09262 -1.57879 0
M  V30 3526 O 335.378 -1.42185 -2.28116 0
M  V30 3527 C 333.649 -3.46777 -0.864879 0
M  V30 3528 S 335.208 -4.12434 -1.49811 0
M  V30 3529 H 332.026 -0.697742 -0.136665 0
M  V30 3530 H 334.628 -1.92953 0.314519 0
M  V30 3531 H 333.332 -4.10396 -0.0181326 0
M  V30 3532 H 332.863 -3.57518 -1.64147 0
M  V30 3533 H 334.878 -4.10532 -2.78707 0
M  V30 3534 N 334.051 0.0651679 -1.57465 0
M  V30 3535 C 334.981 1.07693 -2.07182 0
M  V30 3536 C 335.962 1.39962 -0.966673 0
M  V30 3537 O 337.147 1.49475 -1.2398 0
M  V30 3538 C 334.277 2.3885 -2.52127 0
M  V30 3539 C 333.231 2.20917 -3.66579 0
M  V30 3540 C 332.557 3.57515 -3.97601 0
M  V30 3541 C 333.857 1.62493 -4.9638 0
M  V30 3542 H 335.551 0.663199 -2.91962 0
M  V30 3543 H 333.097 0.317569 -1.40455 0
M  V30 3544 H 335.05 3.09928 -2.85522 0
M  V30 3545 H 333.774 2.82215 -1.64384 0
M  V30 3546 H 332.433 1.52279 -3.33477 0
M  V30 3547 H 332.081 3.98463 -3.06979 0
M  V30 3548 H 331.781 3.46353 -4.74672 0
M  V30 3549 H 333.305 4.30013 -4.33499 0
M  V30 3550 H 334.719 2.23445 -5.27963 0
M  V30 3551 H 333.116 1.62009 -5.77818 0
M  V30 3552 H 334.186 0.587041 -4.81333 0
M  V30 3553 N 335.529 1.53961 0.336706 0
M  V30 3554 C 336.439 1.85432 1.43708 0
M  V30 3555 C 337.455 0.745053 1.57242 0
M  V30 3556 O 338.631 1.03804 1.72588 0
M  V30 3557 C 335.696 2.06349 2.78605 0
M  V30 3558 C 334.757 3.30191 2.74358 0
M  V30 3559 C 333.99 3.50101 4.02822 0
M  V30 3560 O 334.213 2.7371 5.00439 0
M  V30 3561 O 333.147 4.43547 4.06878 0
M  V30 3562 H 336.973 2.78975 1.20028 0
M  V30 3563 H 334.558 1.39701 0.52952 0
M  V30 3564 H 336.44 2.21513 3.58483 0
M  V30 3565 H 335.115 1.15995 3.02203 0
M  V30 3566 H 334.022 3.20425 1.93078 0
M  V30 3567 H 335.355 4.2056 2.55715 0
M  V30 3568 N 337.007 -0.598083 1.45811 0
M  V30 3569 C 337.937 -1.71873 1.58057 0
M  V30 3570 C 338.918 -1.64533 0.431615 0
M  V30 3571 O 340.103 -1.82787 0.65595 0
M  V30 3572 C 337.233 -3.10495 1.55597 0
M  V30 3573 C 336.187 -3.32654 2.69305 0
M  V30 3574 C 335.513 -4.71646 2.51902 0
M  V30 3575 C 336.813 -3.21981 4.11248 0
M  V30 3576 H 338.507 -1.61881 2.51863 0
M  V30 3577 H 336.053 -0.777372 1.21214 0
M  V30 3578 H 338.006 -3.88699 1.6276 0
M  V30 3579 H 336.73 -3.2135 0.583255 0
M  V30 3580 H 335.389 -2.56843 2.61586 0
M  V30 3581 H 335.037 -4.79246 1.52748 0
M  V30 3582 H 334.737 -4.87426 3.2816 0
M  V30 3583 H 336.261 -5.52038 2.60933 0
M  V30 3584 H 337.675 -3.90049 4.20161 0
M  V30 3585 H 336.072 -3.49289 4.87972 0
M  V30 3586 H 337.142 -2.1928 4.32486 0
M  V30 3587 N 338.485 -1.33259 -0.841409 0
M  V30 3588 C 339.901 -1.12538 -1.13169 0
M  V30 3589 C 340.101 0.0854037 -2.01319 0
M  V30 3590 O 339.157 0.766417 -2.40587 0
M  V30 3591 C 340.47 -2.41156 -1.79623 0
M  V30 3592 C 342.018 -2.47038 -1.922 0
M  V30 3593 C 342.493 -3.7561 -2.6207 0
M  V30 3594 N 343.984 -3.76667 -2.69585 0
M  V30 3595 C 344.719 -4.72861 -3.2433 0
M  V30 3596 N 344.215 -5.79428 -3.79783 0
M  V30 3597 N 346.008 -4.6034 -3.22558 0
M  V30 3598 H 338.159 -2.10868 -0.254676 0
M  V30 3599 H 340.422 -0.931615 -0.175493 0
M  V30 3600 H 340.128 -3.29747 -1.22311 0
M  V30 3601 H 340.002 -2.53114 -2.79666 0
M  V30 3602 H 342.389 -1.58898 -2.48667 0
M  V30 3603 H 342.47 -2.39022 -0.911148 0
M  V30 3604 H 342.114 -4.64131 -2.06263 0
M  V30 3605 H 342.044 -3.80902 -3.63622 0
M  V30 3606 H 344.535 -2.99648 -2.30259 0
M  V30 3607 H 344.848 -6.48867 -4.19752 0
M  V30 3608 H 343.193 -5.83166 -3.78078 0
M  V30 3609 H 346.384 -3.76244 -2.78492 0
M  V30 3610 H 346.557 -5.35478 -3.64921 0
M  V30 3611 N 339.963 1.05934 -1.16686 0
M  V30 3612 C 341.24 1.75643 -0.860747 0
M  V30 3613 C 341.62 2.01144 0.640641 0
M  V30 3614 O 340.968 1.64147 1.58959 0
M  V30 3615 C 341.178 3.05493 -1.68745 0
M  V30 3616 C 342.526 3.79581 -1.90271 0
M  V30 3617 O 343.55 3.15344 -1.65641 0
M  V30 3618 O 342.409 4.9499 -2.31618 0
M  V30 3619 H 339.503 0.763426 -0.317977 0
M  V30 3620 H 342.049 1.1217 -1.27342 0
M  V30 3621 H 340.821 2.8264 -2.70611 0
M  V30 3622 H 340.444 3.76702 -1.27206 0
M  V30 3623 N 341.441 0.965919 1.2453 0
M  V30 3624 C 342.669 0.644385 1.96609 0
M  V30 3625 C 343.084 -0.785823 1.71669 0
M  V30 3626 O 342.441 -1.52703 0.999399 0
M  V30 3627 C 342.492 0.907375 3.49927 0
M  V30 3628 O 342.213 2.28136 3.74013 0
M  V30 3629 C 343.714 0.599784 4.39224 0
M  V30 3630 H 340.934 0.240588 0.626385 0
M  V30 3631 H 343.478 1.29337 1.58405 0
M  V30 3632 H 341.633 0.304631 3.862 0
M  V30 3633 H 342.047 2.36002 4.68405 0
M  V30 3634 H 343.521 0.834263 5.45659 0
M  V30 3635 H 343.998 -0.465921 4.36722 0
M  V30 3636 H 344.604 1.18235 4.08535 0
M  V30 3637 N 342.919 -1.39368 0.735821 0
M  V30 3638 C 344.196 -1.94465 0.210395 0
M  V30 3639 C 344.576 -1.67254 -1.28799 0
M  V30 3640 O 343.924 -1.00123 -2.05396 0
M  V30 3641 C 344.134 -3.4472 0.544897 0
M  V30 3642 C 345.482 -4.21708 0.494689 0
M  V30 3643 O 346.506 -3.52922 0.482136 0
M  V30 3644 O 345.365 -5.44299 0.489947 0
M  V30 3645 H 342.459 -0.826096 0.0386666 0
M  V30 3646 H 345.005 -1.48863 0.814735 0
M  V30 3647 H 343.777 -3.57963 1.58045 0
M  V30 3648 H 343.4 -3.97502 -0.08837 0
M  V30 3649 N 344.397 -0.483516 -1.5 0
M  V30 3650 C 345.327 0.293829 -2.31644 0
M  V30 3651 C 346.308 0.978864 -1.39112 0
M  V30 3652 O 347.493 0.973644 -1.68029 0
M  V30 3653 C 344.623 1.36897 -3.19181 0
M  V30 3654 C 343.577 0.804833 -4.20365 0
M  V30 3655 C 342.903 1.9792 -4.96721 0
M  V30 3656 C 344.203 -0.192313 -5.21946 0
M  V30 3657 H 345.897 -0.387616 -2.9688 0
M  V30 3658 H 343.443 -0.187856 -1.42769 0
M  V30 3659 H 345.396 1.92037 -3.751 0
M  V30 3660 H 344.12 2.07936 -2.51853 0
M  V30 3661 H 342.779 0.275319 -3.65565 0
M  V30 3662 H 342.427 2.67686 -4.25856 0
M  V30 3663 H 342.127 1.60789 -5.65173 0
M  V30 3664 H 343.651 2.53526 -5.55479 0
M  V30 3665 H 345.065 0.270333 -5.72662 0
M  V30 3666 H 343.462 -0.478543 -5.98189 0
M  V30 3667 H 344.532 -1.11409 -4.71928 0
M  V30 3668 N 345.875 1.56104 -0.216619 0
M  V30 3669 C 347.152 1.89988 0.465165 0
M  V30 3670 C 347.532 1.13326 1.78102 0
M  V30 3671 O 346.88 0.241033 2.27225 0
M  V30 3672 C 347.09 3.42646 0.662939 0
M  V30 3673 C 348.438 4.13311 0.972602 0
M  V30 3674 O 349.462 3.48217 0.749901 0
M  V30 3675 O 348.321 5.28396 1.39499 0
M  V30 3676 H 345.415 0.78979 0.245276 0
M  V30 3677 H 347.961 1.67721 -0.258436 0
M  V30 3678 H 346.733 3.90399 -0.26543 0
M  V30 3679 H 346.356 3.70677 1.43821 0
M  V30 3680 N 347.353 -0.0568162 1.57498 0
M  V30 3681 C 348.581 -0.765626 1.92213 0
M  V30 3682 C 348.996 -1.70353 0.813961 0
M  V30 3683 O 348.353 -1.81268 -0.211701 0
M  V30 3684 C 348.404 -1.5465 3.2675 0
M  V30 3685 O 348.125 -0.646278 4.33307 0
M  V30 3686 C 349.626 -2.35497 3.75574 0
M  V30 3687 H 346.846 -0.216835 0.634999 0
M  V30 3688 H 349.39 -0.0226146 2.04487 0
M  V30 3689 H 347.545 -2.24165 3.15957 0
M  V30 3690 H 347.959 -1.19093 5.108 0
M  V30 3691 H 349.433 -2.85722 4.72299 0
M  V30 3692 H 349.91 -3.15692 3.05344 0
M  V30 3693 H 350.516 -1.7111 3.8936 0
M  V30 3694 N 348.832 -1.54138 -0.328536 0
M  V30 3695 C 350.079 -1.72105 -1.06706 0
M  V30 3696 C 350.407 -0.492111 -1.88171 0
M  V30 3697 O 349.662 0.526153 -1.88494 0
M  V30 3698 C 349.961 -2.9457 -2.02393 0
M  V30 3699 C 349.627 -4.29544 -1.37122 0
M  V30 3700 C 348.289 -4.6624 -1.19052 0
M  V30 3701 C 350.641 -5.1333 -0.902331 0
M  V30 3702 C 347.969 -5.84325 -0.527331 0
M  V30 3703 C 350.321 -6.32094 -0.252988 0
M  V30 3704 C 348.985 -6.67473 -0.0600901 0
M  V30 3705 H 348.255 -0.629775 -0.390466 0
M  V30 3706 H 350.902 -1.88372 -0.34473 0
M  V30 3707 H 349.207 -2.72969 -2.81061 0
M  V30 3708 H 350.904 -3.05665 -2.59557 0
M  V30 3709 H 347.494 -4.0067 -1.52188 0
M  V30 3710 H 351.678 -4.855 -1.02974 0
M  V30 3711 H 346.934 -6.103 -0.366634 0
M  V30 3712 H 351.108 -6.96299 0.118366 0
M  V30 3713 H 348.735 -7.58832 0.455828 0
M  V30 3714 N 350.31 0.590341 -1.46126 0
M  V30 3715 C 351.26 1.69466 -1.5253 0
M  V30 3716 C 352.244 1.56179 -0.386917 0
M  V30 3717 O 353.436 1.65223 -0.634858 0
M  V30 3718 C 350.565 3.08245 -1.5113 0
M  V30 3719 C 349.651 3.26856 -2.70233 0
M  V30 3720 N 350.042 3.15657 -3.95214 0
M  V30 3721 C 348.34 3.57775 -2.66296 0
M  V30 3722 C 349.041 3.36066 -4.74799 0
M  V30 3723 N 348.017 3.60865 -4.06543 0
M  V30 3724 H 351.819 1.59326 -2.46966 0
M  V30 3725 H 349.333 0.79414 -1.41659 0
M  V30 3726 H 351.33 3.87492 -1.53804 0
M  V30 3727 H 349.99 3.19521 -0.577636 0
M  V30 3728 H 351.001 2.93686 -4.26578 0
M  V30 3729 H 347.678 3.75782 -1.81918 0
M  V30 3730 H 349.068 3.32655 -5.83772 0
M  V30 3731 N 351.788 1.33704 0.83433 0
M  V30 3732 C 353.035 1.25417 1.58987 0
M  V30 3733 C 353.363 -0.178869 1.93676 0
M  V30 3734 O 352.618 -1.13723 1.59265 0
M  V30 3735 C 352.917 2.07926 2.90692 0
M  V30 3736 C 352.583 3.57066 2.75345 0
M  V30 3737 C 351.245 3.97724 2.70867 0
M  V30 3738 C 353.597 4.51817 2.59828 0
M  V30 3739 C 350.925 5.31344 2.48778 0
M  V30 3740 C 353.277 5.85604 2.39272 0
M  V30 3741 C 351.941 6.25439 2.33199 0
M  V30 3742 H 351.211 0.458934 0.581774 0
M  V30 3743 H 353.858 1.65335 0.966261 0
M  V30 3744 H 352.163 1.608 3.57282 0
M  V30 3745 H 353.86 1.98868 3.48213 0
M  V30 3746 H 350.45 3.24785 2.79665 0
M  V30 3747 H 354.634 4.21311 2.62319 0
M  V30 3748 H 349.89 5.61241 2.42526 0
M  V30 3749 H 354.064 6.58623 2.2625 0
M  V30 3750 H 351.691 7.28914 2.15843 0
M  V30 3751 N 353.266 -1.05314 1.17247 0
M  V30 3752 C 354.491 -1.82509 0.985148 0
M  V30 3753 C 354.916 -1.82343 -0.461788 0
M  V30 3754 O 354.274 -1.23151 -1.33055 0
M  V30 3755 C 354.322 -3.26566 1.52929 0
M  V30 3756 O 353.426 -4.05666 0.742225 0
M  V30 3757 H 352.767 -0.564347 0.349869 0
M  V30 3758 H 355.297 -1.32718 1.55715 0
M  V30 3759 H 355.307 -3.77369 1.55103 0
M  V30 3760 H 353.982 -3.26001 2.58256 0
M  V30 3761 H 352.559 -3.64397 0.791794 0
M  V30 3762 N 354.744 -0.972509 -1.24016 0
M  V30 3763 C 355.654 -0.5143 -2.28893 0
M  V30 3764 C 356.67 0.427078 -1.68677 0
M  V30 3765 O 357.846 0.298939 -1.99169 0
M  V30 3766 C 354.911 0.183598 -3.46214 0
M  V30 3767 C 353.972 -0.798202 -4.21814 0
M  V30 3768 C 353.205 -0.133514 -5.33533 0
M  V30 3769 O 353.428 1.07714 -5.60137 0
M  V30 3770 O 352.362 -0.828103 -5.96176 0
M  V30 3771 H 356.188 -1.38629 -2.70214 0
M  V30 3772 H 353.773 -0.739769 -1.29799 0
M  V30 3773 H 355.655 0.575433 -4.17453 0
M  V30 3774 H 354.33 1.03048 -3.0686 0
M  V30 3775 H 353.237 -1.24059 -3.52931 0
M  V30 3776 H 354.57 -1.61364 -4.64997 0
M  V30 3777 N 356.222 1.38976 -0.743202 0
M  V30 3778 C 357.152 2.33171 -0.123873 0
M  V30 3779 C 358.133 1.54336 0.71516 0
M  V30 3780 O 359.318 1.82696 0.658467 0
M  V30 3781 C 356.448 3.38474 0.777978 0
M  V30 3782 C 355.402 4.27979 0.0424758 0
M  V30 3783 C 354.728 5.2405 1.06189 0
M  V30 3784 C 356.028 5.10155 -1.1198 0
M  V30 3785 H 357.722 2.85213 -0.910709 0
M  V30 3786 H 355.268 1.37133 -0.439388 0
M  V30 3787 H 357.221 4.03328 1.22084 0
M  V30 3788 H 355.945 2.84891 1.59702 0
M  V30 3789 H 354.604 3.64616 -0.380853 0
M  V30 3790 H 354.252 4.66758 1.87472 0
M  V30 3791 H 353.952 5.84785 0.574485 0
M  V30 3792 H 355.476 5.9178 1.50428 0
M  V30 3793 H 356.89 5.68307 -0.75499 0
M  V30 3794 H 355.287 5.80073 -1.53738 0
M  V30 3795 H 356.357 4.44504 -1.93764 0
M  V30 3796 N 357.7 0.491464 1.49741 0
M  V30 3797 C 358.925 -0.0557177 2.07325 0
M  V30 3798 C 359.35 -1.30925 1.35056 0
M  V30 3799 O 358.708 -1.76733 0.404365 0
M  V30 3800 C 358.756 -0.302074 3.59333 0
M  V30 3801 O 357.86 -1.37868 3.88672 0
M  V30 3802 H 357.201 0.0219956 0.663636 0
M  V30 3803 H 359.731 0.688352 1.92673 0
M  V30 3804 H 359.741 -0.536464 4.04458 0
M  V30 3805 H 358.416 0.61383 4.11345 0
M  V30 3806 H 356.993 -1.12999 3.55367 0
M  V30 3807 N 359.178 -1.55987 0.224894 0
M  V30 3808 C 360.406 -2.02784 -0.410665 0
M  V30 3809 C 360.821 -1.10464 -1.53112 0
M  V30 3810 O 360.178 -0.114871 -1.82138 0
M  V30 3811 C 360.229 -3.49087 -0.939165 0
M  V30 3812 O 359.95 -4.37887 0.136614 0
M  V30 3813 C 361.451 -4.11543 -1.64763 0
M  V30 3814 H 358.671 -0.663484 -0.100148 0
M  V30 3815 H 361.215 -2.01614 0.342326 0
M  V30 3816 H 359.37 -3.50861 -1.64242 0
M  V30 3817 H 359.784 -5.23849 -0.261155 0
M  V30 3818 H 361.258 -5.15673 -1.96939 0
M  V30 3819 H 361.735 -3.56736 -2.56195 0
M  V30 3820 H 362.341 -4.13629 -0.989503 0
M  V30 3821 N 360.656 0.0484629 -1.57525 0
M  V30 3822 C 361.904 0.741657 -1.88 0
M  V30 3823 C 362.225 1.76918 -0.820054 0
M  V30 3824 O 361.495 1.95335 0.148661 0
M  V30 3825 H 360.075 0.276908 -0.69378 0
M  V30 3826 H 362.737 0.019013 -1.94891 0
M  V30 3827 H 361.833 1.24336 -2.86264 0
M  V30 3828 N 362.134 1.5431 0.320358 0
M  V30 3829 C 363.044 1.86946 1.41734 0
M  V30 3830 C 364.06 0.761689 1.56443 0
M  V30 3831 O 365.236 1.05629 1.71477 0
M  V30 3832 C 362.301 2.09293 2.76401 0
M  V30 3833 C 361.362 3.33082 2.70841 0
M  V30 3834 C 360.595 3.54353 3.99086 0
M  V30 3835 O 360.818 2.79002 4.97508 0
M  V30 3836 O 359.752 4.47838 4.0215 0
M  V30 3837 H 363.578 2.80232 1.17062 0
M  V30 3838 H 361.163 1.40255 0.514673 0
M  V30 3839 H 363.045 2.25303 3.56113 0
M  V30 3840 H 361.72 1.19194 3.00956 0
M  V30 3841 H 360.627 3.22454 1.89668 0
M  V30 3842 H 361.96 4.23249 2.5124 0
M  V30 3843 N 363.613 -0.582584 1.46437 0
M  V30 3844 C 364.841 -1.36682 1.55324 0
M  V30 3845 C 365.256 -1.87796 0.194409 0
M  V30 3846 O 364.613 -1.63623 -0.808318 0
M  V30 3847 C 364.664 -2.55426 2.55812 0
M  V30 3848 O 364.385 -2.0643 3.86417 0
M  V30 3849 C 365.886 -3.47976 2.74641 0
M  V30 3850 H 363.106 -0.417545 0.525259 0
M  V30 3851 H 365.65 -0.708219 1.91845 0
M  V30 3852 H 363.805 -3.17275 2.22295 0
M  V30 3853 H 364.219 -2.83762 4.41111 0
M  V30 3854 H 365.693 -4.27775 3.48874 0
M  V30 3855 H 366.17 -3.99919 1.81553 0
M  V30 3856 H 366.776 -2.91962 3.09255 0
M  V30 3857 N 365.091 -1.34144 -0.827227 0
M  V30 3858 C 366.039 -1.25364 -1.95925 0
M  V30 3859 C 367.033 -0.152608 -1.68711 0
M  V30 3860 O 368.239 -0.317311 -1.77181 0
M  V30 3861 H 364.614 -0.389342 -0.643364 0
M  V30 3862 H 366.585 -2.21045 -2.00454 0
M  V30 3863 C 365.334 -1.02158 -3.32354 0
M  V30 3864 H 364.657 -1.86111 -3.5384 0
M  V30 3865 H 366.097 -1.00048 -4.12027 0
M  V30 3866 C 364.556 0.275244 -3.35774 0
M  V30 3867 O 365.086 1.27806 -3.80826 0
M  V30 3868 N 363.292 0.306853 -2.88975 0
M  V30 3869 H 362.839 -0.509777 -2.52506 0
M  V30 3870 H 362.797 1.17432 -2.91646 0
M  V30 3871 N 366.569 1.04691 -1.17803 0
M  V30 3872 C 367.794 1.81984 -0.994813 0
M  V30 3873 C 368.219 1.82586 0.452112 0
M  V30 3874 O 367.577 1.23854 1.324 0
M  V30 3875 C 367.625 3.2575 -1.54659 0
M  V30 3876 O 366.729 4.05267 -0.763728 0
M  V30 3877 H 366.07 0.562483 -0.352857 0
M  V30 3878 H 368.6 1.3189 -1.56417 0
M  V30 3879 H 368.61 3.76541 -1.57102 0
M  V30 3880 H 367.285 3.24627 -2.59981 0
M  V30 3881 H 365.862 3.63972 -0.811108 0
M  V30 3882 N 368.047 0.979072 1.23499 0
M  V30 3883 C 368.977 0.537606 2.27227 0
M  V30 3884 C 369.958 -0.428539 1.64613 0
M  V30 3885 O 371.143 -0.322191 1.91509 0
M  V30 3886 C 368.273 -0.162052 3.46922 0
M  V30 3887 C 367.227 0.721242 4.21879 0
M  V30 3888 C 366.553 -0.110555 5.34586 0
M  V30 3889 C 367.853 2.01141 4.82016 0
M  V30 3890 H 369.547 1.40462 2.64406 0
M  V30 3891 H 367.093 0.67684 1.27102 0
M  V30 3892 H 369.046 -0.482192 4.18632 0
M  V30 3893 H 367.77 -1.06351 3.08799 0
M  V30 3894 H 366.429 1.02482 3.51984 0
M  V30 3895 H 366.077 -1.0125 4.92704 0
M  V30 3896 H 365.777 0.477325 5.85658 0
M  V30 3897 H 367.301 -0.425107 6.09118 0
M  V30 3898 H 368.715 1.75612 5.45741 0
M  V30 3899 H 367.112 2.54695 5.43369 0
M  V30 3900 H 368.182 2.69909 4.02836 0
M  V30 3901 N 369.525 -1.3858 0.750561 0
M  V30 3902 C 370.774 -1.99424 0.302172 0
M  V30 3903 C 371.087 -1.60254 -1.12152 0
M  V30 3904 O 372.293 -2.14046 -1.67023 0
M  V30 3905 C 370.749 -3.56558 0.489307 0
M  V30 3906 C 370.357 -4.04682 1.92189 0
M  V30 3907 C 372.101 -4.24374 0.103478 0
M  V30 3908 C 370.008 -5.54446 2.05775 0
M  V30 3909 H 368.938 -0.746046 0.10923 0
M  V30 3910 H 371.589 -1.58383 0.92667 0
M  V30 3911 H 369.971 -3.95472 -0.204329 0
M  V30 3912 H 371.145 -3.77065 2.64875 0
M  V30 3913 H 369.46 -3.4958 2.26236 0
M  V30 3914 H 372.057 -5.34384 0.183787 0
M  V30 3915 H 372.4 -4.05468 -0.943481 0
M  V30 3916 H 372.933 -3.90688 0.748854 0
M  V30 3917 H 369.672 -5.78252 3.08714 0
M  V30 3918 H 369.192 -5.83816 1.37546 0
M  V30 3919 H 370.871 -6.20099 1.84626 0
M  V30 3920 N 371.003 -0.499398 -1.49478 0
M  V30 3921 C 371.95 0.279881 -2.29097 0
M  V30 3922 C 372.92 0.961805 -1.3542 0
M  V30 3923 O 374.105 0.968777 -1.64376 0
M  V30 3924 C 371.245 1.33932 -3.18051 0
M  V30 3925 C 370.358 0.669333 -4.26783 0
M  V30 3926 C 369.493 1.70907 -5.02955 0
M  V30 3927 C 368.532 1.02087 -6.03527 0
M  V30 3928 N 367.669 2.00474 -6.7287 0
M  V30 3929 H 372.509 -0.405317 -2.95231 0
M  V30 3930 H 370.046 -0.211726 -1.45568 0
M  V30 3931 H 372.004 1.96553 -3.67998 0
M  V30 3932 H 370.634 1.9933 -2.53904 0
M  V30 3933 H 369.686 -0.0701234 -3.80335 0
M  V30 3934 H 370.998 0.127503 -4.98637 0
M  V30 3935 H 370.152 2.41037 -5.56764 0
M  V30 3936 H 368.891 2.28476 -4.30871 0
M  V30 3937 H 367.896 0.305338 -5.48951 0
M  V30 3938 H 369.121 0.451708 -6.77596 0
M  V30 3939 H 367.067 2.57007 -6.03559 0
M  V30 3940 H 366.984 1.51353 -7.40694 0
M  V30 3941 H 368.252 2.69897 -7.31284 0
M  V30 3942 N 372.481 1.55866 -0.233164 0
M  V30 3943 C 373.428 2.20796 0.67215 0
M  V30 3944 C 374.398 1.16731 1.18166 0
M  V30 3945 O 375.583 1.45129 1.23864 0
M  V30 3946 C 372.723 2.90072 1.86955 0
M  V30 3947 C 371.836 4.08759 1.39786 0
M  V30 3948 C 370.971 4.65787 2.55374 0
M  V30 3949 C 370.01 5.76752 2.04998 0
M  V30 3950 N 369.147 6.28021 3.13901 0
M  V30 3951 H 373.987 2.9779 0.111749 0
M  V30 3952 H 371.524 1.47036 0.0434007 0
M  V30 3953 H 373.482 3.28428 2.57276 0
M  V30 3954 H 372.112 2.15575 2.40265 0
M  V30 3955 H 371.164 3.7581 0.589173 0
M  V30 3956 H 372.476 4.88906 0.98856 0
M  V30 3957 H 371.63 5.06646 3.33758 0
M  V30 3958 H 370.369 3.84828 2.99598 0
M  V30 3959 H 369.374 5.35383 1.25079 0
M  V30 3960 H 370.599 6.59553 1.61759 0
M  V30 3961 H 368.545 5.49971 3.57586 0
M  V30 3962 H 368.462 7.03323 2.7726 0
M  V30 3963 H 369.73 6.73538 3.92386 0
M  V30 3964 N 373.959 -0.0401083 1.57549 0
M  V30 3965 C 375.206 -0.733125 1.88763 0
M  V30 3966 C 375.534 -1.75946 0.829058 0
M  V30 3967 O 374.789 -1.94949 -0.171323 0
M  V30 3968 C 375.088 -1.44902 3.26708 0
M  V30 3969 C 374.754 -0.559707 4.47413 0
M  V30 3970 C 373.416 -0.314731 4.8017 0
M  V30 3971 C 375.768 0.0549743 5.21171 0
M  V30 3972 C 373.096 0.553886 5.8408 0
M  V30 3973 C 375.448 0.911229 6.26003 0
M  V30 3974 C 374.112 1.16577 6.57241 0
M  V30 3975 H 373.382 -0.268269 0.690733 0
M  V30 3976 H 376.029 0.00679408 1.91499 0
M  V30 3977 H 374.334 -2.26197 3.1991 0
M  V30 3978 H 376.031 -1.99058 3.48105 0
M  V30 3979 H 372.621 -0.760793 4.21794 0
M  V30 3980 H 376.805 -0.121344 4.96152 0
M  V30 3981 H 372.061 0.759518 6.06664 0
M  V30 3982 H 376.235 1.3941 6.82303 0
M  V30 3983 H 373.862 1.84058 7.37582 0
M  V30 3984 N 375.437 -1.54477 -0.31217 0
M  V30 3985 C 376.665 -1.77205 -1.068 0
M  V30 3986 C 377.08 -0.526114 -1.81321 0
M  V30 3987 O 376.437 0.503647 -1.75413 0
M  V30 3988 C 376.488 -2.97253 -2.05725 0
M  V30 3989 O 376.209 -4.1703 -1.34228 0
M  V30 3990 C 377.71 -3.32281 -2.93435 0
M  V30 3991 H 374.93 -0.591287 -0.317208 0
M  V30 3992 H 377.474 -2.01398 -0.354834 0
M  V30 3993 H 375.629 -2.753 -2.72559 0
M  V30 3994 H 376.043 -4.84636 -2.00571 0
M  V30 3995 H 377.517 -4.19551 -3.58721 0
M  V30 3996 H 377.994 -2.49945 -3.61143 0
M  V30 3997 H 378.6 -3.56353 -2.32147 0
M  V30 3998 N 376.915 0.57481 -1.46744 0
M  V30 3999 C 378.162 1.33272 -1.52462 0
M  V30 4000 C 378.49 1.93669 -0.179572 0
M  V30 4001 O 377.745 1.7743 0.825664 0
M  V30 4002 C 378.044 2.476 -2.57738 0
M  V30 4003 C 377.71 2.05146 -4.01529 0
M  V30 4004 C 376.372 1.93284 -4.40676 0
M  V30 4005 C 378.724 1.72506 -4.91824 0
M  V30 4006 C 376.052 1.47049 -5.67973 0
M  V30 4007 C 378.404 1.27748 -6.19567 0
M  V30 4008 C 377.068 1.14468 -6.57612 0
M  V30 4009 H 376.338 0.487678 -0.557899 0
M  V30 4010 H 378.985 0.646456 -1.80259 0
M  V30 4011 H 377.29 3.21708 -2.23632 0
M  V30 4012 H 378.987 3.05807 -2.5939 0
M  V30 4013 H 375.577 2.15316 -3.7059 0
M  V30 4014 H 379.761 1.80552 -4.62293 0
M  V30 4015 H 375.017 1.35417 -5.96215 0
M  V30 4016 H 379.191 1.01547 -6.88957 0
M  V30 4017 H 376.818 0.78419 -7.56145 0
M  V30 4018 N 378.394 1.34581 0.820102 0
M  V30 4019 C 379.81 1.14325 1.11364 0
M  V30 4020 C 380.01 -0.0533648 2.01429 0
M  V30 4021 O 379.066 -0.728044 2.41776 0
M  V30 4022 C 380.379 2.43983 1.75764 0
M  V30 4023 C 381.927 2.50065 1.88246 0
M  V30 4024 C 382.402 3.79732 2.56061 0
M  V30 4025 N 383.893 3.80908 2.63558 0
M  V30 4026 C 384.628 4.77961 3.16766 0
M  V30 4027 N 384.124 5.85397 3.70517 0
M  V30 4028 N 385.917 4.65413 3.15194 0
M  V30 4029 H 378.068 2.11246 0.221096 0
M  V30 4030 H 380.331 0.934289 0.160649 0
M  V30 4031 H 380.037 3.31651 1.1705 0
M  V30 4032 H 379.911 2.57531 2.75604 0
M  V30 4033 H 382.298 1.62834 2.46108 0
M  V30 4034 H 382.379 2.40442 0.873006 0
M  V30 4035 H 382.023 4.67354 1.98853 0
M  V30 4036 H 381.953 3.86639 3.57516 0
M  V30 4037 H 384.444 3.03274 2.25463 0
M  V30 4038 H 384.757 6.55463 4.09376 0
M  V30 4039 H 383.102 5.89107 3.68752 0
M  V30 4040 H 386.293 3.80627 2.72471 0
M  V30 4041 H 386.466 5.41216 3.56356 0
M  V30 4042 N 379.872 -1.04064 1.18357 0
M  V30 4043 C 380.82 -2.14187 0.907007 0
M  V30 4044 C 381.814 -1.68879 -0.132725 0
M  V30 4045 O 383.02 -1.79993 0.0154248 0
M  V30 4046 H 379.395 -0.699585 0.275835 0
M  V30 4047 H 381.366 -2.34711 1.84264 0
M  V30 4048 C 380.115 -3.44785 0.449254 0
M  V30 4049 H 379.438 -3.80058 1.24081 0
M  V30 4050 H 380.878 -4.22974 0.294737 0
M  V30 4051 C 379.337 -3.26391 -0.834909 0
M  V30 4052 O 379.867 -3.53973 -1.89911 0
M  V30 4053 N 378.073 -2.79726 -0.787523 0
M  V30 4054 H 377.62 -2.5748 0.0787347 0
M  V30 4055 H 377.578 -2.67798 -1.64716 0
M  V30 4056 N 381.35 -0.985608 -1.22978 0
M  V30 4057 C 382.596 -0.65836 -1.91816 0
M  V30 4058 C 382.929 0.806692 -1.76653 0
M  V30 4059 O 382.204 1.58252 -1.13078 0
M  V30 4060 C 382.487 -1.056 -3.44268 0
M  V30 4061 C 382.34 -2.57906 -3.68516 0
M  V30 4062 C 383.659 -0.603781 -4.35939 0
M  V30 4063 H 380.778 -0.24065 -0.696604 0
M  V30 4064 H 383.42 -1.22783 -1.44998 0
M  V30 4065 H 381.57 -0.571445 -3.84274 0
M  V30 4066 H 383.242 -3.13976 -3.3796 0
M  V30 4067 H 381.485 -3.00305 -3.13048 0
M  V30 4068 H 382.156 -2.80779 -4.75255 0
M  V30 4069 H 384.632 -1.01987 -4.03408 0
M  V30 4070 H 383.508 -0.910383 -5.41298 0
M  V30 4071 H 383.769 0.495761 -4.39312 0
M  V30 4072 N 382.828 1.3818 -0.7579 0
M  V30 4073 C 383.775 2.30416 -0.133057 0
M  V30 4074 C 384.745 1.50398 0.704957 0
M  V30 4075 O 385.93 1.79014 0.660192 0
M  V30 4076 C 383.07 3.36834 0.750813 0
M  V30 4077 C 382.183 4.31879 -0.102297 0
M  V30 4078 C 381.318 5.25368 0.784979 0
M  V30 4079 C 380.357 6.12058 -0.0715046 0
M  V30 4080 N 379.494 6.97832 0.772972 0
M  V30 4081 H 384.334 2.83274 -0.925186 0
M  V30 4082 H 381.871 1.39461 -0.467866 0
M  V30 4083 H 383.829 3.97145 1.27794 0
M  V30 4084 H 382.459 2.85374 1.50868 0
M  V30 4085 H 381.511 3.72991 -0.747095 0
M  V30 4086 H 382.823 4.92921 -0.763552 0
M  V30 4087 H 381.977 5.90818 1.37911 0
M  V30 4088 H 380.716 4.64703 1.47996 0
M  V30 4089 H 379.721 5.456 -0.678272 0
M  V30 4090 H 380.946 6.74793 -0.763606 0
M  V30 4091 H 378.892 6.3971 1.45282 0
M  V30 4092 H 378.809 7.55812 0.168709 0
M  V30 4093 H 380.077 7.67687 1.35194 0
M  V30 4094 N 384.306 0.507319 1.49211 0
M  V30 4095 C 385.555 -0.0368315 2.01666 0
M  V30 4096 C 385.868 -1.37459 1.39156 0
M  V30 4097 O 387.074 -2.00579 1.82976 0
M  V30 4098 C 385.53 -0.116089 3.59713 0
M  V30 4099 C 385.138 1.2154 4.31198 0
M  V30 4100 C 386.882 -0.610268 4.2009 0
M  V30 4101 C 384.789 1.09796 5.81119 0
M  V30 4102 H 383.719 -0.0175376 0.753796 0
M  V30 4103 H 386.37 0.647691 1.71689 0
M  V30 4104 H 384.752 -0.8652 3.86433 0
M  V30 4105 H 385.926 1.9783 4.16173 0
M  V30 4106 H 384.241 1.64352 3.82593 0
M  V30 4107 H 386.838 -0.715742 5.29888 0
M  V30 4108 H 387.181 -1.61064 3.8388 0
M  V30 4109 H 387.714 0.0824916 3.97714 0
M  V30 4110 H 384.453 2.0728 6.21864 0
M  V30 4111 H 383.973 0.376058 5.9862 0
M  V30 4112 H 385.652 0.779281 6.4229 0
M  V30 4113 N 385.784 -1.5574 0.241426 0
M  V30 4114 C 387.012 -2.03208 -0.389134 0
M  V30 4115 C 387.427 -1.12082 -1.51931 0
M  V30 4116 O 386.784 -0.134183 -1.82006 0
M  V30 4117 C 386.835 -3.50064 -0.902087 0
M  V30 4118 O 386.556 -4.37717 0.18305 0
M  V30 4119 C 388.057 -4.13268 -1.60389 0
M  V30 4120 H 385.277 -0.664509 -0.0931053 0
M  V30 4121 H 387.821 -2.0124 0.36369 0
M  V30 4122 H 385.976 -3.52583 -1.60511 0
M  V30 4123 H 386.39 -5.24097 -0.205579 0
M  V30 4124 H 387.864 -5.17733 -1.91458 0
M  V30 4125 H 388.341 -3.59434 -2.52397 0
M  V30 4126 H 388.947 -4.14655 -0.945576 0
M  V30 4127 N 387.262 0.0317525 -1.57568 0
M  V30 4128 C 388.539 0.758366 -1.803 0
M  V30 4129 C 388.919 1.93718 -0.838845 0
M  V30 4130 O 388.267 2.28187 0.119571 0
M  V30 4131 C 388.477 1.19392 -3.27943 0
M  V30 4132 C 389.825 1.61094 -3.92854 0
M  V30 4133 O 390.849 1.28857 -3.32076 0
M  V30 4134 O 389.708 2.20918 -4.99858 0
M  V30 4135 H 386.802 0.366514 -0.741348 0
M  V30 4136 H 389.348 0.00873765 -1.69698 0
M  V30 4137 H 388.12 0.352275 -3.89711 0
M  V30 4138 H 387.743 2.00365 -3.43424 0
M  V30 4139 N 388.74 1.54641 0.303973 0
M  V30 4140 C 389.65 1.88439 1.39743 0
M  V30 4141 C 390.666 0.778239 1.55626 0
M  V30 4142 O 391.842 1.07442 1.70347 0
M  V30 4143 C 388.907 2.12212 2.74166 0
M  V30 4144 C 387.968 3.35936 2.67293 0
M  V30 4145 C 387.201 3.58566 3.95305 0
M  V30 4146 O 387.424 2.84263 4.9452 0
M  V30 4147 O 386.358 4.52078 3.97378 0
M  V30 4148 H 390.184 2.81458 1.14083 0
M  V30 4149 H 387.769 1.40793 0.499768 0
M  V30 4150 H 389.651 2.29067 3.53704 0
M  V30 4151 H 388.326 1.22379 2.99675 0
M  V30 4152 H 387.233 3.24448 1.86237 0
M  V30 4153 H 388.566 4.2589 2.46736 0
M  V30 4154 N 390.218 -0.567019 1.47046 0
M  V30 4155 C 391.443 -1.3551 1.57009 0
M  V30 4156 C 391.868 -1.86841 0.217259 0
M  V30 4157 O 391.226 -1.62435 -0.805268 0
M  V30 4158 C 391.274 -2.50777 2.5912 0
M  V30 4159 O 390.378 -3.52706 2.13711 0
M  V30 4160 H 389.719 -0.402919 0.52778 0
M  V30 4161 H 392.249 -0.686241 1.92748 0
M  V30 4162 H 392.259 -2.97481 2.79229 0
M  V30 4163 H 390.934 -2.12771 3.57353 0
M  V30 4164 H 389.511 -3.12374 2.03659 0
M  V30 4165 N 391.696 -1.35014 -0.812953 0
M  V30 4166 C 392.626 -1.30069 -1.93919 0
M  V30 4167 C 393.607 -0.176275 -1.69184 0
M  V30 4168 O 394.792 -0.370227 -1.90638 0
M  V30 4169 C 391.922 -1.06547 -3.30552 0
M  V30 4170 C 390.876 -2.15561 -3.69753 0
M  V30 4171 C 390.202 -1.77214 -5.04479 0
M  V30 4172 C 391.502 -3.57476 -3.808 0
M  V30 4173 H 393.196 -2.24303 -1.98314 0
M  V30 4174 H 390.742 -1.07977 -0.952736 0
M  V30 4175 H 392.695 -1.01729 -4.08937 0
M  V30 4176 H 391.419 -0.0875719 -3.26483 0
M  V30 4177 H 390.078 -2.19466 -2.9365 0
M  V30 4178 H 389.726 -0.780589 -4.96906 0
M  V30 4179 H 389.426 -2.50184 -5.31678 0
M  V30 4180 H 390.95 -1.7391 -5.8531 0
M  V30 4181 H 392.364 -3.55929 -4.4943 0
M  V30 4182 H 390.761 -4.29152 -4.19462 0
M  V30 4183 H 391.831 -3.94091 -2.82525 0
M  V30 4184 N 393.175 1.03435 -1.18907 0
M  V30 4185 C 394.422 1.76743 -0.988334 0
M  V30 4186 C 394.75 1.88447 0.481441 0
M  V30 4187 O 394.005 1.39383 1.37371 0
M  V30 4188 C 394.304 3.19792 -1.59586 0
M  V30 4189 C 393.97 3.28108 -3.09283 0
M  V30 4190 C 392.632 3.30084 -3.5014 0
M  V30 4191 C 394.984 3.27696 -4.05296 0
M  V30 4192 C 392.312 3.29299 -4.85571 0
M  V30 4193 C 394.664 3.28451 -5.4065 0
M  V30 4194 C 393.328 3.28723 -5.80946 0
M  V30 4195 H 392.598 0.64675 -0.361657 0
M  V30 4196 H 395.245 1.21442 -1.48068 0
M  V30 4197 H 393.55 3.78136 -1.02568 0
M  V30 4198 H 395.247 3.75171 -1.41589 0
M  V30 4199 H 391.837 3.27294 -2.76725 0
M  V30 4200 H 396.021 3.25354 -3.74778 0
M  V30 4201 H 391.277 3.2783 -5.16079 0
M  V30 4202 H 395.451 3.27082 -6.14809 0
M  V30 4203 H 393.078 3.27868 -6.85862 0
M  V30 4204 N 394.653 0.992116 1.22453 0
M  V30 4205 C 395.585 0.500024 2.23679 0
M  V30 4206 C 396.598 -0.404463 1.57696 0
M  V30 4207 O 397.787 -0.206722 1.77299 0
M  V30 4208 C 394.887 -0.294711 3.37616 0
M  V30 4209 C 394.06 0.605723 4.33186 0
M  V30 4210 C 393.119 -0.13717 5.26021 0
M  V30 4211 O 392.145 0.477164 5.67196 0
M  V30 4212 N 393.347 -1.4197 5.62872 0
M  V30 4213 H 396.112 1.37045 2.66531 0
M  V30 4214 H 393.673 0.866741 1.36745 0
M  V30 4215 H 395.665 -0.800329 3.96707 0
M  V30 4216 H 394.235 -1.06623 2.93854 0
M  V30 4217 H 393.455 1.29202 3.72425 0
M  V30 4218 H 394.743 1.21896 4.93983 0
M  V30 4219 H 394.141 -1.94015 5.31389 0
M  V30 4220 H 392.698 -1.87052 6.24383 0
M  V30 4221 N 396.131 -1.37776 0.765217 0
M  V30 4222 C 397.377 -2.00145 0.327072 0
M  V30 4223 C 397.71 -1.60607 -1.09175 0
M  V30 4224 O 396.985 -0.849127 -1.74986 0
M  V30 4225 C 397.268 -3.57109 0.46319 0
M  V30 4226 C 397.121 -4.06576 1.92395 0
M  V30 4227 C 398.44 -4.39888 -0.136473 0
M  V30 4228 H 395.559 -0.727113 0.120316 0
M  V30 4229 H 398.201 -1.63549 0.967039 0
M  V30 4230 H 396.351 -3.88414 -0.0816358 0
M  V30 4231 H 398.023 -3.85864 2.52798 0
M  V30 4232 H 396.266 -3.59011 2.43503 0
M  V30 4233 H 396.937 -5.15639 1.97028 0
M  V30 4234 H 399.413 -4.14803 0.328317 0
M  V30 4235 H 398.289 -5.48899 -0.0110582 0
M  V30 4236 H 398.55 -4.24758 -1.22608 0
M  V30 4237 N 397.609 -0.515225 -1.4894 0
M  V30 4238 C 398.542 0.302518 -2.26186 0
M  V30 4239 C 399.52 0.957895 -1.31389 0
M  V30 4240 O 400.704 0.985198 -1.60705 0
M  V30 4241 C 397.831 1.42719 -3.07163 0
M  V30 4242 C 396.877 0.884736 -4.17223 0
M  V30 4243 S 397.71 -0.235767 -5.34981 0
M  V30 4244 C 398.866 0.891731 -6.19515 0
M  V30 4245 H 399.099 -0.353076 -2.95196 0
M  V30 4246 H 396.632 -0.300753 -1.51443 0
M  V30 4247 H 398.59 2.07152 -3.54398 0
M  V30 4248 H 397.251 2.05445 -2.37595 0
M  V30 4249 H 396.444 1.72801 -4.73451 0
M  V30 4250 H 396.046 0.317362 -3.72651 0
M  V30 4251 H 398.338 1.79377 -6.53322 0
M  V30 4252 H 399.281 0.367751 -7.07144 0
M  V30 4253 H 399.689 1.16548 -5.52338 0
M  V30 4254 N 399.087 1.5561 -0.249682 0
M  V30 4255 C 400.034 2.21496 0.648694 0
M  V30 4256 C 401.004 1.17977 1.16921 0
M  V30 4257 O 402.189 1.46434 1.22318 0
M  V30 4258 C 399.329 2.92039 1.83868 0
M  V30 4259 C 398.442 4.10219 1.35442 0
M  V30 4260 C 397.577 4.6847 2.50419 0
M  V30 4261 C 396.616 5.78893 1.98869 0
M  V30 4262 N 395.753 6.31315 3.07223 0
M  V30 4263 H 400.593 2.97892 0.0801582 0
M  V30 4264 H 398.13 1.47074 0.0278031 0
M  V30 4265 H 400.088 3.31138 2.53778 0
M  V30 4266 H 398.718 2.18111 2.37965 0
M  V30 4267 H 397.77 3.76413 0.54928 0
M  V30 4268 H 399.082 4.89927 0.936649 0
M  V30 4269 H 398.236 5.10158 3.28366 0
M  V30 4270 H 396.975 3.87984 2.95499 0
M  V30 4271 H 395.98 5.3668 1.19393 0
M  V30 4272 H 397.205 6.61232 1.54755 0
M  V30 4273 H 395.151 5.53733 3.51732 0
M  V30 4274 H 395.068 7.06224 2.69784 0
M  V30 4275 H 396.336 6.77662 3.8522 0
M  V30 4276 N 400.565 -0.0233959 1.57583 0
M  V30 4277 C 401.495 -1.02162 2.09965 0
M  V30 4278 C 402.476 -1.3735 1.00344 0
M  V30 4279 O 403.661 -1.46135 1.27899 0
M  V30 4280 C 400.791 -2.32081 2.58371 0
M  V30 4281 C 399.745 -2.1112 3.72307 0
M  V30 4282 C 399.071 -3.46848 4.06941 0
M  V30 4283 C 400.371 -1.49276 5.00514 0
M  V30 4284 H 402.065 -0.585557 2.93618 0
M  V30 4285 H 399.611 -0.280218 1.41247 0
M  V30 4286 H 401.564 -3.02249 2.93639 0
M  V30 4287 H 400.288 -2.77758 1.71808 0
M  V30 4288 H 398.947 -1.43384 3.37397 0
M  V30 4289 H 398.595 -3.90184 3.17436 0
M  V30 4290 H 398.295 -3.33646 4.83688 0
M  V30 4291 H 399.819 -4.18369 4.44747 0
M  V30 4292 H 401.233 -2.09368 5.33702 0
M  V30 4293 H 399.63 -1.46632 5.8191 0
M  V30 4294 H 400.7 -0.459217 4.82721 0
M  V30 4295 N 402.043 -1.548 -0.295768 0
M  V30 4296 C 402.973 -1.89115 -1.36959 0
M  V30 4297 C 403.954 -0.75059 -1.52644 0
M  V30 4298 O 405.139 -1.00678 -1.66065 0
M  V30 4299 C 402.269 -2.14307 -2.73295 0
M  V30 4300 C 401.223 -3.30151 -2.72368 0
M  V30 4301 C 400.549 -3.40772 -4.12042 0
M  V30 4302 C 401.849 -4.67126 -2.33646 0
M  V30 4303 H 403.543 -2.79053 -1.08488 0
M  V30 4304 H 401.089 -1.34266 -0.520443 0
M  V30 4305 H 403.042 -2.36898 -3.48507 0
M  V30 4306 H 401.766 -1.21145 -3.03301 0
M  V30 4307 H 400.425 -3.0749 -1.99613 0
M  V30 4308 H 400.073 -2.45117 -4.39234 0
M  V30 4309 H 399.773 -4.18645 -4.12322 0
M  V30 4310 H 401.297 -3.6563 -4.89027 0
M  V30 4311 H 402.711 -4.89414 -2.98575 0
M  V30 4312 H 401.108 -5.47751 -2.45129 0
M  V30 4313 H 402.178 -4.67489 -1.28772 0
M  V30 4314 N 403.521 0.559213 -1.47345 0
M  V30 4315 C 404.469 1.68747 -1.60085 0
M  V30 4316 C 405.463 1.628 -0.46825 0
M  V30 4317 O 406.669 1.68009 -0.645977 0
M  V30 4318 H 403.044 0.558329 -0.503759 0
M  V30 4319 H 405.015 1.55138 -2.54902 0
M  V30 4320 C 403.764 3.07103 -1.63042 0
M  V30 4321 H 403.087 3.12361 -2.49541 0
M  V30 4322 H 404.527 3.85743 -1.76006 0
M  V30 4323 C 402.986 3.34935 -0.363357 0
M  V30 4324 O 403.516 3.98102 0.536416 0
M  V30 4325 N 401.722 2.89574 -0.244 0
M  V30 4326 H 401.269 2.38348 -0.977133 0
M  V30 4327 H 401.227 3.08566 0.602836 0
M  V30 4328 N 404.999 1.35443 0.805782 0
M  V30 4329 C 405.931 1.24285 1.92577 0
M  V30 4330 C 406.944 0.165962 1.61952 0
M  V30 4331 O 408.133 0.419303 1.73505 0
M  V30 4332 C 405.233 0.891272 3.2697 0
M  V30 4333 C 404.406 2.06669 3.85495 0
M  V30 4334 C 403.465 1.69077 4.98297 0
M  V30 4335 O 402.491 2.4096 5.15681 0
M  V30 4336 N 403.693 0.614869 5.77234 0
M  V30 4337 H 406.458 2.20777 2.02676 0
M  V30 4338 H 404.019 1.28623 0.983243 0
M  V30 4339 H 406.011 0.621256 3.99903 0
M  V30 4340 H 404.581 0.016004 3.12596 0
M  V30 4341 H 403.801 2.50046 3.04747 0
M  V30 4342 H 405.089 2.85237 4.21328 0
M  V30 4343 H 404.487 0.017648 5.65697 0
M  V30 4344 H 403.044 0.404636 6.50543 0
M  V30 4345 N 406.477 -1.02803 1.19454 0
M  V30 4346 C 407.726 -1.7562 0.991996 0
M  V30 4347 C 408.039 -1.89672 -0.477901 0
M  V30 4348 O 409.245 -2.59468 -0.799287 0
M  V30 4349 C 407.701 -3.15812 1.72601 0
M  V30 4350 C 407.309 -3.0981 3.23607 0
M  V30 4351 C 409.053 -3.92918 1.60674 0
M  V30 4352 C 406.96 -4.44939 3.89594 0
M  V30 4353 H 405.89 -0.658352 0.367543 0
M  V30 4354 H 408.541 -1.15044 1.42959 0
M  V30 4355 H 406.923 -3.7686 1.21624 0
M  V30 4356 H 408.097 -2.58138 3.81709 0
M  V30 4357 H 406.412 -2.46201 3.35819 0
M  V30 4358 H 409.009 -4.9287 2.07323 0
M  V30 4359 H 409.352 -4.12502 0.561025 0
M  V30 4360 H 409.885 -3.38472 2.09001 0
M  V30 4361 H 406.624 -4.30559 4.94267 0
M  V30 4362 H 406.144 -4.96664 3.36281 0
M  V30 4363 H 407.823 -5.1382 3.93189 0
M  V30 4364 N 407.956 -0.998596 -1.21925 0
M  V30 4365 C 409.181 -0.696015 -1.95372 0
M  V30 4366 C 409.606 0.733826 -1.73195 0
M  V30 4367 O 408.964 1.50242 -1.01474 0
M  V30 4368 C 409.012 -1.01466 -3.4603 0
M  V30 4369 O 408.116 -0.116415 -4.12236 0
M  V30 4370 H 407.457 -0.259938 -0.611006 0
M  V30 4371 H 409.987 -1.33711 -1.54863 0
M  V30 4372 H 409.997 -0.958855 -3.96573 0
M  V30 4373 H 408.672 -2.05653 -3.61497 0
M  V30 4374 H 407.249 -0.228193 -3.72201 0
M  V30 4375 N 409.434 1.37368 -0.772513 0
M  V30 4376 C 410.682 1.99279 -0.336516 0
M  V30 4377 C 411.003 1.6163 1.09091 0
M  V30 4378 O 410.273 0.882109 1.74916 0
M  V30 4379 H 408.853 0.737063 -0.121435 0
M  V30 4380 H 411.515 1.67836 -0.990809 0
M  V30 4381 H 410.611 3.09332 -0.414763 0
M  V30 4382 N 410.912 0.523116 1.48665 0
M  V30 4383 C 411.842 -0.23231 2.32342 0
M  V30 4384 C 412.823 -0.941637 1.41659 0
M  V30 4385 O 414.008 -0.928751 1.70552 0
M  V30 4386 C 411.138 -1.28387 3.22698 0
M  V30 4387 C 410.092 -0.693098 4.22351 0
M  V30 4388 C 409.418 -1.8468 5.01794 0
M  V30 4389 C 410.718 0.33063 5.21252 0
M  V30 4390 H 412.412 0.466192 2.95748 0
M  V30 4391 H 409.958 0.225643 1.42221 0
M  V30 4392 H 411.911 -1.82024 3.80059 0
M  V30 4393 H 410.635 -2.01186 2.57278 0
M  V30 4394 H 409.294 -0.178299 3.66166 0
M  V30 4395 H 408.942 -2.56301 4.32804 0
M  V30 4396 H 408.642 -1.45747 5.69238 0
M  V30 4397 H 410.166 -2.38709 5.62006 0
M  V30 4398 H 411.58 -0.118407 5.73178 0
M  V30 4399 H 409.977 0.636974 5.9671 0
M  V30 4400 H 411.047 1.23883 4.68808 0
M  V30 4401 N 412.39 -1.55475 0.257931 0
M  V30 4402 C 413.32 -2.24815 -0.630912 0
M  V30 4403 C 414.301 -1.23224 -1.17259 0
M  V30 4404 O 415.486 -1.51904 -1.20991 0
M  V30 4405 C 412.616 -2.95609 -1.82298 0
M  V30 4406 C 411.57 -4.03982 -1.41359 0
M  V30 4407 C 410.896 -4.6226 -2.68738 0
M  V30 4408 C 412.196 -5.19109 -0.57648 0
M  V30 4409 H 413.89 -2.99354 -0.0526878 0
M  V30 4410 H 411.436 -1.4398 -0.023901 0
M  V30 4411 H 413.389 -3.42822 -2.45054 0
M  V30 4412 H 412.113 -2.18577 -2.42676 0
M  V30 4413 H 410.772 -3.57555 -0.809324 0
M  V30 4414 H 410.42 -3.81915 -3.27338 0
M  V30 4415 H 410.12 -5.35424 -2.42065 0
M  V30 4416 H 411.644 -5.12212 -3.32372 0
M  V30 4417 H 413.058 -5.62479 -1.10861 0
M  V30 4418 H 411.455 -5.98729 -0.405351 0
M  V30 4419 H 412.525 -4.83174 0.408776 0
M  V30 4420 N 413.868 0.0150385 -1.57593 0
M  V30 4421 C 414.778 1.02791 -2.10882 0
M  V30 4422 C 415.794 1.38702 -1.0506 0
M  V30 4423 O 416.97 1.47739 -1.36877 0
M  V30 4424 C 414.035 2.30568 -2.58919 0
M  V30 4425 C 413.096 2.01108 -3.79281 0
M  V30 4426 C 412.329 3.22794 -4.25018 0
M  V30 4427 O 412.552 4.33959 -3.70183 0
M  V30 4428 O 411.486 3.07672 -5.17322 0
M  V30 4429 H 415.312 0.604973 -2.97613 0
M  V30 4430 H 412.897 0.23292 -1.47573 0
M  V30 4431 H 414.779 3.05662 -2.90084 0
M  V30 4432 H 413.454 2.72129 -1.75293 0
M  V30 4433 H 412.361 1.23537 -3.53114 0
M  V30 4434 H 413.694 1.64394 -4.63935 0
M  V30 4435 N 415.346 1.54954 0.287554 0
M  V30 4436 C 416.276 1.89839 1.35954 0
M  V30 4437 C 417.257 0.758675 1.52244 0
M  V30 4438 O 418.442 1.01557 1.65529 0
M  V30 4439 C 415.572 2.15753 2.72154 0
M  V30 4440 C 414.526 3.3159 2.70614 0
M  V30 4441 C 413.852 3.42952 4.10229 0
M  V30 4442 C 415.152 4.68359 2.31165 0
M  V30 4443 H 416.846 2.79625 1.07007 0
M  V30 4444 H 414.392 1.3454 0.513316 0
M  V30 4445 H 416.345 2.38743 3.47246 0
M  V30 4446 H 415.069 1.22752 3.02654 0
M  V30 4447 H 413.728 3.08545 1.97979 0
M  V30 4448 H 413.376 2.47443 4.37928 0
M  V30 4449 H 413.076 4.20826 4.10097 0
M  V30 4450 H 414.6 3.68218 4.87081 0
M  V30 4451 H 416.014 4.9099 2.95976 0
M  V30 4452 H 414.411 5.49044 2.42221 0
M  V30 4453 H 415.481 4.68165 1.26291 0
M  V30 4454 N 416.824 -0.551391 1.4764 0
M  V30 4455 C 417.734 -1.68525 1.63207 0
M  V30 4456 C 418.75 -1.6621 0.514815 0
M  V30 4457 O 419.926 -1.85551 0.783113 0
M  V30 4458 C 416.991 -3.05025 1.64805 0
M  V30 4459 C 416.052 -3.18362 2.88 0
M  V30 4460 C 415.285 -4.4835 2.89513 0
M  V30 4461 O 415.508 -5.34163 2.00065 0
M  V30 4462 O 414.442 -4.65602 3.81443 0
M  V30 4463 H 418.268 -1.58333 2.59161 0
M  V30 4464 H 415.853 -0.722063 1.30792 0
M  V30 4465 H 417.735 -3.86245 1.68502 0
M  V30 4466 H 416.41 -3.15587 0.720197 0
M  V30 4467 H 415.317 -2.36518 2.89845 0
M  V30 4468 H 416.65 -3.12707 3.80099 0
M  V30 4469 N 418.302 -1.35869 -0.798587 0
M  V30 4470 C 419.549 -1.29588 -1.55606 0
M  V30 4471 C 419.877 0.127456 -1.94082 0
M  V30 4472 O 419.132 1.09461 -1.62225 0
M  V30 4473 C 419.431 -2.1556 -2.85077 0
M  V30 4474 C 419.097 -3.6424 -2.65781 0
M  V30 4475 C 417.759 -4.04766 -2.60227 0
M  V30 4476 C 420.111 -4.58547 -2.47758 0
M  V30 4477 C 417.439 -5.37753 -2.34603 0
M  V30 4478 C 419.791 -5.91742 -2.23662 0
M  V30 4479 C 418.455 -6.31402 -2.16534 0
M  V30 4480 H 417.725 -0.474197 -0.569402 0
M  V30 4481 H 420.372 -1.67839 -0.922086 0
M  V30 4482 H 418.677 -1.70216 -3.52893 0
M  V30 4483 H 420.374 -2.08031 -3.42818 0
M  V30 4484 H 416.964 -3.32086 -2.70956 0
M  V30 4485 H 421.148 -4.28117 -2.51056 0
M  V30 4486 H 416.404 -5.67474 -2.2756 0
M  V30 4487 H 420.578 -6.6439 -2.08708 0
M  V30 4488 H 418.205 -7.34381 -1.96441 0
M  V30 4489 N 419.78 1.02168 -1.19998 0
M  V30 4490 C 421.057 1.72816 -0.916191 0
M  V30 4491 C 421.437 2.03081 0.576325 0
M  V30 4492 O 420.785 1.69122 1.53656 0
M  V30 4493 C 420.995 2.9997 -1.78378 0
M  V30 4494 C 422.343 3.73336 -2.02251 0
M  V30 4495 O 423.367 3.09914 -1.75589 0
M  V30 4496 O 422.226 4.87371 -2.47249 0
M  V30 4497 H 419.32 0.752924 -0.342103 0
M  V30 4498 H 421.866 1.08062 -1.30846 0
M  V30 4499 H 420.638 2.73888 -2.79466 0
M  V30 4500 H 420.261 3.72464 -1.39126 0
M  V30 4501 N 421.258 1.00505 1.21394 0
M  V30 4502 C 422.535 0.603277 1.86064 0
M  V30 4503 C 422.915 -0.919095 1.90042 0
M  V30 4504 O 422.263 -1.80607 1.39977 0
M  V30 4505 C 422.473 1.23772 3.26315 0
M  V30 4506 C 423.821 1.34586 4.02705 0
M  V30 4507 O 424.845 1.19304 3.35626 0
M  V30 4508 O 423.704 1.59169 5.22807 0
M  V30 4509 H 420.798 0.206634 0.800769 0
M  V30 4510 H 423.344 1.1017 1.29076 0
M  V30 4511 H 422.116 2.27848 3.18121 0
M  V30 4512 H 421.739 0.725648 3.90922 0
M  V30 4513 N 422.737 -1.36956 0.779787 0
M  V30 4514 C 423.977 -2.01328 0.353043 0
M  V30 4515 C 424.341 -1.60558 -1.05286 0
M  V30 4516 O 425.542 -2.1745 -1.58016 0
M  V30 4517 C 423.813 -3.53874 0.500822 0
M  V30 4518 S 425.372 -4.38506 0.16053 0
M  V30 4519 H 422.19 -0.69799 0.13539 0
M  V30 4520 H 424.792 -1.67016 1.01617 0
M  V30 4521 H 423.496 -3.81034 1.52451 0
M  V30 4522 H 423.027 -3.92994 -0.178574 0
M  V30 4523 H 425.042 -4.85153 -1.04121 0
M  V30 4524 N 424.215 -0.530993 -1.48385 0
M  V30 4525 C 425.443 -0.00134122 -2.069 0
M  V30 4526 C 425.858 1.2805 -1.3874 0
M  V30 4527 O 425.215 1.76204 -0.475244 0
M  V30 4528 C 425.266 0.225256 -3.60798 0
M  V30 4529 O 424.987 -1.0058 -4.26398 0
M  V30 4530 C 426.488 0.795172 -4.3611 0
M  V30 4531 H 423.708 -0.0339704 -0.67014 0
M  V30 4532 H 426.252 -0.736926 -1.90761 0
M  V30 4533 H 424.407 0.910891 -3.76539 0
M  V30 4534 H 424.821 -0.787165 -5.1856 0
M  V30 4535 H 426.295 0.903143 -5.44562 0
M  V30 4536 H 426.772 1.80031 -4.00606 0
M  V30 4537 H 427.378 0.146069 -4.25049 0
M  V30 4538 N 425.693 1.55336 -0.266172 0
M  V30 4539 C 426.623 2.25146 0.618981 0
M  V30 4540 C 427.604 1.23845 1.16604 0
M  V30 4541 O 428.789 1.52544 1.20183 0
M  V30 4542 C 425.919 2.96572 1.80728 0
M  V30 4543 C 424.873 4.04726 1.39215 0
M  V30 4544 C 424.199 4.63678 2.66283 0
M  V30 4545 C 425.499 5.19407 0.548942 0
M  V30 4546 H 427.193 2.99377 0.0368116 0
M  V30 4547 H 424.739 1.43991 0.0162651 0
M  V30 4548 H 426.692 3.44116 2.43232 0
M  V30 4549 H 425.416 2.19861 2.41514 0
M  V30 4550 H 424.075 3.57979 0.790351 0
M  V30 4551 H 423.723 3.83646 3.25308 0
M  V30 4552 H 423.423 5.367 2.39222 0
M  V30 4553 H 424.947 5.13967 3.29651 0
M  V30 4554 H 426.361 5.63059 1.07876 0
M  V30 4555 H 424.758 5.98936 0.373593 0
M  V30 4556 H 425.828 4.8295 -0.434394 0
M  V30 4557 N 427.171 -0.0066808 1.57599 0
M  V30 4558 C 428.119 -1.01851 2.09115 0
M  V30 4559 C 429.113 -1.36021 1.00969 0
M  V30 4560 O 430.319 -1.34663 1.19439 0
M  V30 4561 H 426.694 -0.346083 0.667631 0
M  V30 4562 H 428.665 -0.558394 2.93129 0
M  V30 4563 C 427.414 -2.30374 2.60429 0
M  V30 4564 H 426.737 -2.04947 3.43273 0
M  V30 4565 H 428.177 -2.99466 3.00161 0
M  V30 4566 C 426.636 -3.00893 1.51542 0
M  V30 4567 O 427.166 -3.91614 0.894484 0
M  V30 4568 N 425.372 -2.62603 1.2445 0
M  V30 4569 H 424.919 -1.88911 1.75129 0
M  V30 4570 H 424.877 -3.10101 0.518137 0
M  V30 4571 N 428.649 -1.55105 -0.279332 0
M  V30 4572 C 429.897 -1.75066 -1.00977 0
M  V30 4573 C 430.218 -0.551276 -1.87045 0
M  V30 4574 O 429.488 0.433984 -1.91032 0
M  V30 4575 H 428.068 -0.645578 -0.375816 0
M  V30 4576 H 430.73 -1.92497 -0.305089 0
M  V30 4577 H 429.826 -2.64894 -1.65038 0
M  V30 4578 N 430.127 0.543554 -1.4793 0
M  V30 4579 C 431.373 1.30201 -1.55485 0
M  V30 4580 C 431.706 1.92925 -0.222201 0
M  V30 4581 O 430.981 1.78586 0.77053 0
M  V30 4582 C 431.264 2.40174 -2.68307 0
M  V30 4583 C 431.117 1.8223 -4.11233 0
M  V30 4584 C 432.436 3.42024 -2.76961 0
M  V30 4585 H 429.555 0.472036 -0.565996 0
M  V30 4586 H 432.197 0.606914 -1.80046 0
M  V30 4587 H 430.347 2.99463 -2.47495 0
M  V30 4588 H 432.019 1.27096 -4.43446 0
M  V30 4589 H 430.262 1.12832 -4.18869 0
M  V30 4590 H 430.933 2.61793 -4.85972 0
M  V30 4591 H 433.409 2.92672 -2.95774 0
M  V30 4592 H 432.285 4.16383 -3.57654 0
M  V30 4593 H 432.546 4.0173 -1.84568 0
M  V30 4594 N 431.605 1.3629 0.791371 0
M  V30 4595 C 432.853 1.30154 1.5461 0
M  V30 4596 C 433.174 -0.119409 1.94634 0
M  V30 4597 O 432.444 -1.05924 1.64794 0
M  V30 4598 H 431.024 0.478784 0.573389 0
M  V30 4599 H 433.686 1.70565 0.94306 0
M  V30 4600 H 432.782 1.92762 2.45457 0
M  V30 4601 N 433.083 -1.0153 1.20538 0
M  V30 4602 C 434.031 -2.12215 0.952235 0
M  V30 4603 C 435.025 -1.69123 -0.0968735 0
M  V30 4604 O 436.231 -1.7992 0.0536006 0
M  V30 4605 H 432.606 -0.693576 0.290613 0
M  V30 4606 H 434.577 -2.3075 1.89201 0
M  V30 4607 C 433.326 -3.43755 0.522287 0
M  V30 4608 H 432.649 -3.7734 1.32115 0
M  V30 4609 H 434.089 -4.22254 0.384389 0
M  V30 4610 C 432.548 -3.28088 -0.765489 0
M  V30 4611 O 433.078 -3.57921 -1.8236 0
M  V30 4612 N 431.284 -2.81333 -0.728011 0
M  V30 4613 H 430.831 -2.57255 0.133332 0
M  V30 4614 H 430.789 -2.71232 -1.58999 0
M  V30 4615 N 434.561 -1.01147 -1.20859 0
M  V30 4616 C 435.808 -0.697865 -1.90095 0
M  V30 4617 C 436.136 0.772014 -1.78522 0
M  V30 4618 O 435.391 1.57595 -1.16027 0
M  V30 4619 C 435.69 -1.0727 -3.40922 0
M  V30 4620 C 435.356 -2.53792 -3.72693 0
M  V30 4621 C 434.018 -2.93829 -3.81075 0
M  V30 4622 C 436.37 -3.48674 -3.87397 0
M  V30 4623 C 433.698 -4.27696 -4.01613 0
M  V30 4624 C 436.05 -4.82223 -4.09444 0
M  V30 4625 C 434.714 -5.21973 -4.16054 0
M  V30 4626 H 433.984 -0.255367 -0.695607 0
M  V30 4627 H 436.631 -1.27111 -1.43231 0
M  V30 4628 H 434.936 -0.417799 -3.89566 0
M  V30 4629 H 436.633 -0.807818 -3.92779 0
M  V30 4630 H 433.223 -2.21768 -3.66765 0
M  V30 4631 H 437.407 -3.18904 -3.80281 0
M  V30 4632 H 432.663 -4.58055 -4.04964 0
M  V30 4633 H 436.837 -5.55672 -4.19763 0
M  V30 4634 H 434.464 -6.25717 -4.31721 0
M  V30 4635 N 436.039 1.36541 -0.78704 0
M  V30 4636 C 437.455 1.52571 -0.46844 0
M  V30 4637 C 437.655 1.7415 1.01361 0
M  V30 4638 O 436.711 1.77163 1.79915 0
M  V30 4639 C 438.024 2.71299 -1.29682 0
M  V30 4640 C 439.572 2.85169 -1.29027 0
M  V30 4641 C 440.047 4.06898 -2.10233 0
M  V30 4642 N 441.538 4.1404 -2.07666 0
M  V30 4643 C 442.273 5.07301 -2.67271 0
M  V30 4644 N 441.769 6.06021 -3.35724 0
M  V30 4645 N 443.562 4.99898 -2.57018 0
M  V30 4646 H 435.713 1.20788 -1.74711 0
M  V30 4647 H 437.976 0.589364 -0.742532 0
M  V30 4648 H 437.682 2.61868 -2.34773 0
M  V30 4649 H 437.556 3.6539 -0.936479 0
M  V30 4650 H 439.943 2.94062 -0.247284 0
M  V30 4651 H 440.024 1.91992 -1.69035 0
M  V30 4652 H 439.668 3.98766 -3.1456 0
M  V30 4653 H 439.598 4.99218 -1.67597 0
M  V30 4654 H 442.089 3.43357 -1.57843 0
M  V30 4655 H 442.402 6.73741 -3.78541 0
M  V30 4656 H 440.747 6.06253 -3.39826 0
M  V30 4657 H 443.938 4.21724 -2.03142 0
M  V30 4658 H 444.111 5.72392 -3.03761 0
M  V30 4659 N 437.518 0.538854 1.48102 0
M  V30 4660 C 438.481 -0.208395 2.28251 0
M  V30 4661 C 439.481 -0.859656 1.35892 0
M  V30 4662 O 440.671 -0.71834 1.58699 0
M  V30 4663 C 437.803 -1.30252 3.15035 0
M  V30 4664 H 438.996 0.495407 2.9578 0
M  V30 4665 H 436.549 0.295112 1.53489 0
M  V30 4666 H 437.284 -2.0393 2.52157 0
M  V30 4667 H 437.069 -0.840551 3.82985 0
M  V30 4668 H 438.559 -1.82787 3.75471 0
M  V30 4669 N 438.996 -1.55193 0.274407 0
M  V30 4670 C 440.221 -2.04446 -0.348824 0
M  V30 4671 C 440.646 -1.15149 -1.48735 0
M  V30 4672 O 440.004 -0.149952 -1.80679 0
M  V30 4673 C 440.052 -3.51431 -0.808009 0
M  V30 4674 O 439.156 -3.65225 -1.91531 0
M  V30 4675 H 438.497 -0.66006 -0.0722276 0
M  V30 4676 H 441.027 -2.00481 0.408498 0
M  V30 4677 H 441.037 -3.92781 -1.10395 0
M  V30 4678 H 439.712 -4.15892 0.0249865 0
M  V30 4679 H 438.289 -3.35778 -1.62196 0
M  V30 4680 N 440.474 -0.00167713 -1.576 0
M  V30 4681 C 441.751 0.719951 -1.81868 0
M  V30 4682 C 442.131 1.91895 -0.879747 0
M  V30 4683 O 441.479 2.28389 0.0711423 0
M  V30 4684 C 441.689 1.12409 -3.30402 0
M  V30 4685 C 443.037 1.52724 -3.96182 0
M  V30 4686 O 444.061 1.21784 -3.34734 0
M  V30 4687 O 442.92 2.10265 -5.04431 0
M  V30 4688 H 440.014 0.350707 -0.748955 0
M  V30 4689 H 442.56 -0.0272597 -1.69678 0
M  V30 4690 H 441.332 0.269532 -3.90371 0
M  V30 4691 H 440.955 1.93035 -3.47596 0
M  V30 4692 N 441.952 1.55251 0.271103 0
M  V30 4693 C 442.9 1.89054 1.35504 0
M  V30 4694 C 443.894 0.767064 1.51038 0
M  V30 4695 O 445.1 0.951429 1.528 0
M  V30 4696 H 441.475 0.600072 0.45323 0
M  V30 4697 H 443.446 2.79598 1.04247 0
M  V30 4698 C 442.195 2.18068 2.70817 0
M  V30 4699 H 441.518 3.04005 2.59656 0
M  V30 4700 H 442.958 2.4564 3.45597 0
M  V30 4701 C 441.417 0.988901 3.2206 0
M  V30 4702 O 441.947 0.224501 4.01072 0
M  V30 4703 N 440.153 0.786085 2.79766 0
M  V30 4704 H 439.7 1.40937 2.15626 0
M  V30 4705 H 439.658 -0.00969349 3.14399 0
M  V30 4706 N 443.43 -0.535701 1.48216 0
M  V30 4707 C 444.707 -1.29683 1.46429 0
M  V30 4708 C 445.087 -2.10391 0.172852 0
M  V30 4709 O 444.435 -2.12282 -0.845488 0
M  V30 4710 C 444.645 -2.18313 2.72287 0
M  V30 4711 C 445.993 -2.78639 3.20383 0
M  V30 4712 O 447.017 -2.28604 2.73164 0
M  V30 4713 O 445.876 -3.69636 4.02531 0
M  V30 4714 H 442.97 -0.585026 0.584529 0
M  V30 4715 H 445.516 -0.552827 1.60443 0
M  V30 4716 H 444.288 -1.58421 3.57797 0
M  V30 4717 H 443.911 -2.99971 2.60966 0
M  V30 4718 N 444.908 -1.36708 -0.784132 0
M  V30 4719 C 446.324 -1.17237 -1.08294 0
M  V30 4720 C 446.524 -5.93947e-05 -2.015 0
M  V30 4721 O 445.58 0.663686 -2.43622 0
M  V30 4722 C 446.893 -2.48557 -1.69233 0
M  V30 4723 C 448.441 -2.54968 -1.8155 0
M  V30 4724 C 448.916 -3.86388 -2.45904 0
M  V30 4725 N 450.407 -3.87762 -2.53367 0
M  V30 4726 C 451.142 -4.86191 -3.03983 0
M  V30 4727 N 450.638 -5.95015 -3.54866 0
M  V30 4728 N 452.431 -4.73606 -3.02743 0
M  V30 4729 H 444.582 -2.11758 -0.16501 0
M  V30 4730 H 446.845 -0.93822 -0.135822 0
M  V30 4731 H 446.551 -3.34638 -1.08215 0
M  V30 4732 H 446.425 -2.64748 -2.68679 0
M  V30 4733 H 448.812 -1.69302 -2.41704 0
M  V30 4734 H 448.893 -2.42672 -0.80895 0
M  V30 4735 H 448.537 -4.72462 -1.86392 0
M  V30 4736 H 448.467 -3.95982 -3.4714 0
M  V30 4737 H 450.958 -3.09145 -2.17343 0
M  V30 4738 H 451.271 -6.66086 -3.91854 0
M  V30 4739 H 449.616 -5.98676 -3.53003 0
M  V30 4740 H 452.807 -3.87717 -2.62284 0
M  V30 4741 H 452.98 -5.50473 -3.41881 0
M  V30 4742 N 446.386 1.0089 -1.21074 0
M  V30 4743 C 447.632 1.74866 -1.02712 0
M  V30 4744 C 447.965 1.89178 0.438787 0
M  V30 4745 O 447.24 1.42325 1.32567 0
M  V30 4746 C 447.523 3.16347 -1.72036 0
M  V30 4747 C 447.376 3.09782 -3.26121 0
M  V30 4748 C 448.695 4.15187 -1.45973 0
M  V30 4749 H 445.814 0.634736 -0.374539 0
M  V30 4750 H 448.456 1.17646 -1.49196 0
M  V30 4751 H 446.606 3.65201 -1.32517 0
M  V30 4752 H 448.278 2.68673 -3.74983 0
M  V30 4753 H 446.521 2.46982 -3.56626 0
M  V30 4754 H 447.192 4.09829 -3.6979 0
M  V30 4755 H 449.668 3.75022 -1.80272 0
M  V30 4756 H 448.544 5.12331 -1.96999 0
M  V30 4757 H 448.805 4.40386 -0.388924 0
M  V30 4758 N 447.864 1.01787 1.20321 0
M  V30 4759 C 449.113 0.703249 1.89043 0
M  V30 4760 C 449.426 -0.770445 1.79787 0
M  V30 4761 O 450.632 -1.19767 2.43656 0
M  V30 4762 C 449.088 1.20749 3.3904 0
M  V30 4763 C 448.696 2.70817 3.56878 0
M  V30 4764 C 450.44 0.968352 4.13308 0
M  V30 4765 C 448.347 3.14716 5.00708 0
M  V30 4766 H 447.277 0.259354 0.707991 0
M  V30 4767 H 449.928 1.23072 1.36108 0
M  V30 4768 H 448.31 0.607989 3.91305 0
M  V30 4769 H 449.484 3.36327 3.14993 0
M  V30 4770 H 447.799 2.92888 2.95983 0
M  V30 4771 H 450.396 1.27173 5.19356 0
M  V30 4772 H 450.739 -0.095149 4.16191 0
M  V30 4773 H 451.272 1.53129 3.67146 0
M  V30 4774 H 448.011 4.20347 5.02979 0
M  V30 4775 H 447.531 2.53927 5.43398 0
M  V30 4776 H 449.21 3.07426 5.69296 0
M  V30 4777 N 449.342 -1.36122 0.79427 0
M  V30 4778 C 450.619 -1.93398 0.292685 0
M  V30 4779 C 450.999 -1.72567 -1.21589 0
M  V30 4780 O 450.347 -1.08745 -2.00965 0
M  V30 4781 C 450.557 -3.42099 0.690614 0
M  V30 4782 C 451.905 -4.19231 0.673105 0
M  V30 4783 O 452.929 -3.50559 0.631389 0
M  V30 4784 O 451.788 -5.41732 0.720362 0
M  V30 4785 H 448.882 -0.823712 0.0736693 0
M  V30 4786 H 451.428 -1.45273 0.87714 0
M  V30 4787 H 450.2 -3.50938 1.73085 0
M  V30 4788 H 449.823 -3.97519 0.0803036 0
M  V30 4789 N 450.82 -0.546701 -1.47814 0
M  V30 4790 C 452.231 -0.110564 -1.86372 0
M  V30 4791 C 452.582 1.31678 -1.45449 0
M  V30 4792 O 451.707 1.98889 -0.852758 0
M  V30 4793 C 452.302 -0.193873 -3.38245 0
M  V30 4794 C 450.861 0.187164 -3.75934 0
M  V30 4795 C 450.008 -0.546166 -2.71868 0
M  V30 4796 H 452.959 -0.757022 -1.39481 0
M  V30 4797 H 452.98 0.590218 -3.75895 0
M  V30 4798 H 452.492 -1.23282 -3.67999 0
M  V30 4799 H 450.593 1.22762 -3.51796 0
M  V30 4800 H 450.706 -0.164083 -4.78819 0
M  V30 4801 H 449.07 0.00953904 -2.54698 0
M  V30 4802 H 449.853 -1.58606 -3.04465 0
M  V30 4803 N 452.299 1.55045 -0.282633 0
M  V30 4804 C 453.547 1.99365 0.331334 0
M  V30 4805 C 453.868 1.1725 1.55812 0
M  V30 4806 O 453.138 0.263871 1.94115 0
M  V30 4807 H 451.718 0.736397 0.125414 0
M  V30 4808 H 454.38 1.90964 -0.389711 0
M  V30 4809 H 453.476 3.0596 0.616036 0
M  V30 4810 N 453.777 0.010035 1.57597 0
M  V30 4811 C 454.724 -0.978122 2.09049 0
M  V30 4812 C 455.694 -1.33509 0.988159 0
M  V30 4813 O 456.879 -1.43172 1.26121 0
M  V30 4814 C 454.019 -2.26158 2.60666 0
M  V30 4815 C 453.132 -1.96275 3.84838 0
M  V30 4816 C 452.267 -3.18776 4.24918 0
M  V30 4817 C 451.306 -2.84625 5.41899 0
M  V30 4818 N 450.443 -3.99693 5.77226 0
M  V30 4819 H 455.283 -0.532431 2.93205 0
M  V30 4820 H 452.82 -0.251234 1.44939 0
M  V30 4821 H 454.778 -3.01202 2.88675 0
M  V30 4822 H 453.408 -2.68378 1.79369 0
M  V30 4823 H 452.46 -1.11555 3.63675 0
M  V30 4824 H 453.772 -1.67111 4.69974 0
M  V30 4825 H 452.926 -4.02157 4.54262 0
M  V30 4826 H 451.665 -3.51087 3.38511 0
M  V30 4827 H 450.67 -1.99653 5.12268 0
M  V30 4828 H 451.895 -2.53551 6.29991 0
M  V30 4829 H 449.841 -4.31882 4.93776 0
M  V30 4830 H 449.758 -3.74087 6.56959 0
M  V30 4831 H 451.026 -4.83834 6.11167 0
M  V30 4832 N 455.255 -1.55392 -0.262866 0
M  V30 4833 C 456.501 -1.76737 -0.99458 0
M  V30 4834 C 456.834 -0.572453 -1.85571 0
M  V30 4835 O 456.109 0.429732 -1.89693 0
M  V30 4836 C 456.392 -3.07824 -1.8686 0
M  V30 4837 C 456.245 -4.3769 -1.03672 0
M  V30 4838 C 457.564 -3.35021 -2.85393 0
M  V30 4839 H 454.683 -0.643005 -0.360157 0
M  V30 4840 H 457.325 -1.88126 -0.266216 0
M  V30 4841 H 455.475 -2.98245 -2.48962 0
M  V30 4842 H 457.147 -4.59238 -0.43563 0
M  V30 4843 H 455.39 -4.32461 -0.340513 0
M  V30 4844 H 456.061 -5.25759 -1.6817 0
M  V30 4845 H 458.537 -3.44458 -2.33426 0
M  V30 4846 H 457.413 -4.27989 -3.43681 0
M  V30 4847 H 457.674 -2.55153 -3.61039 0
M  V30 4848 N 456.733 0.527833 -1.48498 0
M  V30 4849 C 457.643 1.65907 -1.65867 0
M  V30 4850 C 458.659 1.6537 -0.541192 0
M  V30 4851 O 459.835 1.84282 -0.812534 0
M  V30 4852 C 456.9 3.02364 -1.69637 0
M  V30 4853 C 455.961 3.1374 -2.93028 0
M  V30 4854 C 455.194 4.43688 -2.96609 0
M  V30 4855 O 455.417 5.30913 -2.08538 0
M  V30 4856 O 454.351 4.59475 -3.88802 0
M  V30 4857 H 458.177 1.5419 -2.61647 0
M  V30 4858 H 455.762 0.701163 -1.31924 0
M  V30 4859 H 457.644 3.83515 -1.74625 0
M  V30 4860 H 456.319 3.14401 -0.770312 0
M  V30 4861 H 455.226 2.31877 -2.93571 0
M  V30 4862 H 456.559 3.06621 -3.85026 0
M  V30 4863 N 458.211 1.37122 0.776871 0
M  V30 4864 C 459.439 1.3523 1.5659 0
M  V30 4865 C 459.854 -0.0635518 1.88693 0
M  V30 4866 O 459.211 -1.02394 1.51069 0
M  V30 4867 C 459.262 2.18583 2.8793 0
M  V30 4868 O 458.983 3.5465 2.57206 0
M  V30 4869 C 460.484 2.24612 3.82183 0
M  V30 4870 H 457.704 0.4634 0.485285 0
M  V30 4871 H 460.248 1.80392 0.963266 0
M  V30 4872 H 458.403 1.76943 3.4463 0
M  V30 4873 H 458.817 3.98286 3.41275 0
M  V30 4874 H 460.291 2.87267 4.71361 0
M  V30 4875 H 460.768 1.25309 4.20944 0
M  V30 4876 H 461.374 2.66543 3.31414 0
M  V30 4877 N 459.689 -1.00246 1.21608 0
M  V30 4878 C 460.619 -2.10921 1.00172 0
M  V30 4879 C 461.6 -1.69938 -0.0741587 0
M  V30 4880 O 462.785 -1.94009 0.0861753 0
M  V30 4881 C 459.915 -3.42618 0.568355 0
M  V30 4882 C 458.869 -3.97407 1.58909 0
M  V30 4883 C 458.195 -5.25038 1.01187 0
M  V30 4884 C 459.495 -4.2918 2.97661 0
M  V30 4885 H 461.189 -2.29112 1.92739 0
M  V30 4886 H 458.735 -1.10101 0.928102 0
M  V30 4887 H 460.688 -4.19444 0.405555 0
M  V30 4888 H 459.412 -3.24227 -0.392961 0
M  V30 4889 H 458.071 -3.22703 1.73949 0
M  V30 4890 H 457.719 -5.02982 0.0421965 0
M  V30 4891 H 457.419 -5.62661 1.6937 0
M  V30 4892 H 458.943 -6.04507 0.860448 0
M  V30 4893 H 460.357 -4.96839 2.86049 0
M  V30 4894 H 458.754 -4.77952 3.6288 0
M  V30 4895 H 459.824 -3.3735 3.48315 0
M  V30 4896 N 461.167 -1.02423 -1.1978 0
M  V30 4897 C 462.395 -0.737456 -1.93311 0
M  V30 4898 C 462.81 0.703023 -1.75223 0
M  V30 4899 O 462.167 1.47761 -1.07112 0
M  V30 4900 C 462.218 -1.0733 -3.45199 0
M  V30 4901 O 461.939 -2.4572 -3.62702 0
M  V30 4902 C 463.44 -0.80866 -4.35862 0
M  V30 4903 H 460.66 -0.2702 -0.614193 0
M  V30 4904 H 463.204 -1.36747 -1.52054 0
M  V30 4905 H 461.359 -0.488545 -3.84307 0
M  V30 4906 H 461.773 -2.58081 -4.56612 0
M  V30 4907 H 463.247 -1.09365 -5.41057 0
M  V30 4908 H 463.724 0.257025 -4.38447 0
M  V30 4909 H 464.33 -1.37592 -4.02428 0
M  V30 4910 N 462.645 1.35699 -0.801477 0
M  V30 4911 C 463.894 1.98165 -0.375979 0
M  V30 4912 C 464.207 1.64306 1.06127 0
M  V30 4913 O 465.413 2.20097 1.58964 0
M  V30 4914 C 463.869 3.54497 -0.621305 0
M  V30 4915 C 463.477 3.9727 -2.07076 0
M  V30 4916 C 465.221 4.23697 -0.26091 0
M  V30 4917 C 463.128 5.46427 -2.26211 0
M  V30 4918 H 462.058 0.741478 -0.136844 0
M  V30 4919 H 464.709 1.54834 -0.984814 0
M  V30 4920 H 463.091 3.95958 0.0574112 0
M  V30 4921 H 464.265 3.66974 -2.78687 0
M  V30 4922 H 462.58 3.40943 -2.39054 0
M  V30 4923 H 465.177 5.33334 -0.381994 0
M  V30 4924 H 465.52 4.0869 0.792344 0
M  V30 4925 H 466.053 3.87639 -0.893339 0
M  V30 4926 H 462.792 5.66396 -3.29963 0
M  V30 4927 H 462.312 5.78309 -1.59119 0
M  V30 4928 H 463.991 6.12819 -2.07513 0
M  V30 4929 N 464.123 0.554532 1.47522 0
M  V30 4930 C 465.539 0.214107 1.58157 0
M  V30 4931 C 465.739 -1.28331 1.55349 0
M  V30 4932 O 464.795 -2.06329 1.45549 0
M  V30 4933 C 466.108 0.838391 2.88776 0
M  V30 4934 C 467.656 0.809374 3.02354 0
M  V30 4935 C 468.131 1.41268 4.35669 0
M  V30 4936 N 469.622 1.37574 4.42298 0
M  V30 4937 C 470.357 1.8122 5.4401 0
M  V30 4938 N 469.853 2.3271 6.52547 0
M  V30 4939 N 471.646 1.72307 5.35039 0
M  V30 4940 H 463.797 1.52744 1.4759 0
M  V30 4941 H 466.06 0.636812 0.702264 0
M  V30 4942 H 465.766 1.89065 2.96559 0
M  V30 4943 H 465.64 0.329847 3.75755 0
M  V30 4944 H 468.027 -0.234187 2.94169 0
M  V30 4945 H 468.108 1.35565 2.16924 0
M  V30 4946 H 467.752 2.45529 4.4461 0
M  V30 4947 H 467.682 0.841871 5.19827 0
M  V30 4948 H 470.173 0.999081 3.64454 0
M  V30 4949 H 470.486 2.63944 7.26329 0
M  V30 4950 H 468.831 2.36719 6.53444 0
M  V30 4951 H 472.022 1.3186 4.49144 0
M  V30 4952 H 472.195 2.06641 6.14169 0
M  V30 4953 N 465.601 -1.54893 0.290851 0
M  V30 4954 C 467.017 -1.59476 -0.0628432 0
M  V30 4955 C 467.217 -1.30795 -1.5328 0
M  V30 4956 O 466.273 -1.07644 -2.28406 0
M  V30 4957 C 467.586 -2.98928 0.325962 0
M  V30 4958 C 469.134 -3.11799 0.273882 0
M  V30 4959 C 469.609 -4.53544 0.637359 0
M  V30 4960 N 471.1 -4.59433 0.589507 0
M  V30 4961 C 471.835 -5.67164 0.84335 0
M  V30 4962 N 471.331 -6.82975 1.16263 0
M  V30 4963 N 473.124 -5.56786 0.771091 0
M  V30 4964 H 465.275 -1.71798 1.24896 0
M  V30 4965 H 467.538 -0.801879 0.505663 0
M  V30 4966 H 467.244 -3.24805 1.34887 0
M  V30 4967 H 467.118 -3.75793 -0.325441 0
M  V30 4968 H 469.505 -2.85677 -0.739765 0
M  V30 4969 H 469.586 -2.37112 0.959766 0
M  V30 4970 H 469.23 -4.80394 1.64877 0
M  V30 4971 H 469.16 -5.26553 -0.0704866 0
M  V30 4972 H 471.651 -3.76245 0.353252 0
M  V30 4973 H 471.964 -7.61048 1.34257 0
M  V30 4974 H 470.309 -6.84552 1.20057 0
M  V30 4975 H 473.5 -4.65187 0.521383 0
M  V30 4976 H 473.673 -6.40664 0.972295 0
M  V30 4977 N 467.08 -0.0183926 -1.57589 0
M  V30 4978 C 468.01 0.965596 -2.12599 0
M  V30 4979 C 468.991 1.34641 -1.0395 0
M  V30 4980 O 470.176 1.42693 -1.31729 0
M  V30 4981 C 467.306 2.25149 -2.64434 0
M  V30 4982 C 466.26 2.01175 -3.77773 0
M  V30 4983 C 465.586 3.35937 -4.15994 0
M  V30 4984 C 466.886 1.35953 -5.04296 0
M  V30 4985 H 468.58 0.507504 -2.95067 0
M  V30 4986 H 466.126 0.242671 -1.41941 0
M  V30 4987 H 468.079 2.94357 -3.01549 0
M  V30 4988 H 466.803 2.73105 -1.79112 0
M  V30 4989 H 465.462 1.34388 -3.4108 0
M  V30 4990 H 465.11 3.81631 -3.27669 0
M  V30 4991 H 464.81 3.20705 -4.92364 0
M  V30 4992 H 466.334 4.0643 -4.55683 0
M  V30 4993 H 467.748 1.95144 -5.39065 0
M  V30 4994 H 466.145 1.31152 -5.85593 0
M  V30 4995 H 467.215 0.331071 -4.83768 0
M  V30 4996 N 468.558 1.5553 0.254621 0
M  V30 4997 C 469.508 1.86057 1.31783 0
M  V30 4998 C 470.492 0.720827 1.4385 0
M  V30 4999 O 471.684 0.982586 1.47222 0
M  V30 5000 C 468.813 2.15203 2.67475 0
M  V30 5001 C 467.899 3.35484 2.59444 0
M  V30 5002 N 468.29 4.54945 2.2104 0
M  V30 5003 C 466.588 3.38441 2.90472 0
M  V30 5004 C 467.289 5.3707 2.23453 0
M  V30 5005 N 466.265 4.75936 2.62652 0
M  V30 5006 H 470.067 2.75953 1.01129 0
M  V30 5007 H 467.581 1.55653 0.463255 0
M  V30 5008 H 469.578 2.35235 3.44195 0
M  V30 5009 H 468.238 1.26601 2.99002 0
M  V30 5010 H 469.249 4.8071 1.92712 0
M  V30 5011 H 465.926 2.60087 3.2659 0
M  V30 5012 H 467.316 6.42626 1.96166 0
M  V30 5013 N 470.036 -0.519951 1.48776 0
M  V30 5014 C 471.285 -1.27175 1.56555 0
M  V30 5015 C 471.598 -1.9401 0.248869 0
M  V30 5016 O 472.804 -2.70725 0.205004 0
M  V30 5017 C 471.26 -2.30811 2.76142 0
M  V30 5018 C 470.868 -1.7 4.14493 0
M  V30 5019 C 472.612 -3.06937 2.9324 0
M  V30 5020 C 470.519 -2.71635 5.25327 0
M  V30 5021 H 469.449 -0.478329 0.582853 0
M  V30 5022 H 472.1 -0.547916 1.75129 0
M  V30 5023 H 470.482 -3.06274 2.51023 0
M  V30 5024 H 471.656 -1.00658 4.49672 0
M  V30 5025 H 469.971 -1.06331 4.02595 0
M  V30 5026 H 472.568 -3.82905 3.73213 0
M  V30 5027 H 472.911 -3.63409 2.03075 0
M  V30 5028 H 473.444 -2.38589 3.18308 0
M  V30 5029 H 470.183 -2.1997 6.1749 0
M  V30 5030 H 469.703 -3.39275 4.94624 0
M  V30 5031 H 471.382 -3.34429 5.53865 0
M  V30 5032 N 471.514 -1.37532 -0.769588 0
M  V30 5033 C 472.925 -1.29382 -1.346 0
M  V30 5034 C 473.276 0.0576039 -1.96115 0
M  V30 5035 O 472.401 0.95947 -1.93967 0
M  V30 5036 C 472.996 -2.34298 -2.44724 0
M  V30 5037 C 471.555 -2.29776 -2.98128 0
M  V30 5038 C 470.702 -2.18013 -1.71364 0
M  V30 5039 H 473.653 -1.48123 -0.56968 0
M  V30 5040 H 473.674 -1.99089 -3.24259 0
M  V30 5041 H 473.186 -3.32645 -1.99922 0
M  V30 5042 H 471.287 -1.34959 -3.47299 0
M  V30 5043 H 471.4 -3.23276 -3.53595 0
M  V30 5044 H 469.764 -1.64595 -1.94372 0
M  V30 5045 H 470.547 -3.18278 -1.28662 0
M  V30 5046 N 472.992 0.995999 -1.22138 0
M  V30 5047 C 474.408 1.25917 -0.980667 0
M  V30 5048 C 474.608 1.98819 0.327604 0
M  V30 5049 O 473.664 2.29587 1.05101 0
M  V30 5050 C 474.977 2.07399 -2.17729 0
M  V30 5051 C 476.525 2.20594 -2.22052 0
M  V30 5052 C 477 3.05462 -3.41258 0
M  V30 5053 N 478.491 3.13049 -3.41401 0
M  V30 5054 C 479.226 3.78997 -4.30289 0
M  V30 5055 N 478.722 4.46899 -5.2939 0
M  V30 5056 N 480.515 3.75728 -4.18073 0
M  V30 5057 H 472.666 0.507158 -2.06256 0
M  V30 5058 H 474.929 0.28658 -0.903646 0
M  V30 5059 H 474.635 1.61191 -3.12586 0
M  V30 5060 H 474.509 3.08154 -2.17534 0
M  V30 5061 H 476.896 2.66017 -1.27745 0
M  V30 5062 H 476.977 1.1928 -2.26287 0
M  V30 5063 H 476.621 2.60739 -4.35864 0
M  V30 5064 H 476.551 4.06911 -3.34262 0
M  V30 5065 H 479.042 2.64721 -2.69688 0
M  V30 5066 H 479.355 4.94952 -5.935 0
M  V30 5067 H 477.7 4.45657 -5.33306 0
M  V30 5068 H 480.891 3.2184 -3.39907 0
M  V30 5069 H 481.064 4.26845 -4.87553 0
M  V30 5070 N 474.47 1.03057 1.19235 0
M  V30 5071 C 475.717 0.728019 1.88961 0
M  V30 5072 C 476.045 -0.743515 1.79728 0
M  V30 5073 O 475.3 -1.55729 1.1852 0
M  V30 5074 C 475.599 1.1268 3.39172 0
M  V30 5075 C 475.265 2.5969 3.68608 0
M  V30 5076 C 473.927 2.99854 3.76352 0
M  V30 5077 C 476.279 3.54793 3.81801 0
M  V30 5078 C 473.607 4.34031 3.94758 0
M  V30 5079 C 475.959 4.88675 4.0172 0
M  V30 5080 C 474.623 5.28526 4.07697 0
M  V30 5081 H 473.893 0.266401 0.691456 0
M  V30 5082 H 476.54 1.29373 1.41191 0
M  V30 5083 H 474.845 0.479722 3.88852 0
M  V30 5084 H 476.542 0.870203 3.91444 0
M  V30 5085 H 473.132 2.27575 3.63191 0
M  V30 5086 H 477.316 3.24914 3.7516 0
M  V30 5087 H 472.572 4.6444 3.97625 0
M  V30 5088 H 476.746 5.6228 4.1087 0
M  V30 5089 H 474.373 6.32506 4.21712 0
M  V30 5090 N 475.948 -1.35272 0.808662 0
M  V30 5091 C 477.178 -2.02652 0.401953 0
M  V30 5092 C 477.586 -1.6108 -0.992462 0
M  V30 5093 O 476.929 -0.804984 -1.65123 0
M  V30 5094 C 476.991 -3.57174 0.408246 0
M  V30 5095 C 476.655 -4.22019 1.75353 0
M  V30 5096 C 477.652 -4.43552 2.71215 0
M  V30 5097 C 475.337 -4.59093 2.03811 0
M  V30 5098 C 477.331 -5.01264 3.93717 0
M  V30 5099 C 475.018 -5.16519 3.26576 0
M  V30 5100 C 476.016 -5.37546 4.21347 0
M  V30 5101 O 475.704 -5.93761 5.41944 0
M  V30 5102 H 475.436 -0.656495 0.161216 0
M  V30 5103 H 477.99 -1.73829 1.0942 0
M  V30 5104 H 476.22 -3.85197 -0.340608 0
M  V30 5105 H 477.909 -4.05893 0.0235623 0
M  V30 5106 H 478.675 -4.15288 2.50522 0
M  V30 5107 H 474.554 -4.42039 1.30854 0
M  V30 5108 H 478.098 -5.17592 4.67701 0
M  V30 5109 H 473.995 -5.4421 3.47139 0
M  V30 5110 H 474.763 -6.1221 5.43269 0
M  V30 5111 N 477.426 -0.562348 -1.47226 0
M  V30 5112 C 478.356 0.170627 -2.32876 0
M  V30 5113 C 479.337 0.903748 -1.44106 0
M  V30 5114 O 480.522 0.883206 -1.72954 0
M  V30 5115 C 477.652 1.19786 -3.25989 0
M  V30 5116 C 476.606 0.580875 -4.2404 0
M  V30 5117 C 475.932 1.71311 -5.06514 0
M  V30 5118 C 477.232 -0.468714 -5.20193 0
M  V30 5119 H 478.926 -0.544441 -2.94408 0
M  V30 5120 H 476.472 -0.263271 -1.41573 0
M  V30 5121 H 478.425 1.71884 -3.84752 0
M  V30 5122 H 477.149 1.94294 -2.62521 0
M  V30 5123 H 475.808 0.0811538 -3.6651 0
M  V30 5124 H 475.456 2.44736 -4.39447 0
M  V30 5125 H 475.156 1.30604 -5.72902 0
M  V30 5126 H 476.68 2.23725 -5.68137 0
M  V30 5127 H 478.094 -0.0336028 -5.7329 0
M  V30 5128 H 476.491 -0.794957 -5.94811 0
M  V30 5129 H 477.561 -1.36269 -4.65359 0
M  V30 5130 N 478.904 1.54736 -0.299062 0
M  V30 5131 C 480.151 2.00101 0.310784 0
M  V30 5132 C 480.479 1.18746 1.54045 0
M  V30 5133 O 479.734 0.251198 1.94081 0
M  V30 5134 C 480.033 3.50199 0.713835 0
M  V30 5135 C 479.699 4.48997 -0.413873 0
M  V30 5136 C 478.361 4.7573 -0.723462 0
M  V30 5137 C 480.713 5.07839 -1.17257 0
M  V30 5138 C 478.041 5.5857 -1.79491 0
M  V30 5139 C 480.393 5.91844 -2.23392 0
M  V30 5140 C 479.057 6.16889 -2.54959 0
M  V30 5141 H 478.327 0.732221 0.113724 0
M  V30 5142 H 480.974 1.86888 -0.417756 0
M  V30 5143 H 479.279 3.61012 1.52243 0
M  V30 5144 H 480.976 3.82723 1.19684 0
M  V30 5145 H 477.566 4.28292 -0.162476 0
M  V30 5146 H 481.75 4.87188 -0.946651 0
M  V30 5147 H 477.006 5.76213 -2.04423 0
M  V30 5148 H 481.18 6.36465 -2.8264 0
M  V30 5149 H 478.807 6.80869 -3.38114 0
M  V30 5150 N 480.382 0.0267497 1.57577 0
M  V30 5151 C 481.612 -0.6617 1.95717 0
M  V30 5152 C 482.02 -1.66331 0.901706 0
M  V30 5153 O 481.363 -1.83273 -0.125241 0
M  V30 5154 C 481.425 -1.42649 3.29987 0
M  V30 5155 C 481.089 -0.583482 4.5326 0
M  V30 5156 C 482.086 0.140221 5.19711 0
M  V30 5157 C 479.771 -0.521581 4.99585 0
M  V30 5158 C 481.765 0.914523 6.30805 0
M  V30 5159 C 479.452 0.256428 6.10562 0
M  V30 5160 C 480.45 0.973189 6.76031 0
M  V30 5161 O 480.138 1.73845 7.84878 0
M  V30 5162 H 479.87 -0.187483 0.649481 0
M  V30 5163 H 482.424 0.0820847 2.05236 0
M  V30 5164 H 480.654 -2.21536 3.16952 0
M  V30 5165 H 482.343 -2.00282 3.53047 0
M  V30 5166 H 483.109 0.101716 4.84893 0
M  V30 5167 H 478.988 -1.06904 4.48433 0
M  V30 5168 H 482.532 1.4745 6.81839 0
M  V30 5169 H 478.429 0.296657 6.44818 0
M  V30 5170 H 479.197 1.65797 8.01532 0
M  V30 5171 N 481.861 -1.55662 -0.24637 0
M  V30 5172 C 483.138 -1.68272 -0.997198 0
M  V30 5173 C 483.518 -0.566785 -2.03349 0
M  V30 5174 O 482.866 0.429688 -2.24424 0
M  V30 5175 C 483.076 -3.08594 -1.63006 0
M  V30 5176 C 484.424 -3.6721 -2.13171 0
M  V30 5177 O 485.448 -3.11397 -1.72946 0
M  V30 5178 O 484.307 -4.65054 -2.87031 0
M  V30 5179 H 481.401 -0.684429 -0.464205 0
M  V30 5180 H 483.947 -1.67993 -0.240114 0
M  V30 5181 H 482.719 -3.81264 -0.880527 0
M  V30 5182 H 482.342 -3.12886 -2.45333 0
M  V30 5183 N 483.339 0.512053 -1.4905 0
M  V30 5184 C 484.269 1.62365 -1.67809 0
M  V30 5185 C 485.25 1.61737 -0.526809 0
M  V30 5186 O 486.435 1.78651 -0.761404 0
M  V30 5187 C 483.565 3.00895 -1.73435 0
M  V30 5188 C 482.519 3.16387 -2.88242 0
M  V30 5189 C 481.845 4.56157 -2.78971 0
M  V30 5190 C 483.145 2.97457 -4.29321 0
M  V30 5191 H 484.839 1.46921 -2.60873 0
M  V30 5192 H 482.385 0.705379 -1.2554 0
M  V30 5193 H 484.338 3.78549 -1.85145 0
M  V30 5194 H 483.062 3.17403 -0.769619 0
M  V30 5195 H 481.721 2.41155 -2.76116 0
M  V30 5196 H 481.369 4.69525 -1.8043 0
M  V30 5197 H 481.069 4.67465 -3.5602 0
M  V30 5198 H 482.593 5.35886 -2.92675 0
M  V30 5199 H 484.007 3.64888 -4.42187 0
M  V30 5200 H 482.404 3.20245 -5.07507 0
M  V30 5201 H 483.474 1.93692 -4.44535 0
M  V30 5202 N 484.817 1.37938 0.762283 0
M  V30 5203 C 486.042 1.37059 1.55659 0
M  V30 5204 C 486.467 -0.0396123 1.88058 0
M  V30 5205 O 485.825 -1.01929 1.49934 0
M  V30 5206 C 485.873 2.22494 2.83776 0
M  V30 5207 O 484.977 1.63607 3.78559 0
M  V30 5208 H 484.318 0.467892 0.47114 0
M  V30 5209 H 486.848 1.81587 0.942725 0
M  V30 5210 H 486.858 2.36045 3.32786 0
M  V30 5211 H 485.533 3.24993 2.59524 0
M  V30 5212 H 484.11 1.5915 3.37233 0
M  V30 5213 N 486.295 -0.989507 1.22664 0
M  V30 5214 C 487.523 -1.76496 1.07967 0
M  V30 5215 C 487.938 -1.85148 -0.369543 0
M  V30 5216 O 487.295 -1.32408 -1.25596 0
M  V30 5217 C 487.346 -3.19642 1.68853 0
M  V30 5218 O 487.067 -3.11453 3.08105 0
M  V30 5219 C 488.568 -4.13621 1.59475 0
M  V30 5220 H 485.788 -0.55418 0.378319 0
M  V30 5221 H 488.332 -1.24378 1.62328 0
M  V30 5222 H 486.487 -3.68816 1.18547 0
M  V30 5223 H 486.901 -4.01499 3.37489 0
M  V30 5224 H 488.375 -5.11801 2.06795 0
M  V30 5225 H 488.852 -4.35718 0.55191 0
M  V30 5226 H 489.458 -3.70346 2.09103 0
M  V30 5227 N 487.773 -1.03688 -1.18687 0
M  V30 5228 C 488.703 -0.645407 -2.24403 0
M  V30 5229 C 489.684 0.349511 -1.66471 0
M  V30 5230 O 490.869 0.230453 -1.92828 0
M  V30 5231 C 487.999 -0.00365337 -3.473 0
M  V30 5232 C 486.953 -0.921705 -4.17958 0
M  V30 5233 C 486.279 -0.144629 -5.34504 0
M  V30 5234 C 487.579 -2.23909 -4.71871 0
M  V30 5235 H 489.273 -1.52917 -2.57404 0
M  V30 5236 H 486.819 -0.736711 -1.23728 0
M  V30 5237 H 488.772 0.281908 -4.20456 0
M  V30 5238 H 487.496 0.914963 -3.13522 0
M  V30 5239 H 486.155 -1.19159 -3.46694 0
M  V30 5240 H 485.803 0.776274 -4.96974 0
M  V30 5241 H 485.503 -0.756206 -5.82714 0
M  V30 5242 H 487.027 0.134004 -6.10453 0
M  V30 5243 H 488.441 -2.0145 -5.36741 0
M  V30 5244 H 486.838 -2.8033 -5.30599 0
M  V30 5245 H 487.908 -2.88822 -3.895 0
M  V30 5246 N 489.251 1.34841 -0.815825 0
M  V30 5247 C 490.481 2.02436 -0.412695 0
M  V30 5248 C 490.889 1.61604 0.983906 0
M  V30 5249 O 490.232 0.813729 1.64694 0
M  V30 5250 C 490.294 3.56953 -0.427182 0
M  V30 5251 C 489.958 4.21083 -1.77589 0
M  V30 5252 C 490.955 4.42107 -2.73564 0
M  V30 5253 C 488.64 4.58006 -2.06243 0
M  V30 5254 C 490.634 4.99169 -3.9637 0
M  V30 5255 C 488.321 5.1478 -3.2931 0
M  V30 5256 C 489.319 5.35304 -4.24191 0
M  V30 5257 O 489.007 5.90878 -5.45086 0
M  V30 5258 H 488.739 0.655631 -0.164695 0
M  V30 5259 H 491.293 1.73246 -1.1034 0
M  V30 5260 H 489.523 3.85372 0.320175 0
M  V30 5261 H 491.212 4.05875 -0.0450875 0
M  V30 5262 H 491.978 4.13953 -2.52721 0
M  V30 5263 H 487.857 4.41339 -1.33196 0
M  V30 5264 H 491.401 5.15105 -4.70439 0
M  V30 5265 H 487.298 5.42362 -3.5002 0
M  V30 5266 H 488.066 6.0932 -5.46508 0
M  V30 5267 N 490.729 0.570148 1.46925 0
M  V30 5268 C 491.954 0.0542592 2.07329 0
M  V30 5269 C 492.379 -1.23582 1.41806 0
M  V30 5270 O 491.737 -1.74341 0.497479 0
M  V30 5271 C 491.785 -0.111175 3.60429 0
M  V30 5272 O 490.889 -1.17071 3.95434 0
M  V30 5273 H 490.23 0.0571425 0.661537 0
M  V30 5274 H 492.76 0.789516 1.88753 0
M  V30 5275 H 492.77 -0.321315 4.06733 0
M  V30 5276 H 491.445 0.831012 4.07513 0
M  V30 5277 H 490.022 -0.940029 3.60857 0
M  V30 5278 N 492.207 -1.54576 0.307264 0
M  V30 5279 C 493.137 -2.26708 -0.55907 0
M  V30 5280 C 494.118 -1.26893 -1.1328 0
M  V30 5281 O 495.303 -1.55677 -1.16097 0
M  V30 5282 C 492.433 -3.01259 -1.72801 0
M  V30 5283 C 491.387 -4.08275 -1.28435 0
M  V30 5284 C 490.713 -4.70575 -2.53895 0
M  V30 5285 C 492.013 -5.2068 -0.411038 0
M  V30 5286 H 493.707 -2.9937 0.042576 0
M  V30 5287 H 491.253 -1.43983 0.0219173 0
M  V30 5288 H 493.206 -3.50444 -2.34023 0
M  V30 5289 H 491.93 -2.26187 -2.356 0
M  V30 5290 H 490.589 -3.59949 -0.695161 0
M  V30 5291 H 490.237 -3.92136 -3.15021 0
M  V30 5292 H 489.937 -5.42854 -2.24908 0
M  V30 5293 H 491.461 -5.22527 -3.15908 0
M  V30 5294 H 492.875 -5.65721 -0.929097 0
M  V30 5295 H 491.272 -5.99716 -0.214664 0
M  V30 5296 H 492.342 -4.81629 0.562287 0
M  V30 5297 N 493.685 -0.035106 -1.57561 0
M  V30 5298 C 494.913 0.652258 -1.9635 0
M  V30 5299 C 495.328 1.65317 -0.911897 0
M  V30 5300 O 494.685 1.82194 0.105657 0
M  V30 5301 C 494.736 1.35337 -3.35211 0
M  V30 5302 O 494.457 0.392548 -4.36338 0
M  V30 5303 C 495.958 2.13199 -3.88666 0
M  V30 5304 H 493.178 0.179444 -0.646561 0
M  V30 5305 H 495.722 -0.0966459 -2.04271 0
M  V30 5306 H 493.877 2.05362 -3.28489 0
M  V30 5307 H 494.291 0.891097 -5.16875 0
M  V30 5308 H 495.765 2.577 -4.88154 0
M  V30 5309 H 496.242 2.97353 -3.23231 0
M  V30 5310 H 496.848 1.48118 -3.98674 0
M  V30 5311 N 495.163 1.55791 0.238111 0
M  V30 5312 C 496.073 1.94196 1.31625 0
M  V30 5313 C 497.089 0.843545 1.52185 0
M  V30 5314 O 498.265 1.1457 1.65637 0
M  V30 5315 C 495.33 2.2365 2.64918 0
M  V30 5316 C 494.391 3.46971 2.52804 0
M  V30 5317 C 493.624 3.7501 3.79741 0
M  V30 5318 O 493.847 3.04982 4.82019 0
M  V30 5319 O 492.781 4.68525 3.77846 0
M  V30 5320 H 496.607 2.86044 1.02043 0
M  V30 5321 H 494.192 1.42786 0.439603 0
M  V30 5322 H 496.074 2.43863 3.4367 0
M  V30 5323 H 494.749 1.34979 2.94215 0
M  V30 5324 H 493.656 3.32055 1.72309 0
M  V30 5325 H 494.989 4.35971 2.28451 0
M  V30 5326 N 496.642 -0.504142 1.49319 0
M  V30 5327 C 498.058 -0.835039 1.36012 0
M  V30 5328 C 498.258 -1.97674 0.390808 0
M  V30 5329 O 497.314 -2.51867 -0.178655 0
M  V30 5330 C 498.627 -1.17821 2.76656 0
M  V30 5331 C 500.175 -1.2866 2.85334 0
M  V30 5332 C 500.65 -1.66307 4.26739 0
M  V30 5333 N 502.141 -1.73362 4.29534 0
M  V30 5334 C 502.876 -2.0393 5.35911 0
M  V30 5335 N 502.372 -2.32744 6.52535 0
M  V30 5336 N 504.165 -2.05155 5.23324 0
M  V30 5337 H 496.316 0.248764 2.10938 0
M  V30 5338 H 498.579 0.0486962 0.946748 0
M  V30 5339 H 498.285 -0.412682 3.4927 0
M  V30 5340 H 498.159 -2.12239 3.11825 0
M  V30 5341 H 500.546 -2.04285 2.1296 0
M  V30 5342 H 500.627 -0.323004 2.53752 0
M  V30 5343 H 500.271 -0.91234 4.99639 0
M  V30 5344 H 500.201 -2.63761 4.55782 0
M  V30 5345 H 502.692 -1.53268 3.45424 0
M  V30 5346 H 503.005 -2.55248 7.2943 0
M  V30 5347 H 501.35 -2.30207 6.55767 0
M  V30 5348 H 504.541 -1.82119 4.3122 0
M  V30 5349 H 504.714 -2.28644 6.06322 0
M  V30 5350 N 498.12 -1.38341 -0.754957 0
M  V30 5351 C 499.366 -1.34672 -1.51628 0
M  V30 5352 C 499.699 0.0636036 -1.94096 0
M  V30 5353 O 498.974 1.0245 -1.6533 0
M  V30 5354 C 499.257 -2.30116 -2.76981 0
M  V30 5355 C 499.11 -3.80003 -2.4066 0
M  V30 5356 C 500.429 -2.23715 -3.78998 0
M  V30 5357 H 497.548 -0.490517 -0.550056 0
M  V30 5358 H 500.19 -1.69178 -0.864807 0
M  V30 5359 H 498.34 -2.00821 -3.3257 0
M  V30 5360 H 500.012 -4.19966 -1.90856 0
M  V30 5361 H 498.255 -3.97751 -1.73137 0
M  V30 5362 H 498.926 -4.42244 -3.30339 0
M  V30 5363 H 501.402 -2.49574 -3.32945 0
M  V30 5364 H 500.278 -2.9261 -4.64403 0
M  V30 5365 H 500.539 -1.23554 -4.24484 0
M  V30 5366 N 499.598 0.982988 -1.23187 0
M  V30 5367 C 500.545 2.07491 -1.01075 0
M  V30 5368 C 501.515 1.65949 0.070905 0
M  V30 5369 O 502.7 1.90629 -0.0806822 0
M  V30 5370 C 499.84 3.39751 -0.605261 0
M  V30 5371 C 498.953 3.94578 -1.75876 0
M  V30 5372 C 498.088 5.15039 -1.3003 0
M  V30 5373 C 497.127 5.62027 -2.42472 0
M  V30 5374 N 496.264 6.73719 -1.97602 0
M  V30 5375 H 501.104 2.25739 -1.9454 0
M  V30 5376 H 498.641 1.10659 -0.969179 0
M  V30 5377 H 500.599 4.15719 -0.351279 0
M  V30 5378 H 499.229 3.21473 0.292382 0
M  V30 5379 H 498.281 3.1539 -2.12681 0
M  V30 5380 H 499.593 4.25422 -2.60418 0
M  V30 5381 H 498.747 5.9833 -1.00429 0
M  V30 5382 H 497.486 4.85843 -0.425216 0
M  V30 5383 H 496.491 4.77318 -2.7285 0
M  V30 5384 H 497.716 5.93244 -3.30512 0
M  V30 5385 H 495.662 6.46287 -1.1247 0
M  V30 5386 H 495.579 7.03934 -2.75705 0
M  V30 5387 H 496.847 7.6049 -1.71098 0
M  V30 5388 N 501.076 1.04316 1.18135 0
M  V30 5389 C 502.492 0.762858 1.40188 0
M  V30 5390 C 502.692 -0.646547 1.90846 0
M  V30 5391 O 501.748 -1.41036 2.0944 0
M  V30 5392 C 503.061 1.81106 2.40044 0
M  V30 5393 C 504.609 1.83226 2.53766 0
M  V30 5394 C 505.084 2.87044 3.56889 0
M  V30 5395 N 506.575 2.85951 3.64398 0
M  V30 5396 C 507.31 3.62932 4.43923 0
M  V30 5397 N 506.806 4.49672 5.27036 0
M  V30 5398 N 508.599 3.51411 4.38711 0
M  V30 5399 H 500.75 1.95264 0.835805 0
M  V30 5400 H 503.013 0.845017 0.429709 0
M  V30 5401 H 502.719 2.82214 2.09876 0
M  V30 5402 H 502.593 1.64529 3.39426 0
M  V30 5403 H 504.98 0.827869 2.8325 0
M  V30 5404 H 505.061 2.03879 1.54489 0
M  V30 5405 H 504.705 3.87663 3.28145 0
M  V30 5406 H 504.635 2.63645 4.5585 0
M  V30 5407 H 507.126 2.23051 3.05052 0
M  V30 5408 H 507.439 5.05116 5.84874 0
M  V30 5409 H 505.784 4.53738 5.26447 0
M  V30 5410 H 508.975 2.83047 3.72829 0
M  V30 5411 H 509.148 4.11654 5.00445 0
M  V30 5412 N 502.554 -1.34406 0.822964 0
M  V30 5413 C 503.803 -1.97542 0.407458 0
M  V30 5414 C 504.116 -1.65973 -1.035 0
M  V30 5415 O 505.322 -2.22598 -1.55442 0
M  V30 5416 C 503.778 -3.53463 0.677623 0
M  V30 5417 C 503.386 -3.93925 2.1337 0
M  V30 5418 C 505.13 -4.23229 0.328284 0
M  V30 5419 C 503.037 -5.42759 2.34876 0
M  V30 5420 H 501.967 -0.739207 0.148623 0
M  V30 5421 H 504.618 -1.53248 1.00932 0
M  V30 5422 H 503 -3.96 0.00558965 0
M  V30 5423 H 504.174 -3.62494 2.8449 0
M  V30 5424 H 502.489 -3.37097 2.44448 0
M  V30 5425 H 505.086 -5.32659 0.466794 0
M  V30 5426 H 505.429 -4.09899 -0.727224 0
M  V30 5427 H 505.962 -3.86169 0.954896 0
M  V30 5428 H 502.701 -5.61075 3.38932 0
M  V30 5429 H 502.221 -5.75704 1.68299 0
M  V30 5430 H 503.9 -6.0944 2.17236 0
M  V30 5431 N 504.032 -0.577932 -1.46621 0
M  V30 5432 C 505.26 -0.0671642 -2.06791 0
M  V30 5433 C 505.675 1.23571 -1.42743 0
M  V30 5434 O 505.032 1.74602 -0.531062 0
M  V30 5435 C 505.083 0.110357 -3.61332 0
M  V30 5436 O 504.804 -1.14095 -4.22982 0
M  V30 5437 C 506.305 0.656025 -4.38419 0
M  V30 5438 H 503.525 -0.0552732 -0.66872 0
M  V30 5439 H 506.069 -0.797242 -1.8832 0
M  V30 5440 H 504.224 0.790637 -3.79246 0
M  V30 5441 H 504.638 -0.951742 -5.15793 0
M  V30 5442 H 506.112 0.729438 -5.47159 0
M  V30 5443 H 506.589 1.67195 -4.06131 0
M  V30 5444 H 507.195 0.0107692 -4.25299 0
M  V30 5445 N 505.51 1.54411 -0.315457 0
M  V30 5446 C 506.756 2.00716 0.289972 0
M  V30 5447 C 507.089 1.2034 1.5242 0
M  V30 5448 O 506.364 0.283579 1.92422 0
M  V30 5449 C 506.647 3.54507 0.632196 0
M  V30 5450 C 506.5 4.45615 -0.61218 0
M  V30 5451 C 507.819 4.15421 1.45305 0
M  V30 5452 H 504.938 0.729637 0.10392 0
M  V30 5453 H 507.58 1.8506 -0.430427 0
M  V30 5454 H 505.73 3.67979 1.24595 0
M  V30 5455 H 507.402 4.44026 -1.25053 0
M  V30 5456 H 505.645 4.15621 -1.24264 0
M  V30 5457 H 506.316 5.51022 -0.328379 0
M  V30 5458 H 508.792 4.05474 0.934331 0
M  V30 5459 H 507.668 5.23157 1.66127 0
M  V30 5460 H 507.929 3.68223 2.44671 0
M  V30 5461 N 506.988 0.0434614 1.5754 0
M  V30 5462 C 507.898 -0.94893 2.14552 0
M  V30 5463 C 508.914 -1.34707 1.10136 0
M  V30 5464 O 510.09 -1.42557 1.42266 0
M  V30 5465 C 507.155 -2.208 2.67298 0
M  V30 5466 C 506.216 -1.86893 3.86484 0
M  V30 5467 C 505.449 -3.06797 4.36705 0
M  V30 5468 O 505.672 -4.19921 3.86034 0
M  V30 5469 O 504.606 -2.8826 5.28384 0
M  V30 5470 H 508.432 -0.494099 2.99654 0
M  V30 5471 H 506.017 -0.177989 1.48336 0
M  V30 5472 H 507.899 -2.94686 3.01228 0
M  V30 5473 H 506.574 -2.65436 1.85272 0
M  V30 5474 H 505.481 -1.10347 3.57455 0
M  V30 5475 H 506.814 -1.47062 4.69716 0
M  V30 5476 N 508.466 -1.55915 -0.229846 0
M  V30 5477 C 509.414 -1.9258 -1.30444 0
M  V30 5478 C 510.408 -0.806839 -1.48951 0
M  V30 5479 O 511.614 -0.991606 -1.50224 0
M  V30 5480 H 507.989 -0.611878 -0.437161 0
M  V30 5481 H 509.96 -2.82264 -0.96797 0
M  V30 5482 C 508.709 -2.25171 -2.6494 0
M  V30 5483 H 508.032 -3.10782 -2.51504 0
M  V30 5484 H 509.472 -2.54716 -3.38963 0
M  V30 5485 C 507.931 -1.07394 -3.19324 0
M  V30 5486 O 508.461 -0.330759 -4.00336 0
M  V30 5487 N 506.667 -0.859984 -2.77584 0
M  V30 5488 H 506.214 -1.46605 -2.11813 0
M  V30 5489 H 506.172 -0.0736671 -3.14314 0
M  V30 5490 N 509.944 0.496216 -1.49584 0
M  V30 5491 C 511.169 1.27865 -1.63295 0
M  V30 5492 C 511.594 1.85592 -0.306156 0
M  V30 5493 O 510.952 1.66092 0.726851 0
M  V30 5494 C 511 2.38128 -2.7079 0
M  V30 5495 O 510.104 3.42108 -2.30296 0
M  V30 5496 H 509.445 0.377279 -0.546403 0
M  V30 5497 H 511.975 0.593497 -1.95803 0
M  V30 5498 H 511.985 2.8382 -2.93104 0
M  V30 5499 H 510.66 1.95479 -3.67098 0
M  V30 5500 H 509.237 3.02301 -2.18331 0
M  V30 5501 N 511.423 1.38739 0.74761 0
M  V30 5502 C 512.37 1.36449 1.86146 0
M  V30 5503 C 513.34 0.226098 1.64554 0
M  V30 5504 O 514.525 0.41926 1.86137 0
M  V30 5505 C 511.665 1.2013 3.23516 0
M  V30 5506 C 510.778 2.43407 3.56899 0
M  V30 5507 C 509.913 2.19773 4.83605 0
M  V30 5508 C 508.952 3.3879 5.09792 0
M  V30 5509 N 508.089 3.14553 6.27695 0
M  V30 5510 H 512.929 2.3167 1.87438 0
M  V30 5511 H 510.466 1.15094 0.916063 0
M  V30 5512 H 512.424 1.08683 4.02795 0
M  V30 5513 H 511.054 0.285453 3.21535 0
M  V30 5514 H 510.106 2.65504 2.72418 0
M  V30 5515 H 511.418 3.32094 3.72176 0
M  V30 5516 H 510.572 2.05496 5.70838 0
M  V30 5517 H 509.311 1.28461 4.70478 0
M  V30 5518 H 508.316 3.53579 4.21025 0
M  V30 5519 H 509.541 4.30986 5.24812 0
M  V30 5520 H 507.487 2.25893 6.1588 0
M  V30 5521 H 507.404 3.96791 6.435 0
M  V30 5522 H 508.672 3.03943 7.17801 0
M  V30 5523 N 512.901 -0.976442 1.23707 0
M  V30 5524 C 514.147 -1.72081 1.07312 0
M  V30 5525 C 514.48 -1.90275 -0.388476 0
M  V30 5526 O 513.755 -1.4579 -1.28746 0
M  V30 5527 C 514.038 -3.11675 1.80363 0
M  V30 5528 C 513.891 -3.01027 3.3422 0
M  V30 5529 C 515.21 -4.1117 1.5693 0
M  V30 5530 H 512.329 -0.624583 0.391236 0
M  V30 5531 H 514.971 -1.13649 1.52263 0
M  V30 5532 H 513.121 -3.61559 1.42153 0
M  V30 5533 H 514.793 -2.58637 3.81975 0
M  V30 5534 H 513.036 -2.3744 3.63049 0
M  V30 5535 H 513.707 -3.9988 3.80525 0
M  V30 5536 H 516.183 -3.7011 1.90151 0
M  V30 5537 H 515.059 -5.06928 2.10513 0
M  V30 5538 H 515.32 -4.392 0.505548 0
M  V30 5539 N 514.379 -1.04941 -1.1758 0
M  V30 5540 C 515.626 -0.757989 -1.87779 0
M  V30 5541 C 515.954 0.714827 -1.80888 0
M  V30 5542 O 515.209 1.53824 -1.20982 0
M  V30 5543 C 515.508 -1.18062 -3.37337 0
M  V30 5544 C 515.174 -2.65521 -3.6443 0
M  V30 5545 C 513.836 -3.05804 -3.71534 0
M  V30 5546 C 516.188 -3.60822 -3.76108 0
M  V30 5547 C 513.516 -4.40256 -3.87803 0
M  V30 5548 C 515.868 -4.95005 -3.93895 0
M  V30 5549 C 514.532 -5.34945 -3.99237 0
M  V30 5550 H 513.802 -0.277368 -0.68713 0
M  V30 5551 H 516.449 -1.31603 -1.39115 0
M  V30 5552 H 514.754 -0.541525 -3.8804 0
M  V30 5553 H 516.451 -0.932368 -3.9001 0
M  V30 5554 H 513.041 -2.33324 -3.59524 0
M  V30 5555 H 517.225 -3.30841 -3.69943 0
M  V30 5556 H 512.481 -4.70707 -3.90186 0
M  V30 5557 H 516.655 -5.68746 -4.01872 0
M  V30 5558 H 514.282 -6.39135 -4.11596 0
M  V30 5559 N 515.857 1.33968 -0.830081 0
M  V30 5560 C 516.787 2.31911 -0.271911 0
M  V30 5561 C 517.768 1.58571 0.61556 0
M  V30 5562 O 518.953 1.86514 0.540946 0
M  V30 5563 C 516.083 3.42737 0.561146 0
M  V30 5564 C 515.037 4.27383 -0.229789 0
M  V30 5565 C 514.363 5.29742 0.726463 0
M  V30 5566 C 515.663 5.02 -1.44197 0
M  V30 5567 H 517.357 2.78844 -1.09025 0
M  V30 5568 H 514.903 1.34061 -0.52571 0
M  V30 5569 H 516.856 4.10276 0.961867 0
M  V30 5570 H 515.58 2.94471 1.41261 0
M  V30 5571 H 514.239 3.61456 -0.611964 0
M  V30 5572 H 513.887 4.77736 1.57408 0
M  V30 5573 H 513.587 5.87255 0.20142 0
M  V30 5574 H 515.111 6.00149 1.12489 0
M  V30 5575 H 516.525 5.62355 -1.11488 0
M  V30 5576 H 514.922 5.69122 -1.90317 0
M  V30 5577 H 515.992 4.31281 -2.2164 0
M  V30 5578 N 517.335 0.585699 1.46312 0
M  V30 5579 C 518.581 0.0725284 2.0267 0
M  V30 5580 C 518.914 -1.28523 1.45586 0
M  V30 5581 O 518.189 -1.84283 0.622101 0
M  V30 5582 C 518.472 0.0099788 3.60099 0
M  V30 5583 C 518.325 1.39685 4.27561 0
M  V30 5584 C 519.644 -0.689117 4.34671 0
M  V30 5585 H 516.763 0.0278307 0.736474 0
M  V30 5586 H 519.405 0.753472 1.74421 0
M  V30 5587 H 517.555 -0.56992 3.84297 0
M  V30 5588 H 519.227 2.02215 4.14617 0
M  V30 5589 H 517.47 1.96374 3.86807 0
M  V30 5590 H 518.141 1.30553 5.36339 0
M  V30 5591 H 520.617 -0.196446 4.15636 0
M  V30 5592 H 519.493 -0.701921 5.44393 0
M  V30 5593 H 519.754 -1.75101 4.05946 0
M  V30 5594 N 518.813 -1.54241 0.323641 0
M  V30 5595 C 520.224 -1.85975 -0.164405 0
M  V30 5596 C 520.575 -1.24529 -1.51615 0
M  V30 5597 O 519.7 -0.551351 -2.09258 0
M  V30 5598 C 520.295 -3.37424 -0.305091 0
M  V30 5599 C 518.854 -3.69107 -0.737358 0
M  V30 5600 C 518.001 -2.76942 0.140884 0
M  V30 5601 H 520.952 -1.49088 0.543922 0
M  V30 5602 H 520.973 -3.63147 -1.13598 0
M  V30 5603 H 520.485 -3.82116 0.678876 0
M  V30 5604 H 518.586 -3.29947 -1.73107 0
M  V30 5605 H 518.699 -4.76035 -0.541053 0
M  V30 5606 H 517.063 -2.51795 -0.383572 0
M  V30 5607 H 517.846 -3.24461 1.12162 0
M  V30 5608 N 520.291 -0.0518155 -1.57515 0
M  V30 5609 C 521.531 0.625712 -1.94587 0
M  V30 5610 C 521.895 1.6797 -0.930053 0
M  V30 5611 O 523.096 2.41135 -1.18774 0
M  V30 5612 C 521.367 1.20574 -3.36447 0
M  V30 5613 S 522.926 1.90118 -3.95475 0
M  V30 5614 H 519.744 0.205434 -0.680675 0
M  V30 5615 H 522.346 -0.120906 -1.95126 0
M  V30 5616 H 521.05 0.426521 -4.08178 0
M  V30 5617 H 520.581 1.98916 -3.39405 0
M  V30 5618 H 522.596 3.18184 -3.80753 0
M  V30 5619 N 521.769 1.56035 0.221574 0
M  V30 5620 C 522.699 1.95434 1.2778 0
M  V30 5621 C 523.68 0.822564 1.48889 0
M  V30 5622 O 524.865 1.08486 1.61072 0
M  V30 5623 C 521.995 2.27102 2.62759 0
M  V30 5624 C 520.949 3.4277 2.56306 0
M  V30 5625 C 520.275 3.60043 3.95314 0
M  V30 5626 C 521.575 4.77742 2.11093 0
M  V30 5627 H 523.269 2.83912 0.950504 0
M  V30 5628 H 520.815 1.36596 0.455791 0
M  V30 5629 H 522.768 2.53256 3.36807 0
M  V30 5630 H 521.492 1.35478 2.97176 0
M  V30 5631 H 520.151 3.16664 1.84715 0
M  V30 5632 H 519.799 2.65794 4.27039 0
M  V30 5633 H 519.499 4.37841 3.91879 0
M  V30 5634 H 521.023 3.88545 4.71025 0
M  V30 5635 H 522.437 5.03102 2.74885 0
M  V30 5636 H 520.834 5.58823 2.18716 0
M  V30 5637 H 521.904 4.731 1.06321 0
M  V30 5638 N 523.247 -0.488276 1.49845 0
M  V30 5639 C 524.177 -1.59675 1.70371 0
M  V30 5640 C 525.158 -1.60878 0.552473 0
M  V30 5641 O 526.343 -1.77417 0.78973 0
M  V30 5642 C 523.473 -2.98098 1.782 0
M  V30 5643 C 522.427 -3.11761 2.93239 0
M  V30 5644 C 521.753 -4.51661 2.86193 0
M  V30 5645 C 523.053 -2.90589 4.33999 0
M  V30 5646 H 524.747 -1.42752 2.63177 0
M  V30 5647 H 522.293 -0.685317 1.26647 0
M  V30 5648 H 524.246 -3.75555 1.91144 0
M  V30 5649 H 522.97 -3.16138 0.820018 0
M  V30 5650 H 521.629 -2.36732 2.79917 0
M  V30 5651 H 521.277 -4.66595 1.87877 0
M  V30 5652 H 520.977 -4.61742 3.63412 0
M  V30 5653 H 522.501 -5.31162 3.01163 0
M  V30 5654 H 523.915 -3.57807 4.47936 0
M  V30 5655 H 522.312 -3.1213 5.12538 0
M  V30 5656 H 523.382 -1.86595 4.4756 0
M  V30 5657 N 524.725 -1.39134 -0.740242 0
M  V30 5658 C 525.95 -1.39518 -1.53459 0
M  V30 5659 C 526.375 0.00968883 -1.88098 0
M  V30 5660 O 525.733 0.995312 -1.51536 0
M  V30 5661 C 525.781 -2.26981 -2.802 0
M  V30 5662 O 524.885 -1.69609 -3.75908 0
M  V30 5663 H 524.226 -0.475328 -0.463637 0
M  V30 5664 H 526.756 -1.83064 -0.913717 0
M  V30 5665 H 526.766 -2.41309 -3.28989 0
M  V30 5666 H 525.441 -3.29081 -2.5432 0
M  V30 5667 H 524.018 -1.64495 -3.34658 0
M  V30 5668 N 526.204 0.969867 -1.24223 0
M  V30 5669 C 527.136 2.0669 -0.99055 0
M  V30 5670 C 528.149 1.62753 0.0392222 0
M  V30 5671 O 529.338 1.77403 -0.197561 0
M  V30 5672 C 526.438 3.35589 -0.472594 0
M  V30 5673 C 525.611 4.08444 -1.56499 0
M  V30 5674 C 524.67 5.15616 -1.05007 0
M  V30 5675 O 523.696 5.41911 -1.7413 0
M  V30 5676 N 524.898 5.80383 0.116641 0
M  V30 5677 H 527.663 2.28855 -1.93508 0
M  V30 5678 H 525.224 1.13733 -1.15223 0
M  V30 5679 H 527.216 4.04542 -0.112919 0
M  V30 5680 H 525.786 3.10311 0.377617 0
M  V30 5681 H 525.006 3.33798 -2.09696 0
M  V30 5682 H 526.294 4.53882 -2.29932 0
M  V30 5683 H 525.692 5.6142 0.694589 0
M  V30 5684 H 524.249 6.50462 0.417483 0
M  V30 5685 N 527.682 1.05563 1.17022 0
M  V30 5686 C 528.632 0.630007 2.19123 0
M  V30 5687 C 529.616 -0.335472 1.57364 0
M  V30 5688 O 530.808 -0.1521 1.76345 0
M  V30 5689 C 527.937 0.0101676 3.43298 0
M  V30 5690 C 527.023 0.999698 4.12149 0
M  V30 5691 N 527.414 2.17251 4.56766 0
M  V30 5692 C 525.712 0.829 4.38228 0
M  V30 5693 C 526.413 2.79883 5.09942 0
M  V30 5694 N 525.389 2.07656 5.02374 0
M  V30 5695 H 529.191 1.52353 2.51328 0
M  V30 5696 H 526.705 0.926288 1.33393 0
M  V30 5697 H 528.702 -0.312541 4.15727 0
M  V30 5698 H 527.362 -0.878707 3.12584 0
M  V30 5699 H 528.373 2.55067 4.50734 0
M  V30 5700 H 525.05 -0.00850974 4.17499 0
M  V30 5701 H 526.44 3.79362 5.54558 0
M  V30 5702 N 529.16 -1.33526 0.837174 0
M  V30 5703 C 530.09 -2.31764 0.284206 0
M  V30 5704 C 531.071 -1.58896 -0.607142 0
M  V30 5705 O 532.256 -1.86798 -0.531047 0
M  V30 5706 C 529.386 -3.43029 -0.542962 0
M  V30 5707 C 528.34 -4.27255 0.252451 0
M  V30 5708 C 527.666 -5.3012 -0.69836 0
M  V30 5709 C 528.966 -5.01229 1.46858 0
M  V30 5710 H 530.66 -2.78262 1.10502 0
M  V30 5711 H 528.206 -1.3378 0.532812 0
M  V30 5712 H 530.159 -4.1078 -0.940096 0
M  V30 5713 H 528.883 -2.95216 -1.39697 0
M  V30 5714 H 527.542 -3.61127 0.631124 0
M  V30 5715 H 527.19 -4.78564 -1.54872 0
M  V30 5716 H 526.89 -5.87353 -0.170274 0
M  V30 5717 H 528.414 -6.00737 -1.09305 0
M  V30 5718 H 529.828 -5.61756 1.14469 0
M  V30 5719 H 528.225 -5.68104 1.93333 0
M  V30 5720 H 529.295 -4.301 2.23924 0
M  V30 5721 N 530.638 -0.59345 -1.46 0
M  V30 5722 C 531.585 0.133618 -2.30413 0
M  V30 5723 C 532.555 0.873736 -1.41262 0
M  V30 5724 O 533.74 0.862279 -1.70204 0
M  V30 5725 C 530.88 1.13434 -3.25924 0
M  V30 5726 C 529.993 0.39656 -4.30176 0
M  V30 5727 C 529.128 1.38575 -5.12806 0
M  V30 5728 C 528.167 0.634984 -6.08797 0
M  V30 5729 N 527.304 1.57276 -6.84258 0
M  V30 5730 H 532.144 -0.592252 -2.92055 0
M  V30 5731 H 529.681 -0.303874 -1.43927 0
M  V30 5732 H 531.639 1.72752 -3.79753 0
M  V30 5733 H 530.269 1.82779 -2.66067 0
M  V30 5734 H 529.321 -0.311861 -3.79119 0
M  V30 5735 H 530.633 -0.189869 -4.98438 0
M  V30 5736 H 529.787 2.05141 -5.70966 0
M  V30 5737 H 528.526 2.00611 -4.44529 0
M  V30 5738 H 527.531 -0.0443925 -5.49782 0
M  V30 5739 H 528.756 0.0198678 -6.79097 0
M  V30 5740 H 526.702 2.18103 -6.18682 0
M  V30 5741 H 526.619 1.03941 -7.48821 0
M  V30 5742 H 527.887 2.22844 -7.46968 0
M  V30 5743 N 532.116 1.54067 -0.331816 0
M  V30 5744 C 533.341 2.05599 0.272705 0
M  V30 5745 C 533.766 1.2059 1.44359 0
M  V30 5746 O 533.124 0.216907 1.79998 0
M  V30 5747 C 533.172 3.54188 0.677021 0
M  V30 5748 O 532.276 3.72082 1.77844 0
M  V30 5749 H 531.617 0.662286 0.0476801 0
M  V30 5750 H 534.147 1.98826 -0.482624 0
M  V30 5751 H 534.157 3.96608 0.957415 0
M  V30 5752 H 532.832 4.15513 -0.179325 0
M  V30 5753 H 531.409 3.41566 1.49622 0
M  V30 5754 N 533.594 0.0601682 1.57485 0
M  V30 5755 C 534.524 -0.90889 2.15085 0
M  V30 5756 C 535.505 -1.31838 1.07484 0
M  V30 5757 O 536.69 -1.3915 1.35466 0
M  V30 5758 C 533.82 -2.18059 2.7031 0
M  V30 5759 C 532.774 -1.91088 3.82974 0
M  V30 5760 C 532.1 -3.24789 4.24754 0
M  V30 5761 C 533.4 -1.22535 5.07723 0
M  V30 5762 H 535.094 -0.429093 2.96309 0
M  V30 5763 H 532.64 -0.204952 1.42534 0
M  V30 5764 H 534.593 -2.86258 3.09248 0
M  V30 5765 H 533.317 -2.6826 1.8629 0
M  V30 5766 H 531.976 -1.25297 3.44523 0
M  V30 5767 H 531.624 -3.72809 3.37672 0
M  V30 5768 H 531.324 -3.07538 5.00694 0
M  V30 5769 H 532.848 -3.94205 4.66299 0
M  V30 5770 H 534.262 -1.80783 5.4405 0
M  V30 5771 H 532.659 -1.1558 5.88864 0
M  V30 5772 H 533.729 -0.202692 4.84476 0
M  V30 5773 N 535.072 -1.5615 -0.213296 0
M  V30 5774 C 535.982 -1.96265 -1.28519 0
M  V30 5775 C 536.998 -0.86765 -1.50824 0
M  V30 5776 O 538.174 -1.17191 -1.63793 0
M  V30 5777 C 535.239 -2.27836 -2.61327 0
M  V30 5778 C 534.3 -3.50949 -2.47252 0
M  V30 5779 C 533.533 -3.81004 -3.73727 0
M  V30 5780 O 533.756 -3.12612 -4.77106 0
M  V30 5781 O 532.69 -4.74477 -3.70344 0
M  V30 5782 H 536.516 -2.87631 -0.974795 0
M  V30 5783 H 534.101 -1.43467 -0.416832 0
M  V30 5784 H 535.983 -2.49299 -3.39747 0
M  V30 5785 H 534.658 -1.39643 -2.9203 0
M  V30 5786 H 533.565 -3.34754 -1.67004 0
M  V30 5787 H 534.898 -4.39551 -2.21486 0
M  V30 5788 N 536.55 0.480323 -1.50102 0
M  V30 5789 C 537.78 1.25475 -1.64133 0
M  V30 5790 C 538.188 1.8647 -0.320272 0
M  V30 5791 O 537.531 1.69561 0.70673 0
M  V30 5792 C 537.593 2.40996 -2.6676 0
M  V30 5793 C 537.257 2.00711 -4.10565 0
M  V30 5794 C 538.254 1.53492 -4.96725 0
M  V30 5795 C 535.939 2.09714 -4.56427 0
M  V30 5796 C 537.933 1.15806 -6.26792 0
M  V30 5797 C 535.62 1.7164 -5.86501 0
M  V30 5798 C 536.618 1.24763 -6.71508 0
M  V30 5799 O 536.306 0.872122 -7.99155 0
M  V30 5800 H 536.038 0.385983 -0.554971 0
M  V30 5801 H 538.592 0.580848 -1.97016 0
M  V30 5802 H 536.822 3.11528 -2.291 0
M  V30 5803 H 538.511 3.02981 -2.70106 0
M  V30 5804 H 539.277 1.45966 -4.62514 0
M  V30 5805 H 535.156 2.4515 -3.90413 0
M  V30 5806 H 538.7 0.791465 -6.93096 0
M  V30 5807 H 534.597 1.78822 -6.20236 0
M  V30 5808 H 535.365 1.00178 -8.12346 0
M  V30 5809 N 538.028 1.39524 0.732853 0
M  V30 5810 C 538.958 1.41153 1.86005 0
M  V30 5811 C 539.939 0.274614 1.67869 0
M  V30 5812 O 541.124 0.480745 1.88155 0
M  V30 5813 C 538.254 1.25638 3.23778 0
M  V30 5814 C 537.208 2.36752 3.56556 0
M  V30 5815 C 536.534 2.06326 4.93289 0
M  V30 5816 C 537.834 3.79069 3.5931 0
M  V30 5817 H 539.528 2.35484 1.84899 0
M  V30 5818 H 537.074 1.13348 0.888162 0
M  V30 5819 H 539.027 1.25398 4.0231 0
M  V30 5820 H 537.751 0.277772 3.25417 0
M  V30 5821 H 536.41 2.36213 2.80355 0
M  V30 5822 H 536.058 1.06897 4.9151 0
M  V30 5823 H 535.758 2.80757 5.16187 0
M  V30 5824 H 537.282 2.07739 5.74175 0
M  V30 5825 H 538.696 3.81526 4.27914 0
M  V30 5826 H 537.093 4.52878 3.93728 0
M  V30 5827 H 538.163 4.09893 2.59068 0
M  V30 5828 N 539.506 -0.963266 1.24736 0
M  V30 5829 C 540.783 -1.68248 0.9976 0
M  V30 5830 C 541.163 -2.05599 -0.478776 0
M  V30 5831 O 540.511 -1.7626 -1.45412 0
M  V30 5832 C 540.721 -2.91118 1.92487 0
M  V30 5833 C 542.069 -3.63261 2.19833 0
M  V30 5834 O 543.093 -3.01184 1.90176 0
M  V30 5835 O 541.952 -4.75019 2.7022 0
M  V30 5836 H 539.046 -0.735744 0.377637 0
M  V30 5837 H 541.592 -1.01696 1.35853 0
M  V30 5838 H 540.364 -2.60242 2.92215 0
M  V30 5839 H 539.987 -3.65402 1.56738 0
M  V30 5840 N 540.985 -1.06182 -1.16461 0
M  V30 5841 C 541.915 -0.692861 -2.22984 0
M  V30 5842 C 542.896 0.314122 -1.67174 0
M  V30 5843 O 544.081 0.189499 -1.93273 0
M  V30 5844 C 541.211 -0.07732 -3.47214 0
M  V30 5845 C 540.165 -1.01015 -4.15909 0
M  V30 5846 C 539.491 -0.257973 -5.34077 0
M  V30 5847 C 540.791 -2.33868 -4.67015 0
M  V30 5848 H 542.485 -1.58343 -2.54102 0
M  V30 5849 H 540.031 -0.76279 -1.22137 0
M  V30 5850 H 541.984 0.19266 -4.20959 0
M  V30 5851 H 540.708 0.848254 -3.15392 0
M  V30 5852 H 539.367 -1.26486 -3.44088 0
M  V30 5853 H 539.015 0.670684 -4.98509 0
M  V30 5854 H 538.715 -0.879638 -5.80979 0
M  V30 5855 H 540.239 0.00448788 -6.106 0
M  V30 5856 H 541.653 -2.1279 -5.32347 0
M  V30 5857 H 540.05 -2.91522 -5.24533 0
M  V30 5858 H 541.12 -2.97019 -3.83286 0
M  V30 5859 N 542.463 1.3308 -0.844243 0
M  V30 5860 C 543.688 2.02341 -0.455282 0
M  V30 5861 C 544.113 1.6308 0.93737 0
M  V30 5862 O 543.471 0.826118 1.61385 0
M  V30 5863 C 543.519 3.55743 -0.58988 0
M  V30 5864 O 542.623 4.1063 0.38166 0
M  V30 5865 H 541.964 0.637898 -0.184343 0
M  V30 5866 H 544.494 1.6986 -1.14056 0
M  V30 5867 H 544.504 4.05243 -0.473522 0
M  V30 5868 H 543.179 3.83662 -1.60549 0
M  V30 5869 H 541.756 3.72236 0.22241 0
M  V30 5870 N 543.941 0.601185 1.45683 0
M  V30 5871 C 544.851 -0.123395 2.34275 0
M  V30 5872 C 545.867 -0.86702 1.5086 0
M  V30 5873 O 547.043 -0.826049 1.8368 0
M  V30 5874 C 544.108 -1.11237 3.2837 0
M  V30 5875 C 543.169 -0.371405 4.2769 0
M  V30 5876 C 542.402 -1.31327 5.1729 0
M  V30 5877 O 542.625 -2.55078 5.10188 0
M  V30 5878 O 541.559 -0.813811 5.96373 0
M  V30 5879 H 545.385 0.604483 2.97623 0
M  V30 5880 H 542.97 0.361477 1.44961 0
M  V30 5881 H 544.852 -1.68214 3.8637 0
M  V30 5882 H 543.527 -1.82139 2.67595 0
M  V30 5883 H 542.434 0.24067 3.73325 0
M  V30 5884 H 543.767 0.296998 4.91303 0
M  V30 5885 N 545.419 -1.53889 0.339982 0
M  V30 5886 C 546.367 -2.26391 -0.533822 0
M  V30 5887 C 547.361 -1.28404 -1.10493 0
M  V30 5888 O 548.567 -1.46124 -1.05108 0
M  V30 5889 H 544.942 -0.727385 -0.190828 0
M  V30 5890 H 546.913 -2.98233 0.0997484 0
M  V30 5891 C 545.662 -3.04707 -1.67479 0
M  V30 5892 H 544.985 -3.79934 -1.2446 0
M  V30 5893 H 546.425 -3.58657 -2.26144 0
M  V30 5894 C 544.884 -2.13989 -2.60212 0
M  V30 5895 O 545.414 -1.73361 -3.62366 0
M  V30 5896 N 543.62 -1.79141 -2.28816 0
M  V30 5897 H 543.167 -2.12378 -1.45785 0
M  V30 5898 H 543.125 -1.18725 -2.91121 0
M  V30 5899 N 546.897 -0.0685191 -1.57451 0
M  V30 5900 C 547.827 0.89747 -2.15564 0
M  V30 5901 C 548.808 1.31266 -1.08181 0
M  V30 5902 O 549.993 1.38429 -1.36202 0
M  V30 5903 C 547.123 2.16623 -2.71463 0
M  V30 5904 C 546.077 1.89054 -3.83982 0
M  V30 5905 C 545.403 3.22532 -4.26471 0
M  V30 5906 C 546.703 1.1984 -5.08366 0
M  V30 5907 H 548.397 0.413373 -2.96533 0
M  V30 5908 H 545.943 0.197391 -1.42641 0
M  V30 5909 H 547.896 2.84614 -3.10761 0
M  V30 5910 H 546.62 2.67269 -1.8771 0
M  V30 5911 H 545.279 1.23469 -3.45183 0
M  V30 5912 H 544.927 3.71013 -3.39644 0
M  V30 5913 H 544.627 3.04879 -5.02317 0
M  V30 5914 H 546.151 3.91727 -4.68383 0
M  V30 5915 H 547.565 1.77896 -5.45001 0
M  V30 5916 H 545.962 1.12456 -5.89469 0
M  V30 5917 H 547.032 0.176996 -4.84577 0
M  V30 5918 N 548.375 1.56261 0.205012 0
M  V30 5919 C 549.308 1.88797 1.28183 0
M  V30 5920 C 550.286 0.747018 1.44424 0
M  V30 5921 O 551.47 0.997039 1.59973 0
M  V30 5922 C 548.597 2.10949 2.64987 0
M  V30 5923 C 547.643 3.33649 2.6567 0
M  V30 5924 S 548.476 4.89078 2.18088 0
M  V30 5925 C 549.632 5.14286 3.56736 0
M  V30 5926 H 549.865 2.79837 1.00393 0
M  V30 5927 H 547.398 1.48911 0.408042 0
M  V30 5928 H 549.356 2.24395 3.4374 0
M  V30 5929 H 548.017 1.20678 2.89993 0
M  V30 5930 H 547.21 3.46245 3.66239 0
M  V30 5931 H 546.812 3.19146 1.94992 0
M  V30 5932 H 549.104 5.04198 4.52537 0
M  V30 5933 H 550.047 6.16096 3.49043 0
M  V30 5934 H 550.455 4.41957 3.51189 0
M  V30 5935 N 549.853 -0.472356 1.50355 0
M  V30 5936 C 551.099 -1.22634 1.6152 0
M  V30 5937 C 551.432 -1.91645 0.313995 0
M  V30 5938 O 550.707 -1.82059 -0.684446 0
M  V30 5939 C 550.99 -2.27099 2.7946 0
M  V30 5940 C 550.843 -1.62402 4.19459 0
M  V30 5941 C 552.162 -3.28421 2.92964 0
M  V30 5942 H 549.281 -0.444494 0.587873 0
M  V30 5943 H 551.923 -0.520321 1.82737 0
M  V30 5944 H 550.073 -2.87314 2.61501 0
M  V30 5945 H 551.745 -1.05793 4.49005 0
M  V30 5946 H 549.988 -0.927184 4.23776 0
M  V30 5947 H 550.659 -2.38309 4.97909 0
M  V30 5948 H 553.135 -2.78227 3.09401 0
M  V30 5949 H 552.011 -3.98845 3.77113 0
M  V30 5950 H 552.272 -3.92467 2.03525 0
M  V30 5951 N 551.331 -1.39911 -0.725443 0
M  V30 5952 C 552.241 -1.41688 -1.8698 0
M  V30 5953 C 553.257 -0.310579 -1.71206 0
M  V30 5954 O 554.433 -0.55359 -1.93642 0
M  V30 5955 C 551.498 -1.26811 -3.22676 0
M  V30 5956 C 550.559 -2.47497 -3.50776 0
M  V30 5957 C 549.792 -2.3332 -4.79997 0
M  V30 5958 O 550.015 -1.34175 -5.54394 0
M  V30 5959 O 548.949 -3.22498 -5.08211 0
M  V30 5960 H 552.775 -2.38171 -1.88436 0
M  V30 5961 H 550.36 -1.21128 -0.874548 0
M  V30 5962 H 552.242 -1.20684 -4.03749 0
M  V30 5963 H 550.917 -0.334289 -3.21969 0
M  V30 5964 H 549.824 -2.59201 -2.69751 0
M  V30 5965 H 551.157 -3.39606 -3.5627 0
M  V30 5966 N 552.809 0.956637 -1.25245 0
M  V30 5967 C 553.719 2.0868 -1.0719 0
M  V30 5968 C 554.735 1.73997 -0.00959074 0
M  V30 5969 O 555.911 2.00301 -0.210104 0
M  V30 5970 C 552.976 3.39754 -0.690526 0
M  V30 5971 C 552.037 3.88316 -1.83055 0
M  V30 5972 C 551.27 5.13134 -1.46728 0
M  V30 5973 O 551.493 5.6925 -0.362029 0
M  V30 5974 O 550.427 5.56356 -2.29677 0
M  V30 5975 H 554.253 2.26813 -2.01965 0
M  V30 5976 H 551.838 1.07098 -1.04165 0
M  V30 5977 H 553.72 4.18543 -0.489871 0
M  V30 5978 H 552.395 3.22896 0.227981 0
M  V30 5979 H 551.302 3.1054 -2.08604 0
M  V30 5980 H 552.635 4.09669 -2.72822 0
M  V30 5981 N 554.287 1.06798 1.15896 0
M  V30 5982 C 555.517 0.807522 1.90165 0
M  V30 5983 C 555.925 -0.642417 1.7796 0
M  V30 5984 O 555.268 -1.45193 1.12537 0
M  V30 5985 C 555.33 1.12939 3.41299 0
M  V30 5986 C 554.994 2.57879 3.7729 0
M  V30 5987 C 555.991 3.56118 3.78782 0
M  V30 5988 C 553.676 2.93311 4.07767 0
M  V30 5989 C 555.67 4.87827 4.10248 0
M  V30 5990 C 553.357 4.25219 4.38899 0
M  V30 5991 C 554.355 5.22287 4.4012 0
M  V30 5992 O 554.043 6.51826 4.70508 0
M  V30 5993 H 553.775 0.291946 0.609708 0
M  V30 5994 H 556.329 1.42627 1.47806 0
M  V30 5995 H 554.559 0.45359 3.84031 0
M  V30 5996 H 556.248 0.852363 3.9685 0
M  V30 5997 H 557.014 3.30086 3.55342 0
M  V30 5998 H 552.893 2.18409 4.05979 0
M  V30 5999 H 556.437 5.63586 4.11116 0
M  V30 6000 H 552.334 4.51006 4.61805 0
M  V30 6001 H 553.102 6.56893 4.88298 0
M  V30 6002 N 555.766 -1.3263 0.851289 0
M  V30 6003 C 556.696 -2.31449 0.308771 0
M  V30 6004 C 557.677 -1.59531 -0.590255 0
M  V30 6005 O 558.862 -1.87351 -0.511205 0
M  V30 6006 C 555.992 -3.43586 -0.506548 0
M  V30 6007 C 554.946 -4.26963 0.297753 0
M  V30 6008 C 554.272 -5.30831 -0.642094 0
M  V30 6009 C 555.572 -4.99643 1.52166 0
M  V30 6010 H 557.266 -2.77074 1.13447 0
M  V30 6011 H 554.812 -1.33207 0.546971 0
M  V30 6012 H 556.765 -4.11754 -0.896474 0
M  V30 6013 H 555.489 -2.96681 -1.36558 0
M  V30 6014 H 554.148 -3.60437 0.669391 0
M  V30 6015 H 553.796 -4.8018 -1.49788 0
M  V30 6016 H 553.496 -5.87501 -0.107968 0
M  V30 6017 H 555.02 -6.01862 -1.02927 0
M  V30 6018 H 556.434 -5.6051 1.20421 0
M  V30 6019 H 554.831 -5.66022 1.99347 0
M  V30 6020 H 555.901 -4.27701 2.28474 0
M  V30 6021 N 557.244 -0.608902 -1.45362 0
M  V30 6022 C 558.191 0.109172 -2.30542 0
M  V30 6023 C 559.161 0.858704 -1.42181 0
M  V30 6024 O 560.346 0.844178 -1.71109 0
M  V30 6025 C 557.486 1.09971 -3.27109 0
M  V30 6026 C 556.599 0.350911 -4.30572 0
M  V30 6027 C 555.734 1.33129 -5.14247 0
M  V30 6028 C 554.773 0.570377 -6.09437 0
M  V30 6029 N 553.91 1.5001 -6.85887 0
M  V30 6030 H 558.75 -0.623195 -2.91411 0
M  V30 6031 H 556.287 -0.319122 -1.43597 0
M  V30 6032 H 558.245 1.68714 -3.81564 0
M  V30 6033 H 556.875 1.79947 -2.67991 0
M  V30 6034 H 555.927 -0.352054 -3.78767 0
M  V30 6035 H 557.239 -0.242725 -4.98209 0
M  V30 6036 H 556.393 1.99074 -5.73109 0
M  V30 6037 H 555.132 1.95885 -4.46632 0
M  V30 6038 H 554.137 -0.102702 -5.49704 0
M  V30 6039 H 555.362 -0.0521607 -6.7908 0
M  V30 6040 H 553.308 2.11529 -6.2096 0
M  V30 6041 H 553.225 0.959934 -7.49881 0
M  V30 6042 H 554.493 2.14909 -7.49289 0
M  V30 6043 N 558.722 1.53707 -0.348139 0
M  V30 6044 C 559.67 2.26671 0.521808 0
M  V30 6045 C 560.664 1.28988 1.09811 0
M  V30 6046 O 561.87 1.4668 1.04332 0
M  V30 6047 H 558.245 0.728387 0.186968 0
M  V30 6048 H 560.216 2.98176 -0.115563 0
M  V30 6049 C 558.965 3.05591 1.6586 0
M  V30 6050 H 558.288 3.80589 1.22443 0
M  V30 6051 H 559.728 3.59851 2.24239 0
M  V30 6052 C 558.187 2.15366 2.59073 0
M  V30 6053 O 558.717 1.7528 3.61441 0
M  V30 6054 N 556.923 1.80352 2.27863 0
M  V30 6055 H 556.47 2.13149 1.44656 0
M  V30 6056 H 556.428 1.20268 2.90488 0
M  V30 6057 N 560.2 0.0768682 1.57412 0
M  V30 6058 C 561.425 -0.603404 1.98428 0
M  V30 6059 C 561.85 -1.62047 0.955108 0
M  V30 6060 O 561.208 -1.81129 -0.0786778 0
M  V30 6061 C 561.256 -1.24396 3.38464 0
M  V30 6062 O 560.36 -2.35982 3.3821 0
M  V30 6063 H 559.701 -0.154741 0.645718 0
M  V30 6064 H 562.231 0.152885 2.04028 0
M  V30 6065 H 562.241 -1.5896 3.7576 0
M  V30 6066 H 560.916 -0.498735 4.12899 0
M  V30 6067 H 559.493 -2.03173 3.1269 0
M  V30 6068 N 561.678 -1.56367 -0.196722 0
M  V30 6069 C 562.641 -1.93561 -1.22746 0
M  V30 6070 C 563.641 -0.816566 -1.38524 0
M  V30 6071 O 564.831 -1.084 -1.36363 0
M  V30 6072 C 561.963 -2.20823 -2.59712 0
M  V30 6073 H 563.156 -2.85774 -0.909586 0
M  V30 6074 H 560.709 -1.50032 -0.438174 0
M  V30 6075 H 561.444 -1.31243 -2.96557 0
M  V30 6076 H 561.229 -3.02368 -2.49632 0
M  V30 6077 H 562.719 -2.50608 -3.34044 0
M  V30 6078 N 563.156 0.464375 -1.50603 0
M  V30 6079 C 564.396 1.22573 -1.6357 0
M  V30 6080 C 564.76 1.89111 -0.331834 0
M  V30 6081 O 565.961 2.66679 -0.336999 0
M  V30 6082 C 564.232 2.23643 -2.7878 0
M  V30 6083 S 565.791 3.08628 -3.1192 0
M  V30 6084 H 562.609 0.416058 -0.576556 0
M  V30 6085 H 565.211 0.521637 -1.88412 0
M  V30 6086 H 563.915 1.73354 -3.7199 0
M  V30 6087 H 563.446 2.98672 -2.56044 0
M  V30 6088 H 565.461 4.24904 -2.56264 0
M  V30 6089 N 564.634 1.40294 0.718013 0
M  V30 6090 C 565.544 1.42678 1.86226 0
M  V30 6091 C 566.56 0.319655 1.71039 0
M  V30 6092 O 567.736 0.563852 1.93346 0
M  V30 6093 C 564.801 1.2852 3.21999 0
M  V30 6094 C 563.862 2.49354 3.49458 0
M  V30 6095 C 563.095 2.35863 4.78753 0
M  V30 6096 O 563.318 1.37114 5.53675 0
M  V30 6097 O 562.252 3.25189 5.06494 0
M  V30 6098 H 566.078 2.39167 1.87171 0
M  V30 6099 H 563.663 1.2159 0.868112 0
M  V30 6100 H 565.545 1.22824 4.03103 0
M  V30 6101 H 564.22 0.351359 3.21787 0
M  V30 6102 H 563.127 2.60628 2.68373 0
M  V30 6103 H 564.46 3.41491 3.54464 0
M  V30 6104 N 566.112 -0.949982 1.2575 0
M  V30 6105 C 567.389 -1.6718 1.01539 0
M  V30 6106 C 567.769 -2.06095 -0.456942 0
M  V30 6107 O 567.117 -1.77792 -1.43534 0
M  V30 6108 C 567.327 -2.8906 1.95564 0
M  V30 6109 C 568.675 -3.60909 2.23673 0
M  V30 6110 O 569.699 -2.9915 1.9336 0
M  V30 6111 O 568.558 -4.72127 2.75243 0
M  V30 6112 H 565.652 -0.731697 0.385419 0
M  V30 6113 H 568.198 -1.00249 1.36924 0
M  V30 6114 H 566.97 -2.57128 2.94959 0
M  V30 6115 H 566.593 -3.63719 1.60605 0
M  V30 6116 N 567.59 -1.07411 -1.15328 0
M  V30 6117 C 568.553 -0.698914 -2.18284 0
M  V30 6118 C 569.553 0.261149 -1.58665 0
M  V30 6119 O 570.743 0.0420277 -1.74149 0
M  V30 6120 C 567.875 -0.0302427 -3.40887 0
M  V30 6121 H 569.068 -1.61045 -2.52991 0
M  V30 6122 H 566.621 -0.870724 -1.298 0
M  V30 6123 H 567.356 0.893505 -3.11748 0
M  V30 6124 H 567.141 -0.720759 -3.85419 0
M  V30 6125 H 568.631 0.21759 -4.17033 0
M  V30 6126 N 569.068 1.32177 -0.85831 0
M  V30 6127 C 570.314 1.97813 -0.47346 0
M  V30 6128 C 570.669 1.66674 0.961122 0
M  V30 6129 O 569.962 0.94657 1.66585 0
M  V30 6130 C 570.156 3.51372 -0.653658 0
M  V30 6131 C 569.985 3.97433 -2.1042 0
M  V30 6132 C 568.755 4.24338 -2.74345 0
M  V30 6133 C 570.953 4.12233 -3.0752 0
M  V30 6134 N 568.935 4.56672 -4.10272 0
M  V30 6135 C 570.306 4.48146 -4.28445 0
M  V30 6136 C 572.361 3.94577 -3.03667 0
M  V30 6137 C 571.064 4.68246 -5.4602 0
M  V30 6138 C 573.09 4.15864 -4.20489 0
M  V30 6139 C 572.452 4.52098 -5.40173 0
M  V30 6140 H 568.551 0.749808 -0.222061 0
M  V30 6141 H 571.135 1.59927 -1.11047 0
M  V30 6142 H 569.306 3.88372 -0.0463267 0
M  V30 6143 H 571.038 4.03998 -0.238343 0
M  V30 6144 H 567.793 4.16544 -2.25362 0
M  V30 6145 H 568.217 4.77019 -4.80398 0
M  V30 6146 H 572.859 3.65662 -2.12252 0
M  V30 6147 H 570.577 4.96014 -6.37962 0
M  V30 6148 H 574.163 4.03702 -4.18947 0
M  V30 6149 H 573.043 4.68238 -6.29065 0
M  V30 6150 N 570.547 0.616602 1.45037 0
M  V30 6151 C 571.958 0.199359 1.85633 0
M  V30 6152 C 572.309 -1.24588 1.51566 0
M  V30 6153 O 571.434 -1.94594 0.94668 0
M  V30 6154 C 572.029 0.355033 3.36935 0
M  V30 6155 C 570.588 -0.00758748 3.76399 0
M  V30 6156 C 569.735 0.675256 2.68953 0
M  V30 6157 H 572.686 0.822708 1.3571 0
M  V30 6158 H 572.707 -0.410201 3.78282 0
M  V30 6159 H 572.219 1.40699 3.61698 0
M  V30 6160 H 570.32 -1.05837 3.57252 0
M  V30 6161 H 570.433 0.392346 4.77491 0
M  V30 6162 H 568.797 0.111992 2.54454 0
M  V30 6163 H 569.58 1.72952 2.96551 0
M  V30 6164 N 572.025 -1.5352 0.356285 0
M  V30 6165 C 573.25 -2.06007 -0.239961 0
M  V30 6166 C 573.675 -1.22872 -1.42422 0
M  V30 6167 O 573.033 -0.245516 -1.7963 0
M  V30 6168 C 573.081 -3.5522 -0.620587 0
M  V30 6169 O 572.185 -3.74864 -1.71902 0
M  V30 6170 H 571.526 -0.662961 -0.0371377 0
M  V30 6171 H 574.056 -1.98033 0.514194 0
M  V30 6172 H 574.066 -3.98081 -0.894197 0
M  V30 6173 H 572.741 -4.15175 0.245407 0
M  V30 6174 H 571.318 -3.43904 -1.44169 0
M  V30 6175 N 573.503 -0.0852151 -1.57369 0
M  V30 6176 C 574.433 0.874556 -2.16503 0
M  V30 6177 C 575.414 1.30111 -1.09568 0
M  V30 6178 O 576.599 1.36977 -1.37662 0
M  V30 6179 C 573.729 2.13731 -2.73745 0
M  V30 6180 C 572.683 1.84971 -3.85966 0
M  V30 6181 C 572.009 3.17991 -4.29867 0
M  V30 6182 C 573.309 1.14442 -5.09608 0
M  V30 6183 H 575.003 0.381899 -2.96954 0
M  V30 6184 H 572.549 0.18225 -1.42842 0
M  V30 6185 H 574.502 2.81302 -3.13763 0
M  V30 6186 H 573.226 2.65263 -1.90534 0
M  V30 6187 H 571.885 1.19801 -3.46473 0
M  V30 6188 H 571.533 3.6739 -3.4356 0
M  V30 6189 H 571.233 2.99534 -5.05523 0
M  V30 6190 H 572.757 3.86737 -4.72511 0
M  V30 6191 H 574.171 1.72105 -5.46857 0
M  V30 6192 H 572.568 1.06197 -5.90629 0
M  V30 6193 H 573.638 0.12559 -4.84737 0
M  V30 6194 N 574.981 1.5647 0.188427 0
M  V30 6195 C 575.913 1.91611 1.25769 0
M  V30 6196 C 576.926 0.807436 1.41366 0
M  V30 6197 O 578.115 1.08586 1.41673 0
M  V30 6198 C 575.215 2.13874 2.6289 0
M  V30 6199 C 574.388 3.45047 2.68815 0
M  V30 6200 C 573.447 3.56342 3.87178 0
M  V30 6201 O 572.473 4.29109 3.73971 0
M  V30 6202 N 573.675 2.89924 5.02916 0
M  V30 6203 H 576.44 2.8393 0.959373 0
M  V30 6204 H 574.001 1.57418 0.378306 0
M  V30 6205 H 575.993 2.18713 3.4051 0
M  V30 6206 H 574.563 1.28022 2.85183 0
M  V30 6207 H 573.783 3.52017 1.77419 0
M  V30 6208 H 575.071 4.31395 2.6977 0
M  V30 6209 H 574.469 2.30644 5.16546 0
M  V30 6210 H 573.026 3.0038 5.78459 0
M  V30 6211 N 576.459 -0.456382 1.50847 0
M  V30 6212 C 577.687 -1.23026 1.66349 0
M  V30 6213 C 578.102 -1.85473 0.352868 0
M  V30 6214 O 577.459 -1.69885 -0.666739 0
M  V30 6215 C 577.51 -2.32827 2.76539 0
M  V30 6216 O 577.231 -1.72938 4.02522 0
M  V30 6217 C 578.732 -3.23448 3.03144 0
M  V30 6218 H 575.952 -0.371527 0.558756 0
M  V30 6219 H 578.496 -0.543082 1.97157 0
M  V30 6220 H 576.651 -2.97294 2.48384 0
M  V30 6221 H 577.065 -2.45357 4.63573 0
M  V30 6222 H 578.539 -3.96669 3.83872 0
M  V30 6223 H 579.016 -3.83094 2.14793 0
M  V30 6224 H 579.622 -2.64702 3.32886 0
M  V30 6225 N 577.937 -1.40673 -0.710563 0
M  V30 6226 C 578.867 -1.44095 -1.83736 0
M  V30 6227 C 579.848 -0.301286 -1.67411 0
M  V30 6228 O 581.033 -0.510618 -1.87367 0
M  V30 6229 C 578.163 -1.30773 -3.21738 0
M  V30 6230 C 577.117 -2.42395 -3.52745 0
M  V30 6231 C 576.443 -2.14147 -4.89944 0
M  V30 6232 C 577.743 -3.84738 -3.53234 0
M  V30 6233 H 579.437 -2.38396 -1.81129 0
M  V30 6234 H 576.983 -1.14746 -0.870017 0
M  V30 6235 H 578.936 -1.31783 -4.00264 0
M  V30 6236 H 577.66 -0.329507 -3.24934 0
M  V30 6237 H 576.319 -2.40643 -2.76562 0
M  V30 6238 H 575.967 -1.14703 -4.89747 0
M  V30 6239 H 575.667 -2.88934 -5.11655 0
M  V30 6240 H 577.191 -2.16848 -5.70797 0
M  V30 6241 H 578.605 -3.88286 -4.2179 0
M  V30 6242 H 577.002 -4.59085 -3.86473 0
M  V30 6243 H 578.072 -4.13962 -2.52514 0
M  V30 6244 N 579.415 0.9433 -1.26252 0
M  V30 6245 C 580.664 1.68369 -1.11062 0
M  V30 6246 C 580.977 1.92514 0.346104 0
M  V30 6247 O 582.183 2.64358 0.618646 0
M  V30 6248 C 580.639 3.03171 -1.93946 0
M  V30 6249 C 580.247 2.86782 -3.4418 0
M  V30 6250 C 581.991 3.80916 -1.87359 0
M  V30 6251 C 579.898 4.17044 -4.19319 0
M  V30 6252 H 578.828 0.631469 -0.412023 0
M  V30 6253 H 581.479 1.04922 -1.50544 0
M  V30 6254 H 579.861 3.67587 -1.47296 0
M  V30 6255 H 581.035 2.31229 -3.98585 0
M  V30 6256 H 579.35 2.22482 -3.51981 0
M  V30 6257 H 581.947 4.77417 -2.40784 0
M  V30 6258 H 582.29 4.07658 -0.843857 0
M  V30 6259 H 582.823 3.2327 -2.31821 0
M  V30 6260 H 579.562 3.95487 -5.22753 0
M  V30 6261 H 579.082 4.72319 -3.69696 0
M  V30 6262 H 580.761 4.85513 -4.27651 0
M  V30 6263 N 580.893 1.08022 1.14757 0
M  V30 6264 C 581.823 0.728248 2.21853 0
M  V30 6265 C 582.804 -0.287486 1.67653 0
M  V30 6266 O 583.989 -0.158727 1.9355 0
M  V30 6267 C 581.119 0.132549 3.47047 0
M  V30 6268 C 580.073 1.07619 4.14249 0
M  V30 6269 C 579.399 0.342907 5.33599 0
M  V30 6270 C 580.699 2.41268 4.63235 0
M  V30 6271 H 582.393 1.62365 2.51551 0
M  V30 6272 H 579.939 0.782125 1.20908 0
M  V30 6273 H 581.892 -0.125665 4.21213 0
M  V30 6274 H 580.616 -0.797971 3.16702 0
M  V30 6275 H 579.275 1.31944 3.42033 0
M  V30 6276 H 578.923 -0.59129 4.99513 0
M  V30 6277 H 578.623 0.971955 5.79506 0
M  V30 6278 H 580.147 0.0926538 6.1053 0
M  V30 6279 H 581.561 2.21232 5.28894 0
M  V30 6280 H 579.958 2.9983 5.19829 0
M  V30 6281 H 581.028 3.03079 3.78512 0
M  V30 6282 N 582.371 -1.3172 0.865308 0
M  V30 6283 C 583.787 -1.4958 0.556596 0
M  V30 6284 C 583.987 -1.79763 -0.910353 0
M  V30 6285 O 583.043 -1.87351 -1.6928 0
M  V30 6286 C 584.356 -2.63277 1.45279 0
M  V30 6287 C 585.904 -2.77161 1.45433 0
M  V30 6288 C 586.379 -3.93949 2.33598 0
M  V30 6289 N 587.87 -4.01228 2.31453 0
M  V30 6290 C 588.605 -4.90855 2.96393 0
M  V30 6291 N 588.101 -5.85416 3.70486 0
M  V30 6292 N 589.894 -4.84063 2.85726 0
M  V30 6293 H 582.045 -1.10396 1.81456 0
M  V30 6294 H 584.308 -0.54507 0.775631 0
M  V30 6295 H 584.014 -2.47734 2.49641 0
M  V30 6296 H 583.888 -3.59309 1.14792 0
M  V30 6297 H 586.275 -2.9212 0.41831 0
M  V30 6298 H 586.356 -1.8181 1.79941 0
M  V30 6299 H 586 -3.79748 3.37274 0
M  V30 6300 H 585.93 -4.88598 1.96417 0
M  V30 6301 H 588.421 -3.3357 1.77593 0
M  V30 6302 H 588.734 -6.50525 4.17178 0
M  V30 6303 H 587.079 -5.85409 3.74594 0
M  V30 6304 H 590.27 -4.09163 2.27384 0
M  V30 6305 H 590.443 -5.53708 3.36617 0
M  V30 6306 N 583.85 -0.624285 -1.44708 0
M  V30 6307 C 584.782 0.12305 -2.28869 0
M  V30 6308 C 585.795 0.81557 -1.40898 0
M  V30 6309 O 586.984 0.678162 -1.65116 0
M  V30 6310 C 584.084 1.19612 -3.1709 0
M  V30 6311 C 583.257 0.587452 -4.33437 0
M  V30 6312 C 582.316 1.55358 -5.02743 0
M  V30 6313 O 581.341 1.07338 -5.58988 0
M  V30 6314 N 582.543 2.88798 -5.03563 0
M  V30 6315 H 585.308 -0.599193 -2.93649 0
M  V30 6316 H 582.87 -0.464954 -1.5508 0
M  V30 6317 H 584.861 1.84261 -3.60319 0
M  V30 6318 H 583.432 1.82067 -2.54107 0
M  V30 6319 H 582.652 -0.237509 -3.93484 0
M  V30 6320 H 583.94 0.161326 -5.08544 0
M  V30 6321 H 583.338 3.30399 -4.59188 0
M  V30 6322 H 581.894 3.48826 -5.50603 0
M  V30 6323 N 585.328 1.53329 -0.364422 0
M  V30 6324 C 586.276 2.27212 0.497737 0
M  V30 6325 C 587.27 1.30146 1.08437 0
M  V30 6326 O 588.476 1.47778 1.0277 0
M  V30 6327 H 584.851 0.730329 0.179232 0
M  V30 6328 H 586.822 2.98037 -0.147182 0
M  V30 6329 C 585.571 3.07333 1.6261 0
M  V30 6330 H 584.894 3.81866 1.184 0
M  V30 6331 H 586.334 3.62209 2.20409 0
M  V30 6332 C 584.793 2.18102 2.56775 0
M  V30 6333 O 585.323 1.79104 3.59562 0
M  V30 6334 N 583.529 1.82759 2.25937 0
M  V30 6335 H 583.076 2.14671 1.42387 0
M  V30 6336 H 583.034 1.23342 2.89196 0
M  V30 6337 N 586.806 0.0935595 1.57322 0
M  V30 6338 C 587.756 -0.876521 2.10478 0
M  V30 6339 C 588.74 -1.24482 1.01946 0
M  V30 6340 O 589.932 -1.22016 1.28223 0
M  V30 6341 C 587.061 -2.13615 2.68745 0
M  V30 6342 C 586.147 -1.79335 3.84317 0
M  V30 6343 N 586.538 -1.15606 4.92411 0
M  V30 6344 C 584.836 -2.08954 3.94023 0
M  V30 6345 C 585.537 -0.999036 5.73057 0
M  V30 6346 N 584.513 -1.51585 5.22037 0
M  V30 6347 H 588.315 -0.379829 2.91435 0
M  V30 6348 H 585.829 -0.109699 1.62029 0
M  V30 6349 H 587.826 -2.84053 3.05155 0
M  V30 6350 H 586.486 -2.63851 1.89242 0
M  V30 6351 H 587.497 -0.823063 5.11318 0
M  V30 6352 H 584.174 -2.61416 3.25527 0
M  V30 6353 H 585.564 -0.500772 6.70031 0
M  V30 6354 N 588.284 -1.56567 -0.180126 0
M  V30 6355 C 589.214 -1.98753 -1.22553 0
M  V30 6356 C 590.195 -0.86175 -1.46656 0
M  V30 6357 O 591.38 -1.12719 -1.58139 0
M  V30 6358 C 588.51 -2.33988 -2.56645 0
M  V30 6359 C 587.464 -3.49445 -2.47128 0
M  V30 6360 C 586.79 -3.70397 -3.8563 0
M  V30 6361 C 588.09 -4.83171 -1.98352 0
M  V30 6362 H 589.784 -2.86332 -0.874896 0
M  V30 6363 H 587.33 -1.37757 -0.419414 0
M  V30 6364 H 589.283 -2.62097 -3.29974 0
M  V30 6365 H 588.007 -1.43309 -2.93479 0
M  V30 6366 H 586.666 -3.2145 -1.76254 0
M  V30 6367 H 586.314 -2.77023 -4.19842 0
M  V30 6368 H 586.014 -4.48077 -3.80132 0
M  V30 6369 H 587.538 -4.00897 -4.60558 0
M  V30 6370 H 588.952 -5.10213 -2.61449 0
M  V30 6371 H 587.349 -5.64425 -2.03823 0
M  V30 6372 H 588.419 -4.75753 -0.937402 0
M  V30 6373 N 589.762 0.448376 -1.51087 0
M  V30 6374 C 590.725 1.52588 -1.71025 0
M  V30 6375 C 591.725 1.49958 -0.580442 0
M  V30 6376 O 592.915 1.52176 -0.847833 0
M  V30 6377 C 590.047 2.92163 -1.75652 0
M  V30 6378 H 591.24 1.36218 -2.67179 0
M  V30 6379 H 588.793 0.676313 -1.4091 0
M  V30 6380 H 589.528 3.13951 -0.812724 0
M  V30 6381 H 589.313 2.95478 -2.57751 0
M  V30 6382 H 590.803 3.70349 -1.92953 0
M  V30 6383 N 591.24 1.41047 0.703093 0
M  V30 6384 C 592.465 1.43537 1.49706 0
M  V30 6385 C 592.89 0.0401853 1.88057 0
M  V30 6386 O 592.248 -0.954785 1.54122 0
M  V30 6387 C 592.296 2.3433 2.74084 0
M  V30 6388 O 591.4 1.79515 3.71279 0
M  V30 6389 H 590.741 0.487454 0.450871 0
M  V30 6390 H 593.271 1.85422 0.86486 0
M  V30 6391 H 593.281 2.49947 3.22476 0
M  V30 6392 H 591.956 3.35708 2.45506 0
M  V30 6393 H 590.533 1.7331 3.30179 0
M  V30 6394 N 592.718 -0.936591 1.26751 0
M  V30 6395 C 593.648 -2.05315 1.11212 0
M  V30 6396 C 594.629 -1.70092 0.0160262 0
M  V30 6397 O 595.814 -1.93279 0.188894 0
M  V30 6398 C 592.944 -3.39123 0.749171 0
M  V30 6399 C 591.898 -3.88425 1.79751 0
M  V30 6400 C 591.224 -5.18936 1.28876 0
M  V30 6401 C 592.524 -4.12798 3.19992 0
M  V30 6402 H 594.218 -2.18573 2.04613 0
M  V30 6403 H 591.764 -1.05027 0.985159 0
M  V30 6404 H 593.717 -4.16704 0.627323 0
M  V30 6405 H 592.441 -3.25855 -0.220543 0
M  V30 6406 H 591.1 -3.13028 1.90811 0
M  V30 6407 H 590.748 -5.02051 0.308757 0
M  V30 6408 H 590.448 -5.52892 1.98958 0
M  V30 6409 H 591.972 -5.99096 1.17967 0
M  V30 6410 H 593.386 -4.80977 3.11983 0
M  V30 6411 H 591.783 -4.58044 3.87705 0
M  V30 6412 H 592.853 -3.18412 3.65707 0
M  V30 6413 N 594.196 -1.08629 -1.14182 0
M  V30 6414 C 595.106 -0.730126 -2.22949 0
M  V30 6415 C 596.122 0.26436 -1.7198 0
M  V30 6416 O 597.298 0.107742 -2.01112 0
M  V30 6417 C 594.363 -0.147227 -3.46387 0
M  V30 6418 C 593.424 -1.19662 -4.12286 0
M  V30 6419 C 592.657 -0.641437 -5.29831 0
M  V30 6420 O 592.88 0.538351 -5.67854 0
M  V30 6421 O 591.814 -1.39257 -5.85569 0
M  V30 6422 H 595.64 -1.63753 -2.55771 0
M  V30 6423 H 593.225 -0.860118 -1.22157 0
M  V30 6424 H 595.107 0.174923 -4.21037 0
M  V30 6425 H 593.782 0.733304 -3.15285 0
M  V30 6426 H 592.689 -1.57133 -3.395 0
M  V30 6427 H 594.022 -2.0495 -4.475 0
M  V30 6428 N 595.674 1.31259 -0.872281 0
M  V30 6429 C 596.621 2.28459 -0.327857 0
M  V30 6430 C 597.591 1.55831 0.574957 0
M  V30 6431 O 598.776 1.83965 0.506101 0
M  V30 6432 C 595.916 3.41985 0.462644 0
M  V30 6433 C 595.029 4.29458 -0.467949 0
M  V30 6434 C 594.164 5.30131 0.336903 0
M  V30 6435 C 593.203 6.0925 -0.58997 0
M  V30 6436 N 592.34 7.01872 0.178775 0
M  V30 6437 H 597.18 2.74414 -1.16193 0
M  V30 6438 H 594.717 1.34994 -0.584376 0
M  V30 6439 H 596.675 4.06547 0.936759 0
M  V30 6440 H 595.305 2.97134 1.2614 0
M  V30 6441 H 594.357 3.65318 -1.06052 0
M  V30 6442 H 595.669 4.84677 -1.17856 0
M  V30 6443 H 594.823 6.0038 0.873427 0
M  V30 6444 H 593.562 4.75573 1.08079 0
M  V30 6445 H 592.567 5.37889 -1.13823 0
M  V30 6446 H 593.792 6.65894 -1.33275 0
M  V30 6447 H 591.738 6.49721 0.905435 0
M  V30 6448 H 591.655 7.54522 -0.472452 0
M  V30 6449 H 592.923 7.76382 0.696454 0
M  V30 6450 N 597.152 0.631951 1.44375 0
M  V30 6451 C 598.38 0.143867 2.06399 0
M  V30 6452 C 598.795 -1.18188 1.47231 0
M  V30 6453 O 598.152 -1.72511 0.595498 0
M  V30 6454 C 598.203 0.0238253 3.61492 0
M  V30 6455 O 597.924 1.29715 4.18456 0
M  V30 6456 C 599.425 -0.492856 4.40552 0
M  V30 6457 H 596.645 0.0800542 0.666207 0
M  V30 6458 H 599.189 0.866586 1.85231 0
M  V30 6459 H 597.344 -0.649338 3.81919 0
M  V30 6460 H 597.758 1.14252 5.11905 0
M  V30 6461 H 599.232 -0.525861 5.49489 0
M  V30 6462 H 599.709 -1.52006 4.12057 0
M  V30 6463 H 600.315 0.147085 4.25046 0
M  V30 6464 N 598.631 -1.53133 0.372548 0
M  V30 6465 C 599.879 -2.00958 -0.214534 0
M  V30 6466 C 600.2 -1.26135 -1.48711 0
M  V30 6467 O 599.47 -0.376597 -1.92246 0
M  V30 6468 H 598.05 -0.742456 -0.0822664 0
M  V30 6469 H 600.712 -1.88367 0.500385 0
M  V30 6470 H 599.808 -3.09031 -0.436605 0
M  V30 6471 N 600.109 -0.101901 -1.5727 0
M  V30 6472 C 601.019 0.868647 -2.17926 0
M  V30 6473 C 602.035 1.30527 -1.1506 0
M  V30 6474 O 603.211 1.37178 -1.47459 0
M  V30 6475 C 600.276 2.10727 -2.75309 0
M  V30 6476 C 599.337 1.7242 -3.93154 0
M  V30 6477 C 598.57 2.90377 -4.47791 0
M  V30 6478 O 598.793 4.05305 -4.01353 0
M  V30 6479 O 597.727 2.6845 -5.38719 0
M  V30 6480 H 601.553 0.382544 -3.01281 0
M  V30 6481 H 599.138 0.122812 -1.48894 0
M  V30 6482 H 601.02 2.83303 -3.11958 0
M  V30 6483 H 599.695 2.58376 -1.94996 0
M  V30 6484 H 598.602 0.970039 -3.61305 0
M  V30 6485 H 599.935 1.29528 -4.74851 0
M  V30 6486 N 601.587 1.56661 0.17182 0
M  V30 6487 C 602.815 1.861 0.904115 0
M  V30 6488 C 603.23 0.687227 1.75848 0
M  V30 6489 O 602.587 -0.343671 1.79235 0
M  V30 6490 C 602.638 3.14568 1.78127 0
M  V30 6491 O 602.359 4.27422 0.961366 0
M  V30 6492 C 603.86 3.5735 2.62327 0
M  V30 6493 H 601.08 0.617445 0.262684 0
M  V30 6494 H 603.624 2.03775 0.172068 0
M  V30 6495 H 601.779 2.98721 2.46666 0
M  V30 6496 H 602.193 5.00725 1.56123 0
M  V30 6497 H 603.667 4.50144 3.1949 0
M  V30 6498 H 604.144 2.81445 3.37173 0
M  V30 6499 H 604.75 3.75807 1.99121 0
M  V30 6500 N 603.065 -0.440357 1.51323 0
M  V30 6501 C 603.995 -1.54174 1.75364 0
M  V30 6502 C 604.976 -1.59039 0.603375 0
M  V30 6503 O 606.161 -1.74815 0.845774 0
M  V30 6504 C 603.291 -2.92277 1.87593 0
M  V30 6505 C 602.245 -3.02274 3.03009 0
M  V30 6506 C 601.571 -4.42327 3.00418 0
M  V30 6507 C 602.871 -2.76634 4.43024 0
M  V30 6508 H 604.565 -1.34307 2.67585 0
M  V30 6509 H 602.111 -0.644678 1.28763 0
M  V30 6510 H 604.064 -3.69284 2.02995 0
M  V30 6511 H 602.788 -3.13369 0.920179 0
M  V30 6512 H 601.447 -2.27706 2.87307 0
M  V30 6513 H 601.095 -4.60382 2.02626 0
M  V30 6514 H 600.795 -4.49946 3.77918 0
M  V30 6515 H 602.319 -5.21312 3.17909 0
M  V30 6516 H 603.733 -3.43376 4.59093 0
M  V30 6517 H 602.13 -2.95666 5.22208 0
M  V30 6518 H 603.2 -1.72262 4.5327 0
M  V30 6519 N 604.543 -1.41418 -0.695603 0
M  V30 6520 C 605.473 -1.46035 -1.82197 0
M  V30 6521 C 606.454 -0.319025 -1.67082 0
M  V30 6522 O 607.639 -0.530462 -1.86815 0
M  V30 6523 C 604.769 -1.34179 -3.20333 0
M  V30 6524 C 603.723 -2.46123 -3.50154 0
M  V30 6525 C 603.049 -2.19332 -4.87645 0
M  V30 6526 C 604.349 -3.88463 -3.49133 0
M  V30 6527 H 606.043 -2.40303 -1.78591 0
M  V30 6528 H 603.589 -1.15663 -0.857797 0
M  V30 6529 H 605.542 -1.36021 -3.98844 0
M  V30 6530 H 604.266 -0.363952 -3.24566 0
M  V30 6531 H 602.925 -2.43563 -2.73994 0
M  V30 6532 H 602.573 -1.19891 -4.88503 0
M  V30 6533 H 602.273 -2.94344 -5.08562 0
M  V30 6534 H 603.797 -2.22889 -5.68465 0
M  V30 6535 H 605.211 -3.92738 -4.17648 0
M  V30 6536 H 603.608 -4.63158 -3.81582 0
M  V30 6537 H 604.678 -4.16617 -2.48109 0
M  V30 6538 N 606.021 0.929856 -1.27246 0
M  V30 6539 C 607.249 1.71144 -1.16265 0
M  V30 6540 C 607.664 1.867 0.280786 0
M  V30 6541 O 607.021 1.38249 1.19136 0
M  V30 6542 C 607.072 3.11222 -1.83911 0
M  V30 6543 O 606.793 2.96398 -3.22614 0
M  V30 6544 C 608.294 4.05541 -1.79028 0
M  V30 6545 H 605.514 0.535499 -0.404328 0
M  V30 6546 H 608.058 1.16492 -1.68077 0
M  V30 6547 H 606.213 3.6274 -1.36009 0
M  V30 6548 H 606.627 3.8494 -3.56261 0
M  V30 6549 H 608.101 5.01351 -2.30978 0
M  V30 6550 H 608.578 4.32589 -0.759168 0
M  V30 6551 H 609.184 3.59947 -2.26535 0
M  V30 6552 N 607.499 1.09233 1.13605 0
M  V30 6553 C 608.429 0.751738 2.21068 0
M  V30 6554 C 609.41 -0.269688 1.67948 0
M  V30 6555 O 610.595 -0.13819 1.93708 0
M  V30 6556 C 607.725 0.16935 3.46887 0
M  V30 6557 C 606.679 1.12007 4.13084 0
M  V30 6558 C 606.005 0.399483 5.33206 0
M  V30 6559 C 607.305 2.46168 4.6065 0
M  V30 6560 H 608.999 1.65024 2.49815 0
M  V30 6561 H 606.545 0.794905 1.20072 0
M  V30 6562 H 608.498 -0.0809824 4.21322 0
M  V30 6563 H 607.222 -0.764335 3.1753 0
M  V30 6564 H 605.881 1.35564 3.40614 0
M  V30 6565 H 605.529 -0.538277 5.00112 0
M  V30 6566 H 605.229 1.03337 5.78442 0
M  V30 6567 H 606.753 0.157403 6.10397 0
M  V30 6568 H 608.167 2.26829 5.26518 0
M  V30 6569 H 606.564 3.05326 5.1662 0
M  V30 6570 H 607.634 3.07076 3.75276 0
M  V30 6571 N 608.977 -1.30795 0.87923 0
M  V30 6572 C 609.924 -2.28282 0.339968 0
M  V30 6573 C 610.894 -1.56134 -0.566685 0
M  V30 6574 O 612.079 -1.84231 -0.496338 0
M  V30 6575 C 609.219 -3.42225 -0.444501 0
M  V30 6576 C 608.332 -4.29204 0.490717 0
M  V30 6577 C 607.467 -5.30302 -0.308784 0
M  V30 6578 C 606.506 -6.08929 0.622272 0
M  V30 6579 N 605.643 -7.01957 -0.14155 0
M  V30 6580 H 610.483 -2.73794 1.17647 0
M  V30 6581 H 608.02 -1.34682 0.591527 0
M  V30 6582 H 609.978 -4.07038 -0.915186 0
M  V30 6583 H 608.608 -2.97799 -1.24562 0
M  V30 6584 H 607.66 -3.6475 1.07988 0
M  V30 6585 H 608.972 -4.84045 1.20425 0
M  V30 6586 H 608.126 -6.00835 -0.841575 0
M  V30 6587 H 606.865 -4.7614 -1.05556 0
M  V30 6588 H 605.87 -5.37278 1.16674 0
M  V30 6589 H 607.095 -6.65178 1.36804 0
M  V30 6590 H 605.041 -6.50192 -0.870966 0
M  V30 6591 H 604.958 -7.54261 0.51246 0
M  V30 6592 H 606.226 -7.76741 -0.655271 0
M  V30 6593 N 610.455 -0.639598 -1.44038 0
M  V30 6594 C 611.403 0.0723409 -2.32487 0
M  V30 6595 C 612.397 0.827129 -1.47834 0
M  V30 6596 O 613.603 0.73907 -1.64127 0
M  V30 6597 H 609.978 0.0421696 -0.750817 0
M  V30 6598 H 611.949 -0.691593 -2.90275 0
M  V30 6599 C 610.698 1.03452 -3.31953 0
M  V30 6600 H 610.021 0.46315 -3.97108 0
M  V30 6601 H 611.461 1.502 -3.96505 0
M  V30 6602 C 609.92 2.12392 -2.61518 0
M  V30 6603 O 610.45 3.2059 -2.42044 0
M  V30 6604 N 608.656 1.88563 -2.21116 0
M  V30 6605 H 608.203 1.00577 -2.37154 0
M  V30 6606 H 608.161 2.61651 -1.74316 0
M  V30 6607 N 611.933 1.52934 -0.380664 0
M  V30 6608 C 612.863 2.29118 0.450268 0
M  V30 6609 C 613.844 1.32153 1.07096 0
M  V30 6610 O 615.029 1.61038 1.08537 0
M  V30 6611 C 612.159 3.09161 1.58231 0
M  V30 6612 C 611.113 4.13938 1.0881 0
M  V30 6613 C 610.439 4.82153 2.31155 0
M  V30 6614 C 611.739 5.22048 0.162146 0
M  V30 6615 H 613.433 2.98826 -0.185361 0
M  V30 6616 H 610.979 1.43715 -0.0905886 0
M  V30 6617 H 612.932 3.61211 2.17036 0
M  V30 6618 H 611.656 2.3717 2.2454 0
M  V30 6619 H 610.315 3.62855 0.522633 0
M  V30 6620 H 609.963 4.06719 2.95953 0
M  V30 6621 H 609.663 5.52966 1.98752 0
M  V30 6622 H 611.187 5.37004 2.90618 0
M  V30 6623 H 612.601 5.6951 0.658126 0
M  V30 6624 H 610.998 6.00057 -0.0717122 0
M  V30 6625 H 612.068 4.78398 -0.791438 0
M  V30 6626 N 613.412 0.11024 1.57214 0
M  V30 6627 C 614.64 -0.557834 1.99238 0
M  V30 6628 C 615.055 -1.60778 0.989734 0
M  V30 6629 O 614.412 -1.82491 -0.0186092 0
M  V30 6630 C 614.463 -1.19189 3.41286 0
M  V30 6631 O 614.184 -0.183919 4.37714 0
M  V30 6632 C 615.685 -1.94413 3.98395 0
M  V30 6633 H 612.905 -0.148392 0.654386 0
M  V30 6634 H 615.449 0.193996 2.03578 0
M  V30 6635 H 613.604 -1.89456 3.37913 0
M  V30 6636 H 614.018 -0.643475 5.20538 0
M  V30 6637 H 615.492 -2.34116 4.99894 0
M  V30 6638 H 615.969 -2.81592 3.3705 0
M  V30 6639 H 616.575 -1.28928 4.05287 0
M  V30 6640 N 614.89 -1.56749 -0.16351 0
M  V30 6641 C 615.838 -1.97939 -1.22159 0
M  V30 6642 C 616.832 -0.869288 -1.45395 0
M  V30 6643 O 618.038 -1.05443 -1.45883 0
M  V30 6644 H 614.413 -0.629869 -0.410815 0
M  V30 6645 H 616.384 -2.86115 -0.847381 0
M  V30 6646 C 615.133 -2.36206 -2.55151 0
M  V30 6647 H 614.456 -3.2117 -2.38097 0
M  V30 6648 H 615.896 -2.68863 -3.27854 0
M  V30 6649 C 614.355 -1.20841 -3.14482 0
M  V30 6650 O 614.885 -0.500258 -3.98573 0
M  V30 6651 N 613.091 -0.976943 -2.73686 0
M  V30 6652 H 612.638 -1.55457 -2.05404 0
M  V30 6653 H 612.596 -0.206912 -3.13718 0
M  V30 6654 N 616.368 0.432326 -1.51554 0
M  V30 6655 C 617.617 1.17831 -1.63703 0
M  V30 6656 C 617.93 1.92229 -0.36156 0
M  V30 6657 O 619.136 2.69069 -0.362495 0
M  V30 6658 C 617.592 2.14318 -2.89129 0
M  V30 6659 C 617.2 1.45544 -4.23699 0
M  V30 6660 C 618.944 2.89319 -3.10636 0
M  V30 6661 C 616.851 2.40545 -5.4027 0
M  V30 6662 H 615.781 0.443533 -0.60975 0
M  V30 6663 H 618.432 0.444878 -1.78026 0
M  V30 6664 H 616.814 2.91117 -2.68452 0
M  V30 6665 H 617.988 0.742693 -4.54775 0
M  V30 6666 H 616.303 0.826772 -4.0811 0
M  V30 6667 H 618.9 3.60495 -3.94902 0
M  V30 6668 H 619.243 3.50951 -2.23918 0
M  V30 6669 H 619.776 2.19625 -3.31677 0
M  V30 6670 H 616.515 1.83594 -6.29264 0
M  V30 6671 H 616.035 3.09859 -5.13563 0
M  V30 6672 H 617.714 3.01569 -5.72421 0
M  V30 6673 N 617.846 1.41785 0.688094 0
M  V30 6674 C 619.123 1.32031 1.44316 0
M  V30 6675 C 619.503 -0.0486079 2.11044 0
M  V30 6676 O 618.851 -1.06332 2.02252 0
M  V30 6677 C 619.061 2.47906 2.45649 0
M  V30 6678 C 620.409 2.89415 3.10683 0
M  V30 6679 O 621.433 2.477 2.55975 0
M  V30 6680 O 620.292 3.61573 4.09789 0
M  V30 6681 H 617.386 0.519994 0.643067 0
M  V30 6682 H 619.932 1.53765 0.71794 0
M  V30 6683 H 618.704 3.39222 1.95048 0
M  V30 6684 H 618.327 2.28089 3.25671 0
M  V30 6685 N 619.324 -0.923095 1.27737 0
M  V30 6686 C 620.573 -1.66581 1.13727 0
M  V30 6687 C 620.886 -1.9304 -0.315433 0
M  V30 6688 O 622.092 -2.65309 -0.57651 0
M  V30 6689 C 620.548 -3.00047 1.98745 0
M  V30 6690 C 620.156 -2.8127 3.48699 0
M  V30 6691 C 621.9 -3.77887 1.93395 0
M  V30 6692 C 619.807 -4.1032 4.25901 0
M  V30 6693 H 618.737 -0.624834 0.422017 0
M  V30 6694 H 621.388 -1.02514 1.52194 0
M  V30 6695 H 619.77 -3.65197 1.53125 0
M  V30 6696 H 620.944 -2.24859 4.02213 0
M  V30 6697 H 619.259 -2.16854 3.55476 0
M  V30 6698 H 621.856 -4.73526 2.48348 0
M  V30 6699 H 622.199 -4.06264 0.908605 0
M  V30 6700 H 622.732 -3.19541 2.36935 0
M  V30 6701 H 619.471 -3.8712 5.28978 0
M  V30 6702 H 618.991 -4.66377 3.77163 0
M  V30 6703 H 620.67 -4.78648 4.35321 0
M  V30 6704 N 620.802 -1.09834 -1.13024 0
M  V30 6705 C 622.027 -0.85909 -1.88771 0
M  V30 6706 C 622.452 0.584402 -1.78791 0
M  V30 6707 O 621.81 1.41101 -1.13842 0
M  V30 6708 C 621.858 -1.30427 -3.36186 0
M  V30 6709 O 620.962 -0.465368 -4.09766 0
M  V30 6710 H 620.303 -0.310786 -0.586778 0
M  V30 6711 H 622.833 -1.46355 -1.42973 0
M  V30 6712 H 622.843 -1.2915 -3.8702 0
M  V30 6713 H 621.518 -2.3555 -3.42767 0
M  V30 6714 H 620.095 -0.542814 -3.68928 0
M  V30 6715 N 622.28 1.30327 -0.886154 0
M  V30 6716 C 623.227 2.28099 -0.352069 0
M  V30 6717 C 624.197 1.56433 0.558397 0
M  V30 6718 O 625.382 1.84492 0.486561 0
M  V30 6719 C 622.522 3.42456 0.426346 0
M  V30 6720 C 621.635 4.28938 -0.513472 0
M  V30 6721 C 620.77 5.30458 0.280657 0
M  V30 6722 C 619.809 6.0859 -0.654556 0
M  V30 6723 N 618.946 7.02022 0.104322 0
M  V30 6724 H 623.786 2.73166 -1.19097 0
M  V30 6725 H 621.323 1.34367 -0.598662 0
M  V30 6726 H 623.281 4.07518 0.893587 0
M  V30 6727 H 621.911 2.98455 1.22981 0
M  V30 6728 H 620.963 3.64173 -1.09921 0
M  V30 6729 H 622.275 4.83399 -1.2299 0
M  V30 6730 H 621.429 6.01273 0.8097 0
M  V30 6731 H 620.168 4.76693 1.03029 0
M  V30 6732 H 619.173 5.36651 -1.19522 0
M  V30 6733 H 620.398 6.64443 -1.4033 0
M  V30 6734 H 618.344 6.50645 0.836472 0
M  V30 6735 H 618.261 7.53979 -0.552453 0
M  V30 6736 H 619.529 7.77077 0.614069 0
M  V30 6737 N 623.758 0.647228 1.43697 0
M  V30 6738 C 624.706 -0.0600105 2.32523 0
M  V30 6739 C 625.7 -0.819277 1.48271 0
M  V30 6740 O 626.906 -0.730356 1.64517 0
M  V30 6741 H 623.281 -0.0381872 0.75103 0
M  V30 6742 H 625.252 0.706978 2.89904 0
M  V30 6743 C 624.001 -1.0169 3.32497 0
M  V30 6744 H 623.324 -0.442083 3.97348 0
M  V30 6745 H 624.764 -1.48095 3.97296 0
M  V30 6746 C 623.223 -2.11002 2.6264 0
M  V30 6747 O 623.753 -3.19302 2.4374 0
M  V30 6748 N 621.959 -1.87388 2.22113 0
M  V30 6749 H 621.506 -0.993174 2.37684 0
M  V30 6750 H 621.464 -2.60723 1.75701 0
M  V30 6751 N 625.236 -1.5273 0.388769 0
M  V30 6752 C 626.461 -2.0647 -0.19621 0
M  V30 6753 C 626.886 -1.25865 -1.39784 0
M  V30 6754 O 626.244 -0.283562 -1.79069 0
M  V30 6755 C 626.292 -3.56456 -0.5451 0
M  V30 6756 O 625.396 -3.78426 -1.63912 0
M  V30 6757 H 624.737 -0.663599 -0.023067 0
M  V30 6758 H 627.267 -1.96898 0.556084 0
M  V30 6759 H 627.277 -3.99888 -0.809557 0
M  V30 6760 H 625.952 -4.14561 0.333417 0
M  V30 6761 H 624.529 -3.46884 -1.36842 0
M  V30 6762 N 626.714 -0.118576 -1.57153 0
M  V30 6763 C 627.961 0.539526 -1.9518 0
M  V30 6764 C 628.289 1.66714 -1.00184 0
M  V30 6765 O 627.544 1.95683 -0.0256482 0
M  V30 6766 C 627.843 1.11303 -3.39627 0
M  V30 6767 C 627.509 0.106809 -4.50773 0
M  V30 6768 C 626.171 -0.169876 -4.809 0
M  V30 6769 C 628.523 -0.57895 -5.17975 0
M  V30 6770 C 625.851 -1.13861 -5.75545 0
M  V30 6771 C 628.203 -1.53631 -6.13661 0
M  V30 6772 C 626.867 -1.82099 -6.42181 0
M  V30 6773 H 626.137 0.197427 -0.714215 0
M  V30 6774 H 628.784 -0.199391 -1.90459 0
M  V30 6775 H 627.089 1.92869 -3.4104 0
M  V30 6776 H 628.786 1.63032 -3.66363 0
M  V30 6777 H 625.376 0.332645 -4.27307 0
M  V30 6778 H 629.56 -0.378359 -4.94856 0
M  V30 6779 H 624.816 -1.36592 -5.95947 0
M  V30 6780 H 628.99 -2.07337 -6.64819 0
M  V30 6781 H 626.617 -2.57319 -7.15326 0
M  V30 6782 N 628.193 1.56834 0.155195 0
M  V30 6783 C 629.143 1.94061 1.19684 0
M  V30 6784 C 630.127 0.810851 1.38975 0
M  V30 6785 O 631.319 1.07422 1.40675 0
M  V30 6786 C 628.448 2.31778 2.53247 0
M  V30 6787 C 627.534 3.51305 2.37583 0
M  V30 6788 N 627.925 4.68081 1.9166 0
M  V30 6789 C 626.223 3.56228 2.6836 0
M  V30 6790 C 626.924 5.50193 1.88845 0
M  V30 6791 N 625.9 4.91676 2.31852 0
M  V30 6792 H 629.702 2.81826 0.833747 0
M  V30 6793 H 627.216 1.58284 0.363328 0
M  V30 6794 H 629.213 2.56649 3.28538 0
M  V30 6795 H 627.873 1.4536 2.90346 0
M  V30 6796 H 628.884 4.91993 1.6175 0
M  V30 6797 H 625.561 2.8033 3.09389 0
M  V30 6798 H 626.951 6.53801 1.54901 0
M  V30 6799 N 629.671 -0.424282 1.51781 0
M  V30 6800 C 630.896 -1.19928 1.6921 0
M  V30 6801 C 631.321 -1.8392 0.394355 0
M  V30 6802 O 630.679 -1.69371 -0.646778 0
M  V30 6803 C 630.727 -2.24937 2.81843 0
M  V30 6804 O 629.831 -3.3073 2.46356 0
M  V30 6805 H 629.172 -0.35078 0.563781 0
M  V30 6806 H 631.702 -0.499401 1.98412 0
M  V30 6807 H 631.712 -2.69512 3.06312 0
M  V30 6808 H 630.387 -1.77742 3.76006 0
M  V30 6809 H 628.964 -2.9154 2.32505 0
M  V30 6810 N 631.149 -1.42148 -0.680565 0
M  V30 6811 C 632.082 -1.39602 -1.80517 0
M  V30 6812 C 633.06 -0.261098 -1.6049 0
M  V30 6813 O 634.244 -0.450404 -1.8304 0
M  V30 6814 C 631.371 -1.18134 -3.1743 0
M  V30 6815 C 630.417 -2.34543 -3.56219 0
M  V30 6816 S 631.25 -3.97063 -3.59306 0
M  V30 6817 C 632.406 -3.77926 -4.98921 0
M  V30 6818 H 632.639 -2.3477 -1.82402 0
M  V30 6819 H 630.172 -1.28851 -0.850691 0
M  V30 6820 H 632.13 -1.06434 -3.96462 0
M  V30 6821 H 630.791 -0.245611 -3.13138 0
M  V30 6822 H 629.984 -2.15255 -4.55721 0
M  V30 6823 H 629.586 -2.42728 -2.84533 0
M  V30 6824 H 631.878 -3.3856 -5.86842 0
M  V30 6825 H 632.821 -4.77084 -5.23256 0
M  V30 6826 H 633.229 -3.10904 -4.71167 0
M  V30 6827 N 632.627 0.916307 -1.28225 0
M  V30 6828 C 634.038 1.48024 -1.13779 0
M  V30 6829 C 634.389 1.94289 0.273139 0
M  V30 6830 O 633.514 1.82226 1.16716 0
M  V30 6831 C 634.109 2.69029 -2.05935 0
M  V30 6832 C 632.668 3.2161 -1.95561 0
M  V30 6833 C 631.815 1.94321 -1.97825 0
M  V30 6834 H 634.766 0.729272 -1.40951 0
M  V30 6835 H 634.787 3.44204 -1.62184 0
M  V30 6836 H 634.299 2.35325 -3.08616 0
M  V30 6837 H 632.4 3.60045 -0.959076 0
M  V30 6838 H 632.513 3.87032 -2.82388 0
M  V30 6839 H 630.877 2.1131 -1.42198 0
M  V30 6840 H 631.66 1.62917 -3.0218 0
M  V30 6841 N 634.105 1.10431 1.1244 0
M  V30 6842 C 635.015 0.765502 2.21759 0
M  V30 6843 C 636.031 -0.236966 1.72379 0
M  V30 6844 O 637.207 -0.0757329 2.01258 0
M  V30 6845 C 634.272 0.202316 3.46109 0
M  V30 6846 C 633.333 1.26205 4.1033 0
M  V30 6847 C 632.566 0.725648 5.28744 0
M  V30 6848 O 632.789 -0.447942 5.68638 0
M  V30 6849 O 631.723 1.48555 5.83279 0
M  V30 6850 H 635.549 1.67801 2.53133 0
M  V30 6851 H 633.134 0.879443 1.20773 0
M  V30 6852 H 635.016 -0.107918 4.21262 0
M  V30 6853 H 633.691 -0.683052 3.16411 0
M  V30 6854 H 632.598 1.62514 3.36957 0
M  V30 6855 H 633.931 2.12044 4.44183 0
M  V30 6856 N 635.583 -1.29855 0.893053 0
M  V30 6857 C 636.811 -1.99976 0.530788 0
M  V30 6858 C 637.226 -1.66889 -0.882799 0
M  V30 6859 O 636.583 -0.910352 -1.58173 0
M  V30 6860 C 636.634 -3.54547 0.705587 0
M  V30 6861 O 636.355 -3.86458 2.06353 0
M  V30 6862 C 637.856 -4.41937 0.347387 0
M  V30 6863 H 635.076 -0.639129 0.204339 0
M  V30 6864 H 637.62 -1.65549 1.20057 0
M  V30 6865 H 635.775 -3.87311 0.0830685 0
M  V30 6866 H 636.189 -4.81146 2.08803 0
M  V30 6867 H 637.663 -5.4954 0.520557 0
M  V30 6868 H 638.14 -4.33339 -0.715139 0
M  V30 6869 H 638.746 -4.14633 0.946567 0
M  V30 6870 N 637.061 -0.65484 -1.43351 0
M  V30 6871 C 638.301 -0.172514 -2.03671 0
M  V30 6872 C 638.665 1.19154 -1.50553 0
M  V30 6873 O 639.866 1.76737 -2.02528 0
M  V30 6874 C 638.137 -0.183982 -3.56926 0
M  V30 6875 S 639.696 0.230262 -4.38195 0
M  V30 6876 H 636.514 -0.0727503 -0.707268 0
M  V30 6877 H 639.116 -0.863537 -1.75395 0
M  V30 6878 H 637.82 -1.17945 -3.93087 0
M  V30 6879 H 637.351 0.527527 -3.89847 0
M  V30 6880 H 639.366 1.46874 -4.73965 0
M  V30 6881 N 638.539 1.52521 -0.396863 0
M  V30 6882 C 639.471 2.24333 0.469814 0
M  V30 6883 C 640.484 1.2685 1.02043 0
M  V30 6884 O 641.673 1.52876 0.92147 0
M  V30 6885 C 638.773 2.95202 1.66461 0
M  V30 6886 C 637.946 4.19454 1.24003 0
M  V30 6887 C 637.005 4.73255 2.30036 0
M  V30 6888 O 636.031 5.36151 1.91131 0
M  V30 6889 N 637.233 4.53765 3.62047 0
M  V30 6890 H 639.998 2.99347 -0.145468 0
M  V30 6891 H 637.559 1.60348 -0.223606 0
M  V30 6892 H 639.551 3.28092 2.36934 0
M  V30 6893 H 638.121 2.2345 2.18607 0
M  V30 6894 H 637.341 3.92517 0.363892 0
M  V30 6895 H 638.629 5.0017 0.933135 0
M  V30 6896 H 638.027 4.03576 3.96412 0
M  V30 6897 H 636.584 4.91124 4.28533 0
M  V30 6898 N 640.017 0.126909 1.57088 0
M  V30 6899 C 641.263 -0.523662 1.96543 0
M  V30 6900 C 641.618 -1.63783 1.0096 0
M  V30 6901 O 640.911 -1.91556 0.0410175 0
M  V30 6902 C 641.105 -1.095 3.40212 0
M  V30 6903 C 640.934 -0.037715 4.49684 0
M  V30 6904 C 639.704 0.396823 5.03739 0
M  V30 6905 C 641.902 0.746245 5.08857 0
M  V30 6906 N 639.884 1.43905 5.96795 0
M  V30 6907 C 641.255 1.63947 5.97931 0
M  V30 6908 C 643.31 0.796259 4.91492 0
M  V30 6909 C 642.013 2.57837 6.715 0
M  V30 6910 C 644.039 1.7229 5.65747 0
M  V30 6911 C 643.401 2.60369 6.54513 0
M  V30 6912 H 639.5 -0.161016 0.765244 0
M  V30 6913 H 642.084 0.21686 1.93489 0
M  V30 6914 H 640.255 -1.80521 3.43899 0
M  V30 6915 H 641.987 -1.71054 3.66773 0
M  V30 6916 H 638.742 0.00290406 4.736 0
M  V30 6917 H 639.166 1.95932 6.48027 0
M  V30 6918 H 643.808 0.129412 4.22602 0
M  V30 6919 H 641.526 3.25532 7.39631 0
M  V30 6920 H 645.112 1.76715 5.54313 0
M  V30 6921 H 643.992 3.30906 7.10965 0
M  V30 6922 N 641.495 -1.56914 -0.146875 0
M  V30 6923 C 642.906 -1.72799 -0.706928 0
M  V30 6924 C 643.257 -0.741329 -1.81656 0
M  V30 6925 O 642.382 0.0920162 -2.16204 0
M  V30 6926 C 642.977 -3.13317 -1.28911 0
M  V30 6927 C 641.536 -3.30803 -1.79573 0
M  V30 6928 C 640.683 -2.68725 -0.684252 0
M  V30 6929 H 643.634 -1.58504 0.0787931 0
M  V30 6930 H 643.655 -3.13323 -2.15891 0
M  V30 6931 H 643.167 -3.85104 -0.481284 0
M  V30 6932 H 641.268 -2.64012 -2.62923 0
M  V30 6933 H 641.381 -4.38754 -1.92436 0
M  V30 6934 H 639.745 -2.29196 -1.11091 0
M  V30 6935 H 640.528 -3.43117 0.112134 0
M  V30 6936 N 642.974 0.416227 -1.52004 0
M  V30 6937 C 643.884 1.53147 -1.77717 0
M  V30 6938 C 644.9 1.609 -0.662368 0
M  V30 6939 O 646.076 1.77747 -0.946991 0
M  V30 6940 C 643.141 2.88948 -1.91598 0
M  V30 6941 C 642.202 2.9114 -3.15493 0
M  V30 6942 C 641.435 4.20464 -3.28703 0
M  V30 6943 O 641.658 5.13981 -2.47345 0
M  V30 6944 O 640.592 4.29368 -4.21813 0
M  V30 6945 H 644.418 1.34357 -2.72363 0
M  V30 6946 H 642.003 0.601373 -1.36762 0
M  V30 6947 H 643.885 3.69505 -2.02593 0
M  V30 6948 H 642.56 3.07821 -1.00141 0
M  V30 6949 H 641.467 2.09461 -3.09962 0
M  V30 6950 H 642.8 2.77216 -4.06709 0
M  V30 6951 N 644.452 1.42507 0.673017 0
M  V30 6952 C 645.399 1.46124 1.78651 0
M  V30 6953 C 646.369 0.313007 1.63124 0
M  V30 6954 O 647.554 0.517337 1.83653 0
M  V30 6955 C 644.694 1.3711 3.16694 0
M  V30 6956 C 643.807 2.61983 3.43495 0
M  V30 6957 C 642.942 2.45098 4.71275 0
M  V30 6958 C 641.981 3.65336 4.91117 0
M  V30 6959 N 641.118 3.47383 6.10139 0
M  V30 6960 H 645.958 2.4128 1.74895 0
M  V30 6961 H 643.495 1.19788 0.853766 0
M  V30 6962 H 645.453 1.29881 3.96468 0
M  V30 6963 H 644.083 0.45549 3.1957 0
M  V30 6964 H 643.135 2.79571 2.57961 0
M  V30 6965 H 644.447 3.51355 3.5405 0
M  V30 6966 H 643.601 2.35466 5.59143 0
M  V30 6967 H 642.34 1.53219 4.63007 0
M  V30 6968 H 641.345 3.754 4.0169 0
M  V30 6969 H 642.57 4.58199 5.01229 0
M  V30 6970 H 640.516 2.58222 6.0304 0
M  V30 6971 H 640.433 4.30344 6.21563 0
M  V30 6972 H 641.701 3.41565 7.00681 0
M  V30 6973 N 645.93 -0.909495 1.28709 0
M  V30 6974 C 646.863 -2.01388 1.07323 0
M  V30 6975 C 647.841 -1.62596 -0.0119757 0
M  V30 6976 O 649.025 -1.88003 0.136796 0
M  V30 6977 C 646.152 -3.32755 0.631797 0
M  V30 6978 C 645.198 -3.90532 1.71428 0
M  V30 6979 S 646.031 -4.20853 3.31124 0
M  V30 6980 C 647.187 -5.55276 2.88825 0
M  V30 6981 H 647.42 -2.19219 2.00824 0
M  V30 6982 H 644.953 -1.05489 1.12745 0
M  V30 6983 H 646.911 -4.08702 0.38381 0
M  V30 6984 H 645.572 -3.12818 -0.283451 0
M  V30 6985 H 644.765 -4.85385 1.35712 0
M  V30 6986 H 644.367 -3.21237 1.91528 0
M  V30 6987 H 646.659 -6.35341 2.3526 0
M  V30 6988 H 647.602 -5.95907 3.82492 0
M  V30 6989 H 648.01 -5.16666 2.27412 0
M  V30 6990 N 647.408 -1.11026 -1.11852 0
M  V30 6991 C 648.355 -0.764662 -2.17765 0
M  V30 6992 C 649.325 0.261854 -1.64023 0
M  V30 6993 O 650.51 0.139748 -1.90288 0
M  V30 6994 C 647.65 -0.209317 -3.44465 0
M  V30 6995 C 646.763 -1.29187 -4.12231 0
M  V30 6996 C 645.898 -0.697523 -5.266 0
M  V30 6997 C 644.937 -1.76023 -5.86244 0
M  V30 6998 N 644.074 -1.18569 -6.92016 0
M  V30 6999 H 648.914 -1.67202 -2.46673 0
M  V30 7000 H 646.451 -0.835065 -1.21099 0
M  V30 7001 H 648.409 0.130599 -4.16996 0
M  V30 7002 H 647.039 0.661251 -3.15955 0
M  V30 7003 H 646.091 -1.74881 -3.37818 0
M  V30 7004 H 647.403 -2.09607 -4.52622 0
M  V30 7005 H 646.557 -0.307412 -6.05921 0
M  V30 7006 H 645.296 0.138044 -4.87505 0
M  V30 7007 H 644.301 -2.1597 -5.05606 0
M  V30 7008 H 645.526 -2.59875 -6.27409 0
M  V30 7009 H 643.472 -0.371695 -6.54946 0
M  V30 7010 H 643.389 -1.92666 -7.31038 0
M  V30 7011 H 644.657 -0.82233 -7.7515 0
M  V30 7012 N 648.886 1.2938 -0.899927 0
M  V30 7013 C 650.116 1.99402 -0.540601 0
M  V30 7014 C 650.524 1.67534 0.87914 0
M  V30 7015 O 649.867 0.916821 1.59186 0
M  V30 7016 C 649.929 3.53514 -0.653326 0
M  V30 7017 C 649.593 4.08937 -2.04009 0
M  V30 7018 C 650.59 4.23815 -3.01126 0
M  V30 7019 C 648.275 4.43962 -2.34953 0
M  V30 7020 C 650.269 4.72951 -4.27313 0
M  V30 7021 C 647.956 4.92795 -3.61382 0
M  V30 7022 C 648.954 5.07244 -4.57376 0
M  V30 7023 O 648.642 5.55017 -5.8156 0
M  V30 7024 H 648.374 0.64383 -0.206057 0
M  V30 7025 H 650.928 1.65878 -1.21134 0
M  V30 7026 H 649.158 3.86628 0.0744449 0
M  V30 7027 H 650.847 4.04767 -0.303118 0
M  V30 7028 H 651.613 3.97043 -2.78535 0
M  V30 7029 H 647.492 4.31974 -1.60994 0
M  V30 7030 H 651.036 4.84144 -5.02245 0
M  V30 7031 H 646.933 5.19004 -3.83804 0
M  V30 7032 H 647.701 5.73331 -5.84153 0
M  V30 7033 N 650.364 0.662433 1.43002 0
M  V30 7034 C 651.294 -0.00979809 2.33498 0
M  V30 7035 C 652.275 -0.802329 1.49989 0
M  V30 7036 O 653.46 -0.761964 1.78627 0
M  V30 7037 C 650.59 -0.970446 3.33466 0
M  V30 7038 C 649.544 -0.287383 4.27034 0
M  V30 7039 C 648.87 -1.36012 5.17112 0
M  V30 7040 C 650.17 0.82595 5.15728 0
M  V30 7041 H 651.864 0.745959 2.89958 0
M  V30 7042 H 649.41 0.360172 1.39423 0
M  V30 7043 H 651.363 -1.44971 3.95679 0
M  V30 7044 H 650.087 -1.75748 2.75282 0
M  V30 7045 H 648.746 0.17152 3.66199 0
M  V30 7046 H 648.394 -2.13882 4.55262 0
M  V30 7047 H 648.094 -0.908276 5.80538 0
M  V30 7048 H 649.618 -1.84056 5.82199 0
M  V30 7049 H 651.032 0.42845 5.71697 0
M  V30 7050 H 649.429 1.20282 5.87922 0
M  V30 7051 H 650.499 1.68003 4.54866 0
M  V30 7052 N 651.842 -1.52309 0.404946 0
M  V30 7053 C 652.79 -2.28452 -0.437321 0
M  V30 7054 C 653.784 -1.32975 -1.04948 0
M  V30 7055 O 654.99 -1.50451 -0.988159 0
M  V30 7056 H 651.365 -0.734824 -0.159805 0
M  V30 7057 H 653.336 -2.97542 0.22615 0
M  V30 7058 C 652.085 -3.11536 -1.54404 0
M  V30 7059 H 651.408 -3.84871 -1.08233 0
M  V30 7060 H 652.848 -3.67926 -2.10729 0
M  V30 7061 C 651.307 -2.24833 -2.50902 0
M  V30 7062 O 651.837 -1.88574 -3.54687 0
M  V30 7063 N 650.043 -1.88685 -2.21012 0
M  V30 7064 H 649.59 -2.18371 -1.36646 0
M  V30 7065 H 649.548 -1.30966 -2.85824 0
M  V30 7066 N 653.32 -0.135238 -1.57019 0
M  V30 7067 C 654.25 0.805235 -2.19176 0
M  V30 7068 C 655.231 1.2656 -1.13651 0
M  V30 7069 O 656.416 1.32528 -1.4195 0
M  V30 7070 C 653.546 2.04914 -2.80406 0
M  V30 7071 C 652.5 1.72598 -3.91655 0
M  V30 7072 C 651.826 3.04154 -4.39766 0
M  V30 7073 C 653.126 0.981709 -5.12991 0
M  V30 7074 H 654.82 0.287232 -2.98019 0
M  V30 7075 H 652.366 0.136714 -1.4335 0
M  V30 7076 H 654.319 2.71178 -3.22553 0
M  V30 7077 H 653.043 2.59067 -1.98877 0
M  V30 7078 H 651.702 1.08717 -3.50109 0
M  V30 7079 H 651.35 3.56274 -3.55075 0
M  V30 7080 H 651.05 2.83299 -5.14796 0
M  V30 7081 H 652.574 3.71509 -4.84576 0
M  V30 7082 H 653.988 1.5462 -5.52056 0
M  V30 7083 H 652.385 0.873533 -5.93708 0
M  V30 7084 H 653.455 -0.0286887 -4.84892 0
M  V30 7085 N 654.798 1.5699 0.138552 0
M  V30 7086 C 656.023 1.88344 0.86841 0
M  V30 7087 C 656.448 0.725159 1.7356 0
M  V30 7088 O 655.806 -0.324992 1.78363 0
M  V30 7089 C 655.854 3.18334 1.69398 0
M  V30 7090 O 654.958 3.02863 2.79907 0
M  V30 7091 H 654.299 0.618577 0.241367 0
M  V30 7092 H 656.829 2.04207 0.126826 0
M  V30 7093 H 656.839 3.50567 2.08726 0
M  V30 7094 H 655.514 4.02238 1.05725 0
M  V30 7095 H 654.091 2.82056 2.43924 0
M  V30 7096 N 656.276 -0.40816 1.52223 0
M  V30 7097 C 657.501 -1.18127 1.70472 0
M  V30 7098 C 657.926 -1.83491 0.41384 0
M  V30 7099 O 657.284 -1.70047 -0.628778 0
M  V30 7100 C 657.332 -2.21935 2.84213 0
M  V30 7101 O 656.436 -3.28099 2.4985 0
M  V30 7102 H 655.777 -0.344781 0.56747 0
M  V30 7103 H 658.307 -0.478328 1.9893 0
M  V30 7104 H 658.317 -2.66248 3.09153 0
M  V30 7105 H 656.992 -1.73744 3.7787 0
M  V30 7106 H 655.569 -2.89058 2.35584 0
M  V30 7107 N 657.755 -1.42862 -0.66545 0
M  V30 7108 C 658.983 -1.47246 -1.45349 0
M  V30 7109 C 659.398 -0.0865944 -1.88601 0
M  V30 7110 O 658.755 0.900652 -1.58728 0
M  V30 7111 C 658.806 -2.40772 -2.6965 0
M  V30 7112 O 658.527 -3.73968 -2.2821 0
M  V30 7113 C 660.028 -2.54272 -3.63126 0
M  V30 7114 H 657.248 -0.500497 -0.446927 0
M  V30 7115 H 659.792 -1.87477 -0.816871 0
M  V30 7116 H 657.947 -2.0377 -3.29479 0
M  V30 7117 H 658.361 -4.24146 -3.08546 0
M  V30 7118 H 659.835 -3.23815 -4.47043 0
M  V30 7119 H 660.312 -1.58364 -4.09656 0
M  V30 7120 H 660.918 -2.92036 -3.09185 0
M  V30 7121 N 659.233 0.902656 -1.29189 0
M  V30 7122 C 660.649 1.18296 -1.07137 0
M  V30 7123 C 660.849 2.00701 0.179223 0
M  V30 7124 O 659.905 2.3675 0.877812 0
M  V30 7125 C 661.218 1.90677 -2.32514 0
M  V30 7126 C 662.766 2.03515 -2.37804 0
M  V30 7127 C 663.241 2.79307 -3.62976 0
M  V30 7128 N 664.732 2.86862 -3.63681 0
M  V30 7129 C 665.467 3.46035 -4.57217 0
M  V30 7130 N 664.963 4.06399 -5.61081 0
M  V30 7131 N 666.756 3.43681 -4.44792 0
M  V30 7132 H 658.907 0.352765 -2.0945 0
M  V30 7133 H 661.17 0.21876 -0.922414 0
M  V30 7134 H 660.876 1.3756 -3.23682 0
M  V30 7135 H 660.75 2.91169 -2.39793 0
M  V30 7136 H 663.137 2.55809 -1.47125 0
M  V30 7137 H 663.218 1.02166 -2.34512 0
M  V30 7138 H 662.862 2.2769 -4.54004 0
M  V30 7139 H 662.792 3.80995 -3.63525 0
M  V30 7140 H 665.283 2.43987 -2.88581 0
M  V30 7141 H 665.596 4.49564 -6.2858 0
M  V30 7142 H 663.941 4.0487 -5.64894 0
M  V30 7143 H 667.132 2.9574 -3.62843 0
M  V30 7144 H 667.305 3.89503 -5.17872 0
M  V30 7145 N 660.711 1.11618 1.11262 0
M  V30 7146 C 661.96 0.860934 1.82403 0
M  V30 7147 C 662.273 -0.615303 1.8567 0
M  V30 7148 O 663.479 -0.986861 2.52929 0
M  V30 7149 C 661.935 1.49048 3.27586 0
M  V30 7150 C 661.543 3.00089 3.32642 0
M  V30 7151 C 663.287 1.31515 4.03614 0
M  V30 7152 C 661.194 3.56019 4.72234 0
M  V30 7153 H 660.124 0.318423 0.683464 0
M  V30 7154 H 662.775 1.34165 1.25188 0
M  V30 7155 H 661.157 0.937434 3.84744 0
M  V30 7156 H 662.331 3.61813 2.85356 0
M  V30 7157 H 660.646 3.16919 2.70096 0
M  V30 7158 H 663.243 1.70732 5.0671 0
M  V30 7159 H 663.586 0.257917 4.155 0
M  V30 7160 H 664.119 1.83694 3.52848 0
M  V30 7161 H 660.858 4.61463 4.65545 0
M  V30 7162 H 660.378 2.99066 5.19923 0
M  V30 7163 H 662.057 3.54568 5.41193 0
M  V30 7164 N 662.189 -1.289 0.906776 0
M  V30 7165 C 663.139 -2.25122 0.361109 0
M  V30 7166 C 664.123 -1.52169 -0.52283 0
M  V30 7167 O 665.315 -1.73223 -0.363691 0
M  V30 7168 C 662.444 -3.40915 -0.403982 0
M  V30 7169 C 661.53 -4.21198 0.495279 0
M  V30 7170 N 661.921 -4.79636 1.60572 0
M  V30 7171 C 660.219 -4.45027 0.294372 0
M  V30 7172 C 660.92 -5.39977 2.16332 0
M  V30 7173 N 659.896 -5.23753 1.45546 0
M  V30 7174 H 663.698 -2.67869 1.20927 0
M  V30 7175 H 661.212 -1.43592 0.758632 0
M  V30 7176 H 663.209 -4.08922 -0.811695 0
M  V30 7177 H 661.869 -2.99703 -1.24932 0
M  V30 7178 H 662.88 -4.78209 1.98838 0
M  V30 7179 H 659.557 -4.14348 -0.512021 0
M  V30 7180 H 660.947 -5.96266 3.09704 0
M  V30 7181 N 663.667 -0.670007 -1.42649 0
M  V30 7182 C 664.892 -0.196955 -2.06463 0
M  V30 7183 C 665.317 1.1352 -1.49983 0
M  V30 7184 O 664.675 1.705 -0.616397 0
M  V30 7185 C 664.723 -0.137381 -3.60338 0
M  V30 7186 O 663.827 0.895523 -4.02559 0
M  V30 7187 H 663.168 -0.102579 -0.656029 0
M  V30 7188 H 665.698 -0.917669 -1.82866 0
M  V30 7189 H 665.708 0.0403625 -4.0798 0
M  V30 7190 H 664.383 -1.10977 -4.0082 0
M  V30 7191 H 662.96 0.689209 -3.66476 0
M  V30 7192 N 665.145 1.52092 -0.413018 0
M  V30 7193 C 666.391 2.02154 0.161737 0
M  V30 7194 C 666.724 1.29789 1.44459 0
M  V30 7195 O 665.999 0.405378 1.90229 0
M  V30 7196 C 666.282 3.5781 0.405463 0
M  V30 7197 C 666.135 4.40819 -0.894335 0
M  V30 7198 C 667.454 4.23821 1.18591 0
M  V30 7199 H 664.573 0.734769 0.0573077 0
M  V30 7200 H 667.215 1.81948 -0.547247 0
M  V30 7201 H 665.365 3.75158 1.0094 0
M  V30 7202 H 667.037 4.35175 -1.53039 0
M  V30 7203 H 665.28 4.06877 -1.50444 0
M  V30 7204 H 665.951 5.47819 -0.678144 0
M  V30 7205 H 668.427 4.10596 0.674573 0
M  V30 7206 H 667.303 5.32663 1.3252 0
M  V30 7207 H 667.564 3.83038 2.20758 0
M  V30 7208 N 666.623 0.143563 1.56945 0
M  V30 7209 C 667.851 -0.515447 2.00377 0
M  V30 7210 C 668.266 -1.58643 1.02361 0
M  V30 7211 O 667.623 -1.82489 0.0201039 0
M  V30 7212 C 667.674 -1.11923 3.43737 0
M  V30 7213 O 667.395 -0.0910318 4.38005 0
M  V30 7214 C 668.896 -1.85918 4.02429 0
M  V30 7215 H 666.116 -0.134478 0.657386 0
M  V30 7216 H 668.66 0.237135 2.0312 0
M  V30 7217 H 666.815 -1.82245 3.41856 0
M  V30 7218 H 667.229 -0.532916 5.21786 0
M  V30 7219 H 668.703 -2.2346 5.04747 0
M  V30 7220 H 669.18 -2.7438 3.42947 0
M  V30 7221 H 669.786 -1.20303 4.07931 0
M  V30 7222 N 668.101 -1.57061 -0.130224 0
M  V30 7223 C 669.349 -1.83893 -0.838313 0
M  V30 7224 C 669.67 -0.727046 -1.80939 0
M  V30 7225 O 668.94 0.249927 -1.94299 0
M  V30 7226 H 667.52 -0.67846 -0.312573 0
M  V30 7227 H 670.182 -1.94529 -0.120224 0
M  V30 7228 H 669.278 -2.79419 -1.39038 0
M  V30 7229 N 669.579 0.400081 -1.52437 0
M  V30 7230 C 670.819 1.15526 -1.68622 0
M  V30 7231 C 671.183 1.87533 -0.411744 0
M  V30 7232 O 672.384 2.6501 -0.449804 0
M  V30 7233 C 670.655 2.11618 -2.88015 0
M  V30 7234 S 672.214 2.95121 -3.24729 0
M  V30 7235 H 669.032 0.39123 -0.593683 0
M  V30 7236 H 671.634 0.441255 -1.90455 0
M  V30 7237 H 670.338 1.5742 -3.79008 0
M  V30 7238 H 669.869 2.87544 -2.68481 0
M  V30 7239 H 671.884 4.13653 -2.74055 0
M  V30 7240 N 671.057 1.43213 0.657864 0
M  V30 7241 C 672.306 1.43871 1.41365 0
M  V30 7242 C 672.619 0.064898 1.95492 0
M  V30 7243 O 673.825 -0.0510796 2.71452 0
M  V30 7244 C 672.281 2.53158 2.55811 0
M  V30 7245 C 671.889 3.96624 2.08311 0
M  V30 7246 C 673.633 2.63004 3.3321 0
M  V30 7247 C 671.54 4.97385 3.1994 0
M  V30 7248 H 670.47 0.535174 0.531136 0
M  V30 7249 H 673.121 1.69185 0.710543 0
M  V30 7250 H 671.503 2.21037 3.2857 0
M  V30 7251 H 672.677 4.38182 1.42593 0
M  V30 7252 H 670.992 3.90781 1.43804 0
M  V30 7253 H 673.589 3.3546 4.16378 0
M  V30 7254 H 673.932 1.67918 3.80932 0
M  V30 7255 H 674.465 2.94403 2.67529 0
M  V30 7256 H 671.204 5.94007 2.77192 0
M  V30 7257 H 670.724 4.60444 3.84385 0
M  V30 7258 H 672.403 5.19877 3.85145 0
M  V30 7259 N 672.536 -0.895792 1.29666 0
M  V30 7260 C 673.947 -1.46195 1.1612 0
M  V30 7261 C 674.298 -1.94699 -0.242195 0
M  V30 7262 O 673.423 -1.8406 -1.13802 0
M  V30 7263 C 674.018 -2.65718 2.10189 0
M  V30 7264 C 672.577 -3.18458 2.00653 0
M  V30 7265 C 671.724 -1.91149 2.00891 0
M  V30 7266 H 674.675 -0.706756 1.42094 0
M  V30 7267 H 674.696 -3.4158 1.6764 0
M  V30 7268 H 674.208 -2.30386 3.12321 0
M  V30 7269 H 672.309 -3.58474 1.01623 0
M  V30 7270 H 672.422 -3.82491 2.88509 0
M  V30 7271 H 670.786 -2.09021 1.45542 0
M  V30 7272 H 671.569 -1.58089 3.04734 0
M  V30 7273 N 674.014 -1.12206 -1.10668 0
M  V30 7274 C 674.961 -0.787716 -2.16942 0
M  V30 7275 C 675.931 0.244442 -1.64291 0
M  V30 7276 O 677.116 0.119558 -1.90425 0
M  V30 7277 C 674.256 -0.24584 -3.44223 0
M  V30 7278 C 673.369 -1.33552 -4.10838 0
M  V30 7279 C 672.504 -0.753337 -5.25831 0
M  V30 7280 C 671.543 -1.82231 -5.84344 0
M  V30 7281 N 670.68 -1.25902 -6.90719 0
M  V30 7282 H 675.52 -1.69809 -2.44885 0
M  V30 7283 H 673.057 -0.847862 -1.20207 0
M  V30 7284 H 675.015 0.0863639 -4.17111 0
M  V30 7285 H 673.645 0.627702 -3.16638 0
M  V30 7286 H 672.697 -1.78454 -3.35944 0
M  V30 7287 H 674.009 -2.14396 -4.50373 0
M  V30 7288 H 673.163 -0.37166 -6.05561 0
M  V30 7289 H 671.902 0.0863297 -4.87624 0
M  V30 7290 H 670.907 -2.2132 -5.03287 0
M  V30 7291 H 672.132 -2.66515 -6.24617 0
M  V30 7292 H 670.078 -0.44114 -6.54515 0
M  V30 7293 H 669.995 -2.00408 -7.28953 0
M  V30 7294 H 671.263 -0.904498 -7.74235 0
M  V30 7295 N 675.492 1.28418 -0.913599 0
M  V30 7296 C 676.72 1.99106 -0.562536 0
M  V30 7297 C 677.135 1.68273 0.856137 0
M  V30 7298 O 676.492 0.935401 1.56705 0
M  V30 7299 C 676.543 3.5338 -0.761903 0
M  V30 7300 O 676.264 3.83127 -2.12475 0
M  V30 7301 C 677.765 4.41328 -0.417651 0
M  V30 7302 H 674.985 0.635798 -0.214481 0
M  V30 7303 H 677.529 1.63618 -1.22676 0
M  V30 7304 H 675.684 3.8713 -0.144676 0
M  V30 7305 H 676.098 4.77763 -2.16431 0
M  V30 7306 H 677.572 5.48642 -0.607919 0
M  V30 7307 H 678.049 4.34422 0.646108 0
M  V30 7308 H 678.655 4.13074 -1.01241 0
M  V30 7309 N 676.97 0.677563 1.42291 0
M  V30 7310 C 677.9 0.014968 2.33495 0
M  V30 7311 C 678.881 -0.786376 1.50831 0
M  V30 7312 O 680.066 -0.742975 1.79426 0
M  V30 7313 C 677.196 -0.935023 3.34477 0
M  V30 7314 C 676.15 -0.242074 4.27315 0
M  V30 7315 C 675.476 -1.30519 5.18526 0
M  V30 7316 C 676.776 0.880604 5.14823 0
M  V30 7317 H 678.47 0.776671 2.89151 0
M  V30 7318 H 676.016 0.37494 1.39033 0
M  V30 7319 H 677.969 -1.40766 3.97194 0
M  V30 7320 H 676.693 -1.72818 2.77131 0
M  V30 7321 H 675.352 0.210351 3.65996 0
M  V30 7322 H 675 -2.09041 4.57505 0
M  V30 7323 H 674.7 -0.846652 5.81468 0
M  V30 7324 H 676.224 -1.7787 5.84119 0
M  V30 7325 H 677.638 0.489062 5.7121 0
M  V30 7326 H 676.035 1.26511 5.86613 0
M  V30 7327 H 677.105 1.72818 4.53059 0
M  V30 7328 N 678.448 -1.51871 0.421078 0
M  V30 7329 C 679.358 -2.31077 -0.405069 0
M  V30 7330 C 680.374 -1.39301 -1.04265 0
M  V30 7331 O 681.55 -1.72376 -1.04157 0
M  V30 7332 C 678.615 -3.12556 -1.50032 0
M  V30 7333 C 677.676 -4.20088 -0.884559 0
M  V30 7334 C 676.909 -4.97673 -1.92762 0
M  V30 7335 O 677.132 -4.75696 -3.14753 0
M  V30 7336 O 676.066 -5.82203 -1.52719 0
M  V30 7337 H 679.892 -3.02742 0.241086 0
M  V30 7338 H 677.477 -1.48263 0.183991 0
M  V30 7339 H 679.359 -3.6326 -2.13589 0
M  V30 7340 H 678.034 -2.43672 -2.13086 0
M  V30 7341 H 676.941 -3.73502 -0.211379 0
M  V30 7342 H 678.274 -4.91298 -0.297763 0
M  V30 7343 N 679.926 -0.151884 -1.56866 0
M  V30 7344 C 681.175 0.497992 -1.95456 0
M  V30 7345 C 681.488 1.6569 -1.03953 0
M  V30 7346 O 682.694 2.37173 -1.32142 0
M  V30 7347 C 681.15 0.93732 -3.4748 0
M  V30 7348 C 680.758 -0.194921 -4.47576 0
M  V30 7349 C 682.502 1.55671 -3.94926 0
M  V30 7350 C 680.409 0.26295 -5.90815 0
M  V30 7351 H 679.339 0.189811 -0.729717 0
M  V30 7352 H 681.99 -0.237011 -1.81963 0
M  V30 7353 H 680.372 1.72773 -3.56322 0
M  V30 7354 H 681.546 -0.971951 -4.50433 0
M  V30 7355 H 679.861 -0.72303 -4.10075 0
M  V30 7356 H 682.458 1.91099 -4.99385 0
M  V30 7357 H 682.801 2.44748 -3.36755 0
M  V30 7358 H 683.334 0.831109 -3.89021 0
M  V30 7359 H 680.073 -0.592568 -6.52816 0
M  V30 7360 H 679.593 1.00575 -5.91308 0
M  V30 7361 H 681.272 0.713333 -6.43056 0
M  V30 7362 N 681.404 1.57128 0.121893 0
M  V30 7363 C 682.334 2.03165 1.15092 0
M  V30 7364 C 683.315 0.915587 1.43356 0
M  V30 7365 O 684.5 1.1851 1.53847 0
M  V30 7366 C 681.63 2.43352 2.47784 0
M  V30 7367 C 680.584 3.58376 2.33989 0
M  V30 7368 C 679.91 3.84454 3.71617 0
M  V30 7369 C 681.21 4.90199 1.80283 0
M  V30 7370 H 682.904 2.89382 0.768023 0
M  V30 7371 H 680.45 1.39218 0.367998 0
M  V30 7372 H 682.403 2.74163 3.20019 0
M  V30 7373 H 681.127 1.54103 2.87958 0
M  V30 7374 H 679.786 3.2777 1.64202 0
M  V30 7375 H 679.434 2.92414 4.09271 0
M  V30 7376 H 679.134 4.61877 3.6324 0
M  V30 7377 H 680.658 4.17714 4.45362 0
M  V30 7378 H 682.072 5.19565 2.42333 0
M  V30 7379 H 680.469 5.71601 1.82735 0
M  V30 7380 H 681.539 4.78904 0.760184 0
M  V30 7381 N 682.882 -0.391992 1.52647 0
M  V30 7382 C 684.159 -1.15136 1.58123 0
M  V30 7383 C 684.539 -2.07786 0.372597 0
M  V30 7384 O 683.887 -2.19374 -0.639304 0
M  V30 7385 C 684.097 -1.91367 2.91856 0
M  V30 7386 C 685.445 -2.46833 3.45483 0
M  V30 7387 O 686.469 -2.01527 2.9371 0
M  V30 7388 O 685.328 -3.29587 4.3593 0
M  V30 7389 H 682.422 -0.526649 0.637629 0
M  V30 7390 H 684.968 -0.397386 1.64982 0
M  V30 7391 H 683.74 -1.23597 3.71268 0
M  V30 7392 H 683.363 -2.73732 2.88369 0
M  V30 7393 N 684.36 -1.4356 -0.65026 0
M  V30 7394 C 685.606 -1.45549 -1.41221 0
M  V30 7395 C 685.939 -0.0805472 -1.94033 0
M  V30 7396 O 685.214 0.899043 -1.72475 0
M  V30 7397 C 685.497 -2.50028 -2.59148 0
M  V30 7398 C 685.35 -3.96808 -2.1181 0
M  V30 7399 C 686.669 -2.51212 -3.61359 0
M  V30 7400 H 683.788 -0.529967 -0.512156 0
M  V30 7401 H 686.43 -1.75127 -0.736933 0
M  V30 7402 H 684.58 -2.24937 -3.16758 0
M  V30 7403 H 686.252 -4.32966 -1.59178 0
M  V30 7404 H 684.495 -4.09498 -1.43156 0
M  V30 7405 H 685.166 -4.6553 -2.96625 0
M  V30 7406 H 687.642 -2.73583 -3.13515 0
M  V30 7407 H 686.518 -3.26252 -4.41419 0
M  V30 7408 H 686.779 -1.54701 -4.1415 0
M  V30 7409 N 685.838 0.888903 -1.30139 0
M  V30 7410 C 687.063 1.67884 -1.21777 0
M  V30 7411 C 687.488 1.86848 0.216689 0
M  V30 7412 O 686.846 1.39659 1.15608 0
M  V30 7413 C 686.894 3.03483 -1.94757 0
M  V30 7414 O 685.998 3.92294 -1.27198 0
M  V30 7415 H 685.339 0.513144 -0.421402 0
M  V30 7416 H 687.869 1.10968 -1.71893 0
M  V30 7417 H 687.879 3.53553 -2.03627 0
M  V30 7418 H 686.554 2.89 -2.99085 0
M  V30 7419 H 685.131 3.50732 -1.26655 0
M  V30 7420 N 687.317 1.12792 1.10072 0
M  V30 7421 C 688.265 0.794523 2.18609 0
M  V30 7422 C 689.259 -0.220271 1.67962 0
M  V30 7423 O 690.465 -0.0780938 1.79831 0
M  V30 7424 H 686.84 0.239123 0.712969 0
M  V30 7425 H 688.811 1.71823 2.43966 0
M  V30 7426 C 687.56 0.269548 3.46654 0
M  V30 7427 H 686.883 1.04171 3.8599 0
M  V30 7428 H 688.323 0.0746242 4.23934 0
M  V30 7429 C 686.782 -1.00333 3.21613 0
M  V30 7430 O 687.312 -2.08042 3.4363 0
M  V30 7431 N 685.518 -0.931763 2.75257 0
M  V30 7432 H 685.065 -0.0551197 2.57541 0
M  V30 7433 H 685.023 -1.78405 2.58881 0
M  V30 7434 N 688.795 -1.27931 0.920396 0
M  V30 7435 C 689.743 -2.29061 0.404191 0
M  V30 7436 C 690.737 -1.61615 -0.507634 0
M  V30 7437 O 691.943 -1.75765 -0.388144 0
M  V30 7438 H 688.318 -0.743594 0.112123 0
M  V30 7439 H 690.289 -2.70021 1.27008 0
M  V30 7440 C 689.038 -3.46088 -0.334466 0
M  V30 7441 H 688.361 -3.98194 0.35797 0
M  V30 7442 H 689.801 -4.18829 -0.660196 0
M  V30 7443 C 688.26 -2.99396 -1.54479 0
M  V30 7444 O 688.79 -3.02439 -2.64374 0
M  V30 7445 N 686.996 -2.54978 -1.39408 0
M  V30 7446 H 686.543 -2.52701 -0.500009 0
M  V30 7447 H 686.501 -2.24098 -2.20516 0
M  V30 7448 N 690.273 -0.685099 -1.4193 0
M  V30 7449 C 691.221 -0.00165985 -2.326 0
M  V30 7450 C 692.215 0.779678 -1.50391 0
M  V30 7451 O 693.421 0.68648 -1.66395 0
M  V30 7452 H 689.796 0.0182616 -0.751778 0
M  V30 7453 H 691.767 -0.783592 -2.87928 0
M  V30 7454 C 690.516 0.928385 -3.35077 0
M  V30 7455 H 689.839 0.336578 -3.98381 0
M  V30 7456 H 691.279 1.37509 -4.01083 0
M  V30 7457 C 689.738 2.03964 -2.68142 0
M  V30 7458 O 690.268 3.12727 -2.5212 0
M  V30 7459 N 688.474 1.81433 -2.27003 0
M  V30 7460 H 688.021 0.929807 -2.40234 0
M  V30 7461 H 687.979 2.55973 -1.82552 0
M  V30 7462 N 691.751 1.51645 -0.429126 0
M  V30 7463 C 692.681 2.30434 0.377148 0
M  V30 7464 C 693.662 1.35493 1.02838 0
M  V30 7465 O 694.847 1.6441 1.03359 0
M  V30 7466 C 691.977 3.14038 1.48315 0
M  V30 7467 C 690.931 4.1719 0.955855 0
M  V30 7468 C 690.257 4.89263 2.15698 0
M  V30 7469 C 691.557 5.223 -0.00402136 0
M  V30 7470 H 693.251 2.98085 -0.280336 0
M  V30 7471 H 690.797 1.43354 -0.136265 0
M  V30 7472 H 692.75 3.67933 2.05435 0
M  V30 7473 H 691.474 2.44193 2.16881 0
M  V30 7474 H 690.133 3.64335 0.406929 0
M  V30 7475 H 689.781 4.15929 2.82864 0
M  V30 7476 H 689.481 5.59009 1.81059 0
M  V30 7477 H 691.005 5.45978 2.73387 0
M  V30 7478 H 692.419 5.71315 0.476607 0
M  V30 7479 H 690.816 5.99525 -0.26258 0
M  V30 7480 H 691.886 4.75638 -0.943236 0
M  V30 7481 N 693.229 0.160201 1.56784 0
M  V30 7482 C 694.177 -0.791402 2.18723 0
M  V30 7483 C 695.171 -1.24567 1.14801 0
M  V30 7484 O 696.377 -1.21262 1.33025 0
M  V30 7485 H 692.752 -0.273458 0.700517 0
M  V30 7486 H 694.723 -0.244931 2.97393 0
M  V30 7487 C 693.472 -2.01509 2.83354 0
M  V30 7488 H 692.795 -1.67454 3.63041 0
M  V30 7489 H 694.235 -2.66006 3.30177 0
M  V30 7490 C 692.694 -2.83159 1.82545 0
M  V30 7491 O 693.224 -3.79944 1.30405 0
M  V30 7492 N 691.43 -2.47953 1.51552 0
M  V30 7493 H 690.977 -1.69309 1.94144 0
M  V30 7494 H 690.935 -3.02873 0.843519 0
M  V30 7495 N 694.707 -1.5719 -0.113559 0
M  V30 7496 C 695.637 -2.03772 -1.14013 0
M  V30 7497 C 696.618 -0.923176 -1.42869 0
M  V30 7498 O 697.803 -1.19325 -1.53216 0
M  V30 7499 C 694.933 -2.44663 -2.4649 0
M  V30 7500 C 693.887 -3.59612 -2.32085 0
M  V30 7501 C 693.213 -3.8642 -3.69573 0
M  V30 7502 C 694.513 -4.91149 -1.7768 0
M  V30 7503 H 696.207 -2.89785 -0.752665 0
M  V30 7504 H 693.753 -1.39412 -0.360609 0
M  V30 7505 H 695.706 -2.75857 -3.18561 0
M  V30 7506 H 694.43 -1.55628 -2.87137 0
M  V30 7507 H 693.089 -3.28636 -1.62461 0
M  V30 7508 H 692.737 -2.94581 -4.07715 0
M  V30 7509 H 692.437 -4.63797 -3.60786 0
M  V30 7510 H 693.961 -4.2007 -4.4314 0
M  V30 7511 H 695.375 -5.20843 -2.39574 0
M  V30 7512 H 693.772 -5.72562 -1.79701 0
M  V30 7513 H 694.842 -4.79301 -0.734776 0
M  V30 7514 N 696.185 0.383891 -1.52853 0
M  V30 7515 C 697.432 1.12842 -1.68146 0
M  V30 7516 C 697.76 1.89823 -0.423954 0
M  V30 7517 O 697.015 1.86475 0.593765 0
M  V30 7518 C 697.314 2.12881 -2.87082 0
M  V30 7519 C 696.98 1.52519 -4.24322 0
M  V30 7520 C 695.642 1.35783 -4.61645 0
M  V30 7521 C 697.994 1.0868 -5.09743 0
M  V30 7522 C 695.322 0.737643 -5.82044 0
M  V30 7523 C 697.674 0.480699 -6.30771 0
M  V30 7524 C 696.338 0.300681 -6.66822 0
M  V30 7525 H 695.608 0.412917 -0.615289 0
M  V30 7526 H 698.255 0.412416 -1.87006 0
M  V30 7527 H 696.56 2.90719 -2.62659 0
M  V30 7528 H 698.257 2.70408 -2.96109 0
M  V30 7529 H 694.847 1.66534 -3.94923 0
M  V30 7530 H 699.031 1.2041 -4.81472 0
M  V30 7531 H 694.287 0.586415 -6.08581 0
M  V30 7532 H 698.461 0.132733 -6.96273 0
M  V30 7533 H 696.088 -0.181966 -7.59982 0
M  V30 7534 N 697.663 1.43903 0.642637 0
M  V30 7535 C 698.888 1.49758 1.43483 0
M  V30 7536 C 699.313 0.119911 1.87717 0
M  V30 7537 O 698.671 -0.888558 1.58033 0
M  V30 7538 C 698.719 2.45744 2.63898 0
M  V30 7539 O 697.823 1.95101 3.63331 0
M  V30 7540 H 697.164 0.506138 0.429791 0
M  V30 7541 H 699.694 1.88923 0.785438 0
M  V30 7542 H 699.704 2.63399 3.11584 0
M  V30 7543 H 698.379 3.45818 2.31046 0
M  V30 7544 H 696.956 1.87158 3.22531 0
M  V30 7545 N 699.141 -0.881989 1.30609 0
M  V30 7546 C 700.071 -2.00413 1.1982 0
M  V30 7547 C 701.052 -1.69871 0.0881538 0
M  V30 7548 O 702.237 -1.92304 0.2707 0
M  V30 7549 C 699.367 -3.35641 0.89233 0
M  V30 7550 C 698.321 -3.80451 1.96064 0
M  V30 7551 C 697.647 -5.13003 1.5077 0
M  V30 7552 C 698.947 -3.98855 3.37213 0
M  V30 7553 H 700.641 -2.09698 2.13699 0
M  V30 7554 H 698.187 -1.00754 1.02882 0
M  V30 7555 H 700.14 -4.13669 0.803497 0
M  V30 7556 H 698.864 -3.26497 -0.0821381 0
M  V30 7557 H 697.523 -3.04654 2.03916 0
M  V30 7558 H 697.171 -5.0029 0.521417 0
M  V30 7559 H 696.871 -5.43956 2.22229 0
M  V30 7560 H 698.395 -5.93554 1.43271 0
M  V30 7561 H 699.809 -4.67312 3.32103 0
M  V30 7562 H 698.206 -4.41188 4.06784 0
M  V30 7563 H 699.276 -3.02614 3.78883 0
M  V30 7564 N 700.619 -1.13374 -1.09472 0
M  V30 7565 C 701.567 -0.806105 -2.18185 0
M  V30 7566 C 702.561 0.21136 -1.68076 0
M  V30 7567 O 703.767 0.0685558 -1.79869 0
M  V30 7568 H 700.142 -0.242901 -0.71169 0
M  V30 7569 H 702.113 -1.73115 -2.43051 0
M  V30 7570 C 700.862 -0.287928 -3.46506 0
M  V30 7571 H 700.185 -1.06217 -3.85432 0
M  V30 7572 H 701.625 -0.0971054 -4.23889 0
M  V30 7573 C 700.084 0.986256 -3.22141 0
M  V30 7574 O 700.614 2.06217 -3.44728 0
M  V30 7575 N 698.82 0.917153 -2.75747 0
M  V30 7576 H 698.367 0.0414609 -2.57567 0
M  V30 7577 H 698.325 1.77029 -2.59823 0
M  V30 7578 N 702.098 1.27442 -0.927168 0
M  V30 7579 C 703.028 2.29256 -0.443188 0
M  V30 7580 C 704.009 1.62701 0.49624 0
M  V30 7581 O 705.194 1.90013 0.401105 0
M  V30 7582 C 702.324 3.45955 0.305366 0
M  V30 7583 C 701.278 4.24501 -0.546178 0
M  V30 7584 C 700.604 5.33671 0.331512 0
M  V30 7585 C 701.904 4.89921 -1.81037 0
M  V30 7586 H 703.598 2.69988 -1.29409 0
M  V30 7587 H 701.144 1.29792 -0.623705 0
M  V30 7588 H 703.097 4.1628 0.654885 0
M  V30 7589 H 701.821 3.04138 1.19029 0
M  V30 7590 H 700.48 3.55921 -0.878398 0
M  V30 7591 H 700.128 4.88096 1.21537 0
M  V30 7592 H 699.828 5.87131 -0.234746 0
M  V30 7593 H 701.352 6.0684 0.676614 0
M  V30 7594 H 702.766 5.52536 -1.52895 0
M  V30 7595 H 701.163 5.53436 -2.32009 0
M  V30 7596 H 702.233 4.13652 -2.53021 0
M  V30 7597 N 703.576 0.692616 1.41565 0
M  V30 7598 C 704.987 0.297478 1.84315 0
M  V30 7599 C 705.338 -1.16379 1.57957 0
M  V30 7600 O 704.463 -1.89303 1.0485 0
M  V30 7601 C 705.058 0.533136 3.34579 0
M  V30 7602 C 703.617 0.191944 3.7591 0
M  V30 7603 C 702.764 0.816873 2.64995 0
M  V30 7604 H 705.715 0.893488 1.31158 0
M  V30 7605 H 705.736 -0.209105 3.79925 0
M  V30 7606 H 705.248 1.59674 3.53731 0
M  V30 7607 H 703.349 -0.867512 3.6236 0
M  V30 7608 H 703.462 0.644902 4.7474 0
M  V30 7609 H 701.826 0.246715 2.53502 0
M  V30 7610 H 702.609 1.88429 2.86966 0
M  V30 7611 N 705.054 -1.51416 0.437162 0
M  V30 7612 C 705.986 -2.255 -0.410171 0
M  V30 7613 C 706.999 -1.29511 -0.986444 0
M  V30 7614 O 708.188 -1.55266 -0.880614 0
M  V30 7615 C 705.288 -2.99511 -1.58575 0
M  V30 7616 C 704.461 -4.22595 -1.12839 0
M  V30 7617 C 703.52 -4.79187 -2.17407 0
M  V30 7618 O 702.546 -5.4103 -1.76849 0
M  V30 7619 N 703.748 -4.63204 -3.49889 0
M  V30 7620 H 706.513 -2.98856 0.224783 0
M  V30 7621 H 704.074 -1.59699 0.266041 0
M  V30 7622 H 706.066 -3.34258 -2.28152 0
M  V30 7623 H 704.636 -2.29167 -2.12606 0
M  V30 7624 H 703.856 -3.93344 -0.259695 0
M  V30 7625 H 705.144 -5.02468 -0.800196 0
M  V30 7626 H 704.542 -4.13945 -3.85573 0
M  V30 7627 H 703.099 -5.02313 -4.15361 0
M  V30 7628 N 706.532 -0.168513 -1.56696 0
M  V30 7629 C 707.462 0.758563 -2.20835 0
M  V30 7630 C 708.443 1.24121 -1.1631 0
M  V30 7631 O 709.628 1.29487 -1.4473 0
M  V30 7632 C 706.758 1.9892 -2.8469 0
M  V30 7633 C 705.712 1.64252 -3.95228 0
M  V30 7634 C 705.038 2.94757 -4.46119 0
M  V30 7635 C 706.338 0.872675 -5.14958 0
M  V30 7636 H 708.032 0.223953 -2.98561 0
M  V30 7637 H 705.578 0.106277 -1.43607 0
M  V30 7638 H 707.531 2.64275 -3.28233 0
M  V30 7639 H 706.255 2.5479 -2.04327 0
M  V30 7640 H 704.914 1.01266 -3.52336 0
M  V30 7641 H 704.562 3.48662 -3.62552 0
M  V30 7642 H 704.262 2.72316 -5.2069 0
M  V30 7643 H 705.786 3.61147 -4.92347 0
M  V30 7644 H 707.2 1.42875 -5.55211 0
M  V30 7645 H 705.597 0.747402 -5.95428 0
M  V30 7646 H 706.667 -0.131535 -4.84722 0
M  V30 7647 N 708.01 1.57248 0.105221 0
M  V30 7648 C 708.957 2.01338 1.12835 0
M  V30 7649 C 709.927 0.887897 1.40377 0
M  V30 7650 O 711.112 1.15315 1.5201 0
M  V30 7651 C 708.252 2.43432 2.44611 0
M  V30 7652 C 707.365 3.69457 2.23888 0
M  V30 7653 C 706.5 4.00473 3.48991 0
M  V30 7654 C 705.539 5.19638 3.23485 0
M  V30 7655 N 704.676 5.46457 4.40828 0
M  V30 7656 H 709.516 2.88527 0.745386 0
M  V30 7657 H 707.053 1.42714 0.356535 0
M  V30 7658 H 709.011 2.65879 3.21503 0
M  V30 7659 H 707.641 1.59266 2.80774 0
M  V30 7660 H 706.693 3.54545 1.37847 0
M  V30 7661 H 708.005 4.56497 2.01026 0
M  V30 7662 H 707.159 4.23642 4.34295 0
M  V30 7663 H 705.898 3.11935 3.74897 0
M  V30 7664 H 704.903 4.96299 2.36574 0
M  V30 7665 H 706.128 6.09766 2.98935 0
M  V30 7666 H 704.074 4.60876 4.66829 0
M  V30 7667 H 703.991 6.27849 4.2112 0
M  V30 7668 H 705.259 5.74155 5.27225 0
M  V30 7669 N 709.488 -0.375779 1.53054 0
M  V30 7670 C 710.398 -1.48381 1.81715 0
M  V30 7671 C 711.414 -1.59087 0.704795 0
M  V30 7672 O 712.59 -1.75174 0.993785 0
M  V30 7673 C 709.655 -2.83767 1.99192 0
M  V30 7674 C 708.716 -2.82673 3.23102 0
M  V30 7675 C 707.949 -4.11601 3.39736 0
M  V30 7676 O 708.172 -5.07243 2.60885 0
M  V30 7677 O 707.106 -4.18034 4.33049 0
M  V30 7678 H 710.932 -1.27089 2.7583 0
M  V30 7679 H 708.517 -0.564902 1.38308 0
M  V30 7680 H 710.399 -3.64004 2.12318 0
M  V30 7681 H 709.074 -3.05057 1.08267 0
M  V30 7682 H 707.981 -2.0117 3.15407 0
M  V30 7683 H 709.314 -2.66335 4.13916 0
M  V30 7684 N 710.966 -1.44241 -0.634997 0
M  V30 7685 C 711.896 -1.53632 -1.7584 0
M  V30 7686 C 712.877 -0.389603 -1.65578 0
M  V30 7687 O 714.062 -0.609219 -1.84397 0
M  V30 7688 C 711.192 -1.47644 -3.14354 0
M  V30 7689 C 710.146 -2.60752 -3.394 0
M  V30 7690 C 709.472 -2.39817 -4.77904 0
M  V30 7691 C 710.772 -4.02921 -3.32343 0
M  V30 7692 H 712.466 -2.47662 -1.68238 0
M  V30 7693 H 710.012 -1.19197 -0.807969 0
M  V30 7694 H 711.965 -1.52815 -3.92716 0
M  V30 7695 H 710.689 -0.501284 -3.2273 0
M  V30 7696 H 709.348 -2.54965 -2.63417 0
M  V30 7697 H 708.996 -1.40502 -4.82978 0
M  V30 7698 H 708.696 -3.15649 -4.9562 0
M  V30 7699 H 710.22 -2.46799 -5.585 0
M  V30 7700 H 711.634 -4.10098 -4.00615 0
M  V30 7701 H 710.031 -4.78925 -3.61595 0
M  V30 7702 H 711.101 -4.26766 -2.30215 0
M  V30 7703 N 712.444 0.87505 -1.31075 0
M  V30 7704 C 713.674 1.65818 -1.2324 0
M  V30 7705 C 714.082 1.8808 0.205536 0
M  V30 7706 O 713.425 1.43548 1.14628 0
M  V30 7707 C 713.487 3.05131 -1.90093 0
M  V30 7708 C 713.151 3.05999 -3.39432 0
M  V30 7709 C 714.148 2.84328 -4.35263 0
M  V30 7710 C 711.833 3.27281 -3.81041 0
M  V30 7711 C 713.827 2.83912 -5.70678 0
M  V30 7712 C 711.514 3.26493 -5.16571 0
M  V30 7713 C 712.512 3.04834 -6.112 0
M  V30 7714 O 712.2 3.03882 -7.44252 0
M  V30 7715 H 711.932 0.52387 -0.427242 0
M  V30 7716 H 714.486 1.10086 -1.73408 0
M  V30 7717 H 712.716 3.62568 -1.34468 0
M  V30 7718 H 714.405 3.65641 -1.76242 0
M  V30 7719 H 715.171 2.67673 -4.04445 0
M  V30 7720 H 711.05 3.43171 -3.07822 0
M  V30 7721 H 714.594 2.66925 -6.44513 0
M  V30 7722 H 710.491 3.42687 -5.47025 0
M  V30 7723 H 711.259 3.19979 -7.53363 0
M  V30 7724 N 713.922 1.13953 1.08869 0
M  V30 7725 C 715.171 0.899431 1.80536 0
M  V30 7726 C 715.484 -0.575781 1.86933 0
M  V30 7727 O 716.69 -0.932988 2.54966 0
M  V30 7728 C 715.146 1.55963 3.24351 0
M  V30 7729 C 714.754 3.07077 3.26202 0
M  V30 7730 C 716.498 1.40046 4.00733 0
M  V30 7731 C 714.405 3.65955 4.64576 0
M  V30 7732 H 713.335 0.332849 0.676556 0
M  V30 7733 H 715.986 1.3679 1.22314 0
M  V30 7734 H 714.368 1.01883 3.82669 0
M  V30 7735 H 715.542 3.67785 2.77617 0
M  V30 7736 H 713.857 3.22576 2.63312 0
M  V30 7737 H 716.454 1.81441 5.02974 0
M  V30 7738 H 716.797 0.345993 4.1486 0
M  V30 7739 H 717.33 1.91137 3.48872 0
M  V30 7740 H 714.069 4.71234 4.55652 0
M  V30 7741 H 713.589 3.10027 5.13462 0
M  V30 7742 H 715.268 3.65968 5.33551 0
M  V30 7743 N 715.4 -1.26948 0.933913 0
M  V30 7744 C 716.625 -1.98724 0.593589 0
M  V30 7745 C 717.05 -1.6915 -0.822801 0
M  V30 7746 O 716.408 -0.93533 -1.5531 0
M  V30 7747 C 716.456 -3.50834 0.833542 0
M  V30 7748 O 715.56 -4.12284 -0.0978788 0
M  V30 7749 H 714.901 -0.623683 0.227849 0
M  V30 7750 H 717.431 -1.61599 1.25486 0
M  V30 7751 H 717.441 -4.01018 0.75156 0
M  V30 7752 H 716.116 -3.71691 1.86597 0
M  V30 7753 H 714.693 -3.72884 0.0345443 0
M  V30 7754 N 716.879 -0.700114 -1.41195 0
M  V30 7755 C 718.295 -0.372114 -1.55201 0
M  V30 7756 C 718.495 1.12053 -1.6747 0
M  V30 7757 O 717.551 1.90642 -1.65566 0
M  V30 7758 C 718.864 -1.12462 -2.78878 0
M  V30 7759 C 720.412 -1.10941 -2.92679 0
M  V30 7760 C 720.887 -1.84376 -4.19249 0
M  V30 7761 N 722.378 -1.81368 -4.26216 0
M  V30 7762 C 723.113 -2.35024 -5.23021 0
M  V30 7763 N 722.609 -2.9717 -6.25829 0
M  V30 7764 N 724.402 -2.25254 -5.14992 0
M  V30 7765 H 716.553 -1.66816 -1.31477 0
M  V30 7766 H 718.816 -0.704223 -0.634644 0
M  V30 7767 H 718.522 -2.17937 -2.76037 0
M  V30 7768 H 718.396 -0.706152 -3.70531 0
M  V30 7769 H 720.783 -0.062911 -2.95033 0
M  V30 7770 H 720.864 -1.56698 -2.02187 0
M  V30 7771 H 720.508 -2.89008 -4.17656 0
M  V30 7772 H 720.438 -1.3605 -5.08722 0
M  V30 7773 H 722.929 -1.36062 -3.52556 0
M  V30 7774 H 723.242 -3.35668 -6.96094 0
M  V30 7775 H 721.587 -3.01249 -6.26318 0
M  V30 7776 H 724.778 -1.76372 -4.33602 0
M  V30 7777 H 724.951 -2.67373 -5.90268 0
M  V30 7778 N 718.357 1.51182 -0.445186 0
M  V30 7779 C 719.305 2.29531 0.376597 0
M  V30 7780 C 720.299 1.35711 1.01385 0
M  V30 7781 O 721.505 1.53018 0.947922 0
M  V30 7782 H 717.88 0.738803 0.140267 0
M  V30 7783 H 719.851 2.96838 -0.304958 0
M  V30 7784 C 718.6 3.1552 1.4609 0
M  V30 7785 H 717.923 3.87605 0.979912 0
M  V30 7786 H 719.363 3.73384 2.009 0
M  V30 7787 C 717.822 2.31406 2.44852 0
M  V30 7788 O 718.352 1.97912 3.49562 0
M  V30 7789 N 716.558 1.94478 2.15932 0
M  V30 7790 H 716.105 2.21917 1.30808 0
M  V30 7791 H 716.063 1.38498 2.82251 0
M  V30 7792 N 719.835 0.176821 1.56605 0
M  V30 7793 C 720.782 -0.751312 2.18229 0
M  V30 7794 C 721.752 -1.22297 1.12395 0
M  V30 7795 O 722.937 -1.29015 1.40569 0
M  V30 7796 C 720.077 -1.97291 2.83143 0
M  V30 7797 C 719.19 -1.54431 4.03454 0
M  V30 7798 C 718.325 -2.72 4.56278 0
M  V30 7799 C 717.364 -2.25657 5.68986 0
M  V30 7800 N 716.501 -3.36338 6.16296 0
M  V30 7801 H 721.341 -0.219033 2.97194 0
M  V30 7802 H 718.878 -0.0963803 1.46784 0
M  V30 7803 H 720.836 -2.68949 3.1894 0
M  V30 7804 H 719.466 -2.4788 2.06773 0
M  V30 7805 H 718.518 -0.724273 3.73441 0
M  V30 7806 H 719.83 -1.16417 4.85024 0
M  V30 7807 H 718.984 -3.51806 4.94285 0
M  V30 7808 H 717.723 -3.13277 3.73777 0
M  V30 7809 H 716.728 -1.44299 5.30526 0
M  V30 7810 H 717.953 -1.85432 6.53293 0
M  V30 7811 H 715.899 -3.7718 5.36723 0
M  V30 7812 H 715.816 -3.02435 6.9287 0
M  V30 7813 H 717.084 -4.16413 6.58954 0
M  V30 7814 N 721.313 -1.57302 -0.09688 0
M  V30 7815 C 722.243 -2.0497 -1.11846 0
M  V30 7816 C 723.224 -0.938278 -1.41882 0
M  V30 7817 O 724.409 -1.20943 -1.51942 0
M  V30 7818 C 721.539 -2.47264 -2.43881 0
M  V30 7819 C 720.493 -3.62053 -2.28257 0
M  V30 7820 C 719.819 -3.90318 -3.65453 0
M  V30 7821 C 721.119 -4.93005 -1.72461 0
M  V30 7822 H 722.813 -2.90567 -0.721888 0
M  V30 7823 H 720.359 -1.39786 -0.345803 0
M  V30 7824 H 722.312 -2.7922 -3.15617 0
M  V30 7825 H 721.036 -1.58664 -2.8547 0
M  V30 7826 H 719.695 -3.30341 -1.58967 0
M  V30 7827 H 719.343 -2.98889 -4.04567 0
M  V30 7828 H 719.043 -4.67597 -3.55846 0
M  V30 7829 H 720.567 -4.24747 -4.3866 0
M  V30 7830 H 721.981 -5.23354 -2.34036 0
M  V30 7831 H 720.378 -5.74436 -1.73618 0
M  V30 7832 H 721.448 -4.80053 -0.683898 0
M  V30 7833 N 722.791 0.367657 -1.53252 0
M  V30 7834 C 723.724 1.47264 -1.74323 0
M  V30 7835 C 724.702 1.51458 -0.591535 0
M  V30 7836 O 725.886 1.69542 -0.823883 0
M  V30 7837 C 723.013 2.85637 -1.82015 0
M  V30 7838 C 722.059 2.99176 -3.03967 0
M  V30 7839 S 722.892 2.68147 -4.63527 0
M  V30 7840 C 724.048 4.08673 -4.74065 0
M  V30 7841 H 724.281 1.29169 -2.67773 0
M  V30 7842 H 721.814 0.561866 -1.43814 0
M  V30 7843 H 723.772 3.65365 -1.87132 0
M  V30 7844 H 722.433 3.01043 -0.896195 0
M  V30 7845 H 721.626 4.00511 -3.05953 0
M  V30 7846 H 721.228 2.27367 -2.96952 0
M  V30 7847 H 723.52 5.02889 -4.53992 0
M  V30 7848 H 724.463 4.11693 -5.7612 0
M  V30 7849 H 724.871 3.95576 -4.02716 0
M  V30 7850 N 724.269 1.44576 0.627338 0
M  V30 7851 C 725.497 1.51048 1.41394 0
M  V30 7852 C 725.912 0.136568 1.88305 0
M  V30 7853 O 725.269 -0.858251 1.6106 0
M  V30 7854 C 725.32 2.47837 2.63172 0
M  V30 7855 O 725.041 3.79887 2.18215 0
M  V30 7856 C 726.542 2.63811 3.56257 0
M  V30 7857 H 723.762 0.512171 0.4335 0
M  V30 7858 H 726.306 1.89576 0.766878 0
M  V30 7859 H 724.461 2.12433 3.23961 0
M  V30 7860 H 724.875 4.32177 2.97192 0
M  V30 7861 H 726.349 3.35554 4.38301 0
M  V30 7862 H 726.826 1.69169 4.05313 0
M  V30 7863 H 727.432 3.0013 3.01333 0
M  V30 7864 N 725.747 -0.868086 1.31537 0
M  V30 7865 C 726.677 -1.99131 1.21939 0
M  V30 7866 C 727.658 -1.69768 0.106166 0
M  V30 7867 O 728.843 -1.92006 0.291081 0
M  V30 7868 C 725.973 -3.34676 0.927879 0
M  V30 7869 C 724.927 -3.7835 2.00088 0
M  V30 7870 C 724.253 -5.11375 1.56203 0
M  V30 7871 C 725.553 -3.95256 3.41424 0
M  V30 7872 H 727.247 -2.07419 2.15911 0
M  V30 7873 H 724.793 -0.996569 1.03945 0
M  V30 7874 H 726.746 -4.12793 0.847327 0
M  V30 7875 H 725.47 -3.26565 -0.0475042 0
M  V30 7876 H 724.129 -3.02474 2.07135 0
M  V30 7877 H 723.777 -4.99709 0.57445 0
M  V30 7878 H 723.477 -5.41568 2.27985 0
M  V30 7879 H 725.001 -5.92001 1.49558 0
M  V30 7880 H 726.415 -4.63764 3.3704 0
M  V30 7881 H 724.812 -4.36849 4.1144 0
M  V30 7882 H 725.882 -2.98579 3.82072 0
M  V30 7883 N 727.225 -1.14528 -1.08264 0
M  V30 7884 C 728.636 -0.925261 -1.6216 0
M  V30 7885 C 728.987 0.535587 -1.88748 0
M  V30 7886 O 728.112 1.4048 -1.64604 0
M  V30 7887 C 728.707 -1.67316 -2.94603 0
M  V30 7888 C 727.266 -1.49868 -3.45278 0
M  V30 7889 C 726.413 -1.69471 -2.19487 0
M  V30 7890 H 729.364 -1.29687 -0.914707 0
M  V30 7891 H 729.385 -1.13721 -3.63109 0
M  V30 7892 H 728.897 -2.73635 -2.75219 0
M  V30 7893 H 726.998 -0.459032 -3.69762 0
M  V30 7894 H 727.111 -2.2696 -4.21931 0
M  V30 7895 H 725.475 -1.12048 -2.2873 0
M  V30 7896 H 726.258 -2.77136 -2.0261 0
M  V30 7897 N 728.703 1.26451 -0.940633 0
M  V30 7898 C 729.98 1.88947 -0.505811 0
M  V30 7899 C 730.36 1.85011 1.01657 0
M  V30 7900 O 729.708 1.30406 1.87634 0
M  V30 7901 C 729.918 3.32304 -1.06654 0
M  V30 7902 C 731.266 4.09153 -1.13486 0
M  V30 7903 O 732.29 3.41371 -1.01708 0
M  V30 7904 O 731.149 5.30369 -1.31797 0
M  V30 7905 H 728.243 0.810422 -0.164759 0
M  V30 7906 H 730.789 1.34625 -1.03316 0
M  V30 7907 H 729.561 3.29527 -2.11015 0
M  V30 7908 H 729.184 3.94164 -0.521603 0
M  V30 7909 N 730.181 0.707592 1.40822 0
M  V30 7910 C 731.144 0.0587224 2.29125 0
M  V30 7911 C 732.144 -0.695624 1.44975 0
M  V30 7912 O 733.334 -0.528718 1.65983 0
M  V30 7913 C 730.466 -0.926939 3.28056 0
M  V30 7914 H 731.659 0.836349 2.88002 0
M  V30 7915 H 729.212 0.471778 1.4901 0
M  V30 7916 H 729.947 -1.7319 2.74182 0
M  V30 7917 H 729.732 -0.389015 3.90165 0
M  V30 7918 H 731.222 -1.37837 3.94196 0
M  V30 7919 N 731.66 -1.50943 0.453197 0
M  V30 7920 C 732.885 -2.07116 -0.108463 0
M  V30 7921 C 733.31 -1.31681 -1.3432 0
M  V30 7922 O 732.668 -0.359256 -1.77705 0
M  V30 7923 C 732.716 -3.58447 -0.393424 0
M  V30 7924 O 731.82 -3.85038 -1.47714 0
M  V30 7925 H 731.161 -0.66398 0.0050993 0
M  V30 7926 H 733.691 -1.94362 0.639095 0
M  V30 7927 H 733.701 -4.02961 -0.639222 0
M  V30 7928 H 732.376 -4.12774 0.508946 0
M  V30 7929 H 730.953 -3.52376 -1.22006 0
M  V30 7930 N 733.138 -0.185124 -1.56509 0
M  V30 7931 C 734.068 0.735098 -2.21627 0
M  V30 7932 C 735.049 1.2288 -1.1762 0
M  V30 7933 O 736.234 1.27945 -1.46095 0
M  V30 7934 C 733.364 1.95889 -2.86783 0
M  V30 7935 C 732.318 1.6005 -3.96948 0
M  V30 7936 C 731.644 2.90009 -4.4922 0
M  V30 7937 C 732.944 0.818008 -5.15855 0
M  V30 7938 H 734.638 0.192274 -2.98782 0
M  V30 7939 H 732.184 0.0910393 -1.43712 0
M  V30 7940 H 734.137 2.60779 -3.31017 0
M  V30 7941 H 732.861 2.52608 -2.07018 0
M  V30 7942 H 731.52 0.975237 -3.5339 0
M  V30 7943 H 731.168 3.44797 -3.6623 0
M  V30 7944 H 730.868 2.66778 -5.23549 0
M  V30 7945 H 732.392 3.55904 -4.9615 0
M  V30 7946 H 733.806 1.36979 -5.56695 0
M  V30 7947 H 732.203 0.684207 -5.96187 0
M  V30 7948 H 733.273 -0.182939 -4.84555 0
M  V30 7949 N 734.616 1.57351 0.0885366 0
M  V30 7950 C 735.546 2.05561 1.10757 0
M  V30 7951 C 736.527 0.945789 1.41382 0
M  V30 7952 O 737.712 1.21747 1.51299 0
M  V30 7953 C 734.842 2.48554 2.42566 0
M  V30 7954 C 733.796 3.63259 2.26334 0
M  V30 7955 C 733.122 3.9225 3.63378 0
M  V30 7956 C 734.422 4.93913 1.69844 0
M  V30 7957 H 736.116 2.90946 0.706468 0
M  V30 7958 H 733.662 1.39968 0.338385 0
M  V30 7959 H 735.615 2.8089 3.14132 0
M  V30 7960 H 734.339 1.60176 2.84625 0
M  V30 7961 H 732.998 3.31179 1.57213 0
M  V30 7962 H 732.646 3.0103 4.02976 0
M  V30 7963 H 732.346 4.69478 3.53362 0
M  V30 7964 H 733.87 4.27067 4.36401 0
M  V30 7965 H 735.284 5.24588 2.31258 0
M  V30 7966 H 733.681 5.75349 1.70569 0
M  V30 7967 H 734.751 4.80409 0.65843 0
M  V30 7968 N 736.094 -0.359525 1.53444 0
M  V30 7969 C 737.505 -0.936009 1.61542 0
M  V30 7970 C 737.856 -1.90069 0.486633 0
M  V30 7971 O 736.981 -2.12929 -0.386047 0
M  V30 7972 C 737.576 -1.70441 2.92806 0
M  V30 7973 C 736.135 -2.23015 3.03218 0
M  V30 7974 C 735.282 -1.04438 2.56881 0
M  V30 7975 H 738.233 -0.138134 1.58098 0
M  V30 7976 H 738.254 -2.56609 2.80948 0
M  V30 7977 H 737.766 -1.00205 3.74941 0
M  V30 7978 H 735.867 -2.96475 2.25684 0
M  V30 7979 H 735.98 -2.50481 4.08407 0
M  V30 7980 H 734.344 -1.41314 2.11902 0
M  V30 7981 H 735.127 -0.356905 3.4144 0
M  V30 7982 N 737.572 -1.44907 -0.619662 0
M  V30 7983 C 738.505 -1.47133 -1.74434 0
M  V30 7984 C 739.483 -0.328933 -1.59238 0
M  V30 7985 O 740.667 -0.527632 -1.80965 0
M  V30 7986 C 737.794 -1.31491 -3.12134 0
M  V30 7987 C 736.84 -2.49441 -3.4595 0
M  V30 7988 S 737.673 -4.11945 -3.42142 0
M  V30 7989 C 738.829 -3.98747 -4.82443 0
M  V30 7990 H 739.062 -2.42295 -1.7228 0
M  V30 7991 H 736.595 -1.32343 -0.795276 0
M  V30 7992 H 738.553 -1.23153 -3.91591 0
M  V30 7993 H 737.214 -0.378203 -3.11815 0
M  V30 7994 H 736.407 -2.3439 -4.46181 0
M  V30 7995 H 736.009 -2.54577 -2.73982 0
M  V30 7996 H 738.301 -3.63145 -5.71954 0
M  V30 7997 H 739.244 -4.98848 -5.0255 0
M  V30 7998 H 739.652 -3.30608 -4.57557 0
M  V30 7999 N 739.05 0.861098 -1.31996 0
M  V30 8000 C 739.98 1.98482 -1.22993 0
M  V30 8001 C 740.961 1.6971 -0.115168 0
M  V30 8002 O 742.146 1.91849 -0.30126 0
M  V30 8003 C 739.276 3.34179 -0.945615 0
M  V30 8004 C 738.23 3.77284 -2.02091 0
M  V30 8005 C 737.556 5.1054 -1.58912 0
M  V30 8006 C 738.856 3.93439 -3.43515 0
M  V30 8007 H 740.55 2.06271 -2.17008 0
M  V30 8008 H 738.096 0.991043 -1.04472 0
M  V30 8009 H 740.049 4.12338 -0.869206 0
M  V30 8010 H 738.773 3.26586 0.0301849 0
M  V30 8011 H 737.432 3.01371 -2.08737 0
M  V30 8012 H 737.08 4.99397 -0.600942 0
M  V30 8013 H 736.78 5.40352 -2.30854 0
M  V30 8014 H 738.304 5.91199 -1.52696 0
M  V30 8015 H 739.718 4.6197 -3.39495 0
M  V30 8016 H 738.115 4.34661 -4.13751 0
M  V30 8017 H 739.185 2.96548 -3.8365 0
M  V30 8018 N 740.528 1.15101 1.07655 0
M  V30 8019 C 741.458 0.867864 2.16773 0
M  V30 8020 C 742.439 -0.180283 1.69142 0
M  V30 8021 O 743.624 -0.0353152 1.94168 0
M  V30 8022 C 740.754 0.35299 3.45501 0
M  V30 8023 C 739.708 1.33746 4.06566 0
M  V30 8024 C 739.034 0.681562 5.30338 0
M  V30 8025 C 740.334 2.7024 4.46954 0
M  V30 8026 H 742.028 1.78034 2.40716 0
M  V30 8027 H 739.574 0.857435 1.15689 0
M  V30 8028 H 741.527 0.142465 4.21159 0
M  V30 8029 H 740.251 -0.594945 3.21135 0
M  V30 8030 H 738.91 1.53429 3.32949 0
M  V30 8031 H 738.558 -0.272422 5.02262 0
M  V30 8032 H 738.258 1.33853 5.72151 0
M  V30 8033 H 739.782 0.48074 6.08705 0
M  V30 8034 H 741.196 2.5442 5.13754 0
M  V30 8035 H 739.593 3.32282 4.99709 0
M  V30 8036 H 740.663 3.26537 3.58471 0
M  V30 8037 N 742.006 -1.2595 0.947325 0
M  V30 8038 C 743.252 -1.9375 0.599064 0
M  V30 8039 C 743.585 -1.74088 -0.860632 0
M  V30 8040 O 742.86 -1.08158 -1.61654 0
M  V30 8041 C 743.143 -3.47353 0.949634 0
M  V30 8042 C 742.996 -3.76273 2.46452 0
M  V30 8043 C 744.315 -4.37589 0.469442 0
M  V30 8044 H 741.434 -0.703674 0.219115 0
M  V30 8045 H 744.076 -1.48705 1.18266 0
M  V30 8046 H 742.226 -3.8585 0.453008 0
M  V30 8047 H 743.898 -3.47455 3.03435 0
M  V30 8048 H 742.141 -3.22135 2.90537 0
M  V30 8049 H 742.812 -4.83664 2.66032 0
M  V30 8050 H 745.288 -4.06353 0.89534 0
M  V30 8051 H 744.164 -5.43841 0.7435 0
M  V30 8052 H 744.425 -4.37579 -0.630618 0
M  V30 8053 N 743.484 -0.715051 -1.40445 0
M  V30 8054 C 744.414 -0.0768699 -2.33373 0
M  V30 8055 C 745.395 0.746109 -1.52863 0
M  V30 8056 O 746.58 0.695142 -1.81332 0
M  V30 8057 C 743.71 0.846014 -3.36838 0
M  V30 8058 C 742.664 0.128694 -4.27806 0
M  V30 8059 C 741.99 1.16726 -5.21804 0
M  V30 8060 C 743.29 -1.01679 -5.12307 0
M  V30 8061 H 744.984 -0.853061 -2.8699 0
M  V30 8062 H 742.53 -0.41167 -1.3799 0
M  V30 8063 H 744.483 1.30185 -4.00786 0
M  V30 8064 H 743.207 1.6541 -2.81615 0
M  V30 8065 H 741.866 -0.307314 -3.6531 0
M  V30 8066 H 741.514 1.96838 -4.62887 0
M  V30 8067 H 741.214 0.692188 -5.83509 0
M  V30 8068 H 742.738 1.62321 -5.88629 0
M  V30 8069 H 744.152 -0.640337 -5.69713 0
M  V30 8070 H 742.549 -1.4202 -5.83053 0
M  V30 8071 H 743.619 -1.84769 -4.48317 0
M  V30 8072 N 744.962 1.50701 -0.461195 0
M  V30 8073 C 745.909 2.2831 0.338094 0
M  V30 8074 C 746.879 1.32928 0.995957 0
M  V30 8075 O 748.064 1.61857 1.0103 0
M  V30 8076 C 745.204 3.14539 1.41983 0
M  V30 8077 C 744.317 4.24942 0.77773 0
M  V30 8078 C 743.452 4.98443 1.83652 0
M  V30 8079 C 742.491 6.00733 1.17413 0
M  V30 8080 N 741.628 6.6755 2.17533 0
M  V30 8081 H 746.468 2.96167 -0.330051 0
M  V30 8082 H 744.005 1.4606 -0.174611 0
M  V30 8083 H 745.963 3.62877 2.05855 0
M  V30 8084 H 744.593 2.48749 2.05727 0
M  V30 8085 H 743.645 3.80391 0.0266924 0
M  V30 8086 H 744.957 4.98151 0.254362 0
M  V30 8087 H 744.111 5.50449 2.55129 0
M  V30 8088 H 742.85 4.24917 2.39367 0
M  V30 8089 H 741.855 5.47997 0.444944 0
M  V30 8090 H 743.08 6.76227 0.624006 0
M  V30 8091 H 741.026 5.96823 2.72284 0
M  V30 8092 H 740.943 7.36603 1.70154 0
M  V30 8093 H 742.211 7.24178 2.88421 0
M  V30 8094 N 746.441 0.193421 1.56409 0
M  V30 8095 C 747.69 -0.445995 1.96707 0
M  V30 8096 C 748.003 -1.62876 1.08309 0
M  V30 8097 O 749.209 -2.33586 1.38383 0
M  V30 8098 C 747.665 -0.844863 3.49843 0
M  V30 8099 C 747.273 0.31352 4.46902 0
M  V30 8100 C 749.017 -1.45146 3.98915 0
M  V30 8101 C 746.924 -0.106214 5.91305 0
M  V30 8102 H 745.854 -0.170398 0.734493 0
M  V30 8103 H 748.505 0.285172 1.81271 0
M  V30 8104 H 746.887 -1.63265 3.60778 0
M  V30 8105 H 748.061 1.09103 4.47698 0
M  V30 8106 H 746.376 0.8315 4.08014 0
M  V30 8107 H 748.973 -1.77792 5.04276 0
M  V30 8108 H 749.316 -2.35734 3.43126 0
M  V30 8109 H 749.849 -0.727675 3.91088 0
M  V30 8110 H 746.588 0.765442 6.51016 0
M  V30 8111 H 746.108 -0.848623 5.93766 0
M  V30 8112 H 747.787 -0.542588 6.44721 0
M  V30 8113 N 747.919 -1.57396 -0.0801906 0
M  V30 8114 C 749.144 -1.91437 -0.797909 0
M  V30 8115 C 749.569 -0.789075 -1.70749 0
M  V30 8116 O 748.927 0.25857 -1.79447 0
M  V30 8117 C 748.975 -3.24402 -1.57467 0
M  V30 8118 O 748.079 -3.13043 -2.68473 0
M  V30 8119 H 747.42 -0.627109 -0.218243 0
M  V30 8120 H 749.95 -2.04537 -0.050949 0
M  V30 8121 H 749.96 -3.58072 -1.95571 0
M  V30 8122 H 748.635 -4.05884 -0.907229 0
M  V30 8123 H 747.212 -2.90915 -2.33287 0
M  V30 8124 N 749.397 0.351382 -1.53633 0
M  V30 8125 C 750.813 0.693987 -1.43722 0
M  V30 8126 C 751.013 1.9274 -0.587669 0
M  V30 8127 O 750.069 2.52387 -0.0756082 0
M  V30 8128 C 751.382 0.893937 -2.87105 0
M  V30 8129 C 752.93 0.993051 -2.96829 0
M  V30 8130 C 753.405 1.22537 -4.41303 0
M  V30 8131 N 754.896 1.29275 -4.44795 0
M  V30 8132 C 755.631 1.48988 -5.53706 0
M  V30 8133 N 755.127 1.65924 -6.72637 0
M  V30 8134 N 756.92 1.51472 -5.41306 0
M  V30 8135 H 749.071 -0.459688 -2.07366 0
M  V30 8136 H 751.334 -0.143684 -0.937048 0
M  V30 8137 H 751.04 0.0592517 -3.5165 0
M  V30 8138 H 750.914 1.79795 -3.31592 0
M  V30 8139 H 753.301 1.81827 -2.32429 0
M  V30 8140 H 753.382 0.0661119 -2.55715 0
M  V30 8141 H 753.026 0.405117 -5.06282 0
M  V30 8142 H 752.956 2.16575 -4.80003 0
M  V30 8143 H 755.447 1.17743 -3.59089 0
M  V30 8144 H 755.76 1.80578 -7.51406 0
M  V30 8145 H 754.105 1.63075 -6.75597 0
M  V30 8146 H 757.296 1.37818 -4.47352 0
M  V30 8147 H 757.469 1.66493 -6.26246 0
M  V30 8148 N 750.875 1.45233 0.611969 0
M  V30 8149 C 751.823 1.53898 1.74408 0
M  V30 8150 C 752.817 0.409254 1.64382 0
M  V30 8151 O 754.023 0.584988 1.70229 0
M  V30 8152 H 750.398 0.483303 0.576127 0
M  V30 8153 H 752.369 2.49143 1.64227 0
M  V30 8154 C 751.118 1.51865 3.12782 0
M  V30 8155 H 750.441 2.38118 3.21154 0
M  V30 8156 H 751.881 1.61986 3.91838 0
M  V30 8157 C 750.34 0.242374 3.36027 0
M  V30 8158 O 750.87 -0.679587 3.9591 0
M  V30 8159 N 749.076 0.139448 2.90265 0
M  V30 8160 H 748.623 0.890571 2.41716 0
M  V30 8161 H 748.581 -0.713686 3.06193 0
M  V30 8162 N 752.353 -0.854086 1.3245 0
M  V30 8163 C 753.316 -1.94427 1.21371 0
M  V30 8164 C 754.316 -1.60219 0.136613 0
M  V30 8165 O 755.506 -1.69846 0.387057 0
M  V30 8166 C 752.638 -3.29698 0.866701 0
M  V30 8167 H 753.831 -2.05679 2.18257 0
M  V30 8168 H 751.384 -1.04434 1.1629 0
M  V30 8169 H 752.119 -3.24145 -0.100319 0
M  V30 8170 H 751.904 -3.55903 1.64545 0
M  V30 8171 H 753.394 -4.09599 0.813515 0
M  V30 8172 N 753.831 -1.1567 -1.07043 0
M  V30 8173 C 755.08 -0.928039 -1.79082 0
M  V30 8174 C 755.393 0.545968 -1.87826 0
M  V30 8175 O 756.599 0.892308 -2.56418 0
M  V30 8176 C 755.055 -1.61103 -3.21829 0
M  V30 8177 C 754.663 -3.12228 -3.21275 0
M  V30 8178 C 756.407 -1.46404 -3.98455 0
M  V30 8179 C 754.314 -3.733 -4.58695 0
M  V30 8180 H 753.244 -0.34357 -0.671175 0
M  V30 8181 H 755.895 -1.38718 -1.20123 0
M  V30 8182 H 754.277 -1.07958 -3.81 0
M  V30 8183 H 755.451 -3.72155 -2.71731 0
M  V30 8184 H 753.766 -3.26725 -2.58147 0
M  V30 8185 H 756.363 -1.8942 -5.00024 0
M  V30 8186 H 756.706 -0.41195 -4.14257 0
M  V30 8187 H 757.239 -1.96663 -3.45787 0
M  V30 8188 H 753.978 -4.78423 -4.48098 0
M  V30 8189 H 753.498 -3.18157 -5.08465 0
M  V30 8190 H 755.177 -3.7441 -5.27661 0
M  V30 8191 N 755.309 1.25446 -0.953992 0
M  V30 8192 C 756.537 1.97215 -0.625595 0
M  V30 8193 C 756.952 1.70911 0.802168 0
M  V30 8194 O 756.309 0.984782 1.5365 0
M  V30 8195 C 756.36 3.50777 -0.873943 0
M  V30 8196 O 756.081 3.76173 -2.24556 0
M  V30 8197 C 757.582 4.39776 -0.557845 0
M  V30 8198 H 754.802 0.628652 -0.2346 0
M  V30 8199 H 757.346 1.59632 -1.27819 0
M  V30 8200 H 755.501 3.86474 -0.267765 0
M  V30 8201 H 755.915 4.70636 -2.31522 0
M  V30 8202 H 757.389 5.46431 -0.782157 0
M  V30 8203 H 757.866 4.36257 0.507573 0
M  V30 8204 H 758.472 4.09644 -1.14332 0
M  V30 8205 N 756.787 0.722489 1.40064 0
M  V30 8206 C 758.015 0.274838 2.05066 0
M  V30 8207 C 758.43 -1.08586 1.54449 0
M  V30 8208 O 757.787 -1.68375 0.704003 0
M  V30 8209 C 757.838 0.253673 3.60609 0
M  V30 8210 O 757.559 1.56064 4.0936 0
M  V30 8211 C 759.06 -0.211684 4.42794 0
M  V30 8212 H 756.28 0.12226 0.659768 0
M  V30 8213 H 758.824 0.982632 1.79345 0
M  V30 8214 H 756.979 -0.405137 3.85276 0
M  V30 8215 H 757.393 1.46576 5.03603 0
M  V30 8216 H 758.867 -0.175341 5.51721 0
M  V30 8217 H 759.344 -1.25493 4.2089 0
M  V30 8218 H 759.95 0.4171 4.2325 0
M  V30 8219 N 758.265 -1.50454 0.469181 0
M  V30 8220 C 759.512 -2.02315 -0.086469 0
M  V30 8221 C 759.84 -1.3513 -1.39893 0
M  V30 8222 O 759.095 -0.465341 -1.90087 0
M  V30 8223 C 759.394 -3.55963 -0.320207 0
M  V30 8224 C 759.06 -4.41615 0.910318 0
M  V30 8225 C 757.722 -4.64743 1.2477 0
M  V30 8226 C 760.074 -4.91661 1.72971 0
M  V30 8227 C 757.402 -5.35161 2.40457 0
M  V30 8228 C 759.754 -5.6335 2.87785 0
M  V30 8229 C 758.418 -5.84732 3.2194 0
M  V30 8230 H 757.688 -0.740324 -0.0316412 0
M  V30 8231 H 760.335 -1.81087 0.622872 0
M  V30 8232 H 758.64 -3.75695 -1.11177 0
M  V30 8233 H 760.337 -3.93653 -0.764071 0
M  V30 8234 H 756.927 -4.23833 0.637467 0
M  V30 8235 H 761.111 -4.73649 1.48224 0
M  V30 8236 H 756.367 -5.49924 2.67196 0
M  V30 8237 H 760.541 -6.0111 3.51624 0
M  V30 8238 H 758.168 -6.39074 4.1169 0
M  V30 8239 N 759.743 -0.201713 -1.56304 0
M  V30 8240 C 760.968 0.443815 -2.02596 0
M  V30 8241 C 761.393 1.53945 -1.08086 0
M  V30 8242 O 760.751 1.81182 -0.0655056 0
M  V30 8243 C 760.799 0.971066 -3.47279 0
M  V30 8244 O 759.903 2.0836 -3.55893 0
M  V30 8245 H 759.244 0.10294 -0.655972 0
M  V30 8246 H 761.774 -0.314533 -2.02168 0
M  V30 8247 H 761.784 1.28598 -3.87204 0
M  V30 8248 H 760.459 0.169048 -4.15556 0
M  V30 8249 H 759.036 1.77683 -3.27846 0
M  V30 8250 N 761.222 1.57436 0.0718424 0
M  V30 8251 C 762.169 2.03686 1.08539 0
M  V30 8252 C 763.139 0.917474 1.38462 0
M  V30 8253 O 764.324 1.18513 1.4953 0
M  V30 8254 C 761.464 2.48566 2.39393 0
M  V30 8255 C 760.577 3.74122 2.16001 0
M  V30 8256 C 759.712 4.07786 3.40418 0
M  V30 8257 C 758.751 5.26383 3.1239 0
M  V30 8258 N 757.888 5.55685 4.29138 0
M  V30 8259 H 762.728 2.90043 0.684018 0
M  V30 8260 H 760.265 1.43438 0.326183 0
M  V30 8261 H 762.223 2.72639 3.15791 0
M  V30 8262 H 760.853 1.65186 2.77333 0
M  V30 8263 H 759.905 3.57389 1.30296 0
M  V30 8264 H 761.217 4.60659 1.91298 0
M  V30 8265 H 760.371 4.32759 4.25211 0
M  V30 8266 H 759.11 3.19817 3.68197 0
M  V30 8267 H 758.115 5.01206 2.25993 0
M  V30 8268 H 759.34 6.1597 2.85934 0
M  V30 8269 H 757.286 4.70675 4.56948 0
M  V30 8270 H 757.203 6.3664 4.07708 0
M  V30 8271 H 758.471 5.85209 5.14928 0
M  V30 8272 N 762.7 -0.34323 1.53817 0
M  V30 8273 C 763.61 -1.44493 1.84821 0
M  V30 8274 C 764.626 -1.57556 0.738381 0
M  V30 8275 O 765.802 -1.73026 1.03072 0
M  V30 8276 C 762.867 -2.79478 2.05166 0
M  V30 8277 C 761.928 -2.75756 3.29025 0
M  V30 8278 C 761.161 -4.04302 3.4839 0
M  V30 8279 O 761.384 -5.01595 2.71586 0
M  V30 8280 O 760.318 -4.08754 4.41819 0
M  V30 8281 H 764.144 -1.21209 2.78464 0
M  V30 8282 H 761.729 -0.535437 1.39476 0
M  V30 8283 H 763.611 -3.59419 2.19991 0
M  V30 8284 H 762.286 -3.02692 1.14713 0
M  V30 8285 H 761.193 -1.94434 3.19603 0
M  V30 8286 H 762.526 -2.57495 4.19472 0
M  V30 8287 N 764.178 -1.45556 -0.604258 0
M  V30 8288 C 765.11 -1.50494 -1.72871 0
M  V30 8289 C 766.123 -0.395368 -1.57926 0
M  V30 8290 O 767.312 -0.662603 -1.65746 0
M  V30 8291 C 764.412 -1.34874 -3.10906 0
M  V30 8292 C 763.585 -2.59564 -3.52058 0
M  V30 8293 C 762.644 -2.38453 -4.6907 0
M  V30 8294 O 761.67 -3.12082 -4.76018 0
M  V30 8295 N 762.872 -1.43229 -5.62553 0
M  V30 8296 H 765.637 -2.4744 -1.69097 0
M  V30 8297 H 763.198 -1.41338 -0.789636 0
M  V30 8298 H 765.19 -1.18556 -3.86945 0
M  V30 8299 H 763.76 -0.461913 -3.09168 0
M  V30 8300 H 762.98 -2.90974 -2.65946 0
M  V30 8301 H 764.268 -3.42441 -3.76313 0
M  V30 8302 H 763.666 -0.824714 -5.59656 0
M  V30 8303 H 762.223 -1.32882 -6.38111 0
M  V30 8304 N 765.656 0.84705 -1.32902 0
M  V30 8305 C 766.586 1.97166 -1.25091 0
M  V30 8306 C 767.567 1.69578 -0.133161 0
M  V30 8307 O 768.752 1.91519 -0.321591 0
M  V30 8308 C 765.882 3.33157 -0.981006 0
M  V30 8309 C 764.836 3.75119 -2.06082 0
M  V30 8310 C 764.162 5.08826 -1.64318 0
M  V30 8311 C 765.462 3.89774 -3.47669 0
M  V30 8312 H 767.156 2.03958 -2.19184 0
M  V30 8313 H 764.702 0.979907 -1.05517 0
M  V30 8314 H 766.655 4.11393 -0.912891 0
M  V30 8315 H 765.379 3.266 -0.00445559 0
M  V30 8316 H 764.038 2.9914 -2.11921 0
M  V30 8317 H 763.686 4.98732 -0.653876 0
M  V30 8318 H 763.386 5.37873 -2.36572 0
M  V30 8319 H 764.91 5.89546 -1.58958 0
M  V30 8320 H 766.324 4.58343 -3.44376 0
M  V30 8321 H 764.721 4.30248 -4.18338 0
M  V30 8322 H 765.791 2.92463 -3.86773 0
M  V30 8323 N 767.134 1.16236 1.06428 0
M  V30 8324 C 768.411 0.853294 1.76006 0
M  V30 8325 C 768.791 -0.649162 2.00871 0
M  V30 8326 O 768.139 -1.59653 1.63472 0
M  V30 8327 C 768.349 1.67448 3.06206 0
M  V30 8328 C 769.697 1.8866 3.80385 0
M  V30 8329 O 770.721 1.64303 3.16043 0
M  V30 8330 O 769.58 2.29518 4.95968 0
M  V30 8331 H 766.674 0.314737 0.764767 0
M  V30 8332 H 769.22 1.26865 1.12709 0
M  V30 8333 H 767.992 2.69411 2.83784 0
M  V30 8334 H 767.615 1.25608 3.77238 0
M  V30 8335 N 768.612 -1.24939 0.960631 0
M  V30 8336 C 769.837 -1.9742 0.635608 0
M  V30 8337 C 770.262 -1.70857 -0.786737 0
M  V30 8338 O 769.62 -0.968063 -1.53291 0
M  V30 8339 C 769.668 -3.48987 0.907771 0
M  V30 8340 O 768.772 -4.12399 -0.0104053 0
M  V30 8341 H 768.113 -0.61871 0.241027 0
M  V30 8342 H 770.643 -1.58901 1.28886 0
M  V30 8343 H 770.653 -3.99334 0.836453 0
M  V30 8344 H 769.328 -3.6765 1.94439 0
M  V30 8345 H 767.905 -3.72727 0.113631 0
M  V30 8346 N 770.09 -0.729906 -1.39679 0
M  V30 8347 C 771.337 -0.275622 -2.00615 0
M  V30 8348 C 771.665 1.13559 -1.57907 0
M  V30 8349 O 770.92 1.78745 -0.796789 0
M  V30 8350 C 771.219 -0.319564 -3.55968 0
M  V30 8351 C 770.885 -1.68308 -4.1831 0
M  V30 8352 C 769.547 -2.05629 -4.35052 0
M  V30 8353 C 771.899 -2.57857 -4.52945 0
M  V30 8354 C 769.227 -3.32018 -4.83716 0
M  V30 8355 C 771.579 -3.83613 -5.03015 0
M  V30 8356 C 770.243 -4.21033 -5.17965 0
M  V30 8357 H 769.513 -0.100857 -0.734104 0
M  V30 8358 H 772.16 -0.93575 -1.67081 0
M  V30 8359 H 770.465 0.42414 -3.89497 0
M  V30 8360 H 772.162 0.0499905 -4.00969 0
M  V30 8361 H 768.752 -1.3829 -4.05677 0
M  V30 8362 H 772.936 -2.30295 -4.39634 0
M  V30 8363 H 768.192 -3.6096 -4.93475 0
M  V30 8364 H 772.366 -4.53162 -5.28788 0
M  V30 8365 H 769.993 -5.19034 -5.55435 0
M  V30 8366 N 771.568 1.50203 -0.477153 0
M  V30 8367 C 772.518 2.25561 0.332625 0
M  V30 8368 C 773.502 1.29401 0.956249 0
M  V30 8369 O 774.694 1.54267 0.867795 0
M  V30 8370 C 771.823 3.12984 1.41052 0
M  V30 8371 C 770.909 4.16595 0.79433 0
M  V30 8372 N 771.3 5.05722 -0.0889633 0
M  V30 8373 C 769.598 4.33279 1.0576 0
M  V30 8374 C 770.299 5.80039 -0.439286 0
M  V30 8375 N 769.275 5.43278 0.187018 0
M  V30 8376 H 773.077 2.91836 -0.347718 0
M  V30 8377 H 770.591 1.59759 -0.291686 0
M  V30 8378 H 772.588 3.65582 2.00388 0
M  V30 8379 H 771.248 2.48258 2.09279 0
M  V30 8380 H 772.259 5.15869 -0.458205 0
M  V30 8381 H 768.936 3.79769 1.7344 0
M  V30 8382 H 770.326 6.61802 -1.1605 0
M  V30 8383 N 773.046 0.209999 1.56195 0
M  V30 8384 C 774.274 -0.429996 2.02382 0
M  V30 8385 C 774.689 -1.54159 1.08998 0
M  V30 8386 O 774.046 -1.82239 0.0974856 0
M  V30 8387 C 774.097 -0.972433 3.48175 0
M  V30 8388 O 773.818 0.0948231 4.37997 0
M  V30 8389 C 775.319 -1.68683 4.09952 0
M  V30 8390 H 772.539 -0.106475 0.662498 0
M  V30 8391 H 775.083 0.323072 2.01932 0
M  V30 8392 H 773.238 -1.67582 3.49278 0
M  V30 8393 H 773.652 -0.31113 5.23576 0
M  V30 8394 H 775.126 -2.01851 5.13771 0
M  V30 8395 H 775.603 -2.59587 3.54276 0
M  V30 8396 H 776.209 -1.02893 4.12666 0
M  V30 8397 N 774.524 -1.57472 -0.0634922 0
M  V30 8398 C 775.454 -2.07297 -1.07473 0
M  V30 8399 C 776.435 -0.968162 -1.39859 0
M  V30 8400 O 777.62 -1.24139 -1.49343 0
M  V30 8401 C 774.75 -2.52381 -2.38581 0
M  V30 8402 C 773.704 -3.66813 -2.20526 0
M  V30 8403 C 773.03 -3.97982 -3.57092 0
M  V30 8404 C 774.33 -4.96553 -1.61965 0
M  V30 8405 H 776.024 -2.92033 -0.660092 0
M  V30 8406 H 773.57 -1.40488 -0.316074 0
M  V30 8407 H 775.523 -2.85852 -3.09624 0
M  V30 8408 H 774.247 -1.64684 -2.8204 0
M  V30 8409 H 772.906 -3.33639 -1.51924 0
M  V30 8410 H 772.554 -3.07403 -3.98136 0
M  V30 8411 H 772.254 -4.7504 -3.45848 0
M  V30 8412 H 773.778 -4.33956 -4.29552 0
M  V30 8413 H 775.192 -5.28201 -2.22883 0
M  V30 8414 H 773.589 -5.7799 -1.61394 0
M  V30 8415 H 774.659 -4.81396 -0.581918 0
M  V30 8416 N 776.003 0.335068 -1.53997 0
M  V30 8417 C 776.95 1.41187 -1.82579 0
M  V30 8418 C 777.92 1.51897 -0.672061 0
M  V30 8419 O 779.105 1.673 -0.917346 0
M  V30 8420 C 776.245 2.77717 -2.0486 0
M  V30 8421 C 775.358 2.7573 -3.32561 0
M  V30 8422 C 774.493 4.04032 -3.44864 0
M  V30 8423 C 773.532 3.96308 -4.66483 0
M  V30 8424 N 772.669 5.16317 -4.75774 0
M  V30 8425 H 777.509 1.16113 -2.74448 0
M  V30 8426 H 775.046 0.562305 -1.35928 0
M  V30 8427 H 777.004 3.57071 -2.15768 0
M  V30 8428 H 775.634 3.01124 -1.16294 0
M  V30 8429 H 774.686 1.88432 -3.3045 0
M  V30 8430 H 775.998 2.65902 -4.22016 0
M  V30 8431 H 775.152 4.91814 -3.55251 0
M  V30 8432 H 773.891 4.16652 -2.53481 0
M  V30 8433 H 772.896 3.06911 -4.56164 0
M  V30 8434 H 774.121 3.85263 -5.5924 0
M  V30 8435 H 772.067 5.29464 -3.87303 0
M  V30 8436 H 771.984 5.08779 -5.59178 0
M  V30 8437 H 773.252 6.05846 -4.9048 0
M  V30 8438 N 777.481 1.45874 0.596531 0
M  V30 8439 C 778.709 1.54013 1.38158 0
M  V30 8440 C 779.124 0.17648 1.87973 0
M  V30 8441 O 778.481 -0.823895 1.62844 0
M  V30 8442 C 778.532 2.53363 2.57855 0
M  V30 8443 O 778.253 3.8443 2.10108 0
M  V30 8444 C 779.754 2.71308 3.50581 0
M  V30 8445 H 776.974 0.521251 0.422538 0
M  V30 8446 H 779.518 1.9116 0.726493 0
M  V30 8447 H 777.673 2.19257 3.19382 0
M  V30 8448 H 778.087 4.38384 2.87958 0
M  V30 8449 H 779.561 3.44776 4.31084 0
M  V30 8450 H 780.038 1.77728 4.01633 0
M  V30 8451 H 780.644 3.06455 2.94899 0
M  V30 8452 N 778.959 -0.83999 1.33349 0
M  V30 8453 C 779.889 -1.965 1.26135 0
M  V30 8454 C 780.87 -1.69505 0.142152 0
M  V30 8455 O 782.055 -1.91346 0.331743 0
M  V30 8456 C 779.185 -3.32632 0.99866 0
M  V30 8457 C 778.139 -3.74021 2.08068 0
M  V30 8458 C 777.465 -5.07947 1.67014 0
M  V30 8459 C 778.765 -3.87925 3.49731 0
M  V30 8460 H 780.459 -2.02793 2.20262 0
M  V30 8461 H 778.005 -0.974297 1.06035 0
M  V30 8462 H 779.958 -4.10903 0.934696 0
M  V30 8463 H 778.682 -3.26593 0.0217759 0
M  V30 8464 H 777.341 -2.98012 2.13505 0
M  V30 8465 H 776.989 -4.98378 0.680316 0
M  V30 8466 H 776.689 -5.36611 2.39422 0
M  V30 8467 H 778.213 -5.88695 1.62082 0
M  V30 8468 H 779.627 -4.5651 3.46802 0
M  V30 8469 H 778.024 -4.28023 4.20614 0
M  V30 8470 H 779.094 -2.90407 3.88319 0
M  V30 8471 N 780.437 -1.16799 -1.0581 0
M  V30 8472 C 781.347 -0.893492 -2.16919 0
M  V30 8473 C 782.363 0.136061 -1.73467 0
M  V30 8474 O 783.539 -0.0417348 -2.01357 0
M  V30 8475 C 780.604 -0.403763 -3.44341 0
M  V30 8476 C 779.665 -1.49914 -4.02274 0
M  V30 8477 C 778.898 -1.03269 -5.23614 0
M  V30 8478 O 779.121 0.115647 -5.70283 0
M  V30 8479 O 778.055 -1.8231 -5.73626 0
M  V30 8480 H 781.881 -1.82274 -2.42919 0
M  V30 8481 H 779.466 -0.948361 -1.1544 0
M  V30 8482 H 781.348 -0.137874 -4.21174 0
M  V30 8483 H 780.023 0.497413 -3.19855 0
M  V30 8484 H 778.93 -1.81883 -3.26909 0
M  V30 8485 H 780.263 -2.3758 -4.31064 0
M  V30 8486 N 781.915 1.24427 -0.967243 0
M  V30 8487 C 782.878 2.23637 -0.501927 0
M  V30 8488 C 783.878 1.55712 0.401283 0
M  V30 8489 O 785.068 1.73085 0.196808 0
M  V30 8490 C 782.2 3.39804 0.273176 0
M  V30 8491 H 783.393 2.66317 -1.37897 0
M  V30 8492 H 780.946 1.37033 -0.751783 0
M  V30 8493 H 781.681 3.02562 1.16733 0
M  V30 8494 H 781.466 3.90303 -0.37498 0
M  V30 8495 H 782.956 4.13443 0.587776 0
M  V30 8496 N 783.393 0.737304 1.3929 0
M  V30 8497 C 784.641 0.285691 2.00071 0
M  V30 8498 C 784.962 -1.13169 1.58801 0
M  V30 8499 O 784.232 -1.77104 0.837308 0
M  V30 8500 H 782.812 0.102638 0.739915 0
M  V30 8501 H 785.474 0.947775 1.70303 0
M  V30 8502 H 784.57 0.335906 3.10287 0
M  V30 8503 N 784.871 -1.49948 0.485112 0
M  V30 8504 C 786.119 -2.01996 -0.0648775 0
M  V30 8505 C 786.44 -1.36819 -1.38945 0
M  V30 8506 O 785.71 -0.518163 -1.88923 0
M  V30 8507 H 784.29 -0.746513 -0.0269662 0
M  V30 8508 H 786.952 -1.84136 0.638733 0
M  V30 8509 H 786.048 -3.11418 -0.20617 0
M  V30 8510 N 786.349 -0.21828 -1.56081 0
M  V30 8511 C 787.297 0.709679 -2.21509 0
M  V30 8512 C 788.291 1.20221 -1.19346 0
M  V30 8513 O 789.497 1.16241 -1.37433 0
M  V30 8514 H 785.872 0.247271 -0.710184 0
M  V30 8515 H 787.843 0.134386 -2.98097 0
M  V30 8516 C 786.592 1.90853 -2.90638 0
M  V30 8517 H 785.915 1.53865 -3.69006 0
M  V30 8518 H 787.355 2.53568 -3.39822 0
M  V30 8519 C 785.814 2.76189 -1.92929 0
M  V30 8520 O 786.344 3.74842 -1.44416 0
M  V30 8521 N 784.55 2.42157 -1.6065 0
M  V30 8522 H 784.097 1.61987 -2.00294 0
M  V30 8523 H 784.055 2.99534 -0.955347 0
M  V30 8524 N 787.827 1.57504 0.0551401 0
M  V30 8525 C 788.775 2.05884 1.08233 0
M  V30 8526 C 789.769 0.967383 1.39061 0
M  V30 8527 O 790.975 1.15242 1.38273 0
M  V30 8528 H 787.35 0.656673 0.366449 0
M  V30 8529 H 789.321 2.91273 0.648269 0
M  V30 8530 C 788.07 2.53221 2.38273 0
M  V30 8531 H 787.393 3.36809 2.15406 0
M  V30 8532 H 788.833 2.9081 3.08554 0
M  V30 8533 C 787.292 1.42218 3.05411 0
M  V30 8534 O 787.822 0.773638 3.9418 0
M  V30 8535 N 786.028 1.16316 2.66306 0
M  V30 8536 H 785.575 1.69237 1.94207 0
M  V30 8537 H 785.533 0.422534 3.11548 0
M  V30 8538 N 789.305 -0.326896 1.54172 0
M  V30 8539 C 790.552 -1.06523 1.72218 0
M  V30 8540 C 790.88 -1.88119 0.494114 0
M  V30 8541 O 790.135 -1.8855 -0.524147 0
M  V30 8542 C 790.434 -2.0208 2.94785 0
M  V30 8543 C 790.1 -1.36665 4.2969 0
M  V30 8544 C 788.762 -1.18556 4.66367 0
M  V30 8545 C 791.114 -0.896868 5.13425 0
M  V30 8546 C 788.442 -0.521113 5.84381 0
M  V30 8547 C 790.794 -0.246261 6.3212 0
M  V30 8548 C 789.458 -0.052987 6.67479 0
M  V30 8549 H 788.728 -0.389796 0.63019 0
M  V30 8550 H 791.375 -0.342725 1.88408 0
M  V30 8551 H 789.68 -2.8077 2.73268 0
M  V30 8552 H 791.377 -2.59231 3.05941 0
M  V30 8553 H 787.967 -1.51762 4.00832 0
M  V30 8554 H 792.151 -1.02458 4.85609 0
M  V30 8555 H 787.407 -0.36014 6.10338 0
M  V30 8556 H 791.581 0.125775 6.96286 0
M  V30 8557 H 789.208 0.463903 7.58783 0
M  V30 8558 N 790.784 -1.46188 -0.588786 0
M  V30 8559 C 792.033 -1.50452 -1.34339 0
M  V30 8560 C 792.346 -0.158096 -1.9496 0
M  V30 8561 O 793.552 -0.0784918 -2.71387 0
M  V30 8562 C 792.008 -2.65074 -2.43441 0
M  V30 8563 C 791.616 -4.06111 -1.8915 0
M  V30 8564 C 793.36 -2.78603 -3.20282 0
M  V30 8565 C 791.267 -5.12084 -2.95845 0
M  V30 8566 H 790.197 -0.559905 -0.504997 0
M  V30 8567 H 792.848 -1.72382 -0.629014 0
M  V30 8568 H 791.23 -2.36462 -3.1765 0
M  V30 8569 H 792.404 -4.44487 -1.21524 0
M  V30 8570 H 790.719 -3.97197 -1.24995 0
M  V30 8571 H 793.316 -3.54944 -3.99898 0
M  V30 8572 H 793.659 -1.85902 -3.72486 0
M  V30 8573 H 794.192 -3.06832 -2.53178 0
M  V30 8574 H 790.931 -6.06556 -2.48535 0
M  V30 8575 H 790.451 -4.78259 -3.61979 0
M  V30 8576 H 792.13 -5.37661 -3.59902 0
M  V30 8577 N 792.262 0.832906 -1.33792 0
M  V30 8578 C 793.502 1.60217 -1.26925 0
M  V30 8579 C 793.866 1.91323 0.161146 0
M  V30 8580 O 795.067 2.66461 0.353864 0
M  V30 8581 C 793.338 2.87314 -2.12568 0
M  V30 8582 S 794.897 3.77939 -2.22952 0
M  V30 8583 H 791.715 0.549273 -0.451464 0
M  V30 8584 H 794.317 0.984648 -1.68893 0
M  V30 8585 H 793.021 2.62444 -3.15518 0
M  V30 8586 H 792.552 3.5407 -1.71459 0
M  V30 8587 H 794.567 4.76188 -1.39496 0
M  V30 8588 N 793.74 1.17359 1.05189 0
M  V30 8589 C 794.965 0.98709 1.82404 0
M  V30 8590 C 795.39 -0.459848 1.82392 0
M  V30 8591 O 794.748 -1.32924 1.23292 0
M  V30 8592 C 794.796 1.53276 3.26403 0
M  V30 8593 O 793.9 0.746541 4.05587 0
M  V30 8594 H 793.241 0.35047 0.563974 0
M  V30 8595 H 795.771 1.55856 1.32552 0
M  V30 8596 H 795.781 1.55504 3.77203 0
M  V30 8597 H 794.456 2.58603 3.25726 0
M  V30 8598 H 793.033 0.795671 3.64312 0
M  V30 8599 N 795.218 -1.23913 0.973828 0
M  V30 8600 C 796.458 -1.93889 0.647015 0
M  V30 8601 C 796.822 -1.74368 -0.803735 0
M  V30 8602 O 798.023 -2.38435 -1.24106 0
M  V30 8603 C 796.294 -3.4257 1.01885 0
M  V30 8604 S 797.853 -4.31306 0.807517 0
M  V30 8605 H 794.671 -0.670279 0.237165 0
M  V30 8606 H 797.273 -1.50144 1.25208 0
M  V30 8607 H 795.977 -3.54286 2.07146 0
M  V30 8608 H 795.508 -3.91312 0.404812 0
M  V30 8609 H 797.523 -4.95218 -0.311986 0
M  V30 8610 N 796.696 -0.74468 -1.38897 0
M  V30 8611 C 797.606 -0.112892 -2.34328 0
M  V30 8612 C 798.622 0.71087 -1.58816 0
M  V30 8613 O 799.798 0.637092 -1.91058 0
M  V30 8614 C 796.863 0.776417 -3.37894 0
M  V30 8615 C 795.924 -0.0606999 -4.29257 0
M  V30 8616 C 795.157 0.786258 -5.27877 0
M  V30 8617 O 795.38 2.02463 -5.33259 0
M  V30 8618 O 794.314 0.209781 -6.01534 0
M  V30 8619 H 798.14 -0.900801 -2.90033 0
M  V30 8620 H 795.725 -0.505462 -1.4059 0
M  V30 8621 H 797.607 1.28496 -4.01331 0
M  V30 8622 H 796.282 1.54297 -2.84559 0
M  V30 8623 H 795.189 -0.614984 -3.69011 0
M  V30 8624 H 796.522 -0.789702 -4.85824 0
M  V30 8625 N 798.174 1.49689 -0.493057 0
M  V30 8626 C 799.421 2.02427 0.0542714 0
M  V30 8627 C 799.749 1.37339 1.37725 0
M  V30 8628 O 799.004 0.495523 1.89323 0
M  V30 8629 C 799.303 3.56427 0.263536 0
M  V30 8630 C 798.969 4.40111 -0.98046 0
M  V30 8631 C 797.631 4.62699 -1.32148 0
M  V30 8632 C 799.983 4.88847 -1.80771 0
M  V30 8633 C 797.311 5.31268 -2.48941 0
M  V30 8634 C 799.663 5.587 -2.96711 0
M  V30 8635 C 798.327 5.79536 -3.31202 0
M  V30 8636 H 797.597 0.740734 0.0198593 0
M  V30 8637 H 800.244 1.80073 -0.651603 0
M  V30 8638 H 798.549 3.77416 1.05186 0
M  V30 8639 H 800.246 3.94819 0.701348 0
M  V30 8640 H 796.836 4.22765 -0.704814 0
M  V30 8641 H 801.02 4.71231 -1.55741 0
M  V30 8642 H 796.276 5.45603 -2.75911 0
M  V30 8643 H 800.45 5.9544 -3.61143 0
M  V30 8644 H 798.077 6.32443 -4.21805 0
M  V30 8645 N 799.652 0.226554 1.55963 0
M  V30 8646 C 800.582 -0.676079 2.23498 0
M  V30 8647 C 801.563 -1.19718 1.20837 0
M  V30 8648 O 802.748 -1.24027 1.49436 0
M  V30 8649 C 799.878 -1.88217 2.91876 0
M  V30 8650 C 798.832 -1.4947 4.01052 0
M  V30 8651 C 798.158 -2.77997 4.56751 0
M  V30 8652 C 799.458 -0.680951 5.17842 0
M  V30 8653 H 801.152 -0.112989 2.99187 0
M  V30 8654 H 798.698 -0.0529046 1.43903 0
M  V30 8655 H 800.651 -2.51911 3.37815 0
M  V30 8656 H 799.375 -2.47031 2.13643 0
M  V30 8657 H 798.034 -0.881199 3.55852 0
M  V30 8658 H 797.682 -3.34966 3.75243 0
M  V30 8659 H 797.382 -2.52803 5.30438 0
M  V30 8660 H 798.906 -3.42625 5.05411 0
M  V30 8661 H 800.32 -1.22171 5.60131 0
M  V30 8662 H 798.717 -0.525898 5.97791 0
M  V30 8663 H 799.787 0.311346 4.83899 0
M  V30 8664 N 801.13 -1.57531 -0.0467866 0
M  V30 8665 C 802.355 -1.93087 -0.757123 0
M  V30 8666 C 802.78 -0.825116 -1.69037 0
M  V30 8667 O 802.138 0.220449 -1.79955 0
M  V30 8668 C 802.186 -3.27669 -1.5055 0
M  V30 8669 O 801.29 -3.18667 -2.61773 0
M  V30 8670 H 800.631 -0.631597 -0.204892 0
M  V30 8671 H 803.161 -2.04599 -0.00755232 0
M  V30 8672 H 803.171 -3.6214 -1.87932 0
M  V30 8673 H 801.846 -4.07717 -0.820931 0
M  V30 8674 H 800.423 -2.95798 -2.27064 0
M  V30 8675 N 802.608 0.318715 -1.54344 0
M  V30 8676 C 803.855 1.05608 -1.72781 0
M  V30 8677 C 804.183 1.87854 -0.504083 0
M  V30 8678 O 803.438 1.88826 0.51414 0
M  V30 8679 C 803.737 2.00514 -2.95853 0
M  V30 8680 C 803.403 1.34385 -4.30409 0
M  V30 8681 C 802.065 1.16081 -4.66989 0
M  V30 8682 C 804.417 0.869627 -5.13894 0
M  V30 8683 C 801.745 0.490114 -5.84649 0
M  V30 8684 C 804.097 0.212735 -6.32242 0
M  V30 8685 C 802.761 0.0175882 -6.67498 0
M  V30 8686 H 802.031 0.386449 -0.632249 0
M  V30 8687 H 804.678 0.332729 -1.88587 0
M  V30 8688 H 802.983 2.79317 -2.74753 0
M  V30 8689 H 804.68 2.57605 -3.07312 0
M  V30 8690 H 801.27 1.49634 -4.01631 0
M  V30 8691 H 805.454 0.998809 -4.86146 0
M  V30 8692 H 800.71 0.327767 -6.10521 0
M  V30 8693 H 804.884 -0.162699 -6.9621 0
M  V30 8694 H 802.511 -0.504137 -7.58527 0
M  V30 8695 N 804.086 1.46499 0.581025 0
M  V30 8696 C 805.314 1.5547 1.36517 0
M  V30 8697 C 805.729 0.196407 1.87776 0
M  V30 8698 O 805.086 -0.806577 1.63709 0
M  V30 8699 C 805.137 2.56084 2.55154 0
M  V30 8700 O 804.858 3.86637 2.06018 0
M  V30 8701 C 806.359 2.75011 3.47683 0
M  V30 8702 H 803.579 0.525703 0.416986 0
M  V30 8703 H 806.123 1.9192 0.706177 0
M  V30 8704 H 804.278 2.22633 3.17039 0
M  V30 8705 H 804.692 4.41413 2.83292 0
M  V30 8706 H 806.166 3.49329 4.27403 0
M  V30 8707 H 806.643 1.81978 3.99726 0
M  V30 8708 H 807.249 3.09565 2.91632 0
M  V30 8709 N 805.565 -0.825799 1.34232 0
M  V30 8710 C 806.497 -1.94401 1.21413 0
M  V30 8711 C 807.51 -1.6218 0.141902 0
M  V30 8712 O 808.699 -1.74109 0.3935 0
M  V30 8713 C 805.799 -3.28257 0.842635 0
M  V30 8714 C 804.972 -3.88521 2.00924 0
M  V30 8715 C 804.031 -5.00752 1.61661 0
M  V30 8716 O 803.057 -5.19201 2.33279 0
M  V30 8717 N 804.259 -5.78084 0.52911 0
M  V30 8718 H 807.024 -2.05931 2.17744 0
M  V30 8719 H 804.585 -1.00223 1.27149 0
M  V30 8720 H 806.577 -4.00781 0.561822 0
M  V30 8721 H 805.147 -3.12585 -0.0304029 0
M  V30 8722 H 804.367 -3.08425 2.45495 0
M  V30 8723 H 805.655 -4.25516 2.78951 0
M  V30 8724 H 805.053 -5.65661 -0.0663322 0
M  V30 8725 H 803.61 -6.51072 0.308017 0
M  V30 8726 N 807.043 -1.17915 -1.04565 0
M  V30 8727 C 807.953 -0.916449 -2.15959 0
M  V30 8728 C 808.969 0.117655 -1.73602 0
M  V30 8729 O 810.145 -0.063089 -2.01301 0
M  V30 8730 C 807.21 -0.440262 -3.43893 0
M  V30 8731 C 806.271 -1.54172 -4.00661 0
M  V30 8732 C 805.504 -1.08816 -5.22489 0
M  V30 8733 O 805.727 0.0551547 -5.70373 0
M  V30 8734 O 804.661 -1.88383 -5.7166 0
M  V30 8735 H 808.487 -1.8484 -2.40972 0
M  V30 8736 H 806.072 -0.960552 -1.14428 0
M  V30 8737 H 807.954 -0.182537 -4.21004 0
M  V30 8738 H 806.629 0.46346 -3.20365 0
M  V30 8739 H 805.536 -1.85341 -3.24961 0
M  V30 8740 H 806.869 -2.42139 -4.2852 0
M  V30 8741 N 808.521 1.23394 -0.980386 0
M  V30 8742 C 809.453 2.24146 -0.478657 0
M  V30 8743 C 810.466 1.57303 0.419492 0
M  V30 8744 O 811.655 1.77094 0.223631 0
M  V30 8745 C 808.755 3.3732 0.326913 0
M  V30 8746 C 807.928 4.33744 -0.56436 0
M  V30 8747 C 806.987 5.25866 0.187358 0
M  V30 8748 O 806.013 5.67626 -0.423019 0
M  V30 8749 N 807.215 5.61492 1.47335 0
M  V30 8750 H 809.98 2.67826 -1.34496 0
M  V30 8751 H 807.541 1.37566 -0.853653 0
M  V30 8752 H 809.533 3.95926 0.838148 0
M  V30 8753 H 808.103 2.92823 1.09422 0
M  V30 8754 H 807.323 3.73641 -1.25642 0
M  V30 8755 H 808.611 4.95123 -1.17177 0
M  V30 8756 H 808.009 5.29514 1.99077 0
M  V30 8757 H 806.566 6.2257 1.93002 0
M  V30 8758 N 809.999 0.752036 1.385 0
M  V30 8759 C 810.931 0.0835089 2.29048 0
M  V30 8760 C 811.944 -0.685402 1.47669 0
M  V30 8761 O 813.133 -0.526748 1.70551 0
M  V30 8762 C 810.233 -0.905772 3.26572 0
M  V30 8763 C 809.406 -0.194828 4.36966 0
M  V30 8764 C 808.465 -1.09464 5.14688 0
M  V30 8765 O 807.491 -0.565743 5.66381 0
M  V30 8766 N 808.693 -2.42287 5.2752 0
M  V30 8767 H 811.458 0.861142 2.87062 0
M  V30 8768 H 809.019 0.602689 1.50264 0
M  V30 8769 H 811.011 -1.51072 3.75446 0
M  V30 8770 H 809.581 -1.58449 2.69467 0
M  V30 8771 H 808.801 0.590812 3.89747 0
M  V30 8772 H 810.089 0.297189 5.07931 0
M  V30 8773 H 809.487 -2.87715 4.8707 0
M  V30 8774 H 808.044 -2.97836 5.79773 0
M  V30 8775 N 811.477 -1.49425 0.500989 0
M  V30 8776 C 812.44 -2.27646 -0.266416 0
M  V30 8777 C 813.44 -1.3366 -0.893961 0
M  V30 8778 O 814.63 -1.5682 -0.758495 0
M  V30 8779 C 811.762 -3.11618 -1.38227 0
M  V30 8780 H 812.955 -2.96945 0.419973 0
M  V30 8781 H 810.508 -1.5419 0.255954 0
M  V30 8782 H 811.243 -2.46885 -2.10281 0
M  V30 8783 H 811.028 -3.80721 -0.937746 0
M  V30 8784 H 812.518 -3.70698 -1.92283 0
M  V30 8785 N 812.955 -0.234822 -1.55841 0
M  V30 8786 C 813.885 0.664217 -2.23854 0
M  V30 8787 C 814.866 1.19076 -1.2147 0
M  V30 8788 O 816.051 1.23232 -1.50091 0
M  V30 8789 C 813.181 1.86666 -2.9287 0
M  V30 8790 C 812.135 1.47341 -4.01839 0
M  V30 8791 C 811.461 2.75571 -4.58219 0
M  V30 8792 C 812.761 0.653479 -5.18196 0
M  V30 8793 H 814.455 0.0971213 -2.99242 0
M  V30 8794 H 812.001 0.0452724 -1.43929 0
M  V30 8795 H 813.954 2.50116 -3.39146 0
M  V30 8796 H 812.678 2.45894 -2.1495 0
M  V30 8797 H 811.337 0.862314 -3.56314 0
M  V30 8798 H 810.985 3.32971 -3.77014 0
M  V30 8799 H 810.685 2.49987 -5.31771 0
M  V30 8800 H 812.209 3.39939 -5.07221 0
M  V30 8801 H 813.623 1.19198 -5.60771 0
M  V30 8802 H 812.02 0.494188 -5.98062 0
M  V30 8803 H 813.09 -0.337004 -4.83728 0
M  V30 8804 N 814.433 1.57553 0.0384317 0
M  V30 8805 C 815.396 2.04927 1.02653 0
M  V30 8806 C 816.396 0.951768 1.29607 0
M  V30 8807 O 817.586 1.21568 1.24768 0
M  V30 8808 C 814.718 2.45828 2.36181 0
M  V30 8809 H 815.911 2.93474 0.617508 0
M  V30 8810 H 813.464 1.53679 0.285031 0
M  V30 8811 H 814.199 1.60408 2.8185 0
M  V30 8812 H 813.984 3.25945 2.1795 0
M  V30 8813 H 815.474 2.82939 3.0714 0
M  V30 8814 N 815.911 -0.310526 1.54511 0
M  V30 8815 C 816.858 -1.38264 1.84802 0
M  V30 8816 C 817.828 -1.50808 0.696141 0
M  V30 8817 O 819.013 -1.6582 0.943846 0
M  V30 8818 C 816.153 -2.74422 2.09252 0
M  V30 8819 C 815.266 -2.70405 3.36906 0
M  V30 8820 C 814.401 -3.98495 3.51248 0
M  V30 8821 C 813.44 -3.88836 4.72729 0
M  V30 8822 N 812.577 -5.08683 4.83928 0
M  V30 8823 H 817.417 -1.11732 2.76261 0
M  V30 8824 H 814.954 -0.540609 1.36806 0
M  V30 8825 H 816.912 -3.53593 2.21422 0
M  V30 8826 H 815.542 -2.99235 1.2107 0
M  V30 8827 H 814.594 -1.83151 3.33406 0
M  V30 8828 H 815.906 -2.59155 4.26193 0
M  V30 8829 H 815.06 -4.861 3.63031 0
M  V30 8830 H 813.799 -4.12567 2.60077 0
M  V30 8831 H 812.804 -2.99615 4.60989 0
M  V30 8832 H 814.029 -3.76318 5.65298 0
M  V30 8833 H 811.975 -5.23236 3.95677 0
M  V30 8834 H 811.892 -4.99819 5.67201 0
M  V30 8835 H 813.16 -5.97966 5.00057 0
M  V30 8836 N 817.389 -1.46805 -0.573248 0
M  V30 8837 C 818.635 -1.5283 -1.33307 0
M  V30 8838 C 818.968 -0.183287 -1.93333 0
M  V30 8839 O 818.243 0.806354 -1.76998 0
M  V30 8840 C 818.526 -2.63414 -2.45531 0
M  V30 8841 C 818.379 -4.07478 -1.90478 0
M  V30 8842 C 819.698 -2.70014 -3.47535 0
M  V30 8843 H 816.817 -0.556371 -0.483343 0
M  V30 8844 H 819.459 -1.78787 -0.643066 0
M  V30 8845 H 817.609 -2.41412 -3.04389 0
M  V30 8846 H 819.281 -4.40795 -1.36004 0
M  V30 8847 H 817.524 -4.16511 -1.21248 0
M  V30 8848 H 818.195 -4.80598 -2.71531 0
M  V30 8849 H 820.671 -2.89817 -2.98572 0
M  V30 8850 H 819.547 -3.49192 -4.23504 0
M  V30 8851 H 819.808 -1.76436 -4.05367 0
M  V30 8852 N 818.867 0.818669 -1.34668 0
M  V30 8853 C 819.797 1.94468 -1.29245 0
M  V30 8854 C 820.778 1.69257 -0.169101 0
M  V30 8855 O 821.963 1.90794 -0.362143 0
M  V30 8856 C 819.093 3.31001 -1.05145 0
M  V30 8857 C 818.047 3.70663 -2.13992 0
M  V30 8858 C 817.373 5.05226 -1.75074 0
M  V30 8859 C 818.673 3.82312 -3.55858 0
M  V30 8860 H 820.367 1.99263 -2.2346 0
M  V30 8861 H 817.913 0.957304 -1.07572 0
M  V30 8862 H 819.866 4.09364 -0.999949 0
M  V30 8863 H 818.59 3.26517 -0.0737312 0
M  V30 8864 H 817.249 2.94578 -2.18219 0
M  V30 8865 H 816.897 4.97233 -0.759518 0
M  V30 8866 H 816.597 5.32734 -2.47928 0
M  V30 8867 H 818.121 5.86042 -1.71427 0
M  V30 8868 H 819.535 4.50935 -3.5402 0
M  V30 8869 H 817.932 4.21278 -4.2737 0
M  V30 8870 H 819.002 2.84193 -3.9289 0
M  V30 8871 N 820.346 1.18468 1.03938 0
M  V30 8872 C 821.595 0.975193 1.76558 0
M  V30 8873 C 821.908 -0.495978 1.89207 0
M  V30 8874 O 823.114 -0.824009 2.58694 0
M  V30 8875 C 821.57 1.69579 3.17444 0
M  V30 8876 C 821.178 3.20636 3.12884 0
M  V30 8877 C 822.922 1.56917 3.94433 0
M  V30 8878 C 820.829 3.8533 4.48636 0
M  V30 8879 H 819.759 0.361244 0.66183 0
M  V30 8880 H 822.41 1.41854 1.16403 0
M  V30 8881 H 820.792 1.18022 3.78004 0
M  V30 8882 H 821.966 3.79228 2.61768 0
M  V30 8883 H 820.281 3.33454 2.49394 0
M  V30 8884 H 822.878 2.02611 4.94826 0
M  V30 8885 H 823.221 0.521638 4.13019 0
M  V30 8886 H 823.754 2.05762 3.40451 0
M  V30 8887 H 820.493 4.90136 4.35255 0
M  V30 8888 H 820.013 3.31526 4.99851 0
M  V30 8889 H 821.692 3.88269 5.17549 0
M  V30 8890 N 821.824 -1.22873 0.986916 0
M  V30 8891 C 823.101 -1.86939 0.575589 0
M  V30 8892 C 823.481 -1.88656 -0.947205 0
M  V30 8893 O 822.829 -1.3728 -1.82665 0
M  V30 8894 C 823.039 -3.28117 1.18914 0
M  V30 8895 C 824.387 -4.04659 1.28593 0
M  V30 8896 O 825.411 -3.3736 1.14308 0
M  V30 8897 O 824.27 -5.25112 1.51391 0
M  V30 8898 H 821.364 -0.803748 0.194724 0
M  V30 8899 H 823.91 -1.30698 1.08241 0
M  V30 8900 H 822.682 -3.21468 2.231 0
M  V30 8901 H 822.305 -3.91956 0.667535 0
M  V30 8902 N 823.302 -0.75937 -1.38099 0
M  V30 8903 C 824.548 -0.327559 -2.00745 0
M  V30 8904 C 824.903 1.08042 -1.592 0
M  V30 8905 O 824.196 1.7306 -0.822236 0
M  V30 8906 C 824.39 -0.394999 -3.55211 0
M  V30 8907 C 824.219 -1.80798 -4.11755 0
M  V30 8908 C 822.989 -2.42585 -4.43262 0
M  V30 8909 C 825.187 -2.76556 -4.33614 0
M  V30 8910 N 823.169 -3.75784 -4.85448 0
M  V30 8911 C 824.54 -3.94532 -4.78273 0
M  V30 8912 C 826.595 -2.74004 -4.15724 0
M  V30 8913 C 825.298 -5.10322 -5.06916 0
M  V30 8914 C 827.324 -3.88957 -4.45496 0
M  V30 8915 C 826.686 -5.05672 -4.90383 0
M  V30 8916 H 822.785 -0.166644 -0.764038 0
M  V30 8917 H 825.369 -0.99056 -1.67619 0
M  V30 8918 H 823.54 0.237761 -3.87672 0
M  V30 8919 H 825.272 0.0576828 -4.04659 0
M  V30 8920 H 822.027 -1.94302 -4.31907 0
M  V30 8921 H 822.451 -4.44234 -5.10867 0
M  V30 8922 H 827.093 -1.84948 -3.80203 0
M  V30 8923 H 824.811 -5.99988 -5.41332 0
M  V30 8924 H 828.397 -3.88308 -4.33253 0
M  V30 8925 H 827.277 -5.93146 -5.1298 0
M  V30 8926 N 824.78 1.49157 -0.508906 0
M  V30 8927 C 826.191 1.86593 -0.0630975 0
M  V30 8928 C 826.542 1.42051 1.35337 0
M  V30 8929 O 825.667 0.801866 2.00995 0
M  V30 8930 C 826.262 3.38629 -0.107729 0
M  V30 8931 C 824.821 3.75336 0.282776 0
M  V30 8932 C 823.968 2.7317 -0.4768 0
M  V30 8933 H 826.919 1.41362 -0.72128 0
M  V30 8934 H 826.94 3.74271 0.685689 0
M  V30 8935 H 826.452 3.71017 -1.13876 0
M  V30 8936 H 824.553 3.48558 1.31675 0
M  V30 8937 H 824.666 4.79081 -0.0421728 0
M  V30 8938 H 823.03 2.54591 0.0743552 0
M  V30 8939 H 823.813 3.08403 -1.50807 0
M  V30 8940 N 826.258 0.243083 1.55714 0
M  V30 8941 C 827.221 -0.644723 2.19945 0
M  V30 8942 C 828.221 -1.10562 1.16759 0
M  V30 8943 O 829.411 -1.01095 1.41865 0
M  V30 8944 C 826.543 -1.88569 2.83997 0
M  V30 8945 H 827.736 -0.0843839 2.99781 0
M  V30 8946 H 825.289 -0.00647246 1.56299 0
M  V30 8947 H 826.024 -2.48736 2.08089 0
M  V30 8948 H 825.809 -1.56345 3.59581 0
M  V30 8949 H 827.299 -2.51774 3.33166 0
M  V30 8950 N 827.736 -1.57571 -0.0300757 0
M  V30 8951 C 828.684 -2.0758 -1.04944 0
M  V30 8952 C 829.678 -0.989384 -1.37505 0
M  V30 8953 O 830.884 -1.17427 -1.36422 0
M  V30 8954 H 827.259 -0.662419 -0.355956 0
M  V30 8955 H 829.23 -2.92268 -0.601848 0
M  V30 8956 C 827.979 -2.5698 -2.34215 0
M  V30 8957 H 827.302 -3.40193 -2.10021 0
M  V30 8958 H 828.742 -2.95682 -3.03888 0
M  V30 8959 C 827.201 -1.47059 -3.03109 0
M  V30 8960 O 827.731 -0.83625 -3.92899 0
M  V30 8961 N 825.937 -1.20538 -2.64422 0
M  V30 8962 H 825.484 -1.72305 -1.9149 0
M  V30 8963 H 825.442 -0.472045 -3.10836 0
M  V30 8964 N 829.214 0.302327 -1.54673 0
M  V30 8965 C 830.444 1.05516 -1.77623 0
M  V30 8966 C 830.852 1.81474 -0.535159 0
M  V30 8967 O 830.195 1.76635 0.504543 0
M  V30 8968 C 830.257 2.08305 -2.93001 0
M  V30 8969 C 829.921 1.51554 -4.31139 0
M  V30 8970 C 830.918 0.946261 -5.11216 0
M  V30 8971 C 828.603 1.55157 -4.77736 0
M  V30 8972 C 830.597 0.420559 -6.36011 0
M  V30 8973 C 828.284 1.022 -6.02494 0
M  V30 8974 C 829.282 0.457461 -6.81466 0
M  V30 8975 O 828.97 -0.064083 -8.03874 0
M  V30 8976 H 828.702 0.318756 -0.59613 0
M  V30 8977 H 831.256 0.347558 -2.02438 0
M  V30 8978 H 829.486 2.82742 -2.63807 0
M  V30 8979 H 831.175 2.69479 -3.03539 0
M  V30 8980 H 831.941 0.911338 -4.76361 0
M  V30 8981 H 827.82 1.98037 -4.16296 0
M  V30 8982 H 831.364 -0.0207298 -6.97597 0
M  V30 8983 H 827.261 1.05406 -6.36836 0
M  V30 8984 H 828.029 0.0493422 -8.18485 0
M  V30 8985 N 830.692 1.47107 0.565454 0
M  V30 8986 C 831.622 1.61846 1.68309 0
M  V30 8987 C 832.603 0.468159 1.63531 0
M  V30 8988 O 833.788 0.696504 1.8128 0
M  V30 8989 C 830.918 1.62474 3.06952 0
M  V30 8990 C 829.872 2.76649 3.26572 0
M  V30 8991 C 829.198 2.62345 4.65917 0
M  V30 8992 C 830.498 4.18319 3.12741 0
M  V30 8993 H 832.192 2.55407 1.5623 0
M  V30 8994 H 829.738 1.22916 0.750179 0
M  V30 8995 H 831.691 1.71378 3.84977 0
M  V30 8996 H 830.415 0.654692 3.19971 0
M  V30 8997 H 829.074 2.67242 2.50952 0
M  V30 8998 H 828.722 1.63386 4.75725 0
M  V30 8999 H 828.422 3.38936 4.79996 0
M  V30 9000 H 829.946 2.73165 5.46089 0
M  V30 9001 H 831.36 4.28745 3.80593 0
M  V30 9002 H 829.757 4.95632 3.38333 0
M  V30 9003 H 830.827 4.37263 2.09592 0
M  V30 9004 N 832.17 -0.811516 1.35101 0
M  V30 9005 C 833.41 -1.58177 1.29458 0
M  V30 9006 C 833.774 -1.91555 -0.130688 0
M  V30 9007 O 834.975 -2.6699 -0.311428 0
M  V30 9008 C 833.246 -2.83896 2.17112 0
M  V30 9009 S 834.805 -3.74344 2.28936 0
M  V30 9010 H 831.623 -0.542021 0.460146 0
M  V30 9011 H 834.225 -0.957653 1.70438 0
M  V30 9012 H 832.929 -2.57391 3.19653 0
M  V30 9013 H 832.46 -3.51297 1.7707 0
M  V30 9014 H 834.475 -4.73909 1.47054 0
M  V30 9015 N 833.648 -1.19017 -1.03309 0
M  V30 9016 C 834.925 -0.899659 -1.73682 0
M  V30 9017 C 835.305 0.595677 -2.02521 0
M  V30 9018 O 834.653 1.55263 -1.67648 0
M  V30 9019 C 834.863 -1.75508 -3.01659 0
M  V30 9020 C 836.211 -1.98679 -3.75249 0
M  V30 9021 O 837.235 -1.72624 -3.11576 0
M  V30 9022 O 836.094 -2.42587 -4.89708 0
M  V30 9023 H 833.188 -0.334903 -0.756154 0
M  V30 9024 H 835.734 -1.29809 -1.09305 0
M  V30 9025 H 834.506 -2.7684 -2.76542 0
M  V30 9026 H 834.129 -1.35565 -3.73775 0
M  V30 9027 N 835.127 1.22348 -0.993418 0
M  V30 9028 C 836.352 1.95666 -0.687727 0
M  V30 9029 C 836.777 1.72883 0.741161 0
M  V30 9030 O 836.135 1.00837 1.50671 0
M  V30 9031 C 836.183 3.46457 -0.99998 0
M  V30 9032 O 835.287 4.12281 -0.0989386 0
M  V30 9033 H 834.628 0.612102 -0.257346 0
M  V30 9034 H 837.158 1.55428 -1.33054 0
M  V30 9035 H 837.168 3.96976 -0.942035 0
M  V30 9036 H 835.843 3.62365 -2.04118 0
M  V30 9037 H 834.42 3.72295 -0.212413 0
M  V30 9038 N 836.605 0.766683 1.37694 0
M  V30 9039 C 838.016 0.394761 1.82479 0
M  V30 9040 C 838.367 -1.07842 1.63904 0
M  V30 9041 O 837.492 -1.83479 1.14737 0
M  V30 9042 C 838.087 0.70974 3.31283 0
M  V30 9043 C 836.646 0.390936 3.74364 0
M  V30 9044 C 835.793 0.956192 2.60293 0
M  V30 9045 H 838.744 0.961756 1.26238 0
M  V30 9046 H 838.765 -0.00742144 3.80499 0
M  V30 9047 H 838.277 1.782 3.4477 0
M  V30 9048 H 836.378 -0.674213 3.66449 0
M  V30 9049 H 836.491 0.895645 4.70654 0
M  V30 9050 H 834.855 0.380744 2.51838 0
M  V30 9051 H 835.638 2.03375 2.76575 0
M  V30 9052 N 838.083 -1.48885 0.516809 0
M  V30 9053 C 839.308 -2.0739 -0.0205201 0
M  V30 9054 C 839.733 -1.37259 -1.28614 0
M  V30 9055 O 839.091 -0.434304 -1.76021 0
M  V30 9056 C 839.139 -3.59793 -0.24104 0
M  V30 9057 O 838.243 -3.90957 -1.31251 0
M  V30 9058 H 837.584 -0.663167 0.0332564 0
M  V30 9059 H 840.114 -1.91477 0.720956 0
M  V30 9060 H 840.124 -4.0531 -0.467737 0
M  V30 9061 H 838.799 -4.10244 0.68356 0
M  V30 9062 H 837.376 -3.57234 -1.06951 0
M  V30 9063 N 839.561 -0.251338 -1.55583 0
M  V30 9064 C 840.511 0.660351 -2.18228 0
M  V30 9065 C 841.495 1.13596 -1.13951 0
M  V30 9066 O 842.687 1.08499 -1.39846 0
M  V30 9067 C 839.816 1.85498 -2.88869 0
M  V30 9068 C 838.902 1.39767 -4.00407 0
M  V30 9069 N 839.293 0.654876 -5.01543 0
M  V30 9070 C 837.591 1.68259 -4.13044 0
M  V30 9071 C 838.292 0.417521 -5.802 0
M  V30 9072 N 837.268 0.983032 -5.34638 0
M  V30 9073 H 841.07 0.0847425 -2.93778 0
M  V30 9074 H 838.584 -0.0538456 -1.62311 0
M  V30 9075 H 840.581 2.51916 -3.3218 0
M  V30 9076 H 839.241 2.43477 -2.14823 0
M  V30 9077 H 840.252 0.304545 -5.17004 0
M  V30 9078 H 836.929 2.27344 -3.50172 0
M  V30 9079 H 838.319 -0.175764 -6.7167 0
M  V30 9080 N 841.039 1.57585 0.0217189 0
M  V30 9081 C 842.285 1.89887 0.712099 0
M  V30 9082 C 842.618 0.849971 1.74611 0
M  V30 9083 O 841.893 -0.13407 1.94037 0
M  V30 9084 C 842.176 3.32815 1.37499 0
M  V30 9085 C 842.029 4.48405 0.353993 0
M  V30 9086 C 843.348 3.74786 2.30703 0
M  V30 9087 H 840.467 0.690588 0.257405 0
M  V30 9088 H 843.109 1.89983 -0.0251145 0
M  V30 9089 H 841.259 3.32863 2.00335 0
M  V30 9090 H 842.931 4.60491 -0.273015 0
M  V30 9091 H 841.174 4.32573 -0.32599 0
M  V30 9092 H 841.845 5.45316 0.85644 0
M  V30 9093 H 844.321 3.76151 1.77904 0
M  V30 9094 H 843.197 4.75585 2.74061 0
M  V30 9095 H 843.458 3.07449 3.17691 0
M  V30 9096 N 842.517 -0.29412 1.54831 0
M  V30 9097 C 843.933 -0.640167 1.46199 0
M  V30 9098 C 844.133 -1.90426 0.658798 0
M  V30 9099 O 843.189 -2.51932 0.169228 0
M  V30 9100 C 844.502 -0.786763 2.90225 0
M  V30 9101 C 846.05 -0.882201 3.0031 0
M  V30 9102 C 846.525 -1.06074 4.45547 0
M  V30 9103 N 848.016 -1.12678 4.49286 0
M  V30 9104 C 848.751 -1.28334 5.58854 0
M  V30 9105 N 848.247 -1.40845 6.78332 0
M  V30 9106 N 850.04 -1.31277 5.46555 0
M  V30 9107 H 842.191 0.536334 2.05517 0
M  V30 9108 H 844.454 0.178363 0.93107 0
M  V30 9109 H 844.16 0.0713018 3.51628 0
M  V30 9110 H 844.034 -1.67364 3.38037 0
M  V30 9111 H 846.421 -1.73075 2.39017 0
M  V30 9112 H 846.502 0.0288405 2.55784 0
M  V30 9113 H 846.146 -0.216935 5.07437 0
M  V30 9114 H 846.076 -1.98611 4.8771 0
M  V30 9115 H 848.567 -1.04335 3.63212 0
M  V30 9116 H 848.88 -1.52566 7.57591 0
M  V30 9117 H 847.225 -1.37888 6.81184 0
M  V30 9118 H 850.416 -1.2112 4.52159 0
M  V30 9119 H 850.589 -1.43136 6.31994 0
M  V30 9120 N 843.995 -1.47404 -0.557645 0
M  V30 9121 C 845.243 -1.53703 -1.31224 0
M  V30 9122 C 845.564 -0.200742 -1.93964 0
M  V30 9123 O 844.834 0.775253 -1.79907 0
M  V30 9124 H 843.414 -0.566171 -0.487299 0
M  V30 9125 H 846.076 -1.83699 -0.651195 0
M  V30 9126 H 845.172 -2.30335 -2.10599 0
M  V30 9127 N 845.473 0.80434 -1.35529 0
M  V30 9128 C 846.405 1.92445 -1.2449 0
M  V30 9129 C 847.418 1.61934 -0.167685 0
M  V30 9130 O 848.607 1.73461 -0.42115 0
M  V30 9131 C 845.707 3.26875 -0.894751 0
M  V30 9132 C 844.88 3.85275 -2.07079 0
M  V30 9133 C 843.939 4.98116 -1.69607 0
M  V30 9134 O 842.965 5.15424 -2.41509 0
M  V30 9135 N 844.167 5.77169 -0.621012 0
M  V30 9136 H 846.932 2.02441 -2.20993 0
M  V30 9137 H 844.493 0.981874 -1.28728 0
M  V30 9138 H 846.485 3.99837 -0.625511 0
M  V30 9139 H 845.055 3.12594 -0.0193306 0
M  V30 9140 H 844.275 3.0448 -2.5037 0
M  V30 9141 H 845.563 4.21024 -2.85685 0
M  V30 9142 H 844.961 5.65695 -0.0236679 0
M  V30 9143 H 843.518 6.50499 -0.411558 0
M  V30 9144 N 846.951 1.19563 1.02676 0
M  V30 9145 C 847.883 0.893054 2.11086 0
M  V30 9146 C 848.896 -0.115101 1.62393 0
M  V30 9147 O 850.085 0.11459 1.78132 0
M  V30 9148 C 847.185 0.315533 3.37428 0
M  V30 9149 C 846.358 1.37276 4.153 0
M  V30 9150 C 845.417 0.808398 5.19953 0
M  V30 9151 O 844.443 1.48661 5.49444 0
M  V30 9152 N 845.645 -0.387253 5.79207 0
M  V30 9153 H 848.41 1.82622 2.37633 0
M  V30 9154 H 845.971 1.09792 1.18984 0
M  V30 9155 H 847.963 -0.0759166 4.04629 0
M  V30 9156 H 846.533 -0.521961 3.08211 0
M  V30 9157 H 845.753 1.93897 3.43217 0
M  V30 9158 H 847.041 2.08509 4.64114 0
M  V30 9159 H 846.439 -0.955725 5.57568 0
M  V30 9160 H 844.996 -0.720457 6.47806 0
M  V30 9161 N 848.429 -1.21819 0.999893 0
M  V30 9162 C 849.675 -1.91035 0.680701 0
M  V30 9163 C 850.008 -1.77582 -0.786021 0
M  V30 9164 O 849.283 -1.14917 -1.56921 0
M  V30 9165 C 849.566 -3.43013 1.0961 0
M  V30 9166 C 849.419 -3.65481 2.6219 0
M  V30 9167 C 850.738 -4.35204 0.654616 0
M  V30 9168 H 847.857 -0.693748 0.248763 0
M  V30 9169 H 850.499 -1.43555 1.24466 0
M  V30 9170 H 848.649 -3.83581 0.616253 0
M  V30 9171 H 850.321 -3.34273 3.17899 0
M  V30 9172 H 848.564 -3.09522 3.03938 0
M  V30 9173 H 849.235 -4.71945 2.86307 0
M  V30 9174 H 851.711 -4.0219 1.06688 0
M  V30 9175 H 850.587 -5.40198 0.973492 0
M  V30 9176 H 850.848 -4.3986 -0.444458 0
M  V30 9177 N 849.908 -0.773975 -1.37286 0
M  V30 9178 C 850.84 -0.119938 -2.28886 0
M  V30 9179 C 851.853 0.661822 -1.48741 0
M  V30 9180 O 853.042 0.499548 -1.71367 0
M  V30 9181 C 850.142 0.853703 -3.27971 0
M  V30 9182 C 849.315 0.125286 -4.37221 0
M  V30 9183 C 848.374 1.01261 -5.16365 0
M  V30 9184 O 847.4 0.475565 -5.6721 0
M  V30 9185 N 848.602 2.33864 -5.31308 0
M  V30 9186 H 851.367 -0.906702 -2.85655 0
M  V30 9187 H 848.928 -0.626519 -1.49286 0
M  V30 9188 H 850.92 1.4508 -3.77801 0
M  V30 9189 H 849.49 1.54142 -2.71954 0
M  V30 9190 H 848.71 -0.652742 -3.88758 0
M  V30 9191 H 849.998 -0.377959 -5.07394 0
M  V30 9192 H 849.396 2.79929 -4.91585 0
M  V30 9193 H 847.953 2.88575 -5.84438 0
M  V30 9194 N 851.386 1.48609 -0.524698 0
M  V30 9195 C 852.663 1.95454 0.075465 0
M  V30 9196 C 853.043 1.46682 1.51814 0
M  V30 9197 O 852.391 0.690975 2.17802 0
M  V30 9198 C 852.601 3.48981 -0.0363273 0
M  V30 9199 C 853.949 4.24414 0.125624 0
M  V30 9200 O 854.973 3.5618 0.0377239 0
M  V30 9201 O 853.832 5.45625 0.309104 0
M  V30 9202 H 850.926 0.822902 0.0822256 0
M  V30 9203 H 853.472 1.59153 -0.588921 0
M  V30 9204 H 852.244 3.77185 -1.04149 0
M  V30 9205 H 851.867 3.91963 0.667146 0
M  V30 9206 N 852.864 0.259585 1.55447 0
M  V30 9207 C 854.11 -0.362143 1.9954 0
M  V30 9208 C 854.443 -1.5666 1.14767 0
M  V30 9209 O 853.718 -1.93319 0.214025 0
M  V30 9210 C 854.001 -0.759588 3.51998 0
M  V30 9211 C 853.854 0.451134 4.47532 0
M  V30 9212 C 855.173 -1.60186 4.09913 0
M  V30 9213 H 852.292 -0.130157 0.725416 0
M  V30 9214 H 854.934 0.363431 1.86492 0
M  V30 9215 H 853.084 -1.3778 3.63248 0
M  V30 9216 H 854.756 1.08965 4.48246 0
M  V30 9217 H 852.999 1.092 4.19831 0
M  V30 9218 H 853.67 0.129518 5.51848 0
M  V30 9219 H 856.146 -1.0799 4.01842 0
M  V30 9220 H 855.022 -1.84879 5.16828 0
M  V30 9221 H 855.283 -2.57787 3.59163 0
M  V30 9222 N 854.342 -1.57594 -0.0133615 0
M  V30 9223 C 855.758 -1.5527 -0.369255 0
M  V30 9224 C 855.958 -0.987751 -1.7563 0
M  V30 9225 O 855.014 -0.615683 -2.44879 0
M  V30 9226 C 856.327 -2.99602 -0.25672 0
M  V30 9227 C 857.875 -3.11227 -0.332647 0
M  V30 9228 C 858.35 -4.57321 -0.249387 0
M  V30 9229 N 859.841 -4.62177 -0.3077 0
M  V30 9230 C 860.576 -5.72781 -0.26641 0
M  V30 9231 N 860.072 -6.92575 -0.176494 0
M  V30 9232 N 861.865 -5.61204 -0.317295 0
M  V30 9233 H 854.016 -1.92662 0.894154 0
M  V30 9234 H 856.279 -0.884352 0.341505 0
M  V30 9235 H 855.985 -3.44723 0.697072 0
M  V30 9236 H 855.859 -3.6246 -1.04415 0
M  V30 9237 H 858.246 -2.66045 -1.27688 0
M  V30 9238 H 858.327 -2.51171 0.484412 0
M  V30 9239 H 857.971 -5.03174 0.691242 0
M  V30 9240 H 857.901 -5.15306 -1.08476 0
M  V30 9241 H 860.392 -3.75994 -0.379069 0
M  V30 9242 H 860.705 -7.72653 -0.150518 0
M  V30 9243 H 859.05 -6.94854 -0.142314 0
M  V30 9244 H 862.241 -4.66509 -0.385643 0
M  V30 9245 H 862.414 -6.47388 -0.28165 0
M  V30 9246 N 855.82 0.285905 -1.54985 0
M  V30 9247 C 856.75 1.35752 -1.89983 0
M  V30 9248 C 857.731 1.52163 -0.760295 0
M  V30 9249 O 858.916 1.65421 -1.01733 0
M  V30 9250 C 856.046 2.71925 -2.16042 0
M  V30 9251 C 855 2.70261 -3.31878 0
M  V30 9252 C 854.326 4.09864 -3.43388 0
M  V30 9253 C 855.626 2.30667 -4.68604 0
M  V30 9254 H 857.32 1.06709 -2.79738 0
M  V30 9255 H 854.866 0.511884 -1.34595 0
M  V30 9256 H 856.819 3.46992 -2.39113 0
M  V30 9257 H 855.543 3.02523 -1.23074 0
M  V30 9258 H 854.202 1.97651 -3.08755 0
M  V30 9259 H 853.85 4.37664 -2.47909 0
M  V30 9260 H 853.55 4.09648 -4.21262 0
M  V30 9261 H 855.074 4.86689 -3.68736 0
M  V30 9262 H 856.488 2.95453 -4.91305 0
M  V30 9263 H 854.885 2.41637 -5.49301 0
M  V30 9264 H 855.955 1.25793 -4.68299 0
M  V30 9265 N 857.298 1.47698 0.54982 0
M  V30 9266 C 858.523 1.58579 1.33669 0
M  V30 9267 C 858.948 0.239049 1.86575 0
M  V30 9268 O 858.306 -0.786256 1.63364 0
M  V30 9269 C 858.354 2.62029 2.47736 0
M  V30 9270 O 857.458 2.17813 3.50188 0
M  V30 9271 H 856.799 0.532447 0.396732 0
M  V30 9272 H 859.329 1.93536 0.6637 0
M  V30 9273 H 859.339 2.82682 2.94202 0
M  V30 9274 H 858.014 3.59812 2.08586 0
M  V30 9275 H 856.591 2.07291 3.09976 0
M  V30 9276 N 858.776 -0.797141 1.35954 0
M  V30 9277 C 860.022 -1.55698 1.29946 0
M  V30 9278 C 860.355 -1.93808 -0.123259 0
M  V30 9279 O 859.63 -1.62102 -1.07486 0
M  V30 9280 C 859.913 -2.83926 2.2149 0
M  V30 9281 C 859.766 -2.52232 3.72423 0
M  V30 9282 C 861.085 -3.85698 2.11955 0
M  V30 9283 H 858.204 -0.56488 0.47337 0
M  V30 9284 H 860.846 -0.916421 1.66438 0
M  V30 9285 H 858.996 -3.38588 1.905 0
M  V30 9286 H 860.668 -2.0368 4.13899 0
M  V30 9287 H 858.911 -1.85286 3.92239 0
M  V30 9288 H 859.582 -3.43782 4.31877 0
M  V30 9289 H 862.058 -3.40462 2.39218 0
M  V30 9290 H 860.934 -4.73182 2.78191 0
M  V30 9291 H 861.195 -4.28083 1.10442 0
M  V30 9292 N 860.254 -1.20106 -1.0204 0
M  V30 9293 C 861.479 -1.0351 -1.79723 0
M  V30 9294 C 861.904 0.411328 -1.83548 0
M  V30 9295 O 861.262 1.29608 -1.26773 0
M  V30 9296 C 861.31 -1.61876 -3.22224 0
M  V30 9297 O 860.414 -0.853813 -4.03465 0
M  V30 9298 H 859.755 -0.365299 -0.554484 0
M  V30 9299 H 862.285 -1.59316 -1.28373 0
M  V30 9300 H 862.295 -1.65451 -3.72948 0
M  V30 9301 H 860.97 -2.67148 -3.18755 0
M  V30 9302 H 859.547 -0.891983 -3.62075 0
M  V30 9303 N 861.732 1.21287 -1.00634 0
M  V30 9304 C 862.642 2.27388 -0.577226 0
M  V30 9305 C 863.658 1.69791 0.380399 0
M  V30 9306 O 864.834 1.99918 0.2439 0
M  V30 9307 C 861.899 3.46588 0.0880532 0
M  V30 9308 C 860.96 4.19453 -0.914222 0
M  V30 9309 C 860.193 5.32962 -0.280596 0
M  V30 9310 O 860.416 5.62895 0.922265 0
M  V30 9311 O 859.35 5.93666 -0.992196 0
M  V30 9312 H 863.176 2.66289 -1.46028 0
M  V30 9313 H 860.761 1.2771 -0.775283 0
M  V30 9314 H 862.643 4.18881 0.460094 0
M  V30 9315 H 861.318 3.09585 0.945461 0
M  V30 9316 H 860.225 3.49376 -1.33744 0
M  V30 9317 H 861.558 4.6037 -1.74126 0
M  V30 9318 N 863.21 0.781244 1.36873 0
M  V30 9319 C 864.45 0.355185 2.0129 0
M  V30 9320 C 864.814 -1.05115 1.6067 0
M  V30 9321 O 866.015 -1.57785 2.17618 0
M  V30 9322 C 864.286 0.504587 3.5382 0
M  V30 9323 S 865.845 0.165196 4.38489 0
M  V30 9324 H 862.663 0.136133 0.697846 0
M  V30 9325 H 865.265 1.01794 1.66908 0
M  V30 9326 H 863.969 1.52857 3.80871 0
M  V30 9327 H 863.5 -0.174392 3.93013 0
M  V30 9328 H 865.515 -1.03605 4.85263 0
M  V30 9329 N 864.689 -1.48329 0.532571 0
M  V30 9330 C 865.639 -2.2664 -0.24868 0
M  V30 9331 C 866.623 -1.32861 -0.907563 0
M  V30 9332 O 867.815 -1.57382 -0.809942 0
M  V30 9333 C 864.944 -3.18004 -1.29339 0
M  V30 9334 C 864.03 -4.19256 -0.639166 0
M  V30 9335 N 864.421 -5.05043 0.276597 0
M  V30 9336 C 862.719 -4.36906 -0.896062 0
M  V30 9337 C 863.42 -5.78009 0.654261 0
M  V30 9338 N 862.396 -5.43598 0.0147447 0
M  V30 9339 H 866.198 -2.90344 0.455792 0
M  V30 9340 H 863.712 -1.58566 0.350778 0
M  V30 9341 H 865.709 -3.72767 -1.86682 0
M  V30 9342 H 864.369 -2.55855 -1.99921 0
M  V30 9343 H 865.38 -5.13813 0.649351 0
M  V30 9344 H 862.057 -3.85945 -1.59226 0
M  V30 9345 H 863.447 -6.57039 1.40532 0
M  V30 9346 N 866.167 -0.267825 -1.55308 0
M  V30 9347 C 867.583 0.0865107 -1.59365 0
M  V30 9348 C 867.783 1.55205 -1.28505 0
M  V30 9349 O 866.839 2.29978 -1.04241 0
M  V30 9350 C 868.152 -0.28155 -2.99379 0
M  V30 9351 C 869.7 -0.227565 -3.12172 0
M  V30 9352 C 870.175 -0.569959 -4.5444 0
M  V30 9353 N 871.666 -0.521238 -4.60258 0
M  V30 9354 C 872.401 -0.759061 -5.68354 0
M  V30 9355 N 871.897 -1.06112 -6.84626 0
M  V30 9356 N 873.69 -0.688351 -5.57869 0
M  V30 9357 H 865.841 -1.22332 -1.73633 0
M  V30 9358 H 868.104 -0.493703 -0.809297 0
M  V30 9359 H 867.81 -1.3005 -3.26772 0
M  V30 9360 H 867.684 0.381192 -3.75269 0
M  V30 9361 H 870.071 0.782093 -2.84548 0
M  V30 9362 H 870.152 -0.924461 -2.38511 0
M  V30 9363 H 869.796 -1.57727 -4.82788 0
M  V30 9364 H 869.726 0.148646 -5.2639 0
M  V30 9365 H 872.217 -0.297359 -3.76728 0
M  V30 9366 H 872.53 -1.22945 -7.62958 0
M  V30 9367 H 870.875 -1.09881 -6.86259 0
M  V30 9368 H 874.066 -0.452268 -4.6591 0
M  V30 9369 H 874.239 -0.877081 -6.42037 0
M  V30 9370 N 867.645 1.57599 0.00500368 0
M  V30 9371 C 868.873 1.94626 0.702016 0
M  V30 9372 C 869.288 0.86953 1.67585 0
M  V30 9373 O 868.645 -0.15199 1.81866 0
M  V30 9374 C 868.696 3.31658 1.43824 0
M  V30 9375 O 868.417 4.35197 0.503467 0
M  V30 9376 C 869.918 3.83114 2.23021 0
M  V30 9377 H 867.138 0.641785 0.195841 0
M  V30 9378 H 869.682 2.04451 -0.0446287 0
M  V30 9379 H 867.837 3.23156 2.13655 0
M  V30 9380 H 868.251 5.1444 1.02235 0
M  V30 9381 H 869.725 4.81438 2.7004 0
M  V30 9382 H 870.202 3.15559 3.05482 0
M  V30 9383 H 870.808 3.94775 1.58216 0
M  V30 9384 N 869.123 -0.277682 1.55134 0
M  V30 9385 C 870.086 -1.32635 1.86924 0
M  V30 9386 C 871.086 -1.42578 0.743507 0
M  V30 9387 O 872.276 -1.4181 1.01171 0
M  V30 9388 C 869.408 -2.70832 2.07034 0
M  V30 9389 H 870.601 -1.0568 2.80663 0
M  V30 9390 H 868.154 -0.515517 1.47554 0
M  V30 9391 H 868.889 -3.02974 1.15661 0
M  V30 9392 H 868.674 -2.65001 2.88993 0
M  V30 9393 H 870.164 -3.46611 2.32918 0
M  V30 9394 N 870.601 -1.47988 -0.541979 0
M  V30 9395 C 871.531 -1.64503 -1.65713 0
M  V30 9396 C 872.512 -0.494116 -1.62765 0
M  V30 9397 O 873.697 -0.725256 -1.80149 0
M  V30 9398 C 870.827 -1.67337 -3.04328 0
M  V30 9399 C 869.781 -2.81809 -3.2213 0
M  V30 9400 C 869.107 -2.69724 -4.61685 0
M  V30 9401 C 870.407 -4.23241 -3.06046 0
M  V30 9402 H 872.101 -2.5786 -1.52147 0
M  V30 9403 H 869.647 -1.24094 -0.730529 0
M  V30 9404 H 871.6 -1.77481 -3.82202 0
M  V30 9405 H 870.324 -0.705514 -3.18889 0
M  V30 9406 H 868.983 -2.71201 -2.46669 0
M  V30 9407 H 868.631 -1.70934 -4.73065 0
M  V30 9408 H 868.331 -3.4653 -4.74543 0
M  V30 9409 H 869.855 -2.81818 -5.41674 0
M  V30 9410 H 871.269 -4.34746 -3.73723 0
M  V30 9411 H 869.666 -5.00952 -3.30405 0
M  V30 9412 H 870.736 -4.40543 -2.02609 0
M  V30 9413 N 872.079 0.78992 -1.36375 0
M  V30 9414 C 873.325 1.55007 -1.3077 0
M  V30 9415 C 873.658 1.93871 0.112979 0
M  V30 9416 O 872.933 1.6267 1.06625 0
M  V30 9417 C 873.216 2.82748 -2.22993 0
M  V30 9418 C 873.069 2.50253 -3.73756 0
M  V30 9419 C 874.388 3.84569 -2.13998 0
M  V30 9420 H 871.507 0.562362 -0.476359 0
M  V30 9421 H 874.149 0.907582 -1.66922 0
M  V30 9422 H 872.299 3.37573 -1.92292 0
M  V30 9423 H 873.971 2.01482 -4.14973 0
M  V30 9424 H 872.214 1.83203 -3.93216 0
M  V30 9425 H 872.885 3.41487 -4.33694 0
M  V30 9426 H 875.361 3.39188 -2.4102 0
M  V30 9427 H 874.237 4.717 -2.80697 0
M  V30 9428 H 874.498 4.27491 -1.12711 0
M  V30 9429 N 873.557 1.20646 1.01402 0
M  V30 9430 C 874.782 1.04462 1.79172 0
M  V30 9431 C 875.207 -0.401588 1.83763 0
M  V30 9432 O 874.565 -1.28934 1.27459 0
M  V30 9433 C 874.613 1.63583 3.21361 0
M  V30 9434 O 873.717 0.875198 4.03006 0
M  V30 9435 H 873.058 0.368235 0.552539 0
M  V30 9436 H 875.588 1.59994 1.27526 0
M  V30 9437 H 875.598 1.67426 3.72065 0
M  V30 9438 H 874.273 2.68835 3.17334 0
M  V30 9439 H 872.85 0.911172 3.61597 0
M  V30 9440 N 875.035 -1.20752 1.01276 0
M  V30 9441 C 876.283 -1.89645 0.698505 0
M  V30 9442 C 876.604 -1.78986 -0.773883 0
M  V30 9443 O 875.874 -1.18977 -1.55632 0
M  V30 9444 H 874.454 -0.701992 0.255375 0
M  V30 9445 H 877.116 -1.46668 1.28353 0
M  V30 9446 H 876.212 -2.96364 0.978512 0
M  V30 9447 N 876.513 -0.788492 -1.36457 0
M  V30 9448 C 877.446 -0.132189 -2.27817 0
M  V30 9449 C 878.424 0.691166 -1.47179 0
M  V30 9450 O 879.608 0.662344 -1.7648 0
M  V30 9451 C 876.735 0.818386 -3.28664 0
M  V30 9452 C 875.781 0.0769392 -4.26431 0
M  V30 9453 S 876.614 -1.24666 -5.20786 0
M  V30 9454 C 877.77 -0.300063 -6.2518 0
M  V30 9455 H 878.003 -0.906824 -2.83132 0
M  V30 9456 H 875.536 -0.582666 -1.42984 0
M  V30 9457 H 877.494 1.36138 -3.87268 0
M  V30 9458 H 876.155 1.56626 -2.72263 0
M  V30 9459 H 875.348 0.79819 -4.97639 0
M  V30 9460 H 874.95 -0.395547 -3.71902 0
M  V30 9461 H 877.242 0.521434 -6.7549 0
M  V30 9462 H 878.185 -0.980808 -7.01274 0
M  V30 9463 H 878.593 0.0961898 -5.64418 0
M  V30 9464 N 877.991 1.48044 -0.54043 0
M  V30 9465 C 879.231 2.04396 -0.012296 0
M  V30 9466 C 879.595 1.40748 1.30591 0
M  V30 9467 O 880.796 1.88048 1.92072 0
M  V30 9468 C 879.067 3.5727 0.0964302 0
M  V30 9469 S 880.626 4.35041 0.573117 0
M  V30 9470 H 877.444 0.710795 -0.0170735 0
M  V30 9471 H 880.046 1.81625 -0.723362 0
M  V30 9472 H 878.75 4.01124 -0.86762 0
M  V30 9473 H 878.281 3.84511 0.83156 0
M  V30 9474 H 880.296 4.6099 1.83583 0
M  V30 9475 N 879.47 0.276058 1.55163 0
M  V30 9476 C 880.71 -0.341634 2.01525 0
M  V30 9477 C 881.074 -1.52979 1.16023 0
M  V30 9478 O 882.275 -2.21718 1.51968 0
M  V30 9479 C 880.546 -0.713294 3.5021 0
M  V30 9480 S 882.105 -1.31739 4.18558 0
M  V30 9481 H 878.923 -0.1062 0.703024 0
M  V30 9482 H 881.525 0.398112 1.91404 0
M  V30 9483 H 880.229 0.160311 4.10087 0
M  V30 9484 H 879.76 -1.48448 3.64317 0
M  V30 9485 H 881.775 -2.60595 4.22261 0
M  V30 9486 N 880.948 -1.576 0.00335426 0
M  V30 9487 C 881.911 -2.07576 -0.971838 0
M  V30 9488 C 882.911 -0.985796 -1.27038 0
M  V30 9489 O 884.101 -1.24833 -1.21501 0
M  V30 9490 C 881.233 -2.52003 -2.29581 0
M  V30 9491 H 882.426 -2.95008 -0.539481 0
M  V30 9492 H 879.979 -1.54381 -0.244186 0
M  V30 9493 H 880.714 -1.67825 -2.77498 0
M  V30 9494 H 880.499 -3.31609 -2.09231 0
M  V30 9495 H 881.989 -2.90983 -2.99531 0
M  V30 9496 N 882.426 0.269451 -1.5528 0
M  V30 9497 C 883.356 1.33729 -1.91413 0
M  V30 9498 C 884.337 1.51348 -0.776391 0
M  V30 9499 O 885.522 1.64332 -1.03482 0
M  V30 9500 C 882.652 2.69618 -2.18914 0
M  V30 9501 C 881.606 2.66725 -3.34726 0
M  V30 9502 C 880.932 4.06199 -3.47716 0
M  V30 9503 C 882.232 2.25684 -4.71025 0
M  V30 9504 H 883.926 1.03736 -2.80854 0
M  V30 9505 H 881.472 0.497579 -1.3513 0
M  V30 9506 H 883.425 3.44436 -2.42779 0
M  V30 9507 H 882.149 3.01201 -1.26275 0
M  V30 9508 H 880.808 1.94365 -3.10834 0
M  V30 9509 H 880.456 4.3501 -2.52537 0
M  V30 9510 H 880.156 4.05157 -4.25583 0
M  V30 9511 H 881.68 4.8275 -3.73877 0
M  V30 9512 H 883.094 2.90225 -4.94411 0
M  V30 9513 H 881.491 2.35797 -5.51833 0
M  V30 9514 H 882.561 1.20819 -4.69607 0
M  V30 9515 N 883.904 1.48273 0.534124 0
M  V30 9516 C 885.151 1.56079 1.29017 0
M  V30 9517 C 885.479 0.232912 1.931 0
M  V30 9518 O 884.734 -0.77642 1.79639 0
M  V30 9519 C 885.033 2.64468 2.40398 0
M  V30 9520 C 884.699 4.07034 1.93995 0
M  V30 9521 C 883.361 4.45838 1.81058 0
M  V30 9522 C 885.713 4.96395 1.58877 0
M  V30 9523 C 883.041 5.71812 1.31331 0
M  V30 9524 C 885.393 6.22854 1.10614 0
M  V30 9525 C 884.057 6.60518 0.962895 0
M  V30 9526 H 883.327 0.571135 0.472108 0
M  V30 9527 H 885.974 1.81973 0.5965 0
M  V30 9528 H 884.279 2.32419 3.15418 0
M  V30 9529 H 885.976 2.67725 2.98537 0
M  V30 9530 H 882.566 3.76387 2.05015 0
M  V30 9531 H 886.75 4.67096 1.67734 0
M  V30 9532 H 882.006 5.99722 1.18924 0
M  V30 9533 H 886.18 6.91495 0.825095 0
M  V30 9534 H 883.807 7.58019 0.575369 0
M  V30 9535 N 885.382 -0.782676 1.36792 0
M  V30 9536 C 886.312 -1.90973 1.34356 0
M  V30 9537 C 887.293 -1.6875 0.213917 0
M  V30 9538 O 888.478 -1.89766 0.412601 0
M  V30 9539 C 885.608 -3.28097 1.13884 0
M  V30 9540 C 884.562 -3.6486 2.23744 0
M  V30 9541 C 883.888 -5.00406 1.88408 0
M  V30 9542 C 885.188 -3.72742 3.6587 0
M  V30 9543 H 886.882 -1.93268 2.28665 0
M  V30 9544 H 884.428 -0.928447 1.10072 0
M  V30 9545 H 886.381 -4.06569 1.10813 0
M  V30 9546 H 885.105 -3.26206 0.160275 0
M  V30 9547 H 883.764 -2.88689 2.25952 0
M  V30 9548 H 883.412 -4.95044 0.891083 0
M  V30 9549 H 883.112 -5.25973 2.61966 0
M  V30 9550 H 884.636 -5.81291 1.86905 0
M  V30 9551 H 886.05 -4.4139 3.65852 0
M  V30 9552 H 884.447 -4.09798 4.38389 0
M  V30 9553 H 885.517 -2.73676 4.00287 0
M  V30 9554 N 886.86 -1.21182 -1.00761 0
M  V30 9555 C 887.79 -0.992773 -2.11344 0
M  V30 9556 C 888.771 0.0813618 -1.69905 0
M  V30 9557 O 889.956 -0.0779503 -1.94043 0
M  V30 9558 C 887.086 -0.553826 -3.42856 0
M  V30 9559 C 886.04 -1.57223 -3.98077 0
M  V30 9560 C 885.366 -0.989605 -5.25463 0
M  V30 9561 C 886.666 -2.95839 -4.30438 0
M  V30 9562 H 888.36 -1.91766 -2.29927 0
M  V30 9563 H 885.906 -0.923426 -1.10494 0
M  V30 9564 H 887.859 -0.387771 -4.19612 0
M  V30 9565 H 886.583 0.406702 -3.24058 0
M  V30 9566 H 885.242 -1.7258 -3.23437 0
M  V30 9567 H 884.89 -0.0208743 -5.02996 0
M  V30 9568 H 884.59 -1.66984 -5.63374 0
M  V30 9569 H 886.114 -0.834815 -6.04866 0
M  V30 9570 H 887.528 -2.8394 -4.98047 0
M  V30 9571 H 885.925 -3.60851 -4.79486 0
M  V30 9572 H 886.995 -3.46882 -3.38823 0
M  V30 9573 N 888.338 1.20213 -1.01915 0
M  V30 9574 C 889.587 1.88968 -0.705261 0
M  V30 9575 C 889.9 1.79869 0.768531 0
M  V30 9576 O 891.106 2.43783 1.19508 0
M  V30 9577 C 889.562 3.38911 -1.21109 0
M  V30 9578 C 889.17 3.5659 -2.71197 0
M  V30 9579 C 890.914 4.13204 -0.97275 0
M  V30 9580 C 888.821 5.00372 -3.15248 0
M  V30 9581 H 887.751 0.707715 -0.260107 0
M  V30 9582 H 890.402 1.35977 -1.23217 0
M  V30 9583 H 888.784 3.9124 -0.612152 0
M  V30 9584 H 889.958 3.14635 -3.36662 0
M  V30 9585 H 888.273 2.95671 -2.93202 0
M  V30 9586 H 890.87 5.19221 -1.27726 0
M  V30 9587 H 891.213 4.16201 0.09072 0
M  V30 9588 H 891.746 3.66983 -1.5352 0
M  V30 9589 H 888.485 5.02532 -4.20882 0
M  V30 9590 H 888.005 5.43127 -2.54505 0
M  V30 9591 H 889.684 5.68969 -3.08032 0
M  V30 9592 N 889.816 0.795718 1.36037 0
M  V30 9593 C 890.746 0.212803 2.32528 0
M  V30 9594 C 891.727 -0.655716 1.56953 0
M  V30 9595 O 892.912 -0.588238 1.85077 0
M  V30 9596 C 890.042 -0.648189 3.41198 0
M  V30 9597 C 888.996 0.120948 4.27829 0
M  V30 9598 C 888.322 -0.861044 5.27722 0
M  V30 9599 C 889.622 1.31375 5.05508 0
M  V30 9600 H 891.316 1.01893 2.81528 0
M  V30 9601 H 888.862 0.491422 1.35355 0
M  V30 9602 H 890.815 -1.06597 4.07695 0
M  V30 9603 H 889.539 -1.48709 2.9078 0
M  V30 9604 H 888.198 0.519777 3.62897 0
M  V30 9605 H 887.846 -1.69515 4.73575 0
M  V30 9606 H 887.546 -0.350808 5.86552 0
M  V30 9607 H 889.07 -1.27726 5.97092 0
M  V30 9608 H 890.484 0.971406 5.6501 0
M  V30 9609 H 888.881 1.75772 5.73781 0
M  V30 9610 H 889.951 2.10593 4.36782 0
M  V30 9611 N 891.294 -1.47756 0.548274 0
M  V30 9612 C 892.224 -2.32702 -0.19284 0
M  V30 9613 C 893.205 -1.43237 -0.917457 0
M  V30 9614 O 894.39 -1.72103 -0.89967 0
M  V30 9615 C 891.52 -3.24831 -1.22891 0
M  V30 9616 C 890.474 -4.23466 -0.621312 0
M  V30 9617 C 889.8 -5.04856 -1.76137 0
M  V30 9618 C 891.1 -5.20616 0.419055 0
M  V30 9619 H 892.794 -2.94914 0.516323 0
M  V30 9620 H 890.34 -1.41818 0.24975 0
M  V30 9621 H 892.293 -3.83094 -1.75547 0
M  V30 9622 H 891.017 -2.60656 -1.9679 0
M  V30 9623 H 889.676 -3.66416 -0.116123 0
M  V30 9624 H 889.324 -4.37091 -2.48918 0
M  V30 9625 H 889.024 -5.71629 -1.36065 0
M  V30 9626 H 890.548 -5.65976 -2.29136 0
M  V30 9627 H 891.962 -5.73296 -0.0211034 0
M  V30 9628 H 890.359 -5.95543 0.738163 0
M  V30 9629 H 891.429 -4.66638 1.31822 0
M  V30 9630 N 892.772 -0.284283 -1.55015 0
M  V30 9631 C 894 0.332948 -2.04203 0
M  V30 9632 C 894.415 1.48783 -1.16229 0
M  V30 9633 O 893.772 1.81567 -0.184323 0
M  V30 9634 C 893.823 0.805207 -3.52418 0
M  V30 9635 O 893.544 -0.303689 -4.37046 0
M  V30 9636 C 895.045 1.48931 -4.17534 0
M  V30 9637 H 892.265 0.0747447 -0.666824 0
M  V30 9638 H 894.809 -0.419048 -2.00161 0
M  V30 9639 H 892.964 1.50727 -3.56876 0
M  V30 9640 H 893.378 0.0609703 -5.24465 0
M  V30 9641 H 894.852 1.77108 -5.22816 0
M  V30 9642 H 895.329 2.42389 -3.66257 0
M  V30 9643 H 895.935 0.830867 -4.17105 0
M  V30 9644 N 894.251 1.57596 -0.0117121 0
M  V30 9645 C 895.499 1.90694 0.669342 0
M  V30 9646 C 895.82 0.886999 1.73659 0
M  V30 9647 O 895.09 -0.0739779 1.9576 0
M  V30 9648 H 893.67 0.703846 0.250219 0
M  V30 9649 H 896.332 1.94821 -0.0554057 0
M  V30 9650 H 895.428 2.90802 1.13316 0
M  V30 9651 N 895.729 -0.261212 1.5542 0
M  V30 9652 C 896.975 -0.992699 1.76843 0
M  V30 9653 C 897.308 -1.8551 0.574428 0
M  V30 9654 O 896.583 -1.89739 -0.427713 0
M  V30 9655 C 896.866 -1.86532 3.08022 0
M  V30 9656 C 896.719 -1.03206 4.378 0
M  V30 9657 C 898.038 -2.85036 3.35324 0
M  V30 9658 H 895.157 -0.359473 0.643388 0
M  V30 9659 H 897.799 -0.264214 1.88154 0
M  V30 9660 H 895.949 -2.48644 2.9851 0
M  V30 9661 H 897.621 -0.430743 4.59285 0
M  V30 9662 H 895.864 -0.335911 4.32497 0
M  V30 9663 H 896.535 -1.6761 5.25938 0
M  V30 9664 H 899.011 -2.3306 3.44706 0
M  V30 9665 H 897.887 -3.43226 4.28354 0
M  V30 9666 H 898.148 -3.60768 2.55537 0
M  V30 9667 N 897.207 -1.48554 -0.526253 0
M  V30 9668 C 898.137 -1.66252 -1.63959 0
M  V30 9669 C 899.118 -0.511351 -1.62232 0
M  V30 9670 O 900.303 -0.744322 -1.7937 0
M  V30 9671 C 897.433 -1.70556 -3.02536 0
M  V30 9672 C 896.387 -2.8521 -3.19123 0
M  V30 9673 C 895.713 -2.74606 -4.58798 0
M  V30 9674 C 897.013 -4.26463 -3.0154 0
M  V30 9675 H 898.707 -2.59459 -1.49404 0
M  V30 9676 H 896.253 -1.24862 -0.717326 0
M  V30 9677 H 898.206 -1.81524 -3.80298 0
M  V30 9678 H 896.93 -0.739297 -3.18123 0
M  V30 9679 H 895.589 -2.73802 -2.43779 0
M  V30 9680 H 895.237 -1.75941 -4.71226 0
M  V30 9681 H 894.937 -3.51544 -4.70841 0
M  V30 9682 H 896.461 -2.87548 -5.38655 0
M  V30 9683 H 897.875 -4.38685 -3.69091 0
M  V30 9684 H 896.272 -5.04428 -3.25073 0
M  V30 9685 H 897.342 -4.42667 -1.97925 0
M  V30 9686 N 898.685 0.775411 -1.37205 0
M  V30 9687 C 899.925 1.54689 -1.33606 0
M  V30 9688 C 900.289 1.91834 0.0798549 0
M  V30 9689 O 901.49 2.67722 0.240531 0
M  V30 9690 C 899.761 2.7804 -2.24563 0
M  V30 9691 S 901.32 3.68143 -2.38781 0
M  V30 9692 H 898.138 0.529631 -0.474355 0
M  V30 9693 H 900.74 0.912128 -1.72918 0
M  V30 9694 H 899.444 2.48825 -3.26365 0
M  V30 9695 H 898.975 3.46479 -1.86322 0
M  V30 9696 H 900.99 4.69843 -1.59568 0
M  V30 9697 N 900.163 1.21714 1.00117 0
M  V30 9698 C 901.113 0.947259 2.07391 0
M  V30 9699 C 902.097 -0.0989662 1.60595 0
M  V30 9700 O 903.289 0.11047 1.76655 0
M  V30 9701 C 900.418 0.517954 3.3937 0
M  V30 9702 C 899.504 1.59846 3.92823 0
M  V30 9703 N 899.895 2.82438 4.19598 0
M  V30 9704 C 898.193 1.46822 4.2114 0
M  V30 9705 C 898.894 3.52247 4.62922 0
M  V30 9706 N 897.87 2.79696 4.66124 0
M  V30 9707 H 901.672 1.8786 2.26022 0
M  V30 9708 H 899.186 1.11344 1.18221 0
M  V30 9709 H 901.183 0.305951 4.15776 0
M  V30 9710 H 899.843 -0.40658 3.22144 0
M  V30 9711 H 900.854 3.18944 4.08038 0
M  V30 9712 H 897.531 0.609259 4.13031 0
M  V30 9713 H 898.921 4.57232 4.9233 0
M  V30 9714 N 901.641 -1.19671 1.02551 0
M  V30 9715 C 903.057 -1.41305 0.741963 0
M  V30 9716 C 903.257 -1.89865 -0.674807 0
M  V30 9717 O 902.313 -2.07323 -1.44129 0
M  V30 9718 C 903.626 -2.42706 1.77522 0
M  V30 9719 C 905.174 -2.56458 1.79438 0
M  V30 9720 C 905.649 -3.61111 2.81715 0
M  V30 9721 N 907.14 -3.68603 2.8051 0
M  V30 9722 C 907.875 -4.49262 3.56302 0
M  V30 9723 N 907.371 -5.33653 4.41799 0
M  V30 9724 N 909.164 -4.43879 3.44859 0
M  V30 9725 H 901.315 -0.8647 1.94002 0
M  V30 9726 H 903.578 -0.442206 0.838545 0
M  V30 9727 H 903.284 -2.14042 2.79068 0
M  V30 9728 H 903.158 -3.41831 1.59472 0
M  V30 9729 H 905.545 -2.84447 0.78573 0
M  V30 9730 H 905.626 -1.57499 2.01563 0
M  V30 9731 H 905.27 -3.33864 3.82749 0
M  V30 9732 H 905.2 -4.59713 2.56849 0
M  V30 9733 H 907.691 -3.08329 2.18498 0
M  V30 9734 H 908.004 -5.92308 4.96378 0
M  V30 9735 H 906.349 -5.33125 4.45873 0
M  V30 9736 H 909.54 -3.7699 2.77482 0
M  V30 9737 H 909.713 -5.06501 4.04179 0
M  V30 9738 N 903.119 -0.802921 -1.35613 0
M  V30 9739 C 904.366 -0.381576 -1.98872 0
M  V30 9740 C 904.694 1.0503 -1.63704 0
M  V30 9741 O 903.949 1.7427 -0.890418 0
M  V30 9742 C 904.248 -0.507806 -3.53774 0
M  V30 9743 C 903.914 -1.90245 -4.088 0
M  V30 9744 C 902.576 -2.28401 -4.2354 0
M  V30 9745 C 904.928 -2.81504 -4.3864 0
M  V30 9746 C 902.256 -3.57192 -4.65436 0
M  V30 9747 C 904.608 -4.09737 -4.81973 0
M  V30 9748 C 903.272 -4.47897 -4.94919 0
M  V30 9749 H 902.542 -0.139629 -0.727726 0
M  V30 9750 H 905.189 -1.023 -1.61886 0
M  V30 9751 H 903.494 0.21708 -3.91198 0
M  V30 9752 H 905.191 -0.162625 -4.0067 0
M  V30 9753 H 901.781 -1.596 -3.97776 0
M  V30 9754 H 905.965 -2.53276 -4.26808 0
M  V30 9755 H 901.221 -3.86611 -4.73648 0
M  V30 9756 H 905.395 -4.80555 -5.04024 0
M  V30 9757 H 903.022 -5.47747 -5.27141 0
M  V30 9758 N 904.597 1.47463 -0.556102 0
M  V30 9759 C 905.547 2.27007 0.212592 0
M  V30 9760 C 906.531 1.34288 0.886312 0
M  V30 9761 O 907.723 1.5865 0.784801 0
M  V30 9762 C 904.852 3.20021 1.24263 0
M  V30 9763 C 903.938 4.2022 0.572385 0
M  V30 9764 N 904.329 5.04539 -0.35691 0
M  V30 9765 C 902.627 4.38276 0.826441 0
M  V30 9766 C 903.328 5.76895 -0.746134 0
M  V30 9767 N 902.304 5.43506 -0.101225 0
M  V30 9768 H 906.106 2.89582 -0.501925 0
M  V30 9769 H 903.62 1.57988 -0.375961 0
M  V30 9770 H 905.617 3.7569 1.80728 0
M  V30 9771 H 904.277 2.59003 1.95826 0
M  V30 9772 H 905.288 5.12715 -0.731012 0
M  V30 9773 H 901.965 3.88429 1.53066 0
M  V30 9774 H 903.355 6.5472 -1.50967 0
M  V30 9775 N 906.075 0.2925 1.54862 0
M  V30 9776 C 907.323 -0.318633 1.99572 0
M  V30 9777 C 907.644 -1.55062 1.1824 0
M  V30 9778 O 906.914 -1.93943 0.276226 0
M  V30 9779 H 905.494 -0.120722 0.737181 0
M  V30 9780 H 908.156 0.401862 1.90712 0
M  V30 9781 H 907.252 -0.596542 3.06346 0
M  V30 9782 N 907.553 -1.57587 0.0200696 0
M  V30 9783 C 908.483 -2.12702 -0.963333 0
M  V30 9784 C 909.464 -1.04094 -1.34531 0
M  V30 9785 O 910.649 -1.31881 -1.42552 0
M  V30 9786 C 907.779 -2.64673 -2.24868 0
M  V30 9787 C 906.733 -3.77987 -2.00772 0
M  V30 9788 C 906.059 -4.16351 -3.35494 0
M  V30 9789 C 907.359 -5.0444 -1.35416 0
M  V30 9790 H 909.053 -2.95121 -0.504363 0
M  V30 9791 H 906.599 -1.41966 -0.24116 0
M  V30 9792 H 908.552 -3.01862 -2.94036 0
M  V30 9793 H 907.276 -1.79403 -2.72914 0
M  V30 9794 H 905.935 -3.41223 -1.34025 0
M  V30 9795 H 905.583 -3.28075 -3.81282 0
M  V30 9796 H 905.283 -4.92705 -3.20181 0
M  V30 9797 H 906.807 -4.56115 -4.05945 0
M  V30 9798 H 908.221 -5.39273 -1.94571 0
M  V30 9799 H 906.618 -5.85732 -1.30529 0
M  V30 9800 H 907.688 -4.83803 -0.325923 0
M  V30 9801 N 909.032 0.252966 -1.55557 0
M  V30 9802 C 910.278 0.979092 -1.78284 0
M  V30 9803 C 910.633 1.83194 -0.588009 0
M  V30 9804 O 909.926 1.86965 0.418899 0
M  V30 9805 C 910.12 1.87785 -3.04091 0
M  V30 9806 C 909.949 1.11349 -4.35697 0
M  V30 9807 C 908.719 0.821038 -4.98585 0
M  V30 9808 C 910.917 0.494039 -5.11922 0
M  V30 9809 N 908.899 0.0319767 -6.13892 0
M  V30 9810 C 910.27 -0.159888 -6.19794 0
M  V30 9811 C 912.325 0.403894 -4.96259 0
M  V30 9812 C 911.028 -0.895295 -7.13706 0
M  V30 9813 C 913.054 -0.317968 -5.90545 0
M  V30 9814 C 912.416 -0.960555 -6.9782 0
M  V30 9815 H 908.515 0.339586 -0.704419 0
M  V30 9816 H 911.099 0.252801 -1.93052 0
M  V30 9817 H 909.27 2.57623 -2.90663 0
M  V30 9818 H 911.002 2.53908 -3.15139 0
M  V30 9819 H 907.757 1.13132 -4.59889 0
M  V30 9820 H 908.181 -0.35047 -6.76092 0
M  V30 9821 H 912.823 0.886366 -4.13405 0
M  V30 9822 H 910.541 -1.38939 -7.96066 0
M  V30 9823 H 914.127 -0.388302 -5.80503 0
M  V30 9824 H 913.007 -1.51022 -7.69521 0
M  V30 9825 N 910.51 1.48831 0.518367 0
M  V30 9826 C 911.74 1.60886 1.29612 0
M  V30 9827 C 912.148 0.272713 1.87224 0
M  V30 9828 O 911.491 -0.749653 1.67708 0
M  V30 9829 C 911.553 2.60541 2.47707 0
M  V30 9830 C 911.217 4.05324 2.11095 0
M  V30 9831 C 912.214 4.92658 1.66084 0
M  V30 9832 C 909.899 4.50942 2.21262 0
M  V30 9833 C 911.893 6.23641 1.3172 0
M  V30 9834 C 909.58 5.81943 1.8651 0
M  V30 9835 C 910.578 6.68116 1.41812 0
M  V30 9836 O 910.266 7.96677 1.07522 0
M  V30 9837 H 909.998 0.544968 0.399982 0
M  V30 9838 H 912.552 1.95474 0.630799 0
M  V30 9839 H 910.782 2.21098 3.17258 0
M  V30 9840 H 912.471 2.62308 3.09757 0
M  V30 9841 H 913.237 4.58649 1.5769 0
M  V30 9842 H 909.116 3.84048 2.55007 0
M  V30 9843 H 912.66 6.90857 0.967598 0
M  V30 9844 H 908.557 6.15484 1.94549 0
M  V30 9845 H 909.325 8.09534 1.2082 0
M  V30 9846 N 911.988 -0.768124 1.37614 0
M  V30 9847 C 912.921 -1.88894 1.2804 0
M  V30 9848 C 913.899 -1.61809 0.160226 0
M  V30 9849 O 915.083 -1.85498 0.33506 0
M  V30 9850 C 912.21 -3.24197 0.980523 0
M  V30 9851 C 911.256 -3.70188 2.11808 0
M  V30 9852 S 912.089 -3.83433 3.73817 0
M  V30 9853 C 913.245 -5.21578 3.45987 0
M  V30 9854 H 913.478 -1.96726 2.22904 0
M  V30 9855 H 911.011 -0.929602 1.23279 0
M  V30 9856 H 912.969 -4.02342 0.814331 0
M  V30 9857 H 911.63 -3.14061 0.0493122 0
M  V30 9858 H 910.823 -4.6829 1.86335 0
M  V30 9859 H 910.425 -2.99155 2.2446 0
M  V30 9860 H 912.717 -6.06865 3.012 0
M  V30 9861 H 913.66 -5.52065 4.43429 0
M  V30 9862 H 914.068 -4.89687 2.80832 0
M  V30 9863 N 913.466 -1.22244 -0.994698 0
M  V30 9864 C 914.413 -0.990906 -2.08446 0
M  V30 9865 C 915.383 0.086737 -1.65873 0
M  V30 9866 O 916.568 -0.0624882 -1.90698 0
M  V30 9867 C 913.708 -0.572813 -3.40313 0
M  V30 9868 C 912.821 -1.72103 -3.96238 0
M  V30 9869 C 911.956 -1.2511 -5.16257 0
M  V30 9870 C 910.995 -2.37098 -5.64315 0
M  V30 9871 N 910.132 -1.91164 -6.75574 0
M  V30 9872 H 914.972 -1.92377 -2.27585 0
M  V30 9873 H 912.509 -0.958576 -1.11578 0
M  V30 9874 H 914.467 -0.311594 -4.16035 0
M  V30 9875 H 913.097 0.323044 -3.21179 0
M  V30 9876 H 912.149 -2.09662 -3.17405 0
M  V30 9877 H 913.461 -2.56347 -4.27888 0
M  V30 9878 H 912.615 -0.947152 -5.99261 0
M  V30 9879 H 911.354 -0.378836 -4.86226 0
M  V30 9880 H 910.359 -2.68283 -4.799 0
M  V30 9881 H 911.584 -3.24837 -5.96371 0
M  V30 9882 H 909.53 -1.06298 -6.47331 0
M  V30 9883 H 909.447 -2.68975 -7.06533 0
M  V30 9884 H 910.715 -1.63833 -7.62088 0
M  V30 9885 N 914.944 1.19125 -1.03184 0
M  V30 9886 C 915.877 2.21229 -0.559739 0
M  V30 9887 C 916.855 1.57578 0.400998 0
M  V30 9888 O 918.039 1.85809 0.317399 0
M  V30 9889 C 915.166 3.38203 0.183442 0
M  V30 9890 C 914.212 4.2022 -0.729182 0
M  V30 9891 S 915.045 4.87903 -2.20706 0
M  V30 9892 C 916.201 6.08284 -1.47448 0
M  V30 9893 H 916.434 2.60932 -1.42484 0
M  V30 9894 H 913.967 1.29419 -0.842028 0
M  V30 9895 H 915.925 4.06001 0.606084 0
M  V30 9896 H 914.586 2.96929 1.02432 0
M  V30 9897 H 913.779 5.03761 -0.155272 0
M  V30 9898 H 913.381 3.57755 -1.09028 0
M  V30 9899 H 915.673 6.73193 -0.762687 0
M  V30 9900 H 916.616 6.70165 -2.28659 0
M  V30 9901 H 917.024 5.56092 -0.97068 0
M  V30 9902 N 916.422 0.810101 1.35185 0
M  V30 9903 C 917.355 0.168416 2.27578 0
M  V30 9904 C 918.333 -0.667664 1.4826 0
M  V30 9905 O 919.517 -0.634184 1.77512 0
M  V30 9906 C 916.644 -0.765994 3.29925 0
M  V30 9907 C 915.69 -0.00908802 4.26499 0
M  V30 9908 S 916.523 1.32936 5.18737 0
M  V30 9909 C 917.679 0.399485 6.24624 0
M  V30 9910 H 917.912 0.951753 2.81654 0
M  V30 9911 H 915.445 0.60534 1.42039 0
M  V30 9912 H 917.403 -1.2996 3.89385 0
M  V30 9913 H 916.064 -1.52275 2.7472 0
M  V30 9914 H 915.257 -0.718919 4.98846 0
M  V30 9915 H 914.859 0.454663 3.71226 0
M  V30 9916 H 917.151 -0.413904 6.76234 0
M  V30 9917 H 918.094 1.09225 6.99625 0
M  V30 9918 H 918.502 -0.00638358 5.645 0
M  V30 9919 N 917.9 -1.47166 0.563914 0
M  V30 9920 C 919.146 -2.03337 0.0506932 0
M  V30 9921 C 919.501 -1.42976 -1.28746 0
M  V30 9922 O 918.794 -0.578508 -1.82658 0
M  V30 9923 C 918.988 -3.57279 -0.0931797 0
M  V30 9924 C 918.817 -4.32567 1.22948 0
M  V30 9925 C 917.587 -4.72206 1.79859 0
M  V30 9926 C 919.785 -4.67282 2.14829 0
M  V30 9927 N 917.767 -5.32166 3.0606 0
M  V30 9928 C 919.138 -5.27615 3.25611 0
M  V30 9929 C 921.193 -4.49211 2.14741 0
M  V30 9930 C 919.896 -5.71784 4.36412 0
M  V30 9931 C 921.922 -4.94384 3.24559 0
M  V30 9932 C 921.284 -5.54771 4.34061 0
M  V30 9933 H 917.383 -0.779627 0.0608761 0
M  V30 9934 H 919.967 -1.79563 0.75268 0
M  V30 9935 H 918.138 -3.80806 -0.764301 0
M  V30 9936 H 919.87 -4.0009 -0.609075 0
M  V30 9937 H 916.625 -4.54372 1.33577 0
M  V30 9938 H 917.049 -5.66684 3.70404 0
M  V30 9939 H 921.691 -4.01875 1.31362 0
M  V30 9940 H 919.409 -6.18108 5.20546 0
M  V30 9941 H 922.995 -4.82167 3.25586 0
M  V30 9942 H 921.875 -5.89087 5.17635 0
M  V30 9943 N 919.378 -0.300708 -1.54705 0
M  V30 9944 C 920.341 0.562648 -2.22187 0
M  V30 9945 C 921.341 1.06152 -1.20782 0
M  V30 9946 O 922.531 0.957596 -1.45519 0
M  V30 9947 C 919.663 1.77899 -2.908 0
M  V30 9948 H 920.856 -0.0269361 -2.99888 0
M  V30 9949 H 918.409 -0.0515412 -1.56215 0
M  V30 9950 H 919.144 2.40841 -2.17177 0
M  V30 9951 H 918.929 1.42892 -3.65136 0
M  V30 9952 H 920.419 2.39236 -3.42281 0
M  V30 9953 N 920.856 1.57574 -0.0284266 0
M  V30 9954 C 922.102 1.92884 0.645544 0
M  V30 9955 C 922.457 0.905203 1.69776 0
M  V30 9956 O 921.75 -0.0788509 1.91438 0
M  V30 9957 C 921.944 3.32699 1.3056 0
M  V30 9958 C 921.773 4.48568 0.318848 0
M  V30 9959 C 920.543 5.05235 -0.0810373 0
M  V30 9960 C 922.741 5.12528 -0.426575 0
M  V30 9961 N 920.723 6.04626 -1.06303 0
M  V30 9962 C 922.094 6.07013 -1.26235 0
M  V30 9963 C 924.149 4.95509 -0.48735 0
M  V30 9964 C 922.852 6.8631 -2.15341 0
M  V30 9965 C 924.878 5.75414 -1.36575 0
M  V30 9966 C 924.24 6.69514 -2.1893 0
M  V30 9967 H 920.339 0.753677 0.208555 0
M  V30 9968 H 922.923 1.94466 -0.095439 0
M  V30 9969 H 921.094 3.31938 2.01673 0
M  V30 9970 H 922.826 3.55359 1.93655 0
M  V30 9971 H 919.581 4.72691 0.293264 0
M  V30 9972 H 920.005 6.59012 -1.55025 0
M  V30 9973 H 924.647 4.22584 0.135112 0
M  V30 9974 H 922.365 7.58541 -2.78642 0
M  V30 9975 H 925.951 5.64279 -1.41705 0
M  V30 9976 H 924.831 7.30266 -2.85799 0
M  V30 9977 N 922.334 -0.244713 1.55689 0
M  V30 9978 C 923.264 -1.30667 1.93516 0
M  V30 9979 C 924.245 -1.50094 0.800371 0
M  V30 9980 O 925.43 -1.62665 1.06083 0
M  V30 9981 C 922.56 -2.66101 2.23176 0
M  V30 9982 C 921.514 -2.61366 3.38927 0
M  V30 9983 C 920.84 -4.00616 3.54134 0
M  V30 9984 C 922.14 -2.18161 4.74555 0
M  V30 9985 H 923.834 -0.992546 2.82469 0
M  V30 9986 H 921.38 -0.476018 1.35905 0
M  V30 9987 H 923.333 -3.4053 2.48228 0
M  V30 9988 H 922.057 -2.99154 1.31051 0
M  V30 9989 H 920.716 -1.89395 3.13887 0
M  V30 9990 H 920.364 -4.30938 2.59426 0
M  V30 9991 H 920.064 -3.98335 4.31975 0
M  V30 9992 H 921.588 -4.76741 3.8151 0
M  V30 9993 H 923.002 -2.82323 4.98965 0
M  V30 9994 H 921.399 -2.26988 5.55515 0
M  V30 9995 H 922.469 -1.13333 4.7147 0
M  V30 9996 N 923.813 -1.49104 -0.510467 0
M  V30 9997 C 924.745 -1.61183 -1.6295 0
M  V30 9998 C 925.758 -0.495003 -1.55092 0
M  V30 9999 O 926.947 -0.766671 -1.61197 0
M  V30 10000 C 924.047 -1.54373 -3.01699 0
M  V30 10001 C 923.22 -2.81428 -3.34838 0
M  V30 10002 C 922.279 -2.67802 -4.52956 0
M  V30 10003 O 921.305 -3.41723 -4.55208 0
M  V30 10004 N 922.507 -1.78715 -5.52305 0
M  V30 10005 H 925.272 -2.57693 -1.53018 0
M  V30 10006 H 922.833 -1.46073 -0.698152 0
M  V30 10007 H 924.825 -1.42924 -3.78622 0
M  V30 10008 H 923.395 -0.657597 -3.05605 0
M  V30 10009 H 922.615 -3.07299 -2.46903 0
M  V30 10010 H 923.903 -3.6568 -3.53773 0
M  V30 10011 H 923.301 -1.17897 -5.53278 0
M  V30 10012 H 921.858 -1.73194 -6.28369 0
M  V30 10013 N 925.291 0.760815 -1.38019 0
M  V30 10014 C 926.254 1.85604 -1.34476 0
M  V30 10015 C 927.254 1.58897 -0.24666 0
M  V30 10016 O 928.444 1.66776 -0.50314 0
M  V30 10017 C 925.576 3.22945 -1.09176 0
M  V30 10018 H 926.769 1.90155 -2.31908 0
M  V30 10019 H 924.322 0.961746 -1.23208 0
M  V30 10020 H 925.057 3.24066 -0.123216 0
M  V30 10021 H 924.842 3.43723 -1.88672 0
M  V30 10022 H 926.332 4.03022 -1.09375 0
M  V30 10023 N 926.769 1.22769 0.988202 0
M  V30 10024 C 927.716 1.00195 2.07917 0
M  V30 10025 C 928.686 -0.0779391 1.65917 0
M  V30 10026 O 929.871 0.0726005 1.90662 0
M  V30 10027 C 927.011 0.590853 3.40004 0
M  V30 10028 C 926.124 1.74202 3.9532 0
M  V30 10029 C 925.259 1.27846 5.15586 0
M  V30 10030 C 924.298 2.40087 5.63049 0
M  V30 10031 N 923.435 1.94744 6.74551 0
M  V30 10032 H 928.275 1.93581 2.26562 0
M  V30 10033 H 925.812 0.96448 1.11068 0
M  V30 10034 H 927.77 0.333653 4.15864 0
M  V30 10035 H 926.4 -0.306007 3.21346 0
M  V30 10036 H 925.452 2.11342 3.16289 0
M  V30 10037 H 926.764 2.58612 4.26522 0
M  V30 10038 H 925.918 0.978919 5.9875 0
M  V30 10039 H 924.657 0.404617 4.86019 0
M  V30 10040 H 923.662 2.70824 4.78471 0
M  V30 10041 H 924.887 3.27995 5.9464 0
M  V30 10042 H 922.833 1.09729 6.46758 0
M  V30 10043 H 922.75 2.72718 7.05096 0
M  V30 10044 H 924.018 1.67873 7.61209 0
M  V30 10045 N 928.247 -1.18576 1.03814 0
M  V30 10046 C 929.663 -1.4051 0.756909 0
M  V30 10047 C 929.863 -1.9057 -0.654631 0
M  V30 10048 O 928.919 -2.0884 -1.41922 0
M  V30 10049 C 930.232 -2.4081 1.80087 0
M  V30 10050 C 931.78 -2.54541 1.82148 0
M  V30 10051 C 932.255 -3.58102 2.85529 0
M  V30 10052 N 933.746 -3.65607 2.84404 0
M  V30 10053 C 934.481 -4.45458 3.61047 0
M  V30 10054 N 933.977 -5.28937 4.47434 0
M  V30 10055 N 935.77 -4.40196 3.49548 0
M  V30 10056 H 927.921 -0.844075 1.94908 0
M  V30 10057 H 930.184 -0.433287 0.843188 0
M  V30 10058 H 929.89 -2.1107 2.81322 0
M  V30 10059 H 929.764 -3.4012 1.63089 0
M  V30 10060 H 932.151 -2.83598 0.815855 0
M  V30 10061 H 932.232 -1.55352 2.03223 0
M  V30 10062 H 931.876 -3.29786 3.86269 0
M  V30 10063 H 931.806 -4.56963 2.6171 0
M  V30 10064 H 934.297 -3.05994 2.21756 0
M  V30 10065 H 934.61 -5.8701 5.02632 0
M  V30 10066 H 932.955 -5.28366 4.51503 0
M  V30 10067 H 936.146 -3.74026 2.81464 0
M  V30 10068 H 936.319 -5.02186 4.09528 0
M  V30 10069 N 929.725 -0.817259 -1.34754 0
M  V30 10070 C 930.672 -0.233108 -2.2962 0
M  V30 10071 C 931.642 0.638902 -1.53321 0
M  V30 10072 O 932.827 0.581739 -1.81715 0
M  V30 10073 C 929.967 0.603659 -3.39779 0
M  V30 10074 C 929.08 -0.289967 -4.31026 0
M  V30 10075 C 928.215 0.555825 -5.28284 0
M  V30 10076 C 927.254 -0.337539 -6.11169 0
M  V30 10077 N 926.391 0.468847 -7.00533 0
M  V30 10078 H 931.231 -1.04747 -2.78984 0
M  V30 10079 H 928.768 -0.528056 -1.37295 0
M  V30 10080 H 930.726 1.10407 -4.02326 0
M  V30 10081 H 929.356 1.38319 -2.91664 0
M  V30 10082 H 928.408 -0.908552 -3.69391 0
M  V30 10083 H 929.72 -0.977136 -4.89135 0
M  V30 10084 H 928.874 1.12094 -5.96255 0
M  V30 10085 H 927.613 1.27652 -4.70698 0
M  V30 10086 H 926.618 -0.914839 -5.42135 0
M  V30 10087 H 927.843 -1.05626 -6.70835 0
M  V30 10088 H 925.789 1.17332 -6.45422 0
M  V30 10089 H 925.706 -0.160052 -7.55831 0
M  V30 10090 H 926.974 1.01689 -7.72839 0
M  V30 10091 N 931.203 1.46865 -0.571711 0
M  V30 10092 C 932.614 1.86158 -0.142181 0
M  V30 10093 C 932.965 1.47663 1.2919 0
M  V30 10094 O 932.09 0.886393 1.97413 0
M  V30 10095 C 932.685 3.37867 -0.251256 0
M  V30 10096 C 931.244 3.76198 0.123329 0
M  V30 10097 C 930.391 2.70902 -0.592232 0
M  V30 10098 H 933.342 1.38176 -0.780587 0
M  V30 10099 H 933.363 3.76842 0.526331 0
M  V30 10100 H 932.875 3.65853 -1.2951 0
M  V30 10101 H 930.976 3.53829 1.16773 0
M  V30 10102 H 931.089 4.78471 -0.24533 0
M  V30 10103 H 929.453 2.54678 -0.0336927 0
M  V30 10104 H 930.236 3.01729 -1.63751 0
M  V30 10105 N 932.681 0.308908 1.54543 0
M  V30 10106 C 934.097 -0.0442273 1.59539 0
M  V30 10107 C 934.297 -1.51743 1.32575 0
M  V30 10108 O 933.353 -2.27134 1.10302 0
M  V30 10109 C 934.666 0.360826 2.98527 0
M  V30 10110 C 936.214 0.310252 3.11459 0
M  V30 10111 C 936.689 0.690246 4.52769 0
M  V30 10112 N 938.18 0.643084 4.58714 0
M  V30 10113 C 938.915 0.909483 5.66141 0
M  V30 10114 N 938.411 1.24226 6.81572 0
M  V30 10115 N 940.204 0.836018 5.55848 0
M  V30 10116 H 932.355 1.26893 1.70329 0
M  V30 10117 H 934.618 0.514986 0.795923 0
M  V30 10118 H 934.324 1.38669 3.23209 0
M  V30 10119 H 934.198 -0.281563 3.76148 0
M  V30 10120 H 936.585 -0.706375 2.86521 0
M  V30 10121 H 936.666 0.987373 2.35976 0
M  V30 10122 H 936.31 1.70472 4.78437 0
M  V30 10123 H 936.24 -0.00903075 5.26599 0
M  V30 10124 H 938.731 0.397138 3.75807 0
M  V30 10125 H 939.044 1.4313 7.5943 0
M  V30 10126 H 937.389 1.28038 6.83104 0
M  V30 10127 H 940.58 0.575637 4.64547 0
M  V30 10128 H 940.753 1.047 6.39486 0
M  V30 10129 N 934.159 -1.57557 0.0367827 0
M  V30 10130 C 935.106 -2.10679 -0.942499 0
M  V30 10131 C 936.076 -1.01068 -1.31812 0
M  V30 10132 O 937.261 -1.28533 -1.41011 0
M  V30 10133 C 934.401 -2.64467 -2.21701 0
M  V30 10134 C 933.514 -3.88114 -1.89715 0
M  V30 10135 C 932.649 -4.30268 -3.11518 0
M  V30 10136 C 931.688 -5.46652 -2.75387 0
M  V30 10137 N 930.825 -5.83927 -3.89838 0
M  V30 10138 H 935.665 -2.94066 -0.482588 0
M  V30 10139 H 933.202 -1.45344 -0.226597 0
M  V30 10140 H 935.16 -2.93745 -2.96259 0
M  V30 10141 H 933.79 -1.83898 -2.65295 0
M  V30 10142 H 932.842 -3.65516 -1.05366 0
M  V30 10143 H 934.154 -4.72743 -1.5911 0
M  V30 10144 H 933.308 -4.61023 -3.94389 0
M  V30 10145 H 932.047 -3.44421 -3.4529 0
M  V30 10146 H 931.052 -5.15583 -1.90929 0
M  V30 10147 H 932.277 -6.34204 -2.42822 0
M  V30 10148 H 930.223 -5.01035 -4.23438 0
M  V30 10149 H 930.14 -6.63214 -3.62883 0
M  V30 10150 H 931.408 -6.19291 -4.73391 0
M  V30 10151 N 935.637 0.236453 -1.55816 0
M  V30 10152 C 936.6 1.27633 -1.90375 0
M  V30 10153 C 937.6 1.40557 -0.781048 0
M  V30 10154 O 938.79 1.39078 -1.04895 0
M  V30 10155 C 935.922 2.65247 -2.14142 0
M  V30 10156 H 937.115 0.982019 -2.83366 0
M  V30 10157 H 934.668 0.476215 -1.48869 0
M  V30 10158 H 935.403 2.99801 -1.23653 0
M  V30 10159 H 935.188 2.57246 -2.95917 0
M  V30 10160 H 936.678 3.40313 -2.42026 0
M  V30 10161 N 937.115 1.49373 0.502552 0
M  V30 10162 C 938.526 1.52 1.0841 0
M  V30 10163 C 938.877 0.305317 1.9381 0
M  V30 10164 O 938.002 -0.585023 2.08342 0
M  V30 10165 C 938.597 2.75437 1.97281 0
M  V30 10166 C 937.156 2.80848 2.50602 0
M  V30 10167 C 936.303 2.45894 1.28186 0
M  V30 10168 H 939.254 1.56092 0.286533 0
M  V30 10169 H 939.275 2.55511 2.81947 0
M  V30 10170 H 938.787 3.63827 1.35098 0
M  V30 10171 H 936.888 1.96735 3.16427 0
M  V30 10172 H 937.001 3.82979 2.8786 0
M  V30 10173 H 935.365 1.97639 1.60657 0
M  V30 10174 H 936.148 3.36556 0.677139 0
M  V30 10175 N 938.594 -0.753485 1.38421 0
M  V30 10176 C 939.819 -1.54783 1.38047 0
M  V30 10177 C 940.244 -1.8808 -0.0276371 0
M  V30 10178 O 939.602 -1.5058 -1.00973 0
M  V30 10179 C 939.65 -2.82353 2.24297 0
M  V30 10180 O 938.754 -3.77509 1.66014 0
M  V30 10181 H 938.095 -0.468151 0.470883 0
M  V30 10182 H 940.625 -0.931144 1.82184 0
M  V30 10183 H 940.635 -3.31277 2.38159 0
M  V30 10184 H 939.31 -2.57449 3.26639 0
M  V30 10185 H 937.887 -3.36212 1.61294 0
M  V30 10186 N 940.072 -1.23292 -0.981677 0
M  V30 10187 C 941.488 -0.995295 -1.24764 0
M  V30 10188 C 941.688 0.304379 -1.99188 0
M  V30 10189 O 940.744 1.02414 -2.30798 0
M  V30 10190 C 942.057 -2.20135 -2.04844 0
M  V30 10191 C 943.605 -2.24612 -2.17988 0
M  V30 10192 C 944.08 -3.448 -3.01458 0
M  V30 10193 N 945.571 -3.45031 -3.09044 0
M  V30 10194 C 946.306 -4.34683 -3.7395 0
M  V30 10195 N 945.802 -5.34569 -4.4069 0
M  V30 10196 N 947.595 -4.22429 -3.70823 0
M  V30 10197 H 939.746 -2.06834 -0.483052 0
M  V30 10198 H 942.009 -0.906929 -0.276014 0
M  V30 10199 H 941.715 -3.14446 -1.57532 0
M  V30 10200 H 941.589 -2.21115 -3.05594 0
M  V30 10201 H 943.976 -1.30841 -2.64508 0
M  V30 10202 H 944.057 -2.27664 -1.16631 0
M  V30 10203 H 943.701 -4.38877 -2.55635 0
M  V30 10204 H 943.631 -3.38988 -4.02982 0
M  V30 10205 H 946.122 -2.72759 -2.61555 0
M  V30 10206 H 946.435 -5.99236 -4.87991 0
M  V30 10207 H 944.78 -5.3847 -4.39403 0
M  V30 10208 H 947.971 -3.43639 -3.17851 0
M  V30 10209 H 948.144 -4.92501 -4.21126 0
M  V30 10210 N 941.55 1.18024 -1.04442 0
M  V30 10211 C 942.498 2.23834 -0.632557 0
M  V30 10212 C 943.492 1.65902 0.342488 0
M  V30 10213 O 944.698 1.78778 0.20937 0
M  V30 10214 H 941.073 0.728544 -0.186353 0
M  V30 10215 H 943.044 2.55876 -1.53526 0
M  V30 10216 C 941.793 3.47697 -0.0153661 0
M  V30 10217 H 941.116 3.92574 -0.756704 0
M  V30 10218 H 942.556 4.23345 0.235541 0
M  V30 10219 C 941.015 3.13416 1.23579 0
M  V30 10220 O 941.545 3.27499 2.3261 0
M  V30 10221 N 939.751 2.67708 1.13053 0
M  V30 10222 H 939.298 2.56449 0.243277 0
M  V30 10223 H 939.256 2.45143 1.96855 0
M  V30 10224 N 943.028 0.824394 1.34319 0
M  V30 10225 C 944.277 0.40956 1.97498 0
M  V30 10226 C 944.59 -1.03323 1.66083 0
M  V30 10227 O 945.796 -1.55205 2.22764 0
M  V30 10228 C 944.252 0.681384 3.53391 0
M  V30 10229 C 943.86 2.1379 3.93698 0
M  V30 10230 C 945.604 0.332788 4.23194 0
M  V30 10231 C 943.511 2.35453 5.42509 0
M  V30 10232 H 942.441 0.149409 0.739049 0
M  V30 10233 H 945.092 1.01095 1.5314 0
M  V30 10234 H 943.474 0.00980375 3.95999 0
M  V30 10235 H 944.648 2.84876 3.62191 0
M  V30 10236 H 942.963 2.44807 3.36836 0
M  V30 10237 H 945.56 0.472463 5.32609 0
M  V30 10238 H 945.903 -0.722862 4.09976 0
M  V30 10239 H 946.436 0.959005 3.86067 0
M  V30 10240 H 943.175 3.39529 5.60714 0
M  V30 10241 H 942.695 1.68912 5.75525 0
M  V30 10242 H 944.374 2.17885 6.09209 0
M  V30 10243 N 944.506 -1.46559 0.579492 0
M  V30 10244 C 945.746 -2.04292 0.0664837 0
M  V30 10245 C 946.11 -1.44161 -1.26814 0
M  V30 10246 O 947.311 -1.93074 -1.87018 0
M  V30 10247 C 945.582 -3.574 -0.00167254 0
M  V30 10248 S 947.141 -4.36408 -0.457572 0
M  V30 10249 H 943.959 -0.710092 0.035913 0
M  V30 10250 H 946.561 -1.79644 0.771263 0
M  V30 10251 H 945.265 -3.98683 0.973666 0
M  V30 10252 H 944.796 -3.8658 -0.729321 0
M  V30 10253 H 946.811 -4.65695 -1.71296 0
M  V30 10254 N 945.984 -0.3171 -1.54377 0
M  V30 10255 C 947.214 0.289138 -2.04567 0
M  V30 10256 C 947.622 1.46833 -1.19318 0
M  V30 10257 O 946.965 1.82436 -0.215141 0
M  V30 10258 C 947.027 0.792994 -3.50645 0
M  V30 10259 C 946.691 -0.263033 -4.56242 0
M  V30 10260 C 947.688 -1.09694 -5.08196 0
M  V30 10261 C 945.373 -0.409364 -5.00629 0
M  V30 10262 C 947.367 -2.06297 -6.03092 0
M  V30 10263 C 945.054 -1.37882 -5.95342 0
M  V30 10264 C 946.052 -2.20409 -6.46459 0
M  V30 10265 O 945.74 -3.15708 -7.39313 0
M  V30 10266 H 945.472 0.0644005 -0.672925 0
M  V30 10267 H 948.026 -0.459438 -2.00196 0
M  V30 10268 H 946.256 1.59237 -3.52392 0
M  V30 10269 H 947.945 1.31687 -3.83944 0
M  V30 10270 H 948.711 -0.994842 -4.74687 0
M  V30 10271 H 944.59 0.223091 -4.6046 0
M  V30 10272 H 948.134 -2.70751 -6.42915 0
M  V30 10273 H 944.031 -1.48158 -6.28267 0
M  V30 10274 H 944.799 -3.10873 -7.57166 0
M  V30 10275 N 947.462 1.57535 -0.0451378 0
M  V30 10276 C 948.739 1.83785 0.669523 0
M  V30 10277 C 949.119 0.932331 1.89396 0
M  V30 10278 O 948.467 -0.00813229 2.28499 0
M  V30 10279 C 948.677 3.33376 1.03255 0
M  V30 10280 C 950.025 4.00243 1.41741 0
M  V30 10281 O 951.049 3.37965 1.12507 0
M  V30 10282 O 949.908 5.10038 1.96275 0
M  V30 10283 H 947.002 0.758342 0.329919 0
M  V30 10284 H 949.548 1.69538 -0.0740415 0
M  V30 10285 H 948.32 3.90965 0.161777 0
M  V30 10286 H 947.943 3.52787 1.83376 0
M  V30 10287 N 948.94 -0.228186 1.55939 0
M  V30 10288 C 949.903 -1.26621 1.91049 0
M  V30 10289 C 950.903 -1.40141 0.788491 0
M  V30 10290 O 952.093 -1.3852 1.05631 0
M  V30 10291 C 949.225 -2.64108 2.15545 0
M  V30 10292 H 950.418 -0.966978 2.83883 0
M  V30 10293 H 947.971 -0.468313 1.49119 0
M  V30 10294 H 948.706 -2.99141 1.25241 0
M  V30 10295 H 948.491 -2.55673 2.97277 0
M  V30 10296 H 949.981 -3.39025 2.43827 0
M  V30 10297 N 950.418 -1.49637 -0.494624 0
M  V30 10298 C 951.665 -1.59445 -1.24834 0
M  V30 10299 C 951.993 -0.284028 -1.92415 0
M  V30 10300 O 951.248 0.728519 -1.81634 0
M  V30 10301 C 951.547 -2.70749 -2.33302 0
M  V30 10302 C 951.213 -4.12034 -1.83135 0
M  V30 10303 C 949.875 -4.50482 -1.69173 0
M  V30 10304 C 952.227 -5.00432 -1.4566 0
M  V30 10305 C 949.555 -5.75093 -1.16124 0
M  V30 10306 C 951.907 -6.25568 -0.940608 0
M  V30 10307 C 950.571 -6.62839 -0.787432 0
M  V30 10308 H 949.841 -0.583451 -0.456799 0
M  V30 10309 H 952.488 -1.8349 -0.548044 0
M  V30 10310 H 950.793 -2.407 -3.09145 0
M  V30 10311 H 952.49 -2.75546 -2.91334 0
M  V30 10312 H 949.08 -3.8169 -1.94964 0
M  V30 10313 H 953.264 -4.71379 -1.55291 0
M  V30 10314 H 948.52 -6.02665 -1.02982 0
M  V30 10315 H 952.694 -6.93439 -0.641467 0
M  V30 10316 H 950.321 -7.59279 -0.374191 0
M  V30 10317 N 951.896 0.746133 -1.38819 0
M  V30 10318 C 953.142 1.50768 -1.35635 0
M  V30 10319 C 953.475 1.94132 0.0512435 0
M  V30 10320 O 952.75 1.65979 1.01396 0
M  V30 10321 C 953.033 2.7551 -2.31875 0
M  V30 10322 C 952.886 2.38236 -3.81528 0
M  V30 10323 C 954.205 3.77566 -2.26124 0
M  V30 10324 H 951.324 0.546922 -0.494009 0
M  V30 10325 H 953.966 0.854017 -1.69725 0
M  V30 10326 H 952.116 3.31285 -2.02935 0
M  V30 10327 H 953.788 1.88178 -4.21173 0
M  V30 10328 H 952.031 1.70601 -3.98846 0
M  V30 10329 H 952.702 3.27517 -4.44339 0
M  V30 10330 H 955.178 3.31349 -2.51689 0
M  V30 10331 H 954.054 4.62531 -2.95561 0
M  V30 10332 H 954.315 4.23689 -1.26254 0
M  V30 10333 N 953.375 1.23811 0.975125 0
M  V30 10334 C 954.6 1.10109 1.75757 0
M  V30 10335 C 955.025 -0.342922 1.84948 0
M  V30 10336 O 954.383 -1.24814 1.31496 0
M  V30 10337 C 954.431 1.73724 3.15994 0
M  V30 10338 O 953.535 1.00297 4.00018 0
M  V30 10339 H 952.876 0.385627 0.540544 0
M  V30 10340 H 955.406 1.63971 1.22372 0
M  V30 10341 H 955.416 1.79178 3.6655 0
M  V30 10342 H 954.091 2.78794 3.0862 0
M  V30 10343 H 952.668 1.02575 3.58515 0
M  V30 10344 N 954.853 -1.17469 1.05066 0
M  V30 10345 C 956.083 -1.91343 0.779202 0
M  V30 10346 C 956.491 -1.76986 -0.668764 0
M  V30 10347 O 955.834 -1.1037 -1.46848 0
M  V30 10348 C 955.896 -3.42938 1.0786 0
M  V30 10349 C 955.56 -3.81076 2.52249 0
M  V30 10350 C 956.557 -3.84027 3.50456 0
M  V30 10351 C 954.242 -4.12076 2.87225 0
M  V30 10352 C 956.236 -4.17445 4.81683 0
M  V30 10353 C 953.923 -4.45163 4.18656 0
M  V30 10354 C 954.921 -4.47825 5.15696 0
M  V30 10355 O 954.609 -4.80133 6.44769 0
M  V30 10356 H 954.341 -0.613974 0.282863 0
M  V30 10357 H 956.895 -1.49907 1.40417 0
M  V30 10358 H 955.125 -3.84662 0.39653 0
M  V30 10359 H 956.814 -3.98071 0.793357 0
M  V30 10360 H 957.58 -3.60203 3.24775 0
M  V30 10361 H 953.459 -4.09176 2.12358 0
M  V30 10362 H 957.003 -4.19437 5.57421 0
M  V30 10363 H 952.9 -4.68449 4.44101 0
M  V30 10364 H 953.668 -4.97995 6.49571 0
M  V30 10365 N 956.331 -0.831506 -1.3388 0
M  V30 10366 C 957.556 -0.435954 -2.02766 0
M  V30 10367 C 957.981 0.952889 -1.62178 0
M  V30 10368 O 957.339 1.62166 -0.810681 0
M  V30 10369 C 957.387 -0.555907 -3.56289 0
M  V30 10370 O 956.491 0.420826 -4.10247 0
M  V30 10371 H 955.832 -0.178248 -0.639628 0
M  V30 10372 H 958.362 -1.1243 -1.70941 0
M  V30 10373 H 958.372 -0.434831 -4.05676 0
M  V30 10374 H 957.047 -1.56881 -3.85177 0
M  V30 10375 H 955.624 0.257919 -3.72007 0
M  V30 10376 N 957.809 1.4625 -0.587256 0
M  V30 10377 C 958.719 2.34147 0.145744 0
M  V30 10378 C 959.735 1.50026 0.881376 0
M  V30 10379 O 960.911 1.82884 0.843539 0
M  V30 10380 C 957.976 3.27294 1.14366 0
M  V30 10381 C 957.037 4.27317 0.412199 0
M  V30 10382 C 956.27 5.16013 1.36257 0
M  V30 10383 O 956.493 5.0773 2.59934 0
M  V30 10384 O 955.427 5.95569 0.870681 0
M  V30 10385 H 959.253 2.98187 -0.576055 0
M  V30 10386 H 956.838 1.45299 -0.347628 0
M  V30 10387 H 958.72 3.84747 1.71894 0
M  V30 10388 H 957.395 2.65845 1.84684 0
M  V30 10389 H 956.302 3.73538 -0.205036 0
M  V30 10390 H 957.635 4.91564 -0.250104 0
M  V30 10391 N 959.287 0.325282 1.54207 0
M  V30 10392 C 960.703 -0.0273036 1.59577 0
M  V30 10393 C 960.903 -1.50329 1.34177 0
M  V30 10394 O 959.959 -2.25951 1.12705 0
M  V30 10395 C 961.272 0.392468 2.98128 0
M  V30 10396 C 962.82 0.343269 3.11112 0
M  V30 10397 C 963.295 0.738229 4.52011 0
M  V30 10398 N 964.786 0.691701 4.58006 0
M  V30 10399 C 965.521 0.969479 5.65145 0
M  V30 10400 N 965.017 1.31448 6.80216 0
M  V30 10401 N 966.81 0.894926 5.5493 0
M  V30 10402 H 958.961 1.28692 1.68974 0
M  V30 10403 H 961.224 0.523399 0.790416 0
M  V30 10404 H 960.93 1.42089 3.2172 0
M  V30 10405 H 960.804 -0.241651 3.76425 0
M  V30 10406 H 963.191 -0.675946 2.87254 0
M  V30 10407 H 963.272 1.01235 2.34915 0
M  V30 10408 H 962.916 1.75537 4.76602 0
M  V30 10409 H 962.846 0.0468226 5.26579 0
M  V30 10410 H 965.337 0.436975 3.75365 0
M  V30 10411 H 965.65 1.51177 7.57869 0
M  V30 10412 H 963.995 1.35276 6.81708 0
M  V30 10413 H 967.186 0.624876 4.6391 0
M  V30 10414 H 967.359 1.11476 6.38339 0
M  V30 10415 N 960.765 -1.57509 0.0534917 0
M  V30 10416 C 962.042 -1.84137 -0.659767 0
M  V30 10417 C 962.422 -0.942362 -1.88899 0
M  V30 10418 O 961.77 -0.00398566 -2.285 0
M  V30 10419 C 961.98 -3.33919 -1.01486 0
M  V30 10420 C 963.328 -4.00989 -1.39616 0
M  V30 10421 O 964.352 -3.38557 -1.10713 0
M  V30 10422 O 963.211 -5.11071 -1.93567 0
M  V30 10423 H 960.305 -0.760081 -0.325893 0
M  V30 10424 H 962.851 -1.69497 0.0830315 0
M  V30 10425 H 961.623 -3.91046 -0.141041 0
M  V30 10426 H 961.246 -3.53755 -1.81503 0
M  V30 10427 N 962.243 0.219913 -1.56058 0
M  V30 10428 C 963.206 1.25606 -1.91718 0
M  V30 10429 C 964.206 1.39721 -0.795912 0
M  V30 10430 O 965.396 1.37958 -1.06364 0
M  V30 10431 C 962.528 2.62961 -2.16943 0
M  V30 10432 H 963.721 0.951909 -2.84392 0
M  V30 10433 H 961.274 0.460398 -1.49365 0
M  V30 10434 H 962.009 2.98472 -1.26826 0
M  V30 10435 H 961.794 2.54093 -2.98629 0
M  V30 10436 H 963.284 3.37727 -2.45622 0
M  V30 10437 N 963.721 1.49897 0.486681 0
M  V30 10438 C 964.951 1.63599 1.2617 0
M  V30 10439 C 965.359 0.312365 1.86604 0
M  V30 10440 O 964.702 -0.713911 1.6926 0
M  V30 10441 C 964.764 2.65736 2.42125 0
M  V30 10442 C 964.428 4.09711 2.0245 0
M  V30 10443 C 965.425 4.9607 1.55596 0
M  V30 10444 C 963.11 4.55534 2.11647 0
M  V30 10445 C 965.104 6.26295 1.18462 0
M  V30 10446 C 962.791 5.85768 1.74124 0
M  V30 10447 C 963.789 6.70973 1.27608 0
M  V30 10448 O 963.477 7.98778 0.905991 0
M  V30 10449 H 963.209 0.55333 0.388332 0
M  V30 10450 H 965.763 1.96768 0.589195 0
M  V30 10451 H 963.993 2.27778 3.12497 0
M  V30 10452 H 965.682 2.68819 3.04123 0
M  V30 10453 H 966.448 4.61891 1.47925 0
M  V30 10454 H 962.327 3.8937 2.46803 0
M  V30 10455 H 965.871 6.92754 0.820839 0
M  V30 10456 H 961.768 6.19473 1.8145 0
M  V30 10457 H 962.536 8.11914 1.03621 0
M  V30 10458 N 965.199 -0.738761 1.39212 0
M  V30 10459 C 966.445 -1.49942 1.37437 0
M  V30 10460 C 966.8 -1.92375 -0.0309496 0
M  V30 10461 O 966.093 -1.63635 -0.996706 0
M  V30 10462 C 966.287 -2.75435 2.2775 0
M  V30 10463 C 966.116 -2.45273 3.76924 0
M  V30 10464 C 964.886 -2.37755 4.45871 0
M  V30 10465 C 967.084 -2.11064 4.68995 0
M  V30 10466 N 965.066 -2.00023 5.804 0
M  V30 10467 C 966.437 -1.83746 5.92147 0
M  V30 10468 C 968.492 -1.975 4.57054 0
M  V30 10469 C 967.195 -1.4423 7.04692 0
M  V30 10470 C 969.221 -1.59388 5.69517 0
M  V30 10471 C 968.583 -1.32951 6.91739 0
M  V30 10472 H 964.682 -0.547671 0.558194 0
M  V30 10473 H 967.266 -0.858925 1.7473 0
M  V30 10474 H 965.437 -3.3727 1.92622 0
M  V30 10475 H 967.169 -3.41607 2.16995 0
M  V30 10476 H 963.924 -2.54725 3.99264 0
M  V30 10477 H 964.348 -1.83761 6.51583 0
M  V30 10478 H 968.99 -2.16609 3.63099 0
M  V30 10479 H 966.708 -1.23863 7.98551 0
M  V30 10480 H 970.294 -1.49504 5.62263 0
M  V30 10481 H 969.174 -1.039 7.77287 0
M  V30 10482 N 966.677 -1.24326 -0.968545 0
M  V30 10483 C 967.923 -1.08406 -1.71394 0
M  V30 10484 C 968.256 0.376353 -1.90518 0
M  V30 10485 O 967.531 1.27816 -1.46606 0
M  V30 10486 C 967.814 -1.82344 -3.1052 0
M  V30 10487 C 967.667 -3.3613 -2.98893 0
M  V30 10488 C 968.986 -1.59545 -4.10163 0
M  V30 10489 H 966.105 -0.395205 -0.622079 0
M  V30 10490 H 968.747 -1.52983 -1.12677 0
M  V30 10491 H 966.897 -1.44452 -3.60646 0
M  V30 10492 H 968.569 -3.83614 -2.56199 0
M  V30 10493 H 966.812 -3.64553 -2.35124 0
M  V30 10494 H 967.483 -3.83064 -3.97449 0
M  V30 10495 H 969.959 -1.92504 -3.68892 0
M  V30 10496 H 968.835 -2.13736 -5.05577 0
M  V30 10497 H 969.096 -0.533503 -4.38869 0
M  V30 10498 N 968.156 1.1691 -1.05688 0
M  V30 10499 C 969.066 2.24735 -0.67315 0
M  V30 10500 C 970.082 1.71252 0.308043 0
M  V30 10501 O 971.258 2.00772 0.158889 0
M  V30 10502 C 968.323 3.4665 -0.059026 0
M  V30 10503 C 967.384 4.15198 -1.0913 0
M  V30 10504 C 966.617 5.31292 -0.50639 0
M  V30 10505 O 966.84 5.663 0.682692 0
M  V30 10506 O 965.774 5.88923 -1.2431 0
M  V30 10507 H 969.6 2.59855 -1.57191 0
M  V30 10508 H 967.185 1.24306 -0.828751 0
M  V30 10509 H 969.067 4.20455 0.282018 0
M  V30 10510 H 967.742 3.13316 0.813304 0
M  V30 10511 H 966.649 3.43389 -1.48442 0
M  V30 10512 H 967.982 4.52571 -1.93495 0
M  V30 10513 N 969.634 0.838594 1.33437 0
M  V30 10514 C 970.582 0.260158 2.31141 0
M  V30 10515 C 971.576 -0.607706 1.58124 0
M  V30 10516 O 972.782 -0.497298 1.72994 0
M  V30 10517 H 969.157 0.0654031 0.74915 0
M  V30 10518 H 971.128 1.09874 2.77435 0
M  V30 10519 C 969.877 -0.550234 3.43319 0
M  V30 10520 H 969.2 0.108262 3.99653 0
M  V30 10521 H 970.64 -0.920815 4.1388 0
M  V30 10522 C 969.099 -1.729 2.89149 0
M  V30 10523 O 969.629 -2.82769 2.85315 0
M  V30 10524 N 967.835 -1.5508 2.45761 0
M  V30 10525 H 967.382 -0.657055 2.49079 0
M  V30 10526 H 967.34 -2.34099 2.0987 0
M  V30 10527 N 971.112 -1.45937 0.595003 0
M  V30 10528 C 972.042 -2.33198 -0.11871 0
M  V30 10529 C 973.023 -1.46083 -0.871423 0
M  V30 10530 O 974.208 -1.74879 -0.844461 0
M  V30 10531 C 971.338 -3.28576 -1.12495 0
M  V30 10532 C 970.292 -4.25229 -0.486275 0
M  V30 10533 C 969.618 -5.10204 -1.59986 0
M  V30 10534 C 970.918 -5.19019 0.584473 0
M  V30 10535 H 972.612 -2.93122 0.609886 0
M  V30 10536 H 970.158 -1.40951 0.294742 0
M  V30 10537 H 972.111 -3.88485 -1.6327 0
M  V30 10538 H 970.835 -2.66784 -1.88398 0
M  V30 10539 H 969.494 -3.666 0.000507962 0
M  V30 10540 H 969.142 -4.44789 -2.34886 0
M  V30 10541 H 968.842 -5.75669 -1.1781 0
M  V30 10542 H 970.366 -5.7298 -2.11014 0
M  V30 10543 H 971.78 -5.73073 0.161297 0
M  V30 10544 H 970.177 -5.92893 0.927256 0
M  V30 10545 H 971.247 -4.62208 1.46601 0
M  V30 10546 N 972.59 -0.333456 -1.54032 0
M  V30 10547 C 973.523 0.570776 -2.20947 0
M  V30 10548 C 974.501 1.10811 -1.18994 0
M  V30 10549 O 975.685 1.17027 -1.47773 0
M  V30 10550 C 972.812 1.7842 -2.87896 0
M  V30 10551 C 971.858 1.37722 -4.03652 0
M  V30 10552 S 972.691 0.405548 -5.33962 0
M  V30 10553 C 973.847 1.62603 -6.0441 0
M  V30 10554 H 974.08 0.0023936 -2.973 0
M  V30 10555 H 971.613 -0.117531 -1.53952 0
M  V30 10556 H 973.571 2.48038 -3.27089 0
M  V30 10557 H 972.232 2.32378 -2.11327 0
M  V30 10558 H 971.425 2.28167 -4.49395 0
M  V30 10559 H 971.027 0.760628 -3.66184 0
M  V30 10560 H 973.319 2.56202 -6.2719 0
M  V30 10561 H 974.262 1.21058 -6.97675 0
M  V30 10562 H 974.67 1.8175 -5.34441 0
M  V30 10563 N 974.068 1.57479 -0.061844 0
M  V30 10564 C 975.314 1.93395 0.610443 0
M  V30 10565 C 975.647 0.941334 1.6986 0
M  V30 10566 O 974.922 -0.0310262 1.94475 0
M  V30 10567 C 975.205 3.39636 1.19664 0
M  V30 10568 C 975.058 4.49651 0.115805 0
M  V30 10569 C 976.377 3.86488 2.10512 0
M  V30 10570 H 973.496 0.703262 0.220436 0
M  V30 10571 H 976.138 1.89583 -0.125785 0
M  V30 10572 H 974.288 3.43015 1.82409 0
M  V30 10573 H 975.96 4.58397 -0.516728 0
M  V30 10574 H 974.203 4.30237 -0.55483 0
M  V30 10575 H 974.874 5.49089 0.566176 0
M  V30 10576 H 977.35 3.85052 1.57715 0
M  V30 10577 H 976.226 4.89444 2.48466 0
M  V30 10578 H 976.487 3.23856 3.00948 0
M  V30 10579 N 975.546 -0.211634 1.56173 0
M  V30 10580 C 976.478 -1.286 1.89723 0
M  V30 10581 C 977.491 -1.42549 0.786361 0
M  V30 10582 O 978.68 -1.4327 1.06471 0
M  V30 10583 C 975.78 -2.66036 2.09948 0
M  V30 10584 C 974.953 -2.73908 3.41018 0
M  V30 10585 C 974.012 -3.92425 3.50555 0
M  V30 10586 O 973.038 -3.803 4.2351 0
M  V30 10587 N 974.24 -5.07165 2.82426 0
M  V30 10588 H 977.005 -1.00142 2.82474 0
M  V30 10589 H 974.566 -0.401633 1.56839 0
M  V30 10590 H 976.558 -3.43719 2.13634 0
M  V30 10591 H 975.128 -2.87052 1.23774 0
M  V30 10592 H 974.348 -1.82625 3.49345 0
M  V30 10593 H 975.636 -2.76145 4.27342 0
M  V30 10594 H 975.034 -5.19913 2.2295 0
M  V30 10595 H 973.591 -5.82855 2.9176 0
M  V30 10596 N 977.024 -1.50153 -0.478725 0
M  V30 10597 C 977.934 -1.71232 -1.60364 0
M  V30 10598 C 978.95 -0.595269 -1.63501 0
M  V30 10599 O 980.126 -0.872683 -1.81511 0
M  V30 10600 C 977.191 -1.79487 -2.96623 0
M  V30 10601 C 976.252 -3.03185 -3.03937 0
M  V30 10602 C 975.485 -3.11036 -4.33696 0
M  V30 10603 O 975.708 -2.2588 -5.23769 0
M  V30 10604 O 974.642 -4.03698 -4.46443 0
M  V30 10605 H 978.468 -2.66575 -1.45505 0
M  V30 10606 H 976.053 -1.34158 -0.65741 0
M  V30 10607 H 977.935 -1.8714 -3.77567 0
M  V30 10608 H 976.61 -0.873264 -3.11698 0
M  V30 10609 H 975.517 -3.01036 -2.22099 0
M  V30 10610 H 976.85 -3.94898 -2.93796 0
M  V30 10611 N 978.502 0.731368 -1.39602 0
M  V30 10612 C 979.432 1.85855 -1.41351 0
M  V30 10613 C 980.413 1.67839 -0.2764 0
M  V30 10614 O 981.598 1.88104 -0.482747 0
M  V30 10615 C 978.728 3.23644 -1.25983 0
M  V30 10616 C 977.682 3.56304 -2.37132 0
M  V30 10617 C 977.008 4.93069 -2.0685 0
M  V30 10618 C 978.308 3.58906 -3.79452 0
M  V30 10619 H 980.002 1.84648 -2.3568 0
M  V30 10620 H 977.548 0.886955 -1.13442 0
M  V30 10621 H 979.501 4.02176 -1.25826 0
M  V30 10622 H 978.225 3.25387 -0.281234 0
M  V30 10623 H 976.884 2.80104 -2.36511 0
M  V30 10624 H 976.532 4.91396 -1.0742 0
M  V30 10625 H 976.232 5.15888 -2.81306 0
M  V30 10626 H 977.756 5.73953 -2.0835 0
M  V30 10627 H 979.17 4.27508 -3.81982 0
M  V30 10628 H 977.567 3.93246 -4.53297 0
M  V30 10629 H 978.637 2.58631 -4.10168 0
M  V30 10630 N 979.98 1.24838 0.961938 0
M  V30 10631 C 980.89 1.06304 2.09133 0
M  V30 10632 C 981.906 0.00221475 1.74 0
M  V30 10633 O 983.082 0.201611 2.00388 0
M  V30 10634 C 980.147 0.676117 3.40043 0
M  V30 10635 C 979.208 1.81407 3.89089 0
M  V30 10636 C 978.441 1.44551 5.13752 0
M  V30 10637 O 978.664 0.337894 5.69398 0
M  V30 10638 O 977.598 2.27316 5.57325 0
M  V30 10639 H 981.424 2.01001 2.27667 0
M  V30 10640 H 979.009 1.0371 1.07539 0
M  V30 10641 H 980.891 0.472124 4.18747 0
M  V30 10642 H 979.566 -0.241667 3.22797 0
M  V30 10643 H 978.473 2.07286 3.11421 0
M  V30 10644 H 979.806 2.71083 4.10822 0
M  V30 10645 N 981.458 -1.16348 1.06306 0
M  V30 10646 C 982.406 -2.22799 0.668087 0
M  V30 10647 C 983.4 -1.66426 -0.316051 0
M  V30 10648 O 984.606 -1.79089 -0.180902 0
M  V30 10649 H 980.981 -0.725487 0.19792 0
M  V30 10650 H 982.952 -2.53401 1.57577 0
M  V30 10651 C 981.701 -3.47628 0.0706797 0
M  V30 10652 H 981.024 -3.9132 0.819064 0
M  V30 10653 H 982.464 -4.23666 -0.16816 0
M  V30 10654 C 980.923 -3.15343 -1.18577 0
M  V30 10655 O 981.453 -3.31158 -2.27371 0
M  V30 10656 N 979.659 -2.69472 -1.08779 0
M  V30 10657 H 979.206 -2.56803 -0.202447 0
M  V30 10658 H 979.164 -2.48244 -1.92931 0
M  V30 10659 N 982.937 -0.845659 -1.3299 0
M  V30 10660 C 984.184 -0.444653 -1.97558 0
M  V30 10661 C 984.512 0.997682 -1.66963 0
M  V30 10662 O 983.767 1.71349 -0.94541 0
M  V30 10663 C 984.066 -0.6201 -3.51979 0
M  V30 10664 C 983.732 -2.03155 -4.02541 0
M  V30 10665 C 982.394 -2.4176 -4.16059 0
M  V30 10666 C 984.746 -2.95317 -4.29462 0
M  V30 10667 C 982.074 -3.71818 -4.53837 0
M  V30 10668 C 984.426 -4.24863 -4.68694 0
M  V30 10669 C 983.09 -4.63416 -4.80419 0
M  V30 10670 H 982.36 -0.16271 -0.722915 0
M  V30 10671 H 985.007 -1.07399 -1.58549 0
M  V30 10672 H 983.312 0.092513 -3.91691 0
M  V30 10673 H 985.009 -0.290012 -3.9995 0
M  V30 10674 H 981.599 -1.72174 -3.92497 0
M  V30 10675 H 985.783 -2.66726 -4.18534 0
M  V30 10676 H 981.039 -4.01484 -4.61108 0
M  V30 10677 H 985.213 -4.96347 -4.8848 0
M  V30 10678 H 982.84 -5.6424 -5.09448 0
M  V30 10679 N 984.415 1.45619 -0.602734 0
M  V30 10680 C 985.363 2.32228 0.131484 0
M  V30 10681 C 986.357 1.45681 0.864484 0
M  V30 10682 O 987.563 1.62193 0.7806 0
M  V30 10683 H 983.938 0.7495 0.0612638 0
M  V30 10684 H 985.909 2.91941 -0.617496 0
M  V30 10685 C 984.658 3.29213 1.11866 0
M  V30 10686 H 983.981 3.95801 0.564061 0
M  V30 10687 H 985.421 3.92554 1.60242 0
M  V30 10688 C 983.88 2.56028 2.18978 0
M  V30 10689 O 984.41 2.33806 3.26646 0
M  V30 10690 N 982.616 2.16245 1.94129 0
M  V30 10691 H 982.163 2.34518 1.06579 0
M  V30 10692 H 982.121 1.67601 2.66003 0
M  V30 10693 N 985.893 0.34162 1.53853 0
M  V30 10694 C 987.304 -0.14269 1.86154 0
M  V30 10695 C 987.655 -1.50151 1.2629 0
M  V30 10696 O 986.78 -2.08601 0.575735 0
M  V30 10697 C 987.375 -0.265691 3.37757 0
M  V30 10698 C 985.934 -0.694231 3.69942 0
M  V30 10699 C 985.081 0.173195 2.76759 0
M  V30 10700 H 988.032 0.561284 1.48443 0
M  V30 10701 H 988.053 -1.09352 3.64448 0
M  V30 10702 H 987.565 0.723424 3.81298 0
M  V30 10703 H 985.666 -1.69244 3.31945 0
M  V30 10704 H 985.779 -0.485461 4.76634 0
M  V30 10705 H 984.143 -0.35416 2.52226 0
M  V30 10706 H 984.926 1.15941 3.23129 0
M  V30 10707 N 987.371 -1.57444 0.0701946 0
M  V30 10708 C 988.782 -1.80875 -0.462709 0
M  V30 10709 C 989.133 -0.983975 -1.69742 0
M  V30 10710 O 988.258 -0.206027 -2.15417 0
M  V30 10711 C 988.853 -3.28062 -0.84623 0
M  V30 10712 C 987.412 -3.52345 -1.32401 0
M  V30 10713 C 986.559 -2.7558 -0.308399 0
M  V30 10714 H 989.51 -1.55917 0.295907 0
M  V30 10715 H 989.531 -3.40023 -1.70776 0
M  V30 10716 H 989.043 -3.88064 0.0526033 0
M  V30 10717 H 987.144 -2.97645 -2.24139 0
M  V30 10718 H 987.257 -4.6104 -1.30304 0
M  V30 10719 H 985.621 -2.4229 -0.785337 0
M  V30 10720 H 986.404 -3.38319 0.582679 0
M  V30 10721 N 988.849 0.203349 -1.56283 0
M  V30 10722 C 990.096 0.92501 -1.80138 0
M  V30 10723 C 990.424 1.83598 -0.64204 0
M  V30 10724 O 989.679 1.92119 0.372658 0
M  V30 10725 C 989.978 1.78016 -3.09912 0
M  V30 10726 C 989.644 1.02088 -4.39191 0
M  V30 10727 C 988.306 0.811208 -4.74313 0
M  V30 10728 C 990.658 0.486037 -5.18929 0
M  V30 10729 C 987.986 0.0550856 -5.86674 0
M  V30 10730 C 990.338 -0.256833 -6.32078 0
M  V30 10731 C 989.002 -0.477594 -6.65789 0
M  V30 10732 H 988.272 0.338485 -0.659173 0
M  V30 10733 H 990.919 0.191923 -1.90536 0
M  V30 10734 H 989.224 2.58167 -2.94715 0
M  V30 10735 H 990.921 2.341 -3.25574 0
M  V30 10736 H 987.511 1.1943 -4.11624 0
M  V30 10737 H 991.695 0.635446 -4.92215 0
M  V30 10738 H 986.951 -0.126006 -6.1127 0
M  V30 10739 H 991.125 -0.678683 -6.93085 0
M  V30 10740 H 988.752 -1.0654 -7.52697 0
M  V30 10741 N 990.327 1.50405 0.470755 0
M  V30 10742 C 991.274 1.69293 1.56871 0
M  V30 10743 C 992.244 0.534248 1.57274 0
M  V30 10744 O 993.429 0.764855 1.74799 0
M  V30 10745 C 990.569 1.79338 2.94842 0
M  V30 10746 C 989.682 3.06709 3.04226 0
M  V30 10747 C 988.817 3.07548 4.33114 0
M  V30 10748 C 987.856 4.29372 4.36241 0
M  V30 10749 N 986.993 4.27949 5.56601 0
M  V30 10750 H 991.833 2.63029 1.40071 0
M  V30 10751 H 989.37 1.30386 0.681016 0
M  V30 10752 H 991.328 1.83143 3.74853 0
M  V30 10753 H 989.958 0.890411 3.10277 0
M  V30 10754 H 989.01 3.12374 2.17086 0
M  V30 10755 H 990.322 3.96684 3.02396 0
M  V30 10756 H 989.476 3.10084 5.21472 0
M  V30 10757 H 988.215 2.15404 4.37553 0
M  V30 10758 H 987.22 4.27048 3.4628 0
M  V30 10759 H 988.445 5.22743 4.33493 0
M  V30 10760 H 986.391 3.38658 5.61824 0
M  V30 10761 H 986.308 5.11692 5.56513 0
M  V30 10762 H 987.576 4.34631 6.47083 0
M  V30 10763 N 991.805 -0.723954 1.39988 0
M  V30 10764 C 992.735 -1.85103 1.42335 0
M  V30 10765 C 993.716 -1.6769 0.285297 0
M  V30 10766 O 994.901 -1.87846 0.492716 0
M  V30 10767 C 992.031 -3.22972 1.27697 0
M  V30 10768 C 990.985 -3.55041 2.39018 0
M  V30 10769 C 990.311 -4.91965 2.09462 0
M  V30 10770 C 991.611 -3.56889 3.8135 0
M  V30 10771 H 993.305 -1.83396 2.36656 0
M  V30 10772 H 990.851 -0.880926 1.13911 0
M  V30 10773 H 992.804 -4.01503 1.27958 0
M  V30 10774 H 991.528 -3.25233 0.298487 0
M  V30 10775 H 990.187 -2.78845 2.37993 0
M  V30 10776 H 989.835 -4.90819 1.10025 0
M  V30 10777 H 989.535 -5.14389 2.84038 0
M  V30 10778 H 991.059 -5.7284 2.11391 0
M  V30 10779 H 992.473 -4.25476 3.84243 0
M  V30 10780 H 990.87 -3.90836 4.55376 0
M  V30 10781 H 991.94 -2.56452 4.11534 0
M  V30 10782 N 993.283 -1.25346 -0.955304 0
M  V30 10783 C 994.523 -1.11259 -1.71467 0
M  V30 10784 C 994.887 0.340759 -1.88952 0
M  V30 10785 O 996.088 0.60344 -2.61939 0
M  V30 10786 C 994.359 -1.84541 -3.06071 0
M  V30 10787 S 995.918 -1.86337 -3.97271 0
M  V30 10788 H 992.736 -0.397683 -0.58938 0
M  V30 10789 H 995.338 -1.58861 -1.13945 0
M  V30 10790 H 994.042 -2.89377 -2.91014 0
M  V30 10791 H 993.573 -1.37323 -3.68654 0
M  V30 10792 H 995.588 -0.939925 -4.87216 0
M  V30 10793 N 994.761 1.15782 -1.06922 0
M  V30 10794 C 995.691 2.22538 -0.707045 0
M  V30 10795 C 996.672 1.67371 0.303471 0
M  V30 10796 O 997.857 1.9339 0.177189 0
M  V30 10797 C 994.987 3.47158 -0.0994269 0
M  V30 10798 C 993.941 4.15257 -1.03661 0
M  V30 10799 C 993.267 5.33902 -0.291974 0
M  V30 10800 C 994.567 4.65516 -2.36837 0
M  V30 10801 H 996.261 2.53089 -1.59958 0
M  V30 10802 H 993.807 1.21649 -0.770552 0
M  V30 10803 H 995.76 4.21073 0.165852 0
M  V30 10804 H 994.484 3.15926 0.828155 0
M  V30 10805 H 993.143 3.43276 -1.28674 0
M  V30 10806 H 992.791 4.98926 0.638928 0
M  V30 10807 H 992.491 5.80407 -0.916613 0
M  V30 10808 H 994.015 6.1059 -0.0343915 0
M  V30 10809 H 995.429 5.30981 -2.16175 0
M  V30 10810 H 993.826 5.22666 -2.94856 0
M  V30 10811 H 994.896 3.81387 -2.99453 0
M  V30 10812 N 996.239 0.8527 1.3254 0
M  V30 10813 C 997.189 0.267711 2.26423 0
M  V30 10814 C 998.173 -0.585305 1.49877 0
M  V30 10815 O 999.365 -0.435008 1.71571 0
M  V30 10816 C 996.494 -0.544605 3.38953 0
M  V30 10817 C 995.58 0.32069 4.22886 0
M  V30 10818 N 995.971 1.40601 4.85865 0
M  V30 10819 C 994.269 0.110101 4.45864 0
M  V30 10820 C 994.97 1.93819 5.48461 0
M  V30 10821 N 993.946 1.23764 5.29324 0
M  V30 10822 H 997.748 1.09747 2.7264 0
M  V30 10823 H 995.262 0.698607 1.46606 0
M  V30 10824 H 997.259 -0.98009 4.05216 0
M  V30 10825 H 995.919 -1.37218 2.94281 0
M  V30 10826 H 996.93 1.78894 4.86022 0
M  V30 10827 H 993.607 -0.682917 4.11877 0
M  V30 10828 H 994.997 2.84783 6.08562 0
M  V30 10829 N 997.718 -1.45297 0.610449 0
M  V30 10830 C 998.665 -2.30553 -0.106718 0
M  V30 10831 C 999.635 -1.42272 -0.85719 0
M  V30 10832 O 1000.82 -1.71199 -0.842357 0
M  V30 10833 C 997.96 -3.27226 -1.09623 0
M  V30 10834 C 997.073 -4.3061 -0.346329 0
M  V30 10835 C 996.208 -5.14389 -1.32581 0
M  V30 10836 C 995.247 -6.09497 -0.563892 0
M  V30 10837 N 994.384 -6.86047 -1.4928 0
M  V30 10838 H 999.224 -2.91344 0.626296 0
M  V30 10839 H 996.761 -1.43563 0.32065 0
M  V30 10840 H 998.719 -3.81744 -1.68308 0
M  V30 10841 H 997.349 -2.68182 -1.79662 0
M  V30 10842 H 996.401 -3.7873 0.356084 0
M  V30 10843 H 997.713 -4.98183 0.248026 0
M  V30 10844 H 996.867 -5.73321 -1.98464 0
M  V30 10845 H 995.606 -4.4684 -1.9541 0
M  V30 10846 H 994.611 -5.49693 0.108551 0
M  V30 10847 H 995.836 -6.79074 0.0593872 0
M  V30 10848 H 993.782 -6.21185 -2.10868 0
M  V30 10849 H 993.699 -7.49983 -0.951953 0
M  V30 10850 H 994.967 -7.49518 -2.14112 0
M  V30 10851 N 999.196 -0.349774 -1.5367 0
M  V30 10852 C 1000.61 0.00191293 -1.596 0
M  V30 10853 C 1000.81 1.48175 -1.36552 0
M  V30 10854 O 999.868 2.24129 -1.16285 0
M  V30 10855 C 1001.18 -0.439848 -2.97466 0
M  V30 10856 C 1002.73 -0.392721 -3.10526 0
M  V30 10857 C 1003.2 -0.810047 -4.5078 0
M  V30 10858 N 1004.69 -0.764478 -4.56848 0
M  V30 10859 C 1005.43 -1.05927 -5.63531 0
M  V30 10860 N 1004.93 -1.42253 -6.78038 0
M  V30 10861 N 1006.72 -0.983098 -5.53436 0
M  V30 10862 H 998.87 -1.31364 -1.66905 0
M  V30 10863 H 1001.13 -0.535908 -0.781989 0
M  V30 10864 H 1000.84 -1.47189 -3.19419 0
M  V30 10865 H 1000.71 0.181735 -3.76762 0
M  V30 10866 H 1003.1 0.630161 -2.88293 0
M  V30 10867 H 1003.18 -1.04959 -2.33275 0
M  V30 10868 H 1002.82 -1.83097 -4.73749 0
M  V30 10869 H 1002.75 -0.130591 -5.26438 0
M  V30 10870 H 1005.25 -0.496637 -3.74622 0
M  V30 10871 H 1005.56 -1.63215 -7.55368 0
M  V30 10872 H 1003.9 -1.46104 -6.79469 0
M  V30 10873 H 1007.09 -0.698601 -4.62858 0
M  V30 10874 H 1007.27 -1.21618 -6.36485 0
M  V30 10875 N 1000.67 1.57404 -0.0785433 0
M  V30 10876 C 1001.95 1.85163 0.630389 0
M  V30 10877 C 1002.33 0.972295 1.87376 0
M  V30 10878 O 1001.68 0.0403375 2.28464 0
M  V30 10879 C 1001.89 3.35491 0.961604 0
M  V30 10880 C 1003.24 4.0316 1.33219 0
M  V30 10881 O 1004.26 3.40276 1.05313 0
M  V30 10882 O 1003.12 5.14086 1.85412 0
M  V30 10883 H 1000.21 0.765169 0.31376 0
M  V30 10884 H 1002.76 1.69343 -0.109986 0
M  V30 10885 H 1001.53 3.91221 0.0788113 0
M  V30 10886 H 1001.15 3.56598 1.75852 0
M  V30 10887 N 1002.15 -0.195058 1.56388 0
M  V30 10888 C 1003.4 -0.915444 1.80626 0
M  V30 10889 C 1003.73 -1.83255 0.651768 0
M  V30 10890 O 1002.98 -1.92314 -0.362464 0
M  V30 10891 C 1003.28 -1.7637 3.10851 0
M  V30 10892 C 1002.95 -0.997572 4.39726 0
M  V30 10893 C 1001.61 -0.786043 4.74737 0
M  V30 10894 C 1003.96 -0.45851 5.19179 0
M  V30 10895 C 1001.29 -0.023972 5.86695 0
M  V30 10896 C 1003.64 0.29035 6.31933 0
M  V30 10897 C 1002.3 0.512895 6.65527 0
M  V30 10898 H 1001.57 -0.334985 0.660959 0
M  V30 10899 H 1004.22 -0.181815 1.90635 0
M  V30 10900 H 1002.53 -2.566 2.9608 0
M  V30 10901 H 1004.22 -2.3237 3.26811 0
M  V30 10902 H 1000.81 -1.17245 4.12252 0
M  V30 10903 H 1005 -0.609334 4.92545 0
M  V30 10904 H 1000.25 0.158421 6.11195 0
M  V30 10905 H 1004.43 0.715429 6.92715 0
M  V30 10906 H 1002.05 1.10531 7.52122 0
M  V30 10907 N 1003.63 -1.50653 -0.462772 0
M  V30 10908 C 1004.88 -1.61296 -1.21105 0
M  V30 10909 C 1005.19 -0.322757 -1.92919 0
M  V30 10910 O 1006.4 -0.308211 -2.69745 0
M  V30 10911 C 1004.85 -2.84752 -2.201 0
M  V30 10912 C 1004.46 -4.20681 -1.54051 0
M  V30 10913 C 1006.21 -3.04744 -2.95518 0
M  V30 10914 C 1004.11 -5.35314 -2.51381 0
M  V30 10915 H 1003.04 -0.60069 -0.455728 0
M  V30 10916 H 1005.69 -1.77093 -0.480656 0
M  V30 10917 H 1004.08 -2.62532 -2.96467 0
M  V30 10918 H 1005.25 -4.53187 -0.834168 0
M  V30 10919 H 1003.56 -4.06361 -0.908828 0
M  V30 10920 H 1006.16 -3.87559 -3.68378 0
M  V30 10921 H 1006.5 -2.16802 -3.55391 0
M  V30 10922 H 1007.04 -3.27185 -2.26263 0
M  V30 10923 H 1003.78 -6.25437 -1.96235 0
M  V30 10924 H 1003.3 -5.07216 -3.20144 0
M  V30 10925 H 1004.98 -5.66229 -3.1304 0
M  V30 10926 N 1005.11 0.71652 -1.4037 0
M  V30 10927 C 1006.52 1.29562 -1.34427 0
M  V30 10928 C 1006.87 1.96192 -0.0173106 0
M  V30 10929 O 1006 1.97488 0.884719 0
M  V30 10930 C 1006.59 2.35601 -2.4347 0
M  V30 10931 C 1005.15 2.89138 -2.4099 0
M  V30 10932 C 1004.3 1.62915 -2.24397 0
M  V30 10933 H 1007.25 0.512715 -1.5019 0
M  V30 10934 H 1007.27 3.16422 -2.11323 0
M  V30 10935 H 1006.78 1.87077 -3.40035 0
M  V30 10936 H 1004.88 3.41894 -1.4812 0
M  V30 10937 H 1004.99 3.40995 -3.3654 0
M  V30 10938 H 1003.36 1.87947 -1.71896 0
M  V30 10939 H 1004.14 1.16417 -3.22958 0
M  V30 10940 N 1006.59 1.25851 0.948643 0
M  V30 10941 C 1007.83 1.10735 1.69062 0
M  V30 10942 C 1008.16 -0.351257 1.9181 0
M  V30 10943 O 1007.43 -1.24867 1.50947 0
M  V30 10944 H 1006.01 0.406796 0.626519 0
M  V30 10945 H 1008.67 1.58066 1.14022 0
M  V30 10946 H 1007.76 1.62033 2.66743 0
M  V30 10947 N 1008.06 -1.15214 1.07534 0
M  V30 10948 C 1009.01 -2.20013 0.697337 0
M  V30 10949 C 1009.98 -1.6314 -0.312168 0
M  V30 10950 O 1011.17 -1.89768 -0.198196 0
M  V30 10951 C 1008.31 -3.44945 0.103293 0
M  V30 10952 C 1007.42 -4.16009 1.1645 0
M  V30 10953 C 1006.55 -5.28496 0.535261 0
M  V30 10954 C 1005.59 -5.9138 1.57912 0
M  V30 10955 N 1004.73 -6.95335 0.972332 0
M  V30 10956 H 1009.57 -2.51698 1.59538 0
M  V30 10957 H 1007.11 -1.2361 0.797431 0
M  V30 10958 H 1009.07 -4.16397 -0.258766 0
M  V30 10959 H 1007.7 -3.13772 -0.758096 0
M  V30 10960 H 1006.75 -3.43035 1.64411 0
M  V30 10961 H 1008.06 -4.58853 1.9559 0
M  V30 10962 H 1007.21 -6.06579 0.120942 0
M  V30 10963 H 1005.95 -4.8685 -0.287889 0
M  V30 10964 H 1004.96 -5.12008 2.0032 0
M  V30 10965 H 1006.18 -6.35103 2.40459 0
M  V30 10966 H 1004.13 -6.55779 0.170119 0
M  V30 10967 H 1004.05 -7.36616 1.70095 0
M  V30 10968 H 1005.31 -7.77312 0.583577 0
M  V30 10969 N 1009.54 -0.859717 -1.32086 0
M  V30 10970 C 1010.79 -0.475565 -1.97762 0
M  V30 10971 C 1011.14 0.959348 -1.66776 0
M  V30 10972 O 1010.44 1.66484 -0.948343 0
M  V30 10973 C 1010.63 -0.657397 -3.51302 0
M  V30 10974 C 1010.46 -2.10843 -3.97209 0
M  V30 10975 C 1009.23 -2.74796 -4.24046 0
M  V30 10976 C 1011.43 -3.07959 -4.11905 0
M  V30 10977 N 1009.41 -4.10758 -4.56236 0
M  V30 10978 C 1010.78 -4.28922 -4.4769 0
M  V30 10979 C 1012.84 -3.04086 -3.94254 0
M  V30 10980 C 1011.54 -5.46518 -4.67665 0
M  V30 10981 C 1013.56 -4.20931 -4.15416 0
M  V30 10982 C 1012.93 -5.40654 -4.51522 0
M  V30 10983 H 1009.03 -0.222859 -0.749572 0
M  V30 10984 H 1011.61 -1.11217 -1.59809 0
M  V30 10985 H 1009.78 -0.0504597 -3.88367 0
M  V30 10986 H 1011.51 -0.242642 -4.03972 0
M  V30 10987 H 1008.27 -2.25805 -4.16304 0
M  V30 10988 H 1008.69 -4.80905 -4.76507 0
M  V30 10989 H 1013.33 -2.12641 -3.65436 0
M  V30 10990 H 1011.05 -6.3849 -4.95335 0
M  V30 10991 H 1014.64 -4.19376 -4.03255 0
M  V30 10992 H 1013.52 -6.29563 -4.67568 0
M  V30 10993 N 1011.02 1.44971 -0.618145 0
M  V30 10994 C 1012.27 2.01372 -0.115004 0
M  V30 10995 C 1012.58 1.49104 1.26599 0
M  V30 10996 O 1013.79 1.97549 1.86244 0
M  V30 10997 C 1012.24 3.59567 -0.154883 0
M  V30 10998 C 1011.85 4.20832 -1.53639 0
M  V30 10999 C 1013.6 4.23491 0.292468 0
M  V30 11000 C 1011.5 5.7121 -1.53208 0
M  V30 11001 H 1010.43 0.752979 -0.0392267 0
M  V30 11002 H 1013.08 1.66329 -0.775032 0
M  V30 11003 H 1011.47 3.91847 0.572001 0
M  V30 11004 H 1012.64 4.00109 -2.28582 0
M  V30 11005 H 1010.96 3.69143 -1.92672 0
M  V30 11006 H 1013.55 5.33771 0.315032 0
M  V30 11007 H 1013.9 3.9491 1.31725 0
M  V30 11008 H 1014.43 3.95967 -0.381493 0
M  V30 11009 H 1011.17 6.04506 -2.53481 0
M  V30 11010 H 1010.69 5.94094 -0.825387 0
M  V30 11011 H 1012.37 6.34606 -1.26032 0
M  V30 11012 N 1012.5 0.357919 1.53482 0
M  V30 11013 C 1013.75 -0.235241 2.00324 0
M  V30 11014 C 1014.06 -1.50494 1.24944 0
M  V30 11015 O 1015.27 -2.17623 1.62335 0
M  V30 11016 C 1013.72 -0.469748 3.56821 0
M  V30 11017 C 1013.33 0.784877 4.41071 0
M  V30 11018 C 1015.07 -1.02098 4.12039 0
M  V30 11019 C 1012.98 0.520377 5.89106 0
M  V30 11020 H 1011.91 -0.0916816 0.748405 0
M  V30 11021 H 1014.56 0.475474 1.77233 0
M  V30 11022 H 1012.94 -1.24153 3.76035 0
M  V30 11023 H 1014.12 1.55886 4.33631 0
M  V30 11024 H 1012.43 1.25878 3.96918 0
M  V30 11025 H 1015.03 -1.23406 5.20264 0
M  V30 11026 H 1015.37 -1.98084 3.66154 0
M  V30 11027 H 1015.91 -0.309554 3.96594 0
M  V30 11028 H 1012.65 1.45035 6.39254 0
M  V30 11029 H 1012.17 -0.215254 5.99414 0
M  V30 11030 H 1013.84 0.143006 6.46842 0
M  V30 11031 N 1013.98 -1.5736 0.0868897 0
M  V30 11032 C 1015.25 -1.85495 -0.620561 0
M  V30 11033 C 1015.63 -0.982218 -1.86857 0
M  V30 11034 O 1014.98 -0.0524529 -2.2844 0
M  V30 11035 C 1015.19 -3.35996 -0.943798 0
M  V30 11036 C 1016.54 -4.03861 -1.31079 0
M  V30 11037 O 1017.56 -3.4083 -1.03507 0
M  V30 11038 O 1016.42 -5.15062 -1.82683 0
M  V30 11039 H 1013.52 -0.766822 -0.309697 0
M  V30 11040 H 1016.06 -1.69282 0.118966 0
M  V30 11041 H 1014.83 -3.91257 -0.0580628 0
M  V30 11042 H 1014.46 -3.57525 -1.73958 0
M  V30 11043 N 1015.45 0.186762 -1.56489 0
M  V30 11044 C 1016.4 1.25084 -1.96104 0
M  V30 11045 C 1017.4 1.4667 -0.847609 0
M  V30 11046 O 1018.6 1.47432 -1.03266 0
M  V30 11047 H 1014.98 0.420121 -0.623701 0
M  V30 11048 H 1016.95 0.889761 -2.84826 0
M  V30 11049 C 1015.7 2.5863 -2.32392 0
M  V30 11050 H 1015.02 2.42838 -3.176 0
M  V30 11051 H 1016.46 3.3181 -2.63967 0
M  V30 11052 C 1014.92 3.16241 -1.16159 0
M  V30 11053 O 1015.45 3.99272 -0.441034 0
M  V30 11054 N 1013.66 2.75106 -0.936206 0
M  V30 11055 H 1013.2 2.0769 -1.5239 0
M  V30 11056 H 1013.16 3.13991 -0.160317 0
M  V30 11057 N 1016.93 1.50896 0.454776 0
M  V30 11058 C 1018.18 1.61936 1.20248 0
M  V30 11059 C 1018.49 0.332983 1.92745 0
M  V30 11060 O 1019.7 0.322512 2.69578 0
M  V30 11061 C 1018.16 2.85916 2.18587 0
M  V30 11062 C 1017.76 4.21492 1.51818 0
M  V30 11063 C 1019.51 3.06307 2.93898 0
M  V30 11064 C 1017.42 5.3664 2.48539 0
M  V30 11065 H 1016.35 0.603098 0.452536 0
M  V30 11066 H 1019 1.77345 0.471257 0
M  V30 11067 H 1017.38 2.64101 2.95071 0
M  V30 11068 H 1018.55 4.53623 0.810123 0
M  V30 11069 H 1016.87 4.06837 0.887265 0
M  V30 11070 H 1019.46 3.89507 3.66317 0
M  V30 11071 H 1019.81 2.18683 3.54236 0
M  V30 11072 H 1020.34 3.2838 2.24525 0
M  V30 11073 H 1017.08 6.26469 1.92916 0
M  V30 11074 H 1016.6 5.08907 3.17449 0
M  V30 11075 H 1018.28 5.67881 3.10033 0
M  V30 11076 N 1018.41 -0.709066 1.40748 0
M  V30 11077 C 1019.66 -1.4646 1.38681 0
M  V30 11078 C 1019.97 -1.95599 -0.0056209 0
M  V30 11079 O 1021.18 -2.71091 -0.148907 0
M  V30 11080 C 1019.63 -2.64771 2.43771 0
M  V30 11081 C 1019.24 -2.22474 3.88856 0
M  V30 11082 C 1020.99 -3.42475 2.50821 0
M  V30 11083 C 1018.89 -3.37663 4.85528 0
M  V30 11084 H 1017.82 -0.550084 0.515678 0
M  V30 11085 H 1020.47 -0.771074 1.66513 0
M  V30 11086 H 1018.86 -3.36325 2.09048 0
M  V30 11087 H 1020.03 -1.58297 4.32757 0
M  V30 11088 H 1018.35 -1.57798 3.85342 0
M  V30 11089 H 1020.94 -4.28201 3.20232 0
M  V30 11090 H 1021.29 -3.86738 1.54076 0
M  V30 11091 H 1021.82 -2.77969 2.84567 0
M  V30 11092 H 1018.56 -2.98426 5.83628 0
M  V30 11093 H 1018.08 -4.00734 4.46287 0
M  V30 11094 H 1019.76 -4.03636 5.05655 0
M  V30 11095 N 1019.89 -1.26353 -0.941956 0
M  V30 11096 C 1021.17 -1.02601 -1.6653 0
M  V30 11097 C 1021.55 0.44381 -2.06382 0
M  V30 11098 O 1020.89 1.42399 -1.78703 0
M  V30 11099 C 1021.1 -1.97401 -2.87809 0
M  V30 11100 C 1022.45 -2.25967 -3.59478 0
M  V30 11101 O 1023.48 -1.95261 -2.97912 0
M  V30 11102 O 1022.34 -2.78244 -4.70364 0
M  V30 11103 H 1019.43 -0.39007 -0.729228 0
M  V30 11104 H 1021.98 -1.37559 -0.993754 0
M  V30 11105 H 1020.75 -2.9659 -2.55245 0
M  V30 11106 H 1020.37 -1.62918 -3.62689 0
M  V30 11107 N 1021.37 1.14642 -1.08144 0
M  V30 11108 C 1022.59 1.90025 -0.830972 0
M  V30 11109 C 1023.02 1.77904 0.610879 0
M  V30 11110 O 1022.38 1.11735 1.42776 0
M  V30 11111 C 1022.42 3.38085 -1.25422 0
M  V30 11112 O 1021.53 4.10412 -0.404486 0
M  V30 11113 H 1020.87 0.591327 -0.302041 0
M  V30 11114 H 1023.4 1.4513 -1.44216 0
M  V30 11115 H 1023.41 3.88894 -1.23391 0
M  V30 11116 H 1022.08 3.46226 -2.30435 0
M  V30 11117 H 1020.66 3.69693 -0.487987 0
M  V30 11118 N 1022.85 0.866709 1.31628 0
M  V30 11119 C 1024.09 0.472185 1.96095 0
M  V30 11120 C 1024.41 -0.979873 1.69286 0
M  V30 11121 O 1025.61 -1.48039 2.27589 0
M  V30 11122 C 1024.07 0.793468 3.51044 0
M  V30 11123 C 1023.68 2.26206 3.86697 0
M  V30 11124 C 1025.42 0.467255 4.21921 0
M  V30 11125 C 1023.33 2.52593 5.34743 0
M  V30 11126 H 1022.26 0.172846 0.733921 0
M  V30 11127 H 1024.91 1.05916 1.49847 0
M  V30 11128 H 1023.29 0.135783 3.95767 0
M  V30 11129 H 1024.47 2.96254 3.52945 0
M  V30 11130 H 1022.78 2.55399 3.28877 0
M  V30 11131 H 1025.38 0.641669 5.30836 0
M  V30 11132 H 1025.72 -0.592065 4.12068 0
M  V30 11133 H 1026.25 1.08134 3.82821 0
M  V30 11134 H 1022.99 3.57196 5.49628 0
M  V30 11135 H 1022.51 1.87136 5.6986 0
M  V30 11136 H 1024.19 2.37156 6.01968 0
M  V30 11137 N 1024.32 -1.44642 0.625825 0
M  V30 11138 C 1025.23 -2.34451 -0.0836134 0
M  V30 11139 C 1026.25 -1.5231 -0.841289 0
M  V30 11140 O 1027.43 -1.85056 -0.794754 0
M  V30 11141 C 1024.49 -3.30211 -1.05648 0
M  V30 11142 C 1023.55 -4.28259 -0.298759 0
M  V30 11143 C 1022.78 -5.19444 -1.22528 0
M  V30 11144 O 1023.01 -5.14444 -2.46382 0
M  V30 11145 O 1021.94 -5.97668 -0.71247 0
M  V30 11146 H 1025.77 -2.96555 0.654912 0
M  V30 11147 H 1023.35 -1.44327 0.386029 0
M  V30 11148 H 1025.23 -3.8917 -1.61632 0
M  V30 11149 H 1023.91 -2.70648 -1.77571 0
M  V30 11150 H 1022.82 -3.72863 0.304001 0
M  V30 11151 H 1024.15 -4.90728 0.380345 0
M  V30 11152 N 1025.8 -0.366053 -1.5329 0
M  V30 11153 C 1026.75 0.480205 -2.25749 0
M  V30 11154 C 1027.72 1.07713 -1.2644 0
M  V30 11155 O 1028.9 1.10953 -1.55222 0
M  V30 11156 C 1026.04 1.61374 -3.05045 0
M  V30 11157 C 1025.16 1.04194 -4.19246 0
M  V30 11158 C 1024.29 2.14462 -4.85983 0
M  V30 11159 C 1023.33 1.5475 -5.92215 0
M  V30 11160 N 1022.47 2.58852 -6.52641 0
M  V30 11161 H 1027.31 -0.144199 -2.97651 0
M  V30 11162 H 1024.84 -0.0829321 -1.46866 0
M  V30 11163 H 1026.8 2.28144 -3.49294 0
M  V30 11164 H 1025.43 2.2088 -2.35397 0
M  V30 11165 H 1024.48 0.264514 -3.79479 0
M  V30 11166 H 1025.8 0.565379 -4.95585 0
M  V30 11167 H 1024.95 2.89051 -5.33418 0
M  V30 11168 H 1023.69 2.6547 -4.09117 0
M  V30 11169 H 1022.69 0.786759 -5.44142 0
M  V30 11170 H 1023.92 1.04566 -6.71001 0
M  V30 11171 H 1021.87 3.09073 -5.78627 0
M  V30 11172 H 1021.78 2.15884 -7.24521 0
M  V30 11173 H 1023.05 3.33142 -7.04724 0
M  V30 11174 N 1027.28 1.57312 -0.0952337 0
M  V30 11175 C 1028.5 1.99119 0.580206 0
M  V30 11176 C 1028.93 0.973955 1.60922 0
M  V30 11177 O 1028.29 -0.0575338 1.81209 0
M  V30 11178 C 1028.34 3.39893 1.20438 0
M  V30 11179 O 1027.44 3.40941 2.32019 0
M  V30 11180 H 1026.78 0.64748 0.147195 0
M  V30 11181 H 1029.31 2.03836 -0.176686 0
M  V30 11182 H 1029.32 3.7759 1.54564 0
M  V30 11183 H 1028 4.13453 0.450514 0
M  V30 11184 H 1026.57 3.1504 1.9951 0
M  V30 11185 N 1028.76 -0.17846 1.56586 0
M  V30 11186 C 1029.71 -1.22552 1.92263 0
M  V30 11187 C 1030.69 -1.40163 0.790131 0
M  V30 11188 O 1031.88 -1.42254 1.05322 0
M  V30 11189 C 1029.01 -2.5666 2.27993 0
M  V30 11190 C 1028.1 -2.42772 3.47739 0
M  V30 11191 N 1028.49 -1.98588 4.65185 0
M  V30 11192 C 1026.79 -2.73619 3.52205 0
M  V30 11193 C 1027.49 -1.96991 5.47329 0
M  V30 11194 N 1026.46 -2.39126 4.8818 0
M  V30 11195 H 1030.27 -0.875493 2.80557 0
M  V30 11196 H 1027.78 -0.386785 1.57727 0
M  V30 11197 H 1029.78 -3.32312 2.51743 0
M  V30 11198 H 1028.44 -2.92472 1.41034 0
M  V30 11199 H 1029.45 -1.69036 4.89538 0
M  V30 11200 H 1026.13 -3.13516 2.75706 0
M  V30 11201 H 1027.52 -1.64589 6.51429 0
M  V30 11202 N 1030.24 -1.51135 -0.446768 0
M  V30 11203 C 1031.18 -1.71767 -1.54158 0
M  V30 11204 C 1032.15 -0.559201 -1.56404 0
M  V30 11205 O 1033.34 -0.792567 -1.7356 0
M  V30 11206 C 1030.48 -1.84006 -2.91952 0
M  V30 11207 C 1029.59 -3.11511 -2.99308 0
M  V30 11208 C 1028.73 -3.144 -4.28166 0
M  V30 11209 C 1027.76 -4.36258 -4.29355 0
M  V30 11210 N 1026.9 -4.3675 -5.49722 0
M  V30 11211 H 1031.74 -2.65224 -1.35869 0
M  V30 11212 H 1029.28 -1.31453 -0.660186 0
M  V30 11213 H 1031.24 -1.89083 -3.71892 0
M  V30 11214 H 1029.87 -0.939661 -3.08821 0
M  V30 11215 H 1028.92 -3.15788 -2.12089 0
M  V30 11216 H 1030.23 -4.01445 -2.96047 0
M  V30 11217 H 1029.38 -3.18341 -5.16473 0
M  V30 11218 H 1028.12 -2.22338 -4.3407 0
M  V30 11219 H 1027.13 -4.32503 -3.39442 0
M  V30 11220 H 1028.35 -5.29574 -4.25122 0
M  V30 11221 H 1026.3 -3.47554 -5.56365 0
M  V30 11222 H 1026.22 -5.20481 -5.48302 0
M  V30 11223 H 1027.48 -4.4487 -6.40086 0
M  V30 11224 N 1031.71 0.701592 -1.41122 0
M  V30 11225 C 1032.94 1.49049 -1.43499 0
M  V30 11226 C 1033.36 1.88761 -0.0385684 0
M  V30 11227 O 1032.71 1.56384 0.940755 0
M  V30 11228 C 1032.76 2.7569 -2.33832 0
M  V30 11229 O 1032.49 2.37653 -3.68039 0
M  V30 11230 C 1033.99 3.69479 -2.44949 0
M  V30 11231 H 1031.21 0.459519 -0.488961 0
M  V30 11232 H 1033.75 0.864318 -1.85337 0
M  V30 11233 H 1031.91 3.34559 -1.95318 0
M  V30 11234 H 1032.32 3.19241 -4.16156 0
M  V30 11235 H 1033.79 4.55139 -3.12334 0
M  V30 11236 H 1034.27 4.13553 -1.47887 0
M  V30 11237 H 1034.88 3.16517 -2.84072 0
M  V30 11238 N 1033.19 1.2685 0.935242 0
M  V30 11239 C 1034.44 1.12912 1.6846 0
M  V30 11240 C 1034.77 -0.325708 1.91449 0
M  V30 11241 O 1034.05 -1.23884 1.49944 0
M  V30 11242 C 1034.33 1.90513 3.05576 0
M  V30 11243 C 1034.18 3.43936 2.89876 0
M  V30 11244 C 1035.5 1.70363 4.05789 0
M  V30 11245 H 1032.62 0.411559 0.611382 0
M  V30 11246 H 1035.26 1.55917 1.08582 0
M  V30 11247 H 1033.41 1.53963 3.5669 0
M  V30 11248 H 1035.08 3.90272 2.45939 0
M  V30 11249 H 1033.33 3.70659 2.25376 0
M  V30 11250 H 1034 3.93467 3.87153 0
M  V30 11251 H 1036.47 2.02217 3.63659 0
M  V30 11252 H 1035.35 2.27066 4.99732 0
M  V30 11253 H 1035.61 0.649674 4.373 0
M  V30 11254 N 1034.67 -1.14067 1.0875 0
M  V30 11255 C 1035.92 -1.85185 0.819317 0
M  V30 11256 C 1036.25 -1.8314 -0.654969 0
M  V30 11257 O 1035.5 -1.25974 -1.49763 0
M  V30 11258 C 1035.8 -3.33273 1.29089 0
M  V30 11259 C 1035.47 -3.55504 2.77359 0
M  V30 11260 C 1034.13 -3.61279 3.17853 0
M  V30 11261 C 1036.48 -3.64041 3.72992 0
M  V30 11262 C 1033.81 -3.73119 4.52768 0
M  V30 11263 C 1036.16 -3.77407 5.07687 0
M  V30 11264 C 1034.82 -3.81433 5.47782 0
M  V30 11265 H 1034.09 -0.67764 0.299809 0
M  V30 11266 H 1036.74 -1.34713 1.36106 0
M  V30 11267 H 1035.05 -3.86049 0.668811 0
M  V30 11268 H 1036.74 -3.86734 1.06009 0
M  V30 11269 H 1033.33 -3.51659 2.45019 0
M  V30 11270 H 1037.52 -3.58866 3.42825 0
M  V30 11271 H 1032.77 -3.74499 4.83281 0
M  V30 11272 H 1036.95 -3.82956 5.81651 0
M  V30 11273 H 1034.57 -3.9036 6.52321 0
M  V30 11274 N 1036.15 -0.873678 -1.31166 0
M  V30 11275 C 1037.39 -0.487178 -1.96861 0
M  V30 11276 C 1037.73 0.95887 -1.68877 0
M  V30 11277 O 1037 1.6758 -0.987279 0
M  V30 11278 C 1037.29 -0.74925 -3.52219 0
M  V30 11279 C 1037.14 -2.2451 -3.89763 0
M  V30 11280 C 1038.46 -0.218194 -4.39559 0
M  V30 11281 H 1035.58 -0.178477 -0.715063 0
M  V30 11282 H 1038.22 -1.0956 -1.55231 0
M  V30 11283 H 1036.37 -0.231403 -3.8781 0
M  V30 11284 H 1038.04 -2.83049 -3.64254 0
M  V30 11285 H 1036.28 -2.71621 -3.38237 0
M  V30 11286 H 1036.95 -2.37911 -4.98099 0
M  V30 11287 H 1039.43 -0.661274 -4.10812 0
M  V30 11288 H 1038.31 -0.430983 -5.47205 0
M  V30 11289 H 1038.57 0.880056 -4.33252 0
M  V30 11290 N 1037.63 1.44308 -0.633487 0
M  V30 11291 C 1038.56 2.33431 0.0568402 0
M  V30 11292 C 1039.54 1.48342 0.832386 0
M  V30 11293 O 1040.72 1.77056 0.797798 0
M  V30 11294 C 1037.85 3.31443 1.03743 0
M  V30 11295 C 1036.81 4.26368 0.373362 0
M  V30 11296 C 1036.13 5.14267 1.46403 0
M  V30 11297 C 1037.43 5.17287 -0.721876 0
M  V30 11298 H 1039.13 2.91402 -0.687388 0
M  V30 11299 H 1036.67 1.4012 -0.332009 0
M  V30 11300 H 1038.63 3.92677 1.52913 0
M  V30 11301 H 1037.35 2.71686 1.81258 0
M  V30 11302 H 1036.01 3.6647 -0.0977053 0
M  V30 11303 H 1035.66 4.50861 2.23011 0
M  V30 11304 H 1035.36 5.7859 1.02506 0
M  V30 11305 H 1036.88 5.78373 1.95748 0
M  V30 11306 H 1038.29 5.72444 -0.313181 0
M  V30 11307 H 1036.69 5.90226 -1.08413 0
M  V30 11308 H 1037.76 4.58159 -1.58804 0
M  V30 11309 N 1039.1 0.374177 1.53094 0
M  V30 11310 C 1040.33 -0.215903 2.06273 0
M  V30 11311 C 1040.75 -1.40979 1.24526 0
M  V30 11312 O 1040.11 -1.79331 0.266462 0
M  V30 11313 C 1040.16 -0.579089 3.5592 0
M  V30 11314 O 1039.26 -1.67516 3.76845 0
M  V30 11315 H 1038.61 -0.0293981 0.663349 0
M  V30 11316 H 1041.14 0.537271 1.9742 0
M  V30 11317 H 1041.15 -0.847678 3.99097 0
M  V30 11318 H 1039.82 0.293843 4.14861 0
M  V30 11319 H 1038.4 -1.40146 3.45563 0
M  V30 11320 N 1040.58 -1.57259 0.103575 0
M  V30 11321 C 1041.49 -2.18018 -0.866327 0
M  V30 11322 C 1042.51 -1.15198 -1.30404 0
M  V30 11323 O 1043.68 -1.47605 -1.37021 0
M  V30 11324 C 1040.75 -2.75533 -2.10434 0
M  V30 11325 C 1039.81 -3.93337 -1.72002 0
M  V30 11326 C 1039.04 -4.481 -2.89901 0
M  V30 11327 O 1039.27 -4.01784 -4.04877 0
M  V30 11328 O 1038.2 -5.39004 -2.67877 0
M  V30 11329 H 1042.03 -3.01322 -0.379338 0
M  V30 11330 H 1039.61 -1.48907 -0.121228 0
M  V30 11331 H 1041.49 -3.12259 -2.8297 0
M  V30 11332 H 1040.17 -1.9527 -2.58169 0
M  V30 11333 H 1039.08 -3.61408 -0.966193 0
M  V30 11334 H 1040.41 -4.74989 -1.29022 0
M  V30 11335 N 1042.06 0.170153 -1.56679 0
M  V30 11336 C 1043.01 1.22997 -1.9742 0
M  V30 11337 C 1044 1.45762 -0.863117 0
M  V30 11338 O 1045.21 1.46328 -1.04824 0
M  V30 11339 H 1041.58 0.413482 -0.628122 0
M  V30 11340 H 1043.55 0.859502 -2.85754 0
M  V30 11341 C 1042.3 2.5615 -2.35122 0
M  V30 11342 H 1041.63 2.39456 -3.20158 0
M  V30 11343 H 1043.07 3.28991 -2.67471 0
M  V30 11344 C 1041.53 3.14992 -1.19507 0
M  V30 11345 O 1042.06 3.98781 -0.483357 0
M  V30 11346 N 1040.26 2.74098 -0.965332 0
M  V30 11347 H 1039.81 2.06062 -1.54585 0
M  V30 11348 H 1039.77 3.13803 -0.193611 0
M  V30 11349 N 1043.54 1.5137 0.438746 0
M  V30 11350 C 1044.79 1.63969 1.1883 0
M  V30 11351 C 1045.11 0.355245 1.91228 0
M  V30 11352 O 1044.37 -0.660605 1.84213 0
M  V30 11353 C 1044.67 2.79221 2.23093 0
M  V30 11354 C 1044.33 4.18547 1.67717 0
M  V30 11355 C 1043 4.5645 1.52337 0
M  V30 11356 C 1045.35 5.05494 1.26986 0
M  V30 11357 C 1042.68 5.79007 0.946996 0
M  V30 11358 C 1045.03 6.28628 0.707785 0
M  V30 11359 C 1043.69 6.65305 0.540881 0
M  V30 11360 H 1042.96 0.600003 0.43483 0
M  V30 11361 H 1045.61 1.85398 0.479565 0
M  V30 11362 H 1043.91 2.52008 2.99999 0
M  V30 11363 H 1045.61 2.86168 2.80907 0
M  V30 11364 H 1042.2 3.88663 1.80663 0
M  V30 11365 H 1046.38 4.76818 1.37689 0
M  V30 11366 H 1041.64 6.06072 0.805432 0
M  V30 11367 H 1045.81 6.95342 0.38366 0
M  V30 11368 H 1043.44 7.60144 0.0921324 0
M  V30 11369 N 1045.02 -0.694098 1.41492 0
M  V30 11370 C 1046.26 -1.4563 1.41137 0
M  V30 11371 C 1046.6 -1.94189 0.0208428 0
M  V30 11372 O 1045.87 -1.69628 -0.951655 0
M  V30 11373 C 1046.15 -2.66714 2.41941 0
M  V30 11374 C 1046.01 -2.23912 3.90107 0
M  V30 11375 C 1047.33 -3.68913 2.39981 0
M  V30 11376 H 1044.44 -0.52821 0.513968 0
M  V30 11377 H 1047.09 -0.790437 1.72778 0
M  V30 11378 H 1045.24 -3.23525 2.1509 0
M  V30 11379 H 1046.91 -1.72417 4.27867 0
M  V30 11380 H 1045.15 -1.5568 4.04903 0
M  V30 11381 H 1045.82 -3.108 4.56188 0
M  V30 11382 H 1048.3 -3.21779 2.63813 0
M  V30 11383 H 1047.17 -4.51242 3.12524 0
M  V30 11384 H 1047.44 -4.18711 1.41892 0
M  V30 11385 N 1046.49 -1.27344 -0.928501 0
M  V30 11386 C 1047.44 -1.10001 -2.029 0
M  V30 11387 C 1048.41 -0.00131084 -1.661 0
M  V30 11388 O 1049.6 -0.163485 -1.90098 0
M  V30 11389 C 1046.74 -0.7524 -3.36798 0
M  V30 11390 C 1045.85 -1.92865 -3.86558 0
M  V30 11391 C 1044.98 -1.52299 -5.08899 0
M  V30 11392 C 1044.02 -2.66677 -5.50953 0
M  V30 11393 N 1043.16 -2.26706 -6.64491 0
M  V30 11394 H 1048 -2.0417 -2.17068 0
M  V30 11395 H 1045.54 -1.01637 -1.0634 0
M  V30 11396 H 1047.5 -0.531687 -4.13798 0
M  V30 11397 H 1046.13 0.15234 -3.2244 0
M  V30 11398 H 1045.18 -2.26192 -3.05845 0
M  V30 11399 H 1046.49 -2.78668 -4.13698 0
M  V30 11400 H 1045.64 -1.26348 -5.93398 0
M  V30 11401 H 1044.38 -0.636042 -4.83535 0
M  V30 11402 H 1043.39 -2.93344 -4.65004 0
M  V30 11403 H 1044.61 -3.55992 -5.78313 0
M  V30 11404 H 1042.56 -1.40462 -6.40786 0
M  V30 11405 H 1042.48 -3.06049 -6.91281 0
M  V30 11406 H 1043.74 -2.04 -7.52333 0
M  V30 11407 N 1047.97 1.13488 -1.09353 0
M  V30 11408 C 1049.2 1.89133 -0.85108 0
M  V30 11409 C 1049.62 1.78542 0.591976 0
M  V30 11410 O 1048.98 1.13243 1.41583 0
M  V30 11411 C 1049.03 3.36736 -1.29001 0
M  V30 11412 O 1048.13 4.09959 -0.447993 0
M  V30 11413 H 1047.47 0.58809 -0.308296 0
M  V30 11414 H 1050 1.43593 -1.45747 0
M  V30 11415 H 1050.01 3.87564 -1.27508 0
M  V30 11416 H 1048.69 3.43762 -2.34095 0
M  V30 11417 H 1047.27 3.69155 -0.52717 0
M  V30 11418 N 1049.45 0.880621 1.30701 0
M  V30 11419 C 1050.36 0.348034 2.32004 0
M  V30 11420 C 1051.38 -0.547508 1.65162 0
M  V30 11421 O 1052.55 -0.441673 1.96497 0
M  V30 11422 C 1049.62 -0.432585 3.43991 0
M  V30 11423 C 1048.68 0.492189 4.26469 0
M  V30 11424 C 1047.91 -0.25127 5.33108 0
M  V30 11425 O 1048.14 -1.47795 5.5092 0
M  V30 11426 O 1047.07 0.396376 6.00593 0
M  V30 11427 H 1050.9 1.18798 2.79501 0
M  V30 11428 H 1048.48 0.64432 1.34792 0
M  V30 11429 H 1050.36 -0.874733 4.12221 0
M  V30 11430 H 1049.04 -1.2489 2.98637 0
M  V30 11431 H 1047.94 0.983058 3.60953 0
M  V30 11432 H 1049.28 1.27439 4.75416 0
M  V30 11433 N 1050.93 -1.4397 0.641131 0
M  V30 11434 C 1052.18 -2.02782 0.158406 0
M  V30 11435 C 1052.53 -1.496 -1.20986 0
M  V30 11436 O 1051.82 -0.674517 -1.79334 0
M  V30 11437 C 1052.02 -3.5727 0.0963368 0
M  V30 11438 C 1051.85 -4.25441 1.45704 0
M  V30 11439 C 1050.62 -4.62008 2.04637 0
M  V30 11440 C 1052.81 -4.55238 2.39297 0
M  V30 11441 N 1050.8 -5.15194 3.33839 0
M  V30 11442 C 1052.17 -5.09613 3.53121 0
M  V30 11443 C 1054.22 -4.37197 2.38251 0
M  V30 11444 C 1052.93 -5.47847 4.66108 0
M  V30 11445 C 1054.95 -4.76485 3.50309 0
M  V30 11446 C 1054.31 -5.30982 4.62858 0
M  V30 11447 H 1050.41 -0.775304 0.102117 0
M  V30 11448 H 1053 -1.75321 0.846805 0
M  V30 11449 H 1051.17 -3.84322 -0.561369 0
M  V30 11450 H 1052.9 -4.02757 -0.39614 0
M  V30 11451 H 1049.65 -4.46653 1.57474 0
M  V30 11452 H 1050.08 -5.46253 3.99921 0
M  V30 11453 H 1054.72 -3.94347 1.5248 0
M  V30 11454 H 1052.44 -5.89646 5.52579 0
M  V30 11455 H 1056.02 -4.6423 3.50687 0
M  V30 11456 H 1054.9 -5.6082 5.48133 0
M  V30 11457 N 1052.41 -0.382291 -1.52893 0
M  V30 11458 C 1053.65 0.201996 -2.03399 0
M  V30 11459 C 1054.01 1.44624 -1.26286 0
M  V30 11460 O 1055.21 2.10723 -1.66881 0
M  V30 11461 C 1053.48 0.470348 -3.54292 0
M  V30 11462 S 1055.04 1.02592 -4.26638 0
M  V30 11463 H 1051.86 0.0575178 -0.70867 0
M  V30 11464 H 1054.46 -0.52902 -1.88206 0
M  V30 11465 H 1053.17 -0.44243 -4.08008 0
M  V30 11466 H 1052.7 1.22998 -3.73678 0
M  V30 11467 H 1054.71 2.30887 -4.3921 0
M  V30 11468 N 1053.89 1.57202 -0.111913 0
M  V30 11469 C 1054.83 2.14936 0.840908 0
M  V30 11470 C 1055.8 1.07242 1.2684 0
M  V30 11471 O 1056.99 1.35114 1.34718 0
M  V30 11472 C 1054.13 2.74743 2.0883 0
M  V30 11473 C 1053.24 3.96723 1.70982 0
M  V30 11474 C 1052.38 4.4464 2.90634 0
M  V30 11475 C 1051.41 5.59169 2.48992 0
M  V30 11476 N 1050.55 6.01862 3.61534 0
M  V30 11477 H 1055.39 2.96034 0.341735 0
M  V30 11478 H 1052.93 1.4626 0.156993 0
M  V30 11479 H 1054.89 3.07546 2.81907 0
M  V30 11480 H 1053.52 1.96346 2.56218 0
M  V30 11481 H 1052.57 3.70127 0.878072 0
M  V30 11482 H 1053.88 4.79795 1.36373 0
M  V30 11483 H 1053.03 4.79315 3.71944 0
M  V30 11484 H 1051.77 3.60503 3.28464 0
M  V30 11485 H 1050.78 5.24106 1.66113 0
M  V30 11486 H 1052 6.45067 2.12287 0
M  V30 11487 H 1049.95 5.20667 3.99051 0
M  V30 11488 H 1049.87 6.79772 3.30827 0
M  V30 11489 H 1051.13 6.41172 4.43305 0
M  V30 11490 N 1055.36 -0.161842 1.56767 0
M  V30 11491 C 1056.59 -0.890953 1.86402 0
M  V30 11492 C 1057 -1.75918 0.696373 0
M  V30 11493 O 1056.34 -1.80461 -0.343463 0
M  V30 11494 C 1056.41 -1.81079 3.10565 0
M  V30 11495 C 1056.07 -1.12121 4.43032 0
M  V30 11496 C 1057.07 -0.482152 5.17659 0
M  V30 11497 C 1054.75 -1.11514 4.89765 0
M  V30 11498 C 1056.75 0.153772 6.37214 0
M  V30 11499 C 1054.43 -0.4754 6.09248 0
M  V30 11500 C 1055.43 0.157944 6.82817 0
M  V30 11501 O 1055.12 0.787579 8.00033 0
M  V30 11502 H 1054.85 -0.26379 0.622407 0
M  V30 11503 H 1057.41 -0.163884 2.04745 0
M  V30 11504 H 1055.64 -2.57842 2.88192 0
M  V30 11505 H 1057.32 -2.41056 3.26568 0
M  V30 11506 H 1058.09 -0.478752 4.82631 0
M  V30 11507 H 1053.97 -1.59752 4.32435 0
M  V30 11508 H 1057.51 0.648716 6.94577 0
M  V30 11509 H 1053.41 -0.476416 6.43739 0
M  V30 11510 H 1054.18 0.687769 8.15605 0
M  V30 11511 N 1056.84 -1.516 -0.430713 0
M  V30 11512 C 1057.75 -1.76247 -1.54836 0
M  V30 11513 C 1058.77 -0.646985 -1.61524 0
M  V30 11514 O 1059.94 -0.929987 -1.78643 0
M  V30 11515 C 1057.01 -1.88833 -2.90763 0
M  V30 11516 C 1056.07 -3.12701 -2.94137 0
M  V30 11517 C 1055.3 -3.24676 -4.23581 0
M  V30 11518 O 1055.53 -2.42429 -5.16318 0
M  V30 11519 O 1054.46 -4.17697 -4.33374 0
M  V30 11520 H 1058.29 -2.71069 -1.3695 0
M  V30 11521 H 1055.87 -1.36182 -0.614396 0
M  V30 11522 H 1057.75 -1.99057 -3.71422 0
M  V30 11523 H 1056.43 -0.971987 -3.08762 0
M  V30 11524 H 1055.33 -3.0795 -2.1241 0
M  V30 11525 H 1056.67 -4.04045 -2.81084 0
M  V30 11526 N 1058.32 0.686584 -1.41858 0
M  V30 11527 C 1059.25 1.81264 -1.47193 0
M  V30 11528 C 1060.23 1.66875 -0.329657 0
M  V30 11529 O 1061.42 1.86473 -0.542347 0
M  V30 11530 C 1058.55 3.19472 -1.36216 0
M  V30 11531 C 1057.5 3.4858 -2.48347 0
M  V30 11532 C 1056.83 4.86239 -2.22432 0
M  V30 11533 C 1058.13 3.46653 -3.90678 0
M  V30 11534 H 1059.82 1.77057 -2.41436 0
M  V30 11535 H 1057.37 0.850415 -1.16206 0
M  V30 11536 H 1059.32 3.97969 -1.38558 0
M  V30 11537 H 1058.04 3.24327 -0.384611 0
M  V30 11538 H 1056.7 2.72437 -2.45303 0
M  V30 11539 H 1056.35 4.8773 -1.22999 0
M  V30 11540 H 1056.05 5.06677 -2.97577 0
M  V30 11541 H 1057.57 5.67034 -2.26505 0
M  V30 11542 H 1058.99 4.15139 -3.95389 0
M  V30 11543 H 1057.38 3.78625 -4.65578 0
M  V30 11544 H 1058.45 2.45451 -4.18189 0
M  V30 11545 N 1059.8 1.27835 0.921735 0
M  V30 11546 C 1061.07 1.05238 1.64877 0
M  V30 11547 C 1061.45 -0.410921 2.07062 0
M  V30 11548 O 1060.8 -1.39538 1.80946 0
M  V30 11549 C 1061.01 2.01955 2.84632 0
M  V30 11550 C 1062.36 2.31657 3.55837 0
M  V30 11551 O 1063.38 1.99975 2.94768 0
M  V30 11552 O 1062.24 2.85692 4.65878 0
M  V30 11553 H 1059.34 0.401622 0.72293 0
M  V30 11554 H 1061.88 1.39123 0.971744 0
M  V30 11555 H 1060.66 3.00614 2.50494 0
M  V30 11556 H 1060.28 1.68667 3.60052 0
M  V30 11557 N 1061.28 -1.12907 1.09954 0
M  V30 11558 C 1062.52 -1.84306 0.838912 0
M  V30 11559 C 1062.85 -1.83825 -0.635508 0
M  V30 11560 O 1062.11 -1.27556 -1.48418 0
M  V30 11561 C 1062.4 -3.31885 1.32616 0
M  V30 11562 C 1062.07 -3.52542 2.81114 0
M  V30 11563 C 1060.73 -3.57888 3.21667 0
M  V30 11564 C 1063.08 -3.60065 3.76833 0
M  V30 11565 C 1060.41 -3.68296 4.567 0
M  V30 11566 C 1062.76 -3.72001 5.11662 0
M  V30 11567 C 1061.43 -3.75602 5.51797 0
M  V30 11568 H 1060.7 -0.674422 0.30698 0
M  V30 11569 H 1063.35 -1.33261 1.37527 0
M  V30 11570 H 1061.65 -3.85318 0.709719 0
M  V30 11571 H 1063.35 -3.85588 1.10105 0
M  V30 11572 H 1059.94 -3.4904 2.48735 0
M  V30 11573 H 1064.12 -3.55209 3.46612 0
M  V30 11574 H 1059.38 -3.69352 4.87226 0
M  V30 11575 H 1063.55 -3.76765 5.8568 0
M  V30 11576 H 1061.18 -3.83419 6.56425 0
M  V30 11577 N 1062.75 -0.88754 -1.30232 0
M  V30 11578 C 1063.98 -0.521562 -2.00735 0
M  V30 11579 C 1064.4 0.883247 -1.66073 0
M  V30 11580 O 1063.76 1.58581 -0.878731 0
M  V30 11581 C 1063.81 -0.706521 -3.53611 0
M  V30 11582 O 1062.91 0.246447 -4.11663 0
M  V30 11583 H 1062.25 -0.205216 -0.631492 0
M  V30 11584 H 1064.78 -1.19579 -1.66018 0
M  V30 11585 H 1064.79 -0.606501 -4.03467 0
M  V30 11586 H 1063.47 -1.73076 -3.78177 0
M  V30 11587 H 1062.05 0.0999062 -3.72766 0
M  V30 11588 N 1064.23 1.43628 -0.648757 0
M  V30 11589 C 1065.18 2.27899 0.0677939 0
M  V30 11590 C 1066.17 1.39653 0.799115 0
M  V30 11591 O 1067.36 1.6332 0.682317 0
M  V30 11592 C 1064.49 3.27276 1.0366 0
M  V30 11593 C 1063.57 4.23009 0.303982 0
M  V30 11594 N 1063.96 5.01248 -0.677056 0
M  V30 11595 C 1062.26 4.42645 0.546041 0
M  V30 11596 C 1062.96 5.70982 -1.11151 0
M  V30 11597 N 1061.94 5.41762 -0.446669 0
M  V30 11598 H 1065.74 2.85804 -0.685073 0
M  V30 11599 H 1063.26 1.55277 -0.475674 0
M  V30 11600 H 1065.25 3.86423 1.5647 0
M  V30 11601 H 1063.91 2.70932 1.78958 0
M  V30 11602 H 1064.92 5.07028 -1.0556 0
M  V30 11603 H 1061.6 3.97377 1.28053 0
M  V30 11604 H 1062.99 6.43794 -1.923 0
M  V30 11605 N 1065.71 0.390394 1.52688 0
M  V30 11606 C 1066.96 -0.191445 2.01593 0
M  V30 11607 C 1067.29 -1.46723 1.27681 0
M  V30 11608 O 1066.54 -1.92248 0.365972 0
M  V30 11609 C 1066.84 -0.50468 3.53819 0
M  V30 11610 C 1066.51 0.679691 4.45748 0
M  V30 11611 C 1065.17 1.0046 4.70597 0
M  V30 11612 C 1067.52 1.47198 4.99982 0
M  V30 11613 C 1064.85 2.12334 5.46929 0
M  V30 11614 C 1067.2 2.58133 5.77538 0
M  V30 11615 C 1065.86 2.91131 6.00665 0
M  V30 11616 H 1065.13 -0.0700548 0.737681 0
M  V30 11617 H 1067.78 0.527965 1.84078 0
M  V30 11618 H 1066.09 -1.30543 3.69413 0
M  V30 11619 H 1067.78 -0.967524 3.89153 0
M  V30 11620 H 1064.37 0.416446 4.26572 0
M  V30 11621 H 1068.56 1.2342 4.80709 0
M  V30 11622 H 1063.81 2.38269 5.63061 0
M  V30 11623 H 1067.99 3.19925 6.18564 0
M  V30 11624 H 1065.61 3.77938 6.59596 0
M  V30 11625 N 1067.19 -1.57141 0.120249 0
M  V30 11626 C 1068.6 -1.5784 -0.236335 0
M  V30 11627 C 1068.8 -1.13304 -1.66626 0
M  V30 11628 O 1067.86 -0.821004 -2.3878 0
M  V30 11629 C 1069.17 -3.007 -0.00188211 0
M  V30 11630 C 1070.72 -3.12927 -0.0676838 0
M  V30 11631 C 1071.2 -4.57789 0.139092 0
M  V30 11632 N 1072.69 -4.63122 0.085104 0
M  V30 11633 C 1073.42 -5.72978 0.219983 0
M  V30 11634 N 1072.92 -6.91579 0.411102 0
M  V30 11635 N 1074.71 -5.61874 0.159469 0
M  V30 11636 H 1066.86 -1.84391 1.05422 0
M  V30 11637 H 1069.13 -0.852228 0.415225 0
M  V30 11638 H 1068.83 -3.37575 0.986718 0
M  V30 11639 H 1068.71 -3.70005 -0.733203 0
M  V30 11640 H 1071.09 -2.75909 -1.04681 0
M  V30 11641 H 1071.17 -2.46162 0.695538 0
M  V30 11642 H 1070.82 -4.95506 1.1152 0
M  V30 11643 H 1070.75 -5.22646 -0.644131 0
M  V30 11644 H 1073.24 -3.77854 -0.0590479 0
M  V30 11645 H 1073.55 -7.71149 0.504851 0
M  V30 11646 H 1071.9 -6.9356 0.447091 0
M  V30 11647 H 1075.09 -4.68099 0.0111131 0
M  V30 11648 H 1075.26 -6.47445 0.268028 0
M  V30 11649 N 1068.67 0.153526 -1.5685 0
M  V30 11650 C 1069.6 1.19162 -2.00805 0
M  V30 11651 C 1070.58 1.45172 -0.886518 0
M  V30 11652 O 1071.76 1.56203 -1.15387 0
M  V30 11653 C 1068.89 2.52637 -2.38311 0
M  V30 11654 C 1067.85 2.41161 -3.53589 0
M  V30 11655 C 1067.17 3.79287 -3.76889 0
M  V30 11656 C 1068.47 1.90122 -4.86468 0
M  V30 11657 H 1070.17 0.82617 -2.87776 0
M  V30 11658 H 1067.71 0.395972 -1.38449 0
M  V30 11659 H 1069.67 3.25478 -2.6766 0
M  V30 11660 H 1068.39 2.91005 -1.4827 0
M  V30 11661 H 1067.05 1.70772 -3.24395 0
M  V30 11662 H 1066.7 4.15079 -2.84109 0
M  V30 11663 H 1066.4 3.72472 -4.54465 0
M  V30 11664 H 1067.92 4.53687 -4.08657 0
M  V30 11665 H 1069.33 2.52752 -5.14577 0
M  V30 11666 H 1067.73 1.94214 -5.67804 0
M  V30 11667 H 1068.8 0.856517 -4.77275 0
M  V30 11668 N 1070.14 1.51827 0.422667 0
M  V30 11669 C 1071.39 1.6522 1.17084 0
M  V30 11670 C 1071.72 0.375508 1.90841 0
M  V30 11671 O 1070.97 -0.641029 1.84903 0
M  V30 11672 C 1071.27 2.81572 2.20119 0
M  V30 11673 C 1070.94 4.20303 1.63268 0
M  V30 11674 C 1069.6 4.5804 1.47488 0
M  V30 11675 C 1071.95 5.06812 1.21618 0
M  V30 11676 C 1069.28 5.79979 0.885531 0
M  V30 11677 C 1071.63 6.29343 0.641071 0
M  V30 11678 C 1070.3 6.65841 0.470286 0
M  V30 11679 H 1069.57 0.604581 0.428442 0
M  V30 11680 H 1072.21 1.85896 0.459874 0
M  V30 11681 H 1070.52 2.55175 2.97309 0
M  V30 11682 H 1072.22 2.89132 2.77856 0
M  V30 11683 H 1068.81 3.90557 1.76531 0
M  V30 11684 H 1072.99 4.78251 1.32624 0
M  V30 11685 H 1068.25 6.06892 0.741105 0
M  V30 11686 H 1072.42 6.9571 0.309888 0
M  V30 11687 H 1070.05 7.60199 0.0115038 0
M  V30 11688 N 1071.62 -0.679052 1.4222 0
M  V30 11689 C 1072.9 -1.43473 1.32947 0
M  V30 11690 C 1073.28 -2.11071 -0.0351689 0
M  V30 11691 O 1072.63 -2.02925 -1.05042 0
M  V30 11692 C 1072.84 -2.44065 2.49466 0
M  V30 11693 C 1074.19 -3.08834 2.91387 0
M  V30 11694 O 1075.21 -2.54392 2.49325 0
M  V30 11695 O 1074.07 -4.07478 3.64175 0
M  V30 11696 H 1071.16 -0.639743 0.524078 0
M  V30 11697 H 1073.71 -0.708134 1.54219 0
M  V30 11698 H 1072.48 -1.92884 3.40457 0
M  V30 11699 H 1072.1 -3.24212 2.30158 0
M  V30 11700 N 1073.1 -1.28322 -0.914942 0
M  V30 11701 C 1074.01 -1.13993 -2.05043 0
M  V30 11702 C 1075.03 -0.0667921 -1.73872 0
M  V30 11703 O 1076.2 -0.275845 -1.99502 0
M  V30 11704 C 1073.27 -0.801856 -3.373 0
M  V30 11705 C 1072.33 -1.95723 -3.82088 0
M  V30 11706 C 1071.56 -1.63519 -5.08033 0
M  V30 11707 O 1071.78 -0.54899 -5.67752 0
M  V30 11708 O 1070.72 -2.47844 -5.48504 0
M  V30 11709 H 1074.54 -2.09313 -2.2005 0
M  V30 11710 H 1072.13 -1.0763 -1.03616 0
M  V30 11711 H 1074.01 -0.627214 -4.16706 0
M  V30 11712 H 1072.69 0.121696 -3.23471 0
M  V30 11713 H 1071.59 -2.18702 -3.03514 0
M  V30 11714 H 1072.93 -2.86144 -4.00478 0
M  V30 11715 N 1074.58 1.12322 -1.10551 0
M  V30 11716 C 1075.53 2.20166 -0.750317 0
M  V30 11717 C 1076.52 1.67484 0.254066 0
M  V30 11718 O 1077.73 1.79637 0.114309 0
M  V30 11719 H 1074.1 0.717642 -0.22471 0
M  V30 11720 H 1076.07 2.47378 -1.66873 0
M  V30 11721 C 1074.82 3.47126 -0.199651 0
M  V30 11722 H 1074.14 3.88011 -0.963735 0
M  V30 11723 H 1075.58 4.23999 0.0108033 0
M  V30 11724 C 1074.04 3.19526 1.06792 0
M  V30 11725 O 1074.57 3.39368 2.14923 0
M  V30 11726 N 1072.78 2.73324 0.987032 0
M  V30 11727 H 1072.33 2.57378 0.106997 0
M  V30 11728 H 1072.28 2.55234 1.83584 0
M  V30 11729 N 1076.06 0.894434 1.2976 0
M  V30 11730 C 1077 0.357958 2.29829 0
M  V30 11731 C 1078 -0.540093 1.6056 0
M  V30 11732 O 1079.2 -0.423478 1.74948 0
M  V30 11733 H 1075.58 0.0971183 0.745702 0
M  V30 11734 H 1077.55 1.21542 2.72526 0
M  V30 11735 C 1076.3 -0.404126 3.45343 0
M  V30 11736 H 1075.62 0.277671 3.98835 0
M  V30 11737 H 1077.06 -0.744446 4.17413 0
M  V30 11738 C 1075.52 -1.6048 2.96222 0
M  V30 11739 O 1076.05 -2.70414 2.97051 0
M  V30 11740 N 1074.26 -1.44517 2.52117 0
M  V30 11741 H 1073.8 -0.55082 2.51642 0
M  V30 11742 H 1073.76 -2.24987 2.1961 0
M  V30 11743 N 1077.53 -1.43282 0.656365 0
M  V30 11744 C 1078.81 -1.9534 0.100816 0
M  V30 11745 C 1079.19 -1.59755 -1.37992 0
M  V30 11746 O 1078.54 -0.884264 -2.10697 0
M  V30 11747 C 1078.75 -3.47237 0.35038 0
M  V30 11748 C 1080.1 -4.23822 0.257001 0
M  V30 11749 O 1081.12 -3.55073 0.283111 0
M  V30 11750 O 1079.98 -5.46192 0.183397 0
M  V30 11751 H 1077.07 -0.826963 -0.00780287 0
M  V30 11752 H 1079.62 -1.53205 0.72982 0
M  V30 11753 H 1078.39 -3.66276 1.37685 0
M  V30 11754 H 1078.02 -3.96378 -0.311539 0
M  V30 11755 N 1079.01 -0.398486 -1.52479 0
M  V30 11756 C 1079.98 0.420206 -2.25315 0
M  V30 11757 C 1080.98 0.982559 -1.27289 0
M  V30 11758 O 1082.17 0.863113 -1.51314 0
M  V30 11759 C 1079.3 1.59045 -3.01525 0
M  V30 11760 H 1080.49 -0.217599 -2.9911 0
M  V30 11761 H 1078.04 -0.150784 -1.55571 0
M  V30 11762 H 1078.78 2.26542 -2.32054 0
M  V30 11763 H 1078.56 1.19382 -3.73484 0
M  V30 11764 H 1080.05 2.16984 -3.56802 0
M  V30 11765 N 1080.49 1.57075 -0.12858 0
M  V30 11766 C 1081.45 2.14643 0.803813 0
M  V30 11767 C 1082.45 1.08363 1.18803 0
M  V30 11768 O 1083.64 1.34093 1.11197 0
M  V30 11769 C 1080.78 2.6945 2.08829 0
M  V30 11770 H 1081.97 2.98362 0.303347 0
M  V30 11771 H 1079.52 1.55833 0.120735 0
M  V30 11772 H 1080.26 1.89345 2.63285 0
M  V30 11773 H 1080.04 3.47187 1.82218 0
M  V30 11774 H 1081.53 3.13865 2.7546 0
M  V30 11775 N 1081.97 -0.145205 1.5693 0
M  V30 11776 C 1083.22 -0.855955 1.82637 0
M  V30 11777 C 1083.53 -1.82255 0.710109 0
M  V30 11778 O 1084.74 -2.57758 0.852837 0
M  V30 11779 C 1083.19 -1.57278 3.23715 0
M  V30 11780 C 1082.8 -0.648507 4.43281 0
M  V30 11781 C 1084.55 -2.27021 3.58695 0
M  V30 11782 C 1082.45 -1.36706 5.75383 0
M  V30 11783 H 1081.38 -0.323385 0.68113 0
M  V30 11784 H 1084.03 -0.10869 1.83178 0
M  V30 11785 H 1082.42 -2.36574 3.17567 0
M  V30 11786 H 1083.59 0.109355 4.6067 0
M  V30 11787 H 1081.9 -0.0594029 4.16358 0
M  V30 11788 H 1084.5 -2.81423 4.54648 0
M  V30 11789 H 1084.84 -3.03598 2.8484 0
M  V30 11790 H 1085.38 -1.54642 3.66512 0
M  V30 11791 H 1082.12 -0.6431 6.52338 0
M  V30 11792 H 1081.64 -2.09759 5.61926 0
M  V30 11793 H 1083.32 -1.90748 6.18243 0
M  V30 11794 N 1083.45 -1.52049 -0.414609 0
M  V30 11795 C 1084.38 -1.77956 -1.51175 0
M  V30 11796 C 1085.36 -0.630282 -1.57992 0
M  V30 11797 O 1086.54 -0.875324 -1.73354 0
M  V30 11798 C 1083.67 -1.92527 -2.89051 0
M  V30 11799 C 1082.63 -3.08096 -2.97087 0
M  V30 11800 C 1081.95 -3.07882 -4.37164 0
M  V30 11801 C 1083.25 -4.47656 -2.69075 0
M  V30 11802 H 1084.95 -2.69827 -1.29746 0
M  V30 11803 H 1082.49 -1.29839 -0.62273 0
M  V30 11804 H 1084.45 -2.09234 -3.65786 0
M  V30 11805 H 1083.17 -0.973235 -3.11762 0
M  V30 11806 H 1081.83 -2.91131 -2.22797 0
M  V30 11807 H 1081.48 -2.10411 -4.56877 0
M  V30 11808 H 1081.18 -3.85501 -4.43467 0
M  V30 11809 H 1082.7 -3.26712 -5.15841 0
M  V30 11810 H 1084.12 -4.64855 -3.35534 0
M  V30 11811 H 1082.51 -5.27151 -2.8676 0
M  V30 11812 H 1083.58 -4.56129 -1.64544 0
M  V30 11813 N 1084.93 0.6715 -1.42579 0
M  V30 11814 C 1086.17 1.42731 -1.42516 0
M  V30 11815 C 1086.49 1.95545 -0.0462407 0
M  V30 11816 O 1087.69 2.71391 0.0769798 0
M  V30 11817 C 1086.15 2.58215 -2.50705 0
M  V30 11818 C 1085.76 2.12086 -3.94618 0
M  V30 11819 C 1087.5 3.35705 -2.59813 0
M  V30 11820 C 1085.41 3.24672 -4.9431 0
M  V30 11821 H 1084.34 0.536218 -0.530081 0
M  V30 11822 H 1086.99 0.726655 -1.68499 0
M  V30 11823 H 1085.37 3.30665 -2.17892 0
M  V30 11824 H 1086.55 1.46768 -4.36802 0
M  V30 11825 H 1084.86 1.47526 -3.89391 0
M  V30 11826 H 1087.46 4.1956 -3.31472 0
M  V30 11827 H 1087.8 3.82517 -1.64276 0
M  V30 11828 H 1088.33 2.70326 -2.91836 0
M  V30 11829 H 1085.07 2.82848 -5.91335 0
M  V30 11830 H 1084.59 3.88761 -4.56755 0
M  V30 11831 H 1086.27 3.90088 -5.16179 0
M  V30 11832 N 1086.4 1.28806 0.908124 0
M  V30 11833 C 1087.33 1.15758 2.02787 0
M  V30 11834 C 1088.31 0.053911 1.70015 0
M  V30 11835 O 1089.5 0.231901 1.9281 0
M  V30 11836 C 1086.63 0.824526 3.37371 0
M  V30 11837 C 1085.58 1.88359 3.84324 0
M  V30 11838 C 1084.91 1.40404 5.15937 0
M  V30 11839 C 1086.21 3.29108 4.05568 0
M  V30 11840 H 1087.9 2.09431 2.13961 0
M  V30 11841 H 1085.45 1.00831 1.02806 0
M  V30 11842 H 1087.4 0.71999 4.15204 0
M  V30 11843 H 1086.13 -0.147902 3.26265 0
M  V30 11844 H 1084.79 1.97736 3.087 0
M  V30 11845 H 1084.43 0.420515 5.01239 0
M  V30 11846 H 1084.13 2.11224 5.48323 0
M  V30 11847 H 1085.66 1.31283 5.9632 0
M  V30 11848 H 1087.07 3.2262 4.73909 0
M  V30 11849 H 1085.47 3.97812 4.49294 0
M  V30 11850 H 1086.54 3.72709 3.10187 0
M  V30 11851 N 1087.88 -1.11734 1.11145 0
M  V30 11852 C 1088.81 -2.1976 0.789152 0
M  V30 11853 C 1089.79 -1.68382 -0.241143 0
M  V30 11854 O 1090.98 -1.93914 -0.105292 0
M  V30 11855 C 1088.11 -3.46549 0.228204 0
M  V30 11856 C 1087.06 -4.11123 1.19002 0
M  V30 11857 C 1086.39 -5.32451 0.489928 0
M  V30 11858 C 1087.69 -4.56406 2.53951 0
M  V30 11859 H 1089.38 -2.46978 1.69241 0
M  V30 11860 H 1086.93 -1.18705 0.81517 0
M  V30 11861 H 1088.88 -4.21399 -0.00945908 0
M  V30 11862 H 1087.6 -3.18782 -0.71033 0
M  V30 11863 H 1086.26 -3.38264 1.41326 0
M  V30 11864 H 1085.91 -5.00953 -0.453315 0
M  V30 11865 H 1085.61 -5.76605 1.1314 0
M  V30 11866 H 1087.14 -6.10042 0.260984 0
M  V30 11867 H 1088.55 -5.22592 2.35733 0
M  V30 11868 H 1086.95 -5.11363 3.14051 0
M  V30 11869 H 1088.02 -3.7001 3.13402 0
M  V30 11870 N 1089.36 -0.901303 -1.29284 0
M  V30 11871 C 1090.27 -0.3849 -2.31421 0
M  V30 11872 C 1091.29 0.521163 -1.66012 0
M  V30 11873 O 1092.46 0.410356 -1.97175 0
M  V30 11874 C 1089.53 0.377804 -3.44635 0
M  V30 11875 C 1088.59 -0.559974 -4.25632 0
M  V30 11876 C 1087.82 0.166425 -5.3344 0
M  V30 11877 O 1088.04 1.39012 -5.53202 0
M  V30 11878 O 1086.98 -0.491875 -5.99887 0
M  V30 11879 H 1090.8 -1.2323 -2.77575 0
M  V30 11880 H 1088.39 -0.665683 -1.3375 0
M  V30 11881 H 1090.27 0.809041 -4.13561 0
M  V30 11882 H 1088.95 1.20124 -3.00586 0
M  V30 11883 H 1087.85 -1.04036 -3.59343 0
M  V30 11884 H 1089.19 -1.34987 -4.73328 0
M  V30 11885 N 1090.84 1.42931 -0.663954 0
M  V30 11886 C 1092.25 1.84877 -0.260283 0
M  V30 11887 C 1092.6 1.5558 1.19538 0
M  V30 11888 O 1091.72 1.01015 1.91377 0
M  V30 11889 C 1092.32 3.35585 -0.465618 0
M  V30 11890 C 1090.88 3.76221 -0.116169 0
M  V30 11891 C 1090.03 2.66587 -0.763317 0
M  V30 11892 H 1092.98 1.32932 -0.866882 0
M  V30 11893 H 1093 3.79427 0.285608 0
M  V30 11894 H 1092.51 3.56877 -1.52515 0
M  V30 11895 H 1090.61 3.60539 0.940342 0
M  V30 11896 H 1090.72 4.75943 -0.549123 0
M  V30 11897 H 1089.09 2.53948 -0.19559 0
M  V30 11898 H 1089.87 2.90704 -1.82609 0
M  V30 11899 N 1092.32 0.406567 1.52266 0
M  V30 11900 C 1093.56 -0.171391 2.00971 0
M  V30 11901 C 1093.88 -1.46443 1.29668 0
M  V30 11902 O 1095.08 -2.12348 1.69176 0
M  V30 11903 C 1093.54 -0.35599 3.58135 0
M  V30 11904 C 1093.15 0.924803 4.38351 0
M  V30 11905 C 1094.89 -0.889378 4.15079 0
M  V30 11906 C 1092.8 0.707534 5.87152 0
M  V30 11907 H 1091.73 -0.0678253 0.750943 0
M  V30 11908 H 1094.38 0.531619 1.7563 0
M  V30 11909 H 1092.76 -1.12127 3.79794 0
M  V30 11910 H 1093.94 1.69603 4.28452 0
M  V30 11911 H 1092.25 1.38442 3.92712 0
M  V30 11912 H 1094.85 -1.06792 5.23927 0
M  V30 11913 H 1095.19 -1.86334 3.7227 0
M  V30 11914 H 1095.72 -0.183224 3.97378 0
M  V30 11915 H 1092.46 1.65299 6.34316 0
M  V30 11916 H 1091.98 -0.024446 5.99795 0
M  V30 11917 H 1093.66 0.348721 6.4606 0
M  V30 11918 N 1093.79 -1.57004 0.136909 0
M  V30 11919 C 1094.7 -2.19807 -0.819887 0
M  V30 11920 C 1095.72 -1.17939 -1.27932 0
M  V30 11921 O 1096.9 -1.50478 -1.3386 0
M  V30 11922 C 1093.96 -2.79935 -2.04542 0
M  V30 11923 C 1093.02 -3.96897 -1.6362 0
M  V30 11924 C 1092.26 -4.54148 -2.80331 0
M  V30 11925 O 1092.48 -4.10282 -3.96264 0
M  V30 11926 O 1091.41 -5.44565 -2.56384 0
M  V30 11927 H 1095.24 -3.02058 -0.315337 0
M  V30 11928 H 1092.82 -1.49131 -0.0896151 0
M  V30 11929 H 1094.71 -3.18191 -2.76283 0
M  V30 11930 H 1093.38 -2.00703 -2.53969 0
M  V30 11931 H 1092.29 -3.63376 -0.889316 0
M  V30 11932 H 1093.62 -4.77618 -1.18918 0
M  V30 11933 N 1095.27 0.136881 -1.57004 0
M  V30 11934 C 1096.22 1.16869 -1.99023 0
M  V30 11935 C 1097.19 1.42137 -0.859435 0
M  V30 11936 O 1098.37 1.54303 -1.12229 0
M  V30 11937 C 1095.51 2.49466 -2.38455 0
M  V30 11938 C 1094.63 2.31286 -3.64871 0
M  V30 11939 C 1093.76 3.56989 -3.9336 0
M  V30 11940 C 1092.8 3.33889 -5.13015 0
M  V30 11941 N 1091.94 4.51748 -5.37464 0
M  V30 11942 H 1096.78 0.803366 -2.86967 0
M  V30 11943 H 1094.32 0.385216 -1.41967 0
M  V30 11944 H 1096.27 3.26794 -2.59348 0
M  V30 11945 H 1094.9 2.83926 -1.53577 0
M  V30 11946 H 1093.96 1.44962 -3.51696 0
M  V30 11947 H 1095.27 2.10183 -4.52355 0
M  V30 11948 H 1094.42 4.42742 -4.14806 0
M  V30 11949 H 1093.16 3.81106 -3.04318 0
M  V30 11950 H 1092.17 2.46525 -4.91432 0
M  V30 11951 H 1093.39 3.1116 -6.03619 0
M  V30 11952 H 1091.34 4.76019 -4.51377 0
M  V30 11953 H 1091.25 4.33684 -6.19237 0
M  V30 11954 H 1092.52 5.38686 -5.63416 0
M  V30 11955 N 1096.75 1.52266 0.40654 0
M  V30 11956 C 1097.7 1.75794 1.4955 0
M  V30 11957 C 1098.67 0.600472 1.54866 0
M  V30 11958 O 1099.85 0.838305 1.71397 0
M  V30 11959 C 1096.99 1.91682 2.86971 0
M  V30 11960 C 1096.11 3.19337 2.90943 0
M  V30 11961 C 1095.24 3.25641 4.1968 0
M  V30 11962 C 1094.28 4.47488 4.17637 0
M  V30 11963 N 1093.42 4.51171 5.37949 0
M  V30 11964 H 1098.26 2.68733 1.28789 0
M  V30 11965 H 1095.79 1.33157 0.625102 0
M  V30 11966 H 1097.75 1.98877 3.66748 0
M  V30 11967 H 1096.38 1.02121 3.06221 0
M  V30 11968 H 1095.43 3.21301 2.03642 0
M  V30 11969 H 1096.75 4.09153 2.85299 0
M  V30 11970 H 1095.9 3.31922 5.07851 0
M  V30 11971 H 1094.64 2.33769 4.28023 0
M  V30 11972 H 1093.64 4.41351 3.27856 0
M  V30 11973 H 1094.87 5.40659 4.10932 0
M  V30 11974 H 1092.81 3.62182 5.46955 0
M  V30 11975 H 1092.73 5.34835 5.3431 0
M  V30 11976 H 1094 4.61685 6.28066 0
M  V30 11977 N 1098.23 -0.663929 1.42933 0
M  V30 11978 C 1099.19 -1.75899 1.46943 0
M  V30 11979 C 1100.19 -1.5682 0.355535 0
M  V30 11980 O 1101.38 -1.62914 0.616833 0
M  V30 11981 C 1098.51 -3.14657 1.31164 0
M  V30 11982 H 1099.71 -1.73727 2.44456 0
M  V30 11983 H 1097.26 -0.874587 1.2954 0
M  V30 11984 H 1097.99 -3.22447 0.346165 0
M  V30 11985 H 1097.78 -3.29909 2.11902 0
M  V30 11986 H 1099.27 -3.9453 1.36878 0
M  V30 11987 N 1099.71 -1.29285 -0.901281 0
M  V30 11988 C 1100.96 -1.16538 -1.64626 0
M  V30 11989 C 1101.27 0.282623 -1.93547 0
M  V30 11990 O 1102.47 0.531396 -2.66249 0
M  V30 11991 C 1100.93 -2.03809 -2.96631 0
M  V30 11992 C 1100.54 -3.53423 -2.75311 0
M  V30 11993 C 1102.28 -1.99782 -3.7455 0
M  V30 11994 C 1100.19 -4.32804 -4.03032 0
M  V30 11995 H 1099.12 -0.432561 -0.617581 0
M  V30 11996 H 1101.77 -1.53912 -0.999159 0
M  V30 11997 H 1100.15 -1.59302 -3.62545 0
M  V30 11998 H 1101.33 -4.05971 -2.18 0
M  V30 11999 H 1099.64 -3.59106 -2.10789 0
M  V30 12000 H 1102.24 -2.5635 -4.69243 0
M  V30 12001 H 1102.58 -0.97743 -4.04663 0
M  V30 12002 H 1103.11 -2.42324 -3.15474 0
M  V30 12003 H 1099.85 -5.35473 -3.78086 0
M  V30 12004 H 1099.37 -3.85025 -4.59909 0
M  V30 12005 H 1101.05 -4.43383 -4.71191 0
M  V30 12006 N 1101.18 1.11143 -1.11736 0
M  V30 12007 C 1102.6 1.64462 -0.883693 0
M  V30 12008 C 1102.95 1.87324 0.583448 0
M  V30 12009 O 1102.07 1.60975 1.44623 0
M  V30 12010 C 1102.67 2.98765 -1.59764 0
M  V30 12011 C 1101.23 3.4898 -1.41032 0
M  V30 12012 C 1100.37 2.23729 -1.63831 0
M  V30 12013 H 1103.32 0.947415 -1.27317 0
M  V30 12014 H 1103.34 3.65885 -1.04443 0
M  V30 12015 H 1102.86 2.82094 -2.66542 0
M  V30 12016 H 1100.96 3.7081 -0.364781 0
M  V30 12017 H 1101.07 4.27571 -2.16148 0
M  V30 12018 H 1099.43 2.31507 -1.06191 0
M  V30 12019 H 1100.22 2.09597 -2.7189 0
M  V30 12020 N 1102.66 0.908147 1.28804 0
M  V30 12021 C 1103.59 0.34957 2.26519 0
M  V30 12022 C 1104.61 -0.508845 1.54643 0
M  V30 12023 O 1105.8 -0.324633 1.75523 0
M  V30 12024 C 1102.9 -0.519461 3.34895 0
M  V30 12025 C 1102.07 0.315157 4.36263 0
M  V30 12026 C 1101.13 -0.488059 5.23932 0
M  V30 12027 O 1100.15 0.0974133 5.69117 0
M  V30 12028 N 1101.36 -1.79233 5.52137 0
M  V30 12029 H 1104.12 1.18945 2.75086 0
M  V30 12030 H 1101.68 0.77351 1.42227 0
M  V30 12031 H 1103.67 -1.0634 3.90479 0
M  V30 12032 H 1102.24 -1.26004 2.8608 0
M  V30 12033 H 1101.46 1.04049 3.8022 0
M  V30 12034 H 1102.75 0.886438 5.01019 0
M  V30 12035 H 1102.15 -2.2906 5.1725 0
M  V30 12036 H 1100.71 -2.28322 6.10502 0
M  V30 12037 N 1104.14 -1.42577 0.671525 0
M  V30 12038 C 1105.56 -1.5592 0.340769 0
M  V30 12039 C 1105.76 -1.65179 -1.15405 0
M  V30 12040 O 1104.81 -1.61691 -1.93939 0
M  V30 12041 C 1106.13 -2.81087 1.06821 0
M  V30 12042 C 1107.67 -2.94855 1.05022 0
M  V30 12043 C 1108.15 -4.22878 1.75892 0
M  V30 12044 N 1109.64 -4.29783 1.72744 0
M  V30 12045 C 1110.37 -5.2765 2.24439 0
M  V30 12046 N 1109.87 -6.31689 2.84501 0
M  V30 12047 N 1111.66 -5.19426 2.14832 0
M  V30 12048 H 1103.81 -1.34811 1.64133 0
M  V30 12049 H 1106.08 -0.648704 0.691294 0
M  V30 12050 H 1105.78 -2.80371 2.12332 0
M  V30 12051 H 1105.66 -3.71879 0.631356 0
M  V30 12052 H 1108.04 -2.951 0.00345633 0
M  V30 12053 H 1108.13 -2.05303 1.52592 0
M  V30 12054 H 1107.77 -4.23394 2.80535 0
M  V30 12055 H 1107.7 -5.1136 1.25773 0
M  V30 12056 H 1110.19 -3.55225 1.28932 0
M  V30 12057 H 1110.5 -7.02715 3.21575 0
M  V30 12058 H 1108.85 -6.3226 2.88569 0
M  V30 12059 H 1112.04 -4.37067 1.676 0
M  V30 12060 H 1112.21 -5.95535 2.55426 0
M  V30 12061 N 1105.62 -0.414636 -1.52048 0
M  V30 12062 C 1106.87 0.159349 -2.01872 0
M  V30 12063 C 1107.19 1.44674 -1.29999 0
M  V30 12064 O 1106.45 1.91641 -0.396511 0
M  V30 12065 C 1106.75 0.448327 -3.54577 0
M  V30 12066 C 1106.41 -0.75052 -4.4461 0
M  V30 12067 C 1105.08 -1.07935 -4.68939 0
M  V30 12068 C 1107.43 -1.55134 -4.97577 0
M  V30 12069 C 1104.76 -2.21008 -5.43482 0
M  V30 12070 C 1107.11 -2.67288 -5.73358 0
M  V30 12071 C 1105.77 -3.00651 -5.95958 0
M  V30 12072 H 1105.04 0.05831 -0.738702 0
M  V30 12073 H 1107.69 -0.557184 -1.83215 0
M  V30 12074 H 1105.99 1.24649 -3.71443 0
M  V30 12075 H 1107.69 0.90549 -3.90643 0
M  V30 12076 H 1104.28 -0.484257 -4.25856 0
M  V30 12077 H 1108.46 -1.31052 -4.78685 0
M  V30 12078 H 1103.72 -2.47197 -5.59199 0
M  V30 12079 H 1107.89 -3.29725 -6.13396 0
M  V30 12080 H 1105.52 -3.88384 -6.535 0
M  V30 12081 N 1107.1 1.56929 -0.145233 0
M  V30 12082 C 1108.34 1.97959 0.509092 0
M  V30 12083 C 1108.7 1.02813 1.62153 0
M  V30 12084 O 1109.9 1.3288 2.33659 0
M  V30 12085 C 1108.17 3.43012 1.00388 0
M  V30 12086 S 1109.73 4.06064 1.66305 0
M  V30 12087 H 1106.55 0.69167 0.164663 0
M  V30 12088 H 1109.15 1.94064 -0.236529 0
M  V30 12089 H 1107.86 4.0999 0.183454 0
M  V30 12090 H 1107.39 3.50615 1.78417 0
M  V30 12091 H 1109.4 3.98971 2.9502 0
M  V30 12092 N 1108.58 -0.128553 1.57075 0
M  V30 12093 C 1109.52 -1.15812 1.9964 0
M  V30 12094 C 1110.49 -1.41679 0.86696 0
M  V30 12095 O 1111.68 -1.53705 1.13046 0
M  V30 12096 C 1108.82 -2.48198 2.39774 0
M  V30 12097 C 1107.93 -2.29348 3.66092 0
M  V30 12098 C 1107.07 -3.54898 3.95248 0
M  V30 12099 C 1106.1 -3.31164 5.14779 0
M  V30 12100 N 1105.24 -4.48891 5.39853 0
M  V30 12101 H 1110.08 -0.788136 2.87389 0
M  V30 12102 H 1107.62 -0.377682 1.42169 0
M  V30 12103 H 1109.58 -3.25414 2.61077 0
M  V30 12104 H 1108.21 -2.83108 1.5508 0
M  V30 12105 H 1107.26 -1.43095 3.5246 0
M  V30 12106 H 1108.57 -2.07781 4.53463 0
M  V30 12107 H 1107.72 -4.40536 4.17148 0
M  V30 12108 H 1106.46 -3.79487 3.06335 0
M  V30 12109 H 1105.47 -2.43915 4.92733 0
M  V30 12110 H 1106.69 -3.07954 6.05261 0
M  V30 12111 H 1104.64 -4.73619 4.53895 0
M  V30 12112 H 1104.56 -4.30394 6.21528 0
M  V30 12113 H 1105.82 -5.35691 5.66265 0
M  V30 12114 N 1110.05 -1.5248 -0.398459 0
M  V30 12115 C 1110.98 -1.79549 -1.49279 0
M  V30 12116 C 1111.96 -0.647004 -1.57315 0
M  V30 12117 O 1113.15 -0.893661 -1.72416 0
M  V30 12118 C 1110.28 -1.95582 -2.86993 0
M  V30 12119 C 1109.23 -3.1123 -2.93803 0
M  V30 12120 C 1108.56 -3.12501 -4.33874 0
M  V30 12121 C 1109.86 -4.50485 -2.64312 0
M  V30 12122 H 1111.55 -2.71187 -1.26877 0
M  V30 12123 H 1109.1 -1.30492 -0.608924 0
M  V30 12124 H 1111.05 -2.13102 -3.63546 0
M  V30 12125 H 1109.78 -1.00625 -3.10712 0
M  V30 12126 H 1108.44 -2.93477 -2.19697 0
M  V30 12127 H 1108.08 -2.15245 -4.54619 0
M  V30 12128 H 1107.78 -3.90183 -4.39353 0
M  V30 12129 H 1109.31 -3.32164 -5.12347 0
M  V30 12130 H 1110.72 -4.68387 -3.30585 0
M  V30 12131 H 1109.12 -5.30163 -2.81153 0
M  V30 12132 H 1110.19 -4.57848 -1.59696 0
M  V30 12133 N 1111.53 0.65634 -1.43283 0
M  V30 12134 C 1112.95 0.971645 -1.26614 0
M  V30 12135 C 1113.15 2.00662 -0.183612 0
M  V30 12136 O 1112.2 2.48654 0.439003 0
M  V30 12137 C 1113.52 1.45888 -2.6294 0
M  V30 12138 C 1115.06 1.57569 -2.70446 0
M  V30 12139 C 1115.54 2.09684 -4.07181 0
M  V30 12140 N 1117.03 2.16991 -4.0923 0
M  V30 12141 C 1117.77 2.5843 -5.11861 0
M  V30 12142 N 1117.26 2.99188 -6.24867 0
M  V30 12143 N 1119.05 2.58342 -4.99215 0
M  V30 12144 H 1111.21 -0.028573 -2.12381 0
M  V30 12145 H 1113.47 0.0497918 -0.946691 0
M  V30 12146 H 1113.17 0.772823 -3.43104 0
M  V30 12147 H 1113.05 2.43445 -2.88122 0
M  V30 12148 H 1115.44 2.25277 -1.90616 0
M  V30 12149 H 1115.52 0.584529 -2.49032 0
M  V30 12150 H 1115.16 1.42579 -4.87477 0
M  V30 12151 H 1115.09 3.09625 -4.25958 0
M  V30 12152 H 1117.58 1.88278 -3.27658 0
M  V30 12153 H 1117.89 3.29549 -6.99012 0
M  V30 12154 H 1116.24 2.97 -6.28344 0
M  V30 12155 H 1119.43 2.25875 -4.09998 0
M  V30 12156 H 1119.6 2.90316 -5.79328 0
M  V30 12157 N 1113.01 1.29761 0.894412 0
M  V30 12158 C 1113.96 1.15341 1.99912 0
M  V30 12159 C 1114.93 0.0453488 1.66038 0
M  V30 12160 O 1116.11 0.213829 1.89598 0
M  V30 12161 C 1113.25 0.841432 3.34685 0
M  V30 12162 C 1112.36 2.03046 3.81309 0
M  V30 12163 C 1111.5 1.65739 5.04682 0
M  V30 12164 C 1110.54 2.81191 5.43689 0
M  V30 12165 N 1109.68 2.44244 6.58247 0
M  V30 12166 H 1114.52 2.09854 2.11578 0
M  V30 12167 H 1112.05 1.04421 1.03608 0
M  V30 12168 H 1114.01 0.641211 4.12243 0
M  V30 12169 H 1112.64 -0.066797 3.22731 0
M  V30 12170 H 1111.69 2.34222 2.9974 0
M  V30 12171 H 1113 2.89538 4.06164 0
M  V30 12172 H 1112.16 1.42036 5.8984 0
M  V30 12173 H 1110.9 0.764019 4.81678 0
M  V30 12174 H 1109.9 3.0557 4.57064 0
M  V30 12175 H 1111.13 3.712 5.68672 0
M  V30 12176 H 1109.07 1.57402 6.36837 0
M  V30 12177 H 1108.99 3.24269 6.82924 0
M  V30 12178 H 1110.26 2.23875 7.46659 0
M  V30 12179 N 1114.49 -1.10549 1.12324 0
M  V30 12180 C 1115.74 -1.81851 0.872531 0
M  V30 12181 C 1116.05 -1.86058 -0.603468 0
M  V30 12182 O 1117.26 -2.53553 -0.970736 0
M  V30 12183 C 1115.71 -3.26631 1.51131 0
M  V30 12184 C 1115.32 -3.30725 3.02201 0
M  V30 12185 C 1117.06 -4.02768 1.34082 0
M  V30 12186 C 1114.97 -4.69957 3.59018 0
M  V30 12187 H 1113.9 -0.681422 0.322769 0
M  V30 12188 H 1116.55 -1.24332 1.34959 0
M  V30 12189 H 1114.93 -3.8414 0.961913 0
M  V30 12190 H 1116.11 -2.83046 3.63623 0
M  V30 12191 H 1114.42 -2.68072 3.18632 0
M  V30 12192 H 1117.02 -5.05612 1.73955 0
M  V30 12193 H 1117.36 -4.15328 0.284369 0
M  V30 12194 H 1117.9 -3.51671 1.85937 0
M  V30 12195 H 1114.63 -4.62597 4.64418 0
M  V30 12196 H 1114.15 -5.18008 3.02371 0
M  V30 12197 H 1115.83 -5.38925 3.58007 0
M  V30 12198 N 1115.97 -0.914965 -1.28321 0
M  V30 12199 C 1116.9 -0.348729 -2.2552 0
M  V30 12200 C 1117.88 0.547737 -1.53097 0
M  V30 12201 O 1119.06 0.491119 -1.8199 0
M  V30 12202 C 1116.19 0.501397 -3.34968 0
M  V30 12203 C 1115.23 -0.329859 -4.25223 0
M  V30 12204 S 1116.07 -1.73737 -5.06533 0
M  V30 12205 C 1117.22 -0.89458 -6.19474 0
M  V30 12206 H 1117.46 -1.17256 -2.732 0
M  V30 12207 H 1114.99 -0.716297 -1.36779 0
M  V30 12208 H 1116.95 0.986061 -3.98481 0
M  V30 12209 H 1115.61 1.29962 -2.85952 0
M  V30 12210 H 1114.8 0.320236 -5.02982 0
M  V30 12211 H 1114.4 -0.748221 -3.66439 0
M  V30 12212 H 1116.69 -0.124776 -6.77385 0
M  V30 12213 H 1117.64 -1.64475 -6.88733 0
M  V30 12214 H 1118.05 -0.442217 -5.62765 0
M  V30 12215 N 1117.44 1.42219 -0.679077 0
M  V30 12216 C 1118.39 2.32599 0.00820028 0
M  V30 12217 C 1119.39 1.50059 0.786046 0
M  V30 12218 O 1120.59 1.66103 0.693528 0
M  V30 12219 H 1116.97 0.751694 0.0214483 0
M  V30 12220 H 1118.94 2.88257 -0.77138 0
M  V30 12221 C 1117.69 3.3468 0.942581 0
M  V30 12222 H 1117.01 3.98234 0.353463 0
M  V30 12223 H 1118.45 4.00496 1.39208 0
M  V30 12224 C 1116.91 2.67275 2.05099 0
M  V30 12225 O 1117.44 2.50793 3.13793 0
M  V30 12226 N 1115.64 2.26232 1.82394 0
M  V30 12227 H 1115.19 2.39838 0.939983 0
M  V30 12228 H 1115.15 1.81465 2.56744 0
M  V30 12229 N 1118.92 0.422693 1.51826 0
M  V30 12230 C 1120.15 -0.147744 2.06372 0
M  V30 12231 C 1120.56 -1.37714 1.29152 0
M  V30 12232 O 1119.92 -1.7917 0.347046 0
M  V30 12233 C 1119.97 -0.484642 3.58237 0
M  V30 12234 O 1119.69 0.695944 4.32537 0
M  V30 12235 C 1121.19 -1.10734 4.29247 0
M  V30 12236 H 1118.41 -0.0144047 0.670845 0
M  V30 12237 H 1120.96 0.597558 1.95575 0
M  V30 12238 H 1119.11 -1.17984 3.68997 0
M  V30 12239 H 1119.53 0.411471 5.22884 0
M  V30 12240 H 1121 -1.29318 5.36639 0
M  V30 12241 H 1121.48 -2.08429 3.86593 0
M  V30 12242 H 1122.08 -0.451958 4.22892 0
M  V30 12243 N 1120.4 -1.5685 0.153553 0
M  V30 12244 C 1121.35 -2.1709 -0.783626 0
M  V30 12245 C 1122.32 -1.10567 -1.23952 0
M  V30 12246 O 1123.5 -1.38638 -1.31088 0
M  V30 12247 C 1120.64 -2.80183 -2.01473 0
M  V30 12248 C 1119.75 -4.01117 -1.60403 0
M  V30 12249 C 1118.89 -4.5219 -2.78743 0
M  V30 12250 C 1117.93 -5.65574 -2.34079 0
M  V30 12251 N 1117.07 -6.11235 -3.4545 0
M  V30 12252 H 1121.91 -2.96836 -0.263127 0
M  V30 12253 H 1119.44 -1.46625 -0.11816 0
M  V30 12254 H 1121.4 -3.14912 -2.73654 0
M  V30 12255 H 1120.03 -2.03071 -2.50923 0
M  V30 12256 H 1119.08 -3.72325 -0.779631 0
M  V30 12257 H 1120.39 -4.83243 -1.23605 0
M  V30 12258 H 1119.55 -4.89008 -3.59105 0
M  V30 12259 H 1118.29 -3.69085 -3.18791 0
M  V30 12260 H 1117.29 -5.28326 -1.52158 0
M  V30 12261 H 1118.52 -6.50468 -1.95109 0
M  V30 12262 H 1116.46 -5.31064 -3.85106 0
M  V30 12263 H 1116.38 -6.88304 -3.12687 0
M  V30 12264 H 1117.65 -6.527 -4.26149 0
M  V30 12265 N 1121.88 0.120221 -1.57141 0
M  V30 12266 C 1123.11 0.842441 -1.88972 0
M  V30 12267 C 1123.52 1.73494 -0.744671 0
M  V30 12268 O 1122.88 1.80268 0.284557 0
M  V30 12269 C 1122.93 1.67688 -3.20254 0
M  V30 12270 O 1122.65 0.820319 -4.30351 0
M  V30 12271 C 1124.15 2.50436 -3.65782 0
M  V30 12272 H 1121.37 0.242241 -0.625748 0
M  V30 12273 H 1123.91 0.104978 -2.0423 0
M  V30 12274 H 1122.07 2.36712 -3.0667 0
M  V30 12275 H 1122.48 1.39575 -5.05588 0
M  V30 12276 H 1123.96 3.04518 -4.60405 0
M  V30 12277 H 1124.43 3.27737 -2.92378 0
M  V30 12278 H 1125.04 1.86657 -3.82151 0
M  V30 12279 N 1123.36 1.52689 0.390367 0
M  V30 12280 C 1124.59 1.71292 1.1551 0
M  V30 12281 C 1124.99 0.430405 1.84239 0
M  V30 12282 O 1124.34 -0.604823 1.73458 0
M  V30 12283 C 1124.4 2.80597 2.24735 0
M  V30 12284 C 1124.06 4.21757 1.75984 0
M  V30 12285 C 1125.06 5.04961 1.23733 0
M  V30 12286 C 1122.75 4.68071 1.82248 0
M  V30 12287 C 1124.74 6.32561 0.783926 0
M  V30 12288 C 1122.43 5.95656 1.36519 0
M  V30 12289 C 1123.42 6.7773 0.846786 0
M  V30 12290 O 1123.11 8.02923 0.396164 0
M  V30 12291 H 1122.84 0.576906 0.352356 0
M  V30 12292 H 1125.4 2.00117 0.462865 0
M  V30 12293 H 1123.63 2.4719 2.97378 0
M  V30 12294 H 1125.32 2.87616 2.86412 0
M  V30 12295 H 1126.08 4.70363 1.18251 0
M  V30 12296 H 1121.96 4.04278 2.21541 0
M  V30 12297 H 1125.51 6.96572 0.378612 0
M  V30 12298 H 1121.4 6.29758 1.41686 0
M  V30 12299 H 1122.17 8.16861 0.517766 0
M  V30 12300 N 1124.83 -0.648732 1.43629 0
M  V30 12301 C 1125.76 -1.77298 1.51947 0
M  V30 12302 C 1126.75 -1.65942 0.373785 0
M  V30 12303 O 1127.93 -1.8497 0.591596 0
M  V30 12304 C 1125.06 -3.15749 1.44638 0
M  V30 12305 C 1124.01 -3.41872 2.57502 0
M  V30 12306 C 1123.34 -4.8017 2.35246 0
M  V30 12307 C 1124.64 -3.36173 3.99731 0
M  V30 12308 H 1126.33 -1.70594 2.46045 0
M  V30 12309 H 1123.88 -0.819306 1.1842 0
M  V30 12310 H 1125.83 -3.94156 1.4906 0
M  V30 12311 H 1124.56 -3.23194 0.470466 0
M  V30 12312 H 1123.22 -2.65838 2.5244 0
M  V30 12313 H 1122.86 -4.84297 1.35887 0
M  V30 12314 H 1122.56 -4.9861 3.10906 0
M  V30 12315 H 1124.09 -5.6083 2.41459 0
M  V30 12316 H 1125.5 -4.0451 4.06257 0
M  V30 12317 H 1123.9 -3.66148 4.75453 0
M  V30 12318 H 1124.97 -2.34277 4.24549 0
M  V30 12319 N 1126.31 -1.30234 -0.887518 0
M  V30 12320 C 1127.22 -1.18316 -2.02579 0
M  V30 12321 C 1128.24 -0.103658 -1.73691 0
M  V30 12322 O 1129.41 -0.3181 -1.98872 0
M  V30 12323 C 1126.48 -0.873222 -3.35523 0
M  V30 12324 C 1125.54 -2.03783 -3.7785 0
M  V30 12325 C 1124.77 -1.74258 -5.0445 0
M  V30 12326 O 1125 -0.669295 -5.6646 0
M  V30 12327 O 1123.93 -2.59423 -5.43124 0
M  V30 12328 H 1127.76 -2.13933 -2.15561 0
M  V30 12329 H 1125.34 -1.09803 -1.0131 0
M  V30 12330 H 1127.22 -0.715463 -4.15282 0
M  V30 12331 H 1125.9 0.053056 -3.23657 0
M  V30 12332 H 1124.81 -2.2509 -2.98806 0
M  V30 12333 H 1126.14 -2.94574 -3.94318 0
M  V30 12334 N 1127.79 1.09952 -1.12909 0
M  V30 12335 C 1129.04 1.82467 -0.898733 0
M  V30 12336 C 1129.39 1.83788 0.569196 0
M  V30 12337 O 1128.68 1.29117 1.4156 0
M  V30 12338 C 1128.88 3.28252 -1.41369 0
M  V30 12339 C 1128.71 3.41133 -2.93015 0
M  V30 12340 C 1127.48 3.53253 -3.61304 0
M  V30 12341 C 1129.68 3.34118 -3.90986 0
M  V30 12342 N 1127.66 3.54762 -5.01016 0
M  V30 12343 C 1129.03 3.42431 -5.16857 0
M  V30 12344 C 1131.08 3.1775 -3.83327 0
M  V30 12345 C 1129.79 3.36063 -6.35967 0
M  V30 12346 C 1131.81 3.12705 -5.01966 0
M  V30 12347 C 1131.17 3.21605 -6.26697 0
M  V30 12348 H 1127.27 0.682232 -0.382208 0
M  V30 12349 H 1129.86 1.31446 -1.43631 0
M  V30 12350 H 1128.03 3.77755 -0.903097 0
M  V30 12351 H 1129.76 3.88752 -1.12489 0
M  V30 12352 H 1126.52 3.56472 -3.11809 0
M  V30 12353 H 1126.94 3.59115 -5.73904 0
M  V30 12354 H 1131.58 3.09742 -2.87784 0
M  V30 12355 H 1129.3 3.42835 -7.31772 0
M  V30 12356 H 1132.89 3.01183 -4.97775 0
M  V30 12357 H 1131.77 3.1771 -7.16959 0
M  V30 12358 N 1129.27 0.921757 1.27833 0
M  V30 12359 C 1130.68 0.604496 1.76643 0
M  V30 12360 C 1131.03 -0.880294 1.75343 0
M  V30 12361 O 1130.16 -1.68875 1.35315 0
M  V30 12362 C 1130.75 1.09055 3.20768 0
M  V30 12363 C 1129.31 0.824066 3.67268 0
M  V30 12364 C 1128.46 1.25269 2.47392 0
M  V30 12365 H 1131.41 1.10217 1.14184 0
M  V30 12366 H 1131.43 0.435558 3.77999 0
M  V30 12367 H 1130.94 2.17122 3.21682 0
M  V30 12368 H 1129.04 -0.243055 3.71806 0
M  V30 12369 H 1129.15 1.43743 4.57028 0
M  V30 12370 H 1127.52 0.671313 2.45694 0
M  V30 12371 H 1128.3 2.34188 2.5102 0
M  V30 12372 N 1130.75 -1.41857 0.686609 0
M  V30 12373 C 1131.68 -2.28174 -0.0347358 0
M  V30 12374 C 1132.66 -1.41732 -0.796928 0
M  V30 12375 O 1133.84 -1.71165 -0.789607 0
M  V30 12376 C 1130.97 -3.21801 -1.0565 0
M  V30 12377 C 1130.01 -4.24727 -0.388523 0
M  V30 12378 S 1130.85 -5.28508 0.862546 0
M  V30 12379 C 1132 -6.25701 -0.157849 0
M  V30 12380 H 1132.24 -2.89005 0.697381 0
M  V30 12381 H 1129.77 -1.46861 0.476562 0
M  V30 12382 H 1131.73 -3.76278 -1.64089 0
M  V30 12383 H 1130.39 -2.60082 -1.76114 0
M  V30 12384 H 1129.58 -4.90471 -1.15991 0
M  V30 12385 H 1129.18 -3.73799 0.122567 0
M  V30 12386 H 1131.48 -6.6987 -1.01393 0
M  V30 12387 H 1132.42 -7.06569 0.465437 0
M  V30 12388 H 1132.83 -5.62204 -0.508614 0
M  V30 12389 N 1132.22 -0.430739 -1.51599 0
M  V30 12390 C 1133.5 0.197543 -1.946 0
M  V30 12391 C 1133.88 1.6069 -1.36901 0
M  V30 12392 O 1133.23 2.21697 -0.553422 0
M  V30 12393 C 1133.44 0.181976 -3.48525 0
M  V30 12394 C 1134.79 0.390783 -4.22798 0
M  V30 12395 O 1135.81 0.260384 -3.55247 0
M  V30 12396 O 1134.67 0.649701 -5.42624 0
M  V30 12397 H 1131.76 0.133524 -0.81615 0
M  V30 12398 H 1134.31 -0.488243 -1.62525 0
M  V30 12399 H 1133.08 -0.803584 -3.8296 0
M  V30 12400 H 1132.71 0.910952 -3.87024 0
M  V30 12401 N 1133.7 1.56767 -0.161869 0
M  V30 12402 C 1134.61 2.21083 0.784814 0
M  V30 12403 C 1135.63 1.19959 1.26039 0
M  V30 12404 O 1136.8 1.52588 1.31449 0
M  V30 12405 C 1133.87 2.83153 2.00063 0
M  V30 12406 C 1132.93 3.9945 1.57285 0
M  V30 12407 C 1132.16 4.5855 2.7307 0
M  V30 12408 O 1132.39 4.16534 3.89686 0
M  V30 12409 O 1131.32 5.48575 2.47688 0
M  V30 12410 H 1135.15 3.02522 0.267243 0
M  V30 12411 H 1132.73 1.49255 0.0658783 0
M  V30 12412 H 1134.61 3.22546 2.71186 0
M  V30 12413 H 1133.29 2.04718 2.50744 0
M  V30 12414 H 1132.2 3.64745 0.831393 0
M  V30 12415 H 1133.53 4.7945 1.11304 0
M  V30 12416 N 1135.18 -0.111886 1.57202 0
M  V30 12417 C 1136.14 -1.12101 1.99915 0
M  V30 12418 C 1137.14 -1.33906 0.890272 0
M  V30 12419 O 1138.33 -1.30303 1.15615 0
M  V30 12420 C 1135.47 -2.47392 2.34543 0
M  V30 12421 H 1136.66 -0.753736 2.90274 0
M  V30 12422 H 1134.21 -0.35641 1.52182 0
M  V30 12423 H 1134.95 -2.89026 1.47086 0
M  V30 12424 H 1134.73 -2.32917 3.15423 0
M  V30 12425 H 1136.22 -3.20004 2.68304 0
M  V30 12426 N 1136.66 -1.52894 -0.382264 0
M  V30 12427 C 1137.59 -1.74413 -1.48703 0
M  V30 12428 C 1138.6 -0.624663 -1.50339 0
M  V30 12429 O 1139.79 -0.900527 -1.54119 0
M  V30 12430 C 1136.89 -1.79387 -2.8753 0
M  V30 12431 C 1136.07 -3.08794 -3.09783 0
M  V30 12432 C 1135.12 -3.05226 -4.2863 0
M  V30 12433 O 1134.15 -3.79073 -4.24609 0
M  V30 12434 N 1135.35 -2.2488 -5.35172 0
M  V30 12435 H 1138.12 -2.69734 -1.30628 0
M  V30 12436 H 1135.68 -1.51465 -0.571842 0
M  V30 12437 H 1137.67 -1.74498 -3.65147 0
M  V30 12438 H 1136.24 -0.914233 -2.98932 0
M  V30 12439 H 1135.46 -3.27118 -2.19971 0
M  V30 12440 H 1136.75 -3.94347 -3.21509 0
M  V30 12441 H 1136.15 -1.64363 -5.41296 0
M  V30 12442 H 1134.7 -2.25825 -6.1143 0
M  V30 12443 N 1138.14 0.641106 -1.43971 0
M  V30 12444 C 1139.55 0.958161 -1.27638 0
M  V30 12445 C 1139.75 2.00456 -0.204885 0
M  V30 12446 O 1138.81 2.49106 0.412606 0
M  V30 12447 C 1140.12 1.43091 -2.64472 0
M  V30 12448 C 1141.67 1.54692 -2.72102 0
M  V30 12449 C 1142.15 2.05353 -4.09382 0
M  V30 12450 N 1143.64 2.12638 -4.11509 0
M  V30 12451 C 1144.37 2.52987 -5.14573 0
M  V30 12452 N 1143.87 2.92544 -6.28005 0
M  V30 12453 N 1145.66 2.53033 -5.01927 0
M  V30 12454 H 1137.81 -0.0510973 -2.12339 0
M  V30 12455 H 1140.07 0.039748 -0.947166 0
M  V30 12456 H 1139.78 0.736389 -3.43904 0
M  V30 12457 H 1139.65 2.40375 -2.90688 0
M  V30 12458 H 1142.04 2.23242 -1.92994 0
M  V30 12459 H 1142.12 0.558083 -2.49638 0
M  V30 12460 H 1141.77 1.37401 -4.88962 0
M  V30 12461 H 1141.7 3.0509 -4.29218 0
M  V30 12462 H 1144.19 1.84792 -3.29636 0
M  V30 12463 H 1144.5 3.22116 -7.02468 0
M  V30 12464 H 1142.85 2.90319 -6.31458 0
M  V30 12465 H 1146.04 2.21514 -4.1237 0
M  V30 12466 H 1146.21 2.84155 -5.82375 0
M  V30 12467 N 1139.62 1.30703 0.880598 0
M  V30 12468 C 1140.53 1.19389 2.01949 0
M  V30 12469 C 1141.54 0.112868 1.73634 0
M  V30 12470 O 1142.72 0.328643 1.98701 0
M  V30 12471 C 1139.78 0.891004 3.35055 0
M  V30 12472 C 1138.84 2.05784 3.76764 0
M  V30 12473 C 1138.08 1.76931 5.03519 0
M  V30 12474 O 1138.3 0.699326 5.66097 0
M  V30 12475 O 1137.23 2.623 5.4174 0
M  V30 12476 H 1141.06 2.15073 2.14423 0
M  V30 12477 H 1138.64 1.10339 1.00726 0
M  V30 12478 H 1140.53 0.737476 4.14897 0
M  V30 12479 H 1139.2 -0.0358909 3.2368 0
M  V30 12480 H 1138.11 2.26672 2.97608 0
M  V30 12481 H 1139.44 2.96661 3.9275 0
M  V30 12482 N 1141.09 -1.09351 1.1349 0
M  V30 12483 C 1142.34 -1.81185 0.89535 0
M  V30 12484 C 1142.66 -1.86173 -0.580048 0
M  V30 12485 O 1141.93 -1.34784 -1.42162 0
M  V30 12486 H 1140.51 -0.671011 0.328257 0
M  V30 12487 H 1143.17 -1.32255 1.43159 0
M  V30 12488 H 1142.27 -2.84339 1.28676 0
M  V30 12489 N 1142.57 -0.928524 -1.27343 0
M  V30 12490 C 1143.82 -0.569392 -1.9433 0
M  V30 12491 C 1144.15 0.889481 -1.7297 0
M  V30 12492 O 1143.4 1.6499 -1.05247 0
M  V30 12493 C 1143.7 -0.84269 -3.47323 0
M  V30 12494 C 1143.37 -2.28344 -3.88806 0
M  V30 12495 C 1142.03 -2.67731 -3.99842 0
M  V30 12496 C 1144.38 -3.22031 -4.09811 0
M  V30 12497 C 1141.71 -3.99928 -4.29272 0
M  V30 12498 C 1144.06 -4.5381 -4.40725 0
M  V30 12499 C 1142.72 -4.93031 -4.49975 0
M  V30 12500 H 1141.99 -0.208355 -0.711104 0
M  V30 12501 H 1144.64 -1.17264 -1.51398 0
M  V30 12502 H 1142.95 -0.156775 -3.91486 0
M  V30 12503 H 1144.64 -0.543779 -3.97296 0
M  V30 12504 H 1141.23 -1.96787 -3.80753 0
M  V30 12505 H 1145.42 -2.92803 -4.00724 0
M  V30 12506 H 1140.67 -4.29996 -4.34642 0
M  V30 12507 H 1144.85 -5.26407 -4.55926 0
M  V30 12508 H 1142.47 -5.95497 -4.72533 0
M  V30 12509 N 1144.05 1.41491 -0.694123 0
M  V30 12510 C 1145.3 2.02055 -0.233559 0
M  V30 12511 C 1145.65 1.53987 1.1535 0
M  V30 12512 O 1144.94 0.740611 1.76707 0
M  V30 12513 C 1145.14 3.56666 -0.228869 0
M  V30 12514 C 1144.97 4.1974 -1.61394 0
M  V30 12515 C 1143.74 4.54095 -2.21643 0
M  V30 12516 C 1145.93 4.46043 -2.56028 0
M  V30 12517 N 1143.92 5.02449 -3.5273 0
M  V30 12518 C 1145.29 4.96156 -3.71792 0
M  V30 12519 C 1147.34 4.28053 -2.54313 0
M  V30 12520 C 1146.05 5.3017 -4.8612 0
M  V30 12521 C 1148.07 4.63155 -3.67752 0
M  V30 12522 C 1147.43 5.13438 -4.82246 0
M  V30 12523 H 1143.53 0.77098 -0.130821 0
M  V30 12524 H 1146.12 1.72057 -0.91129 0
M  V30 12525 H 1144.29 3.8614 0.418344 0
M  V30 12526 H 1146.02 4.03949 0.246387 0
M  V30 12527 H 1142.77 4.40501 -1.73943 0
M  V30 12528 H 1143.2 5.31033 -4.1992 0
M  V30 12529 H 1147.84 3.88416 -1.67011 0
M  V30 12530 H 1145.56 5.68731 -5.74083 0
M  V30 12531 H 1149.14 4.50895 -3.67675 0
M  V30 12532 H 1148.02 5.4009 -5.6857 0
M  V30 12533 N 1145.53 0.438773 1.51369 0
M  V30 12534 C 1146.77 -0.127401 2.02399 0
M  V30 12535 C 1147.11 -1.42235 1.32223 0
M  V30 12536 O 1146.38 -1.89513 0.437607 0
M  V30 12537 C 1146.66 -0.344673 3.58447 0
M  V30 12538 C 1146.52 0.969027 4.39238 0
M  V30 12539 C 1147.84 -1.11381 4.25773 0
M  V30 12540 H 1144.96 -0.0448281 0.735635 0
M  V30 12541 H 1147.6 0.57805 1.80993 0
M  V30 12542 H 1145.75 -0.945582 3.76817 0
M  V30 12543 H 1147.42 1.60403 4.32514 0
M  V30 12544 H 1145.66 1.57329 4.04265 0
M  V30 12545 H 1146.33 0.771029 5.46589 0
M  V30 12546 H 1148.81 -0.604785 4.11681 0
M  V30 12547 H 1147.69 -1.23459 5.34835 0
M  V30 12548 H 1147.95 -2.14225 3.8673 0
M  V30 12549 N 1147.01 -1.56678 0.170181 0
M  V30 12550 C 1147.95 -2.19222 -0.777459 0
M  V30 12551 C 1148.95 -1.15592 -1.23834 0
M  V30 12552 O 1150.15 -1.33794 -1.20412 0
M  V30 12553 H 1146.53 -0.702244 -0.268992 0
M  V30 12554 H 1148.5 -2.97543 -0.225989 0
M  V30 12555 C 1147.25 -2.84631 -1.997 0
M  V30 12556 H 1146.57 -3.641 -1.65139 0
M  V30 12557 H 1148.01 -3.31864 -2.63898 0
M  V30 12558 C 1146.47 -1.84345 -2.81991 0
M  V30 12559 O 1147 -1.32821 -3.79106 0
M  V30 12560 N 1145.21 -1.53127 -2.46983 0
M  V30 12561 H 1144.75 -1.95219 -1.6807 0
M  V30 12562 H 1144.71 -0.862787 -3.0233 0
M  V30 12563 N 1148.48 0.103547 -1.57259 0
M  V30 12564 C 1149.41 1.12714 -2.04494 0
M  V30 12565 C 1150.39 1.42278 -0.932255 0
M  V30 12566 O 1151.58 1.52453 -1.20298 0
M  V30 12567 C 1148.71 2.44927 -2.46228 0
M  V30 12568 C 1147.66 2.2979 -3.61082 0
M  V30 12569 C 1146.99 3.67105 -3.88765 0
M  V30 12570 C 1148.29 1.7455 -4.9227 0
M  V30 12571 H 1149.98 0.734198 -2.90258 0
M  V30 12572 H 1147.53 0.351725 -1.39638 0
M  V30 12573 H 1149.48 3.16798 -2.77879 0
M  V30 12574 H 1148.21 2.8614 -1.57453 0
M  V30 12575 H 1146.87 1.60366 -3.29664 0
M  V30 12576 H 1146.51 4.05831 -2.97171 0
M  V30 12577 H 1146.21 3.57825 -4.66084 0
M  V30 12578 H 1147.74 4.40456 -4.22884 0
M  V30 12579 H 1149.15 2.36253 -5.22358 0
M  V30 12580 H 1147.55 1.76051 -5.73695 0
M  V30 12581 H 1148.62 0.704242 -4.79759 0
M  V30 12582 N 1149.96 1.53094 0.37415 0
M  V30 12583 C 1151.38 1.42676 0.715246 0
M  V30 12584 C 1151.58 0.558992 1.93591 0
M  V30 12585 O 1150.63 0.0381328 2.52471 0
M  V30 12586 C 1151.95 2.85746 0.936459 0
M  V30 12587 C 1153.49 2.95322 1.03701 0
M  V30 12588 C 1153.97 4.39436 1.29075 0
M  V30 12589 N 1155.46 4.42826 1.35864 0
M  V30 12590 C 1156.2 5.51433 1.57191 0
M  V30 12591 N 1155.69 6.701 1.75891 0
M  V30 12592 N 1157.48 5.38998 1.59491 0
M  V30 12593 H 1149.64 2.08025 -0.428854 0
M  V30 12594 H 1151.9 0.939078 -0.129758 0
M  V30 12595 H 1151.6 3.51523 0.111448 0
M  V30 12596 H 1151.48 3.28887 1.84698 0
M  V30 12597 H 1153.87 2.29704 1.85257 0
M  V30 12598 H 1153.95 2.55588 0.104066 0
M  V30 12599 H 1153.59 5.05625 0.480231 0
M  V30 12600 H 1153.52 4.76735 2.23677 0
M  V30 12601 H 1156.01 3.57301 1.23061 0
M  V30 12602 H 1156.32 7.48643 1.91713 0
M  V30 12603 H 1154.67 6.73102 1.73086 0
M  V30 12604 H 1157.86 4.45257 1.44444 0
M  V30 12605 H 1158.03 6.23705 1.75771 0
M  V30 12606 N 1151.44 -0.633461 1.44309 0
M  V30 12607 C 1152.4 -1.72743 1.50641 0
M  V30 12608 C 1153.4 -1.56031 0.388718 0
M  V30 12609 O 1154.59 -1.61568 0.651251 0
M  V30 12610 C 1151.72 -3.11804 1.37809 0
M  V30 12611 H 1152.92 -1.68503 2.48086 0
M  V30 12612 H 1150.47 -0.846912 1.31366 0
M  V30 12613 H 1151.21 -3.2164 0.414483 0
M  V30 12614 H 1150.99 -3.2534 2.18852 0
M  V30 12615 H 1152.48 -3.91538 1.45216 0
M  V30 12616 N 1152.92 -1.31168 -0.873655 0
M  V30 12617 C 1153.88 -1.18471 -1.96207 0
M  V30 12618 C 1154.88 -0.112814 -1.60404 0
M  V30 12619 O 1156.07 -0.3618 -1.70401 0
M  V30 12620 C 1153.2 -0.817662 -3.30949 0
M  V30 12621 H 1154.4 -2.1518 -2.08896 0
M  V30 12622 H 1151.95 -1.14727 -1.06149 0
M  V30 12623 H 1152.68 0.148428 -3.2396 0
M  V30 12624 H 1152.47 -1.59244 -3.58307 0
M  V30 12625 H 1153.96 -0.75262 -4.10762 0
M  V30 12626 N 1154.4 1.08748 -1.14068 0
M  V30 12627 C 1155.65 1.8044 -0.901352 0
M  V30 12628 C 1155.96 1.86995 0.573791 0
M  V30 12629 O 1157.16 2.55065 0.930275 0
M  V30 12630 C 1155.62 3.24185 -1.56308 0
M  V30 12631 C 1155.23 3.25875 -3.07424 0
M  V30 12632 C 1156.97 4.00584 -1.40473 0
M  V30 12633 C 1154.88 4.64186 -3.66449 0
M  V30 12634 H 1153.81 0.676201 -0.333569 0
M  V30 12635 H 1156.46 1.22169 -1.3692 0
M  V30 12636 H 1154.84 3.82561 -1.0229 0
M  V30 12637 H 1156.02 2.77225 -3.6808 0
M  V30 12638 H 1154.33 2.62969 -3.22856 0
M  V30 12639 H 1156.93 5.02781 -1.81976 0
M  V30 12640 H 1157.27 4.14823 -0.350408 0
M  V30 12641 H 1157.8 3.48668 -1.91508 0
M  V30 12642 H 1154.54 4.5515 -4.71719 0
M  V30 12643 H 1154.06 5.13132 -3.10574 0
M  V30 12644 H 1155.74 5.33161 -3.66536 0
M  V30 12645 N 1155.87 0.935264 1.26849 0
M  V30 12646 C 1156.82 0.438896 2.26588 0
M  V30 12647 C 1157.79 -0.498267 1.5845 0
M  V30 12648 O 1158.98 -0.415771 1.86215 0
M  V30 12649 C 1156.12 -0.295293 3.43834 0
M  V30 12650 C 1155.23 0.676857 4.26665 0
M  V30 12651 C 1154.36 -0.0779349 5.31143 0
M  V30 12652 C 1153.4 0.886425 6.05648 0
M  V30 12653 N 1152.54 0.163771 7.01909 0
M  V30 12654 H 1157.38 1.29439 2.6842 0
M  V30 12655 H 1154.92 0.649523 1.31983 0
M  V30 12656 H 1156.88 -0.737354 4.10632 0
M  V30 12657 H 1155.51 -1.11497 3.02933 0
M  V30 12658 H 1154.56 1.23744 3.5971 0
M  V30 12659 H 1155.87 1.41355 4.78351 0
M  V30 12660 H 1155.02 -0.579557 6.03926 0
M  V30 12661 H 1153.76 -0.84755 4.80279 0
M  V30 12662 H 1152.77 1.39923 5.31697 0
M  V30 12663 H 1153.99 1.65595 6.58601 0
M  V30 12664 H 1151.94 -0.58746 6.53364 0
M  V30 12665 H 1151.86 0.839902 7.5132 0
M  V30 12666 H 1153.12 -0.316951 7.78855 0
M  V30 12667 N 1157.35 -1.41121 0.701616 0
M  V30 12668 C 1158.58 -2.05973 0.242896 0
M  V30 12669 C 1159 -1.52474 -1.10151 0
M  V30 12670 O 1158.36 -0.654224 -1.69085 0
M  V30 12671 C 1158.41 -3.59943 0.217614 0
M  V30 12672 O 1157.51 -4.04454 -0.805629 0
M  V30 12673 H 1156.85 -0.653581 0.117166 0
M  V30 12674 H 1159.38 -1.80777 0.958175 0
M  V30 12675 H 1159.39 -4.07969 0.0505267 0
M  V30 12676 H 1158.07 -3.98249 1.19877 0
M  V30 12677 H 1156.65 -3.6792 -0.607404 0
M  V30 12678 O 1158.87 -0.588795 -1.50384 0
M  V30 12679 H 1159.56 -0.0952245 -1.93466 0
M  V30 END ATOM
M  V30 BEGIN BOND
M  V30 END BOND
M  V30 END CTAB
M  END
$$$$
